# Generated by pormake.
# Topology mok, (4)-cn, num edge types: 1
# Building blocks:
#     Node 0, Type 0, BuildingBlock: CEKHIL_clean_sbu_0, # of connection points: 4
#     Node 1, Type 0, BuildingBlock: CEKHIL_clean_sbu_0, # of connection points: 4
#     Node 2, Type 0, BuildingBlock: CEKHIL_clean_sbu_0, # of connection points: 4
#     Node 3, Type 0, BuildingBlock: CEKHIL_clean_sbu_0, # of connection points: 4
#     Node 4, Type 0, BuildingBlock: CEKHIL_clean_sbu_0, # of connection points: 4
#     Node 5, Type 0, BuildingBlock: CEKHIL_clean_sbu_0, # of connection points: 4
#     Node 6, Type 0, BuildingBlock: CEKHIL_clean_sbu_0, # of connection points: 4
#     Node 7, Type 0, BuildingBlock: CEKHIL_clean_sbu_0, # of connection points: 4
#     Edge 8, Type (0, 0), BuildingBlock: XUDNAN_clean_linker_2, # of connection points: 2
#     Edge 9, Type (0, 0), BuildingBlock: XUDNAN_clean_linker_2, # of connection points: 2
#     Edge 10, Type (0, 0), BuildingBlock: XUDNAN_clean_linker_2, # of connection points: 2
#     Edge 11, Type (0, 0), BuildingBlock: XUDNAN_clean_linker_2, # of connection points: 2
#     Edge 12, Type (0, 0), BuildingBlock: XUDNAN_clean_linker_2, # of connection points: 2
#     Edge 13, Type (0, 0), BuildingBlock: XUDNAN_clean_linker_2, # of connection points: 2
#     Edge 14, Type (0, 0), BuildingBlock: XUDNAN_clean_linker_2, # of connection points: 2
#     Edge 15, Type (0, 0), BuildingBlock: XUDNAN_clean_linker_2, # of connection points: 2
#     Edge 16, Type (0, 0), BuildingBlock: XUDNAN_clean_linker_2, # of connection points: 2
#     Edge 17, Type (0, 0), BuildingBlock: XUDNAN_clean_linker_2, # of connection points: 2
#     Edge 18, Type (0, 0), BuildingBlock: XUDNAN_clean_linker_2, # of connection points: 2
#     Edge 19, Type (0, 0), BuildingBlock: XUDNAN_clean_linker_2, # of connection points: 2
#     Edge 20, Type (0, 0), BuildingBlock: XUDNAN_clean_linker_2, # of connection points: 2
#     Edge 21, Type (0, 0), BuildingBlock: XUDNAN_clean_linker_2, # of connection points: 2
#     Edge 22, Type (0, 0), BuildingBlock: XUDNAN_clean_linker_2, # of connection points: 2
#     Edge 23, Type (0, 0), BuildingBlock: XUDNAN_clean_linker_2, # of connection points: 2
# Relax obj value: 0.017
# Max RMSD: 0.041
# Mean RMSD: 0.041
data_MOF--net-mok--node1-CEKHIL_clean_sbu_0--edge1-XUDNAN_clean_linker_2
_symmetry_space_group_name_H-M    P1
_symmetry_Int_Tables_number       1
_symmetry_cell_setting            triclinic
loop_
_symmetry_equiv_pos_as_xyz
'x, y, z'
_cell_length_a     53.21656
_cell_length_b     15.345036
_cell_length_c     26.911118
_cell_angle_alpha  89.994365
_cell_angle_beta   90.167777
_cell_angle_gamma 90.070891
loop_
_atom_site_label
_atom_site_type_symbol
_atom_site_fract_x
_atom_site_fract_y
_atom_site_fract_z
_atom_type_partial_charge
Co0 Co 0.61729 0.29234 0.02469 0.0
O1 O 0.58217 0.25854 0.02787 0.0
O2 O 0.61291 0.17079 0.00562 0.0
C3 C 0.6186 0.36224 0.09909 0.0
O4 O 0.65601 0.30325 0.01938 0.0
Co5 Co 0.63156 0.48975 0.02365 0.0
O6 O 0.66608 0.44419 0.03196 0.0
C7 C 0.60774 0.41037 0.93608 0.0
C8 C 0.589 0.18132 0.01383 0.0
C9 C 0.67241 0.36483 0.02555 0.0
O10 O 0.61234 0.33325 0.95312 0.0
O11 O 0.61132 0.47989 0.96134 0.0
O12 O 0.62066 0.27786 0.09746 0.0
O13 O 0.61348 0.39867 0.05724 0.0
Co14 Co 0.40896 0.69302 0.03289 0.0
O15 O 0.4452 0.69439 0.03696 0.0
O16 O 0.42243 0.80637 0.01239 0.0
C17 C 0.40251 0.63009 0.10793 0.0
O18 O 0.37082 0.71475 0.02551 0.0
Co19 Co 0.38005 0.51558 0.03433 0.0
O20 O 0.34987 0.59003 0.04156 0.0
C21 C 0.41011 0.56624 0.94718 0.0
C22 C 0.44464 0.77425 0.02135 0.0
C23 C 0.35016 0.67161 0.03261 0.0
O24 O 0.41117 0.64577 0.96258 0.0
O25 O 0.40108 0.50371 0.97309 0.0
O26 O 0.40652 0.71355 0.10511 0.0
O27 O 0.40469 0.58823 0.06675 0.0
Co28 Co 0.61808 0.69805 0.50408 0.0
O29 O 0.58287 0.73065 0.50079 0.0
O30 O 0.61266 0.81235 0.5337 0.0
C31 C 0.6212 0.65249 0.42439 0.0
O32 O 0.6567 0.68849 0.51186 0.0
Co33 Co 0.63386 0.50542 0.48944 0.0
O34 O 0.66826 0.55416 0.4873 0.0
C35 C 0.61241 0.5588 0.58531 0.0
C36 C 0.58901 0.80331 0.52221 0.0
C37 C 0.67372 0.63106 0.50163 0.0
O38 O 0.61218 0.63866 0.57034 0.0
O39 O 0.61911 0.49507 0.55771 0.0
O40 O 0.62289 0.73471 0.43546 0.0
O41 O 0.6153 0.60171 0.46086 0.0
Co42 Co 0.40954 0.28992 0.50836 0.0
O43 O 0.44582 0.28614 0.5066 0.0
O44 O 0.42202 0.17681 0.53143 0.0
C45 C 0.40379 0.34623 0.4319 0.0
O46 O 0.37121 0.26995 0.51267 0.0
Co47 Co 0.38238 0.46823 0.50499 0.0
O48 O 0.35113 0.39816 0.50225 0.0
C49 C 0.40834 0.41591 0.5964 0.0
C50 C 0.44452 0.20704 0.52323 0.0
C51 C 0.3509 0.3158 0.50805 0.0
O52 O 0.41122 0.33902 0.57805 0.0
O53 O 0.39909 0.47933 0.57154 0.0
O54 O 0.4075 0.26327 0.43796 0.0
O55 O 0.40642 0.39377 0.47128 0.0
Co56 Co 0.11633 0.81435 0.02216 0.0
O57 O 0.0805 0.80043 0.02624 0.0
O58 O 0.10614 0.69366 0.00638 0.0
C59 C 0.12026 0.88892 0.0945 0.0
O60 O 0.15515 0.80924 0.01567 0.0
Co61 Co 0.13622 0.00681 0.01567 0.0
O62 O 0.16907 0.94805 0.02283 0.0
C63 C 0.11284 0.92523 0.92793 0.0
C64 C 0.08311 0.71967 0.01368 0.0
C65 C 0.1731 0.86649 0.01815 0.0
O66 O 0.11282 0.85035 0.94986 0.0
O67 O 0.1191 0.99614 0.94976 0.0
O68 O 0.11937 0.80425 0.09509 0.0
O69 O 0.11643 0.92376 0.05177 0.0
Co70 Co 0.90856 0.20469 0.02693 0.0
O71 O 0.94484 0.2268 0.02679 0.0
O72 O 0.91566 0.32518 0.01173 0.0
C73 C 0.90734 0.12576 0.09817 0.0
O74 O 0.87001 0.21317 0.02562 0.0
Co75 Co 0.88336 0.02291 0.02155 0.0
O76 O 0.85092 0.08345 0.03316 0.0
C77 C 0.90697 0.09794 0.93177 0.0
C78 C 0.93941 0.30737 0.01621 0.0
C79 C 0.84997 0.16617 0.03006 0.0
O80 O 0.90958 0.17209 0.95393 0.0
O81 O 0.89897 0.02951 0.95389 0.0
O82 O 0.90812 0.21048 0.09992 0.0
O83 O 0.90905 0.09223 0.05438 0.0
Co84 Co 0.11643 0.21179 0.50041 0.0
O85 O 0.08092 0.23555 0.50364 0.0
O86 O 0.10992 0.32215 0.53528 0.0
C87 C 0.11693 0.17669 0.41888 0.0
O88 O 0.15544 0.20557 0.50118 0.0
Co89 Co 0.13186 0.02075 0.47366 0.0
O90 O 0.16505 0.07702 0.4652 0.0
C91 C 0.11166 0.05963 0.57281 0.0
C92 C 0.08617 0.30695 0.52689 0.0
C93 C 0.17152 0.15136 0.4823 0.0
O94 O 0.11391 0.14217 0.56447 0.0
O95 O 0.1155 1.00159 0.53955 0.0
O96 O 0.11796 0.25784 0.43248 0.0
O97 O 0.113 0.12193 0.45424 0.0
Co98 Co 0.90957 0.79549 0.50499 0.0
O99 O 0.94588 0.77768 0.50575 0.0
O100 O 0.91821 0.68749 0.53837 0.0
C101 C 0.90683 0.83422 0.42387 0.0
O102 O 0.87107 0.7857 0.50957 0.0
Co103 Co 0.88404 0.97212 0.48209 0.0
O104 O 0.85182 0.90656 0.48191 0.0
C105 C 0.90956 0.94552 0.57853 0.0
C106 C 0.94162 0.70452 0.52855 0.0
C107 C 0.85098 0.82855 0.49802 0.0
O108 O 0.91142 0.86311 0.5697 0.0
O109 O 0.90152 1.00031 0.54632 0.0
O110 O 0.90796 0.75257 0.43662 0.0
O111 O 0.90911 0.88936 0.45981 0.0
H112 H 0.80238 0.091 0.03471 0.0
H113 H 0.84043 0.34114 0.02429 0.0
H114 H 0.79948 0.41506 0.02114 0.0
H115 H 0.75125 0.14275 0.95126 0.0
H116 H 0.72774 0.08513 0.98648 0.0
H117 H 0.76003 0.05002 0.98858 0.0
H118 H 0.75999 0.0634 0.08445 0.0
H119 H 0.72767 0.09824 0.08268 0.0
H120 H 0.75105 0.16516 0.11278 0.0
H121 H 0.75529 0.46303 0.01832 0.0
H122 H 0.70983 0.4848 0.01781 0.0
H123 H 0.69823 0.20502 0.03008 0.0
C124 C 0.80213 0.16137 0.03194 0.0
C125 C 0.82489 0.21002 0.02977 0.0
C126 C 0.8235 0.30202 0.02605 0.0
C127 C 0.80025 0.3448 0.02417 0.0
C128 C 0.77834 0.29509 0.02606 0.0
C129 C 0.77894 0.2055 0.03001 0.0
C130 C 0.75234 0.1684 0.03138 0.0
C131 C 0.74756 0.10799 0.98676 0.0
C132 C 0.74748 0.121 0.08076 0.0
C133 C 0.73676 0.25134 0.02749 0.0
C134 C 0.75236 0.32326 0.02446 0.0
C135 C 0.74289 0.40727 0.0208 0.0
C136 C 0.71683 0.41875 0.02064 0.0
C137 C 0.70007 0.34677 0.02413 0.0
C138 C 0.71034 0.26152 0.02723 0.0
H139 H 0.19937 0.71824 0.05093 0.0
H140 H 0.20809 0.96189 0.97068 0.0
H141 H 0.25363 0.93929 0.9666 0.0
H142 H 0.25514 0.73908 0.12422 0.0
H143 H 0.26377 0.62563 0.12163 0.0
H144 H 0.23123 0.65679 0.11651 0.0
H145 H 0.22758 0.57486 0.03268 0.0
H146 H 0.26002 0.54254 0.03789 0.0
H147 H 0.24929 0.5999 0.98337 0.0
H148 H 0.29856 0.89787 0.97545 0.0
H149 H 0.34011 0.83068 0.99 0.0
H150 H 0.30367 0.6119 0.06279 0.0
C151 C 0.21086 0.76573 0.03173 0.0
C152 C 0.20001 0.84215 0.01139 0.0
C153 C 0.21585 0.90324 0.98706 0.0
C154 C 0.24184 0.89113 0.98445 0.0
C155 C 0.25209 0.81715 0.00614 0.0
C156 C 0.2372 0.75469 0.02877 0.0
C157 C 0.25349 0.68188 0.04961 0.0
C158 C 0.25074 0.6755 0.10636 0.0
C159 C 0.24722 0.59462 0.02437 0.0
C160 C 0.2796 0.71381 0.03526 0.0
C161 C 0.2783 0.79229 0.01049 0.0
C162 C 0.29986 0.83592 0.99449 0.0
C163 C 0.32343 0.79752 0.00319 0.0
C164 C 0.32534 0.71586 0.02735 0.0
C165 C 0.30299 0.67416 0.0439 0.0
H166 H 0.80356 0.90179 0.48743 0.0
H167 H 0.84128 0.65794 0.52156 0.0
H168 H 0.80016 0.58557 0.52986 0.0
H169 H 0.75103 0.87048 0.57312 0.0
H170 H 0.72826 0.91932 0.53198 0.0
H171 H 0.76063 0.95382 0.52991 0.0
H172 H 0.76222 0.91853 0.43591 0.0
H173 H 0.72986 0.8841 0.43766 0.0
H174 H 0.75366 0.81099 0.41477 0.0
H175 H 0.75562 0.53739 0.53117 0.0
H176 H 0.71002 0.51498 0.52572 0.0
H177 H 0.69951 0.78949 0.49249 0.0
C178 C 0.80322 0.8332 0.49684 0.0
C179 C 0.8259 0.78574 0.50381 0.0
C180 C 0.82439 0.69609 0.51612 0.0
C181 C 0.80105 0.65427 0.52096 0.0
C182 C 0.7792 0.70279 0.51378 0.0
C183 C 0.77998 0.79031 0.50215 0.0
C184 C 0.7535 0.82657 0.49576 0.0
C185 C 0.74804 0.89671 0.53504 0.0
C186 C 0.74959 0.86213 0.44288 0.0
C187 C 0.73776 0.74524 0.50469 0.0
C188 C 0.75313 0.67492 0.51519 0.0
C189 C 0.74341 0.59203 0.52325 0.0
C190 C 0.71738 0.58003 0.51991 0.0
C191 C 0.70101 0.65037 0.50869 0.0
C192 C 0.71141 0.73461 0.5017 0.0
H193 H 0.20045 0.27479 0.5352 0.0
H194 H 0.20555 0.07211 0.42279 0.0
H195 H 0.25126 0.08651 0.4221 0.0
H196 H 0.25101 0.40955 0.48428 0.0
H197 H 0.26305 0.44146 0.54427 0.0
H198 H 0.23023 0.4155 0.53698 0.0
H199 H 0.23408 0.30076 0.60712 0.0
H200 H 0.26703 0.32545 0.61403 0.0
H201 H 0.25709 0.21515 0.60189 0.0
H202 H 0.29667 0.11338 0.43614 0.0
H203 H 0.33911 0.17142 0.45423 0.0
H204 H 0.30641 0.36477 0.55207 0.0
C205 C 0.21118 0.23424 0.51013 0.0
C206 C 0.19907 0.17124 0.4797 0.0
C207 C 0.21406 0.11979 0.44732 0.0
C208 C 0.24023 0.12724 0.44653 0.0
C209 C 0.25161 0.18724 0.47794 0.0
C210 C 0.23769 0.24132 0.50844 0.0
C211 C 0.25512 0.30194 0.53725 0.0
C212 C 0.24952 0.39781 0.52494 0.0
C213 C 0.25321 0.28479 0.59341 0.0
C214 C 0.28068 0.27402 0.51739 0.0
C215 C 0.27815 0.20615 0.48415 0.0
C216 C 0.29894 0.16699 0.46189 0.0
C217 C 0.32301 0.19968 0.47272 0.0
C218 C 0.32607 0.27205 0.50464 0.0
C219 C 0.30459 0.30908 0.5276 0.0
H220 H 0.61552 0.31226 0.19785 0.0
H221 H 0.63151 0.53327 0.10228 0.0
H222 H 0.63698 0.62677 0.17536 0.0
H223 H 0.57864 0.43098 0.28384 0.0
H224 H 0.58939 0.37349 0.3383 0.0
H225 H 0.58933 0.31989 0.27879 0.0
H226 H 0.63677 0.28609 0.28847 0.0
H227 H 0.63696 0.33949 0.34813 0.0
H228 H 0.6585 0.37388 0.30042 0.0
H229 H 0.63845 0.69941 0.25696 0.0
H230 H 0.63445 0.74854 0.34366 0.0
H231 H 0.61619 0.48435 0.38895 0.0
C232 C 0.62063 0.37993 0.19252 0.0
C233 C 0.62333 0.41511 0.14422 0.0
C234 C 0.62945 0.50446 0.13869 0.0
C235 C 0.63268 0.55833 0.1801 0.0
C236 C 0.62955 0.52236 0.22707 0.0
C237 C 0.62359 0.43543 0.23377 0.0
C238 C 0.61956 0.41564 0.28851 0.0
C239 C 0.59263 0.3831 0.29789 0.0
C240 C 0.63912 0.34987 0.3075 0.0
C241 C 0.6238 0.50528 0.31109 0.0
C242 C 0.62983 0.56539 0.27483 0.0
C243 C 0.6339 0.65294 0.28583 0.0
C244 C 0.63155 0.68025 0.33522 0.0
C245 C 0.62502 0.62041 0.37309 0.0
C246 C 0.62134 0.53153 0.36083 0.0
H247 H 0.41119 0.68098 0.20503 0.0
H248 H 0.37935 0.47326 0.11519 0.0
H249 H 0.37203 0.38613 0.1902 0.0
H250 H 0.4447 0.54553 0.28498 0.0
H251 H 0.43971 0.60818 0.34073 0.0
H252 H 0.43918 0.66125 0.28112 0.0
H253 H 0.39471 0.72144 0.29935 0.0
H254 H 0.39515 0.66882 0.35926 0.0
H255 H 0.36988 0.64718 0.31623 0.0
H256 H 0.37288 0.31358 0.2714 0.0
H257 H 0.38114 0.26018 0.35622 0.0
H258 H 0.41197 0.51241 0.3966 0.0
C259 C 0.40205 0.61819 0.20149 0.0
C260 C 0.39567 0.58419 0.15425 0.0
C261 C 0.38434 0.50086 0.15087 0.0
C262 C 0.38 0.45081 0.19336 0.0
C263 C 0.38707 0.48483 0.23919 0.0
C264 C 0.39773 0.56668 0.24383 0.0
C265 C 0.4055 0.58387 0.29732 0.0
C266 C 0.43396 0.60067 0.30124 0.0
C267 C 0.3904 0.65985 0.31934 0.0
C268 C 0.39828 0.49788 0.32137 0.0
C269 C 0.38745 0.44226 0.28704 0.0
C270 C 0.38092 0.35691 0.29893 0.0
C271 C 0.38579 0.32704 0.34709 0.0
C272 C 0.397 0.38236 0.38289 0.0
C273 C 0.40293 0.46938 0.37011 0.0
H274 H 0.40036 0.65251 0.85982 0.0
H275 H 0.43755 0.42546 0.92121 0.0
H276 H 0.44545 0.37023 0.83662 0.0
H277 H 0.36775 0.54155 0.76942 0.0
H278 H 0.36987 0.6236 0.72168 0.0
H279 H 0.37134 0.65473 0.78604 0.0
H280 H 0.41409 0.73129 0.77128 0.0
H281 H 0.41262 0.70128 0.70656 0.0
H282 H 0.43954 0.67125 0.74353 0.0
H283 H 0.44411 0.32929 0.74739 0.0
H284 H 0.43459 0.30713 0.65855 0.0
H285 H 0.39745 0.55902 0.65403 0.0
C286 C 0.41104 0.59304 0.85516 0.0
C287 C 0.41873 0.54374 0.89678 0.0
C288 C 0.43176 0.4644 0.88961 0.0
C289 C 0.43636 0.4326 0.84175 0.0
C290 C 0.42771 0.4808 0.80138 0.0
C291 C 0.41549 0.55967 0.80742 0.0
C292 C 0.40575 0.59348 0.75804 0.0
C293 C 0.37698 0.6039 0.75887 0.0
C294 C 0.41878 0.67942 0.74403 0.0
C295 C 0.41367 0.52 0.72383 0.0
C296 C 0.42659 0.45626 0.74949 0.0
C297 C 0.43437 0.37941 0.72664 0.0
C298 C 0.42874 0.36718 0.67618 0.0
C299 C 0.41533 0.43131 0.6491 0.0
C300 C 0.408 0.50908 0.67338 0.0
H301 H 0.62456 0.3298 0.85073 0.0
H302 H 0.57288 0.52589 0.90498 0.0
H303 H 0.56523 0.57578 0.81932 0.0
H304 H 0.65332 0.45884 0.76424 0.0
H305 H 0.65708 0.3776 0.71647 0.0
H306 H 0.65519 0.34505 0.78055 0.0
H307 H 0.61771 0.24321 0.76026 0.0
H308 H 0.61973 0.27433 0.69579 0.0
H309 H 0.59051 0.28655 0.72876 0.0
H310 H 0.56883 0.62198 0.73135 0.0
H311 H 0.58021 0.65146 0.64399 0.0
H312 H 0.62855 0.42392 0.64434 0.0
C313 C 0.61081 0.3805 0.84417 0.0
C314 C 0.59907 0.42338 0.88435 0.0
C315 C 0.5819 0.49182 0.87462 0.0
C316 C 0.57744 0.5207 0.82609 0.0
C317 C 0.59019 0.48021 0.78741 0.0
C318 C 0.60618 0.41053 0.79559 0.0
C319 C 0.61913 0.38407 0.74771 0.0
C320 C 0.64788 0.3919 0.75256 0.0
C321 C 0.61129 0.29154 0.73221 0.0
C322 C 0.60864 0.45177 0.71211 0.0
C323 C 0.5919 0.50629 0.7358 0.0
C324 C 0.58144 0.57848 0.71199 0.0
C325 C 0.58815 0.59513 0.66251 0.0
C326 C 0.60501 0.53952 0.63721 0.0
C327 C 0.61518 0.46653 0.66239 0.0
H328 H 0.11823 0.83968 0.19289 0.0
H329 H 0.1315 0.0617 0.09648 0.0
H330 H 0.13504 0.15737 0.16948 0.0
H331 H 0.07932 0.94898 0.27707 0.0
H332 H 0.09085 0.89459 0.33194 0.0
H333 H 0.09223 0.8407 0.27263 0.0
H334 H 0.14021 0.81852 0.28334 0.0
H335 H 0.13894 0.87196 0.34292 0.0
H336 H 0.16005 0.91138 0.29572 0.0
H337 H 0.13369 0.23159 0.25165 0.0
H338 H 0.12797 0.27889 0.33864 0.0
H339 H 0.11511 0.01024 0.38238 0.0
C340 C 0.12241 0.90806 0.18732 0.0
C341 C 0.12473 0.94313 0.13902 0.0
C342 C 0.12972 0.03325 0.1331 0.0
C343 C 0.13182 0.08825 0.17437 0.0
C344 C 0.12889 0.05225 0.22142 0.0
C345 C 0.12441 0.96424 0.22827 0.0
C346 C 0.12042 0.94358 0.28276 0.0
C347 C 0.09414 0.90469 0.29159 0.0
C348 C 0.14115 0.88276 0.30233 0.0
C349 C 0.12275 0.03394 0.30509 0.0
C350 C 0.12788 0.09551 0.26909 0.0
C351 C 0.12992 0.18393 0.28032 0.0
C352 C 0.12657 0.21022 0.32975 0.0
C353 C 0.12113 0.14831 0.36717 0.0
C354 C 0.11939 0.05904 0.35458 0.0
H355 H 0.90797 1.00144 0.38749 0.0
H356 H 0.89916 0.73173 0.34202 0.0
H357 H 0.89615 0.77868 0.25438 0.0
H358 H 0.86543 0.09589 0.29483 0.0
H359 H 0.8848 0.19088 0.28545 0.0
H360 H 0.8847 0.13674 0.34488 0.0
H361 H 0.93305 0.11937 0.34038 0.0
H362 H 0.9333 0.17322 0.28095 0.0
H363 H 0.94684 0.06618 0.28733 0.0
H364 H 0.89631 0.85345 0.17185 0.0
H365 H 0.8996 0.9505 0.09936 0.0
H366 H 0.90833 0.17323 0.19742 0.0
C367 C 0.90511 0.95232 0.35914 0.0
C368 C 0.90372 0.86278 0.37161 0.0
C369 C 0.90023 0.80056 0.33338 0.0
C370 C 0.89846 0.82666 0.2835 0.0
C371 C 0.90019 0.91526 0.27244 0.0
C372 C 0.90338 0.97726 0.30912 0.0
C373 C 0.90563 0.06796 0.28694 0.0
C374 C 0.88384 0.1263 0.30405 0.0
C375 C 0.93123 0.10907 0.29966 0.0
C376 C 0.90357 0.04713 0.23197 0.0
C377 C 0.9003 0.95864 0.22459 0.0
C378 C 0.89868 0.92288 0.17718 0.0
C379 C 0.90061 0.97873 0.13619 0.0
C380 C 0.90414 0.06965 0.14261 0.0
C381 C 0.90543 0.1042 0.19128 0.0
H382 H 0.90697 0.85967 0.66822 0.0
H383 H 0.92456 0.11037 0.60227 0.0
H384 H 0.92939 0.17434 0.68582 0.0
H385 H 0.86925 0.9418 0.76283 0.0
H386 H 0.87901 0.86475 0.80959 0.0
H387 H 0.8803 0.83534 0.74495 0.0
H388 H 0.92764 0.79886 0.75377 0.0
H389 H 0.92646 0.82763 0.81865 0.0
H390 H 0.94889 0.87981 0.77833 0.0
H391 H 0.92853 0.21471 0.7765 0.0
H392 H 0.92195 0.22751 0.86715 0.0
H393 H 0.9042 0.9513 0.87362 0.0
C394 C 0.91252 0.92737 0.67141 0.0
C395 C 0.91556 0.97981 0.6287 0.0
C396 C 0.92216 0.06884 0.63446 0.0
C397 C 0.92502 0.1058 0.68179 0.0
C398 C 0.9212 0.05306 0.72317 0.0
C399 C 0.91519 0.96565 0.71849 0.0
C400 C 0.9101 0.92513 0.7688 0.0
C401 C 0.88306 0.88971 0.77168 0.0
C402 C 0.92943 0.85363 0.78058 0.0
C403 C 0.91366 0.00372 0.80223 0.0
C404 C 0.92032 0.07669 0.77534 0.0
C405 C 0.92357 0.15775 0.79805 0.0
C406 C 0.91975 0.1644 0.84958 0.0
C407 C 0.91256 0.0906 0.8778 0.0
C408 C 0.90978 0.00916 0.85349 0.0
H409 H 0.11572 0.06922 0.86797 0.0
H410 H 0.09707 0.79349 0.86546 0.0
H411 H 0.09062 0.80224 0.77456 0.0
H412 H 0.07185 0.13858 0.76955 0.0
H413 H 0.0938 0.21694 0.74497 0.0
H414 H 0.09415 0.19105 0.81031 0.0
H415 H 0.14133 0.15086 0.80448 0.0
H416 H 0.14114 0.17635 0.73925 0.0
H417 H 0.15127 0.07029 0.75994 0.0
H418 H 0.08988 0.83829 0.68358 0.0
H419 H 0.09545 0.89711 0.59927 0.0
H420 H 0.11492 0.14968 0.66134 0.0
C421 C 0.10982 0.01072 0.84868 0.0
C422 C 0.10682 0.93055 0.87412 0.0
C423 C 0.09943 0.85565 0.84698 0.0
C424 C 0.09565 0.86008 0.79535 0.0
C425 C 0.09923 0.9399 0.7715 0.0
C426 C 0.10607 0.01393 0.79734 0.0
C427 C 0.11046 0.09028 0.76268 0.0
C428 C 0.09143 0.16354 0.77247 0.0
C429 C 0.13766 0.12386 0.76684 0.0
C430 C 0.10568 0.04715 0.71299 0.0
C431 C 0.09894 0.96067 0.71898 0.0
C432 C 0.09488 0.90608 0.67849 0.0
C433 C 0.0982 0.94023 0.63068 0.0
C434 C 0.10564 0.02823 0.62355 0.0
C435 C 0.10893 0.0826 0.66543 0.0
H436 H 0.45248 0.95365 0.02244 0.0
H437 H 0.49098 0.70655 0.00509 0.0
H438 H 0.53141 0.78375 0.99721 0.0
H439 H 0.4922 0.08107 0.9378 0.0
H440 H 0.49198 0.17682 0.97659 0.0
H441 H 0.46561 0.10301 0.97723 0.0
H442 H 0.47023 0.08601 0.07255 0.0
H443 H 0.49661 0.15961 0.07217 0.0
H444 H 0.49996 0.0521 0.09834 0.0
H445 H 0.56812 0.88676 0.99313 0.0
H446 H 0.59857 0.00834 0.99694 0.0
H447 H 0.53726 0.18975 0.02054 0.0
C448 C 0.46939 0.91608 0.01626 0.0
C449 C 0.46847 0.82384 0.01402 0.0
C450 C 0.49113 0.77707 0.0069 0.0
C451 C 0.51425 0.82041 0.00223 0.0
C452 C 0.51463 0.91102 0.0052 0.0
C453 C 0.49285 0.95851 0.01229 0.0
C454 C 0.49885 0.05516 0.01688 0.0
C455 C 0.48642 0.10707 0.9746 0.0
C456 C 0.49094 0.09026 0.06803 0.0
C457 C 0.52732 0.05423 0.01155 0.0
C458 C 0.53597 0.97041 0.00433 0.0
C459 C 0.56154 0.95273 0.9987 0.0
C460 C 0.57874 0.02231 1.00087 0.0
C461 C 0.57044 0.10876 0.00907 0.0
C462 C 0.54429 0.12451 0.01422 0.0
H463 H 0.53766 0.79603 0.50759 0.0
H464 H 0.59738 0.96967 0.5557 0.0
H465 H 0.56648 0.0886 0.56522 0.0
H466 H 0.5034 0.95142 0.43671 0.0
H467 H 0.47283 0.91103 0.454 0.0
H468 H 0.49936 0.83835 0.4531 0.0
H469 H 0.49099 0.79678 0.54482 0.0
H470 H 0.4644 0.86936 0.54601 0.0
H471 H 0.48924 0.88132 0.59119 0.0
H472 H 0.52976 0.19184 0.56307 0.0
H473 H 0.48958 0.27041 0.55359 0.0
H474 H 0.45261 0.02958 0.51122 0.0
C475 C 0.54423 0.85884 0.52062 0.0
C476 C 0.57007 0.87331 0.53093 0.0
C477 C 0.57778 0.95667 0.54772 0.0
C478 C 0.56032 0.02473 0.5532 0.0
C479 C 0.53508 0.00853 0.54224 0.0
C480 C 0.52697 0.92742 0.52674 0.0
C481 C 0.49881 0.92788 0.51657 0.0
C482 C 0.49329 0.90588 0.46185 0.0
C483 C 0.48505 0.8651 0.55175 0.0
C484 C 0.49239 0.02223 0.52816 0.0
C485 C 0.51367 0.06753 0.54269 0.0
C486 C 0.51294 0.15668 0.55243 0.0
C487 C 0.49001 0.20083 0.54686 0.0
C488 C 0.46787 0.15608 0.53233 0.0
C489 C 0.46908 0.06519 0.52345 0.0
H490 H 0.07688 0.53785 0.02219 0.0
H491 H 0.03702 0.77808 0.9897 0.0
H492 H 0.99737 0.69732 0.98369 0.0
H493 H 0.03787 0.39591 0.94064 0.0
H494 H 0.03806 0.30549 0.9834 0.0
H495 H 0.06426 0.38004 0.98181 0.0
H496 H 0.059 0.40908 0.07593 0.0
H497 H 0.03275 0.33494 0.07774 0.0
H498 H 0.02905 0.44548 0.09915 0.0
H499 H 0.96168 0.59609 0.98481 0.0
H500 H 0.93113 0.47706 0.99296 0.0
H501 H 0.99175 0.29661 0.02607 0.0
C502 C 0.05984 0.57286 0.01297 0.0
C503 C 0.06021 0.66472 0.00629 0.0
C504 C 0.03737 0.70813 0.99516 0.0
C505 C 0.01464 0.66274 0.99151 0.0
C506 C 0.01472 0.57317 0.99918 0.0
C507 C 0.03659 0.52808 0.00957 0.0
C508 C 0.03067 0.43183 0.01814 0.0
C509 C 0.04348 0.37495 0.97864 0.0
C510 C 0.03832 0.4037 0.07088 0.0
C511 C 1.00214 0.43095 0.01171 0.0
C512 C 0.99357 0.51349 1.00037 0.0
C513 C 0.96814 0.53097 0.99342 0.0
C514 C 0.95087 0.46258 0.99822 0.0
C515 C 0.95885 0.37699 0.01012 0.0
C516 C 0.98498 0.36108 0.01676 0.0
H517 H 0.07824 0.48189 0.50592 0.0
H518 H 0.04594 0.25834 0.58057 0.0
H519 H 1.00693 0.34099 0.59557 0.0
H520 H 0.04666 0.65442 0.58309 0.0
H521 H 0.04158 0.72434 0.5302 0.0
H522 H 0.06844 0.6529 0.53192 0.0
H523 H 0.05471 0.58572 0.44787 0.0
H524 H 0.02773 0.65626 0.44611 0.0
H525 H 0.02364 0.53987 0.44178 0.0
H526 H 0.96998 0.44078 0.59523 0.0
H527 H 0.9374 0.55168 0.57986 0.0
H528 H 0.99214 0.71243 0.50323 0.0
C529 C 0.06328 0.45192 0.5271 0.0
C530 C 0.06534 0.36438 0.54338 0.0
C531 C 0.04492 0.32578 0.56879 0.0
C532 C 0.02265 0.37221 0.57736 0.0
C533 C 0.02085 0.45746 0.55985 0.0
C534 C 0.0406 0.49739 0.53542 0.0
C535 C 0.03272 0.58702 0.51665 0.0
C536 C 0.04828 0.65893 0.54198 0.0
C537 C 0.03482 0.59248 0.45973 0.0
C538 C 1.0054 0.59003 0.53329 0.0
C539 C 0.99911 0.51488 0.55865 0.0
C540 C 0.97478 0.50036 0.57592 0.0
C541 C 0.95633 0.56387 0.5669 0.0
C542 C 0.96209 0.64129 0.54056 0.0
C543 C 0.98712 0.65454 0.52397 0.0
loop_
_geom_bond_atom_site_label_1
_geom_bond_atom_site_label_2
_geom_bond_distance
_geom_bond_site_symmetry_2
_ccdc_geom_bond_type
Co0 O1 2.216 . S
Co0 O2 2.091 . S
Co0 O4 2.004 . S
Co0 O10 2.021 1_554 S
Co0 O12 2.137 . S
Co0 O13 2.244 . S
O1 Co0 2.216 . S
O1 C8 1.247 . S
O2 Co0 2.091 . S
O2 C8 1.261 . S
C3 O12 1.247 . S
C3 O13 1.272 . S
O4 Co0 2.004 . S
O4 C9 1.259 . S
Co5 O6 2.061 . S
Co5 O11 2.052 1_554 S
Co5 O13 2.135 . S
O6 Co5 2.061 . S
O6 C9 1.235 . S
C7 O10 1.238 . S
C7 O11 1.241 . S
C8 O1 1.247 . S
C8 O2 1.261 . S
C9 O4 1.259 . S
C9 O6 1.235 . S
O10 Co0 2.021 1_556 S
O10 C7 1.238 . S
O11 Co5 2.052 1_556 S
O11 C7 1.241 . S
O12 Co0 2.137 . S
O12 C3 1.247 . S
O13 Co0 2.244 . S
O13 C3 1.272 . S
O13 Co5 2.135 . S
Co14 O15 2.216 . S
Co14 O16 2.091 . S
Co14 O18 2.004 . S
Co14 O24 2.021 1_554 S
Co14 O26 2.137 . S
Co14 O27 2.244 . S
O15 Co14 2.216 . S
O15 C22 1.247 . S
O16 Co14 2.091 . S
O16 C22 1.261 . S
C17 O26 1.247 . S
C17 O27 1.272 . S
O18 Co14 2.004 . S
O18 C23 1.259 . S
Co19 O20 2.061 . S
Co19 O25 2.052 1_554 S
Co19 O27 2.135 . S
O20 Co19 2.061 . S
O20 C23 1.235 . S
C21 O24 1.238 . S
C21 O25 1.241 . S
C22 O15 1.247 . S
C22 O16 1.261 . S
C23 O18 1.259 . S
C23 O20 1.235 . S
O24 Co14 2.021 1_556 S
O24 C21 1.238 . S
O25 Co19 2.052 1_556 S
O25 C21 1.241 . S
O26 Co14 2.137 . S
O26 C17 1.247 . S
O27 Co14 2.244 . S
O27 C17 1.272 . S
O27 Co19 2.135 . S
Co28 O29 2.216 . S
Co28 O30 2.091 . S
Co28 O32 2.004 . S
Co28 O38 2.021 . S
Co28 O40 2.137 . S
Co28 O41 2.244 . S
O29 Co28 2.216 . S
O29 C36 1.247 . S
O30 Co28 2.091 . S
O30 C36 1.261 . S
C31 O40 1.247 . S
C31 O41 1.272 . S
O32 Co28 2.004 . S
O32 C37 1.259 . S
Co33 O34 2.061 . S
Co33 O39 2.052 . S
Co33 O41 2.135 . S
O34 Co33 2.061 . S
O34 C37 1.235 . S
C35 O38 1.238 . S
C35 O39 1.241 . S
C36 O29 1.247 . S
C36 O30 1.261 . S
C37 O32 1.259 . S
C37 O34 1.235 . S
O38 Co28 2.021 . S
O38 C35 1.238 . S
O39 Co33 2.052 . S
O39 C35 1.241 . S
O40 Co28 2.137 . S
O40 C31 1.247 . S
O41 Co28 2.244 . S
O41 C31 1.272 . S
O41 Co33 2.135 . S
Co42 O43 2.216 . S
Co42 O44 2.091 . S
Co42 O46 2.004 . S
Co42 O52 2.021 . S
Co42 O54 2.137 . S
Co42 O55 2.244 . S
O43 Co42 2.216 . S
O43 C50 1.247 . S
O44 Co42 2.091 . S
O44 C50 1.261 . S
C45 O54 1.247 . S
C45 O55 1.272 . S
O46 Co42 2.004 . S
O46 C51 1.259 . S
Co47 O48 2.061 . S
Co47 O53 2.052 . S
Co47 O55 2.135 . S
O48 Co47 2.061 . S
O48 C51 1.235 . S
C49 O52 1.238 . S
C49 O53 1.241 . S
C50 O43 1.247 . S
C50 O44 1.261 . S
C51 O46 1.259 . S
C51 O48 1.235 . S
O52 Co42 2.021 . S
O52 C49 1.238 . S
O53 Co47 2.052 . S
O53 C49 1.241 . S
O54 Co42 2.137 . S
O54 C45 1.247 . S
O55 Co42 2.244 . S
O55 C45 1.272 . S
O55 Co47 2.135 . S
Co56 O57 2.216 . S
Co56 O58 2.091 . S
Co56 O60 2.004 . S
Co56 O66 2.021 1_554 S
Co56 O68 2.137 . S
Co56 O69 2.244 . S
O57 Co56 2.216 . S
O57 C64 1.247 . S
O58 Co56 2.091 . S
O58 C64 1.261 . S
C59 O68 1.247 . S
C59 O69 1.272 . S
O60 Co56 2.004 . S
O60 C65 1.259 . S
Co61 O62 2.061 . S
Co61 O67 2.052 1_554 S
Co61 O69 2.135 . S
O62 Co61 2.061 . S
O62 C65 1.235 . S
C63 O66 1.238 . S
C63 O67 1.241 . S
C64 O57 1.247 . S
C64 O58 1.261 . S
C65 O60 1.259 . S
C65 O62 1.235 . S
O66 Co56 2.021 1_556 S
O66 C63 1.238 . S
O67 Co61 2.052 1_556 S
O67 C63 1.241 . S
O68 Co56 2.137 . S
O68 C59 1.247 . S
O69 Co56 2.244 . S
O69 C59 1.272 . S
O69 Co61 2.135 . S
Co70 O71 2.216 . S
Co70 O72 2.091 . S
Co70 O74 2.004 . S
Co70 O80 2.021 1_554 S
Co70 O82 2.137 . S
Co70 O83 2.244 . S
O71 Co70 2.216 . S
O71 C78 1.247 . S
O72 Co70 2.091 . S
O72 C78 1.261 . S
C73 O82 1.247 . S
C73 O83 1.272 . S
O74 Co70 2.004 . S
O74 C79 1.259 . S
Co75 O76 2.061 . S
Co75 O81 2.052 1_554 S
Co75 O83 2.135 . S
O76 Co75 2.061 . S
O76 C79 1.235 . S
C77 O80 1.238 . S
C77 O81 1.241 . S
C78 O71 1.247 . S
C78 O72 1.261 . S
C79 O74 1.259 . S
C79 O76 1.235 . S
O80 Co70 2.021 1_556 S
O80 C77 1.238 . S
O81 Co75 2.052 1_556 S
O81 C77 1.241 . S
O82 Co70 2.137 . S
O82 C73 1.247 . S
O83 Co70 2.244 . S
O83 C73 1.272 . S
O83 Co75 2.135 . S
Co84 O85 2.216 . S
Co84 O86 2.091 . S
Co84 O88 2.004 . S
Co84 O94 2.021 . S
Co84 O96 2.137 . S
Co84 O97 2.244 . S
O85 Co84 2.216 . S
O85 C92 1.247 . S
O86 Co84 2.091 . S
O86 C92 1.261 . S
C87 O96 1.247 . S
C87 O97 1.272 . S
O88 Co84 2.004 . S
O88 C93 1.259 . S
Co89 O90 2.061 . S
Co89 O95 2.052 . S
Co89 O97 2.135 . S
O90 Co89 2.061 . S
O90 C93 1.235 . S
C91 O94 1.238 . S
C91 O95 1.241 . S
C92 O85 1.247 . S
C92 O86 1.261 . S
C93 O88 1.259 . S
C93 O90 1.235 . S
O94 Co84 2.021 . S
O94 C91 1.238 . S
O95 Co89 2.052 . S
O95 C91 1.241 . S
O96 Co84 2.137 . S
O96 C87 1.247 . S
O97 Co84 2.244 . S
O97 C87 1.272 . S
O97 Co89 2.135 . S
Co98 O99 2.216 . S
Co98 O100 2.091 . S
Co98 O102 2.004 . S
Co98 O108 2.021 . S
Co98 O110 2.137 . S
Co98 O111 2.244 . S
O99 Co98 2.216 . S
O99 C106 1.247 . S
O100 Co98 2.091 . S
O100 C106 1.261 . S
C101 O110 1.247 . S
C101 O111 1.272 . S
O102 Co98 2.004 . S
O102 C107 1.259 . S
Co103 O104 2.061 . S
Co103 O109 2.052 . S
Co103 O111 2.135 . S
O104 Co103 2.061 . S
O104 C107 1.235 . S
C105 O108 1.238 . S
C105 O109 1.241 . S
C106 O99 1.247 . S
C106 O100 1.261 . S
C107 O102 1.259 . S
C107 O104 1.235 . S
O108 Co98 2.021 . S
O108 C105 1.238 . S
O109 Co103 2.052 . S
O109 C105 1.241 . S
O110 Co98 2.137 . S
O110 C101 1.247 . S
O111 Co98 2.244 . S
O111 C101 1.272 . S
O111 Co103 2.135 . S
H112 C124 0.930 . S
H113 C126 0.930 . S
H114 C127 0.930 . S
H115 C131 0.959 . S
H116 C131 0.959 . S
H117 C131 0.961 . S
H118 C132 0.960 . S
H119 C132 0.961 . S
H120 C132 0.959 . S
H121 C135 0.929 . S
H122 C136 0.931 . S
H123 C138 0.930 . S
C124 H112 0.930 . S
C124 C125 1.399 . S
C124 C129 1.399 . S
C125 C124 1.399 . S
C125 C126 1.376 . S
C126 H113 0.930 . S
C126 C125 1.376 . S
C126 C127 1.388 . S
C127 H114 0.930 . S
C127 C126 1.388 . S
C127 C128 1.390 . S
C128 C127 1.390 . S
C128 C129 1.394 . S
C128 C134 1.465 . S
C129 C124 1.399 . S
C129 C128 1.394 . S
C129 C130 1.516 . S
C130 C129 1.516 . S
C130 C131 1.502 1_554 S
C130 C132 1.561 . S
C130 C133 1.526 . S
C131 H115 0.959 . S
C131 H116 0.959 . S
C131 H117 0.961 . S
C131 C130 1.502 1_556 S
C132 H118 0.960 . S
C132 H119 0.961 . S
C132 H120 0.959 . S
C132 C130 1.561 . S
C133 C130 1.526 . S
C133 C134 1.396 . S
C133 C138 1.390 . S
C134 C128 1.465 . S
C134 C133 1.396 . S
C134 C135 1.399 . S
C135 H121 0.929 . S
C135 C134 1.399 . S
C135 C136 1.385 . S
C136 H122 0.931 . S
C136 C135 1.385 . S
C136 C137 1.389 . S
C137 C136 1.389 . S
C137 C138 1.387 . S
C138 H123 0.930 . S
C138 C133 1.390 . S
C138 C137 1.387 . S
H139 C151 0.930 . S
H140 C153 0.930 . S
H141 C154 0.930 . S
H142 C158 0.959 . S
H143 C158 0.959 . S
H144 C158 0.961 . S
H145 C159 0.960 . S
H146 C159 0.961 . S
H147 C159 0.959 . S
H148 C162 0.929 . S
H149 C163 0.931 . S
H150 C165 0.930 . S
C151 H139 0.930 . S
C151 C152 1.399 . S
C151 C156 1.399 . S
C152 C151 1.399 . S
C152 C153 1.376 1_554 S
C153 H140 0.930 . S
C153 C152 1.376 1_556 S
C153 C154 1.388 . S
C154 H141 0.930 . S
C154 C153 1.388 . S
C154 C155 1.390 . S
C155 C154 1.390 . S
C155 C156 1.394 1_556 S
C155 C161 1.465 . S
C156 C151 1.399 . S
C156 C155 1.394 1_554 S
C156 C157 1.516 . S
C157 C156 1.516 . S
C157 C158 1.502 . S
C157 C159 1.561 . S
C157 C160 1.526 . S
C158 H142 0.959 . S
C158 H143 0.959 . S
C158 H144 0.961 . S
C158 C157 1.502 . S
C159 H145 0.960 . S
C159 H146 0.961 . S
C159 H147 0.959 . S
C159 C157 1.561 . S
C160 C157 1.526 . S
C160 C161 1.396 1_554 S
C160 C165 1.390 . S
C161 C155 1.465 . S
C161 C160 1.396 1_556 S
C161 C162 1.399 . S
C162 H148 0.929 . S
C162 C161 1.399 . S
C162 C163 1.385 . S
C163 H149 0.931 . S
C163 C162 1.385 . S
C163 C164 1.389 1_556 S
C164 C163 1.389 1_554 S
C164 C165 1.387 . S
C165 H150 0.930 . S
C165 C160 1.390 . S
C165 C164 1.387 . S
H166 C178 0.930 . S
H167 C180 0.930 . S
H168 C181 0.930 . S
H169 C185 0.959 . S
H170 C185 0.959 . S
H171 C185 0.961 . S
H172 C186 0.960 . S
H173 C186 0.961 . S
H174 C186 0.959 . S
H175 C189 0.929 . S
H176 C190 0.931 . S
H177 C192 0.930 . S
C178 H166 0.930 . S
C178 C179 1.399 . S
C178 C183 1.399 . S
C179 C178 1.399 . S
C179 C180 1.376 . S
C180 H167 0.930 . S
C180 C179 1.376 . S
C180 C181 1.388 . S
C181 H168 0.930 . S
C181 C180 1.388 . S
C181 C182 1.390 . S
C182 C181 1.390 . S
C182 C183 1.394 . S
C182 C188 1.465 . S
C183 C178 1.399 . S
C183 C182 1.394 . S
C183 C184 1.516 . S
C184 C183 1.516 . S
C184 C185 1.502 . S
C184 C186 1.561 . S
C184 C187 1.526 . S
C185 H169 0.959 . S
C185 H170 0.959 . S
C185 H171 0.961 . S
C185 C184 1.502 . S
C186 H172 0.960 . S
C186 H173 0.961 . S
C186 H174 0.959 . S
C186 C184 1.561 . S
C187 C184 1.526 . S
C187 C188 1.396 . S
C187 C192 1.390 . S
C188 C182 1.465 . S
C188 C187 1.396 . S
C188 C189 1.399 . S
C189 H175 0.929 . S
C189 C188 1.399 . S
C189 C190 1.385 . S
C190 H176 0.931 . S
C190 C189 1.385 . S
C190 C191 1.389 . S
C191 C190 1.389 . S
C191 C192 1.387 . S
C192 H177 0.930 . S
C192 C187 1.390 . S
C192 C191 1.387 . S
H193 C205 0.930 . S
H194 C207 0.930 . S
H195 C208 0.930 . S
H196 C212 0.959 . S
H197 C212 0.959 . S
H198 C212 0.961 . S
H199 C213 0.960 . S
H200 C213 0.961 . S
H201 C213 0.959 . S
H202 C216 0.929 . S
H203 C217 0.931 . S
H204 C219 0.930 . S
C205 H193 0.930 . S
C205 C206 1.399 . S
C205 C210 1.399 . S
C206 C205 1.399 . S
C206 C207 1.376 . S
C207 H194 0.930 . S
C207 C206 1.376 . S
C207 C208 1.388 . S
C208 H195 0.930 . S
C208 C207 1.388 . S
C208 C209 1.390 . S
C209 C208 1.390 . S
C209 C210 1.394 . S
C209 C215 1.465 . S
C210 C205 1.399 . S
C210 C209 1.394 . S
C210 C211 1.516 . S
C211 C210 1.516 . S
C211 C212 1.502 . S
C211 C213 1.561 . S
C211 C214 1.526 . S
C212 H196 0.959 . S
C212 H197 0.959 . S
C212 H198 0.961 . S
C212 C211 1.502 . S
C213 H199 0.960 . S
C213 H200 0.961 . S
C213 H201 0.959 . S
C213 C211 1.561 . S
C214 C211 1.526 . S
C214 C215 1.396 . S
C214 C219 1.390 . S
C215 C209 1.465 . S
C215 C214 1.396 . S
C215 C216 1.399 . S
C216 H202 0.929 . S
C216 C215 1.399 . S
C216 C217 1.385 . S
C217 H203 0.931 . S
C217 C216 1.385 . S
C217 C218 1.389 . S
C218 C217 1.389 . S
C218 C219 1.387 . S
C219 H204 0.930 . S
C219 C214 1.390 . S
C219 C218 1.387 . S
H220 C232 0.930 . S
H221 C234 0.930 . S
H222 C235 0.930 . S
H223 C239 0.959 . S
H224 C239 0.959 . S
H225 C239 0.961 . S
H226 C240 0.960 . S
H227 C240 0.961 . S
H228 C240 0.959 . S
H229 C243 0.929 . S
H230 C244 0.931 . S
H231 C246 0.930 . S
C232 H220 0.930 . S
C232 C233 1.399 . S
C232 C237 1.399 . S
C233 C232 1.399 . S
C233 C234 1.376 . S
C234 H221 0.930 . S
C234 C233 1.376 . S
C234 C235 1.388 . S
C235 H222 0.930 . S
C235 C234 1.388 . S
C235 C236 1.390 . S
C236 C235 1.390 . S
C236 C237 1.394 . S
C236 C242 1.465 . S
C237 C232 1.399 . S
C237 C236 1.394 . S
C237 C238 1.516 . S
C238 C237 1.516 . S
C238 C239 1.502 . S
C238 C240 1.561 . S
C238 C241 1.526 . S
C239 H223 0.959 . S
C239 H224 0.959 . S
C239 H225 0.961 . S
C239 C238 1.502 . S
C240 H226 0.960 . S
C240 H227 0.961 . S
C240 H228 0.959 . S
C240 C238 1.561 . S
C241 C238 1.526 . S
C241 C242 1.396 . S
C241 C246 1.390 . S
C242 C236 1.465 . S
C242 C241 1.396 . S
C242 C243 1.399 . S
C243 H229 0.929 . S
C243 C242 1.399 . S
C243 C244 1.385 . S
C244 H230 0.931 . S
C244 C243 1.385 . S
C244 C245 1.389 . S
C245 C244 1.389 . S
C245 C246 1.387 . S
C246 H231 0.930 . S
C246 C241 1.390 . S
C246 C245 1.387 . S
H247 C259 0.930 . S
H248 C261 0.930 . S
H249 C262 0.930 . S
H250 C266 0.959 . S
H251 C266 0.959 . S
H252 C266 0.961 . S
H253 C267 0.960 . S
H254 C267 0.961 . S
H255 C267 0.959 . S
H256 C270 0.929 . S
H257 C271 0.931 . S
H258 C273 0.930 . S
C259 H247 0.930 . S
C259 C260 1.399 . S
C259 C264 1.399 . S
C260 C259 1.399 . S
C260 C261 1.376 . S
C261 H248 0.930 . S
C261 C260 1.376 . S
C261 C262 1.388 . S
C262 H249 0.930 . S
C262 C261 1.388 . S
C262 C263 1.390 . S
C263 C262 1.390 . S
C263 C264 1.394 . S
C263 C269 1.465 . S
C264 C259 1.399 . S
C264 C263 1.394 . S
C264 C265 1.516 . S
C265 C264 1.516 . S
C265 C266 1.502 . S
C265 C267 1.561 . S
C265 C268 1.526 . S
C266 H250 0.959 . S
C266 H251 0.959 . S
C266 H252 0.961 . S
C266 C265 1.502 . S
C267 H253 0.960 . S
C267 H254 0.961 . S
C267 H255 0.959 . S
C267 C265 1.561 . S
C268 C265 1.526 . S
C268 C269 1.396 . S
C268 C273 1.390 . S
C269 C263 1.465 . S
C269 C268 1.396 . S
C269 C270 1.399 . S
C270 H256 0.929 . S
C270 C269 1.399 . S
C270 C271 1.385 . S
C271 H257 0.931 . S
C271 C270 1.385 . S
C271 C272 1.389 . S
C272 C271 1.389 . S
C272 C273 1.387 . S
C273 H258 0.930 . S
C273 C268 1.390 . S
C273 C272 1.387 . S
H274 C286 0.930 . S
H275 C288 0.930 . S
H276 C289 0.930 . S
H277 C293 0.959 . S
H278 C293 0.959 . S
H279 C293 0.961 . S
H280 C294 0.960 . S
H281 C294 0.961 . S
H282 C294 0.959 . S
H283 C297 0.929 . S
H284 C298 0.931 . S
H285 C300 0.930 . S
C286 H274 0.930 . S
C286 C287 1.399 . S
C286 C291 1.399 . S
C287 C286 1.399 . S
C287 C288 1.376 . S
C288 H275 0.930 . S
C288 C287 1.376 . S
C288 C289 1.388 . S
C289 H276 0.930 . S
C289 C288 1.388 . S
C289 C290 1.390 . S
C290 C289 1.390 . S
C290 C291 1.394 . S
C290 C296 1.465 . S
C291 C286 1.399 . S
C291 C290 1.394 . S
C291 C292 1.516 . S
C292 C291 1.516 . S
C292 C293 1.502 . S
C292 C294 1.561 . S
C292 C295 1.526 . S
C293 H277 0.959 . S
C293 H278 0.959 . S
C293 H279 0.961 . S
C293 C292 1.502 . S
C294 H280 0.960 . S
C294 H281 0.961 . S
C294 H282 0.959 . S
C294 C292 1.561 . S
C295 C292 1.526 . S
C295 C296 1.396 . S
C295 C300 1.390 . S
C296 C290 1.465 . S
C296 C295 1.396 . S
C296 C297 1.399 . S
C297 H283 0.929 . S
C297 C296 1.399 . S
C297 C298 1.385 . S
C298 H284 0.931 . S
C298 C297 1.385 . S
C298 C299 1.389 . S
C299 C298 1.389 . S
C299 C300 1.387 . S
C300 H285 0.930 . S
C300 C295 1.390 . S
C300 C299 1.387 . S
H301 C313 0.930 . S
H302 C315 0.930 . S
H303 C316 0.930 . S
H304 C320 0.959 . S
H305 C320 0.959 . S
H306 C320 0.961 . S
H307 C321 0.960 . S
H308 C321 0.961 . S
H309 C321 0.959 . S
H310 C324 0.929 . S
H311 C325 0.931 . S
H312 C327 0.930 . S
C313 H301 0.930 . S
C313 C314 1.399 . S
C313 C318 1.399 . S
C314 C313 1.399 . S
C314 C315 1.376 . S
C315 H302 0.930 . S
C315 C314 1.376 . S
C315 C316 1.388 . S
C316 H303 0.930 . S
C316 C315 1.388 . S
C316 C317 1.390 . S
C317 C316 1.390 . S
C317 C318 1.394 . S
C317 C323 1.465 . S
C318 C313 1.399 . S
C318 C317 1.394 . S
C318 C319 1.516 . S
C319 C318 1.516 . S
C319 C320 1.502 . S
C319 C321 1.561 . S
C319 C322 1.526 . S
C320 H304 0.959 . S
C320 H305 0.959 . S
C320 H306 0.961 . S
C320 C319 1.502 . S
C321 H307 0.960 . S
C321 H308 0.961 . S
C321 H309 0.959 . S
C321 C319 1.561 . S
C322 C319 1.526 . S
C322 C323 1.396 . S
C322 C327 1.390 . S
C323 C317 1.465 . S
C323 C322 1.396 . S
C323 C324 1.399 . S
C324 H310 0.929 . S
C324 C323 1.399 . S
C324 C325 1.385 . S
C325 H311 0.931 . S
C325 C324 1.385 . S
C325 C326 1.389 . S
C326 C325 1.389 . S
C326 C327 1.387 . S
C327 H312 0.930 . S
C327 C322 1.390 . S
C327 C326 1.387 . S
H328 C340 0.930 . S
H329 C342 0.930 . S
H330 C343 0.930 . S
H331 C347 0.959 . S
H332 C347 0.959 . S
H333 C347 0.961 . S
H334 C348 0.960 . S
H335 C348 0.961 . S
H336 C348 0.959 . S
H337 C351 0.929 . S
H338 C352 0.931 . S
H339 C354 0.930 1_565 S
C340 H328 0.930 . S
C340 C341 1.399 . S
C340 C345 1.399 . S
C341 C340 1.399 . S
C341 C342 1.376 1_565 S
C342 H329 0.930 . S
C342 C341 1.376 1_545 S
C342 C343 1.388 . S
C343 H330 0.930 . S
C343 C342 1.388 . S
C343 C344 1.390 . S
C344 C343 1.390 . S
C344 C345 1.394 1_545 S
C344 C350 1.465 . S
C345 C340 1.399 . S
C345 C344 1.394 1_565 S
C345 C346 1.516 . S
C346 C345 1.516 . S
C346 C347 1.502 . S
C346 C348 1.561 . S
C346 C349 1.526 . S
C347 H331 0.959 . S
C347 H332 0.959 . S
C347 H333 0.961 . S
C347 C346 1.502 . S
C348 H334 0.960 . S
C348 H335 0.961 . S
C348 H336 0.959 . S
C348 C346 1.561 . S
C349 C346 1.526 . S
C349 C350 1.396 1_565 S
C349 C354 1.390 1_565 S
C350 C344 1.465 . S
C350 C349 1.396 1_545 S
C350 C351 1.399 . S
C351 H337 0.929 . S
C351 C350 1.399 . S
C351 C352 1.385 . S
C352 H338 0.931 . S
C352 C351 1.385 . S
C352 C353 1.389 . S
C353 C352 1.389 . S
C353 C354 1.387 . S
C354 H339 0.930 1_545 S
C354 C349 1.390 1_545 S
C354 C353 1.387 . S
H355 C367 0.930 1_545 S
H356 C369 0.930 . S
H357 C370 0.930 . S
H358 C374 0.959 . S
H359 C374 0.959 . S
H360 C374 0.961 . S
H361 C375 0.960 . S
H362 C375 0.961 . S
H363 C375 0.959 . S
H364 C378 0.929 . S
H365 C379 0.931 . S
H366 C381 0.930 . S
C367 H355 0.930 1_565 S
C367 C368 1.399 . S
C367 C372 1.399 1_565 S
C368 C367 1.399 . S
C368 C369 1.376 . S
C369 H356 0.930 . S
C369 C368 1.376 . S
C369 C370 1.388 . S
C370 H357 0.930 . S
C370 C369 1.388 . S
C370 C371 1.390 . S
C371 C370 1.390 . S
C371 C372 1.394 1_565 S
C371 C377 1.465 . S
C372 C367 1.399 1_545 S
C372 C371 1.394 1_545 S
C372 C373 1.516 . S
C373 C372 1.516 . S
C373 C374 1.502 . S
C373 C375 1.561 . S
C373 C376 1.526 . S
C374 H358 0.959 . S
C374 H359 0.959 . S
C374 H360 0.961 . S
C374 C373 1.502 . S
C375 H361 0.960 . S
C375 H362 0.961 . S
C375 H363 0.959 . S
C375 C373 1.561 . S
C376 C373 1.526 . S
C376 C377 1.396 1_545 S
C376 C381 1.390 . S
C377 C371 1.465 . S
C377 C376 1.396 1_565 S
C377 C378 1.399 . S
C378 H364 0.929 . S
C378 C377 1.399 . S
C378 C379 1.385 . S
C379 H365 0.931 . S
C379 C378 1.385 . S
C379 C380 1.389 1_565 S
C380 C379 1.389 1_545 S
C380 C381 1.387 . S
C381 H366 0.930 . S
C381 C376 1.390 . S
C381 C380 1.387 . S
H382 C394 0.930 . S
H383 C396 0.930 . S
H384 C397 0.930 . S
H385 C401 0.959 . S
H386 C401 0.959 . S
H387 C401 0.961 . S
H388 C402 0.960 . S
H389 C402 0.961 . S
H390 C402 0.959 . S
H391 C405 0.929 . S
H392 C406 0.931 . S
H393 C408 0.930 1_565 S
C394 H382 0.930 . S
C394 C395 1.399 . S
C394 C399 1.399 . S
C395 C394 1.399 . S
C395 C396 1.376 1_565 S
C396 H383 0.930 . S
C396 C395 1.376 1_545 S
C396 C397 1.388 . S
C397 H384 0.930 . S
C397 C396 1.388 . S
C397 C398 1.390 . S
C398 C397 1.390 . S
C398 C399 1.394 1_545 S
C398 C404 1.465 . S
C399 C394 1.399 . S
C399 C398 1.394 1_565 S
C399 C400 1.516 . S
C400 C399 1.516 . S
C400 C401 1.502 . S
C400 C402 1.561 . S
C400 C403 1.526 . S
C401 H385 0.959 . S
C401 H386 0.959 . S
C401 H387 0.961 . S
C401 C400 1.502 . S
C402 H388 0.960 . S
C402 H389 0.961 . S
C402 H390 0.959 . S
C402 C400 1.561 . S
C403 C400 1.526 . S
C403 C404 1.396 1_565 S
C403 C408 1.390 1_565 S
C404 C398 1.465 . S
C404 C403 1.396 1_545 S
C404 C405 1.399 . S
C405 H391 0.929 . S
C405 C404 1.399 . S
C405 C406 1.385 . S
C406 H392 0.931 . S
C406 C405 1.385 . S
C406 C407 1.389 . S
C407 C406 1.389 . S
C407 C408 1.387 . S
C408 H393 0.930 1_545 S
C408 C403 1.390 1_545 S
C408 C407 1.387 . S
H409 C421 0.930 1_545 S
H410 C423 0.930 . S
H411 C424 0.930 . S
H412 C428 0.959 . S
H413 C428 0.959 . S
H414 C428 0.961 . S
H415 C429 0.960 . S
H416 C429 0.961 . S
H417 C429 0.959 . S
H418 C432 0.929 . S
H419 C433 0.931 . S
H420 C435 0.930 . S
C421 H409 0.930 1_565 S
C421 C422 1.399 . S
C421 C426 1.399 1_565 S
C422 C421 1.399 . S
C422 C423 1.376 . S
C423 H410 0.930 . S
C423 C422 1.376 . S
C423 C424 1.388 . S
C424 H411 0.930 . S
C424 C423 1.388 . S
C424 C425 1.390 . S
C425 C424 1.390 . S
C425 C426 1.394 1_565 S
C425 C431 1.465 . S
C426 C421 1.399 1_545 S
C426 C425 1.394 1_545 S
C426 C427 1.516 . S
C427 C426 1.516 . S
C427 C428 1.502 . S
C427 C429 1.561 . S
C427 C430 1.526 . S
C428 H412 0.959 . S
C428 H413 0.959 . S
C428 H414 0.961 . S
C428 C427 1.502 . S
C429 H415 0.960 . S
C429 H416 0.961 . S
C429 H417 0.959 . S
C429 C427 1.561 . S
C430 C427 1.526 . S
C430 C431 1.396 1_545 S
C430 C435 1.390 . S
C431 C425 1.465 . S
C431 C430 1.396 1_565 S
C431 C432 1.399 . S
C432 H418 0.929 . S
C432 C431 1.399 . S
C432 C433 1.385 . S
C433 H419 0.931 . S
C433 C432 1.385 . S
C433 C434 1.389 1_565 S
C434 C433 1.389 1_545 S
C434 C435 1.387 . S
C435 H420 0.930 . S
C435 C430 1.390 . S
C435 C434 1.387 . S
H436 C448 0.930 . S
H437 C450 0.930 . S
H438 C451 0.930 . S
H439 C455 0.959 1_556 S
H440 C455 0.959 . S
H441 C455 0.961 . S
H442 C456 0.960 . S
H443 C456 0.961 . S
H444 C456 0.959 . S
H445 C459 0.929 . S
H446 C460 0.931 . S
H447 C462 0.930 . S
C448 H436 0.930 . S
C448 C449 1.399 . S
C448 C453 1.399 . S
C449 C448 1.399 . S
C449 C450 1.376 1_554 S
C450 H437 0.930 . S
C450 C449 1.376 1_556 S
C450 C451 1.388 . S
C451 H438 0.930 . S
C451 C450 1.388 . S
C451 C452 1.390 1_556 S
C452 C451 1.390 1_554 S
C452 C453 1.394 . S
C452 C458 1.465 . S
C453 C448 1.399 . S
C453 C452 1.394 . S
C453 C454 1.516 1_565 S
C454 C453 1.516 1_545 S
C454 C455 1.502 . S
C454 C456 1.561 . S
C454 C457 1.526 . S
C455 H439 0.959 1_554 S
C455 H440 0.959 . S
C455 H441 0.961 . S
C455 C454 1.502 . S
C456 H442 0.960 . S
C456 H443 0.961 . S
C456 H444 0.959 . S
C456 C454 1.561 . S
C457 C454 1.526 . S
C457 C458 1.396 1_545 S
C457 C462 1.390 . S
C458 C452 1.465 . S
C458 C457 1.396 1_565 S
C458 C459 1.399 1_554 S
C459 H445 0.929 . S
C459 C458 1.399 1_556 S
C459 C460 1.385 1_565 S
C460 H446 0.931 . S
C460 C459 1.385 1_545 S
C460 C461 1.389 1_556 S
C461 C460 1.389 1_554 S
C461 C462 1.387 . S
C462 H447 0.930 . S
C462 C457 1.390 . S
C462 C461 1.387 . S
H463 C475 0.930 . S
H464 C477 0.930 . S
H465 C478 0.930 . S
H466 C482 0.959 . S
H467 C482 0.959 . S
H468 C482 0.961 . S
H469 C483 0.960 . S
H470 C483 0.961 . S
H471 C483 0.959 . S
H472 C486 0.929 . S
H473 C487 0.931 . S
H474 C489 0.930 . S
C475 H463 0.930 . S
C475 C476 1.399 . S
C475 C480 1.399 . S
C476 C475 1.399 . S
C476 C477 1.376 . S
C477 H464 0.930 . S
C477 C476 1.376 . S
C477 C478 1.388 . S
C478 H465 0.930 . S
C478 C477 1.388 . S
C478 C479 1.390 . S
C479 C478 1.390 . S
C479 C480 1.394 . S
C479 C485 1.465 1_565 S
C480 C475 1.399 . S
C480 C479 1.394 . S
C480 C481 1.516 . S
C481 C480 1.516 . S
C481 C482 1.502 1_565 S
C481 C483 1.561 . S
C481 C484 1.526 1_565 S
C482 H466 0.959 . S
C482 H467 0.959 . S
C482 H468 0.961 . S
C482 C481 1.502 1_545 S
C483 H469 0.960 . S
C483 H470 0.961 . S
C483 H471 0.959 . S
C483 C481 1.561 . S
C484 C481 1.526 1_545 S
C484 C485 1.396 . S
C484 C489 1.390 . S
C485 C479 1.465 1_545 S
C485 C484 1.396 . S
C485 C486 1.399 . S
C486 H472 0.929 . S
C486 C485 1.399 . S
C486 C487 1.385 . S
C487 H473 0.931 . S
C487 C486 1.385 . S
C487 C488 1.389 . S
C488 C487 1.389 . S
C488 C489 1.387 . S
C489 H474 0.930 . S
C489 C484 1.390 . S
C489 C488 1.387 . S
H490 C502 0.930 . S
H491 C504 0.930 . S
H492 C505 0.930 . S
H493 C509 0.959 . S
H494 C509 0.959 . S
H495 C509 0.961 1_455 S
H496 C510 0.960 . S
H497 C510 0.961 . S
H498 C510 0.959 . S
H499 C513 0.929 . S
H500 C514 0.931 . S
H501 C516 0.930 . S
C502 H490 0.930 . S
C502 C503 1.399 1_556 S
C502 C507 1.399 . S
C503 C502 1.399 1_554 S
C503 C504 1.376 . S
C504 H491 0.930 . S
C504 C503 1.376 . S
C504 C505 1.388 . S
C505 H492 0.930 . S
C505 C504 1.388 . S
C505 C506 1.390 . S
C506 C505 1.390 . S
C506 C507 1.394 1_554 S
C506 C512 1.465 1_455 S
C507 C502 1.399 . S
C507 C506 1.394 1_556 S
C507 C508 1.516 . S
C508 C507 1.516 . S
C508 C509 1.502 1_455 S
C508 C510 1.561 . S
C508 C511 1.526 1_455 S
C509 H493 0.959 . S
C509 H494 0.959 . S
C509 H495 0.961 1_655 S
C509 C508 1.502 1_655 S
C510 H496 0.960 . S
C510 H497 0.961 . S
C510 H498 0.959 . S
C510 C508 1.561 . S
C511 C508 1.526 1_655 S
C511 C512 1.396 1_556 S
C511 C516 1.390 . S
C512 C506 1.465 1_655 S
C512 C511 1.396 1_554 S
C512 C513 1.399 . S
C513 H499 0.929 . S
C513 C512 1.399 . S
C513 C514 1.385 . S
C514 H500 0.931 . S
C514 C513 1.385 . S
C514 C515 1.389 . S
C515 C514 1.389 . S
C515 C516 1.387 1_554 S
C516 H501 0.930 . S
C516 C511 1.390 . S
C516 C515 1.387 1_556 S
H517 C529 0.930 . S
H518 C531 0.930 . S
H519 C532 0.930 1_655 S
H520 C536 0.959 . S
H521 C536 0.959 . S
H522 C536 0.961 . S
H523 C537 0.960 . S
H524 C537 0.952 1_655 S
H525 C537 0.959 1_655 S
H526 C540 0.929 . S
H527 C541 0.931 . S
H528 C543 0.930 . S
C529 H517 0.930 . S
C529 C530 1.399 . S
C529 C534 1.399 . S
C530 C529 1.399 . S
C530 C531 1.376 . S
C531 H518 0.930 . S
C531 C530 1.376 . S
C531 C532 1.388 . S
C532 H519 0.930 1_455 S
C532 C531 1.388 . S
C532 C533 1.390 . S
C533 C532 1.390 . S
C533 C534 1.394 . S
C533 C539 1.465 1_455 S
C534 C529 1.399 . S
C534 C533 1.394 . S
C534 C535 1.516 . S
C535 C534 1.516 . S
C535 C536 1.502 . S
C535 C537 1.561 . S
C535 C538 1.526 1_455 S
C536 H520 0.959 . S
C536 H521 0.959 . S
C536 H522 0.961 . S
C536 C535 1.502 . S
C537 H523 0.960 . S
C537 H524 0.952 1_455 S
C537 H525 0.959 1_455 S
C537 C535 1.561 . S
C538 C535 1.526 1_655 S
C538 C539 1.396 . S
C538 C543 1.390 . S
C539 C533 1.465 1_655 S
C539 C538 1.396 . S
C539 C540 1.399 . S
C540 H526 0.929 . S
C540 C539 1.399 . S
C540 C541 1.385 . S
C541 H527 0.931 . S
C541 C540 1.385 . S
C541 C542 1.389 . S
C542 C541 1.389 . S
C542 C543 1.387 . S
C543 H528 0.930 . S
C543 C538 1.390 . S
C543 C542 1.387 . S
C125 C79 1.496 . S
C137 C9 1.449 . S
C152 C65 1.473 . S
C164 C23 1.487 . S
C179 C107 1.464 . S
C191 C37 1.470 . S
C206 C93 1.458 . S
C218 C51 1.477 . S
C233 C3 1.404 . S
C245 C31 1.382 . S
C260 C17 1.404 . S
C272 C45 1.382 . S
C287 C21 1.381 . S
C299 C49 1.404 . S
C314 C7 1.391 . S
C326 C35 1.409 . S
C341 C59 1.404 . S
C353 C87 1.382 . S
C368 C101 1.388 . S
C380 C73 1.413 . S
C395 C105 1.387 . S
C407 C77 1.407 . S
C422 C63 1.378 . S
C434 C91 1.355 . S
C449 C22 1.499 . S
C461 C8 1.486 . S
C476 C36 1.500 . S
C488 C50 1.496 . S
C503 C64 1.483 . S
C515 C78 1.486 . S
C530 C92 1.500 . S
C542 C106 1.489 . S
