# Generated by pormake.
# Topology bcu-j, (5)-cn, num edge types: 1
# Building blocks:
#     Node 0, Type 0, BuildingBlock: BEQFEK_clean_sbu_0, # of connection points: 5
#     Node 1, Type 0, BuildingBlock: BEQFEK_clean_sbu_0, # of connection points: 5
#     Node 2, Type 0, BuildingBlock: BEQFEK_clean_sbu_0, # of connection points: 5
#     Node 3, Type 0, BuildingBlock: BEQFEK_clean_sbu_0, # of connection points: 5
#     Node 4, Type 0, BuildingBlock: BEQFEK_clean_sbu_0, # of connection points: 5
#     Node 5, Type 0, BuildingBlock: BEQFEK_clean_sbu_0, # of connection points: 5
#     Node 6, Type 0, BuildingBlock: BEQFEK_clean_sbu_0, # of connection points: 5
#     Node 7, Type 0, BuildingBlock: BEQFEK_clean_sbu_0, # of connection points: 5
#     Node 8, Type 0, BuildingBlock: BEQFEK_clean_sbu_0, # of connection points: 5
#     Node 9, Type 0, BuildingBlock: BEQFEK_clean_sbu_0, # of connection points: 5
#     Node 10, Type 0, BuildingBlock: BEQFEK_clean_sbu_0, # of connection points: 5
#     Node 11, Type 0, BuildingBlock: BEQFEK_clean_sbu_0, # of connection points: 5
#     Node 12, Type 0, BuildingBlock: BEQFEK_clean_sbu_0, # of connection points: 5
#     Node 13, Type 0, BuildingBlock: BEQFEK_clean_sbu_0, # of connection points: 5
#     Node 14, Type 0, BuildingBlock: BEQFEK_clean_sbu_0, # of connection points: 5
#     Node 15, Type 0, BuildingBlock: BEQFEK_clean_sbu_0, # of connection points: 5
#     Edge 16, Type (0, 0), BuildingBlock: AJUNOK_clean_linker_0, # of connection points: 2
#     Edge 17, Type (0, 0), BuildingBlock: AJUNOK_clean_linker_0, # of connection points: 2
#     Edge 18, Type (0, 0), BuildingBlock: AJUNOK_clean_linker_0, # of connection points: 2
#     Edge 19, Type (0, 0), BuildingBlock: AJUNOK_clean_linker_0, # of connection points: 2
#     Edge 20, Type (0, 0), BuildingBlock: AJUNOK_clean_linker_0, # of connection points: 2
#     Edge 21, Type (0, 0), BuildingBlock: AJUNOK_clean_linker_0, # of connection points: 2
#     Edge 22, Type (0, 0), BuildingBlock: AJUNOK_clean_linker_0, # of connection points: 2
#     Edge 23, Type (0, 0), BuildingBlock: AJUNOK_clean_linker_0, # of connection points: 2
#     Edge 24, Type (0, 0), BuildingBlock: AJUNOK_clean_linker_0, # of connection points: 2
#     Edge 25, Type (0, 0), BuildingBlock: AJUNOK_clean_linker_0, # of connection points: 2
#     Edge 26, Type (0, 0), BuildingBlock: AJUNOK_clean_linker_0, # of connection points: 2
#     Edge 27, Type (0, 0), BuildingBlock: AJUNOK_clean_linker_0, # of connection points: 2
#     Edge 28, Type (0, 0), BuildingBlock: AJUNOK_clean_linker_0, # of connection points: 2
#     Edge 29, Type (0, 0), BuildingBlock: AJUNOK_clean_linker_0, # of connection points: 2
#     Edge 30, Type (0, 0), BuildingBlock: AJUNOK_clean_linker_0, # of connection points: 2
#     Edge 31, Type (0, 0), BuildingBlock: AJUNOK_clean_linker_0, # of connection points: 2
#     Edge 32, Type (0, 0), BuildingBlock: AJUNOK_clean_linker_0, # of connection points: 2
#     Edge 33, Type (0, 0), BuildingBlock: AJUNOK_clean_linker_0, # of connection points: 2
#     Edge 34, Type (0, 0), BuildingBlock: AJUNOK_clean_linker_0, # of connection points: 2
#     Edge 35, Type (0, 0), BuildingBlock: AJUNOK_clean_linker_0, # of connection points: 2
#     Edge 36, Type (0, 0), BuildingBlock: AJUNOK_clean_linker_0, # of connection points: 2
#     Edge 37, Type (0, 0), BuildingBlock: AJUNOK_clean_linker_0, # of connection points: 2
#     Edge 38, Type (0, 0), BuildingBlock: AJUNOK_clean_linker_0, # of connection points: 2
#     Edge 39, Type (0, 0), BuildingBlock: AJUNOK_clean_linker_0, # of connection points: 2
#     Edge 40, Type (0, 0), BuildingBlock: AJUNOK_clean_linker_0, # of connection points: 2
#     Edge 41, Type (0, 0), BuildingBlock: AJUNOK_clean_linker_0, # of connection points: 2
#     Edge 42, Type (0, 0), BuildingBlock: AJUNOK_clean_linker_0, # of connection points: 2
#     Edge 43, Type (0, 0), BuildingBlock: AJUNOK_clean_linker_0, # of connection points: 2
#     Edge 44, Type (0, 0), BuildingBlock: AJUNOK_clean_linker_0, # of connection points: 2
#     Edge 45, Type (0, 0), BuildingBlock: AJUNOK_clean_linker_0, # of connection points: 2
#     Edge 46, Type (0, 0), BuildingBlock: AJUNOK_clean_linker_0, # of connection points: 2
#     Edge 47, Type (0, 0), BuildingBlock: AJUNOK_clean_linker_0, # of connection points: 2
#     Edge 48, Type (0, 0), BuildingBlock: AJUNOK_clean_linker_0, # of connection points: 2
#     Edge 49, Type (0, 0), BuildingBlock: AJUNOK_clean_linker_0, # of connection points: 2
#     Edge 50, Type (0, 0), BuildingBlock: AJUNOK_clean_linker_0, # of connection points: 2
#     Edge 51, Type (0, 0), BuildingBlock: AJUNOK_clean_linker_0, # of connection points: 2
#     Edge 52, Type (0, 0), BuildingBlock: AJUNOK_clean_linker_0, # of connection points: 2
#     Edge 53, Type (0, 0), BuildingBlock: AJUNOK_clean_linker_0, # of connection points: 2
#     Edge 54, Type (0, 0), BuildingBlock: AJUNOK_clean_linker_0, # of connection points: 2
#     Edge 55, Type (0, 0), BuildingBlock: AJUNOK_clean_linker_0, # of connection points: 2
# Relax obj value: 0.948
# Max RMSD: 0.234
# Mean RMSD: 0.223
data_MOF--net-bcu-j--node1-BEQFEK_clean_sbu_0--edge1-AJUNOK_clean_linker_0
_symmetry_space_group_name_H-M    P1
_symmetry_Int_Tables_number       1
_symmetry_cell_setting            triclinic
loop_
_symmetry_equiv_pos_as_xyz
'x, y, z'
_cell_length_a     32.391727
_cell_length_b     32.395994
_cell_length_c     29.504904
_cell_angle_alpha  89.665357
_cell_angle_beta   90.467428
_cell_angle_gamma 90.20572
loop_
_atom_site_label
_atom_site_type_symbol
_atom_site_fract_x
_atom_site_fract_y
_atom_site_fract_z
_atom_type_partial_charge
Co0 Co 0.98627 0.08967 0.60361 0.0
Co1 Co 0.00908 0.16281 0.53955 0.0
C2 C 0.0706 0.09855 0.56103 0.0
O3 O 0.0433 0.07731 0.58186 0.0
O4 O 0.06309 0.13521 0.54728 0.0
C5 C 0.97752 0.01261 0.65121 0.0
O6 O 1.00176 0.9978 0.61983 0.0
C7 C 0.04687 0.24194 0.52285 0.0
C8 C 1.00157 0.27314 0.47822 0.0
C9 C 0.03661 0.28008 0.50451 0.0
N10 N 0.01855 0.21414 0.50923 0.0
N11 N 0.99227 0.23262 0.48134 0.0
C12 C 0.07867 0.23329 0.55886 0.0
H13 H 0.10737 0.22259 0.54243 0.0
H14 H 0.0678 0.20853 0.58201 0.0
H15 H 0.086 0.26127 0.57889 0.0
C16 C 0.97352 0.15629 0.66869 0.0
N17 N 0.98281 0.14257 0.62711 0.0
N18 N 0.98576 0.17386 0.59872 0.0
C19 C 0.97725 0.20885 0.62177 0.0
C20 C 0.96961 0.19879 0.6668 0.0
C21 C 0.96773 0.12889 0.70915 0.0
H22 H 0.93871 0.11106 0.70464 0.0
H23 H 0.99359 0.10659 0.71165 0.0
H24 H 0.9656 0.14677 0.74098 0.0
O25 O 0.94771 0.08971 0.55339 0.0
O26 O 0.9814 0.12015 0.4995 0.0
H27 H 0.9679 0.25125 0.56658 0.0
H28 H 0.95853 0.2729 0.62136 0.0
C29 C 0.97847 0.25158 0.60229 0.0
H30 H 0.01032 0.26388 0.60465 0.0
H31 H 0.96597 0.21851 0.46777 0.0
O32 O 0.96743 0.05033 0.64936 0.0
C33 C 0.96407 0.0876 0.51482 0.0
Co34 Co 0.41376 0.97941 0.59227 0.0
Co35 Co 0.3393 0.99622 0.52855 0.0
C36 C 0.3989 0.06251 0.54672 0.0
O37 O 0.42221 0.03685 0.56757 0.0
O38 O 0.36289 0.05209 0.53361 0.0
C39 C 0.4914 0.9839 0.63244 0.0
O40 O 0.50119 0.99742 0.59188 0.0
C41 C 0.25987 0.03257 0.51363 0.0
C42 C 0.22714 0.98883 0.46889 0.0
C43 C 0.22157 0.02384 0.49502 0.0
N44 N 0.28689 0.00399 0.49967 0.0
N45 N 0.26741 0.9784 0.472 0.0
C46 C 0.26877 0.0631 0.55052 0.0
H47 H 0.27748 0.09305 0.5349 0.0
H48 H 0.29444 0.0524 0.57259 0.0
H49 H 0.24117 0.06824 0.57177 0.0
C50 C 0.34836 0.96543 0.65925 0.0
N51 N 0.36165 0.97347 0.61702 0.0
N52 N 0.33019 0.97405 0.58861 0.0
C53 C 0.29562 0.96528 0.6122 0.0
C54 C 0.30595 0.96008 0.65756 0.0
C55 C 0.37565 0.96553 0.70042 0.0
H56 H 0.39765 0.99182 0.69852 0.0
H57 H 0.35745 0.96763 0.73202 0.0
H58 H 0.39391 0.93662 0.70125 0.0
O59 O 0.41607 0.93813 0.54525 0.0
O60 O 0.38444 0.97078 0.49038 0.0
H61 H 0.25476 0.94941 0.55717 0.0
H62 H 0.23472 0.93853 0.61284 0.0
C63 C 0.25318 0.96068 0.59243 0.0
H64 H 0.23706 0.99076 0.59326 0.0
H65 H 0.28074 0.95213 0.45808 0.0
O66 O 0.45574 0.96884 0.63852 0.0
C67 C 0.41662 0.95227 0.50531 0.0
Co68 Co 0.52454 0.41488 0.606 0.0
Co69 Co 0.48889 0.34093 0.55338 0.0
C70 C 0.4315 0.39988 0.58301 0.0
O71 O 0.46253 0.42207 0.5949 0.0
O72 O 0.43609 0.36215 0.57251 0.0
C73 C 0.5406 0.49355 0.64844 0.0
O74 O 0.52473 0.51031 0.61161 0.0
C75 C 0.45216 0.26185 0.52383 0.0
C76 C 0.50534 0.23378 0.4894 0.0
C77 C 0.46587 0.22529 0.50471 0.0
N78 N 0.48246 0.29035 0.52043 0.0
N79 N 0.51367 0.27359 0.49871 0.0
C80 C 0.41329 0.26771 0.55037 0.0
H81 H 0.38892 0.27997 0.52739 0.0
H82 H 0.41791 0.29008 0.57804 0.0
H83 H 0.40235 0.23819 0.5653 0.0
C84 C 0.56207 0.34871 0.66175 0.0
N85 N 0.53969 0.36207 0.62595 0.0
N86 N 0.52251 0.33055 0.60559 0.0
C87 C 0.53075 0.29607 0.62985 0.0
C88 C 0.55706 0.30612 0.66607 0.0
C89 C 0.58784 0.37659 0.69074 0.0
H90 H 0.60219 0.40094 0.6694 0.0
H91 H 0.56777 0.39183 0.71589 0.0
H92 H 0.61248 0.35917 0.70878 0.0
O93 O 0.55094 0.42621 0.54915 0.0
O94 O 0.50494 0.38899 0.51241 0.0
H95 H 0.5215 0.2384 0.59597 0.0
H96 H 0.50599 0.23776 0.65488 0.0
C97 C 0.50726 0.25657 0.62345 0.0
H98 H 0.47517 0.26364 0.6137 0.0
H99 H 0.54191 0.28837 0.49339 0.0
O100 O 0.54311 0.45459 0.65153 0.0
C101 C 0.52735 0.42146 0.51511 0.0
Co102 Co 0.08595 0.52334 0.60632 0.0
Co103 Co 0.15967 0.5028 0.54313 0.0
C104 C 0.09869 0.43835 0.56831 0.0
O105 O 0.0757 0.46472 0.5878 0.0
O106 O 0.13438 0.44825 0.55399 0.0
C107 C 0.00841 0.53612 0.65266 0.0
O108 O 0.99056 0.51662 0.61883 0.0
C109 C 0.23863 0.46424 0.53513 0.0
C110 C 0.27232 0.50311 0.48608 0.0
C111 C 0.2774 0.47106 0.51707 0.0
N112 N 0.21203 0.49137 0.51649 0.0
N113 N 0.23208 0.51395 0.48632 0.0
C114 C 0.22854 0.43739 0.57518 0.0
H115 H 0.21826 0.4067 0.56288 0.0
H116 H 0.20329 0.45098 0.59523 0.0
H117 H 0.25585 0.43304 0.59762 0.0
C118 C 0.15389 0.5404 0.6708 0.0
N119 N 0.13916 0.53065 0.62939 0.0
N120 N 0.16967 0.5295 0.60036 0.0
C121 C 0.20487 0.53985 0.62251 0.0
C122 C 0.19611 0.54645 0.66777 0.0
C123 C 0.12836 0.54131 0.71279 0.0
H124 H 0.11384 0.57212 0.71544 0.0
H125 H 0.10353 0.51769 0.71093 0.0
H126 H 0.14759 0.53596 0.74355 0.0
O127 O 0.08263 0.55966 0.55375 0.0
O128 O 0.11528 0.526 0.50143 0.0
H129 H 0.24341 0.55333 0.56525 0.0
H130 H 0.26461 0.56875 0.6193 0.0
C131 C 0.24648 0.54458 0.60142 0.0
H132 H 0.26385 0.51533 0.60489 0.0
H133 H 0.21917 0.53876 0.46858 0.0
O134 O 0.04714 0.54171 0.65227 0.0
C135 C 0.08198 0.54254 0.51533 0.0
Co136 Co 0.99726 0.42153 0.87971 0.0
Co137 Co 0.01548 0.34679 0.94359 0.0
C138 C 0.08144 0.40676 0.92086 0.0
O139 O 0.0556 0.43032 0.90054 0.0
O140 O 0.07098 0.37092 0.93481 0.0
C141 C 0.97946 0.4998 0.83297 0.0
O142 O 0.99138 0.51984 0.86935 0.0
C143 C 0.04968 0.26544 0.9568 0.0
C144 C 0.00639 0.23543 0.0041 0.0
C145 C 0.0394 0.22757 0.97576 0.0
N146 N 0.02353 0.29417 0.97239 0.0
N147 N 0.99836 0.27625 0.00162 0.0
C148 C 0.07912 0.27283 0.91863 0.0
H149 H 0.11023 0.27924 0.93297 0.0
H150 H 0.06935 0.29969 0.89781 0.0
H151 H 0.08135 0.24528 0.89662 0.0
C152 C 0.97936 0.35495 0.81489 0.0
N153 N 0.98906 0.3687 0.85665 0.0
N154 N 0.98981 0.33761 0.88541 0.0
C155 C 0.97924 0.30296 0.86268 0.0
C156 C 0.97288 0.31274 0.81737 0.0
C157 C 0.97922 0.38136 0.7731 0.0
H158 H 0.00457 0.40442 0.77495 0.0
H159 H 0.98264 0.36254 0.74206 0.0
H160 H 0.94949 0.39817 0.77097 0.0
O161 O 0.96001 0.42671 0.93068 0.0
O162 O 0.99231 0.39171 0.98349 0.0
H163 H 0.96417 0.26351 0.91906 0.0
H164 H 0.94989 0.24334 0.86428 0.0
C165 C 0.97375 0.26101 0.88328 0.0
H166 H 0.00297 0.24353 0.88102 0.0
H167 H 0.97367 0.29112 0.01701 0.0
O168 O 0.98077 0.46069 0.83247 0.0
C169 C 0.97586 0.42545 0.97001 0.0
Co170 Co 0.08572 0.98333 0.87345 0.0
Co171 Co 0.16028 0.00302 0.93577 0.0
C172 C 0.09918 0.06782 0.91453 0.0
O173 O 0.07576 0.04135 0.89506 0.0
O174 O 0.13551 0.05825 0.92757 0.0
C175 C 0.00632 0.96954 0.82938 0.0
O176 O 0.98891 0.98559 0.86522 0.0
C177 C 0.23894 0.04089 0.95038 0.0
C178 C 0.2723 0.99763 -0.00443 0.0
C179 C 0.27744 0.03278 0.96907 0.0
N180 N 0.21236 0.01182 0.96474 0.0
N181 N 0.23216 0.98647 -0.00742 0.0
C182 C 0.22902 0.07115 0.91318 0.0
H183 H 0.21555 0.0993 0.92826 0.0
H184 H 0.20597 0.0579 0.88937 0.0
H185 H 0.25695 0.08003 0.89386 0.0
C186 C 0.15096 0.96752 0.80728 0.0
N187 N 0.13806 0.97735 0.84902 0.0
N188 N 0.16975 0.97895 0.87703 0.0
C189 C 0.20414 0.9691 0.85369 0.0
C190 C 0.19328 0.96186 0.80877 0.0
C191 C 0.12295 0.96287 0.76705 0.0
H192 H 0.10402 0.93464 0.77177 0.0
H193 H 0.10171 0.98962 0.76477 0.0
H194 H 0.14039 0.95992 0.73505 0.0
O195 O 0.08399 0.94378 0.92279 0.0
O196 O 0.1162 0.97791 0.97577 0.0
H197 H 0.24697 0.95886 0.90847 0.0
H198 H 0.26768 0.94873 0.8534 0.0
C199 C 0.24712 0.96926 0.87272 0.0
H200 H 0.26022 1.0008 0.87028 0.0
H201 H 0.21914 0.9599 0.00673 0.0
O202 O 0.04531 0.96681 0.82777 0.0
C203 C 0.08392 0.95881 0.96214 0.0
Co204 Co 0.52425 0.08907 0.88416 0.0
Co205 Co 0.49316 0.1632 0.93662 0.0
C206 C 0.43222 0.10716 0.91112 0.0
O207 O 0.46211 0.08394 0.89903 0.0
O208 O 0.43862 0.14476 0.92091 0.0
C209 C 0.51308 0.06157 0.8022 0.0
O210 O 0.48736 0.09238 0.80768 0.0
C211 C 0.46245 0.24391 0.96619 0.0
C212 C 0.52124 0.2738 0.98573 0.0
C213 C 0.48005 0.28189 0.97659 0.0
N214 N 0.49215 0.21486 0.96825 0.0
N215 N 0.52687 0.23285 0.98144 0.0
C216 C 0.41971 0.23667 0.94779 0.0
H217 H 0.4009 0.22188 0.97464 0.0
H218 H 0.42025 0.21591 0.91833 0.0
H219 H 0.40445 0.26561 0.93684 0.0
C220 C 0.56401 0.15391 0.82832 0.0
N221 N 0.54087 0.14118 0.86347 0.0
N222 N 0.52236 0.17258 0.88156 0.0
C223 C 0.52879 0.20601 0.85513 0.0
C224 C 0.5563 0.19591 0.82027 0.0
C225 C 0.59699 0.12728 0.80871 0.0
H226 H 0.60866 0.10552 0.83501 0.0
H227 H 0.58403 0.10831 0.78086 0.0
H228 H 0.62308 0.14628 0.79603 0.0
O229 O 0.55518 0.07846 0.93826 0.0
O230 O 0.50933 0.11316 0.97648 0.0
H231 H 0.52013 0.2671 0.88062 0.0
H232 H 0.49659 0.2583 0.82555 0.0
C233 C 0.50348 0.24439 0.85917 0.0
H234 H 0.47369 0.23698 0.875 0.0
H235 H 0.55536 0.21793 0.98293 0.0
O236 O 0.53525 0.05001 0.8355 0.0
C237 C 0.53121 0.0806 0.97177 0.0
Co238 Co 0.42608 0.52227 0.8739 0.0
Co239 Co 0.35384 0.50588 0.94051 0.0
C240 C 0.41124 0.43896 0.91699 0.0
O241 O 0.43441 0.46386 0.89503 0.0
O242 O 0.37637 0.45042 0.9317 0.0
C243 C 0.50299 0.53621 0.82525 0.0
O244 O 0.52287 0.52636 0.8627 0.0
C245 C 0.27572 0.46805 0.95926 0.0
C246 C 0.24543 0.51083 0.00634 0.0
C247 C 0.23859 0.47586 0.98035 0.0
N248 N 0.30322 0.49704 0.9719 0.0
N249 N 0.2853 0.52204 0.00095 0.0
C250 C 0.28286 0.43809 0.92154 0.0
H251 H 0.30467 0.45121 0.89651 0.0
H252 H 0.25364 0.42994 0.90383 0.0
H253 H 0.29647 0.40944 0.93584 0.0
C254 C 0.35736 0.54265 0.81204 0.0
N255 N 0.37233 0.53223 0.85318 0.0
N256 N 0.3421 0.53097 0.88255 0.0
C257 C 0.30666 0.54147 0.86075 0.0
C258 C 0.3152 0.54883 0.81533 0.0
C259 C 0.38307 0.54606 0.77027 0.0
H260 H 0.40506 0.57209 0.77438 0.0
H261 H 0.40125 0.51739 0.76603 0.0
H262 H 0.36398 0.55179 0.7395 0.0
O263 O 0.43579 0.55947 0.92429 0.0
O264 O 0.40096 0.52878 0.97822 0.0
H265 H 0.26663 0.55086 0.91738 0.0
H266 H 0.24326 0.56199 0.86329 0.0
C267 C 0.26467 0.54107 0.88159 0.0
H268 H 0.2514 0.50959 0.8795 0.0
H269 H 0.29923 0.54842 0.01435 0.0
O270 O 0.46384 0.5359 0.82463 0.0
C271 C 0.4348 0.54432 0.96394 0.0
Co272 Co 0.02597 0.91965 0.36977 0.0
Co273 Co 0.99899 0.84785 0.43254 0.0
C274 C 0.93711 0.90378 0.3959 0.0
O275 O 0.96558 0.92762 0.38142 0.0
O276 O 0.94495 0.86784 0.4111 0.0
C277 C 0.04316 0.99657 0.32297 0.0
O278 O 0.02983 0.01492 0.3596 0.0
C279 C 0.9604 0.76976 0.45259 0.0
C280 C 1.00001 0.74266 0.50613 0.0
C281 C 0.96706 0.73394 0.47737 0.0
N282 N 0.98811 0.79831 0.46586 0.0
N283 N 0.0112 0.78228 0.49861 0.0
C284 C 0.93266 0.77473 0.41196 0.0
H285 H 0.90429 0.79124 0.4222 0.0
H286 H 0.94821 0.7934 0.38547 0.0
H287 H 0.92368 0.74449 0.39736 0.0
C288 C 0.054 0.85032 0.31377 0.0
N289 N 0.03936 0.86566 0.35273 0.0
N290 N 0.03266 0.83531 0.38144 0.0
C291 C 0.04407 0.79955 0.36166 0.0
C292 C 0.05745 0.80788 0.31801 0.0
C293 C 0.06148 0.87556 0.27203 0.0
H294 H 0.08752 0.89698 0.2788 0.0
H295 H 0.03372 0.89427 0.26393 0.0
H296 H 0.06933 0.85601 0.24258 0.0
O297 O 0.05484 0.9337 0.42558 0.0
O298 O 0.01539 0.89691 0.47099 0.0
H299 H 0.04459 0.75821 0.41881 0.0
H300 H 0.0609 0.7354 0.36641 0.0
C301 C 0.03894 0.75738 0.38181 0.0
H302 H 0.00732 0.74585 0.37478 0.0
H303 H 0.03635 0.79732 0.51353 0.0
O304 O 0.04381 0.95744 0.32153 0.0
C305 C 0.03565 0.93002 0.46272 0.0
Co306 Co 0.5885 0.01984 0.36802 0.0
Co307 Co 0.66023 0.98481 0.42362 0.0
C308 C 0.60639 0.92601 0.38819 0.0
O309 O 0.58355 0.95669 0.37656 0.0
O310 O 0.64331 0.93164 0.4019 0.0
C311 C 0.5115 0.03149 0.32182 0.0
O312 O 0.49507 0.01582 0.35868 0.0
C313 C 0.73831 0.95087 0.45351 0.0
C314 C 0.77339 0.00867 0.46213 0.0
C315 C 0.77846 0.96673 0.45453 0.0
N316 N 0.71146 0.98231 0.45653 0.0
N317 N 0.7327 0.01655 0.46366 0.0
C318 C 0.72488 0.90676 0.45126 0.0
H319 H 0.69719 0.90203 0.47264 0.0
H320 H 0.71588 0.8993 0.416 0.0
H321 H 0.74989 0.88578 0.46289 0.0
C322 C 0.65622 0.06017 0.31717 0.0
N323 N 0.64111 0.0374 0.35164 0.0
N324 N 0.67119 0.01769 0.37177 0.0
C325 C 0.70587 0.0231 0.34768 0.0
C326 C 0.69846 0.05225 0.3135 0.0
C327 C 0.63002 0.08763 0.288 0.0
H328 H 0.60404 0.10005 0.30801 0.0
H329 H 0.61678 0.06937 0.25965 0.0
H330 H 0.64848 0.11358 0.274 0.0
O331 O 0.57439 0.04491 0.42449 0.0
O332 O 0.60968 0.99791 0.46202 0.0
H333 H 0.76556 1.00229 0.36993 0.0
H334 H 0.75197 0.98676 0.31345 0.0
C335 C 0.73985 0.99175 0.34806 0.0
H336 H 0.72816 0.96186 0.36123 0.0
H337 H 0.71969 0.04597 0.46377 0.0
O338 O 0.55023 0.03693 0.32036 0.0
C339 C 0.5774 0.02031 0.45783 0.0
Co340 Co 0.48354 0.57444 0.36766 0.0
Co341 Co 0.49993 0.65238 0.42613 0.0
C342 C 0.56604 0.59028 0.41196 0.0
O343 O 0.54103 0.56521 0.39254 0.0
O344 O 0.55483 0.62668 0.42212 0.0
C345 C 0.46989 0.49407 0.32354 0.0
O346 O 0.48713 0.47542 0.35848 0.0
C347 C 0.53816 0.73185 0.42987 0.0
C348 C 0.50053 0.76762 0.47762 0.0
C349 C 0.53268 0.77118 0.44698 0.0
N350 N 0.51055 0.70633 0.44921 0.0
N351 N 0.48852 0.72764 0.47838 0.0
C352 C 0.56442 0.71994 0.39037 0.0
H353 H 0.59534 0.7106 0.40292 0.0
H354 H 0.55093 0.69333 0.37209 0.0
H355 H 0.56823 0.74618 0.36641 0.0
C356 C 0.47076 0.63721 0.29648 0.0
N357 N 0.47876 0.62573 0.33952 0.0
N358 N 0.47672 0.658 0.36614 0.0
C359 C 0.46588 0.69114 0.3407 0.0
C360 C 0.46257 0.67915 0.29571 0.0
C361 C 0.46893 0.60804 0.25741 0.0
H362 H 0.44058 0.5891 0.26049 0.0
H363 H 0.49586 0.58696 0.25869 0.0
H364 H 0.46779 0.62452 0.22437 0.0
O365 O 0.44286 0.5773 0.41547 0.0
O366 O 0.47374 0.61136 0.46923 0.0
H367 H 0.45295 0.73329 0.39484 0.0
H368 H 0.43487 0.74988 0.34015 0.0
C369 C 0.46035 0.734 0.35832 0.0
H370 H 0.48883 0.75225 0.35243 0.0
H371 H 0.46371 0.71558 0.49656 0.0
O372 O 0.46661 0.53304 0.32331 0.0
C373 C 0.45677 0.57802 0.45553 0.0
Co374 Co 0.9162 0.48821 0.38923 0.0
Co375 Co 0.84236 0.50653 0.45201 0.0
C376 C 0.90095 0.57278 0.42902 0.0
O377 O 0.92467 0.54664 0.41019 0.0
O378 O 0.86508 0.56247 0.44248 0.0
C379 C 0.99054 0.49148 0.33909 0.0
O380 O 1.00236 0.51819 0.36991 0.0
C381 C 0.76157 0.54071 0.4645 0.0
C382 C 0.7309 0.49705 0.51108 0.0
C383 C 0.72362 0.53085 0.48307 0.0
N384 N 0.78993 0.51395 0.48042 0.0
N385 N 0.77163 0.48844 0.50913 0.0
C386 C 0.76916 0.57007 0.42591 0.0
H387 H 0.7948 0.55918 0.40451 0.0
H388 H 0.74112 0.57384 0.40444 0.0
H389 H 0.77757 0.60068 0.43982 0.0
C390 C 0.85002 0.47129 0.3232 0.0
N391 N 0.86376 0.48075 0.36503 0.0
N392 N 0.83271 0.48153 0.3934 0.0
C393 C 0.79796 0.47162 0.37007 0.0
C394 C 0.80775 0.46546 0.32497 0.0
C395 C 0.87665 0.47065 0.28203 0.0
H396 H 0.89708 0.49809 0.28201 0.0
H397 H 0.85807 0.47026 0.25028 0.0
H398 H 0.89649 0.44281 0.28328 0.0
O399 O 0.9186 0.44947 0.43907 0.0
O400 O 0.8891 0.4845 0.49215 0.0
H401 H 0.73776 0.44353 0.37048 0.0
H402 H 0.73891 0.49645 0.3869 0.0
C403 C 0.75579 0.46688 0.38976 0.0
H404 H 0.75787 0.45696 0.42564 0.0
H405 H 0.78612 0.46321 0.5245 0.0
O406 O 0.95611 0.47337 0.34329 0.0
C407 C 0.92122 0.4664 0.47735 0.0
Co408 Co 0.03426 0.58357 0.10326 0.0
Co409 Co 0.01398 0.6603 0.0438 0.0
C410 C 0.94849 0.59993 0.06612 0.0
O411 O 0.97482 0.5752 0.08376 0.0
O412 O 0.95907 0.63612 0.05396 0.0
C413 C 0.02997 0.50848 0.15125 0.0
O414 O 1.00229 0.4988 0.12032 0.0
C415 C 0.97481 0.73916 0.04064 0.0
C416 C 0.00896 0.77534 -0.01042 0.0
C417 C 0.9784 0.77838 0.02213 0.0
N418 N 1.00185 0.7141 0.02021 0.0
N419 N 0.02179 0.73569 -0.01089 0.0
C420 C 0.95126 0.72736 0.08239 0.0
H421 H 0.96688 0.70213 0.10117 0.0
H422 H 0.94755 0.75419 0.10515 0.0
H423 H 0.92015 0.71627 0.07246 0.0
C424 C 0.05257 0.64912 0.17192 0.0
N425 N 0.04245 0.6354 0.13011 0.0
N426 N 0.04197 0.66678 0.10157 0.0
C427 C 0.05299 0.7012 0.12436 0.0
C428 C 0.05898 0.69135 0.16967 0.0
C429 C 0.05337 0.62341 0.21417 0.0
H430 H 0.05483 0.5902 0.20641 0.0
H431 H 0.02513 0.62965 0.23397 0.0
H432 H 0.0803 0.63209 0.2356 0.0
O433 O 0.07054 0.58582 0.05156 0.0
O434 O 0.03474 0.61719 -0.00038 0.0
H435 H 0.08389 0.75992 0.12186 0.0
H436 H 0.03035 0.76156 0.10745 0.0
C437 C 0.05883 0.74313 0.10376 0.0
H438 H 0.06688 0.74061 0.06748 0.0
H439 H 0.04577 0.72407 0.96957 0.0
O440 O 0.05243 0.53998 0.14482 0.0
C441 C 0.05246 0.58431 0.01361 0.0
Co442 Co 0.92032 0.02431 0.10382 0.0
Co443 Co 0.84506 0.98738 0.05414 0.0
C444 C 0.90385 0.93043 0.08539 0.0
O445 O 0.92672 0.96172 0.0948 0.0
O446 O 0.8658 0.93493 0.07544 0.0
C447 C 0.99983 0.03761 0.14616 0.0
O448 O 0.0153 0.02003 0.11011 0.0
C449 C 0.76556 0.94951 0.02778 0.0
C450 C 0.73243 0.0034 -0.00013 0.0
C451 C 0.72686 0.96292 0.01384 0.0
N452 N 0.79261 0.98101 0.02361 0.0
N453 N 0.77269 0.0128 0.00574 0.0
C454 C 0.77628 0.90768 0.046 0.0
H455 H 0.80184 0.89499 0.02562 0.0
H456 H 0.78726 0.90992 0.08156 0.0
H457 H 0.7495 0.88626 0.04427 0.0
C458 C 0.85606 0.06192 0.16033 0.0
N459 N 0.86861 0.03943 0.12479 0.0
N460 N 0.83691 0.02118 0.10589 0.0
C461 C 0.80346 0.02819 0.13136 0.0
C462 C 0.81389 0.05492 0.16666 0.0
C463 C 0.88387 0.09145 0.1848 0.0
H464 H 0.9053 0.10622 0.16037 0.0
H465 H 0.90298 0.07426 0.20986 0.0
H466 H 0.86587 0.11572 0.20211 0.0
O467 O 0.92813 0.05061 0.04609 0.0
O468 O 0.89249 1.00214 0.01171 0.0
H469 H 0.74352 0.01782 0.10296 0.0
H470 H 0.74967 0.99839 0.16034 0.0
C471 C 0.76512 1.00286 0.1273 0.0
H472 H 0.77346 0.97206 0.11476 0.0
H473 H 0.78581 0.04195 0.00098 0.0
O474 O 0.96118 0.04323 0.1482 0.0
C475 C 0.92431 0.0256 0.01352 0.0
Co476 Co 0.48052 0.91077 0.09584 0.0
Co477 Co 0.496 0.84241 0.02352 0.0
C478 C 0.56283 0.90036 0.05135 0.0
O479 O 0.53887 0.9212 0.07654 0.0
O480 O 0.55073 0.86793 0.03116 0.0
C481 C 0.4713 0.98574 0.14504 0.0
O482 O 0.48915 1.00279 0.10975 0.0
C483 C 0.53693 0.7663 0.00691 0.0
C484 C 0.49627 0.73284 0.95927 0.0
C485 C 0.53101 0.72827 0.98672 0.0
N486 N 0.50719 0.79215 -0.00765 0.0
N487 N 0.48345 0.77232 0.96297 0.0
C488 C 0.56562 0.77565 0.04577 0.0
H489 H 0.55108 0.79726 0.06975 0.0
H490 H 0.57456 0.74724 0.06454 0.0
H491 H 0.59398 0.79049 0.0324 0.0
C492 C 0.46608 0.83891 0.15449 0.0
N493 N 0.474 0.85644 0.11407 0.0
N494 N 0.47366 0.82817 0.08226 0.0
C495 C 0.46442 0.79148 0.10184 0.0
C496 C 0.45989 0.7971 0.14806 0.0
C497 C 0.46676 0.86154 0.19855 0.0
H498 H 0.43648 0.87675 0.20319 0.0
H499 H 0.49103 0.88581 0.19806 0.0
H500 H 0.47226 0.84023 0.22755 0.0
O501 O 0.44055 0.9168 0.04669 0.0
O502 O 0.46915 0.88888 0.98787 0.0
H503 H 0.44748 0.75682 0.04266 0.0
H504 H 0.4373 0.73103 0.09586 0.0
C505 C 0.45924 0.7514 0.0775 0.0
H506 H 0.48923 0.73516 0.07632 0.0
H507 H 0.45669 0.78458 0.94837 0.0
O508 O 0.465 0.94711 0.14537 0.0
C509 C 0.45377 0.92067 0.00676 0.0
Co510 Co 0.59201 0.49279 0.09974 0.0
Co511 Co 0.66807 0.51294 0.03942 0.0
C512 C 0.60481 0.57658 0.05588 0.0
O513 O 0.58159 0.55011 0.0757 0.0
O514 O 0.64167 0.56766 0.04461 0.0
C515 C 0.51263 0.4795 0.14461 0.0
O516 O 0.49535 0.50234 0.11287 0.0
C517 C 0.74901 0.54861 0.02586 0.0
C518 C 0.78022 0.50252 0.9834 0.0
C519 C 0.78722 0.53792 0.00859 0.0
N520 N 0.72097 0.52055 0.01212 0.0
N521 N 0.73957 0.49363 0.98577 0.0
C522 C 0.74044 0.58068 0.06096 0.0
H523 H 0.73117 0.60973 0.04368 0.0
H524 H 0.71475 0.57065 0.0831 0.0
H525 H 0.76823 0.58703 0.08207 0.0
C526 C 0.65586 0.47951 0.16906 0.0
N527 N 0.64387 0.48893 0.12653 0.0
N528 N 0.67612 0.49011 0.09976 0.0
C529 C 0.70995 0.48033 0.12485 0.0
C530 C 0.69811 0.47355 0.16945 0.0
C531 C 0.62701 0.47471 0.20808 0.0
H532 H 0.61087 0.44463 0.20494 0.0
H533 H 0.60352 0.49956 0.20709 0.0
H534 H 0.64359 0.47514 0.2411 0.0
O535 O 0.59436 0.4533 0.05094 0.0
O536 O 0.6257 0.48661 -0.00252 0.0
H537 H 0.75358 0.46827 0.07223 0.0
H538 H 0.77313 0.45903 0.12855 0.0
C539 C 0.75325 0.47941 0.10757 0.0
H540 H 0.76676 0.5108 0.10931 0.0
H541 H 0.72526 0.46743 0.97239 0.0
O542 O 0.55125 0.47345 0.14371 0.0
C543 C 0.59305 0.46887 0.0117 0.0
C544 C 0.94937 0.00973 0.72938 0.0
C545 C 0.97107 0.99013 0.69431 0.0
C546 C 0.95592 0.99854 0.77469 0.0
C547 C 0.98403 0.96723 0.78591 0.0
H548 H 0.93063 0.03666 0.72239 0.0
H549 H 0.94291 0.0178 0.80082 0.0
S550 S 0.03494 0.89592 0.7063 0.0
N551 N 0.01188 0.93033 0.67334 0.0
N552 N 0.0236 0.90892 0.75878 0.0
C553 C 0.99943 0.94247 0.751 0.0
C554 C 0.99307 0.95402 0.70488 0.0
C555 C 0.51885 0.9807 0.71111 0.0
C556 C 0.50967 0.00396 0.67201 0.0
C557 C 0.5232 0.99997 0.75332 0.0
C558 C 0.51679 0.04265 0.75745 0.0
H559 H 0.52013 0.94732 0.70945 0.0
H560 H 0.52843 0.98103 0.78319 0.0
S561 S 0.49344 0.11695 0.66474 0.0
N562 N 0.49679 0.07178 0.63959 0.0
N563 N 0.50327 0.10782 0.71882 0.0
C564 C 0.50976 0.06636 0.7182 0.0
C565 C 0.50662 0.04698 0.67536 0.0
C566 C 0.50381 0.55725 0.74437 0.0
C567 C 0.52408 0.53805 0.78122 0.0
C568 C 0.5134 0.54699 0.69973 0.0
C569 C 0.54346 0.51709 0.69085 0.0
H570 H 0.47775 0.57736 0.75006 0.0
H571 H 0.49398 0.55897 0.67267 0.0
S572 S 0.61391 0.46789 0.77456 0.0
N573 N 0.58188 0.4953 0.80547 0.0
N574 N 0.60015 0.47624 0.72128 0.0
C575 C 0.56827 0.50281 0.72694 0.0
C576 C 0.55854 0.5133 0.77242 0.0
C577 C 0.95169 0.50021 0.7546 0.0
C578 C 0.97361 0.52094 0.78909 0.0
C579 C 0.95856 0.50944 0.70896 0.0
C580 C 0.98768 0.53958 0.69669 0.0
H581 H 0.93229 0.47393 0.76275 0.0
H582 H 0.94468 0.4896 0.68358 0.0
S583 S 0.04226 0.61159 0.77409 0.0
N584 N 0.0175 0.57948 0.80812 0.0
N585 N 0.03012 0.59723 0.72202 0.0
C586 C 0.00428 0.56507 0.73079 0.0
C587 C 0.99728 0.55565 0.7773 0.0
C588 C 0.01696 0.05072 0.2706 0.0
C589 C 0.04544 0.01911 0.27958 0.0
C590 C 0.00616 0.0609 0.22594 0.0
C591 C 0.02345 0.03969 0.18913 0.0
H592 H 0.99951 0.06434 0.29785 0.0
H593 H 0.98109 0.08246 0.22047 0.0
S594 S 0.10979 0.96498 0.19552 0.0
N595 N 0.09863 0.97487 0.24887 0.0
N596 N 0.07797 0.99353 0.16468 0.0
C597 C 0.05689 0.01321 0.19776 0.0
C598 C 0.06791 1.00293 0.24326 0.0
C599 C 0.50642 0.05222 0.24101 0.0
C600 C 0.48885 0.03148 0.27828 0.0
C601 C 0.49663 0.0407 0.19663 0.0
C602 C 0.46909 0.008 0.18834 0.0
H603 H 0.53089 0.07467 0.24612 0.0
H604 H 0.51401 0.05454 0.16921 0.0
S605 S 0.40503 0.95334 0.27347 0.0
N606 N 0.4354 0.98387 0.30363 0.0
N607 N 0.41678 0.96236 0.21996 0.0
C608 C 0.44652 0.99173 0.2249 0.0
C609 C 0.45642 0.00354 0.27013 0.0
C610 C 0.5002 0.44836 0.2661 0.0
C611 C 0.46761 0.47397 0.27901 0.0
C612 C 0.5114 0.44572 0.22055 0.0
C613 C 0.49064 0.469 0.18691 0.0
H614 H 0.52033 0.43453 0.29143 0.0
H615 H 0.53906 0.42872 0.21246 0.0
S616 S 0.39296 0.52627 0.20233 0.0
N617 N 0.40689 0.5119 0.25404 0.0
N618 N 0.42854 0.50785 0.16822 0.0
C619 C 0.45344 0.48815 0.1986 0.0
C620 C 0.44176 0.49038 0.24495 0.0
C621 C 0.03163 0.46948 0.27227 0.0
C622 C 0.00422 0.49718 0.29259 0.0
C623 C 0.0397 0.47219 0.22559 0.0
C624 C 0.01914 0.50152 0.19851 0.0
H625 H 0.04655 0.44568 0.2924 0.0
H626 H 0.06186 0.45142 0.21066 0.0
S627 S 0.94387 0.57982 0.23599 0.0
N628 N 0.95727 0.55485 0.28276 0.0
N629 N 0.97013 0.55805 0.19485 0.0
C630 C 0.99123 0.52869 0.21858 0.0
C631 C 0.98436 0.52701 0.26583 0.0
C632 C 0.03828 0.00717 0.46848 0.0
C633 C 0.02181 0.96932 0.4841 0.0
C634 C 0.01886 0.04493 0.47712 0.0
C635 C 0.98234 0.04689 0.50258 0.0
H636 H 0.06571 0.00763 0.44772 0.0
H637 H 0.03293 0.07282 0.46385 0.0
S638 S 0.92804 0.95749 0.55498 0.0
N639 N 0.96802 0.93685 0.52937 0.0
N640 N 0.93145 0.0076 0.54523 0.0
C641 C 0.96646 0.00954 0.52017 0.0
C642 C 0.98637 0.971 0.51149 0.0
C643 C 0.5007 0.02568 0.46578 0.0
C644 C 0.53751 0.00426 0.47605 0.0
C645 C 0.46178 0.00755 0.47203 0.0
C646 C 0.45765 0.96745 0.49006 0.0
H647 H 0.50185 0.05648 0.45132 0.0
H648 H 0.43472 0.02574 0.46383 0.0
S649 S 0.54351 0.89833 0.52496 0.0
N650 N 0.56677 0.94046 0.50631 0.0
N651 N 0.49356 0.90707 0.51922 0.0
C652 C 0.49399 0.94584 0.50135 0.0
C653 C 0.53377 0.96413 0.49452 0.0
C654 C 0.53139 0.49803 0.50296 0.0
C655 C 0.51145 0.46017 0.49354 0.0
C656 C 0.5126 0.53605 0.49327 0.0
C657 C 0.47334 0.53808 0.47265 0.0
H658 H 0.56141 0.49843 0.51943 0.0
H659 H 0.52953 0.56403 0.50112 0.0
S660 S 0.40769 0.44884 0.43982 0.0
N661 N 0.44972 0.42774 0.46166 0.0
N662 N 0.41511 0.49917 0.44271 0.0
C663 C 0.45327 0.50069 0.4622 0.0
C664 C 0.4722 0.46189 0.47241 0.0
C665 C 0.96622 0.52173 0.51212 0.0
C666 C 0.96269 0.48383 0.48929 0.0
C667 C 0.00461 0.54144 0.51777 0.0
C668 C 0.04144 0.52414 0.50127 0.0
H669 H 0.93903 0.53694 0.52498 0.0
H670 H 0.00547 0.57034 0.53605 0.0
S671 S 0.04919 0.42541 0.43837 0.0
N672 N 0.99959 0.4298 0.44965 0.0
N673 N 0.07144 0.46678 0.46012 0.0
C674 C 0.03832 0.48646 0.47781 0.0
C675 C 0.9992 0.46629 0.47217 0.0
C676 C 0.97572 0.50286 0.97193 0.0
C677 C 0.99336 0.46535 0.98688 0.0
C678 C 0.99559 0.54098 0.97881 0.0
C679 C 0.03399 0.54347 0.00137 0.0
H680 H 0.9466 0.50271 0.95358 0.0
H681 H 0.98032 0.56872 0.96686 0.0
S682 S 0.09288 0.45493 0.04953 0.0
N683 N 0.05114 0.43367 0.02716 0.0
N684 N 0.08848 0.50492 0.03974 0.0
C685 C 0.05163 0.5063 0.01736 0.0
C686 C 0.03128 0.4675 0.01056 0.0
C687 C 0.03954 0.01344 -0.00351 0.0
C688 C 0.04313 0.97376 0.97785 0.0
C689 C 1.00086 0.03122 0.00408 0.0
C690 C 0.96377 0.00994 -0.0057 0.0
H691 H 0.06681 0.0316 0.00425 0.0
H692 H 1.00017 0.06167 0.01903 0.0
S693 S 0.95631 0.90517 0.94387 0.0
N694 N 0.00639 0.91391 0.94865 0.0
N695 N 0.93363 0.94685 0.96358 0.0
C696 C 0.96695 0.97032 0.975 0.0
C697 C 0.0065 0.95231 0.96702 0.0
C698 C 0.53074 0.00317 0.97116 0.0
C699 C 0.51297 0.04025 0.98668 0.0
C700 C 0.51021 0.96515 0.9749 0.0
C701 C 0.47138 0.96196 -0.00448 0.0
H702 H 0.56044 0.00352 0.95455 0.0
H703 H 0.52547 0.93787 0.96242 0.0
S704 S 0.41134 0.04852 0.04366 0.0
N705 N 0.45381 0.07059 0.02445 0.0
N706 N 0.4159 0.9989 0.03235 0.0
C707 C 0.45335 0.99842 0.01188 0.0
C708 C 0.47406 0.0374 0.00768 0.0
C709 C 0.51211 0.54379 0.96584 0.0
C710 C 0.47457 0.52664 0.981 0.0
C711 C 0.55005 0.52402 0.97357 0.0
C712 C 0.55233 0.48624 -0.0027 0.0
H713 H 0.51216 0.57259 0.94697 0.0
H714 H 0.57785 0.53912 0.96169 0.0
S715 S 0.46348 0.42758 0.04421 0.0
N716 N 0.44245 0.4691 0.02116 0.0
N717 N 0.51352 0.43197 0.03529 0.0
C718 C 0.51508 0.46861 0.01263 0.0
C719 C 0.47641 0.48886 0.00496 0.0
C720 C 1.00086 0.22678 0.73741 0.0
C721 C 0.96832 0.22729 0.70565 0.0
C722 C 1.00165 0.25426 0.7738 0.0
C723 C 0.97012 0.2834 0.77938 0.0
H724 H 0.02616 0.2053 0.73372 0.0
H725 H 0.02755 0.25327 0.79725 0.0
S726 S 0.87703 0.29581 0.70702 0.0
N727 N 0.90274 0.25772 0.68333 0.0
N728 N 0.90492 0.31045 0.7513 0.0
C729 C 0.93722 0.28404 0.74819 0.0
C730 C 0.93614 0.25566 0.71137 0.0
C731 C 0.24918 0.99143 0.70149 0.0
C732 C 0.27709 0.95882 0.69591 0.0
C733 C 0.22187 0.99179 0.73796 0.0
C734 C 0.22133 0.95935 0.76973 0.0
H735 H 0.24896 0.0172 0.6779 0.0
H736 H 0.20137 0.01789 0.74169 0.0
S737 S 0.28625 0.86547 0.76817 0.0
N738 N 0.30175 0.89268 0.72386 0.0
N739 N 0.24932 0.89271 0.792 0.0
C740 C 0.24842 0.9261 0.76396 0.0
C741 C 0.27664 0.926 0.72709 0.0
C742 C 0.56892 0.26646 0.78691 0.0
C743 C 0.56851 0.22328 0.78105 0.0
C744 C 0.56679 0.2936 0.74984 0.0
C745 C 0.56899 0.27904 0.70516 0.0
H746 H 0.5678 0.27965 0.82043 0.0
H747 H 0.56101 0.32578 0.75669 0.0
S748 S 0.58827 0.17111 0.67107 0.0
N749 N 0.57942 0.16839 0.72598 0.0
N750 N 0.58589 0.22057 0.65798 0.0
C751 C 0.57757 0.23701 0.69919 0.0
C752 C 0.57522 0.20877 0.73658 0.0
C753 C 0.25493 0.51657 0.71115 0.0
C754 C 0.22637 0.54872 0.70533 0.0
C755 C 0.28371 0.5172 0.74673 0.0
C756 C 0.28514 0.55018 0.77741 0.0
H757 H 0.25458 0.49041 0.68843 0.0
H758 H 0.30476 0.49146 0.75059 0.0
S759 S 0.21851 0.64289 0.77514 0.0
N760 N 0.20169 0.6148 0.73215 0.0
N761 N 0.25687 0.61663 0.79859 0.0
C762 C 0.25721 0.58285 0.77154 0.0
C763 C 0.22749 0.58195 0.73556 0.0
C764 C 0.09221 0.72319 0.23836 0.0
C765 C 0.05872 0.72064 0.20787 0.0
C766 C 0.09192 0.75162 0.27424 0.0
C767 C 0.05818 0.77812 0.28033 0.0
H768 H 0.11879 0.70344 0.23417 0.0
H769 H 0.11819 0.75306 0.29714 0.0
S770 S 0.96184 0.78099 0.21195 0.0
N771 N 0.99012 0.74506 0.1879 0.0
N772 N 0.98986 0.79865 0.25468 0.0
C773 C 0.02435 0.77521 0.25058 0.0
C774 C 0.02457 0.74639 0.21444 0.0
C775 C 0.74392 0.07148 0.19686 0.0
C776 C 0.78648 0.06616 0.2052 0.0
C777 C 0.71515 0.06897 0.23198 0.0
C778 C 0.72804 0.06504 0.2774 0.0
H779 H 0.73231 0.07381 0.16242 0.0
H780 H 0.68289 0.06732 0.2227 0.0
S781 S 0.83631 0.06495 0.31917 0.0
N782 N 0.84009 0.06257 0.26353 0.0
N783 N 0.7865 0.06866 0.32943 0.0
C784 C 0.77068 0.06761 0.28664 0.0
C785 C 0.7999 0.06583 0.25072 0.0
C786 C 0.42634 0.73276 0.24884 0.0
C787 C 0.46041 0.70663 0.25569 0.0
C788 C 0.42589 0.76175 0.21332 0.0
C789 C 0.4592 0.76481 0.18334 0.0
H790 H 0.40016 0.73113 0.27139 0.0
H791 H 0.3996 0.78209 0.20947 0.0
S792 S 0.55567 0.70381 0.18701 0.0
N793 N 0.5284 0.68612 0.23006 0.0
N794 N 0.52699 0.73978 0.1626 0.0
C795 C 0.49299 0.73835 0.18928 0.0
C796 C 0.49371 0.70934 0.22565 0.0
C797 C 0.72619 0.50128 0.24171 0.0
C798 C 0.72511 0.46937 0.2097 0.0
C799 C 0.75243 0.49914 0.27953 0.0
C800 C 0.77865 0.4652 0.2863 0.0
H801 H 0.70702 0.52834 0.23708 0.0
H802 H 0.75293 0.52469 0.30309 0.0
S803 S 0.78567 0.37263 0.21388 0.0
N804 N 0.75066 0.40185 0.1884 0.0
N805 N 0.80107 0.39842 0.25918 0.0
C806 C 0.7775 0.43283 0.25498 0.0
C807 C 0.7504 0.43478 0.21668 0.0
C808 C 0.17621 0.08458 0.50801 0.0
C809 C 0.182 0.04168 0.50981 0.0
C810 C 0.14069 0.10273 0.52584 0.0
C811 C 0.10977 0.07872 0.54679 0.0
H812 H 0.19946 0.10427 0.49281 0.0
H813 H 0.13747 0.13592 0.52294 0.0
S814 S 0.11182 0.96469 0.56202 0.0
N815 N 0.15498 0.97554 0.53498 0.0
N816 N 0.08841 0.00933 0.56925 0.0
C817 C 0.11571 0.03563 0.54941 0.0
C818 C 0.15167 0.01718 0.53058 0.0
C819 C 0.45728 0.11324 0.54096 0.0
C820 C 0.41508 0.1042 0.53464 0.0
C821 C 0.47358 0.15211 0.52993 0.0
C822 C 0.44844 0.18342 0.51162 0.0
H823 H 0.47813 0.09009 0.55429 0.0
H824 H 0.50599 0.15793 0.53678 0.0
S825 S 0.3374 0.1744 0.48216 0.0
N826 N 0.34922 0.12933 0.50509 0.0
N827 N 0.38048 0.20177 0.48306 0.0
C828 C 0.40677 0.17436 0.50288 0.0
C829 C 0.38995 0.13493 0.51462 0.0
C830 C 0.35727 0.39437 0.55946 0.0
C831 C 0.39114 0.41952 0.57184 0.0
C832 C 0.32097 0.41127 0.54122 0.0
C833 C 0.3169 0.45399 0.53448 0.0
H834 H 0.35907 0.36111 0.5628 0.0
H835 H 0.29599 0.39062 0.53181 0.0
S836 S 0.39487 0.53399 0.56306 0.0
N837 N 0.41724 0.49 0.57725 0.0
N838 N 0.34874 0.52148 0.54313 0.0
C839 C 0.34994 0.47971 0.54735 0.0
C840 C 0.38698 0.46259 0.56623 0.0
C841 C 0.10902 0.36698 0.53836 0.0
C842 C 0.08217 0.39698 0.55604 0.0
C843 C 0.09403 0.32953 0.52117 0.0
C844 C 0.05161 0.32069 0.52056 0.0
H845 H 0.14198 0.37261 0.53718 0.0
H846 H 0.11578 0.30738 0.50798 0.0
S847 S 0.96811 0.38743 0.56396 0.0
N848 N 0.0108 0.41426 0.57288 0.0
N849 N 0.98285 0.34397 0.54014 0.0
C850 C 0.02436 0.34997 0.53842 0.0
C851 C 0.03959 0.38796 0.55647 0.0
C852 C 0.16672 0.48322 0.95039 0.0
C853 C 0.19814 0.45779 0.96786 0.0
C854 C 0.12973 0.46632 0.93364 0.0
C855 C 0.12262 0.42333 0.93417 0.0
H856 H 0.1711 0.51637 0.94879 0.0
H857 H 0.10623 0.48726 0.92106 0.0
S858 S 0.19562 0.34378 0.97747 0.0
N859 N 0.22006 0.38799 0.98543 0.0
N860 N 0.15073 0.35589 0.95417 0.0
C861 C 0.15399 0.39768 0.95192 0.0
C862 C 0.19164 0.41499 0.96877 0.0
C863 C 0.11047 0.14009 0.9423 0.0
C864 C 0.08296 0.10918 0.92703 0.0
C865 C 0.09614 0.17806 0.95838 0.0
C866 C 0.05373 0.18652 0.96052 0.0
H867 H 0.14348 0.13489 0.94215 0.0
H868 H 0.11845 0.20089 0.96962 0.0
S869 S 0.96856 0.11735 0.92357 0.0
N870 N 0.0109 0.09066 0.91395 0.0
N871 N 0.98422 0.16177 0.94496 0.0
C872 C 0.02579 0.15626 0.94521 0.0
C873 C 0.04034 0.11776 0.92813 0.0
C874 C 0.38595 0.04559 0.92312 0.0
C875 C 0.3912 0.08882 0.92201 0.0
C876 C 0.34949 0.02751 0.93961 0.0
C877 C 0.31698 0.05198 0.95553 0.0
H878 H 0.41052 0.02542 0.91225 0.0
H879 H 0.34658 0.99419 0.93947 0.0
S880 S 0.31449 0.16612 0.96053 0.0
N881 N 0.35955 0.15536 0.93786 0.0
N882 N 0.29232 0.12108 0.9704 0.0
C883 C 0.32168 0.09496 0.9548 0.0
C884 C 0.35835 0.11345 0.93751 0.0
C885 C 0.46645 0.3848 0.91677 0.0
C886 C 0.42735 0.3979 0.93135 0.0
C887 C 0.48391 0.34794 0.93291 0.0
C888 C 0.46303 0.32278 0.96431 0.0
H889 H 0.4839 0.40318 0.89281 0.0
H890 H 0.51363 0.33865 0.91994 0.0
S891 S 0.3618 0.34395 0.01643 0.0
N892 N 0.3692 0.38292 0.98111 0.0
N893 N 0.40286 0.31432 0.01174 0.0
C894 C 0.42461 0.33578 0.98014 0.0
C895 C 0.40647 0.37301 0.96344 0.0
C896 C 0.89361 0.95393 0.43642 0.0
C897 C 0.89632 0.92107 0.40591 0.0
C898 C 0.85545 0.96692 0.45301 0.0
C899 C 0.81814 0.94857 0.43851 0.0
H900 H 0.92138 0.96894 0.44853 0.0
H901 H 0.85526 0.99184 0.47735 0.0
S902 S 0.80941 0.86686 0.35031 0.0
N903 N 0.85956 0.87258 0.35841 0.0
N904 N 0.78734 0.90022 0.38443 0.0
C905 C 0.82066 0.91742 0.4051 0.0
C906 C 0.85987 0.90291 0.39005 0.0
C907 C 0.54461 0.88078 0.40201 0.0
C908 C 0.58759 0.88459 0.39584 0.0
C909 C 0.52709 0.84412 0.41894 0.0
C910 C 0.55184 0.80994 0.43032 0.0
H911 H 0.52447 0.90685 0.39568 0.0
H912 H 0.49396 0.84262 0.42344 0.0
S913 S 0.66556 0.8032 0.41954 0.0
N914 N 0.65391 0.84959 0.40007 0.0
N915 N 0.62128 0.78227 0.43485 0.0
C916 C 0.59458 0.81305 0.42375 0.0
C917 C 0.61232 0.84989 0.40562 0.0
C918 C 0.65306 0.51876 0.45024 0.0
C919 C 0.68293 0.54631 0.46733 0.0
C920 C 0.61596 0.53321 0.43096 0.0
C921 C 0.60719 0.57577 0.4284 0.0
H922 H 0.65879 0.48583 0.45091 0.0
H923 H 0.59376 0.51076 0.41862 0.0
S924 S 0.6755 0.66033 0.46995 0.0
N925 N 0.70126 0.61767 0.48167 0.0
N926 N 0.6321 0.64516 0.44544 0.0
C927 C 0.637 0.60351 0.44584 0.0
C928 C 0.67465 0.58871 0.46534 0.0
C929 C 0.95986 0.62189 0.44191 0.0
C930 C 0.91693 0.61463 0.44004 0.0
C931 C 0.9759 0.66017 0.45565 0.0
C932 C 0.94963 0.69273 0.46746 0.0
H933 H 0.98135 0.59766 0.43335 0.0
H934 H 0.00907 0.66459 0.45608 0.0
S935 S 0.83533 0.69028 0.46872 0.0
N936 N 0.84863 0.64379 0.45163 0.0
N937 N 0.87906 0.71553 0.4772 0.0
C938 C 0.90686 0.68606 0.46594 0.0
C939 C 0.89045 0.6471 0.45225 0.0
C940 C 0.89681 0.54258 0.05537 0.0
C941 C 0.90617 0.5851 0.05408 0.0
C942 C 0.85856 0.5275 0.03976 0.0
C943 C 0.82805 0.55435 0.02269 0.0
H944 H 0.91945 0.52059 0.06764 0.0
H945 H 0.85263 0.4946 0.04157 0.0
S946 S 0.83661 0.66791 0.01076 0.0
N947 N 0.88109 0.65367 0.03347 0.0
N948 N 0.80971 0.62496 0.00425 0.0
C949 C 0.83677 0.59671 0.02115 0.0
C950 C 0.87564 0.61216 0.03684 0.0
C951 C 0.98342 0.85155 0.0489 0.0
C952 C 0.95906 0.81666 0.03911 0.0
C953 C 0.96584 0.88745 0.06693 0.0
C954 C 0.92319 0.88977 0.07588 0.0
H955 H 0.0163 0.85116 0.04246 0.0
H956 H 0.98563 0.91406 0.07214 0.0
S957 S 0.84637 0.80596 0.05709 0.0
N958 N 0.89028 0.7867 0.03899 0.0
N959 N 0.85771 0.85261 0.07571 0.0
C960 C 0.8989 0.85439 0.06751 0.0
C961 C 0.91665 0.81833 0.04827 0.0
C962 C 0.65764 0.93737 -0.01139 0.0
C963 C 0.68629 0.94394 0.02379 0.0
C964 C 0.61788 0.92233 -0.0022 0.0
C965 C 0.60496 0.91523 0.04263 0.0
H966 H 0.66607 0.94383 0.95381 0.0
H967 H 0.59683 0.91706 0.96972 0.0
S968 S 0.66809 0.9272 0.14669 0.0
N969 N 0.69924 0.94061 0.10506 0.0
N970 N 0.62369 0.91503 0.12227 0.0
C971 C 0.63311 0.92178 0.07803 0.0
C972 C 0.67402 0.93553 0.06861 0.0
C973 C 0.54369 0.62173 0.03871 0.0
C974 C 0.58691 0.61646 0.03995 0.0
C975 C 0.52573 0.65722 0.01957 0.0
C976 C 0.55027 0.68904 0.00149 0.0
H977 H 0.5234 0.59796 0.05191 0.0
H978 H 0.49243 0.66022 0.01992 0.0
S979 S 0.66448 0.69137 -0.00361 0.0
N980 N 0.6536 0.64689 0.02122 0.0
N981 N 0.61955 0.7134 0.98563 0.0
C982 C 0.5933 0.68442 0.00248 0.0
C983 C 0.61168 0.64827 0.0217 0.0
loop_
_geom_bond_atom_site_label_1
_geom_bond_atom_site_label_2
_geom_bond_distance
_geom_bond_site_symmetry_2
_ccdc_geom_bond_type
Co0 O3 1.984 . S
Co0 N17 1.983 1_455 S
Co0 O25 1.959 1_455 S
Co0 O32 1.918 1_455 S
Co1 O4 1.966 1_655 S
Co1 N10 2.022 . S
Co1 N18 1.993 . S
Co1 O26 1.941 . S
C2 O3 1.258 . S
C2 O4 1.263 . S
O3 Co0 1.984 . S
O3 C2 1.258 . S
O4 Co1 1.966 1_455 S
O4 C2 1.263 . S
C5 O6 1.235 . S
C5 O32 1.289 1_455 S
O6 C5 1.235 . S
C7 C9 1.400 . S
C7 N10 1.351 1_455 S
C7 C12 1.501 . S
C8 C9 1.387 1_655 S
C8 N11 1.341 . S
C9 C7 1.400 . S
C9 C8 1.387 1_455 S
N10 Co1 2.022 . S
N10 C7 1.351 1_655 S
N10 N11 1.365 . S
N11 C8 1.341 . S
N11 N10 1.365 . S
N11 H31 0.862 . S
C12 C7 1.501 . S
C12 H13 0.961 . S
C12 H14 0.961 . S
C12 H15 0.960 . S
H13 C12 0.961 . S
H14 C12 0.961 . S
H15 C12 0.960 . S
C16 N17 1.342 . S
C16 C20 1.401 . S
C16 C21 1.499 . S
N17 Co0 1.983 1_655 S
N17 C16 1.342 . S
N17 N18 1.388 . S
N18 Co1 1.993 . S
N18 N17 1.388 . S
N18 C19 1.346 . S
C19 N18 1.346 . S
C19 C20 1.396 . S
C19 C29 1.510 . S
C20 C16 1.401 . S
C20 C19 1.396 . S
C21 C16 1.499 . S
C21 H22 0.959 . S
C21 H23 0.960 . S
C21 H24 0.961 . S
H22 C21 0.959 . S
H23 C21 0.960 . S
H24 C21 0.961 . S
O25 Co0 1.959 1_655 S
O25 C33 1.258 . S
O26 Co1 1.941 . S
O26 C33 1.266 . S
H27 C29 0.959 . S
H28 C29 0.961 . S
C29 C19 1.510 . S
C29 H27 0.959 . S
C29 H28 0.961 . S
C29 H30 0.960 . S
H30 C29 0.960 . S
H31 N11 0.862 . S
O32 Co0 1.918 1_655 S
O32 C5 1.289 1_655 S
C33 O25 1.258 . S
C33 O26 1.266 . S
Co34 O37 1.953 1_565 S
Co34 N51 1.996 . S
Co34 O59 1.976 . S
Co34 O66 1.923 . S
Co35 O38 1.966 1_565 S
Co35 N44 2.022 . S
Co35 N52 1.993 . S
Co35 O60 1.941 . S
C36 O37 1.258 . S
C36 O38 1.263 . S
O37 Co34 1.953 1_545 S
O37 C36 1.258 . S
O38 Co35 1.966 1_545 S
O38 C36 1.263 . S
C39 O40 1.235 . S
C39 O66 1.289 1_545 S
O40 C39 1.235 . S
C41 C43 1.400 . S
C41 N44 1.351 1_545 S
C41 C46 1.501 . S
C42 C43 1.387 1_565 S
C42 N45 1.341 . S
C43 C41 1.400 . S
C43 C42 1.387 1_545 S
N44 Co35 2.022 . S
N44 C41 1.351 1_565 S
N44 N45 1.365 . S
N45 C42 1.341 . S
N45 N44 1.365 . S
N45 H65 0.862 . S
C46 C41 1.501 . S
C46 H47 0.961 . S
C46 H48 0.961 . S
C46 H49 0.960 . S
H47 C46 0.961 . S
H48 C46 0.961 . S
H49 C46 0.960 . S
C50 N51 1.342 . S
C50 C54 1.401 . S
C50 C55 1.499 . S
N51 Co34 1.996 . S
N51 C50 1.342 . S
N51 N52 1.388 . S
N52 Co35 1.993 . S
N52 N51 1.388 . S
N52 C53 1.346 . S
C53 N52 1.346 . S
C53 C54 1.396 . S
C53 C63 1.510 . S
C54 C50 1.401 . S
C54 C53 1.396 . S
C55 C50 1.499 . S
C55 H56 0.959 . S
C55 H57 0.960 . S
C55 H58 0.961 . S
H56 C55 0.959 . S
H57 C55 0.960 . S
H58 C55 0.961 . S
O59 Co34 1.976 . S
O59 C67 1.258 . S
O60 Co35 1.941 . S
O60 C67 1.266 . S
H61 C63 0.959 . S
H62 C63 0.961 . S
C63 C53 1.510 . S
C63 H61 0.959 . S
C63 H62 0.961 . S
C63 H64 0.960 . S
H64 C63 0.960 . S
H65 N45 0.862 . S
O66 Co34 1.923 . S
O66 C39 1.289 1_565 S
C67 O59 1.258 . S
C67 O60 1.266 . S
Co68 O71 1.970 . S
Co68 N85 1.989 . S
Co68 O93 1.967 . S
Co68 O100 1.920 . S
Co69 O72 1.966 . S
Co69 N78 2.022 . S
Co69 N86 1.993 . S
Co69 O94 1.941 . S
C70 O71 1.258 . S
C70 O72 1.263 . S
O71 Co68 1.970 . S
O71 C70 1.258 . S
O72 Co69 1.966 . S
O72 C70 1.263 . S
C73 O74 1.235 . S
C73 O100 1.289 . S
O74 C73 1.235 . S
C75 C77 1.400 . S
C75 N78 1.351 . S
C75 C80 1.501 . S
C76 C77 1.387 . S
C76 N79 1.341 . S
C77 C75 1.400 . S
C77 C76 1.387 . S
N78 Co69 2.022 . S
N78 C75 1.351 . S
N78 N79 1.365 . S
N79 C76 1.341 . S
N79 N78 1.365 . S
N79 H99 0.862 . S
C80 C75 1.501 . S
C80 H81 0.961 . S
C80 H82 0.961 . S
C80 H83 0.960 . S
H81 C80 0.961 . S
H82 C80 0.961 . S
H83 C80 0.960 . S
C84 N85 1.342 . S
C84 C88 1.401 . S
C84 C89 1.499 . S
N85 Co68 1.989 . S
N85 C84 1.342 . S
N85 N86 1.388 . S
N86 Co69 1.993 . S
N86 N85 1.388 . S
N86 C87 1.346 . S
C87 N86 1.346 . S
C87 C88 1.396 . S
C87 C97 1.510 . S
C88 C84 1.401 . S
C88 C87 1.396 . S
C89 C84 1.499 . S
C89 H90 0.959 . S
C89 H91 0.960 . S
C89 H92 0.961 . S
H90 C89 0.959 . S
H91 C89 0.960 . S
H92 C89 0.961 . S
O93 Co68 1.967 . S
O93 C101 1.258 . S
O94 Co69 1.941 . S
O94 C101 1.266 . S
H95 C97 0.959 . S
H96 C97 0.961 . S
C97 C87 1.510 . S
C97 H95 0.959 . S
C97 H96 0.961 . S
C97 H98 0.960 . S
H98 C97 0.960 . S
H99 N79 0.862 . S
O100 Co68 1.920 . S
O100 C73 1.289 . S
C101 O93 1.258 . S
C101 O94 1.266 . S
Co102 O105 1.970 . S
Co102 N119 1.989 . S
Co102 O127 1.967 . S
Co102 O134 1.920 . S
Co103 O106 1.966 . S
Co103 N112 2.022 . S
Co103 N120 1.993 . S
Co103 O128 1.941 . S
C104 O105 1.258 . S
C104 O106 1.263 . S
O105 Co102 1.970 . S
O105 C104 1.258 . S
O106 Co103 1.966 . S
O106 C104 1.263 . S
C107 O108 1.235 . S
C107 O134 1.289 . S
O108 C107 1.235 . S
C109 C111 1.400 . S
C109 N112 1.351 . S
C109 C114 1.501 . S
C110 C111 1.387 . S
C110 N113 1.341 . S
C111 C109 1.400 . S
C111 C110 1.387 . S
N112 Co103 2.022 . S
N112 C109 1.351 . S
N112 N113 1.365 . S
N113 C110 1.341 . S
N113 N112 1.365 . S
N113 H133 0.862 . S
C114 C109 1.501 . S
C114 H115 0.961 . S
C114 H116 0.961 . S
C114 H117 0.960 . S
H115 C114 0.961 . S
H116 C114 0.961 . S
H117 C114 0.960 . S
C118 N119 1.342 . S
C118 C122 1.401 . S
C118 C123 1.499 . S
N119 Co102 1.989 . S
N119 C118 1.342 . S
N119 N120 1.388 . S
N120 Co103 1.993 . S
N120 N119 1.388 . S
N120 C121 1.346 . S
C121 N120 1.346 . S
C121 C122 1.396 . S
C121 C131 1.510 . S
C122 C118 1.401 . S
C122 C121 1.396 . S
C123 C118 1.499 . S
C123 H124 0.959 . S
C123 H125 0.960 . S
C123 H126 0.961 . S
H124 C123 0.959 . S
H125 C123 0.960 . S
H126 C123 0.961 . S
O127 Co102 1.967 . S
O127 C135 1.258 . S
O128 Co103 1.941 . S
O128 C135 1.266 . S
H129 C131 0.959 . S
H130 C131 0.961 . S
C131 C121 1.510 . S
C131 H129 0.959 . S
C131 H130 0.961 . S
C131 H132 0.960 . S
H132 C131 0.960 . S
H133 N113 0.862 . S
O134 Co102 1.920 . S
O134 C107 1.289 . S
C135 O127 1.258 . S
C135 O128 1.266 . S
Co136 O139 1.953 1_655 S
Co136 N153 1.996 . S
Co136 O161 1.976 . S
Co136 O168 1.923 . S
Co137 O140 1.966 1_655 S
Co137 N146 2.022 1_556 S
Co137 N154 1.993 . S
Co137 O162 1.941 1_556 S
C138 O139 1.258 . S
C138 O140 1.263 . S
O139 Co136 1.953 1_455 S
O139 C138 1.258 . S
O140 Co137 1.966 1_455 S
O140 C138 1.263 . S
C141 O142 1.235 . S
C141 O168 1.289 1_455 S
O142 C141 1.235 . S
C143 C145 1.400 . S
C143 N146 1.351 1_455 S
C143 C148 1.501 . S
C144 C145 1.387 1_655 S
C144 N147 1.341 . S
C145 C143 1.400 . S
C145 C144 1.387 1_455 S
N146 Co137 2.022 1_554 S
N146 C143 1.351 1_655 S
N146 N147 1.365 . S
N147 C144 1.341 . S
N147 N146 1.365 . S
N147 H167 0.862 . S
C148 C143 1.501 . S
C148 H149 0.961 . S
C148 H150 0.961 1_554 S
C148 H151 0.960 . S
H149 C148 0.961 . S
H150 C148 0.961 1_556 S
H151 C148 0.960 . S
C152 N153 1.342 . S
C152 C156 1.401 . S
C152 C157 1.499 . S
N153 Co136 1.996 . S
N153 C152 1.342 . S
N153 N154 1.388 . S
N154 Co137 1.993 . S
N154 N153 1.388 . S
N154 C155 1.346 . S
C155 N154 1.346 . S
C155 C156 1.396 . S
C155 C165 1.510 . S
C156 C152 1.401 . S
C156 C155 1.396 . S
C157 C152 1.499 . S
C157 H158 0.959 . S
C157 H159 0.960 . S
C157 H160 0.961 . S
H158 C157 0.959 . S
H159 C157 0.960 . S
H160 C157 0.961 . S
O161 Co136 1.976 . S
O161 C169 1.258 . S
O162 Co137 1.941 1_554 S
O162 C169 1.266 1_554 S
H163 C165 0.959 . S
H164 C165 0.961 . S
C165 C155 1.510 . S
C165 H163 0.959 . S
C165 H164 0.961 . S
C165 H166 0.960 . S
H166 C165 0.960 . S
H167 N147 0.862 . S
O168 Co136 1.923 . S
O168 C141 1.289 1_655 S
C169 O161 1.258 . S
C169 O162 1.266 1_556 S
Co170 O173 1.984 . S
Co170 N187 1.983 1_545 S
Co170 O195 1.959 1_545 S
Co170 O202 1.918 1_545 S
Co171 O174 1.966 1_565 S
Co171 N180 2.022 1_556 S
Co171 N188 1.993 . S
Co171 O196 1.941 1_556 S
C172 O173 1.258 . S
C172 O174 1.263 . S
O173 Co170 1.984 . S
O173 C172 1.258 . S
O174 Co171 1.966 1_545 S
O174 C172 1.263 . S
C175 O176 1.235 . S
C175 O202 1.289 1_545 S
O176 C175 1.235 . S
C177 C179 1.400 . S
C177 N180 1.351 1_545 S
C177 C182 1.501 . S
C178 C179 1.387 1_565 S
C178 N181 1.341 . S
C179 C177 1.400 . S
C179 C178 1.387 1_545 S
N180 Co171 2.022 1_554 S
N180 C177 1.351 1_565 S
N180 N181 1.365 . S
N181 C178 1.341 . S
N181 N180 1.365 . S
N181 H201 0.862 . S
C182 C177 1.501 . S
C182 H183 0.961 . S
C182 H184 0.961 . S
C182 H185 0.960 . S
H183 C182 0.961 . S
H184 C182 0.961 . S
H185 C182 0.960 . S
C186 N187 1.342 . S
C186 C190 1.401 . S
C186 C191 1.499 . S
N187 Co170 1.983 1_565 S
N187 C186 1.342 . S
N187 N188 1.388 . S
N188 Co171 1.993 . S
N188 N187 1.388 . S
N188 C189 1.346 . S
C189 N188 1.346 . S
C189 C190 1.396 . S
C189 C199 1.510 . S
C190 C186 1.401 . S
C190 C189 1.396 . S
C191 C186 1.499 . S
C191 H192 0.959 . S
C191 H193 0.960 . S
C191 H194 0.961 . S
H192 C191 0.959 . S
H193 C191 0.960 . S
H194 C191 0.961 . S
O195 Co170 1.959 1_565 S
O195 C203 1.258 . S
O196 Co171 1.941 1_554 S
O196 C203 1.266 1_554 S
H197 C199 0.959 . S
H198 C199 0.961 . S
C199 C189 1.510 . S
C199 H197 0.959 . S
C199 H198 0.961 . S
C199 H200 0.960 . S
H200 C199 0.960 . S
H201 N181 0.862 . S
O202 Co170 1.918 1_565 S
O202 C175 1.289 1_565 S
C203 O195 1.258 . S
C203 O196 1.266 1_556 S
Co204 O207 1.970 . S
Co204 N221 1.989 . S
Co204 O229 1.967 . S
Co204 O236 1.920 . S
Co205 O208 1.966 . S
Co205 N214 2.022 1_556 S
Co205 N222 1.993 . S
Co205 O230 1.941 1_556 S
C206 O207 1.258 . S
C206 O208 1.263 . S
O207 Co204 1.970 . S
O207 C206 1.258 . S
O208 Co205 1.966 . S
O208 C206 1.263 . S
C209 O210 1.235 . S
C209 O236 1.289 . S
O210 C209 1.235 . S
C211 C213 1.400 . S
C211 N214 1.351 . S
C211 C216 1.501 . S
C212 C213 1.387 . S
C212 N215 1.341 . S
C213 C211 1.400 . S
C213 C212 1.387 . S
N214 Co205 2.022 1_554 S
N214 C211 1.351 . S
N214 N215 1.365 . S
N215 C212 1.341 . S
N215 N214 1.365 . S
N215 H235 0.862 . S
C216 C211 1.501 . S
C216 H217 0.961 . S
C216 H218 0.961 . S
C216 H219 0.960 . S
H217 C216 0.961 . S
H218 C216 0.961 . S
H219 C216 0.960 . S
C220 N221 1.342 . S
C220 C224 1.401 . S
C220 C225 1.499 . S
N221 Co204 1.989 . S
N221 C220 1.342 . S
N221 N222 1.388 . S
N222 Co205 1.993 . S
N222 N221 1.388 . S
N222 C223 1.346 . S
C223 N222 1.346 . S
C223 C224 1.396 . S
C223 C233 1.510 . S
C224 C220 1.401 . S
C224 C223 1.396 . S
C225 C220 1.499 . S
C225 H226 0.959 . S
C225 H227 0.960 . S
C225 H228 0.961 . S
H226 C225 0.959 . S
H227 C225 0.960 . S
H228 C225 0.961 . S
O229 Co204 1.967 . S
O229 C237 1.258 . S
O230 Co205 1.941 1_554 S
O230 C237 1.266 1_554 S
H231 C233 0.959 . S
H232 C233 0.961 . S
C233 C223 1.510 . S
C233 H231 0.959 . S
C233 H232 0.961 . S
C233 H234 0.960 . S
H234 C233 0.960 . S
H235 N215 0.862 . S
O236 Co204 1.920 . S
O236 C209 1.289 . S
C237 O229 1.258 . S
C237 O230 1.266 1_556 S
Co238 O241 1.970 . S
Co238 N255 1.989 . S
Co238 O263 1.967 . S
Co238 O270 1.920 . S
Co239 O242 1.966 . S
Co239 N248 2.022 1_556 S
Co239 N256 1.993 . S
Co239 O264 1.941 1_556 S
C240 O241 1.258 . S
C240 O242 1.263 . S
O241 Co238 1.970 . S
O241 C240 1.258 . S
O242 Co239 1.966 . S
O242 C240 1.263 . S
C243 O244 1.235 . S
C243 O270 1.289 . S
O244 C243 1.235 . S
C245 C247 1.400 . S
C245 N248 1.351 . S
C245 C250 1.501 . S
C246 C247 1.387 . S
C246 N249 1.341 . S
C247 C245 1.400 . S
C247 C246 1.387 . S
N248 Co239 2.022 1_554 S
N248 C245 1.351 . S
N248 N249 1.365 . S
N249 C246 1.341 . S
N249 N248 1.365 . S
N249 H269 0.862 . S
C250 C245 1.501 . S
C250 H251 0.961 . S
C250 H252 0.961 1_554 S
C250 H253 0.960 . S
H251 C250 0.961 . S
H252 C250 0.961 1_556 S
H253 C250 0.960 . S
C254 N255 1.342 . S
C254 C258 1.401 . S
C254 C259 1.499 . S
N255 Co238 1.989 . S
N255 C254 1.342 . S
N255 N256 1.388 . S
N256 Co239 1.993 . S
N256 N255 1.388 . S
N256 C257 1.346 . S
C257 N256 1.346 . S
C257 C258 1.396 . S
C257 C267 1.510 . S
C258 C254 1.401 . S
C258 C257 1.396 . S
C259 C254 1.499 . S
C259 H260 0.959 . S
C259 H261 0.960 . S
C259 H262 0.961 . S
H260 C259 0.959 . S
H261 C259 0.960 . S
H262 C259 0.961 . S
O263 Co238 1.967 . S
O263 C271 1.258 . S
O264 Co239 1.941 1_554 S
O264 C271 1.266 1_554 S
H265 C267 0.959 . S
H266 C267 0.961 . S
C267 C257 1.510 . S
C267 H265 0.959 . S
C267 H266 0.961 . S
C267 H268 0.960 . S
H268 C267 0.960 . S
H269 N249 0.862 . S
O270 Co238 1.920 . S
O270 C243 1.289 . S
C271 O263 1.258 . S
C271 O264 1.266 1_556 S
Co272 O275 1.984 . S
Co272 N289 1.983 1_655 S
Co272 O297 1.959 1_655 S
Co272 O304 1.918 1_655 S
Co273 O276 1.966 1_455 S
Co273 N282 2.022 . S
Co273 N290 1.993 . S
Co273 O298 1.941 . S
C274 O275 1.258 . S
C274 O276 1.263 . S
O275 Co272 1.984 . S
O275 C274 1.258 . S
O276 Co273 1.966 1_655 S
O276 C274 1.263 . S
C277 O278 1.235 . S
C277 O304 1.289 1_655 S
O278 C277 1.235 . S
C279 C281 1.400 . S
C279 N282 1.351 1_655 S
C279 C284 1.501 . S
C280 C281 1.387 1_455 S
C280 N283 1.341 . S
C281 C279 1.400 . S
C281 C280 1.387 1_655 S
N282 Co273 2.022 . S
N282 C279 1.351 1_455 S
N282 N283 1.365 . S
N283 C280 1.341 . S
N283 N282 1.365 . S
N283 H303 0.862 . S
C284 C279 1.501 . S
C284 H285 0.961 . S
C284 H286 0.961 . S
C284 H287 0.960 . S
H285 C284 0.961 . S
H286 C284 0.961 . S
H287 C284 0.960 . S
C288 N289 1.342 . S
C288 C292 1.401 . S
C288 C293 1.499 . S
N289 Co272 1.983 1_455 S
N289 C288 1.342 . S
N289 N290 1.388 . S
N290 Co273 1.993 . S
N290 N289 1.388 . S
N290 C291 1.346 . S
C291 N290 1.346 . S
C291 C292 1.396 . S
C291 C301 1.510 . S
C292 C288 1.401 . S
C292 C291 1.396 . S
C293 C288 1.499 . S
C293 H294 0.959 . S
C293 H295 0.960 . S
C293 H296 0.961 . S
H294 C293 0.959 . S
H295 C293 0.960 . S
H296 C293 0.961 . S
O297 Co272 1.959 1_455 S
O297 C305 1.258 . S
O298 Co273 1.941 . S
O298 C305 1.266 . S
H299 C301 0.959 . S
H300 C301 0.961 . S
C301 C291 1.510 . S
C301 H299 0.959 . S
C301 H300 0.961 . S
C301 H302 0.960 . S
H302 C301 0.960 . S
H303 N283 0.862 . S
O304 Co272 1.918 1_455 S
O304 C277 1.289 1_455 S
C305 O297 1.258 . S
C305 O298 1.266 . S
Co306 O309 1.953 1_545 S
Co306 N323 1.996 . S
Co306 O331 1.976 . S
Co306 O338 1.923 . S
Co307 O310 1.966 1_545 S
Co307 N316 2.022 . S
Co307 N324 1.993 . S
Co307 O332 1.941 . S
C308 O309 1.258 . S
C308 O310 1.263 . S
O309 Co306 1.953 1_565 S
O309 C308 1.258 . S
O310 Co307 1.966 1_565 S
O310 C308 1.263 . S
C311 O312 1.235 . S
C311 O338 1.289 1_565 S
O312 C311 1.235 . S
C313 C315 1.400 . S
C313 N316 1.351 1_565 S
C313 C318 1.501 . S
C314 C315 1.387 1_545 S
C314 N317 1.341 . S
C315 C313 1.400 . S
C315 C314 1.387 1_565 S
N316 Co307 2.022 . S
N316 C313 1.351 1_545 S
N316 N317 1.365 . S
N317 C314 1.341 . S
N317 N316 1.365 . S
N317 H337 0.862 . S
C318 C313 1.501 . S
C318 H319 0.961 . S
C318 H320 0.961 . S
C318 H321 0.960 . S
H319 C318 0.961 . S
H320 C318 0.961 . S
H321 C318 0.960 . S
C322 N323 1.342 . S
C322 C326 1.401 . S
C322 C327 1.499 . S
N323 Co306 1.996 . S
N323 C322 1.342 . S
N323 N324 1.388 . S
N324 Co307 1.993 . S
N324 N323 1.388 . S
N324 C325 1.346 . S
C325 N324 1.346 . S
C325 C326 1.396 . S
C325 C335 1.510 . S
C326 C322 1.401 . S
C326 C325 1.396 . S
C327 C322 1.499 . S
C327 H328 0.959 . S
C327 H329 0.960 . S
C327 H330 0.961 . S
H328 C327 0.959 . S
H329 C327 0.960 . S
H330 C327 0.961 . S
O331 Co306 1.976 . S
O331 C339 1.258 . S
O332 Co307 1.941 . S
O332 C339 1.266 . S
H333 C335 0.959 . S
H334 C335 0.961 . S
C335 C325 1.510 . S
C335 H333 0.959 . S
C335 H334 0.961 . S
C335 H336 0.960 . S
H336 C335 0.960 . S
H337 N317 0.862 . S
O338 Co306 1.923 . S
O338 C311 1.289 1_545 S
C339 O331 1.258 . S
C339 O332 1.266 . S
Co340 O343 1.970 . S
Co340 N357 1.989 . S
Co340 O365 1.967 . S
Co340 O372 1.920 . S
Co341 O344 1.966 . S
Co341 N350 2.022 . S
Co341 N358 1.993 . S
Co341 O366 1.941 . S
C342 O343 1.258 . S
C342 O344 1.263 . S
O343 Co340 1.970 . S
O343 C342 1.258 . S
O344 Co341 1.966 . S
O344 C342 1.263 . S
C345 O346 1.235 . S
C345 O372 1.289 . S
O346 C345 1.235 . S
C347 C349 1.400 . S
C347 N350 1.351 . S
C347 C352 1.501 . S
C348 C349 1.387 . S
C348 N351 1.341 . S
C349 C347 1.400 . S
C349 C348 1.387 . S
N350 Co341 2.022 . S
N350 C347 1.351 . S
N350 N351 1.365 . S
N351 C348 1.341 . S
N351 N350 1.365 . S
N351 H371 0.862 . S
C352 C347 1.501 . S
C352 H353 0.961 . S
C352 H354 0.961 . S
C352 H355 0.960 . S
H353 C352 0.961 . S
H354 C352 0.961 . S
H355 C352 0.960 . S
C356 N357 1.342 . S
C356 C360 1.401 . S
C356 C361 1.499 . S
N357 Co340 1.989 . S
N357 C356 1.342 . S
N357 N358 1.388 . S
N358 Co341 1.993 . S
N358 N357 1.388 . S
N358 C359 1.346 . S
C359 N358 1.346 . S
C359 C360 1.396 . S
C359 C369 1.510 . S
C360 C356 1.401 . S
C360 C359 1.396 . S
C361 C356 1.499 . S
C361 H362 0.959 . S
C361 H363 0.960 . S
C361 H364 0.961 . S
H362 C361 0.959 . S
H363 C361 0.960 . S
H364 C361 0.961 . S
O365 Co340 1.967 . S
O365 C373 1.258 . S
O366 Co341 1.941 . S
O366 C373 1.266 . S
H367 C369 0.959 . S
H368 C369 0.961 . S
C369 C359 1.510 . S
C369 H367 0.959 . S
C369 H368 0.961 . S
C369 H370 0.960 . S
H370 C369 0.960 . S
H371 N351 0.862 . S
O372 Co340 1.920 . S
O372 C345 1.289 . S
C373 O365 1.258 . S
C373 O366 1.266 . S
Co374 O377 1.970 . S
Co374 N391 1.989 . S
Co374 O399 1.967 . S
Co374 O406 1.920 . S
Co375 O378 1.966 . S
Co375 N384 2.022 . S
Co375 N392 1.993 . S
Co375 O400 1.941 . S
C376 O377 1.258 . S
C376 O378 1.263 . S
O377 Co374 1.970 . S
O377 C376 1.258 . S
O378 Co375 1.966 . S
O378 C376 1.263 . S
C379 O380 1.235 . S
C379 O406 1.289 . S
O380 C379 1.235 . S
C381 C383 1.400 . S
C381 N384 1.351 . S
C381 C386 1.501 . S
C382 C383 1.387 . S
C382 N385 1.341 . S
C383 C381 1.400 . S
C383 C382 1.387 . S
N384 Co375 2.022 . S
N384 C381 1.351 . S
N384 N385 1.365 . S
N385 C382 1.341 . S
N385 N384 1.365 . S
N385 H405 0.862 . S
C386 C381 1.501 . S
C386 H387 0.961 . S
C386 H388 0.961 . S
C386 H389 0.960 . S
H387 C386 0.961 . S
H388 C386 0.961 . S
H389 C386 0.960 . S
C390 N391 1.342 . S
C390 C394 1.401 . S
C390 C395 1.499 . S
N391 Co374 1.989 . S
N391 C390 1.342 . S
N391 N392 1.388 . S
N392 Co375 1.993 . S
N392 N391 1.388 . S
N392 C393 1.346 . S
C393 N392 1.346 . S
C393 C394 1.396 . S
C393 C403 1.510 . S
C394 C390 1.401 . S
C394 C393 1.396 . S
C395 C390 1.499 . S
C395 H396 0.959 . S
C395 H397 0.960 . S
C395 H398 0.961 . S
H396 C395 0.959 . S
H397 C395 0.960 . S
H398 C395 0.961 . S
O399 Co374 1.967 . S
O399 C407 1.258 . S
O400 Co375 1.941 . S
O400 C407 1.266 . S
H401 C403 0.959 . S
H402 C403 0.961 . S
C403 C393 1.510 . S
C403 H401 0.959 . S
C403 H402 0.961 . S
C403 H404 0.960 . S
H404 C403 0.960 . S
H405 N385 0.862 . S
O406 Co374 1.920 . S
O406 C379 1.289 . S
C407 O399 1.258 . S
C407 O400 1.266 . S
Co408 O411 1.953 1_455 S
Co408 N425 1.996 . S
Co408 O433 1.976 . S
Co408 O440 1.923 . S
Co409 O412 1.966 1_455 S
Co409 N418 2.022 1_554 S
Co409 N426 1.993 . S
Co409 O434 1.941 1_554 S
C410 O411 1.258 . S
C410 O412 1.263 . S
O411 Co408 1.953 1_655 S
O411 C410 1.258 . S
O412 Co409 1.966 1_655 S
O412 C410 1.263 . S
C413 O414 1.235 . S
C413 O440 1.289 1_655 S
O414 C413 1.235 . S
C415 C417 1.400 . S
C415 N418 1.351 1_655 S
C415 C420 1.501 . S
C416 C417 1.387 1_455 S
C416 N419 1.341 . S
C417 C415 1.400 . S
C417 C416 1.387 1_655 S
N418 Co409 2.022 1_556 S
N418 C415 1.351 1_455 S
N418 N419 1.365 . S
N419 C416 1.341 . S
N419 N418 1.365 . S
N419 H439 0.862 . S
C420 C415 1.501 . S
C420 H421 0.961 . S
C420 H422 0.961 1_556 S
C420 H423 0.960 . S
H421 C420 0.961 . S
H422 C420 0.961 1_554 S
H423 C420 0.960 . S
C424 N425 1.342 . S
C424 C428 1.401 . S
C424 C429 1.499 . S
N425 Co408 1.996 . S
N425 C424 1.342 . S
N425 N426 1.388 . S
N426 Co409 1.993 . S
N426 N425 1.388 . S
N426 C427 1.346 . S
C427 N426 1.346 . S
C427 C428 1.396 . S
C427 C437 1.510 . S
C428 C424 1.401 . S
C428 C427 1.396 . S
C429 C424 1.499 . S
C429 H430 0.959 . S
C429 H431 0.960 . S
C429 H432 0.961 . S
H430 C429 0.959 . S
H431 C429 0.960 . S
H432 C429 0.961 . S
O433 Co408 1.976 . S
O433 C441 1.258 . S
O434 Co409 1.941 1_556 S
O434 C441 1.266 1_556 S
H435 C437 0.959 . S
H436 C437 0.961 . S
C437 C427 1.510 . S
C437 H435 0.959 . S
C437 H436 0.961 . S
C437 H438 0.960 . S
H438 C437 0.960 . S
H439 N419 0.862 . S
O440 Co408 1.923 . S
O440 C413 1.289 1_455 S
C441 O433 1.258 . S
C441 O434 1.266 1_554 S
Co442 O445 1.984 . S
Co442 N459 1.983 1_565 S
Co442 O467 1.959 1_565 S
Co442 O474 1.918 1_565 S
Co443 O446 1.966 1_545 S
Co443 N452 2.022 1_554 S
Co443 N460 1.993 . S
Co443 O468 1.941 1_554 S
C444 O445 1.258 . S
C444 O446 1.263 . S
O445 Co442 1.984 . S
O445 C444 1.258 . S
O446 Co443 1.966 1_565 S
O446 C444 1.263 . S
C447 O448 1.235 . S
C447 O474 1.289 1_565 S
O448 C447 1.235 . S
C449 C451 1.400 . S
C449 N452 1.351 1_565 S
C449 C454 1.501 . S
C450 C451 1.387 1_545 S
C450 N453 1.341 . S
C451 C449 1.400 . S
C451 C450 1.387 1_565 S
N452 Co443 2.022 1_556 S
N452 C449 1.351 1_545 S
N452 N453 1.365 . S
N453 C450 1.341 . S
N453 N452 1.365 . S
N453 H473 0.862 . S
C454 C449 1.501 . S
C454 H455 0.961 . S
C454 H456 0.961 . S
C454 H457 0.960 . S
H455 C454 0.961 . S
H456 C454 0.961 . S
H457 C454 0.960 . S
C458 N459 1.342 . S
C458 C462 1.401 . S
C458 C463 1.499 . S
N459 Co442 1.983 1_545 S
N459 C458 1.342 . S
N459 N460 1.388 . S
N460 Co443 1.993 . S
N460 N459 1.388 . S
N460 C461 1.346 . S
C461 N460 1.346 . S
C461 C462 1.396 . S
C461 C471 1.510 . S
C462 C458 1.401 . S
C462 C461 1.396 . S
C463 C458 1.499 . S
C463 H464 0.959 . S
C463 H465 0.960 . S
C463 H466 0.961 . S
H464 C463 0.959 . S
H465 C463 0.960 . S
H466 C463 0.961 . S
O467 Co442 1.959 1_545 S
O467 C475 1.258 . S
O468 Co443 1.941 1_556 S
O468 C475 1.266 1_556 S
H469 C471 0.959 . S
H470 C471 0.961 . S
C471 C461 1.510 . S
C471 H469 0.959 . S
C471 H470 0.961 . S
C471 H472 0.960 . S
H472 C471 0.960 . S
H473 N453 0.862 . S
O474 Co442 1.918 1_545 S
O474 C447 1.289 1_545 S
C475 O467 1.258 . S
C475 O468 1.266 1_554 S
Co476 O479 1.970 . S
Co476 N493 1.989 . S
Co476 O501 1.967 . S
Co476 O508 1.920 . S
Co477 O480 1.966 . S
Co477 N486 2.022 1_554 S
Co477 N494 1.993 . S
Co477 O502 1.941 1_554 S
C478 O479 1.258 . S
C478 O480 1.263 . S
O479 Co476 1.970 . S
O479 C478 1.258 . S
O480 Co477 1.966 . S
O480 C478 1.263 . S
C481 O482 1.235 . S
C481 O508 1.289 . S
O482 C481 1.235 . S
C483 C485 1.400 . S
C483 N486 1.351 . S
C483 C488 1.501 . S
C484 C485 1.387 . S
C484 N487 1.341 . S
C485 C483 1.400 . S
C485 C484 1.387 . S
N486 Co477 2.022 1_556 S
N486 C483 1.351 . S
N486 N487 1.365 . S
N487 C484 1.341 . S
N487 N486 1.365 . S
N487 H507 0.862 . S
C488 C483 1.501 . S
C488 H489 0.961 . S
C488 H490 0.961 . S
C488 H491 0.960 . S
H489 C488 0.961 . S
H490 C488 0.961 . S
H491 C488 0.960 . S
C492 N493 1.342 . S
C492 C496 1.401 . S
C492 C497 1.499 . S
N493 Co476 1.989 . S
N493 C492 1.342 . S
N493 N494 1.388 . S
N494 Co477 1.993 . S
N494 N493 1.388 . S
N494 C495 1.346 . S
C495 N494 1.346 . S
C495 C496 1.396 . S
C495 C505 1.510 . S
C496 C492 1.401 . S
C496 C495 1.396 . S
C497 C492 1.499 . S
C497 H498 0.959 . S
C497 H499 0.960 . S
C497 H500 0.961 . S
H498 C497 0.959 . S
H499 C497 0.960 . S
H500 C497 0.961 . S
O501 Co476 1.967 . S
O501 C509 1.258 . S
O502 Co477 1.941 1_556 S
O502 C509 1.266 1_556 S
H503 C505 0.959 . S
H504 C505 0.961 . S
C505 C495 1.510 . S
C505 H503 0.959 . S
C505 H504 0.961 . S
C505 H506 0.960 . S
H506 C505 0.960 . S
H507 N487 0.862 . S
O508 Co476 1.920 . S
O508 C481 1.289 . S
C509 O501 1.258 . S
C509 O502 1.266 1_554 S
Co510 O513 1.970 . S
Co510 N527 1.989 . S
Co510 O535 1.967 . S
Co510 O542 1.920 . S
Co511 O514 1.966 . S
Co511 N520 2.022 1_554 S
Co511 N528 1.993 . S
Co511 O536 1.941 1_554 S
C512 O513 1.258 . S
C512 O514 1.263 . S
O513 Co510 1.970 . S
O513 C512 1.258 . S
O514 Co511 1.966 . S
O514 C512 1.263 . S
C515 O516 1.235 . S
C515 O542 1.289 . S
O516 C515 1.235 . S
C517 C519 1.400 . S
C517 N520 1.351 . S
C517 C522 1.501 . S
C518 C519 1.387 . S
C518 N521 1.341 . S
C519 C517 1.400 . S
C519 C518 1.387 . S
N520 Co511 2.022 1_556 S
N520 C517 1.351 . S
N520 N521 1.365 . S
N521 C518 1.341 . S
N521 N520 1.365 . S
N521 H541 0.862 . S
C522 C517 1.501 . S
C522 H523 0.961 . S
C522 H524 0.961 1_556 S
C522 H525 0.960 . S
H523 C522 0.961 . S
H524 C522 0.961 1_554 S
H525 C522 0.960 . S
C526 N527 1.342 . S
C526 C530 1.401 . S
C526 C531 1.499 . S
N527 Co510 1.989 . S
N527 C526 1.342 . S
N527 N528 1.388 . S
N528 Co511 1.993 . S
N528 N527 1.388 . S
N528 C529 1.346 . S
C529 N528 1.346 . S
C529 C530 1.396 . S
C529 C539 1.510 . S
C530 C526 1.401 . S
C530 C529 1.396 . S
C531 C526 1.499 . S
C531 H532 0.959 . S
C531 H533 0.960 . S
C531 H534 0.961 . S
H532 C531 0.959 . S
H533 C531 0.960 . S
H534 C531 0.961 . S
O535 Co510 1.967 . S
O535 C543 1.258 . S
O536 Co511 1.941 1_556 S
O536 C543 1.266 1_556 S
H537 C539 0.959 . S
H538 C539 0.961 . S
C539 C529 1.510 . S
C539 H537 0.959 . S
C539 H538 0.961 . S
C539 H540 0.960 . S
H540 C539 0.960 . S
H541 N521 0.862 . S
O542 Co510 1.920 . S
O542 C515 1.289 . S
C543 O535 1.258 . S
C543 O536 1.266 1_554 S
C544 C545 1.369 . S
C544 C546 1.419 . S
C544 H548 0.930 . S
C545 C544 1.369 . S
C545 C554 1.429 1_455 S
C546 C544 1.419 . S
C546 C547 1.363 . S
C546 H549 0.929 . S
C547 C546 1.363 . S
C547 C553 1.428 1_455 S
H548 C544 0.930 . S
H549 C546 0.929 . S
S550 N551 1.613 . S
S550 N552 1.610 . S
N551 S550 1.613 . S
N551 C554 1.350 . S
N552 S550 1.610 . S
N552 C553 1.351 . S
C553 C547 1.428 1_655 S
C553 N552 1.351 . S
C553 C554 1.434 . S
C554 C545 1.429 1_655 S
C554 N551 1.350 . S
C554 C553 1.434 . S
C555 C556 1.373 . S
C555 C557 1.423 . S
C555 H559 0.922 1_545 S
C556 C555 1.373 . S
C556 C565 1.429 . S
C557 C555 1.423 . S
C557 C558 1.363 . S
C557 H560 0.929 . S
C558 C557 1.363 . S
C558 C564 1.428 . S
H559 C555 0.922 1_565 S
H560 C557 0.929 . S
S561 N562 1.613 . S
S561 N563 1.610 . S
N562 S561 1.613 . S
N562 C565 1.350 . S
N563 S561 1.610 . S
N563 C564 1.351 . S
C564 C558 1.428 . S
C564 N563 1.351 . S
C564 C565 1.434 . S
C565 C556 1.429 . S
C565 N562 1.350 . S
C565 C564 1.434 . S
C566 C567 1.369 . S
C566 C568 1.419 . S
C566 H570 0.930 . S
C567 C566 1.369 . S
C567 C576 1.429 . S
C568 C566 1.419 . S
C568 C569 1.363 . S
C568 H571 0.929 . S
C569 C568 1.363 . S
C569 C575 1.428 . S
H570 C566 0.930 . S
H571 C568 0.929 . S
S572 N573 1.613 . S
S572 N574 1.610 . S
N573 S572 1.613 . S
N573 C576 1.350 . S
N574 S572 1.610 . S
N574 C575 1.351 . S
C575 C569 1.428 . S
C575 N574 1.351 . S
C575 C576 1.434 . S
C576 C567 1.429 . S
C576 N573 1.350 . S
C576 C575 1.434 . S
C577 C578 1.369 1_655 S
C577 C579 1.419 1_655 S
C577 H581 0.930 . S
C578 C577 1.369 1_455 S
C578 C587 1.429 . S
C579 C577 1.419 1_455 S
C579 C580 1.363 . S
C579 H582 0.929 1_455 S
C580 C579 1.363 . S
C580 C586 1.428 . S
H581 C577 0.930 . S
H582 C579 0.929 1_655 S
S583 N584 1.613 . S
S583 N585 1.610 . S
N584 S583 1.613 . S
N584 C587 1.350 . S
N585 S583 1.610 . S
N585 C586 1.351 . S
C586 C580 1.428 . S
C586 N585 1.351 . S
C586 C587 1.434 . S
C587 C578 1.429 . S
C587 N584 1.350 . S
C587 C586 1.434 . S
C588 C589 1.369 . S
C588 C590 1.419 . S
C588 H592 0.930 . S
C589 C588 1.369 . S
C589 C598 1.429 1_655 S
C590 C588 1.419 . S
C590 C591 1.363 . S
C590 H593 0.929 . S
C591 C590 1.363 . S
C591 C597 1.428 1_565 S
H592 C588 0.930 . S
H593 C590 0.929 . S
S594 N595 1.613 . S
S594 N596 1.610 . S
N595 S594 1.613 . S
N595 C598 1.350 1_545 S
N596 S594 1.610 . S
N596 C597 1.351 1_455 S
C597 C591 1.428 1_545 S
C597 N596 1.351 1_655 S
C597 C598 1.434 1_645 S
C598 C589 1.429 1_455 S
C598 N595 1.350 1_565 S
C598 C597 1.434 1_465 S
C599 C600 1.369 1_545 S
C599 C601 1.419 1_545 S
C599 H603 0.930 . S
C600 C599 1.369 1_565 S
C600 C609 1.429 . S
C601 C599 1.419 1_565 S
C601 C602 1.363 . S
C601 H604 0.929 1_565 S
C602 C601 1.363 . S
C602 C608 1.428 . S
H603 C599 0.930 . S
H604 C601 0.929 1_545 S
S605 N606 1.613 . S
S605 N607 1.610 . S
N606 S605 1.613 . S
N606 C609 1.350 . S
N607 S605 1.610 . S
N607 C608 1.351 . S
C608 C602 1.428 . S
C608 N607 1.351 . S
C608 C609 1.434 . S
C609 C600 1.429 . S
C609 N606 1.350 . S
C609 C608 1.434 . S
C610 C611 1.369 . S
C610 C612 1.419 . S
C610 H614 0.930 . S
C611 C610 1.369 . S
C611 C620 1.429 . S
C612 C610 1.419 . S
C612 C613 1.363 . S
C612 H615 0.929 . S
C613 C612 1.363 . S
C613 C619 1.428 . S
H614 C610 0.930 . S
H615 C612 0.929 . S
S616 N617 1.613 . S
S616 N618 1.610 . S
N617 S616 1.613 . S
N617 C620 1.350 . S
N618 S616 1.610 . S
N618 C619 1.351 . S
C619 C613 1.428 . S
C619 N618 1.351 . S
C619 C620 1.434 . S
C620 C611 1.429 . S
C620 N617 1.350 . S
C620 C619 1.434 . S
C621 C622 1.369 1_455 S
C621 C623 1.419 . S
C621 H625 0.930 . S
C622 C621 1.369 1_655 S
C622 C631 1.429 . S
C623 C621 1.419 . S
C623 C624 1.363 1_455 S
C623 H626 0.929 . S
C624 C623 1.363 1_655 S
C624 C630 1.428 . S
H625 C621 0.930 . S
H626 C623 0.929 . S
S627 N628 1.613 . S
S627 N629 1.610 . S
N628 S627 1.613 . S
N628 C631 1.350 . S
N629 S627 1.610 . S
N629 C630 1.351 . S
C630 C624 1.428 . S
C630 N629 1.351 . S
C630 C631 1.434 . S
C631 C622 1.429 . S
C631 N628 1.350 . S
C631 C630 1.434 . S
C632 C633 1.369 . S
C632 C634 1.419 1_565 S
C632 H636 0.930 . S
C633 C632 1.369 . S
C633 C642 1.429 1_455 S
C634 C632 1.419 1_545 S
C634 C635 1.363 1_455 S
C634 H637 0.929 . S
C635 C634 1.363 1_655 S
C635 C641 1.427 1_545 S
H636 C632 0.930 . S
H637 C634 0.929 . S
S638 N639 1.613 . S
S638 N640 1.610 . S
N639 S638 1.613 . S
N639 C642 1.350 . S
N640 S638 1.610 . S
N640 C641 1.351 . S
C641 C635 1.427 1_565 S
C641 N640 1.351 . S
C641 C642 1.436 . S
C642 C633 1.429 1_655 S
C642 N639 1.350 . S
C642 C641 1.436 . S
C643 C644 1.369 . S
C643 C645 1.419 . S
C643 H647 0.930 . S
C644 C643 1.369 . S
C644 C653 1.429 1_545 S
C645 C643 1.419 . S
C645 C646 1.363 1_545 S
C645 H648 0.929 . S
C646 C645 1.363 1_565 S
C646 C652 1.428 . S
H647 C643 0.930 . S
H648 C645 0.929 . S
S649 N650 1.613 . S
S649 N651 1.610 . S
N650 S649 1.613 . S
N650 C653 1.350 . S
N651 S649 1.610 . S
N651 C652 1.351 . S
C652 C646 1.428 . S
C652 N651 1.351 . S
C652 C653 1.434 . S
C653 C644 1.429 1_565 S
C653 N650 1.350 . S
C653 C652 1.434 . S
C654 C655 1.369 . S
C654 C656 1.419 . S
C654 H658 0.930 . S
C655 C654 1.369 . S
C655 C664 1.429 . S
C656 C654 1.419 . S
C656 C657 1.363 . S
C656 H659 0.929 . S
C657 C656 1.363 . S
C657 C663 1.428 . S
H658 C654 0.930 . S
H659 C656 0.929 . S
S660 N661 1.613 . S
S660 N662 1.610 . S
N661 S660 1.613 . S
N661 C664 1.350 . S
N662 S660 1.610 . S
N662 C663 1.351 . S
C663 C657 1.428 . S
C663 N662 1.351 . S
C663 C664 1.434 . S
C664 C655 1.429 . S
C664 N661 1.350 . S
C664 C663 1.434 . S
C665 C666 1.369 . S
C665 C667 1.419 . S
C665 H669 0.930 . S
C666 C665 1.369 . S
C666 C675 1.429 1_655 S
C667 C665 1.419 . S
C667 C668 1.363 1_655 S
C667 H670 0.929 . S
C668 C667 1.363 1_455 S
C668 C674 1.428 . S
H669 C665 0.930 . S
H670 C667 0.929 . S
S671 N672 1.613 . S
S671 N673 1.610 . S
N672 S671 1.613 . S
N672 C675 1.350 . S
N673 S671 1.610 . S
N673 C674 1.351 . S
C674 C668 1.428 . S
C674 N673 1.351 . S
C674 C675 1.434 . S
C675 C666 1.429 1_455 S
C675 N672 1.350 . S
C675 C674 1.434 . S
C676 C677 1.372 1_556 S
C676 C678 1.411 1_655 S
C676 H680 0.929 1_655 S
C677 C676 1.372 1_554 S
C677 C686 1.434 . S
C678 C676 1.411 1_455 S
C678 C679 1.360 1_556 S
C678 H681 0.929 . S
C679 C678 1.360 1_554 S
C679 C685 1.413 1_455 S
H680 C676 0.929 1_455 S
H681 C678 0.929 . S
S682 N683 1.613 . S
S682 N684 1.610 . S
N683 S682 1.613 . S
N683 C686 1.350 . S
N684 S682 1.610 . S
N684 C685 1.355 . S
C685 C679 1.413 1_655 S
C685 N684 1.355 . S
C685 C686 1.452 . S
C686 C677 1.434 . S
C686 N683 1.350 . S
C686 C685 1.452 . S
C687 C688 1.357 1_545 S
C687 C689 1.430 1_455 S
C687 H691 0.931 . S
C688 C687 1.357 1_565 S
C688 C697 1.429 1_554 S
C689 C687 1.430 1_655 S
C689 C690 1.363 1_554 S
C689 H692 0.929 . S
C690 C689 1.363 1_556 S
C690 C696 1.428 1_545 S
H691 C687 0.931 . S
H692 C689 0.929 . S
S693 N694 1.613 1_655 S
S693 N695 1.610 . S
N694 S693 1.613 1_455 S
N694 C697 1.350 . S
N695 S693 1.610 . S
N695 C696 1.351 . S
C696 C690 1.428 1_565 S
C696 N695 1.351 . S
C696 C697 1.434 1_655 S
C697 C688 1.429 1_556 S
C697 N694 1.350 . S
C697 C696 1.434 1_455 S
C698 C699 1.369 1_556 S
C698 C700 1.419 1_545 S
C698 H702 0.930 . S
C699 C698 1.369 1_554 S
C699 C708 1.429 . S
C700 C698 1.419 1_565 S
C700 C701 1.363 . S
C700 H703 0.929 . S
C701 C700 1.363 . S
C701 C707 1.428 1_556 S
H702 C698 0.930 . S
H703 C700 0.929 . S
S704 N705 1.617 . S
S704 N706 1.610 . S
N705 S704 1.617 . S
N705 C708 1.350 1_565 S
N706 S704 1.610 . S
N706 C707 1.351 . S
C707 C701 1.428 1_554 S
C707 N706 1.351 . S
C707 C708 1.434 1_565 S
C708 C699 1.429 . S
C708 N705 1.350 1_545 S
C708 C707 1.434 1_545 S
C709 C710 1.369 1_556 S
C709 C711 1.419 . S
C709 H713 0.930 . S
C710 C709 1.369 1_554 S
C710 C719 1.429 . S
C711 C709 1.419 . S
C711 C712 1.363 . S
C711 H714 0.929 . S
C712 C711 1.363 . S
C712 C718 1.428 1_556 S
H713 C709 0.930 . S
H714 C711 0.929 . S
S715 N716 1.613 . S
S715 N717 1.610 . S
N716 S715 1.613 . S
N716 C719 1.350 . S
N717 S715 1.610 . S
N717 C718 1.351 . S
C718 C712 1.428 1_554 S
C718 N717 1.351 . S
C718 C719 1.434 . S
C719 C710 1.429 . S
C719 N716 1.350 . S
C719 C718 1.434 . S
C720 C721 1.369 . S
C720 C722 1.419 . S
C720 H724 0.930 . S
C721 C720 1.369 . S
C721 C730 1.429 . S
C722 C720 1.419 . S
C722 C723 1.363 . S
C722 H725 0.929 . S
C723 C722 1.363 . S
C723 C729 1.428 . S
H724 C720 0.930 . S
H725 C722 0.929 . S
S726 N727 1.613 . S
S726 N728 1.610 . S
N727 S726 1.613 . S
N727 C730 1.350 . S
N728 S726 1.610 . S
N728 C729 1.351 . S
C729 C723 1.428 . S
C729 N728 1.351 . S
C729 C730 1.434 . S
C730 C721 1.429 . S
C730 N727 1.350 . S
C730 C729 1.434 . S
C731 C732 1.369 . S
C731 C733 1.419 . S
C731 H735 0.930 . S
C732 C731 1.369 . S
C732 C741 1.429 . S
C733 C731 1.419 . S
C733 C734 1.363 . S
C733 H736 0.929 . S
C734 C733 1.363 . S
C734 C740 1.428 . S
H735 C731 0.930 . S
H736 C733 0.929 . S
S737 N738 1.613 . S
S737 N739 1.610 . S
N738 S737 1.613 . S
N738 C741 1.350 . S
N739 S737 1.610 . S
N739 C740 1.351 . S
C740 C734 1.428 . S
C740 N739 1.351 . S
C740 C741 1.434 . S
C741 C732 1.429 . S
C741 N738 1.350 . S
C741 C740 1.434 . S
C742 C743 1.369 . S
C742 C744 1.419 . S
C742 H746 0.930 . S
C743 C742 1.369 . S
C743 C752 1.429 . S
C744 C742 1.419 . S
C744 C745 1.363 . S
C744 H747 0.929 . S
C745 C744 1.363 . S
C745 C751 1.428 . S
H746 C742 0.930 . S
H747 C744 0.929 . S
S748 N749 1.613 . S
S748 N750 1.610 . S
N749 S748 1.613 . S
N749 C752 1.350 . S
N750 S748 1.610 . S
N750 C751 1.351 . S
C751 C745 1.428 . S
C751 N750 1.351 . S
C751 C752 1.434 . S
C752 C743 1.429 . S
C752 N749 1.350 . S
C752 C751 1.434 . S
C753 C754 1.369 . S
C753 C755 1.419 . S
C753 H757 0.930 . S
C754 C753 1.369 . S
C754 C763 1.429 . S
C755 C753 1.419 . S
C755 C756 1.363 . S
C755 H758 0.929 . S
C756 C755 1.363 . S
C756 C762 1.428 . S
H757 C753 0.930 . S
H758 C755 0.929 . S
S759 N760 1.613 . S
S759 N761 1.610 . S
N760 S759 1.613 . S
N760 C763 1.350 . S
N761 S759 1.610 . S
N761 C762 1.351 . S
C762 C756 1.428 . S
C762 N761 1.351 . S
C762 C763 1.434 . S
C763 C754 1.429 . S
C763 N760 1.350 . S
C763 C762 1.434 . S
C764 C765 1.369 . S
C764 C766 1.419 . S
C764 H768 0.930 . S
C765 C764 1.369 . S
C765 C774 1.429 . S
C766 C764 1.419 . S
C766 C767 1.363 . S
C766 H769 0.929 . S
C767 C766 1.363 . S
C767 C773 1.428 . S
H768 C764 0.930 . S
H769 C766 0.929 . S
S770 N771 1.613 . S
S770 N772 1.610 . S
N771 S770 1.613 . S
N771 C774 1.350 . S
N772 S770 1.610 . S
N772 C773 1.351 . S
C773 C767 1.428 . S
C773 N772 1.351 . S
C773 C774 1.434 . S
C774 C765 1.429 . S
C774 N771 1.350 . S
C774 C773 1.434 . S
C775 C776 1.369 . S
C775 C777 1.419 . S
C775 H779 0.930 . S
C776 C775 1.369 . S
C776 C785 1.429 . S
C777 C775 1.419 . S
C777 C778 1.363 . S
C777 H780 0.929 . S
C778 C777 1.363 . S
C778 C784 1.428 . S
H779 C775 0.930 . S
H780 C777 0.929 . S
S781 N782 1.613 . S
S781 N783 1.610 . S
N782 S781 1.613 . S
N782 C785 1.350 . S
N783 S781 1.610 . S
N783 C784 1.351 . S
C784 C778 1.428 . S
C784 N783 1.351 . S
C784 C785 1.434 . S
C785 C776 1.429 . S
C785 N782 1.350 . S
C785 C784 1.434 . S
C786 C787 1.369 . S
C786 C788 1.419 . S
C786 H790 0.930 . S
C787 C786 1.369 . S
C787 C796 1.429 . S
C788 C786 1.419 . S
C788 C789 1.363 . S
C788 H791 0.929 . S
C789 C788 1.363 . S
C789 C795 1.428 . S
H790 C786 0.930 . S
H791 C788 0.929 . S
S792 N793 1.613 . S
S792 N794 1.610 . S
N793 S792 1.613 . S
N793 C796 1.350 . S
N794 S792 1.610 . S
N794 C795 1.351 . S
C795 C789 1.428 . S
C795 N794 1.351 . S
C795 C796 1.434 . S
C796 C787 1.429 . S
C796 N793 1.350 . S
C796 C795 1.434 . S
C797 C798 1.369 . S
C797 C799 1.419 . S
C797 H801 0.930 . S
C798 C797 1.369 . S
C798 C807 1.429 . S
C799 C797 1.419 . S
C799 C800 1.363 . S
C799 H802 0.929 . S
C800 C799 1.363 . S
C800 C806 1.428 . S
H801 C797 0.930 . S
H802 C799 0.929 . S
S803 N804 1.613 . S
S803 N805 1.610 . S
N804 S803 1.613 . S
N804 C807 1.350 . S
N805 S803 1.610 . S
N805 C806 1.351 . S
C806 C800 1.428 . S
C806 N805 1.351 . S
C806 C807 1.434 . S
C807 C798 1.429 . S
C807 N804 1.350 . S
C807 C806 1.434 . S
C808 C809 1.369 . S
C808 C810 1.419 . S
C808 H812 0.930 . S
C809 C808 1.369 . S
C809 C818 1.429 . S
C810 C808 1.419 . S
C810 C811 1.363 . S
C810 H813 0.929 . S
C811 C810 1.363 . S
C811 C817 1.428 . S
H812 C808 0.930 . S
H813 C810 0.929 . S
S814 N815 1.613 . S
S814 N816 1.610 1_565 S
N815 S814 1.613 . S
N815 C818 1.350 1_565 S
N816 S814 1.610 1_545 S
N816 C817 1.351 . S
C817 C811 1.428 . S
C817 N816 1.351 . S
C817 C818 1.434 . S
C818 C809 1.429 . S
C818 N815 1.350 1_545 S
C818 C817 1.434 . S
C819 C820 1.369 . S
C819 C821 1.419 . S
C819 H823 0.930 . S
C820 C819 1.369 . S
C820 C829 1.429 . S
C821 C819 1.419 . S
C821 C822 1.363 . S
C821 H824 0.929 . S
C822 C821 1.363 . S
C822 C828 1.428 . S
H823 C819 0.930 . S
H824 C821 0.929 . S
S825 N826 1.613 . S
S825 N827 1.610 . S
N826 S825 1.613 . S
N826 C829 1.350 . S
N827 S825 1.610 . S
N827 C828 1.351 . S
C828 C822 1.428 . S
C828 N827 1.351 . S
C828 C829 1.434 . S
C829 C820 1.429 . S
C829 N826 1.350 . S
C829 C828 1.434 . S
C830 C831 1.369 . S
C830 C832 1.419 . S
C830 H834 0.930 . S
C831 C830 1.369 . S
C831 C840 1.429 . S
C832 C830 1.419 . S
C832 C833 1.363 . S
C832 H835 0.929 . S
C833 C832 1.363 . S
C833 C839 1.428 . S
H834 C830 0.930 . S
H835 C832 0.929 . S
S836 N837 1.613 . S
S836 N838 1.610 . S
N837 S836 1.613 . S
N837 C840 1.350 . S
N838 S836 1.610 . S
N838 C839 1.351 . S
C839 C833 1.428 . S
C839 N838 1.351 . S
C839 C840 1.434 . S
C840 C831 1.429 . S
C840 N837 1.350 . S
C840 C839 1.434 . S
C841 C842 1.369 . S
C841 C843 1.419 . S
C841 H845 0.930 . S
C842 C841 1.369 . S
C842 C851 1.429 . S
C843 C841 1.419 . S
C843 C844 1.363 . S
C843 H846 0.929 . S
C844 C843 1.363 . S
C844 C850 1.428 . S
H845 C841 0.930 . S
H846 C843 0.929 . S
S847 N848 1.613 1_655 S
S847 N849 1.610 . S
N848 S847 1.613 1_455 S
N848 C851 1.350 . S
N849 S847 1.610 . S
N849 C850 1.351 1_655 S
C850 C844 1.428 . S
C850 N849 1.351 1_455 S
C850 C851 1.434 . S
C851 C842 1.429 . S
C851 N848 1.350 . S
C851 C850 1.434 . S
C852 C853 1.369 . S
C852 C854 1.419 1_554 S
C852 H856 0.930 . S
C853 C852 1.369 . S
C853 C862 1.429 . S
C854 C852 1.419 1_556 S
C854 C855 1.363 . S
C854 H857 0.929 . S
C855 C854 1.363 . S
C855 C861 1.428 . S
H856 C852 0.930 . S
H857 C854 0.929 . S
S858 N859 1.613 1_556 S
S858 N860 1.610 . S
N859 S858 1.613 1_554 S
N859 C862 1.350 . S
N860 S858 1.610 . S
N860 C861 1.351 . S
C861 C855 1.428 . S
C861 N860 1.351 . S
C861 C862 1.434 1_556 S
C862 C853 1.429 . S
C862 N859 1.350 . S
C862 C861 1.434 1_554 S
C863 C864 1.369 1_554 S
C863 C865 1.419 . S
C863 H867 0.930 . S
C864 C863 1.369 1_556 S
C864 C873 1.429 . S
C865 C863 1.419 . S
C865 C866 1.363 . S
C865 H868 0.929 . S
C866 C865 1.363 . S
C866 C872 1.442 . S
H867 C863 0.930 . S
H868 C865 0.929 . S
S869 N870 1.613 . S
S869 N871 1.610 . S
N870 S869 1.613 . S
N870 C873 1.350 . S
N871 S869 1.610 . S
N871 C872 1.347 1_556 S
C872 C866 1.442 . S
C872 N871 1.347 1_554 S
C872 C873 1.424 1_554 S
C873 C864 1.429 . S
C873 N870 1.350 . S
C873 C872 1.424 1_556 S
C874 C875 1.369 . S
C874 C876 1.419 1_556 S
C874 H878 0.930 . S
C875 C874 1.369 . S
C875 C884 1.429 1_556 S
C876 C874 1.419 1_554 S
C876 C877 1.363 . S
C876 H879 0.929 1_554 S
C877 C876 1.363 . S
C877 C883 1.428 . S
H878 C874 0.930 . S
H879 C876 0.929 1_556 S
S880 N881 1.613 . S
S880 N882 1.610 . S
N881 S880 1.613 . S
N881 C884 1.350 . S
N882 S880 1.610 . S
N882 C883 1.351 . S
C883 C877 1.428 . S
C883 N882 1.351 . S
C883 C884 1.434 . S
C884 C875 1.429 1_554 S
C884 N881 1.350 . S
C884 C883 1.434 . S
C885 C886 1.369 . S
C885 C887 1.419 . S
C885 H889 0.930 . S
C886 C885 1.369 . S
C886 C895 1.429 1_556 S
C887 C885 1.419 . S
C887 C888 1.363 1_556 S
C887 H890 0.929 . S
C888 C887 1.363 1_554 S
C888 C894 1.428 . S
H889 C885 0.930 . S
H890 C887 0.929 . S
S891 N892 1.613 . S
S891 N893 1.610 . S
N892 S891 1.613 . S
N892 C895 1.350 . S
N893 S891 1.610 . S
N893 C894 1.351 . S
C894 C888 1.428 . S
C894 N893 1.351 . S
C894 C895 1.434 . S
C895 C886 1.429 1_554 S
C895 N892 1.350 . S
C895 C894 1.434 . S
C896 C897 1.369 . S
C896 C898 1.419 . S
C896 H900 0.930 . S
C897 C896 1.369 . S
C897 C906 1.429 . S
C898 C896 1.419 . S
C898 C899 1.363 . S
C898 H901 0.929 . S
C899 C898 1.363 . S
C899 C905 1.428 . S
H900 C896 0.930 . S
H901 C898 0.929 . S
S902 N903 1.613 . S
S902 N904 1.610 . S
N903 S902 1.613 . S
N903 C906 1.350 . S
N904 S902 1.610 . S
N904 C905 1.351 . S
C905 C899 1.428 . S
C905 N904 1.351 . S
C905 C906 1.434 . S
C906 C897 1.429 . S
C906 N903 1.350 . S
C906 C905 1.434 . S
C907 C908 1.369 . S
C907 C909 1.419 . S
C907 H911 0.930 . S
C908 C907 1.369 . S
C908 C917 1.429 . S
C909 C907 1.419 . S
C909 C910 1.363 . S
C909 H912 0.929 . S
C910 C909 1.363 . S
C910 C916 1.428 . S
H911 C907 0.930 . S
H912 C909 0.929 . S
S913 N914 1.613 . S
S913 N915 1.610 . S
N914 S913 1.613 . S
N914 C917 1.350 . S
N915 S913 1.610 . S
N915 C916 1.351 . S
C916 C910 1.428 . S
C916 N915 1.351 . S
C916 C917 1.434 . S
C917 C908 1.429 . S
C917 N914 1.350 . S
C917 C916 1.434 . S
C918 C919 1.369 . S
C918 C920 1.419 . S
C918 H922 0.930 . S
C919 C918 1.369 . S
C919 C928 1.429 . S
C920 C918 1.419 . S
C920 C921 1.363 . S
C920 H923 0.929 . S
C921 C920 1.363 . S
C921 C927 1.428 . S
H922 C918 0.930 . S
H923 C920 0.929 . S
S924 N925 1.613 . S
S924 N926 1.610 . S
N925 S924 1.613 . S
N925 C928 1.350 . S
N926 S924 1.610 . S
N926 C927 1.351 . S
C927 C921 1.428 . S
C927 N926 1.351 . S
C927 C928 1.434 . S
C928 C919 1.429 . S
C928 N925 1.350 . S
C928 C927 1.434 . S
C929 C930 1.369 . S
C929 C931 1.419 . S
C929 H933 0.930 . S
C930 C929 1.369 . S
C930 C939 1.429 . S
C931 C929 1.419 . S
C931 C932 1.363 . S
C931 H934 0.929 . S
C932 C931 1.363 . S
C932 C938 1.428 . S
H933 C929 0.930 . S
H934 C931 0.929 . S
S935 N936 1.613 1_455 S
S935 N937 1.610 . S
N936 S935 1.613 1_655 S
N936 C939 1.350 . S
N937 S935 1.610 . S
N937 C938 1.351 1_455 S
C938 C932 1.428 . S
C938 N937 1.351 1_655 S
C938 C939 1.434 . S
C939 C930 1.429 . S
C939 N936 1.350 . S
C939 C938 1.434 . S
C940 C941 1.369 . S
C940 C942 1.419 . S
C940 H944 0.930 . S
C941 C940 1.369 . S
C941 C950 1.429 1_554 S
C942 C940 1.419 . S
C942 C943 1.363 1_554 S
C942 H945 0.929 . S
C943 C942 1.363 1_556 S
C943 C949 1.428 . S
H944 C940 0.930 . S
H945 C942 0.929 . S
S946 N947 1.613 . S
S946 N948 1.610 . S
N947 S946 1.613 . S
N947 C950 1.350 . S
N948 S946 1.610 . S
N948 C949 1.351 . S
C949 C943 1.428 . S
C949 N948 1.351 . S
C949 C950 1.434 . S
C950 C941 1.429 1_556 S
C950 N947 1.350 . S
C950 C949 1.434 . S
C951 C952 1.369 1_554 S
C951 C953 1.419 . S
C951 H955 0.930 . S
C952 C951 1.369 1_556 S
C952 C961 1.429 . S
C953 C951 1.419 . S
C953 C954 1.363 . S
C953 H956 0.929 . S
C954 C953 1.363 . S
C954 C960 1.428 1_554 S
H955 C951 0.930 . S
H956 C953 0.929 . S
S957 N958 1.613 . S
S957 N959 1.610 . S
N958 S957 1.613 . S
N958 C961 1.350 . S
N959 S957 1.610 . S
N959 C960 1.351 . S
C960 C954 1.428 1_556 S
C960 N959 1.351 . S
C960 C961 1.434 . S
C961 C952 1.429 . S
C961 N958 1.350 . S
C961 C960 1.434 . S
C962 C963 1.369 . S
C962 C964 1.419 . S
C962 H966 0.930 . S
C963 C962 1.369 . S
C963 C972 1.429 . S
C964 C962 1.419 . S
C964 C965 1.363 1_556 S
C964 H967 0.929 . S
C965 C964 1.363 1_554 S
C965 C971 1.428 . S
H966 C962 0.930 . S
H967 C964 0.929 . S
S968 N969 1.613 1_554 S
S968 N970 1.610 . S
N969 S968 1.613 1_556 S
N969 C972 1.350 . S
N970 S968 1.610 . S
N970 C971 1.351 . S
C971 C965 1.428 . S
C971 N970 1.351 . S
C971 C972 1.434 1_554 S
C972 C963 1.429 . S
C972 N969 1.350 . S
C972 C971 1.434 1_556 S
C973 C974 1.369 . S
C973 C975 1.419 1_554 S
C973 H977 0.930 . S
C974 C973 1.369 . S
C974 C983 1.429 1_554 S
C975 C973 1.419 1_556 S
C975 C976 1.363 . S
C975 H978 0.929 . S
C976 C975 1.363 . S
C976 C982 1.428 . S
H977 C973 0.930 . S
H978 C975 0.929 . S
S979 N980 1.613 . S
S979 N981 1.610 . S
N980 S979 1.613 . S
N980 C983 1.350 . S
N981 S979 1.610 . S
N981 C982 1.351 . S
C982 C976 1.428 . S
C982 N981 1.351 . S
C982 C983 1.434 . S
C983 C974 1.429 1_556 S
C983 N980 1.350 . S
C983 C982 1.434 . S
C545 C5 0.903 . S
C547 C175 0.906 . S
C556 C39 0.911 . S
C558 C209 0.908 . S
C567 C243 0.958 . S
C569 C73 0.954 . S
C578 C141 0.925 . S
C580 C107 0.916 . S
C589 C277 0.913 . S
C591 C447 0.907 . S
C600 C311 0.918 . S
C602 C481 0.912 . S
C611 C345 0.959 . S
C613 C515 0.956 . S
C622 C379 0.915 . S
C624 C413 0.921 . S
C633 C305 1.965 . S
C635 C33 1.971 . S
C644 C339 1.668 . S
C646 C67 1.680 . S
C655 C101 1.947 . S
C657 C373 1.945 . S
C666 C407 2.228 . S
C668 C135 2.218 . S
C677 C169 1.682 1_554 S
C679 C441 1.669 . S
C688 C203 1.967 1_554 S
C690 C475 1.970 1_556 S
C699 C237 2.228 1_554 S
C701 C509 2.218 1_556 S
C710 C271 1.947 1_554 S
C712 C543 1.944 1_556 S
C721 C20 1.828 . S
C723 C156 1.827 . S
C732 C54 1.831 . S
C734 C190 1.828 . S
C743 C224 1.897 . S
C745 C88 1.899 . S
C754 C122 1.901 . S
C756 C258 1.900 . S
C765 C428 1.829 . S
C767 C292 1.822 . S
C776 C462 1.821 . S
C778 C326 1.827 . S
C787 C360 1.895 . S
C789 C496 1.894 . S
C798 C530 1.900 . S
C800 C394 1.898 . S
C809 C43 1.897 . S
C811 C2 1.958 . S
C820 C36 2.055 . S
C822 C77 1.994 . S
C831 C70 2.260 . S
C833 C111 2.180 . S
C842 C104 2.142 . S
C844 C9 2.053 . S
C853 C247 1.992 . S
C855 C138 2.056 . S
C864 C172 1.966 . S
C866 C145 1.889 . S
C875 C206 2.141 . S
C877 C179 2.056 . S
C886 C240 2.260 . S
C888 C213 2.184 . S
C897 C274 1.964 . S
C899 C315 1.886 . S
C908 C308 2.058 . S
C910 C349 1.995 . S
C919 C383 2.185 . S
C921 C342 2.262 . S
C930 C376 2.141 . S
C932 C281 2.057 . S
C941 C410 2.055 . S
C943 C519 1.995 . S
C952 C417 1.898 . S
C954 C444 1.960 . S
C963 C451 2.057 . S
C965 C478 2.143 . S
C974 C512 2.263 . S
C976 C485 2.181 . S
