# Generated by pormake.
# Topology whc, (6)-cn, num edge types: 1
# Building blocks:
#     Node 0, Type 0, BuildingBlock: OJICUG_clean_sbu_0, # of connection points: 6
#     Node 1, Type 0, BuildingBlock: OJICUG_clean_sbu_0, # of connection points: 6
#     Node 2, Type 0, BuildingBlock: OJICUG_clean_sbu_0, # of connection points: 6
#     Node 3, Type 0, BuildingBlock: OJICUG_clean_sbu_0, # of connection points: 6
#     Node 4, Type 0, BuildingBlock: OJICUG_clean_sbu_0, # of connection points: 6
#     Node 5, Type 0, BuildingBlock: OJICUG_clean_sbu_0, # of connection points: 6
#     Node 6, Type 0, BuildingBlock: OJICUG_clean_sbu_0, # of connection points: 6
#     Node 7, Type 0, BuildingBlock: OJICUG_clean_sbu_0, # of connection points: 6
#     Edge 8, Type (0, 0), BuildingBlock: MIFKUJ_clean_linker_0, # of connection points: 2
#     Edge 9, Type (0, 0), BuildingBlock: MIFKUJ_clean_linker_0, # of connection points: 2
#     Edge 10, Type (0, 0), BuildingBlock: MIFKUJ_clean_linker_0, # of connection points: 2
#     Edge 11, Type (0, 0), BuildingBlock: MIFKUJ_clean_linker_0, # of connection points: 2
#     Edge 12, Type (0, 0), BuildingBlock: MIFKUJ_clean_linker_0, # of connection points: 2
#     Edge 13, Type (0, 0), BuildingBlock: MIFKUJ_clean_linker_0, # of connection points: 2
#     Edge 14, Type (0, 0), BuildingBlock: MIFKUJ_clean_linker_0, # of connection points: 2
#     Edge 15, Type (0, 0), BuildingBlock: MIFKUJ_clean_linker_0, # of connection points: 2
#     Edge 16, Type (0, 0), BuildingBlock: MIFKUJ_clean_linker_0, # of connection points: 2
#     Edge 17, Type (0, 0), BuildingBlock: MIFKUJ_clean_linker_0, # of connection points: 2
#     Edge 18, Type (0, 0), BuildingBlock: MIFKUJ_clean_linker_0, # of connection points: 2
#     Edge 19, Type (0, 0), BuildingBlock: MIFKUJ_clean_linker_0, # of connection points: 2
#     Edge 20, Type (0, 0), BuildingBlock: MIFKUJ_clean_linker_0, # of connection points: 2
#     Edge 21, Type (0, 0), BuildingBlock: MIFKUJ_clean_linker_0, # of connection points: 2
#     Edge 22, Type (0, 0), BuildingBlock: MIFKUJ_clean_linker_0, # of connection points: 2
#     Edge 23, Type (0, 0), BuildingBlock: MIFKUJ_clean_linker_0, # of connection points: 2
#     Edge 24, Type (0, 0), BuildingBlock: MIFKUJ_clean_linker_0, # of connection points: 2
#     Edge 25, Type (0, 0), BuildingBlock: MIFKUJ_clean_linker_0, # of connection points: 2
#     Edge 26, Type (0, 0), BuildingBlock: MIFKUJ_clean_linker_0, # of connection points: 2
#     Edge 27, Type (0, 0), BuildingBlock: MIFKUJ_clean_linker_0, # of connection points: 2
#     Edge 28, Type (0, 0), BuildingBlock: MIFKUJ_clean_linker_0, # of connection points: 2
#     Edge 29, Type (0, 0), BuildingBlock: MIFKUJ_clean_linker_0, # of connection points: 2
#     Edge 30, Type (0, 0), BuildingBlock: MIFKUJ_clean_linker_0, # of connection points: 2
#     Edge 31, Type (0, 0), BuildingBlock: MIFKUJ_clean_linker_0, # of connection points: 2
# Relax obj value: 0.339
# Max RMSD: 0.283
# Mean RMSD: 0.283
data_MOF--net-whc--node1-OJICUG_clean_sbu_0--edge1-MIFKUJ_clean_linker_0
_symmetry_space_group_name_H-M    P1
_symmetry_Int_Tables_number       1
_symmetry_cell_setting            triclinic
loop_
_symmetry_equiv_pos_as_xyz
'x, y, z'
_cell_length_a     44.631059
_cell_length_b     44.609537
_cell_length_c     39.36555
_cell_angle_alpha  89.929115
_cell_angle_beta   90.039023
_cell_angle_gamma 90.001185
loop_
_atom_site_label
_atom_site_type_symbol
_atom_site_fract_x
_atom_site_fract_y
_atom_site_fract_z
_atom_type_partial_charge
Sc0 Sc 0.46484 0.23713 0.15218 0.0
Sc1 Sc 0.42585 0.18501 0.10299 0.0
Sc2 Sc 0.50168 0.17494 0.11869 0.0
O3 O 0.4642 0.19938 0.12452 0.0
C4 C 0.52748 0.24175 0.11591 0.0
C5 C 0.4251 0.25366 0.0864 0.0
C6 C 0.4746 0.17066 0.0465 0.0
C7 C 0.40147 0.21226 0.17195 0.0
C8 C 0.50338 0.19094 0.19643 0.0
C9 C 0.4516 0.12601 0.13178 0.0
O10 O 0.50352 0.25406 0.12618 0.0
O11 O 0.42093 0.22677 0.07657 0.0
O12 O 0.49716 0.17727 0.06465 0.0
O13 O 0.4262 0.22375 0.18102 0.0
O14 O 0.50702 0.17196 0.17271 0.0
O15 O 0.42945 0.14375 0.13057 0.0
O16 O 0.49174 0.21675 0.19187 0.0
O17 O 0.39729 0.20088 0.14287 0.0
O18 O 0.4776 0.13292 0.12111 0.0
O19 O 0.43794 0.26036 0.11442 0.0
O20 O 0.53089 0.21346 0.11522 0.0
O21 O 0.44852 0.16701 0.0589 0.0
Sc22 Sc 0.26176 0.53852 0.85876 0.0
Sc23 Sc 0.19002 0.56035 0.88526 0.0
Sc24 Sc 0.20512 0.48474 0.86636 0.0
O25 O 0.2189 0.52784 0.87023 0.0
C26 C 0.24065 0.49797 0.79699 0.0
C27 C 0.22639 0.59684 0.83241 0.0
C28 C 0.14757 0.51945 0.83963 0.0
C29 C 0.25149 0.57721 0.92378 0.0
C30 C 0.27158 0.474 0.89176 0.0
C31 C 0.17701 0.50656 0.93693 0.0
O32 O 0.25624 0.51939 0.80906 0.0
O33 O 0.20084 0.58983 0.84395 0.0
O34 O 0.16418 0.49658 0.8421 0.0
O35 O 0.2681 0.55909 0.90739 0.0
O36 O 0.24421 0.46679 0.89023 0.0
O37 O 0.17704 0.5341 0.92848 0.0
O38 O 0.28154 0.49818 0.87917 0.0
O39 O 0.22387 0.58136 0.91683 0.0
O40 O 0.18561 0.48573 0.91696 0.0
O41 O 0.24973 0.58128 0.83782 0.0
O42 O 0.22341 0.48172 0.81527 0.0
O43 O 0.15323 0.54391 0.85482 0.0
Sc44 Sc 0.52064 0.76404 0.12198 0.0
Sc45 Sc 0.56653 0.81874 0.08483 0.0
Sc46 Sc 0.48993 0.83304 0.09778 0.0
O47 O 0.52561 0.80508 0.10127 0.0
C48 C 0.45959 0.77006 0.08092 0.0
C49 C 0.56221 0.75268 0.05659 0.0
C50 C 0.52272 0.84777 0.02951 0.0
C51 C 0.5852 0.77981 0.1491 0.0
C52 C 0.48218 0.80544 0.17143 0.0
C53 C 0.54296 0.87465 0.12467 0.0
O54 O 0.4809 0.75482 0.09347 0.0
O55 O 0.57058 0.77982 0.05261 0.0
O56 O 0.49864 0.84222 0.04541 0.0
O57 O 0.55957 0.76826 0.15352 0.0
O58 O 0.47866 0.82654 0.15013 0.0
O59 O 0.5645 0.85707 0.11788 0.0
O60 O 0.49542 0.781 0.16429 0.0
O61 O 0.59144 0.7964 0.12398 0.0
O62 O 0.5162 0.87057 0.11458 0.0
O63 O 0.5459 0.74396 0.08129 0.0
O64 O 0.45913 0.79854 0.08147 0.0
O65 O 0.54849 0.8433 0.04228 0.0
Sc66 Sc 0.74233 0.46184 0.86152 0.0
Sc67 Sc 0.80462 0.42798 0.9008 0.0
Sc68 Sc 0.8012 0.50633 0.89213 0.0
O69 O 0.78253 0.46533 0.88499 0.0
C70 C 0.77856 0.50885 0.81573 0.0
C71 C 0.7764 0.40472 0.83178 0.0
C72 C 0.85801 0.4667 0.87265 0.0
C73 C 0.737 0.41427 0.92195 0.0
C74 C 0.73201 0.52235 0.90176 0.0
C75 C 0.81424 0.47434 0.96204 0.0
O76 O 0.75678 0.49095 0.82098 0.0
O77 O 0.79501 0.40251 0.85597 0.0
O78 O 0.84566 0.49118 0.88111 0.0
O79 O 0.72545 0.43195 0.90011 0.0
O80 O 0.75971 0.52844 0.90343 0.0
O81 O 0.81702 0.4487 0.94825 0.0
O82 O 0.7222 0.49819 0.88903 0.0
O83 O 0.76514 0.41063 0.92545 0.0
O84 O 0.80647 0.49772 0.94566 0.0
O85 O 0.75658 0.42507 0.8305 0.0
O86 O 0.79702 0.51652 0.83884 0.0
O87 O 0.84538 0.44145 0.87626 0.0
Sc88 Sc 0.49399 0.17262 0.6199 0.0
Sc89 Sc 0.57188 0.17489 0.60281 0.0
Sc90 Sc 0.53416 0.23939 0.63156 0.0
O91 O 0.53336 0.19565 0.61798 0.0
C92 C 0.47108 0.23575 0.59338 0.0
C93 C 0.52333 0.14899 0.55099 0.0
C94 C 0.57686 0.23905 0.56719 0.0
C95 C 0.54127 0.12526 0.64862 0.0
C96 C 0.49253 0.21052 0.68845 0.0
C97 C 0.59672 0.21624 0.66158 0.0
O98 O 0.46797 0.20763 0.59668 0.0
O99 O 0.54997 0.15475 0.56024 0.0
O100 O 0.55823 0.25186 0.58677 0.0
O101 O 0.515 0.13549 0.64465 0.0
O102 O 0.51058 0.2305 0.67791 0.0
O103 O 0.59838 0.19302 0.64316 0.0
O104 O 0.4838 0.18875 0.67011 0.0
O105 O 0.56425 0.1362 0.63432 0.0
O106 O 0.57513 0.23474 0.65984 0.0
O107 O 0.50062 0.15422 0.56963 0.0
O108 O 0.49359 0.24996 0.60473 0.0
O109 O 0.58446 0.21169 0.5702 0.0
Sc110 Sc 0.20694 0.50609 0.36529 0.0
Sc111 Sc 0.19385 0.43334 0.3959 0.0
Sc112 Sc 0.25998 0.4499 0.35043 0.0
O113 O 0.2204 0.46303 0.37058 0.0
C114 C 0.23125 0.48994 0.29131 0.0
C115 C 0.14726 0.46881 0.35167 0.0
C116 C 0.22124 0.39106 0.33907 0.0
C117 C 0.1869 0.49242 0.4409 0.0
C118 C 0.2771 0.51549 0.37524 0.0
C119 C 0.25888 0.4188 0.424 0.0
O120 O 0.21417 0.50468 0.31111 0.0
O121 O 0.15579 0.44401 0.36434 0.0
O122 O 0.24161 0.40921 0.32998 0.0
O123 O 0.19875 0.5102 0.41941 0.0
O124 O 0.28428 0.4886 0.36862 0.0
O125 O 0.2306 0.4203 0.42826 0.0
O126 O 0.2503 0.5248 0.37416 0.0
O127 O 0.1808 0.46533 0.43387 0.0
O128 O 0.27209 0.42766 0.39707 0.0
O129 O 0.16202 0.49299 0.35431 0.0
O130 O 0.25003 0.47058 0.30202 0.0
O131 O 0.20333 0.3962 0.36327 0.0
Sc132 Sc 0.49199 0.82079 0.60091 0.0
Sc133 Sc 0.41612 0.81203 0.58431 0.0
Sc134 Sc 0.45386 0.75789 0.63203 0.0
O135 O 0.45414 0.79647 0.60566 0.0
C136 C 0.51815 0.75444 0.59801 0.0
C137 C 0.46519 0.83099 0.52968 0.0
C138 C 0.41815 0.74421 0.56274 0.0
C139 C 0.44214 0.86846 0.61857 0.0
C140 C 0.49185 0.80251 0.67872 0.0
C141 C 0.38856 0.77998 0.64914 0.0
O142 O 0.52097 0.78262 0.59489 0.0
O143 O 0.43915 0.83317 0.54245 0.0
O144 O 0.43043 0.73613 0.59066 0.0
O145 O 0.46786 0.8624 0.6065 0.0
O146 O 0.47748 0.7781 0.67418 0.0
O147 O 0.38602 0.79409 0.62142 0.0
O148 O 0.49824 0.82061 0.65479 0.0
O149 O 0.41963 0.85131 0.61541 0.0
O150 O 0.41298 0.76802 0.65846 0.0
O151 O 0.48761 0.82215 0.54679 0.0
O152 O 0.49459 0.74225 0.6095 0.0
O153 O 0.41252 0.77148 0.55505 0.0
Sc154 Sc 0.812 0.49472 0.39273 0.0
Sc155 Sc 0.80736 0.57324 0.40257 0.0
Sc156 Sc 0.74599 0.53245 0.37021 0.0
O157 O 0.78838 0.53351 0.38859 0.0
C158 C 0.78099 0.48858 0.32009 0.0
C159 C 0.86124 0.54083 0.36579 0.0
C160 C 0.77053 0.59328 0.33761 0.0
C161 C 0.8289 0.52845 0.46122 0.0
C162 C 0.74692 0.47176 0.41283 0.0
C163 C 0.74075 0.57892 0.43138 0.0
O164 O 0.80192 0.4822 0.34088 0.0
O165 O 0.84776 0.56474 0.37423 0.0
O166 O 0.75296 0.57091 0.33832 0.0
O167 O 0.82401 0.50434 0.44483 0.0
O168 O 0.7332 0.49373 0.39945 0.0
O169 O 0.76839 0.58603 0.43156 0.0
O170 O 0.77518 0.46918 0.41203 0.0
O171 O 0.8255 0.55429 0.44819 0.0
O172 O 0.72963 0.55992 0.41087 0.0
O173 O 0.8516 0.51489 0.37311 0.0
O174 O 0.7591 0.50551 0.32773 0.0
O175 O 0.79111 0.59739 0.35929 0.0
H176 H 0.22417 0.34001 0.37548 0.0
H177 H 0.24349 0.29198 0.35499 0.0
H178 H 0.24145 0.3254 0.25219 0.0
H179 H 0.2236 0.37407 0.27277 0.0
H180 H 0.23015 0.25607 0.26705 0.0
H181 H 0.29425 0.345 0.28853 0.0
H182 H 0.31566 0.384 0.32543 0.0
H183 H 0.35196 0.31623 0.39112 0.0
H184 H 0.32862 0.27686 0.35608 0.0
H185 H 0.34397 0.2234 0.15449 0.0
H186 H 0.30294 0.23599 0.19231 0.0
H187 H 0.35921 0.21693 0.27912 0.0
H188 H 0.4012 0.20655 0.24088 0.0
H189 H 0.33933 0.26715 0.28702 0.0
H190 H 0.2888 0.17823 0.26113 0.0
H191 H 0.26876 0.13643 0.22713 0.0
H192 H 0.21132 0.19734 0.17326 0.0
H193 H 0.23132 0.23962 0.20651 0.0
C194 C 0.22661 0.33662 0.34837 0.0
C195 C 0.22271 0.36056 0.32556 0.0
C196 C 0.2376 0.30923 0.33678 0.0
C197 C 0.24403 0.30546 0.30224 0.0
C198 C 0.2364 0.32804 0.27894 0.0
C199 C 0.22639 0.35579 0.29064 0.0
C200 C 0.26475 0.28174 0.29141 0.0
C201 C 0.25406 0.25812 0.27139 0.0
C202 C 0.29572 0.28397 0.29861 0.0
C203 C 0.30861 0.30796 0.32034 0.0
C204 C 0.30574 0.33839 0.31153 0.0
C205 C 0.31831 0.36061 0.33211 0.0
C206 C 0.33475 0.35264 0.36095 0.0
C207 C 0.33877 0.32243 0.36913 0.0
C208 C 0.32558 0.30016 0.34913 0.0
C209 C 0.34735 0.22128 0.18165 0.0
C210 C 0.37573 0.21454 0.19493 0.0
C211 C 0.3237 0.22806 0.20335 0.0
C212 C 0.32772 0.22717 0.23875 0.0
C213 C 0.35554 0.21792 0.25194 0.0
C214 C 0.37952 0.21212 0.23018 0.0
C215 C 0.30519 0.24152 0.26115 0.0
C216 C 0.31546 0.26379 0.28344 0.0
C217 C 0.27393 0.23751 0.25655 0.0
C218 C 0.26166 0.21217 0.23636 0.0
C219 C 0.27203 0.18278 0.2419 0.0
C220 C 0.26065 0.15897 0.22276 0.0
C221 C 0.23879 0.16423 0.19805 0.0
C222 C 0.22823 0.1933 0.19245 0.0
C223 C 0.23954 0.21719 0.21151 0.0
H224 H 0.23002 0.14577 0.18325 0.0
H225 H 0.34465 0.36985 0.37675 0.0
H226 H 0.18532 0.62829 0.79416 0.0
H227 H 0.19417 0.67595 0.76398 0.0
H228 H 0.28464 0.67782 0.80274 0.0
H229 H 0.27619 0.63087 0.83225 0.0
H230 H 0.25646 0.73438 0.80351 0.0
H231 H 0.27223 0.646 0.72786 0.0
H232 H 0.25206 0.60142 0.69857 0.0
H233 H 0.18475 0.65586 0.65078 0.0
H234 H 0.20436 0.70069 0.68019 0.0
H235 H 0.38543 0.75837 0.71399 0.0
H236 H 0.34047 0.74486 0.74544 0.0
H237 H 0.28529 0.77778 0.66345 0.0
H238 H 0.3303 0.79135 0.63158 0.0
H239 H 0.27241 0.72033 0.67987 0.0
H240 H 0.27879 0.81139 0.73973 0.0
H241 H 0.30285 0.85325 0.77012 0.0
H242 H 0.33092 0.79312 0.84922 0.0
H243 H 0.30758 0.7508 0.81906 0.0
C244 C 0.20694 0.63915 0.79633 0.0
C245 C 0.23027 0.62571 0.81492 0.0
C246 C 0.21187 0.66633 0.77936 0.0
C247 C 0.23997 0.68038 0.78143 0.0
C248 C 0.2627 0.66749 0.80116 0.0
C249 C 0.25798 0.6404 0.81756 0.0
C250 C 0.24795 0.70634 0.76015 0.0
C251 C 0.2595 0.73185 0.77632 0.0
C252 C 0.25085 0.70328 0.72461 0.0
C253 C 0.23952 0.67655 0.70641 0.0
C254 C 0.25307 0.6484 0.71118 0.0
C255 C 0.24174 0.62311 0.6946 0.0
C256 C 0.21709 0.6258 0.6729 0.0
C257 C 0.2038 0.65381 0.66765 0.0
C258 C 0.21499 0.67915 0.68428 0.0
C259 C 0.36378 0.76327 0.70286 0.0
C260 C 0.36148 0.77561 0.67014 0.0
C261 C 0.33804 0.75583 0.72102 0.0
C262 C 0.30953 0.76062 0.70688 0.0
C263 C 0.30709 0.77414 0.67487 0.0
C264 C 0.33286 0.78181 0.65673 0.0
C265 C 0.28308 0.74735 0.7237 0.0
C266 C 0.268 0.7242 0.70661 0.0
C267 C 0.27729 0.75244 0.75853 0.0
C268 C 0.29127 0.77787 0.77709 0.0
C269 C 0.2902 0.80704 0.76353 0.0
C270 C 0.30374 0.83087 0.78073 0.0
C271 C 0.31838 0.82586 0.81159 0.0
C272 C 0.3195 0.79699 0.82535 0.0
C273 C 0.30604 0.77308 0.80824 0.0
H274 H 0.32887 0.84434 0.82485 0.0
H275 H 0.20833 0.6062 0.6601 0.0
H276 H 0.77866 0.65312 0.34673 0.0
H277 H 0.75464 0.69302 0.31403 0.0
H278 H 0.72407 0.62796 0.24074 0.0
H279 H 0.7469 0.58778 0.27417 0.0
H280 H 0.74968 0.71832 0.25216 0.0
H281 H 0.64955 0.63735 0.22939 0.0
H282 H 0.6294 0.59051 0.25369 0.0
H283 H 0.6707 0.61071 0.34948 0.0
H284 H 0.6902 0.65816 0.32615 0.0
H285 H 0.64413 0.77312 0.13396 0.0
H286 H 0.68247 0.7501 0.16947 0.0
H287 H 0.61965 0.74506 0.25273 0.0
H288 H 0.58068 0.76661 0.21647 0.0
H289 H 0.64136 0.69419 0.24414 0.0
H290 H 0.68589 0.78986 0.25443 0.0
H291 H 0.70566 0.83889 0.23616 0.0
H292 H 0.77342 0.79497 0.17697 0.0
H293 H 0.7538 0.74565 0.19447 0.0
C294 C 0.76762 0.64746 0.32307 0.0
C295 C 0.76392 0.61739 0.31329 0.0
C296 C 0.754 0.67029 0.30438 0.0
C297 C 0.73692 0.66324 0.27559 0.0
C298 C 0.73662 0.63367 0.2634 0.0
C299 C 0.74961 0.61078 0.28246 0.0
C300 C 0.71549 0.68539 0.2619 0.0
C301 C 0.72599 0.71318 0.25024 0.0
C302 C 0.68442 0.67907 0.26106 0.0
C303 C 0.67161 0.65119 0.27585 0.0
C304 C 0.65408 0.63195 0.25573 0.0
C305 C 0.64274 0.60531 0.26936 0.0
C306 C 0.64879 0.59764 0.3031 0.0
C307 C 0.66602 0.61669 0.32336 0.0
C308 C 0.67713 0.64351 0.30997 0.0
C309 C 0.63873 0.76772 0.16009 0.0
C310 C 0.60944 0.77124 0.17244 0.0
C311 C 0.66074 0.75475 0.18048 0.0
C312 C 0.65404 0.74592 0.21387 0.0
C313 C 0.62529 0.75151 0.22697 0.0
C314 C 0.60306 0.76378 0.2063 0.0
C315 C 0.67547 0.72711 0.23317 0.0
C316 C 0.66497 0.69974 0.24612 0.0
C317 C 0.70626 0.73438 0.23621 0.0
C318 C 0.71822 0.76401 0.22561 0.0
C319 C 0.70487 0.79063 0.23731 0.0
C320 C 0.71608 0.81849 0.22713 0.0
C321 C 0.74075 0.82004 0.20537 0.0
C322 C 0.75431 0.79374 0.19381 0.0
C323 C 0.74318 0.76582 0.20391 0.0
H324 H 0.74939 0.84163 0.19751 0.0
H325 H 0.64011 0.57694 0.31356 0.0
H326 H 0.74733 0.40568 0.77093 0.0
H327 H 0.73282 0.36217 0.73764 0.0
H328 H 0.78774 0.3055 0.80111 0.0
H329 H 0.80213 0.34903 0.83505 0.0
H330 H 0.7528 0.31402 0.70256 0.0
H331 H 0.74175 0.24852 0.82672 0.0
H332 H 0.74146 0.25732 0.88868 0.0
H333 H 0.70505 0.34535 0.87283 0.0
H334 H 0.70469 0.33684 0.81088 0.0
H335 H 0.65426 0.19582 0.65618 0.0
H336 H 0.69849 0.21633 0.68463 0.0
H337 H 0.64183 0.2749 0.7435 0.0
H338 H 0.59762 0.25465 0.71529 0.0
H339 H 0.68916 0.25396 0.78052 0.0
H340 H 0.66839 0.29856 0.67062 0.0
H341 H 0.66151 0.2989 0.60842 0.0
H342 H 0.75075 0.26498 0.5951 0.0
H343 H 0.75796 0.26394 0.65731 0.0
C344 C 0.75704 0.38413 0.77726 0.0
C345 C 0.77503 0.38058 0.80627 0.0
C346 C 0.74898 0.35929 0.75796 0.0
C347 C 0.7587 0.3306 0.76746 0.0
C348 C 0.77975 0.3275 0.79371 0.0
C349 C 0.78788 0.3524 0.81309 0.0
C350 C 0.7419 0.30444 0.75473 0.0
C351 C 0.73951 0.30021 0.71955 0.0
C352 C 0.72401 0.28706 0.77702 0.0
C353 C 0.72363 0.29218 0.81423 0.0
C354 C 0.73364 0.2697 0.83651 0.0
C355 C 0.73355 0.27464 0.8716 0.0
C356 C 0.72335 0.30192 0.88467 0.0
C357 C 0.71303 0.32427 0.86268 0.0
C358 C 0.71295 0.31939 0.82759 0.0
C359 C 0.65116 0.2125 0.67584 0.0
C360 C 0.62252 0.22397 0.68322 0.0
C361 C 0.67646 0.2242 0.69195 0.0
C362 C 0.67334 0.24729 0.71578 0.0
C363 C 0.64463 0.25705 0.72512 0.0
C364 C 0.61941 0.2456 0.70886 0.0
C365 C 0.69963 0.26395 0.72832 0.0
C366 C 0.70364 0.26648 0.7635 0.0
C367 C 0.71808 0.28066 0.70597 0.0
C368 C 0.71353 0.28064 0.66862 0.0
C369 C 0.6864 0.29078 0.65444 0.0
C370 C 0.68247 0.29119 0.61919 0.0
C371 C 0.70563 0.28185 0.59783 0.0
C372 C 0.73278 0.2721 0.61169 0.0
C373 C 0.73679 0.27155 0.64693 0.0
H374 H 0.70258 0.28226 0.57055 0.0
H375 H 0.72337 0.30572 0.91183 0.0
H376 H 0.451 0.17535 0.72091 0.0
H377 H 0.44469 0.16953 0.78235 0.0
H378 H 0.51022 0.23887 0.79965 0.0
H379 H 0.51646 0.24526 0.7386 0.0
H380 H 0.52229 0.18038 0.82991 0.0
H381 H 0.44618 0.25593 0.82043 0.0
H382 H 0.4 0.27921 0.79842 0.0
H383 H 0.34861 0.2038 0.8331 0.0
H384 H 0.3946 0.17981 0.85486 0.0
H385 H 0.51869 0.19637 0.00846 0.0
H386 H 0.51958 0.20213 0.94686 0.0
H387 H 0.43892 0.14931 0.93864 0.0
H388 H 0.43722 0.14437 0.00043 0.0
H389 H 0.43347 0.19815 0.9028 0.0
H390 H 0.50947 0.12266 0.91345 0.0
H391 H 0.55566 0.09964 0.93591 0.0
H392 H 0.6073 0.17397 0.89877 0.0
H393 H 0.56136 0.19768 0.87655 0.0
C394 C 0.46356 0.18984 0.73776 0.0
C395 C 0.48442 0.21059 0.72483 0.0
C396 C 0.45989 0.1865 0.77279 0.0
C397 C 0.47715 0.20369 0.79526 0.0
C398 C 0.49679 0.22542 0.78252 0.0
C399 C 0.50021 0.22906 0.74761 0.0
C400 C 0.47705 0.19701 0.83188 0.0
C401 C 0.50302 0.1845 0.84604 0.0
C402 C 0.45155 0.20169 0.85233 0.0
C403 C 0.42392 0.21585 0.8388 0.0
C404 C 0.42511 0.24409 0.82291 0.0
C405 C 0.39894 0.25747 0.81059 0.0
C406 C 0.37141 0.24293 0.8142 0.0
C407 C 0.36997 0.215 0.83023 0.0
C408 C 0.39608 0.20151 0.84257 0.0
C409 C 0.50147 0.18547 0.99352 0.0
C410 C 0.47786 0.16992 0.00926 0.0
C411 C 0.50203 0.18876 0.9583 0.0
C412 C 0.47944 0.17597 0.93817 0.0
C413 C 0.45651 0.15944 0.95374 0.0
C414 C 0.45566 0.15652 0.989 0.0
C415 C 0.47881 0.18138 0.9011 0.0
C416 C 0.45271 0.19369 0.88675 0.0
C417 C 0.5042 0.17637 0.88036 0.0
C418 C 0.53191 0.16205 0.89354 0.0
C419 C 0.53064 0.1342 0.91027 0.0
C420 C 0.55679 0.12101 0.92293 0.0
C421 C 0.58439 0.13535 0.91881 0.0
C422 C 0.58591 0.16286 0.9019 0.0
C423 C 0.55983 0.17618 0.88926 0.0
H424 H 0.60459 0.12512 0.92867 0.0
H425 H 0.35116 0.25335 0.80471 0.0
H426 H 0.16171 0.54568 0.98737 0.0
H427 H 0.16542 0.53712 0.04822 0.0
H428 H 0.18224 0.44334 0.03077 0.0
H429 H 0.17959 0.45169 0.96925 0.0
H430 H 0.141 0.47479 0.09818 0.0
H431 H 0.23796 0.45847 0.03861 0.0
H432 H 0.27131 0.47379 0.99181 0.0
H433 H 0.27507 0.56315 0.03193 0.0
H434 H 0.24079 0.54856 0.07836 0.0
H435 H 0.26097 0.46062 0.24012 0.0
H436 H 0.24808 0.45981 0.17981 0.0
H437 H 0.17826 0.52476 0.19746 0.0
H438 H 0.19062 0.52547 0.25785 0.0
H439 H 0.24569 0.50129 0.12904 0.0
H440 H 0.11779 0.50678 0.14968 0.0
H441 H 0.08092 0.49464 0.19435 0.0
H442 H 0.13904 0.42586 0.23293 0.0
H443 H 0.17604 0.43728 0.18824 0.0
C444 C 0.16542 0.52299 0.99623 0.0
C445 C 0.17101 0.49947 0.9732 0.0
C446 C 0.16734 0.51818 0.03116 0.0
C447 C 0.17436 0.48972 0.04383 0.0
C448 C 0.17678 0.46549 0.0213 0.0
C449 C 0.17534 0.47034 0.98615 0.0
C450 C 0.18458 0.48698 0.07943 0.0
C451 C 0.1639 0.48025 0.10506 0.0
C452 C 0.21445 0.49421 0.08815 0.0
C453 C 0.23658 0.50252 0.06169 0.0
C454 C 0.24562 0.48147 0.03722 0.0
C455 C 0.26455 0.49004 0.01067 0.0
C456 C 0.27515 0.51945 0.00877 0.0
C457 C 0.2668 0.54037 0.03341 0.0
C458 C 0.24756 0.53198 0.05981 0.0
C459 C 0.24313 0.47508 0.23119 0.0
C460 C 0.2267 0.49294 0.25404 0.0
C461 C 0.23579 0.47456 0.19664 0.0
C462 C 0.21183 0.49176 0.18425 0.0
C463 C 0.19647 0.51084 0.20659 0.0
C464 C 0.20373 0.51137 0.24113 0.0
C465 C 0.20216 0.48888 0.14828 0.0
C466 C 0.22292 0.49509 0.12243 0.0
C467 C 0.17237 0.48086 0.13947 0.0
C468 C 0.14977 0.47304 0.16571 0.0
C469 C 0.1226 0.48891 0.16753 0.0
C470 C 0.1017 0.48219 0.19289 0.0
C471 C 0.10765 0.45951 0.21646 0.0
C472 C 0.13447 0.44345 0.21467 0.0
C473 C 0.15542 0.45004 0.18934 0.0
H474 H 0.09146 0.45436 0.23608 0.0
H475 H 0.29001 0.52589 0.98835 0.0
H476 H 0.47314 0.84807 0.98884 0.0
H477 H 0.47235 0.85112 0.92711 0.0
H478 H 0.56705 0.8705 0.92635 0.0
H479 H 0.56829 0.86681 0.98823 0.0
H480 H 0.48686 0.88883 0.87559 0.0
H481 H 0.59813 0.82778 0.86507 0.0
H482 H 0.63294 0.79844 0.90079 0.0
H483 H 0.55891 0.76494 0.9592 0.0
H484 H 0.52369 0.79389 0.92363 0.0
H485 H 0.50986 0.85758 0.70048 0.0
H486 H 0.51943 0.87357 0.75867 0.0
H487 H 0.49969 0.78435 0.79453 0.0
H488 H 0.49065 0.76793 0.73623 0.0
H489 H 0.54774 0.80669 0.82595 0.0
H490 H 0.44736 0.84164 0.79825 0.0
H491 H 0.40922 0.87005 0.76621 0.0
H492 H 0.4567 0.95198 0.78565 0.0
H493 H 0.49527 0.92399 0.81758 0.0
C494 C 0.4937 0.85369 0.97569 0.0
C495 C 0.52093 0.85643 0.99337 0.0
C496 C 0.49316 0.85557 0.94038 0.0
C497 C 0.51977 0.86038 0.92227 0.0
C498 C 0.5464 0.86623 0.93997 0.0
C499 C 0.54704 0.86407 0.9753 0.0
C500 C 0.52012 0.85492 0.88533 0.0
C501 C 0.50046 0.87119 0.86454 0.0
C502 C 0.53764 0.83164 0.87117 0.0
C503 C 0.55839 0.81325 0.89197 0.0
C504 C 0.58932 0.81408 0.88549 0.0
C505 C 0.60911 0.79763 0.90577 0.0
C506 C 0.59817 0.78009 0.93245 0.0
C507 C 0.56738 0.77875 0.93873 0.0
C508 C 0.54749 0.79515 0.9185 0.0
C509 C 0.50816 0.84118 0.72063 0.0
C510 C 0.49971 0.81142 0.71369 0.0
C511 C 0.51335 0.85047 0.75387 0.0
C512 C 0.51006 0.83022 0.78079 0.0
C513 C 0.50237 0.80032 0.77398 0.0
C514 C 0.49713 0.79099 0.7407 0.0
C515 C 0.51399 0.8402 0.81622 0.0
C516 C 0.53458 0.8248 0.83671 0.0
C517 C 0.497 0.86402 0.83013 0.0
C518 C 0.47427 0.8807 0.81012 0.0
C519 C 0.44977 0.86568 0.79548 0.0
C520 C 0.42801 0.88172 0.77748 0.0
C521 C 0.4304 0.91283 0.77415 0.0
C522 C 0.45473 0.92792 0.78852 0.0
C523 C 0.47655 0.91198 0.80654 0.0
H524 H 0.41357 0.92519 0.76015 0.0
H525 H 0.61357 0.76731 0.94796 0.0
H526 H 0.74699 0.50701 0.26657 0.0
H527 H 0.75549 0.49776 0.20687 0.0
H528 H 0.82913 0.43885 0.23151 0.0
H529 H 0.82158 0.44922 0.29204 0.0
H530 H 0.84598 0.47401 0.184 0.0
H531 H 0.76091 0.4118 0.19516 0.0
H532 H 0.71027 0.39582 0.21248 0.0
H533 H 0.67158 0.46709 0.15363 0.0
H534 H 0.72199 0.48369 0.13621 0.0
H535 H 0.84542 0.43647 0.00361 0.0
H536 H 0.84342 0.4343 0.06572 0.0
H537 H 0.78665 0.5125 0.06686 0.0
H538 H 0.78881 0.51514 0.00482 0.0
H539 H 0.76383 0.45868 0.10085 0.0
H540 H 0.85346 0.52138 0.09492 0.0
H541 H 0.90506 0.53203 0.076 0.0
H542 H 0.9359 0.45117 0.12388 0.0
H543 H 0.88443 0.43998 0.14295 0.0
C544 C 0.7647 0.4916 0.25956 0.0
C545 C 0.78361 0.47884 0.28425 0.0
C546 C 0.76941 0.48615 0.2252 0.0
C547 C 0.79263 0.46718 0.21455 0.0
C548 C 0.81098 0.45351 0.23912 0.0
C549 C 0.80656 0.45934 0.2737 0.0
C550 C 0.79895 0.46397 0.1777 0.0
C551 C 0.82809 0.46995 0.16592 0.0
C552 C 0.77571 0.45878 0.15389 0.0
C553 C 0.74528 0.44906 0.16449 0.0
C554 C 0.74162 0.42419 0.18608 0.0
C555 C 0.71294 0.41499 0.19588 0.0
C556 C 0.68773 0.43044 0.18418 0.0
C557 C 0.69114 0.45514 0.16268 0.0
C558 C 0.71975 0.4644 0.15276 0.0
C559 C 0.83299 0.45356 0.01713 0.0
C560 C 0.81719 0.47594 -0.00064 0.0
C561 C 0.83192 0.45228 0.05255 0.0
C562 C 0.81481 0.47316 0.07066 0.0
C563 C 0.79997 0.4962 0.05315 0.0
C564 C 0.80139 0.49778 0.01778 0.0
C565 C 0.81037 0.46968 0.10759 0.0
C566 C 0.78164 0.46227 0.11918 0.0
C567 C 0.8341 0.47271 0.13107 0.0
C568 C 0.86507 0.47968 0.12001 0.0
C569 C 0.87122 0.50577 0.10119 0.0
C570 C 0.90045 0.51193 0.09051 0.0
C571 C 0.92372 0.49221 0.09859 0.0
C572 C 0.91784 0.46636 0.11752 0.0
C573 C 0.88866 0.46015 0.12837 0.0
H574 H 0.94634 0.49703 0.09032 0.0
H575 H 0.66555 0.42326 0.19176 0.0
H576 H 0.52374 0.22499 0.24915 0.0
H577 H 0.52809 0.20991 0.3087 0.0
H578 H 0.49686 0.12115 0.28261 0.0
H579 H 0.49547 0.13543 0.22294 0.0
H580 H 0.48959 0.19691 0.35073 0.0
H581 H 0.51333 0.06989 0.33967 0.0
H582 H 0.54011 0.03467 0.30202 0.0
H583 H 0.60042 0.10482 0.27201 0.0
H584 H 0.5741 0.14041 0.30953 0.0
H585 H 0.47043 0.14474 0.51548 0.0
H586 H 0.46517 0.14177 0.45374 0.0
H587 H 0.5608 0.13073 0.44385 0.0
H588 H 0.56619 0.13263 0.5052 0.0
H589 H 0.53368 0.10217 0.39404 0.0
H590 H 0.53006 0.20077 0.44382 0.0
H591 H 0.51053 0.23913 0.48311 0.0
H592 H 0.4236 0.23231 0.43692 0.0
H593 H 0.44258 0.19361 0.39761 0.0
C594 C 0.51861 0.20207 0.25617 0.0
C595 C 0.50944 0.18132 0.23155 0.0
C596 C 0.52082 0.19349 0.2902 0.0
C597 C 0.51298 0.16427 0.30038 0.0
C598 C 0.50393 0.14352 0.27558 0.0
C599 C 0.50289 0.15178 0.24142 0.0
C600 C 0.51276 0.15617 0.33705 0.0
C601 C 0.49932 0.17617 0.36001 0.0
C602 C 0.52539 0.12913 0.34954 0.0
C603 C 0.54162 0.10783 0.32723 0.0
C604 C 0.53239 0.07775 0.32513 0.0
C605 C 0.54743 0.05775 0.30378 0.0
C606 C 0.57192 0.06753 0.28467 0.0
C607 C 0.5814 0.09732 0.28679 0.0
C608 C 0.5664 0.11743 0.30804 0.0
C609 C 0.49022 0.14071 0.50026 0.0
C610 C 0.51882 0.1397 0.51526 0.0
C611 C 0.48719 0.13913 0.46496 0.0
C612 C 0.51271 0.13688 0.44422 0.0
C613 C 0.54083 0.13273 0.45932 0.0
C614 C 0.54386 0.13403 0.49451 0.0
C615 C 0.51097 0.1431 0.4073 0.0
C616 C 0.52384 0.12274 0.38442 0.0
C617 C 0.49899 0.17039 0.39495 0.0
C618 C 0.48764 0.19408 0.41805 0.0
C619 C 0.50675 0.20736 0.44216 0.0
C620 C 0.49579 0.22916 0.46443 0.0
C621 C 0.46581 0.23807 0.4626 0.0
C622 C 0.44679 0.22533 0.43836 0.0
C623 C 0.45764 0.20348 0.41607 0.0
H624 H 0.45734 0.2549 0.4799 0.0
H625 H 0.58364 0.05201 0.26834 0.0
H626 H 0.21198 0.54092 0.4726 0.0
H627 H 0.21805 0.54772 0.53424 0.0
H628 H 0.16246 0.47052 0.55246 0.0
H629 H 0.15597 0.46376 0.49141 0.0
H630 H 0.15636 0.51783 0.60232 0.0
H631 H 0.23344 0.45873 0.54504 0.0
H632 H 0.272 0.45192 0.50092 0.0
H633 H 0.32034 0.52793 0.53917 0.0
H634 H 0.28171 0.53555 0.58319 0.0
H635 H 0.20344 0.4617 0.75962 0.0
H636 H 0.19305 0.46518 0.69887 0.0
H637 H 0.26157 0.53269 0.68827 0.0
H638 H 0.27251 0.52911 0.74888 0.0
H639 H 0.2617 0.49574 0.63451 0.0
H640 H 0.18994 0.55417 0.69353 0.0
H641 H 0.15186 0.56533 0.73707 0.0
H642 H 0.09468 0.49687 0.69623 0.0
H643 H 0.13256 0.48505 0.65263 0.0
C644 C 0.20034 0.52599 0.48978 0.0
C645 C 0.18409 0.50147 0.47707 0.0
C646 C 0.20396 0.5298 0.52488 0.0
C647 C 0.19134 0.50919 0.54773 0.0
C648 C 0.17259 0.48655 0.53525 0.0
C649 C 0.16903 0.48267 0.50026 0.0
C650 C 0.20079 0.50862 0.58388 0.0
C651 C 0.17931 0.51283 0.60943 0.0
C652 C 0.23095 0.50291 0.59308 0.0
C653 C 0.25455 0.49788 0.56719 0.0
C654 C 0.2522 0.47409 0.54392 0.0
C655 C 0.27407 0.47008 0.51893 0.0
C656 C 0.29857 0.48951 0.51717 0.0
C657 C 0.30134 0.5129 0.54055 0.0
C658 C 0.27946 0.5171 0.56551 0.0
C659 C 0.21685 0.4768 0.74434 0.0
C660 C 0.23873 0.49524 0.75938 0.0
C661 C 0.21064 0.47898 0.70959 0.0
C662 C 0.22606 0.4997 0.68916 0.0
C663 C 0.24924 0.5167 0.70357 0.0
C664 C 0.25549 0.51454 0.73831 0.0
C665 C 0.21715 0.50442 0.65314 0.0
C666 C 0.23876 0.50099 0.62756 0.0
C667 C 0.18723 0.51143 0.64397 0.0
C668 C 0.1642 0.51856 0.66995 0.0
C669 C 0.16932 0.54136 0.69395 0.0
C670 C 0.14775 0.54784 0.71861 0.0
C671 C 0.12086 0.53184 0.7194 0.0
C672 C 0.11549 0.5093 0.69554 0.0
C673 C 0.13699 0.50271 0.67081 0.0
H674 H 0.10418 0.53697 0.73846 0.0
H675 H 0.31544 0.48641 0.49773 0.0
H676 H 0.46907 0.85917 0.20134 0.0
H677 H 0.46429 0.86907 0.26213 0.0
H678 H 0.47313 0.77451 0.28306 0.0
H679 H 0.47776 0.76431 0.22249 0.0
H680 H 0.43091 0.79993 0.32206 0.0
H681 H 0.53204 0.82011 0.28664 0.0
H682 H 0.57266 0.84477 0.25471 0.0
H683 H 0.54743 0.92989 0.29672 0.0
H684 H 0.50608 0.9059 0.32806 0.0
H685 H 0.51351 0.81854 0.48919 0.0
H686 H 0.5152 0.82067 0.42713 0.0
H687 H 0.42641 0.85879 0.42528 0.0
H688 H 0.42432 0.85662 0.48708 0.0
H689 H 0.50804 0.86405 0.37664 0.0
H690 H 0.38705 0.82099 0.36632 0.0
H691 H 0.35035 0.7922 0.40005 0.0
H692 H 0.42204 0.74574 0.45045 0.0
H693 H 0.45907 0.77412 0.41689 0.0
C694 C 0.46934 0.84039 0.21881 0.0
C695 C 0.47399 0.81093 0.20714 0.0
C696 C 0.46686 0.84616 0.25351 0.0
C697 C 0.46884 0.82256 0.27694 0.0
C698 C 0.47169 0.79301 0.26527 0.0
C699 C 0.47434 0.78723 0.23067 0.0
C700 C 0.46919 0.82844 0.31376 0.0
C701 C 0.44761 0.81419 0.33392 0.0
C702 C 0.49134 0.84668 0.32916 0.0
C703 C 0.51568 0.86123 0.3094 0.0
C704 C 0.53485 0.84415 0.28869 0.0
C705 C 0.55808 0.85801 0.27075 0.0
C706 C 0.56267 0.88888 0.27372 0.0
C707 C 0.5439 0.90598 0.29445 0.0
C708 C 0.52049 0.89228 0.3122 0.0
C709 C 0.49459 0.82795 0.47563 0.0
C710 C 0.46858 0.83691 0.49301 0.0
C711 C 0.49563 0.82921 0.44022 0.0
C712 C 0.47073 0.83943 0.42182 0.0
C713 C 0.44566 0.85045 0.43916 0.0
C714 C 0.44454 0.84914 0.47446 0.0
C715 C 0.46968 0.83571 0.38466 0.0
C716 C 0.49109 0.85028 0.36455 0.0
C717 C 0.44783 0.81725 0.36923 0.0
C718 C 0.42577 0.79991 0.38938 0.0
C719 C 0.39493 0.80459 0.38458 0.0
C720 C 0.37409 0.78838 0.40368 0.0
C721 C 0.38384 0.76727 0.42748 0.0
C722 C 0.41448 0.76222 0.43216 0.0
C723 C 0.43541 0.77841 0.41316 0.0
H724 H 0.36762 0.75482 0.44221 0.0
H725 H 0.58069 0.89958 0.25986 0.0
H726 H 0.74582 0.49527 0.75918 0.0
H727 H 0.76046 0.50206 0.70026 0.0
H728 H 0.83985 0.5496 0.73203 0.0
H729 H 0.82579 0.54219 0.7915 0.0
H730 H 0.76968 0.54775 0.66025 0.0
H731 H 0.89686 0.53252 0.67439 0.0
H732 H 0.93386 0.51031 0.71366 0.0
H733 H 0.86834 0.44651 0.74764 0.0
H734 H 0.83108 0.46804 0.70818 0.0
H735 H 0.83918 0.57532 0.50422 0.0
H736 H 0.83715 0.57447 0.56596 0.0
H737 H 0.82997 0.47814 0.56464 0.0
H738 H 0.8314 0.47859 0.50241 0.0
H739 H 0.86696 0.50631 0.62114 0.0
H740 H 0.76937 0.50742 0.5667 0.0
H741 H 0.73094 0.52634 0.52705 0.0
H742 H 0.73488 0.61297 0.57423 0.0
H743 H 0.7738 0.59469 0.61382 0.0
C744 C 0.76621 0.50755 0.75381 0.0
C745 C 0.78475 0.51792 0.78021 0.0
C746 C 0.77456 0.51141 0.72001 0.0
C747 C 0.80153 0.52582 0.71177 0.0
C748 C 0.81924 0.53786 0.73788 0.0
C749 C 0.811 0.53383 0.77185 0.0
C750 C 0.81117 0.52712 0.6758 0.0
C751 C 0.79107 0.53888 0.65184 0.0
C752 C 0.83902 0.51536 0.66471 0.0
C753 C 0.86112 0.50211 0.68857 0.0
C754 C 0.89037 0.51372 0.6902 0.0
C755 C 0.91138 0.50125 0.71246 0.0
C756 C 0.90343 0.47705 0.73312 0.0
C757 C 0.87443 0.4653 0.73164 0.0
C758 C 0.85335 0.47764 0.70934 0.0
C759 C 0.83785 0.55379 0.51688 0.0
C760 C 0.83487 0.52701 0.49823 0.0
C761 C 0.83678 0.55343 0.55223 0.0
C762 C 0.83309 0.52632 0.56963 0.0
C763 C 0.83285 0.49929 0.55146 0.0
C764 C 0.83361 0.49961 0.51593 0.0
C765 C 0.82535 0.52671 0.60604 0.0
C766 C 0.8458 0.51545 0.62986 0.0
C767 C 0.79767 0.53857 0.61712 0.0
C768 C 0.77476 0.5498 0.59292 0.0
C769 C 0.76236 0.53062 0.56832 0.0
C770 C 0.74043 0.54119 0.54594 0.0
C771 C 0.73052 0.57082 0.54815 0.0
C772 C 0.74263 0.59002 0.57258 0.0
C773 C 0.76462 0.57957 0.59498 0.0
H774 H 0.71329 0.57883 0.53112 0.0
H775 H 0.9198 0.46731 0.75009 0.0
H776 H 0.25689 0.4321 0.93916 0.0
H777 H 0.29057 0.39961 0.97123 0.0
H778 H 0.36651 0.43751 0.9189 0.0
H779 H 0.33287 0.47084 0.88696 0.0
H780 H 0.36414 0.37218 0.92148 0.0
H781 H 0.36333 0.45706 0.99461 0.0
H782 H 0.34384 0.49837 0.02982 0.0
H783 H 0.29404 0.43552 0.09013 0.0
H784 H 0.31315 0.3938 0.05519 0.0
H785 H 0.44007 0.31303 0.08992 0.0
H786 H 0.42197 0.35378 0.05387 0.0
H787 H 0.36765 0.29107 -0.00244 0.0
H788 H 0.38626 0.2501 0.03279 0.0
H789 H 0.36845 0.37489 0.0474 0.0
H790 H 0.35713 0.31407 0.91732 0.0
H791 H 0.38275 0.27393 0.88554 0.0
H792 H 0.4645 0.29233 0.93911 0.0
H793 H 0.43951 0.33281 0.97094 0.0
C794 C 0.28074 0.43353 0.93431 0.0
C795 C 0.29223 0.45395 0.91039 0.0
C796 C 0.29994 0.41509 0.95285 0.0
C797 C 0.33094 0.41635 0.94748 0.0
C798 C 0.34259 0.43638 0.92338 0.0
C799 C 0.32339 0.45534 0.90522 0.0
C800 C 0.35075 0.39589 0.9666 0.0
C801 C 0.36538 0.37282 0.94899 0.0
C802 C 0.35265 0.39719 0.00238 0.0
C803 C 0.33958 0.42231 0.02216 0.0
C804 C 0.34797 0.45206 0.01514 0.0
C805 C 0.33719 0.47553 0.03523 0.0
C806 C 0.31797 0.46953 0.0624 0.0
C807 C 0.30916 0.44009 0.06927 0.0
C808 C 0.31998 0.41653 0.04935 0.0
C809 C 0.42439 0.30787 0.06974 0.0
C810 C 0.41454 0.27832 0.06429 0.0
C811 C 0.41412 0.33119 0.04913 0.0
C812 C 0.39374 0.32544 0.02277 0.0
C813 C 0.3839 0.29596 0.01723 0.0
C814 C 0.39441 0.27258 0.03758 0.0
C815 C 0.38125 0.3505 0.00247 0.0
C816 C 0.36772 0.37436 0.01986 0.0
C817 C 0.38086 0.35013 0.96648 0.0
C818 C 0.39634 0.32638 0.94669 0.0
C819 C 0.38063 0.30972 0.92215 0.0
C820 C 0.39504 0.28686 0.90415 0.0
C821 C 0.42522 0.28056 0.91034 0.0
C822 C 0.4411 0.29719 0.93441 0.0
C823 C 0.42681 0.32006 0.95247 0.0
H824 H 0.43632 0.26282 0.89649 0.0
H825 H 0.30963 0.48773 0.07791 0.0
H826 H 0.22998 0.62973 0.95007 0.0
H827 H 0.25784 0.66639 0.9838 0.0
H828 H 0.3332 0.60605 0.98848 0.0
H829 H 0.30596 0.5696 0.95418 0.0
H830 H 0.32062 0.63778 0.05057 0.0
H831 H 0.33222 0.6544 0.9286 0.0
H832 H 0.31286 0.66477 0.87108 0.0
H833 H 0.27417 0.74722 0.90617 0.0
H834 H 0.29283 0.73703 0.96412 0.0
H835 H 0.45637 0.71031 0.06727 0.0
H836 H 0.41348 0.6821 0.04677 0.0
H837 H 0.3614 0.7634 0.04103 0.0
H838 H 0.40468 0.79222 0.06132 0.0
H839 H 0.35276 0.72774 0.98572 0.0
H840 H 0.34857 0.71588 0.10516 0.0
H841 H 0.36766 0.70603 0.16287 0.0
H842 H 0.39091 0.61619 0.13406 0.0
H843 H 0.37239 0.62563 0.076 0.0
C844 C 0.25223 0.62395 0.9589 0.0
C845 C 0.26585 0.5968 0.94927 0.0
C846 C 0.26809 0.64498 0.97807 0.0
C847 C 0.29757 0.63893 0.98824 0.0
C848 C 0.31042 0.61104 0.98077 0.0
C849 C 0.29483 0.59026 0.96115 0.0
C850 C 0.31629 0.66243 0.00384 0.0
C851 C 0.32766 0.6575 0.03652 0.0
C852 C 0.32457 0.68857 0.98571 0.0
C853 C 0.31351 0.69472 0.95082 0.0
C854 C 0.31929 0.67457 0.92415 0.0
C855 C 0.30849 0.68044 0.89146 0.0
C856 C 0.29216 0.70656 0.88502 0.0
C857 C 0.28672 0.72693 0.91124 0.0
C858 C 0.29738 0.72111 0.94401 0.0
C859 C 0.43587 0.72234 0.06167 0.0
C860 C 0.4339 0.75353 0.0663 0.0
C861 C 0.4113 0.70611 0.05008 0.0
C862 C 0.38408 0.72057 0.04317 0.0
C863 C 0.38217 0.75182 0.04657 0.0
C864 C 0.40691 0.76822 0.05812 0.0
C865 C 0.35797 0.7026 0.03214 0.0
C866 C 0.34518 0.70851 0.00026 0.0
C867 C 0.34818 0.67746 0.05113 0.0
C868 C 0.3592 0.67154 0.08612 0.0
C869 C 0.35793 0.69408 0.11105 0.0
C870 C 0.36863 0.68856 0.14384 0.0
C871 C 0.38052 0.66051 0.15212 0.0
C872 C 0.38169 0.63791 0.12762 0.0
C873 C 0.37104 0.64332 0.09476 0.0
H874 H 0.38881 0.65629 0.17752 0.0
H875 H 0.28379 0.71106 0.85972 0.0
H876 H 0.60985 0.75611 0.013 0.0
H877 H 0.63116 0.71548 0.97917 0.0
H878 H 0.56037 0.65645 0.01234 0.0
H879 H 0.5391 0.69681 0.04643 0.0
H880 H 0.61243 0.63139 0.02296 0.0
H881 H 0.56516 0.67765 0.9296 0.0
H882 H 0.54923 0.71697 0.88944 0.0
H883 H 0.64085 0.73272 0.86154 0.0
H884 H 0.65744 0.69374 0.90189 0.0
H885 H 0.67304 0.51401 0.91869 0.0
H886 H 0.63756 0.55199 0.93885 0.0
H887 H 0.70641 0.61953 0.93187 0.0
H888 H 0.74204 0.58188 0.91212 0.0
H889 H 0.64859 0.63648 0.90395 0.0
H890 H 0.69369 0.59221 0.0054 0.0
H891 H 0.7065 0.54934 0.04229 0.0
H892 H 0.61324 0.52723 0.05181 0.0
H893 H 0.59992 0.56978 0.01457 0.0
C894 C 0.59849 0.73466 0.01255 0.0
C895 C 0.57297 0.7296 0.03262 0.0
C896 C 0.61062 0.71147 0.9931 0.0
C897 C 0.5973 0.68294 0.99319 0.0
C898 C 0.57105 0.67826 0.012 0.0
C899 C 0.55899 0.70135 0.03151 0.0
C900 C 0.6125 0.65734 0.97662 0.0
C901 C 0.61975 0.6323 0.99669 0.0
C902 C 0.62226 0.65857 0.94245 0.0
C903 C 0.61257 0.68282 0.91896 0.0
C904 C 0.58197 0.68967 0.91516 0.0
C905 C 0.5728 0.71179 0.89222 0.0
C906 C 0.594 0.72717 0.87278 0.0
C907 C 0.62444 0.72064 0.87646 0.0
C908 C 0.63374 0.69852 0.89936 0.0
C909 C 0.68059 0.53696 0.92138 0.0
C910 C 0.71038 0.54492 0.91404 0.0
C911 C 0.66031 0.55857 0.93282 0.0
C912 C 0.66947 0.58846 0.93671 0.0
C913 C 0.69897 0.59656 0.92883 0.0
C914 C 0.71933 0.57496 0.91785 0.0
C915 C 0.64886 0.61121 0.95055 0.0
C916 C 0.64075 0.63562 0.93001 0.0
C917 C 0.63784 0.60922 0.98409 0.0
C918 C 0.64584 0.58396 0.00691 0.0
C919 C 0.67594 0.57807 0.01516 0.0
C920 C 0.68329 0.55386 0.03617 0.0
C921 C 0.6607 0.53551 0.0493 0.0
C922 C 0.63071 0.54143 0.04157 0.0
C923 C 0.62325 0.5656 0.02054 0.0
H924 H 0.66643 0.51677 0.06555 0.0
H925 H 0.58684 0.74432 0.85507 0.0
H926 H 0.68011 0.4288 0.94115 0.0
H927 H 0.64649 0.39981 0.97773 0.0
H928 H 0.71403 0.33132 0.98847 0.0
H929 H 0.748 0.36035 0.95229 0.0
H930 H 0.65347 0.31083 0.97107 0.0
H931 H 0.70585 0.37333 0.05282 0.0
H932 H 0.72418 0.42244 0.07279 0.0
H933 H 0.63384 0.45524 0.07739 0.0
H934 H 0.61498 0.40635 0.05723 0.0
H935 H 0.58415 0.22497 0.09733 0.0
H936 H 0.62176 0.25545 0.06852 0.0
H937 H 0.56303 0.33213 0.07313 0.0
H938 H 0.52543 0.30201 0.10258 0.0
H939 H 0.62004 0.34894 0.08331 0.0
H940 H 0.56621 0.29129 0.00213 0.0
H941 H 0.5441 0.24552 0.97783 0.0
H942 H 0.63178 0.20721 0.96651 0.0
H943 H 0.65445 0.25271 0.99131 0.0
C944 C 0.6878 0.40758 0.95132 0.0
C945 C 0.71672 0.39689 0.94404 0.0
C946 C 0.66863 0.39113 0.97225 0.0
C947 C 0.67795 0.3636 0.98585 0.0
C948 C 0.70658 0.35261 0.97824 0.0
C949 C 0.72596 0.36928 0.95776 0.0
C950 C 0.65763 0.3462 0.00791 0.0
C951 C 0.64653 0.31881 0.99588 0.0
C952 C 0.64786 0.35736 0.03962 0.0
C953 C 0.65903 0.38628 0.05324 0.0
C954 C 0.68991 0.39104 0.05802 0.0
C955 C 0.70039 0.41882 0.06937 0.0
C956 C 0.68019 0.44199 0.07611 0.0
C957 C 0.64945 0.43728 0.07204 0.0
C958 C 0.63884 0.40952 0.06075 0.0
C959 C 0.57931 0.24841 0.09262 0.0
C960 C 0.5516 0.26094 0.10196 0.0
C961 C 0.60084 0.26578 0.07608 0.0
C962 C 0.59496 0.2959 0.06816 0.0
C963 C 0.56799 0.30891 0.07894 0.0
C964 C 0.54649 0.2916 0.0957 0.0
C965 C 0.61609 0.3132 0.04673 0.0
C966 C 0.62718 0.34068 0.0587 0.0
C967 C 0.62538 0.30246 0.01455 0.0
C968 C 0.612 0.27526 -0.00101 0.0
C969 C 0.58078 0.27303 0.99468 0.0
C970 C 0.56815 0.24714 0.98079 0.0
C971 C 0.58651 0.22338 0.97079 0.0
C972 C 0.61759 0.2256 0.97439 0.0
C973 C 0.63035 0.25145 0.98835 0.0
H974 H 0.57666 0.20328 0.96026 0.0
H975 H 0.68836 0.46358 0.0845 0.0
H976 H 0.5564 0.29004 0.53717 0.0
H977 H 0.58594 0.32654 0.50524 0.0
H978 H 0.66287 0.26816 0.51068 0.0
H979 H 0.63339 0.2314 0.54256 0.0
H980 H 0.67283 0.3256 0.53601 0.0
H981 H 0.63179 0.27994 0.43626 0.0
H982 H 0.59118 0.26036 0.40007 0.0
H983 H 0.55159 0.34798 0.39515 0.0
H984 H 0.5917 0.36801 0.43181 0.0
H985 H 0.76776 0.41849 0.43768 0.0
H986 H 0.73868 0.377 0.46062 0.0
H987 H 0.65736 0.42799 0.44724 0.0
H988 H 0.68625 0.46958 0.4235 0.0
H989 H 0.65053 0.37232 0.4244 0.0
H990 H 0.6895 0.41812 0.52477 0.0
H991 H 0.72766 0.43823 0.56387 0.0
H992 H 0.76862 0.35135 0.57099 0.0
H993 H 0.73113 0.33084 0.5313 0.0
C994 C 0.57941 0.28469 0.53087 0.0
C995 C 0.59268 0.258 0.54241 0.0
C996 C 0.5962 0.30549 0.51257 0.0
C997 C 0.62651 0.29994 0.50569 0.0
C998 C 0.63944 0.27269 0.51574 0.0
C999 C 0.62255 0.25169 0.53371 0.0
C1000 C 0.64528 0.32391 0.49115 0.0
C1001 C 0.66847 0.33546 0.51128 0.0
C1002 C 0.63859 0.33731 0.45953 0.0
C1003 C 0.61466 0.32543 0.43703 0.0
C1004 C 0.61432 0.295 0.42768 0.0
C1005 C 0.5914 0.28382 0.40704 0.0
C1006 C 0.56879 0.3029 0.39538 0.0
C1007 C 0.56911 0.33322 0.40423 0.0
C1008 C 0.59196 0.34451 0.42491 0.0
C1009 C 0.74372 0.42106 0.43978 0.0
C1010 C 0.72934 0.44741 0.42871 0.0
C1011 C 0.72713 0.39731 0.45301 0.0
C1012 C 0.69591 0.39953 0.45586 0.0
C1013 C 0.68146 0.42585 0.44518 0.0
C1014 C 0.69803 0.44961 0.43174 0.0
C1015 C 0.67828 0.37407 0.46923 0.0
C1016 C 0.65519 0.36231 0.44898 0.0
C1017 C 0.68489 0.36062 0.50096 0.0
C1018 C 0.70772 0.37303 0.52459 0.0
C1019 C 0.70687 0.40337 0.53429 0.0
C1020 C 0.72835 0.41484 0.55663 0.0
C1021 C 0.75063 0.39612 0.56979 0.0
C1022 C 0.75143 0.36586 0.56067 0.0
C1023 C 0.73008 0.35431 0.53822 0.0
H1024 H 0.7672 0.40503 0.58713 0.0
H1025 H 0.55105 0.29419 0.37943 0.0
H1026 H 0.47643 0.28753 0.55739 0.0
H1027 H 0.43611 0.31861 0.53465 0.0
H1028 H 0.37079 0.25502 0.57145 0.0
H1029 H 0.41127 0.22309 0.59285 0.0
H1030 H 0.35328 0.27488 0.51345 0.0
H1031 H 0.3863 0.32186 0.6147 0.0
H1032 H 0.42234 0.34291 0.65573 0.0
H1033 H 0.44865 0.40961 0.58289 0.0
H1034 H 0.41307 0.38869 0.54122 0.0
H1035 H 0.24011 0.38266 0.47621 0.0
H1036 H 0.27179 0.35287 0.51426 0.0
H1037 H 0.35071 0.39239 0.46961 0.0
H1038 H 0.31945 0.42219 0.4317 0.0
H1039 H 0.35493 0.38353 0.54044 0.0
H1040 H 0.31943 0.33224 0.43907 0.0
H1041 H 0.2798 0.31124 0.40257 0.0
H1042 H 0.25413 0.25074 0.48224 0.0
H1043 H 0.29284 0.27225 0.51974 0.0
C1044 C 0.45347 0.28011 0.56041 0.0
C1045 C 0.4469 0.25311 0.57717 0.0
C1046 C 0.43043 0.29796 0.54763 0.0
C1047 C 0.40036 0.28961 0.55228 0.0
C1048 C 0.3938 0.26204 0.56783 0.0
C1049 C 0.41692 0.24383 0.58001 0.0
C1050 C 0.37592 0.30989 0.54111 0.0
C1051 C 0.35331 0.29851 0.51992 0.0
C1052 C 0.3758 0.34073 0.54971 0.0
C1053 C 0.39713 0.35356 0.57475 0.0
C1054 C 0.3999 0.3409 0.60735 0.0
C1055 C 0.42024 0.35282 0.63073 0.0
C1056 C 0.43781 0.37755 0.6219 0.0
C1057 C 0.43503 0.39045 0.58969 0.0
C1058 C 0.41475 0.37859 0.56619 0.0
C1059 C 0.26419 0.38545 0.47497 0.0
C1060 C 0.27733 0.40433 0.4505 0.0
C1061 C 0.2822 0.36844 0.49674 0.0
C1062 C 0.3135 0.37021 0.49432 0.0
C1063 C 0.32656 0.3907 0.47174 0.0
C1064 C 0.30865 0.40751 0.44989 0.0
C1065 C 0.33299 0.3486 0.5122 0.0
C1066 C 0.35465 0.35976 0.53462 0.0
C1067 C 0.33175 0.31746 0.50534 0.0
C1068 C 0.30888 0.30415 0.48238 0.0
C1069 C 0.30522 0.31463 0.44892 0.0
C1070 C 0.2829 0.30264 0.42803 0.0
C1071 C 0.26453 0.27961 0.44002 0.0
C1072 C 0.26837 0.2686 0.47297 0.0
C1073 C 0.29043 0.28078 0.49411 0.0
H1074 H 0.24731 0.27031 0.42376 0.0
H1075 H 0.45355 0.38675 0.64004 0.0
H1076 H 0.4409 0.68748 0.55876 0.0
H1077 H 0.42525 0.64736 0.52031 0.0
H1078 H 0.36174 0.70719 0.47314 0.0
H1079 H 0.37735 0.74755 0.5112 0.0
H1080 H 0.3371 0.65491 0.49755 0.0
H1081 H 0.42177 0.68564 0.43019 0.0
H1082 H 0.47515 0.69695 0.4206 0.0
H1083 H 0.49842 0.60619 0.44578 0.0
H1084 H 0.44516 0.59444 0.45607 0.0
H1085 H 0.27631 0.57566 0.36645 0.0
H1086 H 0.30933 0.61248 0.39258 0.0
H1087 H 0.36291 0.54141 0.43546 0.0
H1088 H 0.3299 0.50406 0.40877 0.0
H1089 H 0.39656 0.59581 0.41474 0.0
H1090 H 0.31425 0.56526 0.4844 0.0
H1091 H 0.26199 0.55341 0.4984 0.0
H1092 H 0.23568 0.64338 0.47315 0.0
H1093 H 0.288 0.65561 0.45836 0.0
C1094 C 0.42377 0.69218 0.53999 0.0
C1095 C 0.41008 0.72057 0.53821 0.0
C1096 C 0.41513 0.66933 0.51785 0.0
C1097 C 0.39258 0.67451 0.49378 0.0
C1098 C 0.37941 0.70299 0.49141 0.0
C1099 C 0.38826 0.72593 0.51323 0.0
C1100 C 0.38014 0.64952 0.47374 0.0
C1101 C 0.35003 0.6423 0.4791 0.0
C1102 C 0.39749 0.63229 0.45086 0.0
C1103 C 0.42948 0.63923 0.44425 0.0
C1104 C 0.43828 0.66814 0.43398 0.0
C1105 C 0.46852 0.67463 0.42836 0.0
C1106 C 0.49018 0.65232 0.43267 0.0
C1107 C 0.48162 0.62346 0.44249 0.0
C1108 C 0.4514 0.61686 0.44819 0.0
C1109 C 0.29546 0.5678 0.38085 0.0
C1110 C 0.30029 0.53703 0.38606 0.0
C1111 C 0.31439 0.58886 0.39559 0.0
C1112 C 0.33826 0.5796 0.41623 0.0
C1113 C 0.3446 0.54891 0.41949 0.0
C1114 C 0.32571 0.52766 0.40436 0.0
C1115 C 0.35331 0.602 0.43796 0.0
C1116 C 0.38378 0.60853 0.4332 0.0
C1117 C 0.33651 0.61861 0.46185 0.0
C1118 C 0.30495 0.61124 0.46999 0.0
C1119 C 0.29727 0.58242 0.48148 0.0
C1120 C 0.26761 0.57568 0.48966 0.0
C1121 C 0.24542 0.59766 0.48672 0.0
C1122 C 0.25288 0.62639 0.47543 0.0
C1123 C 0.28254 0.63324 0.46714 0.0
H1124 H 0.22245 0.59253 0.49325 0.0
H1125 H 0.5136 0.65737 0.42832 0.0
H1126 H 0.68303 0.56388 0.44649 0.0
H1127 H 0.64726 0.59242 0.48014 0.0
H1128 H 0.71535 0.65829 0.50208 0.0
H1129 H 0.75163 0.62949 0.46895 0.0
H1130 H 0.68153 0.64891 0.55655 0.0
H1131 H 0.66351 0.67174 0.4399 0.0
H1132 H 0.65349 0.66291 0.3792 0.0
H1133 H 0.57193 0.61693 0.40443 0.0
H1134 H 0.58148 0.62555 0.4654 0.0
H1135 H 0.57688 0.7697 0.58798 0.0
H1136 H 0.61701 0.73755 0.56621 0.0
H1137 H 0.55539 0.66327 0.56056 0.0
H1138 H 0.51527 0.69497 0.58257 0.0
H1139 H 0.58668 0.67761 0.49922 0.0
H1140 H 0.60553 0.65992 0.61812 0.0
H1141 H 0.61605 0.67483 0.67722 0.0
H1142 H 0.69779 0.71715 0.64544 0.0
H1143 H 0.68753 0.70289 0.58603 0.0
C1144 C 0.69052 0.58433 0.45863 0.0
C1145 C 0.72009 0.59463 0.45464 0.0
C1146 C 0.67 0.60066 0.47777 0.0
C1147 C 0.67849 0.62781 0.49291 0.0
C1148 C 0.70832 0.63748 0.49037 0.0
C1149 C 0.729 0.621 0.47141 0.0
C1150 C 0.65585 0.64655 0.51021 0.0
C1151 C 0.66093 0.65549 0.54391 0.0
C1152 C 0.6289 0.65492 0.49377 0.0
C1153 C 0.62342 0.64895 0.45722 0.0
C1154 C 0.6436 0.65946 0.43252 0.0
C1155 C 0.63796 0.65457 0.39805 0.0
C1156 C 0.61219 0.63917 0.38793 0.0
C1157 C 0.59194 0.62875 0.4123 0.0
C1158 C 0.59742 0.6337 0.44682 0.0
C1159 C 0.57196 0.74645 0.58239 0.0
C1160 C 0.5429 0.73489 0.58683 0.0
C1161 C 0.59492 0.72812 0.57021 0.0
C1162 C 0.58905 0.69811 0.56203 0.0
C1163 C 0.56026 0.68638 0.56695 0.0
C1164 C 0.53742 0.70453 0.57953 0.0
C1165 C 0.61219 0.67962 0.54555 0.0
C1166 C 0.60722 0.67088 0.51188 0.0
C1167 C 0.63939 0.67205 0.56184 0.0
C1168 C 0.64558 0.68062 0.59755 0.0
C1169 C 0.6256 0.67268 0.62367 0.0
C1170 C 0.63155 0.68095 0.65724 0.0
C1171 C 0.65753 0.69701 0.66507 0.0
C1172 C 0.67765 0.70476 0.63934 0.0
C1173 C 0.67179 0.69656 0.60571 0.0
H1174 H 0.6621 0.70338 0.69108 0.0
H1175 H 0.60785 0.63543 0.36122 0.0
H1176 H 0.45373 0.06979 0.10652 0.0
H1177 H 0.46472 0.02445 0.13928 0.0
H1178 H 0.4592 0.07504 0.23243 0.0
H1179 H 0.44631 0.12019 0.19954 0.0
H1180 H 0.5178 0.0467 0.21402 0.0
H1181 H 0.41888 0.02096 0.23878 0.0
H1182 H 0.36457 0.01503 0.22961 0.0
H1183 H 0.38133 0.95007 0.15152 0.0
H1184 H 0.43572 0.95591 0.15976 0.0
H1185 H 0.529 0.87003 0.19046 0.0
H1186 H 0.51553 0.91201 0.22716 0.0
H1187 H 0.55017 0.97367 0.15225 0.0
H1188 H 0.5628 0.93163 0.11524 0.0
H1189 H 0.47317 0.9454 0.20357 0.0
H1190 H 0.56342 0.03951 0.18072 0.0
H1191 H 0.61799 0.04526 0.18731 0.0
H1192 H 0.61932 0.97356 0.26015 0.0
H1193 H 0.56467 0.9676 0.25435 0.0
C1194 C 0.45333 0.07077 0.13403 0.0
C1195 C 0.449 0.09804 0.15074 0.0
C1196 C 0.45966 0.04503 0.15273 0.0
C1197 C 0.46266 0.04655 0.18821 0.0
C1198 C 0.4566 0.07347 0.20513 0.0
C1199 C 0.44924 0.09906 0.1864 0.0
C1200 C 0.47742 0.02136 0.20564 0.0
C1201 C 0.5081 0.02444 0.21265 0.0
C1202 C 0.46426 0.99266 0.20528 0.0
C1203 C 0.43149 0.98881 0.20006 0.0
C1204 C 0.41102 0.00549 0.21954 0.0
C1205 C 0.38019 0.00214 0.2145 0.0
C1206 C 0.36951 0.98215 0.19004 0.0
C1207 C 0.38964 0.96547 0.17055 0.0
C1208 C 0.42049 0.96874 0.17547 0.0
C1209 C 0.53518 0.89254 0.18279 0.0
C1210 C 0.54694 0.89792 0.15028 0.0
C1211 C 0.52759 0.91646 0.20383 0.0
C1212 C 0.53206 0.94598 0.19272 0.0
C1213 C 0.5471 0.95109 0.16178 0.0
C1214 C 0.55429 0.92713 0.14051 0.0
C1215 C 0.51426 0.97066 0.20758 0.0
C1216 C 0.48293 0.96747 0.20679 0.0
C1217 C 0.52692 -0.00076 0.21331 0.0
C1218 C 0.55981 0.00317 0.2172 0.0
C1219 C 0.57524 0.02515 0.19842 0.0
C1220 C 0.60625 0.02837 0.2019 0.0
C1221 C 0.62212 0.00979 0.22413 0.0
C1222 C 0.60701 0.98792 0.24291 0.0
C1223 C 0.57602 0.98458 0.23949 0.0
H1224 H 0.64612 0.01234 0.22681 0.0
H1225 H 0.34563 0.97959 0.18618 0.0
H1226 H 0.88621 0.42329 0.83512 0.0
H1227 H 0.93403 0.42779 0.80501 0.0
H1228 H 0.94359 0.51838 0.84187 0.0
H1229 H 0.89598 0.51432 0.87132 0.0
H1230 H 0.96048 0.51488 0.77662 0.0
H1231 H 0.97717 0.45689 0.88213 0.0
H1232 H 0.96893 0.41297 0.91918 0.0
H1233 H 0.99641 0.35431 0.83857 0.0
H1234 H 0.00453 0.39794 0.80098 0.0
H1235 H 0.09812 0.55576 0.84081 0.0
H1236 H 0.04861 0.5435 0.8187 0.0
H1237 H 0.08422 0.46383 0.77157 0.0
H1238 H 0.1338 0.47582 0.79373 0.0
H1239 H 0.04351 0.45045 0.8176 0.0
H1240 H 0.04564 0.51323 0.72252 0.0
H1241 H 0.05629 0.55834 0.68841 0.0
H1242 H 0.99516 0.60936 0.74952 0.0
H1243 H 0.98458 0.56472 0.78443 0.0
C1244 C 0.89863 0.44409 0.83692 0.0
C1245 C 0.88751 0.46834 0.85592 0.0
C1246 C 0.92579 0.44668 0.81953 0.0
C1247 C 0.94228 0.47343 0.82121 0.0
C1248 C 0.93103 0.49766 0.83988 0.0
C1249 C 0.90394 0.49518 0.85703 0.0
C1250 C 0.97246 0.476 0.80617 0.0
C1251 C 0.97876 0.50076 0.78527 0.0
C1252 C 0.99596 0.45667 0.81611 0.0
C1253 C 0.99105 0.43055 0.83867 0.0
C1254 C 0.98125 0.43459 0.87229 0.0
C1255 C 0.97664 0.40978 0.89337 0.0
C1256 C 0.98203 0.38086 0.8812 0.0
C1257 C 0.99215 0.37671 0.84794 0.0
C1258 C 0.99676 0.40146 0.82674 0.0
C1259 C 0.09563 0.53614 0.82487 0.0
C1260 C 0.11958 0.51624 0.82 0.0
C1261 C 0.06734 0.52928 0.81191 0.0
C1262 C 0.06273 0.50261 0.79366 0.0
C1263 C 0.0873 0.4844 0.78575 0.0
C1264 C 0.11554 0.49119 0.79874 0.0
C1265 C 0.03196 0.49078 0.79021 0.0
C1266 C 0.0254 0.46403 0.80748 0.0
C1267 C 0.00837 0.50848 0.77715 0.0
C1268 C 0.01438 0.53554 0.75617 0.0
C1269 C 0.03462 0.53411 0.72884 0.0
C1270 C 0.04062 0.55961 0.70933 0.0
C1271 C 0.0264 0.58671 0.71679 0.0
C1272 C 0.00612 0.58834 0.74374 0.0
C1273 C 7e-05 0.56291 0.76337 0.0
H1274 H 0.03109 0.60643 0.70167 0.0
H1275 H 0.97846 0.36168 0.89756 0.0
H1276 H 0.43109 0.92703 0.60506 0.0
H1277 H 0.44738 0.96877 0.64089 0.0
H1278 H 0.47201 0.90637 0.72002 0.0
H1279 H 0.45381 0.86491 0.68497 0.0
H1280 H 0.43985 0.99312 0.70443 0.0
H1281 H 0.54742 0.93122 0.7429 0.0
H1282 H 0.57839 0.88741 0.72764 0.0
H1283 H 0.54299 0.88944 0.62621 0.0
H1284 H 0.51259 0.93376 0.64058 0.0
H1285 H 0.52611 0.11882 0.71476 0.0
H1286 H 0.51519 0.07108 0.74297 0.0
H1287 H 0.5489 0.02379 0.65524 0.0
H1288 H 0.56168 0.0713 0.62839 0.0
H1289 H 0.55089 0.98805 0.70711 0.0
H1290 H 0.47303 0.05744 0.65794 0.0
H1291 H 0.44684 0.10621 0.65958 0.0
H1292 H 0.42468 0.09184 0.76451 0.0
H1293 H 0.45096 0.04307 0.76344 0.0
C1294 C 0.43824 0.92257 0.63088 0.0
C1295 C 0.44105 0.89315 0.64264 0.0
C1296 C 0.44768 0.94627 0.65132 0.0
C1297 C 0.46087 0.94058 0.68315 0.0
C1298 C 0.46142 0.91127 0.6959 0.0
C1299 C 0.45116 0.88768 0.67584 0.0
C1300 C 0.47848 0.96461 0.69935 0.0
C1301 C 0.46409 0.99184 0.7061 0.0
C1302 C 0.51013 0.96283 0.7017 0.0
C1303 C 0.52716 0.93532 0.69312 0.0
C1304 C 0.5462 0.92223 0.71739 0.0
C1305 C 0.56386 0.89748 0.7088 0.0
C1306 C 0.56265 0.88562 0.67598 0.0
C1307 C 0.54385 0.89857 0.65165 0.0
C1308 C 0.52638 0.9235 0.66002 0.0
C1309 C 0.53256 0.09807 0.70247 0.0
C1310 C 0.54424 0.09831 0.66938 0.0
C1311 C 0.52625 0.07088 0.7185 0.0
C1312 C 0.53013 0.04393 0.70069 0.0
C1313 C 0.54547 0.04428 0.66946 0.0
C1314 C 0.55268 0.07142 0.65395 0.0
C1315 C 0.51238 0.01695 0.70935 0.0
C1316 C 0.5266 0.98898 0.70781 0.0
C1317 C 0.48063 0.01818 0.7103 0.0
C1318 C 0.46402 0.04686 0.71068 0.0
C1319 C 0.46245 0.06471 0.68129 0.0
C1320 C 0.44769 0.09234 0.68214 0.0
C1321 C 0.43413 0.10213 0.71215 0.0
C1322 C 0.43522 0.08424 0.74131 0.0
C1323 C 0.45003 0.05662 0.74061 0.0
H1324 H 0.42275 0.12354 0.71279 0.0
H1325 H 0.57621 0.86637 0.66944 0.0
H1326 H 0.90111 0.58768 0.36106 0.0
H1327 H 0.95128 0.58574 0.3356 0.0
H1328 H 0.93408 0.49528 0.3018 0.0
H1329 H 0.8844 0.49742 0.32588 0.0
H1330 H 0.99059 0.55008 0.36047 0.0
H1331 H 0.9759 0.47147 0.24142 0.0
H1332 H 0.94255 0.46882 0.1916 0.0
H1333 H 0.92449 0.56305 0.1997 0.0
H1334 H 0.958 0.56643 0.24931 0.0
H1335 H 0.09417 0.44246 0.36846 0.0
H1336 H 0.04486 0.45936 0.34885 0.0
H1337 H 0.08692 0.51721 0.27509 0.0
H1338 H 0.13615 0.50038 0.29447 0.0
H1339 H 0.02465 0.49486 0.25802 0.0
H1340 H 0.08244 0.54984 0.34086 0.0
H1341 H 0.1156 0.55238 0.39092 0.0
H1342 H 0.04737 0.51155 0.45236 0.0
H1343 H 0.01404 0.50819 0.40243 0.0
C1344 C 0.90786 0.56779 0.34729 0.0
C1345 C 0.88928 0.54241 0.34624 0.0
C1346 C 0.93639 0.56674 0.33265 0.0
C1347 C 0.94641 0.54042 0.31664 0.0
C1348 C 0.9268 0.51607 0.31332 0.0
C1349 C 0.8985 0.51712 0.32779 0.0
C1350 C 0.9786 0.53539 0.31002 0.0
C1351 C 0.99814 0.53878 0.33763 0.0
C1352 C 0.98871 0.52093 0.28008 0.0
C1353 C 0.96951 0.51919 0.24923 0.0
C1354 C 0.96513 0.49173 0.23238 0.0
C1355 C 0.94608 0.49007 0.20421 0.0
C1356 C 0.93137 0.51574 0.19254 0.0
C1357 C 0.93584 0.54317 0.20883 0.0
C1358 C 0.95482 0.54495 0.23701 0.0
C1359 C 0.09279 0.45769 0.34707 0.0
C1360 C 0.11865 0.47084 0.33357 0.0
C1361 C 0.06473 0.46727 0.33581 0.0
C1362 C 0.06254 0.4899 0.31104 0.0
C1363 C 0.08829 0.49985 0.29431 0.0
C1364 C 0.11631 0.49045 0.30567 0.0
C1365 C 0.0351 0.50805 0.30922 0.0
C1366 C 0.01702 0.50714 0.28015 0.0
C1367 C 0.02638 0.52547 0.33748 0.0
C1368 C 0.04584 0.52861 0.36788 0.0
C1369 C 0.07457 0.54129 0.36502 0.0
C1370 C 0.0934 0.54286 0.39336 0.0
C1371 C 0.08362 0.5321 0.4248 0.0
C1372 C 0.05492 0.51987 0.42798 0.0
C1373 C 0.03605 0.51814 0.39968 0.0
H1374 H 0.09826 0.53327 0.44669 0.0
H1375 H 0.91645 0.51442 0.17093 0.0
loop_
_geom_bond_atom_site_label_1
_geom_bond_atom_site_label_2
_geom_bond_distance
_geom_bond_site_symmetry_2
_ccdc_geom_bond_type
Sc0 O3 2.025 . S
Sc0 O10 2.105 . S
Sc0 O13 2.105 . S
Sc0 O16 2.105 . S
Sc0 O19 2.105 . S
Sc1 O3 2.025 . S
Sc1 O11 2.105 . S
Sc1 O15 2.105 . S
Sc1 O17 2.105 . S
Sc1 O21 2.105 . S
Sc2 O3 2.025 . S
Sc2 O12 2.105 . S
Sc2 O14 2.105 . S
Sc2 O18 2.105 . S
Sc2 O20 2.105 . S
O3 Sc0 2.025 . S
O3 Sc1 2.025 . S
O3 Sc2 2.025 . S
C4 O10 1.268 . S
C4 O20 1.268 . S
C5 O11 1.268 . S
C5 O19 1.268 . S
C6 O12 1.268 . S
C6 O21 1.268 . S
C7 O13 1.268 . S
C7 O17 1.268 . S
C8 O14 1.268 . S
C8 O16 1.268 . S
C9 O15 1.268 . S
C9 O18 1.268 . S
O10 Sc0 2.105 . S
O10 C4 1.268 . S
O11 Sc1 2.105 . S
O11 C5 1.268 . S
O12 Sc2 2.105 . S
O12 C6 1.268 . S
O13 Sc0 2.105 . S
O13 C7 1.268 . S
O14 Sc2 2.105 . S
O14 C8 1.268 . S
O15 Sc1 2.105 . S
O15 C9 1.268 . S
O16 Sc0 2.105 . S
O16 C8 1.268 . S
O17 Sc1 2.105 . S
O17 C7 1.268 . S
O18 Sc2 2.105 . S
O18 C9 1.268 . S
O19 Sc0 2.105 . S
O19 C5 1.268 . S
O20 Sc2 2.105 . S
O20 C4 1.268 . S
O21 Sc1 2.105 . S
O21 C6 1.268 . S
Sc22 O25 2.025 . S
Sc22 O32 2.105 . S
Sc22 O35 2.105 . S
Sc22 O38 2.105 . S
Sc22 O41 2.105 . S
Sc23 O25 2.025 . S
Sc23 O33 2.105 . S
Sc23 O37 2.105 . S
Sc23 O39 2.105 . S
Sc23 O43 2.105 . S
Sc24 O25 2.025 . S
Sc24 O34 2.105 . S
Sc24 O36 2.105 . S
Sc24 O40 2.105 . S
Sc24 O42 2.105 . S
O25 Sc22 2.025 . S
O25 Sc23 2.025 . S
O25 Sc24 2.025 . S
C26 O32 1.268 . S
C26 O42 1.268 . S
C27 O33 1.268 . S
C27 O41 1.268 . S
C28 O34 1.268 . S
C28 O43 1.268 . S
C29 O35 1.268 . S
C29 O39 1.268 . S
C30 O36 1.268 . S
C30 O38 1.268 . S
C31 O37 1.268 . S
C31 O40 1.268 . S
O32 Sc22 2.105 . S
O32 C26 1.268 . S
O33 Sc23 2.105 . S
O33 C27 1.268 . S
O34 Sc24 2.105 . S
O34 C28 1.268 . S
O35 Sc22 2.105 . S
O35 C29 1.268 . S
O36 Sc24 2.105 . S
O36 C30 1.268 . S
O37 Sc23 2.105 . S
O37 C31 1.268 . S
O38 Sc22 2.105 . S
O38 C30 1.268 . S
O39 Sc23 2.105 . S
O39 C29 1.268 . S
O40 Sc24 2.105 . S
O40 C31 1.268 . S
O41 Sc22 2.105 . S
O41 C27 1.268 . S
O42 Sc24 2.105 . S
O42 C26 1.268 . S
O43 Sc23 2.105 . S
O43 C28 1.268 . S
Sc44 O47 2.025 . S
Sc44 O54 2.105 . S
Sc44 O57 2.105 . S
Sc44 O60 2.105 . S
Sc44 O63 2.105 . S
Sc45 O47 2.025 . S
Sc45 O55 2.105 . S
Sc45 O59 2.105 . S
Sc45 O61 2.105 . S
Sc45 O65 2.105 . S
Sc46 O47 2.025 . S
Sc46 O56 2.105 . S
Sc46 O58 2.105 . S
Sc46 O62 2.105 . S
Sc46 O64 2.105 . S
O47 Sc44 2.025 . S
O47 Sc45 2.025 . S
O47 Sc46 2.025 . S
C48 O54 1.268 . S
C48 O64 1.268 . S
C49 O55 1.268 . S
C49 O63 1.268 . S
C50 O56 1.268 . S
C50 O65 1.268 . S
C51 O57 1.268 . S
C51 O61 1.268 . S
C52 O58 1.268 . S
C52 O60 1.268 . S
C53 O59 1.268 . S
C53 O62 1.268 . S
O54 Sc44 2.105 . S
O54 C48 1.268 . S
O55 Sc45 2.105 . S
O55 C49 1.268 . S
O56 Sc46 2.105 . S
O56 C50 1.268 . S
O57 Sc44 2.105 . S
O57 C51 1.268 . S
O58 Sc46 2.105 . S
O58 C52 1.268 . S
O59 Sc45 2.105 . S
O59 C53 1.268 . S
O60 Sc44 2.105 . S
O60 C52 1.268 . S
O61 Sc45 2.105 . S
O61 C51 1.268 . S
O62 Sc46 2.105 . S
O62 C53 1.268 . S
O63 Sc44 2.105 . S
O63 C49 1.268 . S
O64 Sc46 2.105 . S
O64 C48 1.268 . S
O65 Sc45 2.105 . S
O65 C50 1.268 . S
Sc66 O69 2.025 . S
Sc66 O76 2.105 . S
Sc66 O79 2.105 . S
Sc66 O82 2.105 . S
Sc66 O85 2.105 . S
Sc67 O69 2.025 . S
Sc67 O77 2.105 . S
Sc67 O81 2.105 . S
Sc67 O83 2.105 . S
Sc67 O87 2.105 . S
Sc68 O69 2.025 . S
Sc68 O78 2.105 . S
Sc68 O80 2.105 . S
Sc68 O84 2.105 . S
Sc68 O86 2.105 . S
O69 Sc66 2.025 . S
O69 Sc67 2.025 . S
O69 Sc68 2.025 . S
C70 O76 1.268 . S
C70 O86 1.268 . S
C71 O77 1.268 . S
C71 O85 1.268 . S
C72 O78 1.268 . S
C72 O87 1.268 . S
C73 O79 1.268 . S
C73 O83 1.268 . S
C74 O80 1.268 . S
C74 O82 1.268 . S
C75 O81 1.268 . S
C75 O84 1.268 . S
O76 Sc66 2.105 . S
O76 C70 1.268 . S
O77 Sc67 2.105 . S
O77 C71 1.268 . S
O78 Sc68 2.105 . S
O78 C72 1.268 . S
O79 Sc66 2.105 . S
O79 C73 1.268 . S
O80 Sc68 2.105 . S
O80 C74 1.268 . S
O81 Sc67 2.105 . S
O81 C75 1.268 . S
O82 Sc66 2.105 . S
O82 C74 1.268 . S
O83 Sc67 2.105 . S
O83 C73 1.268 . S
O84 Sc68 2.105 . S
O84 C75 1.268 . S
O85 Sc66 2.105 . S
O85 C71 1.268 . S
O86 Sc68 2.105 . S
O86 C70 1.268 . S
O87 Sc67 2.105 . S
O87 C72 1.268 . S
Sc88 O91 2.025 . S
Sc88 O98 2.105 . S
Sc88 O101 2.105 . S
Sc88 O104 2.105 . S
Sc88 O107 2.105 . S
Sc89 O91 2.025 . S
Sc89 O99 2.105 . S
Sc89 O103 2.105 . S
Sc89 O105 2.105 . S
Sc89 O109 2.105 . S
Sc90 O91 2.025 . S
Sc90 O100 2.105 . S
Sc90 O102 2.105 . S
Sc90 O106 2.105 . S
Sc90 O108 2.105 . S
O91 Sc88 2.025 . S
O91 Sc89 2.025 . S
O91 Sc90 2.025 . S
C92 O98 1.268 . S
C92 O108 1.268 . S
C93 O99 1.268 . S
C93 O107 1.268 . S
C94 O100 1.268 . S
C94 O109 1.268 . S
C95 O101 1.268 . S
C95 O105 1.268 . S
C96 O102 1.268 . S
C96 O104 1.268 . S
C97 O103 1.268 . S
C97 O106 1.268 . S
O98 Sc88 2.105 . S
O98 C92 1.268 . S
O99 Sc89 2.105 . S
O99 C93 1.268 . S
O100 Sc90 2.105 . S
O100 C94 1.268 . S
O101 Sc88 2.105 . S
O101 C95 1.268 . S
O102 Sc90 2.105 . S
O102 C96 1.268 . S
O103 Sc89 2.105 . S
O103 C97 1.268 . S
O104 Sc88 2.105 . S
O104 C96 1.268 . S
O105 Sc89 2.105 . S
O105 C95 1.268 . S
O106 Sc90 2.105 . S
O106 C97 1.268 . S
O107 Sc88 2.105 . S
O107 C93 1.268 . S
O108 Sc90 2.105 . S
O108 C92 1.268 . S
O109 Sc89 2.105 . S
O109 C94 1.268 . S
Sc110 O113 2.025 . S
Sc110 O120 2.105 . S
Sc110 O123 2.105 . S
Sc110 O126 2.105 . S
Sc110 O129 2.105 . S
Sc111 O113 2.025 . S
Sc111 O121 2.105 . S
Sc111 O125 2.105 . S
Sc111 O127 2.105 . S
Sc111 O131 2.105 . S
Sc112 O113 2.025 . S
Sc112 O122 2.105 . S
Sc112 O124 2.105 . S
Sc112 O128 2.105 . S
Sc112 O130 2.105 . S
O113 Sc110 2.025 . S
O113 Sc111 2.025 . S
O113 Sc112 2.025 . S
C114 O120 1.268 . S
C114 O130 1.268 . S
C115 O121 1.268 . S
C115 O129 1.268 . S
C116 O122 1.268 . S
C116 O131 1.268 . S
C117 O123 1.268 . S
C117 O127 1.268 . S
C118 O124 1.268 . S
C118 O126 1.268 . S
C119 O125 1.268 . S
C119 O128 1.268 . S
O120 Sc110 2.105 . S
O120 C114 1.268 . S
O121 Sc111 2.105 . S
O121 C115 1.268 . S
O122 Sc112 2.105 . S
O122 C116 1.268 . S
O123 Sc110 2.105 . S
O123 C117 1.268 . S
O124 Sc112 2.105 . S
O124 C118 1.268 . S
O125 Sc111 2.105 . S
O125 C119 1.268 . S
O126 Sc110 2.105 . S
O126 C118 1.268 . S
O127 Sc111 2.105 . S
O127 C117 1.268 . S
O128 Sc112 2.105 . S
O128 C119 1.268 . S
O129 Sc110 2.105 . S
O129 C115 1.268 . S
O130 Sc112 2.105 . S
O130 C114 1.268 . S
O131 Sc111 2.105 . S
O131 C116 1.268 . S
Sc132 O135 2.025 . S
Sc132 O142 2.105 . S
Sc132 O145 2.105 . S
Sc132 O148 2.105 . S
Sc132 O151 2.105 . S
Sc133 O135 2.025 . S
Sc133 O143 2.105 . S
Sc133 O147 2.105 . S
Sc133 O149 2.105 . S
Sc133 O153 2.105 . S
Sc134 O135 2.025 . S
Sc134 O144 2.105 . S
Sc134 O146 2.105 . S
Sc134 O150 2.105 . S
Sc134 O152 2.105 . S
O135 Sc132 2.025 . S
O135 Sc133 2.025 . S
O135 Sc134 2.025 . S
C136 O142 1.268 . S
C136 O152 1.268 . S
C137 O143 1.268 . S
C137 O151 1.268 . S
C138 O144 1.268 . S
C138 O153 1.268 . S
C139 O145 1.268 . S
C139 O149 1.268 . S
C140 O146 1.268 . S
C140 O148 1.268 . S
C141 O147 1.268 . S
C141 O150 1.268 . S
O142 Sc132 2.105 . S
O142 C136 1.268 . S
O143 Sc133 2.105 . S
O143 C137 1.268 . S
O144 Sc134 2.105 . S
O144 C138 1.268 . S
O145 Sc132 2.105 . S
O145 C139 1.268 . S
O146 Sc134 2.105 . S
O146 C140 1.268 . S
O147 Sc133 2.105 . S
O147 C141 1.268 . S
O148 Sc132 2.105 . S
O148 C140 1.268 . S
O149 Sc133 2.105 . S
O149 C139 1.268 . S
O150 Sc134 2.105 . S
O150 C141 1.268 . S
O151 Sc132 2.105 . S
O151 C137 1.268 . S
O152 Sc134 2.105 . S
O152 C136 1.268 . S
O153 Sc133 2.105 . S
O153 C138 1.268 . S
Sc154 O157 2.025 . S
Sc154 O164 2.105 . S
Sc154 O167 2.105 . S
Sc154 O170 2.105 . S
Sc154 O173 2.105 . S
Sc155 O157 2.025 . S
Sc155 O165 2.105 . S
Sc155 O169 2.105 . S
Sc155 O171 2.105 . S
Sc155 O175 2.105 . S
Sc156 O157 2.025 . S
Sc156 O166 2.105 . S
Sc156 O168 2.105 . S
Sc156 O172 2.105 . S
Sc156 O174 2.105 . S
O157 Sc154 2.025 . S
O157 Sc155 2.025 . S
O157 Sc156 2.025 . S
C158 O164 1.268 . S
C158 O174 1.268 . S
C159 O165 1.268 . S
C159 O173 1.268 . S
C160 O166 1.268 . S
C160 O175 1.268 . S
C161 O167 1.268 . S
C161 O171 1.268 . S
C162 O168 1.268 . S
C162 O170 1.268 . S
C163 O169 1.268 . S
C163 O172 1.268 . S
O164 Sc154 2.105 . S
O164 C158 1.268 . S
O165 Sc155 2.105 . S
O165 C159 1.268 . S
O166 Sc156 2.105 . S
O166 C160 1.268 . S
O167 Sc154 2.105 . S
O167 C161 1.268 . S
O168 Sc156 2.105 . S
O168 C162 1.268 . S
O169 Sc155 2.105 . S
O169 C163 1.268 . S
O170 Sc154 2.105 . S
O170 C162 1.268 . S
O171 Sc155 2.105 . S
O171 C161 1.268 . S
O172 Sc156 2.105 . S
O172 C163 1.268 . S
O173 Sc154 2.105 . S
O173 C159 1.268 . S
O174 Sc156 2.105 . S
O174 C158 1.268 . S
O175 Sc155 2.105 . S
O175 C160 1.268 . S
H176 C194 0.951 . S
H177 C196 0.951 . S
H178 C198 0.950 . S
H179 C199 0.950 . S
H180 C201 0.950 . S
H181 C204 0.950 . S
H182 C205 0.950 . S
H183 C207 0.950 . S
H184 C208 0.950 . S
H185 C209 0.951 . S
H186 C211 0.951 . S
H187 C213 0.950 . S
H188 C214 0.950 . S
H189 C216 0.950 . S
H190 C219 0.950 . S
H191 C220 0.950 . S
H192 C222 0.950 . S
H193 C223 0.950 . S
C194 H176 0.951 . S
C194 C195 1.366 . S
C194 C196 1.388 . S
C195 C194 1.366 . S
C195 C199 1.385 . S
C196 H177 0.951 . S
C196 C194 1.388 . S
C196 C197 1.366 . S
C197 C196 1.366 . S
C197 C198 1.414 . S
C197 C200 1.499 . S
C198 H178 0.950 . S
C198 C197 1.414 . S
C198 C199 1.374 . S
C199 H179 0.950 . S
C199 C195 1.385 . S
C199 C198 1.374 . S
C200 C197 1.499 . S
C200 C201 1.373 . S
C200 C202 1.389 . S
C201 H180 0.950 . S
C201 C200 1.373 . S
C201 C217 1.377 . S
C202 C200 1.389 . S
C202 C203 1.524 . S
C202 C216 1.377 . S
C203 C202 1.524 . S
C203 C204 1.397 . S
C203 C208 1.363 . S
C204 H181 0.950 . S
C204 C203 1.397 . S
C204 C205 1.334 . S
C205 H182 0.950 . S
C205 C204 1.334 . S
C205 C206 1.287 . S
C206 C205 1.287 . S
C206 C207 1.524 . S
C206 H225 0.913 . S
C207 H183 0.950 . S
C207 C206 1.524 . S
C207 C208 1.415 . S
C208 H184 0.950 . S
C208 C203 1.363 . S
C208 C207 1.415 . S
C209 H185 0.951 . S
C209 C210 1.366 . S
C209 C211 1.388 . S
C210 C209 1.366 . S
C210 C214 1.385 . S
C211 H186 0.951 . S
C211 C209 1.388 . S
C211 C212 1.366 . S
C212 C211 1.366 . S
C212 C213 1.414 . S
C212 C215 1.499 . S
C213 H187 0.950 . S
C213 C212 1.414 . S
C213 C214 1.374 . S
C214 H188 0.950 . S
C214 C210 1.385 . S
C214 C213 1.374 . S
C215 C212 1.499 . S
C215 C216 1.373 . S
C215 C217 1.389 . S
C216 H189 0.950 . S
C216 C202 1.377 . S
C216 C215 1.373 . S
C217 C201 1.377 . S
C217 C215 1.389 . S
C217 C218 1.524 . S
C218 C217 1.524 . S
C218 C219 1.397 . S
C218 C223 1.363 . S
C219 H190 0.950 . S
C219 C218 1.397 . S
C219 C220 1.334 . S
C220 H191 0.950 . S
C220 C219 1.334 . S
C220 C221 1.287 . S
C221 C220 1.287 . S
C221 C222 1.524 . S
C221 H224 0.999 . S
C222 H192 0.950 . S
C222 C221 1.524 . S
C222 C223 1.415 . S
C223 H193 0.950 . S
C223 C218 1.363 . S
C223 C222 1.415 . S
H224 C221 0.999 . S
H225 C206 0.913 . S
H226 C244 0.951 . S
H227 C246 0.951 . S
H228 C248 0.950 . S
H229 C249 0.950 . S
H230 C251 0.950 . S
H231 C254 0.950 . S
H232 C255 0.950 . S
H233 C257 0.950 . S
H234 C258 0.950 . S
H235 C259 0.951 . S
H236 C261 0.951 . S
H237 C263 0.950 . S
H238 C264 0.950 . S
H239 C266 0.950 . S
H240 C269 0.950 . S
H241 C270 0.950 . S
H242 C272 0.950 . S
H243 C273 0.950 . S
C244 H226 0.951 . S
C244 C245 1.366 . S
C244 C246 1.388 . S
C245 C244 1.366 . S
C245 C249 1.385 . S
C246 H227 0.951 . S
C246 C244 1.388 . S
C246 C247 1.366 . S
C247 C246 1.366 . S
C247 C248 1.414 . S
C247 C250 1.499 . S
C248 H228 0.950 . S
C248 C247 1.414 . S
C248 C249 1.374 . S
C249 H229 0.950 . S
C249 C245 1.385 . S
C249 C248 1.374 . S
C250 C247 1.499 . S
C250 C251 1.373 . S
C250 C252 1.389 . S
C251 H230 0.950 . S
C251 C250 1.373 . S
C251 C267 1.377 . S
C252 C250 1.389 . S
C252 C253 1.524 . S
C252 C266 1.377 . S
C253 C252 1.524 . S
C253 C254 1.397 . S
C253 C258 1.363 . S
C254 H231 0.950 . S
C254 C253 1.397 . S
C254 C255 1.334 . S
C255 H232 0.950 . S
C255 C254 1.334 . S
C255 C256 1.287 . S
C256 C255 1.287 . S
C256 C257 1.524 . S
C256 H275 0.913 . S
C257 H233 0.950 . S
C257 C256 1.524 . S
C257 C258 1.415 . S
C258 H234 0.950 . S
C258 C253 1.363 . S
C258 C257 1.415 . S
C259 H235 0.951 . S
C259 C260 1.366 . S
C259 C261 1.388 . S
C260 C259 1.366 . S
C260 C264 1.385 . S
C261 H236 0.951 . S
C261 C259 1.388 . S
C261 C262 1.366 . S
C262 C261 1.366 . S
C262 C263 1.414 . S
C262 C265 1.499 . S
C263 H237 0.950 . S
C263 C262 1.414 . S
C263 C264 1.374 . S
C264 H238 0.950 . S
C264 C260 1.385 . S
C264 C263 1.374 . S
C265 C262 1.499 . S
C265 C266 1.373 . S
C265 C267 1.389 . S
C266 H239 0.950 . S
C266 C252 1.377 . S
C266 C265 1.373 . S
C267 C251 1.377 . S
C267 C265 1.389 . S
C267 C268 1.524 . S
C268 C267 1.524 . S
C268 C269 1.397 . S
C268 C273 1.363 . S
C269 H240 0.950 . S
C269 C268 1.397 . S
C269 C270 1.334 . S
C270 H241 0.950 . S
C270 C269 1.334 . S
C270 C271 1.287 . S
C271 C270 1.287 . S
C271 C272 1.524 . S
C271 H274 0.999 . S
C272 H242 0.950 . S
C272 C271 1.524 . S
C272 C273 1.415 . S
C273 H243 0.950 . S
C273 C268 1.363 . S
C273 C272 1.415 . S
H274 C271 0.999 . S
H275 C256 0.913 . S
H276 C294 0.951 . S
H277 C296 0.951 . S
H278 C298 0.950 . S
H279 C299 0.950 . S
H280 C301 0.950 . S
H281 C304 0.950 . S
H282 C305 0.950 . S
H283 C307 0.950 . S
H284 C308 0.950 . S
H285 C309 0.951 . S
H286 C311 0.951 . S
H287 C313 0.950 . S
H288 C314 0.950 . S
H289 C316 0.950 . S
H290 C319 0.950 . S
H291 C320 0.950 . S
H292 C322 0.950 . S
H293 C323 0.950 . S
C294 H276 0.951 . S
C294 C295 1.366 . S
C294 C296 1.388 . S
C295 C294 1.366 . S
C295 C299 1.385 . S
C296 H277 0.951 . S
C296 C294 1.388 . S
C296 C297 1.366 . S
C297 C296 1.366 . S
C297 C298 1.414 . S
C297 C300 1.499 . S
C298 H278 0.950 . S
C298 C297 1.414 . S
C298 C299 1.374 . S
C299 H279 0.950 . S
C299 C295 1.385 . S
C299 C298 1.374 . S
C300 C297 1.499 . S
C300 C301 1.373 . S
C300 C302 1.389 . S
C301 H280 0.950 . S
C301 C300 1.373 . S
C301 C317 1.377 . S
C302 C300 1.389 . S
C302 C303 1.524 . S
C302 C316 1.377 . S
C303 C302 1.524 . S
C303 C304 1.397 . S
C303 C308 1.363 . S
C304 H281 0.950 . S
C304 C303 1.397 . S
C304 C305 1.334 . S
C305 H282 0.950 . S
C305 C304 1.334 . S
C305 C306 1.287 . S
C306 C305 1.287 . S
C306 C307 1.524 . S
C306 H325 0.913 . S
C307 H283 0.950 . S
C307 C306 1.524 . S
C307 C308 1.415 . S
C308 H284 0.950 . S
C308 C303 1.363 . S
C308 C307 1.415 . S
C309 H285 0.951 . S
C309 C310 1.366 . S
C309 C311 1.388 . S
C310 C309 1.366 . S
C310 C314 1.385 . S
C311 H286 0.951 . S
C311 C309 1.388 . S
C311 C312 1.366 . S
C312 C311 1.366 . S
C312 C313 1.414 . S
C312 C315 1.499 . S
C313 H287 0.950 . S
C313 C312 1.414 . S
C313 C314 1.374 . S
C314 H288 0.950 . S
C314 C310 1.385 . S
C314 C313 1.374 . S
C315 C312 1.499 . S
C315 C316 1.373 . S
C315 C317 1.389 . S
C316 H289 0.950 . S
C316 C302 1.377 . S
C316 C315 1.373 . S
C317 C301 1.377 . S
C317 C315 1.389 . S
C317 C318 1.524 . S
C318 C317 1.524 . S
C318 C319 1.397 . S
C318 C323 1.363 . S
C319 H290 0.950 . S
C319 C318 1.397 . S
C319 C320 1.334 . S
C320 H291 0.950 . S
C320 C319 1.334 . S
C320 C321 1.287 . S
C321 C320 1.287 . S
C321 C322 1.524 . S
C321 H324 0.999 . S
C322 H292 0.950 . S
C322 C321 1.524 . S
C322 C323 1.415 . S
C323 H293 0.950 . S
C323 C318 1.363 . S
C323 C322 1.415 . S
H324 C321 0.999 . S
H325 C306 0.913 . S
H326 C344 0.951 . S
H327 C346 0.951 . S
H328 C348 0.950 . S
H329 C349 0.950 . S
H330 C351 0.950 . S
H331 C354 0.950 . S
H332 C355 0.950 . S
H333 C357 0.950 . S
H334 C358 0.950 . S
H335 C359 0.951 . S
H336 C361 0.951 . S
H337 C363 0.950 . S
H338 C364 0.950 . S
H339 C366 0.950 . S
H340 C369 0.950 . S
H341 C370 0.950 . S
H342 C372 0.950 . S
H343 C373 0.950 . S
C344 H326 0.951 . S
C344 C345 1.366 . S
C344 C346 1.388 . S
C345 C344 1.366 . S
C345 C349 1.385 . S
C346 H327 0.951 . S
C346 C344 1.388 . S
C346 C347 1.366 . S
C347 C346 1.366 . S
C347 C348 1.414 . S
C347 C350 1.499 . S
C348 H328 0.950 . S
C348 C347 1.414 . S
C348 C349 1.374 . S
C349 H329 0.950 . S
C349 C345 1.385 . S
C349 C348 1.374 . S
C350 C347 1.499 . S
C350 C351 1.373 . S
C350 C352 1.389 . S
C351 H330 0.950 . S
C351 C350 1.373 . S
C351 C367 1.377 . S
C352 C350 1.389 . S
C352 C353 1.524 . S
C352 C366 1.377 . S
C353 C352 1.524 . S
C353 C354 1.397 . S
C353 C358 1.363 . S
C354 H331 0.950 . S
C354 C353 1.397 . S
C354 C355 1.334 . S
C355 H332 0.950 . S
C355 C354 1.334 . S
C355 C356 1.287 . S
C356 C355 1.287 . S
C356 C357 1.524 . S
C356 H375 0.913 . S
C357 H333 0.950 . S
C357 C356 1.524 . S
C357 C358 1.415 . S
C358 H334 0.950 . S
C358 C353 1.363 . S
C358 C357 1.415 . S
C359 H335 0.951 . S
C359 C360 1.366 . S
C359 C361 1.388 . S
C360 C359 1.366 . S
C360 C364 1.385 . S
C361 H336 0.951 . S
C361 C359 1.388 . S
C361 C362 1.366 . S
C362 C361 1.366 . S
C362 C363 1.414 . S
C362 C365 1.499 . S
C363 H337 0.950 . S
C363 C362 1.414 . S
C363 C364 1.374 . S
C364 H338 0.950 . S
C364 C360 1.385 . S
C364 C363 1.374 . S
C365 C362 1.499 . S
C365 C366 1.373 . S
C365 C367 1.389 . S
C366 H339 0.950 . S
C366 C352 1.377 . S
C366 C365 1.373 . S
C367 C351 1.377 . S
C367 C365 1.389 . S
C367 C368 1.524 . S
C368 C367 1.524 . S
C368 C369 1.397 . S
C368 C373 1.363 . S
C369 H340 0.950 . S
C369 C368 1.397 . S
C369 C370 1.334 . S
C370 H341 0.950 . S
C370 C369 1.334 . S
C370 C371 1.287 . S
C371 C370 1.287 . S
C371 C372 1.524 . S
C371 H374 0.999 . S
C372 H342 0.950 . S
C372 C371 1.524 . S
C372 C373 1.415 . S
C373 H343 0.950 . S
C373 C368 1.363 . S
C373 C372 1.415 . S
H374 C371 0.999 . S
H375 C356 0.913 . S
H376 C394 0.951 . S
H377 C396 0.951 . S
H378 C398 0.950 . S
H379 C399 0.950 . S
H380 C401 0.950 . S
H381 C404 0.950 . S
H382 C405 0.950 . S
H383 C407 0.950 . S
H384 C408 0.950 . S
H385 C409 0.951 . S
H386 C411 0.951 . S
H387 C413 0.950 . S
H388 C414 0.950 . S
H389 C416 0.950 . S
H390 C419 0.950 . S
H391 C420 0.950 . S
H392 C422 0.950 . S
H393 C423 0.950 . S
C394 H376 0.951 . S
C394 C395 1.366 . S
C394 C396 1.388 . S
C395 C394 1.366 . S
C395 C399 1.385 . S
C396 H377 0.951 . S
C396 C394 1.388 . S
C396 C397 1.366 . S
C397 C396 1.366 . S
C397 C398 1.414 . S
C397 C400 1.499 . S
C398 H378 0.950 . S
C398 C397 1.414 . S
C398 C399 1.374 . S
C399 H379 0.950 . S
C399 C395 1.385 . S
C399 C398 1.374 . S
C400 C397 1.499 . S
C400 C401 1.373 . S
C400 C402 1.389 . S
C401 H380 0.950 . S
C401 C400 1.373 . S
C401 C417 1.377 . S
C402 C400 1.389 . S
C402 C403 1.524 . S
C402 C416 1.377 . S
C403 C402 1.524 . S
C403 C404 1.397 . S
C403 C408 1.363 . S
C404 H381 0.950 . S
C404 C403 1.397 . S
C404 C405 1.334 . S
C405 H382 0.950 . S
C405 C404 1.334 . S
C405 C406 1.287 . S
C406 C405 1.287 . S
C406 C407 1.524 . S
C406 H425 0.913 . S
C407 H383 0.950 . S
C407 C406 1.524 . S
C407 C408 1.415 . S
C408 H384 0.950 . S
C408 C403 1.363 . S
C408 C407 1.415 . S
C409 H385 0.951 . S
C409 C410 1.366 . S
C409 C411 1.388 . S
C410 C409 1.366 . S
C410 C414 1.385 . S
C411 H386 0.951 . S
C411 C409 1.388 . S
C411 C412 1.366 . S
C412 C411 1.366 . S
C412 C413 1.414 . S
C412 C415 1.499 . S
C413 H387 0.950 . S
C413 C412 1.414 . S
C413 C414 1.374 . S
C414 H388 0.950 . S
C414 C410 1.385 . S
C414 C413 1.374 . S
C415 C412 1.499 . S
C415 C416 1.373 . S
C415 C417 1.389 . S
C416 H389 0.950 . S
C416 C402 1.377 . S
C416 C415 1.373 . S
C417 C401 1.377 . S
C417 C415 1.389 . S
C417 C418 1.524 . S
C418 C417 1.524 . S
C418 C419 1.397 . S
C418 C423 1.363 . S
C419 H390 0.950 . S
C419 C418 1.397 . S
C419 C420 1.334 . S
C420 H391 0.950 . S
C420 C419 1.334 . S
C420 C421 1.287 . S
C421 C420 1.287 . S
C421 C422 1.524 . S
C421 H424 0.999 . S
C422 H392 0.950 . S
C422 C421 1.524 . S
C422 C423 1.415 . S
C423 H393 0.950 . S
C423 C418 1.363 . S
C423 C422 1.415 . S
H424 C421 0.999 . S
H425 C406 0.913 . S
H426 C444 0.951 . S
H427 C446 0.951 . S
H428 C448 0.950 . S
H429 C449 0.950 . S
H430 C451 0.950 . S
H431 C454 0.950 . S
H432 C455 0.950 . S
H433 C457 0.950 . S
H434 C458 0.950 . S
H435 C459 0.951 . S
H436 C461 0.951 . S
H437 C463 0.950 . S
H438 C464 0.950 . S
H439 C466 0.950 . S
H440 C469 0.950 . S
H441 C470 0.950 . S
H442 C472 0.950 . S
H443 C473 0.950 . S
C444 H426 0.951 . S
C444 C445 1.366 . S
C444 C446 1.388 . S
C445 C444 1.366 . S
C445 C449 1.385 . S
C446 H427 0.951 . S
C446 C444 1.388 . S
C446 C447 1.366 . S
C447 C446 1.366 . S
C447 C448 1.414 . S
C447 C450 1.499 . S
C448 H428 0.950 . S
C448 C447 1.414 . S
C448 C449 1.374 . S
C449 H429 0.950 . S
C449 C445 1.385 . S
C449 C448 1.374 . S
C450 C447 1.499 . S
C450 C451 1.373 . S
C450 C452 1.389 . S
C451 H430 0.950 . S
C451 C450 1.373 . S
C451 C467 1.377 . S
C452 C450 1.389 . S
C452 C453 1.524 . S
C452 C466 1.377 . S
C453 C452 1.524 . S
C453 C454 1.397 . S
C453 C458 1.363 . S
C454 H431 0.950 . S
C454 C453 1.397 . S
C454 C455 1.334 . S
C455 H432 0.950 . S
C455 C454 1.334 . S
C455 C456 1.287 . S
C456 C455 1.287 . S
C456 C457 1.524 . S
C456 H475 0.913 . S
C457 H433 0.950 . S
C457 C456 1.524 . S
C457 C458 1.415 . S
C458 H434 0.950 . S
C458 C453 1.363 . S
C458 C457 1.415 . S
C459 H435 0.951 . S
C459 C460 1.366 . S
C459 C461 1.388 . S
C460 C459 1.366 . S
C460 C464 1.385 . S
C461 H436 0.951 . S
C461 C459 1.388 . S
C461 C462 1.366 . S
C462 C461 1.366 . S
C462 C463 1.414 . S
C462 C465 1.499 . S
C463 H437 0.950 . S
C463 C462 1.414 . S
C463 C464 1.374 . S
C464 H438 0.950 . S
C464 C460 1.385 . S
C464 C463 1.374 . S
C465 C462 1.499 . S
C465 C466 1.373 . S
C465 C467 1.389 . S
C466 H439 0.950 . S
C466 C452 1.377 . S
C466 C465 1.373 . S
C467 C451 1.377 . S
C467 C465 1.389 . S
C467 C468 1.524 . S
C468 C467 1.524 . S
C468 C469 1.397 . S
C468 C473 1.363 . S
C469 H440 0.950 . S
C469 C468 1.397 . S
C469 C470 1.334 . S
C470 H441 0.950 . S
C470 C469 1.334 . S
C470 C471 1.287 . S
C471 C470 1.287 . S
C471 C472 1.524 . S
C471 H474 0.999 . S
C472 H442 0.950 . S
C472 C471 1.524 . S
C472 C473 1.415 . S
C473 H443 0.950 . S
C473 C468 1.363 . S
C473 C472 1.415 . S
H474 C471 0.999 . S
H475 C456 0.913 . S
H476 C494 0.951 . S
H477 C496 0.951 . S
H478 C498 0.950 . S
H479 C499 0.950 . S
H480 C501 0.950 . S
H481 C504 0.950 . S
H482 C505 0.950 . S
H483 C507 0.950 . S
H484 C508 0.950 . S
H485 C509 0.951 . S
H486 C511 0.951 . S
H487 C513 0.950 . S
H488 C514 0.950 . S
H489 C516 0.950 . S
H490 C519 0.950 . S
H491 C520 0.950 . S
H492 C522 0.950 . S
H493 C523 0.950 . S
C494 H476 0.951 . S
C494 C495 1.366 . S
C494 C496 1.388 . S
C495 C494 1.366 . S
C495 C499 1.385 . S
C496 H477 0.951 . S
C496 C494 1.388 . S
C496 C497 1.366 . S
C497 C496 1.366 . S
C497 C498 1.414 . S
C497 C500 1.499 . S
C498 H478 0.950 . S
C498 C497 1.414 . S
C498 C499 1.374 . S
C499 H479 0.950 . S
C499 C495 1.385 . S
C499 C498 1.374 . S
C500 C497 1.499 . S
C500 C501 1.373 . S
C500 C502 1.389 . S
C501 H480 0.950 . S
C501 C500 1.373 . S
C501 C517 1.377 . S
C502 C500 1.389 . S
C502 C503 1.524 . S
C502 C516 1.377 . S
C503 C502 1.524 . S
C503 C504 1.397 . S
C503 C508 1.363 . S
C504 H481 0.950 . S
C504 C503 1.397 . S
C504 C505 1.334 . S
C505 H482 0.950 . S
C505 C504 1.334 . S
C505 C506 1.287 . S
C506 C505 1.287 . S
C506 C507 1.524 . S
C506 H525 0.913 . S
C507 H483 0.950 . S
C507 C506 1.524 . S
C507 C508 1.415 . S
C508 H484 0.950 . S
C508 C503 1.363 . S
C508 C507 1.415 . S
C509 H485 0.951 . S
C509 C510 1.366 . S
C509 C511 1.388 . S
C510 C509 1.366 . S
C510 C514 1.385 . S
C511 H486 0.951 . S
C511 C509 1.388 . S
C511 C512 1.366 . S
C512 C511 1.366 . S
C512 C513 1.414 . S
C512 C515 1.499 . S
C513 H487 0.950 . S
C513 C512 1.414 . S
C513 C514 1.374 . S
C514 H488 0.950 . S
C514 C510 1.385 . S
C514 C513 1.374 . S
C515 C512 1.499 . S
C515 C516 1.373 . S
C515 C517 1.389 . S
C516 H489 0.950 . S
C516 C502 1.377 . S
C516 C515 1.373 . S
C517 C501 1.377 . S
C517 C515 1.389 . S
C517 C518 1.524 . S
C518 C517 1.524 . S
C518 C519 1.397 . S
C518 C523 1.363 . S
C519 H490 0.950 . S
C519 C518 1.397 . S
C519 C520 1.334 . S
C520 H491 0.950 . S
C520 C519 1.334 . S
C520 C521 1.287 . S
C521 C520 1.287 . S
C521 C522 1.524 . S
C521 H524 0.999 . S
C522 H492 0.950 . S
C522 C521 1.524 . S
C522 C523 1.415 . S
C523 H493 0.950 . S
C523 C518 1.363 . S
C523 C522 1.415 . S
H524 C521 0.999 . S
H525 C506 0.913 . S
H526 C544 0.951 . S
H527 C546 0.951 . S
H528 C548 0.950 . S
H529 C549 0.950 . S
H530 C551 0.950 . S
H531 C554 0.950 . S
H532 C555 0.950 . S
H533 C557 0.950 . S
H534 C558 0.950 . S
H535 C559 0.951 . S
H536 C561 0.951 . S
H537 C563 0.950 . S
H538 C564 0.950 . S
H539 C566 0.950 . S
H540 C569 0.950 . S
H541 C570 0.950 . S
H542 C572 0.950 . S
H543 C573 0.950 . S
C544 H526 0.951 . S
C544 C545 1.366 . S
C544 C546 1.388 . S
C545 C544 1.366 . S
C545 C549 1.385 . S
C546 H527 0.951 . S
C546 C544 1.388 . S
C546 C547 1.366 . S
C547 C546 1.366 . S
C547 C548 1.414 . S
C547 C550 1.499 . S
C548 H528 0.950 . S
C548 C547 1.414 . S
C548 C549 1.374 . S
C549 H529 0.950 . S
C549 C545 1.385 . S
C549 C548 1.374 . S
C550 C547 1.499 . S
C550 C551 1.373 . S
C550 C552 1.389 . S
C551 H530 0.950 . S
C551 C550 1.373 . S
C551 C567 1.377 . S
C552 C550 1.389 . S
C552 C553 1.524 . S
C552 C566 1.377 . S
C553 C552 1.524 . S
C553 C554 1.397 . S
C553 C558 1.363 . S
C554 H531 0.950 . S
C554 C553 1.397 . S
C554 C555 1.334 . S
C555 H532 0.950 . S
C555 C554 1.334 . S
C555 C556 1.287 . S
C556 C555 1.287 . S
C556 C557 1.524 . S
C556 H575 0.913 . S
C557 H533 0.950 . S
C557 C556 1.524 . S
C557 C558 1.415 . S
C558 H534 0.950 . S
C558 C553 1.363 . S
C558 C557 1.415 . S
C559 H535 0.951 . S
C559 C560 1.366 . S
C559 C561 1.388 . S
C560 C559 1.366 . S
C560 C564 1.385 . S
C561 H536 0.951 . S
C561 C559 1.388 . S
C561 C562 1.366 . S
C562 C561 1.366 . S
C562 C563 1.414 . S
C562 C565 1.499 . S
C563 H537 0.950 . S
C563 C562 1.414 . S
C563 C564 1.374 . S
C564 H538 0.950 . S
C564 C560 1.385 . S
C564 C563 1.374 . S
C565 C562 1.499 . S
C565 C566 1.373 . S
C565 C567 1.389 . S
C566 H539 0.950 . S
C566 C552 1.377 . S
C566 C565 1.373 . S
C567 C551 1.377 . S
C567 C565 1.389 . S
C567 C568 1.524 . S
C568 C567 1.524 . S
C568 C569 1.397 . S
C568 C573 1.363 . S
C569 H540 0.950 . S
C569 C568 1.397 . S
C569 C570 1.334 . S
C570 H541 0.950 . S
C570 C569 1.334 . S
C570 C571 1.287 . S
C571 C570 1.287 . S
C571 C572 1.524 . S
C571 H574 0.999 . S
C572 H542 0.950 . S
C572 C571 1.524 . S
C572 C573 1.415 . S
C573 H543 0.950 . S
C573 C568 1.363 . S
C573 C572 1.415 . S
H574 C571 0.999 . S
H575 C556 0.913 . S
H576 C594 0.951 . S
H577 C596 0.951 . S
H578 C598 0.950 . S
H579 C599 0.950 . S
H580 C601 0.950 . S
H581 C604 0.950 . S
H582 C605 0.950 . S
H583 C607 0.950 . S
H584 C608 0.950 . S
H585 C609 0.951 . S
H586 C611 0.951 . S
H587 C613 0.950 . S
H588 C614 0.950 . S
H589 C616 0.950 . S
H590 C619 0.950 . S
H591 C620 0.950 . S
H592 C622 0.950 . S
H593 C623 0.950 . S
C594 H576 0.951 . S
C594 C595 1.366 . S
C594 C596 1.388 . S
C595 C594 1.366 . S
C595 C599 1.385 . S
C596 H577 0.951 . S
C596 C594 1.388 . S
C596 C597 1.366 . S
C597 C596 1.366 . S
C597 C598 1.414 . S
C597 C600 1.499 . S
C598 H578 0.950 . S
C598 C597 1.414 . S
C598 C599 1.374 . S
C599 H579 0.950 . S
C599 C595 1.385 . S
C599 C598 1.374 . S
C600 C597 1.499 . S
C600 C601 1.373 . S
C600 C602 1.389 . S
C601 H580 0.950 . S
C601 C600 1.373 . S
C601 C617 1.377 . S
C602 C600 1.389 . S
C602 C603 1.524 . S
C602 C616 1.377 . S
C603 C602 1.524 . S
C603 C604 1.397 . S
C603 C608 1.363 . S
C604 H581 0.950 . S
C604 C603 1.397 . S
C604 C605 1.334 . S
C605 H582 0.950 . S
C605 C604 1.334 . S
C605 C606 1.287 . S
C606 C605 1.287 . S
C606 C607 1.524 . S
C606 H625 0.913 . S
C607 H583 0.950 . S
C607 C606 1.524 . S
C607 C608 1.415 . S
C608 H584 0.950 . S
C608 C603 1.363 . S
C608 C607 1.415 . S
C609 H585 0.951 . S
C609 C610 1.366 . S
C609 C611 1.388 . S
C610 C609 1.366 . S
C610 C614 1.385 . S
C611 H586 0.951 . S
C611 C609 1.388 . S
C611 C612 1.366 . S
C612 C611 1.366 . S
C612 C613 1.414 . S
C612 C615 1.499 . S
C613 H587 0.950 . S
C613 C612 1.414 . S
C613 C614 1.374 . S
C614 H588 0.950 . S
C614 C610 1.385 . S
C614 C613 1.374 . S
C615 C612 1.499 . S
C615 C616 1.373 . S
C615 C617 1.389 . S
C616 H589 0.950 . S
C616 C602 1.377 . S
C616 C615 1.373 . S
C617 C601 1.377 . S
C617 C615 1.389 . S
C617 C618 1.524 . S
C618 C617 1.524 . S
C618 C619 1.397 . S
C618 C623 1.363 . S
C619 H590 0.950 . S
C619 C618 1.397 . S
C619 C620 1.334 . S
C620 H591 0.950 . S
C620 C619 1.334 . S
C620 C621 1.287 . S
C621 C620 1.287 . S
C621 C622 1.524 . S
C621 H624 0.999 . S
C622 H592 0.950 . S
C622 C621 1.524 . S
C622 C623 1.415 . S
C623 H593 0.950 . S
C623 C618 1.363 . S
C623 C622 1.415 . S
H624 C621 0.999 . S
H625 C606 0.913 . S
H626 C644 0.951 . S
H627 C646 0.951 . S
H628 C648 0.950 . S
H629 C649 0.950 . S
H630 C651 0.950 . S
H631 C654 0.950 . S
H632 C655 0.950 . S
H633 C657 0.950 . S
H634 C658 0.950 . S
H635 C659 0.951 . S
H636 C661 0.951 . S
H637 C663 0.950 . S
H638 C664 0.950 . S
H639 C666 0.950 . S
H640 C669 0.950 . S
H641 C670 0.950 . S
H642 C672 0.950 . S
H643 C673 0.950 . S
C644 H626 0.951 . S
C644 C645 1.366 . S
C644 C646 1.388 . S
C645 C644 1.366 . S
C645 C649 1.385 . S
C646 H627 0.951 . S
C646 C644 1.388 . S
C646 C647 1.366 . S
C647 C646 1.366 . S
C647 C648 1.414 . S
C647 C650 1.499 . S
C648 H628 0.950 . S
C648 C647 1.414 . S
C648 C649 1.374 . S
C649 H629 0.950 . S
C649 C645 1.385 . S
C649 C648 1.374 . S
C650 C647 1.499 . S
C650 C651 1.373 . S
C650 C652 1.389 . S
C651 H630 0.950 . S
C651 C650 1.373 . S
C651 C667 1.377 . S
C652 C650 1.389 . S
C652 C653 1.524 . S
C652 C666 1.377 . S
C653 C652 1.524 . S
C653 C654 1.397 . S
C653 C658 1.363 . S
C654 H631 0.950 . S
C654 C653 1.397 . S
C654 C655 1.334 . S
C655 H632 0.950 . S
C655 C654 1.334 . S
C655 C656 1.287 . S
C656 C655 1.287 . S
C656 C657 1.524 . S
C656 H675 0.913 . S
C657 H633 0.950 . S
C657 C656 1.524 . S
C657 C658 1.415 . S
C658 H634 0.950 . S
C658 C653 1.363 . S
C658 C657 1.415 . S
C659 H635 0.951 . S
C659 C660 1.366 . S
C659 C661 1.388 . S
C660 C659 1.366 . S
C660 C664 1.385 . S
C661 H636 0.951 . S
C661 C659 1.388 . S
C661 C662 1.366 . S
C662 C661 1.366 . S
C662 C663 1.414 . S
C662 C665 1.499 . S
C663 H637 0.950 . S
C663 C662 1.414 . S
C663 C664 1.374 . S
C664 H638 0.950 . S
C664 C660 1.385 . S
C664 C663 1.374 . S
C665 C662 1.499 . S
C665 C666 1.373 . S
C665 C667 1.389 . S
C666 H639 0.950 . S
C666 C652 1.377 . S
C666 C665 1.373 . S
C667 C651 1.377 . S
C667 C665 1.389 . S
C667 C668 1.524 . S
C668 C667 1.524 . S
C668 C669 1.397 . S
C668 C673 1.363 . S
C669 H640 0.950 . S
C669 C668 1.397 . S
C669 C670 1.334 . S
C670 H641 0.950 . S
C670 C669 1.334 . S
C670 C671 1.287 . S
C671 C670 1.287 . S
C671 C672 1.524 . S
C671 H674 0.999 . S
C672 H642 0.950 . S
C672 C671 1.524 . S
C672 C673 1.415 . S
C673 H643 0.950 . S
C673 C668 1.363 . S
C673 C672 1.415 . S
H674 C671 0.999 . S
H675 C656 0.913 . S
H676 C694 0.951 . S
H677 C696 0.951 . S
H678 C698 0.950 . S
H679 C699 0.950 . S
H680 C701 0.950 . S
H681 C704 0.950 . S
H682 C705 0.950 . S
H683 C707 0.950 . S
H684 C708 0.950 . S
H685 C709 0.951 . S
H686 C711 0.951 . S
H687 C713 0.950 . S
H688 C714 0.950 . S
H689 C716 0.950 . S
H690 C719 0.950 . S
H691 C720 0.950 . S
H692 C722 0.950 . S
H693 C723 0.950 . S
C694 H676 0.951 . S
C694 C695 1.366 . S
C694 C696 1.388 . S
C695 C694 1.366 . S
C695 C699 1.385 . S
C696 H677 0.951 . S
C696 C694 1.388 . S
C696 C697 1.366 . S
C697 C696 1.366 . S
C697 C698 1.414 . S
C697 C700 1.499 . S
C698 H678 0.950 . S
C698 C697 1.414 . S
C698 C699 1.374 . S
C699 H679 0.950 . S
C699 C695 1.385 . S
C699 C698 1.374 . S
C700 C697 1.499 . S
C700 C701 1.373 . S
C700 C702 1.389 . S
C701 H680 0.950 . S
C701 C700 1.373 . S
C701 C717 1.377 . S
C702 C700 1.389 . S
C702 C703 1.524 . S
C702 C716 1.377 . S
C703 C702 1.524 . S
C703 C704 1.397 . S
C703 C708 1.363 . S
C704 H681 0.950 . S
C704 C703 1.397 . S
C704 C705 1.334 . S
C705 H682 0.950 . S
C705 C704 1.334 . S
C705 C706 1.287 . S
C706 C705 1.287 . S
C706 C707 1.524 . S
C706 H725 0.913 . S
C707 H683 0.950 . S
C707 C706 1.524 . S
C707 C708 1.415 . S
C708 H684 0.950 . S
C708 C703 1.363 . S
C708 C707 1.415 . S
C709 H685 0.951 . S
C709 C710 1.366 . S
C709 C711 1.388 . S
C710 C709 1.366 . S
C710 C714 1.385 . S
C711 H686 0.951 . S
C711 C709 1.388 . S
C711 C712 1.366 . S
C712 C711 1.366 . S
C712 C713 1.414 . S
C712 C715 1.499 . S
C713 H687 0.950 . S
C713 C712 1.414 . S
C713 C714 1.374 . S
C714 H688 0.950 . S
C714 C710 1.385 . S
C714 C713 1.374 . S
C715 C712 1.499 . S
C715 C716 1.373 . S
C715 C717 1.389 . S
C716 H689 0.950 . S
C716 C702 1.377 . S
C716 C715 1.373 . S
C717 C701 1.377 . S
C717 C715 1.389 . S
C717 C718 1.524 . S
C718 C717 1.524 . S
C718 C719 1.397 . S
C718 C723 1.363 . S
C719 H690 0.950 . S
C719 C718 1.397 . S
C719 C720 1.334 . S
C720 H691 0.950 . S
C720 C719 1.334 . S
C720 C721 1.287 . S
C721 C720 1.287 . S
C721 C722 1.524 . S
C721 H724 0.999 . S
C722 H692 0.950 . S
C722 C721 1.524 . S
C722 C723 1.415 . S
C723 H693 0.950 . S
C723 C718 1.363 . S
C723 C722 1.415 . S
H724 C721 0.999 . S
H725 C706 0.913 . S
H726 C744 0.951 . S
H727 C746 0.951 . S
H728 C748 0.950 . S
H729 C749 0.950 . S
H730 C751 0.950 . S
H731 C754 0.950 . S
H732 C755 0.950 . S
H733 C757 0.950 . S
H734 C758 0.950 . S
H735 C759 0.951 . S
H736 C761 0.951 . S
H737 C763 0.950 . S
H738 C764 0.950 . S
H739 C766 0.950 . S
H740 C769 0.950 . S
H741 C770 0.950 . S
H742 C772 0.950 . S
H743 C773 0.950 . S
C744 H726 0.951 . S
C744 C745 1.366 . S
C744 C746 1.388 . S
C745 C744 1.366 . S
C745 C749 1.385 . S
C746 H727 0.951 . S
C746 C744 1.388 . S
C746 C747 1.366 . S
C747 C746 1.366 . S
C747 C748 1.414 . S
C747 C750 1.499 . S
C748 H728 0.950 . S
C748 C747 1.414 . S
C748 C749 1.374 . S
C749 H729 0.950 . S
C749 C745 1.385 . S
C749 C748 1.374 . S
C750 C747 1.499 . S
C750 C751 1.373 . S
C750 C752 1.389 . S
C751 H730 0.950 . S
C751 C750 1.373 . S
C751 C767 1.377 . S
C752 C750 1.389 . S
C752 C753 1.524 . S
C752 C766 1.377 . S
C753 C752 1.524 . S
C753 C754 1.397 . S
C753 C758 1.363 . S
C754 H731 0.950 . S
C754 C753 1.397 . S
C754 C755 1.334 . S
C755 H732 0.950 . S
C755 C754 1.334 . S
C755 C756 1.287 . S
C756 C755 1.287 . S
C756 C757 1.524 . S
C756 H775 0.913 . S
C757 H733 0.950 . S
C757 C756 1.524 . S
C757 C758 1.415 . S
C758 H734 0.950 . S
C758 C753 1.363 . S
C758 C757 1.415 . S
C759 H735 0.951 . S
C759 C760 1.366 . S
C759 C761 1.388 . S
C760 C759 1.366 . S
C760 C764 1.385 . S
C761 H736 0.951 . S
C761 C759 1.388 . S
C761 C762 1.366 . S
C762 C761 1.366 . S
C762 C763 1.414 . S
C762 C765 1.499 . S
C763 H737 0.950 . S
C763 C762 1.414 . S
C763 C764 1.374 . S
C764 H738 0.950 . S
C764 C760 1.385 . S
C764 C763 1.374 . S
C765 C762 1.499 . S
C765 C766 1.373 . S
C765 C767 1.389 . S
C766 H739 0.950 . S
C766 C752 1.377 . S
C766 C765 1.373 . S
C767 C751 1.377 . S
C767 C765 1.389 . S
C767 C768 1.524 . S
C768 C767 1.524 . S
C768 C769 1.397 . S
C768 C773 1.363 . S
C769 H740 0.950 . S
C769 C768 1.397 . S
C769 C770 1.334 . S
C770 H741 0.950 . S
C770 C769 1.334 . S
C770 C771 1.287 . S
C771 C770 1.287 . S
C771 C772 1.524 . S
C771 H774 0.999 . S
C772 H742 0.950 . S
C772 C771 1.524 . S
C772 C773 1.415 . S
C773 H743 0.950 . S
C773 C768 1.363 . S
C773 C772 1.415 . S
H774 C771 0.999 . S
H775 C756 0.913 . S
H776 C794 0.951 . S
H777 C796 0.951 . S
H778 C798 0.945 1_554 S
H779 C799 0.950 . S
H780 C801 0.950 . S
H781 C804 0.950 1_554 S
H782 C805 0.950 . S
H783 C807 0.950 . S
H784 C808 0.950 . S
H785 C809 0.951 . S
H786 C811 0.951 . S
H787 C813 0.950 . S
H788 C814 0.945 1_556 S
H789 C816 0.950 . S
H790 C819 0.950 . S
H791 C820 0.950 . S
H792 C822 0.950 . S
H793 C823 0.950 . S
C794 H776 0.951 . S
C794 C795 1.366 . S
C794 C796 1.388 . S
C795 C794 1.366 . S
C795 C799 1.385 . S
C796 H777 0.951 . S
C796 C794 1.388 . S
C796 C797 1.366 . S
C797 C796 1.366 . S
C797 C798 1.414 . S
C797 C800 1.499 . S
C798 H778 0.945 1_556 S
C798 C797 1.414 . S
C798 C799 1.374 . S
C799 H779 0.950 . S
C799 C795 1.385 . S
C799 C798 1.374 . S
C800 C797 1.499 . S
C800 C801 1.373 . S
C800 C802 1.389 . S
C801 H780 0.950 . S
C801 C800 1.373 . S
C801 C817 1.377 . S
C802 C800 1.389 . S
C802 C803 1.524 . S
C802 C816 1.377 . S
C803 C802 1.524 . S
C803 C804 1.397 . S
C803 C808 1.363 . S
C804 H781 0.950 1_556 S
C804 C803 1.397 . S
C804 C805 1.334 . S
C805 H782 0.950 . S
C805 C804 1.334 . S
C805 C806 1.287 . S
C806 C805 1.287 . S
C806 C807 1.524 . S
C806 H825 0.913 . S
C807 H783 0.950 . S
C807 C806 1.524 . S
C807 C808 1.415 . S
C808 H784 0.950 . S
C808 C803 1.363 . S
C808 C807 1.415 . S
C809 H785 0.951 . S
C809 C810 1.366 . S
C809 C811 1.388 . S
C810 C809 1.366 . S
C810 C814 1.385 . S
C811 H786 0.951 . S
C811 C809 1.388 . S
C811 C812 1.366 . S
C812 C811 1.366 . S
C812 C813 1.414 1_554 S
C812 C815 1.498 . S
C813 H787 0.950 . S
C813 C812 1.414 1_556 S
C813 C814 1.374 1_556 S
C814 H788 0.945 1_554 S
C814 C810 1.385 . S
C814 C813 1.374 1_554 S
C815 C812 1.498 . S
C815 C816 1.374 1_554 S
C815 C817 1.389 1_554 S
C816 H789 0.950 . S
C816 C802 1.377 . S
C816 C815 1.374 1_556 S
C817 C801 1.377 . S
C817 C815 1.389 1_556 S
C817 C818 1.524 1_556 S
C818 C817 1.524 1_554 S
C818 C819 1.397 1_554 S
C818 C823 1.363 . S
C819 H790 0.950 . S
C819 C818 1.397 1_556 S
C819 C820 1.334 . S
C820 H791 0.950 . S
C820 C819 1.334 . S
C820 C821 1.287 1_556 S
C821 C820 1.287 1_554 S
C821 C822 1.524 . S
C821 H824 0.999 . S
C822 H792 0.950 . S
C822 C821 1.524 . S
C822 C823 1.415 . S
C823 H793 0.950 . S
C823 C818 1.363 . S
C823 C822 1.415 . S
H824 C821 0.999 . S
H825 C806 0.913 . S
H826 C844 0.951 . S
H827 C846 0.951 1_554 S
H828 C848 0.950 . S
H829 C849 0.950 . S
H830 C851 0.950 . S
H831 C854 0.950 . S
H832 C855 0.950 . S
H833 C857 0.950 . S
H834 C858 0.950 1_554 S
H835 C859 0.951 . S
H836 C861 0.951 . S
H837 C863 0.950 . S
H838 C864 0.950 . S
H839 C866 0.950 . S
H840 C869 0.950 . S
H841 C870 0.950 . S
H842 C872 0.950 . S
H843 C873 0.950 . S
C844 H826 0.951 . S
C844 C845 1.366 . S
C844 C846 1.388 . S
C845 C844 1.366 . S
C845 C849 1.385 . S
C846 H827 0.951 1_556 S
C846 C844 1.388 . S
C846 C847 1.366 . S
C847 C846 1.366 . S
C847 C848 1.414 . S
C847 C850 1.499 . S
C848 H828 0.950 . S
C848 C847 1.414 . S
C848 C849 1.374 . S
C849 H829 0.950 . S
C849 C845 1.385 . S
C849 C848 1.374 . S
C850 C847 1.499 . S
C850 C851 1.373 1_556 S
C850 C852 1.389 . S
C851 H830 0.950 . S
C851 C850 1.373 1_554 S
C851 C867 1.377 . S
C852 C850 1.389 . S
C852 C853 1.524 . S
C852 C866 1.377 1_556 S
C853 C852 1.524 . S
C853 C854 1.397 . S
C853 C858 1.363 . S
C854 H831 0.950 . S
C854 C853 1.397 . S
C854 C855 1.334 . S
C855 H832 0.950 . S
C855 C854 1.334 . S
C855 C856 1.287 . S
C856 C855 1.287 . S
C856 C857 1.524 . S
C856 H875 0.913 . S
C857 H833 0.950 . S
C857 C856 1.524 . S
C857 C858 1.415 . S
C858 H834 0.950 1_556 S
C858 C853 1.363 . S
C858 C857 1.415 . S
C859 H835 0.951 . S
C859 C860 1.366 . S
C859 C861 1.388 . S
C860 C859 1.366 . S
C860 C864 1.385 . S
C861 H836 0.951 . S
C861 C859 1.388 . S
C861 C862 1.366 . S
C862 C861 1.366 . S
C862 C863 1.414 . S
C862 C865 1.499 . S
C863 H837 0.950 . S
C863 C862 1.414 . S
C863 C864 1.374 . S
C864 H838 0.950 . S
C864 C860 1.385 . S
C864 C863 1.374 . S
C865 C862 1.499 . S
C865 C866 1.373 . S
C865 C867 1.389 . S
C866 H839 0.950 . S
C866 C852 1.377 1_554 S
C866 C865 1.373 . S
C867 C851 1.377 . S
C867 C865 1.389 . S
C867 C868 1.524 . S
C868 C867 1.524 . S
C868 C869 1.397 . S
C868 C873 1.363 . S
C869 H840 0.950 . S
C869 C868 1.397 . S
C869 C870 1.334 . S
C870 H841 0.950 . S
C870 C869 1.334 . S
C870 C871 1.287 . S
C871 C870 1.287 . S
C871 C872 1.524 . S
C871 H874 0.999 . S
C872 H842 0.950 . S
C872 C871 1.524 . S
C872 C873 1.415 . S
C873 H843 0.950 . S
C873 C868 1.363 . S
C873 C872 1.415 . S
H874 C871 0.999 . S
H875 C856 0.913 . S
H876 C894 0.951 . S
H877 C896 0.951 . S
H878 C898 0.950 . S
H879 C899 0.950 . S
H880 C901 0.950 . S
H881 C904 0.950 . S
H882 C905 0.950 . S
H883 C907 0.950 . S
H884 C908 0.950 . S
H885 C909 0.951 . S
H886 C911 0.951 . S
H887 C913 0.950 . S
H888 C914 0.950 . S
H889 C916 0.950 . S
H890 C919 0.950 . S
H891 C920 0.950 . S
H892 C922 0.950 . S
H893 C923 0.950 . S
C894 H876 0.951 . S
C894 C895 1.366 . S
C894 C896 1.388 . S
C895 C894 1.366 . S
C895 C899 1.385 . S
C896 H877 0.951 . S
C896 C894 1.388 . S
C896 C897 1.366 . S
C897 C896 1.366 . S
C897 C898 1.414 . S
C897 C900 1.499 1_554 S
C898 H878 0.950 . S
C898 C897 1.414 . S
C898 C899 1.374 . S
C899 H879 0.950 . S
C899 C895 1.385 . S
C899 C898 1.374 . S
C900 C897 1.499 1_556 S
C900 C901 1.374 1_556 S
C900 C902 1.388 . S
C901 H880 0.950 . S
C901 C900 1.374 1_554 S
C901 C917 1.377 . S
C902 C900 1.388 . S
C902 C903 1.524 . S
C902 C916 1.377 . S
C903 C902 1.524 . S
C903 C904 1.397 . S
C903 C908 1.363 . S
C904 H881 0.950 . S
C904 C903 1.397 . S
C904 C905 1.334 . S
C905 H882 0.950 . S
C905 C904 1.334 . S
C905 C906 1.287 . S
C906 C905 1.287 . S
C906 C907 1.524 . S
C906 H925 0.913 . S
C907 H883 0.950 . S
C907 C906 1.524 . S
C907 C908 1.415 . S
C908 H884 0.950 . S
C908 C903 1.363 . S
C908 C907 1.415 . S
C909 H885 0.951 . S
C909 C910 1.366 . S
C909 C911 1.388 . S
C910 C909 1.366 . S
C910 C914 1.385 . S
C911 H886 0.951 . S
C911 C909 1.388 . S
C911 C912 1.366 . S
C912 C911 1.366 . S
C912 C913 1.414 . S
C912 C915 1.499 . S
C913 H887 0.950 . S
C913 C912 1.414 . S
C913 C914 1.374 . S
C914 H888 0.950 . S
C914 C910 1.385 . S
C914 C913 1.374 . S
C915 C912 1.499 . S
C915 C916 1.373 . S
C915 C917 1.389 1_556 S
C916 H889 0.950 . S
C916 C902 1.377 . S
C916 C915 1.373 . S
C917 C901 1.377 . S
C917 C915 1.389 1_554 S
C917 C918 1.524 . S
C918 C917 1.524 . S
C918 C919 1.397 . S
C918 C923 1.363 . S
C919 H890 0.950 . S
C919 C918 1.397 . S
C919 C920 1.334 . S
C920 H891 0.950 . S
C920 C919 1.334 . S
C920 C921 1.287 . S
C921 C920 1.287 . S
C921 C922 1.524 . S
C921 H924 0.999 . S
C922 H892 0.950 . S
C922 C921 1.524 . S
C922 C923 1.415 . S
C923 H893 0.950 . S
C923 C918 1.363 . S
C923 C922 1.415 . S
H924 C921 0.999 . S
H925 C906 0.913 . S
H926 C944 0.951 . S
H927 C946 0.951 . S
H928 C948 0.950 1_554 S
H929 C949 0.950 . S
H930 C951 0.950 . S
H931 C954 0.950 . S
H932 C955 0.950 . S
H933 C957 0.950 . S
H934 C958 0.950 1_556 S
H935 C959 0.951 . S
H936 C961 0.951 . S
H937 C963 0.950 . S
H938 C964 0.950 . S
H939 C966 0.950 . S
H940 C969 0.950 . S
H941 C970 0.950 . S
H942 C972 0.950 . S
H943 C973 0.950 . S
C944 H926 0.951 . S
C944 C945 1.366 . S
C944 C946 1.388 . S
C945 C944 1.366 . S
C945 C949 1.385 . S
C946 H927 0.951 . S
C946 C944 1.388 . S
C946 C947 1.366 . S
C947 C946 1.366 . S
C947 C948 1.414 . S
C947 C950 1.497 1_556 S
C948 H928 0.950 1_556 S
C948 C947 1.414 . S
C948 C949 1.374 . S
C949 H929 0.950 . S
C949 C945 1.385 . S
C949 C948 1.374 . S
C950 C947 1.497 1_554 S
C950 C951 1.373 1_554 S
C950 C952 1.391 . S
C951 H930 0.950 . S
C951 C950 1.373 1_556 S
C951 C967 1.377 1_556 S
C952 C950 1.391 . S
C952 C953 1.524 . S
C952 C966 1.377 . S
C953 C952 1.524 . S
C953 C954 1.397 . S
C953 C958 1.363 . S
C954 H931 0.950 . S
C954 C953 1.397 . S
C954 C955 1.334 . S
C955 H932 0.950 . S
C955 C954 1.334 . S
C955 C956 1.287 . S
C956 C955 1.287 . S
C956 C957 1.524 . S
C956 H975 0.913 . S
C957 H933 0.950 . S
C957 C956 1.524 . S
C957 C958 1.415 . S
C958 H934 0.950 1_554 S
C958 C953 1.363 . S
C958 C957 1.415 . S
C959 H935 0.951 . S
C959 C960 1.366 . S
C959 C961 1.388 . S
C960 C959 1.366 . S
C960 C964 1.385 . S
C961 H936 0.951 . S
C961 C959 1.388 . S
C961 C962 1.366 . S
C962 C961 1.366 . S
C962 C963 1.414 . S
C962 C965 1.499 . S
C963 H937 0.950 . S
C963 C962 1.414 . S
C963 C964 1.374 . S
C964 H938 0.950 . S
C964 C960 1.385 . S
C964 C963 1.374 . S
C965 C962 1.499 . S
C965 C966 1.373 . S
C965 C967 1.389 . S
C966 H939 0.950 . S
C966 C952 1.377 . S
C966 C965 1.373 . S
C967 C951 1.377 1_554 S
C967 C965 1.389 . S
C967 C968 1.524 . S
C968 C967 1.524 . S
C968 C969 1.397 1_554 S
C968 C973 1.363 . S
C969 H940 0.950 . S
C969 C968 1.397 1_556 S
C969 C970 1.334 . S
C970 H941 0.950 . S
C970 C969 1.334 . S
C970 C971 1.287 . S
C971 C970 1.287 . S
C971 C972 1.524 1_556 S
C971 H974 0.999 . S
C972 H942 0.950 . S
C972 C971 1.524 1_554 S
C972 C973 1.415 . S
C973 H943 0.950 . S
C973 C968 1.363 . S
C973 C972 1.415 . S
H974 C971 0.999 . S
H975 C956 0.913 . S
H976 C994 0.951 . S
H977 C996 0.951 . S
H978 C998 0.950 . S
H979 C999 0.950 . S
H980 C1001 0.950 . S
H981 C1004 0.950 . S
H982 C1005 0.950 . S
H983 C1007 0.950 . S
H984 C1008 0.950 . S
H985 C1009 0.951 . S
H986 C1011 0.951 . S
H987 C1013 0.950 . S
H988 C1014 0.950 . S
H989 C1016 0.950 . S
H990 C1019 0.950 . S
H991 C1020 0.950 . S
H992 C1022 0.950 . S
H993 C1023 0.950 . S
C994 H976 0.951 . S
C994 C995 1.366 . S
C994 C996 1.388 . S
C995 C994 1.366 . S
C995 C999 1.385 . S
C996 H977 0.951 . S
C996 C994 1.388 . S
C996 C997 1.366 . S
C997 C996 1.366 . S
C997 C998 1.414 . S
C997 C1000 1.499 . S
C998 H978 0.950 . S
C998 C997 1.414 . S
C998 C999 1.374 . S
C999 H979 0.950 . S
C999 C995 1.385 . S
C999 C998 1.374 . S
C1000 C997 1.499 . S
C1000 C1001 1.373 . S
C1000 C1002 1.389 . S
C1001 H980 0.950 . S
C1001 C1000 1.373 . S
C1001 C1017 1.377 . S
C1002 C1000 1.389 . S
C1002 C1003 1.524 . S
C1002 C1016 1.377 . S
C1003 C1002 1.524 . S
C1003 C1004 1.397 . S
C1003 C1008 1.363 . S
C1004 H981 0.950 . S
C1004 C1003 1.397 . S
C1004 C1005 1.334 . S
C1005 H982 0.950 . S
C1005 C1004 1.334 . S
C1005 C1006 1.287 . S
C1006 C1005 1.287 . S
C1006 C1007 1.524 . S
C1006 H1025 0.913 . S
C1007 H983 0.950 . S
C1007 C1006 1.524 . S
C1007 C1008 1.415 . S
C1008 H984 0.950 . S
C1008 C1003 1.363 . S
C1008 C1007 1.415 . S
C1009 H985 0.951 . S
C1009 C1010 1.366 . S
C1009 C1011 1.388 . S
C1010 C1009 1.366 . S
C1010 C1014 1.385 . S
C1011 H986 0.951 . S
C1011 C1009 1.388 . S
C1011 C1012 1.366 . S
C1012 C1011 1.366 . S
C1012 C1013 1.414 . S
C1012 C1015 1.499 . S
C1013 H987 0.950 . S
C1013 C1012 1.414 . S
C1013 C1014 1.374 . S
C1014 H988 0.950 . S
C1014 C1010 1.385 . S
C1014 C1013 1.374 . S
C1015 C1012 1.499 . S
C1015 C1016 1.373 . S
C1015 C1017 1.389 . S
C1016 H989 0.950 . S
C1016 C1002 1.377 . S
C1016 C1015 1.373 . S
C1017 C1001 1.377 . S
C1017 C1015 1.389 . S
C1017 C1018 1.524 . S
C1018 C1017 1.524 . S
C1018 C1019 1.397 . S
C1018 C1023 1.363 . S
C1019 H990 0.950 . S
C1019 C1018 1.397 . S
C1019 C1020 1.334 . S
C1020 H991 0.950 . S
C1020 C1019 1.334 . S
C1020 C1021 1.287 . S
C1021 C1020 1.287 . S
C1021 C1022 1.524 . S
C1021 H1024 0.999 . S
C1022 H992 0.950 . S
C1022 C1021 1.524 . S
C1022 C1023 1.415 . S
C1023 H993 0.950 . S
C1023 C1018 1.363 . S
C1023 C1022 1.415 . S
H1024 C1021 0.999 . S
H1025 C1006 0.913 . S
H1026 C1044 0.951 . S
H1027 C1046 0.951 . S
H1028 C1048 0.950 . S
H1029 C1049 0.950 . S
H1030 C1051 0.950 . S
H1031 C1054 0.950 . S
H1032 C1055 0.950 . S
H1033 C1057 0.950 . S
H1034 C1058 0.950 . S
H1035 C1059 0.951 . S
H1036 C1061 0.951 . S
H1037 C1063 0.950 . S
H1038 C1064 0.950 . S
H1039 C1066 0.950 . S
H1040 C1069 0.950 . S
H1041 C1070 0.950 . S
H1042 C1072 0.950 . S
H1043 C1073 0.950 . S
C1044 H1026 0.951 . S
C1044 C1045 1.366 . S
C1044 C1046 1.388 . S
C1045 C1044 1.366 . S
C1045 C1049 1.385 . S
C1046 H1027 0.951 . S
C1046 C1044 1.388 . S
C1046 C1047 1.366 . S
C1047 C1046 1.366 . S
C1047 C1048 1.414 . S
C1047 C1050 1.499 . S
C1048 H1028 0.950 . S
C1048 C1047 1.414 . S
C1048 C1049 1.374 . S
C1049 H1029 0.950 . S
C1049 C1045 1.385 . S
C1049 C1048 1.374 . S
C1050 C1047 1.499 . S
C1050 C1051 1.373 . S
C1050 C1052 1.389 . S
C1051 H1030 0.950 . S
C1051 C1050 1.373 . S
C1051 C1067 1.377 . S
C1052 C1050 1.389 . S
C1052 C1053 1.524 . S
C1052 C1066 1.377 . S
C1053 C1052 1.524 . S
C1053 C1054 1.397 . S
C1053 C1058 1.363 . S
C1054 H1031 0.950 . S
C1054 C1053 1.397 . S
C1054 C1055 1.334 . S
C1055 H1032 0.950 . S
C1055 C1054 1.334 . S
C1055 C1056 1.287 . S
C1056 C1055 1.287 . S
C1056 C1057 1.524 . S
C1056 H1075 0.913 . S
C1057 H1033 0.950 . S
C1057 C1056 1.524 . S
C1057 C1058 1.415 . S
C1058 H1034 0.950 . S
C1058 C1053 1.363 . S
C1058 C1057 1.415 . S
C1059 H1035 0.951 . S
C1059 C1060 1.366 . S
C1059 C1061 1.388 . S
C1060 C1059 1.366 . S
C1060 C1064 1.385 . S
C1061 H1036 0.951 . S
C1061 C1059 1.388 . S
C1061 C1062 1.366 . S
C1062 C1061 1.366 . S
C1062 C1063 1.414 . S
C1062 C1065 1.499 . S
C1063 H1037 0.950 . S
C1063 C1062 1.414 . S
C1063 C1064 1.374 . S
C1064 H1038 0.950 . S
C1064 C1060 1.385 . S
C1064 C1063 1.374 . S
C1065 C1062 1.499 . S
C1065 C1066 1.373 . S
C1065 C1067 1.389 . S
C1066 H1039 0.950 . S
C1066 C1052 1.377 . S
C1066 C1065 1.373 . S
C1067 C1051 1.377 . S
C1067 C1065 1.389 . S
C1067 C1068 1.524 . S
C1068 C1067 1.524 . S
C1068 C1069 1.397 . S
C1068 C1073 1.363 . S
C1069 H1040 0.950 . S
C1069 C1068 1.397 . S
C1069 C1070 1.334 . S
C1070 H1041 0.950 . S
C1070 C1069 1.334 . S
C1070 C1071 1.287 . S
C1071 C1070 1.287 . S
C1071 C1072 1.524 . S
C1071 H1074 0.999 . S
C1072 H1042 0.950 . S
C1072 C1071 1.524 . S
C1072 C1073 1.415 . S
C1073 H1043 0.950 . S
C1073 C1068 1.363 . S
C1073 C1072 1.415 . S
H1074 C1071 0.999 . S
H1075 C1056 0.913 . S
H1076 C1094 0.951 . S
H1077 C1096 0.951 . S
H1078 C1098 0.950 . S
H1079 C1099 0.950 . S
H1080 C1101 0.950 . S
H1081 C1104 0.950 . S
H1082 C1105 0.950 . S
H1083 C1107 0.950 . S
H1084 C1108 0.950 . S
H1085 C1109 0.951 . S
H1086 C1111 0.951 . S
H1087 C1113 0.950 . S
H1088 C1114 0.950 . S
H1089 C1116 0.950 . S
H1090 C1119 0.950 . S
H1091 C1120 0.950 . S
H1092 C1122 0.950 . S
H1093 C1123 0.950 . S
C1094 H1076 0.951 . S
C1094 C1095 1.366 . S
C1094 C1096 1.388 . S
C1095 C1094 1.366 . S
C1095 C1099 1.385 . S
C1096 H1077 0.951 . S
C1096 C1094 1.388 . S
C1096 C1097 1.366 . S
C1097 C1096 1.366 . S
C1097 C1098 1.414 . S
C1097 C1100 1.499 . S
C1098 H1078 0.950 . S
C1098 C1097 1.414 . S
C1098 C1099 1.374 . S
C1099 H1079 0.950 . S
C1099 C1095 1.385 . S
C1099 C1098 1.374 . S
C1100 C1097 1.499 . S
C1100 C1101 1.373 . S
C1100 C1102 1.389 . S
C1101 H1080 0.950 . S
C1101 C1100 1.373 . S
C1101 C1117 1.377 . S
C1102 C1100 1.389 . S
C1102 C1103 1.524 . S
C1102 C1116 1.377 . S
C1103 C1102 1.524 . S
C1103 C1104 1.397 . S
C1103 C1108 1.363 . S
C1104 H1081 0.950 . S
C1104 C1103 1.397 . S
C1104 C1105 1.334 . S
C1105 H1082 0.950 . S
C1105 C1104 1.334 . S
C1105 C1106 1.287 . S
C1106 C1105 1.287 . S
C1106 C1107 1.524 . S
C1106 H1125 0.913 . S
C1107 H1083 0.950 . S
C1107 C1106 1.524 . S
C1107 C1108 1.415 . S
C1108 H1084 0.950 . S
C1108 C1103 1.363 . S
C1108 C1107 1.415 . S
C1109 H1085 0.951 . S
C1109 C1110 1.366 . S
C1109 C1111 1.388 . S
C1110 C1109 1.366 . S
C1110 C1114 1.385 . S
C1111 H1086 0.951 . S
C1111 C1109 1.388 . S
C1111 C1112 1.366 . S
C1112 C1111 1.366 . S
C1112 C1113 1.414 . S
C1112 C1115 1.499 . S
C1113 H1087 0.950 . S
C1113 C1112 1.414 . S
C1113 C1114 1.374 . S
C1114 H1088 0.950 . S
C1114 C1110 1.385 . S
C1114 C1113 1.374 . S
C1115 C1112 1.499 . S
C1115 C1116 1.373 . S
C1115 C1117 1.389 . S
C1116 H1089 0.950 . S
C1116 C1102 1.377 . S
C1116 C1115 1.373 . S
C1117 C1101 1.377 . S
C1117 C1115 1.389 . S
C1117 C1118 1.524 . S
C1118 C1117 1.524 . S
C1118 C1119 1.397 . S
C1118 C1123 1.363 . S
C1119 H1090 0.950 . S
C1119 C1118 1.397 . S
C1119 C1120 1.334 . S
C1120 H1091 0.950 . S
C1120 C1119 1.334 . S
C1120 C1121 1.287 . S
C1121 C1120 1.287 . S
C1121 C1122 1.524 . S
C1121 H1124 0.999 . S
C1122 H1092 0.950 . S
C1122 C1121 1.524 . S
C1122 C1123 1.415 . S
C1123 H1093 0.950 . S
C1123 C1118 1.363 . S
C1123 C1122 1.415 . S
H1124 C1121 0.999 . S
H1125 C1106 0.913 . S
H1126 C1144 0.951 . S
H1127 C1146 0.951 . S
H1128 C1148 0.950 . S
H1129 C1149 0.950 . S
H1130 C1151 0.950 . S
H1131 C1154 0.950 . S
H1132 C1155 0.950 . S
H1133 C1157 0.950 . S
H1134 C1158 0.950 . S
H1135 C1159 0.951 . S
H1136 C1161 0.951 . S
H1137 C1163 0.950 . S
H1138 C1164 0.950 . S
H1139 C1166 0.950 . S
H1140 C1169 0.950 . S
H1141 C1170 0.950 . S
H1142 C1172 0.950 . S
H1143 C1173 0.950 . S
C1144 H1126 0.951 . S
C1144 C1145 1.366 . S
C1144 C1146 1.388 . S
C1145 C1144 1.366 . S
C1145 C1149 1.385 . S
C1146 H1127 0.951 . S
C1146 C1144 1.388 . S
C1146 C1147 1.366 . S
C1147 C1146 1.366 . S
C1147 C1148 1.414 . S
C1147 C1150 1.499 . S
C1148 H1128 0.950 . S
C1148 C1147 1.414 . S
C1148 C1149 1.374 . S
C1149 H1129 0.950 . S
C1149 C1145 1.385 . S
C1149 C1148 1.374 . S
C1150 C1147 1.499 . S
C1150 C1151 1.373 . S
C1150 C1152 1.389 . S
C1151 H1130 0.950 . S
C1151 C1150 1.373 . S
C1151 C1167 1.377 . S
C1152 C1150 1.389 . S
C1152 C1153 1.524 . S
C1152 C1166 1.377 . S
C1153 C1152 1.524 . S
C1153 C1154 1.397 . S
C1153 C1158 1.363 . S
C1154 H1131 0.950 . S
C1154 C1153 1.397 . S
C1154 C1155 1.334 . S
C1155 H1132 0.950 . S
C1155 C1154 1.334 . S
C1155 C1156 1.287 . S
C1156 C1155 1.287 . S
C1156 C1157 1.524 . S
C1156 H1175 0.913 . S
C1157 H1133 0.950 . S
C1157 C1156 1.524 . S
C1157 C1158 1.415 . S
C1158 H1134 0.950 . S
C1158 C1153 1.363 . S
C1158 C1157 1.415 . S
C1159 H1135 0.951 . S
C1159 C1160 1.366 . S
C1159 C1161 1.388 . S
C1160 C1159 1.366 . S
C1160 C1164 1.385 . S
C1161 H1136 0.951 . S
C1161 C1159 1.388 . S
C1161 C1162 1.366 . S
C1162 C1161 1.366 . S
C1162 C1163 1.414 . S
C1162 C1165 1.499 . S
C1163 H1137 0.950 . S
C1163 C1162 1.414 . S
C1163 C1164 1.374 . S
C1164 H1138 0.950 . S
C1164 C1160 1.385 . S
C1164 C1163 1.374 . S
C1165 C1162 1.499 . S
C1165 C1166 1.373 . S
C1165 C1167 1.389 . S
C1166 H1139 0.950 . S
C1166 C1152 1.377 . S
C1166 C1165 1.373 . S
C1167 C1151 1.377 . S
C1167 C1165 1.389 . S
C1167 C1168 1.524 . S
C1168 C1167 1.524 . S
C1168 C1169 1.397 . S
C1168 C1173 1.363 . S
C1169 H1140 0.950 . S
C1169 C1168 1.397 . S
C1169 C1170 1.334 . S
C1170 H1141 0.950 . S
C1170 C1169 1.334 . S
C1170 C1171 1.287 . S
C1171 C1170 1.287 . S
C1171 C1172 1.524 . S
C1171 H1174 0.999 . S
C1172 H1142 0.950 . S
C1172 C1171 1.524 . S
C1172 C1173 1.415 . S
C1173 H1143 0.950 . S
C1173 C1168 1.363 . S
C1173 C1172 1.415 . S
H1174 C1171 0.999 . S
H1175 C1156 0.913 . S
H1176 C1194 0.951 . S
H1177 C1196 0.951 . S
H1178 C1198 0.950 . S
H1179 C1199 0.950 . S
H1180 C1201 0.950 . S
H1181 C1204 0.950 . S
H1182 C1205 0.950 . S
H1183 C1207 0.950 . S
H1184 C1208 0.950 . S
H1185 C1209 0.951 . S
H1186 C1211 0.951 . S
H1187 C1213 0.950 . S
H1188 C1214 0.950 . S
H1189 C1216 0.950 . S
H1190 C1219 0.950 . S
H1191 C1220 0.950 . S
H1192 C1222 0.950 . S
H1193 C1223 0.950 . S
C1194 H1176 0.951 . S
C1194 C1195 1.366 . S
C1194 C1196 1.388 . S
C1195 C1194 1.366 . S
C1195 C1199 1.385 . S
C1196 H1177 0.951 . S
C1196 C1194 1.388 . S
C1196 C1197 1.366 . S
C1197 C1196 1.366 . S
C1197 C1198 1.414 . S
C1197 C1200 1.499 . S
C1198 H1178 0.950 . S
C1198 C1197 1.414 . S
C1198 C1199 1.374 . S
C1199 H1179 0.950 . S
C1199 C1195 1.385 . S
C1199 C1198 1.374 . S
C1200 C1197 1.499 . S
C1200 C1201 1.373 . S
C1200 C1202 1.380 1_545 S
C1201 H1180 0.950 . S
C1201 C1200 1.373 . S
C1201 C1217 1.386 . S
C1202 C1200 1.380 1_565 S
C1202 C1203 1.525 . S
C1202 C1216 1.386 . S
C1203 C1202 1.525 . S
C1203 C1204 1.397 1_565 S
C1203 C1208 1.363 . S
C1204 H1181 0.950 . S
C1204 C1203 1.397 1_545 S
C1204 C1205 1.334 . S
C1205 H1182 0.950 . S
C1205 C1204 1.334 . S
C1205 C1206 1.287 1_545 S
C1206 C1205 1.287 1_565 S
C1206 C1207 1.524 . S
C1206 H1225 0.913 . S
C1207 H1183 0.950 . S
C1207 C1206 1.524 . S
C1207 C1208 1.415 . S
C1208 H1184 0.950 . S
C1208 C1203 1.363 . S
C1208 C1207 1.415 . S
C1209 H1185 0.951 . S
C1209 C1210 1.366 . S
C1209 C1211 1.388 . S
C1210 C1209 1.366 . S
C1210 C1214 1.385 . S
C1211 H1186 0.951 . S
C1211 C1209 1.388 . S
C1211 C1212 1.366 . S
C1212 C1211 1.366 . S
C1212 C1213 1.414 . S
C1212 C1215 1.499 . S
C1213 H1187 0.950 . S
C1213 C1212 1.414 . S
C1213 C1214 1.374 . S
C1214 H1188 0.950 . S
C1214 C1210 1.385 . S
C1214 C1213 1.374 . S
C1215 C1212 1.499 . S
C1215 C1216 1.373 . S
C1215 C1217 1.380 1_565 S
C1216 H1189 0.950 . S
C1216 C1202 1.386 . S
C1216 C1215 1.373 . S
C1217 C1201 1.386 . S
C1217 C1215 1.380 1_545 S
C1217 C1218 1.525 . S
C1218 C1217 1.525 . S
C1218 C1219 1.397 1_545 S
C1218 C1223 1.363 . S
C1219 H1190 0.950 . S
C1219 C1218 1.397 1_565 S
C1219 C1220 1.334 . S
C1220 H1191 0.950 . S
C1220 C1219 1.334 . S
C1220 C1221 1.287 1_565 S
C1221 C1220 1.287 1_545 S
C1221 C1222 1.524 . S
C1221 H1224 0.999 . S
C1222 H1192 0.950 . S
C1222 C1221 1.524 . S
C1222 C1223 1.415 . S
C1223 H1193 0.950 . S
C1223 C1218 1.363 . S
C1223 C1222 1.415 . S
H1224 C1221 0.999 . S
H1225 C1206 0.913 . S
H1226 C1244 0.951 . S
H1227 C1246 0.951 . S
H1228 C1248 0.950 . S
H1229 C1249 0.950 . S
H1230 C1251 0.950 . S
H1231 C1254 0.950 . S
H1232 C1255 0.950 . S
H1233 C1257 0.950 . S
H1234 C1258 0.950 . S
H1235 C1259 0.951 . S
H1236 C1261 0.951 . S
H1237 C1263 0.950 . S
H1238 C1264 0.950 . S
H1239 C1266 0.950 . S
H1240 C1269 0.950 . S
H1241 C1270 0.950 . S
H1242 C1272 0.950 . S
H1243 C1273 0.950 . S
C1244 H1226 0.951 . S
C1244 C1245 1.366 . S
C1244 C1246 1.388 . S
C1245 C1244 1.366 . S
C1245 C1249 1.385 . S
C1246 H1227 0.951 . S
C1246 C1244 1.388 . S
C1246 C1247 1.366 . S
C1247 C1246 1.366 . S
C1247 C1248 1.414 . S
C1247 C1250 1.499 . S
C1248 H1228 0.950 . S
C1248 C1247 1.414 . S
C1248 C1249 1.374 . S
C1249 H1229 0.950 . S
C1249 C1245 1.385 . S
C1249 C1248 1.374 . S
C1250 C1247 1.499 . S
C1250 C1251 1.373 . S
C1250 C1252 1.389 . S
C1251 H1230 0.950 . S
C1251 C1250 1.373 . S
C1251 C1267 1.377 1_655 S
C1252 C1250 1.389 . S
C1252 C1253 1.525 . S
C1252 C1266 1.377 1_655 S
C1253 C1252 1.525 . S
C1253 C1254 1.402 . S
C1253 C1258 1.357 1_655 S
C1254 H1231 0.950 . S
C1254 C1253 1.402 . S
C1254 C1255 1.334 . S
C1255 H1232 0.950 . S
C1255 C1254 1.334 . S
C1255 C1256 1.294 . S
C1256 C1255 1.294 . S
C1256 C1257 1.517 1_655 S
C1256 H1275 0.914 . S
C1257 H1233 0.950 . S
C1257 C1256 1.517 1_455 S
C1257 C1258 1.415 . S
C1258 H1234 0.950 . S
C1258 C1253 1.357 1_455 S
C1258 C1257 1.415 . S
C1259 H1235 0.951 . S
C1259 C1260 1.366 . S
C1259 C1261 1.388 . S
C1260 C1259 1.366 . S
C1260 C1264 1.385 . S
C1261 H1236 0.951 . S
C1261 C1259 1.388 . S
C1261 C1262 1.366 . S
C1262 C1261 1.366 . S
C1262 C1263 1.414 . S
C1262 C1265 1.499 . S
C1263 H1237 0.950 . S
C1263 C1262 1.414 . S
C1263 C1264 1.374 . S
C1264 H1238 0.950 . S
C1264 C1260 1.385 . S
C1264 C1263 1.374 . S
C1265 C1262 1.499 . S
C1265 C1266 1.373 . S
C1265 C1267 1.389 . S
C1266 H1239 0.950 . S
C1266 C1252 1.377 1_455 S
C1266 C1265 1.373 . S
C1267 C1251 1.377 1_455 S
C1267 C1265 1.389 . S
C1267 C1268 1.525 . S
C1268 C1267 1.525 . S
C1268 C1269 1.402 . S
C1268 C1273 1.357 1_455 S
C1269 H1240 0.950 . S
C1269 C1268 1.402 . S
C1269 C1270 1.334 . S
C1270 H1241 0.950 . S
C1270 C1269 1.334 . S
C1270 C1271 1.294 . S
C1271 C1270 1.294 . S
C1271 C1272 1.517 1_455 S
C1271 H1274 0.999 1_455 S
C1272 H1242 0.950 . S
C1272 C1271 1.517 1_655 S
C1272 C1273 1.415 . S
C1273 H1243 0.950 . S
C1273 C1268 1.357 1_655 S
C1273 C1272 1.415 . S
H1274 C1271 0.999 1_655 S
H1275 C1256 0.914 . S
H1276 C1294 0.951 . S
H1277 C1296 0.951 . S
H1278 C1298 0.950 . S
H1279 C1299 0.950 . S
H1280 C1301 0.950 . S
H1281 C1304 0.950 . S
H1282 C1305 0.950 . S
H1283 C1307 0.950 . S
H1284 C1308 0.950 . S
H1285 C1309 0.951 . S
H1286 C1311 0.951 . S
H1287 C1313 0.950 . S
H1288 C1314 0.950 . S
H1289 C1316 0.950 . S
H1290 C1319 0.950 . S
H1291 C1320 0.950 . S
H1292 C1322 0.950 . S
H1293 C1323 0.950 . S
C1294 H1276 0.951 . S
C1294 C1295 1.366 . S
C1294 C1296 1.388 . S
C1295 C1294 1.366 . S
C1295 C1299 1.385 . S
C1296 H1277 0.951 . S
C1296 C1294 1.388 . S
C1296 C1297 1.366 . S
C1297 C1296 1.366 . S
C1297 C1298 1.414 . S
C1297 C1300 1.499 . S
C1298 H1278 0.950 . S
C1298 C1297 1.414 . S
C1298 C1299 1.374 . S
C1299 H1279 0.950 . S
C1299 C1295 1.385 . S
C1299 C1298 1.374 . S
C1300 C1297 1.499 . S
C1300 C1301 1.373 . S
C1300 C1302 1.389 . S
C1301 H1280 0.950 . S
C1301 C1300 1.373 . S
C1301 C1317 1.377 1_565 S
C1302 C1300 1.389 . S
C1302 C1303 1.524 . S
C1302 C1316 1.377 1_565 S
C1303 C1302 1.524 . S
C1303 C1304 1.397 . S
C1303 C1308 1.363 . S
C1304 H1281 0.950 . S
C1304 C1303 1.397 . S
C1304 C1305 1.334 . S
C1305 H1282 0.950 . S
C1305 C1304 1.334 . S
C1305 C1306 1.287 . S
C1306 C1305 1.287 . S
C1306 C1307 1.524 . S
C1306 H1325 0.913 . S
C1307 H1283 0.950 . S
C1307 C1306 1.524 . S
C1307 C1308 1.415 . S
C1308 H1284 0.950 . S
C1308 C1303 1.363 . S
C1308 C1307 1.415 . S
C1309 H1285 0.951 . S
C1309 C1310 1.366 . S
C1309 C1311 1.388 . S
C1310 C1309 1.366 . S
C1310 C1314 1.385 . S
C1311 H1286 0.951 . S
C1311 C1309 1.388 . S
C1311 C1312 1.366 . S
C1312 C1311 1.366 . S
C1312 C1313 1.414 . S
C1312 C1315 1.499 . S
C1313 H1287 0.950 . S
C1313 C1312 1.414 . S
C1313 C1314 1.374 . S
C1314 H1288 0.950 . S
C1314 C1310 1.385 . S
C1314 C1313 1.374 . S
C1315 C1312 1.499 . S
C1315 C1316 1.373 . S
C1315 C1317 1.389 . S
C1316 H1289 0.950 . S
C1316 C1302 1.377 1_545 S
C1316 C1315 1.373 . S
C1317 C1301 1.377 1_545 S
C1317 C1315 1.389 . S
C1317 C1318 1.524 . S
C1318 C1317 1.524 . S
C1318 C1319 1.397 . S
C1318 C1323 1.363 . S
C1319 H1290 0.950 . S
C1319 C1318 1.397 . S
C1319 C1320 1.334 . S
C1320 H1291 0.950 . S
C1320 C1319 1.334 . S
C1320 C1321 1.287 . S
C1321 C1320 1.287 . S
C1321 C1322 1.524 . S
C1321 H1324 0.999 . S
C1322 H1292 0.950 . S
C1322 C1321 1.524 . S
C1322 C1323 1.415 . S
C1323 H1293 0.950 . S
C1323 C1318 1.363 . S
C1323 C1322 1.415 . S
H1324 C1321 0.999 . S
H1325 C1306 0.913 . S
H1326 C1344 0.951 . S
H1327 C1346 0.951 . S
H1328 C1348 0.950 . S
H1329 C1349 0.950 . S
H1330 C1351 0.950 . S
H1331 C1354 0.950 . S
H1332 C1355 0.950 . S
H1333 C1357 0.950 . S
H1334 C1358 0.950 . S
H1335 C1359 0.951 . S
H1336 C1361 0.951 . S
H1337 C1363 0.950 . S
H1338 C1364 0.950 . S
H1339 C1366 0.950 . S
H1340 C1369 0.950 . S
H1341 C1370 0.950 . S
H1342 C1372 0.950 . S
H1343 C1373 0.950 . S
C1344 H1326 0.951 . S
C1344 C1345 1.366 . S
C1344 C1346 1.388 . S
C1345 C1344 1.366 . S
C1345 C1349 1.385 . S
C1346 H1327 0.951 . S
C1346 C1344 1.388 . S
C1346 C1347 1.366 . S
C1347 C1346 1.366 . S
C1347 C1348 1.414 . S
C1347 C1350 1.499 . S
C1348 H1328 0.950 . S
C1348 C1347 1.414 . S
C1348 C1349 1.374 . S
C1349 H1329 0.950 . S
C1349 C1345 1.385 . S
C1349 C1348 1.374 . S
C1350 C1347 1.499 . S
C1350 C1351 1.373 . S
C1350 C1352 1.389 . S
C1351 H1330 0.950 . S
C1351 C1350 1.373 . S
C1351 C1367 1.377 1_655 S
C1352 C1350 1.389 . S
C1352 C1353 1.524 . S
C1352 C1366 1.377 1_655 S
C1353 C1352 1.524 . S
C1353 C1354 1.397 . S
C1353 C1358 1.363 1_655 S
C1354 H1331 0.950 . S
C1354 C1353 1.397 . S
C1354 C1355 1.334 . S
C1355 H1332 0.950 . S
C1355 C1354 1.334 . S
C1355 C1356 1.287 . S
C1356 C1355 1.287 . S
C1356 C1357 1.524 1_655 S
C1356 H1375 0.913 . S
C1357 H1333 0.950 . S
C1357 C1356 1.524 1_455 S
C1357 C1358 1.415 . S
C1358 H1334 0.950 . S
C1358 C1353 1.363 1_455 S
C1358 C1357 1.415 . S
C1359 H1335 0.951 . S
C1359 C1360 1.366 . S
C1359 C1361 1.388 . S
C1360 C1359 1.366 . S
C1360 C1364 1.385 . S
C1361 H1336 0.951 . S
C1361 C1359 1.388 . S
C1361 C1362 1.366 . S
C1362 C1361 1.366 . S
C1362 C1363 1.414 . S
C1362 C1365 1.499 . S
C1363 H1337 0.950 . S
C1363 C1362 1.414 . S
C1363 C1364 1.374 . S
C1364 H1338 0.950 . S
C1364 C1360 1.385 . S
C1364 C1363 1.374 . S
C1365 C1362 1.499 . S
C1365 C1366 1.373 . S
C1365 C1367 1.389 . S
C1366 H1339 0.950 . S
C1366 C1352 1.377 1_455 S
C1366 C1365 1.373 . S
C1367 C1351 1.377 1_455 S
C1367 C1365 1.389 . S
C1367 C1368 1.524 . S
C1368 C1367 1.524 . S
C1368 C1369 1.397 . S
C1368 C1373 1.363 1_455 S
C1369 H1340 0.950 . S
C1369 C1368 1.397 . S
C1369 C1370 1.334 . S
C1370 H1341 0.950 . S
C1370 C1369 1.334 . S
C1370 C1371 1.287 . S
C1371 C1370 1.287 . S
C1371 C1372 1.524 1_455 S
C1371 H1374 0.999 . S
C1372 H1342 0.950 . S
C1372 C1371 1.524 1_655 S
C1372 C1373 1.415 . S
C1373 H1343 0.950 . S
C1373 C1368 1.363 1_655 S
C1373 C1372 1.415 . S
H1374 C1371 0.999 . S
H1375 C1356 0.913 . S
C195 C116 1.020 . S
C210 C7 1.018 . S
C245 C27 1.020 . S
C260 C141 1.018 . S
C295 C160 1.020 . S
C310 C51 1.018 . S
C345 C71 1.019 . S
C360 C97 1.020 . S
C395 C96 1.369 . S
C410 C6 1.378 1_556 S
C445 C31 1.378 1_554 S
C460 C114 1.369 . S
C495 C50 1.378 1_556 S
C510 C140 1.369 . S
C545 C158 1.369 . S
C560 C75 1.378 1_554 S
C595 C8 1.369 . S
C610 C93 1.378 . S
C645 C117 1.378 . S
C660 C26 1.369 . S
C695 C52 1.369 . S
C710 C137 1.378 . S
C745 C70 1.369 . S
C760 C161 1.378 . S
C795 C30 0.890 . S
C810 C5 0.884 . S
C845 C29 0.885 . S
C860 C48 0.890 . S
C895 C49 0.884 . S
C910 C74 0.889 . S
C945 C73 0.884 . S
C960 C4 0.890 . S
C995 C94 0.884 . S
C1010 C162 0.890 . S
C1045 C92 0.890 . S
C1060 C119 0.885 . S
C1095 C138 0.884 . S
C1110 C118 0.889 . S
C1145 C163 0.885 . S
C1160 C136 0.890 . S
C1195 C9 1.410 . S
C1210 C53 1.411 . S
C1245 C72 1.411 . S
C1260 C28 1.410 . S
C1295 C139 1.412 . S
C1310 C95 1.412 . S
C1345 C159 1.410 . S
C1360 C115 1.412 . S
