# Generated by pormake.
# Topology ukx, (4)-cn, num edge types: 1
# Building blocks:
#     Node 0, Type 0, BuildingBlock: QUQFOY_clean_sbu_1, # of connection points: 4
#     Node 1, Type 0, BuildingBlock: QUQFOY_clean_sbu_1, # of connection points: 4
#     Node 2, Type 0, BuildingBlock: QUQFOY_clean_sbu_1, # of connection points: 4
#     Node 3, Type 0, BuildingBlock: QUQFOY_clean_sbu_1, # of connection points: 4
#     Node 4, Type 0, BuildingBlock: QUQFOY_clean_sbu_1, # of connection points: 4
#     Node 5, Type 0, BuildingBlock: QUQFOY_clean_sbu_1, # of connection points: 4
#     Node 6, Type 0, BuildingBlock: QUQFOY_clean_sbu_1, # of connection points: 4
#     Node 7, Type 0, BuildingBlock: QUQFOY_clean_sbu_1, # of connection points: 4
#     Node 8, Type 0, BuildingBlock: QUQFOY_clean_sbu_1, # of connection points: 4
#     Node 9, Type 0, BuildingBlock: QUQFOY_clean_sbu_1, # of connection points: 4
#     Node 10, Type 0, BuildingBlock: QUQFOY_clean_sbu_1, # of connection points: 4
#     Node 11, Type 0, BuildingBlock: QUQFOY_clean_sbu_1, # of connection points: 4
#     Node 12, Type 0, BuildingBlock: QUQFOY_clean_sbu_1, # of connection points: 4
#     Node 13, Type 0, BuildingBlock: QUQFOY_clean_sbu_1, # of connection points: 4
#     Node 14, Type 0, BuildingBlock: QUQFOY_clean_sbu_1, # of connection points: 4
#     Node 15, Type 0, BuildingBlock: QUQFOY_clean_sbu_1, # of connection points: 4
#     Node 16, Type 0, BuildingBlock: QUQFOY_clean_sbu_1, # of connection points: 4
#     Node 17, Type 0, BuildingBlock: QUQFOY_clean_sbu_1, # of connection points: 4
#     Node 18, Type 0, BuildingBlock: QUQFOY_clean_sbu_1, # of connection points: 4
#     Node 19, Type 0, BuildingBlock: QUQFOY_clean_sbu_1, # of connection points: 4
#     Node 20, Type 0, BuildingBlock: QUQFOY_clean_sbu_1, # of connection points: 4
#     Node 21, Type 0, BuildingBlock: QUQFOY_clean_sbu_1, # of connection points: 4
#     Node 22, Type 0, BuildingBlock: QUQFOY_clean_sbu_1, # of connection points: 4
#     Node 23, Type 0, BuildingBlock: QUQFOY_clean_sbu_1, # of connection points: 4
#     Node 24, Type 0, BuildingBlock: QUQFOY_clean_sbu_1, # of connection points: 4
#     Node 25, Type 0, BuildingBlock: QUQFOY_clean_sbu_1, # of connection points: 4
#     Node 26, Type 0, BuildingBlock: QUQFOY_clean_sbu_1, # of connection points: 4
#     Node 27, Type 0, BuildingBlock: QUQFOY_clean_sbu_1, # of connection points: 4
#     Node 28, Type 0, BuildingBlock: QUQFOY_clean_sbu_1, # of connection points: 4
#     Node 29, Type 0, BuildingBlock: QUQFOY_clean_sbu_1, # of connection points: 4
#     Node 30, Type 0, BuildingBlock: QUQFOY_clean_sbu_1, # of connection points: 4
#     Node 31, Type 0, BuildingBlock: QUQFOY_clean_sbu_1, # of connection points: 4
#     Node 32, Type 0, BuildingBlock: QUQFOY_clean_sbu_1, # of connection points: 4
#     Node 33, Type 0, BuildingBlock: QUQFOY_clean_sbu_1, # of connection points: 4
#     Node 34, Type 0, BuildingBlock: QUQFOY_clean_sbu_1, # of connection points: 4
#     Node 35, Type 0, BuildingBlock: QUQFOY_clean_sbu_1, # of connection points: 4
#     Node 36, Type 0, BuildingBlock: QUQFOY_clean_sbu_1, # of connection points: 4
#     Node 37, Type 0, BuildingBlock: QUQFOY_clean_sbu_1, # of connection points: 4
#     Node 38, Type 0, BuildingBlock: QUQFOY_clean_sbu_1, # of connection points: 4
#     Node 39, Type 0, BuildingBlock: QUQFOY_clean_sbu_1, # of connection points: 4
#     Node 40, Type 0, BuildingBlock: QUQFOY_clean_sbu_1, # of connection points: 4
#     Node 41, Type 0, BuildingBlock: QUQFOY_clean_sbu_1, # of connection points: 4
#     Node 42, Type 0, BuildingBlock: QUQFOY_clean_sbu_1, # of connection points: 4
#     Node 43, Type 0, BuildingBlock: QUQFOY_clean_sbu_1, # of connection points: 4
#     Node 44, Type 0, BuildingBlock: QUQFOY_clean_sbu_1, # of connection points: 4
#     Node 45, Type 0, BuildingBlock: QUQFOY_clean_sbu_1, # of connection points: 4
#     Node 46, Type 0, BuildingBlock: QUQFOY_clean_sbu_1, # of connection points: 4
#     Node 47, Type 0, BuildingBlock: QUQFOY_clean_sbu_1, # of connection points: 4
#     Node 48, Type 0, BuildingBlock: QUQFOY_clean_sbu_1, # of connection points: 4
#     Node 49, Type 0, BuildingBlock: QUQFOY_clean_sbu_1, # of connection points: 4
#     Node 50, Type 0, BuildingBlock: QUQFOY_clean_sbu_1, # of connection points: 4
#     Node 51, Type 0, BuildingBlock: QUQFOY_clean_sbu_1, # of connection points: 4
#     Node 52, Type 0, BuildingBlock: QUQFOY_clean_sbu_1, # of connection points: 4
#     Node 53, Type 0, BuildingBlock: QUQFOY_clean_sbu_1, # of connection points: 4
#     Node 54, Type 0, BuildingBlock: QUQFOY_clean_sbu_1, # of connection points: 4
#     Node 55, Type 0, BuildingBlock: QUQFOY_clean_sbu_1, # of connection points: 4
#     Node 56, Type 0, BuildingBlock: QUQFOY_clean_sbu_1, # of connection points: 4
#     Node 57, Type 0, BuildingBlock: QUQFOY_clean_sbu_1, # of connection points: 4
#     Node 58, Type 0, BuildingBlock: QUQFOY_clean_sbu_1, # of connection points: 4
#     Node 59, Type 0, BuildingBlock: QUQFOY_clean_sbu_1, # of connection points: 4
#     Node 60, Type 0, BuildingBlock: QUQFOY_clean_sbu_1, # of connection points: 4
#     Node 61, Type 0, BuildingBlock: QUQFOY_clean_sbu_1, # of connection points: 4
#     Node 62, Type 0, BuildingBlock: QUQFOY_clean_sbu_1, # of connection points: 4
#     Node 63, Type 0, BuildingBlock: QUQFOY_clean_sbu_1, # of connection points: 4
#     Node 64, Type 0, BuildingBlock: QUQFOY_clean_sbu_1, # of connection points: 4
#     Node 65, Type 0, BuildingBlock: QUQFOY_clean_sbu_1, # of connection points: 4
#     Node 66, Type 0, BuildingBlock: QUQFOY_clean_sbu_1, # of connection points: 4
#     Node 67, Type 0, BuildingBlock: QUQFOY_clean_sbu_1, # of connection points: 4
#     Node 68, Type 0, BuildingBlock: QUQFOY_clean_sbu_1, # of connection points: 4
#     Node 69, Type 0, BuildingBlock: QUQFOY_clean_sbu_1, # of connection points: 4
#     Node 70, Type 0, BuildingBlock: QUQFOY_clean_sbu_1, # of connection points: 4
#     Node 71, Type 0, BuildingBlock: QUQFOY_clean_sbu_1, # of connection points: 4
#     Node 72, Type 0, BuildingBlock: QUQFOY_clean_sbu_1, # of connection points: 4
#     Node 73, Type 0, BuildingBlock: QUQFOY_clean_sbu_1, # of connection points: 4
#     Node 74, Type 0, BuildingBlock: QUQFOY_clean_sbu_1, # of connection points: 4
#     Node 75, Type 0, BuildingBlock: QUQFOY_clean_sbu_1, # of connection points: 4
#     Node 76, Type 0, BuildingBlock: QUQFOY_clean_sbu_1, # of connection points: 4
#     Node 77, Type 0, BuildingBlock: QUQFOY_clean_sbu_1, # of connection points: 4
#     Node 78, Type 0, BuildingBlock: QUQFOY_clean_sbu_1, # of connection points: 4
#     Node 79, Type 0, BuildingBlock: QUQFOY_clean_sbu_1, # of connection points: 4
#     Node 80, Type 0, BuildingBlock: QUQFOY_clean_sbu_1, # of connection points: 4
#     Node 81, Type 0, BuildingBlock: QUQFOY_clean_sbu_1, # of connection points: 4
#     Node 82, Type 0, BuildingBlock: QUQFOY_clean_sbu_1, # of connection points: 4
#     Node 83, Type 0, BuildingBlock: QUQFOY_clean_sbu_1, # of connection points: 4
#     Node 84, Type 0, BuildingBlock: QUQFOY_clean_sbu_1, # of connection points: 4
#     Node 85, Type 0, BuildingBlock: QUQFOY_clean_sbu_1, # of connection points: 4
#     Node 86, Type 0, BuildingBlock: QUQFOY_clean_sbu_1, # of connection points: 4
#     Node 87, Type 0, BuildingBlock: QUQFOY_clean_sbu_1, # of connection points: 4
#     Node 88, Type 0, BuildingBlock: QUQFOY_clean_sbu_1, # of connection points: 4
#     Node 89, Type 0, BuildingBlock: QUQFOY_clean_sbu_1, # of connection points: 4
#     Node 90, Type 0, BuildingBlock: QUQFOY_clean_sbu_1, # of connection points: 4
#     Node 91, Type 0, BuildingBlock: QUQFOY_clean_sbu_1, # of connection points: 4
#     Node 92, Type 0, BuildingBlock: QUQFOY_clean_sbu_1, # of connection points: 4
#     Node 93, Type 0, BuildingBlock: QUQFOY_clean_sbu_1, # of connection points: 4
#     Node 94, Type 0, BuildingBlock: QUQFOY_clean_sbu_1, # of connection points: 4
#     Node 95, Type 0, BuildingBlock: QUQFOY_clean_sbu_1, # of connection points: 4
#     Edge 96, Type (0, 0), BuildingBlock: OJICUG_clean_linker_0, # of connection points: 2
#     Edge 97, Type (0, 0), BuildingBlock: OJICUG_clean_linker_0, # of connection points: 2
#     Edge 98, Type (0, 0), BuildingBlock: OJICUG_clean_linker_0, # of connection points: 2
#     Edge 99, Type (0, 0), BuildingBlock: OJICUG_clean_linker_0, # of connection points: 2
#     Edge 100, Type (0, 0), BuildingBlock: OJICUG_clean_linker_0, # of connection points: 2
#     Edge 101, Type (0, 0), BuildingBlock: OJICUG_clean_linker_0, # of connection points: 2
#     Edge 102, Type (0, 0), BuildingBlock: OJICUG_clean_linker_0, # of connection points: 2
#     Edge 103, Type (0, 0), BuildingBlock: OJICUG_clean_linker_0, # of connection points: 2
#     Edge 104, Type (0, 0), BuildingBlock: OJICUG_clean_linker_0, # of connection points: 2
#     Edge 105, Type (0, 0), BuildingBlock: OJICUG_clean_linker_0, # of connection points: 2
#     Edge 106, Type (0, 0), BuildingBlock: OJICUG_clean_linker_0, # of connection points: 2
#     Edge 107, Type (0, 0), BuildingBlock: OJICUG_clean_linker_0, # of connection points: 2
#     Edge 108, Type (0, 0), BuildingBlock: OJICUG_clean_linker_0, # of connection points: 2
#     Edge 109, Type (0, 0), BuildingBlock: OJICUG_clean_linker_0, # of connection points: 2
#     Edge 110, Type (0, 0), BuildingBlock: OJICUG_clean_linker_0, # of connection points: 2
#     Edge 111, Type (0, 0), BuildingBlock: OJICUG_clean_linker_0, # of connection points: 2
#     Edge 112, Type (0, 0), BuildingBlock: OJICUG_clean_linker_0, # of connection points: 2
#     Edge 113, Type (0, 0), BuildingBlock: OJICUG_clean_linker_0, # of connection points: 2
#     Edge 114, Type (0, 0), BuildingBlock: OJICUG_clean_linker_0, # of connection points: 2
#     Edge 115, Type (0, 0), BuildingBlock: OJICUG_clean_linker_0, # of connection points: 2
#     Edge 116, Type (0, 0), BuildingBlock: OJICUG_clean_linker_0, # of connection points: 2
#     Edge 117, Type (0, 0), BuildingBlock: OJICUG_clean_linker_0, # of connection points: 2
#     Edge 118, Type (0, 0), BuildingBlock: OJICUG_clean_linker_0, # of connection points: 2
#     Edge 119, Type (0, 0), BuildingBlock: OJICUG_clean_linker_0, # of connection points: 2
#     Edge 120, Type (0, 0), BuildingBlock: OJICUG_clean_linker_0, # of connection points: 2
#     Edge 121, Type (0, 0), BuildingBlock: OJICUG_clean_linker_0, # of connection points: 2
#     Edge 122, Type (0, 0), BuildingBlock: OJICUG_clean_linker_0, # of connection points: 2
#     Edge 123, Type (0, 0), BuildingBlock: OJICUG_clean_linker_0, # of connection points: 2
#     Edge 124, Type (0, 0), BuildingBlock: OJICUG_clean_linker_0, # of connection points: 2
#     Edge 125, Type (0, 0), BuildingBlock: OJICUG_clean_linker_0, # of connection points: 2
#     Edge 126, Type (0, 0), BuildingBlock: OJICUG_clean_linker_0, # of connection points: 2
#     Edge 127, Type (0, 0), BuildingBlock: OJICUG_clean_linker_0, # of connection points: 2
#     Edge 128, Type (0, 0), BuildingBlock: OJICUG_clean_linker_0, # of connection points: 2
#     Edge 129, Type (0, 0), BuildingBlock: OJICUG_clean_linker_0, # of connection points: 2
#     Edge 130, Type (0, 0), BuildingBlock: OJICUG_clean_linker_0, # of connection points: 2
#     Edge 131, Type (0, 0), BuildingBlock: OJICUG_clean_linker_0, # of connection points: 2
#     Edge 132, Type (0, 0), BuildingBlock: OJICUG_clean_linker_0, # of connection points: 2
#     Edge 133, Type (0, 0), BuildingBlock: OJICUG_clean_linker_0, # of connection points: 2
#     Edge 134, Type (0, 0), BuildingBlock: OJICUG_clean_linker_0, # of connection points: 2
#     Edge 135, Type (0, 0), BuildingBlock: OJICUG_clean_linker_0, # of connection points: 2
#     Edge 136, Type (0, 0), BuildingBlock: OJICUG_clean_linker_0, # of connection points: 2
#     Edge 137, Type (0, 0), BuildingBlock: OJICUG_clean_linker_0, # of connection points: 2
#     Edge 138, Type (0, 0), BuildingBlock: OJICUG_clean_linker_0, # of connection points: 2
#     Edge 139, Type (0, 0), BuildingBlock: OJICUG_clean_linker_0, # of connection points: 2
#     Edge 140, Type (0, 0), BuildingBlock: OJICUG_clean_linker_0, # of connection points: 2
#     Edge 141, Type (0, 0), BuildingBlock: OJICUG_clean_linker_0, # of connection points: 2
#     Edge 142, Type (0, 0), BuildingBlock: OJICUG_clean_linker_0, # of connection points: 2
#     Edge 143, Type (0, 0), BuildingBlock: OJICUG_clean_linker_0, # of connection points: 2
#     Edge 144, Type (0, 0), BuildingBlock: OJICUG_clean_linker_0, # of connection points: 2
#     Edge 145, Type (0, 0), BuildingBlock: OJICUG_clean_linker_0, # of connection points: 2
#     Edge 146, Type (0, 0), BuildingBlock: OJICUG_clean_linker_0, # of connection points: 2
#     Edge 147, Type (0, 0), BuildingBlock: OJICUG_clean_linker_0, # of connection points: 2
#     Edge 148, Type (0, 0), BuildingBlock: OJICUG_clean_linker_0, # of connection points: 2
#     Edge 149, Type (0, 0), BuildingBlock: OJICUG_clean_linker_0, # of connection points: 2
#     Edge 150, Type (0, 0), BuildingBlock: OJICUG_clean_linker_0, # of connection points: 2
#     Edge 151, Type (0, 0), BuildingBlock: OJICUG_clean_linker_0, # of connection points: 2
#     Edge 152, Type (0, 0), BuildingBlock: OJICUG_clean_linker_0, # of connection points: 2
#     Edge 153, Type (0, 0), BuildingBlock: OJICUG_clean_linker_0, # of connection points: 2
#     Edge 154, Type (0, 0), BuildingBlock: OJICUG_clean_linker_0, # of connection points: 2
#     Edge 155, Type (0, 0), BuildingBlock: OJICUG_clean_linker_0, # of connection points: 2
#     Edge 156, Type (0, 0), BuildingBlock: OJICUG_clean_linker_0, # of connection points: 2
#     Edge 157, Type (0, 0), BuildingBlock: OJICUG_clean_linker_0, # of connection points: 2
#     Edge 158, Type (0, 0), BuildingBlock: OJICUG_clean_linker_0, # of connection points: 2
#     Edge 159, Type (0, 0), BuildingBlock: OJICUG_clean_linker_0, # of connection points: 2
#     Edge 160, Type (0, 0), BuildingBlock: OJICUG_clean_linker_0, # of connection points: 2
#     Edge 161, Type (0, 0), BuildingBlock: OJICUG_clean_linker_0, # of connection points: 2
#     Edge 162, Type (0, 0), BuildingBlock: OJICUG_clean_linker_0, # of connection points: 2
#     Edge 163, Type (0, 0), BuildingBlock: OJICUG_clean_linker_0, # of connection points: 2
#     Edge 164, Type (0, 0), BuildingBlock: OJICUG_clean_linker_0, # of connection points: 2
#     Edge 165, Type (0, 0), BuildingBlock: OJICUG_clean_linker_0, # of connection points: 2
#     Edge 166, Type (0, 0), BuildingBlock: OJICUG_clean_linker_0, # of connection points: 2
#     Edge 167, Type (0, 0), BuildingBlock: OJICUG_clean_linker_0, # of connection points: 2
#     Edge 168, Type (0, 0), BuildingBlock: OJICUG_clean_linker_0, # of connection points: 2
#     Edge 169, Type (0, 0), BuildingBlock: OJICUG_clean_linker_0, # of connection points: 2
#     Edge 170, Type (0, 0), BuildingBlock: OJICUG_clean_linker_0, # of connection points: 2
#     Edge 171, Type (0, 0), BuildingBlock: OJICUG_clean_linker_0, # of connection points: 2
#     Edge 172, Type (0, 0), BuildingBlock: OJICUG_clean_linker_0, # of connection points: 2
#     Edge 173, Type (0, 0), BuildingBlock: OJICUG_clean_linker_0, # of connection points: 2
#     Edge 174, Type (0, 0), BuildingBlock: OJICUG_clean_linker_0, # of connection points: 2
#     Edge 175, Type (0, 0), BuildingBlock: OJICUG_clean_linker_0, # of connection points: 2
#     Edge 176, Type (0, 0), BuildingBlock: OJICUG_clean_linker_0, # of connection points: 2
#     Edge 177, Type (0, 0), BuildingBlock: OJICUG_clean_linker_0, # of connection points: 2
#     Edge 178, Type (0, 0), BuildingBlock: OJICUG_clean_linker_0, # of connection points: 2
#     Edge 179, Type (0, 0), BuildingBlock: OJICUG_clean_linker_0, # of connection points: 2
#     Edge 180, Type (0, 0), BuildingBlock: OJICUG_clean_linker_0, # of connection points: 2
#     Edge 181, Type (0, 0), BuildingBlock: OJICUG_clean_linker_0, # of connection points: 2
#     Edge 182, Type (0, 0), BuildingBlock: OJICUG_clean_linker_0, # of connection points: 2
#     Edge 183, Type (0, 0), BuildingBlock: OJICUG_clean_linker_0, # of connection points: 2
#     Edge 184, Type (0, 0), BuildingBlock: OJICUG_clean_linker_0, # of connection points: 2
#     Edge 185, Type (0, 0), BuildingBlock: OJICUG_clean_linker_0, # of connection points: 2
#     Edge 186, Type (0, 0), BuildingBlock: OJICUG_clean_linker_0, # of connection points: 2
#     Edge 187, Type (0, 0), BuildingBlock: OJICUG_clean_linker_0, # of connection points: 2
#     Edge 188, Type (0, 0), BuildingBlock: OJICUG_clean_linker_0, # of connection points: 2
#     Edge 189, Type (0, 0), BuildingBlock: OJICUG_clean_linker_0, # of connection points: 2
#     Edge 190, Type (0, 0), BuildingBlock: OJICUG_clean_linker_0, # of connection points: 2
#     Edge 191, Type (0, 0), BuildingBlock: OJICUG_clean_linker_0, # of connection points: 2
#     Edge 192, Type (0, 0), BuildingBlock: OJICUG_clean_linker_0, # of connection points: 2
#     Edge 193, Type (0, 0), BuildingBlock: OJICUG_clean_linker_0, # of connection points: 2
#     Edge 194, Type (0, 0), BuildingBlock: OJICUG_clean_linker_0, # of connection points: 2
#     Edge 195, Type (0, 0), BuildingBlock: OJICUG_clean_linker_0, # of connection points: 2
#     Edge 196, Type (0, 0), BuildingBlock: OJICUG_clean_linker_0, # of connection points: 2
#     Edge 197, Type (0, 0), BuildingBlock: OJICUG_clean_linker_0, # of connection points: 2
#     Edge 198, Type (0, 0), BuildingBlock: OJICUG_clean_linker_0, # of connection points: 2
#     Edge 199, Type (0, 0), BuildingBlock: OJICUG_clean_linker_0, # of connection points: 2
#     Edge 200, Type (0, 0), BuildingBlock: OJICUG_clean_linker_0, # of connection points: 2
#     Edge 201, Type (0, 0), BuildingBlock: OJICUG_clean_linker_0, # of connection points: 2
#     Edge 202, Type (0, 0), BuildingBlock: OJICUG_clean_linker_0, # of connection points: 2
#     Edge 203, Type (0, 0), BuildingBlock: OJICUG_clean_linker_0, # of connection points: 2
#     Edge 204, Type (0, 0), BuildingBlock: OJICUG_clean_linker_0, # of connection points: 2
#     Edge 205, Type (0, 0), BuildingBlock: OJICUG_clean_linker_0, # of connection points: 2
#     Edge 206, Type (0, 0), BuildingBlock: OJICUG_clean_linker_0, # of connection points: 2
#     Edge 207, Type (0, 0), BuildingBlock: OJICUG_clean_linker_0, # of connection points: 2
#     Edge 208, Type (0, 0), BuildingBlock: OJICUG_clean_linker_0, # of connection points: 2
#     Edge 209, Type (0, 0), BuildingBlock: OJICUG_clean_linker_0, # of connection points: 2
#     Edge 210, Type (0, 0), BuildingBlock: OJICUG_clean_linker_0, # of connection points: 2
#     Edge 211, Type (0, 0), BuildingBlock: OJICUG_clean_linker_0, # of connection points: 2
#     Edge 212, Type (0, 0), BuildingBlock: OJICUG_clean_linker_0, # of connection points: 2
#     Edge 213, Type (0, 0), BuildingBlock: OJICUG_clean_linker_0, # of connection points: 2
#     Edge 214, Type (0, 0), BuildingBlock: OJICUG_clean_linker_0, # of connection points: 2
#     Edge 215, Type (0, 0), BuildingBlock: OJICUG_clean_linker_0, # of connection points: 2
#     Edge 216, Type (0, 0), BuildingBlock: OJICUG_clean_linker_0, # of connection points: 2
#     Edge 217, Type (0, 0), BuildingBlock: OJICUG_clean_linker_0, # of connection points: 2
#     Edge 218, Type (0, 0), BuildingBlock: OJICUG_clean_linker_0, # of connection points: 2
#     Edge 219, Type (0, 0), BuildingBlock: OJICUG_clean_linker_0, # of connection points: 2
#     Edge 220, Type (0, 0), BuildingBlock: OJICUG_clean_linker_0, # of connection points: 2
#     Edge 221, Type (0, 0), BuildingBlock: OJICUG_clean_linker_0, # of connection points: 2
#     Edge 222, Type (0, 0), BuildingBlock: OJICUG_clean_linker_0, # of connection points: 2
#     Edge 223, Type (0, 0), BuildingBlock: OJICUG_clean_linker_0, # of connection points: 2
#     Edge 224, Type (0, 0), BuildingBlock: OJICUG_clean_linker_0, # of connection points: 2
#     Edge 225, Type (0, 0), BuildingBlock: OJICUG_clean_linker_0, # of connection points: 2
#     Edge 226, Type (0, 0), BuildingBlock: OJICUG_clean_linker_0, # of connection points: 2
#     Edge 227, Type (0, 0), BuildingBlock: OJICUG_clean_linker_0, # of connection points: 2
#     Edge 228, Type (0, 0), BuildingBlock: OJICUG_clean_linker_0, # of connection points: 2
#     Edge 229, Type (0, 0), BuildingBlock: OJICUG_clean_linker_0, # of connection points: 2
#     Edge 230, Type (0, 0), BuildingBlock: OJICUG_clean_linker_0, # of connection points: 2
#     Edge 231, Type (0, 0), BuildingBlock: OJICUG_clean_linker_0, # of connection points: 2
#     Edge 232, Type (0, 0), BuildingBlock: OJICUG_clean_linker_0, # of connection points: 2
#     Edge 233, Type (0, 0), BuildingBlock: OJICUG_clean_linker_0, # of connection points: 2
#     Edge 234, Type (0, 0), BuildingBlock: OJICUG_clean_linker_0, # of connection points: 2
#     Edge 235, Type (0, 0), BuildingBlock: OJICUG_clean_linker_0, # of connection points: 2
#     Edge 236, Type (0, 0), BuildingBlock: OJICUG_clean_linker_0, # of connection points: 2
#     Edge 237, Type (0, 0), BuildingBlock: OJICUG_clean_linker_0, # of connection points: 2
#     Edge 238, Type (0, 0), BuildingBlock: OJICUG_clean_linker_0, # of connection points: 2
#     Edge 239, Type (0, 0), BuildingBlock: OJICUG_clean_linker_0, # of connection points: 2
#     Edge 240, Type (0, 0), BuildingBlock: OJICUG_clean_linker_0, # of connection points: 2
#     Edge 241, Type (0, 0), BuildingBlock: OJICUG_clean_linker_0, # of connection points: 2
#     Edge 242, Type (0, 0), BuildingBlock: OJICUG_clean_linker_0, # of connection points: 2
#     Edge 243, Type (0, 0), BuildingBlock: OJICUG_clean_linker_0, # of connection points: 2
#     Edge 244, Type (0, 0), BuildingBlock: OJICUG_clean_linker_0, # of connection points: 2
#     Edge 245, Type (0, 0), BuildingBlock: OJICUG_clean_linker_0, # of connection points: 2
#     Edge 246, Type (0, 0), BuildingBlock: OJICUG_clean_linker_0, # of connection points: 2
#     Edge 247, Type (0, 0), BuildingBlock: OJICUG_clean_linker_0, # of connection points: 2
#     Edge 248, Type (0, 0), BuildingBlock: OJICUG_clean_linker_0, # of connection points: 2
#     Edge 249, Type (0, 0), BuildingBlock: OJICUG_clean_linker_0, # of connection points: 2
#     Edge 250, Type (0, 0), BuildingBlock: OJICUG_clean_linker_0, # of connection points: 2
#     Edge 251, Type (0, 0), BuildingBlock: OJICUG_clean_linker_0, # of connection points: 2
#     Edge 252, Type (0, 0), BuildingBlock: OJICUG_clean_linker_0, # of connection points: 2
#     Edge 253, Type (0, 0), BuildingBlock: OJICUG_clean_linker_0, # of connection points: 2
#     Edge 254, Type (0, 0), BuildingBlock: OJICUG_clean_linker_0, # of connection points: 2
#     Edge 255, Type (0, 0), BuildingBlock: OJICUG_clean_linker_0, # of connection points: 2
#     Edge 256, Type (0, 0), BuildingBlock: OJICUG_clean_linker_0, # of connection points: 2
#     Edge 257, Type (0, 0), BuildingBlock: OJICUG_clean_linker_0, # of connection points: 2
#     Edge 258, Type (0, 0), BuildingBlock: OJICUG_clean_linker_0, # of connection points: 2
#     Edge 259, Type (0, 0), BuildingBlock: OJICUG_clean_linker_0, # of connection points: 2
#     Edge 260, Type (0, 0), BuildingBlock: OJICUG_clean_linker_0, # of connection points: 2
#     Edge 261, Type (0, 0), BuildingBlock: OJICUG_clean_linker_0, # of connection points: 2
#     Edge 262, Type (0, 0), BuildingBlock: OJICUG_clean_linker_0, # of connection points: 2
#     Edge 263, Type (0, 0), BuildingBlock: OJICUG_clean_linker_0, # of connection points: 2
#     Edge 264, Type (0, 0), BuildingBlock: OJICUG_clean_linker_0, # of connection points: 2
#     Edge 265, Type (0, 0), BuildingBlock: OJICUG_clean_linker_0, # of connection points: 2
#     Edge 266, Type (0, 0), BuildingBlock: OJICUG_clean_linker_0, # of connection points: 2
#     Edge 267, Type (0, 0), BuildingBlock: OJICUG_clean_linker_0, # of connection points: 2
#     Edge 268, Type (0, 0), BuildingBlock: OJICUG_clean_linker_0, # of connection points: 2
#     Edge 269, Type (0, 0), BuildingBlock: OJICUG_clean_linker_0, # of connection points: 2
#     Edge 270, Type (0, 0), BuildingBlock: OJICUG_clean_linker_0, # of connection points: 2
#     Edge 271, Type (0, 0), BuildingBlock: OJICUG_clean_linker_0, # of connection points: 2
#     Edge 272, Type (0, 0), BuildingBlock: OJICUG_clean_linker_0, # of connection points: 2
#     Edge 273, Type (0, 0), BuildingBlock: OJICUG_clean_linker_0, # of connection points: 2
#     Edge 274, Type (0, 0), BuildingBlock: OJICUG_clean_linker_0, # of connection points: 2
#     Edge 275, Type (0, 0), BuildingBlock: OJICUG_clean_linker_0, # of connection points: 2
#     Edge 276, Type (0, 0), BuildingBlock: OJICUG_clean_linker_0, # of connection points: 2
#     Edge 277, Type (0, 0), BuildingBlock: OJICUG_clean_linker_0, # of connection points: 2
#     Edge 278, Type (0, 0), BuildingBlock: OJICUG_clean_linker_0, # of connection points: 2
#     Edge 279, Type (0, 0), BuildingBlock: OJICUG_clean_linker_0, # of connection points: 2
#     Edge 280, Type (0, 0), BuildingBlock: OJICUG_clean_linker_0, # of connection points: 2
#     Edge 281, Type (0, 0), BuildingBlock: OJICUG_clean_linker_0, # of connection points: 2
#     Edge 282, Type (0, 0), BuildingBlock: OJICUG_clean_linker_0, # of connection points: 2
#     Edge 283, Type (0, 0), BuildingBlock: OJICUG_clean_linker_0, # of connection points: 2
#     Edge 284, Type (0, 0), BuildingBlock: OJICUG_clean_linker_0, # of connection points: 2
#     Edge 285, Type (0, 0), BuildingBlock: OJICUG_clean_linker_0, # of connection points: 2
#     Edge 286, Type (0, 0), BuildingBlock: OJICUG_clean_linker_0, # of connection points: 2
#     Edge 287, Type (0, 0), BuildingBlock: OJICUG_clean_linker_0, # of connection points: 2
# Relax obj value: 0.099
# Max RMSD: 0.083
# Mean RMSD: 0.083
data_MOF--net-ukx--node1-QUQFOY_clean_sbu_1--edge1-OJICUG_clean_linker_0
_symmetry_space_group_name_H-M    P1
_symmetry_Int_Tables_number       1
_symmetry_cell_setting            triclinic
loop_
_symmetry_equiv_pos_as_xyz
'x, y, z'
_cell_length_a     62.307421
_cell_length_b     62.248562
_cell_length_c     62.239501
_cell_angle_alpha  90.023419
_cell_angle_beta   90.032618
_cell_angle_gamma 90.056373
loop_
_atom_site_label
_atom_site_type_symbol
_atom_site_fract_x
_atom_site_fract_y
_atom_site_fract_z
_atom_type_partial_charge
O0 O 0.07404 0.17432 0.37089 0.0
Cd1 Cd 0.06242 0.14386 0.36739 0.0
Cd2 Cd 0.04041 0.16244 0.33548 0.0
O3 O 0.06139 0.18822 0.3408 0.0
O4 O 0.08398 0.12561 0.38227 0.0
O5 O 0.07987 0.12592 0.3469 0.0
C6 C 0.09066 0.1198 0.36355 0.0
C7 C 0.03002 0.14705 0.30254 0.0
C8 C 0.07276 0.18988 0.3578 0.0
C9 C 0.0163 0.1492 0.37567 0.0
O10 O 0.01665 0.15975 0.3582 0.0
O11 O 0.0329 0.13925 0.38218 0.0
O12 O 0.02433 0.16629 0.30774 0.0
O13 O 0.04325 0.13723 0.31518 0.0
O14 O 0.09326 0.82213 0.61133 0.0
Cd15 Cd 0.12433 0.81206 0.60973 0.0
Cd16 Cd 0.10727 0.7853 0.57923 0.0
O17 O 0.0798 0.80429 0.58367 0.0
O18 O 0.14049 0.83562 0.62423 0.0
O19 O 0.14255 0.82944 0.58927 0.0
C20 C 0.14712 0.84151 0.60554 0.0
C21 C 0.12169 0.77231 0.54655 0.0
C22 C 0.07761 0.81768 0.59908 0.0
C23 C 0.12107 0.7663 0.6221 0.0
O24 O 0.11175 0.76412 0.60407 0.0
O25 O 0.12931 0.78422 0.62753 0.0
O26 O 0.10316 0.76614 0.55342 0.0
O27 O 0.13134 0.78724 0.55732 0.0
O28 O 0.4445 0.83333 0.84804 0.0
Cd29 Cd 0.45223 0.86423 0.85565 0.0
Cd30 Cd 0.48523 0.85145 0.82374 0.0
O31 O 0.46835 0.82244 0.82417 0.0
O32 O 0.42863 0.86721 0.87681 0.0
O33 O 0.43027 0.88748 0.8479 0.0
C34 C 0.41973 0.88117 0.86456 0.0
C35 C 0.50127 0.86612 0.79255 0.0
C36 C 0.45207 0.8188 0.83602 0.0
C37 C 0.49821 0.86228 0.87024 0.0
O38 O 0.50295 0.85662 0.85118 0.0
O39 O 0.47898 0.86676 0.87551 0.0
O40 O 0.5078 0.84832 0.80083 0.0
O41 O 0.48472 0.87512 0.80123 0.0
O42 O 0.43387 0.19487 0.11359 0.0
Cd43 Cd 0.40463 0.20865 0.10898 0.0
Cd44 Cd 0.42683 0.22866 0.07821 0.0
O45 O 0.44971 0.20434 0.08337 0.0
O46 O 0.38499 0.18842 0.12408 0.0
O47 O 0.38623 0.19144 0.08865 0.0
C48 C 0.37945 0.18127 0.10543 0.0
C49 C 0.41159 0.24021 0.04552 0.0
C50 C 0.44961 0.19345 0.10076 0.0
C51 C 0.41422 0.25381 0.11809 0.0
O52 O 0.42608 0.25231 0.10152 0.0
O53 O 0.4017 0.23855 0.12337 0.0
O54 O 0.43137 0.24428 0.05026 0.0
O55 O 0.40098 0.22796 0.05853 0.0
O56 O 0.07288 0.83642 0.17219 0.0
Cd57 Cd 0.06726 0.86744 0.16347 0.0
Cd58 Cd 0.03107 0.85722 0.19326 0.0
O59 O 0.04507 0.8268 0.19197 0.0
O60 O 0.09171 0.86785 0.14295 0.0
O61 O 0.09059 0.88971 0.17064 0.0
C62 C 0.10116 0.88193 0.15465 0.0
C63 C 0.01405 0.87097 0.22448 0.0
C64 C 0.06237 0.82215 0.18213 0.0
C65 C 0.02175 0.86812 0.14622 0.0
O66 O 0.01522 0.86435 0.16521 0.0
O67 O 0.04167 0.87022 0.14207 0.0
O68 O 1.00696 0.85422 0.21463 0.0
O69 O 0.03153 0.8795 0.2173 0.0
O70 O 0.43262 0.81936 0.41291 0.0
Cd71 Cd 0.40321 0.80581 0.40853 0.0
Cd72 Cd 0.42073 0.78068 0.44255 0.0
O73 O 0.44587 0.80315 0.44153 0.0
O74 O 0.39333 0.82597 0.38603 0.0
O75 O 0.37861 0.8251 0.41816 0.0
C76 C 0.38063 0.83456 0.39983 0.0
C77 C 0.40371 0.76759 0.47384 0.0
C78 C 0.44731 0.81731 0.42679 0.0
C79 C 0.41281 0.75999 0.39853 0.0
O80 O 0.42049 0.75895 0.41745 0.0
O81 O 0.40369 0.77697 0.39177 0.0
O82 O 0.42325 0.76254 0.46921 0.0
O83 O 0.39423 0.78131 0.46146 0.0
O84 O 0.43721 0.18068 0.66162 0.0
Cd85 Cd 0.44706 0.14954 0.65961 0.0
Cd86 Cd 0.47541 0.16533 0.69137 0.0
O87 O 0.45679 0.19317 0.68851 0.0
O88 O 0.42334 0.13732 0.64192 0.0
O89 O 0.42865 0.12804 0.67578 0.0
C90 C 0.41691 0.12713 0.65871 0.0
C91 C 0.48891 0.15101 0.72387 0.0
C92 C 0.4424 0.19585 0.67417 0.0
C93 C 0.49312 0.15286 0.6472 0.0
O94 O 0.49589 0.16078 0.66584 0.0
O95 O 0.4748 0.1459 0.64133 0.0
O96 O 0.49531 0.1693 0.71657 0.0
O97 O 0.47368 0.14141 0.7135 0.0
O98 O 0.08158 0.19079 0.90299 0.0
Cd99 Cd 0.11106 0.20447 0.90654 0.0
Cd100 Cd 0.09013 0.22481 0.938 0.0
O101 O 0.06694 0.20052 0.93374 0.0
O102 O 0.13034 0.18402 0.89124 0.0
O103 O 0.1299 0.18753 0.92665 0.0
C104 C 0.13635 0.17717 0.90985 0.0
C105 C 0.10709 0.23638 0.96979 0.0
C106 C 0.06632 0.18951 0.91643 0.0
C107 C 0.10174 0.2499 0.89789 0.0
O108 O 0.09029 0.24846 0.91474 0.0
O109 O 0.11388 0.23447 0.89221 0.0
O110 O 0.08709 0.24048 0.96615 0.0
O111 O 0.1169 0.22398 0.95631 0.0
O112 O 0.36672 0.01758 0.16026 0.0
Cd113 Cd 0.34012 0.03717 0.16175 0.0
Cd114 Cd 0.37026 0.06593 0.14697 0.0
O115 O 0.39056 0.03945 0.14554 0.0
O116 O 0.31504 0.0167 0.1636 0.0
O117 O 0.32041 0.0379 0.13574 0.0
C118 C 0.30942 0.02264 0.14455 0.0
C119 C 0.3678 0.09391 0.12212 0.0
C120 C 0.38556 0.02121 0.15329 0.0
C121 C 0.35395 0.07227 0.19202 0.0
O122 O 0.36718 0.0775 0.17745 0.0
O123 O 0.34036 0.05721 0.18888 0.0
O124 O 0.38554 0.08964 0.13184 0.0
O125 O 0.35173 0.08111 0.12502 0.0
O126 O 0.18492 0.1191 0.43548 0.0
Cd127 Cd 0.20215 0.11394 0.40787 0.0
Cd128 Cd 0.21944 0.08626 0.43316 0.0
O129 O 0.19111 0.08787 0.4508 0.0
O130 O 0.18383 0.1275 0.38537 0.0
O131 O 0.18756 0.0923 0.3888 0.0
C132 C 0.17771 0.10838 0.38017 0.0
C133 C 0.23419 0.05669 0.41503 0.0
C134 C 0.18062 0.10541 0.45 0.0
C135 C 0.24388 0.12656 0.42448 0.0
O136 O 0.23987 0.11197 0.43822 0.0
O137 O 0.23253 0.12804 0.40751 0.0
O138 O 0.23582 0.05849 0.43567 0.0
O139 O 0.22304 0.07101 0.40495 0.0
O140 O 0.15958 1.00076 0.66226 0.0
Cd141 Cd 0.18264 0.97706 0.66212 0.0
Cd142 Cd 0.15145 0.95789 0.64088 0.0
O143 O 0.13749 0.98795 0.63758 0.0
O144 O 0.21055 0.99285 0.66622 0.0
O145 O 0.20161 0.97685 0.6358 0.0
C146 C 0.2147 0.9892 0.64621 0.0
C147 C 0.15712 0.93032 0.61638 0.0
C148 C 0.14306 1.00285 0.65044 0.0
C149 C 0.15961 0.94289 0.68578 0.0
O150 O 0.14635 0.94488 0.67043 0.0
O151 O 0.17763 0.95269 0.68504 0.0
O152 O 0.13798 0.9369 0.62078 0.0
O153 O 0.17317 0.94119 0.62386 0.0
O154 O 0.32468 0.91639 0.945 0.0
Cd155 Cd 0.30825 0.91372 0.9165 0.0
Cd156 Cd 0.2857 0.94359 0.9405 0.0
O157 O 0.31172 0.94492 0.9614 0.0
O158 O 0.32619 0.89017 0.9048 0.0
O159 O 0.32623 0.92239 0.8904 0.0
C160 C 0.33443 0.90339 0.89132 0.0
C161 C 0.2704 0.97204 0.92084 0.0
C162 C 0.32537 0.92977 0.96036 0.0
C163 C 0.26573 0.90017 0.93311 0.0
O164 O 0.26677 0.91669 0.94511 0.0
O165 O 0.279 0.8976 0.91779 0.0
O166 O 0.26705 0.96995 0.94123 0.0
O167 O 0.28344 0.95861 0.91182 0.0
O168 O 0.35111 1.00668 0.36061 0.0
Cd169 Cd 0.32498 0.98741 0.35468 0.0
Cd170 Cd 0.35661 0.95729 0.36984 0.0
O171 O 0.37507 0.98463 0.37494 0.0
O172 O 0.30067 1.00837 0.35179 0.0
O173 O 0.30271 0.98497 0.37832 0.0
C174 C 0.29303 1.00113 0.36962 0.0
C175 C 0.36291 0.92419 0.38646 0.0
C176 C 0.36955 1.0033 0.36868 0.0
C177 C 0.34134 0.95595 0.32291 0.0
O178 O 0.35333 0.94999 0.33817 0.0
O179 O 0.32736 0.9706 0.32571 0.0
O180 O 0.37739 0.93392 0.37546 0.0
O181 O 0.34543 0.93446 0.3906 0.0
O182 O 0.32161 0.1098 0.58155 0.0
Cd183 Cd 0.30529 0.10611 0.60995 0.0
Cd184 Cd 0.28642 0.07768 0.58438 0.0
O185 O 0.31358 0.07963 0.56493 0.0
O186 O 0.32287 0.12523 0.62866 0.0
O187 O 0.32269 0.08997 0.63226 0.0
C188 C 0.33094 0.10832 0.63736 0.0
C189 C 0.27221 0.04718 0.60163 0.0
C190 C 0.32473 0.09675 0.56619 0.0
C191 C 0.26255 0.11818 0.59465 0.0
O192 O 0.26569 0.10344 0.58085 0.0
O193 O 0.27489 0.11996 0.61086 0.0
O194 O 0.26962 0.05024 0.58124 0.0
O195 O 0.28405 0.06081 0.61197 0.0
O196 O 0.15777 0.01567 0.85361 0.0
Cd197 Cd 0.18185 0.03826 0.85341 0.0
Cd198 Cd 0.1491 0.06184 0.87005 0.0
O199 O 0.13251 0.03283 0.87171 0.0
O200 O 0.20904 0.02085 0.85151 0.0
O201 O 0.20028 0.03977 0.8802 0.0
C202 C 0.21306 0.02611 0.87117 0.0
C203 C 0.15099 0.08959 0.89509 0.0
C204 C 0.13923 0.01608 0.86209 0.0
C205 C 0.16363 0.07277 0.82537 0.0
O206 O 0.14953 0.0746 0.83994 0.0
O207 O 0.17952 0.06005 0.82778 0.0
O208 O 0.1329 0.08361 0.88699 0.0
O209 O 0.16784 0.0783 0.89077 0.0
O210 O 0.19349 0.91453 0.07375 0.0
Cd211 Cd 0.21207 0.91021 0.10051 0.0
Cd212 Cd 0.23344 0.94106 0.07649 0.0
O213 O 0.20562 0.94372 0.05792 0.0
O214 O 0.19412 0.88694 0.11288 0.0
O215 O 0.19625 0.91879 0.12797 0.0
C216 C 0.18714 0.9002 0.12704 0.0
C217 C 0.2504 0.9686 0.09628 0.0
C218 C 0.19171 0.92879 0.05933 0.0
C219 C 0.253 0.89671 0.07994 0.0
O220 O 0.25174 0.91416 0.06934 0.0
O221 O 0.24047 0.89327 0.09575 0.0
O222 O 0.25224 0.96741 0.07563 0.0
O223 O 0.23799 0.95476 0.10559 0.0
O224 O 0.18406 0.3553 0.07841 0.0
Cd225 Cd 0.15343 0.35834 0.06737 0.0
Cd226 Cd 0.1691 0.32545 0.04025 0.0
O227 O 0.19613 0.32725 0.06032 0.0
O228 O 0.14141 0.3767 0.09061 0.0
O229 O 0.13087 0.3432 0.08532 0.0
C230 C 0.1305 0.36034 0.09699 0.0
C231 C 0.15305 0.29369 0.0268 0.0
C232 C 0.19879 0.34187 0.07446 0.0
C233 C 0.15877 0.36972 0.02126 0.0
O234 O 0.16641 0.35088 0.01925 0.0
O235 O 0.15114 0.37613 0.03913 0.0
O236 O 0.17199 0.29963 0.0209 0.0
O237 O 0.14377 0.30492 0.04159 0.0
O238 O 0.67571 0.15703 0.94328 0.0
Cd239 Cd 0.64483 0.15548 0.95402 0.0
Cd240 Cd 0.66167 0.18414 0.98457 0.0
O241 O 0.68914 0.18172 0.96508 0.0
O242 O 0.6304 0.13972 0.93018 0.0
O243 O 0.62359 0.17378 0.93746 0.0
C244 C 0.62087 0.15732 0.92513 0.0
C245 C 0.64802 0.21585 1.00083 0.0
C246 C 0.69133 0.16854 0.94949 0.0
C247 C 0.64912 0.13885 0.9986 0.0
O248 O 0.65724 0.15707 1.00301 0.0
O249 O 0.64167 0.13485 0.97999 0.0
O250 O 0.66631 0.20785 1.00629 0.0
O251 O 0.63803 0.20671 0.98507 0.0
O252 O 0.10327 0.43433 0.25105 0.0
Cd253 Cd 0.07821 0.43171 0.22941 0.0
Cd254 Cd 0.10704 0.40706 0.21 0.0
O255 O 0.12033 0.40504 0.24064 0.0
O256 O 0.05027 0.43335 0.24543 0.0
O257 O 0.06207 0.40367 0.22981 0.0
C258 C 0.04789 0.41303 0.24178 0.0
C259 C 0.11043 0.38072 0.18332 0.0
C260 C 0.11802 0.42051 0.25381 0.0
C261 C 0.09802 0.45178 0.19248 0.0
O262 O 0.11084 0.43614 0.19499 0.0
O263 O 0.08077 0.45263 0.20342 0.0
O264 O 0.12691 0.3895 0.19217 0.0
O265 O 0.0918 0.38511 0.19125 0.0
O266 O 0.83451 0.87214 0.43581 0.0
Cd267 Cd 0.86305 0.86679 0.45126 0.0
Cd268 Cd 0.83846 0.84026 0.47103 0.0
O269 O 0.81856 0.8417 0.44401 0.0
O270 O 0.88437 0.87999 0.43144 0.0
O271 O 0.88141 0.84487 0.43608 0.0
C272 C 0.88952 0.86082 0.42558 0.0
C273 C 0.85581 0.81072 0.4872 0.0
C274 C 0.81901 0.85913 0.43324 0.0
C275 C 0.84859 0.88225 0.49231 0.0
O276 O 0.83493 0.86723 0.49001 0.0
O277 O 0.86515 0.88297 0.48037 0.0
O278 O 0.83536 0.81364 0.48932 0.0
O279 O 0.8661 0.82376 0.47471 0.0
O280 O 0.91911 0.08422 0.25378 0.0
Cd281 Cd 0.94344 0.08445 0.23115 0.0
Cd282 Cd 0.91008 0.10549 0.20872 0.0
O283 O 0.89493 0.10524 0.23837 0.0
O284 O 0.97079 0.08155 0.24799 0.0
O285 O 0.9617 0.11129 0.23088 0.0
C286 C 0.97472 0.10147 0.24375 0.0
C287 C 0.90121 0.12986 0.18144 0.0
C288 C 0.90121 0.09406 0.25428 0.0
C289 C 0.92583 0.06123 0.1936 0.0
O290 O 0.91237 0.07647 0.19375 0.0
O291 O 0.94149 0.06119 0.20678 0.0
O292 O 0.88723 0.11737 0.19007 0.0
O293 O 0.92005 0.13047 0.19005 0.0
O294 O 0.33527 0.64941 0.58148 0.0
Cd295 Cd 0.36442 0.65545 0.56725 0.0
Cd296 Cd 0.33992 0.68247 0.54749 0.0
O297 O 0.31918 0.67987 0.57367 0.0
O298 O 0.38491 0.64063 0.58685 0.0
O299 O 0.38269 0.67602 0.58445 0.0
C300 C 0.39031 0.65928 0.59405 0.0
C301 C 0.35739 0.71268 0.53306 0.0
C302 C 0.31958 0.66219 0.58401 0.0
C303 C 0.35228 0.64247 0.52426 0.0
O304 O 0.3378 0.65658 0.52691 0.0
O305 O 0.36811 0.64143 0.53715 0.0
O306 O 0.33709 0.70952 0.53002 0.0
O307 O 0.36736 0.69954 0.54572 0.0
O308 O 0.11827 0.58115 0.27887 0.0
Cd309 Cd 0.0918 0.58782 0.29784 0.0
Cd310 Cd 0.12034 0.61193 0.31639 0.0
O311 O 0.1366 0.61031 0.28724 0.0
O312 O 0.06482 0.58476 0.28024 0.0
O313 O 0.07666 0.61595 0.29252 0.0
C314 C 0.06281 0.60542 0.28114 0.0
C315 C 0.11724 0.64085 0.33997 0.0
C316 C 0.1344 0.59336 0.27597 0.0
C317 C 0.10836 0.57028 0.33768 0.0
O318 O 0.12267 0.58443 0.33432 0.0
O319 O 0.09142 0.57008 0.3262 0.0
O320 O 0.13573 0.63328 0.33465 0.0
O321 O 0.10054 0.63368 0.32995 0.0
O322 O 0.40632 0.43052 0.77517 0.0
Cd323 Cd 0.43178 0.42781 0.79625 0.0
Cd324 Cd 0.40464 0.40256 0.8148 0.0
O325 O 0.39081 0.40001 0.78441 0.0
O326 O 0.45941 0.43116 0.77984 0.0
O327 O 0.44869 0.4004 0.79408 0.0
C328 C 0.46238 0.41076 0.78238 0.0
C329 C 0.41067 0.37603 0.84052 0.0
C330 C 0.39215 0.41617 0.77193 0.0
C331 C 0.41111 0.44653 0.83353 0.0
O332 O 0.39827 0.43099 0.83025 0.0
O333 O 0.42879 0.44736 0.82327 0.0
O334 O 0.39152 0.38057 0.8341 0.0
O335 O 0.42661 0.38479 0.83054 0.0
O336 O 0.94489 0.82855 0.65936 0.0
Cd337 Cd 0.96127 0.85713 0.65988 0.0
Cd338 Cd 0.98112 0.83208 0.68966 0.0
O339 O 0.95443 0.81184 0.68899 0.0
O340 O 0.94438 0.87067 0.63655 0.0
O341 O 0.94239 0.88201 0.66993 0.0
C342 C 0.935 0.88251 0.65058 0.0
C343 C 0.99513 0.85121 0.71917 0.0
C344 C 0.94245 0.81315 0.67246 0.0
C345 C 1.00392 0.84079 0.64795 0.0
O346 O 1.00135 0.82787 0.66358 0.0
O347 O 0.99141 0.85676 0.64552 0.0
O348 O 0.9984 0.83082 0.71695 0.0
O349 O 0.98282 0.8605 0.70523 0.0
O350 O 0.92739 0.18688 0.40037 0.0
Cd351 Cd 0.89926 0.20359 0.40391 0.0
Cd352 Cd 0.92378 0.22308 0.43148 0.0
O353 O 0.94251 0.19533 0.43119 0.0
O354 O 0.87785 0.18428 0.38988 0.0
O355 O 0.87914 0.18949 0.42502 0.0
C356 C 0.87147 0.17896 0.40884 0.0
C357 C 0.90723 0.24021 0.46091 0.0
C358 C 0.94219 0.18401 0.41412 0.0
C359 C 0.91569 0.24451 0.38907 0.0
O360 O 0.92874 0.24191 0.40457 0.0
O361 O 0.89896 0.23281 0.38766 0.0
O362 O 0.92773 0.24144 0.45789 0.0
O363 O 0.89633 0.22812 0.44796 0.0
O364 O 0.57579 0.18745 0.16704 0.0
Cd365 Cd 0.5666 0.15674 0.16077 0.0
Cd366 Cd 0.53558 0.17174 0.19255 0.0
O367 O 0.55429 0.19971 0.19239 0.0
O368 O 0.59037 0.15144 0.14033 0.0
O369 O 0.58753 0.13349 0.17072 0.0
C370 C 0.59869 0.13842 0.15399 0.0
C371 C 0.52027 0.15577 0.22343 0.0
C372 C 0.57003 0.20235 0.17959 0.0
C373 C 0.52099 0.16112 0.14646 0.0
O374 O 0.51712 0.16797 0.16532 0.0
O375 O 0.53963 0.15465 0.14114 0.0
O376 O 0.51396 0.17422 0.21646 0.0
O377 O 0.53629 0.1469 0.21369 0.0
O378 O 0.58336 0.82512 0.90018 0.0
Cd379 Cd 0.6119 0.80899 0.90223 0.0
Cd380 Cd 0.58766 0.78744 0.92946 0.0
O381 O 0.56791 0.8145 0.93017 0.0
O382 O 0.6314 0.82904 0.88658 0.0
O383 O 0.63299 0.8242 0.92172 0.0
C384 C 0.63896 0.83485 0.90494 0.0
C385 C 0.60469 0.76987 0.95844 0.0
C386 C 0.56833 0.82686 0.91384 0.0
C387 C 0.59611 0.76811 0.88596 0.0
O388 O 0.58329 0.76951 0.90181 0.0
O389 O 0.61238 0.78045 0.88477 0.0
O390 O 0.58427 0.76805 0.95521 0.0
O391 O 0.61524 0.78271 0.94595 0.0
O392 O 0.93723 0.18409 0.85787 0.0
Cd393 Cd 0.94768 0.1531 0.86002 0.0
Cd394 Cd 0.97638 0.16865 0.82883 0.0
O395 O 0.95671 0.19596 0.83063 0.0
O396 O 0.92404 0.13894 0.87635 0.0
O397 O 0.93065 0.13182 0.84218 0.0
C398 C 0.91857 0.12936 0.85885 0.0
C399 C 0.99163 0.15369 0.79731 0.0
C400 C 0.94223 0.19893 0.84485 0.0
C401 C 0.9933 0.15728 0.8735 0.0
O402 O 0.99629 0.16528 0.85496 0.0
O403 O 0.97508 0.1498 0.87893 0.0
O404 O 0.99709 0.17246 0.80421 0.0
O405 O 0.97625 0.14401 0.80734 0.0
O406 O 0.57979 0.19038 0.61698 0.0
Cd407 Cd 0.60791 0.20709 0.61308 0.0
Cd408 Cd 0.58284 0.22705 0.58622 0.0
O409 O 0.56347 0.19961 0.587 0.0
O410 O 0.62927 0.18783 0.62716 0.0
O411 O 0.62798 0.19283 0.592 0.0
C412 C 0.63566 0.18243 0.60823 0.0
C413 C 0.59979 0.24383 0.55672 0.0
C414 C 0.56437 0.18795 0.60382 0.0
C415 C 0.59208 0.24805 0.62864 0.0
O416 O 0.57876 0.24582 0.61331 0.0
O417 O 0.60864 0.23612 0.62966 0.0
O418 O 0.57934 0.24554 0.5598 0.0
O419 O 0.61038 0.23143 0.56962 0.0
O420 O 0.57418 0.84374 0.37263 0.0
Cd421 Cd 0.55767 0.87189 0.36919 0.0
Cd422 Cd 0.53888 0.84852 0.34034 0.0
O423 O 0.5665 0.82932 0.34124 0.0
O424 O 0.57719 0.89333 0.38289 0.0
O425 O 0.57175 0.89161 0.34779 0.0
C426 C 0.58254 0.89929 0.36378 0.0
C427 C 0.52298 0.86717 0.31128 0.0
C428 C 0.57732 0.82919 0.35868 0.0
C429 C 0.51672 0.85495 0.38281 0.0
O430 O 0.5194 0.84283 0.36659 0.0
O431 O 0.52847 0.87151 0.38541 0.0
O432 O 0.52104 0.84656 0.31323 0.0
O433 O 0.53507 0.87695 0.32508 0.0
O434 O 0.94061 0.82573 0.11566 0.0
Cd435 Cd 0.91306 0.80782 0.11433 0.0
Cd436 Cd 0.93767 0.78741 0.08687 0.0
O437 O 0.95636 0.81526 0.08579 0.0
O438 O 0.89314 0.82662 0.1308 0.0
O439 O 0.89046 0.82188 0.09572 0.0
C440 C 0.8846 0.83211 0.11279 0.0
C441 C 0.91944 0.77025 0.05836 0.0
C442 C 0.95537 0.828 0.1018 0.0
C443 C 0.93085 0.76754 0.13038 0.0
O444 O 0.94326 0.76928 0.11423 0.0
O445 O 0.91431 0.77945 0.1319 0.0
O446 O 0.94001 0.7686 0.06057 0.0
O447 O 0.90938 0.78264 0.07167 0.0
O448 O 0.65773 0.94024 0.83624 0.0
Cd449 Cd 0.65628 0.95102 0.86717 0.0
Cd450 Cd 0.68833 0.97828 0.85113 0.0
O451 O 0.68608 0.95801 0.82424 0.0
O452 O 0.63941 0.92802 0.88178 0.0
O453 O 0.67397 0.93336 0.88796 0.0
C454 C 0.65696 0.92182 0.89077 0.0
C455 C 0.71992 0.99299 0.86634 0.0
C456 C 0.67114 0.94422 0.82144 0.0
C457 C 0.64445 0.99699 0.86241 0.0
O458 O 0.6629 0.99905 0.85399 0.0
O459 O 0.63852 0.97917 0.87052 0.0
O460 O 0.71354 0.99824 0.84734 0.0
O461 O 0.70939 0.97796 0.87607 0.0
O462 O 0.82712 0.91792 0.57879 0.0
Cd463 Cd 0.81703 0.91225 0.60935 0.0
Cd464 Cd 0.78758 0.94519 0.59377 0.0
O465 O 0.80658 0.94387 0.56618 0.0
O466 O 0.83993 0.89108 0.61564 0.0
O467 O 0.83762 0.92181 0.6331 0.0
C468 C 0.84833 0.90463 0.62876 0.0
C469 C 0.77384 0.97746 0.60832 0.0
C470 C 0.82191 0.93057 0.56378 0.0
C471 C 0.77075 0.89989 0.6045 0.0
O472 O 0.76767 0.91892 0.59769 0.0
O473 O 0.78916 0.89382 0.61101 0.0
O474 O 0.76741 0.97014 0.59004 0.0
O475 O 0.78897 0.96706 0.61797 0.0
O476 O 0.86428 0.07144 0.34762 0.0
Cd477 Cd 0.8553 0.06192 0.37762 0.0
Cd478 Cd 0.82555 0.04236 0.35422 0.0
O479 O 0.83464 0.06389 0.32983 0.0
O480 O 0.86977 0.08309 0.39685 0.0
O481 O 0.83459 0.08225 0.39199 0.0
C482 C 0.85126 0.09183 0.39981 0.0
C483 C 0.79133 0.03192 0.36628 0.0
C484 C 0.85336 0.07228 0.33043 0.0
C485 C 0.8623 0.01615 0.37247 0.0
O486 O 0.84737 0.01803 0.35868 0.0
O487 O 0.86711 0.03171 0.38483 0.0
O488 O 0.79803 0.02696 0.34728 0.0
O489 O 0.80317 0.04475 0.37759 0.0
O490 O 0.69324 0.10854 0.07841 0.0
Cd491 Cd 0.71119 0.11058 0.10586 0.0
Cd492 Cd 0.73193 0.08125 0.08074 0.0
O493 O 0.70417 0.07915 0.06218 0.0
O494 O 0.6936 0.1335 0.11916 0.0
O495 O 0.69424 0.10069 0.13216 0.0
C496 C 0.68572 0.11956 0.13213 0.0
C497 C 0.74862 0.05317 0.09984 0.0
C498 C 0.691 0.09469 0.06365 0.0
C499 C 0.75162 0.12522 0.08623 0.0
O500 O 0.74988 0.10863 0.07439 0.0
O501 O 0.73982 0.12741 0.10277 0.0
O502 O 0.75065 0.05493 0.07924 0.0
O503 O 0.73628 0.06684 0.10948 0.0
O504 O 0.64626 0.07774 0.67268 0.0
Cd505 Cd 0.65335 0.0669 0.64257 0.0
Cd506 Cd 0.68445 0.04849 0.66458 0.0
O507 O 0.67737 0.0714 0.68826 0.0
O508 O 0.63805 0.08731 0.62327 0.0
O509 O 0.67344 0.0865 0.62645 0.0
C510 C 0.65644 0.09585 0.61909 0.0
C511 C 0.71739 0.03777 0.64998 0.0
C512 C 0.65866 0.07972 0.68876 0.0
C513 C 0.64726 0.02119 0.64956 0.0
O514 O 0.66263 0.0238 0.66273 0.0
O515 O 0.64176 0.03622 0.63686 0.0
O516 O 0.71257 0.03366 0.66974 0.0
O517 O 0.70451 0.05006 0.63926 0.0
O518 O 0.68716 0.90291 0.42492 0.0
Cd519 Cd 0.69899 0.90984 0.39523 0.0
Cd520 Cd 0.7193 0.93959 0.41789 0.0
O521 O 0.6958 0.93312 0.44123 0.0
O522 O 0.67772 0.89633 0.3755 0.0
O523 O 0.68083 0.93155 0.37957 0.0
C524 C 0.67032 0.91534 0.37192 0.0
C525 C 0.73114 0.97298 0.40461 0.0
C526 C 0.68591 0.91514 0.44118 0.0
C527 C 0.74428 0.90075 0.40247 0.0
O528 O 0.74283 0.91641 0.41552 0.0
O529 O 0.72885 0.8962 0.38986 0.0
O530 O 0.73525 0.96703 0.42406 0.0
O531 O 0.7186 0.96083 0.39332 0.0
O532 O 0.86004 0.93847 0.18094 0.0
Cd533 Cd 0.86534 0.94818 0.15015 0.0
Cd534 Cd 0.83576 0.97978 0.16351 0.0
O535 O 0.83464 0.96094 0.19138 0.0
O536 O 0.88173 0.92316 0.13888 0.0
O537 O 0.8492 0.93133 0.12733 0.0
C538 C 0.86527 0.91827 0.1274 0.0
C539 C 0.80581 0.99624 0.14676 0.0
C540 C 0.84709 0.94511 0.19515 0.0
C541 C 0.88241 0.99261 0.15499 0.0
O542 O 0.8636 0.9975 0.16122 0.0
O543 O 0.88676 0.97375 0.1484 0.0
O544 O 0.8124 1.00213 0.1655 0.0
O545 O 0.81538 0.98005 0.13798 0.0
O546 O 0.82486 0.11549 0.93232 0.0
Cd547 Cd 0.80757 0.11167 0.9046 0.0
Cd548 Cd 0.79057 0.08228 0.92918 0.0
O549 O 0.81861 0.08414 0.94745 0.0
O550 O 0.82518 0.12869 0.88397 0.0
O551 O 0.8235 0.09321 0.88326 0.0
C552 C 0.83244 0.11074 0.87666 0.0
C553 C 0.77632 0.05217 0.91115 0.0
C554 C 0.82911 0.10171 0.94675 0.0
C555 C 0.76578 0.12302 0.92207 0.0
O556 O 0.76969 0.10754 0.93483 0.0
O557 O 0.77721 0.12566 0.90531 0.0
O558 O 0.77458 0.05424 0.93175 0.0
O559 O 0.78727 0.06662 0.90097 0.0
O560 O 0.84433 0.65045 0.94775 0.0
Cd561 Cd 0.87548 0.64957 0.9575 0.0
Cd562 Cd 0.85963 0.67839 0.98753 0.0
O563 O 0.83167 0.67615 0.96877 0.0
O564 O 0.88986 0.63513 0.93278 0.0
O565 O 0.89497 0.6694 0.94066 0.0
C566 C 0.89791 0.65349 0.92768 0.0
C567 C 0.87477 0.70995 1.00264 0.0
C568 C 0.82901 0.66238 0.95377 0.0
C569 C 0.87193 0.63329 1.00217 0.0
O570 O 0.86382 0.65156 1.00631 0.0
O571 O 0.87945 0.62911 0.98361 0.0
O572 O 0.85641 0.70267 1.00883 0.0
O573 O 0.88395 0.7002 0.98677 0.0
O574 O 0.33447 0.83728 0.06877 0.0
Cd575 Cd 0.36137 0.8561 0.06616 0.0
Cd576 Cd 0.35824 0.83437 0.02491 0.0
O577 O 0.32645 0.8381 0.03468 0.0
O578 O 0.35758 0.87162 0.09375 0.0
O579 O 0.38578 0.85123 0.08752 0.0
C580 C 0.37491 0.8629 0.10074 0.0
C581 C 0.37258 0.80339 1.00828 0.0
C582 C 0.32043 0.83884 0.05417 0.0
C583 C 0.36527 0.88099 0.02389 0.0
O584 O 0.36995 0.86341 0.01454 0.0
O585 O 0.35998 0.8811 0.04367 0.0
O586 O 0.35813 0.81496 0.99903 0.0
O587 O 0.37835 0.80883 0.02748 0.0
O588 O 0.90512 0.58934 0.8219 0.0
Cd589 Cd 0.90409 0.61981 0.81012 0.0
Cd590 Cd 0.93461 0.60262 0.78262 0.0
O591 O 0.933 0.5765 0.80407 0.0
O592 O 0.88901 0.63567 0.83348 0.0
O593 O 0.92352 0.64011 0.82636 0.0
C594 C 0.90731 0.64375 0.83877 0.0
C595 C 0.96583 0.61813 0.76725 0.0
C596 C 0.91838 0.57434 0.8183 0.0
C597 C 0.8901 0.61344 0.7651 0.0
O598 O 0.90835 0.60468 0.76261 0.0
O599 O 0.88512 0.6225 0.78274 0.0
O600 O 0.95965 0.59895 0.76233 0.0
O601 O 0.95525 0.62796 0.78217 0.0
O602 O 0.17173 0.15395 0.57727 0.0
Cd603 Cd 0.14067 0.15662 0.56709 0.0
Cd604 Cd 0.15813 0.18776 0.542 0.0
O605 O 0.18548 0.18233 0.56089 0.0
O606 O 0.12383 0.1417 0.5898 0.0
O607 O 0.12264 0.1769 0.58484 0.0
C608 C 0.11738 0.16031 0.59615 0.0
C609 C 0.14381 0.2207 0.53001 0.0
C610 C 0.18752 0.16626 0.57348 0.0
C611 C 0.14339 0.14635 0.52089 0.0
O612 O 0.15337 0.16409 0.51966 0.0
O613 O 0.13498 0.14031 0.53851 0.0
O614 O 0.16246 0.21414 0.52385 0.0
O615 O 0.13412 0.20956 0.54461 0.0
O616 O 0.11573 0.92826 0.8217 0.0
Cd617 Cd 0.11303 0.89911 0.80716 0.0
Cd618 Cd 0.08065 0.9192 0.78833 0.0
O619 O 0.08381 0.9413 0.81382 0.0
O620 O 0.12904 0.87988 0.82705 0.0
O621 O 0.09364 0.87928 0.82374 0.0
C622 C 0.11067 0.87328 0.83398 0.0
C623 C 0.05005 0.90063 0.77608 0.0
C624 C 0.10141 0.94251 0.82428 0.0
C625 C 0.12085 0.9106 0.76237 0.0
O626 O 0.10374 0.92148 0.76467 0.0
O627 O 0.12703 0.89772 0.77698 0.0
O628 O 0.05238 0.92099 0.77273 0.0
O629 O 0.06411 0.89126 0.78816 0.0
O630 O 0.67176 0.36585 0.44577 0.0
Cd631 Cd 0.6407 0.367 0.45589 0.0
Cd632 Cd 0.65674 0.33687 0.48525 0.0
O633 O 0.68448 0.33972 0.46624 0.0
O634 O 0.62632 0.38281 0.43199 0.0
O635 O 0.62034 0.34842 0.43854 0.0
C636 C 0.61753 0.36495 0.42634 0.0
C637 C 0.64231 0.30487 0.50024 0.0
C638 C 0.68709 0.35376 0.45149 0.0
C639 C 0.64472 0.38167 0.5012 0.0
O640 O 0.65264 0.36319 0.50475 0.0
O641 O 0.63729 0.38655 0.48279 0.0
O642 O 0.66073 0.3123 0.50611 0.0
O643 O 0.63266 0.31471 0.48471 0.0
O644 O 0.90218 0.42598 0.69225 0.0
Cd645 Cd 0.90545 0.39585 0.7046 0.0
Cd646 Cd 0.93732 0.41566 0.72719 0.0
O647 O 0.93145 0.44094 0.70569 0.0
O648 O 0.89022 0.37749 0.68327 0.0
O649 O 0.92554 0.37732 0.6873 0.0
C650 C 0.9088 0.37137 0.67654 0.0
C651 C 0.97105 0.40258 0.73856 0.0
C652 C 0.91483 0.44188 0.6937 0.0
C653 C 0.89658 0.40217 0.75067 0.0
O654 O 0.91416 0.41256 0.75057 0.0
O655 O 0.89026 0.3921 0.73404 0.0
O656 O 0.9645 0.42155 0.74371 0.0
O657 O 0.95919 0.3916 0.72548 0.0
O658 O 0.616 0.58786 0.18986 0.0
Cd659 Cd 0.60988 0.61694 0.20383 0.0
Cd660 Cd 0.58187 0.59263 0.22289 0.0
O661 O 0.58473 0.57262 0.19603 0.0
O662 O 0.62443 0.63714 0.18366 0.0
O663 O 0.58911 0.63423 0.18607 0.0
C664 C 0.60571 0.64155 0.176 0.0
C665 C 0.55096 0.60835 0.23808 0.0
C666 C 0.60275 0.57276 0.1863 0.0
C667 C 0.62207 0.60431 0.24672 0.0
O668 O 0.60766 0.59017 0.24364 0.0
O669 O 0.62364 0.62036 0.23413 0.0
O670 O 0.55496 0.58809 0.24027 0.0
O671 O 0.56369 0.61935 0.22587 0.0
O672 O 0.57821 0.6815 0.84786 0.0
Cd673 Cd 0.57058 0.65006 0.85284 0.0
Cd674 Cd 0.53849 0.66459 0.82178 0.0
O675 O 0.55571 0.69344 0.82319 0.0
O676 O 0.59501 0.64459 0.87253 0.0
O677 O 0.59183 0.62776 0.84151 0.0
C678 C 0.6032 0.63214 0.85827 0.0
C679 C 0.52227 0.65014 0.79063 0.0
C680 C 0.57137 0.69653 0.83601 0.0
C681 C 0.52493 0.65136 0.86747 0.0
O682 O 0.52064 0.65871 0.8489 0.0
O683 O 0.54394 0.64583 0.87255 0.0
O684 O 0.51597 0.66805 0.79887 0.0
O685 O 0.53888 0.64109 0.79913 0.0
O686 O 0.58821 0.32994 0.1202 0.0
Cd687 Cd 0.61613 0.31327 0.11595 0.0
Cd688 Cd 0.59141 0.2941 0.08862 0.0
O689 O 0.57284 0.32204 0.08935 0.0
O690 O 0.6378 0.33283 0.12911 0.0
O691 O 0.63528 0.3274 0.09405 0.0
C692 C 0.64325 0.33824 0.10987 0.0
C693 C 0.60768 0.27687 0.05896 0.0
C694 C 0.57334 0.3331 0.10661 0.0
C695 C 0.59941 0.27296 0.13135 0.0
O696 O 0.5865 0.27551 0.11572 0.0
O697 O 0.61637 0.28433 0.13262 0.0
O698 O 0.5872 0.27577 0.06215 0.0
O699 O 0.61874 0.28883 0.0719 0.0
O700 O 0.93716 0.33237 0.35516 0.0
Cd701 Cd 0.94653 0.36348 0.35912 0.0
Cd702 Cd 0.97597 0.34856 0.32768 0.0
O703 O 0.95744 0.32047 0.32863 0.0
O704 O 0.922 0.37252 0.37737 0.0
O705 O 0.92749 0.38602 0.34502 0.0
C706 C 0.91529 0.38412 0.36165 0.0
C707 C 0.99031 0.36498 0.29664 0.0
C708 C 0.94255 0.31752 0.34237 0.0
C709 C 0.9922 0.36 0.37281 0.0
O710 O 0.99543 0.35244 0.3541 0.0
O711 O 0.97373 0.36679 0.37836 0.0
O712 O 0.99677 0.34638 0.30305 0.0
O713 O 0.97449 0.37363 0.30691 0.0
O714 O 0.93164 0.6951 0.60067 0.0
Cd715 Cd 0.90058 0.70366 0.60592 0.0
Cd716 Cd 0.91501 0.73723 0.57759 0.0
O717 O 0.9438 0.71971 0.57818 0.0
O718 O 0.89276 0.67778 0.62291 0.0
O719 O 0.87755 0.68509 0.59175 0.0
C720 C 0.88032 0.67194 0.60751 0.0
C721 C 0.89973 0.7538 0.54679 0.0
C722 C 0.94678 0.70298 0.58965 0.0
C723 C 0.90364 0.74796 0.62435 0.0
O724 O 0.91004 0.7538 0.60583 0.0
O725 O 0.898 0.72863 0.62799 0.0
O726 O 0.91766 0.76028 0.55487 0.0
O727 O 0.89095 0.73707 0.5554 0.0
O728 O 0.57318 0.33543 0.66501 0.0
Cd729 Cd 0.56438 0.36668 0.6611 0.0
Cd730 Cd 0.53433 0.35167 0.69255 0.0
O731 O 0.55226 0.32331 0.69094 0.0
O732 O 0.58875 0.37478 0.64223 0.0
O733 O 0.58431 0.38903 0.6744 0.0
C734 C 0.5961 0.3865 0.65756 0.0
C735 C 0.51977 0.36662 0.72425 0.0
C736 C 0.5673 0.32041 0.67737 0.0
C737 C 0.51859 0.36403 0.64743 0.0
O738 O 0.5151 0.35654 0.66612 0.0
O739 O 0.53724 0.37035 0.64191 0.0
O740 O 0.51324 0.34843 0.71679 0.0
O741 O 0.53567 0.37576 0.71454 0.0
O742 O 0.93137 0.33355 0.89326 0.0
Cd743 Cd 0.9029 0.31819 0.89927 0.0
Cd744 Cd 0.92735 0.30024 0.92702 0.0
O745 O 0.94616 0.32783 0.92483 0.0
O746 O 0.88116 0.33764 0.88606 0.0
O747 O 0.88539 0.33418 0.92122 0.0
C748 C 0.87687 0.34429 0.90522 0.0
C749 C 0.91023 0.28512 0.95704 0.0
C750 C 0.9461 0.33755 0.9068 0.0
C751 C 0.91755 0.27591 0.88693 0.0
O752 O 0.93152 0.27968 0.90134 0.0
O753 O 0.90087 0.28766 0.88553 0.0
O754 O 0.93076 0.2835 0.95448 0.0
O755 O 0.8997 0.29665 0.94334 0.0
O756 O 0.94344 0.68133 0.17222 0.0
Cd757 Cd 0.95003 0.65035 0.16403 0.0
Cd758 Cd 0.98688 0.66187 0.19113 0.0
O759 O 0.97193 0.69194 0.19048 0.0
O760 O 0.92388 0.64746 0.14597 0.0
O761 O 0.92929 0.62676 0.17409 0.0
C762 C 0.91674 0.63313 0.15892 0.0
C763 C 1.00471 0.64764 0.22169 0.0
C764 C 0.95403 0.69603 0.18144 0.0
C765 C 0.99409 0.65097 0.1438 0.0
O766 O 1.00162 0.65509 0.16236 0.0
O767 O 0.97404 0.64823 0.14087 0.0
O768 O 0.01153 0.66461 0.21202 0.0
O769 O 0.98708 0.6392 0.21474 0.0
O770 O 0.59722 0.69678 0.3975 0.0
Cd771 Cd 0.62612 0.71057 0.40372 0.0
Cd772 Cd 0.60368 0.72783 0.43499 0.0
O773 O 0.58259 0.70188 0.4293 0.0
O774 O 0.64669 0.69062 0.38954 0.0
O775 O 0.64302 0.69305 0.42488 0.0
C776 C 0.65068 0.68298 0.4084 0.0
C777 C 0.61907 0.73985 0.4675 0.0
C778 C 0.5823 0.69294 0.41081 0.0
C779 C 0.61472 0.7551 0.39619 0.0
O780 O 0.6024 0.75191 0.41217 0.0
O781 O 0.62872 0.74119 0.39092 0.0
O782 O 0.5989 0.74254 0.46346 0.0
O783 O 0.63006 0.7286 0.45394 0.0
O784 O 0.8529 0.51782 0.67903 0.0
Cd785 Cd 0.82729 0.53859 0.67531 0.0
Cd786 Cd 0.85646 0.55825 0.65121 0.0
O787 O 0.87086 0.52819 0.65026 0.0
O788 O 0.79994 0.52141 0.67642 0.0
O789 O 0.81175 0.53723 0.64687 0.0
C790 C 0.79786 0.52474 0.65601 0.0
C791 C 0.86111 0.58478 0.62493 0.0
C792 C 0.86831 0.51529 0.6659 0.0
C793 C 0.84577 0.57633 0.69539 0.0
O794 O 0.85901 0.5738 0.68011 0.0
O795 O 0.82869 0.56505 0.69597 0.0
O796 O 0.87709 0.57609 0.63468 0.0
O797 O 0.84232 0.57667 0.62823 0.0
O798 O 0.69664 0.60203 0.9346 0.0
Cd799 Cd 0.7147 0.60289 0.90711 0.0
Cd800 Cd 0.73349 0.57238 0.93144 0.0
O801 O 0.70544 0.5714 0.94983 0.0
O802 O 0.69812 0.62607 0.89296 0.0
O803 O 0.69763 0.59282 0.881 0.0
C804 C 0.6898 0.61199 0.88038 0.0
C805 C 0.74939 0.54436 0.9115 0.0
C806 C 0.69336 0.58787 0.94887 0.0
C807 C 0.75596 0.61486 0.92651 0.0
O808 O 0.75288 0.59855 0.93844 0.0
O809 O 0.74444 0.6178 0.90988 0.0
O810 O 0.75133 0.54542 0.93216 0.0
O811 O 0.73732 0.55856 0.90228 0.0
O812 O 0.66009 0.49806 0.16361 0.0
Cd813 Cd 0.68333 0.47464 0.16481 0.0
Cd814 Cd 0.65282 0.4543 0.14345 0.0
O815 O 0.63858 0.48407 0.13906 0.0
O816 O 0.71109 0.49084 0.1685 0.0
O817 O 0.70266 0.47337 0.13876 0.0
C818 C 0.71552 0.48631 0.14873 0.0
C819 C 0.65784 0.42607 0.11945 0.0
C820 C 0.64374 0.49947 0.15147 0.0
C821 C 0.65997 0.44126 0.1893 0.0
O822 O 0.64732 0.44219 0.17334 0.0
O823 O 0.67783 0.45136 0.18877 0.0
O824 O 0.63888 0.43302 0.12399 0.0
O825 O 0.67414 0.43674 0.12664 0.0
O826 O 0.82067 0.40989 0.43484 0.0
Cd827 Cd 0.80317 0.4114 0.40705 0.0
Cd828 Cd 0.78557 0.44164 0.43183 0.0
O829 O 0.81364 0.44095 0.45015 0.0
O830 O 0.81959 0.38939 0.39085 0.0
O831 O 0.8208 0.42373 0.38244 0.0
C832 C 0.82839 0.4046 0.38 0.0
C833 C 0.77095 0.471 0.41295 0.0
C834 C 0.82471 0.42378 0.4492 0.0
C835 C 0.76138 0.40029 0.42537 0.0
O836 O 0.7651 0.41603 0.4379 0.0
O837 O 0.77285 0.39748 0.40869 0.0
O838 O 0.76903 0.46937 0.43357 0.0
O839 O 0.78225 0.45654 0.4032 0.0
O840 O 0.86111 0.49608 0.83729 0.0
Cd841 Cd 0.8359 0.4752 0.84273 0.0
Cd842 Cd 0.86521 0.45796 0.86626 0.0
O843 O 0.87918 0.4884 0.86679 0.0
O844 O 0.80808 0.49174 0.84122 0.0
O845 O 0.82089 0.47796 0.87134 0.0
C846 C 0.80651 0.48955 0.86183 0.0
C847 C 0.86154 0.43187 0.89278 0.0
C848 C 0.87653 0.49995 0.85011 0.0
C849 C 0.85602 0.43785 0.82352 0.0
O850 O 0.86988 0.44214 0.83787 0.0
O851 O 0.83797 0.44754 0.82369 0.0
O852 O 0.8802 0.43895 0.88725 0.0
O853 O 0.84483 0.44169 0.88538 0.0
O854 O 0.82521 0.6017 0.08104 0.0
Cd855 Cd 0.80692 0.60119 0.10842 0.0
Cd856 Cd 0.78908 0.57096 0.083 0.0
O857 O 0.81728 0.57127 0.06491 0.0
O858 O 0.82266 0.62441 0.12354 0.0
O859 O 0.82401 0.5908 0.13437 0.0
C860 C 0.83122 0.61019 0.13578 0.0
C861 C 0.77389 0.54191 0.10196 0.0
C862 C 0.82894 0.58801 0.06642 0.0
C863 C 0.76538 0.6125 0.08918 0.0
O864 O 0.76899 0.59674 0.07667 0.0
O865 O 0.77675 0.61521 0.10596 0.0
O866 O 0.77213 0.54345 0.08131 0.0
O867 O 0.78539 0.55626 0.1117 0.0
O868 O 0.65812 0.52087 0.35124 0.0
Cd869 Cd 0.68312 0.54236 0.34989 0.0
Cd870 Cd 0.65247 0.56734 0.36785 0.0
O871 O 0.63478 0.53908 0.37083 0.0
O872 O 0.70929 0.52362 0.34668 0.0
O873 O 0.70286 0.54281 0.37579 0.0
C874 C 0.71447 0.52853 0.36616 0.0
C875 C 0.65784 0.59473 0.39282 0.0
C876 C 0.64017 0.52208 0.36083 0.0
C877 C 0.6649 0.57735 0.32237 0.0
O878 O 0.65159 0.57984 0.33758 0.0
O879 O 0.68051 0.56418 0.32427 0.0
O880 O 0.63888 0.58994 0.38599 0.0
O881 O 0.67362 0.58251 0.38717 0.0
O882 O 0.6905 0.41089 0.58197 0.0
Cd883 Cd 0.70805 0.41185 0.60982 0.0
Cd884 Cd 0.72637 0.44167 0.58543 0.0
O885 O 0.69846 0.4418 0.56683 0.0
O886 O 0.69123 0.39009 0.62591 0.0
O887 O 0.6909 0.42438 0.63465 0.0
C888 C 0.68294 0.40538 0.63703 0.0
C889 C 0.74144 0.47002 0.60548 0.0
C890 C 0.68693 0.42491 0.56762 0.0
C891 C 0.74971 0.40004 0.59168 0.0
O892 O 0.74631 0.4158 0.57913 0.0
O893 O 0.73811 0.39742 0.6083 0.0
O894 O 0.74368 0.46899 0.58485 0.0
O895 O 0.72948 0.45562 0.61456 0.0
O896 O 0.68109 0.86586 0.57455 0.0
Cd897 Cd 0.65137 0.86063 0.56188 0.0
Cd898 Cd 0.67424 0.83103 0.54013 0.0
O899 O 0.69784 0.83659 0.56375 0.0
O900 O 0.6323 0.87581 0.58263 0.0
O901 O 0.63342 0.8404 0.57982 0.0
C902 C 0.62676 0.85725 0.58993 0.0
C903 C 0.6602 0.79826 0.52717 0.0
C904 C 0.69751 0.85381 0.57494 0.0
C905 C 0.65931 0.87104 0.51667 0.0
O906 O 0.67194 0.85503 0.51743 0.0
O907 O 0.64695 0.87537 0.53235 0.0
O908 O 0.67968 0.80407 0.52306 0.0
O909 O 0.64933 0.81009 0.54035 0.0
O910 O 0.18623 0.65146 0.4391 0.0
Cd911 Cd 0.1571 0.65822 0.45292 0.0
Cd912 Cd 0.18199 0.68509 0.47269 0.0
O913 O 0.20289 0.68171 0.44667 0.0
O914 O 0.13664 0.64336 0.43327 0.0
O915 O 0.13946 0.67874 0.43504 0.0
C916 C 0.13173 0.66194 0.4256 0.0
C917 C 0.16531 0.71591 0.48682 0.0
C918 C 0.2022 0.66391 0.43653 0.0
C919 C 0.16862 0.64551 0.49617 0.0
O920 O 0.18337 0.65937 0.49355 0.0
O921 O 0.15289 0.64458 0.48314 0.0
O922 O 0.18553 0.7123 0.48985 0.0
O923 O 0.15498 0.70287 0.47434 0.0
O924 O 0.61475 0.9313 0.7408 0.0
Cd925 Cd 0.58953 0.92662 0.71975 0.0
Cd926 Cd 0.61806 0.90242 0.70232 0.0
O927 O 0.63147 0.90109 0.73298 0.0
O928 O 0.56175 0.92987 0.73589 0.0
O929 O 0.57332 0.89884 0.72299 0.0
C930 C 0.55929 0.90931 0.73416 0.0
C931 C 0.61345 0.8754 0.67685 0.0
C932 C 0.62945 0.91772 0.74474 0.0
C933 C 0.60981 0.94541 0.68245 0.0
O934 O 0.62349 0.93085 0.68655 0.0
O935 O 0.59179 0.94532 0.69214 0.0
O936 O 0.63232 0.88072 0.68355 0.0
O937 O 0.59703 0.88361 0.68649 0.0
O938 O 0.34682 0.36842 0.94489 0.0
Cd939 Cd 0.37664 0.36155 0.95647 0.0
Cd940 Cd 0.35446 0.33063 0.97516 0.0
O941 O 0.33108 0.33746 0.9517 0.0
O942 O 0.39621 0.3764 0.93599 0.0
O943 O 0.39297 0.341 0.93759 0.0
C944 C 0.40039 0.35779 0.92789 0.0
C945 C 0.36914 0.29766 0.98633 0.0
C946 C 0.33078 0.35599 0.94288 0.0
C947 C 0.36891 0.36861 1.00192 0.0
O948 O 0.35601 0.35296 0.99952 0.0
O949 O 0.38171 0.37395 0.98693 0.0
O950 O 0.3494 0.30256 0.99037 0.0
O951 O 0.37986 0.3105 0.97399 0.0
O952 O 0.40591 0.58544 0.74462 0.0
Cd953 Cd 0.43066 0.58892 0.72278 0.0
Cd954 Cd 0.40255 0.61398 0.70567 0.0
O955 O 0.38967 0.61584 0.73647 0.0
O956 O 0.45897 0.58574 0.73803 0.0
O957 O 0.44737 0.61652 0.72458 0.0
C958 C 0.46167 0.60619 0.73553 0.0
C959 C 0.40672 0.64104 0.68015 0.0
C960 C 0.39158 0.59943 0.74853 0.0
C961 C 0.40888 0.57031 0.68615 0.0
O962 O 0.39601 0.58565 0.69007 0.0
O963 O 0.42697 0.56963 0.69569 0.0
O964 O 0.38801 0.63585 0.68734 0.0
O965 O 0.42332 0.63259 0.68925 0.0
O966 O 0.83637 0.16626 0.06771 0.0
Cd967 Cd 0.86781 0.16104 0.06064 0.0
Cd968 Cd 0.85357 0.19246 0.02817 0.0
O969 O 0.8243 0.19017 0.04445 0.0
O970 O 0.87157 0.13981 0.08409 0.0
O971 O 0.88962 0.17021 0.08355 0.0
C972 C 0.8841 0.15304 0.09373 0.0
C973 C 0.8676 0.22447 0.01318 0.0
C974 C 0.82123 0.17756 0.06028 0.0
C975 C 0.86684 0.14684 0.01459 0.0
O976 O 0.86002 0.16557 0.01012 0.0
O977 O 0.87188 0.14168 0.03374 0.0
O978 O 0.85019 0.21583 1.00607 0.0
O979 O 0.8765 0.21568 0.02974 0.0
O980 O 0.60077 0.09189 0.76953 0.0
Cd981 Cd 0.57836 0.09195 0.79391 0.0
Cd982 Cd 0.60948 0.11432 0.81241 0.0
O983 O 0.62268 0.11692 0.78196 0.0
O984 O 0.54988 0.08789 0.77924 0.0
O985 O 0.55977 0.11844 0.79445 0.0
C986 C 0.54612 0.10799 0.78274 0.0
C987 C 0.60552 0.14067 0.83856 0.0
C988 C 0.61701 0.10404 0.76713 0.0
C989 C 0.60146 0.06985 0.82918 0.0
O990 O 0.6145 0.08537 0.82695 0.0
O991 O 0.58378 0.06977 0.81881 0.0
O992 O 0.62425 0.13511 0.83171 0.0
O993 O 0.58887 0.13298 0.82883 0.0
O994 O 0.90045 0.93379 0.27836 0.0
Cd995 Cd 0.92556 0.92856 0.29937 0.0
Cd996 Cd 0.89785 0.90245 0.3146 0.0
O997 O 0.88517 0.90228 0.28365 0.0
O998 O 0.95367 0.93258 0.28384 0.0
O999 O 0.94161 0.90097 0.29474 0.0
C1000 C 0.95588 0.91192 0.28437 0.0
C1001 C 0.90395 0.87488 0.33895 0.0
C1002 C 0.88648 0.91981 0.27317 0.0
C1003 C 0.90392 0.94416 0.33737 0.0
O1004 O 0.89075 0.9296 0.33179 0.0
O1005 O 0.92222 0.94521 0.32827 0.0
O1006 O 0.88484 0.87904 0.33213 0.0
O1007 O 0.9199 0.88443 0.32973 0.0
O1008 O 0.4437 0.34604 0.14944 0.0
Cd1009 Cd 0.45553 0.3757 0.15656 0.0
Cd1010 Cd 0.47546 0.35305 0.18608 0.0
O1011 O 0.4518 0.32969 0.17975 0.0
O1012 O 0.43433 0.39547 0.1431 0.0
O1013 O 0.43743 0.39133 0.17831 0.0
C1014 C 0.42694 0.39902 0.16213 0.0
C1015 C 0.48727 0.3677 0.21895 0.0
C1016 C 0.4422 0.32975 0.1616 0.0
C1017 C 0.50046 0.36798 0.14715 0.0
O1018 O 0.49882 0.35487 0.16271 0.0
O1019 O 0.48532 0.38098 0.14282 0.0
O1020 O 0.49146 0.34805 0.21376 0.0
O1021 O 0.47462 0.37839 0.2064 0.0
O1022 O 0.43927 0.68764 0.89698 0.0
Cd1023 Cd 0.4114 0.70498 0.89965 0.0
Cd1024 Cd 0.43599 0.72519 0.9264 0.0
O1025 O 0.45487 0.69763 0.92711 0.0
O1026 O 0.38988 0.68584 0.88563 0.0
O1027 O 0.39059 0.69175 0.92067 0.0
C1028 C 0.38295 0.68114 0.90455 0.0
C1029 C 0.41732 0.74199 0.95455 0.0
C1030 C 0.45423 0.68541 0.91069 0.0
C1031 C 0.42817 0.7456 0.88367 0.0
O1032 O 0.44123 0.74352 0.89924 0.0
O1033 O 0.41153 0.73375 0.88257 0.0
O1034 O 0.43794 0.7437 0.95289 0.0
O1035 O 0.40751 0.72965 0.94099 0.0
O1036 O 0.07724 0.68314 0.64901 0.0
Cd1037 Cd 0.05906 0.6559 0.65166 0.0
Cd1038 Cd 0.04093 0.68034 0.68032 0.0
O1039 O 0.06952 0.69801 0.68016 0.0
O1040 O 0.0773 0.63443 0.63647 0.0
O1041 O 0.07278 0.63452 0.67172 0.0
C1042 C 0.08288 0.62731 0.65509 0.0
C1043 C 0.02446 0.6624 0.70947 0.0
C1044 C 0.08097 0.69734 0.66318 0.0
C1045 C 0.0187 0.67464 0.63772 0.0
O1046 O 0.02176 0.68684 0.65386 0.0
O1047 O 0.02987 0.65765 0.63547 0.0
O1048 O 0.02338 0.68305 0.70749 0.0
O1049 O 0.03591 0.65207 0.69554 0.0
O1050 O 0.07939 0.32508 0.40722 0.0
Cd1051 Cd 0.10802 0.31007 0.41374 0.0
Cd1052 Cd 0.08272 0.29099 0.44105 0.0
O1053 O 0.062 0.31701 0.43692 0.0
O1054 O 0.12935 0.32892 0.39908 0.0
O1055 O 0.12659 0.32675 0.43444 0.0
C1056 C 0.13478 0.33598 0.41777 0.0
C1057 C 0.0995 0.27835 0.47241 0.0
C1058 C 0.06323 0.32758 0.41942 0.0
C1059 C 0.09583 0.26638 0.40198 0.0
O1060 O 0.08142 0.26907 0.41617 0.0
O1061 O 0.11122 0.27972 0.4002 0.0
O1062 O 0.0793 0.27501 0.46894 0.0
O1063 O 0.10975 0.29028 0.45882 0.0
O1064 O 0.45003 0.67194 0.36823 0.0
Cd1065 Cd 0.46436 0.64302 0.36358 0.0
Cd1066 Cd 0.48214 0.66529 0.33153 0.0
O1067 O 0.45697 0.68722 0.33705 0.0
O1068 O 0.44505 0.62301 0.37946 0.0
O1069 O 0.44706 0.62399 0.34395 0.0
C1070 C 0.43746 0.6172 0.36107 0.0
C1071 C 0.49408 0.65 0.29895 0.0
C1072 C 0.44722 0.68727 0.35511 0.0
C1073 C 0.50898 0.65511 0.37104 0.0
O1074 O 0.5062 0.66644 0.35428 0.0
O1075 O 0.49477 0.64171 0.37707 0.0
O1076 O 0.49712 0.67008 0.30323 0.0
O1077 O 0.48253 0.63904 0.3123 0.0
O1078 O 0.07363 0.69258 0.11116 0.0
Cd1079 Cd 0.10132 0.7102 0.11384 0.0
Cd1080 Cd 0.0763 0.73269 0.0854 0.0
O1081 O 0.05678 0.70562 0.08298 0.0
O1082 O 0.11449 0.69196 0.13634 0.0
O1083 O 0.12785 0.69375 0.10372 0.0
C1084 C 0.12788 0.68483 0.12242 0.0
C1085 C 0.09545 0.7496 0.0575 0.0
C1086 C 0.05836 0.69156 0.09772 0.0
C1087 C 0.08287 0.75104 0.12969 0.0
O1088 O 0.07087 0.75028 0.11314 0.0
O1089 O 0.09885 0.73845 0.13144 0.0
O1090 O 0.07494 0.75202 0.0595 0.0
O1091 O 0.10495 0.73671 0.07076 0.0
O1092 O 0.07682 0.34397 0.86601 0.0
Cd1093 Cd 0.0666 0.3743 0.85895 0.0
Cd1094 Cd 0.04581 0.35166 0.82868 0.0
O1095 O 0.06815 0.32741 0.83592 0.0
O1096 O 0.08759 0.39288 0.87447 0.0
O1097 O 0.08649 0.39038 0.83902 0.0
C1098 C 0.09605 0.39731 0.8561 0.0
C1099 C 0.03345 0.36425 0.79526 0.0
C1100 C 0.07748 0.32735 0.8542 0.0
C1101 C 0.02091 0.36877 0.86687 0.0
O1102 O 0.02233 0.35533 0.85158 0.0
O1103 O 0.03662 0.38095 0.87162 0.0
O1104 O 0.0292 0.34501 0.80177 0.0
O1105 O 0.04667 0.37553 0.80668 0.0
O1106 O 0.43209 0.32756 0.6162 0.0
Cd1107 Cd 0.40372 0.31123 0.61212 0.0
Cd1108 Cd 0.42849 0.29166 0.58472 0.0
O1109 O 0.44827 0.31869 0.58605 0.0
O1110 O 0.38293 0.33008 0.62748 0.0
O1111 O 0.38328 0.32652 0.59213 0.0
C1112 C 0.37606 0.33625 0.60897 0.0
C1113 C 0.41083 0.27644 0.55487 0.0
C1114 C 0.4475 0.33007 0.60307 0.0
C1115 C 0.41885 0.26947 0.62631 0.0
O1116 O 0.43231 0.27195 0.61116 0.0
O1117 O 0.40256 0.2817 0.62768 0.0
O1118 O 0.43126 0.27404 0.55768 0.0
O1119 O 0.40069 0.28862 0.56831 0.0
O1120 O 0.15156 0.43917 0.34597 0.0
Cd1121 Cd 0.1542 0.45013 0.37685 0.0
Cd1122 Cd 0.18661 0.47413 0.35836 0.0
O1123 O 0.18029 0.45448 0.33176 0.0
O1124 O 0.13743 0.42884 0.39383 0.0
O1125 O 0.17275 0.43179 0.39615 0.0
C1126 C 0.15536 0.42169 0.40122 0.0
C1127 C 0.22056 0.48568 0.3706 0.0
C1128 C 0.16396 0.44219 0.33008 0.0
C1129 C 0.14594 0.49677 0.37324 0.0
O1130 O 0.16368 0.49727 0.36321 0.0
O1131 O 0.1392 0.47947 0.38177 0.0
O1132 O 0.21319 0.4914 0.35211 0.0
O1133 O 0.20947 0.47188 0.38145 0.0
O1134 O 0.33071 0.39384 0.09117 0.0
Cd1135 Cd 0.31432 0.39922 0.11918 0.0
Cd1136 Cd 0.29653 0.42707 0.09448 0.0
O1137 O 0.32445 0.42517 0.0761 0.0
O1138 O 0.33349 0.38671 0.14161 0.0
O1139 O 0.32871 0.4217 0.1374 0.0
C1140 C 0.33916 0.40612 0.14624 0.0
C1141 C 0.28134 0.45697 0.11193 0.0
C1142 C 0.3346 0.40739 0.07642 0.0
C1143 C 0.27286 0.38609 0.10303 0.0
O1144 O 0.2764 0.40111 0.08965 0.0
O1145 O 0.28431 0.38446 0.11991 0.0
O1146 O 0.27979 0.45463 0.09134 0.0
O1147 O 0.29265 0.44302 0.12235 0.0
O1148 O 0.36054 0.57705 0.83979 0.0
Cd1149 Cd 0.35947 0.5662 0.87072 0.0
Cd1150 Cd 0.32692 0.5414 0.85315 0.0
O1151 O 0.33135 0.56166 0.82659 0.0
O1152 O 0.37702 0.58794 0.8863 0.0
O1153 O 0.34187 0.58508 0.89042 0.0
C1154 C 0.35946 0.59541 0.8942 0.0
C1155 C 0.29415 0.52871 0.86738 0.0
C1156 C 0.34742 0.57424 0.82445 0.0
C1157 C 0.36873 0.51978 0.86642 0.0
O1158 O 0.35079 0.51897 0.85675 0.0
O1159 O 0.37517 0.53711 0.87517 0.0
O1160 O 0.30058 0.52325 0.84845 0.0
O1161 O 0.30538 0.54295 0.87753 0.0
O1162 O 0.1876 0.61281 0.58762 0.0
Cd1163 Cd 0.19847 0.61059 0.61847 0.0
Cd1164 Cd 0.22266 0.57847 0.60043 0.0
O1165 O 0.20243 0.58357 0.574 0.0
O1166 O 0.17646 0.62662 0.63524 0.0
O1167 O 0.18022 0.59132 0.63714 0.0
C1168 C 0.16948 0.60836 0.64206 0.0
C1169 C 0.23431 0.54514 0.61418 0.0
C1170 C 0.19019 0.59989 0.57206 0.0
C1171 C 0.24492 0.61976 0.61435 0.0
O1172 O 0.24554 0.60197 0.60434 0.0
O1173 O 0.22768 0.62611 0.62328 0.0
O1174 O 0.24 0.55169 0.59536 0.0
O1175 O 0.22051 0.55668 0.62453 0.0
O1176 O 0.16961 0.57331 0.18868 0.0
Cd1177 Cd 0.16216 0.56602 0.15766 0.0
Cd1178 Cd 0.19282 0.53196 0.17085 0.0
O1179 O 0.19266 0.54884 0.19995 0.0
O1180 O 0.14173 0.59024 0.15487 0.0
O1181 O 0.17075 0.58813 0.13482 0.0
C1182 C 0.15438 0.59904 0.14121 0.0
C1183 C 0.2235 0.51528 0.1558 0.0
C1184 C 0.18122 0.56547 0.20338 0.0
C1185 C 0.14611 0.5205 0.1593 0.0
O1186 O 0.16487 0.51517 0.16537 0.0
O1187 O 0.14157 0.53988 0.15464 0.0
O1188 O 0.21519 0.50876 0.17359 0.0
O1189 O 0.21521 0.53217 0.14705 0.0
O1190 O 0.19355 0.40011 0.93228 0.0
Cd1191 Cd 0.20846 0.40485 0.9035 0.0
Cd1192 Cd 0.22669 0.43649 0.92584 0.0
O1193 O 0.20199 0.43066 0.94815 0.0
O1194 O 0.18928 0.39031 0.88232 0.0
O1195 O 0.19267 0.42567 0.88446 0.0
C1196 C 0.18285 0.40915 0.87658 0.0
C1197 C 0.23734 0.46923 0.91015 0.0
C1198 C 0.19152 0.41301 0.94796 0.0
C1199 C 0.25367 0.39753 0.91455 0.0
O1200 O 0.25126 0.41425 0.92605 0.0
O1201 O 0.23889 0.39139 0.90183 0.0
O1202 O 0.24103 0.46519 0.93017 0.0
O1203 O 0.22589 0.4555 0.89956 0.0
O1204 O 0.35972 0.43838 0.68059 0.0
Cd1205 Cd 0.35728 0.45002 0.64997 0.0
Cd1206 Cd 0.32528 0.47369 0.66881 0.0
O1207 O 0.33068 0.45298 0.69482 0.0
O1208 O 0.37368 0.42878 0.63262 0.0
O1209 O 0.33838 0.43211 0.63056 0.0
C1210 C 0.35561 0.42184 0.62533 0.0
C1211 C 0.29211 0.48561 0.65506 0.0
C1212 C 0.34701 0.44068 0.69634 0.0
C1213 C 0.36612 0.49646 0.65478 0.0
O1214 O 0.34855 0.49678 0.66512 0.0
O1215 O 0.37246 0.4794 0.6455 0.0
O1216 O 0.29849 0.49091 0.67406 0.0
O1217 O 0.30364 0.47189 0.64458 0.0
O1218 O 0.33272 0.60966 0.43292 0.0
Cd1219 Cd 0.3215 0.60787 0.40214 0.0
Cd1220 Cd 0.29576 0.57683 0.42068 0.0
O1221 O 0.31635 0.58137 0.44687 0.0
O1222 O 0.34409 0.6228 0.385 0.0
O1223 O 0.33853 0.58772 0.38323 0.0
C1224 C 0.35001 0.60422 0.37806 0.0
C1225 C 0.2821 0.54374 0.40814 0.0
C1226 C 0.32946 0.59706 0.44861 0.0
C1227 C 0.27545 0.61903 0.40651 0.0
O1228 O 0.27402 0.60131 0.41653 0.0
O1229 O 0.29295 0.62464 0.39756 0.0
O1230 O 0.27706 0.55117 0.42681 0.0
O1231 O 0.29631 0.55422 0.39722 0.0
O1232 O 0.33534 0.15821 0.44266 0.0
Cd1233 Cd 0.36643 0.15665 0.45285 0.0
Cd1234 Cd 0.35103 0.18679 0.48211 0.0
O1235 O 0.32324 0.18463 0.46312 0.0
O1236 O 0.38081 0.14099 0.42892 0.0
O1237 O 0.38723 0.17521 0.43605 0.0
C1238 C 0.39002 0.15876 0.42373 0.0
C1239 C 0.3662 0.21832 0.49712 0.0
C1240 C 0.32028 0.17065 0.44837 0.0
C1241 C 0.36284 0.14205 0.49815 0.0
O1242 O 0.35491 0.16052 0.50168 0.0
O1243 O 0.37006 0.13709 0.47968 0.0
O1244 O 0.34762 0.21133 0.503 0.0
O1245 O 0.37554 0.20836 0.48148 0.0
O1246 O 0.83911 0.36432 0.571 0.0
Cd1247 Cd 0.86998 0.36421 0.56015 0.0
Cd1248 Cd 0.85282 0.33501 0.53145 0.0
O1249 O 0.8254 0.33855 0.5507 0.0
O1250 O 0.88597 0.37869 0.58383 0.0
O1251 O 0.88979 0.34417 0.57631 0.0
C1252 C 0.89394 0.36026 0.58875 0.0
C1253 C 0.86638 0.30254 0.51693 0.0
C1254 C 0.82336 0.35265 0.56547 0.0
C1255 C 0.86601 0.3792 0.51509 0.0
O1256 O 0.8574 0.361 0.51163 0.0
O1257 O 0.87382 0.38381 0.53342 0.0
O1258 O 0.84811 0.31028 0.51101 0.0
O1259 O 0.87636 0.31242 0.53225 0.0
O1260 O 0.40002 0.08737 0.32833 0.0
Cd1261 Cd 0.40479 0.1154 0.31172 0.0
Cd1262 Cd 0.43373 0.09094 0.29492 0.0
O1263 O 0.43158 0.07253 0.32281 0.0
O1264 O 0.38887 0.13656 0.32971 0.0
O1265 O 0.42433 0.13547 0.32794 0.0
C1266 C 0.4072 0.1428 0.33705 0.0
C1267 C 0.46339 0.10952 0.28081 0.0
C1268 C 0.41373 0.07296 0.33279 0.0
C1269 C 0.39389 0.09898 0.26949 0.0
O1270 O 0.40872 0.08562 0.27376 0.0
O1271 O 0.3916 0.11577 0.28095 0.0
O1272 O 0.46177 0.08888 0.279 0.0
O1273 O 0.44886 0.11937 0.29191 0.0
O1274 O 0.676 0.6479 0.06937 0.0
Cd1275 Cd 0.64507 0.64686 0.05882 0.0
Cd1276 Cd 0.66132 0.67607 0.02921 0.0
O1277 O 0.68902 0.67337 0.04826 0.0
O1278 O 0.62977 0.63229 0.08297 0.0
O1279 O 0.62479 0.66652 0.07495 0.0
C1280 C 0.6213 0.65054 0.08771 0.0
C1281 C 0.64694 0.70804 0.01421 0.0
C1282 C 0.69148 0.65967 0.06334 0.0
C1283 C 0.64952 0.63107 0.01389 0.0
O1284 O 0.65731 0.64953 0.00996 0.0
O1285 O 0.64201 0.62657 0.03238 0.0
O1286 O 0.66531 0.70058 1.00829 0.0
O1287 O 0.63728 0.69819 0.02972 0.0
O1288 O 0.61211 0.43348 0.32506 0.0
Cd1289 Cd 0.60824 0.40412 0.31114 0.0
Cd1290 Cd 0.57742 0.42582 0.2905 0.0
O1291 O 0.5816 0.44851 0.31528 0.0
O1292 O 0.62306 0.38456 0.33168 0.0
O1293 O 0.58774 0.38544 0.3278 0.0
C1294 C 0.60433 0.37878 0.33834 0.0
C1295 C 0.54527 0.41023 0.27788 0.0
C1296 C 0.59881 0.44885 0.32644 0.0
C1297 C 0.61788 0.41392 0.26609 0.0
O1298 O 0.60123 0.42567 0.26737 0.0
O1299 O 0.62298 0.40135 0.28137 0.0
O1300 O 0.5498 0.43015 0.27422 0.0
O1301 O 0.55811 0.39965 0.29031 0.0
O1302 O 0.1768 0.86272 0.94488 0.0
Cd1303 Cd 0.14527 0.86585 0.95281 0.0
Cd1304 Cd 0.15815 0.83893 0.98603 0.0
O1305 O 0.18753 0.83968 0.96968 0.0
O1306 O 0.13349 0.87988 0.92654 0.0
O1307 O 0.12466 0.84685 0.93613 0.0
C1308 C 0.12369 0.8622 0.92223 0.0
C1309 C 0.1422 0.80826 1.00199 0.0
C1310 C 0.19152 0.85164 0.95351 0.0
C1311 C 0.14679 0.88535 0.9965 0.0
O1312 O 0.15316 0.86698 1.00273 0.0
O1313 O 0.14133 0.88851 0.97704 0.0
O1314 O 0.16002 0.81615 0.00901 0.0
O1315 O 0.13399 0.81697 0.98503 0.0
O1316 O 0.41264 0.93881 0.19664 0.0
Cd1317 Cd 0.4088 0.91073 0.2133 0.0
Cd1318 Cd 0.4391 0.9344 0.23623 0.0
O1319 O 0.44181 0.95426 0.20931 0.0
O1320 O 0.38507 0.8998 0.19506 0.0
O1321 O 0.41678 0.88441 0.19538 0.0
C1322 C 0.39795 0.88597 0.18693 0.0
C1323 C 0.46689 0.91523 0.25369 0.0
C1324 C 0.42665 0.95355 0.19558 0.0
C1325 C 0.39436 0.92913 0.25444 0.0
O1326 O 0.41138 0.94044 0.25367 0.0
O1327 O 0.39181 0.91326 0.24182 0.0
O1328 O 0.46466 0.93573 0.25614 0.0
O1329 O 0.45395 0.90573 0.24046 0.0
O1330 O 0.11548 0.08999 0.69255 0.0
Cd1331 Cd 0.10924 0.11794 0.70875 0.0
Cd1332 Cd 0.081 0.09284 0.72543 0.0
O1333 O 0.08415 0.07445 0.69748 0.0
O1334 O 0.12315 0.14011 0.6903 0.0
O1335 O 0.08791 0.13638 0.69302 0.0
C1336 C 0.10421 0.14494 0.68346 0.0
C1337 C 0.05052 0.11004 0.7398 0.0
C1338 C 0.10228 0.0751 0.68799 0.0
C1339 C 0.12084 0.10213 0.75071 0.0
O1340 O 0.10627 0.08843 0.74651 0.0
O1341 O 0.12266 0.11902 0.73932 0.0
O1342 O 0.05302 0.08948 0.74144 0.0
O1343 O 0.06461 0.12057 0.72874 0.0
C1344 C 0.09994 0.2109 0.37852 0.0
C1345 C 0.08218 0.21066 0.36449 0.0
H1346 H 0.11854 0.22915 0.4012 0.0
C1347 C 0.07121 0.22993 0.36051 0.0
H1348 H 0.10865 0.19623 0.38194 0.0
C1349 C 0.07666 0.24859 0.37185 0.0
C1350 C 0.09349 0.24838 0.38687 0.0
H1351 H 0.05732 0.23018 0.35003 0.0
H1352 H 0.06699 0.2629 0.36974 0.0
C1353 C 0.10564 0.22967 0.38954 0.0
C1354 C 0.03578 0.85193 0.62601 0.0
C1355 C 0.02081 0.83619 0.63197 0.0
H1356 H 0.06594 0.85826 0.61056 0.0
C1357 C 0.02288 0.8153 0.62365 0.0
H1358 H 0.03448 0.86813 0.63223 0.0
C1359 C 0.04027 0.8099 0.61051 0.0
C1360 C 0.05625 0.82514 0.60603 0.0
H1361 H 0.0114 0.80293 0.62793 0.0
H1362 H 0.04216 0.79336 0.60543 0.0
C1363 C 0.05361 0.84633 0.61347 0.0
C1364 C 0.41732 0.77527 0.85866 0.0
C1365 C 0.43315 0.76145 0.86672 0.0
H1366 H 0.41106 0.80471 0.84187 0.0
C1367 C 0.45452 0.76416 0.85997 0.0
H1368 H 0.40074 0.77346 0.86357 0.0
C1369 C 0.46029 0.78146 0.84685 0.0
C1370 C 0.44489 0.79672 0.84081 0.0
H1371 H 0.46698 0.7535 0.86577 0.0
H1372 H 0.47714 0.78411 0.84344 0.0
C1373 C 0.4232 0.79298 0.84605 0.0
C1374 C 0.48289 0.15747 0.13595 0.0
C1375 C 0.50379 0.16352 0.13035 0.0
H1376 H 0.44941 0.16154 0.13031 0.0
C1377 C 0.50696 0.17636 0.11201 0.0
H1378 H 0.48004 0.14765 0.15004 0.0
C1379 C 0.48927 0.18485 0.10083 0.0
C1380 C 0.46828 0.18044 0.10785 0.0
H1381 H 0.52298 0.18149 0.10758 0.0
H1382 H 0.49205 0.19617 0.08792 0.0
C1383 C 0.46536 0.16562 0.1247 0.0
C1384 C 0.08877 0.79369 0.17269 0.0
C1385 C 0.06726 0.79982 0.17587 0.0
H1386 H 0.11064 0.77319 0.15565 0.0
C1387 C 0.05095 0.78765 0.16614 0.0
H1388 H 0.10166 0.80308 0.17968 0.0
C1389 C 0.05611 0.77127 0.15165 0.0
C1390 C 0.07765 0.76632 0.14713 0.0
H1391 H 0.03427 0.79226 0.16789 0.0
H1392 H 0.04324 0.76309 0.14326 0.0
C1393 C 0.09392 0.77684 0.15867 0.0
C1394 C 0.46585 0.85078 0.41519 0.0
C1395 C 0.46726 0.82947 0.42276 0.0
H1396 H 0.48084 0.87592 0.39683 0.0
C1397 C 0.48664 0.81833 0.42031 0.0
H1398 H 0.45092 0.85958 0.41661 0.0
C1399 C 0.50342 0.82745 0.40845 0.0
C1400 C 0.5013 0.84805 0.3994 0.0
H1401 H 0.48801 0.80179 0.42554 0.0
H1402 H 0.51757 0.81787 0.4052 0.0
C1403 C 0.48286 0.8601 0.40377 0.0
C1404 C 0.40761 0.23798 0.64875 0.0
C1405 C 0.42325 0.25305 0.64283 0.0
H1406 H 0.40157 0.20758 0.66385 0.0
C1407 C 0.44409 0.25119 0.65129 0.0
H1408 H 0.39145 0.23912 0.64243 0.0
C1409 C 0.44965 0.23371 0.66424 0.0
C1410 C 0.43462 0.21745 0.66837 0.0
H1411 H 0.45637 0.26278 0.64707 0.0
H1412 H 0.46622 0.23188 0.66922 0.0
C1413 C 0.41336 0.22009 0.66115 0.0
C1414 C 0.04957 0.16139 0.89345 0.0
C1415 C 0.04734 0.17647 0.91017 0.0
H1416 H 0.03388 0.14318 0.86884 0.0
C1417 C 0.02663 0.1811 0.91785 0.0
H1418 H 0.06529 0.15715 0.88734 0.0
C1419 C 0.0085 0.17258 0.90739 0.0
C1420 C 0.01095 0.15944 0.88914 0.0
H1421 H 0.02437 0.19264 0.93068 0.0
H1422 H 0.99268 0.17791 0.91224 0.0
C1423 C 0.03159 0.15317 0.88292 0.0
C1424 C 0.35957 0.06695 0.23119 0.0
C1425 C 0.3579 0.08107 0.21372 0.0
H1426 H 0.37284 0.06162 0.26253 0.0
C1427 C 0.36533 0.10233 0.21608 0.0
H1428 H 0.35435 0.0504 0.22971 0.0
C1429 C 0.37557 0.10888 0.23505 0.0
C1430 C 0.3791 0.09406 0.25162 0.0
H1431 H 0.36446 0.11345 0.20273 0.0
H1432 H 0.3822 0.12495 0.23606 0.0
C1433 C 0.37038 0.07329 0.24985 0.0
C1434 C 0.15569 0.11179 0.50506 0.0
C1435 C 0.14535 0.13169 0.50245 0.0
H1436 H 0.17527 0.08758 0.49023 0.0
C1437 C 0.14289 0.14011 0.48174 0.0
H1438 H 0.15805 0.10515 0.52098 0.0
C1439 C 0.15261 0.13012 0.46423 0.0
C1440 C 0.16535 0.11169 0.46715 0.0
H1441 H 0.13507 0.15548 0.47936 0.0
H1442 H 0.15161 0.1379 0.44869 0.0
C1443 C 0.16571 0.10184 0.48748 0.0
C1444 C 0.16347 0.93167 0.72475 0.0
C1445 C 0.15249 0.93063 0.70501 0.0
H1446 H 0.16205 0.9255 0.75877 0.0
C1447 C 0.13274 0.91958 0.70417 0.0
H1448 H 0.17868 0.94002 0.72595 0.0
C1449 C 0.12326 0.91162 0.7228 0.0
C1450 C 0.13348 0.91394 0.74267 0.0
H1451 H 0.12389 0.91814 0.68926 0.0
H1452 H 0.10737 0.90457 0.72183 0.0
C1453 C 0.15403 0.92328 0.74348 0.0
C1454 C 0.33355 0.92631 0.99966 0.0
C1455 C 0.34031 0.92481 0.97819 0.0
H1456 H 0.33668 0.9136 0.03153 0.0
C1457 C 0.3591 0.91321 0.97352 0.0
H1458 H 0.31908 0.93505 1.00372 0.0
C1459 C 0.3691 0.90084 0.98933 0.0
C1460 C 0.36055 0.8999 0.01017 0.0
H1461 H 0.36483 0.91195 0.95713 0.0
H1462 H 0.38224 0.89044 0.98469 0.0
C1463 C 0.34366 0.91395 0.01559 0.0
C1464 C 0.35751 0.96401 0.2877 0.0
C1465 C 0.34798 0.94886 0.30137 0.0
H1466 H 0.38031 0.96952 0.26251 0.0
C1467 C 0.35173 0.92687 0.29769 0.0
H1468 H 0.35538 0.98105 0.29058 0.0
C1469 C 0.36583 0.92023 0.28146 0.0
C1470 C 0.37699 0.93554 0.26926 0.0
H1471 H 0.34502 0.91493 0.30842 0.0
H1472 H 0.36921 0.90327 0.27955 0.0
C1473 C 0.37213 0.95743 0.27198 0.0
C1474 C 0.35428 0.12029 0.55317 0.0
C1475 C 0.33976 0.10346 0.54895 0.0
H1476 H 0.37342 0.14564 0.54004 0.0
C1477 C 0.33747 0.09616 0.52768 0.0
H1478 H 0.35674 0.12607 0.56941 0.0
C1479 C 0.34755 0.10723 0.51078 0.0
C1480 C 0.35989 0.12571 0.51502 0.0
H1481 H 0.32645 0.08323 0.52392 0.0
H1482 H 0.34386 0.10271 0.49438 0.0
C1483 C 0.36405 0.13142 0.53638 0.0
C1484 C 0.14959 0.10357 0.80401 0.0
C1485 C 0.15883 0.08293 0.80451 0.0
H1486 H 0.13063 0.12621 0.7861 0.0
C1487 C 0.15824 0.07023 0.78591 0.0
H1488 H 0.14961 0.11354 0.81829 0.0
C1489 C 0.14676 0.07717 0.76788 0.0
C1490 C 0.1363 0.09717 0.76793 0.0
H1491 H 0.16484 0.05413 0.78601 0.0
H1492 H 0.14514 0.06643 0.75427 0.0
C1493 C 0.13865 0.11078 0.7857 0.0
C1494 C 0.17856 0.92964 0.02112 0.0
C1495 C 0.17477 0.9253 0.04294 0.0
H1496 H 0.17154 0.92044 0.98861 0.0
C1497 C 0.15696 0.91251 0.04851 0.0
H1498 H 0.19217 0.93936 0.01633 0.0
C1499 C 0.14539 0.90154 0.03275 0.0
C1500 C 0.15106 0.90354 0.01108 0.0
H1501 H 0.15343 0.90909 0.06522 0.0
H1502 H 0.13354 0.88976 0.03767 0.0
C1503 C 0.16665 0.91885 1.00524 0.0
C1504 C 0.23956 0.36542 0.11221 0.0
C1505 C 0.25617 0.37007 0.09777 0.0
H1506 H 0.20791 0.35231 0.11595 0.0
C1507 C 0.25546 0.36126 0.07697 0.0
H1508 H 0.23976 0.37208 0.12829 0.0
C1509 C 0.23769 0.3493 0.07015 0.0
C1510 C 0.22006 0.34652 0.08385 0.0
H1511 H 0.2682 0.36458 0.06559 0.0
H1512 H 0.23688 0.34412 0.05355 0.0
C1513 C 0.22147 0.35399 0.10518 0.0
C1514 C 0.71518 0.1566 0.91949 0.0
C1515 C 0.71277 0.16271 0.94115 0.0
H1516 H 0.73425 0.13959 0.89623 0.0
C1517 C 0.72927 0.15791 0.95572 0.0
H1518 H 0.7025 0.15982 0.908 0.0
C1519 C 0.7469 0.14562 0.94917 0.0
C1520 C 0.74869 0.13846 0.92781 0.0
H1521 H 0.72766 0.162 0.97256 0.0
H1522 H 0.75877 0.14102 0.96103 0.0
C1523 C 0.7332 0.14489 0.91278 0.0
C1524 C 0.09899 0.49108 0.18268 0.0
C1525 C 0.10525 0.46976 0.17864 0.0
H1526 H 0.10712 0.52445 0.17898 0.0
C1527 C 0.12182 0.46595 0.16376 0.0
H1528 H 0.0863 0.49452 0.19404 0.0
C1529 C 0.13374 0.48293 0.15536 0.0
C1530 C 0.12911 0.50412 0.16131 0.0
H1531 H 0.12681 0.4497 0.15999 0.0
H1532 H 0.14771 0.47937 0.14562 0.0
C1533 C 0.11086 0.50821 0.17398 0.0
C1534 C 0.76188 0.86648 0.41334 0.0
C1535 C 0.76341 0.88699 0.404 0.0
H1536 H 0.77848 0.84124 0.43005 0.0
C1537 C 0.78366 0.89624 0.4011 0.0
H1538 H 0.7463 0.85924 0.41607 0.0
C1539 C 0.802 0.88594 0.40878 0.0
C1540 C 0.80042 0.86641 0.42014 0.0
H1541 H 0.78517 0.91214 0.39416 0.0
H1542 H 0.81725 0.89416 0.40721 0.0
C1543 C 0.78028 0.85625 0.42143 0.0
C1544 C 0.90746 0.04652 0.16135 0.0
C1545 C 0.92104 0.0429 0.1791 0.0
H1546 H 0.88457 0.03303 0.13951 0.0
C1547 C 0.92582 0.02163 0.18491 0.0
H1548 H 0.90367 0.06272 0.15626 0.0
C1549 C 0.91511 1.00448 0.17481 0.0
C1550 C 0.8995 1.0085 0.15894 0.0
H1551 H 0.93613 0.01833 0.19853 0.0
H1552 H 0.91732 0.98836 0.18099 0.0
C1553 C 0.89661 0.02952 0.15158 0.0
C1554 C 0.26237 0.65434 0.6037 0.0
C1555 C 0.26397 0.63376 0.61287 0.0
H1556 H 0.2789 0.67975 0.58712 0.0
C1557 C 0.2843 0.62466 0.61579 0.0
H1558 H 0.24678 0.66154 0.601 0.0
C1559 C 0.30258 0.63506 0.60811 0.0
C1560 C 0.30092 0.6546 0.59683 0.0
H1561 H 0.28592 0.60878 0.62273 0.0
H1562 H 0.31787 0.62694 0.6097 0.0
C1563 C 0.28075 0.66469 0.59563 0.0
C1564 C 0.10305 0.53255 0.35137 0.0
C1565 C 0.11356 0.55251 0.35267 0.0
H1566 H 0.1051 0.4987 0.35779 0.0
C1567 C 0.1319 0.55432 0.36579 0.0
H1568 H 0.08887 0.53064 0.34148 0.0
C1569 C 0.1412 0.53611 0.37488 0.0
C1570 C 0.1321 0.51582 0.37151 0.0
H1571 H 0.1402 0.56952 0.3675 0.0
H1572 H 0.15653 0.53765 0.38299 0.0
C1573 C 0.11226 0.51428 0.36083 0.0
C1574 C 0.37389 0.48041 0.86694 0.0
C1575 C 0.38286 0.50091 0.86455 0.0
H1576 H 0.37622 0.44705 0.85969 0.0
C1577 C 0.40337 0.50292 0.85535 0.0
H1578 H 0.35807 0.47848 0.87393 0.0
C1579 C 0.4137 0.48487 0.84662 0.0
C1580 C 0.40366 0.46462 0.84718 0.0
H1581 H 0.41047 0.51865 0.85308 0.0
H1582 H 0.42866 0.48708 0.83805 0.0
C1583 C 0.38427 0.46244 0.85858 0.0
C1584 C 0.90119 0.78479 0.6391 0.0
C1585 C 0.90692 0.76327 0.64216 0.0
H1586 H 0.90737 0.81751 0.64721 0.0
C1587 C 0.92092 0.75798 0.65912 0.0
H1588 H 0.89052 0.78928 0.6261 0.0
C1589 C 0.93108 0.77428 0.67105 0.0
C1590 C 0.92718 0.79596 0.66616 0.0
H1591 H 0.92582 0.74147 0.66158 0.0
H1592 H 0.94345 0.76993 0.68247 0.0
C1593 C 0.91101 0.80094 0.65113 0.0
C1594 C 0.99854 0.16162 0.40933 0.0
C1595 C 0.9971 0.15135 0.38925 0.0
H1596 H 0.98205 0.18025 0.43324 0.0
C1597 C 0.97689 0.1484 0.37986 0.0
H1598 H 0.01407 0.16437 0.41669 0.0
C1599 C 0.95865 0.15721 0.38935 0.0
C1600 C 0.96029 0.16969 0.40816 0.0
H1601 H 0.97543 0.14065 0.36433 0.0
H1602 H 0.9435 0.15566 0.38093 0.0
C1603 C 0.98023 0.17083 0.41872 0.0
C1604 C 0.56486 0.24025 0.16886 0.0
C1605 C 0.57897 0.22378 0.17483 0.0
H1606 H 0.5604 0.26856 0.14982 0.0
C1607 C 0.60085 0.22563 0.16935 0.0
H1608 H 0.54789 0.23903 0.17245 0.0
C1609 C 0.60809 0.24268 0.15653 0.0
C1610 C 0.59342 0.25773 0.14854 0.0
H1611 H 0.61198 0.21291 0.17345 0.0
H1612 H 0.6247 0.24303 0.15141 0.0
C1613 C 0.57197 0.25692 0.15557 0.0
C1614 C 0.52917 0.83687 0.91516 0.0
C1615 C 0.55023 0.84131 0.90836 0.0
H1616 H 0.49558 0.84082 0.90839 0.0
C1617 C 0.55344 0.85717 0.89256 0.0
H1618 H 0.52618 0.82476 0.92728 0.0
C1619 C 0.53605 0.86613 0.88169 0.0
C1620 C 0.51507 0.85979 0.88669 0.0
H1621 H 0.56948 0.86125 0.8872 0.0
H1622 H 0.53909 0.8766 0.86812 0.0
C1623 C 0.51165 0.84615 0.90439 0.0
C1624 C 0.94795 0.23804 0.85081 0.0
C1625 C 0.93373 0.22061 0.8495 0.0
H1626 H 0.95388 0.26922 0.86421 0.0
C1627 C 0.9128 0.22294 0.85775 0.0
H1628 H 0.96425 0.23658 0.84495 0.0
C1629 C 0.90671 0.24181 0.86844 0.0
C1630 C 0.92169 0.25832 0.87156 0.0
H1631 H 0.9016 0.20962 0.85714 0.0
H1632 H 0.89094 0.24275 0.87571 0.0
C1633 C 0.94208 0.2566 0.86204 0.0
C1634 C 0.5079 0.16703 0.61268 0.0
C1635 C 0.51091 0.15525 0.63174 0.0
H1636 H 0.52269 0.18686 0.58858 0.0
C1637 C 0.53185 0.15081 0.6386 0.0
H1638 H 0.49185 0.17092 0.60725 0.0
C1639 C 0.54941 0.15968 0.62789 0.0
C1640 C 0.54641 0.17363 0.61034 0.0
H1641 H 0.53458 0.14184 0.65328 0.0
H1642 H 0.56526 0.15698 0.63451 0.0
C1643 C 0.52556 0.17625 0.60206 0.0
C1644 C 0.60414 0.81277 0.3835 0.0
C1645 C 0.59166 0.81106 0.36467 0.0
H1646 H 0.62138 0.79614 0.40821 0.0
C1647 C 0.59071 0.79112 0.35408 0.0
H1648 H 0.60549 0.8279 0.39199 0.0
C1649 C 0.60038 0.77292 0.36328 0.0
C1650 C 0.61103 0.77447 0.38316 0.0
H1651 H 0.58123 0.78923 0.33961 0.0
H1652 H 0.598 0.75738 0.35581 0.0
C1653 C 0.61345 0.79463 0.39277 0.0
C1654 C 0.99404 0.8397 0.10111 0.0
C1655 C 0.97257 0.84374 0.10668 0.0
H1656 H 0.0271 0.84514 0.10924 0.0
C1657 C 0.96809 0.86054 0.12113 0.0
H1658 H 0.99799 0.82687 0.09004 0.0
C1659 C 0.98465 0.87088 0.13214 0.0
C1660 C 1.00604 0.86482 0.12873 0.0
H1661 H 0.95168 0.86431 0.12549 0.0
H1662 H 0.9806 0.88206 0.14485 0.0
C1663 C 0.01072 0.85026 0.11205 0.0
C1664 C 0.65788 0.91431 0.79819 0.0
C1665 C 0.66641 0.93521 0.79998 0.0
H1666 H 0.63985 0.89206 0.77881 0.0
C1667 C 0.66541 0.94895 0.78217 0.0
H1668 H 0.65823 0.9035 0.81182 0.0
C1669 C 0.65428 0.94267 0.76367 0.0
C1670 C 0.64456 0.92231 0.76243 0.0
H1671 H 0.67148 0.96524 0.78323 0.0
H1672 H 0.65236 0.95411 0.7507 0.0
C1673 C 0.6473 0.90778 0.7794 0.0
C1674 C 0.85878 0.90566 0.52344 0.0
C1675 C 0.84382 0.89951 0.5078 0.0
H1676 H 0.86341 0.92112 0.5539 0.0
C1677 C 0.82303 0.90825 0.50841 0.0
H1678 H 0.8749 0.89914 0.52324 0.0
C1679 C 0.81667 0.92144 0.52543 0.0
C1680 C 0.83085 0.92556 0.54243 0.0
H1681 H 0.81129 0.90387 0.49632 0.0
H1682 H 0.80004 0.92641 0.52641 0.0
C1683 C 0.85225 0.91839 0.54082 0.0
C1684 C 0.88593 0.08678 0.31223 0.0
C1685 C 0.86407 0.08098 0.31091 0.0
H1686 H 0.91462 0.09526 0.29538 0.0
C1687 C 0.85387 0.08187 0.29077 0.0
H1688 H 0.89441 0.08648 0.32736 0.0
C1689 C 0.86557 0.08749 0.27226 0.0
C1690 C 0.88772 0.09184 0.27366 0.0
H1691 H 0.83705 0.07752 0.28917 0.0
H1692 H 0.85765 0.08728 0.2568 0.0
C1693 C 0.89759 0.09185 0.29384 0.0
C1694 C 0.66704 0.10479 0.00902 0.0
C1695 C 0.65271 0.12147 0.01421 0.0
H1696 H 0.69075 0.08274 0.02097 0.0
C1697 C 0.64741 0.12502 0.03576 0.0
H1698 H 0.6716 0.10201 0.99245 0.0
C1699 C 0.65806 0.11383 0.05197 0.0
C1700 C 0.67468 0.09934 0.04695 0.0
H1701 H 0.63654 0.13787 0.04013 0.0
H1702 H 0.65481 0.11821 0.06851 0.0
C1703 C 0.67807 0.09379 0.02534 0.0
C1704 C 0.66139 0.09064 0.72792 0.0
C1705 C 0.64979 0.08978 0.70852 0.0
H1706 H 0.66005 0.09649 0.76201 0.0
C1707 C 0.62827 0.09674 0.70847 0.0
H1708 H 0.67796 0.08545 0.72852 0.0
C1709 C 0.61809 0.10264 0.72748 0.0
C1710 C 0.62926 0.10234 0.74698 0.0
H1711 H 0.61879 0.09656 0.69388 0.0
H1712 H 0.60117 0.10663 0.72708 0.0
C1713 C 0.6512 0.09705 0.74703 0.0
C1714 C 0.67687 0.91643 0.48079 0.0
C1715 C 0.67463 0.90677 0.46048 0.0
H1716 H 0.67308 0.91261 0.51495 0.0
C1717 C 0.66357 0.88705 0.45899 0.0
H1718 H 0.68526 0.93158 0.48251 0.0
C1719 C 0.6569 0.87623 0.47742 0.0
C1720 C 0.66054 0.88511 0.49773 0.0
H1721 H 0.66125 0.87919 0.44363 0.0
H1722 H 0.64998 0.86032 0.47586 0.0
C1723 C 0.66979 0.90566 0.49933 0.0
C1724 C 0.85687 0.91553 0.22036 0.0
C1725 C 0.85047 0.93701 0.21719 0.0
H1726 H 0.873 0.89302 0.24098 0.0
C1727 C 0.85306 0.95175 0.23403 0.0
H1728 H 0.85526 0.90391 0.2075 0.0
C1729 C 0.86387 0.94571 0.25277 0.0
C1730 C 0.87172 0.92468 0.25525 0.0
H1731 H 0.84863 0.96845 0.23192 0.0
H1732 H 0.86702 0.95779 0.26492 0.0
C1733 C 0.86714 0.90933 0.23941 0.0
C1734 C 0.85237 0.11168 1.00191 0.0
C1735 C 0.86446 0.13033 0.99775 0.0
H1736 H 0.8314 0.0876 0.9887 0.0
C1737 C 0.86871 0.13602 0.97639 0.0
H1738 H 0.84866 0.10711 0.01829 0.0
C1739 C 0.85898 0.12488 0.95956 0.0
C1740 C 0.84452 0.10801 0.96376 0.0
H1741 H 0.87797 0.15031 0.97276 0.0
H1742 H 0.86131 0.13074 0.94334 0.0
C1743 C 0.84238 0.10057 0.98497 0.0
C1744 C 0.77502 0.63635 0.95449 0.0
C1745 C 0.7725 0.63073 0.93275 0.0
H1746 H 0.79454 0.65218 0.97807 0.0
C1747 C 0.78665 0.63937 0.9175 0.0
H1748 H 0.76415 0.63006 0.96652 0.0
C1749 C 0.80424 0.65176 0.92417 0.0
C1750 C 0.80744 0.65637 0.94608 0.0
H1751 H 0.785 0.63531 0.90065 0.0
H1752 H 0.81607 0.65663 0.91238 0.0
C1753 C 0.79217 0.64933 0.96106 0.0
C1754 C 0.27536 0.87919 0.0515 0.0
C1755 C 0.26851 0.87997 0.07301 0.0
H1756 H 0.29635 0.8649 0.02841 0.0
C1757 C 0.27666 0.86476 0.08755 0.0
H1758 H 0.26909 0.89043 0.03979 0.0
C1759 C 0.29249 0.8501 0.08104 0.0
C1760 C 0.30009 0.85001 0.05972 0.0
H1761 H 0.27155 0.86482 0.10418 0.0
H1762 H 0.29947 0.83948 0.09292 0.0
C1763 C 0.29076 0.86426 0.04488 0.0
C1764 C 0.90101 0.51695 0.82355 0.0
C1765 C 0.89193 0.51699 0.84424 0.0
H1766 H 0.91767 0.53499 0.79938 0.0
C1767 C 0.89542 0.53467 0.85773 0.0
H1768 H 0.89849 0.50342 0.81288 0.0
C1769 C 0.90608 0.55289 0.84985 0.0
C1770 C 0.91389 0.55343 0.82861 0.0
H1771 H 0.88847 0.53509 0.87367 0.0
H1772 H 0.90698 0.56709 0.85989 0.0
C1773 C 0.91218 0.5349 0.8159 0.0
C1774 C 0.21128 0.14998 0.60143 0.0
C1775 C 0.20886 0.15899 0.58082 0.0
H1776 H 0.23068 0.13038 0.62224 0.0
C1777 C 0.22538 0.15639 0.56575 0.0
H1778 H 0.19858 0.15148 0.61321 0.0
C1779 C 0.2432 0.14362 0.57061 0.0
C1780 C 0.24515 0.13382 0.59086 0.0
H1781 H 0.22371 0.16274 0.54963 0.0
H1782 H 0.25516 0.14081 0.55829 0.0
C1783 C 0.22951 0.13782 0.60655 0.0
C1784 C 0.09733 0.9813 0.83584 0.0
C1785 C 0.10678 0.96096 0.83847 0.0
H1786 H 0.10018 0.01521 0.84202 0.0
C1787 C 0.12409 0.95885 0.85288 0.0
H1788 H 0.08401 0.98345 0.82487 0.0
C1789 C 0.13331 0.97686 0.86248 0.0
C1790 C 0.12518 0.99739 0.85831 0.0
H1791 H 0.13156 0.94338 0.85561 0.0
H1792 H 0.14777 0.9749 0.87196 0.0
C1793 C 0.1065 0.99944 0.84576 0.0
C1794 C 0.72439 0.36562 0.45883 0.0
C1795 C 0.70866 0.35978 0.44377 0.0
H1796 H 0.75314 0.38363 0.46475 0.0
C1797 C 0.7117 0.36533 0.42206 0.0
H1798 H 0.7222 0.36202 0.47572 0.0
C1799 C 0.72962 0.3774 0.41569 0.0
C1800 C 0.74431 0.3848 0.4311 0.0
H1801 H 0.69956 0.36137 0.41022 0.0
H1802 H 0.73118 0.38216 0.39903 0.0
C1803 C 0.74188 0.37829 0.4526 0.0
C1804 C 0.88441 0.4796 0.65752 0.0
C1805 C 0.88403 0.4982 0.67016 0.0
H1806 H 0.89494 0.44691 0.65513 0.0
C1807 C 0.8968 0.49926 0.68875 0.0
H1808 H 0.87454 0.47845 0.64322 0.0
C1809 C 0.90891 0.48149 0.69529 0.0
C1810 C 0.9079 0.46221 0.68363 0.0
H1811 H 0.89659 0.5135 0.69876 0.0
H1812 H 0.91755 0.48226 0.71038 0.0
C1813 C 0.8961 0.46165 0.66432 0.0
C1814 C 0.62928 0.55677 0.16098 0.0
C1815 C 0.60994 0.55466 0.17252 0.0
H1816 H 0.65508 0.54067 0.14499 0.0
C1817 C 0.59965 0.53454 0.17282 0.0
H1818 H 0.63753 0.57207 0.16007 0.0
C1819 C 0.60962 0.51654 0.16356 0.0
C1820 C 0.62999 0.51849 0.15401 0.0
H1821 H 0.58474 0.53238 0.18151 0.0
H1822 H 0.60235 0.50085 0.16556 0.0
C1823 C 0.6393 0.53885 0.15209 0.0
C1824 C 0.60664 0.73883 0.86031 0.0
C1825 C 0.591 0.75271 0.86861 0.0
H1826 H 0.61251 0.70974 0.84276 0.0
C1827 C 0.56961 0.75049 0.86168 0.0
H1828 H 0.62322 0.74027 0.86537 0.0
C1829 C 0.56363 0.73363 0.84806 0.0
C1830 C 0.57883 0.71832 0.84166 0.0
H1831 H 0.55729 0.76119 0.8677 0.0
H1832 H 0.54677 0.73133 0.84446 0.0
C1833 C 0.60054 0.72155 0.84719 0.0
C1834 C 0.51712 0.35524 0.11317 0.0
C1835 C 0.51923 0.36581 0.13303 0.0
H1836 H 0.53285 0.33646 0.08886 0.0
C1837 C 0.5397 0.36892 0.14172 0.0
H1838 H 0.50135 0.35233 0.10642 0.0
C1839 C 0.55765 0.3601 0.13166 0.0
C1840 C 0.55542 0.34745 0.113 0.0
H1841 H 0.54163 0.37678 0.15714 0.0
H1842 H 0.57307 0.36179 0.13953 0.0
C1843 C 0.53513 0.34607 0.10319 0.0
C1844 C 0.94865 0.27941 0.35211 0.0
C1845 C 0.93413 0.29591 0.34731 0.0
H1846 H 0.9541 0.25032 0.36968 0.0
C1847 C 0.9125 0.29357 0.35351 0.0
H1848 H 0.96547 0.28101 0.34796 0.0
C1849 C 0.90589 0.27582 0.3657 0.0
C1850 C 0.92099 0.26056 0.37242 0.0
H1851 H 0.90107 0.30628 0.3503 0.0
H1852 H 0.88947 0.275 0.37134 0.0
C1853 C 0.9422 0.26205 0.36483 0.0
C1854 C 0.9891 0.66616 0.61156 0.0
C1855 C 1.00283 0.68118 0.62126 0.0
H1856 H 0.96023 0.66148 0.59329 0.0
C1857 C 1.00041 0.70308 0.61619 0.0
H1858 H 0.99068 0.6492 0.6151 0.0
C1859 C 0.98361 0.71002 0.60297 0.0
C1860 C 0.96853 0.69524 0.59508 0.0
H1861 H 0.011 0.71498 0.62321 0.0
H1862 H 0.9812 0.72712 0.60076 0.0
C1863 C 0.97186 0.67318 0.59886 0.0
C1864 C 0.56018 0.28275 0.66666 0.0
C1865 C 0.57516 0.29875 0.67188 0.0
H1866 H 0.55389 0.25432 0.64827 0.0
C1867 C 0.5967 0.29605 0.66554 0.0
H1868 H 0.54343 0.28464 0.67094 0.0
C1869 C 0.60277 0.27852 0.65278 0.0
C1870 C 0.58724 0.26385 0.64566 0.0
H1871 H 0.60847 0.30837 0.66907 0.0
H1872 H 0.61916 0.27744 0.64706 0.0
C1873 C 0.56611 0.26563 0.65339 0.0
C1874 C 0.9815 0.3699 0.87009 0.0
C1875 C 1.00148 0.36795 0.88018 0.0
H1876 H 0.94811 0.36255 0.87108 0.0
C1877 C 1.00252 0.35954 0.9011 0.0
H1878 H 0.98039 0.37614 0.85387 0.0
C1879 C 0.98404 0.35115 0.91089 0.0
C1880 C 0.96434 0.3512 0.89983 0.0
H1881 H 0.0179 0.35755 0.909 0.0
H1882 H 0.98554 0.34313 0.92626 0.0
C1883 C 0.96307 0.36188 0.87993 0.0
C1884 C 0.92636 0.7234 0.17204 0.0
C1885 C 0.94812 0.71821 0.1754 0.0
H1886 H 0.90373 0.74333 0.15525 0.0
C1887 C 0.96393 0.73151 0.16638 0.0
H1888 H 0.91384 0.71321 0.17854 0.0
C1889 C 0.95815 0.74809 0.15237 0.0
C1890 C 0.93645 0.75212 0.14759 0.0
H1891 H 0.98079 0.72772 0.1683 0.0
H1892 H 0.97074 0.75717 0.14449 0.0
C1893 C 0.92057 0.74042 0.15848 0.0
C1894 C 0.54831 0.65899 0.37381 0.0
C1895 C 0.52832 0.65931 0.38399 0.0
H1896 H 0.58107 0.66861 0.37465 0.0
C1897 C 0.52667 0.66818 0.40473 0.0
H1898 H 0.54991 0.65241 0.35776 0.0
C1899 C 0.54453 0.67812 0.41438 0.0
C1900 C 0.56424 0.67915 0.40341 0.0
H1901 H 0.51124 0.66892 0.41271 0.0
H1902 H 0.54256 0.68607 0.42974 0.0
C1903 C 0.5661 0.66852 0.38349 0.0
C1904 C 0.88006 0.61491 0.72671 0.0
C1905 C 0.87415 0.61024 0.74789 0.0
H1906 H 0.87498 0.60853 0.69345 0.0
C1907 C 0.8558 0.59756 0.75162 0.0
H1908 H 0.89421 0.62451 0.72345 0.0
C1909 C 0.84493 0.58785 0.73434 0.0
C1910 C 0.85228 0.59084 0.71319 0.0
H1911 H 0.85118 0.59346 0.76788 0.0
H1912 H 0.83206 0.57663 0.73768 0.0
C1913 C 0.86909 0.60555 0.70956 0.0
C1914 C 0.66064 0.60772 0.96009 0.0
C1915 C 0.67677 0.59273 0.96527 0.0
H1916 H 0.63887 0.63157 0.9718 0.0
C1917 C 0.67921 0.58648 0.98683 0.0
H1918 H 0.65812 0.61266 0.94359 0.0
C1919 C 0.66764 0.5971 1.00306 0.0
C1920 C 0.65368 0.61411 0.99786 0.0
H1921 H 0.6915 0.57505 0.99133 0.0
H1922 H 0.67148 0.59371 0.0197 0.0
C1923 C 0.64941 0.61845 0.97622 0.0
C1924 C 0.65177 0.42565 0.2479 0.0
C1925 C 0.63139 0.41597 0.24678 0.0
H1926 H 0.67709 0.44143 0.23044 0.0
C1927 C 0.6222 0.41206 0.22665 0.0
H1928 H 0.65898 0.42911 0.26336 0.0
C1929 C 0.63256 0.41876 0.20797 0.0
C1930 C 0.65213 0.43011 0.20895 0.0
H1931 H 0.60644 0.40476 0.22543 0.0
H1932 H 0.62447 0.41613 0.19278 0.0
C1933 C 0.66207 0.43276 0.22909 0.0
C1934 C 0.83904 0.42492 0.4871 0.0
C1935 C 0.84087 0.41795 0.4657 0.0
H1936 H 0.84658 0.41806 0.52008 0.0
C1937 C 0.85585 0.40174 0.46079 0.0
H1938 H 0.82765 0.43734 0.49137 0.0
C1939 C 0.86645 0.39068 0.47711 0.0
C1940 C 0.86269 0.39589 0.49865 0.0
H1941 H 0.85792 0.39624 0.4444 0.0
H1942 H 0.87605 0.37677 0.47297 0.0
C1943 C 0.84999 0.41395 0.50352 0.0
C1944 C 0.8624 0.41451 0.76756 0.0
C1945 C 0.88263 0.4047 0.76961 0.0
H1946 H 0.8378 0.43298 0.78326 0.0
C1947 C 0.89167 0.40243 0.79007 0.0
H1948 H 0.85529 0.41673 0.75183 0.0
C1949 C 0.88166 0.41145 0.80794 0.0
C1950 C 0.86263 0.42344 0.80569 0.0
H1951 H 0.90729 0.39503 0.79202 0.0
H1952 H 0.88978 0.41039 0.82331 0.0
C1953 C 0.85246 0.42392 0.78552 0.0
C1954 C 0.84351 0.58749 0.0286 0.0
C1955 C 0.84546 0.59373 0.05022 0.0
H1956 H 0.85138 0.59516 0.99587 0.0
C1957 C 0.86097 0.60928 0.05569 0.0
H1958 H 0.83171 0.5756 0.02389 0.0
C1959 C 0.87202 0.62051 0.03976 0.0
C1960 C 0.86816 0.61611 0.01804 0.0
H1961 H 0.86314 0.61423 0.07225 0.0
H1962 H 0.88204 0.63398 0.04437 0.0
C1963 C 0.85488 0.59862 0.01257 0.0
C1964 C 0.63761 0.61378 0.28248 0.0
C1965 C 0.63764 0.60072 0.26416 0.0
H1966 H 0.64669 0.61655 0.31561 0.0
C1967 C 0.65011 0.5819 0.26405 0.0
H1968 H 0.62794 0.62822 0.28296 0.0
C1969 C 0.66126 0.57546 0.28248 0.0
C1970 C 0.65958 0.58744 0.30151 0.0
H1971 H 0.65021 0.57154 0.25006 0.0
H1972 H 0.6695 0.56014 0.28239 0.0
C1973 C 0.64834 0.60708 0.3011 0.0
C1974 C 0.66173 0.41592 0.51306 0.0
C1975 C 0.64844 0.39822 0.51775 0.0
H1976 H 0.68467 0.43863 0.52545 0.0
C1977 C 0.64442 0.39303 0.53925 0.0
H1978 H 0.66535 0.41999 0.49653 0.0
C1979 C 0.65527 0.40371 0.5557 0.0
C1980 C 0.67074 0.41953 0.55096 0.0
H1981 H 0.63437 0.37939 0.54327 0.0
H1982 H 0.65294 0.3982 0.57204 0.0
C1983 C 0.6729 0.42651 0.5296 0.0
C1984 C 0.73213 0.89102 0.60787 0.0
C1985 C 0.75286 0.88445 0.60226 0.0
H1986 H 0.69851 0.88593 0.60442 0.0
C1987 C 0.75547 0.8653 0.59051 0.0
H1988 H 0.7297 0.90572 0.61689 0.0
C1989 C 0.73744 0.85405 0.58277 0.0
C1990 C 0.71662 0.86176 0.5869 0.0
H1991 H 0.77135 0.86007 0.58575 0.0
H1992 H 0.73984 0.84031 0.57237 0.0
C1993 C 0.71426 0.87968 0.60054 0.0
C1994 C 0.23634 0.62552 0.40459 0.0
C1995 C 0.25699 0.63378 0.4079 0.0
H1996 H 0.20281 0.62902 0.41031 0.0
C1997 C 0.25929 0.65416 0.41741 0.0
H1998 H 0.23416 0.60981 0.3974 0.0
C1999 C 0.24125 0.6651 0.4254 0.0
C2000 C 0.2207 0.65583 0.4238 0.0
H2001 H 0.27513 0.66069 0.42042 0.0
H2002 H 0.24358 0.67996 0.43417 0.0
C2003 C 0.2184 0.63652 0.4122 0.0
C2004 C 0.60463 0.98286 0.66781 0.0
C2005 C 0.61651 0.96367 0.66867 0.0
H2006 H 0.60513 0.01655 0.66022 0.0
C2007 C 0.63675 0.963 0.65862 0.0
H2008 H 0.58898 0.98389 0.67532 0.0
C2009 C 0.64594 0.9816 0.65022 0.0
C2010 C 0.6349 1.00115 0.65114 0.0
H2011 H 0.64627 0.94844 0.65867 0.0
H2012 H 0.66232 0.98104 0.64439 0.0
C2013 C 0.61378 1.0015 0.65902 0.0
C2014 C 0.31192 0.38581 0.9239 0.0
C2015 C 0.31139 0.36463 0.9319 0.0
H2016 H 0.29401 0.41268 0.91218 0.0
C2017 C 0.29188 0.35324 0.931 0.0
H2018 H 0.32662 0.39513 0.92405 0.0
C2019 C 0.27311 0.36337 0.92354 0.0
C2020 C 0.27361 0.38506 0.91719 0.0
H2021 H 0.29089 0.33693 0.93696 0.0
H2022 H 0.25802 0.35475 0.92412 0.0
C2023 C 0.29325 0.39595 0.91694 0.0
C2024 C 0.37054 0.53593 0.65447 0.0
C2025 C 0.37996 0.5156 0.65628 0.0
H2026 H 0.37271 0.5693 0.66176 0.0
C2027 C 0.40095 0.51391 0.66441 0.0
H2028 H 0.35436 0.53761 0.64828 0.0
C2029 C 0.41142 0.53211 0.6727 0.0
C2030 C 0.40104 0.55218 0.67276 0.0
H2031 H 0.40842 0.49831 0.66619 0.0
H2032 H 0.42685 0.53014 0.68048 0.0
C2033 C 0.38105 0.55405 0.66238 0.0
C2034 C 0.76996 0.14714 0.05807 0.0
C2035 C 0.7668 0.1424 0.07994 0.0
H2036 H 0.78914 0.16358 0.03469 0.0
C2037 C 0.77889 0.15353 0.09539 0.0
H2038 H 0.76059 0.13903 0.04584 0.0
C2039 C 0.79538 0.16745 0.08896 0.0
C2040 C 0.79951 0.17104 0.06702 0.0
H2041 H 0.77666 0.15028 0.11234 0.0
H2042 H 0.80594 0.17415 0.10108 0.0
C2043 C 0.78597 0.16157 0.05169 0.0
C2044 C 0.61013 0.01266 0.84865 0.0
C2045 C 0.62947 0.01517 0.86007 0.0
H2046 H 0.58581 0.0282 0.82965 0.0
C2047 C 0.63701 0.03592 0.86438 0.0
H2048 H 0.6042 0.99674 0.84483 0.0
C2049 C 0.62654 0.05378 0.85589 0.0
C2050 C 0.6085 0.05131 0.84248 0.0
H2051 H 0.65192 0.03826 0.87305 0.0
H2052 H 0.63356 0.06948 0.85863 0.0
C2053 C 0.5997 0.03065 0.83984 0.0
C2054 C 0.86568 0.9767 0.37094 0.0
C2055 C 0.87574 0.99681 0.37112 0.0
H2056 H 0.86712 0.94403 0.36082 0.0
C2057 C 0.89703 0.99854 0.36387 0.0
H2058 H 0.8492 0.97506 0.37625 0.0
C2059 C 0.90725 0.98083 0.35438 0.0
C2060 C 0.89627 0.96119 0.3522 0.0
H2061 H 0.90495 0.01405 0.36351 0.0
H2062 H 0.92295 0.98302 0.34724 0.0
C2063 C 0.87593 0.959 0.36184 0.0
C2064 C 0.4212 0.31178 0.13255 0.0
C2065 C 0.43098 0.31049 0.15295 0.0
H2066 H 0.40825 0.29472 0.10561 0.0
C2067 C 0.43182 0.29038 0.16324 0.0
H2068 H 0.41996 0.32696 0.12414 0.0
C2069 C 0.42445 0.27183 0.15261 0.0
C2070 C 0.41639 0.27317 0.13154 0.0
H2071 H 0.4392 0.2888 0.17892 0.0
H2072 H 0.42649 0.25632 0.16022 0.0
C2073 C 0.4143 0.29334 0.12188 0.0
C2074 C 0.46931 0.65573 0.8886 0.0
C2075 C 0.47226 0.6709 0.90511 0.0
H2076 H 0.48414 0.63717 0.86378 0.0
C2077 C 0.49318 0.67477 0.91271 0.0
H2078 H 0.45339 0.65209 0.8826 0.0
C2079 C 0.51089 0.66576 0.90208 0.0
C2080 C 0.50782 0.65292 0.88373 0.0
H2081 H 0.49597 0.68635 0.92541 0.0
H2082 H 0.5269 0.67078 0.9067 0.0
C2083 C 0.48691 0.647 0.8779 0.0
C2084 C 0.0953 0.73513 0.66639 0.0
C2085 C 0.0969 0.71427 0.65788 0.0
H2086 H 0.10271 0.76853 0.66173 0.0
C2087 C 0.11146 0.71054 0.64098 0.0
H2088 H 0.08426 0.73851 0.6794 0.0
C2089 C 0.12183 0.72763 0.63088 0.0
C2090 C 0.11826 0.74875 0.63772 0.0
H2091 H 0.11338 0.6946 0.63427 0.0
H2092 H 0.13108 0.72451 0.61647 0.0
C2093 C 0.106 0.7523 0.65637 0.0
C2094 C 0.04831 0.35376 0.39306 0.0
C2095 C 0.04512 0.34087 0.41137 0.0
H2096 H 0.03381 0.37025 0.36663 0.0
C2097 C 0.02415 0.33855 0.41944 0.0
H2098 H 0.06425 0.35623 0.38656 0.0
C2099 C 1.0066 0.34708 0.40809 0.0
C2100 C 0.00985 0.3579 0.38851 0.0
H2101 H 0.02115 0.32877 0.43351 0.0
H2102 H 0.99049 0.34349 0.41354 0.0
C2103 C 0.03088 0.36198 0.38167 0.0
C2104 C 0.41307 0.72079 0.39199 0.0
C2105 C 0.41648 0.74155 0.3841 0.0
H2106 H 0.41927 0.68736 0.38843 0.0
C2107 C 0.42711 0.74419 0.36432 0.0
H2108 H 0.40491 0.71835 0.40717 0.0
C2109 C 0.43593 0.72633 0.35364 0.0
C2110 C 0.43401 0.70567 0.36259 0.0
H2111 H 0.43011 0.76014 0.35805 0.0
H2112 H 0.44546 0.72889 0.33932 0.0
C2113 C 0.42146 0.70306 0.38124 0.0
C2114 C 1.00326 0.67004 0.10986 0.0
C2115 C 0.0086 0.6545 0.1254 0.0
H2116 H 0.01521 0.6943 0.0884 0.0
C2117 C 0.02994 0.6476 0.12697 0.0
H2118 H 0.98691 0.67582 0.10852 0.0
C2119 C 0.04602 0.65795 0.11531 0.0
C2120 C 0.04114 0.67573 0.10222 0.0
H2121 H 0.03447 0.63568 0.13882 0.0
H2122 H 0.06256 0.6535 0.11836 0.0
C2123 C 0.01948 0.6807 0.09836 0.0
C2124 C 0.09357 0.26888 0.86322 0.0
C2125 C 0.09996 0.26962 0.8849 0.0
H2126 H 0.08113 0.28665 0.83628 0.0
C2127 C 0.10125 0.28952 0.89526 0.0
H2128 H 0.0922 0.2536 0.855 0.0
C2129 C 0.09532 0.30828 0.8846 0.0
C2130 C 0.08734 0.30761 0.86341 0.0
H2131 H 0.10605 0.29048 0.91198 0.0
H2132 H 0.09597 0.32321 0.89352 0.0
C2133 C 0.08713 0.28775 0.85257 0.0
C2134 C 0.50416 0.35004 0.61267 0.0
C2135 C 0.50107 0.36199 0.63161 0.0
H2136 H 0.48936 0.33034 0.58844 0.0
C2137 C 0.48011 0.36693 0.63806 0.0
H2138 H 0.52021 0.34578 0.60754 0.0
C2139 C 0.46256 0.3583 0.62713 0.0
C2140 C 0.46557 0.34416 0.60974 0.0
H2141 H 0.47731 0.37605 0.65263 0.0
H2142 H 0.44665 0.36132 0.63347 0.0
C2143 C 0.48649 0.3411 0.6018 0.0
C2144 C 0.14529 0.41458 0.30762 0.0
C2145 C 0.15684 0.434 0.30894 0.0
H2146 H 0.12425 0.39474 0.28868 0.0
C2147 C 0.1576 0.44748 0.29088 0.0
H2148 H 0.14428 0.404 0.32141 0.0
C2149 C 0.14561 0.44249 0.27252 0.0
C2150 C 0.13323 0.42364 0.27166 0.0
H2151 H 0.16603 0.4627 0.29156 0.0
H2152 H 0.14532 0.45379 0.25928 0.0
C2153 C 0.13379 0.40929 0.28899 0.0
C2154 C 0.35822 0.40239 0.0205 0.0
C2155 C 0.36681 0.38154 0.02157 0.0
H2156 H 0.34109 0.42721 0.03725 0.0
C2157 C 0.36809 0.3712 0.04148 0.0
H2158 H 0.35675 0.41047 1.00515 0.0
C2159 C 0.35941 0.38075 0.05977 0.0
C2160 C 0.34869 0.40063 0.05842 0.0
H2161 H 0.37446 0.35504 0.0426 0.0
H2162 H 0.35969 0.37173 0.07465 0.0
C2163 C 0.34914 0.41188 0.03883 0.0
C2164 C 0.35358 0.56982 0.78518 0.0
C2165 C 0.35344 0.58319 0.80331 0.0
H2166 H 0.36636 0.5645 0.75363 0.0
C2167 C 0.36357 0.6034 0.80213 0.0
H2168 H 0.34626 0.55403 0.78578 0.0
C2169 C 0.37471 0.60958 0.78357 0.0
C2170 C 0.37639 0.59535 0.76621 0.0
H2171 H 0.36388 0.61391 0.81602 0.0
H2172 H 0.38326 0.62475 0.78339 0.0
C2173 C 0.36525 0.57571 0.76691 0.0
C2174 C 0.1624 0.61843 0.54988 0.0
C2175 C 0.18151 0.60638 0.55094 0.0
H2176 H 0.14296 0.64001 0.53121 0.0
C2177 C 0.1944 0.60475 0.53254 0.0
H2178 H 0.15226 0.62006 0.56392 0.0
C2179 C 0.18935 0.61661 0.51413 0.0
C2180 C 0.17103 0.62974 0.51362 0.0
H2181 H 0.20934 0.59588 0.53299 0.0
H2182 H 0.20036 0.61641 0.50066 0.0
C2183 C 0.15707 0.62985 0.53124 0.0
C2184 C 0.16034 0.60204 0.24631 0.0
C2185 C 0.15083 0.58694 0.26006 0.0
H2186 H 0.17814 0.60688 0.2172 0.0
C2187 C 0.15592 0.56507 0.2575 0.0
H2188 H 0.15676 0.61898 0.24802 0.0
C2189 C 0.16888 0.55822 0.24047 0.0
C2190 C 0.17648 0.57308 0.22534 0.0
H2191 H 0.14903 0.55311 0.26811 0.0
H2192 H 0.17105 0.54114 0.23792 0.0
C2193 C 0.17279 0.59513 0.22887 0.0
C2194 C 0.17252 0.40404 1.00532 0.0
C2195 C 0.16138 0.38451 1.00291 0.0
H2196 H 0.19105 0.42866 0.98963 0.0
C2197 C 0.15716 0.37683 0.98218 0.0
H2198 H 0.17623 0.41012 0.0212 0.0
C2199 C 0.16539 0.38742 0.96425 0.0
C2200 C 0.17848 0.40573 0.96661 0.0
H2201 H 0.14866 0.3618 0.9799 0.0
H2202 H 0.16267 0.38032 0.94859 0.0
C2203 C 0.1811 0.41458 0.98726 0.0
C2204 C 0.35213 0.44381 0.73599 0.0
C2205 C 0.35363 0.43143 0.71721 0.0
H2206 H 0.36369 0.44864 0.76813 0.0
C2207 C 0.36545 0.41215 0.71773 0.0
H2208 H 0.34344 0.45887 0.73597 0.0
C2209 C 0.37669 0.40608 0.73627 0.0
C2210 C 0.37665 0.41947 0.75436 0.0
H2211 H 0.36699 0.40238 0.7034 0.0
H2212 H 0.38662 0.3918 0.73593 0.0
C2213 C 0.36383 0.43803 0.75431 0.0
C2214 C 0.36347 0.62623 0.48935 0.0
C2215 C 0.34946 0.62664 0.50693 0.0
H2216 H 0.36805 0.6161 0.45673 0.0
C2217 C 0.33074 0.61405 0.50644 0.0
H2218 H 0.37789 0.63596 0.48937 0.0
C2219 C 0.32537 0.60224 0.48809 0.0
C2220 C 0.33834 0.6034 0.4697 0.0
H2221 H 0.31969 0.61425 0.51988 0.0
H2222 H 0.31015 0.59381 0.48766 0.0
C2223 C 0.35783 0.61486 0.47076 0.0
C2224 C 0.29557 0.15803 0.41933 0.0
C2225 C 0.29851 0.1653 0.44057 0.0
H2226 H 0.27554 0.14043 0.39734 0.0
C2227 C 0.28194 0.16222 0.45551 0.0
H2228 H 0.30826 0.15996 0.40759 0.0
C2229 C 0.2637 0.15035 0.44987 0.0
C2230 C 0.26138 0.14195 0.42902 0.0
H2231 H 0.28393 0.16725 0.47206 0.0
H2232 H 0.25178 0.14697 0.46209 0.0
C2233 C 0.27697 0.14675 0.4135 0.0
C2234 C 0.79943 0.36533 0.59502 0.0
C2235 C 0.80202 0.35916 0.57341 0.0
H2236 H 0.78038 0.38277 0.61794 0.0
C2237 C 0.78598 0.36448 0.55852 0.0
H2238 H 0.8118 0.36174 0.60671 0.0
C2239 C 0.76859 0.37726 0.56473 0.0
C2240 C 0.76659 0.38437 0.58608 0.0
H2241 H 0.78781 0.36036 0.5417 0.0
H2242 H 0.75707 0.38221 0.55267 0.0
C2243 C 0.78161 0.3775 0.60139 0.0
C2244 C 0.40467 0.01738 0.35557 0.0
C2245 C 0.38538 0.02081 0.36679 0.0
H2246 H 0.42913 0.03151 0.33573 0.0
C2247 C 0.37858 0.04192 0.3706 0.0
H2248 H 0.41008 1.00119 0.3522 0.0
C2249 C 0.38943 0.05916 0.36131 0.0
C2250 C 0.40713 0.05563 0.34773 0.0
H2251 H 0.36375 0.04497 0.37916 0.0
H2252 H 0.38282 0.07513 0.3633 0.0
C2253 C 0.4155 0.03473 0.34602 0.0
C2254 C 0.72855 0.64738 0.05581 0.0
C2255 C 0.71302 0.65345 0.07095 0.0
H2256 H 0.75702 0.62903 0.04975 0.0
C2257 C 0.71615 0.64797 0.09267 0.0
H2258 H 0.72627 0.65094 0.03892 0.0
C2259 C 0.73396 0.63573 0.09894 0.0
C2260 C 0.74842 0.62809 0.08346 0.0
H2261 H 0.70417 0.65211 0.10457 0.0
H2262 H 0.7356 0.63102 0.11562 0.0
C2263 C 0.74591 0.63453 0.06195 0.0
C2264 C 0.60669 0.50636 0.34531 0.0
C2265 C 0.6252 0.50397 0.35806 0.0
H2266 H 0.58351 0.49057 0.32508 0.0
C2267 C 0.6323 0.48329 0.36322 0.0
H2268 H 0.6012 0.52223 0.34079 0.0
C2269 C 0.62221 0.46532 0.35443 0.0
C2270 C 0.60507 0.46761 0.33983 0.0
H2271 H 0.64664 0.48107 0.37282 0.0
H2272 H 0.62891 0.44964 0.35791 0.0
C2273 C 0.59667 0.48825 0.33621 0.0
C2274 C 0.21889 0.86209 0.92623 0.0
C2275 C 0.21373 0.85751 0.94777 0.0
H2276 H 0.23987 0.87896 0.9046 0.0
C2277 C 0.22756 0.86465 0.96408 0.0
H2278 H 0.20825 0.85709 0.9134 0.0
C2279 C 0.245 0.87792 0.95912 0.0
C2280 C 0.2493 0.8837 0.93772 0.0
H2281 H 0.22372 0.86178 0.98082 0.0
H2282 H 0.25461 0.8844 0.97211 0.0
C2283 C 0.2368 0.87479 0.92122 0.0
C2284 C 0.42836 0.9924 0.18417 0.0
C2285 C 0.42262 0.971 0.17982 0.0
H2286 H 0.42115 0.02566 0.17831 0.0
C2287 C 0.4086 0.96682 0.16253 0.0
H2288 H 0.43902 0.99615 0.19741 0.0
C2289 C 0.3982 0.98358 0.15192 0.0
C2290 C 0.40207 1.0049 0.1579 0.0
H2291 H 0.40404 0.95049 0.15854 0.0
H2292 H 0.38578 0.9798 0.14032 0.0
C2293 C 0.41816 0.00929 0.17319 0.0
C2294 C 0.09895 0.03775 0.67227 0.0
C2295 C 0.10967 0.05762 0.6735 0.0
H2296 H 0.10117 1.00447 0.66318 0.0
C2297 C 0.12951 0.05989 0.6629 0.0
H2298 H 0.08365 0.03547 0.68021 0.0
C2299 C 0.1395 0.04224 0.65342 0.0
C2300 C 0.12967 0.02202 0.6538 0.0
H2301 H 0.13814 0.07501 0.66319 0.0
H2302 H 0.15557 0.04409 0.64704 0.0
C2303 C 0.10889 0.02005 0.6624 0.0
C2304 C 0.12779 0.12264 0.34968 0.0
C2305 C 0.11252 0.11099 0.36153 0.0
H2306 H 0.16106 0.13106 0.34649 0.0
C2307 C 0.11954 0.09496 0.37571 0.0
H2308 H 0.12275 0.13536 0.33893 0.0
C2309 C 0.14149 0.09192 0.37939 0.0
C2310 C 0.15666 0.10553 0.36965 0.0
H2311 H 0.10805 0.08601 0.38523 0.0
H2312 H 0.14636 0.08069 0.39176 0.0
C2313 C 0.14972 0.12022 0.35402 0.0
C2314 C 0.17069 0.87183 0.61699 0.0
C2315 C 0.1553 0.86358 0.60274 0.0
H2316 H 0.1842 0.89997 0.63152 0.0
C2317 C 0.1438 0.87785 0.58958 0.0
H2318 H 0.1795 0.86114 0.62753 0.0
C2319 C 0.14585 0.90009 0.59245 0.0
C2320 C 0.16006 0.90834 0.60791 0.0
H2321 H 0.13154 0.87188 0.57876 0.0
H2322 H 0.1352 0.91074 0.58375 0.0
C2323 C 0.17339 0.89406 0.61922 0.0
C2324 C 0.36789 0.91303 0.87041 0.0
C2325 C 0.35464 0.89752 0.88023 0.0
H2326 H 0.39925 0.92007 0.85747 0.0
C2327 C 0.36245 0.87651 0.88266 0.0
H2328 H 0.36234 0.92939 0.8684 0.0
C2329 C 0.38343 0.87148 0.87707 0.0
C2330 C 0.39714 0.88715 0.86847 0.0
H2331 H 0.35269 0.86408 0.88995 0.0
H2332 H 0.38908 0.85526 0.8799 0.0
C2333 C 0.38902 0.90779 0.86434 0.0
C2334 C 0.38205 0.14397 0.09181 0.0
C2335 C 0.37065 0.15932 0.10381 0.0
H2336 H 0.3903 0.11063 0.08852 0.0
C2337 C 0.35498 0.15231 0.11842 0.0
H2338 H 0.39455 0.14896 0.08079 0.0
C2339 C 0.35198 0.13033 0.12219 0.0
C2340 C 0.36518 0.11514 0.11203 0.0
H2341 H 0.34627 0.16383 0.12812 0.0
H2342 H 0.34101 0.1254 0.13477 0.0
C2343 C 0.37968 0.12203 0.09624 0.0
C2344 C 0.15817 0.87449 0.13638 0.0
C2345 C 0.16698 0.89514 0.13865 0.0
H2346 H 0.13056 0.85449 0.13936 0.0
C2347 C 0.15454 0.91126 0.14854 0.0
H2348 H 0.16728 0.86163 0.12901 0.0
C2349 C 0.13321 0.90702 0.15474 0.0
C2350 C 0.12406 0.88676 0.15071 0.0
H2351 H 0.16083 0.92737 0.1504 0.0
H2352 H 0.12362 0.9198 0.16158 0.0
C2353 C 0.13699 0.87044 0.14212 0.0
C2354 C 0.3616 0.86846 0.41177 0.0
C2355 C 0.37216 0.85643 0.39575 0.0
H2356 H 0.35008 0.8997 0.42146 0.0
C2357 C 0.37788 0.86668 0.37649 0.0
H2358 H 0.35708 0.86103 0.42683 0.0
C2359 C 0.37463 0.88859 0.37384 0.0
C2360 C 0.36507 0.90088 0.39012 0.0
H2361 H 0.3859 0.85802 0.36371 0.0
H2362 H 0.37983 0.896 0.35897 0.0
C2363 C 0.3578 0.89056 0.40883 0.0
C2364 C 0.37842 0.13424 0.66393 0.0
C2365 C 0.39464 0.11932 0.65936 0.0
H2366 H 0.34515 0.14221 0.66089 0.0
C2367 C 0.38903 0.09906 0.65125 0.0
H2368 H 0.38248 0.1501 0.66989 0.0
C2369 C 0.3675 0.09434 0.64644 0.0
C2370 C 0.35151 0.11009 0.64912 0.0
H2371 H 0.40138 0.08748 0.64727 0.0
H2372 H 0.36375 0.0792 0.63871 0.0
C2373 C 0.35706 0.12972 0.65878 0.0
C2374 C 0.16519 0.12672 0.89374 0.0
C2375 C 0.15271 0.11128 0.90447 0.0
H2376 H 0.16959 0.16025 0.88688 0.0
C2377 C 0.13808 0.11805 0.92019 0.0
H2378 H 0.17624 0.12189 0.88119 0.0
C2379 C 0.13493 0.13999 0.92406 0.0
C2380 C 0.14566 0.15545 0.91158 0.0
H2381 H 0.12801 0.10644 0.92836 0.0
H2382 H 0.12239 0.14479 0.93513 0.0
C2383 C 0.16138 0.14866 0.89694 0.0
C2384 C 0.13326 0.36132 0.15693 0.0
C2385 C 0.11302 0.3695 0.1625 0.0
H2386 H 0.1543 0.35167 0.13153 0.0
C2387 C 0.09711 0.37108 0.14648 0.0
H2388 H 0.14586 0.36001 0.16886 0.0
C2389 C 0.10209 0.36652 0.12493 0.0
C2390 C 0.12286 0.35991 0.11934 0.0
H2391 H 0.08146 0.37763 0.15025 0.0
H2392 H 0.09021 0.36948 0.11257 0.0
C2393 C 0.1381 0.35655 0.13557 0.0
C2394 C 0.59494 0.14483 0.89741 0.0
C2395 C 0.61114 0.15917 0.90368 0.0
H2396 H 0.57954 0.12868 0.87119 0.0
C2397 C 0.62211 0.17098 0.8879 0.0
H2398 H 0.58661 0.13527 0.90932 0.0
C2399 C 0.61869 0.16663 0.8661 0.0
C2400 C 0.60372 0.15097 0.85982 0.0
H2401 H 0.635 0.18179 0.8924 0.0
H2402 H 0.62894 0.17421 0.85426 0.0
C2403 C 0.59091 0.14111 0.87559 0.0
C2404 C 0.91959 0.87488 0.37556 0.0
C2405 C 0.90656 0.86464 0.36019 0.0
H2406 H 0.92419 0.88179 0.40903 0.0
C2407 C 0.8919 0.84893 0.36704 0.0
H2408 H 0.93083 0.88727 0.37076 0.0
C2409 C 0.88872 0.84521 0.389 0.0
C2410 C 0.89956 0.85775 0.40435 0.0
H2411 H 0.88155 0.84097 0.35553 0.0
H2412 H 0.87589 0.8345 0.39385 0.0
C2413 C 0.9158 0.87179 0.39751 0.0
C2414 C 0.91245 0.1499 0.14789 0.0
C2415 C 0.89644 0.13983 0.16035 0.0
H2416 H 0.92116 0.16229 0.11669 0.0
C2417 C 0.87623 0.13613 0.15107 0.0
H2418 H 0.92823 0.15289 0.15457 0.0
C2419 C 0.87254 0.14079 0.12955 0.0
C2420 C 0.88874 0.14977 0.11675 0.0
H2421 H 0.86344 0.12856 0.16011 0.0
H2422 H 0.85693 0.13704 0.12282 0.0
C2423 C 0.90851 0.1551 0.12623 0.0
C2424 C 0.42091 0.64218 0.64296 0.0
C2425 C 0.40836 0.65178 0.65908 0.0
H2426 H 0.4248 0.63694 0.6091 0.0
C2427 C 0.39349 0.66769 0.65329 0.0
H2428 H 0.43226 0.62962 0.64697 0.0
C2429 C 0.38984 0.67248 0.63161 0.0
C2430 C 0.4004 0.66079 0.61544 0.0
H2431 H 0.38347 0.67514 0.6654 0.0
H2432 H 0.37699 0.68346 0.62753 0.0
C2433 C 0.41664 0.64632 0.62127 0.0
C2434 C 0.10174 0.64441 0.37643 0.0
C2435 C 0.11526 0.65274 0.36038 0.0
H2436 H 0.09658 0.6407 0.41033 0.0
C2437 C 0.13073 0.66814 0.36606 0.0
H2438 H 0.08995 0.6322 0.37253 0.0
C2439 C 0.13392 0.67364 0.38765 0.0
C2440 C 0.12229 0.66314 0.4039 0.0
H2441 H 0.14153 0.67455 0.35402 0.0
H2442 H 0.1472 0.68414 0.39172 0.0
C2443 C 0.10554 0.64922 0.39809 0.0
C2444 C 0.39926 0.34958 0.86845 0.0
C2445 C 0.41362 0.36557 0.86161 0.0
H2446 H 0.38472 0.33368 0.89528 0.0
C2447 C 0.42716 0.37534 0.87684 0.0
H2448 H 0.38851 0.34198 0.85706 0.0
C2449 C 0.42445 0.37118 0.89878 0.0
C2450 C 0.40877 0.35656 0.90574 0.0
H2451 H 0.43816 0.38795 0.87205 0.0
H2452 H 0.43342 0.38062 0.91035 0.0
C2453 C 0.39716 0.3448 0.89034 0.0
C2454 C 0.90026 0.9009 0.66086 0.0
C2455 C 0.91424 0.89275 0.64502 0.0
H2456 H 0.86805 0.91135 0.6682 0.0
C2457 C 0.9067 0.89084 0.62383 0.0
H2458 H 0.90557 0.90246 0.67736 0.0
C2459 C 0.88539 0.89516 0.6189 0.0
C2460 C 0.87107 0.90204 0.63484 0.0
H2461 H 0.91696 0.8848 0.61115 0.0
H2462 H 0.87997 0.89269 0.60253 0.0
C2463 C 0.87879 0.90578 0.65572 0.0
C2464 C 0.8641 0.1213 0.42382 0.0
C2465 C 0.85026 0.11428 0.40745 0.0
H2466 H 0.88075 0.14797 0.43786 0.0
C2467 C 0.83968 0.12965 0.39476 0.0
H2468 H 0.87264 0.10975 0.43364 0.0
C2469 C 0.84492 0.15146 0.39662 0.0
C2470 C 0.86018 0.15829 0.41177 0.0
H2471 H 0.8292 0.12463 0.38179 0.0
H2472 H 0.83834 0.16273 0.38512 0.0
C2473 C 0.86869 0.1432 0.42625 0.0
C2474 C 0.65145 0.1079 0.15044 0.0
C2475 C 0.66513 0.12436 0.14301 0.0
H2476 H 0.61924 0.09936 0.15997 0.0
C2477 C 0.65721 0.14544 0.14197 0.0
H2478 H 0.65707 0.09147 0.15129 0.0
C2479 C 0.63573 0.1497 0.1462 0.0
C2480 C 0.62166 0.13313 0.15209 0.0
H2481 H 0.66727 0.15856 0.13653 0.0
H2482 H 0.62996 0.16601 0.14427 0.0
C2483 C 0.6298 0.11232 0.15517 0.0
C2484 C 0.63975 0.8718 0.91975 0.0
C2485 C 0.64941 0.85605 0.90677 0.0
H2486 H 0.63438 0.90556 0.92459 0.0
C2487 C 0.66488 0.86236 0.89165 0.0
H2488 H 0.62739 0.86738 0.93117 0.0
C2489 C 0.66947 0.88417 0.8885 0.0
C2490 C 0.65804 0.89998 0.89982 0.0
H2491 H 0.67222 0.85056 0.88118 0.0
H2492 H 0.68027 0.8887 0.87562 0.0
C2493 C 0.64368 0.89364 0.91598 0.0
C2494 C 0.85911 0.1272 0.8517 0.0
C2495 C 0.85353 0.11054 0.86585 0.0
H2496 H 0.88463 0.14551 0.83758 0.0
C2497 C 0.86985 0.09726 0.87407 0.0
H2498 H 0.84688 0.13787 0.84545 0.0
C2499 C 0.89147 0.10214 0.87021 0.0
C2500 C 0.89702 0.11976 0.85734 0.0
H2501 H 0.86603 0.08461 0.88539 0.0
H2502 H 0.90381 0.09311 0.87851 0.0
C2503 C 0.88069 0.13155 0.84721 0.0
C2504 C 0.66277 0.15551 0.62025 0.0
C2505 C 0.64699 0.16181 0.60544 0.0
H2506 H 0.67907 0.12921 0.63531 0.0
C2507 C 0.63805 0.14627 0.59169 0.0
H2508 H 0.66968 0.16715 0.63121 0.0
C2509 C 0.64277 0.12447 0.5946 0.0
C2510 C 0.65718 0.118 0.61069 0.0
H2511 H 0.62557 0.15065 0.58039 0.0
H2512 H 0.63393 0.11259 0.58545 0.0
C2513 C 0.66815 0.13379 0.62256 0.0
C2514 C 0.64018 0.90404 0.34803 0.0
C2515 C 0.64801 0.91762 0.36425 0.0
H2516 H 0.61265 0.88855 0.33439 0.0
C2517 C 0.6333 0.92902 0.37701 0.0
H2518 H 0.6512 0.89487 0.33819 0.0
C2519 C 0.61127 0.92478 0.37543 0.0
C2520 C 0.60358 0.90974 0.36048 0.0
H2521 H 0.63893 0.93931 0.38989 0.0
H2522 H 0.60046 0.93194 0.38703 0.0
C2523 C 0.61809 0.90048 0.34586 0.0
C2524 C 0.85949 0.85877 0.12865 0.0
C2525 C 0.8729 0.85266 0.11161 0.0
H2526 H 0.84579 0.88491 0.14635 0.0
C2527 C 0.8798 0.86839 0.09691 0.0
H2528 H 0.85426 0.84701 0.14037 0.0
C2529 C 0.87552 0.89017 0.10073 0.0
C2530 C 0.8636 0.89634 0.1188 0.0
H2531 H 0.89055 0.86415 0.08391 0.0
H2532 H 0.88294 0.90221 0.09059 0.0
C2533 C 0.85467 0.88044 0.13206 0.0
C2534 C 0.9241 0.64134 0.87477 0.0
C2535 C 0.91014 0.65218 0.86073 0.0
H2536 H 0.93096 0.63303 0.90757 0.0
C2537 C 0.89526 0.66678 0.86926 0.0
H2538 H 0.93537 0.62961 0.86859 0.0
C2539 C 0.89337 0.66937 0.89153 0.0
C2540 C 0.90571 0.65674 0.90557 0.0
H2541 H 0.88405 0.67498 0.85878 0.0
H2542 H 0.88067 0.67951 0.89774 0.0
C2543 C 0.92159 0.64324 0.89705 0.0
C2544 C 0.36528 0.87186 0.13834 0.0
C2545 C 0.38109 0.86571 0.12352 0.0
H2546 H 0.35811 0.88209 0.17021 0.0
C2547 C 0.4023 0.86289 0.13074 0.0
H2548 H 0.34868 0.87366 0.13344 0.0
C2549 C 0.40778 0.8678 0.15211 0.0
C2550 C 0.39206 0.87535 0.16648 0.0
H2551 H 0.41476 0.85792 0.11968 0.0
H2552 H 0.42445 0.86692 0.15696 0.0
C2553 C 0.37065 0.87649 0.15954 0.0
C2554 C 0.0922 0.14838 0.62482 0.0
C2555 C 0.10838 0.16245 0.61793 0.0
H2556 H 0.0773 0.13278 0.6516 0.0
C2557 C 0.11977 0.17447 0.63328 0.0
H2558 H 0.08345 0.13873 0.61327 0.0
C2559 C 0.11686 0.17049 0.65523 0.0
C2560 C 0.10195 0.15502 0.66211 0.0
H2561 H 0.1326 0.18514 0.62833 0.0
H2562 H 0.12745 0.17819 0.66671 0.0
C2563 C 0.08868 0.14504 0.64678 0.0
C2564 C 0.12893 0.84805 0.88556 0.0
C2565 C 0.11563 0.85873 0.90029 0.0
H2566 H 0.13772 0.84425 0.85245 0.0
C2567 C 0.09799 0.87042 0.89266 0.0
H2568 H 0.14291 0.83932 0.89113 0.0
C2569 C 0.09458 0.87265 0.87051 0.0
C2570 C 0.10932 0.86395 0.85575 0.0
H2571 H 0.08781 0.87914 0.90375 0.0
H2572 H 0.08184 0.88315 0.86505 0.0
C2573 C 0.12599 0.85088 0.86344 0.0
C2574 C 0.5894 0.38029 0.37525 0.0
C2575 C 0.60227 0.36957 0.3601 0.0
H2576 H 0.58443 0.38744 0.40865 0.0
C2577 C 0.61695 0.35407 0.36731 0.0
H2578 H 0.57829 0.39266 0.37014 0.0
C2579 C 0.61983 0.3505 0.38934 0.0
C2580 C 0.60867 0.36297 0.40447 0.0
H2581 H 0.62729 0.34588 0.35597 0.0
H2582 H 0.63239 0.33964 0.39451 0.0
C2583 C 0.59292 0.37737 0.39729 0.0
C2584 C 0.89246 0.3444 0.62517 0.0
C2585 C 0.90338 0.35731 0.61024 0.0
H2586 H 0.88553 0.33889 0.65851 0.0
C2587 C 0.91943 0.37135 0.61755 0.0
H2588 H 0.87969 0.33378 0.61992 0.0
C2589 C 0.92337 0.37362 0.63959 0.0
C2590 C 0.91064 0.36258 0.65462 0.0
H2591 H 0.92777 0.38173 0.60634 0.0
H2592 H 0.93464 0.3858 0.64487 0.0
C2593 C 0.89576 0.34732 0.64724 0.0
C2594 C 0.59613 0.63924 0.11675 0.0
C2595 C 0.6118 0.65356 0.10921 0.0
H2596 H 0.58095 0.62523 0.14427 0.0
C2597 C 0.62215 0.66723 0.1239 0.0
H2598 H 0.58822 0.6283 0.10575 0.0
C2599 C 0.61862 0.66493 0.14602 0.0
C2600 C 0.60407 0.64949 0.15369 0.0
H2601 H 0.63462 0.6781 0.11849 0.0
H2602 H 0.62841 0.67405 0.15716 0.0
C2603 C 0.59194 0.63757 0.1388 0.0
C2604 C 0.66189 0.63835 0.86992 0.0
C2605 C 0.66939 0.61709 0.86926 0.0
H2606 H 0.63501 0.6594 0.86728 0.0
C2607 C 0.6554 0.60081 0.86199 0.0
H2608 H 0.67219 0.65134 0.87524 0.0
C2609 C 0.63386 0.60559 0.85711 0.0
C2610 C 0.62613 0.62659 0.85985 0.0
H2611 H 0.66067 0.58424 0.86142 0.0
H2612 H 0.62303 0.59275 0.85255 0.0
C2613 C 0.64051 0.64297 0.86553 0.0
C2614 C 0.67262 0.38924 0.12281 0.0
C2615 C 0.66023 0.40401 0.11106 0.0
H2616 H 0.67677 0.3562 0.13176 0.0
C2617 C 0.64607 0.39628 0.0953 0.0
H2618 H 0.68339 0.39478 0.13531 0.0
C2619 C 0.64294 0.37415 0.09268 0.0
C2620 C 0.65324 0.35949 0.10642 0.0
H2621 H 0.63616 0.40734 0.08624 0.0
H2622 H 0.63057 0.36872 0.0817 0.0
C2623 C 0.66883 0.36714 0.12081 0.0
C2624 C 0.86428 0.41699 0.36606 0.0
C2625 C 0.8491 0.40044 0.36906 0.0
H2626 H 0.89768 0.42485 0.36124 0.0
C2627 C 0.85561 0.37905 0.36608 0.0
H2628 H 0.85979 0.43362 0.36844 0.0
C2629 C 0.8771 0.37415 0.36239 0.0
C2630 C 0.89255 0.39049 0.36121 0.0
H2631 H 0.84438 0.36592 0.36819 0.0
H2632 H 0.88186 0.35742 0.36155 0.0
C2633 C 0.88595 0.41202 0.36211 0.0
C2634 C 0.88986 0.63372 0.60515 0.0
C2635 C 0.87367 0.6493 0.60631 0.0
H2636 H 0.89834 0.60077 0.60921 0.0
C2637 C 0.85234 0.6428 0.60947 0.0
H2638 H 0.90643 0.63844 0.60266 0.0
C2639 C 0.84762 0.62103 0.61329 0.0
C2640 C 0.86424 0.6057 0.61405 0.0
H2641 H 0.83965 0.65464 0.61053 0.0
H2642 H 0.83134 0.61657 0.61745 0.0
C2643 C 0.8852 0.61215 0.60884 0.0
C2644 C 0.62607 0.41377 0.65668 0.0
C2645 C 0.61898 0.39238 0.65734 0.0
H2646 H 0.65257 0.4349 0.64998 0.0
C2647 C 0.63398 0.37573 0.65537 0.0
H2648 H 0.6147 0.42684 0.65818 0.0
C2649 C 0.65545 0.38021 0.65115 0.0
C2650 C 0.6624 0.4015 0.64839 0.0
H2651 H 0.62884 0.35909 0.65606 0.0
H2652 H 0.66629 0.36687 0.64849 0.0
C2653 C 0.64773 0.41833 0.65216 0.0
C2654 C 0.85093 0.37282 0.89422 0.0
C2655 C 0.8673 0.36582 0.90803 0.0
H2656 H 0.83542 0.39978 0.87954 0.0
C2657 C 0.87831 0.38107 0.92056 0.0
H2658 H 0.84242 0.36141 0.8842 0.0
C2659 C 0.87491 0.40308 0.9173 0.0
C2660 C 0.85982 0.41012 0.90211 0.0
H2661 H 0.89127 0.37613 0.93107 0.0
H2662 H 0.88524 0.41453 0.92537 0.0
C2663 C 0.84691 0.39481 0.89162 0.0
C2664 C 0.88732 0.60515 0.15878 0.0
C2665 C 0.89401 0.62666 0.15745 0.0
H2666 H 0.86159 0.5828 0.153 0.0
C2667 C 0.8788 0.64264 0.153 0.0
H2668 H 0.89879 0.59259 0.16234 0.0
C2669 C 0.85765 0.63722 0.1483 0.0
C2670 C 0.85124 0.61561 0.14744 0.0
H2671 H 0.88348 0.6594 0.15235 0.0
H2672 H 0.84669 0.64998 0.14385 0.0
C2673 C 0.86602 0.59961 0.15362 0.0
C2674 C 0.67367 0.65261 0.39579 0.0
C2675 C 0.65835 0.6606 0.41026 0.0
H2676 H 0.68628 0.62484 0.37979 0.0
C2677 C 0.64619 0.64596 0.42244 0.0
H2678 H 0.68301 0.66355 0.38598 0.0
C2679 C 0.64742 0.62389 0.41827 0.0
C2680 C 0.66151 0.61605 0.40255 0.0
H2681 H 0.63396 0.65168 0.43341 0.0
H2682 H 0.63625 0.61313 0.42617 0.0
C2683 C 0.67554 0.63045 0.39228 0.0
C2684 C 0.62607 0.84905 0.64934 0.0
C2685 C 0.61128 0.86481 0.65571 0.0
H2686 H 0.64169 0.83338 0.62297 0.0
C2687 C 0.59811 0.87436 0.64006 0.0
H2688 H 0.63658 0.84165 0.66107 0.0
C2689 C 0.60159 0.87026 0.61821 0.0
C2690 C 0.61765 0.85585 0.61176 0.0
H2691 H 0.58682 0.88683 0.64449 0.0
H2692 H 0.5929 0.87957 0.60636 0.0
C2693 C 0.62893 0.84429 0.62753 0.0
C2694 C 0.368 0.39539 0.17199 0.0
C2695 C 0.3602 0.40987 0.15657 0.0
H2696 H 0.39577 0.38151 0.18677 0.0
C2697 C 0.37458 0.4244 0.14696 0.0
H2698 H 0.35728 0.3839 0.17947 0.0
C2699 C 0.39668 0.42251 0.15053 0.0
C2700 C 0.40464 0.40666 0.16443 0.0
H2701 H 0.36905 0.43554 0.13479 0.0
H2702 H 0.40762 0.43222 0.1411 0.0
C2703 C 0.39004 0.39409 0.17621 0.0
C2704 C 0.37976 0.64518 0.92125 0.0
C2705 C 0.37101 0.66091 0.90764 0.0
H2706 H 0.38303 0.6114 0.92744 0.0
C2707 C 0.35478 0.65504 0.89313 0.0
H2708 H 0.39261 0.64925 0.93227 0.0
C2709 C 0.34869 0.63348 0.89102 0.0
C2710 C 0.35937 0.61746 0.90277 0.0
H2711 H 0.34806 0.66683 0.88225 0.0
H2712 H 0.33744 0.62913 0.87846 0.0
C2713 C 0.37432 0.62352 0.9185 0.0
C2714 C 0.14118 0.62114 0.6673 0.0
C2715 C 0.14756 0.6071 0.65087 0.0
H2716 H 0.115 0.63752 0.6824 0.0
C2717 C 0.13178 0.59605 0.6391 0.0
H2718 H 0.15307 0.6301 0.67631 0.0
C2719 C 0.11002 0.60091 0.64197 0.0
C2720 C 0.10372 0.61625 0.65725 0.0
H2721 H 0.13634 0.58548 0.62604 0.0
H2722 H 0.0983 0.59399 0.63111 0.0
C2723 C 0.11937 0.62531 0.67079 0.0
C2724 C 0.14073 0.3949 0.42707 0.0
C2725 C 0.15584 0.40027 0.41125 0.0
H2726 H 0.12309 0.36969 0.44248 0.0
C2727 C 0.16743 0.3838 0.40111 0.0
H2728 H 0.13139 0.40735 0.43485 0.0
C2729 C 0.16212 0.36226 0.40484 0.0
C2730 C 0.14574 0.35693 0.41938 0.0
H2731 H 0.17888 0.38756 0.38856 0.0
H2732 H 0.16961 0.34989 0.39516 0.0
C2733 C 0.13604 0.37335 0.43145 0.0
C2734 C 0.38701 0.5896 0.37934 0.0
C2735 C 0.37153 0.60191 0.36848 0.0
H2736 H 0.42059 0.58495 0.38559 0.0
C2737 C 0.37816 0.61579 0.35202 0.0
H2738 H 0.38229 0.5791 0.3924 0.0
C2739 C 0.40003 0.61846 0.34753 0.0
C2740 C 0.41561 0.60801 0.36009 0.0
H2741 H 0.36654 0.62569 0.34368 0.0
H2742 H 0.40474 0.63049 0.33586 0.0
C2743 C 0.40891 0.59294 0.37548 0.0
C2744 C 0.15374 0.63016 0.11508 0.0
C2745 C 0.15141 0.62194 0.13596 0.0
H2746 H 0.14809 0.65711 0.09417 0.0
C2747 C 0.14498 0.63574 0.15256 0.0
H2748 H 0.1589 0.61981 0.10208 0.0
C2749 C 0.13945 0.65692 0.14826 0.0
C2750 C 0.13977 0.6648 0.12713 0.0
H2751 H 0.14357 0.62993 0.16892 0.0
H2752 H 0.13363 0.66674 0.1614 0.0
C2753 C 0.14776 0.6515 0.11063 0.0
C2754 C 0.15571 0.39629 0.84995 0.0
C2755 C 0.16196 0.41133 0.86556 0.0
H2756 H 0.12946 0.3809 0.83379 0.0
C2757 C 0.14637 0.42503 0.87442 0.0
H2758 H 0.16739 0.38539 0.84308 0.0
C2759 C 0.1246 0.42192 0.86973 0.0
C2760 C 0.1182 0.40569 0.85543 0.0
H2761 H 0.15071 0.43653 0.88674 0.0
H2762 H 0.1127 0.43111 0.87847 0.0
C2763 C 0.134 0.39378 0.8446 0.0
C2764 C 0.36933 0.39493 0.59911 0.0
C2765 C 0.35478 0.40037 0.61542 0.0
H2766 H 0.38653 0.36965 0.58336 0.0
C2767 C 0.34363 0.38393 0.62613 0.0
H2768 H 0.37835 0.40734 0.59091 0.0
C2769 C 0.34892 0.36238 0.62244 0.0
C2770 C 0.36478 0.357 0.60737 0.0
H2771 H 0.33265 0.38776 0.63907 0.0
H2772 H 0.34188 0.35009 0.63255 0.0
C2773 C 0.37395 0.37335 0.59478 0.0
C2774 C 0.39218 0.16784 0.36451 0.0
C2775 C 0.40809 0.15309 0.35841 0.0
H2776 H 0.37475 0.18202 0.39061 0.0
C2777 C 0.42113 0.14387 0.37438 0.0
H2778 H 0.38171 0.17489 0.35253 0.0
C2779 C 0.41661 0.1473 0.39615 0.0
C2780 C 0.39962 0.16075 0.40222 0.0
H2781 H 0.43322 0.1321 0.37014 0.0
H2782 H 0.42531 0.13823 0.40818 0.0
C2783 C 0.38822 0.17191 0.38628 0.0
C2784 C 0.02022 0.11317 0.28275 0.0
C2785 C 0.0193 0.13569 0.28436 0.0
H2786 H 1.00695 0.08468 0.2686 0.0
C2787 C 1.00565 0.14692 0.27027 0.0
H2788 H 0.0305 0.10398 0.29334 0.0
C2789 C 0.99224 0.13584 0.25592 0.0
C2790 C 0.99198 0.11324 0.25547 0.0
H2791 H 1.00455 0.16427 0.27102 0.0
H2792 H 0.98119 0.14498 0.24609 0.0
C2793 C 1.00664 0.10208 0.26857 0.0
C2794 C 0.13139 0.73273 0.50098 0.0
C2795 C 0.15391 0.73297 0.49923 0.0
H2796 H 0.10358 0.74493 0.51718 0.0
C2797 C 0.16545 0.74816 0.51142 0.0
H2798 H 0.12196 0.72125 0.49191 0.0
C2799 C 0.15484 0.76198 0.52576 0.0
C2800 C 0.13245 0.76075 0.52852 0.0
H2801 H 0.18279 0.74885 0.51049 0.0
H2802 H 0.16434 0.77282 0.53552 0.0
C2803 C 0.12083 0.74632 0.51553 0.0
C2804 C 0.52593 0.90933 0.7571 0.0
C2805 C 0.54223 0.89787 0.74643 0.0
H2806 H 0.49992 0.90827 0.77969 0.0
C2807 C 0.54334 0.87549 0.7494 0.0
H2808 H 0.52458 0.92657 0.75517 0.0
C2809 C 0.52938 0.86506 0.76365 0.0
C2810 C 0.51372 0.87666 0.77506 0.0
H2811 H 0.55567 0.86613 0.74149 0.0
H2812 H 0.53132 0.84797 0.76623 0.0
C2813 C 0.51174 0.89883 0.77113 0.0
C2814 C 0.40242 0.27821 0.99854 0.0
C2815 C 0.37988 0.27972 0.99807 0.0
H2816 H 0.4301 0.26451 0.01375 0.0
C2817 C 0.36795 0.26586 0.01138 0.0
H2818 H 0.41216 0.28863 0.98859 0.0
C2819 C 0.37827 0.25188 0.02575 0.0
C2820 C 0.4008 0.25153 0.02734 0.0
H2821 H 0.35058 0.26654 0.01147 0.0
H2822 H 0.36853 0.24225 0.03647 0.0
C2823 C 0.41273 0.26438 0.01305 0.0
C2824 C 0.98959 0.9127 0.26187 0.0
C2825 C 0.97289 0.90096 0.27161 0.0
H2826 H 0.01601 0.91236 0.23969 0.0
C2827 C 0.97133 0.87883 0.26727 0.0
H2828 H 0.99128 0.92976 0.26485 0.0
C2829 C 0.98528 0.86896 0.25263 0.0
C2830 C 1.00142 0.88086 0.24222 0.0
H2831 H 0.95868 0.86927 0.2744 0.0
H2832 H 0.98302 0.85209 0.24902 0.0
C2833 C 1.00381 0.90271 0.24748 0.0
C2834 C 0.40306 0.74252 0.50559 0.0
C2835 C 0.39201 0.75625 0.49143 0.0
H2836 H 0.40091 0.71837 0.53005 0.0
C2837 C 0.36948 0.7572 0.49284 0.0
H2838 H 0.42039 0.74139 0.50501 0.0
C2839 C 0.35826 0.74382 0.50713 0.0
C2840 C 0.36928 0.72931 0.52053 0.0
H2841 H 0.36042 0.76753 0.48219 0.0
H2842 H 0.34088 0.7443 0.50709 0.0
C2843 C 0.39185 0.72932 0.52001 0.0
C2844 C 0.51502 0.15224 0.75469 0.0
C2845 C 0.50047 0.14047 0.74199 0.0
H2846 H 0.54043 0.15133 0.7779 0.0
C2847 C 0.49911 0.11812 0.7451 0.0
H2848 H 0.51645 0.16948 0.75278 0.0
C2849 C 0.51307 0.10764 0.75938 0.0
C2850 C 0.52851 0.1193 0.77112 0.0
H2851 H 0.48814 0.10853 0.73558 0.0
H2852 H 0.51241 0.09029 0.76047 0.0
C2853 C 0.52875 0.14181 0.76918 0.0
C2854 C 0.14155 0.24869 0.98702 0.0
C2855 C 0.11898 0.24785 0.98719 0.0
H2856 H 0.16999 0.26374 0.99935 0.0
C2857 C 0.10794 0.26036 1.00246 0.0
H2858 H 0.15061 0.23937 0.97547 0.0
C2859 C 0.1191 0.27421 0.01636 0.0
C2860 C 0.14158 0.27613 0.01515 0.0
H2861 H 0.09057 0.26013 1.00309 0.0
H2862 H 0.11 0.28428 0.02724 0.0
C2863 C 0.15268 0.26275 1.0007 0.0
C2864 C 0.28979 0.01344 0.11027 0.0
C2865 C 0.29223 0.01089 0.1326 0.0
H2866 H 0.27478 1.00219 0.08132 0.0
C2867 C 0.27939 0.99548 0.14307 0.0
H2868 H 0.29943 0.02507 0.10163 0.0
C2869 C 0.2651 0.98245 0.13143 0.0
C2870 C 0.26342 0.9843 0.10896 0.0
H2871 H 0.28079 0.99305 0.16024 0.0
H2872 H 0.25597 0.97037 0.13999 0.0
C2873 C 0.27567 1.00025 0.09859 0.0
C2874 C 0.25781 0.02382 0.41398 0.0
C2875 C 0.24651 0.04006 0.40304 0.0
H2876 H 0.28103 0.99845 0.41195 0.0
C2877 C 0.24885 0.04158 0.38061 0.0
H2878 H 0.25636 0.02215 0.43124 0.0
C2879 C 0.26314 0.02815 0.36961 0.0
C2880 C 0.27526 0.01265 0.38069 0.0
H2881 H 0.24041 0.05386 0.37164 0.0
H2882 H 0.26526 0.03046 0.35249 0.0
C2883 C 0.27191 0.01017 0.4029 0.0
C2884 C 0.23363 1.00092 0.61241 0.0
C2885 C 0.23221 1.00112 0.63498 0.0
H2886 H 0.24736 0.01516 0.5842 0.0
C2887 C 0.24593 0.01497 0.64647 0.0
H2888 H 0.22332 0.99053 0.60299 0.0
C2889 C 0.25981 0.02908 0.63567 0.0
C2890 C 0.26025 0.02982 0.61307 0.0
H2891 H 0.24531 0.01558 0.66385 0.0
H2892 H 0.26946 0.0401 0.64506 0.0
C2893 C 0.24742 0.01513 0.6016 0.0
C2894 C 0.23119 0.01663 0.90613 0.0
C2895 C 0.23021 0.01488 0.8836 0.0
H2896 H 0.24459 1.00459 0.9355 0.0
C2897 C 0.24421 1.00038 0.87336 0.0
H2898 H 0.22064 0.02755 0.91459 0.0
C2899 C 0.25807 0.98727 0.88537 0.0
C2900 C 0.25816 0.98816 0.90797 0.0
H2901 H 0.24393 0.99857 0.85606 0.0
H2902 H 0.26803 0.97576 0.87696 0.0
C2903 C 0.24491 1.00338 0.91815 0.0
C2904 C 0.64067 0.26006 0.04259 0.0
C2905 C 0.61833 0.26341 0.04216 0.0
H2906 H 0.6675 0.24252 0.03001 0.0
C2907 C 0.60615 0.25232 0.02663 0.0
H2908 H 0.65058 0.26823 0.05434 0.0
C2909 C 0.61594 0.23774 0.01243 0.0
C2910 C 0.63812 0.23361 0.0136 0.0
H2911 H 0.58893 0.25448 0.02579 0.0
H2912 H 0.60594 0.22902 1.00115 0.0
C2913 C 0.65039 0.24525 0.02863 0.0
C2914 C 0.03185 0.37794 0.25384 0.0
C2915 C 0.03076 0.40049 0.25287 0.0
H2916 H 0.01993 0.34905 0.26833 0.0
C2917 C 0.01448 0.41097 0.26453 0.0
H2918 H 0.04417 0.36932 0.24512 0.0
C2919 C 1.00037 0.39929 0.27768 0.0
C2920 C 1.00238 0.37687 0.27972 0.0
H2921 H 0.01312 0.42831 0.26413 0.0
H2922 H 0.98863 0.40797 0.28711 0.0
C2923 C 0.01794 0.3663 0.2672 0.0
C2924 C 0.88973 0.79548 0.50309 0.0
C2925 C 0.86736 0.79421 0.50023 0.0
H2926 H 0.91742 0.78388 0.51998 0.0
C2927 C 0.85602 0.7782 0.51151 0.0
H2928 H 0.899 0.80763 0.49478 0.0
C2929 C 0.86668 0.76431 0.52577 0.0
C2930 C 0.88889 0.76633 0.52942 0.0
H2931 H 0.83879 0.77673 0.50973 0.0
H2932 H 0.85735 0.75261 0.53463 0.0
C2933 C 0.90031 0.78186 0.51762 0.0
C2934 C 0.03429 0.64898 0.24921 0.0
C2935 C 0.01772 0.63744 0.23902 0.0
H2936 H 0.06113 0.64811 0.27076 0.0
C2937 C 0.01503 0.61561 0.24423 0.0
H2938 H 0.03681 0.66581 0.24561 0.0
C2939 C 0.02923 0.60534 0.25845 0.0
C2940 C 0.04623 0.61674 0.2681 0.0
H2941 H 1.00252 0.60621 0.23663 0.0
H2942 H 0.02719 0.58833 0.26148 0.0
C2943 C 0.04822 0.63882 0.2637 0.0
C2944 C 0.47889 0.37671 0.76834 0.0
C2945 C 0.47952 0.39922 0.77033 0.0
H2946 H 0.49108 0.3488 0.75231 0.0
C2947 C 0.4953 0.41061 0.75881 0.0
H2948 H 0.46696 0.3674 0.77692 0.0
C2949 C 0.50937 0.39986 0.74485 0.0
C2950 C 0.50777 0.37751 0.74185 0.0
H2951 H 0.49628 0.42794 0.75997 0.0
H2952 H 0.52071 0.40922 0.73557 0.0
C2953 C 0.49272 0.36602 0.75417 0.0
C2954 C 1.00575 0.88639 0.73634 0.0
C2955 C 1.00667 0.8638 0.73605 0.0
H2956 H 0.01845 0.91571 0.74928 0.0
C2957 C 0.0203 0.85348 0.75086 0.0
H2958 H 0.99545 0.89492 0.72521 0.0
C2959 C 0.03345 0.86543 0.76478 0.0
C2960 C 0.0334 0.88803 0.76422 0.0
H2961 H 0.02142 0.83612 0.75118 0.0
H2962 H 0.04435 0.8569 0.7753 0.0
C2963 C 0.01896 0.89834 0.75019 0.0
C2964 C 0.89852 0.28025 0.50647 0.0
C2965 C 0.87635 0.2843 0.50498 0.0
H2966 H 0.92567 0.26326 0.49376 0.0
C2967 C 0.86419 0.27216 0.49026 0.0
H2968 H 0.90841 0.28934 0.51754 0.0
C2969 C 0.87405 0.25702 0.47678 0.0
C2970 C 0.8964 0.25382 0.47743 0.0
H2971 H 0.84709 0.27481 0.48867 0.0
H2972 H 0.86425 0.24852 0.46518 0.0
C2973 C 0.90844 0.26532 0.49276 0.0
C2974 C 0.47858 0.14415 0.26651 0.0
C2975 C 0.48011 0.12171 0.26874 0.0
H2976 H 0.49001 0.17245 0.25058 0.0
C2977 C 0.49653 0.11092 0.25756 0.0
H2978 H 0.46614 0.15301 0.27482 0.0
C2979 C 0.51042 0.12215 0.24378 0.0
C2980 C 0.50805 0.14441 0.24062 0.0
H2981 H 0.49822 0.09366 0.2589 0.0
H2982 H 0.52234 0.11321 0.23483 0.0
C2983 C 0.49227 0.15532 0.25254 0.0
C2984 C 0.61431 0.72962 1.00366 0.0
C2985 C 0.63656 0.726 1.00215 0.0
H2986 H 0.58681 0.74615 0.99108 0.0
C2987 C 0.64842 0.73839 0.9874 0.0
H2988 H 0.60463 0.72033 0.01473 0.0
C2989 C 0.63824 0.7534 0.97401 0.0
C2990 C 0.61584 0.75622 0.97474 0.0
H2991 H 0.66557 0.73607 0.98579 0.0
H2992 H 0.64784 0.76215 0.96244 0.0
C2993 C 0.60407 0.7444 0.99002 0.0
C2994 C 1.00298 0.12051 0.77695 0.0
C2995 C 1.00427 0.14288 0.78004 0.0
H2996 H 0.0165 0.09258 0.7619 0.0
C2997 C 0.01952 0.15449 0.76806 0.0
H2998 H 0.99151 0.11103 0.78595 0.0
C2999 C 0.03373 0.14394 0.75412 0.0
C3000 C 0.03327 0.12144 0.75194 0.0
H3001 H 0.02099 0.17173 0.76998 0.0
H3002 H 0.04572 0.15338 0.74577 0.0
C3003 C 0.01738 0.10992 0.76318 0.0
C3004 C 0.6334 0.25991 0.54085 0.0
C3005 C 0.61098 0.25718 0.54018 0.0
H3006 H 0.66082 0.27701 0.52888 0.0
C3007 C 0.59926 0.26886 0.52476 0.0
H3008 H 0.64297 0.25128 0.55252 0.0
C3009 C 0.60957 0.28346 0.51095 0.0
C3010 C 0.63184 0.28701 0.51241 0.0
H3011 H 0.58198 0.26718 0.52374 0.0
H3012 H 0.59992 0.29266 0.49979 0.0
C3013 C 0.64365 0.27473 0.52728 0.0
C3014 C 0.51056 0.90201 0.29465 0.0
C3015 C 0.51039 0.87939 0.29485 0.0
H3016 H 0.49719 0.93096 0.28163 0.0
C3017 C 0.49679 0.86869 0.28024 0.0
H3018 H 0.52075 0.91085 0.30565 0.0
C3019 C 0.48326 0.88027 0.26636 0.0
C3020 C 0.48287 0.90289 0.26674 0.0
H3021 H 0.49617 0.85131 0.2799 0.0
H3022 H 0.47264 0.87145 0.25576 0.0
C3023 C 0.49698 0.91358 0.28085 0.0
C3024 C 0.88525 0.75428 0.04361 0.0
C3025 C 0.90763 0.75698 0.04219 0.0
H3026 H 0.85737 0.73742 0.03235 0.0
C3027 C 0.91877 0.74545 0.02623 0.0
H3028 H 0.87612 0.76281 0.05571 0.0
C3029 C 0.90794 0.73106 0.0126 0.0
C3030 C 0.88573 0.72756 0.01477 0.0
H3031 H 0.936 0.74713 0.02461 0.0
H3032 H 0.91716 0.72198 1.00098 0.0
C3033 C 0.87448 0.73966 0.0302 0.0
C3034 C 0.74903 0.02109 0.86605 0.0
C3035 C 0.73705 1.00563 0.8774 0.0
H3036 H 0.771 0.0476 0.86765 0.0
C3037 C 0.73987 1.00424 0.89979 0.0
H3038 H 0.74731 0.02265 0.8488 0.0
C3039 C 0.75334 0.01874 0.91067 0.0
C3040 C 0.76452 0.03487 0.89941 0.0
H3041 H 0.73087 0.99262 0.9091 0.0
H3042 H 0.75441 0.01775 0.92801 0.0
C3043 C 0.76266 0.03544 0.87688 0.0
C3044 C 0.76351 0.99891 0.64101 0.0
C3045 C 0.76259 0.99587 0.61864 0.0
H3046 H 0.74999 0.01466 0.66853 0.0
C3047 C 0.74885 0.00907 0.60651 0.0
H3048 H 0.77388 0.98901 0.65085 0.0
C3049 C 0.7354 0.02403 0.61661 0.0
C3050 C 0.7351 0.02591 0.63914 0.0
H3051 H 0.74782 1.00724 0.58924 0.0
H3052 H 0.72427 0.03313 0.60683 0.0
C3053 C 0.74979 0.01364 0.65116 0.0
C3054 C 0.75528 1.00533 0.40762 0.0
C3055 C 0.74291 0.9914 0.39478 0.0
H3056 H 0.77986 0.02945 0.40872 0.0
C3057 C 0.74438 0.99339 0.37231 0.0
H3058 H 0.75454 1.0043 0.42498 0.0
C3059 C 0.75911 1.00768 0.36296 0.0
C3060 C 0.77253 0.02056 0.37584 0.0
H3061 H 0.73515 0.98293 0.36189 0.0
H3062 H 0.76073 1.00783 0.34564 0.0
C3063 C 0.76979 0.01983 0.39827 0.0
C3064 C 0.76329 0.03847 0.1346 0.0
C3065 C 0.76126 0.03692 0.11214 0.0
H3066 H 0.77885 0.02692 0.16309 0.0
C3067 C 0.7727 0.02062 0.10143 0.0
H3068 H 0.75478 0.05082 0.1434 0.0
C3069 C 0.78634 1.0067 0.11279 0.0
C3070 C 0.78913 0.00891 0.13512 0.0
H3071 H 0.77151 0.0189 0.08415 0.0
H3072 H 0.79535 0.99476 0.10392 0.0
C3073 C 0.77714 0.02475 0.14591 0.0
C3074 C 0.38346 0.76043 0.96629 0.0
C3075 C 0.40512 0.7554 0.97016 0.0
H3076 H 0.3563 0.77966 0.97513 0.0
C3077 C 0.4154 0.76493 0.98792 0.0
H3078 H 0.37507 0.75349 0.9527 0.0
C3079 C 0.40446 0.77961 1.00109 0.0
C3080 C 0.38316 0.78552 0.99646 0.0
H3081 H 0.43208 0.76141 0.99135 0.0
H3082 H 0.41301 0.78712 0.01426 0.0
C3083 C 0.3727 0.7755 0.97911 0.0
C3084 C 0.99523 0.61764 0.73939 0.0
C3085 C 0.98305 0.62911 0.75461 0.0
H3086 H 0.01797 0.61898 0.71355 0.0
C3087 C 0.98605 0.65149 0.75601 0.0
H3088 H 0.99338 0.60041 0.7378 0.0
C3089 C 1.00005 0.6622 0.74191 0.0
C3090 C 0.01161 0.65082 0.72614 0.0
H3091 H 0.97691 0.66089 0.76744 0.0
H3092 H 1.00136 0.67952 0.74298 0.0
C3093 C 0.00938 0.62832 0.72544 0.0
C3094 C 0.09962 0.25474 0.50533 0.0
C3095 C 0.11102 0.26679 0.48995 0.0
H3096 H 0.10104 0.23113 0.5304 0.0
C3097 C 0.13357 0.26561 0.48999 0.0
H3098 H 0.08226 0.25528 0.50582 0.0
C3099 C 0.14434 0.25159 0.50396 0.0
C3100 C 0.13286 0.23859 0.51846 0.0
H3101 H 0.1429 0.27462 0.4784 0.0
H3102 H 0.16162 0.25026 0.50272 0.0
C3103 C 0.11042 0.24092 0.51951 0.0
C3104 C 1.00405 0.40579 0.76172 0.0
C3105 C 0.99003 0.39291 0.7495 0.0
H3106 H 0.02915 0.40689 0.78529 0.0
C3107 C 0.9927 0.37048 0.75021 0.0
H3108 H 1.00251 0.42312 0.76153 0.0
C3109 C 1.00785 0.36114 0.76406 0.0
C3110 C 0.02094 0.374 0.77729 0.0
H3111 H 0.98218 0.36004 0.74108 0.0
H3112 H 0.00857 0.34379 0.76514 0.0
C3113 C 0.01942 0.39646 0.77531 0.0
C3114 C 0.51844 0.65159 0.26662 0.0
C3115 C 0.5057 0.63941 0.2808 0.0
H3116 H 0.5424 0.65145 0.24186 0.0
C3117 C 0.50628 0.61687 0.27902 0.0
H3118 H 0.51844 0.66897 0.26747 0.0
C3119 C 0.52016 0.60679 0.26437 0.0
C3120 C 0.53375 0.61897 0.251 0.0
H3121 H 0.49676 0.60694 0.28966 0.0
H3122 H 0.52083 0.58941 0.26415 0.0
C3123 C 0.53221 0.64151 0.25187 0.0
C3124 C 0.51083 0.61709 0.77025 0.0
C3125 C 0.50928 0.63938 0.77364 0.0
H3126 H 0.49701 0.58907 0.75562 0.0
C3127 C 0.49337 0.65087 0.76246 0.0
H3128 H 0.52282 0.60772 0.77867 0.0
C3129 C 0.47873 0.64022 0.74905 0.0
C3130 C 0.4794 0.61775 0.74673 0.0
H3131 H 0.49173 0.66805 0.76466 0.0
H3132 H 0.46621 0.64952 0.74136 0.0
C3133 C 0.49597 0.60637 0.75708 0.0
C3134 C 0.87657 0.26893 0.97233 0.0
C3135 C 0.89886 0.27228 0.97375 0.0
H3136 H 0.84926 0.25125 0.98361 0.0
C3137 C 0.91035 0.26139 0.9899 0.0
H3138 H 0.86719 0.27697 0.96008 0.0
C3139 C 0.89997 0.24682 1.00364 0.0
C3140 C 0.87792 0.24251 1.00131 0.0
H3141 H 0.92753 0.26359 0.99147 0.0
H3142 H 0.90945 0.23812 0.01534 0.0
C3143 C 0.86627 0.25412 0.98581 0.0
C3144 C 0.65221 0.75308 0.48668 0.0
C3145 C 0.62969 0.75161 0.48556 0.0
H3146 H 0.6795 0.76877 0.50071 0.0
C3147 C 0.61749 0.76369 0.50028 0.0
H3148 H 0.66216 0.74408 0.47562 0.0
C3149 C 0.62747 0.77777 0.51485 0.0
C3150 C 0.64993 0.78031 0.51495 0.0
H3151 H 0.60012 0.76299 0.49995 0.0
H3152 H 0.61748 0.78752 0.52522 0.0
C3153 C 0.66218 0.7673 0.5011 0.0
C3154 C 0.75332 0.48543 0.64107 0.0
C3155 C 0.7537 0.48608 0.61847 0.0
H3156 H 0.76672 0.49713 0.6706 0.0
C3157 C 0.76737 0.50105 0.60844 0.0
H3158 H 0.74303 0.47413 0.64939 0.0
C3159 C 0.78096 0.51433 0.62064 0.0
C3160 C 0.7813 0.51295 0.64321 0.0
H3161 H 0.76811 0.50207 0.59109 0.0
H3162 H 0.79176 0.52511 0.6123 0.0
C3163 C 0.76695 0.49866 0.65327 0.0
C3164 C 0.77585 0.51379 0.90896 0.0
C3165 C 0.762 0.52842 0.8987 0.0
H3166 H 0.80049 0.49 0.90552 0.0
C3167 C 0.76166 0.52877 0.87608 0.0
H3168 H 0.77657 0.51302 0.92633 0.0
C3169 C 0.77544 0.51551 0.8641 0.0
C3170 C 0.78992 0.50152 0.87439 0.0
H3171 H 0.75125 0.53979 0.86759 0.0
H3172 H 0.7752 0.51675 0.84675 0.0
C3173 C 0.7896 0.50053 0.89699 0.0
C3174 C 0.7605 0.52603 0.13676 0.0
C3175 C 0.76152 0.52537 0.11418 0.0
H3176 H 0.74543 0.51415 0.16538 0.0
C3177 C 0.74901 0.50993 0.10334 0.0
H3178 H 0.76988 0.53766 0.14569 0.0
C3179 C 0.73505 0.49631 0.11467 0.0
C3180 C 0.73311 0.49783 0.13715 0.0
H3181 H 0.74939 0.50887 0.08598 0.0
H3182 H 0.72503 0.48528 0.10567 0.0
C3183 C 0.74645 0.51249 0.14808 0.0
C3184 C 0.74715 0.50377 0.41156 0.0
C3185 C 0.759 0.48785 0.40073 0.0
H3186 H 0.72416 0.52932 0.40921 0.0
C3187 C 0.75776 0.48707 0.37816 0.0
H3188 H 0.74772 0.50492 0.42892 0.0
C3189 C 0.74414 0.50103 0.36685 0.0
C3190 C 0.73151 0.51628 0.37777 0.0
H3191 H 0.76663 0.47506 0.36925 0.0
H3192 H 0.74295 0.49932 0.34958 0.0
C3193 C 0.73365 0.51785 0.40023 0.0
C3194 C 0.51324 0.41124 0.25312 0.0
C3195 C 0.52751 0.39931 0.26597 0.0
H3196 H 0.48905 0.41068 0.22858 0.0
C3197 C 0.52632 0.37675 0.26515 0.0
H3198 H 0.51364 0.42863 0.25333 0.0
C3199 C 0.5123 0.36642 0.25079 0.0
C3200 C 0.49893 0.37838 0.23702 0.0
H3201 H 0.53706 0.36701 0.27476 0.0
H3202 H 0.51264 0.34905 0.24982 0.0
C3203 C 0.49905 0.40091 0.23892 0.0
C3204 C 0.09728 0.77367 0.02494 0.0
C3205 C 0.10784 0.7625 0.04153 0.0
H3206 H 0.09986 0.79644 0.99916 0.0
C3207 C 0.13016 0.76516 0.04371 0.0
H3208 H 0.08011 0.77199 0.02275 0.0
C3209 C 0.14143 0.77942 0.03036 0.0
C3210 C 0.13076 0.79112 0.01423 0.0
H3211 H 0.13883 0.75689 0.05632 0.0
H3212 H 0.15847 0.78166 0.03305 0.0
C3213 C 0.10863 0.78765 0.01134 0.0
C3214 C 0.37666 0.26201 0.53867 0.0
C3215 C 0.39915 0.26402 0.53797 0.0
H3216 H 0.34866 0.24612 0.52639 0.0
C3217 C 0.41042 0.25243 0.52216 0.0
H3218 H 0.36743 0.27062 0.55064 0.0
C3219 C 0.39959 0.23855 0.50801 0.0
C3220 C 0.37723 0.23565 0.50952 0.0
H3221 H 0.42773 0.25359 0.5211 0.0
H3222 H 0.40888 0.22932 0.49658 0.0
C3223 C 0.36587 0.24791 0.52475 0.0
C3224 C 0.2569 0.51233 0.41166 0.0
C3225 C 0.26976 0.52557 0.39861 0.0
H3226 H 0.23168 0.48888 0.41305 0.0
C3227 C 0.26834 0.5232 0.37617 0.0
H3228 H 0.2576 0.51371 0.42899 0.0
C3229 C 0.25322 0.5092 0.36702 0.0
C3230 C 0.23944 0.49692 0.38008 0.0
H3231 H 0.27792 0.53319 0.36563 0.0
H3232 H 0.25165 0.50873 0.3497 0.0
C3233 C 0.24206 0.49802 0.4025 0.0
C3234 C 0.2519 0.48662 0.15644 0.0
C3235 C 0.24065 0.50254 0.14502 0.0
H3236 H 0.27382 0.46015 0.15511 0.0
C3237 C 0.24448 0.5046 0.12283 0.0
H3238 H 0.24939 0.48459 0.17354 0.0
C3239 C 0.25831 0.49033 0.11216 0.0
C3240 C 0.26892 0.47389 0.12348 0.0
H3241 H 0.23602 0.5166 0.11351 0.0
H3242 H 0.26022 0.49182 0.09493 0.0
C3243 C 0.26598 0.47261 0.14585 0.0
C3244 C 0.26338 0.50252 0.86615 0.0
C3245 C 0.27632 0.51678 0.87803 0.0
H3246 H 0.24059 0.4767 0.86688 0.0
C3247 C 0.27398 0.5172 0.90051 0.0
H3248 H 0.2647 0.50177 0.84881 0.0
C3249 C 0.26027 0.50262 0.91093 0.0
C3250 C 0.24837 0.48743 0.89911 0.0
H3251 H 0.2837 0.52791 0.9102 0.0
H3252 H 0.25979 0.5026 0.92832 0.0
C3253 C 0.24949 0.48813 0.87654 0.0
C3254 C 0.24598 0.52467 0.647 0.0
C3255 C 0.24554 0.5267 0.6245 0.0
H3256 H 0.26102 0.51005 0.67435 0.0
C3257 C 0.25839 0.51276 0.61219 0.0
H3258 H 0.23638 0.53517 0.657 0.0
C3259 C 0.2723 0.49811 0.62215 0.0
C3260 C 0.274 0.49729 0.64467 0.0
H3261 H 0.25842 0.51385 0.59482 0.0
H3262 H 0.28273 0.48842 0.61216 0.0
C3263 C 0.26017 0.51027 0.65697 0.0
loop_
_geom_bond_atom_site_label_1
_geom_bond_atom_site_label_2
_geom_bond_distance
_geom_bond_site_symmetry_2
_ccdc_geom_bond_type
O0 Cd1 2.223 . S
O0 C8 1.315 . S
Cd1 O0 2.223 . S
Cd1 O4 2.297 . S
Cd1 O5 2.439 . S
Cd1 O11 2.240 . S
Cd2 O3 2.240 . S
Cd2 O10 2.223 . S
Cd2 O12 2.297 . S
Cd2 O13 2.439 . S
O3 Cd2 2.240 . S
O3 C8 1.279 . S
O4 Cd1 2.297 . S
O4 C6 1.247 . S
O5 Cd1 2.439 . S
O5 C6 1.208 . S
C6 O4 1.247 . S
C6 O5 1.208 . S
C7 O12 1.247 . S
C7 O13 1.208 . S
C8 O0 1.315 . S
C8 O3 1.279 . S
C9 O10 1.315 . S
C9 O11 1.279 . S
O10 Cd2 2.223 . S
O10 C9 1.315 . S
O11 Cd1 2.240 . S
O11 C9 1.279 . S
O12 Cd2 2.297 . S
O12 C7 1.247 . S
O13 Cd2 2.439 . S
O13 C7 1.208 . S
O14 Cd15 2.223 . S
O14 C22 1.315 . S
Cd15 O14 2.223 . S
Cd15 O18 2.297 . S
Cd15 O19 2.439 . S
Cd15 O25 2.240 . S
Cd16 O17 2.240 . S
Cd16 O24 2.223 . S
Cd16 O26 2.297 . S
Cd16 O27 2.439 . S
O17 Cd16 2.240 . S
O17 C22 1.279 . S
O18 Cd15 2.297 . S
O18 C20 1.247 . S
O19 Cd15 2.439 . S
O19 C20 1.208 . S
C20 O18 1.247 . S
C20 O19 1.208 . S
C21 O26 1.247 . S
C21 O27 1.208 . S
C22 O14 1.315 . S
C22 O17 1.279 . S
C23 O24 1.315 . S
C23 O25 1.279 . S
O24 Cd16 2.223 . S
O24 C23 1.315 . S
O25 Cd15 2.240 . S
O25 C23 1.279 . S
O26 Cd16 2.297 . S
O26 C21 1.247 . S
O27 Cd16 2.439 . S
O27 C21 1.208 . S
O28 Cd29 2.223 . S
O28 C36 1.315 . S
Cd29 O28 2.223 . S
Cd29 O32 2.297 . S
Cd29 O33 2.439 . S
Cd29 O39 2.240 . S
Cd30 O31 2.240 . S
Cd30 O38 2.223 . S
Cd30 O40 2.297 . S
Cd30 O41 2.439 . S
O31 Cd30 2.240 . S
O31 C36 1.279 . S
O32 Cd29 2.297 . S
O32 C34 1.247 . S
O33 Cd29 2.439 . S
O33 C34 1.208 . S
C34 O32 1.247 . S
C34 O33 1.208 . S
C35 O40 1.247 . S
C35 O41 1.208 . S
C36 O28 1.315 . S
C36 O31 1.279 . S
C37 O38 1.315 . S
C37 O39 1.279 . S
O38 Cd30 2.223 . S
O38 C37 1.315 . S
O39 Cd29 2.240 . S
O39 C37 1.279 . S
O40 Cd30 2.297 . S
O40 C35 1.247 . S
O41 Cd30 2.439 . S
O41 C35 1.208 . S
O42 Cd43 2.223 . S
O42 C50 1.315 . S
Cd43 O42 2.223 . S
Cd43 O46 2.297 . S
Cd43 O47 2.439 . S
Cd43 O53 2.240 . S
Cd44 O45 2.240 . S
Cd44 O52 2.223 . S
Cd44 O54 2.297 . S
Cd44 O55 2.439 . S
O45 Cd44 2.240 . S
O45 C50 1.279 . S
O46 Cd43 2.297 . S
O46 C48 1.247 . S
O47 Cd43 2.439 . S
O47 C48 1.208 . S
C48 O46 1.247 . S
C48 O47 1.208 . S
C49 O54 1.247 . S
C49 O55 1.208 . S
C50 O42 1.315 . S
C50 O45 1.279 . S
C51 O52 1.315 . S
C51 O53 1.279 . S
O52 Cd44 2.223 . S
O52 C51 1.315 . S
O53 Cd43 2.240 . S
O53 C51 1.279 . S
O54 Cd44 2.297 . S
O54 C49 1.247 . S
O55 Cd44 2.439 . S
O55 C49 1.208 . S
O56 Cd57 2.223 . S
O56 C64 1.315 . S
Cd57 O56 2.223 . S
Cd57 O60 2.297 . S
Cd57 O61 2.439 . S
Cd57 O67 2.240 . S
Cd58 O59 2.240 . S
Cd58 O66 2.223 . S
Cd58 O68 2.297 . S
Cd58 O69 2.439 . S
O59 Cd58 2.240 . S
O59 C64 1.279 . S
O60 Cd57 2.297 . S
O60 C62 1.247 . S
O61 Cd57 2.439 . S
O61 C62 1.208 . S
C62 O60 1.247 . S
C62 O61 1.208 . S
C63 O68 1.247 . S
C63 O69 1.208 . S
C64 O56 1.315 . S
C64 O59 1.279 . S
C65 O66 1.315 . S
C65 O67 1.279 . S
O66 Cd58 2.223 . S
O66 C65 1.315 . S
O67 Cd57 2.240 . S
O67 C65 1.279 . S
O68 Cd58 2.297 . S
O68 C63 1.247 . S
O69 Cd58 2.439 . S
O69 C63 1.208 . S
O70 Cd71 2.223 . S
O70 C78 1.315 . S
Cd71 O70 2.223 . S
Cd71 O74 2.297 . S
Cd71 O75 2.439 . S
Cd71 O81 2.240 . S
Cd72 O73 2.240 . S
Cd72 O80 2.223 . S
Cd72 O82 2.297 . S
Cd72 O83 2.439 . S
O73 Cd72 2.240 . S
O73 C78 1.279 . S
O74 Cd71 2.297 . S
O74 C76 1.247 . S
O75 Cd71 2.439 . S
O75 C76 1.208 . S
C76 O74 1.247 . S
C76 O75 1.208 . S
C77 O82 1.247 . S
C77 O83 1.208 . S
C78 O70 1.315 . S
C78 O73 1.279 . S
C79 O80 1.315 . S
C79 O81 1.279 . S
O80 Cd72 2.223 . S
O80 C79 1.315 . S
O81 Cd71 2.240 . S
O81 C79 1.279 . S
O82 Cd72 2.297 . S
O82 C77 1.247 . S
O83 Cd72 2.439 . S
O83 C77 1.208 . S
O84 Cd85 2.223 . S
O84 C92 1.315 . S
Cd85 O84 2.223 . S
Cd85 O88 2.297 . S
Cd85 O89 2.439 . S
Cd85 O95 2.240 . S
Cd86 O87 2.240 . S
Cd86 O94 2.223 . S
Cd86 O96 2.297 . S
Cd86 O97 2.439 . S
O87 Cd86 2.240 . S
O87 C92 1.279 . S
O88 Cd85 2.297 . S
O88 C90 1.247 . S
O89 Cd85 2.439 . S
O89 C90 1.208 . S
C90 O88 1.247 . S
C90 O89 1.208 . S
C91 O96 1.247 . S
C91 O97 1.208 . S
C92 O84 1.315 . S
C92 O87 1.279 . S
C93 O94 1.315 . S
C93 O95 1.279 . S
O94 Cd86 2.223 . S
O94 C93 1.315 . S
O95 Cd85 2.240 . S
O95 C93 1.279 . S
O96 Cd86 2.297 . S
O96 C91 1.247 . S
O97 Cd86 2.439 . S
O97 C91 1.208 . S
O98 Cd99 2.223 . S
O98 C106 1.315 . S
Cd99 O98 2.223 . S
Cd99 O102 2.297 . S
Cd99 O103 2.439 . S
Cd99 O109 2.240 . S
Cd100 O101 2.240 . S
Cd100 O108 2.223 . S
Cd100 O110 2.297 . S
Cd100 O111 2.439 . S
O101 Cd100 2.240 . S
O101 C106 1.279 . S
O102 Cd99 2.297 . S
O102 C104 1.247 . S
O103 Cd99 2.439 . S
O103 C104 1.208 . S
C104 O102 1.247 . S
C104 O103 1.208 . S
C105 O110 1.247 . S
C105 O111 1.208 . S
C106 O98 1.315 . S
C106 O101 1.279 . S
C107 O108 1.315 . S
C107 O109 1.279 . S
O108 Cd100 2.223 . S
O108 C107 1.315 . S
O109 Cd99 2.240 . S
O109 C107 1.279 . S
O110 Cd100 2.297 . S
O110 C105 1.247 . S
O111 Cd100 2.439 . S
O111 C105 1.208 . S
O112 Cd113 2.223 . S
O112 C120 1.315 . S
Cd113 O112 2.223 . S
Cd113 O116 2.297 . S
Cd113 O117 2.439 . S
Cd113 O123 2.240 . S
Cd114 O115 2.240 . S
Cd114 O122 2.223 . S
Cd114 O124 2.297 . S
Cd114 O125 2.439 . S
O115 Cd114 2.240 . S
O115 C120 1.279 . S
O116 Cd113 2.297 . S
O116 C118 1.247 . S
O117 Cd113 2.439 . S
O117 C118 1.208 . S
C118 O116 1.247 . S
C118 O117 1.208 . S
C119 O124 1.247 . S
C119 O125 1.208 . S
C120 O112 1.315 . S
C120 O115 1.279 . S
C121 O122 1.315 . S
C121 O123 1.279 . S
O122 Cd114 2.223 . S
O122 C121 1.315 . S
O123 Cd113 2.240 . S
O123 C121 1.279 . S
O124 Cd114 2.297 . S
O124 C119 1.247 . S
O125 Cd114 2.439 . S
O125 C119 1.208 . S
O126 Cd127 2.223 . S
O126 C134 1.315 . S
Cd127 O126 2.223 . S
Cd127 O130 2.297 . S
Cd127 O131 2.439 . S
Cd127 O137 2.240 . S
Cd128 O129 2.240 . S
Cd128 O136 2.223 . S
Cd128 O138 2.297 . S
Cd128 O139 2.439 . S
O129 Cd128 2.240 . S
O129 C134 1.279 . S
O130 Cd127 2.297 . S
O130 C132 1.247 . S
O131 Cd127 2.439 . S
O131 C132 1.208 . S
C132 O130 1.247 . S
C132 O131 1.208 . S
C133 O138 1.247 . S
C133 O139 1.208 . S
C134 O126 1.315 . S
C134 O129 1.279 . S
C135 O136 1.315 . S
C135 O137 1.279 . S
O136 Cd128 2.223 . S
O136 C135 1.315 . S
O137 Cd127 2.240 . S
O137 C135 1.279 . S
O138 Cd128 2.297 . S
O138 C133 1.247 . S
O139 Cd128 2.439 . S
O139 C133 1.208 . S
O140 Cd141 2.223 . S
O140 C148 1.315 . S
Cd141 O140 2.223 . S
Cd141 O144 2.297 . S
Cd141 O145 2.439 . S
Cd141 O151 2.240 . S
Cd142 O143 2.240 . S
Cd142 O150 2.223 . S
Cd142 O152 2.297 . S
Cd142 O153 2.439 . S
O143 Cd142 2.240 . S
O143 C148 1.279 . S
O144 Cd141 2.297 . S
O144 C146 1.247 . S
O145 Cd141 2.439 . S
O145 C146 1.208 . S
C146 O144 1.247 . S
C146 O145 1.208 . S
C147 O152 1.247 . S
C147 O153 1.208 . S
C148 O140 1.315 . S
C148 O143 1.279 . S
C149 O150 1.315 . S
C149 O151 1.279 . S
O150 Cd142 2.223 . S
O150 C149 1.315 . S
O151 Cd141 2.240 . S
O151 C149 1.279 . S
O152 Cd142 2.297 . S
O152 C147 1.247 . S
O153 Cd142 2.439 . S
O153 C147 1.208 . S
O154 Cd155 2.223 . S
O154 C162 1.315 . S
Cd155 O154 2.223 . S
Cd155 O158 2.297 . S
Cd155 O159 2.439 . S
Cd155 O165 2.240 . S
Cd156 O157 2.240 . S
Cd156 O164 2.223 . S
Cd156 O166 2.297 . S
Cd156 O167 2.439 . S
O157 Cd156 2.240 . S
O157 C162 1.279 . S
O158 Cd155 2.297 . S
O158 C160 1.247 . S
O159 Cd155 2.439 . S
O159 C160 1.208 . S
C160 O158 1.247 . S
C160 O159 1.208 . S
C161 O166 1.247 . S
C161 O167 1.208 . S
C162 O154 1.315 . S
C162 O157 1.279 . S
C163 O164 1.315 . S
C163 O165 1.279 . S
O164 Cd156 2.223 . S
O164 C163 1.315 . S
O165 Cd155 2.240 . S
O165 C163 1.279 . S
O166 Cd156 2.297 . S
O166 C161 1.247 . S
O167 Cd156 2.439 . S
O167 C161 1.208 . S
O168 Cd169 2.223 . S
O168 C176 1.315 . S
Cd169 O168 2.223 . S
Cd169 O172 2.297 . S
Cd169 O173 2.439 . S
Cd169 O179 2.240 . S
Cd170 O171 2.240 . S
Cd170 O178 2.223 . S
Cd170 O180 2.297 . S
Cd170 O181 2.439 . S
O171 Cd170 2.240 . S
O171 C176 1.279 . S
O172 Cd169 2.297 . S
O172 C174 1.247 . S
O173 Cd169 2.439 . S
O173 C174 1.208 . S
C174 O172 1.247 . S
C174 O173 1.208 . S
C175 O180 1.247 . S
C175 O181 1.208 . S
C176 O168 1.315 . S
C176 O171 1.279 . S
C177 O178 1.315 . S
C177 O179 1.279 . S
O178 Cd170 2.223 . S
O178 C177 1.315 . S
O179 Cd169 2.240 . S
O179 C177 1.279 . S
O180 Cd170 2.297 . S
O180 C175 1.247 . S
O181 Cd170 2.439 . S
O181 C175 1.208 . S
O182 Cd183 2.223 . S
O182 C190 1.315 . S
Cd183 O182 2.223 . S
Cd183 O186 2.297 . S
Cd183 O187 2.439 . S
Cd183 O193 2.240 . S
Cd184 O185 2.240 . S
Cd184 O192 2.223 . S
Cd184 O194 2.297 . S
Cd184 O195 2.439 . S
O185 Cd184 2.240 . S
O185 C190 1.279 . S
O186 Cd183 2.297 . S
O186 C188 1.247 . S
O187 Cd183 2.439 . S
O187 C188 1.208 . S
C188 O186 1.247 . S
C188 O187 1.208 . S
C189 O194 1.247 . S
C189 O195 1.208 . S
C190 O182 1.315 . S
C190 O185 1.279 . S
C191 O192 1.315 . S
C191 O193 1.279 . S
O192 Cd184 2.223 . S
O192 C191 1.315 . S
O193 Cd183 2.240 . S
O193 C191 1.279 . S
O194 Cd184 2.297 . S
O194 C189 1.247 . S
O195 Cd184 2.439 . S
O195 C189 1.208 . S
O196 Cd197 2.223 . S
O196 C204 1.315 . S
Cd197 O196 2.223 . S
Cd197 O200 2.297 . S
Cd197 O201 2.439 . S
Cd197 O207 2.240 . S
Cd198 O199 2.240 . S
Cd198 O206 2.223 . S
Cd198 O208 2.297 . S
Cd198 O209 2.439 . S
O199 Cd198 2.240 . S
O199 C204 1.279 . S
O200 Cd197 2.297 . S
O200 C202 1.247 . S
O201 Cd197 2.439 . S
O201 C202 1.208 . S
C202 O200 1.247 . S
C202 O201 1.208 . S
C203 O208 1.247 . S
C203 O209 1.208 . S
C204 O196 1.315 . S
C204 O199 1.279 . S
C205 O206 1.315 . S
C205 O207 1.279 . S
O206 Cd198 2.223 . S
O206 C205 1.315 . S
O207 Cd197 2.240 . S
O207 C205 1.279 . S
O208 Cd198 2.297 . S
O208 C203 1.247 . S
O209 Cd198 2.439 . S
O209 C203 1.208 . S
O210 Cd211 2.223 . S
O210 C218 1.315 . S
Cd211 O210 2.223 . S
Cd211 O214 2.297 . S
Cd211 O215 2.439 . S
Cd211 O221 2.240 . S
Cd212 O213 2.240 . S
Cd212 O220 2.223 . S
Cd212 O222 2.297 . S
Cd212 O223 2.439 . S
O213 Cd212 2.240 . S
O213 C218 1.279 . S
O214 Cd211 2.297 . S
O214 C216 1.247 . S
O215 Cd211 2.439 . S
O215 C216 1.208 . S
C216 O214 1.247 . S
C216 O215 1.208 . S
C217 O222 1.247 . S
C217 O223 1.208 . S
C218 O210 1.315 . S
C218 O213 1.279 . S
C219 O220 1.315 . S
C219 O221 1.279 . S
O220 Cd212 2.223 . S
O220 C219 1.315 . S
O221 Cd211 2.240 . S
O221 C219 1.279 . S
O222 Cd212 2.297 . S
O222 C217 1.247 . S
O223 Cd212 2.439 . S
O223 C217 1.208 . S
O224 Cd225 2.223 . S
O224 C232 1.315 . S
Cd225 O224 2.223 . S
Cd225 O228 2.297 . S
Cd225 O229 2.439 . S
Cd225 O235 2.240 . S
Cd226 O227 2.240 . S
Cd226 O234 2.223 . S
Cd226 O236 2.297 . S
Cd226 O237 2.439 . S
O227 Cd226 2.240 . S
O227 C232 1.279 . S
O228 Cd225 2.297 . S
O228 C230 1.247 . S
O229 Cd225 2.439 . S
O229 C230 1.208 . S
C230 O228 1.247 . S
C230 O229 1.208 . S
C231 O236 1.247 . S
C231 O237 1.208 . S
C232 O224 1.315 . S
C232 O227 1.279 . S
C233 O234 1.315 . S
C233 O235 1.279 . S
O234 Cd226 2.223 . S
O234 C233 1.315 . S
O235 Cd225 2.240 . S
O235 C233 1.279 . S
O236 Cd226 2.297 . S
O236 C231 1.247 . S
O237 Cd226 2.439 . S
O237 C231 1.208 . S
O238 Cd239 2.223 . S
O238 C246 1.315 . S
Cd239 O238 2.223 . S
Cd239 O242 2.297 . S
Cd239 O243 2.439 . S
Cd239 O249 2.240 . S
Cd240 O241 2.240 . S
Cd240 O248 2.223 . S
Cd240 O250 2.297 . S
Cd240 O251 2.439 . S
O241 Cd240 2.240 . S
O241 C246 1.279 . S
O242 Cd239 2.297 . S
O242 C244 1.247 . S
O243 Cd239 2.439 . S
O243 C244 1.208 . S
C244 O242 1.247 . S
C244 O243 1.208 . S
C245 O250 1.247 . S
C245 O251 1.208 . S
C246 O238 1.315 . S
C246 O241 1.279 . S
C247 O248 1.315 . S
C247 O249 1.279 . S
O248 Cd240 2.223 . S
O248 C247 1.315 . S
O249 Cd239 2.240 . S
O249 C247 1.279 . S
O250 Cd240 2.297 . S
O250 C245 1.247 . S
O251 Cd240 2.439 . S
O251 C245 1.208 . S
O252 Cd253 2.223 . S
O252 C260 1.315 . S
Cd253 O252 2.223 . S
Cd253 O256 2.297 . S
Cd253 O257 2.439 . S
Cd253 O263 2.240 . S
Cd254 O255 2.240 . S
Cd254 O262 2.223 . S
Cd254 O264 2.297 . S
Cd254 O265 2.439 . S
O255 Cd254 2.240 . S
O255 C260 1.279 . S
O256 Cd253 2.297 . S
O256 C258 1.247 . S
O257 Cd253 2.439 . S
O257 C258 1.208 . S
C258 O256 1.247 . S
C258 O257 1.208 . S
C259 O264 1.247 . S
C259 O265 1.208 . S
C260 O252 1.315 . S
C260 O255 1.279 . S
C261 O262 1.315 . S
C261 O263 1.279 . S
O262 Cd254 2.223 . S
O262 C261 1.315 . S
O263 Cd253 2.240 . S
O263 C261 1.279 . S
O264 Cd254 2.297 . S
O264 C259 1.247 . S
O265 Cd254 2.439 . S
O265 C259 1.208 . S
O266 Cd267 2.223 . S
O266 C274 1.315 . S
Cd267 O266 2.223 . S
Cd267 O270 2.297 . S
Cd267 O271 2.439 . S
Cd267 O277 2.240 . S
Cd268 O269 2.240 . S
Cd268 O276 2.223 . S
Cd268 O278 2.297 . S
Cd268 O279 2.439 . S
O269 Cd268 2.240 . S
O269 C274 1.279 . S
O270 Cd267 2.297 . S
O270 C272 1.247 . S
O271 Cd267 2.439 . S
O271 C272 1.208 . S
C272 O270 1.247 . S
C272 O271 1.208 . S
C273 O278 1.247 . S
C273 O279 1.208 . S
C274 O266 1.315 . S
C274 O269 1.279 . S
C275 O276 1.315 . S
C275 O277 1.279 . S
O276 Cd268 2.223 . S
O276 C275 1.315 . S
O277 Cd267 2.240 . S
O277 C275 1.279 . S
O278 Cd268 2.297 . S
O278 C273 1.247 . S
O279 Cd268 2.439 . S
O279 C273 1.208 . S
O280 Cd281 2.223 . S
O280 C288 1.315 . S
Cd281 O280 2.223 . S
Cd281 O284 2.297 . S
Cd281 O285 2.439 . S
Cd281 O291 2.240 . S
Cd282 O283 2.240 . S
Cd282 O290 2.223 . S
Cd282 O292 2.297 . S
Cd282 O293 2.439 . S
O283 Cd282 2.240 . S
O283 C288 1.279 . S
O284 Cd281 2.297 . S
O284 C286 1.247 . S
O285 Cd281 2.439 . S
O285 C286 1.208 . S
C286 O284 1.247 . S
C286 O285 1.208 . S
C287 O292 1.247 . S
C287 O293 1.208 . S
C288 O280 1.315 . S
C288 O283 1.279 . S
C289 O290 1.315 . S
C289 O291 1.279 . S
O290 Cd282 2.223 . S
O290 C289 1.315 . S
O291 Cd281 2.240 . S
O291 C289 1.279 . S
O292 Cd282 2.297 . S
O292 C287 1.247 . S
O293 Cd282 2.439 . S
O293 C287 1.208 . S
O294 Cd295 2.223 . S
O294 C302 1.315 . S
Cd295 O294 2.223 . S
Cd295 O298 2.297 . S
Cd295 O299 2.439 . S
Cd295 O305 2.240 . S
Cd296 O297 2.240 . S
Cd296 O304 2.223 . S
Cd296 O306 2.297 . S
Cd296 O307 2.439 . S
O297 Cd296 2.240 . S
O297 C302 1.279 . S
O298 Cd295 2.297 . S
O298 C300 1.247 . S
O299 Cd295 2.439 . S
O299 C300 1.208 . S
C300 O298 1.247 . S
C300 O299 1.208 . S
C301 O306 1.247 . S
C301 O307 1.208 . S
C302 O294 1.315 . S
C302 O297 1.279 . S
C303 O304 1.315 . S
C303 O305 1.279 . S
O304 Cd296 2.223 . S
O304 C303 1.315 . S
O305 Cd295 2.240 . S
O305 C303 1.279 . S
O306 Cd296 2.297 . S
O306 C301 1.247 . S
O307 Cd296 2.439 . S
O307 C301 1.208 . S
O308 Cd309 2.223 . S
O308 C316 1.315 . S
Cd309 O308 2.223 . S
Cd309 O312 2.297 . S
Cd309 O313 2.439 . S
Cd309 O319 2.240 . S
Cd310 O311 2.240 . S
Cd310 O318 2.223 . S
Cd310 O320 2.297 . S
Cd310 O321 2.439 . S
O311 Cd310 2.240 . S
O311 C316 1.279 . S
O312 Cd309 2.297 . S
O312 C314 1.247 . S
O313 Cd309 2.439 . S
O313 C314 1.208 . S
C314 O312 1.247 . S
C314 O313 1.208 . S
C315 O320 1.247 . S
C315 O321 1.208 . S
C316 O308 1.315 . S
C316 O311 1.279 . S
C317 O318 1.315 . S
C317 O319 1.279 . S
O318 Cd310 2.223 . S
O318 C317 1.315 . S
O319 Cd309 2.240 . S
O319 C317 1.279 . S
O320 Cd310 2.297 . S
O320 C315 1.247 . S
O321 Cd310 2.439 . S
O321 C315 1.208 . S
O322 Cd323 2.223 . S
O322 C330 1.315 . S
Cd323 O322 2.223 . S
Cd323 O326 2.297 . S
Cd323 O327 2.439 . S
Cd323 O333 2.240 . S
Cd324 O325 2.240 . S
Cd324 O332 2.223 . S
Cd324 O334 2.297 . S
Cd324 O335 2.439 . S
O325 Cd324 2.240 . S
O325 C330 1.279 . S
O326 Cd323 2.297 . S
O326 C328 1.247 . S
O327 Cd323 2.439 . S
O327 C328 1.208 . S
C328 O326 1.247 . S
C328 O327 1.208 . S
C329 O334 1.247 . S
C329 O335 1.208 . S
C330 O322 1.315 . S
C330 O325 1.279 . S
C331 O332 1.315 . S
C331 O333 1.279 . S
O332 Cd324 2.223 . S
O332 C331 1.315 . S
O333 Cd323 2.240 . S
O333 C331 1.279 . S
O334 Cd324 2.297 . S
O334 C329 1.247 . S
O335 Cd324 2.439 . S
O335 C329 1.208 . S
O336 Cd337 2.223 . S
O336 C344 1.315 . S
Cd337 O336 2.223 . S
Cd337 O340 2.297 . S
Cd337 O341 2.439 . S
Cd337 O347 2.240 . S
Cd338 O339 2.240 . S
Cd338 O346 2.223 . S
Cd338 O348 2.297 . S
Cd338 O349 2.439 . S
O339 Cd338 2.240 . S
O339 C344 1.279 . S
O340 Cd337 2.297 . S
O340 C342 1.247 . S
O341 Cd337 2.439 . S
O341 C342 1.208 . S
C342 O340 1.247 . S
C342 O341 1.208 . S
C343 O348 1.247 . S
C343 O349 1.208 . S
C344 O336 1.315 . S
C344 O339 1.279 . S
C345 O346 1.315 . S
C345 O347 1.279 . S
O346 Cd338 2.223 . S
O346 C345 1.315 . S
O347 Cd337 2.240 . S
O347 C345 1.279 . S
O348 Cd338 2.297 . S
O348 C343 1.247 . S
O349 Cd338 2.439 . S
O349 C343 1.208 . S
O350 Cd351 2.223 . S
O350 C358 1.315 . S
Cd351 O350 2.223 . S
Cd351 O354 2.297 . S
Cd351 O355 2.439 . S
Cd351 O361 2.240 . S
Cd352 O353 2.240 . S
Cd352 O360 2.223 . S
Cd352 O362 2.297 . S
Cd352 O363 2.439 . S
O353 Cd352 2.240 . S
O353 C358 1.279 . S
O354 Cd351 2.297 . S
O354 C356 1.247 . S
O355 Cd351 2.439 . S
O355 C356 1.208 . S
C356 O354 1.247 . S
C356 O355 1.208 . S
C357 O362 1.247 . S
C357 O363 1.208 . S
C358 O350 1.315 . S
C358 O353 1.279 . S
C359 O360 1.315 . S
C359 O361 1.279 . S
O360 Cd352 2.223 . S
O360 C359 1.315 . S
O361 Cd351 2.240 . S
O361 C359 1.279 . S
O362 Cd352 2.297 . S
O362 C357 1.247 . S
O363 Cd352 2.439 . S
O363 C357 1.208 . S
O364 Cd365 2.223 . S
O364 C372 1.315 . S
Cd365 O364 2.223 . S
Cd365 O368 2.297 . S
Cd365 O369 2.439 . S
Cd365 O375 2.240 . S
Cd366 O367 2.240 . S
Cd366 O374 2.223 . S
Cd366 O376 2.297 . S
Cd366 O377 2.439 . S
O367 Cd366 2.240 . S
O367 C372 1.279 . S
O368 Cd365 2.297 . S
O368 C370 1.247 . S
O369 Cd365 2.439 . S
O369 C370 1.208 . S
C370 O368 1.247 . S
C370 O369 1.208 . S
C371 O376 1.247 . S
C371 O377 1.208 . S
C372 O364 1.315 . S
C372 O367 1.279 . S
C373 O374 1.315 . S
C373 O375 1.279 . S
O374 Cd366 2.223 . S
O374 C373 1.315 . S
O375 Cd365 2.240 . S
O375 C373 1.279 . S
O376 Cd366 2.297 . S
O376 C371 1.247 . S
O377 Cd366 2.439 . S
O377 C371 1.208 . S
O378 Cd379 2.223 . S
O378 C386 1.315 . S
Cd379 O378 2.223 . S
Cd379 O382 2.297 . S
Cd379 O383 2.439 . S
Cd379 O389 2.240 . S
Cd380 O381 2.240 . S
Cd380 O388 2.223 . S
Cd380 O390 2.297 . S
Cd380 O391 2.439 . S
O381 Cd380 2.240 . S
O381 C386 1.279 . S
O382 Cd379 2.297 . S
O382 C384 1.247 . S
O383 Cd379 2.439 . S
O383 C384 1.208 . S
C384 O382 1.247 . S
C384 O383 1.208 . S
C385 O390 1.247 . S
C385 O391 1.208 . S
C386 O378 1.315 . S
C386 O381 1.279 . S
C387 O388 1.315 . S
C387 O389 1.279 . S
O388 Cd380 2.223 . S
O388 C387 1.315 . S
O389 Cd379 2.240 . S
O389 C387 1.279 . S
O390 Cd380 2.297 . S
O390 C385 1.247 . S
O391 Cd380 2.439 . S
O391 C385 1.208 . S
O392 Cd393 2.223 . S
O392 C400 1.315 . S
Cd393 O392 2.223 . S
Cd393 O396 2.297 . S
Cd393 O397 2.439 . S
Cd393 O403 2.240 . S
Cd394 O395 2.240 . S
Cd394 O402 2.223 . S
Cd394 O404 2.297 . S
Cd394 O405 2.439 . S
O395 Cd394 2.240 . S
O395 C400 1.279 . S
O396 Cd393 2.297 . S
O396 C398 1.247 . S
O397 Cd393 2.439 . S
O397 C398 1.208 . S
C398 O396 1.247 . S
C398 O397 1.208 . S
C399 O404 1.247 . S
C399 O405 1.208 . S
C400 O392 1.315 . S
C400 O395 1.279 . S
C401 O402 1.315 . S
C401 O403 1.279 . S
O402 Cd394 2.223 . S
O402 C401 1.315 . S
O403 Cd393 2.240 . S
O403 C401 1.279 . S
O404 Cd394 2.297 . S
O404 C399 1.247 . S
O405 Cd394 2.439 . S
O405 C399 1.208 . S
O406 Cd407 2.223 . S
O406 C414 1.315 . S
Cd407 O406 2.223 . S
Cd407 O410 2.297 . S
Cd407 O411 2.439 . S
Cd407 O417 2.240 . S
Cd408 O409 2.240 . S
Cd408 O416 2.223 . S
Cd408 O418 2.297 . S
Cd408 O419 2.439 . S
O409 Cd408 2.240 . S
O409 C414 1.279 . S
O410 Cd407 2.297 . S
O410 C412 1.247 . S
O411 Cd407 2.439 . S
O411 C412 1.208 . S
C412 O410 1.247 . S
C412 O411 1.208 . S
C413 O418 1.247 . S
C413 O419 1.208 . S
C414 O406 1.315 . S
C414 O409 1.279 . S
C415 O416 1.315 . S
C415 O417 1.279 . S
O416 Cd408 2.223 . S
O416 C415 1.315 . S
O417 Cd407 2.240 . S
O417 C415 1.279 . S
O418 Cd408 2.297 . S
O418 C413 1.247 . S
O419 Cd408 2.439 . S
O419 C413 1.208 . S
O420 Cd421 2.223 . S
O420 C428 1.315 . S
Cd421 O420 2.223 . S
Cd421 O424 2.297 . S
Cd421 O425 2.439 . S
Cd421 O431 2.240 . S
Cd422 O423 2.240 . S
Cd422 O430 2.223 . S
Cd422 O432 2.297 . S
Cd422 O433 2.439 . S
O423 Cd422 2.240 . S
O423 C428 1.279 . S
O424 Cd421 2.297 . S
O424 C426 1.247 . S
O425 Cd421 2.439 . S
O425 C426 1.208 . S
C426 O424 1.247 . S
C426 O425 1.208 . S
C427 O432 1.247 . S
C427 O433 1.208 . S
C428 O420 1.315 . S
C428 O423 1.279 . S
C429 O430 1.315 . S
C429 O431 1.279 . S
O430 Cd422 2.223 . S
O430 C429 1.315 . S
O431 Cd421 2.240 . S
O431 C429 1.279 . S
O432 Cd422 2.297 . S
O432 C427 1.247 . S
O433 Cd422 2.439 . S
O433 C427 1.208 . S
O434 Cd435 2.223 . S
O434 C442 1.315 . S
Cd435 O434 2.223 . S
Cd435 O438 2.297 . S
Cd435 O439 2.439 . S
Cd435 O445 2.240 . S
Cd436 O437 2.240 . S
Cd436 O444 2.223 . S
Cd436 O446 2.297 . S
Cd436 O447 2.439 . S
O437 Cd436 2.240 . S
O437 C442 1.279 . S
O438 Cd435 2.297 . S
O438 C440 1.247 . S
O439 Cd435 2.439 . S
O439 C440 1.208 . S
C440 O438 1.247 . S
C440 O439 1.208 . S
C441 O446 1.247 . S
C441 O447 1.208 . S
C442 O434 1.315 . S
C442 O437 1.279 . S
C443 O444 1.315 . S
C443 O445 1.279 . S
O444 Cd436 2.223 . S
O444 C443 1.315 . S
O445 Cd435 2.240 . S
O445 C443 1.279 . S
O446 Cd436 2.297 . S
O446 C441 1.247 . S
O447 Cd436 2.439 . S
O447 C441 1.208 . S
O448 Cd449 2.223 . S
O448 C456 1.315 . S
Cd449 O448 2.223 . S
Cd449 O452 2.297 . S
Cd449 O453 2.439 . S
Cd449 O459 2.240 . S
Cd450 O451 2.240 . S
Cd450 O458 2.223 . S
Cd450 O460 2.297 . S
Cd450 O461 2.439 . S
O451 Cd450 2.240 . S
O451 C456 1.279 . S
O452 Cd449 2.297 . S
O452 C454 1.247 . S
O453 Cd449 2.439 . S
O453 C454 1.208 . S
C454 O452 1.247 . S
C454 O453 1.208 . S
C455 O460 1.247 . S
C455 O461 1.208 . S
C456 O448 1.315 . S
C456 O451 1.279 . S
C457 O458 1.315 . S
C457 O459 1.279 . S
O458 Cd450 2.223 . S
O458 C457 1.315 . S
O459 Cd449 2.240 . S
O459 C457 1.279 . S
O460 Cd450 2.297 . S
O460 C455 1.247 . S
O461 Cd450 2.439 . S
O461 C455 1.208 . S
O462 Cd463 2.223 . S
O462 C470 1.315 . S
Cd463 O462 2.223 . S
Cd463 O466 2.297 . S
Cd463 O467 2.439 . S
Cd463 O473 2.240 . S
Cd464 O465 2.240 . S
Cd464 O472 2.223 . S
Cd464 O474 2.297 . S
Cd464 O475 2.439 . S
O465 Cd464 2.240 . S
O465 C470 1.279 . S
O466 Cd463 2.297 . S
O466 C468 1.247 . S
O467 Cd463 2.439 . S
O467 C468 1.208 . S
C468 O466 1.247 . S
C468 O467 1.208 . S
C469 O474 1.247 . S
C469 O475 1.208 . S
C470 O462 1.315 . S
C470 O465 1.279 . S
C471 O472 1.315 . S
C471 O473 1.279 . S
O472 Cd464 2.223 . S
O472 C471 1.315 . S
O473 Cd463 2.240 . S
O473 C471 1.279 . S
O474 Cd464 2.297 . S
O474 C469 1.247 . S
O475 Cd464 2.439 . S
O475 C469 1.208 . S
O476 Cd477 2.223 . S
O476 C484 1.315 . S
Cd477 O476 2.223 . S
Cd477 O480 2.297 . S
Cd477 O481 2.439 . S
Cd477 O487 2.240 . S
Cd478 O479 2.240 . S
Cd478 O486 2.223 . S
Cd478 O488 2.297 . S
Cd478 O489 2.439 . S
O479 Cd478 2.240 . S
O479 C484 1.279 . S
O480 Cd477 2.297 . S
O480 C482 1.247 . S
O481 Cd477 2.439 . S
O481 C482 1.208 . S
C482 O480 1.247 . S
C482 O481 1.208 . S
C483 O488 1.247 . S
C483 O489 1.208 . S
C484 O476 1.315 . S
C484 O479 1.279 . S
C485 O486 1.315 . S
C485 O487 1.279 . S
O486 Cd478 2.223 . S
O486 C485 1.315 . S
O487 Cd477 2.240 . S
O487 C485 1.279 . S
O488 Cd478 2.297 . S
O488 C483 1.247 . S
O489 Cd478 2.439 . S
O489 C483 1.208 . S
O490 Cd491 2.223 . S
O490 C498 1.315 . S
Cd491 O490 2.223 . S
Cd491 O494 2.297 . S
Cd491 O495 2.439 . S
Cd491 O501 2.240 . S
Cd492 O493 2.240 . S
Cd492 O500 2.223 . S
Cd492 O502 2.297 . S
Cd492 O503 2.439 . S
O493 Cd492 2.240 . S
O493 C498 1.279 . S
O494 Cd491 2.297 . S
O494 C496 1.247 . S
O495 Cd491 2.439 . S
O495 C496 1.208 . S
C496 O494 1.247 . S
C496 O495 1.208 . S
C497 O502 1.247 . S
C497 O503 1.208 . S
C498 O490 1.315 . S
C498 O493 1.279 . S
C499 O500 1.315 . S
C499 O501 1.279 . S
O500 Cd492 2.223 . S
O500 C499 1.315 . S
O501 Cd491 2.240 . S
O501 C499 1.279 . S
O502 Cd492 2.297 . S
O502 C497 1.247 . S
O503 Cd492 2.439 . S
O503 C497 1.208 . S
O504 Cd505 2.223 . S
O504 C512 1.315 . S
Cd505 O504 2.223 . S
Cd505 O508 2.297 . S
Cd505 O509 2.439 . S
Cd505 O515 2.240 . S
Cd506 O507 2.240 . S
Cd506 O514 2.223 . S
Cd506 O516 2.297 . S
Cd506 O517 2.439 . S
O507 Cd506 2.240 . S
O507 C512 1.279 . S
O508 Cd505 2.297 . S
O508 C510 1.247 . S
O509 Cd505 2.439 . S
O509 C510 1.208 . S
C510 O508 1.247 . S
C510 O509 1.208 . S
C511 O516 1.247 . S
C511 O517 1.208 . S
C512 O504 1.315 . S
C512 O507 1.279 . S
C513 O514 1.315 . S
C513 O515 1.279 . S
O514 Cd506 2.223 . S
O514 C513 1.315 . S
O515 Cd505 2.240 . S
O515 C513 1.279 . S
O516 Cd506 2.297 . S
O516 C511 1.247 . S
O517 Cd506 2.439 . S
O517 C511 1.208 . S
O518 Cd519 2.223 . S
O518 C526 1.315 . S
Cd519 O518 2.223 . S
Cd519 O522 2.297 . S
Cd519 O523 2.439 . S
Cd519 O529 2.240 . S
Cd520 O521 2.240 . S
Cd520 O528 2.223 . S
Cd520 O530 2.297 . S
Cd520 O531 2.439 . S
O521 Cd520 2.240 . S
O521 C526 1.279 . S
O522 Cd519 2.297 . S
O522 C524 1.247 . S
O523 Cd519 2.439 . S
O523 C524 1.208 . S
C524 O522 1.247 . S
C524 O523 1.208 . S
C525 O530 1.247 . S
C525 O531 1.208 . S
C526 O518 1.315 . S
C526 O521 1.279 . S
C527 O528 1.315 . S
C527 O529 1.279 . S
O528 Cd520 2.223 . S
O528 C527 1.315 . S
O529 Cd519 2.240 . S
O529 C527 1.279 . S
O530 Cd520 2.297 . S
O530 C525 1.247 . S
O531 Cd520 2.439 . S
O531 C525 1.208 . S
O532 Cd533 2.223 . S
O532 C540 1.315 . S
Cd533 O532 2.223 . S
Cd533 O536 2.297 . S
Cd533 O537 2.439 . S
Cd533 O543 2.240 . S
Cd534 O535 2.240 . S
Cd534 O542 2.223 . S
Cd534 O544 2.297 . S
Cd534 O545 2.439 . S
O535 Cd534 2.240 . S
O535 C540 1.279 . S
O536 Cd533 2.297 . S
O536 C538 1.247 . S
O537 Cd533 2.439 . S
O537 C538 1.208 . S
C538 O536 1.247 . S
C538 O537 1.208 . S
C539 O544 1.247 . S
C539 O545 1.208 . S
C540 O532 1.315 . S
C540 O535 1.279 . S
C541 O542 1.315 . S
C541 O543 1.279 . S
O542 Cd534 2.223 . S
O542 C541 1.315 . S
O543 Cd533 2.240 . S
O543 C541 1.279 . S
O544 Cd534 2.297 . S
O544 C539 1.247 . S
O545 Cd534 2.439 . S
O545 C539 1.208 . S
O546 Cd547 2.223 . S
O546 C554 1.315 . S
Cd547 O546 2.223 . S
Cd547 O550 2.297 . S
Cd547 O551 2.439 . S
Cd547 O557 2.240 . S
Cd548 O549 2.240 . S
Cd548 O556 2.223 . S
Cd548 O558 2.297 . S
Cd548 O559 2.439 . S
O549 Cd548 2.240 . S
O549 C554 1.279 . S
O550 Cd547 2.297 . S
O550 C552 1.247 . S
O551 Cd547 2.439 . S
O551 C552 1.208 . S
C552 O550 1.247 . S
C552 O551 1.208 . S
C553 O558 1.247 . S
C553 O559 1.208 . S
C554 O546 1.315 . S
C554 O549 1.279 . S
C555 O556 1.315 . S
C555 O557 1.279 . S
O556 Cd548 2.223 . S
O556 C555 1.315 . S
O557 Cd547 2.240 . S
O557 C555 1.279 . S
O558 Cd548 2.297 . S
O558 C553 1.247 . S
O559 Cd548 2.439 . S
O559 C553 1.208 . S
O560 Cd561 2.223 . S
O560 C568 1.315 . S
Cd561 O560 2.223 . S
Cd561 O564 2.297 . S
Cd561 O565 2.439 . S
Cd561 O571 2.240 . S
Cd562 O563 2.240 . S
Cd562 O570 2.223 . S
Cd562 O572 2.297 . S
Cd562 O573 2.439 . S
O563 Cd562 2.240 . S
O563 C568 1.279 . S
O564 Cd561 2.297 . S
O564 C566 1.247 . S
O565 Cd561 2.439 . S
O565 C566 1.208 . S
C566 O564 1.247 . S
C566 O565 1.208 . S
C567 O572 1.247 . S
C567 O573 1.208 . S
C568 O560 1.315 . S
C568 O563 1.279 . S
C569 O570 1.315 . S
C569 O571 1.279 . S
O570 Cd562 2.223 . S
O570 C569 1.315 . S
O571 Cd561 2.240 . S
O571 C569 1.279 . S
O572 Cd562 2.297 . S
O572 C567 1.247 . S
O573 Cd562 2.439 . S
O573 C567 1.208 . S
O574 Cd575 2.223 . S
O574 C582 1.315 . S
Cd575 O574 2.223 . S
Cd575 O578 2.297 . S
Cd575 O579 2.439 . S
Cd575 O585 2.240 . S
Cd576 O577 2.240 . S
Cd576 O584 2.223 . S
Cd576 O586 2.297 . S
Cd576 O587 2.439 . S
O577 Cd576 2.240 . S
O577 C582 1.279 . S
O578 Cd575 2.297 . S
O578 C580 1.247 . S
O579 Cd575 2.439 . S
O579 C580 1.208 . S
C580 O578 1.247 . S
C580 O579 1.208 . S
C581 O586 1.247 . S
C581 O587 1.208 . S
C582 O574 1.315 . S
C582 O577 1.279 . S
C583 O584 1.315 . S
C583 O585 1.279 . S
O584 Cd576 2.223 . S
O584 C583 1.315 . S
O585 Cd575 2.240 . S
O585 C583 1.279 . S
O586 Cd576 2.297 . S
O586 C581 1.247 . S
O587 Cd576 2.439 . S
O587 C581 1.208 . S
O588 Cd589 2.223 . S
O588 C596 1.315 . S
Cd589 O588 2.223 . S
Cd589 O592 2.297 . S
Cd589 O593 2.439 . S
Cd589 O599 2.240 . S
Cd590 O591 2.240 . S
Cd590 O598 2.223 . S
Cd590 O600 2.297 . S
Cd590 O601 2.439 . S
O591 Cd590 2.240 . S
O591 C596 1.279 . S
O592 Cd589 2.297 . S
O592 C594 1.247 . S
O593 Cd589 2.439 . S
O593 C594 1.208 . S
C594 O592 1.247 . S
C594 O593 1.208 . S
C595 O600 1.247 . S
C595 O601 1.208 . S
C596 O588 1.315 . S
C596 O591 1.279 . S
C597 O598 1.315 . S
C597 O599 1.279 . S
O598 Cd590 2.223 . S
O598 C597 1.315 . S
O599 Cd589 2.240 . S
O599 C597 1.279 . S
O600 Cd590 2.297 . S
O600 C595 1.247 . S
O601 Cd590 2.439 . S
O601 C595 1.208 . S
O602 Cd603 2.223 . S
O602 C610 1.315 . S
Cd603 O602 2.223 . S
Cd603 O606 2.297 . S
Cd603 O607 2.439 . S
Cd603 O613 2.240 . S
Cd604 O605 2.240 . S
Cd604 O612 2.223 . S
Cd604 O614 2.297 . S
Cd604 O615 2.439 . S
O605 Cd604 2.240 . S
O605 C610 1.279 . S
O606 Cd603 2.297 . S
O606 C608 1.247 . S
O607 Cd603 2.439 . S
O607 C608 1.208 . S
C608 O606 1.247 . S
C608 O607 1.208 . S
C609 O614 1.247 . S
C609 O615 1.208 . S
C610 O602 1.315 . S
C610 O605 1.279 . S
C611 O612 1.315 . S
C611 O613 1.279 . S
O612 Cd604 2.223 . S
O612 C611 1.315 . S
O613 Cd603 2.240 . S
O613 C611 1.279 . S
O614 Cd604 2.297 . S
O614 C609 1.247 . S
O615 Cd604 2.439 . S
O615 C609 1.208 . S
O616 Cd617 2.223 . S
O616 C624 1.315 . S
Cd617 O616 2.223 . S
Cd617 O620 2.297 . S
Cd617 O621 2.439 . S
Cd617 O627 2.240 . S
Cd618 O619 2.240 . S
Cd618 O626 2.223 . S
Cd618 O628 2.297 . S
Cd618 O629 2.439 . S
O619 Cd618 2.240 . S
O619 C624 1.279 . S
O620 Cd617 2.297 . S
O620 C622 1.247 . S
O621 Cd617 2.439 . S
O621 C622 1.208 . S
C622 O620 1.247 . S
C622 O621 1.208 . S
C623 O628 1.247 . S
C623 O629 1.208 . S
C624 O616 1.315 . S
C624 O619 1.279 . S
C625 O626 1.315 . S
C625 O627 1.279 . S
O626 Cd618 2.223 . S
O626 C625 1.315 . S
O627 Cd617 2.240 . S
O627 C625 1.279 . S
O628 Cd618 2.297 . S
O628 C623 1.247 . S
O629 Cd618 2.439 . S
O629 C623 1.208 . S
O630 Cd631 2.223 . S
O630 C638 1.315 . S
Cd631 O630 2.223 . S
Cd631 O634 2.297 . S
Cd631 O635 2.439 . S
Cd631 O641 2.240 . S
Cd632 O633 2.240 . S
Cd632 O640 2.223 . S
Cd632 O642 2.297 . S
Cd632 O643 2.439 . S
O633 Cd632 2.240 . S
O633 C638 1.279 . S
O634 Cd631 2.297 . S
O634 C636 1.247 . S
O635 Cd631 2.439 . S
O635 C636 1.208 . S
C636 O634 1.247 . S
C636 O635 1.208 . S
C637 O642 1.247 . S
C637 O643 1.208 . S
C638 O630 1.315 . S
C638 O633 1.279 . S
C639 O640 1.315 . S
C639 O641 1.279 . S
O640 Cd632 2.223 . S
O640 C639 1.315 . S
O641 Cd631 2.240 . S
O641 C639 1.279 . S
O642 Cd632 2.297 . S
O642 C637 1.247 . S
O643 Cd632 2.439 . S
O643 C637 1.208 . S
O644 Cd645 2.223 . S
O644 C652 1.315 . S
Cd645 O644 2.223 . S
Cd645 O648 2.297 . S
Cd645 O649 2.439 . S
Cd645 O655 2.240 . S
Cd646 O647 2.240 . S
Cd646 O654 2.223 . S
Cd646 O656 2.297 . S
Cd646 O657 2.439 . S
O647 Cd646 2.240 . S
O647 C652 1.279 . S
O648 Cd645 2.297 . S
O648 C650 1.247 . S
O649 Cd645 2.439 . S
O649 C650 1.208 . S
C650 O648 1.247 . S
C650 O649 1.208 . S
C651 O656 1.247 . S
C651 O657 1.208 . S
C652 O644 1.315 . S
C652 O647 1.279 . S
C653 O654 1.315 . S
C653 O655 1.279 . S
O654 Cd646 2.223 . S
O654 C653 1.315 . S
O655 Cd645 2.240 . S
O655 C653 1.279 . S
O656 Cd646 2.297 . S
O656 C651 1.247 . S
O657 Cd646 2.439 . S
O657 C651 1.208 . S
O658 Cd659 2.223 . S
O658 C666 1.315 . S
Cd659 O658 2.223 . S
Cd659 O662 2.297 . S
Cd659 O663 2.439 . S
Cd659 O669 2.240 . S
Cd660 O661 2.240 . S
Cd660 O668 2.223 . S
Cd660 O670 2.297 . S
Cd660 O671 2.439 . S
O661 Cd660 2.240 . S
O661 C666 1.279 . S
O662 Cd659 2.297 . S
O662 C664 1.247 . S
O663 Cd659 2.439 . S
O663 C664 1.208 . S
C664 O662 1.247 . S
C664 O663 1.208 . S
C665 O670 1.247 . S
C665 O671 1.208 . S
C666 O658 1.315 . S
C666 O661 1.279 . S
C667 O668 1.315 . S
C667 O669 1.279 . S
O668 Cd660 2.223 . S
O668 C667 1.315 . S
O669 Cd659 2.240 . S
O669 C667 1.279 . S
O670 Cd660 2.297 . S
O670 C665 1.247 . S
O671 Cd660 2.439 . S
O671 C665 1.208 . S
O672 Cd673 2.223 . S
O672 C680 1.315 . S
Cd673 O672 2.223 . S
Cd673 O676 2.297 . S
Cd673 O677 2.439 . S
Cd673 O683 2.240 . S
Cd674 O675 2.240 . S
Cd674 O682 2.223 . S
Cd674 O684 2.297 . S
Cd674 O685 2.439 . S
O675 Cd674 2.240 . S
O675 C680 1.279 . S
O676 Cd673 2.297 . S
O676 C678 1.247 . S
O677 Cd673 2.439 . S
O677 C678 1.208 . S
C678 O676 1.247 . S
C678 O677 1.208 . S
C679 O684 1.247 . S
C679 O685 1.208 . S
C680 O672 1.315 . S
C680 O675 1.279 . S
C681 O682 1.315 . S
C681 O683 1.279 . S
O682 Cd674 2.223 . S
O682 C681 1.315 . S
O683 Cd673 2.240 . S
O683 C681 1.279 . S
O684 Cd674 2.297 . S
O684 C679 1.247 . S
O685 Cd674 2.439 . S
O685 C679 1.208 . S
O686 Cd687 2.223 . S
O686 C694 1.315 . S
Cd687 O686 2.223 . S
Cd687 O690 2.297 . S
Cd687 O691 2.439 . S
Cd687 O697 2.240 . S
Cd688 O689 2.240 . S
Cd688 O696 2.223 . S
Cd688 O698 2.297 . S
Cd688 O699 2.439 . S
O689 Cd688 2.240 . S
O689 C694 1.279 . S
O690 Cd687 2.297 . S
O690 C692 1.247 . S
O691 Cd687 2.439 . S
O691 C692 1.208 . S
C692 O690 1.247 . S
C692 O691 1.208 . S
C693 O698 1.247 . S
C693 O699 1.208 . S
C694 O686 1.315 . S
C694 O689 1.279 . S
C695 O696 1.315 . S
C695 O697 1.279 . S
O696 Cd688 2.223 . S
O696 C695 1.315 . S
O697 Cd687 2.240 . S
O697 C695 1.279 . S
O698 Cd688 2.297 . S
O698 C693 1.247 . S
O699 Cd688 2.439 . S
O699 C693 1.208 . S
O700 Cd701 2.223 . S
O700 C708 1.315 . S
Cd701 O700 2.223 . S
Cd701 O704 2.297 . S
Cd701 O705 2.439 . S
Cd701 O711 2.240 . S
Cd702 O703 2.240 . S
Cd702 O710 2.223 . S
Cd702 O712 2.297 . S
Cd702 O713 2.439 . S
O703 Cd702 2.240 . S
O703 C708 1.279 . S
O704 Cd701 2.297 . S
O704 C706 1.247 . S
O705 Cd701 2.439 . S
O705 C706 1.208 . S
C706 O704 1.247 . S
C706 O705 1.208 . S
C707 O712 1.247 . S
C707 O713 1.208 . S
C708 O700 1.315 . S
C708 O703 1.279 . S
C709 O710 1.315 . S
C709 O711 1.279 . S
O710 Cd702 2.223 . S
O710 C709 1.315 . S
O711 Cd701 2.240 . S
O711 C709 1.279 . S
O712 Cd702 2.297 . S
O712 C707 1.247 . S
O713 Cd702 2.439 . S
O713 C707 1.208 . S
O714 Cd715 2.223 . S
O714 C722 1.315 . S
Cd715 O714 2.223 . S
Cd715 O718 2.297 . S
Cd715 O719 2.439 . S
Cd715 O725 2.240 . S
Cd716 O717 2.240 . S
Cd716 O724 2.223 . S
Cd716 O726 2.297 . S
Cd716 O727 2.439 . S
O717 Cd716 2.240 . S
O717 C722 1.279 . S
O718 Cd715 2.297 . S
O718 C720 1.247 . S
O719 Cd715 2.439 . S
O719 C720 1.208 . S
C720 O718 1.247 . S
C720 O719 1.208 . S
C721 O726 1.247 . S
C721 O727 1.208 . S
C722 O714 1.315 . S
C722 O717 1.279 . S
C723 O724 1.315 . S
C723 O725 1.279 . S
O724 Cd716 2.223 . S
O724 C723 1.315 . S
O725 Cd715 2.240 . S
O725 C723 1.279 . S
O726 Cd716 2.297 . S
O726 C721 1.247 . S
O727 Cd716 2.439 . S
O727 C721 1.208 . S
O728 Cd729 2.223 . S
O728 C736 1.315 . S
Cd729 O728 2.223 . S
Cd729 O732 2.297 . S
Cd729 O733 2.439 . S
Cd729 O739 2.240 . S
Cd730 O731 2.240 . S
Cd730 O738 2.223 . S
Cd730 O740 2.297 . S
Cd730 O741 2.439 . S
O731 Cd730 2.240 . S
O731 C736 1.279 . S
O732 Cd729 2.297 . S
O732 C734 1.247 . S
O733 Cd729 2.439 . S
O733 C734 1.208 . S
C734 O732 1.247 . S
C734 O733 1.208 . S
C735 O740 1.247 . S
C735 O741 1.208 . S
C736 O728 1.315 . S
C736 O731 1.279 . S
C737 O738 1.315 . S
C737 O739 1.279 . S
O738 Cd730 2.223 . S
O738 C737 1.315 . S
O739 Cd729 2.240 . S
O739 C737 1.279 . S
O740 Cd730 2.297 . S
O740 C735 1.247 . S
O741 Cd730 2.439 . S
O741 C735 1.208 . S
O742 Cd743 2.223 . S
O742 C750 1.315 . S
Cd743 O742 2.223 . S
Cd743 O746 2.297 . S
Cd743 O747 2.439 . S
Cd743 O753 2.240 . S
Cd744 O745 2.240 . S
Cd744 O752 2.223 . S
Cd744 O754 2.297 . S
Cd744 O755 2.439 . S
O745 Cd744 2.240 . S
O745 C750 1.279 . S
O746 Cd743 2.297 . S
O746 C748 1.247 . S
O747 Cd743 2.439 . S
O747 C748 1.208 . S
C748 O746 1.247 . S
C748 O747 1.208 . S
C749 O754 1.247 . S
C749 O755 1.208 . S
C750 O742 1.315 . S
C750 O745 1.279 . S
C751 O752 1.315 . S
C751 O753 1.279 . S
O752 Cd744 2.223 . S
O752 C751 1.315 . S
O753 Cd743 2.240 . S
O753 C751 1.279 . S
O754 Cd744 2.297 . S
O754 C749 1.247 . S
O755 Cd744 2.439 . S
O755 C749 1.208 . S
O756 Cd757 2.223 . S
O756 C764 1.315 . S
Cd757 O756 2.223 . S
Cd757 O760 2.297 . S
Cd757 O761 2.439 . S
Cd757 O767 2.240 . S
Cd758 O759 2.240 . S
Cd758 O766 2.223 . S
Cd758 O768 2.297 . S
Cd758 O769 2.439 . S
O759 Cd758 2.240 . S
O759 C764 1.279 . S
O760 Cd757 2.297 . S
O760 C762 1.247 . S
O761 Cd757 2.439 . S
O761 C762 1.208 . S
C762 O760 1.247 . S
C762 O761 1.208 . S
C763 O768 1.247 . S
C763 O769 1.208 . S
C764 O756 1.315 . S
C764 O759 1.279 . S
C765 O766 1.315 . S
C765 O767 1.279 . S
O766 Cd758 2.223 . S
O766 C765 1.315 . S
O767 Cd757 2.240 . S
O767 C765 1.279 . S
O768 Cd758 2.297 . S
O768 C763 1.247 . S
O769 Cd758 2.439 . S
O769 C763 1.208 . S
O770 Cd771 2.223 . S
O770 C778 1.315 . S
Cd771 O770 2.223 . S
Cd771 O774 2.297 . S
Cd771 O775 2.439 . S
Cd771 O781 2.240 . S
Cd772 O773 2.240 . S
Cd772 O780 2.223 . S
Cd772 O782 2.297 . S
Cd772 O783 2.439 . S
O773 Cd772 2.240 . S
O773 C778 1.279 . S
O774 Cd771 2.297 . S
O774 C776 1.247 . S
O775 Cd771 2.439 . S
O775 C776 1.208 . S
C776 O774 1.247 . S
C776 O775 1.208 . S
C777 O782 1.247 . S
C777 O783 1.208 . S
C778 O770 1.315 . S
C778 O773 1.279 . S
C779 O780 1.315 . S
C779 O781 1.279 . S
O780 Cd772 2.223 . S
O780 C779 1.315 . S
O781 Cd771 2.240 . S
O781 C779 1.279 . S
O782 Cd772 2.297 . S
O782 C777 1.247 . S
O783 Cd772 2.439 . S
O783 C777 1.208 . S
O784 Cd785 2.223 . S
O784 C792 1.315 . S
Cd785 O784 2.223 . S
Cd785 O788 2.297 . S
Cd785 O789 2.439 . S
Cd785 O795 2.240 . S
Cd786 O787 2.240 . S
Cd786 O794 2.223 . S
Cd786 O796 2.297 . S
Cd786 O797 2.439 . S
O787 Cd786 2.240 . S
O787 C792 1.279 . S
O788 Cd785 2.297 . S
O788 C790 1.247 . S
O789 Cd785 2.439 . S
O789 C790 1.208 . S
C790 O788 1.247 . S
C790 O789 1.208 . S
C791 O796 1.247 . S
C791 O797 1.208 . S
C792 O784 1.315 . S
C792 O787 1.279 . S
C793 O794 1.315 . S
C793 O795 1.279 . S
O794 Cd786 2.223 . S
O794 C793 1.315 . S
O795 Cd785 2.240 . S
O795 C793 1.279 . S
O796 Cd786 2.297 . S
O796 C791 1.247 . S
O797 Cd786 2.439 . S
O797 C791 1.208 . S
O798 Cd799 2.223 . S
O798 C806 1.315 . S
Cd799 O798 2.223 . S
Cd799 O802 2.297 . S
Cd799 O803 2.439 . S
Cd799 O809 2.240 . S
Cd800 O801 2.240 . S
Cd800 O808 2.223 . S
Cd800 O810 2.297 . S
Cd800 O811 2.439 . S
O801 Cd800 2.240 . S
O801 C806 1.279 . S
O802 Cd799 2.297 . S
O802 C804 1.247 . S
O803 Cd799 2.439 . S
O803 C804 1.208 . S
C804 O802 1.247 . S
C804 O803 1.208 . S
C805 O810 1.247 . S
C805 O811 1.208 . S
C806 O798 1.315 . S
C806 O801 1.279 . S
C807 O808 1.315 . S
C807 O809 1.279 . S
O808 Cd800 2.223 . S
O808 C807 1.315 . S
O809 Cd799 2.240 . S
O809 C807 1.279 . S
O810 Cd800 2.297 . S
O810 C805 1.247 . S
O811 Cd800 2.439 . S
O811 C805 1.208 . S
O812 Cd813 2.223 . S
O812 C820 1.315 . S
Cd813 O812 2.223 . S
Cd813 O816 2.297 . S
Cd813 O817 2.439 . S
Cd813 O823 2.240 . S
Cd814 O815 2.240 . S
Cd814 O822 2.223 . S
Cd814 O824 2.297 . S
Cd814 O825 2.439 . S
O815 Cd814 2.240 . S
O815 C820 1.279 . S
O816 Cd813 2.297 . S
O816 C818 1.247 . S
O817 Cd813 2.439 . S
O817 C818 1.208 . S
C818 O816 1.247 . S
C818 O817 1.208 . S
C819 O824 1.247 . S
C819 O825 1.208 . S
C820 O812 1.315 . S
C820 O815 1.279 . S
C821 O822 1.315 . S
C821 O823 1.279 . S
O822 Cd814 2.223 . S
O822 C821 1.315 . S
O823 Cd813 2.240 . S
O823 C821 1.279 . S
O824 Cd814 2.297 . S
O824 C819 1.247 . S
O825 Cd814 2.439 . S
O825 C819 1.208 . S
O826 Cd827 2.223 . S
O826 C834 1.315 . S
Cd827 O826 2.223 . S
Cd827 O830 2.297 . S
Cd827 O831 2.439 . S
Cd827 O837 2.240 . S
Cd828 O829 2.240 . S
Cd828 O836 2.223 . S
Cd828 O838 2.297 . S
Cd828 O839 2.439 . S
O829 Cd828 2.240 . S
O829 C834 1.279 . S
O830 Cd827 2.297 . S
O830 C832 1.247 . S
O831 Cd827 2.439 . S
O831 C832 1.208 . S
C832 O830 1.247 . S
C832 O831 1.208 . S
C833 O838 1.247 . S
C833 O839 1.208 . S
C834 O826 1.315 . S
C834 O829 1.279 . S
C835 O836 1.315 . S
C835 O837 1.279 . S
O836 Cd828 2.223 . S
O836 C835 1.315 . S
O837 Cd827 2.240 . S
O837 C835 1.279 . S
O838 Cd828 2.297 . S
O838 C833 1.247 . S
O839 Cd828 2.439 . S
O839 C833 1.208 . S
O840 Cd841 2.223 . S
O840 C848 1.315 . S
Cd841 O840 2.223 . S
Cd841 O844 2.297 . S
Cd841 O845 2.439 . S
Cd841 O851 2.240 . S
Cd842 O843 2.240 . S
Cd842 O850 2.223 . S
Cd842 O852 2.297 . S
Cd842 O853 2.439 . S
O843 Cd842 2.240 . S
O843 C848 1.279 . S
O844 Cd841 2.297 . S
O844 C846 1.247 . S
O845 Cd841 2.439 . S
O845 C846 1.208 . S
C846 O844 1.247 . S
C846 O845 1.208 . S
C847 O852 1.247 . S
C847 O853 1.208 . S
C848 O840 1.315 . S
C848 O843 1.279 . S
C849 O850 1.315 . S
C849 O851 1.279 . S
O850 Cd842 2.223 . S
O850 C849 1.315 . S
O851 Cd841 2.240 . S
O851 C849 1.279 . S
O852 Cd842 2.297 . S
O852 C847 1.247 . S
O853 Cd842 2.439 . S
O853 C847 1.208 . S
O854 Cd855 2.223 . S
O854 C862 1.315 . S
Cd855 O854 2.223 . S
Cd855 O858 2.297 . S
Cd855 O859 2.439 . S
Cd855 O865 2.240 . S
Cd856 O857 2.240 . S
Cd856 O864 2.223 . S
Cd856 O866 2.297 . S
Cd856 O867 2.439 . S
O857 Cd856 2.240 . S
O857 C862 1.279 . S
O858 Cd855 2.297 . S
O858 C860 1.247 . S
O859 Cd855 2.439 . S
O859 C860 1.208 . S
C860 O858 1.247 . S
C860 O859 1.208 . S
C861 O866 1.247 . S
C861 O867 1.208 . S
C862 O854 1.315 . S
C862 O857 1.279 . S
C863 O864 1.315 . S
C863 O865 1.279 . S
O864 Cd856 2.223 . S
O864 C863 1.315 . S
O865 Cd855 2.240 . S
O865 C863 1.279 . S
O866 Cd856 2.297 . S
O866 C861 1.247 . S
O867 Cd856 2.439 . S
O867 C861 1.208 . S
O868 Cd869 2.223 . S
O868 C876 1.315 . S
Cd869 O868 2.223 . S
Cd869 O872 2.297 . S
Cd869 O873 2.439 . S
Cd869 O879 2.240 . S
Cd870 O871 2.240 . S
Cd870 O878 2.223 . S
Cd870 O880 2.297 . S
Cd870 O881 2.439 . S
O871 Cd870 2.240 . S
O871 C876 1.279 . S
O872 Cd869 2.297 . S
O872 C874 1.247 . S
O873 Cd869 2.439 . S
O873 C874 1.208 . S
C874 O872 1.247 . S
C874 O873 1.208 . S
C875 O880 1.247 . S
C875 O881 1.208 . S
C876 O868 1.315 . S
C876 O871 1.279 . S
C877 O878 1.315 . S
C877 O879 1.279 . S
O878 Cd870 2.223 . S
O878 C877 1.315 . S
O879 Cd869 2.240 . S
O879 C877 1.279 . S
O880 Cd870 2.297 . S
O880 C875 1.247 . S
O881 Cd870 2.439 . S
O881 C875 1.208 . S
O882 Cd883 2.223 . S
O882 C890 1.315 . S
Cd883 O882 2.223 . S
Cd883 O886 2.297 . S
Cd883 O887 2.439 . S
Cd883 O893 2.240 . S
Cd884 O885 2.240 . S
Cd884 O892 2.223 . S
Cd884 O894 2.297 . S
Cd884 O895 2.439 . S
O885 Cd884 2.240 . S
O885 C890 1.279 . S
O886 Cd883 2.297 . S
O886 C888 1.247 . S
O887 Cd883 2.439 . S
O887 C888 1.208 . S
C888 O886 1.247 . S
C888 O887 1.208 . S
C889 O894 1.247 . S
C889 O895 1.208 . S
C890 O882 1.315 . S
C890 O885 1.279 . S
C891 O892 1.315 . S
C891 O893 1.279 . S
O892 Cd884 2.223 . S
O892 C891 1.315 . S
O893 Cd883 2.240 . S
O893 C891 1.279 . S
O894 Cd884 2.297 . S
O894 C889 1.247 . S
O895 Cd884 2.439 . S
O895 C889 1.208 . S
O896 Cd897 2.223 . S
O896 C904 1.315 . S
Cd897 O896 2.223 . S
Cd897 O900 2.297 . S
Cd897 O901 2.439 . S
Cd897 O907 2.240 . S
Cd898 O899 2.240 . S
Cd898 O906 2.223 . S
Cd898 O908 2.297 . S
Cd898 O909 2.439 . S
O899 Cd898 2.240 . S
O899 C904 1.279 . S
O900 Cd897 2.297 . S
O900 C902 1.247 . S
O901 Cd897 2.439 . S
O901 C902 1.208 . S
C902 O900 1.247 . S
C902 O901 1.208 . S
C903 O908 1.247 . S
C903 O909 1.208 . S
C904 O896 1.315 . S
C904 O899 1.279 . S
C905 O906 1.315 . S
C905 O907 1.279 . S
O906 Cd898 2.223 . S
O906 C905 1.315 . S
O907 Cd897 2.240 . S
O907 C905 1.279 . S
O908 Cd898 2.297 . S
O908 C903 1.247 . S
O909 Cd898 2.439 . S
O909 C903 1.208 . S
O910 Cd911 2.223 . S
O910 C918 1.315 . S
Cd911 O910 2.223 . S
Cd911 O914 2.297 . S
Cd911 O915 2.439 . S
Cd911 O921 2.240 . S
Cd912 O913 2.240 . S
Cd912 O920 2.223 . S
Cd912 O922 2.297 . S
Cd912 O923 2.439 . S
O913 Cd912 2.240 . S
O913 C918 1.279 . S
O914 Cd911 2.297 . S
O914 C916 1.247 . S
O915 Cd911 2.439 . S
O915 C916 1.208 . S
C916 O914 1.247 . S
C916 O915 1.208 . S
C917 O922 1.247 . S
C917 O923 1.208 . S
C918 O910 1.315 . S
C918 O913 1.279 . S
C919 O920 1.315 . S
C919 O921 1.279 . S
O920 Cd912 2.223 . S
O920 C919 1.315 . S
O921 Cd911 2.240 . S
O921 C919 1.279 . S
O922 Cd912 2.297 . S
O922 C917 1.247 . S
O923 Cd912 2.439 . S
O923 C917 1.208 . S
O924 Cd925 2.223 . S
O924 C932 1.315 . S
Cd925 O924 2.223 . S
Cd925 O928 2.297 . S
Cd925 O929 2.439 . S
Cd925 O935 2.240 . S
Cd926 O927 2.240 . S
Cd926 O934 2.223 . S
Cd926 O936 2.297 . S
Cd926 O937 2.439 . S
O927 Cd926 2.240 . S
O927 C932 1.279 . S
O928 Cd925 2.297 . S
O928 C930 1.247 . S
O929 Cd925 2.439 . S
O929 C930 1.208 . S
C930 O928 1.247 . S
C930 O929 1.208 . S
C931 O936 1.247 . S
C931 O937 1.208 . S
C932 O924 1.315 . S
C932 O927 1.279 . S
C933 O934 1.315 . S
C933 O935 1.279 . S
O934 Cd926 2.223 . S
O934 C933 1.315 . S
O935 Cd925 2.240 . S
O935 C933 1.279 . S
O936 Cd926 2.297 . S
O936 C931 1.247 . S
O937 Cd926 2.439 . S
O937 C931 1.208 . S
O938 Cd939 2.223 . S
O938 C946 1.315 . S
Cd939 O938 2.223 . S
Cd939 O942 2.297 . S
Cd939 O943 2.439 . S
Cd939 O949 2.240 . S
Cd940 O941 2.240 . S
Cd940 O948 2.223 . S
Cd940 O950 2.297 . S
Cd940 O951 2.439 . S
O941 Cd940 2.240 . S
O941 C946 1.279 . S
O942 Cd939 2.297 . S
O942 C944 1.247 . S
O943 Cd939 2.439 . S
O943 C944 1.208 . S
C944 O942 1.247 . S
C944 O943 1.208 . S
C945 O950 1.247 . S
C945 O951 1.208 . S
C946 O938 1.315 . S
C946 O941 1.279 . S
C947 O948 1.315 . S
C947 O949 1.279 . S
O948 Cd940 2.223 . S
O948 C947 1.315 . S
O949 Cd939 2.240 . S
O949 C947 1.279 . S
O950 Cd940 2.297 . S
O950 C945 1.247 . S
O951 Cd940 2.439 . S
O951 C945 1.208 . S
O952 Cd953 2.223 . S
O952 C960 1.315 . S
Cd953 O952 2.223 . S
Cd953 O956 2.297 . S
Cd953 O957 2.439 . S
Cd953 O963 2.240 . S
Cd954 O955 2.240 . S
Cd954 O962 2.223 . S
Cd954 O964 2.297 . S
Cd954 O965 2.439 . S
O955 Cd954 2.240 . S
O955 C960 1.279 . S
O956 Cd953 2.297 . S
O956 C958 1.247 . S
O957 Cd953 2.439 . S
O957 C958 1.208 . S
C958 O956 1.247 . S
C958 O957 1.208 . S
C959 O964 1.247 . S
C959 O965 1.208 . S
C960 O952 1.315 . S
C960 O955 1.279 . S
C961 O962 1.315 . S
C961 O963 1.279 . S
O962 Cd954 2.223 . S
O962 C961 1.315 . S
O963 Cd953 2.240 . S
O963 C961 1.279 . S
O964 Cd954 2.297 . S
O964 C959 1.247 . S
O965 Cd954 2.439 . S
O965 C959 1.208 . S
O966 Cd967 2.223 . S
O966 C974 1.315 . S
Cd967 O966 2.223 . S
Cd967 O970 2.297 . S
Cd967 O971 2.439 . S
Cd967 O977 2.240 . S
Cd968 O969 2.240 . S
Cd968 O976 2.223 . S
Cd968 O978 2.297 . S
Cd968 O979 2.439 . S
O969 Cd968 2.240 . S
O969 C974 1.279 . S
O970 Cd967 2.297 . S
O970 C972 1.247 . S
O971 Cd967 2.439 . S
O971 C972 1.208 . S
C972 O970 1.247 . S
C972 O971 1.208 . S
C973 O978 1.247 . S
C973 O979 1.208 . S
C974 O966 1.315 . S
C974 O969 1.279 . S
C975 O976 1.315 . S
C975 O977 1.279 . S
O976 Cd968 2.223 . S
O976 C975 1.315 . S
O977 Cd967 2.240 . S
O977 C975 1.279 . S
O978 Cd968 2.297 . S
O978 C973 1.247 . S
O979 Cd968 2.439 . S
O979 C973 1.208 . S
O980 Cd981 2.223 . S
O980 C988 1.315 . S
Cd981 O980 2.223 . S
Cd981 O984 2.297 . S
Cd981 O985 2.439 . S
Cd981 O991 2.240 . S
Cd982 O983 2.240 . S
Cd982 O990 2.223 . S
Cd982 O992 2.297 . S
Cd982 O993 2.439 . S
O983 Cd982 2.240 . S
O983 C988 1.279 . S
O984 Cd981 2.297 . S
O984 C986 1.247 . S
O985 Cd981 2.439 . S
O985 C986 1.208 . S
C986 O984 1.247 . S
C986 O985 1.208 . S
C987 O992 1.247 . S
C987 O993 1.208 . S
C988 O980 1.315 . S
C988 O983 1.279 . S
C989 O990 1.315 . S
C989 O991 1.279 . S
O990 Cd982 2.223 . S
O990 C989 1.315 . S
O991 Cd981 2.240 . S
O991 C989 1.279 . S
O992 Cd982 2.297 . S
O992 C987 1.247 . S
O993 Cd982 2.439 . S
O993 C987 1.208 . S
O994 Cd995 2.223 . S
O994 C1002 1.315 . S
Cd995 O994 2.223 . S
Cd995 O998 2.297 . S
Cd995 O999 2.439 . S
Cd995 O1005 2.240 . S
Cd996 O997 2.240 . S
Cd996 O1004 2.223 . S
Cd996 O1006 2.297 . S
Cd996 O1007 2.439 . S
O997 Cd996 2.240 . S
O997 C1002 1.279 . S
O998 Cd995 2.297 . S
O998 C1000 1.247 . S
O999 Cd995 2.439 . S
O999 C1000 1.208 . S
C1000 O998 1.247 . S
C1000 O999 1.208 . S
C1001 O1006 1.247 . S
C1001 O1007 1.208 . S
C1002 O994 1.315 . S
C1002 O997 1.279 . S
C1003 O1004 1.315 . S
C1003 O1005 1.279 . S
O1004 Cd996 2.223 . S
O1004 C1003 1.315 . S
O1005 Cd995 2.240 . S
O1005 C1003 1.279 . S
O1006 Cd996 2.297 . S
O1006 C1001 1.247 . S
O1007 Cd996 2.439 . S
O1007 C1001 1.208 . S
O1008 Cd1009 2.223 . S
O1008 C1016 1.315 . S
Cd1009 O1008 2.223 . S
Cd1009 O1012 2.297 . S
Cd1009 O1013 2.439 . S
Cd1009 O1019 2.240 . S
Cd1010 O1011 2.240 . S
Cd1010 O1018 2.223 . S
Cd1010 O1020 2.297 . S
Cd1010 O1021 2.439 . S
O1011 Cd1010 2.240 . S
O1011 C1016 1.279 . S
O1012 Cd1009 2.297 . S
O1012 C1014 1.247 . S
O1013 Cd1009 2.439 . S
O1013 C1014 1.208 . S
C1014 O1012 1.247 . S
C1014 O1013 1.208 . S
C1015 O1020 1.247 . S
C1015 O1021 1.208 . S
C1016 O1008 1.315 . S
C1016 O1011 1.279 . S
C1017 O1018 1.315 . S
C1017 O1019 1.279 . S
O1018 Cd1010 2.223 . S
O1018 C1017 1.315 . S
O1019 Cd1009 2.240 . S
O1019 C1017 1.279 . S
O1020 Cd1010 2.297 . S
O1020 C1015 1.247 . S
O1021 Cd1010 2.439 . S
O1021 C1015 1.208 . S
O1022 Cd1023 2.223 . S
O1022 C1030 1.315 . S
Cd1023 O1022 2.223 . S
Cd1023 O1026 2.297 . S
Cd1023 O1027 2.439 . S
Cd1023 O1033 2.240 . S
Cd1024 O1025 2.240 . S
Cd1024 O1032 2.223 . S
Cd1024 O1034 2.297 . S
Cd1024 O1035 2.439 . S
O1025 Cd1024 2.240 . S
O1025 C1030 1.279 . S
O1026 Cd1023 2.297 . S
O1026 C1028 1.247 . S
O1027 Cd1023 2.439 . S
O1027 C1028 1.208 . S
C1028 O1026 1.247 . S
C1028 O1027 1.208 . S
C1029 O1034 1.247 . S
C1029 O1035 1.208 . S
C1030 O1022 1.315 . S
C1030 O1025 1.279 . S
C1031 O1032 1.315 . S
C1031 O1033 1.279 . S
O1032 Cd1024 2.223 . S
O1032 C1031 1.315 . S
O1033 Cd1023 2.240 . S
O1033 C1031 1.279 . S
O1034 Cd1024 2.297 . S
O1034 C1029 1.247 . S
O1035 Cd1024 2.439 . S
O1035 C1029 1.208 . S
O1036 Cd1037 2.223 . S
O1036 C1044 1.315 . S
Cd1037 O1036 2.223 . S
Cd1037 O1040 2.297 . S
Cd1037 O1041 2.439 . S
Cd1037 O1047 2.240 . S
Cd1038 O1039 2.240 . S
Cd1038 O1046 2.223 . S
Cd1038 O1048 2.297 . S
Cd1038 O1049 2.439 . S
O1039 Cd1038 2.240 . S
O1039 C1044 1.279 . S
O1040 Cd1037 2.297 . S
O1040 C1042 1.247 . S
O1041 Cd1037 2.439 . S
O1041 C1042 1.208 . S
C1042 O1040 1.247 . S
C1042 O1041 1.208 . S
C1043 O1048 1.247 . S
C1043 O1049 1.208 . S
C1044 O1036 1.315 . S
C1044 O1039 1.279 . S
C1045 O1046 1.315 . S
C1045 O1047 1.279 . S
O1046 Cd1038 2.223 . S
O1046 C1045 1.315 . S
O1047 Cd1037 2.240 . S
O1047 C1045 1.279 . S
O1048 Cd1038 2.297 . S
O1048 C1043 1.247 . S
O1049 Cd1038 2.439 . S
O1049 C1043 1.208 . S
O1050 Cd1051 2.223 . S
O1050 C1058 1.315 . S
Cd1051 O1050 2.223 . S
Cd1051 O1054 2.297 . S
Cd1051 O1055 2.439 . S
Cd1051 O1061 2.240 . S
Cd1052 O1053 2.240 . S
Cd1052 O1060 2.223 . S
Cd1052 O1062 2.297 . S
Cd1052 O1063 2.439 . S
O1053 Cd1052 2.240 . S
O1053 C1058 1.279 . S
O1054 Cd1051 2.297 . S
O1054 C1056 1.247 . S
O1055 Cd1051 2.439 . S
O1055 C1056 1.208 . S
C1056 O1054 1.247 . S
C1056 O1055 1.208 . S
C1057 O1062 1.247 . S
C1057 O1063 1.208 . S
C1058 O1050 1.315 . S
C1058 O1053 1.279 . S
C1059 O1060 1.315 . S
C1059 O1061 1.279 . S
O1060 Cd1052 2.223 . S
O1060 C1059 1.315 . S
O1061 Cd1051 2.240 . S
O1061 C1059 1.279 . S
O1062 Cd1052 2.297 . S
O1062 C1057 1.247 . S
O1063 Cd1052 2.439 . S
O1063 C1057 1.208 . S
O1064 Cd1065 2.223 . S
O1064 C1072 1.315 . S
Cd1065 O1064 2.223 . S
Cd1065 O1068 2.297 . S
Cd1065 O1069 2.439 . S
Cd1065 O1075 2.240 . S
Cd1066 O1067 2.240 . S
Cd1066 O1074 2.223 . S
Cd1066 O1076 2.297 . S
Cd1066 O1077 2.439 . S
O1067 Cd1066 2.240 . S
O1067 C1072 1.279 . S
O1068 Cd1065 2.297 . S
O1068 C1070 1.247 . S
O1069 Cd1065 2.439 . S
O1069 C1070 1.208 . S
C1070 O1068 1.247 . S
C1070 O1069 1.208 . S
C1071 O1076 1.247 . S
C1071 O1077 1.208 . S
C1072 O1064 1.315 . S
C1072 O1067 1.279 . S
C1073 O1074 1.315 . S
C1073 O1075 1.279 . S
O1074 Cd1066 2.223 . S
O1074 C1073 1.315 . S
O1075 Cd1065 2.240 . S
O1075 C1073 1.279 . S
O1076 Cd1066 2.297 . S
O1076 C1071 1.247 . S
O1077 Cd1066 2.439 . S
O1077 C1071 1.208 . S
O1078 Cd1079 2.223 . S
O1078 C1086 1.315 . S
Cd1079 O1078 2.223 . S
Cd1079 O1082 2.297 . S
Cd1079 O1083 2.439 . S
Cd1079 O1089 2.240 . S
Cd1080 O1081 2.240 . S
Cd1080 O1088 2.223 . S
Cd1080 O1090 2.297 . S
Cd1080 O1091 2.439 . S
O1081 Cd1080 2.240 . S
O1081 C1086 1.279 . S
O1082 Cd1079 2.297 . S
O1082 C1084 1.247 . S
O1083 Cd1079 2.439 . S
O1083 C1084 1.208 . S
C1084 O1082 1.247 . S
C1084 O1083 1.208 . S
C1085 O1090 1.247 . S
C1085 O1091 1.208 . S
C1086 O1078 1.315 . S
C1086 O1081 1.279 . S
C1087 O1088 1.315 . S
C1087 O1089 1.279 . S
O1088 Cd1080 2.223 . S
O1088 C1087 1.315 . S
O1089 Cd1079 2.240 . S
O1089 C1087 1.279 . S
O1090 Cd1080 2.297 . S
O1090 C1085 1.247 . S
O1091 Cd1080 2.439 . S
O1091 C1085 1.208 . S
O1092 Cd1093 2.223 . S
O1092 C1100 1.315 . S
Cd1093 O1092 2.223 . S
Cd1093 O1096 2.297 . S
Cd1093 O1097 2.439 . S
Cd1093 O1103 2.240 . S
Cd1094 O1095 2.240 . S
Cd1094 O1102 2.223 . S
Cd1094 O1104 2.297 . S
Cd1094 O1105 2.439 . S
O1095 Cd1094 2.240 . S
O1095 C1100 1.279 . S
O1096 Cd1093 2.297 . S
O1096 C1098 1.247 . S
O1097 Cd1093 2.439 . S
O1097 C1098 1.208 . S
C1098 O1096 1.247 . S
C1098 O1097 1.208 . S
C1099 O1104 1.247 . S
C1099 O1105 1.208 . S
C1100 O1092 1.315 . S
C1100 O1095 1.279 . S
C1101 O1102 1.315 . S
C1101 O1103 1.279 . S
O1102 Cd1094 2.223 . S
O1102 C1101 1.315 . S
O1103 Cd1093 2.240 . S
O1103 C1101 1.279 . S
O1104 Cd1094 2.297 . S
O1104 C1099 1.247 . S
O1105 Cd1094 2.439 . S
O1105 C1099 1.208 . S
O1106 Cd1107 2.223 . S
O1106 C1114 1.315 . S
Cd1107 O1106 2.223 . S
Cd1107 O1110 2.297 . S
Cd1107 O1111 2.439 . S
Cd1107 O1117 2.240 . S
Cd1108 O1109 2.240 . S
Cd1108 O1116 2.223 . S
Cd1108 O1118 2.297 . S
Cd1108 O1119 2.439 . S
O1109 Cd1108 2.240 . S
O1109 C1114 1.279 . S
O1110 Cd1107 2.297 . S
O1110 C1112 1.247 . S
O1111 Cd1107 2.439 . S
O1111 C1112 1.208 . S
C1112 O1110 1.247 . S
C1112 O1111 1.208 . S
C1113 O1118 1.247 . S
C1113 O1119 1.208 . S
C1114 O1106 1.315 . S
C1114 O1109 1.279 . S
C1115 O1116 1.315 . S
C1115 O1117 1.279 . S
O1116 Cd1108 2.223 . S
O1116 C1115 1.315 . S
O1117 Cd1107 2.240 . S
O1117 C1115 1.279 . S
O1118 Cd1108 2.297 . S
O1118 C1113 1.247 . S
O1119 Cd1108 2.439 . S
O1119 C1113 1.208 . S
O1120 Cd1121 2.223 . S
O1120 C1128 1.315 . S
Cd1121 O1120 2.223 . S
Cd1121 O1124 2.297 . S
Cd1121 O1125 2.439 . S
Cd1121 O1131 2.240 . S
Cd1122 O1123 2.240 . S
Cd1122 O1130 2.223 . S
Cd1122 O1132 2.297 . S
Cd1122 O1133 2.439 . S
O1123 Cd1122 2.240 . S
O1123 C1128 1.279 . S
O1124 Cd1121 2.297 . S
O1124 C1126 1.247 . S
O1125 Cd1121 2.439 . S
O1125 C1126 1.208 . S
C1126 O1124 1.247 . S
C1126 O1125 1.208 . S
C1127 O1132 1.247 . S
C1127 O1133 1.208 . S
C1128 O1120 1.315 . S
C1128 O1123 1.279 . S
C1129 O1130 1.315 . S
C1129 O1131 1.279 . S
O1130 Cd1122 2.223 . S
O1130 C1129 1.315 . S
O1131 Cd1121 2.240 . S
O1131 C1129 1.279 . S
O1132 Cd1122 2.297 . S
O1132 C1127 1.247 . S
O1133 Cd1122 2.439 . S
O1133 C1127 1.208 . S
O1134 Cd1135 2.223 . S
O1134 C1142 1.315 . S
Cd1135 O1134 2.223 . S
Cd1135 O1138 2.297 . S
Cd1135 O1139 2.439 . S
Cd1135 O1145 2.240 . S
Cd1136 O1137 2.240 . S
Cd1136 O1144 2.223 . S
Cd1136 O1146 2.297 . S
Cd1136 O1147 2.439 . S
O1137 Cd1136 2.240 . S
O1137 C1142 1.279 . S
O1138 Cd1135 2.297 . S
O1138 C1140 1.247 . S
O1139 Cd1135 2.439 . S
O1139 C1140 1.208 . S
C1140 O1138 1.247 . S
C1140 O1139 1.208 . S
C1141 O1146 1.247 . S
C1141 O1147 1.208 . S
C1142 O1134 1.315 . S
C1142 O1137 1.279 . S
C1143 O1144 1.315 . S
C1143 O1145 1.279 . S
O1144 Cd1136 2.223 . S
O1144 C1143 1.315 . S
O1145 Cd1135 2.240 . S
O1145 C1143 1.279 . S
O1146 Cd1136 2.297 . S
O1146 C1141 1.247 . S
O1147 Cd1136 2.439 . S
O1147 C1141 1.208 . S
O1148 Cd1149 2.223 . S
O1148 C1156 1.315 . S
Cd1149 O1148 2.223 . S
Cd1149 O1152 2.297 . S
Cd1149 O1153 2.439 . S
Cd1149 O1159 2.240 . S
Cd1150 O1151 2.240 . S
Cd1150 O1158 2.223 . S
Cd1150 O1160 2.297 . S
Cd1150 O1161 2.439 . S
O1151 Cd1150 2.240 . S
O1151 C1156 1.279 . S
O1152 Cd1149 2.297 . S
O1152 C1154 1.247 . S
O1153 Cd1149 2.439 . S
O1153 C1154 1.208 . S
C1154 O1152 1.247 . S
C1154 O1153 1.208 . S
C1155 O1160 1.247 . S
C1155 O1161 1.208 . S
C1156 O1148 1.315 . S
C1156 O1151 1.279 . S
C1157 O1158 1.315 . S
C1157 O1159 1.279 . S
O1158 Cd1150 2.223 . S
O1158 C1157 1.315 . S
O1159 Cd1149 2.240 . S
O1159 C1157 1.279 . S
O1160 Cd1150 2.297 . S
O1160 C1155 1.247 . S
O1161 Cd1150 2.439 . S
O1161 C1155 1.208 . S
O1162 Cd1163 2.223 . S
O1162 C1170 1.315 . S
Cd1163 O1162 2.223 . S
Cd1163 O1166 2.297 . S
Cd1163 O1167 2.439 . S
Cd1163 O1173 2.240 . S
Cd1164 O1165 2.240 . S
Cd1164 O1172 2.223 . S
Cd1164 O1174 2.297 . S
Cd1164 O1175 2.439 . S
O1165 Cd1164 2.240 . S
O1165 C1170 1.279 . S
O1166 Cd1163 2.297 . S
O1166 C1168 1.247 . S
O1167 Cd1163 2.439 . S
O1167 C1168 1.208 . S
C1168 O1166 1.247 . S
C1168 O1167 1.208 . S
C1169 O1174 1.247 . S
C1169 O1175 1.208 . S
C1170 O1162 1.315 . S
C1170 O1165 1.279 . S
C1171 O1172 1.315 . S
C1171 O1173 1.279 . S
O1172 Cd1164 2.223 . S
O1172 C1171 1.315 . S
O1173 Cd1163 2.240 . S
O1173 C1171 1.279 . S
O1174 Cd1164 2.297 . S
O1174 C1169 1.247 . S
O1175 Cd1164 2.439 . S
O1175 C1169 1.208 . S
O1176 Cd1177 2.223 . S
O1176 C1184 1.315 . S
Cd1177 O1176 2.223 . S
Cd1177 O1180 2.297 . S
Cd1177 O1181 2.439 . S
Cd1177 O1187 2.240 . S
Cd1178 O1179 2.240 . S
Cd1178 O1186 2.223 . S
Cd1178 O1188 2.297 . S
Cd1178 O1189 2.439 . S
O1179 Cd1178 2.240 . S
O1179 C1184 1.279 . S
O1180 Cd1177 2.297 . S
O1180 C1182 1.247 . S
O1181 Cd1177 2.439 . S
O1181 C1182 1.208 . S
C1182 O1180 1.247 . S
C1182 O1181 1.208 . S
C1183 O1188 1.247 . S
C1183 O1189 1.208 . S
C1184 O1176 1.315 . S
C1184 O1179 1.279 . S
C1185 O1186 1.315 . S
C1185 O1187 1.279 . S
O1186 Cd1178 2.223 . S
O1186 C1185 1.315 . S
O1187 Cd1177 2.240 . S
O1187 C1185 1.279 . S
O1188 Cd1178 2.297 . S
O1188 C1183 1.247 . S
O1189 Cd1178 2.439 . S
O1189 C1183 1.208 . S
O1190 Cd1191 2.223 . S
O1190 C1198 1.315 . S
Cd1191 O1190 2.223 . S
Cd1191 O1194 2.297 . S
Cd1191 O1195 2.439 . S
Cd1191 O1201 2.240 . S
Cd1192 O1193 2.240 . S
Cd1192 O1200 2.223 . S
Cd1192 O1202 2.297 . S
Cd1192 O1203 2.439 . S
O1193 Cd1192 2.240 . S
O1193 C1198 1.279 . S
O1194 Cd1191 2.297 . S
O1194 C1196 1.247 . S
O1195 Cd1191 2.439 . S
O1195 C1196 1.208 . S
C1196 O1194 1.247 . S
C1196 O1195 1.208 . S
C1197 O1202 1.247 . S
C1197 O1203 1.208 . S
C1198 O1190 1.315 . S
C1198 O1193 1.279 . S
C1199 O1200 1.315 . S
C1199 O1201 1.279 . S
O1200 Cd1192 2.223 . S
O1200 C1199 1.315 . S
O1201 Cd1191 2.240 . S
O1201 C1199 1.279 . S
O1202 Cd1192 2.297 . S
O1202 C1197 1.247 . S
O1203 Cd1192 2.439 . S
O1203 C1197 1.208 . S
O1204 Cd1205 2.223 . S
O1204 C1212 1.315 . S
Cd1205 O1204 2.223 . S
Cd1205 O1208 2.297 . S
Cd1205 O1209 2.439 . S
Cd1205 O1215 2.240 . S
Cd1206 O1207 2.240 . S
Cd1206 O1214 2.223 . S
Cd1206 O1216 2.297 . S
Cd1206 O1217 2.439 . S
O1207 Cd1206 2.240 . S
O1207 C1212 1.279 . S
O1208 Cd1205 2.297 . S
O1208 C1210 1.247 . S
O1209 Cd1205 2.439 . S
O1209 C1210 1.208 . S
C1210 O1208 1.247 . S
C1210 O1209 1.208 . S
C1211 O1216 1.247 . S
C1211 O1217 1.208 . S
C1212 O1204 1.315 . S
C1212 O1207 1.279 . S
C1213 O1214 1.315 . S
C1213 O1215 1.279 . S
O1214 Cd1206 2.223 . S
O1214 C1213 1.315 . S
O1215 Cd1205 2.240 . S
O1215 C1213 1.279 . S
O1216 Cd1206 2.297 . S
O1216 C1211 1.247 . S
O1217 Cd1206 2.439 . S
O1217 C1211 1.208 . S
O1218 Cd1219 2.223 . S
O1218 C1226 1.315 . S
Cd1219 O1218 2.223 . S
Cd1219 O1222 2.297 . S
Cd1219 O1223 2.439 . S
Cd1219 O1229 2.240 . S
Cd1220 O1221 2.240 . S
Cd1220 O1228 2.223 . S
Cd1220 O1230 2.297 . S
Cd1220 O1231 2.439 . S
O1221 Cd1220 2.240 . S
O1221 C1226 1.279 . S
O1222 Cd1219 2.297 . S
O1222 C1224 1.247 . S
O1223 Cd1219 2.439 . S
O1223 C1224 1.208 . S
C1224 O1222 1.247 . S
C1224 O1223 1.208 . S
C1225 O1230 1.247 . S
C1225 O1231 1.208 . S
C1226 O1218 1.315 . S
C1226 O1221 1.279 . S
C1227 O1228 1.315 . S
C1227 O1229 1.279 . S
O1228 Cd1220 2.223 . S
O1228 C1227 1.315 . S
O1229 Cd1219 2.240 . S
O1229 C1227 1.279 . S
O1230 Cd1220 2.297 . S
O1230 C1225 1.247 . S
O1231 Cd1220 2.439 . S
O1231 C1225 1.208 . S
O1232 Cd1233 2.223 . S
O1232 C1240 1.315 . S
Cd1233 O1232 2.223 . S
Cd1233 O1236 2.297 . S
Cd1233 O1237 2.439 . S
Cd1233 O1243 2.240 . S
Cd1234 O1235 2.240 . S
Cd1234 O1242 2.223 . S
Cd1234 O1244 2.297 . S
Cd1234 O1245 2.439 . S
O1235 Cd1234 2.240 . S
O1235 C1240 1.279 . S
O1236 Cd1233 2.297 . S
O1236 C1238 1.247 . S
O1237 Cd1233 2.439 . S
O1237 C1238 1.208 . S
C1238 O1236 1.247 . S
C1238 O1237 1.208 . S
C1239 O1244 1.247 . S
C1239 O1245 1.208 . S
C1240 O1232 1.315 . S
C1240 O1235 1.279 . S
C1241 O1242 1.315 . S
C1241 O1243 1.279 . S
O1242 Cd1234 2.223 . S
O1242 C1241 1.315 . S
O1243 Cd1233 2.240 . S
O1243 C1241 1.279 . S
O1244 Cd1234 2.297 . S
O1244 C1239 1.247 . S
O1245 Cd1234 2.439 . S
O1245 C1239 1.208 . S
O1246 Cd1247 2.223 . S
O1246 C1254 1.315 . S
Cd1247 O1246 2.223 . S
Cd1247 O1250 2.297 . S
Cd1247 O1251 2.439 . S
Cd1247 O1257 2.240 . S
Cd1248 O1249 2.240 . S
Cd1248 O1256 2.223 . S
Cd1248 O1258 2.297 . S
Cd1248 O1259 2.439 . S
O1249 Cd1248 2.240 . S
O1249 C1254 1.279 . S
O1250 Cd1247 2.297 . S
O1250 C1252 1.247 . S
O1251 Cd1247 2.439 . S
O1251 C1252 1.208 . S
C1252 O1250 1.247 . S
C1252 O1251 1.208 . S
C1253 O1258 1.247 . S
C1253 O1259 1.208 . S
C1254 O1246 1.315 . S
C1254 O1249 1.279 . S
C1255 O1256 1.315 . S
C1255 O1257 1.279 . S
O1256 Cd1248 2.223 . S
O1256 C1255 1.315 . S
O1257 Cd1247 2.240 . S
O1257 C1255 1.279 . S
O1258 Cd1248 2.297 . S
O1258 C1253 1.247 . S
O1259 Cd1248 2.439 . S
O1259 C1253 1.208 . S
O1260 Cd1261 2.223 . S
O1260 C1268 1.315 . S
Cd1261 O1260 2.223 . S
Cd1261 O1264 2.297 . S
Cd1261 O1265 2.439 . S
Cd1261 O1271 2.240 . S
Cd1262 O1263 2.240 . S
Cd1262 O1270 2.223 . S
Cd1262 O1272 2.297 . S
Cd1262 O1273 2.439 . S
O1263 Cd1262 2.240 . S
O1263 C1268 1.279 . S
O1264 Cd1261 2.297 . S
O1264 C1266 1.247 . S
O1265 Cd1261 2.439 . S
O1265 C1266 1.208 . S
C1266 O1264 1.247 . S
C1266 O1265 1.208 . S
C1267 O1272 1.247 . S
C1267 O1273 1.208 . S
C1268 O1260 1.315 . S
C1268 O1263 1.279 . S
C1269 O1270 1.315 . S
C1269 O1271 1.279 . S
O1270 Cd1262 2.223 . S
O1270 C1269 1.315 . S
O1271 Cd1261 2.240 . S
O1271 C1269 1.279 . S
O1272 Cd1262 2.297 . S
O1272 C1267 1.247 . S
O1273 Cd1262 2.439 . S
O1273 C1267 1.208 . S
O1274 Cd1275 2.223 . S
O1274 C1282 1.315 . S
Cd1275 O1274 2.223 . S
Cd1275 O1278 2.297 . S
Cd1275 O1279 2.439 . S
Cd1275 O1285 2.240 . S
Cd1276 O1277 2.240 . S
Cd1276 O1284 2.223 . S
Cd1276 O1286 2.297 . S
Cd1276 O1287 2.439 . S
O1277 Cd1276 2.240 . S
O1277 C1282 1.279 . S
O1278 Cd1275 2.297 . S
O1278 C1280 1.247 . S
O1279 Cd1275 2.439 . S
O1279 C1280 1.208 . S
C1280 O1278 1.247 . S
C1280 O1279 1.208 . S
C1281 O1286 1.247 . S
C1281 O1287 1.208 . S
C1282 O1274 1.315 . S
C1282 O1277 1.279 . S
C1283 O1284 1.315 . S
C1283 O1285 1.279 . S
O1284 Cd1276 2.223 . S
O1284 C1283 1.315 . S
O1285 Cd1275 2.240 . S
O1285 C1283 1.279 . S
O1286 Cd1276 2.297 . S
O1286 C1281 1.247 . S
O1287 Cd1276 2.439 . S
O1287 C1281 1.208 . S
O1288 Cd1289 2.223 . S
O1288 C1296 1.315 . S
Cd1289 O1288 2.223 . S
Cd1289 O1292 2.297 . S
Cd1289 O1293 2.439 . S
Cd1289 O1299 2.240 . S
Cd1290 O1291 2.240 . S
Cd1290 O1298 2.223 . S
Cd1290 O1300 2.297 . S
Cd1290 O1301 2.439 . S
O1291 Cd1290 2.240 . S
O1291 C1296 1.279 . S
O1292 Cd1289 2.297 . S
O1292 C1294 1.247 . S
O1293 Cd1289 2.439 . S
O1293 C1294 1.208 . S
C1294 O1292 1.247 . S
C1294 O1293 1.208 . S
C1295 O1300 1.247 . S
C1295 O1301 1.208 . S
C1296 O1288 1.315 . S
C1296 O1291 1.279 . S
C1297 O1298 1.315 . S
C1297 O1299 1.279 . S
O1298 Cd1290 2.223 . S
O1298 C1297 1.315 . S
O1299 Cd1289 2.240 . S
O1299 C1297 1.279 . S
O1300 Cd1290 2.297 . S
O1300 C1295 1.247 . S
O1301 Cd1290 2.439 . S
O1301 C1295 1.208 . S
O1302 Cd1303 2.223 . S
O1302 C1310 1.315 . S
Cd1303 O1302 2.223 . S
Cd1303 O1306 2.297 . S
Cd1303 O1307 2.439 . S
Cd1303 O1313 2.240 . S
Cd1304 O1305 2.240 . S
Cd1304 O1312 2.223 . S
Cd1304 O1314 2.297 . S
Cd1304 O1315 2.439 . S
O1305 Cd1304 2.240 . S
O1305 C1310 1.279 . S
O1306 Cd1303 2.297 . S
O1306 C1308 1.247 . S
O1307 Cd1303 2.439 . S
O1307 C1308 1.208 . S
C1308 O1306 1.247 . S
C1308 O1307 1.208 . S
C1309 O1314 1.247 . S
C1309 O1315 1.208 . S
C1310 O1302 1.315 . S
C1310 O1305 1.279 . S
C1311 O1312 1.315 . S
C1311 O1313 1.279 . S
O1312 Cd1304 2.223 . S
O1312 C1311 1.315 . S
O1313 Cd1303 2.240 . S
O1313 C1311 1.279 . S
O1314 Cd1304 2.297 . S
O1314 C1309 1.247 . S
O1315 Cd1304 2.439 . S
O1315 C1309 1.208 . S
O1316 Cd1317 2.223 . S
O1316 C1324 1.315 . S
Cd1317 O1316 2.223 . S
Cd1317 O1320 2.297 . S
Cd1317 O1321 2.439 . S
Cd1317 O1327 2.240 . S
Cd1318 O1319 2.240 . S
Cd1318 O1326 2.223 . S
Cd1318 O1328 2.297 . S
Cd1318 O1329 2.439 . S
O1319 Cd1318 2.240 . S
O1319 C1324 1.279 . S
O1320 Cd1317 2.297 . S
O1320 C1322 1.247 . S
O1321 Cd1317 2.439 . S
O1321 C1322 1.208 . S
C1322 O1320 1.247 . S
C1322 O1321 1.208 . S
C1323 O1328 1.247 . S
C1323 O1329 1.208 . S
C1324 O1316 1.315 . S
C1324 O1319 1.279 . S
C1325 O1326 1.315 . S
C1325 O1327 1.279 . S
O1326 Cd1318 2.223 . S
O1326 C1325 1.315 . S
O1327 Cd1317 2.240 . S
O1327 C1325 1.279 . S
O1328 Cd1318 2.297 . S
O1328 C1323 1.247 . S
O1329 Cd1318 2.439 . S
O1329 C1323 1.208 . S
O1330 Cd1331 2.223 . S
O1330 C1338 1.315 . S
Cd1331 O1330 2.223 . S
Cd1331 O1334 2.297 . S
Cd1331 O1335 2.439 . S
Cd1331 O1341 2.240 . S
Cd1332 O1333 2.240 . S
Cd1332 O1340 2.223 . S
Cd1332 O1342 2.297 . S
Cd1332 O1343 2.439 . S
O1333 Cd1332 2.240 . S
O1333 C1338 1.279 . S
O1334 Cd1331 2.297 . S
O1334 C1336 1.247 . S
O1335 Cd1331 2.439 . S
O1335 C1336 1.208 . S
C1336 O1334 1.247 . S
C1336 O1335 1.208 . S
C1337 O1342 1.247 . S
C1337 O1343 1.208 . S
C1338 O1330 1.315 . S
C1338 O1333 1.279 . S
C1339 O1340 1.315 . S
C1339 O1341 1.279 . S
O1340 Cd1332 2.223 . S
O1340 C1339 1.315 . S
O1341 Cd1331 2.240 . S
O1341 C1339 1.279 . S
O1342 Cd1332 2.297 . S
O1342 C1337 1.247 . S
O1343 Cd1332 2.439 . S
O1343 C1337 1.208 . S
C1344 C1345 1.387 . S
C1344 H1348 0.950 . S
C1344 C1353 1.390 . S
C1345 C1344 1.387 . S
C1345 C1347 1.387 . S
H1346 C1353 0.950 . S
C1347 C1345 1.387 . S
C1347 C1349 1.390 . S
C1347 H1351 0.950 . S
H1348 C1344 0.950 . S
C1349 C1347 1.390 . S
C1349 C1350 1.387 . S
C1349 H1352 0.950 . S
C1350 C1349 1.387 . S
C1350 C1353 1.387 . S
H1351 C1347 0.950 . S
H1352 C1349 0.950 . S
C1353 C1344 1.390 . S
C1353 H1346 0.950 . S
C1353 C1350 1.387 . S
C1354 C1355 1.387 . S
C1354 H1358 0.950 . S
C1354 C1363 1.390 . S
C1355 C1354 1.387 . S
C1355 C1357 1.387 . S
H1356 C1363 0.950 . S
C1357 C1355 1.387 . S
C1357 C1359 1.390 . S
C1357 H1361 0.950 . S
H1358 C1354 0.950 . S
C1359 C1357 1.390 . S
C1359 C1360 1.387 . S
C1359 H1362 0.950 . S
C1360 C1359 1.387 . S
C1360 C1363 1.387 . S
H1361 C1357 0.950 . S
H1362 C1359 0.950 . S
C1363 C1354 1.390 . S
C1363 H1356 0.950 . S
C1363 C1360 1.387 . S
C1364 C1365 1.387 . S
C1364 H1368 0.950 . S
C1364 C1373 1.390 . S
C1365 C1364 1.387 . S
C1365 C1367 1.387 . S
H1366 C1373 0.950 . S
C1367 C1365 1.387 . S
C1367 C1369 1.390 . S
C1367 H1371 0.950 . S
H1368 C1364 0.950 . S
C1369 C1367 1.390 . S
C1369 C1370 1.387 . S
C1369 H1372 0.950 . S
C1370 C1369 1.387 . S
C1370 C1373 1.387 . S
H1371 C1367 0.950 . S
H1372 C1369 0.950 . S
C1373 C1364 1.390 . S
C1373 H1366 0.950 . S
C1373 C1370 1.387 . S
C1374 C1375 1.387 . S
C1374 H1378 0.950 . S
C1374 C1383 1.390 . S
C1375 C1374 1.387 . S
C1375 C1377 1.387 . S
H1376 C1383 0.950 . S
C1377 C1375 1.387 . S
C1377 C1379 1.390 . S
C1377 H1381 0.950 . S
H1378 C1374 0.950 . S
C1379 C1377 1.390 . S
C1379 C1380 1.387 . S
C1379 H1382 0.950 . S
C1380 C1379 1.387 . S
C1380 C1383 1.387 . S
H1381 C1377 0.950 . S
H1382 C1379 0.950 . S
C1383 C1374 1.390 . S
C1383 H1376 0.950 . S
C1383 C1380 1.387 . S
C1384 C1385 1.387 . S
C1384 H1388 0.950 . S
C1384 C1393 1.390 . S
C1385 C1384 1.387 . S
C1385 C1387 1.387 . S
H1386 C1393 0.950 . S
C1387 C1385 1.387 . S
C1387 C1389 1.390 . S
C1387 H1391 0.950 . S
H1388 C1384 0.950 . S
C1389 C1387 1.390 . S
C1389 C1390 1.387 . S
C1389 H1392 0.950 . S
C1390 C1389 1.387 . S
C1390 C1393 1.387 . S
H1391 C1387 0.950 . S
H1392 C1389 0.950 . S
C1393 C1384 1.390 . S
C1393 H1386 0.950 . S
C1393 C1390 1.387 . S
C1394 C1395 1.387 . S
C1394 H1398 0.950 . S
C1394 C1403 1.390 . S
C1395 C1394 1.387 . S
C1395 C1397 1.387 . S
H1396 C1403 0.950 . S
C1397 C1395 1.387 . S
C1397 C1399 1.390 . S
C1397 H1401 0.950 . S
H1398 C1394 0.950 . S
C1399 C1397 1.390 . S
C1399 C1400 1.387 . S
C1399 H1402 0.950 . S
C1400 C1399 1.387 . S
C1400 C1403 1.387 . S
H1401 C1397 0.950 . S
H1402 C1399 0.950 . S
C1403 C1394 1.390 . S
C1403 H1396 0.950 . S
C1403 C1400 1.387 . S
C1404 C1405 1.387 . S
C1404 H1408 0.950 . S
C1404 C1413 1.390 . S
C1405 C1404 1.387 . S
C1405 C1407 1.387 . S
H1406 C1413 0.950 . S
C1407 C1405 1.387 . S
C1407 C1409 1.390 . S
C1407 H1411 0.950 . S
H1408 C1404 0.950 . S
C1409 C1407 1.390 . S
C1409 C1410 1.387 . S
C1409 H1412 0.950 . S
C1410 C1409 1.387 . S
C1410 C1413 1.387 . S
H1411 C1407 0.950 . S
H1412 C1409 0.950 . S
C1413 C1404 1.390 . S
C1413 H1406 0.950 . S
C1413 C1410 1.387 . S
C1414 C1415 1.387 . S
C1414 H1418 0.950 . S
C1414 C1423 1.390 . S
C1415 C1414 1.387 . S
C1415 C1417 1.387 . S
H1416 C1423 0.950 . S
C1417 C1415 1.387 . S
C1417 C1419 1.390 . S
C1417 H1421 0.950 . S
H1418 C1414 0.950 . S
C1419 C1417 1.390 . S
C1419 C1420 1.387 . S
C1419 H1422 0.950 . S
C1420 C1419 1.387 . S
C1420 C1423 1.387 . S
H1421 C1417 0.950 . S
H1422 C1419 0.950 . S
C1423 C1414 1.390 . S
C1423 H1416 0.950 . S
C1423 C1420 1.387 . S
C1424 C1425 1.387 . S
C1424 H1428 0.950 . S
C1424 C1433 1.390 . S
C1425 C1424 1.387 . S
C1425 C1427 1.387 . S
H1426 C1433 0.950 . S
C1427 C1425 1.387 . S
C1427 C1429 1.390 . S
C1427 H1431 0.950 . S
H1428 C1424 0.950 . S
C1429 C1427 1.390 . S
C1429 C1430 1.387 . S
C1429 H1432 0.950 . S
C1430 C1429 1.387 . S
C1430 C1433 1.387 . S
H1431 C1427 0.950 . S
H1432 C1429 0.950 . S
C1433 C1424 1.390 . S
C1433 H1426 0.950 . S
C1433 C1430 1.387 . S
C1434 C1435 1.387 . S
C1434 H1438 0.950 . S
C1434 C1443 1.390 . S
C1435 C1434 1.387 . S
C1435 C1437 1.387 . S
H1436 C1443 0.950 . S
C1437 C1435 1.387 . S
C1437 C1439 1.390 . S
C1437 H1441 0.950 . S
H1438 C1434 0.950 . S
C1439 C1437 1.390 . S
C1439 C1440 1.387 . S
C1439 H1442 0.950 . S
C1440 C1439 1.387 . S
C1440 C1443 1.387 . S
H1441 C1437 0.950 . S
H1442 C1439 0.950 . S
C1443 C1434 1.390 . S
C1443 H1436 0.950 . S
C1443 C1440 1.387 . S
C1444 C1445 1.387 . S
C1444 H1448 0.950 . S
C1444 C1453 1.390 . S
C1445 C1444 1.387 . S
C1445 C1447 1.387 . S
H1446 C1453 0.950 . S
C1447 C1445 1.387 . S
C1447 C1449 1.390 . S
C1447 H1451 0.950 . S
H1448 C1444 0.950 . S
C1449 C1447 1.390 . S
C1449 C1450 1.387 . S
C1449 H1452 0.950 . S
C1450 C1449 1.387 . S
C1450 C1453 1.387 . S
H1451 C1447 0.950 . S
H1452 C1449 0.950 . S
C1453 C1444 1.390 . S
C1453 H1446 0.950 . S
C1453 C1450 1.387 . S
C1454 C1455 1.387 . S
C1454 H1458 0.950 . S
C1454 C1463 1.390 . S
C1455 C1454 1.387 . S
C1455 C1457 1.387 . S
H1456 C1463 0.950 1_554 S
C1457 C1455 1.387 . S
C1457 C1459 1.390 . S
C1457 H1461 0.950 . S
H1458 C1454 0.950 . S
C1459 C1457 1.390 . S
C1459 C1460 1.387 . S
C1459 H1462 0.950 . S
C1460 C1459 1.387 . S
C1460 C1463 1.387 . S
H1461 C1457 0.950 . S
H1462 C1459 0.950 . S
C1463 C1454 1.390 . S
C1463 H1456 0.950 1_556 S
C1463 C1460 1.387 . S
C1464 C1465 1.387 . S
C1464 H1468 0.950 . S
C1464 C1473 1.390 . S
C1465 C1464 1.387 . S
C1465 C1467 1.387 . S
H1466 C1473 0.950 . S
C1467 C1465 1.387 . S
C1467 C1469 1.390 . S
C1467 H1471 0.950 . S
H1468 C1464 0.950 . S
C1469 C1467 1.390 . S
C1469 C1470 1.387 . S
C1469 H1472 0.950 . S
C1470 C1469 1.387 . S
C1470 C1473 1.387 . S
H1471 C1467 0.950 . S
H1472 C1469 0.950 . S
C1473 C1464 1.390 . S
C1473 H1466 0.950 . S
C1473 C1470 1.387 . S
C1474 C1475 1.387 . S
C1474 H1478 0.950 . S
C1474 C1483 1.390 . S
C1475 C1474 1.387 . S
C1475 C1477 1.387 . S
H1476 C1483 0.950 . S
C1477 C1475 1.387 . S
C1477 C1479 1.390 . S
C1477 H1481 0.950 . S
H1478 C1474 0.950 . S
C1479 C1477 1.390 . S
C1479 C1480 1.387 . S
C1479 H1482 0.950 . S
C1480 C1479 1.387 . S
C1480 C1483 1.387 . S
H1481 C1477 0.950 . S
H1482 C1479 0.950 . S
C1483 C1474 1.390 . S
C1483 H1476 0.950 . S
C1483 C1480 1.387 . S
C1484 C1485 1.387 . S
C1484 H1488 0.950 . S
C1484 C1493 1.390 . S
C1485 C1484 1.387 . S
C1485 C1487 1.387 . S
H1486 C1493 0.950 . S
C1487 C1485 1.387 . S
C1487 C1489 1.390 . S
C1487 H1491 0.950 . S
H1488 C1484 0.950 . S
C1489 C1487 1.390 . S
C1489 C1490 1.387 . S
C1489 H1492 0.950 . S
C1490 C1489 1.387 . S
C1490 C1493 1.387 . S
H1491 C1487 0.950 . S
H1492 C1489 0.950 . S
C1493 C1484 1.390 . S
C1493 H1486 0.950 . S
C1493 C1490 1.387 . S
C1494 C1495 1.387 . S
C1494 H1498 0.950 . S
C1494 C1503 1.390 . S
C1495 C1494 1.387 . S
C1495 C1497 1.387 . S
H1496 C1503 0.950 1_556 S
C1497 C1495 1.387 . S
C1497 C1499 1.390 . S
C1497 H1501 0.950 . S
H1498 C1494 0.950 . S
C1499 C1497 1.390 . S
C1499 C1500 1.387 . S
C1499 H1502 0.950 . S
C1500 C1499 1.387 . S
C1500 C1503 1.387 . S
H1501 C1497 0.950 . S
H1502 C1499 0.950 . S
C1503 C1494 1.390 . S
C1503 H1496 0.950 1_554 S
C1503 C1500 1.387 . S
C1504 C1505 1.387 . S
C1504 H1508 0.950 . S
C1504 C1513 1.390 . S
C1505 C1504 1.387 . S
C1505 C1507 1.387 . S
H1506 C1513 0.950 . S
C1507 C1505 1.387 . S
C1507 C1509 1.390 . S
C1507 H1511 0.950 . S
H1508 C1504 0.950 . S
C1509 C1507 1.390 . S
C1509 C1510 1.387 . S
C1509 H1512 0.950 . S
C1510 C1509 1.387 . S
C1510 C1513 1.387 . S
H1511 C1507 0.950 . S
H1512 C1509 0.950 . S
C1513 C1504 1.390 . S
C1513 H1506 0.950 . S
C1513 C1510 1.387 . S
C1514 C1515 1.387 . S
C1514 H1518 0.950 . S
C1514 C1523 1.390 . S
C1515 C1514 1.387 . S
C1515 C1517 1.387 . S
H1516 C1523 0.950 . S
C1517 C1515 1.387 . S
C1517 C1519 1.390 . S
C1517 H1521 0.950 . S
H1518 C1514 0.950 . S
C1519 C1517 1.390 . S
C1519 C1520 1.387 . S
C1519 H1522 0.950 . S
C1520 C1519 1.387 . S
C1520 C1523 1.387 . S
H1521 C1517 0.950 . S
H1522 C1519 0.950 . S
C1523 C1514 1.390 . S
C1523 H1516 0.950 . S
C1523 C1520 1.387 . S
C1524 C1525 1.387 . S
C1524 H1528 0.950 . S
C1524 C1533 1.390 . S
C1525 C1524 1.387 . S
C1525 C1527 1.387 . S
H1526 C1533 0.950 . S
C1527 C1525 1.387 . S
C1527 C1529 1.390 . S
C1527 H1531 0.950 . S
H1528 C1524 0.950 . S
C1529 C1527 1.390 . S
C1529 C1530 1.387 . S
C1529 H1532 0.950 . S
C1530 C1529 1.387 . S
C1530 C1533 1.387 . S
H1531 C1527 0.950 . S
H1532 C1529 0.950 . S
C1533 C1524 1.390 . S
C1533 H1526 0.950 . S
C1533 C1530 1.387 . S
C1534 C1535 1.387 . S
C1534 H1538 0.950 . S
C1534 C1543 1.390 . S
C1535 C1534 1.387 . S
C1535 C1537 1.387 . S
H1536 C1543 0.950 . S
C1537 C1535 1.387 . S
C1537 C1539 1.390 . S
C1537 H1541 0.950 . S
H1538 C1534 0.950 . S
C1539 C1537 1.390 . S
C1539 C1540 1.387 . S
C1539 H1542 0.950 . S
C1540 C1539 1.387 . S
C1540 C1543 1.387 . S
H1541 C1537 0.950 . S
H1542 C1539 0.950 . S
C1543 C1534 1.390 . S
C1543 H1536 0.950 . S
C1543 C1540 1.387 . S
C1544 C1545 1.387 . S
C1544 H1548 0.950 . S
C1544 C1553 1.390 . S
C1545 C1544 1.387 . S
C1545 C1547 1.387 . S
H1546 C1553 0.950 . S
C1547 C1545 1.387 . S
C1547 C1549 1.390 . S
C1547 H1551 0.950 . S
H1548 C1544 0.950 . S
C1549 C1547 1.390 . S
C1549 C1550 1.387 . S
C1549 H1552 0.946 1_545 S
C1550 C1549 1.387 . S
C1550 C1553 1.387 . S
H1551 C1547 0.950 . S
H1552 C1549 0.946 1_565 S
C1553 C1544 1.390 . S
C1553 H1546 0.950 . S
C1553 C1550 1.387 . S
C1554 C1555 1.387 . S
C1554 H1558 0.950 . S
C1554 C1563 1.390 . S
C1555 C1554 1.387 . S
C1555 C1557 1.387 . S
H1556 C1563 0.950 . S
C1557 C1555 1.387 . S
C1557 C1559 1.390 . S
C1557 H1561 0.950 . S
H1558 C1554 0.950 . S
C1559 C1557 1.390 . S
C1559 C1560 1.387 . S
C1559 H1562 0.950 . S
C1560 C1559 1.387 . S
C1560 C1563 1.387 . S
H1561 C1557 0.950 . S
H1562 C1559 0.950 . S
C1563 C1554 1.390 . S
C1563 H1556 0.950 . S
C1563 C1560 1.387 . S
C1564 C1565 1.387 . S
C1564 H1568 0.950 . S
C1564 C1573 1.390 . S
C1565 C1564 1.387 . S
C1565 C1567 1.387 . S
H1566 C1573 0.950 . S
C1567 C1565 1.387 . S
C1567 C1569 1.390 . S
C1567 H1571 0.950 . S
H1568 C1564 0.950 . S
C1569 C1567 1.390 . S
C1569 C1570 1.387 . S
C1569 H1572 0.950 . S
C1570 C1569 1.387 . S
C1570 C1573 1.387 . S
H1571 C1567 0.950 . S
H1572 C1569 0.950 . S
C1573 C1564 1.390 . S
C1573 H1566 0.950 . S
C1573 C1570 1.387 . S
C1574 C1575 1.387 . S
C1574 H1578 0.950 . S
C1574 C1583 1.390 . S
C1575 C1574 1.387 . S
C1575 C1577 1.387 . S
H1576 C1583 0.950 . S
C1577 C1575 1.387 . S
C1577 C1579 1.390 . S
C1577 H1581 0.950 . S
H1578 C1574 0.950 . S
C1579 C1577 1.390 . S
C1579 C1580 1.387 . S
C1579 H1582 0.950 . S
C1580 C1579 1.387 . S
C1580 C1583 1.387 . S
H1581 C1577 0.950 . S
H1582 C1579 0.950 . S
C1583 C1574 1.390 . S
C1583 H1576 0.950 . S
C1583 C1580 1.387 . S
C1584 C1585 1.387 . S
C1584 H1588 0.950 . S
C1584 C1593 1.390 . S
C1585 C1584 1.387 . S
C1585 C1587 1.387 . S
H1586 C1593 0.950 . S
C1587 C1585 1.387 . S
C1587 C1589 1.390 . S
C1587 H1591 0.950 . S
H1588 C1584 0.950 . S
C1589 C1587 1.390 . S
C1589 C1590 1.387 . S
C1589 H1592 0.950 . S
C1590 C1589 1.387 . S
C1590 C1593 1.387 . S
H1591 C1587 0.950 . S
H1592 C1589 0.950 . S
C1593 C1584 1.390 . S
C1593 H1586 0.950 . S
C1593 C1590 1.387 . S
C1594 C1595 1.387 . S
C1594 H1598 0.950 . S
C1594 C1603 1.390 . S
C1595 C1594 1.387 . S
C1595 C1597 1.387 . S
H1596 C1603 0.950 . S
C1597 C1595 1.387 . S
C1597 C1599 1.390 . S
C1597 H1601 0.950 . S
H1598 C1594 0.950 . S
C1599 C1597 1.390 . S
C1599 C1600 1.387 . S
C1599 H1602 0.950 . S
C1600 C1599 1.387 . S
C1600 C1603 1.387 . S
H1601 C1597 0.950 . S
H1602 C1599 0.950 . S
C1603 C1594 1.390 . S
C1603 H1596 0.950 . S
C1603 C1600 1.387 . S
C1604 C1605 1.387 . S
C1604 H1608 0.950 . S
C1604 C1613 1.390 . S
C1605 C1604 1.387 . S
C1605 C1607 1.387 . S
H1606 C1613 0.950 . S
C1607 C1605 1.387 . S
C1607 C1609 1.390 . S
C1607 H1611 0.950 . S
H1608 C1604 0.950 . S
C1609 C1607 1.390 . S
C1609 C1610 1.387 . S
C1609 H1612 0.950 . S
C1610 C1609 1.387 . S
C1610 C1613 1.387 . S
H1611 C1607 0.950 . S
H1612 C1609 0.950 . S
C1613 C1604 1.390 . S
C1613 H1606 0.950 . S
C1613 C1610 1.387 . S
C1614 C1615 1.387 . S
C1614 H1618 0.950 . S
C1614 C1623 1.390 . S
C1615 C1614 1.387 . S
C1615 C1617 1.387 . S
H1616 C1623 0.950 . S
C1617 C1615 1.387 . S
C1617 C1619 1.390 . S
C1617 H1621 0.950 . S
H1618 C1614 0.950 . S
C1619 C1617 1.390 . S
C1619 C1620 1.387 . S
C1619 H1622 0.950 . S
C1620 C1619 1.387 . S
C1620 C1623 1.387 . S
H1621 C1617 0.950 . S
H1622 C1619 0.950 . S
C1623 C1614 1.390 . S
C1623 H1616 0.950 . S
C1623 C1620 1.387 . S
C1624 C1625 1.387 . S
C1624 H1628 0.950 . S
C1624 C1633 1.390 . S
C1625 C1624 1.387 . S
C1625 C1627 1.387 . S
H1626 C1633 0.950 . S
C1627 C1625 1.387 . S
C1627 C1629 1.390 . S
C1627 H1631 0.950 . S
H1628 C1624 0.950 . S
C1629 C1627 1.390 . S
C1629 C1630 1.387 . S
C1629 H1632 0.950 . S
C1630 C1629 1.387 . S
C1630 C1633 1.387 . S
H1631 C1627 0.950 . S
H1632 C1629 0.950 . S
C1633 C1624 1.390 . S
C1633 H1626 0.950 . S
C1633 C1630 1.387 . S
C1634 C1635 1.387 . S
C1634 H1638 0.950 . S
C1634 C1643 1.390 . S
C1635 C1634 1.387 . S
C1635 C1637 1.387 . S
H1636 C1643 0.950 . S
C1637 C1635 1.387 . S
C1637 C1639 1.390 . S
C1637 H1641 0.950 . S
H1638 C1634 0.950 . S
C1639 C1637 1.390 . S
C1639 C1640 1.387 . S
C1639 H1642 0.950 . S
C1640 C1639 1.387 . S
C1640 C1643 1.387 . S
H1641 C1637 0.950 . S
H1642 C1639 0.950 . S
C1643 C1634 1.390 . S
C1643 H1636 0.950 . S
C1643 C1640 1.387 . S
C1644 C1645 1.387 . S
C1644 H1648 0.950 . S
C1644 C1653 1.390 . S
C1645 C1644 1.387 . S
C1645 C1647 1.387 . S
H1646 C1653 0.950 . S
C1647 C1645 1.387 . S
C1647 C1649 1.390 . S
C1647 H1651 0.950 . S
H1648 C1644 0.950 . S
C1649 C1647 1.390 . S
C1649 C1650 1.387 . S
C1649 H1652 0.950 . S
C1650 C1649 1.387 . S
C1650 C1653 1.387 . S
H1651 C1647 0.950 . S
H1652 C1649 0.950 . S
C1653 C1644 1.390 . S
C1653 H1646 0.950 . S
C1653 C1650 1.387 . S
C1654 C1655 1.387 . S
C1654 H1658 0.950 . S
C1654 C1663 1.390 . S
C1655 C1654 1.387 . S
C1655 C1657 1.387 . S
H1656 C1663 0.950 . S
C1657 C1655 1.387 . S
C1657 C1659 1.390 . S
C1657 H1661 0.950 . S
H1658 C1654 0.950 . S
C1659 C1657 1.390 . S
C1659 C1660 1.387 . S
C1659 H1662 0.950 . S
C1660 C1659 1.387 . S
C1660 C1663 1.387 . S
H1661 C1657 0.950 . S
H1662 C1659 0.950 . S
C1663 C1654 1.390 . S
C1663 H1656 0.950 . S
C1663 C1660 1.387 . S
C1664 C1665 1.387 . S
C1664 H1668 0.950 . S
C1664 C1673 1.390 . S
C1665 C1664 1.387 . S
C1665 C1667 1.387 . S
H1666 C1673 0.950 . S
C1667 C1665 1.387 . S
C1667 C1669 1.390 . S
C1667 H1671 0.950 . S
H1668 C1664 0.950 . S
C1669 C1667 1.390 . S
C1669 C1670 1.387 . S
C1669 H1672 0.950 . S
C1670 C1669 1.387 . S
C1670 C1673 1.387 . S
H1671 C1667 0.950 . S
H1672 C1669 0.950 . S
C1673 C1664 1.390 . S
C1673 H1666 0.950 . S
C1673 C1670 1.387 . S
C1674 C1675 1.387 . S
C1674 H1678 0.950 . S
C1674 C1683 1.390 . S
C1675 C1674 1.387 . S
C1675 C1677 1.387 . S
H1676 C1683 0.950 . S
C1677 C1675 1.387 . S
C1677 C1679 1.390 . S
C1677 H1681 0.950 . S
H1678 C1674 0.950 . S
C1679 C1677 1.390 . S
C1679 C1680 1.387 . S
C1679 H1682 0.950 . S
C1680 C1679 1.387 . S
C1680 C1683 1.387 . S
H1681 C1677 0.950 . S
H1682 C1679 0.950 . S
C1683 C1674 1.390 . S
C1683 H1676 0.950 . S
C1683 C1680 1.387 . S
C1684 C1685 1.387 . S
C1684 H1688 0.950 . S
C1684 C1693 1.390 . S
C1685 C1684 1.387 . S
C1685 C1687 1.387 . S
H1686 C1693 0.950 . S
C1687 C1685 1.387 . S
C1687 C1689 1.390 . S
C1687 H1691 0.950 . S
H1688 C1684 0.950 . S
C1689 C1687 1.390 . S
C1689 C1690 1.387 . S
C1689 H1692 0.950 . S
C1690 C1689 1.387 . S
C1690 C1693 1.387 . S
H1691 C1687 0.950 . S
H1692 C1689 0.950 . S
C1693 C1684 1.390 . S
C1693 H1686 0.950 . S
C1693 C1690 1.387 . S
C1694 C1695 1.387 . S
C1694 H1698 0.950 . S
C1694 C1703 1.390 . S
C1695 C1694 1.387 . S
C1695 C1697 1.387 . S
H1696 C1703 0.950 . S
C1697 C1695 1.387 . S
C1697 C1699 1.390 . S
C1697 H1701 0.950 . S
H1698 C1694 0.950 . S
C1699 C1697 1.390 . S
C1699 C1700 1.387 . S
C1699 H1702 0.950 . S
C1700 C1699 1.387 . S
C1700 C1703 1.387 . S
H1701 C1697 0.950 . S
H1702 C1699 0.950 . S
C1703 C1694 1.390 . S
C1703 H1696 0.950 . S
C1703 C1700 1.387 . S
C1704 C1705 1.387 . S
C1704 H1708 0.950 . S
C1704 C1713 1.390 . S
C1705 C1704 1.387 . S
C1705 C1707 1.387 . S
H1706 C1713 0.950 . S
C1707 C1705 1.387 . S
C1707 C1709 1.390 . S
C1707 H1711 0.950 . S
H1708 C1704 0.950 . S
C1709 C1707 1.390 . S
C1709 C1710 1.387 . S
C1709 H1712 0.950 . S
C1710 C1709 1.387 . S
C1710 C1713 1.387 . S
H1711 C1707 0.950 . S
H1712 C1709 0.950 . S
C1713 C1704 1.390 . S
C1713 H1706 0.950 . S
C1713 C1710 1.387 . S
C1714 C1715 1.387 . S
C1714 H1718 0.950 . S
C1714 C1723 1.390 . S
C1715 C1714 1.387 . S
C1715 C1717 1.387 . S
H1716 C1723 0.950 . S
C1717 C1715 1.387 . S
C1717 C1719 1.390 . S
C1717 H1721 0.950 . S
H1718 C1714 0.950 . S
C1719 C1717 1.390 . S
C1719 C1720 1.387 . S
C1719 H1722 0.950 . S
C1720 C1719 1.387 . S
C1720 C1723 1.387 . S
H1721 C1717 0.950 . S
H1722 C1719 0.950 . S
C1723 C1714 1.390 . S
C1723 H1716 0.950 . S
C1723 C1720 1.387 . S
C1724 C1725 1.387 . S
C1724 H1728 0.950 . S
C1724 C1733 1.390 . S
C1725 C1724 1.387 . S
C1725 C1727 1.387 . S
H1726 C1733 0.950 . S
C1727 C1725 1.387 . S
C1727 C1729 1.390 . S
C1727 H1731 0.950 . S
H1728 C1724 0.950 . S
C1729 C1727 1.390 . S
C1729 C1730 1.387 . S
C1729 H1732 0.950 . S
C1730 C1729 1.387 . S
C1730 C1733 1.387 . S
H1731 C1727 0.950 . S
H1732 C1729 0.950 . S
C1733 C1724 1.390 . S
C1733 H1726 0.950 . S
C1733 C1730 1.387 . S
C1734 C1735 1.384 1_554 S
C1734 H1738 0.964 . S
C1734 C1743 1.380 1_554 S
C1735 C1734 1.384 1_556 S
C1735 C1737 1.387 . S
H1736 C1743 0.950 . S
C1737 C1735 1.387 . S
C1737 C1739 1.390 . S
C1737 H1741 0.950 . S
H1738 C1734 0.964 . S
C1739 C1737 1.390 . S
C1739 C1740 1.387 . S
C1739 H1742 0.950 . S
C1740 C1739 1.387 . S
C1740 C1743 1.387 . S
H1741 C1737 0.950 . S
H1742 C1739 0.950 . S
C1743 C1734 1.380 1_556 S
C1743 H1736 0.950 . S
C1743 C1740 1.387 . S
C1744 C1745 1.387 . S
C1744 H1748 0.950 . S
C1744 C1753 1.390 . S
C1745 C1744 1.387 . S
C1745 C1747 1.387 . S
H1746 C1753 0.950 . S
C1747 C1745 1.387 . S
C1747 C1749 1.390 . S
C1747 H1751 0.950 . S
H1748 C1744 0.950 . S
C1749 C1747 1.390 . S
C1749 C1750 1.387 . S
C1749 H1752 0.950 . S
C1750 C1749 1.387 . S
C1750 C1753 1.387 . S
H1751 C1747 0.950 . S
H1752 C1749 0.950 . S
C1753 C1744 1.390 . S
C1753 H1746 0.950 . S
C1753 C1750 1.387 . S
C1754 C1755 1.387 . S
C1754 H1758 0.950 . S
C1754 C1763 1.390 . S
C1755 C1754 1.387 . S
C1755 C1757 1.387 . S
H1756 C1763 0.950 . S
C1757 C1755 1.387 . S
C1757 C1759 1.390 . S
C1757 H1761 0.950 . S
H1758 C1754 0.950 . S
C1759 C1757 1.390 . S
C1759 C1760 1.387 . S
C1759 H1762 0.950 . S
C1760 C1759 1.387 . S
C1760 C1763 1.387 . S
H1761 C1757 0.950 . S
H1762 C1759 0.950 . S
C1763 C1754 1.390 . S
C1763 H1756 0.950 . S
C1763 C1760 1.387 . S
C1764 C1765 1.387 . S
C1764 H1768 0.950 . S
C1764 C1773 1.390 . S
C1765 C1764 1.387 . S
C1765 C1767 1.387 . S
H1766 C1773 0.950 . S
C1767 C1765 1.387 . S
C1767 C1769 1.390 . S
C1767 H1771 0.950 . S
H1768 C1764 0.950 . S
C1769 C1767 1.390 . S
C1769 C1770 1.387 . S
C1769 H1772 0.950 . S
C1770 C1769 1.387 . S
C1770 C1773 1.387 . S
H1771 C1767 0.950 . S
H1772 C1769 0.950 . S
C1773 C1764 1.390 . S
C1773 H1766 0.950 . S
C1773 C1770 1.387 . S
C1774 C1775 1.387 . S
C1774 H1778 0.950 . S
C1774 C1783 1.390 . S
C1775 C1774 1.387 . S
C1775 C1777 1.387 . S
H1776 C1783 0.950 . S
C1777 C1775 1.387 . S
C1777 C1779 1.390 . S
C1777 H1781 0.950 . S
H1778 C1774 0.950 . S
C1779 C1777 1.390 . S
C1779 C1780 1.387 . S
C1779 H1782 0.950 . S
C1780 C1779 1.387 . S
C1780 C1783 1.387 . S
H1781 C1777 0.950 . S
H1782 C1779 0.950 . S
C1783 C1774 1.390 . S
C1783 H1776 0.950 . S
C1783 C1780 1.387 . S
C1784 C1785 1.387 . S
C1784 H1788 0.950 . S
C1784 C1793 1.390 . S
C1785 C1784 1.387 . S
C1785 C1787 1.387 . S
H1786 C1793 0.950 1_545 S
C1787 C1785 1.387 . S
C1787 C1789 1.390 . S
C1787 H1791 0.950 . S
H1788 C1784 0.950 . S
C1789 C1787 1.390 . S
C1789 C1790 1.387 . S
C1789 H1792 0.950 . S
C1790 C1789 1.387 . S
C1790 C1793 1.387 . S
H1791 C1787 0.950 . S
H1792 C1789 0.950 . S
C1793 C1784 1.390 . S
C1793 H1786 0.950 1_565 S
C1793 C1790 1.387 . S
C1794 C1795 1.387 . S
C1794 H1798 0.950 . S
C1794 C1803 1.390 . S
C1795 C1794 1.387 . S
C1795 C1797 1.387 . S
H1796 C1803 0.950 . S
C1797 C1795 1.387 . S
C1797 C1799 1.390 . S
C1797 H1801 0.950 . S
H1798 C1794 0.950 . S
C1799 C1797 1.390 . S
C1799 C1800 1.387 . S
C1799 H1802 0.950 . S
C1800 C1799 1.387 . S
C1800 C1803 1.387 . S
H1801 C1797 0.950 . S
H1802 C1799 0.950 . S
C1803 C1794 1.390 . S
C1803 H1796 0.950 . S
C1803 C1800 1.387 . S
C1804 C1805 1.387 . S
C1804 H1808 0.950 . S
C1804 C1813 1.390 . S
C1805 C1804 1.387 . S
C1805 C1807 1.387 . S
H1806 C1813 0.950 . S
C1807 C1805 1.387 . S
C1807 C1809 1.390 . S
C1807 H1811 0.950 . S
H1808 C1804 0.950 . S
C1809 C1807 1.390 . S
C1809 C1810 1.387 . S
C1809 H1812 0.950 . S
C1810 C1809 1.387 . S
C1810 C1813 1.387 . S
H1811 C1807 0.950 . S
H1812 C1809 0.950 . S
C1813 C1804 1.390 . S
C1813 H1806 0.950 . S
C1813 C1810 1.387 . S
C1814 C1815 1.387 . S
C1814 H1818 0.950 . S
C1814 C1823 1.390 . S
C1815 C1814 1.387 . S
C1815 C1817 1.387 . S
H1816 C1823 0.950 . S
C1817 C1815 1.387 . S
C1817 C1819 1.390 . S
C1817 H1821 0.950 . S
H1818 C1814 0.950 . S
C1819 C1817 1.390 . S
C1819 C1820 1.387 . S
C1819 H1822 0.950 . S
C1820 C1819 1.387 . S
C1820 C1823 1.387 . S
H1821 C1817 0.950 . S
H1822 C1819 0.950 . S
C1823 C1814 1.390 . S
C1823 H1816 0.950 . S
C1823 C1820 1.387 . S
C1824 C1825 1.387 . S
C1824 H1828 0.950 . S
C1824 C1833 1.390 . S
C1825 C1824 1.387 . S
C1825 C1827 1.387 . S
H1826 C1833 0.950 . S
C1827 C1825 1.387 . S
C1827 C1829 1.390 . S
C1827 H1831 0.950 . S
H1828 C1824 0.950 . S
C1829 C1827 1.390 . S
C1829 C1830 1.387 . S
C1829 H1832 0.950 . S
C1830 C1829 1.387 . S
C1830 C1833 1.387 . S
H1831 C1827 0.950 . S
H1832 C1829 0.950 . S
C1833 C1824 1.390 . S
C1833 H1826 0.950 . S
C1833 C1830 1.387 . S
C1834 C1835 1.387 . S
C1834 H1838 0.950 . S
C1834 C1843 1.390 . S
C1835 C1834 1.387 . S
C1835 C1837 1.387 . S
H1836 C1843 0.950 . S
C1837 C1835 1.387 . S
C1837 C1839 1.390 . S
C1837 H1841 0.950 . S
H1838 C1834 0.950 . S
C1839 C1837 1.390 . S
C1839 C1840 1.387 . S
C1839 H1842 0.950 . S
C1840 C1839 1.387 . S
C1840 C1843 1.387 . S
H1841 C1837 0.950 . S
H1842 C1839 0.950 . S
C1843 C1834 1.390 . S
C1843 H1836 0.950 . S
C1843 C1840 1.387 . S
C1844 C1845 1.387 . S
C1844 H1848 0.950 . S
C1844 C1853 1.390 . S
C1845 C1844 1.387 . S
C1845 C1847 1.387 . S
H1846 C1853 0.950 . S
C1847 C1845 1.387 . S
C1847 C1849 1.390 . S
C1847 H1851 0.950 . S
H1848 C1844 0.950 . S
C1849 C1847 1.390 . S
C1849 C1850 1.387 . S
C1849 H1852 0.950 . S
C1850 C1849 1.387 . S
C1850 C1853 1.387 . S
H1851 C1847 0.950 . S
H1852 C1849 0.950 . S
C1853 C1844 1.390 . S
C1853 H1846 0.950 . S
C1853 C1850 1.387 . S
C1854 C1855 1.387 . S
C1854 H1858 0.966 . S
C1854 C1863 1.390 . S
C1855 C1854 1.387 . S
C1855 C1857 1.387 . S
H1856 C1863 0.950 . S
C1857 C1855 1.387 . S
C1857 C1859 1.390 . S
C1857 H1861 0.950 . S
H1858 C1854 0.966 . S
C1859 C1857 1.390 . S
C1859 C1860 1.387 . S
C1859 H1862 0.950 . S
C1860 C1859 1.387 . S
C1860 C1863 1.387 . S
H1861 C1857 0.950 . S
H1862 C1859 0.950 . S
C1863 C1854 1.390 . S
C1863 H1856 0.950 . S
C1863 C1860 1.387 . S
C1864 C1865 1.387 . S
C1864 H1868 0.950 . S
C1864 C1873 1.390 . S
C1865 C1864 1.387 . S
C1865 C1867 1.387 . S
H1866 C1873 0.950 . S
C1867 C1865 1.387 . S
C1867 C1869 1.390 . S
C1867 H1871 0.950 . S
H1868 C1864 0.950 . S
C1869 C1867 1.390 . S
C1869 C1870 1.387 . S
C1869 H1872 0.950 . S
C1870 C1869 1.387 . S
C1870 C1873 1.387 . S
H1871 C1867 0.950 . S
H1872 C1869 0.950 . S
C1873 C1864 1.390 . S
C1873 H1866 0.950 . S
C1873 C1870 1.387 . S
C1874 C1875 1.387 . S
C1874 H1878 0.950 . S
C1874 C1883 1.390 . S
C1875 C1874 1.387 . S
C1875 C1877 1.387 . S
H1876 C1883 0.950 . S
C1877 C1875 1.387 . S
C1877 C1879 1.390 . S
C1877 H1881 0.950 . S
H1878 C1874 0.950 . S
C1879 C1877 1.390 . S
C1879 C1880 1.387 . S
C1879 H1882 0.950 . S
C1880 C1879 1.387 . S
C1880 C1883 1.387 . S
H1881 C1877 0.950 . S
H1882 C1879 0.950 . S
C1883 C1874 1.390 . S
C1883 H1876 0.950 . S
C1883 C1880 1.387 . S
C1884 C1885 1.387 . S
C1884 H1888 0.950 . S
C1884 C1893 1.390 . S
C1885 C1884 1.387 . S
C1885 C1887 1.387 . S
H1886 C1893 0.950 . S
C1887 C1885 1.387 . S
C1887 C1889 1.390 . S
C1887 H1891 0.950 . S
H1888 C1884 0.950 . S
C1889 C1887 1.390 . S
C1889 C1890 1.387 . S
C1889 H1892 0.950 . S
C1890 C1889 1.387 . S
C1890 C1893 1.387 . S
H1891 C1887 0.950 . S
H1892 C1889 0.950 . S
C1893 C1884 1.390 . S
C1893 H1886 0.950 . S
C1893 C1890 1.387 . S
C1894 C1895 1.387 . S
C1894 H1898 0.950 . S
C1894 C1903 1.390 . S
C1895 C1894 1.387 . S
C1895 C1897 1.387 . S
H1896 C1903 0.950 . S
C1897 C1895 1.387 . S
C1897 C1899 1.390 . S
C1897 H1901 0.950 . S
H1898 C1894 0.950 . S
C1899 C1897 1.390 . S
C1899 C1900 1.387 . S
C1899 H1902 0.950 . S
C1900 C1899 1.387 . S
C1900 C1903 1.387 . S
H1901 C1897 0.950 . S
H1902 C1899 0.950 . S
C1903 C1894 1.390 . S
C1903 H1896 0.950 . S
C1903 C1900 1.387 . S
C1904 C1905 1.387 . S
C1904 H1908 0.950 . S
C1904 C1913 1.390 . S
C1905 C1904 1.387 . S
C1905 C1907 1.387 . S
H1906 C1913 0.950 . S
C1907 C1905 1.387 . S
C1907 C1909 1.390 . S
C1907 H1911 0.950 . S
H1908 C1904 0.950 . S
C1909 C1907 1.390 . S
C1909 C1910 1.387 . S
C1909 H1912 0.950 . S
C1910 C1909 1.387 . S
C1910 C1913 1.387 . S
H1911 C1907 0.950 . S
H1912 C1909 0.950 . S
C1913 C1904 1.390 . S
C1913 H1906 0.950 . S
C1913 C1910 1.387 . S
C1914 C1915 1.387 . S
C1914 H1918 0.950 . S
C1914 C1923 1.390 . S
C1915 C1914 1.387 . S
C1915 C1917 1.387 . S
H1916 C1923 0.950 . S
C1917 C1915 1.387 . S
C1917 C1919 1.390 . S
C1917 H1921 0.950 . S
H1918 C1914 0.950 . S
C1919 C1917 1.390 . S
C1919 C1920 1.387 . S
C1919 H1922 0.950 1_556 S
C1920 C1919 1.387 . S
C1920 C1923 1.387 . S
H1921 C1917 0.950 . S
H1922 C1919 0.950 1_554 S
C1923 C1914 1.390 . S
C1923 H1916 0.950 . S
C1923 C1920 1.387 . S
C1924 C1925 1.387 . S
C1924 H1928 0.950 . S
C1924 C1933 1.390 . S
C1925 C1924 1.387 . S
C1925 C1927 1.387 . S
H1926 C1933 0.950 . S
C1927 C1925 1.387 . S
C1927 C1929 1.390 . S
C1927 H1931 0.950 . S
H1928 C1924 0.950 . S
C1929 C1927 1.390 . S
C1929 C1930 1.387 . S
C1929 H1932 0.950 . S
C1930 C1929 1.387 . S
C1930 C1933 1.387 . S
H1931 C1927 0.950 . S
H1932 C1929 0.950 . S
C1933 C1924 1.390 . S
C1933 H1926 0.950 . S
C1933 C1930 1.387 . S
C1934 C1935 1.387 . S
C1934 H1938 0.950 . S
C1934 C1943 1.390 . S
C1935 C1934 1.387 . S
C1935 C1937 1.387 . S
H1936 C1943 0.950 . S
C1937 C1935 1.387 . S
C1937 C1939 1.390 . S
C1937 H1941 0.950 . S
H1938 C1934 0.950 . S
C1939 C1937 1.390 . S
C1939 C1940 1.387 . S
C1939 H1942 0.950 . S
C1940 C1939 1.387 . S
C1940 C1943 1.387 . S
H1941 C1937 0.950 . S
H1942 C1939 0.950 . S
C1943 C1934 1.390 . S
C1943 H1936 0.950 . S
C1943 C1940 1.387 . S
C1944 C1945 1.387 . S
C1944 H1948 0.950 . S
C1944 C1953 1.390 . S
C1945 C1944 1.387 . S
C1945 C1947 1.387 . S
H1946 C1953 0.950 . S
C1947 C1945 1.387 . S
C1947 C1949 1.390 . S
C1947 H1951 0.950 . S
H1948 C1944 0.950 . S
C1949 C1947 1.390 . S
C1949 C1950 1.387 . S
C1949 H1952 0.950 . S
C1950 C1949 1.387 . S
C1950 C1953 1.387 . S
H1951 C1947 0.950 . S
H1952 C1949 0.950 . S
C1953 C1944 1.390 . S
C1953 H1946 0.950 . S
C1953 C1950 1.387 . S
C1954 C1955 1.387 . S
C1954 H1958 0.950 . S
C1954 C1963 1.390 . S
C1955 C1954 1.387 . S
C1955 C1957 1.387 . S
H1956 C1963 0.950 1_556 S
C1957 C1955 1.387 . S
C1957 C1959 1.390 . S
C1957 H1961 0.950 . S
H1958 C1954 0.950 . S
C1959 C1957 1.390 . S
C1959 C1960 1.387 . S
C1959 H1962 0.950 . S
C1960 C1959 1.387 . S
C1960 C1963 1.387 . S
H1961 C1957 0.950 . S
H1962 C1959 0.950 . S
C1963 C1954 1.390 . S
C1963 H1956 0.950 1_554 S
C1963 C1960 1.387 . S
C1964 C1965 1.387 . S
C1964 H1968 0.950 . S
C1964 C1973 1.390 . S
C1965 C1964 1.387 . S
C1965 C1967 1.387 . S
H1966 C1973 0.950 . S
C1967 C1965 1.387 . S
C1967 C1969 1.390 . S
C1967 H1971 0.950 . S
H1968 C1964 0.950 . S
C1969 C1967 1.390 . S
C1969 C1970 1.387 . S
C1969 H1972 0.950 . S
C1970 C1969 1.387 . S
C1970 C1973 1.387 . S
H1971 C1967 0.950 . S
H1972 C1969 0.950 . S
C1973 C1964 1.390 . S
C1973 H1966 0.950 . S
C1973 C1970 1.387 . S
C1974 C1975 1.387 . S
C1974 H1978 0.950 . S
C1974 C1983 1.390 . S
C1975 C1974 1.387 . S
C1975 C1977 1.387 . S
H1976 C1983 0.950 . S
C1977 C1975 1.387 . S
C1977 C1979 1.390 . S
C1977 H1981 0.950 . S
H1978 C1974 0.950 . S
C1979 C1977 1.390 . S
C1979 C1980 1.387 . S
C1979 H1982 0.950 . S
C1980 C1979 1.387 . S
C1980 C1983 1.387 . S
H1981 C1977 0.950 . S
H1982 C1979 0.950 . S
C1983 C1974 1.390 . S
C1983 H1976 0.950 . S
C1983 C1980 1.387 . S
C1984 C1985 1.387 . S
C1984 H1988 0.950 . S
C1984 C1993 1.390 . S
C1985 C1984 1.387 . S
C1985 C1987 1.387 . S
H1986 C1993 0.950 . S
C1987 C1985 1.387 . S
C1987 C1989 1.390 . S
C1987 H1991 0.950 . S
H1988 C1984 0.950 . S
C1989 C1987 1.390 . S
C1989 C1990 1.387 . S
C1989 H1992 0.950 . S
C1990 C1989 1.387 . S
C1990 C1993 1.387 . S
H1991 C1987 0.950 . S
H1992 C1989 0.950 . S
C1993 C1984 1.390 . S
C1993 H1986 0.950 . S
C1993 C1990 1.387 . S
C1994 C1995 1.387 . S
C1994 H1998 0.950 . S
C1994 C2003 1.390 . S
C1995 C1994 1.387 . S
C1995 C1997 1.387 . S
H1996 C2003 0.950 . S
C1997 C1995 1.387 . S
C1997 C1999 1.390 . S
C1997 H2001 0.950 . S
H1998 C1994 0.950 . S
C1999 C1997 1.390 . S
C1999 C2000 1.387 . S
C1999 H2002 0.950 . S
C2000 C1999 1.387 . S
C2000 C2003 1.387 . S
H2001 C1997 0.950 . S
H2002 C1999 0.950 . S
C2003 C1994 1.390 . S
C2003 H1996 0.950 . S
C2003 C2000 1.387 . S
C2004 C2005 1.387 . S
C2004 H2008 0.950 . S
C2004 C2013 1.390 . S
C2005 C2004 1.387 . S
C2005 C2007 1.387 . S
H2006 C2013 0.950 . S
C2007 C2005 1.387 . S
C2007 C2009 1.390 . S
C2007 H2011 0.950 . S
H2008 C2004 0.950 . S
C2009 C2007 1.390 . S
C2009 C2010 1.387 . S
C2009 H2012 0.956 . S
C2010 C2009 1.387 . S
C2010 C2013 1.387 . S
H2011 C2007 0.950 . S
H2012 C2009 0.956 . S
C2013 C2004 1.390 . S
C2013 H2006 0.950 . S
C2013 C2010 1.387 . S
C2014 C2015 1.387 . S
C2014 H2018 0.950 . S
C2014 C2023 1.390 . S
C2015 C2014 1.387 . S
C2015 C2017 1.387 . S
H2016 C2023 0.950 . S
C2017 C2015 1.387 . S
C2017 C2019 1.390 . S
C2017 H2021 0.950 . S
H2018 C2014 0.950 . S
C2019 C2017 1.390 . S
C2019 C2020 1.387 . S
C2019 H2022 0.950 . S
C2020 C2019 1.387 . S
C2020 C2023 1.387 . S
H2021 C2017 0.950 . S
H2022 C2019 0.950 . S
C2023 C2014 1.390 . S
C2023 H2016 0.950 . S
C2023 C2020 1.387 . S
C2024 C2025 1.387 . S
C2024 H2028 0.950 . S
C2024 C2033 1.390 . S
C2025 C2024 1.387 . S
C2025 C2027 1.387 . S
H2026 C2033 0.950 . S
C2027 C2025 1.387 . S
C2027 C2029 1.390 . S
C2027 H2031 0.950 . S
H2028 C2024 0.950 . S
C2029 C2027 1.390 . S
C2029 C2030 1.387 . S
C2029 H2032 0.950 . S
C2030 C2029 1.387 . S
C2030 C2033 1.387 . S
H2031 C2027 0.950 . S
H2032 C2029 0.950 . S
C2033 C2024 1.390 . S
C2033 H2026 0.950 . S
C2033 C2030 1.387 . S
C2034 C2035 1.387 . S
C2034 H2038 0.950 . S
C2034 C2043 1.390 . S
C2035 C2034 1.387 . S
C2035 C2037 1.387 . S
H2036 C2043 0.950 . S
C2037 C2035 1.387 . S
C2037 C2039 1.390 . S
C2037 H2041 0.950 . S
H2038 C2034 0.950 . S
C2039 C2037 1.390 . S
C2039 C2040 1.387 . S
C2039 H2042 0.950 . S
C2040 C2039 1.387 . S
C2040 C2043 1.387 . S
H2041 C2037 0.950 . S
H2042 C2039 0.950 . S
C2043 C2034 1.390 . S
C2043 H2036 0.950 . S
C2043 C2040 1.387 . S
C2044 C2045 1.387 . S
C2044 H2048 0.978 . S
C2044 C2053 1.390 . S
C2045 C2044 1.387 . S
C2045 C2047 1.387 . S
H2046 C2053 0.950 . S
C2047 C2045 1.387 . S
C2047 C2049 1.390 . S
C2047 H2051 0.950 . S
H2048 C2044 0.978 . S
C2049 C2047 1.390 . S
C2049 C2050 1.387 . S
C2049 H2052 0.950 . S
C2050 C2049 1.387 . S
C2050 C2053 1.387 . S
H2051 C2047 0.950 . S
H2052 C2049 0.950 . S
C2053 C2044 1.390 . S
C2053 H2046 0.950 . S
C2053 C2050 1.387 . S
C2054 C2055 1.387 . S
C2054 H2058 0.950 . S
C2054 C2063 1.390 . S
C2055 C2054 1.387 . S
C2055 C2057 1.387 . S
H2056 C2063 0.950 . S
C2057 C2055 1.387 . S
C2057 C2059 1.390 . S
C2057 H2061 0.950 1_565 S
H2058 C2054 0.950 . S
C2059 C2057 1.390 . S
C2059 C2060 1.387 . S
C2059 H2062 0.950 . S
C2060 C2059 1.387 . S
C2060 C2063 1.387 . S
H2061 C2057 0.950 1_545 S
H2062 C2059 0.950 . S
C2063 C2054 1.390 . S
C2063 H2056 0.950 . S
C2063 C2060 1.387 . S
C2064 C2065 1.387 . S
C2064 H2068 0.950 . S
C2064 C2073 1.390 . S
C2065 C2064 1.387 . S
C2065 C2067 1.387 . S
H2066 C2073 0.950 . S
C2067 C2065 1.387 . S
C2067 C2069 1.390 . S
C2067 H2071 0.950 . S
H2068 C2064 0.950 . S
C2069 C2067 1.390 . S
C2069 C2070 1.387 . S
C2069 H2072 0.950 . S
C2070 C2069 1.387 . S
C2070 C2073 1.387 . S
H2071 C2067 0.950 . S
H2072 C2069 0.950 . S
C2073 C2064 1.390 . S
C2073 H2066 0.950 . S
C2073 C2070 1.387 . S
C2074 C2075 1.387 . S
C2074 H2078 0.950 . S
C2074 C2083 1.390 . S
C2075 C2074 1.387 . S
C2075 C2077 1.387 . S
H2076 C2083 0.950 . S
C2077 C2075 1.387 . S
C2077 C2079 1.390 . S
C2077 H2081 0.950 . S
H2078 C2074 0.950 . S
C2079 C2077 1.390 . S
C2079 C2080 1.387 . S
C2079 H2082 0.950 . S
C2080 C2079 1.387 . S
C2080 C2083 1.387 . S
H2081 C2077 0.950 . S
H2082 C2079 0.950 . S
C2083 C2074 1.390 . S
C2083 H2076 0.950 . S
C2083 C2080 1.387 . S
C2084 C2085 1.387 . S
C2084 H2088 0.950 . S
C2084 C2093 1.390 . S
C2085 C2084 1.387 . S
C2085 C2087 1.387 . S
H2086 C2093 0.950 . S
C2087 C2085 1.387 . S
C2087 C2089 1.390 . S
C2087 H2091 0.950 . S
H2088 C2084 0.950 . S
C2089 C2087 1.390 . S
C2089 C2090 1.387 . S
C2089 H2092 0.950 . S
C2090 C2089 1.387 . S
C2090 C2093 1.387 . S
H2091 C2087 0.950 . S
H2092 C2089 0.950 . S
C2093 C2084 1.390 . S
C2093 H2086 0.950 . S
C2093 C2090 1.387 . S
C2094 C2095 1.387 . S
C2094 H2098 0.950 . S
C2094 C2103 1.390 . S
C2095 C2094 1.387 . S
C2095 C2097 1.387 . S
H2096 C2103 0.950 . S
C2097 C2095 1.387 . S
C2097 C2099 1.390 . S
C2097 H2101 0.950 . S
H2098 C2094 0.950 . S
C2099 C2097 1.390 . S
C2099 C2100 1.387 . S
C2099 H2102 0.950 . S
C2100 C2099 1.387 . S
C2100 C2103 1.387 . S
H2101 C2097 0.950 . S
H2102 C2099 0.950 . S
C2103 C2094 1.390 . S
C2103 H2096 0.950 . S
C2103 C2100 1.387 . S
C2104 C2105 1.387 . S
C2104 H2108 0.950 . S
C2104 C2113 1.390 . S
C2105 C2104 1.387 . S
C2105 C2107 1.387 . S
H2106 C2113 0.950 . S
C2107 C2105 1.387 . S
C2107 C2109 1.390 . S
C2107 H2111 0.950 . S
H2108 C2104 0.950 . S
C2109 C2107 1.390 . S
C2109 C2110 1.387 . S
C2109 H2112 0.950 . S
C2110 C2109 1.387 . S
C2110 C2113 1.387 . S
H2111 C2107 0.950 . S
H2112 C2109 0.950 . S
C2113 C2104 1.390 . S
C2113 H2106 0.950 . S
C2113 C2110 1.387 . S
C2114 C2115 1.387 . S
C2114 H2118 0.950 . S
C2114 C2123 1.390 . S
C2115 C2114 1.387 . S
C2115 C2117 1.387 . S
H2116 C2123 0.950 . S
C2117 C2115 1.387 . S
C2117 C2119 1.390 . S
C2117 H2121 0.950 . S
H2118 C2114 0.950 . S
C2119 C2117 1.390 . S
C2119 C2120 1.387 . S
C2119 H2122 0.950 . S
C2120 C2119 1.387 . S
C2120 C2123 1.387 . S
H2121 C2117 0.950 . S
H2122 C2119 0.950 . S
C2123 C2114 1.390 . S
C2123 H2116 0.950 . S
C2123 C2120 1.387 . S
C2124 C2125 1.387 . S
C2124 H2128 0.950 . S
C2124 C2133 1.390 . S
C2125 C2124 1.387 . S
C2125 C2127 1.387 . S
H2126 C2133 0.950 . S
C2127 C2125 1.387 . S
C2127 C2129 1.390 . S
C2127 H2131 0.950 . S
H2128 C2124 0.950 . S
C2129 C2127 1.390 . S
C2129 C2130 1.387 . S
C2129 H2132 0.950 . S
C2130 C2129 1.387 . S
C2130 C2133 1.387 . S
H2131 C2127 0.950 . S
H2132 C2129 0.950 . S
C2133 C2124 1.390 . S
C2133 H2126 0.950 . S
C2133 C2130 1.387 . S
C2134 C2135 1.387 . S
C2134 H2138 0.950 . S
C2134 C2143 1.390 . S
C2135 C2134 1.387 . S
C2135 C2137 1.387 . S
H2136 C2143 0.950 . S
C2137 C2135 1.387 . S
C2137 C2139 1.390 . S
C2137 H2141 0.950 . S
H2138 C2134 0.950 . S
C2139 C2137 1.390 . S
C2139 C2140 1.387 . S
C2139 H2142 0.950 . S
C2140 C2139 1.387 . S
C2140 C2143 1.387 . S
H2141 C2137 0.950 . S
H2142 C2139 0.950 . S
C2143 C2134 1.390 . S
C2143 H2136 0.950 . S
C2143 C2140 1.387 . S
C2144 C2145 1.387 . S
C2144 H2148 0.950 . S
C2144 C2153 1.390 . S
C2145 C2144 1.387 . S
C2145 C2147 1.387 . S
H2146 C2153 0.950 . S
C2147 C2145 1.387 . S
C2147 C2149 1.390 . S
C2147 H2151 0.950 . S
H2148 C2144 0.950 . S
C2149 C2147 1.390 . S
C2149 C2150 1.387 . S
C2149 H2152 0.950 . S
C2150 C2149 1.387 . S
C2150 C2153 1.387 . S
H2151 C2147 0.950 . S
H2152 C2149 0.950 . S
C2153 C2144 1.390 . S
C2153 H2146 0.950 . S
C2153 C2150 1.387 . S
C2154 C2155 1.387 . S
C2154 H2158 0.950 . S
C2154 C2163 1.390 . S
C2155 C2154 1.387 . S
C2155 C2157 1.387 . S
H2156 C2163 0.950 . S
C2157 C2155 1.387 . S
C2157 C2159 1.390 . S
C2157 H2161 0.950 . S
H2158 C2154 0.950 . S
C2159 C2157 1.390 . S
C2159 C2160 1.387 . S
C2159 H2162 0.950 . S
C2160 C2159 1.387 . S
C2160 C2163 1.387 . S
H2161 C2157 0.950 . S
H2162 C2159 0.950 . S
C2163 C2154 1.390 . S
C2163 H2156 0.950 . S
C2163 C2160 1.387 . S
C2164 C2165 1.387 . S
C2164 H2168 0.950 . S
C2164 C2173 1.390 . S
C2165 C2164 1.387 . S
C2165 C2167 1.387 . S
H2166 C2173 0.950 . S
C2167 C2165 1.387 . S
C2167 C2169 1.390 . S
C2167 H2171 0.950 . S
H2168 C2164 0.950 . S
C2169 C2167 1.390 . S
C2169 C2170 1.387 . S
C2169 H2172 0.950 . S
C2170 C2169 1.387 . S
C2170 C2173 1.387 . S
H2171 C2167 0.950 . S
H2172 C2169 0.950 . S
C2173 C2164 1.390 . S
C2173 H2166 0.950 . S
C2173 C2170 1.387 . S
C2174 C2175 1.387 . S
C2174 H2178 0.950 . S
C2174 C2183 1.390 . S
C2175 C2174 1.387 . S
C2175 C2177 1.387 . S
H2176 C2183 0.950 . S
C2177 C2175 1.387 . S
C2177 C2179 1.390 . S
C2177 H2181 0.950 . S
H2178 C2174 0.950 . S
C2179 C2177 1.390 . S
C2179 C2180 1.387 . S
C2179 H2182 0.950 . S
C2180 C2179 1.387 . S
C2180 C2183 1.387 . S
H2181 C2177 0.950 . S
H2182 C2179 0.950 . S
C2183 C2174 1.390 . S
C2183 H2176 0.950 . S
C2183 C2180 1.387 . S
C2184 C2185 1.387 . S
C2184 H2188 0.950 . S
C2184 C2193 1.390 . S
C2185 C2184 1.387 . S
C2185 C2187 1.387 . S
H2186 C2193 0.950 . S
C2187 C2185 1.387 . S
C2187 C2189 1.390 . S
C2187 H2191 0.950 . S
H2188 C2184 0.950 . S
C2189 C2187 1.390 . S
C2189 C2190 1.387 . S
C2189 H2192 0.950 . S
C2190 C2189 1.387 . S
C2190 C2193 1.387 . S
H2191 C2187 0.950 . S
H2192 C2189 0.950 . S
C2193 C2184 1.390 . S
C2193 H2186 0.950 . S
C2193 C2190 1.387 . S
C2194 C2195 1.387 . S
C2194 H2198 0.950 1_556 S
C2194 C2203 1.390 . S
C2195 C2194 1.387 . S
C2195 C2197 1.387 . S
H2196 C2203 0.950 . S
C2197 C2195 1.387 . S
C2197 C2199 1.390 . S
C2197 H2201 0.950 . S
H2198 C2194 0.950 1_554 S
C2199 C2197 1.390 . S
C2199 C2200 1.387 . S
C2199 H2202 0.950 . S
C2200 C2199 1.387 . S
C2200 C2203 1.387 . S
H2201 C2197 0.950 . S
H2202 C2199 0.950 . S
C2203 C2194 1.390 . S
C2203 H2196 0.950 . S
C2203 C2200 1.387 . S
C2204 C2205 1.387 . S
C2204 H2208 0.950 . S
C2204 C2213 1.390 . S
C2205 C2204 1.387 . S
C2205 C2207 1.387 . S
H2206 C2213 0.950 . S
C2207 C2205 1.387 . S
C2207 C2209 1.390 . S
C2207 H2211 0.950 . S
H2208 C2204 0.950 . S
C2209 C2207 1.390 . S
C2209 C2210 1.387 . S
C2209 H2212 0.950 . S
C2210 C2209 1.387 . S
C2210 C2213 1.387 . S
H2211 C2207 0.950 . S
H2212 C2209 0.950 . S
C2213 C2204 1.390 . S
C2213 H2206 0.950 . S
C2213 C2210 1.387 . S
C2214 C2215 1.387 . S
C2214 H2218 0.950 . S
C2214 C2223 1.390 . S
C2215 C2214 1.387 . S
C2215 C2217 1.387 . S
H2216 C2223 0.950 . S
C2217 C2215 1.387 . S
C2217 C2219 1.390 . S
C2217 H2221 0.950 . S
H2218 C2214 0.950 . S
C2219 C2217 1.390 . S
C2219 C2220 1.387 . S
C2219 H2222 0.950 . S
C2220 C2219 1.387 . S
C2220 C2223 1.387 . S
H2221 C2217 0.950 . S
H2222 C2219 0.950 . S
C2223 C2214 1.390 . S
C2223 H2216 0.950 . S
C2223 C2220 1.387 . S
C2224 C2225 1.387 . S
C2224 H2228 0.950 . S
C2224 C2233 1.390 . S
C2225 C2224 1.387 . S
C2225 C2227 1.387 . S
H2226 C2233 0.950 . S
C2227 C2225 1.387 . S
C2227 C2229 1.390 . S
C2227 H2231 0.950 . S
H2228 C2224 0.950 . S
C2229 C2227 1.390 . S
C2229 C2230 1.387 . S
C2229 H2232 0.950 . S
C2230 C2229 1.387 . S
C2230 C2233 1.387 . S
H2231 C2227 0.950 . S
H2232 C2229 0.950 . S
C2233 C2224 1.390 . S
C2233 H2226 0.950 . S
C2233 C2230 1.387 . S
C2234 C2235 1.387 . S
C2234 H2238 0.950 . S
C2234 C2243 1.390 . S
C2235 C2234 1.387 . S
C2235 C2237 1.387 . S
H2236 C2243 0.950 . S
C2237 C2235 1.387 . S
C2237 C2239 1.390 . S
C2237 H2241 0.950 . S
H2238 C2234 0.950 . S
C2239 C2237 1.390 . S
C2239 C2240 1.387 . S
C2239 H2242 0.950 . S
C2240 C2239 1.387 . S
C2240 C2243 1.387 . S
H2241 C2237 0.950 . S
H2242 C2239 0.950 . S
C2243 C2234 1.390 . S
C2243 H2236 0.950 . S
C2243 C2240 1.387 . S
C2244 C2245 1.387 . S
C2244 H2248 0.944 1_545 S
C2244 C2253 1.390 . S
C2245 C2244 1.387 . S
C2245 C2247 1.387 . S
H2246 C2253 0.950 . S
C2247 C2245 1.387 . S
C2247 C2249 1.390 . S
C2247 H2251 0.950 . S
H2248 C2244 0.944 1_565 S
C2249 C2247 1.390 . S
C2249 C2250 1.387 . S
C2249 H2252 0.950 . S
C2250 C2249 1.387 . S
C2250 C2253 1.387 . S
H2251 C2247 0.950 . S
H2252 C2249 0.950 . S
C2253 C2244 1.390 . S
C2253 H2246 0.950 . S
C2253 C2250 1.387 . S
C2254 C2255 1.387 . S
C2254 H2258 0.950 . S
C2254 C2263 1.390 . S
C2255 C2254 1.387 . S
C2255 C2257 1.387 . S
H2256 C2263 0.950 . S
C2257 C2255 1.387 . S
C2257 C2259 1.390 . S
C2257 H2261 0.950 . S
H2258 C2254 0.950 . S
C2259 C2257 1.390 . S
C2259 C2260 1.387 . S
C2259 H2262 0.950 . S
C2260 C2259 1.387 . S
C2260 C2263 1.387 . S
H2261 C2257 0.950 . S
H2262 C2259 0.950 . S
C2263 C2254 1.390 . S
C2263 H2256 0.950 . S
C2263 C2260 1.387 . S
C2264 C2265 1.387 . S
C2264 H2268 0.950 . S
C2264 C2273 1.390 . S
C2265 C2264 1.387 . S
C2265 C2267 1.387 . S
H2266 C2273 0.950 . S
C2267 C2265 1.387 . S
C2267 C2269 1.390 . S
C2267 H2271 0.950 . S
H2268 C2264 0.950 . S
C2269 C2267 1.390 . S
C2269 C2270 1.387 . S
C2269 H2272 0.950 . S
C2270 C2269 1.387 . S
C2270 C2273 1.387 . S
H2271 C2267 0.950 . S
H2272 C2269 0.950 . S
C2273 C2264 1.390 . S
C2273 H2266 0.950 . S
C2273 C2270 1.387 . S
C2274 C2275 1.387 . S
C2274 H2278 0.950 . S
C2274 C2283 1.390 . S
C2275 C2274 1.387 . S
C2275 C2277 1.387 . S
H2276 C2283 0.950 . S
C2277 C2275 1.387 . S
C2277 C2279 1.390 . S
C2277 H2281 0.950 . S
H2278 C2274 0.950 . S
C2279 C2277 1.390 . S
C2279 C2280 1.387 . S
C2279 H2282 0.950 . S
C2280 C2279 1.387 . S
C2280 C2283 1.387 . S
H2281 C2277 0.950 . S
H2282 C2279 0.950 . S
C2283 C2274 1.390 . S
C2283 H2276 0.950 . S
C2283 C2280 1.387 . S
C2284 C2285 1.387 . S
C2284 H2288 0.950 . S
C2284 C2293 1.390 . S
C2285 C2284 1.387 . S
C2285 C2287 1.387 . S
H2286 C2293 0.960 . S
C2287 C2285 1.387 . S
C2287 C2289 1.390 . S
C2287 H2291 0.950 . S
H2288 C2284 0.950 . S
C2289 C2287 1.390 . S
C2289 C2290 1.387 . S
C2289 H2292 0.950 . S
C2290 C2289 1.387 . S
C2290 C2293 1.387 . S
H2291 C2287 0.950 . S
H2292 C2289 0.950 . S
C2293 C2284 1.390 . S
C2293 H2286 0.960 . S
C2293 C2290 1.387 . S
C2294 C2295 1.387 . S
C2294 H2298 0.950 . S
C2294 C2303 1.390 . S
C2295 C2294 1.387 . S
C2295 C2297 1.387 . S
H2296 C2303 0.936 1_565 S
C2297 C2295 1.387 . S
C2297 C2299 1.390 . S
C2297 H2301 0.950 . S
H2298 C2294 0.950 . S
C2299 C2297 1.390 . S
C2299 C2300 1.387 . S
C2299 H2302 0.950 . S
C2300 C2299 1.387 . S
C2300 C2303 1.387 . S
H2301 C2297 0.950 . S
H2302 C2299 0.950 . S
C2303 C2294 1.390 . S
C2303 H2296 0.936 1_545 S
C2303 C2300 1.387 . S
C2304 C2305 1.387 . S
C2304 H2308 0.950 . S
C2304 C2313 1.390 . S
C2305 C2304 1.387 . S
C2305 C2307 1.387 . S
H2306 C2313 0.950 . S
C2307 C2305 1.387 . S
C2307 C2309 1.390 . S
C2307 H2311 0.950 . S
H2308 C2304 0.950 . S
C2309 C2307 1.390 . S
C2309 C2310 1.387 . S
C2309 H2312 0.950 . S
C2310 C2309 1.387 . S
C2310 C2313 1.387 . S
H2311 C2307 0.950 . S
H2312 C2309 0.950 . S
C2313 C2304 1.390 . S
C2313 H2306 0.950 . S
C2313 C2310 1.387 . S
C2314 C2315 1.387 . S
C2314 H2318 0.950 . S
C2314 C2323 1.390 . S
C2315 C2314 1.387 . S
C2315 C2317 1.387 . S
H2316 C2323 0.950 . S
C2317 C2315 1.387 . S
C2317 C2319 1.390 . S
C2317 H2321 0.950 . S
H2318 C2314 0.950 . S
C2319 C2317 1.390 . S
C2319 C2320 1.387 . S
C2319 H2322 0.950 . S
C2320 C2319 1.387 . S
C2320 C2323 1.387 . S
H2321 C2317 0.950 . S
H2322 C2319 0.950 . S
C2323 C2314 1.390 . S
C2323 H2316 0.950 . S
C2323 C2320 1.387 . S
C2324 C2325 1.387 . S
C2324 H2328 0.950 . S
C2324 C2333 1.390 . S
C2325 C2324 1.387 . S
C2325 C2327 1.387 . S
H2326 C2333 0.950 . S
C2327 C2325 1.387 . S
C2327 C2329 1.390 . S
C2327 H2331 0.950 . S
H2328 C2324 0.950 . S
C2329 C2327 1.390 . S
C2329 C2330 1.387 . S
C2329 H2332 0.950 . S
C2330 C2329 1.387 . S
C2330 C2333 1.387 . S
H2331 C2327 0.950 . S
H2332 C2329 0.950 . S
C2333 C2324 1.390 . S
C2333 H2326 0.950 . S
C2333 C2330 1.387 . S
C2334 C2335 1.387 . S
C2334 H2338 0.950 . S
C2334 C2343 1.390 . S
C2335 C2334 1.387 . S
C2335 C2337 1.387 . S
H2336 C2343 0.950 . S
C2337 C2335 1.387 . S
C2337 C2339 1.390 . S
C2337 H2341 0.950 . S
H2338 C2334 0.950 . S
C2339 C2337 1.390 . S
C2339 C2340 1.387 . S
C2339 H2342 0.950 . S
C2340 C2339 1.387 . S
C2340 C2343 1.387 . S
H2341 C2337 0.950 . S
H2342 C2339 0.950 . S
C2343 C2334 1.390 . S
C2343 H2336 0.950 . S
C2343 C2340 1.387 . S
C2344 C2345 1.387 . S
C2344 H2348 0.950 . S
C2344 C2353 1.390 . S
C2345 C2344 1.387 . S
C2345 C2347 1.387 . S
H2346 C2353 0.950 . S
C2347 C2345 1.387 . S
C2347 C2349 1.390 . S
C2347 H2351 0.950 . S
H2348 C2344 0.950 . S
C2349 C2347 1.390 . S
C2349 C2350 1.387 . S
C2349 H2352 0.950 . S
C2350 C2349 1.387 . S
C2350 C2353 1.387 . S
H2351 C2347 0.950 . S
H2352 C2349 0.950 . S
C2353 C2344 1.390 . S
C2353 H2346 0.950 . S
C2353 C2350 1.387 . S
C2354 C2355 1.387 . S
C2354 H2358 0.950 . S
C2354 C2363 1.390 . S
C2355 C2354 1.387 . S
C2355 C2357 1.387 . S
H2356 C2363 0.950 . S
C2357 C2355 1.387 . S
C2357 C2359 1.390 . S
C2357 H2361 0.950 . S
H2358 C2354 0.950 . S
C2359 C2357 1.390 . S
C2359 C2360 1.387 . S
C2359 H2362 0.950 . S
C2360 C2359 1.387 . S
C2360 C2363 1.387 . S
H2361 C2357 0.950 . S
H2362 C2359 0.950 . S
C2363 C2354 1.390 . S
C2363 H2356 0.950 . S
C2363 C2360 1.387 . S
C2364 C2365 1.387 . S
C2364 H2368 0.950 . S
C2364 C2373 1.390 . S
C2365 C2364 1.387 . S
C2365 C2367 1.387 . S
H2366 C2373 0.950 . S
C2367 C2365 1.387 . S
C2367 C2369 1.390 . S
C2367 H2371 0.950 . S
H2368 C2364 0.950 . S
C2369 C2367 1.390 . S
C2369 C2370 1.387 . S
C2369 H2372 0.950 . S
C2370 C2369 1.387 . S
C2370 C2373 1.387 . S
H2371 C2367 0.950 . S
H2372 C2369 0.950 . S
C2373 C2364 1.390 . S
C2373 H2366 0.950 . S
C2373 C2370 1.387 . S
C2374 C2375 1.387 . S
C2374 H2378 0.950 . S
C2374 C2383 1.390 . S
C2375 C2374 1.387 . S
C2375 C2377 1.387 . S
H2376 C2383 0.950 . S
C2377 C2375 1.387 . S
C2377 C2379 1.390 . S
C2377 H2381 0.950 . S
H2378 C2374 0.950 . S
C2379 C2377 1.390 . S
C2379 C2380 1.387 . S
C2379 H2382 0.950 . S
C2380 C2379 1.387 . S
C2380 C2383 1.387 . S
H2381 C2377 0.950 . S
H2382 C2379 0.950 . S
C2383 C2374 1.390 . S
C2383 H2376 0.950 . S
C2383 C2380 1.387 . S
C2384 C2385 1.387 . S
C2384 H2388 0.950 . S
C2384 C2393 1.390 . S
C2385 C2384 1.387 . S
C2385 C2387 1.387 . S
H2386 C2393 0.950 . S
C2387 C2385 1.387 . S
C2387 C2389 1.390 . S
C2387 H2391 0.950 . S
H2388 C2384 0.950 . S
C2389 C2387 1.390 . S
C2389 C2390 1.387 . S
C2389 H2392 0.950 . S
C2390 C2389 1.387 . S
C2390 C2393 1.387 . S
H2391 C2387 0.950 . S
H2392 C2389 0.950 . S
C2393 C2384 1.390 . S
C2393 H2386 0.950 . S
C2393 C2390 1.387 . S
C2394 C2395 1.387 . S
C2394 H2398 0.950 . S
C2394 C2403 1.390 . S
C2395 C2394 1.387 . S
C2395 C2397 1.387 . S
H2396 C2403 0.950 . S
C2397 C2395 1.387 . S
C2397 C2399 1.390 . S
C2397 H2401 0.950 . S
H2398 C2394 0.950 . S
C2399 C2397 1.390 . S
C2399 C2400 1.387 . S
C2399 H2402 0.950 . S
C2400 C2399 1.387 . S
C2400 C2403 1.387 . S
H2401 C2397 0.950 . S
H2402 C2399 0.950 . S
C2403 C2394 1.390 . S
C2403 H2396 0.950 . S
C2403 C2400 1.387 . S
C2404 C2405 1.387 . S
C2404 H2408 0.950 . S
C2404 C2413 1.390 . S
C2405 C2404 1.387 . S
C2405 C2407 1.387 . S
H2406 C2413 0.950 . S
C2407 C2405 1.387 . S
C2407 C2409 1.390 . S
C2407 H2411 0.950 . S
H2408 C2404 0.950 . S
C2409 C2407 1.390 . S
C2409 C2410 1.387 . S
C2409 H2412 0.950 . S
C2410 C2409 1.387 . S
C2410 C2413 1.387 . S
H2411 C2407 0.950 . S
H2412 C2409 0.950 . S
C2413 C2404 1.390 . S
C2413 H2406 0.950 . S
C2413 C2410 1.387 . S
C2414 C2415 1.387 . S
C2414 H2418 0.950 . S
C2414 C2423 1.390 . S
C2415 C2414 1.387 . S
C2415 C2417 1.387 . S
H2416 C2423 0.950 . S
C2417 C2415 1.387 . S
C2417 C2419 1.390 . S
C2417 H2421 0.950 . S
H2418 C2414 0.950 . S
C2419 C2417 1.390 . S
C2419 C2420 1.387 . S
C2419 H2422 0.950 . S
C2420 C2419 1.387 . S
C2420 C2423 1.387 . S
H2421 C2417 0.950 . S
H2422 C2419 0.950 . S
C2423 C2414 1.390 . S
C2423 H2416 0.950 . S
C2423 C2420 1.387 . S
C2424 C2425 1.387 . S
C2424 H2428 0.950 . S
C2424 C2433 1.390 . S
C2425 C2424 1.387 . S
C2425 C2427 1.387 . S
H2426 C2433 0.950 . S
C2427 C2425 1.387 . S
C2427 C2429 1.390 . S
C2427 H2431 0.950 . S
H2428 C2424 0.950 . S
C2429 C2427 1.390 . S
C2429 C2430 1.387 . S
C2429 H2432 0.950 . S
C2430 C2429 1.387 . S
C2430 C2433 1.387 . S
H2431 C2427 0.950 . S
H2432 C2429 0.950 . S
C2433 C2424 1.390 . S
C2433 H2426 0.950 . S
C2433 C2430 1.387 . S
C2434 C2435 1.387 . S
C2434 H2438 0.950 . S
C2434 C2443 1.390 . S
C2435 C2434 1.387 . S
C2435 C2437 1.387 . S
H2436 C2443 0.950 . S
C2437 C2435 1.387 . S
C2437 C2439 1.390 . S
C2437 H2441 0.950 . S
H2438 C2434 0.950 . S
C2439 C2437 1.390 . S
C2439 C2440 1.387 . S
C2439 H2442 0.950 . S
C2440 C2439 1.387 . S
C2440 C2443 1.387 . S
H2441 C2437 0.950 . S
H2442 C2439 0.950 . S
C2443 C2434 1.390 . S
C2443 H2436 0.950 . S
C2443 C2440 1.387 . S
C2444 C2445 1.387 . S
C2444 H2448 0.950 . S
C2444 C2453 1.390 . S
C2445 C2444 1.387 . S
C2445 C2447 1.387 . S
H2446 C2453 0.950 . S
C2447 C2445 1.387 . S
C2447 C2449 1.390 . S
C2447 H2451 0.950 . S
H2448 C2444 0.950 . S
C2449 C2447 1.390 . S
C2449 C2450 1.387 . S
C2449 H2452 0.950 . S
C2450 C2449 1.387 . S
C2450 C2453 1.387 . S
H2451 C2447 0.950 . S
H2452 C2449 0.950 . S
C2453 C2444 1.390 . S
C2453 H2446 0.950 . S
C2453 C2450 1.387 . S
C2454 C2455 1.387 . S
C2454 H2458 0.950 . S
C2454 C2463 1.390 . S
C2455 C2454 1.387 . S
C2455 C2457 1.387 . S
H2456 C2463 0.950 . S
C2457 C2455 1.387 . S
C2457 C2459 1.390 . S
C2457 H2461 0.950 . S
H2458 C2454 0.950 . S
C2459 C2457 1.390 . S
C2459 C2460 1.387 . S
C2459 H2462 0.950 . S
C2460 C2459 1.387 . S
C2460 C2463 1.387 . S
H2461 C2457 0.950 . S
H2462 C2459 0.950 . S
C2463 C2454 1.390 . S
C2463 H2456 0.950 . S
C2463 C2460 1.387 . S
C2464 C2465 1.387 . S
C2464 H2468 0.950 . S
C2464 C2473 1.390 . S
C2465 C2464 1.387 . S
C2465 C2467 1.387 . S
H2466 C2473 0.950 . S
C2467 C2465 1.387 . S
C2467 C2469 1.390 . S
C2467 H2471 0.950 . S
H2468 C2464 0.950 . S
C2469 C2467 1.390 . S
C2469 C2470 1.387 . S
C2469 H2472 0.950 . S
C2470 C2469 1.387 . S
C2470 C2473 1.387 . S
H2471 C2467 0.950 . S
H2472 C2469 0.950 . S
C2473 C2464 1.390 . S
C2473 H2466 0.950 . S
C2473 C2470 1.387 . S
C2474 C2475 1.387 . S
C2474 H2478 0.950 . S
C2474 C2483 1.390 . S
C2475 C2474 1.387 . S
C2475 C2477 1.387 . S
H2476 C2483 0.950 . S
C2477 C2475 1.387 . S
C2477 C2479 1.390 . S
C2477 H2481 0.950 . S
H2478 C2474 0.950 . S
C2479 C2477 1.390 . S
C2479 C2480 1.387 . S
C2479 H2482 0.950 . S
C2480 C2479 1.387 . S
C2480 C2483 1.387 . S
H2481 C2477 0.950 . S
H2482 C2479 0.950 . S
C2483 C2474 1.390 . S
C2483 H2476 0.950 . S
C2483 C2480 1.387 . S
C2484 C2485 1.387 . S
C2484 H2488 0.950 . S
C2484 C2493 1.390 . S
C2485 C2484 1.387 . S
C2485 C2487 1.387 . S
H2486 C2493 0.950 . S
C2487 C2485 1.387 . S
C2487 C2489 1.390 . S
C2487 H2491 0.950 . S
H2488 C2484 0.950 . S
C2489 C2487 1.390 . S
C2489 C2490 1.387 . S
C2489 H2492 0.950 . S
C2490 C2489 1.387 . S
C2490 C2493 1.387 . S
H2491 C2487 0.950 . S
H2492 C2489 0.950 . S
C2493 C2484 1.390 . S
C2493 H2486 0.950 . S
C2493 C2490 1.387 . S
C2494 C2495 1.387 . S
C2494 H2498 0.950 . S
C2494 C2503 1.390 . S
C2495 C2494 1.387 . S
C2495 C2497 1.387 . S
H2496 C2503 0.950 . S
C2497 C2495 1.387 . S
C2497 C2499 1.390 . S
C2497 H2501 0.950 . S
H2498 C2494 0.950 . S
C2499 C2497 1.390 . S
C2499 C2500 1.387 . S
C2499 H2502 0.950 . S
C2500 C2499 1.387 . S
C2500 C2503 1.387 . S
H2501 C2497 0.950 . S
H2502 C2499 0.950 . S
C2503 C2494 1.390 . S
C2503 H2496 0.950 . S
C2503 C2500 1.387 . S
C2504 C2505 1.387 . S
C2504 H2508 0.950 . S
C2504 C2513 1.390 . S
C2505 C2504 1.387 . S
C2505 C2507 1.387 . S
H2506 C2513 0.950 . S
C2507 C2505 1.387 . S
C2507 C2509 1.390 . S
C2507 H2511 0.950 . S
H2508 C2504 0.950 . S
C2509 C2507 1.390 . S
C2509 C2510 1.387 . S
C2509 H2512 0.950 . S
C2510 C2509 1.387 . S
C2510 C2513 1.387 . S
H2511 C2507 0.950 . S
H2512 C2509 0.950 . S
C2513 C2504 1.390 . S
C2513 H2506 0.950 . S
C2513 C2510 1.387 . S
C2514 C2515 1.387 . S
C2514 H2518 0.950 . S
C2514 C2523 1.390 . S
C2515 C2514 1.387 . S
C2515 C2517 1.387 . S
H2516 C2523 0.950 . S
C2517 C2515 1.387 . S
C2517 C2519 1.390 . S
C2517 H2521 0.950 . S
H2518 C2514 0.950 . S
C2519 C2517 1.390 . S
C2519 C2520 1.387 . S
C2519 H2522 0.950 . S
C2520 C2519 1.387 . S
C2520 C2523 1.387 . S
H2521 C2517 0.950 . S
H2522 C2519 0.950 . S
C2523 C2514 1.390 . S
C2523 H2516 0.950 . S
C2523 C2520 1.387 . S
C2524 C2525 1.387 . S
C2524 H2528 0.950 . S
C2524 C2533 1.390 . S
C2525 C2524 1.387 . S
C2525 C2527 1.387 . S
H2526 C2533 0.950 . S
C2527 C2525 1.387 . S
C2527 C2529 1.390 . S
C2527 H2531 0.950 . S
H2528 C2524 0.950 . S
C2529 C2527 1.390 . S
C2529 C2530 1.387 . S
C2529 H2532 0.950 . S
C2530 C2529 1.387 . S
C2530 C2533 1.387 . S
H2531 C2527 0.950 . S
H2532 C2529 0.950 . S
C2533 C2524 1.390 . S
C2533 H2526 0.950 . S
C2533 C2530 1.387 . S
C2534 C2535 1.387 . S
C2534 H2538 0.950 . S
C2534 C2543 1.390 . S
C2535 C2534 1.387 . S
C2535 C2537 1.387 . S
H2536 C2543 0.950 . S
C2537 C2535 1.387 . S
C2537 C2539 1.390 . S
C2537 H2541 0.950 . S
H2538 C2534 0.950 . S
C2539 C2537 1.390 . S
C2539 C2540 1.387 . S
C2539 H2542 0.950 . S
C2540 C2539 1.387 . S
C2540 C2543 1.387 . S
H2541 C2537 0.950 . S
H2542 C2539 0.950 . S
C2543 C2534 1.390 . S
C2543 H2536 0.950 . S
C2543 C2540 1.387 . S
C2544 C2545 1.387 . S
C2544 H2548 0.950 . S
C2544 C2553 1.390 . S
C2545 C2544 1.387 . S
C2545 C2547 1.387 . S
H2546 C2553 0.950 . S
C2547 C2545 1.387 . S
C2547 C2549 1.390 . S
C2547 H2551 0.950 . S
H2548 C2544 0.950 . S
C2549 C2547 1.390 . S
C2549 C2550 1.387 . S
C2549 H2552 0.950 . S
C2550 C2549 1.387 . S
C2550 C2553 1.387 . S
H2551 C2547 0.950 . S
H2552 C2549 0.950 . S
C2553 C2544 1.390 . S
C2553 H2546 0.950 . S
C2553 C2550 1.387 . S
C2554 C2555 1.387 . S
C2554 H2558 0.950 . S
C2554 C2563 1.390 . S
C2555 C2554 1.387 . S
C2555 C2557 1.387 . S
H2556 C2563 0.950 . S
C2557 C2555 1.387 . S
C2557 C2559 1.390 . S
C2557 H2561 0.950 . S
H2558 C2554 0.950 . S
C2559 C2557 1.390 . S
C2559 C2560 1.387 . S
C2559 H2562 0.950 . S
C2560 C2559 1.387 . S
C2560 C2563 1.387 . S
H2561 C2557 0.950 . S
H2562 C2559 0.950 . S
C2563 C2554 1.390 . S
C2563 H2556 0.950 . S
C2563 C2560 1.387 . S
C2564 C2565 1.387 . S
C2564 H2568 0.950 . S
C2564 C2573 1.390 . S
C2565 C2564 1.387 . S
C2565 C2567 1.387 . S
H2566 C2573 0.950 . S
C2567 C2565 1.387 . S
C2567 C2569 1.390 . S
C2567 H2571 0.950 . S
H2568 C2564 0.950 . S
C2569 C2567 1.390 . S
C2569 C2570 1.387 . S
C2569 H2572 0.950 . S
C2570 C2569 1.387 . S
C2570 C2573 1.387 . S
H2571 C2567 0.950 . S
H2572 C2569 0.950 . S
C2573 C2564 1.390 . S
C2573 H2566 0.950 . S
C2573 C2570 1.387 . S
C2574 C2575 1.387 . S
C2574 H2578 0.950 . S
C2574 C2583 1.390 . S
C2575 C2574 1.387 . S
C2575 C2577 1.387 . S
H2576 C2583 0.950 . S
C2577 C2575 1.387 . S
C2577 C2579 1.390 . S
C2577 H2581 0.950 . S
H2578 C2574 0.950 . S
C2579 C2577 1.390 . S
C2579 C2580 1.387 . S
C2579 H2582 0.950 . S
C2580 C2579 1.387 . S
C2580 C2583 1.387 . S
H2581 C2577 0.950 . S
H2582 C2579 0.950 . S
C2583 C2574 1.390 . S
C2583 H2576 0.950 . S
C2583 C2580 1.387 . S
C2584 C2585 1.387 . S
C2584 H2588 0.950 . S
C2584 C2593 1.390 . S
C2585 C2584 1.387 . S
C2585 C2587 1.387 . S
H2586 C2593 0.950 . S
C2587 C2585 1.387 . S
C2587 C2589 1.390 . S
C2587 H2591 0.950 . S
H2588 C2584 0.950 . S
C2589 C2587 1.390 . S
C2589 C2590 1.387 . S
C2589 H2592 0.950 . S
C2590 C2589 1.387 . S
C2590 C2593 1.387 . S
H2591 C2587 0.950 . S
H2592 C2589 0.950 . S
C2593 C2584 1.390 . S
C2593 H2586 0.950 . S
C2593 C2590 1.387 . S
C2594 C2595 1.387 . S
C2594 H2598 0.950 . S
C2594 C2603 1.390 . S
C2595 C2594 1.387 . S
C2595 C2597 1.387 . S
H2596 C2603 0.950 . S
C2597 C2595 1.387 . S
C2597 C2599 1.390 . S
C2597 H2601 0.950 . S
H2598 C2594 0.950 . S
C2599 C2597 1.390 . S
C2599 C2600 1.387 . S
C2599 H2602 0.950 . S
C2600 C2599 1.387 . S
C2600 C2603 1.387 . S
H2601 C2597 0.950 . S
H2602 C2599 0.950 . S
C2603 C2594 1.390 . S
C2603 H2596 0.950 . S
C2603 C2600 1.387 . S
C2604 C2605 1.387 . S
C2604 H2608 0.950 . S
C2604 C2613 1.390 . S
C2605 C2604 1.387 . S
C2605 C2607 1.387 . S
H2606 C2613 0.950 . S
C2607 C2605 1.387 . S
C2607 C2609 1.390 . S
C2607 H2611 0.950 . S
H2608 C2604 0.950 . S
C2609 C2607 1.390 . S
C2609 C2610 1.387 . S
C2609 H2612 0.950 . S
C2610 C2609 1.387 . S
C2610 C2613 1.387 . S
H2611 C2607 0.950 . S
H2612 C2609 0.950 . S
C2613 C2604 1.390 . S
C2613 H2606 0.950 . S
C2613 C2610 1.387 . S
C2614 C2615 1.387 . S
C2614 H2618 0.950 . S
C2614 C2623 1.390 . S
C2615 C2614 1.387 . S
C2615 C2617 1.387 . S
H2616 C2623 0.950 . S
C2617 C2615 1.387 . S
C2617 C2619 1.390 . S
C2617 H2621 0.950 . S
H2618 C2614 0.950 . S
C2619 C2617 1.390 . S
C2619 C2620 1.387 . S
C2619 H2622 0.950 . S
C2620 C2619 1.387 . S
C2620 C2623 1.387 . S
H2621 C2617 0.950 . S
H2622 C2619 0.950 . S
C2623 C2614 1.390 . S
C2623 H2616 0.950 . S
C2623 C2620 1.387 . S
C2624 C2625 1.387 . S
C2624 H2628 0.950 . S
C2624 C2633 1.390 . S
C2625 C2624 1.387 . S
C2625 C2627 1.387 . S
H2626 C2633 0.950 . S
C2627 C2625 1.387 . S
C2627 C2629 1.390 . S
C2627 H2631 0.950 . S
H2628 C2624 0.950 . S
C2629 C2627 1.390 . S
C2629 C2630 1.387 . S
C2629 H2632 0.950 . S
C2630 C2629 1.387 . S
C2630 C2633 1.387 . S
H2631 C2627 0.950 . S
H2632 C2629 0.950 . S
C2633 C2624 1.390 . S
C2633 H2626 0.950 . S
C2633 C2630 1.387 . S
C2634 C2635 1.387 . S
C2634 H2638 0.950 . S
C2634 C2643 1.390 . S
C2635 C2634 1.387 . S
C2635 C2637 1.387 . S
H2636 C2643 0.950 . S
C2637 C2635 1.387 . S
C2637 C2639 1.390 . S
C2637 H2641 0.950 . S
H2638 C2634 0.950 . S
C2639 C2637 1.390 . S
C2639 C2640 1.387 . S
C2639 H2642 0.950 . S
C2640 C2639 1.387 . S
C2640 C2643 1.387 . S
H2641 C2637 0.950 . S
H2642 C2639 0.950 . S
C2643 C2634 1.390 . S
C2643 H2636 0.950 . S
C2643 C2640 1.387 . S
C2644 C2645 1.387 . S
C2644 H2648 0.950 . S
C2644 C2653 1.390 . S
C2645 C2644 1.387 . S
C2645 C2647 1.387 . S
H2646 C2653 0.950 . S
C2647 C2645 1.387 . S
C2647 C2649 1.390 . S
C2647 H2651 0.950 . S
H2648 C2644 0.950 . S
C2649 C2647 1.390 . S
C2649 C2650 1.387 . S
C2649 H2652 0.950 . S
C2650 C2649 1.387 . S
C2650 C2653 1.387 . S
H2651 C2647 0.950 . S
H2652 C2649 0.950 . S
C2653 C2644 1.390 . S
C2653 H2646 0.950 . S
C2653 C2650 1.387 . S
C2654 C2655 1.387 . S
C2654 H2658 0.950 . S
C2654 C2663 1.390 . S
C2655 C2654 1.387 . S
C2655 C2657 1.387 . S
H2656 C2663 0.950 . S
C2657 C2655 1.387 . S
C2657 C2659 1.390 . S
C2657 H2661 0.950 . S
H2658 C2654 0.950 . S
C2659 C2657 1.390 . S
C2659 C2660 1.387 . S
C2659 H2662 0.950 . S
C2660 C2659 1.387 . S
C2660 C2663 1.387 . S
H2661 C2657 0.950 . S
H2662 C2659 0.950 . S
C2663 C2654 1.390 . S
C2663 H2656 0.950 . S
C2663 C2660 1.387 . S
C2664 C2665 1.387 . S
C2664 H2668 0.950 . S
C2664 C2673 1.390 . S
C2665 C2664 1.387 . S
C2665 C2667 1.387 . S
H2666 C2673 0.950 . S
C2667 C2665 1.387 . S
C2667 C2669 1.390 . S
C2667 H2671 0.950 . S
H2668 C2664 0.950 . S
C2669 C2667 1.390 . S
C2669 C2670 1.387 . S
C2669 H2672 0.950 . S
C2670 C2669 1.387 . S
C2670 C2673 1.387 . S
H2671 C2667 0.950 . S
H2672 C2669 0.950 . S
C2673 C2664 1.390 . S
C2673 H2666 0.950 . S
C2673 C2670 1.387 . S
C2674 C2675 1.387 . S
C2674 H2678 0.950 . S
C2674 C2683 1.390 . S
C2675 C2674 1.387 . S
C2675 C2677 1.387 . S
H2676 C2683 0.950 . S
C2677 C2675 1.387 . S
C2677 C2679 1.390 . S
C2677 H2681 0.950 . S
H2678 C2674 0.950 . S
C2679 C2677 1.390 . S
C2679 C2680 1.387 . S
C2679 H2682 0.950 . S
C2680 C2679 1.387 . S
C2680 C2683 1.387 . S
H2681 C2677 0.950 . S
H2682 C2679 0.950 . S
C2683 C2674 1.390 . S
C2683 H2676 0.950 . S
C2683 C2680 1.387 . S
C2684 C2685 1.387 . S
C2684 H2688 0.950 . S
C2684 C2693 1.390 . S
C2685 C2684 1.387 . S
C2685 C2687 1.387 . S
H2686 C2693 0.950 . S
C2687 C2685 1.387 . S
C2687 C2689 1.390 . S
C2687 H2691 0.950 . S
H2688 C2684 0.950 . S
C2689 C2687 1.390 . S
C2689 C2690 1.387 . S
C2689 H2692 0.950 . S
C2690 C2689 1.387 . S
C2690 C2693 1.387 . S
H2691 C2687 0.950 . S
H2692 C2689 0.950 . S
C2693 C2684 1.390 . S
C2693 H2686 0.950 . S
C2693 C2690 1.387 . S
C2694 C2695 1.387 . S
C2694 H2698 0.950 . S
C2694 C2703 1.390 . S
C2695 C2694 1.387 . S
C2695 C2697 1.387 . S
H2696 C2703 0.950 . S
C2697 C2695 1.387 . S
C2697 C2699 1.390 . S
C2697 H2701 0.950 . S
H2698 C2694 0.950 . S
C2699 C2697 1.390 . S
C2699 C2700 1.387 . S
C2699 H2702 0.950 . S
C2700 C2699 1.387 . S
C2700 C2703 1.387 . S
H2701 C2697 0.950 . S
H2702 C2699 0.950 . S
C2703 C2694 1.390 . S
C2703 H2696 0.950 . S
C2703 C2700 1.387 . S
C2704 C2705 1.387 . S
C2704 H2708 0.950 . S
C2704 C2713 1.390 . S
C2705 C2704 1.387 . S
C2705 C2707 1.387 . S
H2706 C2713 0.950 . S
C2707 C2705 1.387 . S
C2707 C2709 1.390 . S
C2707 H2711 0.950 . S
H2708 C2704 0.950 . S
C2709 C2707 1.390 . S
C2709 C2710 1.387 . S
C2709 H2712 0.950 . S
C2710 C2709 1.387 . S
C2710 C2713 1.387 . S
H2711 C2707 0.950 . S
H2712 C2709 0.950 . S
C2713 C2704 1.390 . S
C2713 H2706 0.950 . S
C2713 C2710 1.387 . S
C2714 C2715 1.387 . S
C2714 H2718 0.950 . S
C2714 C2723 1.390 . S
C2715 C2714 1.387 . S
C2715 C2717 1.387 . S
H2716 C2723 0.950 . S
C2717 C2715 1.387 . S
C2717 C2719 1.390 . S
C2717 H2721 0.950 . S
H2718 C2714 0.950 . S
C2719 C2717 1.390 . S
C2719 C2720 1.387 . S
C2719 H2722 0.950 . S
C2720 C2719 1.387 . S
C2720 C2723 1.387 . S
H2721 C2717 0.950 . S
H2722 C2719 0.950 . S
C2723 C2714 1.390 . S
C2723 H2716 0.950 . S
C2723 C2720 1.387 . S
C2724 C2725 1.387 . S
C2724 H2728 0.950 . S
C2724 C2733 1.390 . S
C2725 C2724 1.387 . S
C2725 C2727 1.387 . S
H2726 C2733 0.950 . S
C2727 C2725 1.387 . S
C2727 C2729 1.390 . S
C2727 H2731 0.950 . S
H2728 C2724 0.950 . S
C2729 C2727 1.390 . S
C2729 C2730 1.387 . S
C2729 H2732 0.950 . S
C2730 C2729 1.387 . S
C2730 C2733 1.387 . S
H2731 C2727 0.950 . S
H2732 C2729 0.950 . S
C2733 C2724 1.390 . S
C2733 H2726 0.950 . S
C2733 C2730 1.387 . S
C2734 C2735 1.387 . S
C2734 H2738 0.950 . S
C2734 C2743 1.390 . S
C2735 C2734 1.387 . S
C2735 C2737 1.387 . S
H2736 C2743 0.950 . S
C2737 C2735 1.387 . S
C2737 C2739 1.390 . S
C2737 H2741 0.950 . S
H2738 C2734 0.950 . S
C2739 C2737 1.390 . S
C2739 C2740 1.387 . S
C2739 H2742 0.950 . S
C2740 C2739 1.387 . S
C2740 C2743 1.387 . S
H2741 C2737 0.950 . S
H2742 C2739 0.950 . S
C2743 C2734 1.390 . S
C2743 H2736 0.950 . S
C2743 C2740 1.387 . S
C2744 C2745 1.387 . S
C2744 H2748 0.950 . S
C2744 C2753 1.390 . S
C2745 C2744 1.387 . S
C2745 C2747 1.387 . S
H2746 C2753 0.950 . S
C2747 C2745 1.387 . S
C2747 C2749 1.390 . S
C2747 H2751 0.950 . S
H2748 C2744 0.950 . S
C2749 C2747 1.390 . S
C2749 C2750 1.387 . S
C2749 H2752 0.950 . S
C2750 C2749 1.387 . S
C2750 C2753 1.387 . S
H2751 C2747 0.950 . S
H2752 C2749 0.950 . S
C2753 C2744 1.390 . S
C2753 H2746 0.950 . S
C2753 C2750 1.387 . S
C2754 C2755 1.387 . S
C2754 H2758 0.950 . S
C2754 C2763 1.390 . S
C2755 C2754 1.387 . S
C2755 C2757 1.387 . S
H2756 C2763 0.950 . S
C2757 C2755 1.387 . S
C2757 C2759 1.390 . S
C2757 H2761 0.950 . S
H2758 C2754 0.950 . S
C2759 C2757 1.390 . S
C2759 C2760 1.387 . S
C2759 H2762 0.950 . S
C2760 C2759 1.387 . S
C2760 C2763 1.387 . S
H2761 C2757 0.950 . S
H2762 C2759 0.950 . S
C2763 C2754 1.390 . S
C2763 H2756 0.950 . S
C2763 C2760 1.387 . S
C2764 C2765 1.387 . S
C2764 H2768 0.950 . S
C2764 C2773 1.390 . S
C2765 C2764 1.387 . S
C2765 C2767 1.387 . S
H2766 C2773 0.950 . S
C2767 C2765 1.387 . S
C2767 C2769 1.390 . S
C2767 H2771 0.950 . S
H2768 C2764 0.950 . S
C2769 C2767 1.390 . S
C2769 C2770 1.387 . S
C2769 H2772 0.950 . S
C2770 C2769 1.387 . S
C2770 C2773 1.387 . S
H2771 C2767 0.950 . S
H2772 C2769 0.950 . S
C2773 C2764 1.390 . S
C2773 H2766 0.950 . S
C2773 C2770 1.387 . S
C2774 C2775 1.387 . S
C2774 H2778 0.950 . S
C2774 C2783 1.390 . S
C2775 C2774 1.387 . S
C2775 C2777 1.387 . S
H2776 C2783 0.950 . S
C2777 C2775 1.387 . S
C2777 C2779 1.390 . S
C2777 H2781 0.950 . S
H2778 C2774 0.950 . S
C2779 C2777 1.390 . S
C2779 C2780 1.387 . S
C2779 H2782 0.950 . S
C2780 C2779 1.387 . S
C2780 C2783 1.387 . S
H2781 C2777 0.950 . S
H2782 C2779 0.950 . S
C2783 C2774 1.390 . S
C2783 H2776 0.950 . S
C2783 C2780 1.387 . S
C2784 C2785 1.387 . S
C2784 H2788 0.950 . S
C2784 C2793 1.390 1_455 S
C2785 C2784 1.387 . S
C2785 C2787 1.387 1_455 S
H2786 C2793 0.950 . S
C2787 C2785 1.387 1_655 S
C2787 C2789 1.390 . S
C2787 H2791 0.960 . S
H2788 C2784 0.950 . S
C2789 C2787 1.390 . S
C2789 C2790 1.387 . S
C2789 H2792 0.950 . S
C2790 C2789 1.387 . S
C2790 C2793 1.387 . S
H2791 C2787 0.960 . S
H2792 C2789 0.950 . S
C2793 C2784 1.390 1_655 S
C2793 H2786 0.950 . S
C2793 C2790 1.387 . S
C2794 C2795 1.387 . S
C2794 H2798 0.950 . S
C2794 C2803 1.390 . S
C2795 C2794 1.387 . S
C2795 C2797 1.387 . S
H2796 C2803 0.950 . S
C2797 C2795 1.387 . S
C2797 C2799 1.390 . S
C2797 H2801 0.950 . S
H2798 C2794 0.950 . S
C2799 C2797 1.390 . S
C2799 C2800 1.387 . S
C2799 H2802 0.950 . S
C2800 C2799 1.387 . S
C2800 C2803 1.387 . S
H2801 C2797 0.950 . S
H2802 C2799 0.950 . S
C2803 C2794 1.390 . S
C2803 H2796 0.950 . S
C2803 C2800 1.387 . S
C2804 C2805 1.387 . S
C2804 H2808 0.950 . S
C2804 C2813 1.390 . S
C2805 C2804 1.387 . S
C2805 C2807 1.387 . S
H2806 C2813 0.950 . S
C2807 C2805 1.387 . S
C2807 C2809 1.390 . S
C2807 H2811 0.950 . S
H2808 C2804 0.950 . S
C2809 C2807 1.390 . S
C2809 C2810 1.387 . S
C2809 H2812 0.950 . S
C2810 C2809 1.387 . S
C2810 C2813 1.387 . S
H2811 C2807 0.950 . S
H2812 C2809 0.950 . S
C2813 C2804 1.390 . S
C2813 H2806 0.950 . S
C2813 C2810 1.387 . S
C2814 C2815 1.387 1_554 S
C2814 H2818 0.950 1_554 S
C2814 C2823 1.390 . S
C2815 C2814 1.387 1_556 S
C2815 C2817 1.387 . S
H2816 C2823 0.950 . S
C2817 C2815 1.387 . S
C2817 C2819 1.390 1_556 S
C2817 H2821 0.950 . S
H2818 C2814 0.950 1_556 S
C2819 C2817 1.390 1_554 S
C2819 C2820 1.387 . S
C2819 H2822 0.950 . S
C2820 C2819 1.387 . S
C2820 C2823 1.387 . S
H2821 C2817 0.950 . S
H2822 C2819 0.950 . S
C2823 C2814 1.390 . S
C2823 H2816 0.950 . S
C2823 C2820 1.387 . S
C2824 C2825 1.387 . S
C2824 H2828 0.950 . S
C2824 C2833 1.390 . S
C2825 C2824 1.387 . S
C2825 C2827 1.387 . S
H2826 C2833 0.949 . S
C2827 C2825 1.387 . S
C2827 C2829 1.390 1_655 S
C2827 H2831 0.950 . S
H2828 C2824 0.950 . S
C2829 C2827 1.390 1_455 S
C2829 C2830 1.387 . S
C2829 H2832 0.950 . S
C2830 C2829 1.387 . S
C2830 C2833 1.387 1_455 S
H2831 C2827 0.950 . S
H2832 C2829 0.950 . S
C2833 C2824 1.390 . S
C2833 H2826 0.949 . S
C2833 C2830 1.387 1_655 S
C2834 C2835 1.387 . S
C2834 H2838 0.950 . S
C2834 C2843 1.390 . S
C2835 C2834 1.387 . S
C2835 C2837 1.387 . S
H2836 C2843 0.950 . S
C2837 C2835 1.387 . S
C2837 C2839 1.390 . S
C2837 H2841 0.950 . S
H2838 C2834 0.950 . S
C2839 C2837 1.390 . S
C2839 C2840 1.387 . S
C2839 H2842 0.950 . S
C2840 C2839 1.387 . S
C2840 C2843 1.387 . S
H2841 C2837 0.950 . S
H2842 C2839 0.950 . S
C2843 C2834 1.390 . S
C2843 H2836 0.950 . S
C2843 C2840 1.387 . S
C2844 C2845 1.387 . S
C2844 H2848 0.950 . S
C2844 C2853 1.390 . S
C2845 C2844 1.387 . S
C2845 C2847 1.387 . S
H2846 C2853 0.950 . S
C2847 C2845 1.387 . S
C2847 C2849 1.390 . S
C2847 H2851 0.950 . S
H2848 C2844 0.950 . S
C2849 C2847 1.390 . S
C2849 C2850 1.387 . S
C2849 H2852 0.950 . S
C2850 C2849 1.387 . S
C2850 C2853 1.387 . S
H2851 C2847 0.950 . S
H2852 C2849 0.950 . S
C2853 C2844 1.390 . S
C2853 H2846 0.950 . S
C2853 C2850 1.387 . S
C2854 C2855 1.387 . S
C2854 H2858 0.950 . S
C2854 C2863 1.407 . S
C2855 C2854 1.387 . S
C2855 C2857 1.387 . S
H2856 C2863 0.942 1_554 S
C2857 C2855 1.387 . S
C2857 C2859 1.384 1_556 S
C2857 H2861 0.950 . S
H2858 C2854 0.950 . S
C2859 C2857 1.384 1_554 S
C2859 C2860 1.390 . S
C2859 H2862 0.953 . S
C2860 C2859 1.390 . S
C2860 C2863 1.379 1_554 S
H2861 C2857 0.950 . S
H2862 C2859 0.953 . S
C2863 C2854 1.407 . S
C2863 H2856 0.942 1_556 S
C2863 C2860 1.379 1_556 S
C2864 C2865 1.387 . S
C2864 H2868 0.950 . S
C2864 C2873 1.390 1_545 S
C2865 C2864 1.387 . S
C2865 C2867 1.387 1_545 S
H2866 C2873 0.950 . S
C2867 C2865 1.387 1_565 S
C2867 C2869 1.390 . S
C2867 H2871 0.950 1_565 S
H2868 C2864 0.950 . S
C2869 C2867 1.390 . S
C2869 C2870 1.387 . S
C2869 H2872 0.950 . S
C2870 C2869 1.387 . S
C2870 C2873 1.387 . S
H2871 C2867 0.950 1_545 S
H2872 C2869 0.950 . S
C2873 C2864 1.390 1_565 S
C2873 H2866 0.950 . S
C2873 C2870 1.387 . S
C2874 C2875 1.387 . S
C2874 H2878 0.950 . S
C2874 C2883 1.390 1_545 S
C2875 C2874 1.387 . S
C2875 C2877 1.387 . S
H2876 C2883 0.950 . S
C2877 C2875 1.387 . S
C2877 C2879 1.390 . S
C2877 H2881 0.950 . S
H2878 C2874 0.950 . S
C2879 C2877 1.390 . S
C2879 C2880 1.387 1_545 S
C2879 H2882 0.940 1_545 S
C2880 C2879 1.387 1_565 S
C2880 C2883 1.387 . S
H2881 C2877 0.950 . S
H2882 C2879 0.940 1_565 S
C2883 C2874 1.390 1_565 S
C2883 H2876 0.950 . S
C2883 C2880 1.387 . S
C2884 C2885 1.387 . S
C2884 H2888 0.950 . S
C2884 C2893 1.390 1_565 S
C2885 C2884 1.387 . S
C2885 C2887 1.387 1_565 S
H2886 C2893 0.950 . S
C2887 C2885 1.387 1_545 S
C2887 C2889 1.390 . S
C2887 H2891 0.950 . S
H2888 C2884 0.950 . S
C2889 C2887 1.390 . S
C2889 C2890 1.387 . S
C2889 H2892 0.950 . S
C2890 C2889 1.387 . S
C2890 C2893 1.387 . S
H2891 C2887 0.950 . S
H2892 C2889 0.950 . S
C2893 C2884 1.390 1_545 S
C2893 H2886 0.950 . S
C2893 C2890 1.387 . S
C2894 C2895 1.387 . S
C2894 H2898 0.950 . S
C2894 C2903 1.390 1_545 S
C2895 C2894 1.387 . S
C2895 C2897 1.387 1_545 S
H2896 C2903 0.951 1_545 S
C2897 C2895 1.387 1_565 S
C2897 C2899 1.390 . S
C2897 H2901 0.950 . S
H2898 C2894 0.950 . S
C2899 C2897 1.390 . S
C2899 C2900 1.387 . S
C2899 H2902 0.950 . S
C2900 C2899 1.387 . S
C2900 C2903 1.387 . S
H2901 C2897 0.950 . S
H2902 C2899 0.950 . S
C2903 C2894 1.390 1_565 S
C2903 H2896 0.951 1_565 S
C2903 C2900 1.387 . S
C2904 C2905 1.387 . S
C2904 H2908 0.950 . S
C2904 C2913 1.390 . S
C2905 C2904 1.387 . S
C2905 C2907 1.393 1_554 S
H2906 C2913 0.950 . S
C2907 C2905 1.393 1_556 S
C2907 C2909 1.387 . S
C2907 H2911 0.948 . S
H2908 C2904 0.950 . S
C2909 C2907 1.387 . S
C2909 C2910 1.387 . S
C2909 H2912 0.950 . S
C2910 C2909 1.387 . S
C2910 C2913 1.387 1_556 S
H2911 C2907 0.948 . S
H2912 C2909 0.950 . S
C2913 C2904 1.390 . S
C2913 H2906 0.950 . S
C2913 C2910 1.387 1_554 S
C2914 C2915 1.387 . S
C2914 H2918 0.950 . S
C2914 C2923 1.390 . S
C2915 C2914 1.387 . S
C2915 C2917 1.387 . S
H2916 C2923 0.950 . S
C2917 C2915 1.387 . S
C2917 C2919 1.390 1_455 S
C2917 H2921 0.950 . S
H2918 C2914 0.950 . S
C2919 C2917 1.390 1_655 S
C2919 C2920 1.387 . S
C2919 H2922 0.950 . S
C2920 C2919 1.387 . S
C2920 C2923 1.387 1_655 S
H2921 C2917 0.950 . S
H2922 C2919 0.950 . S
C2923 C2914 1.390 . S
C2923 H2916 0.950 . S
C2923 C2920 1.387 1_455 S
C2924 C2925 1.387 . S
C2924 H2928 0.950 . S
C2924 C2933 1.390 . S
C2925 C2924 1.387 . S
C2925 C2927 1.387 . S
H2926 C2933 0.950 . S
C2927 C2925 1.387 . S
C2927 C2929 1.390 . S
C2927 H2931 0.950 . S
H2928 C2924 0.950 . S
C2929 C2927 1.390 . S
C2929 C2930 1.387 . S
C2929 H2932 0.950 . S
C2930 C2929 1.387 . S
C2930 C2933 1.387 . S
H2931 C2927 0.950 . S
H2932 C2929 0.950 . S
C2933 C2924 1.390 . S
C2933 H2926 0.950 . S
C2933 C2930 1.387 . S
C2934 C2935 1.387 . S
C2934 H2938 0.950 . S
C2934 C2943 1.390 1_655 S
C2935 C2934 1.387 . S
C2935 C2937 1.387 1_655 S
H2936 C2943 0.950 . S
C2937 C2935 1.387 1_455 S
C2937 C2939 1.390 . S
C2937 H2941 0.950 1_455 S
H2938 C2934 0.950 . S
C2939 C2937 1.390 . S
C2939 C2940 1.387 . S
C2939 H2942 0.950 . S
C2940 C2939 1.387 . S
C2940 C2943 1.387 . S
H2941 C2937 0.950 1_655 S
H2942 C2939 0.950 . S
C2943 C2934 1.390 1_455 S
C2943 H2936 0.950 . S
C2943 C2940 1.387 . S
C2944 C2945 1.387 . S
C2944 H2948 0.950 . S
C2944 C2953 1.390 . S
C2945 C2944 1.387 . S
C2945 C2947 1.387 . S
H2946 C2953 0.950 . S
C2947 C2945 1.387 . S
C2947 C2949 1.390 . S
C2947 H2951 0.950 . S
H2948 C2944 0.950 . S
C2949 C2947 1.390 . S
C2949 C2950 1.387 . S
C2949 H2952 0.950 . S
C2950 C2949 1.387 . S
C2950 C2953 1.387 . S
H2951 C2947 0.950 . S
H2952 C2949 0.950 . S
C2953 C2944 1.390 . S
C2953 H2946 0.950 . S
C2953 C2950 1.387 . S
C2954 C2955 1.387 1_455 S
C2954 H2958 0.950 . S
C2954 C2963 1.390 . S
C2955 C2954 1.387 1_655 S
C2955 C2957 1.387 . S
H2956 C2963 0.950 . S
C2957 C2955 1.387 . S
C2957 C2959 1.390 1_655 S
C2957 H2961 0.950 . S
H2958 C2954 0.950 . S
C2959 C2957 1.390 1_455 S
C2959 C2960 1.387 . S
C2959 H2962 0.950 . S
C2960 C2959 1.387 . S
C2960 C2963 1.387 . S
H2961 C2957 0.950 . S
H2962 C2959 0.950 . S
C2963 C2954 1.390 . S
C2963 H2956 0.950 . S
C2963 C2960 1.387 . S
C2964 C2965 1.387 . S
C2964 H2968 0.950 . S
C2964 C2973 1.390 . S
C2965 C2964 1.387 . S
C2965 C2967 1.387 . S
H2966 C2973 0.950 . S
C2967 C2965 1.387 . S
C2967 C2969 1.390 . S
C2967 H2971 0.950 . S
H2968 C2964 0.950 . S
C2969 C2967 1.390 . S
C2969 C2970 1.387 . S
C2969 H2972 0.950 . S
C2970 C2969 1.387 . S
C2970 C2973 1.387 . S
H2971 C2967 0.950 . S
H2972 C2969 0.950 . S
C2973 C2964 1.390 . S
C2973 H2966 0.950 . S
C2973 C2970 1.387 . S
C2974 C2975 1.387 . S
C2974 H2978 0.950 . S
C2974 C2983 1.390 . S
C2975 C2974 1.387 . S
C2975 C2977 1.387 . S
H2976 C2983 0.950 . S
C2977 C2975 1.387 . S
C2977 C2979 1.390 . S
C2977 H2981 0.950 . S
H2978 C2974 0.950 . S
C2979 C2977 1.390 . S
C2979 C2980 1.387 . S
C2979 H2982 0.950 . S
C2980 C2979 1.387 . S
C2980 C2983 1.387 . S
H2981 C2977 0.950 . S
H2982 C2979 0.950 . S
C2983 C2974 1.390 . S
C2983 H2976 0.950 . S
C2983 C2980 1.387 . S
C2984 C2985 1.387 . S
C2984 H2988 0.950 . S
C2984 C2993 1.390 1_554 S
C2985 C2984 1.387 . S
C2985 C2987 1.387 1_554 S
H2986 C2993 0.950 . S
C2987 C2985 1.387 1_556 S
C2987 C2989 1.390 . S
C2987 H2991 0.950 . S
H2988 C2984 0.950 . S
C2989 C2987 1.390 . S
C2989 C2990 1.387 . S
C2989 H2992 0.950 . S
C2990 C2989 1.387 . S
C2990 C2993 1.387 . S
H2991 C2987 0.950 . S
H2992 C2989 0.950 . S
C2993 C2984 1.390 1_556 S
C2993 H2986 0.950 . S
C2993 C2990 1.387 . S
C2994 C2995 1.387 1_455 S
C2994 H2998 0.950 . S
C2994 C3003 1.390 . S
C2995 C2994 1.387 1_655 S
C2995 C2997 1.387 . S
H2996 C3003 0.950 . S
C2997 C2995 1.387 . S
C2997 C2999 1.390 1_655 S
C2997 H3001 0.950 . S
H2998 C2994 0.950 . S
C2999 C2997 1.390 1_455 S
C2999 C3000 1.387 . S
C2999 H3002 0.950 . S
C3000 C2999 1.387 . S
C3000 C3003 1.387 . S
H3001 C2997 0.950 . S
H3002 C2999 0.950 . S
C3003 C2994 1.390 . S
C3003 H2996 0.950 . S
C3003 C3000 1.387 . S
C3004 C3005 1.387 . S
C3004 H3008 0.950 . S
C3004 C3013 1.390 . S
C3005 C3004 1.387 . S
C3005 C3007 1.387 . S
H3006 C3013 0.950 . S
C3007 C3005 1.387 . S
C3007 C3009 1.390 . S
C3007 H3011 0.950 . S
H3008 C3004 0.950 . S
C3009 C3007 1.390 . S
C3009 C3010 1.387 . S
C3009 H3012 0.950 . S
C3010 C3009 1.387 . S
C3010 C3013 1.387 . S
H3011 C3007 0.950 . S
H3012 C3009 0.950 . S
C3013 C3004 1.390 . S
C3013 H3006 0.950 . S
C3013 C3010 1.387 . S
C3014 C3015 1.387 . S
C3014 H3018 0.950 . S
C3014 C3023 1.390 . S
C3015 C3014 1.387 . S
C3015 C3017 1.387 . S
H3016 C3023 0.950 . S
C3017 C3015 1.387 . S
C3017 C3019 1.390 . S
C3017 H3021 0.950 . S
H3018 C3014 0.950 . S
C3019 C3017 1.390 . S
C3019 C3020 1.387 . S
C3019 H3022 0.950 . S
C3020 C3019 1.387 . S
C3020 C3023 1.387 . S
H3021 C3017 0.950 . S
H3022 C3019 0.950 . S
C3023 C3014 1.390 . S
C3023 H3016 0.950 . S
C3023 C3020 1.387 . S
C3024 C3025 1.387 . S
C3024 H3028 0.950 . S
C3024 C3033 1.390 1_554 S
C3025 C3024 1.387 . S
C3025 C3027 1.387 . S
H3026 C3033 0.950 . S
C3027 C3025 1.387 . S
C3027 C3029 1.390 . S
C3027 H3031 0.950 . S
H3028 C3024 0.950 . S
C3029 C3027 1.390 . S
C3029 C3030 1.387 1_554 S
C3029 H3032 0.950 . S
C3030 C3029 1.387 1_556 S
C3030 C3033 1.387 . S
H3031 C3027 0.950 . S
H3032 C3029 0.950 . S
C3033 C3024 1.390 1_556 S
C3033 H3026 0.950 . S
C3033 C3030 1.387 . S
C3034 C3035 1.387 1_545 S
C3034 H3038 0.950 . S
C3034 C3043 1.390 . S
C3035 C3034 1.387 1_565 S
C3035 C3037 1.387 . S
H3036 C3043 0.950 . S
C3037 C3035 1.387 . S
C3037 C3039 1.390 1_565 S
C3037 H3041 0.950 . S
H3038 C3034 0.950 . S
C3039 C3037 1.390 1_545 S
C3039 C3040 1.387 . S
C3039 H3042 0.954 . S
C3040 C3039 1.387 . S
C3040 C3043 1.387 . S
H3041 C3037 0.950 . S
H3042 C3039 0.954 . S
C3043 C3034 1.390 . S
C3043 H3036 0.950 . S
C3043 C3040 1.387 . S
C3044 C3045 1.387 . S
C3044 H3048 0.950 . S
C3044 C3053 1.390 . S
C3045 C3044 1.387 . S
C3045 C3047 1.387 . S
H3046 C3053 0.954 . S
C3047 C3045 1.387 . S
C3047 C3049 1.390 1_565 S
C3047 H3051 0.950 . S
H3048 C3044 0.950 . S
C3049 C3047 1.390 1_545 S
C3049 C3050 1.387 . S
C3049 H3052 0.950 . S
C3050 C3049 1.387 . S
C3050 C3053 1.387 1_545 S
H3051 C3047 0.950 . S
H3052 C3049 0.950 . S
C3053 C3044 1.390 . S
C3053 H3046 0.954 . S
C3053 C3050 1.387 1_565 S
C3054 C3055 1.387 . S
C3054 H3058 0.950 . S
C3054 C3063 1.390 1_565 S
C3055 C3054 1.387 . S
C3055 C3057 1.387 . S
H3056 C3063 0.950 . S
C3057 C3055 1.387 . S
C3057 C3059 1.390 . S
C3057 H3061 0.950 . S
H3058 C3054 0.950 . S
C3059 C3057 1.390 . S
C3059 C3060 1.387 1_565 S
C3059 H3062 0.950 . S
C3060 C3059 1.387 1_545 S
C3060 C3063 1.387 . S
H3061 C3057 0.950 . S
H3062 C3059 0.950 . S
C3063 C3054 1.390 1_545 S
C3063 H3056 0.950 . S
C3063 C3060 1.387 . S
C3064 C3065 1.387 . S
C3064 H3068 0.950 . S
C3064 C3073 1.390 . S
C3065 C3064 1.387 . S
C3065 C3067 1.420 . S
H3066 C3073 0.950 . S
C3067 C3065 1.420 . S
C3067 C3069 1.368 1_545 S
C3067 H3071 0.940 1_545 S
H3068 C3064 0.950 . S
C3069 C3067 1.368 1_565 S
C3069 C3070 1.387 . S
C3069 H3072 0.950 . S
C3070 C3069 1.387 . S
C3070 C3073 1.387 1_565 S
H3071 C3067 0.940 1_565 S
H3072 C3069 0.950 . S
C3073 C3064 1.390 . S
C3073 H3066 0.950 . S
C3073 C3070 1.387 1_545 S
C3074 C3075 1.387 . S
C3074 H3078 0.950 . S
C3074 C3083 1.390 1_556 S
C3075 C3074 1.387 . S
C3075 C3077 1.387 . S
H3076 C3083 0.950 . S
C3077 C3075 1.387 . S
C3077 C3079 1.390 . S
C3077 H3081 0.950 . S
H3078 C3074 0.950 . S
C3079 C3077 1.390 . S
C3079 C3080 1.387 1_556 S
C3079 H3082 0.950 . S
C3080 C3079 1.387 1_554 S
C3080 C3083 1.387 . S
H3081 C3077 0.950 . S
H3082 C3079 0.950 . S
C3083 C3074 1.390 1_554 S
C3083 H3076 0.950 . S
C3083 C3080 1.387 . S
C3084 C3085 1.387 . S
C3084 H3088 0.950 . S
C3084 C3093 1.390 . S
C3085 C3084 1.387 . S
C3085 C3087 1.387 . S
H3086 C3093 0.950 . S
C3087 C3085 1.387 . S
C3087 C3089 1.390 1_655 S
C3087 H3091 0.950 1_655 S
H3088 C3084 0.950 . S
C3089 C3087 1.390 1_455 S
C3089 C3090 1.387 . S
C3089 H3092 0.950 . S
C3090 C3089 1.387 . S
C3090 C3093 1.387 1_455 S
H3091 C3087 0.950 1_455 S
H3092 C3089 0.950 . S
C3093 C3084 1.390 . S
C3093 H3086 0.950 . S
C3093 C3090 1.387 1_655 S
C3094 C3095 1.387 . S
C3094 H3098 0.950 . S
C3094 C3103 1.390 . S
C3095 C3094 1.387 . S
C3095 C3097 1.387 . S
H3096 C3103 0.950 . S
C3097 C3095 1.387 . S
C3097 C3099 1.390 . S
C3097 H3101 0.950 . S
H3098 C3094 0.950 . S
C3099 C3097 1.390 . S
C3099 C3100 1.387 . S
C3099 H3102 0.950 . S
C3100 C3099 1.387 . S
C3100 C3103 1.387 . S
H3101 C3097 0.950 . S
H3102 C3099 0.950 . S
C3103 C3094 1.390 . S
C3103 H3096 0.950 . S
C3103 C3100 1.387 . S
C3104 C3105 1.387 . S
C3104 H3108 0.950 . S
C3104 C3113 1.390 1_655 S
C3105 C3104 1.387 . S
C3105 C3107 1.387 . S
H3106 C3113 0.950 . S
C3107 C3105 1.387 . S
C3107 C3109 1.390 . S
C3107 H3111 0.950 . S
H3108 C3104 0.950 . S
C3109 C3107 1.390 . S
C3109 C3110 1.387 1_655 S
C3109 H3112 0.950 1_655 S
C3110 C3109 1.387 1_455 S
C3110 C3113 1.387 . S
H3111 C3107 0.950 . S
H3112 C3109 0.950 1_455 S
C3113 C3104 1.390 1_455 S
C3113 H3106 0.950 . S
C3113 C3110 1.387 . S
C3114 C3115 1.387 . S
C3114 H3118 0.950 . S
C3114 C3123 1.390 . S
C3115 C3114 1.387 . S
C3115 C3117 1.387 . S
H3116 C3123 0.950 . S
C3117 C3115 1.387 . S
C3117 C3119 1.390 . S
C3117 H3121 0.950 . S
H3118 C3114 0.950 . S
C3119 C3117 1.390 . S
C3119 C3120 1.387 . S
C3119 H3122 0.950 . S
C3120 C3119 1.387 . S
C3120 C3123 1.387 . S
H3121 C3117 0.950 . S
H3122 C3119 0.950 . S
C3123 C3114 1.390 . S
C3123 H3116 0.950 . S
C3123 C3120 1.387 . S
C3124 C3125 1.387 . S
C3124 H3128 0.950 . S
C3124 C3133 1.390 . S
C3125 C3124 1.387 . S
C3125 C3127 1.387 . S
H3126 C3133 0.950 . S
C3127 C3125 1.387 . S
C3127 C3129 1.390 . S
C3127 H3131 0.950 . S
H3128 C3124 0.950 . S
C3129 C3127 1.390 . S
C3129 C3130 1.387 . S
C3129 H3132 0.950 . S
C3130 C3129 1.387 . S
C3130 C3133 1.387 . S
H3131 C3127 0.950 . S
H3132 C3129 0.950 . S
C3133 C3124 1.390 . S
C3133 H3126 0.950 . S
C3133 C3130 1.387 . S
C3134 C3135 1.387 . S
C3134 H3138 0.950 . S
C3134 C3143 1.390 . S
C3135 C3134 1.387 . S
C3135 C3137 1.387 . S
H3136 C3143 0.950 . S
C3137 C3135 1.387 . S
C3137 C3139 1.390 1_556 S
C3137 H3141 0.945 1_556 S
H3138 C3134 0.950 . S
C3139 C3137 1.390 1_554 S
C3139 C3140 1.387 . S
C3139 H3142 0.950 . S
C3140 C3139 1.387 . S
C3140 C3143 1.387 1_554 S
H3141 C3137 0.945 1_554 S
H3142 C3139 0.950 . S
C3143 C3134 1.390 . S
C3143 H3136 0.950 . S
C3143 C3140 1.387 1_556 S
C3144 C3145 1.387 . S
C3144 H3148 0.950 . S
C3144 C3153 1.390 . S
C3145 C3144 1.387 . S
C3145 C3147 1.387 . S
H3146 C3153 0.950 . S
C3147 C3145 1.387 . S
C3147 C3149 1.390 . S
C3147 H3151 0.950 . S
H3148 C3144 0.950 . S
C3149 C3147 1.390 . S
C3149 C3150 1.387 . S
C3149 H3152 0.950 . S
C3150 C3149 1.387 . S
C3150 C3153 1.387 . S
H3151 C3147 0.950 . S
H3152 C3149 0.950 . S
C3153 C3144 1.390 . S
C3153 H3146 0.950 . S
C3153 C3150 1.387 . S
C3154 C3155 1.387 . S
C3154 H3158 0.950 . S
C3154 C3163 1.390 . S
C3155 C3154 1.387 . S
C3155 C3157 1.387 . S
H3156 C3163 0.950 . S
C3157 C3155 1.387 . S
C3157 C3159 1.390 . S
C3157 H3161 0.950 . S
H3158 C3154 0.950 . S
C3159 C3157 1.390 . S
C3159 C3160 1.387 . S
C3159 H3162 0.950 . S
C3160 C3159 1.387 . S
C3160 C3163 1.387 . S
H3161 C3157 0.950 . S
H3162 C3159 0.950 . S
C3163 C3154 1.390 . S
C3163 H3156 0.950 . S
C3163 C3160 1.387 . S
C3164 C3165 1.387 . S
C3164 H3168 0.950 . S
C3164 C3173 1.390 . S
C3165 C3164 1.387 . S
C3165 C3167 1.387 . S
H3166 C3173 0.950 . S
C3167 C3165 1.387 . S
C3167 C3169 1.390 . S
C3167 H3171 0.950 . S
H3168 C3164 0.950 . S
C3169 C3167 1.390 . S
C3169 C3170 1.387 . S
C3169 H3172 0.950 . S
C3170 C3169 1.387 . S
C3170 C3173 1.387 . S
H3171 C3167 0.950 . S
H3172 C3169 0.950 . S
C3173 C3164 1.390 . S
C3173 H3166 0.950 . S
C3173 C3170 1.387 . S
C3174 C3175 1.387 . S
C3174 H3178 0.950 . S
C3174 C3183 1.390 . S
C3175 C3174 1.387 . S
C3175 C3177 1.387 . S
H3176 C3183 0.950 . S
C3177 C3175 1.387 . S
C3177 C3179 1.390 . S
C3177 H3181 0.950 . S
H3178 C3174 0.950 . S
C3179 C3177 1.390 . S
C3179 C3180 1.387 . S
C3179 H3182 0.950 . S
C3180 C3179 1.387 . S
C3180 C3183 1.387 . S
H3181 C3177 0.950 . S
H3182 C3179 0.950 . S
C3183 C3174 1.390 . S
C3183 H3176 0.950 . S
C3183 C3180 1.387 . S
C3184 C3185 1.387 . S
C3184 H3188 0.950 . S
C3184 C3193 1.390 . S
C3185 C3184 1.387 . S
C3185 C3187 1.387 . S
H3186 C3193 0.950 . S
C3187 C3185 1.387 . S
C3187 C3189 1.390 . S
C3187 H3191 0.950 . S
H3188 C3184 0.950 . S
C3189 C3187 1.390 . S
C3189 C3190 1.387 . S
C3189 H3192 0.950 . S
C3190 C3189 1.387 . S
C3190 C3193 1.387 . S
H3191 C3187 0.950 . S
H3192 C3189 0.950 . S
C3193 C3184 1.390 . S
C3193 H3186 0.950 . S
C3193 C3190 1.387 . S
C3194 C3195 1.387 . S
C3194 H3198 0.950 . S
C3194 C3203 1.390 . S
C3195 C3194 1.387 . S
C3195 C3197 1.387 . S
H3196 C3203 0.950 . S
C3197 C3195 1.387 . S
C3197 C3199 1.390 . S
C3197 H3201 0.950 . S
H3198 C3194 0.950 . S
C3199 C3197 1.390 . S
C3199 C3200 1.387 . S
C3199 H3202 0.950 . S
C3200 C3199 1.387 . S
C3200 C3203 1.387 . S
H3201 C3197 0.950 . S
H3202 C3199 0.950 . S
C3203 C3194 1.390 . S
C3203 H3196 0.950 . S
C3203 C3200 1.387 . S
C3204 C3205 1.387 . S
C3204 H3208 0.950 . S
C3204 C3213 1.390 . S
C3205 C3204 1.387 . S
C3205 C3207 1.387 . S
H3206 C3213 0.950 . S
C3207 C3205 1.387 . S
C3207 C3209 1.390 1_554 S
C3207 H3211 0.950 1_554 S
H3208 C3204 0.950 . S
C3209 C3207 1.390 1_556 S
C3209 C3210 1.387 . S
C3209 H3212 0.950 . S
C3210 C3209 1.387 . S
C3210 C3213 1.387 1_556 S
H3211 C3207 0.950 1_556 S
H3212 C3209 0.950 . S
C3213 C3204 1.390 . S
C3213 H3206 0.950 . S
C3213 C3210 1.387 1_554 S
C3214 C3215 1.387 . S
C3214 H3218 0.950 . S
C3214 C3223 1.390 . S
C3215 C3214 1.387 . S
C3215 C3217 1.387 . S
H3216 C3223 0.950 . S
C3217 C3215 1.387 . S
C3217 C3219 1.390 . S
C3217 H3221 0.950 . S
H3218 C3214 0.950 . S
C3219 C3217 1.390 . S
C3219 C3220 1.387 . S
C3219 H3222 0.950 . S
C3220 C3219 1.387 . S
C3220 C3223 1.387 . S
H3221 C3217 0.950 . S
H3222 C3219 0.950 . S
C3223 C3214 1.390 . S
C3223 H3216 0.950 . S
C3223 C3220 1.387 . S
C3224 C3225 1.387 . S
C3224 H3228 0.950 . S
C3224 C3233 1.390 . S
C3225 C3224 1.387 . S
C3225 C3227 1.387 . S
H3226 C3233 0.950 . S
C3227 C3225 1.387 . S
C3227 C3229 1.390 . S
C3227 H3231 0.950 . S
H3228 C3224 0.950 . S
C3229 C3227 1.390 . S
C3229 C3230 1.387 . S
C3229 H3232 0.950 . S
C3230 C3229 1.387 . S
C3230 C3233 1.387 . S
H3231 C3227 0.950 . S
H3232 C3229 0.950 . S
C3233 C3224 1.390 . S
C3233 H3226 0.950 . S
C3233 C3230 1.387 . S
C3234 C3235 1.387 . S
C3234 H3238 0.950 . S
C3234 C3243 1.390 . S
C3235 C3234 1.387 . S
C3235 C3237 1.387 . S
H3236 C3243 0.950 . S
C3237 C3235 1.387 . S
C3237 C3239 1.390 . S
C3237 H3241 0.950 . S
H3238 C3234 0.950 . S
C3239 C3237 1.390 . S
C3239 C3240 1.387 . S
C3239 H3242 0.950 . S
C3240 C3239 1.387 . S
C3240 C3243 1.387 . S
H3241 C3237 0.950 . S
H3242 C3239 0.950 . S
C3243 C3234 1.390 . S
C3243 H3236 0.950 . S
C3243 C3240 1.387 . S
C3244 C3245 1.387 . S
C3244 H3248 0.950 . S
C3244 C3253 1.390 . S
C3245 C3244 1.387 . S
C3245 C3247 1.387 . S
H3246 C3253 0.950 . S
C3247 C3245 1.387 . S
C3247 C3249 1.390 . S
C3247 H3251 0.950 . S
H3248 C3244 0.950 . S
C3249 C3247 1.390 . S
C3249 C3250 1.387 . S
C3249 H3252 0.950 . S
C3250 C3249 1.387 . S
C3250 C3253 1.387 . S
H3251 C3247 0.950 . S
H3252 C3249 0.950 . S
C3253 C3244 1.390 . S
C3253 H3246 0.950 . S
C3253 C3250 1.387 . S
C3254 C3255 1.387 . S
C3254 H3258 0.950 . S
C3254 C3263 1.390 . S
C3255 C3254 1.387 . S
C3255 C3257 1.387 . S
H3256 C3263 0.950 . S
C3257 C3255 1.387 . S
C3257 C3259 1.390 . S
C3257 H3261 0.950 . S
H3258 C3254 0.950 . S
C3259 C3257 1.390 . S
C3259 C3260 1.387 . S
C3259 H3262 0.950 . S
C3260 C3259 1.387 . S
C3260 C3263 1.387 . S
H3261 C3257 0.950 . S
H3262 C3259 0.950 . S
C3263 C3254 1.390 . S
C3263 H3256 0.950 . S
C3263 C3260 1.387 . S
C1345 C8 1.319 . S
C1350 C1059 1.444 . S
C1355 C345 1.444 1_455 S
C1360 C22 1.319 . S
C1365 C1031 1.444 . S
C1370 C36 1.320 . S
C1375 C373 1.444 . S
C1380 C50 1.319 . S
C1385 C64 1.319 . S
C1390 C1087 1.444 . S
C1395 C78 1.319 . S
C1400 C429 1.444 . S
C1405 C1115 1.444 . S
C1410 C92 1.319 . S
C1415 C106 1.319 . S
C1420 C401 1.444 1_455 S
C1425 C121 1.320 . S
C1430 C1269 1.443 . S
C1435 C611 1.443 . S
C1440 C134 1.323 . S
C1445 C149 1.324 . S
C1450 C625 1.444 . S
C1455 C162 1.324 . S
C1460 C583 1.444 1_556 S
C1465 C177 1.324 . S
C1470 C1325 1.444 . S
C1475 C190 1.320 . S
C1480 C1241 1.444 . S
C1485 C205 1.320 . S
C1490 C1339 1.444 . S
C1495 C218 1.324 . S
C1500 C1311 1.444 1_554 S
C1505 C1143 1.444 . S
C1510 C232 1.319 . S
C1515 C246 1.320 . S
C1520 C555 1.444 . S
C1525 C261 1.324 . S
C1530 C1185 1.444 . S
C1535 C527 1.444 . S
C1540 C274 1.324 . S
C1545 C289 1.319 . S
C1550 C541 1.444 1_545 S
C1555 C1171 1.444 . S
C1560 C302 1.324 . S
C1565 C317 1.324 . S
C1570 C1129 1.444 . S
C1575 C1157 1.444 . S
C1580 C331 1.319 . S
C1585 C723 1.443 . S
C1590 C344 1.324 . S
C1595 C9 1.444 1_655 S
C1600 C358 1.319 . S
C1605 C372 1.319 . S
C1610 C695 1.444 . S
C1615 C386 1.319 . S
C1620 C37 1.444 . S
C1625 C400 1.319 . S
C1630 C751 1.444 . S
C1635 C93 1.444 . S
C1640 C414 1.319 . S
C1645 C428 1.324 . S
C1650 C779 1.444 . S
C1655 C442 1.319 . S
C1660 C65 1.444 1_655 S
C1665 C456 1.324 . S
C1670 C932 1.444 . S
C1675 C275 1.444 . S
C1680 C470 1.324 . S
C1685 C484 1.324 . S
C1690 C288 1.444 . S
C1695 C247 1.444 1_554 S
C1700 C498 1.319 . S
C1705 C512 1.319 . S
C1710 C988 1.444 . S
C1715 C526 1.320 . S
C1720 C905 1.444 . S
C1725 C540 1.324 . S
C1730 C1002 1.444 . S
C1735 C975 1.444 1_556 S
C1740 C554 1.322 . S
C1745 C807 1.444 . S
C1750 C568 1.319 . S
C1755 C219 1.444 . S
C1760 C582 1.319 . S
C1765 C848 1.444 . S
C1770 C596 1.319 . S
C1775 C610 1.324 . S
C1780 C191 1.444 . S
C1785 C624 1.319 . S
C1790 C204 1.444 1_565 S
C1795 C638 1.319 . S
C1800 C835 1.444 . S
C1805 C792 1.444 . S
C1810 C652 1.324 . S
C1815 C666 1.324 . S
C1820 C820 1.444 . S
C1825 C387 1.444 . S
C1830 C680 1.319 . S
C1835 C1017 1.444 . S
C1840 C694 1.324 . S
C1845 C708 1.324 . S
C1850 C359 1.444 . S
C1855 C1045 1.444 1_655 S
C1860 C722 1.319 . S
C1865 C736 1.324 . S
C1870 C415 1.444 . S
C1875 C1101 1.444 1_655 S
C1880 C750 1.319 . S
C1885 C764 1.319 . S
C1890 C443 1.444 . S
C1895 C1073 1.444 . S
C1900 C778 1.319 . S
C1905 C597 1.444 . S
C1910 C793 1.320 . S
C1915 C806 1.319 . S
C1920 C1283 1.444 1_556 S
C1925 C1297 1.444 . S
C1930 C821 1.324 . S
C1935 C834 1.323 . S
C1940 C1255 1.443 . S
C1945 C653 1.443 . S
C1950 C849 1.323 . S
C1955 C862 1.324 . S
C1960 C569 1.444 1_554 S
C1965 C667 1.444 . S
C1970 C877 1.319 . S
C1975 C639 1.444 . S
C1980 C890 1.324 . S
C1985 C471 1.444 . S
C1990 C904 1.319 . S
C1995 C1227 1.444 . S
C2000 C918 1.319 . S
C2005 C933 1.323 . S
C2010 C513 1.444 1_565 S
C2015 C946 1.319 . S
C2020 C1199 1.444 . S
C2025 C1213 1.444 . S
C2030 C961 1.319 . S
C2035 C499 1.444 . S
C2040 C974 1.324 . S
C2045 C457 1.444 1_545 S
C2050 C989 1.324 . S
C2055 C485 1.444 1_565 S
C2060 C1003 1.319 . S
C2065 C1016 1.324 . S
C2070 C51 1.444 . S
C2075 C1030 1.324 . S
C2080 C681 1.444 . S
C2085 C1044 1.319 . S
C2090 C23 1.444 . S
C2095 C1058 1.323 . S
C2100 C709 1.444 1_455 S
C2105 C79 1.444 . S
C2110 C1072 1.324 . S
C2115 C765 1.444 1_455 S
C2120 C1086 1.319 . S
C2125 C107 1.444 . S
C2130 C1100 1.320 . S
C2135 C737 1.444 . S
C2140 C1114 1.319 . S
C2145 C1128 1.324 . S
C2150 C260 1.444 . S
C2155 C947 1.444 1_554 S
C2160 C1142 1.319 . S
C2165 C1156 1.319 . S
C2170 C960 1.444 . S
C2175 C1170 1.323 . S
C2180 C919 1.444 . S
C2185 C316 1.444 . S
C2190 C1184 1.324 . S
C2195 C233 1.444 1_556 S
C2200 C1198 1.319 . S
C2205 C1212 1.319 . S
C2210 C330 1.444 . S
C2215 C303 1.444 . S
C2220 C1226 1.324 . S
C2225 C1240 1.323 . S
C2230 C135 1.444 . S
C2235 C1254 1.324 . S
C2240 C891 1.444 . S
C2245 C176 1.444 1_545 S
C2250 C1268 1.319 . S
C2255 C1282 1.319 . S
C2260 C863 1.444 . S
C2265 C876 1.444 . S
C2270 C1296 1.319 . S
C2275 C1310 1.324 . S
C2280 C163 1.444 . S
C2285 C1324 1.319 . S
C2290 C120 1.444 1_565 S
C2295 C1338 1.319 . S
C2300 C148 1.444 1_545 S
C2305 C6 1.423 . S
C2310 C132 1.420 . S
C2315 C20 1.421 . S
C2320 C147 1.424 . S
C2325 C160 1.420 . S
C2330 C34 1.421 . S
C2335 C48 1.423 . S
C2340 C119 1.420 . S
C2345 C216 1.424 . S
C2350 C62 1.423 . S
C2355 C76 1.423 . S
C2360 C175 1.420 . S
C2365 C90 1.423 . S
C2370 C188 1.424 . S
C2375 C203 1.424 . S
C2380 C104 1.423 . S
C2385 C259 1.423 . S
C2390 C230 1.423 . S
C2395 C244 1.421 . S
C2400 C987 1.424 . S
C2405 C1001 1.424 . S
C2410 C272 1.422 . S
C2415 C287 1.420 . S
C2420 C972 1.421 . S
C2425 C959 1.423 . S
C2430 C300 1.420 . S
C2435 C315 1.424 . S
C2440 C916 1.422 . S
C2445 C329 1.420 . S
C2450 C944 1.422 . S
C2455 C342 1.423 . S
C2460 C468 1.423 . S
C2465 C482 1.424 . S
C2470 C356 1.421 . S
C2475 C496 1.423 . S
C2480 C370 1.424 . S
C2485 C384 1.421 . S
C2490 C454 1.424 . S
C2495 C552 1.422 . S
C2500 C398 1.420 . S
C2505 C412 1.422 . S
C2510 C510 1.420 . S
C2515 C524 1.422 . S
C2520 C426 1.420 . S
C2525 C440 1.423 . S
C2530 C538 1.420 . S
C2535 C594 1.420 . S
C2540 C566 1.423 . S
C2545 C580 1.420 . S
C2550 C1322 1.423 . S
C2555 C608 1.423 . S
C2560 C1336 1.420 . S
C2565 C1308 1.421 . S
C2570 C622 1.424 . S
C2575 C1294 1.420 . S
C2580 C636 1.422 . S
C2585 C1252 1.421 . S
C2590 C650 1.424 . S
C2595 C1280 1.423 . S
C2600 C664 1.420 . S
C2605 C804 1.424 . S
C2610 C678 1.423 . S
C2615 C819 1.424 . S
C2620 C692 1.421 . S
C2625 C832 1.421 . S
C2630 C706 1.420 . S
C2635 C720 1.423 . S
C2640 C791 1.424 . S
C2645 C734 1.420 . S
C2650 C888 1.421 . S
C2655 C748 1.420 . S
C2660 C847 1.423 . S
C2665 C762 1.421 . S
C2670 C860 1.420 . S
C2675 C776 1.421 . S
C2680 C875 1.424 . S
C2685 C931 1.420 . S
C2690 C902 1.423 . S
C2695 C1140 1.424 . S
C2700 C1014 1.421 . S
C2705 C1028 1.422 . S
C2710 C1154 1.424 . S
C2715 C1168 1.422 . S
C2720 C1042 1.420 . S
C2725 C1126 1.424 . S
C2730 C1056 1.422 . S
C2735 C1224 1.420 . S
C2740 C1070 1.421 . S
C2745 C1182 1.424 . S
C2750 C1084 1.422 . S
C2755 C1196 1.424 . S
C2760 C1098 1.423 . S
C2765 C1210 1.424 . S
C2770 C1112 1.421 . S
C2775 C1266 1.424 . S
C2780 C1238 1.422 . S
C2785 C7 1.447 . S
C2790 C286 1.446 . S
C2795 C917 1.448 . S
C2800 C21 1.448 . S
C2805 C930 1.447 . S
C2810 C35 1.448 . S
C2815 C945 1.448 . S
C2820 C49 1.447 . S
C2825 C1000 1.447 . S
C2830 C63 1.448 . S
C2835 C77 1.446 . S
C2840 C301 1.447 . S
C2845 C91 1.446 . S
C2850 C986 1.447 . S
C2855 C105 1.447 . S
C2860 C231 1.446 . S
C2865 C118 1.448 . S
C2870 C217 1.446 . S
C2875 C133 1.446 . S
C2880 C174 1.448 . S
C2885 C146 1.447 . S
C2890 C189 1.446 . S
C2895 C202 1.447 . S
C2900 C161 1.445 . S
C2905 C693 1.448 . S
C2910 C245 1.447 . S
C2915 C258 1.447 . S
C2920 C707 1.446 . S
C2925 C273 1.447 . S
C2930 C721 1.446 . S
C2935 C763 1.445 . S
C2940 C314 1.447 . S
C2945 C328 1.446 . S
C2950 C735 1.445 . S
C2955 C343 1.445 . S
C2960 C623 1.446 . S
C2965 C1253 1.446 . S
C2970 C357 1.447 . S
C2975 C1267 1.446 . S
C2980 C371 1.447 . S
C2985 C1281 1.446 . S
C2990 C385 1.448 . S
C2995 C399 1.445 . S
C3000 C1337 1.446 . S
C3005 C413 1.445 . S
C3010 C637 1.446 . S
C3015 C427 1.445 . S
C3020 C1323 1.446 . S
C3025 C441 1.447 . S
C3030 C567 1.448 . S
C3035 C455 1.447 . S
C3040 C553 1.445 . S
C3045 C469 1.446 . S
C3050 C511 1.447 . S
C3055 C525 1.448 . S
C3060 C483 1.446 . S
C3065 C497 1.445 . S
C3070 C539 1.446 . S
C3075 C1029 1.447 . S
C3080 C581 1.448 . S
C3085 C595 1.446 . S
C3090 C1043 1.445 . S
C3095 C1057 1.446 . S
C3100 C609 1.445 . S
C3105 C651 1.447 . S
C3110 C1099 1.446 . S
C3115 C1071 1.448 . S
C3120 C665 1.447 . S
C3125 C679 1.448 . S
C3130 C958 1.446 . S
C3135 C749 1.448 . S
C3140 C973 1.447 . S
C3145 C777 1.448 . S
C3150 C903 1.448 . S
C3155 C889 1.447 . S
C3160 C790 1.446 . S
C3165 C805 1.445 . S
C3170 C846 1.446 . S
C3175 C861 1.448 . S
C3180 C818 1.446 . S
C3185 C833 1.446 . S
C3190 C874 1.447 . S
C3195 C1295 1.446 . S
C3200 C1015 1.445 . S
C3205 C1085 1.446 . S
C3210 C1309 1.445 . S
C3215 C1113 1.446 . S
C3220 C1239 1.447 . S
C3225 C1225 1.448 . S
C3230 C1127 1.447 . S
C3235 C1183 1.447 . S
C3240 C1141 1.445 . S
C3245 C1155 1.448 . S
C3250 C1197 1.447 . S
C3255 C1169 1.446 . S
C3260 C1211 1.447 . S
