# Generated by pormake.
# Topology uoy, (4)-cn, num edge types: 1
# Building blocks:
#     Node 0, Type 0, BuildingBlock: QUQFOY_clean_sbu_1, # of connection points: 4
#     Node 1, Type 0, BuildingBlock: QUQFOY_clean_sbu_1, # of connection points: 4
#     Node 2, Type 0, BuildingBlock: QUQFOY_clean_sbu_1, # of connection points: 4
#     Node 3, Type 0, BuildingBlock: QUQFOY_clean_sbu_1, # of connection points: 4
#     Node 4, Type 0, BuildingBlock: QUQFOY_clean_sbu_1, # of connection points: 4
#     Node 5, Type 0, BuildingBlock: QUQFOY_clean_sbu_1, # of connection points: 4
#     Node 6, Type 0, BuildingBlock: QUQFOY_clean_sbu_1, # of connection points: 4
#     Node 7, Type 0, BuildingBlock: QUQFOY_clean_sbu_1, # of connection points: 4
#     Node 8, Type 0, BuildingBlock: QUQFOY_clean_sbu_1, # of connection points: 4
#     Node 9, Type 0, BuildingBlock: QUQFOY_clean_sbu_1, # of connection points: 4
#     Node 10, Type 0, BuildingBlock: QUQFOY_clean_sbu_1, # of connection points: 4
#     Node 11, Type 0, BuildingBlock: QUQFOY_clean_sbu_1, # of connection points: 4
#     Node 12, Type 0, BuildingBlock: QUQFOY_clean_sbu_1, # of connection points: 4
#     Node 13, Type 0, BuildingBlock: QUQFOY_clean_sbu_1, # of connection points: 4
#     Node 14, Type 0, BuildingBlock: QUQFOY_clean_sbu_1, # of connection points: 4
#     Node 15, Type 0, BuildingBlock: QUQFOY_clean_sbu_1, # of connection points: 4
#     Edge 16, Type (0, 0), BuildingBlock: AJUNOK_clean_linker_0, # of connection points: 2
#     Edge 17, Type (0, 0), BuildingBlock: AJUNOK_clean_linker_0, # of connection points: 2
#     Edge 18, Type (0, 0), BuildingBlock: AJUNOK_clean_linker_0, # of connection points: 2
#     Edge 19, Type (0, 0), BuildingBlock: AJUNOK_clean_linker_0, # of connection points: 2
#     Edge 20, Type (0, 0), BuildingBlock: AJUNOK_clean_linker_0, # of connection points: 2
#     Edge 21, Type (0, 0), BuildingBlock: AJUNOK_clean_linker_0, # of connection points: 2
#     Edge 22, Type (0, 0), BuildingBlock: AJUNOK_clean_linker_0, # of connection points: 2
#     Edge 23, Type (0, 0), BuildingBlock: AJUNOK_clean_linker_0, # of connection points: 2
#     Edge 24, Type (0, 0), BuildingBlock: AJUNOK_clean_linker_0, # of connection points: 2
#     Edge 25, Type (0, 0), BuildingBlock: AJUNOK_clean_linker_0, # of connection points: 2
#     Edge 26, Type (0, 0), BuildingBlock: AJUNOK_clean_linker_0, # of connection points: 2
#     Edge 27, Type (0, 0), BuildingBlock: AJUNOK_clean_linker_0, # of connection points: 2
#     Edge 28, Type (0, 0), BuildingBlock: AJUNOK_clean_linker_0, # of connection points: 2
#     Edge 29, Type (0, 0), BuildingBlock: AJUNOK_clean_linker_0, # of connection points: 2
#     Edge 30, Type (0, 0), BuildingBlock: AJUNOK_clean_linker_0, # of connection points: 2
#     Edge 31, Type (0, 0), BuildingBlock: AJUNOK_clean_linker_0, # of connection points: 2
#     Edge 32, Type (0, 0), BuildingBlock: AJUNOK_clean_linker_0, # of connection points: 2
#     Edge 33, Type (0, 0), BuildingBlock: AJUNOK_clean_linker_0, # of connection points: 2
#     Edge 34, Type (0, 0), BuildingBlock: AJUNOK_clean_linker_0, # of connection points: 2
#     Edge 35, Type (0, 0), BuildingBlock: AJUNOK_clean_linker_0, # of connection points: 2
#     Edge 36, Type (0, 0), BuildingBlock: AJUNOK_clean_linker_0, # of connection points: 2
#     Edge 37, Type (0, 0), BuildingBlock: AJUNOK_clean_linker_0, # of connection points: 2
#     Edge 38, Type (0, 0), BuildingBlock: AJUNOK_clean_linker_0, # of connection points: 2
#     Edge 39, Type (0, 0), BuildingBlock: AJUNOK_clean_linker_0, # of connection points: 2
#     Edge 40, Type (0, 0), BuildingBlock: AJUNOK_clean_linker_0, # of connection points: 2
#     Edge 41, Type (0, 0), BuildingBlock: AJUNOK_clean_linker_0, # of connection points: 2
#     Edge 42, Type (0, 0), BuildingBlock: AJUNOK_clean_linker_0, # of connection points: 2
#     Edge 43, Type (0, 0), BuildingBlock: AJUNOK_clean_linker_0, # of connection points: 2
#     Edge 44, Type (0, 0), BuildingBlock: AJUNOK_clean_linker_0, # of connection points: 2
#     Edge 45, Type (0, 0), BuildingBlock: AJUNOK_clean_linker_0, # of connection points: 2
#     Edge 46, Type (0, 0), BuildingBlock: AJUNOK_clean_linker_0, # of connection points: 2
#     Edge 47, Type (0, 0), BuildingBlock: AJUNOK_clean_linker_0, # of connection points: 2
# Relax obj value: 0.058
# Max RMSD: 0.090
# Mean RMSD: 0.090
data_MOF--net-uoy--node1-QUQFOY_clean_sbu_1--edge1-AJUNOK_clean_linker_0
_symmetry_space_group_name_H-M    P1
_symmetry_Int_Tables_number       1
_symmetry_cell_setting            triclinic
loop_
_symmetry_equiv_pos_as_xyz
'x, y, z'
_cell_length_a     20.811433
_cell_length_b     20.799247
_cell_length_c     83.479721
_cell_angle_alpha  89.96009
_cell_angle_beta   89.99448
_cell_angle_gamma 89.964112
loop_
_atom_site_label
_atom_site_type_symbol
_atom_site_fract_x
_atom_site_fract_y
_atom_site_fract_z
_atom_type_partial_charge
O0 O 0.25916 0.13774 0.23469 0.0
Cd1 Cd 0.25426 0.08499 0.2137 0.0
Cd2 Cd 0.30261 0.19104 0.2021 0.0
O3 O 0.27958 0.23218 0.22377 0.0
O4 O 0.18831 0.01581 0.21669 0.0
O5 O 0.17488 0.09857 0.20034 0.0
C6 C 0.15204 0.04709 0.20686 0.0
C7 C 0.28183 0.23376 0.17697 0.0
C8 C 0.26788 0.19807 0.23608 0.0
C9 C 0.39045 0.07746 0.20312 0.0
O10 O 0.38564 0.13809 0.20225 0.0
O11 O 0.34055 0.0439 0.206 0.0
O12 O 0.32381 0.25927 0.18638 0.0
O13 O 0.24694 0.18732 0.1824 0.0
O14 O 0.89342 0.75991 0.48437 0.0
Cd15 Cd 0.94502 0.75382 0.46331 0.0
Cd16 Cd 0.83826 0.80266 0.45148 0.0
O17 O 0.79886 0.7785 0.47336 0.0
O18 O 1.01398 0.68709 0.46631 0.0
O19 O 0.92954 0.67346 0.4506 0.0
C20 C 0.98083 0.65013 0.45704 0.0
C21 C 0.8019 0.76971 0.42652 0.0
C22 C 0.833 0.76761 0.4857 0.0
C23 C 0.95093 0.89034 0.45193 0.0
O24 O 0.89012 0.88641 0.4512 0.0
O25 O 0.98412 0.84011 0.4549 0.0
O26 O 0.76932 0.81032 0.43494 0.0
O27 O 0.85293 0.74485 0.43274 0.0
O28 O 0.27752 0.39718 0.73429 0.0
Cd29 Cd 0.2801 0.44797 0.71302 0.0
Cd30 Cd 0.22976 0.34139 0.70236 0.0
O31 O 0.25554 0.3019 0.7241 0.0
O32 O 0.34591 0.51711 0.71565 0.0
O33 O 0.35886 0.43356 0.69954 0.0
C34 C 0.38195 0.48518 0.70591 0.0
C35 C 0.24934 0.29716 0.67732 0.0
C36 C 0.26982 0.33692 0.73607 0.0
C37 C 0.14345 0.45638 0.70298 0.0
O38 O 0.14733 0.39557 0.70255 0.0
O39 O 0.19394 0.48948 0.70548 0.0
O40 O 0.20775 0.27227 0.68695 0.0
O41 O 0.2844 0.34398 0.68247 0.0
O42 O 0.63658 0.77211 0.98369 0.0
Cd43 Cd 0.58654 0.77686 0.96239 0.0
Cd44 Cd 0.69485 0.72663 0.95139 0.0
O45 O 0.73218 0.75165 0.97345 0.0
O46 O 0.51687 0.84314 0.9651 0.0
O47 O 0.60194 0.85721 0.94962 0.0
C48 C 0.55026 0.88028 0.95591 0.0
C49 C 0.73134 0.76015 0.92645 0.0
C50 C 0.69681 0.76444 0.98547 0.0
C51 C 0.58144 0.63959 0.95142 0.0
O52 O 0.64233 0.64323 0.95102 0.0
O53 O 0.54819 0.69008 0.95407 0.0
O54 O 0.76407 0.71951 0.93485 0.0
O55 O 0.68029 0.78476 0.93271 0.0
O56 O 0.25432 0.3906 0.05224 0.0
Cd57 Cd 0.2498 0.44188 0.07344 0.0
Cd58 Cd 0.30474 0.33703 0.08406 0.0
O59 O 0.28122 0.29635 0.06237 0.0
O60 O 0.18354 0.51075 0.0704 0.0
O61 O 0.17021 0.42809 0.08677 0.0
C62 C 0.14724 0.47943 0.0802 0.0
C63 C 0.28423 0.29427 0.10918 0.0
C64 C 0.26537 0.33085 0.05042 0.0
C65 C 0.38709 0.45404 0.08323 0.0
O66 O 0.38566 0.39313 0.08373 0.0
O67 O 0.33524 0.48526 0.08088 0.0
O68 O 0.32702 0.26946 0.09986 0.0
O69 O 0.24868 0.34012 0.10366 0.0
O70 O 0.63624 0.75521 0.30249 0.0
Cd71 Cd 0.58612 0.74795 0.32378 0.0
Cd72 Cd 0.69083 0.8014 0.3352 0.0
O73 O 0.73012 0.77821 0.31326 0.0
O74 O 0.51849 0.68001 0.32097 0.0
O75 O 0.60355 0.66793 0.33657 0.0
C76 C 0.55238 0.64378 0.33027 0.0
C77 C 0.73114 0.76948 0.35988 0.0
C78 C 0.69621 0.76542 0.301 0.0
C79 C 0.57495 0.8844 0.33508 0.0
O80 O 0.63594 0.88339 0.33564 0.0
O81 O 0.54411 0.83274 0.33217 0.0
O82 O 0.76093 0.81162 0.35129 0.0
O83 O 0.68009 0.74316 0.35408 0.0
O84 O 0.27805 0.13706 0.55268 0.0
Cd85 Cd 0.28372 0.08547 0.57384 0.0
Cd86 Cd 0.22729 0.18919 0.58467 0.0
O87 O 0.24923 0.23049 0.56291 0.0
O88 O 0.35076 0.0177 0.57058 0.0
O89 O 0.36336 0.09985 0.58712 0.0
C90 C 0.38679 0.04898 0.58044 0.0
C91 C 0.24726 0.23275 0.60974 0.0
C92 C 0.26572 0.19659 0.55092 0.0
C93 C 0.14724 0.0703 0.58399 0.0
O94 O 0.14766 0.13122 0.5846 0.0
O95 O 0.19944 0.0401 0.58136 0.0
O96 O 0.20357 0.25627 0.60047 0.0
O97 O 0.28394 0.18784 0.6042 0.0
O98 O 0.88537 0.77418 0.80253 0.0
Cd99 Cd 0.94032 0.77607 0.82309 0.0
Cd100 Cd 0.83423 0.72514 0.83466 0.0
O101 O 0.79195 0.74818 0.81306 0.0
O102 O 1.00854 0.83974 0.81735 0.0
O103 O 0.93822 0.85614 0.83679 0.0
C104 C 0.98461 0.8776 0.82803 0.0
C105 C 0.79786 0.75882 0.85954 0.0
C106 C 0.8255 0.76419 0.80099 0.0
C107 C 0.94831 0.63806 0.8331 0.0
O108 O 0.88773 0.64217 0.83469 0.0
O109 O 0.98108 0.6883 0.82987 0.0
O110 O 0.7665 0.71656 0.85136 0.0
O111 O 0.84847 0.7843 0.85324 0.0
O112 O 0.75875 0.64072 0.73432 0.0
Cd113 Cd 0.75444 0.59017 0.71308 0.0
Cd114 Cd 0.80743 0.69639 0.70202 0.0
O115 O 0.77944 0.73548 0.72366 0.0
O116 O 0.68748 0.52112 0.71558 0.0
O117 O 0.67509 0.60628 0.70002 0.0
C118 C 0.65131 0.55471 0.7062 0.0
C119 C 0.77626 0.73023 0.67669 0.0
C120 C 0.76652 0.70108 0.73584 0.0
C121 C 0.89246 0.58246 0.70275 0.0
O122 O 0.89062 0.64351 0.70252 0.0
O123 O 0.8409 0.55053 0.70499 0.0
O124 O 0.81581 0.76404 0.68512 0.0
O125 O 0.75153 0.67951 0.68308 0.0
O126 O 0.39094 0.25928 0.98386 0.0
Cd127 Cd 0.44139 0.25308 0.9626 0.0
Cd128 Cd 0.33662 0.30699 0.95124 0.0
O129 O 0.29721 0.28341 0.97313 0.0
O130 O 0.51094 0.1873 0.96571 0.0
O131 O 0.42706 0.17207 0.9499 0.0
C132 C 0.47898 0.14993 0.9563 0.0
C133 C 0.29794 0.27354 0.92656 0.0
C134 C 0.33101 0.26977 0.98536 0.0
C135 C 0.45211 0.39018 0.95146 0.0
O136 O 0.39113 0.38927 0.95083 0.0
O137 O 0.48287 0.33842 0.95437 0.0
O138 O 0.26715 0.3157 0.93493 0.0
O139 O 0.3491 0.24812 0.93259 0.0
O140 O 0.77382 0.88867 0.23434 0.0
Cd141 Cd 0.77931 0.94087 0.21326 0.0
Cd142 Cd 0.72478 0.83606 0.20229 0.0
O143 O 0.74673 0.79482 0.22403 0.0
O144 O 0.84729 1.00816 0.21631 0.0
O145 O 0.8583 0.92542 0.19989 0.0
C146 C 0.88283 0.97576 0.20655 0.0
C147 C 0.74826 0.79396 0.17725 0.0
C148 C 0.76236 0.82894 0.23606 0.0
C149 C 0.64263 0.95364 0.20306 0.0
O150 O 0.64425 0.89276 0.20239 0.0
O151 O 0.69423 0.98488 0.20568 0.0
O152 O 0.70358 0.7696 0.18608 0.0
O153 O 0.78323 0.83939 0.18315 0.0
O154 O 0.14036 0.26997 0.48441 0.0
Cd155 Cd 0.08972 0.27701 0.4632 0.0
Cd156 Cd 0.19446 0.22347 0.45179 0.0
O157 O 0.23437 0.24734 0.47363 0.0
O158 O 0.02005 0.34262 0.46646 0.0
O159 O 0.10398 0.3586 0.45071 0.0
C160 C 0.05202 0.38041 0.45714 0.0
C161 C 0.22959 0.25669 0.42676 0.0
C162 C 0.2004 0.26005 0.48589 0.0
C163 C 0.07941 0.14006 0.45208 0.0
O164 O 0.1404 0.14103 0.45162 0.0
O165 O 0.04844 0.19185 0.45481 0.0
O166 O 0.26216 0.21536 0.43498 0.0
O167 O 0.17934 0.28214 0.43323 0.0
O168 O 0.7621 0.89106 0.55243 0.0
Cd169 Cd 0.75887 0.94067 0.5738 0.0
Cd170 Cd 0.80787 0.83183 0.58459 0.0
O171 O 0.7812 0.79502 0.56262 0.0
O172 O 0.69304 1.01107 0.57148 0.0
O173 O 0.67919 0.92543 0.5868 0.0
C174 C 0.65615 0.97755 0.5807 0.0
C175 C 0.77571 0.7942 0.60951 0.0
C176 C 0.76874 0.83069 0.55063 0.0
C177 C 0.89684 0.94319 0.5843 0.0
O178 O 0.89233 0.88233 0.58465 0.0
O179 O 0.8467 0.97729 0.58193 0.0
O180 O 0.81518 0.7615 0.60079 0.0
O181 O 0.75188 0.84646 0.60367 0.0
O182 O 0.15041 0.25715 0.80223 0.0
Cd183 Cd 0.0939 0.25158 0.82252 0.0
Cd184 Cd 0.1962 0.30759 0.83477 0.0
O185 O 0.24129 0.28727 0.8134 0.0
O186 O 0.0289 0.18505 0.81644 0.0
O187 O 0.09792 0.17166 0.8363 0.0
C188 C 0.05297 0.14846 0.82738 0.0
C189 C 0.23098 0.27422 0.85979 0.0
C190 C 0.20973 0.27075 0.80104 0.0
C191 C 0.07815 0.38865 0.83289 0.0
O192 O 0.13879 0.38797 0.8347 0.0
O193 O 0.04852 0.33691 0.82932 0.0
O194 O 0.26159 0.31815 0.85197 0.0
O195 O 0.18259 0.24665 0.85298 0.0
O196 O 0.77031 0.6398 0.0517 0.0
Cd197 Cd 0.77517 0.58612 0.07255 0.0
Cd198 Cd 0.72668 0.69216 0.08446 0.0
O199 O 0.74881 0.73376 0.06275 0.0
O200 O 0.84298 0.51845 0.06971 0.0
O201 O 0.85329 0.60116 0.08618 0.0
C202 C 0.87804 0.55072 0.0796 0.0
C203 C 0.74988 0.73462 0.10951 0.0
C204 C 0.76107 0.7001 0.0504 0.0
C205 C 0.63918 0.57798 0.0832 0.0
O206 O 0.64415 0.6385 0.08442 0.0
O207 O 0.68894 0.54448 0.08009 0.0
O208 O 0.70612 0.75956 0.1005 0.0
O209 O 0.7843 0.68842 0.10379 0.0
O210 O 0.3935 0.26804 0.30285 0.0
Cd211 Cd 0.44294 0.27183 0.32425 0.0
Cd212 Cd 0.33472 0.22281 0.33513 0.0
O213 O 0.29779 0.24791 0.31303 0.0
O214 O 0.51421 0.33606 0.32156 0.0
O215 O 0.42939 0.35275 0.33698 0.0
C216 C 0.48206 0.37405 0.3308 0.0
C217 C 0.29616 0.25657 0.35983 0.0
C218 C 0.33327 0.26066 0.30104 0.0
C219 C 0.4468 0.13442 0.33523 0.0
O220 O 0.38595 0.13859 0.33564 0.0
O221 O 0.48039 0.1846 0.33255 0.0
O222 O 0.26418 0.21606 0.35125 0.0
O223 O 0.34831 0.28047 0.35397 0.0
C224 C 0.22432 0.27244 0.13477 0.0
C225 C 0.28265 0.27679 0.12631 0.0
C226 C 0.22368 0.25804 0.15126 0.0
C227 C 0.28144 0.25046 0.15981 0.0
H228 H 0.17909 0.27944 0.12859 0.0
H229 H 0.17799 0.25379 0.15739 0.0
S230 S 0.44655 0.25858 0.14321 0.0
N231 N 0.39926 0.27222 0.1277 0.0
N232 N 0.39807 0.24786 0.15862 0.0
C233 C 0.33982 0.25553 0.15148 0.0
C234 C 0.34044 0.26807 0.13473 0.0
C235 C 0.72028 0.75628 0.40489 0.0
C236 C 0.78505 0.75799 0.40962 0.0
C237 C 0.70333 0.75509 0.38864 0.0
C238 C 0.75059 0.75782 0.37661 0.0
H239 H 0.68247 0.7577 0.41381 0.0
H240 H 0.65283 0.75605 0.38549 0.0
S241 S 0.92689 0.75934 0.3827 0.0
N242 N 0.89671 0.75807 0.401 0.0
N243 N 0.86458 0.75882 0.37045 0.0
C244 C 0.81546 0.75728 0.38117 0.0
C245 C 0.83278 0.75653 0.3977 0.0
C246 C 0.30698 0.25873 0.63511 0.0
C247 C 0.24865 0.25041 0.62685 0.0
C248 C 0.30748 0.2741 0.65154 0.0
C249 C 0.24977 0.27874 0.66025 0.0
H250 H 0.35225 0.25431 0.6288 0.0
H251 H 0.35312 0.28161 0.65749 0.0
S252 S 0.08474 0.25922 0.64418 0.0
N253 N 0.13211 0.24766 0.62859 0.0
N254 N 0.13313 0.27385 0.65941 0.0
C255 C 0.19143 0.26939 0.65213 0.0
C256 C 0.19085 0.25585 0.63543 0.0
C257 C 0.82832 0.77204 0.88818 0.0
C258 C 0.78025 0.77163 0.87634 0.0
C259 C 0.8123 0.77111 0.90451 0.0
C260 C 0.74778 0.77191 0.9095 0.0
H261 H 0.87851 0.76891 0.88482 0.0
H262 H 0.85056 0.76778 0.91327 0.0
S263 S 0.60444 0.77759 0.8831 0.0
N264 N 0.666 0.77578 0.87062 0.0
N265 N 0.63572 0.777 0.90128 0.0
C266 C 0.69947 0.77588 0.89775 0.0
C267 C 0.71576 0.77491 0.88115 0.0
C268 C 0.76357 0.82518 0.63813 0.0
C269 C 0.76467 0.77663 0.62641 0.0
C270 C 0.76489 0.80988 0.65449 0.0
C271 C 0.7652 0.74558 0.65965 0.0
H272 H 0.76555 0.87534 0.63466 0.0
H273 H 0.76736 0.84861 0.66314 0.0
S274 S 0.76202 0.60092 0.63367 0.0
N275 N 0.7626 0.66197 0.62101 0.0
N276 N 0.76224 0.63302 0.65176 0.0
C277 C 0.76223 0.69665 0.64804 0.0
C278 C 0.76276 0.71224 0.6314 0.0
C279 C 0.32768 0.2602 0.89793 0.0
C280 C 0.2797 0.26124 0.90979 0.0
C281 C 0.31159 0.26142 0.88163 0.0
C282 C 0.24706 0.2614 0.87668 0.0
H283 H 0.37795 0.26267 0.90126 0.0
H284 H 0.34982 0.26443 0.87285 0.0
S285 S 0.10379 0.25747 0.90307 0.0
N286 N 0.16538 0.25853 0.91555 0.0
N287 N 0.13502 0.25766 0.88487 0.0
C288 C 0.19875 0.25797 0.88841 0.0
C289 C 0.21512 0.25877 0.90501 0.0
C290 C 0.6949 0.75927 0.13502 0.0
C291 C 0.75289 0.75167 0.12662 0.0
C292 C 0.69447 0.7708 0.1515 0.0
C293 C 0.75204 0.77709 0.16014 0.0
H294 H 0.64927 0.75478 0.12887 0.0
H295 H 0.64854 0.77625 0.15747 0.0
S296 S 0.91683 0.76257 0.14372 0.0
N297 N 0.8695 0.75031 0.12811 0.0
N298 N 0.86873 0.77588 0.15913 0.0
C299 C 0.81054 0.7707 0.15189 0.0
C300 C 0.81095 0.7568 0.13511 0.0
C301 C 0.31003 0.26901 0.40481 0.0
C302 C 0.24555 0.26862 0.4098 0.0
C303 C 0.32598 0.27009 0.38848 0.0
C304 C 0.27794 0.26859 0.37663 0.0
H305 H 0.34837 0.26658 0.41356 0.0
H306 H 0.37625 0.26803 0.38514 0.0
S307 S 0.10204 0.27096 0.38345 0.0
N308 N 0.1334 0.27122 0.40162 0.0
N309 N 0.16355 0.27031 0.37094 0.0
C310 C 0.21338 0.27056 0.38146 0.0
C311 C 0.19713 0.27139 0.39806 0.0
C312 C 0.2425 0.1963 0.26532 0.0
C313 C 0.27391 0.2259 0.25234 0.0
C314 C 0.25805 0.21209 0.28119 0.0
C315 C 0.30666 0.25698 0.28463 0.0
H316 H 0.20781 0.1584 0.26323 0.0
H317 H 0.23511 0.18547 0.29077 0.0
S318 S 0.39778 0.3538 0.25503 0.0
N319 N 0.35094 0.3074 0.24404 0.0
N320 N 0.38124 0.33574 0.27385 0.0
C321 C 0.33527 0.29009 0.27179 0.0
C322 C 0.31856 0.27495 0.25564 0.0
C323 C 0.83451 0.74137 0.51489 0.0
C324 C 0.80478 0.77286 0.50193 0.0
C325 C 0.81817 0.75622 0.53076 0.0
C326 C 0.77258 0.80419 0.53422 0.0
H327 H 0.87293 0.70723 0.51277 0.0
H328 H 0.84496 0.73339 0.54033 0.0
S329 S 0.67506 0.89492 0.50469 0.0
N330 N 0.72233 0.849 0.49367 0.0
N331 N 0.69299 0.87807 0.5235 0.0
C332 C 0.73931 0.83274 0.52141 0.0
C333 C 0.755 0.81671 0.50525 0.0
C334 C 0.22469 0.25979 0.75601 0.0
C335 C 0.26776 0.3099 0.75247 0.0
C336 C 0.20977 0.24387 0.7719 0.0
C337 C 0.23823 0.27665 0.78483 0.0
H338 H 0.19862 0.2359 0.74649 0.0
H339 H 0.17303 0.208 0.77405 0.0
S340 S 0.36281 0.40377 0.78187 0.0
N341 N 0.34485 0.38655 0.76309 0.0
N342 N 0.31782 0.35588 0.79297 0.0
C343 C 0.28602 0.32253 0.78143 0.0
C344 C 0.30044 0.33944 0.76524 0.0
C345 C 0.78693 0.69894 0.02117 0.0
C346 C 0.75545 0.72842 0.03416 0.0
C347 C 0.77172 0.71517 1.00531 0.0
C348 C 0.72342 0.76046 1.00188 0.0
H349 H 0.82138 0.66075 0.02326 0.0
H350 H 0.79461 0.68856 0.99573 0.0
S351 S 0.63258 0.85746 0.03148 0.0
N352 N 0.6789 0.81041 0.04247 0.0
N353 N 0.64928 0.83965 1.01266 0.0
C354 C 0.69487 0.79356 1.01471 0.0
C355 C 0.71122 0.77792 0.03087 0.0
C356 C 0.3176 0.25848 0.03049 0.0
C357 C 0.27015 0.30456 0.034 0.0
C358 C 0.33423 0.24423 1.01461 0.0
C359 C 0.30317 0.27456 1.00167 0.0
H360 H 0.3454 0.2367 0.04003 0.0
H361 H 0.37383 0.21149 1.01248 0.0
S362 S 0.16827 0.39093 1.00457 0.0
N363 N 0.18726 0.37489 0.02336 0.0
N364 N 0.21734 0.34714 0.9935 0.0
C365 C 0.25167 0.31636 1.00504 0.0
C366 C 0.23552 0.33167 0.02122 0.0
C367 C 0.69284 0.74133 0.27168 0.0
C368 C 0.72401 0.7709 0.2847 0.0
C369 C 0.70956 0.75619 0.25584 0.0
C370 C 0.75719 0.80217 0.25243 0.0
H371 H 0.65314 0.70867 0.27373 0.0
H372 H 0.68173 0.73493 0.24624 0.0
S373 S 0.85928 0.8868 0.28208 0.0
N374 N 0.81003 0.84277 0.29305 0.0
N375 N 0.84027 0.87167 0.26326 0.0
C376 C 0.79186 0.82859 0.26529 0.0
C377 C 0.77563 0.81265 0.28143 0.0
C378 C 0.19681 0.28431 0.5152 0.0
C379 C 0.22813 0.25466 0.50221 0.0
C380 C 0.21323 0.26939 0.53106 0.0
C381 C 0.26075 0.22328 0.53452 0.0
H382 H 0.15717 0.31706 0.51312 0.0
H383 H 0.18528 0.29074 0.54063 0.0
S384 S 0.36316 0.13838 0.50494 0.0
N385 N 0.31414 0.18256 0.49394 0.0
N386 N 0.34391 0.15357 0.52375 0.0
C387 C 0.29558 0.19678 0.52169 0.0
C388 C 0.27962 0.21278 0.50553 0.0
C389 C 0.73948 0.69663 0.765 0.0
C390 C 0.76949 0.72885 0.75218 0.0
C391 C 0.75312 0.71272 0.78095 0.0
C392 C 0.79823 0.76077 0.78465 0.0
H393 H 0.70777 0.65638 0.76271 0.0
H394 H 0.732 0.68386 0.79039 0.0
S395 S 0.88287 0.86591 0.75563 0.0
N396 N 0.84027 0.81658 0.74435 0.0
N397 N 0.86687 0.84567 0.77433 0.0
C398 C 0.82462 0.79674 0.772 0.0
C399 C 0.80994 0.78113 0.75576 0.0
C400 C 0.03573 0.07496 0.20414 0.0
C401 C 0.08424 0.02779 0.20442 0.0
C402 C 0.97042 0.05782 0.20434 0.0
C403 C 0.95132 0.99295 0.20427 0.0
H404 H 0.04827 0.12547 0.20462 0.0
H405 H 0.93463 0.09561 0.20487 0.0
S406 S 0.05971 0.85129 0.20372 0.0
N407 N 0.10881 0.91366 0.204 0.0
N408 N 0.98625 0.88143 0.20363 0.0
C409 C 0.99938 0.94542 0.20369 0.0
C410 C 0.06581 0.96285 0.20397 0.0
C411 C 0.07998 0.4969 0.455 0.0
C412 C 0.03278 0.44846 0.45509 0.0
C413 C 0.06294 0.56227 0.45524 0.0
C414 C 0.99814 0.58148 0.45505 0.0
H415 H 0.13045 0.48424 0.4555 0.0
H416 H 0.10073 0.59799 0.45582 0.0
S417 S 0.85645 0.47326 0.4541 0.0
N418 N 0.91876 0.42404 0.45442 0.0
N419 N 0.88663 0.54669 0.45418 0.0
C420 C 0.95059 0.53347 0.45436 0.0
C421 C 0.96793 0.46699 0.45459 0.0
C422 C 0.49801 0.45632 0.70339 0.0
C423 C 0.44985 0.50384 0.70352 0.0
C424 C 0.56341 0.473 0.70381 0.0
C425 C 0.58286 0.53775 0.70385 0.0
H426 H 0.48509 0.40589 0.70382 0.0
H427 H 0.59894 0.43498 0.70441 0.0
S428 S 0.47538 0.68017 0.70302 0.0
N429 N 0.42594 0.61808 0.70307 0.0
N430 N 0.54862 0.64955 0.70316 0.0
C431 C 0.53513 0.58562 0.70313 0.0
C432 C 0.46865 0.56864 0.70316 0.0
C433 C 0.45105 0.03351 0.95386 0.0
C434 C 0.49823 0.08197 0.95411 0.0
C435 C 0.46811 0.96813 0.95403 0.0
C436 C 0.53292 0.94894 0.95392 0.0
H437 H 0.40057 0.04615 0.95431 0.0
H438 H 0.43031 0.93238 0.9545 0.0
S439 S 0.6746 0.05724 0.95339 0.0
N440 N 0.61227 0.10642 0.95367 0.0
N441 N 0.64444 0.9838 0.9533 0.0
C442 C 0.58047 0.997 0.95339 0.0
C443 C 0.5631 0.06346 0.95368 0.0
C444 C 0.03087 0.45134 0.08244 0.0
C445 C 0.07931 0.49852 0.08249 0.0
C446 C 0.96556 0.46849 0.08199 0.0
C447 C 0.94638 0.53336 0.08213 0.0
H448 H 0.04354 0.40085 0.08187 0.0
H449 H 0.92986 0.43073 0.08121 0.0
S450 S 0.05455 0.67497 0.08353 0.0
N451 N 0.10372 0.6126 0.08332 0.0
N452 N 0.98114 0.64485 0.08323 0.0
C453 C 0.99433 0.58086 0.08306 0.0
C454 C 0.06077 0.56343 0.08303 0.0
C455 C 0.47088 0.55581 0.3326 0.0
C456 C 0.53561 0.57516 0.33252 0.0
C457 C 0.45406 0.49045 0.33301 0.0
C458 C 0.50138 0.44206 0.33283 0.0
H459 H 0.43293 0.59143 0.33208 0.0
H460 H 0.4036 0.47774 0.33268 0.0
S461 S 0.67768 0.46728 0.33319 0.0
N462 N 0.64726 0.54065 0.33309 0.0
N463 N 0.61554 0.4179 0.33316 0.0
C464 C 0.56621 0.46073 0.3331 0.0
C465 C 0.58335 0.52727 0.33315 0.0
C466 C 0.56848 0.05993 0.58294 0.0
C467 C 0.58762 0.99504 0.58286 0.0
C468 C 0.50312 0.07708 0.58318 0.0
C469 C 0.45467 0.02991 0.58282 0.0
H470 H 0.60425 0.09772 0.58252 0.0
H471 H 0.49048 0.1276 0.58283 0.0
S472 S 0.47924 0.85338 0.58304 0.0
N473 N 0.55265 0.88349 0.5832 0.0
N474 N 0.43016 0.91582 0.58296 0.0
C475 C 0.47315 0.96497 0.5831 0.0
C476 C 0.53954 0.94751 0.58331 0.0
C477 C 0.02889 0.0447 0.81396 0.0
C478 C 0.03478 0.07984 0.82826 0.0
C479 C 1.01484 0.97886 0.81416 0.0
C480 C 1.00414 0.94596 0.82863 0.0
H481 H 0.03636 0.06806 0.80251 0.0
H482 H 1.01076 0.95384 0.80282 0.0
S483 S 1.01284 0.01619 0.86938 0.0
N484 N 0.02986 0.07695 0.85733 0.0
N485 N 0.99974 0.9535 0.85766 0.0
C486 C 1.00901 0.98061 0.84304 0.0
C487 C 0.02545 0.04746 0.84286 0.0
C488 C 0.52222 0.95041 0.20305 0.0
C489 C 0.5793 0.98667 0.20181 0.0
C490 C 0.46157 0.97984 0.20308 0.0
C491 C 0.4551 0.04692 0.20175 0.0
H492 H 0.52418 0.89864 0.20444 0.0
H493 H 0.41954 0.94967 0.20445 0.0
S494 S 0.58925 0.16364 0.19681 0.0
N495 N 0.62517 0.09313 0.19831 0.0
N496 N 0.51157 0.1487 0.19817 0.0
C497 C 0.51176 0.0837 0.19991 0.0
C498 C 0.57363 0.05361 0.2 0.0
C499 C 0.04989 0.95943 0.45117 0.0
C500 C 0.98254 0.95442 0.4504 0.0
C501 C 0.08056 0.01948 0.45117 0.0
C502 C 0.04533 0.07737 0.45052 0.0
H503 H 0.07937 0.91666 0.4521 0.0
H504 H 0.13246 0.0203 0.45215 0.0
S505 S 0.86801 0.09131 0.44711 0.0
N506 N 0.88158 1.01321 0.44798 0.0
N507 N 0.93935 0.12564 0.44811 0.0
C508 C 0.97808 0.07317 0.4492 0.0
C509 C 0.94674 1.01194 0.4491 0.0
C510 C 0.07336 0.55483 0.7033 0.0
C511 C 0.07929 0.48784 0.70149 0.0
C512 C 1.01298 0.58491 0.70323 0.0
C513 C 0.95573 0.54937 0.70144 0.0
H514 H 0.11556 0.58435 0.70513 0.0
H515 H 1.0113 0.63646 0.70503 0.0
S516 S 0.94459 0.37328 0.69482 0.0
N517 N 0.02226 0.38724 0.69673 0.0
N518 N 0.90923 0.44388 0.69675 0.0
C519 C 0.96096 0.48264 0.69908 0.0
C520 C 0.0225 0.45194 0.69905 0.0
C521 C 0.45137 0.51081 0.95036 0.0
C522 C 0.48644 0.45279 0.94992 0.0
C523 C 0.48225 0.57078 0.95039 0.0
C524 C 0.54966 0.57557 0.94987 0.0
H525 H 0.39942 0.51016 0.95115 0.0
H526 H 0.45286 0.61366 0.95116 0.0
S527 S 0.66392 0.43825 0.94718 0.0
N528 N 0.59242 0.40417 0.94797 0.0
N529 N 0.65055 0.5164 0.94789 0.0
C530 C 0.58534 0.51791 0.94878 0.0
C531 C 0.55379 0.45678 0.94885 0.0
C532 C 0.5682 0.48033 0.08405 0.0
C533 C 0.57446 0.54761 0.08446 0.0
C534 C 0.50758 0.45087 0.08411 0.0
C535 C 0.45033 0.48728 0.08445 0.0
H536 H 0.61042 0.44999 0.08344 0.0
H537 H 0.50583 0.39886 0.0835 0.0
S538 S 0.43972 0.66522 0.08647 0.0
N539 N 0.51752 0.65002 0.08594 0.0
N540 N 0.40406 0.59442 0.08591 0.0
C541 C 0.45578 0.55457 0.08527 0.0
C542 C 0.51759 0.58469 0.08532 0.0
C543 C 0.54556 0.06503 0.33628 0.0
C544 C 0.47817 0.07019 0.33679 0.0
C545 C 0.57615 1.00492 0.33628 0.0
C546 C 0.54082 0.94709 0.33668 0.0
H547 H 0.57515 0.10774 0.33553 0.0
H548 H 0.6281 1.00401 0.33549 0.0
S549 S 0.36329 0.93354 0.33942 0.0
N550 N 0.377 1.01163 0.33875 0.0
N551 N 0.43464 0.89904 0.33862 0.0
C552 C 0.47349 0.95143 0.33776 0.0
C553 C 0.44223 1.01275 0.33786 0.0
C554 C 0.96675 0.04134 0.58566 0.0
C555 C 0.96135 0.97395 0.58564 0.0
C556 C 0.02693 0.0716 0.5856 0.0
C557 C 0.08464 0.03596 0.5854 0.0
H558 H 0.92415 0.07125 0.58544 0.0
H559 H 0.02792 0.12367 0.58531 0.0
S560 S 0.09764 0.85801 0.58636 0.0
N561 N 0.01962 0.8722 0.58628 0.0
N562 N 0.13238 0.9293 0.58604 0.0
C563 C 0.08013 0.96852 0.58587 0.0
C564 C 0.0187 0.93756 0.58603 0.0
C565 C 0.04741 0.56913 0.8341 0.0
C566 C 0.97999 0.57385 0.83419 0.0
C567 C 0.07835 0.50918 0.83411 0.0
C568 C 0.04334 0.45112 0.83406 0.0
H569 H 0.07677 0.61208 0.83383 0.0
H570 H 0.13039 0.5086 0.83378 0.0
S571 S 0.86566 0.43635 0.83503 0.0
N572 N 0.87897 0.51456 0.83485 0.0
N573 N 0.93729 0.40232 0.83474 0.0
C574 C 0.9759 0.45499 0.83449 0.0
C575 C 0.94427 0.51612 0.8346 0.0
loop_
_geom_bond_atom_site_label_1
_geom_bond_atom_site_label_2
_geom_bond_distance
_geom_bond_site_symmetry_2
_ccdc_geom_bond_type
O0 Cd1 2.223 . S
O0 C8 1.315 . S
Cd1 O0 2.223 . S
Cd1 O4 2.297 . S
Cd1 O5 2.439 . S
Cd1 O11 2.240 . S
Cd2 O3 2.240 . S
Cd2 O10 2.223 . S
Cd2 O12 2.297 . S
Cd2 O13 2.439 . S
O3 Cd2 2.240 . S
O3 C8 1.279 . S
O4 Cd1 2.297 . S
O4 C6 1.247 . S
O5 Cd1 2.439 . S
O5 C6 1.208 . S
C6 O4 1.247 . S
C6 O5 1.208 . S
C7 O12 1.247 . S
C7 O13 1.208 . S
C8 O0 1.315 . S
C8 O3 1.279 . S
C9 O10 1.315 . S
C9 O11 1.279 . S
O10 Cd2 2.223 . S
O10 C9 1.315 . S
O11 Cd1 2.240 . S
O11 C9 1.279 . S
O12 Cd2 2.297 . S
O12 C7 1.247 . S
O13 Cd2 2.439 . S
O13 C7 1.208 . S
O14 Cd15 2.223 . S
O14 C22 1.315 . S
Cd15 O14 2.223 . S
Cd15 O18 2.297 . S
Cd15 O19 2.439 . S
Cd15 O25 2.240 . S
Cd16 O17 2.240 . S
Cd16 O24 2.223 . S
Cd16 O26 2.297 . S
Cd16 O27 2.439 . S
O17 Cd16 2.240 . S
O17 C22 1.279 . S
O18 Cd15 2.297 . S
O18 C20 1.247 . S
O19 Cd15 2.439 . S
O19 C20 1.208 . S
C20 O18 1.247 . S
C20 O19 1.208 . S
C21 O26 1.247 . S
C21 O27 1.208 . S
C22 O14 1.315 . S
C22 O17 1.279 . S
C23 O24 1.315 . S
C23 O25 1.279 . S
O24 Cd16 2.223 . S
O24 C23 1.315 . S
O25 Cd15 2.240 . S
O25 C23 1.279 . S
O26 Cd16 2.297 . S
O26 C21 1.247 . S
O27 Cd16 2.439 . S
O27 C21 1.208 . S
O28 Cd29 2.223 . S
O28 C36 1.315 . S
Cd29 O28 2.223 . S
Cd29 O32 2.297 . S
Cd29 O33 2.439 . S
Cd29 O39 2.240 . S
Cd30 O31 2.240 . S
Cd30 O38 2.223 . S
Cd30 O40 2.297 . S
Cd30 O41 2.439 . S
O31 Cd30 2.240 . S
O31 C36 1.279 . S
O32 Cd29 2.297 . S
O32 C34 1.247 . S
O33 Cd29 2.439 . S
O33 C34 1.208 . S
C34 O32 1.247 . S
C34 O33 1.208 . S
C35 O40 1.247 . S
C35 O41 1.208 . S
C36 O28 1.315 . S
C36 O31 1.279 . S
C37 O38 1.315 . S
C37 O39 1.279 . S
O38 Cd30 2.223 . S
O38 C37 1.315 . S
O39 Cd29 2.240 . S
O39 C37 1.279 . S
O40 Cd30 2.297 . S
O40 C35 1.247 . S
O41 Cd30 2.439 . S
O41 C35 1.208 . S
O42 Cd43 2.223 . S
O42 C50 1.315 . S
Cd43 O42 2.223 . S
Cd43 O46 2.297 . S
Cd43 O47 2.439 . S
Cd43 O53 2.240 . S
Cd44 O45 2.240 . S
Cd44 O52 2.223 . S
Cd44 O54 2.297 . S
Cd44 O55 2.439 . S
O45 Cd44 2.240 . S
O45 C50 1.279 . S
O46 Cd43 2.297 . S
O46 C48 1.247 . S
O47 Cd43 2.439 . S
O47 C48 1.208 . S
C48 O46 1.247 . S
C48 O47 1.208 . S
C49 O54 1.247 . S
C49 O55 1.208 . S
C50 O42 1.315 . S
C50 O45 1.279 . S
C51 O52 1.315 . S
C51 O53 1.279 . S
O52 Cd44 2.223 . S
O52 C51 1.315 . S
O53 Cd43 2.240 . S
O53 C51 1.279 . S
O54 Cd44 2.297 . S
O54 C49 1.247 . S
O55 Cd44 2.439 . S
O55 C49 1.208 . S
O56 Cd57 2.223 . S
O56 C64 1.315 . S
Cd57 O56 2.223 . S
Cd57 O60 2.297 . S
Cd57 O61 2.439 . S
Cd57 O67 2.240 . S
Cd58 O59 2.240 . S
Cd58 O66 2.223 . S
Cd58 O68 2.297 . S
Cd58 O69 2.439 . S
O59 Cd58 2.240 . S
O59 C64 1.279 . S
O60 Cd57 2.297 . S
O60 C62 1.247 . S
O61 Cd57 2.439 . S
O61 C62 1.208 . S
C62 O60 1.247 . S
C62 O61 1.208 . S
C63 O68 1.247 . S
C63 O69 1.208 . S
C64 O56 1.315 . S
C64 O59 1.279 . S
C65 O66 1.315 . S
C65 O67 1.279 . S
O66 Cd58 2.223 . S
O66 C65 1.315 . S
O67 Cd57 2.240 . S
O67 C65 1.279 . S
O68 Cd58 2.297 . S
O68 C63 1.247 . S
O69 Cd58 2.439 . S
O69 C63 1.208 . S
O70 Cd71 2.223 . S
O70 C78 1.315 . S
Cd71 O70 2.223 . S
Cd71 O74 2.297 . S
Cd71 O75 2.439 . S
Cd71 O81 2.240 . S
Cd72 O73 2.240 . S
Cd72 O80 2.223 . S
Cd72 O82 2.297 . S
Cd72 O83 2.439 . S
O73 Cd72 2.240 . S
O73 C78 1.279 . S
O74 Cd71 2.297 . S
O74 C76 1.247 . S
O75 Cd71 2.439 . S
O75 C76 1.208 . S
C76 O74 1.247 . S
C76 O75 1.208 . S
C77 O82 1.247 . S
C77 O83 1.208 . S
C78 O70 1.315 . S
C78 O73 1.279 . S
C79 O80 1.315 . S
C79 O81 1.279 . S
O80 Cd72 2.223 . S
O80 C79 1.315 . S
O81 Cd71 2.240 . S
O81 C79 1.279 . S
O82 Cd72 2.297 . S
O82 C77 1.247 . S
O83 Cd72 2.439 . S
O83 C77 1.208 . S
O84 Cd85 2.223 . S
O84 C92 1.315 . S
Cd85 O84 2.223 . S
Cd85 O88 2.297 . S
Cd85 O89 2.439 . S
Cd85 O95 2.240 . S
Cd86 O87 2.240 . S
Cd86 O94 2.223 . S
Cd86 O96 2.297 . S
Cd86 O97 2.439 . S
O87 Cd86 2.240 . S
O87 C92 1.279 . S
O88 Cd85 2.297 . S
O88 C90 1.247 . S
O89 Cd85 2.439 . S
O89 C90 1.208 . S
C90 O88 1.247 . S
C90 O89 1.208 . S
C91 O96 1.247 . S
C91 O97 1.208 . S
C92 O84 1.315 . S
C92 O87 1.279 . S
C93 O94 1.315 . S
C93 O95 1.279 . S
O94 Cd86 2.223 . S
O94 C93 1.315 . S
O95 Cd85 2.240 . S
O95 C93 1.279 . S
O96 Cd86 2.297 . S
O96 C91 1.247 . S
O97 Cd86 2.439 . S
O97 C91 1.208 . S
O98 Cd99 2.223 . S
O98 C106 1.315 . S
Cd99 O98 2.223 . S
Cd99 O102 2.297 . S
Cd99 O103 2.439 . S
Cd99 O109 2.240 . S
Cd100 O101 2.240 . S
Cd100 O108 2.223 . S
Cd100 O110 2.297 . S
Cd100 O111 2.439 . S
O101 Cd100 2.240 . S
O101 C106 1.279 . S
O102 Cd99 2.297 . S
O102 C104 1.247 . S
O103 Cd99 2.439 . S
O103 C104 1.208 . S
C104 O102 1.247 . S
C104 O103 1.208 . S
C105 O110 1.247 . S
C105 O111 1.208 . S
C106 O98 1.315 . S
C106 O101 1.279 . S
C107 O108 1.315 . S
C107 O109 1.279 . S
O108 Cd100 2.223 . S
O108 C107 1.315 . S
O109 Cd99 2.240 . S
O109 C107 1.279 . S
O110 Cd100 2.297 . S
O110 C105 1.247 . S
O111 Cd100 2.439 . S
O111 C105 1.208 . S
O112 Cd113 2.223 . S
O112 C120 1.315 . S
Cd113 O112 2.223 . S
Cd113 O116 2.297 . S
Cd113 O117 2.439 . S
Cd113 O123 2.240 . S
Cd114 O115 2.240 . S
Cd114 O122 2.223 . S
Cd114 O124 2.297 . S
Cd114 O125 2.439 . S
O115 Cd114 2.240 . S
O115 C120 1.279 . S
O116 Cd113 2.297 . S
O116 C118 1.247 . S
O117 Cd113 2.439 . S
O117 C118 1.208 . S
C118 O116 1.247 . S
C118 O117 1.208 . S
C119 O124 1.247 . S
C119 O125 1.208 . S
C120 O112 1.315 . S
C120 O115 1.279 . S
C121 O122 1.315 . S
C121 O123 1.279 . S
O122 Cd114 2.223 . S
O122 C121 1.315 . S
O123 Cd113 2.240 . S
O123 C121 1.279 . S
O124 Cd114 2.297 . S
O124 C119 1.247 . S
O125 Cd114 2.439 . S
O125 C119 1.208 . S
O126 Cd127 2.223 . S
O126 C134 1.315 . S
Cd127 O126 2.223 . S
Cd127 O130 2.297 . S
Cd127 O131 2.439 . S
Cd127 O137 2.240 . S
Cd128 O129 2.240 . S
Cd128 O136 2.223 . S
Cd128 O138 2.297 . S
Cd128 O139 2.439 . S
O129 Cd128 2.240 . S
O129 C134 1.279 . S
O130 Cd127 2.297 . S
O130 C132 1.247 . S
O131 Cd127 2.439 . S
O131 C132 1.208 . S
C132 O130 1.247 . S
C132 O131 1.208 . S
C133 O138 1.247 . S
C133 O139 1.208 . S
C134 O126 1.315 . S
C134 O129 1.279 . S
C135 O136 1.315 . S
C135 O137 1.279 . S
O136 Cd128 2.223 . S
O136 C135 1.315 . S
O137 Cd127 2.240 . S
O137 C135 1.279 . S
O138 Cd128 2.297 . S
O138 C133 1.247 . S
O139 Cd128 2.439 . S
O139 C133 1.208 . S
O140 Cd141 2.223 . S
O140 C148 1.315 . S
Cd141 O140 2.223 . S
Cd141 O144 2.297 . S
Cd141 O145 2.439 . S
Cd141 O151 2.240 . S
Cd142 O143 2.240 . S
Cd142 O150 2.223 . S
Cd142 O152 2.297 . S
Cd142 O153 2.439 . S
O143 Cd142 2.240 . S
O143 C148 1.279 . S
O144 Cd141 2.297 . S
O144 C146 1.247 . S
O145 Cd141 2.439 . S
O145 C146 1.208 . S
C146 O144 1.247 . S
C146 O145 1.208 . S
C147 O152 1.247 . S
C147 O153 1.208 . S
C148 O140 1.315 . S
C148 O143 1.279 . S
C149 O150 1.315 . S
C149 O151 1.279 . S
O150 Cd142 2.223 . S
O150 C149 1.315 . S
O151 Cd141 2.240 . S
O151 C149 1.279 . S
O152 Cd142 2.297 . S
O152 C147 1.247 . S
O153 Cd142 2.439 . S
O153 C147 1.208 . S
O154 Cd155 2.223 . S
O154 C162 1.315 . S
Cd155 O154 2.223 . S
Cd155 O158 2.297 . S
Cd155 O159 2.439 . S
Cd155 O165 2.240 . S
Cd156 O157 2.240 . S
Cd156 O164 2.223 . S
Cd156 O166 2.297 . S
Cd156 O167 2.439 . S
O157 Cd156 2.240 . S
O157 C162 1.279 . S
O158 Cd155 2.297 . S
O158 C160 1.247 . S
O159 Cd155 2.439 . S
O159 C160 1.208 . S
C160 O158 1.247 . S
C160 O159 1.208 . S
C161 O166 1.247 . S
C161 O167 1.208 . S
C162 O154 1.315 . S
C162 O157 1.279 . S
C163 O164 1.315 . S
C163 O165 1.279 . S
O164 Cd156 2.223 . S
O164 C163 1.315 . S
O165 Cd155 2.240 . S
O165 C163 1.279 . S
O166 Cd156 2.297 . S
O166 C161 1.247 . S
O167 Cd156 2.439 . S
O167 C161 1.208 . S
O168 Cd169 2.223 . S
O168 C176 1.315 . S
Cd169 O168 2.223 . S
Cd169 O172 2.297 . S
Cd169 O173 2.439 . S
Cd169 O179 2.240 . S
Cd170 O171 2.240 . S
Cd170 O178 2.223 . S
Cd170 O180 2.297 . S
Cd170 O181 2.439 . S
O171 Cd170 2.240 . S
O171 C176 1.279 . S
O172 Cd169 2.297 . S
O172 C174 1.247 . S
O173 Cd169 2.439 . S
O173 C174 1.208 . S
C174 O172 1.247 . S
C174 O173 1.208 . S
C175 O180 1.247 . S
C175 O181 1.208 . S
C176 O168 1.315 . S
C176 O171 1.279 . S
C177 O178 1.315 . S
C177 O179 1.279 . S
O178 Cd170 2.223 . S
O178 C177 1.315 . S
O179 Cd169 2.240 . S
O179 C177 1.279 . S
O180 Cd170 2.297 . S
O180 C175 1.247 . S
O181 Cd170 2.439 . S
O181 C175 1.208 . S
O182 Cd183 2.223 . S
O182 C190 1.315 . S
Cd183 O182 2.223 . S
Cd183 O186 2.297 . S
Cd183 O187 2.439 . S
Cd183 O193 2.240 . S
Cd184 O185 2.240 . S
Cd184 O192 2.223 . S
Cd184 O194 2.297 . S
Cd184 O195 2.439 . S
O185 Cd184 2.240 . S
O185 C190 1.279 . S
O186 Cd183 2.297 . S
O186 C188 1.247 . S
O187 Cd183 2.439 . S
O187 C188 1.208 . S
C188 O186 1.247 . S
C188 O187 1.208 . S
C189 O194 1.247 . S
C189 O195 1.208 . S
C190 O182 1.315 . S
C190 O185 1.279 . S
C191 O192 1.315 . S
C191 O193 1.279 . S
O192 Cd184 2.223 . S
O192 C191 1.315 . S
O193 Cd183 2.240 . S
O193 C191 1.279 . S
O194 Cd184 2.297 . S
O194 C189 1.247 . S
O195 Cd184 2.439 . S
O195 C189 1.208 . S
O196 Cd197 2.223 . S
O196 C204 1.315 . S
Cd197 O196 2.223 . S
Cd197 O200 2.297 . S
Cd197 O201 2.439 . S
Cd197 O207 2.240 . S
Cd198 O199 2.240 . S
Cd198 O206 2.223 . S
Cd198 O208 2.297 . S
Cd198 O209 2.439 . S
O199 Cd198 2.240 . S
O199 C204 1.279 . S
O200 Cd197 2.297 . S
O200 C202 1.247 . S
O201 Cd197 2.439 . S
O201 C202 1.208 . S
C202 O200 1.247 . S
C202 O201 1.208 . S
C203 O208 1.247 . S
C203 O209 1.208 . S
C204 O196 1.315 . S
C204 O199 1.279 . S
C205 O206 1.315 . S
C205 O207 1.279 . S
O206 Cd198 2.223 . S
O206 C205 1.315 . S
O207 Cd197 2.240 . S
O207 C205 1.279 . S
O208 Cd198 2.297 . S
O208 C203 1.247 . S
O209 Cd198 2.439 . S
O209 C203 1.208 . S
O210 Cd211 2.223 . S
O210 C218 1.315 . S
Cd211 O210 2.223 . S
Cd211 O214 2.297 . S
Cd211 O215 2.439 . S
Cd211 O221 2.240 . S
Cd212 O213 2.240 . S
Cd212 O220 2.223 . S
Cd212 O222 2.297 . S
Cd212 O223 2.439 . S
O213 Cd212 2.240 . S
O213 C218 1.279 . S
O214 Cd211 2.297 . S
O214 C216 1.247 . S
O215 Cd211 2.439 . S
O215 C216 1.208 . S
C216 O214 1.247 . S
C216 O215 1.208 . S
C217 O222 1.247 . S
C217 O223 1.208 . S
C218 O210 1.315 . S
C218 O213 1.279 . S
C219 O220 1.315 . S
C219 O221 1.279 . S
O220 Cd212 2.223 . S
O220 C219 1.315 . S
O221 Cd211 2.240 . S
O221 C219 1.279 . S
O222 Cd212 2.297 . S
O222 C217 1.247 . S
O223 Cd212 2.439 . S
O223 C217 1.208 . S
C224 C225 1.369 . S
C224 C226 1.419 . S
C224 H228 0.930 . S
C225 C224 1.369 . S
C225 C234 1.429 . S
C226 C224 1.419 . S
C226 C227 1.363 . S
C226 H229 0.929 . S
C227 C226 1.363 . S
C227 C233 1.428 . S
H228 C224 0.930 . S
H229 C226 0.929 . S
S230 N231 1.613 . S
S230 N232 1.610 . S
N231 S230 1.613 . S
N231 C234 1.350 . S
N232 S230 1.610 . S
N232 C233 1.351 . S
C233 C227 1.428 . S
C233 N232 1.351 . S
C233 C234 1.434 . S
C234 C225 1.429 . S
C234 N231 1.350 . S
C234 C233 1.434 . S
C235 C236 1.369 . S
C235 C237 1.419 . S
C235 H239 0.930 . S
C236 C235 1.369 . S
C236 C245 1.429 . S
C237 C235 1.419 . S
C237 C238 1.363 . S
C237 H240 0.929 . S
C238 C237 1.363 . S
C238 C244 1.428 . S
H239 C235 0.930 . S
H240 C237 0.929 . S
S241 N242 1.613 . S
S241 N243 1.610 . S
N242 S241 1.613 . S
N242 C245 1.350 . S
N243 S241 1.610 . S
N243 C244 1.351 . S
C244 C238 1.428 . S
C244 N243 1.351 . S
C244 C245 1.434 . S
C245 C236 1.429 . S
C245 N242 1.350 . S
C245 C244 1.434 . S
C246 C247 1.369 . S
C246 C248 1.419 . S
C246 H250 0.930 . S
C247 C246 1.369 . S
C247 C256 1.429 . S
C248 C246 1.419 . S
C248 C249 1.363 . S
C248 H251 0.929 . S
C249 C248 1.363 . S
C249 C255 1.428 . S
H250 C246 0.930 . S
H251 C248 0.929 . S
S252 N253 1.613 . S
S252 N254 1.610 . S
N253 S252 1.613 . S
N253 C256 1.350 . S
N254 S252 1.610 . S
N254 C255 1.351 . S
C255 C249 1.428 . S
C255 N254 1.351 . S
C255 C256 1.434 . S
C256 C247 1.429 . S
C256 N253 1.350 . S
C256 C255 1.434 . S
C257 C258 1.369 . S
C257 C259 1.419 . S
C257 H261 0.930 . S
C258 C257 1.369 . S
C258 C267 1.429 . S
C259 C257 1.419 . S
C259 C260 1.363 . S
C259 H262 0.929 . S
C260 C259 1.363 . S
C260 C266 1.428 . S
H261 C257 0.930 . S
H262 C259 0.929 . S
S263 N264 1.613 . S
S263 N265 1.610 . S
N264 S263 1.613 . S
N264 C267 1.350 . S
N265 S263 1.610 . S
N265 C266 1.351 . S
C266 C260 1.428 . S
C266 N265 1.351 . S
C266 C267 1.434 . S
C267 C258 1.429 . S
C267 N264 1.350 . S
C267 C266 1.434 . S
C268 C269 1.369 . S
C268 C270 1.419 . S
C268 H272 0.930 . S
C269 C268 1.369 . S
C269 C278 1.429 . S
C270 C268 1.419 . S
C270 C271 1.363 . S
C270 H273 0.929 . S
C271 C270 1.363 . S
C271 C277 1.428 . S
H272 C268 0.930 . S
H273 C270 0.929 . S
S274 N275 1.613 . S
S274 N276 1.610 . S
N275 S274 1.613 . S
N275 C278 1.350 . S
N276 S274 1.610 . S
N276 C277 1.351 . S
C277 C271 1.428 . S
C277 N276 1.351 . S
C277 C278 1.434 . S
C278 C269 1.429 . S
C278 N275 1.350 . S
C278 C277 1.434 . S
C279 C280 1.369 . S
C279 C281 1.419 . S
C279 H283 0.930 . S
C280 C279 1.369 . S
C280 C289 1.429 . S
C281 C279 1.419 . S
C281 C282 1.363 . S
C281 H284 0.929 . S
C282 C281 1.363 . S
C282 C288 1.428 . S
H283 C279 0.930 . S
H284 C281 0.929 . S
S285 N286 1.613 . S
S285 N287 1.610 . S
N286 S285 1.613 . S
N286 C289 1.350 . S
N287 S285 1.610 . S
N287 C288 1.351 . S
C288 C282 1.428 . S
C288 N287 1.351 . S
C288 C289 1.434 . S
C289 C280 1.429 . S
C289 N286 1.350 . S
C289 C288 1.434 . S
C290 C291 1.369 . S
C290 C292 1.419 . S
C290 H294 0.930 . S
C291 C290 1.369 . S
C291 C300 1.429 . S
C292 C290 1.419 . S
C292 C293 1.363 . S
C292 H295 0.929 . S
C293 C292 1.363 . S
C293 C299 1.428 . S
H294 C290 0.930 . S
H295 C292 0.929 . S
S296 N297 1.613 . S
S296 N298 1.610 . S
N297 S296 1.613 . S
N297 C300 1.350 . S
N298 S296 1.610 . S
N298 C299 1.351 . S
C299 C293 1.428 . S
C299 N298 1.351 . S
C299 C300 1.434 . S
C300 C291 1.429 . S
C300 N297 1.350 . S
C300 C299 1.434 . S
C301 C302 1.369 . S
C301 C303 1.419 . S
C301 H305 0.930 . S
C302 C301 1.369 . S
C302 C311 1.429 . S
C303 C301 1.419 . S
C303 C304 1.363 . S
C303 H306 0.929 . S
C304 C303 1.363 . S
C304 C310 1.428 . S
H305 C301 0.930 . S
H306 C303 0.929 . S
S307 N308 1.613 . S
S307 N309 1.610 . S
N308 S307 1.613 . S
N308 C311 1.350 . S
N309 S307 1.610 . S
N309 C310 1.351 . S
C310 C304 1.428 . S
C310 N309 1.351 . S
C310 C311 1.434 . S
C311 C302 1.429 . S
C311 N308 1.350 . S
C311 C310 1.434 . S
C312 C313 1.369 . S
C312 C314 1.419 . S
C312 H316 0.930 . S
C313 C312 1.369 . S
C313 C322 1.429 . S
C314 C312 1.419 . S
C314 C315 1.363 . S
C314 H317 0.929 . S
C315 C314 1.363 . S
C315 C321 1.428 . S
H316 C312 0.930 . S
H317 C314 0.929 . S
S318 N319 1.613 . S
S318 N320 1.610 . S
N319 S318 1.613 . S
N319 C322 1.350 . S
N320 S318 1.610 . S
N320 C321 1.351 . S
C321 C315 1.428 . S
C321 N320 1.351 . S
C321 C322 1.434 . S
C322 C313 1.429 . S
C322 N319 1.350 . S
C322 C321 1.434 . S
C323 C324 1.369 . S
C323 C325 1.419 . S
C323 H327 0.930 . S
C324 C323 1.369 . S
C324 C333 1.429 . S
C325 C323 1.419 . S
C325 C326 1.363 . S
C325 H328 0.929 . S
C326 C325 1.363 . S
C326 C332 1.428 . S
H327 C323 0.930 . S
H328 C325 0.929 . S
S329 N330 1.613 . S
S329 N331 1.610 . S
N330 S329 1.613 . S
N330 C333 1.350 . S
N331 S329 1.610 . S
N331 C332 1.351 . S
C332 C326 1.428 . S
C332 N331 1.351 . S
C332 C333 1.434 . S
C333 C324 1.429 . S
C333 N330 1.350 . S
C333 C332 1.434 . S
C334 C335 1.369 . S
C334 C336 1.419 . S
C334 H338 0.930 . S
C335 C334 1.369 . S
C335 C344 1.429 . S
C336 C334 1.419 . S
C336 C337 1.363 . S
C336 H339 0.929 . S
C337 C336 1.363 . S
C337 C343 1.428 . S
H338 C334 0.930 . S
H339 C336 0.929 . S
S340 N341 1.613 . S
S340 N342 1.610 . S
N341 S340 1.613 . S
N341 C344 1.350 . S
N342 S340 1.610 . S
N342 C343 1.351 . S
C343 C337 1.428 . S
C343 N342 1.351 . S
C343 C344 1.434 . S
C344 C335 1.429 . S
C344 N341 1.350 . S
C344 C343 1.434 . S
C345 C346 1.369 . S
C345 C347 1.419 1_554 S
C345 H349 0.930 . S
C346 C345 1.369 . S
C346 C355 1.429 . S
C347 C345 1.419 1_556 S
C347 C348 1.363 . S
C347 H350 0.929 . S
C348 C347 1.363 . S
C348 C354 1.428 . S
H349 C345 0.930 . S
H350 C347 0.929 . S
S351 N352 1.613 . S
S351 N353 1.610 1_554 S
N352 S351 1.613 . S
N352 C355 1.350 . S
N353 S351 1.610 1_556 S
N353 C354 1.351 . S
C354 C348 1.428 . S
C354 N353 1.351 . S
C354 C355 1.434 1_556 S
C355 C346 1.429 . S
C355 N352 1.350 . S
C355 C354 1.434 1_554 S
C356 C357 1.369 . S
C356 C358 1.419 1_554 S
C356 H360 0.930 . S
C357 C356 1.369 . S
C357 C366 1.429 . S
C358 C356 1.419 1_556 S
C358 C359 1.363 . S
C358 H361 0.929 . S
C359 C358 1.363 . S
C359 C365 1.428 . S
H360 C356 0.930 . S
H361 C358 0.929 . S
S362 N363 1.613 1_556 S
S362 N364 1.610 . S
N363 S362 1.613 1_554 S
N363 C366 1.350 . S
N364 S362 1.610 . S
N364 C365 1.351 . S
C365 C359 1.428 . S
C365 N364 1.351 . S
C365 C366 1.434 1_556 S
C366 C357 1.429 . S
C366 N363 1.350 . S
C366 C365 1.434 1_554 S
C367 C368 1.369 . S
C367 C369 1.419 . S
C367 H371 0.930 . S
C368 C367 1.369 . S
C368 C377 1.429 . S
C369 C367 1.419 . S
C369 C370 1.363 . S
C369 H372 0.929 . S
C370 C369 1.363 . S
C370 C376 1.428 . S
H371 C367 0.930 . S
H372 C369 0.929 . S
S373 N374 1.613 . S
S373 N375 1.610 . S
N374 S373 1.613 . S
N374 C377 1.350 . S
N375 S373 1.610 . S
N375 C376 1.351 . S
C376 C370 1.428 . S
C376 N375 1.351 . S
C376 C377 1.434 . S
C377 C368 1.429 . S
C377 N374 1.350 . S
C377 C376 1.434 . S
C378 C379 1.369 . S
C378 C380 1.419 . S
C378 H382 0.930 . S
C379 C378 1.369 . S
C379 C388 1.429 . S
C380 C378 1.419 . S
C380 C381 1.363 . S
C380 H383 0.929 . S
C381 C380 1.363 . S
C381 C387 1.428 . S
H382 C378 0.930 . S
H383 C380 0.929 . S
S384 N385 1.613 . S
S384 N386 1.610 . S
N385 S384 1.613 . S
N385 C388 1.350 . S
N386 S384 1.610 . S
N386 C387 1.351 . S
C387 C381 1.428 . S
C387 N386 1.351 . S
C387 C388 1.434 . S
C388 C379 1.429 . S
C388 N385 1.350 . S
C388 C387 1.434 . S
C389 C390 1.369 . S
C389 C391 1.419 . S
C389 H393 0.930 . S
C390 C389 1.369 . S
C390 C399 1.429 . S
C391 C389 1.419 . S
C391 C392 1.363 . S
C391 H394 0.929 . S
C392 C391 1.363 . S
C392 C398 1.428 . S
H393 C389 0.930 . S
H394 C391 0.929 . S
S395 N396 1.613 . S
S395 N397 1.610 . S
N396 S395 1.613 . S
N396 C399 1.350 . S
N397 S395 1.610 . S
N397 C398 1.351 . S
C398 C392 1.428 . S
C398 N397 1.351 . S
C398 C399 1.434 . S
C399 C390 1.429 . S
C399 N396 1.350 . S
C399 C398 1.434 . S
C400 C401 1.369 . S
C400 C402 1.419 1_455 S
C400 H404 0.930 . S
C401 C400 1.369 . S
C401 C410 1.429 1_545 S
C402 C400 1.419 1_655 S
C402 C403 1.363 1_545 S
C402 H405 0.929 . S
C403 C402 1.363 1_565 S
C403 C409 1.428 . S
H404 C400 0.930 . S
H405 C402 0.929 . S
S406 N407 1.613 . S
S406 N408 1.610 1_455 S
N407 S406 1.613 . S
N407 C410 1.350 . S
N408 S406 1.610 1_655 S
N408 C409 1.351 . S
C409 C403 1.428 . S
C409 N408 1.351 . S
C409 C410 1.434 1_655 S
C410 C401 1.429 1_565 S
C410 N407 1.350 . S
C410 C409 1.434 1_455 S
C411 C412 1.369 . S
C411 C413 1.419 . S
C411 H415 0.930 . S
C412 C411 1.369 . S
C412 C421 1.429 1_455 S
C413 C411 1.419 . S
C413 C414 1.363 1_455 S
C413 H416 0.929 . S
C414 C413 1.363 1_655 S
C414 C420 1.428 . S
H415 C411 0.930 . S
H416 C413 0.929 . S
S417 N418 1.613 . S
S417 N419 1.610 . S
N418 S417 1.613 . S
N418 C421 1.350 . S
N419 S417 1.610 . S
N419 C420 1.351 . S
C420 C414 1.428 . S
C420 N419 1.351 . S
C420 C421 1.434 . S
C421 C412 1.429 1_655 S
C421 N418 1.350 . S
C421 C420 1.434 . S
C422 C423 1.369 . S
C422 C424 1.419 . S
C422 H426 0.930 . S
C423 C422 1.369 . S
C423 C432 1.429 . S
C424 C422 1.419 . S
C424 C425 1.363 . S
C424 H427 0.929 . S
C425 C424 1.363 . S
C425 C431 1.428 . S
H426 C422 0.930 . S
H427 C424 0.929 . S
S428 N429 1.613 . S
S428 N430 1.610 . S
N429 S428 1.613 . S
N429 C432 1.350 . S
N430 S428 1.610 . S
N430 C431 1.351 . S
C431 C425 1.428 . S
C431 N430 1.351 . S
C431 C432 1.434 . S
C432 C423 1.429 . S
C432 N429 1.350 . S
C432 C431 1.434 . S
C433 C434 1.369 . S
C433 C435 1.419 1_545 S
C433 H437 0.930 . S
C434 C433 1.369 . S
C434 C443 1.429 . S
C435 C433 1.419 1_565 S
C435 C436 1.363 . S
C435 H438 0.929 . S
C436 C435 1.363 . S
C436 C442 1.428 . S
H437 C433 0.930 . S
H438 C435 0.929 . S
S439 N440 1.613 . S
S439 N441 1.610 . S
N440 S439 1.613 . S
N440 C443 1.350 . S
N441 S439 1.610 . S
N441 C442 1.351 1_545 S
C442 C436 1.428 . S
C442 N441 1.351 1_565 S
C442 C443 1.434 1_565 S
C443 C434 1.429 . S
C443 N440 1.350 . S
C443 C442 1.434 1_545 S
C444 C445 1.369 . S
C444 C446 1.419 1_455 S
C444 H448 0.930 . S
C445 C444 1.369 . S
C445 C454 1.429 . S
C446 C444 1.419 1_655 S
C446 C447 1.363 . S
C446 H449 0.929 . S
C447 C446 1.363 . S
C447 C453 1.428 . S
H448 C444 0.930 . S
H449 C446 0.929 . S
S450 N451 1.613 . S
S450 N452 1.610 1_455 S
N451 S450 1.613 . S
N451 C454 1.350 . S
N452 S450 1.610 1_655 S
N452 C453 1.351 . S
C453 C447 1.428 . S
C453 N452 1.351 . S
C453 C454 1.434 1_655 S
C454 C445 1.429 . S
C454 N451 1.350 . S
C454 C453 1.434 1_455 S
C455 C456 1.369 . S
C455 C457 1.419 . S
C455 H459 0.930 . S
C456 C455 1.369 . S
C456 C465 1.429 . S
C457 C455 1.419 . S
C457 C458 1.363 . S
C457 H460 0.929 . S
C458 C457 1.363 . S
C458 C464 1.428 . S
H459 C455 0.930 . S
H460 C457 0.929 . S
S461 N462 1.613 . S
S461 N463 1.610 . S
N462 S461 1.613 . S
N462 C465 1.350 . S
N463 S461 1.610 . S
N463 C464 1.351 . S
C464 C458 1.428 . S
C464 N463 1.351 . S
C464 C465 1.434 . S
C465 C456 1.429 . S
C465 N462 1.350 . S
C465 C464 1.434 . S
C466 C467 1.369 1_545 S
C466 C468 1.419 . S
C466 H470 0.930 . S
C467 C466 1.369 1_565 S
C467 C476 1.429 . S
C468 C466 1.419 . S
C468 C469 1.363 . S
C468 H471 0.929 . S
C469 C468 1.363 . S
C469 C475 1.428 1_545 S
H470 C466 0.930 . S
H471 C468 0.929 . S
S472 N473 1.613 . S
S472 N474 1.610 . S
N473 S472 1.613 . S
N473 C476 1.350 . S
N474 S472 1.610 . S
N474 C475 1.351 . S
C475 C469 1.428 1_565 S
C475 N474 1.351 . S
C475 C476 1.434 . S
C476 C467 1.429 . S
C476 N473 1.350 . S
C476 C475 1.434 . S
C477 C478 1.369 . S
C477 C479 1.419 1_545 S
C477 H481 0.930 . S
C478 C477 1.369 . S
C478 C487 1.429 1_455 S
C479 C477 1.419 1_565 S
C479 C480 1.363 1_455 S
C479 H482 0.929 . S
C480 C479 1.363 1_655 S
C480 C486 1.428 . S
H481 C477 0.930 . S
H482 C479 0.929 . S
S483 N484 1.613 . S
S483 N485 1.610 1_545 S
N484 S483 1.613 . S
N484 C487 1.350 . S
N485 S483 1.610 1_565 S
N485 C486 1.351 . S
C486 C480 1.428 . S
C486 N485 1.351 . S
C486 C487 1.434 1_565 S
C487 C478 1.429 1_655 S
C487 N484 1.350 . S
C487 C486 1.434 1_545 S
C488 C489 1.369 . S
C488 C490 1.419 1_565 S
C488 H492 0.930 . S
C489 C488 1.369 . S
C489 C498 1.429 . S
C490 C488 1.419 1_545 S
C490 C491 1.363 . S
C490 H493 0.929 . S
C491 C490 1.363 . S
C491 C497 1.428 . S
H492 C488 0.930 . S
H493 C490 0.929 . S
S494 N495 1.613 1_545 S
S494 N496 1.610 . S
N495 S494 1.613 1_565 S
N495 C498 1.350 . S
N496 S494 1.610 . S
N496 C497 1.351 . S
C497 C491 1.428 . S
C497 N496 1.351 . S
C497 C498 1.434 1_545 S
C498 C489 1.429 . S
C498 N495 1.350 . S
C498 C497 1.434 1_565 S
C499 C500 1.369 1_455 S
C499 C501 1.419 . S
C499 H503 0.930 . S
C500 C499 1.369 1_655 S
C500 C509 1.429 1_565 S
C501 C499 1.419 . S
C501 C502 1.363 1_565 S
C501 H504 0.929 . S
C502 C501 1.363 1_545 S
C502 C508 1.428 1_455 S
H503 C499 0.930 . S
H504 C501 0.929 . S
S505 N506 1.613 . S
S505 N507 1.610 . S
N506 S505 1.613 . S
N506 C509 1.350 . S
N507 S505 1.610 . S
N507 C508 1.351 . S
C508 C502 1.428 1_655 S
C508 N507 1.351 . S
C508 C509 1.434 . S
C509 C500 1.429 1_545 S
C509 N506 1.350 . S
C509 C508 1.434 . S
C510 C511 1.369 . S
C510 C512 1.419 1_455 S
C510 H514 0.930 . S
C511 C510 1.369 . S
C511 C520 1.429 . S
C512 C510 1.419 1_655 S
C512 C513 1.363 . S
C512 H515 0.929 . S
C513 C512 1.363 . S
C513 C519 1.428 . S
H514 C510 0.930 . S
H515 C512 0.929 . S
S516 N517 1.613 1_655 S
S516 N518 1.610 . S
N517 S516 1.613 1_455 S
N517 C520 1.350 . S
N518 S516 1.610 . S
N518 C519 1.351 . S
C519 C513 1.428 . S
C519 N518 1.351 . S
C519 C520 1.434 1_655 S
C520 C511 1.429 . S
C520 N517 1.350 . S
C520 C519 1.434 1_455 S
C521 C522 1.369 . S
C521 C523 1.419 . S
C521 H525 0.930 . S
C522 C521 1.369 . S
C522 C531 1.429 . S
C523 C521 1.419 . S
C523 C524 1.363 . S
C523 H526 0.929 . S
C524 C523 1.363 . S
C524 C530 1.428 . S
H525 C521 0.930 . S
H526 C523 0.929 . S
S527 N528 1.613 . S
S527 N529 1.610 . S
N528 S527 1.613 . S
N528 C531 1.350 . S
N529 S527 1.610 . S
N529 C530 1.351 . S
C530 C524 1.428 . S
C530 N529 1.351 . S
C530 C531 1.434 . S
C531 C522 1.429 . S
C531 N528 1.350 . S
C531 C530 1.434 . S
C532 C533 1.369 . S
C532 C534 1.419 . S
C532 H536 0.930 . S
C533 C532 1.369 . S
C533 C542 1.429 . S
C534 C532 1.419 . S
C534 C535 1.363 . S
C534 H537 0.929 . S
C535 C534 1.363 . S
C535 C541 1.428 . S
H536 C532 0.930 . S
H537 C534 0.929 . S
S538 N539 1.613 . S
S538 N540 1.610 . S
N539 S538 1.613 . S
N539 C542 1.350 . S
N540 S538 1.610 . S
N540 C541 1.351 . S
C541 C535 1.428 . S
C541 N540 1.351 . S
C541 C542 1.434 . S
C542 C533 1.429 . S
C542 N539 1.350 . S
C542 C541 1.434 . S
C543 C544 1.369 . S
C543 C545 1.417 . S
C543 H547 0.930 . S
C544 C543 1.369 . S
C544 C553 1.429 1_545 S
C545 C543 1.417 . S
C545 C546 1.365 1_545 S
C545 H548 0.929 . S
C546 C545 1.365 1_565 S
C546 C552 1.428 . S
H547 C543 0.930 . S
H548 C545 0.929 . S
S549 N550 1.613 . S
S549 N551 1.610 . S
N550 S549 1.613 . S
N550 C553 1.350 . S
N551 S549 1.610 . S
N551 C552 1.351 . S
C552 C546 1.428 . S
C552 N551 1.351 . S
C552 C553 1.434 . S
C553 C544 1.429 1_565 S
C553 N550 1.350 . S
C553 C552 1.434 . S
C554 C555 1.369 1_545 S
C554 C556 1.419 1_655 S
C554 H558 0.930 . S
C555 C554 1.369 1_565 S
C555 C564 1.429 . S
C556 C554 1.419 1_455 S
C556 C557 1.363 . S
C556 H559 0.929 . S
C557 C556 1.363 . S
C557 C563 1.428 1_545 S
H558 C554 0.930 . S
H559 C556 0.929 . S
S560 N561 1.613 1_455 S
S560 N562 1.610 . S
N561 S560 1.613 1_655 S
N561 C564 1.350 . S
N562 S560 1.610 . S
N562 C563 1.351 . S
C563 C557 1.428 1_565 S
C563 N562 1.351 . S
C563 C564 1.434 1_455 S
C564 C555 1.429 . S
C564 N561 1.350 . S
C564 C563 1.434 1_655 S
C565 C566 1.369 1_455 S
C565 C567 1.419 . S
C565 H569 0.930 . S
C566 C565 1.369 1_655 S
C566 C575 1.429 . S
C567 C565 1.419 . S
C567 C568 1.363 . S
C567 H570 0.929 . S
C568 C567 1.363 . S
C568 C574 1.428 1_455 S
H569 C565 0.930 . S
H570 C567 0.929 . S
S571 N572 1.613 . S
S571 N573 1.610 . S
N572 S571 1.613 . S
N572 C575 1.350 . S
N573 S571 1.610 . S
N573 C574 1.351 . S
C574 C568 1.428 1_655 S
C574 N573 1.351 . S
C574 C575 1.434 . S
C575 C566 1.429 . S
C575 N572 1.350 . S
C575 C574 1.434 . S
C225 C63 1.490 . S
C227 C7 1.492 . S
C236 C21 1.491 . S
C238 C77 1.490 . S
C247 C91 1.491 . S
C249 C35 1.490 . S
C258 C105 1.492 . S
C260 C49 1.493 . S
C269 C175 1.490 . S
C271 C119 1.493 . S
C280 C133 1.490 . S
C282 C189 1.493 . S
C291 C203 1.493 . S
C293 C147 1.492 . S
C302 C161 1.492 . S
C304 C217 1.490 . S
C313 C8 1.455 . S
C315 C218 1.455 . S
C324 C22 1.458 . S
C326 C176 1.455 . S
C335 C36 1.458 . S
C337 C190 1.457 . S
C346 C204 1.459 . S
C348 C50 1.456 . S
C357 C64 1.456 . S
C359 C134 1.458 . S
C368 C78 1.456 . S
C370 C148 1.455 . S
C379 C162 1.458 . S
C381 C92 1.455 . S
C390 C120 1.455 . S
C392 C106 1.456 . S
C401 C6 1.594 . S
C403 C146 1.600 . S
C412 C160 1.595 . S
C414 C20 1.600 . S
C423 C34 1.594 . S
C425 C118 1.600 . S
C434 C132 1.594 . S
C436 C48 1.600 . S
C445 C62 1.594 . S
C447 C202 1.600 . S
C456 C76 1.600 . S
C458 C216 1.595 . S
C467 C174 1.601 . S
C469 C90 1.595 . S
C478 C188 1.598 . S
C480 C104 1.598 . S
C489 C149 1.500 . S
C491 C9 1.499 . S
C500 C23 1.499 . S
C502 C163 1.500 . S
C511 C37 1.499 . S
C513 C121 1.499 . S
C522 C135 1.501 . S
C524 C51 1.500 . S
C533 C205 1.499 . S
C535 C65 1.501 . S
C544 C219 1.499 . S
C546 C79 1.500 . S
C555 C177 1.499 . S
C557 C93 1.500 . S
C566 C107 1.499 . S
C568 C191 1.501 . S
