# Generated by pormake.
# Topology dia, (4)-cn, num edge types: 1
# Building blocks:
#     Node 0, Type 0, BuildingBlock: CEKHIL_clean_sbu_0, # of connection points: 4
#     Node 1, Type 0, BuildingBlock: CEKHIL_clean_sbu_0, # of connection points: 4
#     Node 2, Type 0, BuildingBlock: CEKHIL_clean_sbu_0, # of connection points: 4
#     Node 3, Type 0, BuildingBlock: CEKHIL_clean_sbu_0, # of connection points: 4
#     Node 4, Type 0, BuildingBlock: CEKHIL_clean_sbu_0, # of connection points: 4
#     Node 5, Type 0, BuildingBlock: CEKHIL_clean_sbu_0, # of connection points: 4
#     Node 6, Type 0, BuildingBlock: CEKHIL_clean_sbu_0, # of connection points: 4
#     Node 7, Type 0, BuildingBlock: CEKHIL_clean_sbu_0, # of connection points: 4
#     Edge 8, Type (0, 0), BuildingBlock: TEMPAE_clean_linker_10, # of connection points: 2
#     Edge 9, Type (0, 0), BuildingBlock: TEMPAE_clean_linker_10, # of connection points: 2
#     Edge 10, Type (0, 0), BuildingBlock: TEMPAE_clean_linker_10, # of connection points: 2
#     Edge 11, Type (0, 0), BuildingBlock: TEMPAE_clean_linker_10, # of connection points: 2
#     Edge 12, Type (0, 0), BuildingBlock: TEMPAE_clean_linker_10, # of connection points: 2
#     Edge 13, Type (0, 0), BuildingBlock: TEMPAE_clean_linker_10, # of connection points: 2
#     Edge 14, Type (0, 0), BuildingBlock: TEMPAE_clean_linker_10, # of connection points: 2
#     Edge 15, Type (0, 0), BuildingBlock: TEMPAE_clean_linker_10, # of connection points: 2
#     Edge 16, Type (0, 0), BuildingBlock: TEMPAE_clean_linker_10, # of connection points: 2
#     Edge 17, Type (0, 0), BuildingBlock: TEMPAE_clean_linker_10, # of connection points: 2
#     Edge 18, Type (0, 0), BuildingBlock: TEMPAE_clean_linker_10, # of connection points: 2
#     Edge 19, Type (0, 0), BuildingBlock: TEMPAE_clean_linker_10, # of connection points: 2
#     Edge 20, Type (0, 0), BuildingBlock: TEMPAE_clean_linker_10, # of connection points: 2
#     Edge 21, Type (0, 0), BuildingBlock: TEMPAE_clean_linker_10, # of connection points: 2
#     Edge 22, Type (0, 0), BuildingBlock: TEMPAE_clean_linker_10, # of connection points: 2
#     Edge 23, Type (0, 0), BuildingBlock: TEMPAE_clean_linker_10, # of connection points: 2
# Relax obj value: 0.001
# Max RMSD: 0.018
# Mean RMSD: 0.018
data_MOF--net-dia--node1-CEKHIL_clean_sbu_0--edge1-TEMPAE_clean_linker_10
_symmetry_space_group_name_H-M    P1
_symmetry_Int_Tables_number       1
_symmetry_cell_setting            triclinic
loop_
_symmetry_equiv_pos_as_xyz
'x, y, z'
_cell_length_a     38.921906
_cell_length_b     38.904033
_cell_length_c     25.254746
_cell_angle_alpha  90.205325
_cell_angle_beta   90.255566
_cell_angle_gamma 91.873324
loop_
_atom_site_label
_atom_site_type_symbol
_atom_site_fract_x
_atom_site_fract_y
_atom_site_fract_z
_atom_type_partial_charge
Co0 Co 0.13162 0.14345 0.62778 0.0
O1 O 0.09801 0.17806 0.61535 0.0
O2 O 0.10301 0.14916 0.68993 0.0
C3 C 0.17635 0.17432 0.5939 0.0
O4 O 0.16437 0.10727 0.65654 0.0
Co5 Co 0.17084 0.11013 0.53438 0.0
O6 O 0.19742 0.08762 0.59056 0.0
C7 C 0.09837 0.08971 0.55435 0.0
C8 C 0.08751 0.17279 0.66341 0.0
C9 C 0.18891 0.08875 0.63913 0.0
O10 O 0.09876 0.10673 0.59826 0.0
O11 O 0.12351 0.09013 0.52184 0.0
O12 O 0.16653 0.17967 0.64228 0.0
O13 O 0.15754 0.15269 0.56689 0.0
Co14 Co 0.86853 0.38162 0.86626 0.0
O15 O 0.83476 0.41621 0.87804 0.0
O16 O 0.86181 0.40836 0.80243 0.0
C17 C 0.83784 0.33799 0.9037 0.0
O18 O 0.90399 0.34787 0.83823 0.0
Co19 Co 0.90314 0.34463 0.96072 0.0
O20 O 0.92498 0.31675 0.90553 0.0
C21 C 0.92381 0.41624 0.93534 0.0
C22 C 0.83925 0.42521 0.82909 0.0
C23 C 0.92297 0.32393 0.8565 0.0
O24 O 0.90588 0.41496 0.89235 0.0
O25 O 0.92435 0.39191 0.96921 0.0
O26 O 0.83189 0.3468 0.85501 0.0
O27 O 0.85997 0.35723 0.92912 0.0
Co28 Co 0.63279 0.14505 0.1289 0.0
O29 O 0.59948 0.1801 0.11796 0.0
O30 O 0.6037 0.14941 0.1909 0.0
C31 C 0.6781 0.1765 0.09803 0.0
O32 O 0.66519 0.108 0.15562 0.0
Co33 Co 0.67176 0.11431 0.03324 0.0
O34 O 0.69738 0.08925 0.08795 0.0
C35 C 0.59856 0.09588 0.04964 0.0
C36 C 0.5886 0.17382 0.16551 0.0
C37 C 0.68919 0.08936 0.13674 0.0
O38 O 0.59999 0.10922 0.09648 0.0
O39 O 0.6234 0.09856 0.01671 0.0
O40 O 0.66777 0.18068 0.14643 0.0
O41 O 0.65926 0.15592 0.06924 0.0
Co42 Co 0.86599 0.88085 0.37406 0.0
O43 O 0.83041 0.91369 0.38413 0.0
O44 O 0.86217 0.91014 0.31215 0.0
C45 C 0.83461 0.83529 0.40414 0.0
O46 O 0.90357 0.84886 0.34805 0.0
Co47 Co 0.89621 0.84155 0.46991 0.0
O48 O 0.92163 0.81606 0.41556 0.0
C49 C 0.91447 0.91496 0.45446 0.0
C50 C 0.83724 0.92479 0.33687 0.0
C51 C 0.92196 0.82465 0.36694 0.0
O52 O 0.90111 0.91387 0.40759 0.0
O53 O 0.91194 0.88982 0.4869 0.0
O54 O 0.83089 0.84554 0.35557 0.0
O55 O 0.85484 0.85421 0.43334 0.0
Co56 Co 0.12997 0.64538 0.13322 0.0
O57 O 0.09706 0.68087 0.12303 0.0
O58 O 0.10158 0.65012 0.19593 0.0
C59 C 0.1752 0.67621 0.10087 0.0
O60 O 0.16225 0.60805 0.1592 0.0
Co61 Co 0.16718 0.61382 0.03652 0.0
O62 O 0.19308 0.58837 0.0906 0.0
C63 C 0.09379 0.59799 0.05424 0.0
C64 C 0.08661 0.67474 0.17084 0.0
C65 C 0.18569 0.58898 0.13968 0.0
O66 O 0.09647 0.60988 0.10185 0.0
O67 O 0.11797 0.60093 0.02022 0.0
O68 O 0.16554 0.68065 0.14955 0.0
O69 O 0.15581 0.65573 0.07277 0.0
Co70 Co 0.36725 0.3804 0.36798 0.0
O71 O 0.33201 0.41343 0.37966 0.0
O72 O 0.36245 0.40983 0.30642 0.0
C73 C 0.33622 0.33487 0.39893 0.0
O74 O 0.40431 0.34839 0.34025 0.0
Co75 Co 0.39887 0.34036 0.46213 0.0
O76 O 0.42266 0.31454 0.40631 0.0
C77 C 0.41606 0.41413 0.44767 0.0
C78 C 0.33801 0.42457 0.33215 0.0
C79 C 0.42244 0.32363 0.35794 0.0
O80 O 0.40299 0.41314 0.40063 0.0
O81 O 0.41362 0.38883 0.47987 0.0
O82 O 0.33165 0.3453 0.35063 0.0
O83 O 0.35705 0.35358 0.42743 0.0
Co84 Co 0.36783 0.88137 0.87346 0.0
O85 O 0.334 0.91579 0.88562 0.0
O86 O 0.36272 0.90997 0.81108 0.0
C87 C 0.33574 0.83759 0.90765 0.0
O88 O 0.40323 0.8477 0.84491 0.0
Co89 Co 0.40035 0.84057 0.96546 0.0
O90 O 0.41275 0.80851 0.90811 0.0
C91 C 0.42417 0.91229 0.94477 0.0
C92 C 0.33934 0.92592 0.8374 0.0
C93 C 0.41535 0.81886 0.86048 0.0
O94 O 0.40529 0.91339 0.90279 0.0
O95 O 0.42451 0.88641 0.97595 0.0
O96 O 0.33079 0.84736 0.85912 0.0
O97 O 0.35799 0.85577 0.93455 0.0
Co98 Co 0.6284 0.64385 0.63205 0.0
O99 O 0.59252 0.67633 0.62002 0.0
O100 O 0.60126 0.64933 0.69558 0.0
C101 C 0.67074 0.67651 0.59542 0.0
O102 O 0.66315 0.60951 0.66058 0.0
Co103 Co 0.66943 0.61114 0.54038 0.0
O104 O 0.70202 0.59915 0.5973 0.0
C105 C 0.59805 0.58656 0.56278 0.0
C106 C 0.58383 0.67151 0.66905 0.0
C107 C 0.6918 0.59708 0.645 0.0
O108 O 0.59696 0.60538 0.6048 0.0
O109 O 0.62366 0.58659 0.53112 0.0
O110 O 0.66157 0.6819 0.64406 0.0
O111 O 0.65288 0.6534 0.56975 0.0
C112 C 0.33021 0.28751 0.46436 0.0
C113 C 0.31625 0.30606 0.42243 0.0
C114 C 0.31013 0.26307 0.49211 0.0
C115 C 0.275 0.25801 0.47865 0.0
C116 C 0.26106 0.27603 0.43529 0.0
C117 C 0.28207 0.29951 0.40711 0.0
C118 C 0.32623 0.24351 0.53685 0.0
C119 C 0.22353 0.27185 0.4204 0.0
C120 C 0.22159 0.18063 0.52497 0.0
C121 C 0.20468 0.19421 0.56882 0.0
C122 C 0.24578 0.20064 0.49659 0.0
C123 C 0.25231 0.23533 0.51154 0.0
C124 C 0.23593 0.24887 0.55671 0.0
C125 C 0.21262 0.22792 0.58532 0.0
C126 C 0.2636 0.18494 0.44981 0.0
C127 C 0.24178 0.28593 0.57336 0.0
H128 H 0.35676 0.29249 0.47597 0.0
H129 H 0.27123 0.31416 0.37502 0.0
H130 H 0.31541 0.25189 0.57516 0.0
H131 H 0.32019 0.21556 0.53262 0.0
H132 H 0.3546 0.24762 0.5384 0.0
H133 H 0.21693 0.28707 0.38485 0.0
H134 H 0.21671 0.2444 0.41253 0.0
H135 H 0.20742 0.28024 0.45392 0.0
H136 H 0.21559 0.15443 0.51242 0.0
H137 H 0.19931 0.2385 0.61897 0.0
H138 H 0.2918 0.18976 0.45286 0.0
H139 H 0.25487 0.19714 0.4127 0.0
H140 H 0.2583 0.15677 0.44672 0.0
H141 H 0.26955 0.29157 0.58022 0.0
H142 H 0.22757 0.29226 0.60999 0.0
H143 H 0.23334 0.30312 0.54117 0.0
C144 C 0.69743 0.54789 0.70749 0.0
C145 C 0.71246 0.5763 0.68148 0.0
C146 C 0.71787 0.52404 0.73387 0.0
C147 C 0.75411 0.52937 0.73564 0.0
C148 C 0.7691 0.5592 0.71196 0.0
C149 C 0.74818 0.58188 0.68425 0.0
C150 C 0.70086 0.49217 0.75723 0.0
C151 C 0.80739 0.56661 0.7144 0.0
C152 C 0.80451 0.4781 0.83664 0.0
C153 C 0.81866 0.45256 0.80484 0.0
C154 C 0.78399 0.50359 0.81464 0.0
C155 C 0.77649 0.50294 0.75969 0.0
C156 C 0.79057 0.47702 0.72746 0.0
C157 C 0.8119 0.4525 0.75028 0.0
C158 C 0.77048 0.53131 0.85015 0.0
C159 C 0.78261 0.47481 0.66896 0.0
H160 H 0.66987 0.5432 0.70447 0.0
H161 H 0.75982 0.60378 0.66387 0.0
H162 H 0.70971 0.4691 0.73591 0.0
H163 H 0.70837 0.48944 0.79937 0.0
H164 H 0.67238 0.49252 0.75458 0.0
H165 H 0.81451 0.59266 0.69929 0.0
H166 H 0.81684 0.56449 0.75575 0.0
H167 H 0.82087 0.54736 0.69036 0.0
H168 H 0.8098 0.47837 0.87883 0.0
H169 H 0.82249 0.43263 0.72561 0.0
H170 H 0.74198 0.53005 0.85012 0.0
H171 H 0.7786 0.55703 0.83491 0.0
H172 H 0.77972 0.52899 0.89163 0.0
H173 H 0.75438 0.47275 0.66268 0.0
H174 H 0.79451 0.45241 0.64977 0.0
H175 H 0.79206 0.49858 0.64889 0.0
C176 C 0.56457 0.06357 0.98034 0.0
C177 C 0.56793 0.0746 0.03322 0.0
C178 C 0.53839 0.04008 0.9647 0.0
C179 C 0.51474 0.0273 0.00274 0.0
C180 C 0.51663 0.03981 0.05549 0.0
C181 C 0.54325 0.06333 0.07016 0.0
C182 C 0.53736 0.02742 0.90806 0.0
C183 C 0.49159 0.02706 0.09702 0.0
C184 C 0.43675 0.97579 0.95045 0.0
C185 C 0.44718 0.94202 0.95812 0.0
C186 C 0.45803 1.00398 0.96617 0.0
C187 C 0.49077 0.99809 0.9885 0.0
C188 C 0.50153 0.96397 0.99538 0.0
C189 C 0.47941 0.93639 0.98078 0.0
C190 C 0.44542 0.03997 0.95934 0.0
C191 C 0.53662 0.95654 0.01759 0.0
H192 H 0.58313 0.07246 0.95116 0.0
H193 H 0.54543 0.07182 0.111 0.0
H194 H 0.54414 0.99994 0.90685 0.0
H195 H 0.51108 0.02915 0.89135 0.0
H196 H 0.55553 0.04221 0.88232 0.0
H197 H 0.49369 0.04241 0.13414 0.0
H198 H 0.46482 0.02789 0.08189 0.0
H199 H 0.49665 0.99986 0.10653 0.0
H200 H 0.41164 0.98012 0.93347 0.0
H201 H 0.48757 0.91027 0.98642 0.0
H202 H 0.46293 0.05488 0.93283 0.0
H203 H 0.44558 0.05345 0.99814 0.0
H204 H 0.41899 0.04015 0.94254 0.0
H205 H 0.55688 0.96864 0.99237 0.0
H206 H 0.5411 0.92853 0.02001 0.0
H207 H 0.53955 0.96783 0.05781 0.0
C208 C 0.93306 0.7879 0.2874 0.0
C209 C 0.94545 0.80597 0.33198 0.0
C210 C 0.95456 0.76608 0.25877 0.0
C211 C 0.98944 0.76314 0.27429 0.0
C212 C 1.00226 0.78259 0.31805 0.0
C213 C 0.97998 0.80323 0.34686 0.0
C214 C 0.93963 0.74519 0.21325 0.0
C215 C 0.03944 0.78122 0.33504 0.0
C216 C 0.04159 0.68465 0.24 0.0
C217 C 0.06034 0.69631 0.19596 0.0
C218 C 0.01741 0.70562 0.26455 0.0
C219 C 0.01259 0.73943 0.24559 0.0
C220 C 0.03141 0.7512 0.20098 0.0
C221 C 0.05465 0.72937 0.17634 0.0
C222 C 0.99732 0.69173 0.31122 0.0
C223 C 0.02791 0.7873 0.18032 0.0
H224 H 0.9062 0.78959 0.27647 0.0
H225 H 0.98951 0.81717 0.38147 0.0
H226 H 0.95465 0.75021 0.17672 0.0
H227 H 0.94133 0.71738 0.22215 0.0
H228 H 0.91231 0.75094 0.20537 0.0
H229 H 0.04591 0.79978 0.36739 0.0
H230 H 0.04503 0.75497 0.34898 0.0
H231 H 0.05655 0.78689 0.30092 0.0
H232 H 0.04571 0.65907 0.25515 0.0
H233 H 0.06923 0.73868 0.14254 0.0
H234 H 0.96939 0.69493 0.30465 0.0
H235 H 1.00464 0.70646 0.34745 0.0
H236 H 1.0019 0.66409 0.31837 0.0
H237 H 1.00067 0.79203 0.17057 0.0
H238 H 0.04371 0.79226 0.14446 0.0
H239 H 0.03598 0.80613 0.21144 0.0
C240 C 0.28606 0.96024 0.83499 0.0
C241 C 0.31803 0.95272 0.81299 0.0
C242 C 0.26417 0.98356 0.81056 0.0
C243 C 0.27479 1.00052 0.76359 0.0
C244 C 0.30762 0.99397 0.74228 0.0
C245 C 0.32864 0.96982 0.76682 0.0
C246 C 0.22911 0.989 0.83391 0.0
C247 C 0.3203 0.012 0.69292 0.0
C248 C 0.20863 0.03097 0.66423 0.0
C249 C 0.20756 0.06619 0.6756 0.0
C250 C 0.22943 0.00922 0.69379 0.0
C251 C 0.25069 0.02321 0.73471 0.0
C252 C 0.24934 0.0588 0.74685 0.0
C253 C 0.22742 0.07984 0.7175 0.0
C254 C 0.22918 0.97135 0.68038 0.0
C255 C 0.27209 0.0749 0.78931 0.0
H256 H 0.27754 0.94696 0.87048 0.0
H257 H 0.35337 0.96428 0.74977 0.0
H258 H 0.22539 0.01676 0.84111 0.0
H259 H 0.20894 0.98003 0.8054 0.0
H260 H 0.22524 0.97496 0.87176 0.0
H261 H 0.3475 0.00645 0.68407 0.0
H262 H 0.30419 1.00372 0.65856 0.0
H263 H 0.31796 0.04023 0.69727 0.0
H264 H 0.19335 0.02048 0.6316 0.0
H265 H 0.22702 0.10721 0.72564 0.0
H266 H 0.22433 0.95582 0.71652 0.0
H267 H 0.25467 0.96441 0.66491 0.0
H268 H 0.20932 0.96414 0.65025 0.0
H269 H 0.26815 0.0613 0.82743 0.0
H270 H 0.26714 0.1026 0.79528 0.0
H271 H 0.29946 0.07228 0.77832 0.0
C272 C 0.98128 0.44337 0.95075 0.0
C273 C 0.94574 0.4468 0.94661 0.0
C274 C 1.00265 0.47102 0.9675 0.0
C275 C 0.98789 0.50251 0.98191 0.0
C276 C 0.9519 0.50618 0.97716 0.0
C277 C 0.93119 0.47824 0.95896 0.0
C278 C 0.04097 0.46627 0.97075 0.0
C279 C 0.93523 0.53915 0.99289 0.0
C280 C 0.04505 0.55657 0.07422 0.0
C281 C 0.06261 0.57786 0.03805 0.0
C282 C 0.01922 0.53299 0.05688 0.0
C283 C 0.01049 0.53121 0.00234 0.0
C284 C 0.02643 0.55447 0.96644 0.0
C285 C 0.05251 0.5773 0.98466 0.0
C286 C 1.00288 0.50849 0.09635 0.0
C287 C 0.0175 0.55382 0.90819 0.0
H288 H 0.99229 0.41884 0.94138 0.0
H289 H 0.90353 0.48048 0.95646 0.0
H290 H 0.05473 0.48625 0.94697 0.0
H291 H 0.04983 0.46937 0.01236 0.0
H292 H 0.04838 0.44057 0.95625 0.0
H293 H 0.90719 0.53843 0.98436 0.0
H294 H 0.93915 0.54384 0.03589 0.0
H295 H 0.94743 0.56126 0.97171 0.0
H296 H 0.05287 0.55687 0.11547 0.0
H297 H 0.06577 0.59407 0.95669 0.0
H298 H 0.01163 0.48209 0.0886 0.0
H299 H 0.9745 0.50787 0.09198 0.0
H300 H 0.00966 0.51558 0.13784 0.0
H301 H 0.02711 0.53002 0.88994 0.0
H302 H 0.02898 0.5763 0.88687 0.0
H303 H 0.98922 0.55348 0.90241 0.0
C304 C 0.43177 0.28085 0.28573 0.0
C305 C 0.44527 0.30513 0.32189 0.0
C306 C 0.45355 0.259 0.25776 0.0
C307 C 0.48965 0.26195 0.26568 0.0
C308 C 0.50331 0.28745 0.30083 0.0
C309 C 0.48092 0.30835 0.32904 0.0
C310 C 0.43787 0.23187 0.22136 0.0
C311 C 0.54157 0.29208 0.30972 0.0
C312 C 0.5476 0.1864 0.23947 0.0
C313 C 0.56164 0.19494 0.19 0.0
C314 C 0.52337 0.20741 0.26379 0.0
C315 C 0.51324 0.23797 0.23842 0.0
C316 C 0.52697 0.24641 0.18813 0.0
C317 C 0.55077 0.22473 0.16445 0.0
C318 C 0.50905 0.1972 0.31712 0.0
C319 C 0.51732 0.2789 0.15996 0.0
H320 H 0.40411 0.27793 0.28111 0.0
H321 H 0.49126 0.32691 0.35756 0.0
H322 H 0.44929 0.2341 0.18131 0.0
H323 H 0.44367 0.20596 0.23655 0.0
H324 H 0.40954 0.23379 0.21783 0.0
H325 H 0.54815 0.31451 0.33562 0.0
H326 H 0.55168 0.26866 0.32832 0.0
H327 H 0.55492 0.29564 0.2713 0.0
H328 H 0.55574 0.16341 0.25944 0.0
H329 H 0.56151 0.23166 0.12628 0.0
H330 H 0.48054 0.19649 0.31577 0.0
H331 H 0.51717 0.21664 0.34731 0.0
H332 H 0.51781 0.17166 0.33008 0.0
H333 H 0.48901 0.27966 0.15527 0.0
H334 H 0.5293 0.28119 0.12023 0.0
H335 H 0.52557 0.30164 0.18405 0.0
C336 C 0.78163 0.79756 0.40648 0.0
C337 C 0.81416 0.80654 0.42706 0.0
C338 C 0.75968 0.77419 0.43322 0.0
C339 C 0.77101 0.75891 0.48079 0.0
C340 C 0.8047 0.76629 0.49978 0.0
C341 C 0.82573 0.79041 0.47304 0.0
C342 C 0.72371 0.76737 0.41217 0.0
C343 C 0.8181 0.74972 0.54942 0.0
C344 C 0.70358 0.73161 0.58172 0.0
C345 C 0.69845 0.69672 0.56952 0.0
C346 C 0.72714 0.75217 0.55301 0.0
C347 C 0.74683 0.73708 0.51253 0.0
C348 C 0.7428 0.70145 0.50178 0.0
C349 C 0.71811 0.6818 0.52976 0.0
C350 C 0.73011 0.79025 0.56477 0.0
C351 C 0.76422 0.6842 0.46034 0.0
H352 H 0.77261 0.81022 0.37111 0.0
H353 H 0.85103 0.79716 0.48875 0.0
H354 H 0.71845 0.73934 0.40754 0.0
H355 H 0.7048 0.77705 0.44092 0.0
H356 H 0.71946 0.77999 0.3734 0.0
H357 H 0.84605 0.75513 0.55537 0.0
H358 H 0.80423 0.75949 0.58437 0.0
H359 H 0.81337 0.72145 0.54781 0.0
H360 H 0.68805 0.74316 0.61212 0.0
H361 H 0.71421 0.65472 0.52055 0.0
H362 H 0.72386 0.80502 0.52866 0.0
H363 H 0.75689 0.79761 0.57625 0.0
H364 H 0.71267 0.798 0.59709 0.0
H365 H 0.75799 0.69437 0.4206 0.0
H366 H 0.75983 0.65584 0.45977 0.0
H367 H 0.79194 0.69002 0.4677 0.0
C368 C 0.20549 0.53075 0.16265 0.0
C369 C 0.20494 0.56591 0.1746 0.0
C370 C 0.22657 0.50862 0.19109 0.0
C371 C 0.24866 0.5222 0.23131 0.0
C372 C 0.24795 0.55777 0.24385 0.0
C373 C 0.22571 0.57915 0.21578 0.0
C374 C 0.2256 0.47079 0.17739 0.0
C375 C 0.27163 0.57345 0.28547 0.0
C376 C 0.28471 0.45895 0.33059 0.0
C377 C 0.31644 0.45126 0.3079 0.0
C378 C 0.26268 0.48233 0.30663 0.0
C379 C 0.27284 0.49911 0.25927 0.0
C380 C 0.30536 0.49228 0.23708 0.0
C381 C 0.32658 0.46817 0.2613 0.0
C382 C 0.228 0.48815 0.33104 0.0
C383 C 0.31751 0.51007 0.18722 0.0
H384 H 0.18951 0.52058 0.13058 0.0
H385 H 0.22571 0.60648 0.22434 0.0
H386 H 0.25078 0.46352 0.16111 0.0
H387 H 0.22098 0.45522 0.21355 0.0
H388 H 0.20527 0.46395 0.14781 0.0
H389 H 0.26737 0.60128 0.29154 0.0
H390 H 0.26794 0.55999 0.32376 0.0
H391 H 0.29876 0.57023 0.27358 0.0
H392 H 0.27653 0.44587 0.36643 0.0
H393 H 0.3511 0.46251 0.24365 0.0
H394 H 0.20737 0.47962 0.30301 0.0
H395 H 0.22478 0.51595 0.33867 0.0
H396 H 0.22437 0.474 0.36884 0.0
H397 H 0.30072 0.50203 0.15349 0.0
H398 H 0.34445 0.50406 0.17732 0.0
H399 H 0.3157 0.53834 0.19164 0.0
C400 C 0.78418 0.3022 0.9145 0.0
C401 C 0.81801 0.31021 0.93036 0.0
C402 C 0.76353 0.2788 0.94335 0.0
C403 C 0.77748 0.26223 0.98807 0.0
C404 C 0.81221 0.26901 0.00264 0.0
C405 C 0.83192 0.29342 0.97411 0.0
C406 C 0.72638 0.27286 0.92722 0.0
C407 C 0.82835 0.25095 0.04887 0.0
C408 C 0.71349 0.23076 0.09159 0.0
C409 C 0.70684 0.19684 0.07495 0.0
C410 C 0.73707 0.25219 0.06433 0.0
C411 C 0.75516 0.23891 0.0206 0.0
C412 C 0.75005 0.20397 0.00587 0.0
C413 C 0.72545 0.1835 0.03266 0.0
C414 C 0.74118 0.28952 0.08049 0.0
C415 C 0.7697 0.18852 0.96071 0.0
H416 H 0.77334 0.31542 0.88092 0.0
H417 H 0.8582 0.29947 0.98614 0.0
H418 H 0.72104 0.24517 0.91905 0.0
H419 H 0.70936 0.28036 0.96016 0.0
H420 H 0.71954 0.28775 0.89145 0.0
H421 H 0.85643 0.2567 0.05192 0.0
H422 H 0.8161 0.25901 0.08628 0.0
H423 H 0.824 0.22271 0.04507 0.0
H424 H 0.69883 0.24113 0.12401 0.0
H425 H 0.72042 0.15713 0.02006 0.0
H426 H 0.73243 0.30608 0.04771 0.0
H427 H 0.76863 0.2964 0.08811 0.0
H428 H 0.7262 0.29548 0.11653 0.0
H429 H 0.76109 0.19959 0.92268 0.0
H430 H 0.7659 0.16012 0.95859 0.0
H431 H 0.79759 0.19484 0.96493 0.0
C432 C 0.78196 0.95526 0.32821 0.0
C433 C 0.81599 0.95129 0.31171 0.0
C434 C 0.76045 0.97858 0.30302 0.0
C435 C 0.77353 0.9993 0.26125 0.0
C436 C 0.80832 0.99629 0.24574 0.0
C437 C 0.82895 0.97192 0.27055 0.0
C438 C 0.72332 0.98004 0.31976 0.0
C439 C 0.82359 0.01849 0.20236 0.0
C440 C 0.71316 0.03212 0.15521 0.0
C441 C 0.70799 0.06596 0.17187 0.0
C442 C 0.73352 0.00998 0.18477 0.0
C443 C 0.75024 0.02229 0.23138 0.0
C444 C 0.74488 0.05645 0.24869 0.0
C445 C 0.72335 0.07776 0.21911 0.0
C446 C 0.73747 0.97349 0.16567 0.0
C447 C 0.76285 0.07086 0.29737 0.0
H448 H 0.77168 0.93919 0.35975 0.0
H449 H 0.8553 0.96913 0.2579 0.0
H450 H 0.71697 0.00674 0.33053 0.0
H451 H 0.70634 0.97211 0.28616 0.0
H452 H 0.71739 0.96303 0.35399 0.0
H453 H 0.85173 0.01537 0.19838 0.0
H454 H 0.81111 0.0117 0.16399 0.0
H455 H 0.81872 0.04597 0.21034 0.0
H456 H 0.70122 0.02296 0.11869 0.0
H457 H 0.71975 0.10408 0.23161 0.0
H458 H 0.73089 0.95512 0.19787 0.0
H459 H 0.76459 0.96948 0.15462 0.0
H460 H 0.72088 0.96723 0.13081 0.0
H461 H 0.75672 0.05459 0.33225 0.0
H462 H 0.75554 0.09764 0.30616 0.0
H463 H 0.7911 0.07055 0.29168 0.0
C464 C 0.94161 0.97354 0.43731 0.0
C465 C 0.93564 0.94557 0.47135 0.0
C466 C 0.96457 1.00071 0.45163 0.0
C467 C 0.98214 0.99965 0.50083 0.0
C468 C 0.97484 0.97244 0.53641 0.0
C469 C 0.95161 0.94591 0.5214 0.0
C470 C 0.9713 0.02965 0.41303 0.0
C471 C 0.99323 0.97011 0.58905 0.0
C472 C 0.07259 0.03798 0.5096 0.0
C473 C 0.06812 0.06741 0.54069 0.0
C474 C 0.0447 0.01613 0.49579 0.0
C475 C 0.01126 0.02423 0.51253 0.0
C476 C 0.00637 0.0543 0.54304 0.0
C477 C 0.03501 0.07538 0.55741 0.0
C478 C 0.0512 0.98387 0.46435 0.0
C479 C 0.97099 0.06406 0.56065 0.0
H480 H 0.92917 0.97377 0.39883 0.0
H481 H 0.94701 0.92472 0.54845 0.0
H482 H 0.97088 0.05487 0.43363 0.0
H483 H 0.99725 0.02728 0.39565 0.0
H484 H 0.95214 0.02941 0.38027 0.0
H485 H 0.98241 0.94903 0.61412 0.0
H486 H 0.02084 0.96543 0.58223 0.0
H487 H 0.99177 0.99466 0.61122 0.0
H488 H 0.09818 0.03156 0.49691 0.0
H489 H 0.03145 0.09832 0.581 0.0
H490 H 0.03578 0.98354 0.42731 0.0
H491 H 0.04304 0.96089 0.48759 0.0
H492 H 0.07872 0.9816 0.45382 0.0
H493 H 0.95345 0.06507 0.52596 0.0
H494 H 0.97127 0.08936 0.58121 0.0
H495 H 0.96017 0.04424 0.58788 0.0
C496 C 0.98091 0.30512 0.83088 0.0
C497 C 0.9455 0.30486 0.82058 0.0
C498 C 1.00286 0.28417 0.80204 0.0
C499 C 0.98895 0.26146 0.76293 0.0
C500 C 0.95315 0.26145 0.75182 0.0
C501 C 0.93185 0.28351 0.78042 0.0
C502 C 0.04089 0.28583 0.81432 0.0
C503 C 0.93717 0.23718 0.71126 0.0
C504 C 0.05192 0.2253 0.66351 0.0
C505 C 0.06051 0.19411 0.68721 0.0
C506 C 0.02817 0.2471 0.68703 0.0
C507 C 0.01196 0.23724 0.73499 0.0
C508 C 0.01964 0.20519 0.75813 0.0
C509 C 0.04408 0.18421 0.73431 0.0
C510 C 0.02143 0.28131 0.66159 0.0
C511 C 1.00253 0.19337 0.8087 0.0
H512 H 0.99139 0.32158 0.86215 0.0
H513 H 0.90437 0.28291 0.77311 0.0
H514 H 0.04878 0.26097 0.83107 0.0
H515 H 0.05581 0.29022 0.77748 0.0
H516 H 0.04791 0.30661 0.84306 0.0
H517 H 0.90926 0.24122 0.70574 0.0
H518 H 0.95019 0.24047 0.67256 0.0
H519 H 0.94068 0.21023 0.7239 0.0
H520 H 0.0646 0.23326 0.62723 0.0
H521 H 0.05041 0.16008 0.7527 0.0
H522 H 0.03019 0.30247 0.68851 0.0
H523 H 0.99347 0.28406 0.65497 0.0
H524 H 0.03486 0.28452 0.62312 0.0
H525 H 0.01071 0.21062 0.8418 0.0
H526 H 0.00899 0.16662 0.81917 0.0
H527 H 0.97419 0.19478 0.8049 0.0
C528 C 0.52717 0.70021 0.66604 0.0
C529 C 0.55696 0.6921 0.69413 0.0
C530 C 0.50199 0.72067 0.68903 0.0
C531 C 0.50746 0.73459 0.74046 0.0
C532 C 0.53793 0.72695 0.76846 0.0
C533 C 0.56194 0.70524 0.74538 0.0
C534 C 0.46934 0.72699 0.65863 0.0
C535 C 0.54539 0.74204 0.82264 0.0
C536 C 0.4583 0.81255 0.78721 0.0
C537 C 0.43545 0.79747 0.82379 0.0
C538 C 0.48138 0.79236 0.75871 0.0
C539 C 0.48097 0.75618 0.76602 0.0
C540 C 0.4565 0.74076 0.80064 0.0
C541 C 0.43444 0.76158 0.82955 0.0
C542 C 0.50746 0.80995 0.72304 0.0
C543 C 0.45438 0.70229 0.80861 0.0
H544 H 0.5233 0.69001 0.62637 0.0
H545 H 0.58523 0.69942 0.76682 0.0
H546 H 0.44677 0.7178 0.68196 0.0
H547 H 0.46661 0.75496 0.65223 0.0
H548 H 0.4687 0.71379 0.61955 0.0
H549 H 0.57118 0.73537 0.8377 0.0
H550 H 0.54394 0.77046 0.82131 0.0
H551 H 0.52576 0.73252 0.85121 0.0
H552 H 0.45943 0.84028 0.78303 0.0
H553 H 0.41667 0.74976 0.85756 0.0
H554 H 0.50685 0.79794 0.68315 0.0
H555 H 0.53364 0.80676 0.73951 0.0
H556 H 0.503 0.83787 0.71885 0.0
H557 H 0.45318 0.68883 0.76981 0.0
H558 H 0.43159 0.69405 0.83229 0.0
H559 H 0.4778 0.69392 0.82942 0.0
C560 C 0.21008 0.7306 0.09227 0.0
C561 C 0.20354 0.69647 0.07661 0.0
C562 C 0.23336 0.75185 0.06414 0.0
C563 C 0.25129 0.73818 0.02053 0.0
C564 C 0.24614 0.70312 0.00654 0.0
C565 C 0.22181 0.68282 0.03419 0.0
C566 C 0.23753 0.78931 0.07953 0.0
C567 C 0.26568 0.6873 0.96158 0.0
C568 C 0.28192 0.80153 0.9154 0.0
C569 C 0.31555 0.80932 0.93244 0.0
C570 C 0.26084 0.77794 0.94327 0.0
C571 C 0.27416 0.76108 0.98821 0.0
C572 C 0.30876 0.76752 0.00373 0.0
C573 C 0.32888 0.79201 0.97614 0.0
C574 C 0.22386 0.77229 0.9261 0.0
C575 C 0.32424 0.74921 0.05028 0.0
H576 H 0.19563 0.7412 0.12473 0.0
H577 H 0.2168 0.65632 0.0223 0.0
H578 H 0.26492 0.79597 0.08807 0.0
H579 H 0.2295 0.80565 0.04604 0.0
H580 H 0.22205 0.79577 0.11483 0.0
H581 H 0.26135 0.65896 0.95938 0.0
H582 H 0.25752 0.69858 0.92346 0.0
H583 H 0.29364 0.69308 0.96618 0.0
H584 H 0.27153 0.81512 0.88184 0.0
H585 H 0.35501 0.79786 0.98911 0.0
H586 H 0.20655 0.78047 0.95826 0.0
H587 H 0.2182 0.74457 0.91866 0.0
H588 H 0.21771 0.78683 0.88968 0.0
H589 H 0.31196 0.75766 0.08746 0.0
H590 H 0.3524 0.75441 0.05371 0.0
H591 H 0.31935 0.72104 0.04664 0.0
C592 C 0.4498 0.469 0.42911 0.0
C593 C 0.43669 0.44481 0.46544 0.0
C594 C 0.47309 0.49538 0.44549 0.0
C595 C 0.48339 0.49752 0.49934 0.0
C596 C 0.46857 0.47451 0.53661 0.0
C597 C 0.4454 0.44853 0.51925 0.0
C598 C 0.48809 0.51976 0.4047 0.0
C599 C 0.47881 0.47588 0.59439 0.0
C600 C 0.57405 0.5309 0.52855 0.0
C601 C 0.56838 0.56362 0.54935 0.0
C602 C 0.54654 0.50918 0.51246 0.0
C603 C 0.51254 0.52088 0.51581 0.0
C604 C 0.50665 0.55406 0.53652 0.0
C605 C 0.53471 0.57492 0.55385 0.0
C606 C 0.5539 0.47361 0.49211 0.0
C607 C 0.47083 0.56765 0.53957 0.0
H608 H 0.44307 0.46648 0.38755 0.0
H609 H 0.43497 0.43036 0.54788 0.0
H610 H 0.48737 0.5467 0.4191 0.0
H611 H 0.51544 0.51391 0.39793 0.0
H612 H 0.47419 0.51771 0.36625 0.0
H613 H 0.46242 0.45842 0.61907 0.0
H614 H 0.50592 0.46829 0.59865 0.0
H615 H 0.47717 0.50242 0.6101 0.0
H616 H 0.60014 0.52218 0.52527 0.0
H617 H 0.53044 0.60047 0.56928 0.0
H618 H 0.54433 0.47055 0.45087 0.0
H619 H 0.54014 0.45394 0.51653 0.0
H620 H 0.58177 0.46832 0.49281 0.0
H621 H 0.45915 0.56792 0.49941 0.0
H622 H 0.47063 0.59408 0.55634 0.0
H623 H 0.4543 0.55049 0.56435 0.0
loop_
_geom_bond_atom_site_label_1
_geom_bond_atom_site_label_2
_geom_bond_distance
_geom_bond_site_symmetry_2
_ccdc_geom_bond_type
Co0 O1 2.216 . S
Co0 O2 2.091 . S
Co0 O4 2.004 . S
Co0 O10 2.021 . S
Co0 O12 2.137 . S
Co0 O13 2.244 . S
O1 Co0 2.216 . S
O1 C8 1.247 . S
O2 Co0 2.091 . S
O2 C8 1.261 . S
C3 O12 1.247 . S
C3 O13 1.272 . S
O4 Co0 2.004 . S
O4 C9 1.259 . S
Co5 O6 2.061 . S
Co5 O11 2.052 . S
Co5 O13 2.135 . S
O6 Co5 2.061 . S
O6 C9 1.235 . S
C7 O10 1.238 . S
C7 O11 1.241 . S
C8 O1 1.247 . S
C8 O2 1.261 . S
C9 O4 1.259 . S
C9 O6 1.235 . S
O10 Co0 2.021 . S
O10 C7 1.238 . S
O11 Co5 2.052 . S
O11 C7 1.241 . S
O12 Co0 2.137 . S
O12 C3 1.247 . S
O13 Co0 2.244 . S
O13 C3 1.272 . S
O13 Co5 2.135 . S
Co14 O15 2.216 . S
Co14 O16 2.091 . S
Co14 O18 2.004 . S
Co14 O24 2.021 . S
Co14 O26 2.137 . S
Co14 O27 2.244 . S
O15 Co14 2.216 . S
O15 C22 1.247 . S
O16 Co14 2.091 . S
O16 C22 1.261 . S
C17 O26 1.247 . S
C17 O27 1.272 . S
O18 Co14 2.004 . S
O18 C23 1.259 . S
Co19 O20 2.061 . S
Co19 O25 2.052 . S
Co19 O27 2.135 . S
O20 Co19 2.061 . S
O20 C23 1.235 . S
C21 O24 1.238 . S
C21 O25 1.241 . S
C22 O15 1.247 . S
C22 O16 1.261 . S
C23 O18 1.259 . S
C23 O20 1.235 . S
O24 Co14 2.021 . S
O24 C21 1.238 . S
O25 Co19 2.052 . S
O25 C21 1.241 . S
O26 Co14 2.137 . S
O26 C17 1.247 . S
O27 Co14 2.244 . S
O27 C17 1.272 . S
O27 Co19 2.135 . S
Co28 O29 2.216 . S
Co28 O30 2.091 . S
Co28 O32 2.004 . S
Co28 O38 2.021 . S
Co28 O40 2.137 . S
Co28 O41 2.244 . S
O29 Co28 2.216 . S
O29 C36 1.247 . S
O30 Co28 2.091 . S
O30 C36 1.261 . S
C31 O40 1.247 . S
C31 O41 1.272 . S
O32 Co28 2.004 . S
O32 C37 1.259 . S
Co33 O34 2.061 . S
Co33 O39 2.052 . S
Co33 O41 2.135 . S
O34 Co33 2.061 . S
O34 C37 1.235 . S
C35 O38 1.238 . S
C35 O39 1.241 . S
C36 O29 1.247 . S
C36 O30 1.261 . S
C37 O32 1.259 . S
C37 O34 1.235 . S
O38 Co28 2.021 . S
O38 C35 1.238 . S
O39 Co33 2.052 . S
O39 C35 1.241 . S
O40 Co28 2.137 . S
O40 C31 1.247 . S
O41 Co28 2.244 . S
O41 C31 1.272 . S
O41 Co33 2.135 . S
Co42 O43 2.216 . S
Co42 O44 2.091 . S
Co42 O46 2.004 . S
Co42 O52 2.021 . S
Co42 O54 2.137 . S
Co42 O55 2.244 . S
O43 Co42 2.216 . S
O43 C50 1.247 . S
O44 Co42 2.091 . S
O44 C50 1.261 . S
C45 O54 1.247 . S
C45 O55 1.272 . S
O46 Co42 2.004 . S
O46 C51 1.259 . S
Co47 O48 2.061 . S
Co47 O53 2.052 . S
Co47 O55 2.135 . S
O48 Co47 2.061 . S
O48 C51 1.235 . S
C49 O52 1.238 . S
C49 O53 1.241 . S
C50 O43 1.247 . S
C50 O44 1.261 . S
C51 O46 1.259 . S
C51 O48 1.235 . S
O52 Co42 2.021 . S
O52 C49 1.238 . S
O53 Co47 2.052 . S
O53 C49 1.241 . S
O54 Co42 2.137 . S
O54 C45 1.247 . S
O55 Co42 2.244 . S
O55 C45 1.272 . S
O55 Co47 2.135 . S
Co56 O57 2.216 . S
Co56 O58 2.091 . S
Co56 O60 2.004 . S
Co56 O66 2.021 . S
Co56 O68 2.137 . S
Co56 O69 2.244 . S
O57 Co56 2.216 . S
O57 C64 1.247 . S
O58 Co56 2.091 . S
O58 C64 1.261 . S
C59 O68 1.247 . S
C59 O69 1.272 . S
O60 Co56 2.004 . S
O60 C65 1.259 . S
Co61 O62 2.061 . S
Co61 O67 2.052 . S
Co61 O69 2.135 . S
O62 Co61 2.061 . S
O62 C65 1.235 . S
C63 O66 1.238 . S
C63 O67 1.241 . S
C64 O57 1.247 . S
C64 O58 1.261 . S
C65 O60 1.259 . S
C65 O62 1.235 . S
O66 Co56 2.021 . S
O66 C63 1.238 . S
O67 Co61 2.052 . S
O67 C63 1.241 . S
O68 Co56 2.137 . S
O68 C59 1.247 . S
O69 Co56 2.244 . S
O69 C59 1.272 . S
O69 Co61 2.135 . S
Co70 O71 2.216 . S
Co70 O72 2.091 . S
Co70 O74 2.004 . S
Co70 O80 2.021 . S
Co70 O82 2.137 . S
Co70 O83 2.244 . S
O71 Co70 2.216 . S
O71 C78 1.247 . S
O72 Co70 2.091 . S
O72 C78 1.261 . S
C73 O82 1.247 . S
C73 O83 1.272 . S
O74 Co70 2.004 . S
O74 C79 1.259 . S
Co75 O76 2.061 . S
Co75 O81 2.052 . S
Co75 O83 2.135 . S
O76 Co75 2.061 . S
O76 C79 1.235 . S
C77 O80 1.238 . S
C77 O81 1.241 . S
C78 O71 1.247 . S
C78 O72 1.261 . S
C79 O74 1.259 . S
C79 O76 1.235 . S
O80 Co70 2.021 . S
O80 C77 1.238 . S
O81 Co75 2.052 . S
O81 C77 1.241 . S
O82 Co70 2.137 . S
O82 C73 1.247 . S
O83 Co70 2.244 . S
O83 C73 1.272 . S
O83 Co75 2.135 . S
Co84 O85 2.216 . S
Co84 O86 2.091 . S
Co84 O88 2.004 . S
Co84 O94 2.021 . S
Co84 O96 2.137 . S
Co84 O97 2.244 . S
O85 Co84 2.216 . S
O85 C92 1.247 . S
O86 Co84 2.091 . S
O86 C92 1.261 . S
C87 O96 1.247 . S
C87 O97 1.272 . S
O88 Co84 2.004 . S
O88 C93 1.259 . S
Co89 O90 2.061 . S
Co89 O95 2.052 . S
Co89 O97 2.135 . S
O90 Co89 2.061 . S
O90 C93 1.235 . S
C91 O94 1.238 . S
C91 O95 1.241 . S
C92 O85 1.247 . S
C92 O86 1.261 . S
C93 O88 1.259 . S
C93 O90 1.235 . S
O94 Co84 2.021 . S
O94 C91 1.238 . S
O95 Co89 2.052 . S
O95 C91 1.241 . S
O96 Co84 2.137 . S
O96 C87 1.247 . S
O97 Co84 2.244 . S
O97 C87 1.272 . S
O97 Co89 2.135 . S
Co98 O99 2.216 . S
Co98 O100 2.091 . S
Co98 O102 2.004 . S
Co98 O108 2.021 . S
Co98 O110 2.137 . S
Co98 O111 2.244 . S
O99 Co98 2.216 . S
O99 C106 1.247 . S
O100 Co98 2.091 . S
O100 C106 1.261 . S
C101 O110 1.247 . S
C101 O111 1.272 . S
O102 Co98 2.004 . S
O102 C107 1.259 . S
Co103 O104 2.061 . S
Co103 O109 2.052 . S
Co103 O111 2.135 . S
O104 Co103 2.061 . S
O104 C107 1.235 . S
C105 O108 1.238 . S
C105 O109 1.241 . S
C106 O99 1.247 . S
C106 O100 1.261 . S
C107 O102 1.259 . S
C107 O104 1.235 . S
O108 Co98 2.021 . S
O108 C105 1.238 . S
O109 Co103 2.052 . S
O109 C105 1.241 . S
O110 Co98 2.137 . S
O110 C101 1.247 . S
O111 Co98 2.244 . S
O111 C101 1.272 . S
O111 Co103 2.135 . S
C112 C113 1.391 . S
C112 C114 1.394 . S
C112 H128 0.931 . S
C113 C112 1.391 . S
C113 C117 1.376 . S
C114 C112 1.394 . S
C114 C115 1.369 . S
C114 C118 1.531 . S
C115 C114 1.369 . S
C115 C116 1.410 . S
C115 C123 1.503 . S
C116 C115 1.410 . S
C116 C117 1.392 . S
C116 C119 1.511 . S
C117 C113 1.376 . S
C117 C116 1.392 . S
C117 H129 0.929 . S
C118 C114 1.531 . S
C118 H130 0.960 . S
C118 H131 0.962 . S
C118 H132 0.960 . S
C119 C116 1.511 . S
C119 H133 0.961 . S
C119 H134 0.961 . S
C119 H135 0.961 . S
C120 C121 1.370 . S
C120 C122 1.363 . S
C120 H136 0.931 . S
C121 C120 1.370 . S
C121 C125 1.408 . S
C122 C120 1.363 . S
C122 C123 1.370 . S
C122 C126 1.524 . S
C123 C115 1.503 . S
C123 C122 1.370 . S
C123 C124 1.403 . S
C124 C123 1.403 . S
C124 C125 1.404 . S
C124 C127 1.539 . S
C125 C121 1.408 . S
C125 C124 1.404 . S
C125 H137 0.930 . S
C126 C122 1.524 . S
C126 H138 0.956 . S
C126 H139 0.961 . S
C126 H140 0.961 . S
C127 C124 1.539 . S
C127 H141 0.958 . S
C127 H142 0.961 . S
C127 H143 0.960 . S
H128 C112 0.931 . S
H129 C117 0.929 . S
H130 C118 0.960 . S
H131 C118 0.962 . S
H132 C118 0.960 . S
H133 C119 0.961 . S
H134 C119 0.961 . S
H135 C119 0.961 . S
H136 C120 0.931 . S
H137 C125 0.930 . S
H138 C126 0.956 . S
H139 C126 0.961 . S
H140 C126 0.961 . S
H141 C127 0.958 . S
H142 C127 0.961 . S
H143 C127 0.960 . S
C144 C145 1.391 . S
C144 C146 1.394 . S
C144 H160 0.931 . S
C145 C144 1.391 . S
C145 C149 1.376 . S
C146 C144 1.394 . S
C146 C147 1.369 . S
C146 C150 1.531 . S
C147 C146 1.369 . S
C147 C148 1.410 . S
C147 C155 1.503 . S
C148 C147 1.410 . S
C148 C149 1.392 . S
C148 C151 1.511 . S
C149 C145 1.376 . S
C149 C148 1.392 . S
C149 H161 0.929 . S
C150 C146 1.531 . S
C150 H162 0.960 . S
C150 H163 0.962 . S
C150 H164 0.960 . S
C151 C148 1.511 . S
C151 H165 0.961 . S
C151 H166 0.961 . S
C151 H167 0.961 . S
C152 C153 1.370 . S
C152 C154 1.363 . S
C152 H168 0.931 . S
C153 C152 1.370 . S
C153 C157 1.408 . S
C154 C152 1.363 . S
C154 C155 1.370 . S
C154 C158 1.524 . S
C155 C147 1.503 . S
C155 C154 1.370 . S
C155 C156 1.403 . S
C156 C155 1.403 . S
C156 C157 1.404 . S
C156 C159 1.539 . S
C157 C153 1.408 . S
C157 C156 1.404 . S
C157 H169 0.930 . S
C158 C154 1.524 . S
C158 H170 0.956 . S
C158 H171 0.961 . S
C158 H172 0.961 . S
C159 C156 1.539 . S
C159 H173 0.958 . S
C159 H174 0.961 . S
C159 H175 0.960 . S
H160 C144 0.931 . S
H161 C149 0.929 . S
H162 C150 0.960 . S
H163 C150 0.962 . S
H164 C150 0.960 . S
H165 C151 0.961 . S
H166 C151 0.961 . S
H167 C151 0.961 . S
H168 C152 0.931 . S
H169 C157 0.930 . S
H170 C158 0.956 . S
H171 C158 0.961 . S
H172 C158 0.961 . S
H173 C159 0.958 . S
H174 C159 0.961 . S
H175 C159 0.960 . S
C176 C177 1.391 . S
C176 C178 1.394 1_554 S
C176 H192 0.931 1_554 S
C177 C176 1.391 . S
C177 C181 1.376 . S
C178 C176 1.394 1_556 S
C178 C179 1.369 1_556 S
C178 C182 1.531 . S
C179 C178 1.369 1_554 S
C179 C180 1.410 . S
C179 C187 1.503 1_544 S
C180 C179 1.410 . S
C180 C181 1.392 . S
C180 C183 1.511 1_545 S
C181 C177 1.376 . S
C181 C180 1.392 . S
C181 H193 0.929 . S
C182 C178 1.531 . S
C182 H194 0.960 . S
C182 H195 0.962 . S
C182 H196 0.960 . S
C183 C180 1.511 1_565 S
C183 H197 0.961 . S
C183 H198 0.961 . S
C183 H199 0.961 . S
C184 C185 1.370 . S
C184 C186 1.363 . S
C184 H200 0.931 . S
C185 C184 1.370 . S
C185 C189 1.408 . S
C186 C184 1.363 . S
C186 C187 1.370 . S
C186 C190 1.524 1_566 S
C187 C179 1.503 1_566 S
C187 C186 1.370 . S
C187 C188 1.403 . S
C188 C187 1.403 . S
C188 C189 1.404 . S
C188 C191 1.539 . S
C189 C185 1.408 . S
C189 C188 1.404 . S
C189 H201 0.930 . S
C190 C186 1.524 1_544 S
C190 H202 0.956 . S
C190 H203 0.961 . S
C190 H204 0.961 . S
C191 C188 1.539 . S
C191 H205 0.958 . S
C191 H206 0.961 . S
C191 H207 0.960 . S
H192 C176 0.931 1_556 S
H193 C181 0.929 . S
H194 C182 0.960 . S
H195 C182 0.962 . S
H196 C182 0.960 . S
H197 C183 0.961 . S
H198 C183 0.961 . S
H199 C183 0.961 . S
H200 C184 0.931 . S
H201 C189 0.930 . S
H202 C190 0.956 . S
H203 C190 0.961 . S
H204 C190 0.961 . S
H205 C191 0.958 . S
H206 C191 0.961 . S
H207 C191 0.960 . S
C208 C209 1.391 . S
C208 C210 1.394 . S
C208 H224 0.931 . S
C209 C208 1.391 . S
C209 C213 1.376 . S
C210 C208 1.394 . S
C210 C211 1.369 . S
C210 C214 1.531 . S
C211 C210 1.369 . S
C211 C212 1.415 . S
C211 C219 1.503 1_655 S
C212 C211 1.415 . S
C212 C213 1.406 . S
C212 C215 1.494 1_655 S
C213 C209 1.376 . S
C213 C212 1.406 . S
C213 H225 0.929 . S
C214 C210 1.531 . S
C214 H226 0.960 . S
C214 H227 0.962 . S
C214 H228 0.960 . S
C215 C212 1.494 1_455 S
C215 H229 0.961 . S
C215 H230 0.961 . S
C215 H231 0.961 . S
C216 C217 1.370 . S
C216 C218 1.363 . S
C216 H232 0.931 . S
C217 C216 1.370 . S
C217 C221 1.408 . S
C218 C216 1.363 . S
C218 C219 1.370 . S
C218 C222 1.524 1_455 S
C219 C211 1.503 1_455 S
C219 C218 1.370 . S
C219 C220 1.403 . S
C220 C219 1.403 . S
C220 C221 1.404 . S
C220 C223 1.539 . S
C221 C217 1.408 . S
C221 C220 1.404 . S
C221 H233 0.930 . S
C222 C218 1.524 1_655 S
C222 H234 0.956 . S
C222 H235 0.961 . S
C222 H236 0.961 . S
C223 C220 1.539 . S
C223 H237 0.958 . S
C223 H238 0.961 . S
C223 H239 0.960 . S
H224 C208 0.931 . S
H225 C213 0.929 . S
H226 C214 0.960 . S
H227 C214 0.962 . S
H228 C214 0.960 . S
H229 C215 0.961 . S
H230 C215 0.961 . S
H231 C215 0.961 . S
H232 C216 0.931 . S
H233 C221 0.930 . S
H234 C222 0.956 . S
H235 C222 0.961 . S
H236 C222 0.961 . S
H237 C223 0.958 . S
H238 C223 0.961 . S
H239 C223 0.960 . S
C240 C241 1.391 . S
C240 C242 1.394 . S
C240 H256 0.931 . S
C241 C240 1.391 . S
C241 C245 1.376 . S
C242 C240 1.394 . S
C242 C243 1.369 . S
C242 C246 1.531 . S
C243 C242 1.369 . S
C243 C244 1.410 . S
C243 C251 1.503 1_565 S
C244 C243 1.410 . S
C244 C245 1.392 . S
C244 C247 1.511 1_565 S
C245 C241 1.376 . S
C245 C244 1.392 . S
C245 H257 0.929 . S
C246 C242 1.531 . S
C246 H258 0.960 . S
C246 H259 0.962 . S
C246 H260 0.960 . S
C247 C244 1.511 1_545 S
C247 H261 0.961 . S
C247 H262 0.961 . S
C247 H263 0.961 . S
C248 C249 1.370 . S
C248 C250 1.363 . S
C248 H264 0.931 . S
C249 C248 1.370 . S
C249 C253 1.408 . S
C250 C248 1.363 . S
C250 C251 1.370 . S
C250 C254 1.524 1_545 S
C251 C243 1.503 1_545 S
C251 C250 1.370 . S
C251 C252 1.403 . S
C252 C251 1.403 . S
C252 C253 1.404 . S
C252 C255 1.539 . S
C253 C249 1.408 . S
C253 C252 1.404 . S
C253 H265 0.930 . S
C254 C250 1.524 1_565 S
C254 H266 0.956 . S
C254 H267 0.961 . S
C254 H268 0.961 . S
C255 C252 1.539 . S
C255 H269 0.958 . S
C255 H270 0.961 . S
C255 H271 0.960 . S
H256 C240 0.931 . S
H257 C245 0.929 . S
H258 C246 0.960 . S
H259 C246 0.962 . S
H260 C246 0.960 . S
H261 C247 0.961 . S
H262 C247 0.961 . S
H263 C247 0.961 . S
H264 C248 0.931 . S
H265 C253 0.930 . S
H266 C254 0.956 . S
H267 C254 0.961 . S
H268 C254 0.961 . S
H269 C255 0.958 . S
H270 C255 0.961 . S
H271 C255 0.960 . S
C272 C273 1.391 . S
C272 C274 1.394 . S
C272 H288 0.931 . S
C273 C272 1.391 . S
C273 C277 1.376 . S
C274 C272 1.394 . S
C274 C275 1.369 . S
C274 C278 1.531 1_655 S
C275 C274 1.369 . S
C275 C276 1.410 . S
C275 C283 1.503 1_656 S
C276 C275 1.410 . S
C276 C277 1.392 . S
C276 C279 1.511 1_556 S
C277 C273 1.376 . S
C277 C276 1.392 . S
C277 H289 0.929 . S
C278 C274 1.531 1_455 S
C278 H290 0.960 . S
C278 H291 0.962 . S
C278 H292 0.960 . S
C279 C276 1.511 1_554 S
C279 H293 0.961 . S
C279 H294 0.961 . S
C279 H295 0.961 . S
C280 C281 1.370 . S
C280 C282 1.363 . S
C280 H296 0.931 . S
C281 C280 1.370 . S
C281 C285 1.408 . S
C282 C280 1.363 . S
C282 C283 1.370 . S
C282 C286 1.524 . S
C283 C275 1.503 1_454 S
C283 C282 1.370 . S
C283 C284 1.403 1_554 S
C284 C283 1.403 1_556 S
C284 C285 1.404 1_556 S
C284 C287 1.539 1_455 S
C285 C281 1.408 . S
C285 C284 1.404 1_554 S
C285 H297 0.930 . S
C286 C282 1.524 . S
C286 H298 0.956 . S
C286 H299 0.961 1_455 S
C286 H300 0.961 . S
C287 C284 1.539 1_655 S
C287 H301 0.958 1_655 S
C287 H302 0.961 . S
C287 H303 0.960 . S
H288 C272 0.931 . S
H289 C277 0.929 . S
H290 C278 0.960 . S
H291 C278 0.962 . S
H292 C278 0.960 . S
H293 C279 0.961 . S
H294 C279 0.961 . S
H295 C279 0.961 . S
H296 C280 0.931 . S
H297 C285 0.930 . S
H298 C286 0.956 . S
H299 C286 0.961 1_655 S
H300 C286 0.961 . S
H301 C287 0.958 1_455 S
H302 C287 0.961 . S
H303 C287 0.960 . S
C304 C305 1.391 . S
C304 C306 1.394 . S
C304 H320 0.931 . S
C305 C304 1.391 . S
C305 C309 1.376 . S
C306 C304 1.394 . S
C306 C307 1.369 . S
C306 C310 1.531 . S
C307 C306 1.369 . S
C307 C308 1.410 . S
C307 C315 1.503 . S
C308 C307 1.410 . S
C308 C309 1.392 . S
C308 C311 1.511 . S
C309 C305 1.376 . S
C309 C308 1.392 . S
C309 H321 0.929 . S
C310 C306 1.531 . S
C310 H322 0.960 . S
C310 H323 0.962 . S
C310 H324 0.960 . S
C311 C308 1.511 . S
C311 H325 0.961 . S
C311 H326 0.961 . S
C311 H327 0.961 . S
C312 C313 1.370 . S
C312 C314 1.363 . S
C312 H328 0.931 . S
C313 C312 1.370 . S
C313 C317 1.408 . S
C314 C312 1.363 . S
C314 C315 1.370 . S
C314 C318 1.524 . S
C315 C307 1.503 . S
C315 C314 1.370 . S
C315 C316 1.403 . S
C316 C315 1.403 . S
C316 C317 1.404 . S
C316 C319 1.539 . S
C317 C313 1.408 . S
C317 C316 1.404 . S
C317 H329 0.930 . S
C318 C314 1.524 . S
C318 H330 0.956 . S
C318 H331 0.961 . S
C318 H332 0.961 . S
C319 C316 1.539 . S
C319 H333 0.958 . S
C319 H334 0.961 . S
C319 H335 0.960 . S
H320 C304 0.931 . S
H321 C309 0.929 . S
H322 C310 0.960 . S
H323 C310 0.962 . S
H324 C310 0.960 . S
H325 C311 0.961 . S
H326 C311 0.961 . S
H327 C311 0.961 . S
H328 C312 0.931 . S
H329 C317 0.930 . S
H330 C318 0.956 . S
H331 C318 0.961 . S
H332 C318 0.961 . S
H333 C319 0.958 . S
H334 C319 0.961 . S
H335 C319 0.960 . S
C336 C337 1.391 . S
C336 C338 1.394 . S
C336 H352 0.931 . S
C337 C336 1.391 . S
C337 C341 1.376 . S
C338 C336 1.394 . S
C338 C339 1.369 . S
C338 C342 1.531 . S
C339 C338 1.369 . S
C339 C340 1.410 . S
C339 C347 1.503 . S
C340 C339 1.410 . S
C340 C341 1.392 . S
C340 C343 1.511 . S
C341 C337 1.376 . S
C341 C340 1.392 . S
C341 H353 0.929 . S
C342 C338 1.531 . S
C342 H354 0.960 . S
C342 H355 0.962 . S
C342 H356 0.960 . S
C343 C340 1.511 . S
C343 H357 0.961 . S
C343 H358 0.961 . S
C343 H359 0.961 . S
C344 C345 1.370 . S
C344 C346 1.363 . S
C344 H360 0.931 . S
C345 C344 1.370 . S
C345 C349 1.408 . S
C346 C344 1.363 . S
C346 C347 1.370 . S
C346 C350 1.524 . S
C347 C339 1.503 . S
C347 C346 1.370 . S
C347 C348 1.403 . S
C348 C347 1.403 . S
C348 C349 1.404 . S
C348 C351 1.539 . S
C349 C345 1.408 . S
C349 C348 1.404 . S
C349 H361 0.930 . S
C350 C346 1.524 . S
C350 H362 0.956 . S
C350 H363 0.961 . S
C350 H364 0.961 . S
C351 C348 1.539 . S
C351 H365 0.958 . S
C351 H366 0.961 . S
C351 H367 0.960 . S
H352 C336 0.931 . S
H353 C341 0.929 . S
H354 C342 0.960 . S
H355 C342 0.962 . S
H356 C342 0.960 . S
H357 C343 0.961 . S
H358 C343 0.961 . S
H359 C343 0.961 . S
H360 C344 0.931 . S
H361 C349 0.930 . S
H362 C350 0.956 . S
H363 C350 0.961 . S
H364 C350 0.961 . S
H365 C351 0.958 . S
H366 C351 0.961 . S
H367 C351 0.960 . S
C368 C369 1.391 . S
C368 C370 1.394 . S
C368 H384 0.931 . S
C369 C368 1.391 . S
C369 C373 1.376 . S
C370 C368 1.394 . S
C370 C371 1.369 . S
C370 C374 1.531 . S
C371 C370 1.369 . S
C371 C372 1.410 . S
C371 C379 1.503 . S
C372 C371 1.410 . S
C372 C373 1.392 . S
C372 C375 1.511 . S
C373 C369 1.376 . S
C373 C372 1.392 . S
C373 H385 0.929 . S
C374 C370 1.531 . S
C374 H386 0.960 . S
C374 H387 0.962 . S
C374 H388 0.960 . S
C375 C372 1.511 . S
C375 H389 0.961 . S
C375 H390 0.961 . S
C375 H391 0.961 . S
C376 C377 1.370 . S
C376 C378 1.363 . S
C376 H392 0.931 . S
C377 C376 1.370 . S
C377 C381 1.408 . S
C378 C376 1.363 . S
C378 C379 1.370 . S
C378 C382 1.524 . S
C379 C371 1.503 . S
C379 C378 1.370 . S
C379 C380 1.403 . S
C380 C379 1.403 . S
C380 C381 1.404 . S
C380 C383 1.539 . S
C381 C377 1.408 . S
C381 C380 1.404 . S
C381 H393 0.930 . S
C382 C378 1.524 . S
C382 H394 0.956 . S
C382 H395 0.961 . S
C382 H396 0.961 . S
C383 C380 1.539 . S
C383 H397 0.958 . S
C383 H398 0.961 . S
C383 H399 0.960 . S
H384 C368 0.931 . S
H385 C373 0.929 . S
H386 C374 0.960 . S
H387 C374 0.962 . S
H388 C374 0.960 . S
H389 C375 0.961 . S
H390 C375 0.961 . S
H391 C375 0.961 . S
H392 C376 0.931 . S
H393 C381 0.930 . S
H394 C382 0.956 . S
H395 C382 0.961 . S
H396 C382 0.961 . S
H397 C383 0.958 . S
H398 C383 0.961 . S
H399 C383 0.960 . S
C400 C401 1.391 . S
C400 C402 1.394 . S
C400 H416 0.931 . S
C401 C400 1.391 . S
C401 C405 1.376 . S
C402 C400 1.394 . S
C402 C403 1.369 . S
C402 C406 1.531 . S
C403 C402 1.369 . S
C403 C404 1.410 1_556 S
C403 C411 1.503 1_556 S
C404 C403 1.410 1_554 S
C404 C405 1.392 1_554 S
C404 C407 1.511 . S
C405 C401 1.376 . S
C405 C404 1.392 1_556 S
C405 H417 0.929 . S
C406 C402 1.531 . S
C406 H418 0.960 . S
C406 H419 0.962 . S
C406 H420 0.960 . S
C407 C404 1.511 . S
C407 H421 0.961 . S
C407 H422 0.961 . S
C407 H423 0.961 . S
C408 C409 1.370 . S
C408 C410 1.363 . S
C408 H424 0.931 . S
C409 C408 1.370 . S
C409 C413 1.408 . S
C410 C408 1.363 . S
C410 C411 1.370 . S
C410 C414 1.524 . S
C411 C403 1.503 1_554 S
C411 C410 1.370 . S
C411 C412 1.403 1_554 S
C412 C411 1.403 1_556 S
C412 C413 1.404 1_556 S
C412 C415 1.539 . S
C413 C409 1.408 . S
C413 C412 1.404 1_554 S
C413 H425 0.930 . S
C414 C410 1.524 . S
C414 H426 0.956 . S
C414 H427 0.961 . S
C414 H428 0.961 . S
C415 C412 1.539 . S
C415 H429 0.958 . S
C415 H430 0.961 . S
C415 H431 0.960 . S
H416 C400 0.931 . S
H417 C405 0.929 . S
H418 C406 0.960 . S
H419 C406 0.962 . S
H420 C406 0.960 . S
H421 C407 0.961 . S
H422 C407 0.961 . S
H423 C407 0.961 . S
H424 C408 0.931 . S
H425 C413 0.930 . S
H426 C414 0.956 . S
H427 C414 0.961 . S
H428 C414 0.961 . S
H429 C415 0.958 . S
H430 C415 0.961 . S
H431 C415 0.960 . S
C432 C433 1.391 . S
C432 C434 1.394 . S
C432 H448 0.931 . S
C433 C432 1.391 . S
C433 C437 1.376 . S
C434 C432 1.394 . S
C434 C435 1.369 . S
C434 C438 1.531 . S
C435 C434 1.369 . S
C435 C436 1.405 1_565 S
C435 C443 1.503 1_565 S
C436 C435 1.405 1_545 S
C436 C437 1.370 1_545 S
C436 C439 1.539 . S
C437 C433 1.376 . S
C437 C436 1.370 1_565 S
C437 H449 0.929 . S
C438 C434 1.531 . S
C438 H450 0.960 . S
C438 H451 0.962 . S
C438 H452 0.960 . S
C439 C436 1.539 . S
C439 H453 0.961 . S
C439 H454 0.961 . S
C439 H455 0.961 . S
C440 C441 1.370 . S
C440 C442 1.363 . S
C440 H456 0.931 . S
C441 C440 1.370 . S
C441 C445 1.408 . S
C442 C440 1.363 . S
C442 C443 1.370 . S
C442 C446 1.524 1_545 S
C443 C435 1.503 1_545 S
C443 C442 1.370 . S
C443 C444 1.403 . S
C444 C443 1.403 . S
C444 C445 1.404 . S
C444 C447 1.539 . S
C445 C441 1.408 . S
C445 C444 1.404 . S
C445 H457 0.930 . S
C446 C442 1.524 1_565 S
C446 H458 0.956 . S
C446 H459 0.961 . S
C446 H460 0.961 . S
C447 C444 1.539 . S
C447 H461 0.958 . S
C447 H462 0.961 . S
C447 H463 0.960 . S
H448 C432 0.931 . S
H449 C437 0.929 . S
H450 C438 0.960 . S
H451 C438 0.962 . S
H452 C438 0.960 . S
H453 C439 0.961 . S
H454 C439 0.961 . S
H455 C439 0.961 . S
H456 C440 0.931 . S
H457 C445 0.930 . S
H458 C446 0.956 . S
H459 C446 0.961 . S
H460 C446 0.961 . S
H461 C447 0.958 . S
H462 C447 0.961 . S
H463 C447 0.960 . S
C464 C465 1.391 . S
C464 C466 1.394 . S
C464 H480 0.931 . S
C465 C464 1.391 . S
C465 C469 1.376 . S
C466 C464 1.394 . S
C466 C467 1.369 . S
C466 C470 1.541 1_565 S
C467 C466 1.369 . S
C467 C468 1.410 . S
C467 C475 1.503 1_665 S
C468 C467 1.410 . S
C468 C469 1.392 . S
C468 C471 1.511 . S
C469 C465 1.376 . S
C469 C468 1.392 . S
C469 H481 0.929 . S
C470 C466 1.541 1_545 S
C470 H482 0.958 1_655 S
C470 H483 0.943 1_655 S
C470 H484 0.971 . S
C471 C468 1.511 . S
C471 H485 0.961 . S
C471 H486 0.961 . S
C471 H487 0.961 . S
C472 C473 1.370 . S
C472 C474 1.363 . S
C472 H488 0.931 . S
C473 C472 1.370 . S
C473 C477 1.408 . S
C474 C472 1.363 . S
C474 C475 1.370 . S
C474 C478 1.524 1_545 S
C475 C467 1.503 1_445 S
C475 C474 1.370 . S
C475 C476 1.404 . S
C476 C475 1.404 . S
C476 C477 1.408 . S
C476 C479 1.533 1_455 S
C477 C473 1.408 . S
C477 C476 1.408 . S
C477 H489 0.930 . S
C478 C474 1.524 1_565 S
C478 H490 0.956 . S
C478 H491 0.961 . S
C478 H492 0.961 . S
C479 C476 1.533 1_655 S
C479 H493 0.958 . S
C479 H494 0.961 . S
C479 H495 0.960 . S
H480 C464 0.931 . S
H481 C469 0.929 . S
H482 C470 0.958 1_455 S
H483 C470 0.943 1_455 S
H484 C470 0.971 . S
H485 C471 0.961 . S
H486 C471 0.961 . S
H487 C471 0.961 . S
H488 C472 0.931 . S
H489 C477 0.930 . S
H490 C478 0.956 . S
H491 C478 0.961 . S
H492 C478 0.961 . S
H493 C479 0.958 . S
H494 C479 0.961 . S
H495 C479 0.960 . S
C496 C497 1.391 . S
C496 C498 1.394 . S
C496 H512 0.931 . S
C497 C496 1.391 . S
C497 C501 1.376 . S
C498 C496 1.394 . S
C498 C499 1.369 . S
C498 C502 1.531 1_655 S
C499 C498 1.369 . S
C499 C500 1.410 . S
C499 C507 1.503 1_655 S
C500 C499 1.410 . S
C500 C501 1.392 . S
C500 C503 1.511 . S
C501 C497 1.376 . S
C501 C500 1.392 . S
C501 H513 0.929 . S
C502 C498 1.531 1_455 S
C502 H514 0.960 . S
C502 H515 0.962 . S
C502 H516 0.960 . S
C503 C500 1.511 . S
C503 H517 0.961 . S
C503 H518 0.961 . S
C503 H519 0.961 . S
C504 C505 1.370 . S
C504 C506 1.363 . S
C504 H520 0.931 . S
C505 C504 1.370 . S
C505 C509 1.408 . S
C506 C504 1.363 . S
C506 C507 1.370 . S
C506 C510 1.524 . S
C507 C499 1.503 1_455 S
C507 C506 1.370 . S
C507 C508 1.403 . S
C508 C507 1.403 . S
C508 C509 1.404 . S
C508 C511 1.539 . S
C509 C505 1.408 . S
C509 C508 1.404 . S
C509 H521 0.930 . S
C510 C506 1.524 . S
C510 H522 0.956 . S
C510 H523 0.961 1_455 S
C510 H524 0.961 . S
C511 C508 1.539 . S
C511 H525 0.958 . S
C511 H526 0.961 . S
C511 H527 0.960 1_455 S
H512 C496 0.931 . S
H513 C501 0.929 . S
H514 C502 0.960 . S
H515 C502 0.962 . S
H516 C502 0.960 . S
H517 C503 0.961 . S
H518 C503 0.961 . S
H519 C503 0.961 . S
H520 C504 0.931 . S
H521 C509 0.930 . S
H522 C510 0.956 . S
H523 C510 0.961 1_655 S
H524 C510 0.961 . S
H525 C511 0.958 . S
H526 C511 0.961 . S
H527 C511 0.960 1_655 S
C528 C529 1.391 . S
C528 C530 1.394 . S
C528 H544 0.931 . S
C529 C528 1.391 . S
C529 C533 1.376 . S
C530 C528 1.394 . S
C530 C531 1.369 . S
C530 C534 1.531 . S
C531 C530 1.369 . S
C531 C532 1.410 . S
C531 C539 1.503 . S
C532 C531 1.410 . S
C532 C533 1.392 . S
C532 C535 1.511 . S
C533 C529 1.376 . S
C533 C532 1.392 . S
C533 H545 0.929 . S
C534 C530 1.531 . S
C534 H546 0.960 . S
C534 H547 0.962 . S
C534 H548 0.960 . S
C535 C532 1.511 . S
C535 H549 0.961 . S
C535 H550 0.961 . S
C535 H551 0.961 . S
C536 C537 1.370 . S
C536 C538 1.363 . S
C536 H552 0.931 . S
C537 C536 1.370 . S
C537 C541 1.408 . S
C538 C536 1.363 . S
C538 C539 1.370 . S
C538 C542 1.524 . S
C539 C531 1.503 . S
C539 C538 1.370 . S
C539 C540 1.403 . S
C540 C539 1.403 . S
C540 C541 1.404 . S
C540 C543 1.539 . S
C541 C537 1.408 . S
C541 C540 1.404 . S
C541 H553 0.930 . S
C542 C538 1.524 . S
C542 H554 0.956 . S
C542 H555 0.961 . S
C542 H556 0.961 . S
C543 C540 1.539 . S
C543 H557 0.958 . S
C543 H558 0.961 . S
C543 H559 0.960 . S
H544 C528 0.931 . S
H545 C533 0.929 . S
H546 C534 0.960 . S
H547 C534 0.962 . S
H548 C534 0.960 . S
H549 C535 0.961 . S
H550 C535 0.961 . S
H551 C535 0.961 . S
H552 C536 0.931 . S
H553 C541 0.930 . S
H554 C542 0.956 . S
H555 C542 0.961 . S
H556 C542 0.961 . S
H557 C543 0.958 . S
H558 C543 0.961 . S
H559 C543 0.960 . S
C560 C561 1.391 . S
C560 C562 1.394 . S
C560 H576 0.931 . S
C561 C560 1.391 . S
C561 C565 1.376 . S
C562 C560 1.394 . S
C562 C563 1.369 . S
C562 C566 1.531 . S
C563 C562 1.369 . S
C563 C564 1.410 . S
C563 C571 1.503 1_554 S
C564 C563 1.410 . S
C564 C565 1.392 . S
C564 C567 1.511 . S
C565 C561 1.376 . S
C565 C564 1.392 . S
C565 H577 0.929 . S
C566 C562 1.531 . S
C566 H578 0.960 . S
C566 H579 0.962 . S
C566 H580 0.960 . S
C567 C564 1.511 . S
C567 H581 0.961 1_554 S
C567 H582 0.961 1_554 S
C567 H583 0.961 . S
C568 C569 1.370 . S
C568 C570 1.363 . S
C568 H584 0.931 . S
C569 C568 1.370 . S
C569 C573 1.408 . S
C570 C568 1.363 . S
C570 C571 1.370 . S
C570 C574 1.524 . S
C571 C563 1.503 1_556 S
C571 C570 1.370 . S
C571 C572 1.403 1_556 S
C572 C571 1.403 1_554 S
C572 C573 1.404 1_554 S
C572 C575 1.539 . S
C573 C569 1.408 . S
C573 C572 1.404 1_556 S
C573 H585 0.930 1_556 S
C574 C570 1.524 . S
C574 H586 0.956 . S
C574 H587 0.961 . S
C574 H588 0.961 . S
C575 C572 1.539 . S
C575 H589 0.958 . S
C575 H590 0.961 . S
C575 H591 0.960 . S
H576 C560 0.931 . S
H577 C565 0.929 . S
H578 C566 0.960 . S
H579 C566 0.962 . S
H580 C566 0.960 . S
H581 C567 0.961 1_556 S
H582 C567 0.961 1_556 S
H583 C567 0.961 . S
H584 C568 0.931 . S
H585 C573 0.930 1_554 S
H586 C574 0.956 . S
H587 C574 0.961 . S
H588 C574 0.961 . S
H589 C575 0.958 . S
H590 C575 0.961 . S
H591 C575 0.960 . S
C592 C593 1.391 . S
C592 C594 1.394 . S
C592 H608 0.931 . S
C593 C592 1.391 . S
C593 C597 1.376 . S
C594 C592 1.394 . S
C594 C595 1.369 . S
C594 C598 1.531 . S
C595 C594 1.369 . S
C595 C596 1.410 . S
C595 C603 1.503 . S
C596 C595 1.410 . S
C596 C597 1.392 . S
C596 C599 1.511 . S
C597 C593 1.376 . S
C597 C596 1.392 . S
C597 H609 0.929 . S
C598 C594 1.531 . S
C598 H610 0.960 . S
C598 H611 0.962 . S
C598 H612 0.960 . S
C599 C596 1.511 . S
C599 H613 0.961 . S
C599 H614 0.961 . S
C599 H615 0.961 . S
C600 C601 1.370 . S
C600 C602 1.363 . S
C600 H616 0.931 . S
C601 C600 1.370 . S
C601 C605 1.408 . S
C602 C600 1.363 . S
C602 C603 1.370 . S
C602 C606 1.524 . S
C603 C595 1.503 . S
C603 C602 1.370 . S
C603 C604 1.403 . S
C604 C603 1.403 . S
C604 C605 1.404 . S
C604 C607 1.539 . S
C605 C601 1.408 . S
C605 C604 1.404 . S
C605 H617 0.930 . S
C606 C602 1.524 . S
C606 H618 0.956 . S
C606 H619 0.961 . S
C606 H620 0.961 . S
C607 C604 1.539 . S
C607 H621 0.958 . S
C607 H622 0.961 . S
C607 H623 0.960 . S
H608 C592 0.931 . S
H609 C597 0.929 . S
H610 C598 0.960 . S
H611 C598 0.962 . S
H612 C598 0.960 . S
H613 C599 0.961 . S
H614 C599 0.961 . S
H615 C599 0.961 . S
H616 C600 0.931 . S
H617 C605 0.930 . S
H618 C606 0.956 . S
H619 C606 0.961 . S
H620 C606 0.961 . S
H621 C607 0.958 . S
H622 C607 0.961 . S
H623 C607 0.960 . S
C113 C73 1.499 . S
C121 C3 1.494 . S
C145 C107 1.465 . S
C153 C22 1.497 . S
C177 C35 1.446 . S
C185 C91 1.468 . S
C209 C51 1.494 . S
C217 C64 1.497 . S
C241 C92 1.499 . S
C249 C9 1.488 . S
C273 C21 1.490 . S
C281 C63 1.474 . S
C305 C79 1.497 . S
C313 C36 1.498 . S
C337 C45 1.498 . S
C345 C101 1.497 . S
C369 C65 1.466 . S
C377 C78 1.498 . S
C401 C17 1.492 . S
C409 C31 1.500 . S
C433 C50 1.498 . S
C441 C37 1.491 . S
C465 C49 1.485 . S
C473 C7 1.481 . S
C497 C23 1.466 . S
C505 C8 1.498 . S
C529 C106 1.493 . S
C537 C93 1.478 . S
C561 C59 1.487 . S
C569 C87 1.500 . S
C593 C77 1.491 . S
C601 C105 1.476 . S
