# Generated by pormake.
# Topology vma, (5)-cn, num edge types: 1
# Building blocks:
#     Node 0, Type 0, BuildingBlock: XOMCOT_clean_sbu_0, # of connection points: 5
#     Node 1, Type 0, BuildingBlock: XOMCOT_clean_sbu_0, # of connection points: 5
#     Node 2, Type 0, BuildingBlock: XOMCOT_clean_sbu_0, # of connection points: 5
#     Node 3, Type 0, BuildingBlock: XOMCOT_clean_sbu_0, # of connection points: 5
#     Node 4, Type 0, BuildingBlock: XOMCOT_clean_sbu_0, # of connection points: 5
#     Node 5, Type 0, BuildingBlock: XOMCOT_clean_sbu_0, # of connection points: 5
#     Node 6, Type 0, BuildingBlock: XOMCOT_clean_sbu_0, # of connection points: 5
#     Node 7, Type 0, BuildingBlock: XOMCOT_clean_sbu_0, # of connection points: 5
#     Edge 8, Type (0, 0), None
#     Edge 9, Type (0, 0), None
#     Edge 10, Type (0, 0), None
#     Edge 11, Type (0, 0), None
#     Edge 12, Type (0, 0), None
#     Edge 13, Type (0, 0), None
#     Edge 14, Type (0, 0), None
#     Edge 15, Type (0, 0), None
#     Edge 16, Type (0, 0), None
#     Edge 17, Type (0, 0), None
#     Edge 18, Type (0, 0), None
#     Edge 19, Type (0, 0), None
#     Edge 20, Type (0, 0), None
#     Edge 21, Type (0, 0), None
#     Edge 22, Type (0, 0), None
#     Edge 23, Type (0, 0), None
#     Edge 24, Type (0, 0), None
#     Edge 25, Type (0, 0), None
#     Edge 26, Type (0, 0), None
#     Edge 27, Type (0, 0), None
# Relax obj value: 0.086
# Max RMSD: 0.188
# Mean RMSD: 0.188
data_MOF--net-vma--node1-XOMCOT_clean_sbu_0--edge1-none
_symmetry_space_group_name_H-M    P1
_symmetry_Int_Tables_number       1
_symmetry_cell_setting            triclinic
loop_
_symmetry_equiv_pos_as_xyz
'x, y, z'
_cell_length_a     21.835296
_cell_length_b     13.096122
_cell_length_c     19.948627
_cell_angle_alpha  90.002152
_cell_angle_beta   111.17574
_cell_angle_gamma 89.981794
loop_
_atom_site_label
_atom_site_type_symbol
_atom_site_fract_x
_atom_site_fract_y
_atom_site_fract_z
_atom_type_partial_charge
Co0 Co 0.4173 0.06654 0.38451 0.0
C1 C 0.51117 0.98379 0.31672 0.0
C2 C 0.42555 0.05248 0.24074 0.0
C3 C 0.46516 0.02272 0.20479 0.0
N4 N 0.45333 0.0274 0.3112 0.0
N5 N 0.51954 0.98111 0.25261 0.0
H6 H 0.54897 0.96194 0.3668 0.0
H7 H 0.38232 0.09859 0.21684 0.0
C8 C 0.32728 0.23738 0.3082 0.0
O9 O 0.27955 0.19967 0.32608 0.0
N10 N 0.37761 0.11163 0.45454 0.0
C11 C 0.33689 0.05684 0.47817 0.0
C12 C 0.29964 0.12223 0.50256 0.0
C13 C 0.36621 0.21037 0.46855 0.0
N14 N 0.31698 0.2189 0.49486 0.0
C15 C 0.34515 0.88299 0.35861 0.0
C16 C 0.27288 0.9209 0.21583 0.0
C17 C 0.28691 0.8208 0.23948 0.0
C18 C 0.31941 0.80148 0.31235 0.0
C19 C 0.29976 1.00031 0.26396 0.0
N20 N 0.34107 0.98074 0.33308 0.0
H21 H 0.37457 0.86496 0.4135 0.0
H22 H 0.29336 0.07498 0.24115 0.0
H23 H 0.3302 0.97531 0.47307 0.0
H24 H 0.38848 0.27503 0.45247 0.0
O25 O 0.47021 0.96235 0.45013 0.0
O26 O 0.50309 0.12021 0.4456 0.0
O27 O 0.38249 0.19264 0.32568 0.0
C28 C 0.51686 0.0289 0.47306 0.0
H29 H 0.45839 0.04283 0.14993 0.0
H30 H 0.26005 0.10019 0.52003 0.0
H31 H 0.24613 0.93764 0.15957 0.0
H32 H 0.32891 0.72409 0.33264 0.0
Co33 Co 0.68283 0.0667 0.11178 0.0
C34 C 0.58902 0.9839 0.1796 0.0
C35 C 0.67441 0.05324 0.25551 0.0
C36 C 0.63483 0.0235 0.29148 0.0
N37 N 0.64677 0.02776 0.1851 0.0
N38 N 0.58059 0.98157 0.24368 0.0
H39 H 0.55134 0.96159 0.12957 0.0
H40 H 0.71754 0.09954 0.27935 0.0
C41 C 0.77287 0.23739 0.1881 0.0
O42 O 0.82062 0.19942 0.17035 0.0
N43 N 0.72254 0.11168 0.04176 0.0
C44 C 0.76327 0.05686 0.01813 0.0
C45 C 0.80053 0.12222 0.99375 0.0
C46 C 0.73395 0.21041 0.02776 0.0
N47 N 0.78319 0.21891 0.00146 0.0
C48 C 0.75512 0.88318 0.13774 0.0
C49 C 0.82711 0.92094 0.28061 0.0
C50 C 0.81327 0.82086 0.25687 0.0
C51 C 0.78091 0.80163 0.18397 0.0
C52 C 0.80022 1.0004 0.2325 0.0
N53 N 0.75907 0.98089 0.16331 0.0
H54 H 0.72577 0.8652 0.08282 0.0
H55 H 0.80651 0.07503 0.25535 0.0
H56 H 0.76996 0.97533 0.0232 0.0
H57 H 0.71168 0.2751 0.04384 0.0
O58 O 0.62998 0.96241 0.04626 0.0
O59 O 0.59702 0.12031 0.05061 0.0
O60 O 0.71759 0.19287 0.1705 0.0
C61 C 0.58329 0.02894 0.02325 0.0
H62 H 0.6415 0.04375 0.34629 0.0
H63 H 0.84012 0.10015 0.97628 0.0
H64 H 0.85373 0.93763 0.3369 0.0
H65 H 0.77152 0.72426 0.16364 0.0
Co66 Co 0.68286 0.96178 0.61182 0.0
C67 C 0.58899 0.04454 0.67961 0.0
C68 C 0.67461 0.97583 0.75559 0.0
C69 C 0.63501 1.00559 0.79154 0.0
N70 N 0.64684 1.00091 0.68513 0.0
N71 N 0.58063 0.04721 0.74372 0.0
H72 H 0.5512 0.0664 0.62953 0.0
H73 H 0.71784 0.92971 0.77949 0.0
C74 C 0.77289 0.79094 0.68813 0.0
O75 O 0.82062 0.82865 0.67025 0.0
N76 N 0.72255 0.91669 0.54179 0.0
C77 C 0.76327 0.97149 0.51816 0.0
C78 C 0.80052 0.90609 0.49377 0.0
C79 C 0.73395 0.81795 0.52777 0.0
N80 N 0.78319 0.80942 0.50147 0.0
C81 C 0.75501 0.14533 0.63772 0.0
C82 C 0.82728 0.10742 0.7805 0.0
C83 C 0.81326 0.20752 0.75685 0.0
C84 C 0.78075 0.22684 0.68398 0.0
C85 C 0.8004 0.02801 0.73237 0.0
N86 N 0.7591 0.04758 0.66324 0.0
H87 H 0.7256 0.16335 0.58283 0.0
H88 H 0.8068 0.95334 0.75518 0.0
H89 H 0.76996 0.05301 0.52326 0.0
H90 H 0.71169 0.75329 0.54386 0.0
O91 O 0.62995 0.06597 0.5462 0.0
O92 O 0.59708 0.90811 0.55072 0.0
O93 O 0.71767 0.83568 0.67065 0.0
C94 C 0.5833 0.99943 0.52327 0.0
H95 H 0.64177 0.98548 0.8464 0.0
H96 H 0.84012 0.92814 0.47629 0.0
H97 H 0.85403 0.09068 0.83676 0.0
H98 H 0.77125 0.30422 0.66369 0.0
Co99 Co 0.41734 0.96162 0.88455 0.0
C100 C 0.51115 0.04443 0.81672 0.0
C101 C 0.42576 0.97507 0.74082 0.0
C102 C 0.46534 1.00482 0.70485 0.0
N103 N 0.45339 1.00056 0.81123 0.0
N104 N 0.51958 0.04676 0.75265 0.0
H105 H 0.54882 0.06674 0.86676 0.0
H106 H 0.38263 0.92877 0.71698 0.0
C107 C 0.3273 0.79093 0.80823 0.0
O108 O 0.27954 0.8289 0.82598 0.0
N109 N 0.37762 0.91664 0.95457 0.0
C110 C 0.3369 0.97147 0.9782 0.0
C111 C 0.29964 0.9061 0.00258 0.0
C112 C 0.36621 0.81791 0.96857 0.0
N113 N 0.31697 0.80941 0.99486 0.0
C114 C 0.34505 0.14514 0.85859 0.0
C115 C 0.27306 0.10738 0.71572 0.0
C116 C 0.2869 0.20746 0.73945 0.0
C117 C 0.31926 0.22669 0.81235 0.0
C118 C 0.29995 0.02792 0.76383 0.0
N119 N 0.3411 0.04743 0.83302 0.0
H120 H 0.37439 0.16312 0.91351 0.0
H121 H 0.29366 0.95329 0.74098 0.0
H122 H 0.33021 0.05299 0.97313 0.0
H123 H 0.38849 0.75323 0.95249 0.0
O124 O 0.47018 0.06591 0.95007 0.0
O125 O 0.50314 0.90801 0.94572 0.0
O126 O 0.38257 0.83545 0.82583 0.0
C127 C 0.51687 0.99939 0.97307 0.0
H128 H 0.45867 0.98456 0.65004 0.0
H129 H 0.26004 0.92817 0.02005 0.0
H130 H 0.24644 0.0907 0.65943 0.0
H131 H 0.32864 0.30406 0.83269 0.0
Co132 Co 0.9173 0.56655 0.38451 0.0
C133 C 1.01117 0.48376 0.31671 0.0
C134 C 0.92557 0.55253 0.24074 0.0
C135 C 0.96517 0.52274 0.20479 0.0
N136 N 0.95333 0.52742 0.31119 0.0
N137 N 1.01954 0.4811 0.2526 0.0
H138 H 1.04895 0.46189 0.36679 0.0
H139 H 0.88235 0.59867 0.21685 0.0
C140 C 0.82728 0.73739 0.30819 0.0
O141 O 0.77953 0.69964 0.32602 0.0
N142 N 0.87761 0.61164 0.45453 0.0
C143 C 0.8369 0.55683 0.47818 0.0
C144 C 0.7996 0.62222 0.50251 0.0
C145 C 0.86617 0.71038 0.4685 0.0
N146 N 0.81688 0.7189 0.49472 0.0
C147 C 0.84514 0.383 0.3586 0.0
C148 C 0.77291 0.4209 0.21581 0.0
C149 C 0.78691 0.3208 0.23946 0.0
C150 C 0.8194 0.30149 0.31234 0.0
C151 C 0.79978 0.50032 0.26394 0.0
N152 N 0.84107 0.48075 0.33307 0.0
H153 H 0.87455 0.36498 0.4135 0.0
H154 H 0.79339 0.57499 0.24112 0.0
H155 H 0.83025 0.4753 0.47313 0.0
H156 H 0.88843 0.77504 0.45242 0.0
O157 O 0.97021 0.46235 0.45012 0.0
O158 O 1.00309 0.62022 0.44561 0.0
O159 O 0.8825 0.69265 0.32568 0.0
C160 C 1.01686 0.5289 0.47306 0.0
H161 H 0.95841 0.54288 0.14994 0.0
H162 H 0.76001 0.60017 0.51999 0.0
H163 H 0.74617 0.43764 0.15955 0.0
H164 H 0.82889 0.22411 0.33263 0.0
Co165 Co 0.18283 0.56671 0.11179 0.0
C166 C 0.08902 0.48387 0.17961 0.0
C167 C 0.17439 0.55329 0.25551 0.0
C168 C 0.13481 0.52353 0.29148 0.0
N169 N 0.14677 0.52778 0.1851 0.0
N170 N 0.08059 0.48155 0.24368 0.0
H171 H 0.05136 0.46153 0.12958 0.0
H172 H 0.21751 0.59962 0.27934 0.0
C173 C 0.27287 0.73739 0.18811 0.0
O174 O 0.32065 0.69939 0.17041 0.0
N175 N 0.22254 0.61169 0.04176 0.0
C176 C 0.26326 0.55685 0.01812 0.0
C177 C 0.30057 0.62222 0.9938 0.0
C178 C 0.234 0.71042 0.02782 0.0
N179 N 0.28329 0.71891 0.0016 0.0
C180 C 0.25513 0.3832 0.13775 0.0
C181 C 0.32708 0.42095 0.28063 0.0
C182 C 0.31326 0.32087 0.25689 0.0
C183 C 0.28092 0.30164 0.18398 0.0
C184 C 0.3002 0.50041 0.23252 0.0
N185 N 0.25907 0.48091 0.16332 0.0
H186 H 0.22579 0.36522 0.08283 0.0
H187 H 0.30647 0.57504 0.25538 0.0
H188 H 0.26991 0.47531 0.02314 0.0
H189 H 0.21172 0.77511 0.04389 0.0
O190 O 0.12998 0.46241 0.04626 0.0
O191 O 0.09702 0.62031 0.0506 0.0
O192 O 0.21759 0.69288 0.1705 0.0
C193 C 0.08329 0.52894 0.02325 0.0
H194 H 0.14148 0.5438 0.34628 0.0
H195 H 0.34016 0.60014 0.97632 0.0
H196 H 0.35369 0.43763 0.33693 0.0
H197 H 0.27155 0.22428 0.16364 0.0
Co198 Co 0.18286 0.46177 0.61182 0.0
C199 C 0.089 0.54456 0.67961 0.0
C200 C 0.1746 0.47579 0.75559 0.0
C201 C 0.135 0.50557 0.79154 0.0
N202 N 0.14683 0.5009 0.68514 0.0
N203 N 0.08063 0.54723 0.74373 0.0
H204 H 0.05121 0.56645 0.62954 0.0
H205 H 0.21781 0.42964 0.77948 0.0
C206 C 0.27289 0.29094 0.68814 0.0
O207 O 0.32064 0.32868 0.67031 0.0
N208 N 0.22256 0.41668 0.5418 0.0
C209 C 0.26326 0.47149 0.51815 0.0
C210 C 0.30056 0.4061 0.49381 0.0
C211 C 0.234 0.31794 0.52783 0.0
N212 N 0.28329 0.30942 0.50161 0.0
C213 C 0.25502 0.64532 0.63773 0.0
C214 C 0.32726 0.60742 0.78052 0.0
C215 C 0.31325 0.70752 0.75686 0.0
C216 C 0.28076 0.72683 0.68399 0.0
C217 C 0.30038 0.528 0.73239 0.0
N218 N 0.25909 0.54757 0.66326 0.0
H219 H 0.22562 0.66334 0.58283 0.0
H220 H 0.30677 0.45333 0.75521 0.0
H221 H 0.26991 0.55302 0.5232 0.0
H222 H 0.21173 0.25328 0.54391 0.0
O223 O 0.12996 0.56597 0.54621 0.0
O224 O 0.09708 0.4081 0.55072 0.0
O225 O 0.21767 0.33567 0.67064 0.0
C226 C 0.0833 0.49943 0.52327 0.0
H227 H 0.14175 0.48544 0.84639 0.0
H228 H 0.34015 0.42815 0.47634 0.0
H229 H 0.35399 0.59068 0.83678 0.0
H230 H 0.27128 0.80421 0.6637 0.0
Co231 Co 0.91734 0.46161 0.88454 0.0
C232 C 1.01114 0.54445 0.81672 0.0
C233 C 0.92577 0.47502 0.74082 0.0
C234 C 0.96535 0.50479 0.70485 0.0
N235 N 0.9534 0.50054 0.81122 0.0
N236 N 1.01958 0.54677 0.75264 0.0
H237 H 1.0488 0.5668 0.86675 0.0
H238 H 0.88266 0.42869 0.71699 0.0
C239 C 0.82729 0.29093 0.80822 0.0
O240 O 0.77952 0.32893 0.82592 0.0
N241 N 0.87762 0.41664 0.95457 0.0
C242 C 0.8369 0.47147 0.97821 0.0
C243 C 0.7996 0.4061 0.00253 0.0
C244 C 0.86617 0.3179 0.96851 0.0
N245 N 0.81687 0.30941 0.99472 0.0
C246 C 0.84503 0.64512 0.85858 0.0
C247 C 0.77309 0.60737 0.7157 0.0
C248 C 0.78691 0.70745 0.73944 0.0
C249 C 0.81925 0.72668 0.81234 0.0
C250 C 0.79997 0.52791 0.76381 0.0
N251 N 0.8411 0.54741 0.83301 0.0
H252 H 0.87437 0.6631 0.9135 0.0
H253 H 0.79369 0.45328 0.74095 0.0
H254 H 0.83025 0.55301 0.97319 0.0
H255 H 0.88845 0.25322 0.95244 0.0
O256 O 0.97018 0.56591 0.95006 0.0
O257 O 1.00314 0.40801 0.94572 0.0
O258 O 0.88258 0.33544 0.82583 0.0
C259 C 1.01688 0.49938 0.97307 0.0
H260 H 0.95869 0.48451 0.65005 0.0
H261 H 0.76001 0.42819 0.02001 0.0
H262 H 0.74648 0.59069 0.6594 0.0
H263 H 0.82861 0.80404 0.83268 0.0
loop_
_geom_bond_atom_site_label_1
_geom_bond_atom_site_label_2
_geom_bond_distance
_geom_bond_site_symmetry_2
_ccdc_geom_bond_type
Co0 N4 2.148 . S
Co0 N10 2.128 . S
Co0 N20 2.194 1_545 S
Co0 O25 2.351 . S
Co0 O26 2.155 . S
Co0 O27 2.096 . S
C1 N4 1.301 . S
C1 N5 1.328 . S
C1 H6 0.930 1_545 S
C2 C3 1.333 . S
C2 N4 1.317 . S
C2 H7 0.930 . S
C3 C2 1.333 . S
C3 N5 1.350 . S
C3 H29 0.931 . S
N4 Co0 2.148 . S
N4 C1 1.301 . S
N4 C2 1.317 . S
N5 C1 1.328 . S
N5 C3 1.350 . S
H6 C1 0.930 1_565 S
H7 C2 0.930 . S
C8 O9 1.224 . S
C8 O27 1.247 . S
O9 C8 1.224 . S
N10 Co0 2.128 . S
N10 C11 1.355 . S
N10 C13 1.311 . S
C11 N10 1.355 . S
C11 C12 1.363 . S
C11 H23 0.929 1_545 S
C12 C11 1.363 . S
C12 N14 1.375 . S
C12 H30 0.931 . S
C13 N10 1.311 . S
C13 N14 1.347 . S
C13 H24 0.929 . S
N14 C12 1.375 . S
N14 C13 1.347 . S
C15 C18 1.365 . S
C15 N20 1.328 . S
C15 H21 0.929 . S
C16 C17 1.362 . S
C16 C19 1.378 . S
C16 H31 0.929 . S
C17 C16 1.362 . S
C17 C18 1.366 . S
C18 C15 1.365 . S
C18 C17 1.366 . S
C18 H32 0.930 . S
C19 C16 1.378 . S
C19 N20 1.315 . S
C19 H22 0.930 1_565 S
N20 Co0 2.194 1_565 S
N20 C15 1.328 . S
N20 C19 1.315 . S
H21 C15 0.929 . S
H22 C19 0.930 1_545 S
H23 C11 0.929 1_565 S
H24 C13 0.929 . S
O25 Co0 2.351 . S
O25 C28 1.244 . S
O26 Co0 2.155 . S
O26 C28 1.240 . S
O27 Co0 2.096 . S
O27 C8 1.247 . S
C28 O25 1.244 . S
C28 O26 1.240 . S
H29 C3 0.931 . S
H30 C12 0.931 . S
H31 C16 0.929 . S
H32 C18 0.930 . S
Co33 N37 2.148 . S
Co33 N43 2.128 . S
Co33 N53 2.194 1_545 S
Co33 O58 2.351 . S
Co33 O59 2.155 . S
Co33 O60 2.096 . S
C34 N37 1.301 . S
C34 N38 1.328 . S
C34 H39 0.930 1_545 S
C35 C36 1.333 . S
C35 N37 1.317 . S
C35 H40 0.930 . S
C36 C35 1.333 . S
C36 N38 1.350 . S
C36 H62 0.931 . S
N37 Co33 2.148 . S
N37 C34 1.301 . S
N37 C35 1.317 . S
N38 C34 1.328 . S
N38 C36 1.350 . S
H39 C34 0.930 1_565 S
H40 C35 0.930 . S
C41 O42 1.224 . S
C41 O60 1.247 . S
O42 C41 1.224 . S
N43 Co33 2.128 . S
N43 C44 1.355 . S
N43 C46 1.311 . S
C44 N43 1.355 . S
C44 C45 1.363 . S
C44 H56 0.929 1_545 S
C45 C44 1.363 . S
C45 N47 1.375 . S
C45 H63 0.931 1_554 S
C46 N43 1.311 . S
C46 N47 1.347 . S
C46 H57 0.929 . S
N47 C45 1.375 . S
N47 C46 1.347 . S
C48 C51 1.365 . S
C48 N53 1.328 . S
C48 H54 0.929 . S
C49 C50 1.362 . S
C49 C52 1.378 . S
C49 H64 0.929 . S
C50 C49 1.362 . S
C50 C51 1.366 . S
C51 C48 1.365 . S
C51 C50 1.366 . S
C51 H65 0.930 . S
C52 C49 1.378 . S
C52 N53 1.315 . S
C52 H55 0.930 1_565 S
N53 Co33 2.194 1_565 S
N53 C48 1.328 . S
N53 C52 1.315 . S
H54 C48 0.929 . S
H55 C52 0.930 1_545 S
H56 C44 0.929 1_565 S
H57 C46 0.929 . S
O58 Co33 2.351 . S
O58 C61 1.244 . S
O59 Co33 2.155 . S
O59 C61 1.240 . S
O60 Co33 2.096 . S
O60 C41 1.247 . S
C61 O58 1.244 . S
C61 O59 1.240 . S
H62 C36 0.931 . S
H63 C45 0.931 1_556 S
H64 C49 0.929 . S
H65 C51 0.930 . S
Co66 N70 2.148 . S
Co66 N76 2.128 . S
Co66 N86 2.194 1_565 S
Co66 O91 2.351 . S
Co66 O92 2.155 . S
Co66 O93 2.096 . S
C67 N70 1.301 . S
C67 N71 1.328 . S
C67 H72 0.930 1_565 S
C68 C69 1.333 . S
C68 N70 1.317 . S
C68 H73 0.930 . S
C69 C68 1.333 . S
C69 N71 1.350 . S
C69 H95 0.931 . S
N70 Co66 2.148 . S
N70 C67 1.301 . S
N70 C68 1.317 . S
N71 C67 1.328 . S
N71 C69 1.350 . S
H72 C67 0.930 1_545 S
H73 C68 0.930 . S
C74 O75 1.224 . S
C74 O93 1.247 . S
O75 C74 1.224 . S
N76 Co66 2.128 . S
N76 C77 1.355 . S
N76 C79 1.311 . S
C77 N76 1.355 . S
C77 C78 1.363 . S
C77 H89 0.929 1_565 S
C78 C77 1.363 . S
C78 N80 1.375 . S
C78 H96 0.931 . S
C79 N76 1.311 . S
C79 N80 1.347 . S
C79 H90 0.929 . S
N80 C78 1.375 . S
N80 C79 1.347 . S
C81 C84 1.365 . S
C81 N86 1.328 . S
C81 H87 0.929 . S
C82 C83 1.362 . S
C82 C85 1.378 . S
C82 H97 0.929 . S
C83 C82 1.362 . S
C83 C84 1.366 . S
C84 C81 1.365 . S
C84 C83 1.366 . S
C84 H98 0.930 . S
C85 C82 1.378 . S
C85 N86 1.315 . S
C85 H88 0.930 1_545 S
N86 Co66 2.194 1_545 S
N86 C81 1.328 . S
N86 C85 1.315 . S
H87 C81 0.929 . S
H88 C85 0.930 1_565 S
H89 C77 0.929 1_545 S
H90 C79 0.929 . S
O91 Co66 2.351 . S
O91 C94 1.244 . S
O92 Co66 2.155 . S
O92 C94 1.240 . S
O93 Co66 2.096 . S
O93 C74 1.247 . S
C94 O91 1.244 . S
C94 O92 1.240 . S
H95 C69 0.931 . S
H96 C78 0.931 . S
H97 C82 0.929 . S
H98 C84 0.930 . S
Co99 N103 2.148 . S
Co99 N109 2.128 . S
Co99 N119 2.194 1_565 S
Co99 O124 2.351 . S
Co99 O125 2.155 . S
Co99 O126 2.096 . S
C100 N103 1.301 . S
C100 N104 1.328 . S
C100 H105 0.930 1_565 S
C101 C102 1.333 . S
C101 N103 1.317 . S
C101 H106 0.930 . S
C102 C101 1.333 . S
C102 N104 1.350 . S
C102 H128 0.931 . S
N103 Co99 2.148 . S
N103 C100 1.301 . S
N103 C101 1.317 . S
N104 C100 1.328 . S
N104 C102 1.350 . S
H105 C100 0.930 1_545 S
H106 C101 0.930 . S
C107 O108 1.224 . S
C107 O126 1.247 . S
O108 C107 1.224 . S
N109 Co99 2.128 . S
N109 C110 1.355 . S
N109 C112 1.311 . S
C110 N109 1.355 . S
C110 C111 1.363 . S
C110 H122 0.929 1_565 S
C111 C110 1.363 . S
C111 N113 1.375 . S
C111 H129 0.931 1_556 S
C112 N109 1.311 . S
C112 N113 1.347 . S
C112 H123 0.929 . S
N113 C111 1.375 . S
N113 C112 1.347 . S
C114 C117 1.365 . S
C114 N119 1.328 . S
C114 H120 0.929 . S
C115 C116 1.362 . S
C115 C118 1.378 . S
C115 H130 0.929 . S
C116 C115 1.362 . S
C116 C117 1.366 . S
C117 C114 1.365 . S
C117 C116 1.366 . S
C117 H131 0.930 . S
C118 C115 1.378 . S
C118 N119 1.315 . S
C118 H121 0.930 1_545 S
N119 Co99 2.194 1_545 S
N119 C114 1.328 . S
N119 C118 1.315 . S
H120 C114 0.929 . S
H121 C118 0.930 1_565 S
H122 C110 0.929 1_545 S
H123 C112 0.929 . S
O124 Co99 2.351 . S
O124 C127 1.244 . S
O125 Co99 2.155 . S
O125 C127 1.240 . S
O126 Co99 2.096 . S
O126 C107 1.247 . S
C127 O124 1.244 . S
C127 O125 1.240 . S
H128 C102 0.931 . S
H129 C111 0.931 1_554 S
H130 C115 0.929 . S
H131 C117 0.930 . S
Co132 N136 2.148 . S
Co132 N142 2.128 . S
Co132 N152 2.194 . S
Co132 O157 2.351 . S
Co132 O158 2.155 . S
Co132 O159 2.096 . S
C133 N136 1.301 . S
C133 N137 1.328 . S
C133 H138 0.930 . S
C134 C135 1.333 . S
C134 N136 1.317 . S
C134 H139 0.930 . S
C135 C134 1.333 . S
C135 N137 1.350 . S
C135 H161 0.931 . S
N136 Co132 2.148 . S
N136 C133 1.301 . S
N136 C134 1.317 . S
N137 C133 1.328 . S
N137 C135 1.350 . S
H138 C133 0.930 . S
H139 C134 0.930 . S
C140 O141 1.224 . S
C140 O159 1.247 . S
O141 C140 1.224 . S
N142 Co132 2.128 . S
N142 C143 1.355 . S
N142 C145 1.311 . S
C143 N142 1.355 . S
C143 C144 1.363 . S
C143 H155 0.929 . S
C144 C143 1.363 . S
C144 N146 1.375 . S
C144 H162 0.931 . S
C145 N142 1.311 . S
C145 N146 1.347 . S
C145 H156 0.929 . S
N146 C144 1.375 . S
N146 C145 1.347 . S
C147 C150 1.365 . S
C147 N152 1.328 . S
C147 H153 0.929 . S
C148 C149 1.362 . S
C148 C151 1.378 . S
C148 H163 0.929 . S
C149 C148 1.362 . S
C149 C150 1.366 . S
C150 C147 1.365 . S
C150 C149 1.366 . S
C150 H164 0.930 . S
C151 C148 1.378 . S
C151 N152 1.315 . S
C151 H154 0.930 . S
N152 Co132 2.194 . S
N152 C147 1.328 . S
N152 C151 1.315 . S
H153 C147 0.929 . S
H154 C151 0.930 . S
H155 C143 0.929 . S
H156 C145 0.929 . S
O157 Co132 2.351 . S
O157 C160 1.244 . S
O158 Co132 2.155 . S
O158 C160 1.240 . S
O159 Co132 2.096 . S
O159 C140 1.247 . S
C160 O157 1.244 . S
C160 O158 1.240 . S
H161 C135 0.931 . S
H162 C144 0.931 . S
H163 C148 0.929 . S
H164 C150 0.930 . S
Co165 N169 2.148 . S
Co165 N175 2.128 . S
Co165 N185 2.194 . S
Co165 O190 2.351 . S
Co165 O191 2.155 . S
Co165 O192 2.096 . S
C166 N169 1.301 . S
C166 N170 1.328 . S
C166 H171 0.930 . S
C167 C168 1.333 . S
C167 N169 1.317 . S
C167 H172 0.930 . S
C168 C167 1.333 . S
C168 N170 1.350 . S
C168 H194 0.931 . S
N169 Co165 2.148 . S
N169 C166 1.301 . S
N169 C167 1.317 . S
N170 C166 1.328 . S
N170 C168 1.350 . S
H171 C166 0.930 . S
H172 C167 0.930 . S
C173 O174 1.224 . S
C173 O192 1.247 . S
O174 C173 1.224 . S
N175 Co165 2.128 . S
N175 C176 1.355 . S
N175 C178 1.311 . S
C176 N175 1.355 . S
C176 C177 1.363 . S
C176 H188 0.929 . S
C177 C176 1.363 . S
C177 N179 1.375 . S
C177 H195 0.931 1_554 S
C178 N175 1.311 . S
C178 N179 1.347 . S
C178 H189 0.929 . S
N179 C177 1.375 . S
N179 C178 1.347 . S
C180 C183 1.365 . S
C180 N185 1.328 . S
C180 H186 0.929 . S
C181 C182 1.362 . S
C181 C184 1.378 . S
C181 H196 0.929 . S
C182 C181 1.362 . S
C182 C183 1.366 . S
C183 C180 1.365 . S
C183 C182 1.366 . S
C183 H197 0.930 . S
C184 C181 1.378 . S
C184 N185 1.315 . S
C184 H187 0.930 . S
N185 Co165 2.194 . S
N185 C180 1.328 . S
N185 C184 1.315 . S
H186 C180 0.929 . S
H187 C184 0.930 . S
H188 C176 0.929 . S
H189 C178 0.929 . S
O190 Co165 2.351 . S
O190 C193 1.244 . S
O191 Co165 2.155 . S
O191 C193 1.240 . S
O192 Co165 2.096 . S
O192 C173 1.247 . S
C193 O190 1.244 . S
C193 O191 1.240 . S
H194 C168 0.931 . S
H195 C177 0.931 1_556 S
H196 C181 0.929 . S
H197 C183 0.930 . S
Co198 N202 2.148 . S
Co198 N208 2.128 . S
Co198 N218 2.194 . S
Co198 O223 2.351 . S
Co198 O224 2.155 . S
Co198 O225 2.096 . S
C199 N202 1.301 . S
C199 N203 1.328 . S
C199 H204 0.930 . S
C200 C201 1.333 . S
C200 N202 1.317 . S
C200 H205 0.930 . S
C201 C200 1.333 . S
C201 N203 1.350 . S
C201 H227 0.931 . S
N202 Co198 2.148 . S
N202 C199 1.301 . S
N202 C200 1.317 . S
N203 C199 1.328 . S
N203 C201 1.350 . S
H204 C199 0.930 . S
H205 C200 0.930 . S
C206 O207 1.224 . S
C206 O225 1.247 . S
O207 C206 1.224 . S
N208 Co198 2.128 . S
N208 C209 1.355 . S
N208 C211 1.311 . S
C209 N208 1.355 . S
C209 C210 1.363 . S
C209 H221 0.929 . S
C210 C209 1.363 . S
C210 N212 1.375 . S
C210 H228 0.931 . S
C211 N208 1.311 . S
C211 N212 1.347 . S
C211 H222 0.929 . S
N212 C210 1.375 . S
N212 C211 1.347 . S
C213 C216 1.365 . S
C213 N218 1.328 . S
C213 H219 0.929 . S
C214 C215 1.362 . S
C214 C217 1.378 . S
C214 H229 0.929 . S
C215 C214 1.362 . S
C215 C216 1.366 . S
C216 C213 1.365 . S
C216 C215 1.366 . S
C216 H230 0.930 . S
C217 C214 1.378 . S
C217 N218 1.315 . S
C217 H220 0.930 . S
N218 Co198 2.194 . S
N218 C213 1.328 . S
N218 C217 1.315 . S
H219 C213 0.929 . S
H220 C217 0.930 . S
H221 C209 0.929 . S
H222 C211 0.929 . S
O223 Co198 2.351 . S
O223 C226 1.244 . S
O224 Co198 2.155 . S
O224 C226 1.240 . S
O225 Co198 2.096 . S
O225 C206 1.247 . S
C226 O223 1.244 . S
C226 O224 1.240 . S
H227 C201 0.931 . S
H228 C210 0.931 . S
H229 C214 0.929 . S
H230 C216 0.930 . S
Co231 N235 2.148 . S
Co231 N241 2.128 . S
Co231 N251 2.194 . S
Co231 O256 2.351 . S
Co231 O257 2.155 . S
Co231 O258 2.096 . S
C232 N235 1.301 . S
C232 N236 1.328 . S
C232 H237 0.930 . S
C233 C234 1.333 . S
C233 N235 1.317 . S
C233 H238 0.930 . S
C234 C233 1.333 . S
C234 N236 1.350 . S
C234 H260 0.931 . S
N235 Co231 2.148 . S
N235 C232 1.301 . S
N235 C233 1.317 . S
N236 C232 1.328 . S
N236 C234 1.350 . S
H237 C232 0.930 . S
H238 C233 0.930 . S
C239 O240 1.224 . S
C239 O258 1.247 . S
O240 C239 1.224 . S
N241 Co231 2.128 . S
N241 C242 1.355 . S
N241 C244 1.311 . S
C242 N241 1.355 . S
C242 C243 1.363 . S
C242 H254 0.929 . S
C243 C242 1.363 . S
C243 N245 1.375 . S
C243 H261 0.931 1_556 S
C244 N241 1.311 . S
C244 N245 1.347 . S
C244 H255 0.929 . S
N245 C243 1.375 . S
N245 C244 1.347 . S
C246 C249 1.365 . S
C246 N251 1.328 . S
C246 H252 0.929 . S
C247 C248 1.362 . S
C247 C250 1.378 . S
C247 H262 0.929 . S
C248 C247 1.362 . S
C248 C249 1.366 . S
C249 C246 1.365 . S
C249 C248 1.366 . S
C249 H263 0.930 . S
C250 C247 1.378 . S
C250 N251 1.315 . S
C250 H253 0.930 . S
N251 Co231 2.194 . S
N251 C246 1.328 . S
N251 C250 1.315 . S
H252 C246 0.929 . S
H253 C250 0.930 . S
H254 C242 0.929 . S
H255 C244 0.929 . S
O256 Co231 2.351 . S
O256 C259 1.244 . S
O257 Co231 2.155 . S
O257 C259 1.240 . S
O258 Co231 2.096 . S
O258 C239 1.247 . S
C259 O256 1.244 . S
C259 O257 1.240 . S
H260 C234 0.931 . S
H261 C243 0.931 1_554 S
H262 C247 0.929 . S
H263 C249 0.930 . S
N212 N14 2.689 . S
N47 N245 2.689 1_554 S
N80 N146 2.689 . S
N113 N179 2.689 1_556 S
N38 N5 1.408 . S
N71 N104 1.408 . S
N170 N137 1.408 1_455 S
N203 N236 1.408 1_455 S
C173 C17 1.244 . S
C50 C140 1.244 . S
C83 C239 1.244 . S
C206 C116 1.244 . S
C149 C41 1.244 . S
C182 C8 1.244 . S
C215 C107 1.244 . S
C74 C248 1.244 . S
C28 C94 2.204 1_545 S
C61 C127 2.204 1_544 S
C226 C160 2.204 1_455 S
C193 C259 2.204 1_454 S
