# Generated by pormake.
# Topology rho, (4)-cn, num edge types: 1
# Building blocks:
#     Node 0, Type 0, BuildingBlock: TATPOV_clean_sbu_0, # of connection points: 4
#     Node 1, Type 0, BuildingBlock: TATPOV_clean_sbu_0, # of connection points: 4
#     Node 2, Type 0, BuildingBlock: TATPOV_clean_sbu_0, # of connection points: 4
#     Node 3, Type 0, BuildingBlock: TATPOV_clean_sbu_0, # of connection points: 4
#     Node 4, Type 0, BuildingBlock: TATPOV_clean_sbu_0, # of connection points: 4
#     Node 5, Type 0, BuildingBlock: TATPOV_clean_sbu_0, # of connection points: 4
#     Node 6, Type 0, BuildingBlock: TATPOV_clean_sbu_0, # of connection points: 4
#     Node 7, Type 0, BuildingBlock: TATPOV_clean_sbu_0, # of connection points: 4
#     Node 8, Type 0, BuildingBlock: TATPOV_clean_sbu_0, # of connection points: 4
#     Node 9, Type 0, BuildingBlock: TATPOV_clean_sbu_0, # of connection points: 4
#     Node 10, Type 0, BuildingBlock: TATPOV_clean_sbu_0, # of connection points: 4
#     Node 11, Type 0, BuildingBlock: TATPOV_clean_sbu_0, # of connection points: 4
#     Node 12, Type 0, BuildingBlock: TATPOV_clean_sbu_0, # of connection points: 4
#     Node 13, Type 0, BuildingBlock: TATPOV_clean_sbu_0, # of connection points: 4
#     Node 14, Type 0, BuildingBlock: TATPOV_clean_sbu_0, # of connection points: 4
#     Node 15, Type 0, BuildingBlock: TATPOV_clean_sbu_0, # of connection points: 4
#     Node 16, Type 0, BuildingBlock: TATPOV_clean_sbu_0, # of connection points: 4
#     Node 17, Type 0, BuildingBlock: TATPOV_clean_sbu_0, # of connection points: 4
#     Node 18, Type 0, BuildingBlock: TATPOV_clean_sbu_0, # of connection points: 4
#     Node 19, Type 0, BuildingBlock: TATPOV_clean_sbu_0, # of connection points: 4
#     Node 20, Type 0, BuildingBlock: TATPOV_clean_sbu_0, # of connection points: 4
#     Node 21, Type 0, BuildingBlock: TATPOV_clean_sbu_0, # of connection points: 4
#     Node 22, Type 0, BuildingBlock: TATPOV_clean_sbu_0, # of connection points: 4
#     Node 23, Type 0, BuildingBlock: TATPOV_clean_sbu_0, # of connection points: 4
#     Node 24, Type 0, BuildingBlock: TATPOV_clean_sbu_0, # of connection points: 4
#     Node 25, Type 0, BuildingBlock: TATPOV_clean_sbu_0, # of connection points: 4
#     Node 26, Type 0, BuildingBlock: TATPOV_clean_sbu_0, # of connection points: 4
#     Node 27, Type 0, BuildingBlock: TATPOV_clean_sbu_0, # of connection points: 4
#     Node 28, Type 0, BuildingBlock: TATPOV_clean_sbu_0, # of connection points: 4
#     Node 29, Type 0, BuildingBlock: TATPOV_clean_sbu_0, # of connection points: 4
#     Node 30, Type 0, BuildingBlock: TATPOV_clean_sbu_0, # of connection points: 4
#     Node 31, Type 0, BuildingBlock: TATPOV_clean_sbu_0, # of connection points: 4
#     Node 32, Type 0, BuildingBlock: TATPOV_clean_sbu_0, # of connection points: 4
#     Node 33, Type 0, BuildingBlock: TATPOV_clean_sbu_0, # of connection points: 4
#     Node 34, Type 0, BuildingBlock: TATPOV_clean_sbu_0, # of connection points: 4
#     Node 35, Type 0, BuildingBlock: TATPOV_clean_sbu_0, # of connection points: 4
#     Node 36, Type 0, BuildingBlock: TATPOV_clean_sbu_0, # of connection points: 4
#     Node 37, Type 0, BuildingBlock: TATPOV_clean_sbu_0, # of connection points: 4
#     Node 38, Type 0, BuildingBlock: TATPOV_clean_sbu_0, # of connection points: 4
#     Node 39, Type 0, BuildingBlock: TATPOV_clean_sbu_0, # of connection points: 4
#     Node 40, Type 0, BuildingBlock: TATPOV_clean_sbu_0, # of connection points: 4
#     Node 41, Type 0, BuildingBlock: TATPOV_clean_sbu_0, # of connection points: 4
#     Node 42, Type 0, BuildingBlock: TATPOV_clean_sbu_0, # of connection points: 4
#     Node 43, Type 0, BuildingBlock: TATPOV_clean_sbu_0, # of connection points: 4
#     Node 44, Type 0, BuildingBlock: TATPOV_clean_sbu_0, # of connection points: 4
#     Node 45, Type 0, BuildingBlock: TATPOV_clean_sbu_0, # of connection points: 4
#     Node 46, Type 0, BuildingBlock: TATPOV_clean_sbu_0, # of connection points: 4
#     Node 47, Type 0, BuildingBlock: TATPOV_clean_sbu_0, # of connection points: 4
#     Edge 48, Type (0, 0), BuildingBlock: EZIPEK_clean_linker_0, # of connection points: 2
#     Edge 49, Type (0, 0), BuildingBlock: EZIPEK_clean_linker_0, # of connection points: 2
#     Edge 50, Type (0, 0), BuildingBlock: EZIPEK_clean_linker_0, # of connection points: 2
#     Edge 51, Type (0, 0), BuildingBlock: EZIPEK_clean_linker_0, # of connection points: 2
#     Edge 52, Type (0, 0), BuildingBlock: EZIPEK_clean_linker_0, # of connection points: 2
#     Edge 53, Type (0, 0), BuildingBlock: EZIPEK_clean_linker_0, # of connection points: 2
#     Edge 54, Type (0, 0), BuildingBlock: EZIPEK_clean_linker_0, # of connection points: 2
#     Edge 55, Type (0, 0), BuildingBlock: EZIPEK_clean_linker_0, # of connection points: 2
#     Edge 56, Type (0, 0), BuildingBlock: EZIPEK_clean_linker_0, # of connection points: 2
#     Edge 57, Type (0, 0), BuildingBlock: EZIPEK_clean_linker_0, # of connection points: 2
#     Edge 58, Type (0, 0), BuildingBlock: EZIPEK_clean_linker_0, # of connection points: 2
#     Edge 59, Type (0, 0), BuildingBlock: EZIPEK_clean_linker_0, # of connection points: 2
#     Edge 60, Type (0, 0), BuildingBlock: EZIPEK_clean_linker_0, # of connection points: 2
#     Edge 61, Type (0, 0), BuildingBlock: EZIPEK_clean_linker_0, # of connection points: 2
#     Edge 62, Type (0, 0), BuildingBlock: EZIPEK_clean_linker_0, # of connection points: 2
#     Edge 63, Type (0, 0), BuildingBlock: EZIPEK_clean_linker_0, # of connection points: 2
#     Edge 64, Type (0, 0), BuildingBlock: EZIPEK_clean_linker_0, # of connection points: 2
#     Edge 65, Type (0, 0), BuildingBlock: EZIPEK_clean_linker_0, # of connection points: 2
#     Edge 66, Type (0, 0), BuildingBlock: EZIPEK_clean_linker_0, # of connection points: 2
#     Edge 67, Type (0, 0), BuildingBlock: EZIPEK_clean_linker_0, # of connection points: 2
#     Edge 68, Type (0, 0), BuildingBlock: EZIPEK_clean_linker_0, # of connection points: 2
#     Edge 69, Type (0, 0), BuildingBlock: EZIPEK_clean_linker_0, # of connection points: 2
#     Edge 70, Type (0, 0), BuildingBlock: EZIPEK_clean_linker_0, # of connection points: 2
#     Edge 71, Type (0, 0), BuildingBlock: EZIPEK_clean_linker_0, # of connection points: 2
#     Edge 72, Type (0, 0), BuildingBlock: EZIPEK_clean_linker_0, # of connection points: 2
#     Edge 73, Type (0, 0), BuildingBlock: EZIPEK_clean_linker_0, # of connection points: 2
#     Edge 74, Type (0, 0), BuildingBlock: EZIPEK_clean_linker_0, # of connection points: 2
#     Edge 75, Type (0, 0), BuildingBlock: EZIPEK_clean_linker_0, # of connection points: 2
#     Edge 76, Type (0, 0), BuildingBlock: EZIPEK_clean_linker_0, # of connection points: 2
#     Edge 77, Type (0, 0), BuildingBlock: EZIPEK_clean_linker_0, # of connection points: 2
#     Edge 78, Type (0, 0), BuildingBlock: EZIPEK_clean_linker_0, # of connection points: 2
#     Edge 79, Type (0, 0), BuildingBlock: EZIPEK_clean_linker_0, # of connection points: 2
#     Edge 80, Type (0, 0), BuildingBlock: EZIPEK_clean_linker_0, # of connection points: 2
#     Edge 81, Type (0, 0), BuildingBlock: EZIPEK_clean_linker_0, # of connection points: 2
#     Edge 82, Type (0, 0), BuildingBlock: EZIPEK_clean_linker_0, # of connection points: 2
#     Edge 83, Type (0, 0), BuildingBlock: EZIPEK_clean_linker_0, # of connection points: 2
#     Edge 84, Type (0, 0), BuildingBlock: EZIPEK_clean_linker_0, # of connection points: 2
#     Edge 85, Type (0, 0), BuildingBlock: EZIPEK_clean_linker_0, # of connection points: 2
#     Edge 86, Type (0, 0), BuildingBlock: EZIPEK_clean_linker_0, # of connection points: 2
#     Edge 87, Type (0, 0), BuildingBlock: EZIPEK_clean_linker_0, # of connection points: 2
#     Edge 88, Type (0, 0), BuildingBlock: EZIPEK_clean_linker_0, # of connection points: 2
#     Edge 89, Type (0, 0), BuildingBlock: EZIPEK_clean_linker_0, # of connection points: 2
#     Edge 90, Type (0, 0), BuildingBlock: EZIPEK_clean_linker_0, # of connection points: 2
#     Edge 91, Type (0, 0), BuildingBlock: EZIPEK_clean_linker_0, # of connection points: 2
#     Edge 92, Type (0, 0), BuildingBlock: EZIPEK_clean_linker_0, # of connection points: 2
#     Edge 93, Type (0, 0), BuildingBlock: EZIPEK_clean_linker_0, # of connection points: 2
#     Edge 94, Type (0, 0), BuildingBlock: EZIPEK_clean_linker_0, # of connection points: 2
#     Edge 95, Type (0, 0), BuildingBlock: EZIPEK_clean_linker_0, # of connection points: 2
#     Edge 96, Type (0, 0), BuildingBlock: EZIPEK_clean_linker_0, # of connection points: 2
#     Edge 97, Type (0, 0), BuildingBlock: EZIPEK_clean_linker_0, # of connection points: 2
#     Edge 98, Type (0, 0), BuildingBlock: EZIPEK_clean_linker_0, # of connection points: 2
#     Edge 99, Type (0, 0), BuildingBlock: EZIPEK_clean_linker_0, # of connection points: 2
#     Edge 100, Type (0, 0), BuildingBlock: EZIPEK_clean_linker_0, # of connection points: 2
#     Edge 101, Type (0, 0), BuildingBlock: EZIPEK_clean_linker_0, # of connection points: 2
#     Edge 102, Type (0, 0), BuildingBlock: EZIPEK_clean_linker_0, # of connection points: 2
#     Edge 103, Type (0, 0), BuildingBlock: EZIPEK_clean_linker_0, # of connection points: 2
#     Edge 104, Type (0, 0), BuildingBlock: EZIPEK_clean_linker_0, # of connection points: 2
#     Edge 105, Type (0, 0), BuildingBlock: EZIPEK_clean_linker_0, # of connection points: 2
#     Edge 106, Type (0, 0), BuildingBlock: EZIPEK_clean_linker_0, # of connection points: 2
#     Edge 107, Type (0, 0), BuildingBlock: EZIPEK_clean_linker_0, # of connection points: 2
#     Edge 108, Type (0, 0), BuildingBlock: EZIPEK_clean_linker_0, # of connection points: 2
#     Edge 109, Type (0, 0), BuildingBlock: EZIPEK_clean_linker_0, # of connection points: 2
#     Edge 110, Type (0, 0), BuildingBlock: EZIPEK_clean_linker_0, # of connection points: 2
#     Edge 111, Type (0, 0), BuildingBlock: EZIPEK_clean_linker_0, # of connection points: 2
#     Edge 112, Type (0, 0), BuildingBlock: EZIPEK_clean_linker_0, # of connection points: 2
#     Edge 113, Type (0, 0), BuildingBlock: EZIPEK_clean_linker_0, # of connection points: 2
#     Edge 114, Type (0, 0), BuildingBlock: EZIPEK_clean_linker_0, # of connection points: 2
#     Edge 115, Type (0, 0), BuildingBlock: EZIPEK_clean_linker_0, # of connection points: 2
#     Edge 116, Type (0, 0), BuildingBlock: EZIPEK_clean_linker_0, # of connection points: 2
#     Edge 117, Type (0, 0), BuildingBlock: EZIPEK_clean_linker_0, # of connection points: 2
#     Edge 118, Type (0, 0), BuildingBlock: EZIPEK_clean_linker_0, # of connection points: 2
#     Edge 119, Type (0, 0), BuildingBlock: EZIPEK_clean_linker_0, # of connection points: 2
#     Edge 120, Type (0, 0), BuildingBlock: EZIPEK_clean_linker_0, # of connection points: 2
#     Edge 121, Type (0, 0), BuildingBlock: EZIPEK_clean_linker_0, # of connection points: 2
#     Edge 122, Type (0, 0), BuildingBlock: EZIPEK_clean_linker_0, # of connection points: 2
#     Edge 123, Type (0, 0), BuildingBlock: EZIPEK_clean_linker_0, # of connection points: 2
#     Edge 124, Type (0, 0), BuildingBlock: EZIPEK_clean_linker_0, # of connection points: 2
#     Edge 125, Type (0, 0), BuildingBlock: EZIPEK_clean_linker_0, # of connection points: 2
#     Edge 126, Type (0, 0), BuildingBlock: EZIPEK_clean_linker_0, # of connection points: 2
#     Edge 127, Type (0, 0), BuildingBlock: EZIPEK_clean_linker_0, # of connection points: 2
#     Edge 128, Type (0, 0), BuildingBlock: EZIPEK_clean_linker_0, # of connection points: 2
#     Edge 129, Type (0, 0), BuildingBlock: EZIPEK_clean_linker_0, # of connection points: 2
#     Edge 130, Type (0, 0), BuildingBlock: EZIPEK_clean_linker_0, # of connection points: 2
#     Edge 131, Type (0, 0), BuildingBlock: EZIPEK_clean_linker_0, # of connection points: 2
#     Edge 132, Type (0, 0), BuildingBlock: EZIPEK_clean_linker_0, # of connection points: 2
#     Edge 133, Type (0, 0), BuildingBlock: EZIPEK_clean_linker_0, # of connection points: 2
#     Edge 134, Type (0, 0), BuildingBlock: EZIPEK_clean_linker_0, # of connection points: 2
#     Edge 135, Type (0, 0), BuildingBlock: EZIPEK_clean_linker_0, # of connection points: 2
#     Edge 136, Type (0, 0), BuildingBlock: EZIPEK_clean_linker_0, # of connection points: 2
#     Edge 137, Type (0, 0), BuildingBlock: EZIPEK_clean_linker_0, # of connection points: 2
#     Edge 138, Type (0, 0), BuildingBlock: EZIPEK_clean_linker_0, # of connection points: 2
#     Edge 139, Type (0, 0), BuildingBlock: EZIPEK_clean_linker_0, # of connection points: 2
#     Edge 140, Type (0, 0), BuildingBlock: EZIPEK_clean_linker_0, # of connection points: 2
#     Edge 141, Type (0, 0), BuildingBlock: EZIPEK_clean_linker_0, # of connection points: 2
#     Edge 142, Type (0, 0), BuildingBlock: EZIPEK_clean_linker_0, # of connection points: 2
#     Edge 143, Type (0, 0), BuildingBlock: EZIPEK_clean_linker_0, # of connection points: 2
# Relax obj value: 0.159
# Max RMSD: 0.203
# Mean RMSD: 0.192
data_MOF--net-rho--node1-TATPOV_clean_sbu_0--edge1-EZIPEK_clean_linker_0
_symmetry_space_group_name_H-M    P1
_symmetry_Int_Tables_number       1
_symmetry_cell_setting            triclinic
loop_
_symmetry_equiv_pos_as_xyz
'x, y, z'
_cell_length_a     54.56331
_cell_length_b     54.381177
_cell_length_c     54.687186
_cell_angle_alpha  90.6725
_cell_angle_beta   89.596829
_cell_angle_gamma 88.646069
loop_
_atom_site_label
_atom_site_type_symbol
_atom_site_fract_x
_atom_site_fract_y
_atom_site_fract_z
_atom_type_partial_charge
Zn0 Zn 0.06116 0.2569 0.37879 0.0
Zn1 Zn 0.08605 0.21564 0.36611 0.0
O2 O 0.09811 0.24127 0.34141 0.0
O3 O 0.07899 0.27554 0.35326 0.0
O4 O 0.10819 0.18599 0.35896 0.0
O5 O 0.07305 0.25512 0.41332 0.0
O6 O 0.09408 0.22165 0.4025 0.0
C7 C 0.09362 0.26419 0.33881 0.0
C8 C 0.02997 0.21771 0.36317 0.0
O9 O 0.04999 0.20518 0.36084 0.0
O10 O 0.03008 0.23998 0.37009 0.0
C11 C 0.11147 0.17514 0.33845 0.0
O12 O 0.09855 0.18199 0.31943 0.0
C13 C 0.08722 0.23732 0.41878 0.0
Zn14 Zn 0.76897 0.06873 0.38908 0.0
Zn15 Zn 0.72696 0.07831 0.36652 0.0
O16 O 0.75156 0.10326 0.35203 0.0
O17 O 0.78629 0.09484 0.37081 0.0
O18 O 0.69694 0.08241 0.3451 0.0
O19 O 0.77066 0.03323 0.37843 0.0
O20 O 0.7339 0.04067 0.36346 0.0
C21 C 0.77408 0.1077 0.35589 0.0
C22 C 0.7285 0.08476 0.42139 0.0
O23 O 0.71594 0.08684 0.4019 0.0
O24 O 0.75076 0.07761 0.42047 0.0
C25 C 0.6882 0.10261 0.33702 0.0
O26 O 0.69844 0.12344 0.34296 0.0
C27 C 0.75129 0.02557 0.36867 0.0
Zn28 Zn 0.89373 0.68363 0.38196 0.0
Zn29 Zn 0.86729 0.72398 0.36877 0.0
O30 O 0.85785 0.6972 0.34349 0.0
O31 O 0.8776 0.66366 0.3557 0.0
O32 O 0.84379 0.75263 0.36269 0.0
O33 O 0.88059 0.68585 0.41645 0.0
O34 O 0.85908 0.71844 0.40504 0.0
C35 C 0.8633 0.67435 0.3409 0.0
C36 C 0.92307 0.72506 0.36726 0.0
O37 O 0.90256 0.73638 0.36436 0.0
O38 O 0.92392 0.70286 0.37401 0.0
C39 C 0.84903 0.77464 0.35752 0.0
O40 O 0.87194 0.78048 0.35372 0.0
C41 C 0.8659 0.70353 0.42156 0.0
Zn42 Zn 0.18419 0.88201 0.39336 0.0
Zn43 Zn 0.22585 0.86982 0.37102 0.0
O44 O 0.19996 0.84539 0.35785 0.0
O45 O 0.16524 0.85641 0.37614 0.0
O46 O 0.25508 0.86252 0.34854 0.0
O47 O 0.1837 0.91691 0.3823 0.0
O48 O 0.22051 0.90766 0.36764 0.0
C49 C 0.17717 0.84219 0.36177 0.0
C50 C 0.22351 0.86486 0.4257 0.0
O51 O 0.23638 0.86172 0.40628 0.0
O52 O 0.20167 0.87318 0.42468 0.0
C53 C 0.27283 0.87714 0.34664 0.0
O54 O 0.27326 0.89691 0.36066 0.0
C55 C 0.20352 0.92353 0.37257 0.0
Zn56 Zn 0.06176 0.76377 0.55796 0.0
Zn57 Zn 0.07553 0.72353 0.58195 0.0
O58 O 0.10013 0.74939 0.5936 0.0
O59 O 0.08612 0.78364 0.577 0.0
O60 O 0.0835 0.69377 0.60282 0.0
O61 O 0.02629 0.76012 0.56734 0.0
O62 O 0.03876 0.72966 0.59041 0.0
C63 C 0.10175 0.77242 0.59006 0.0
C64 C 0.08016 0.72486 0.52618 0.0
O65 O 0.0817 0.71237 0.54578 0.0
O66 O 0.07311 0.74718 0.52687 0.0
C67 C 0.07802 0.69572 0.62544 0.0
O68 O 0.06823 0.71645 0.63385 0.0
C69 C 0.02143 0.74336 0.58235 0.0
Zn70 Zn 0.26306 0.05772 0.56727 0.0
Zn71 Zn 0.22188 0.0824 0.58126 0.0
O72 O 0.24769 0.09428 0.60602 0.0
O73 O 0.28147 0.07448 0.59395 0.0
O74 O 0.19178 0.10334 0.58942 0.0
O75 O 0.26116 0.07169 0.53345 0.0
O76 O 0.22699 0.09104 0.54494 0.0
C77 C 0.27044 0.0892 0.60859 0.0
C78 C 0.22373 0.02619 0.5819 0.0
O79 O 0.21169 0.0463 0.58565 0.0
O80 O 0.24565 0.02626 0.57419 0.0
C81 C 0.19359 0.12615 0.58514 0.0
O82 O 0.21436 0.13444 0.57668 0.0
C83 C 0.24286 0.08539 0.52851 0.0
Zn84 Zn 0.8783 0.18206 0.55077 0.0
Zn85 Zn 0.86731 0.22444 0.57363 0.0
O86 O 0.84267 0.19944 0.58755 0.0
O87 O 0.85229 0.16438 0.56883 0.0
O88 O 0.86243 0.25424 0.59596 0.0
O89 O 0.91331 0.18111 0.5616 0.0
O90 O 0.90471 0.21801 0.57683 0.0
C91 C 0.83888 0.17667 0.58366 0.0
C92 C 0.8625 0.22233 0.51876 0.0
O93 O 0.85953 0.23515 0.53831 0.0
O94 O 0.86996 0.20011 0.51964 0.0
C95 C 0.84231 0.26164 0.60573 0.0
O96 O 0.82192 0.25032 0.60073 0.0
C97 C 0.92021 0.20079 0.57167 0.0
Zn98 Zn 0.6818 0.8902 0.56581 0.0
Zn99 Zn 0.72354 0.86608 0.57834 0.0
O100 O 0.69782 0.85493 0.60354 0.0
O101 O 0.66312 0.87275 0.59199 0.0
O102 O 0.75345 0.84482 0.58572 0.0
O103 O 0.68496 0.87748 0.53113 0.0
O104 O 0.71844 0.85717 0.54202 0.0
C105 C 0.67489 0.85905 0.60655 0.0
C106 C 0.72094 0.92219 0.58059 0.0
O107 O 0.73354 0.90228 0.58293 0.0
O108 O 0.69871 0.92174 0.57417 0.0
C109 C 0.76648 0.84552 0.60487 0.0
O110 O 0.76142 0.86181 0.6222 0.0
C111 C 0.70319 0.86365 0.52565 0.0
Zn112 Zn 0.39328 0.06846 0.17927 0.0
Zn113 Zn 0.36628 0.0819 0.21905 0.0
O114 O 0.35434 0.10644 0.19327 0.0
O115 O 0.37537 0.09475 0.16036 0.0
O116 O 0.34381 0.08828 0.2477 0.0
O117 O 0.38101 0.03379 0.18094 0.0
O118 O 0.35884 0.04554 0.21298 0.0
C119 C 0.35983 0.10906 0.1708 0.0
C120 C 0.42218 0.08397 0.22074 0.0
O121 O 0.40151 0.08691 0.23156 0.0
O122 O 0.42339 0.07675 0.19866 0.0
C123 C 0.34637 0.10233 0.26616 0.0
O124 O 0.36557 0.11635 0.26778 0.0
C125 C 0.3662 0.02885 0.19799 0.0
Zn126 Zn 0.88192 0.39137 0.17584 0.0
Zn127 Zn 0.8703 0.36771 0.21604 0.0
O128 O 0.84485 0.35765 0.1894 0.0
O129 O 0.85579 0.37642 0.15564 0.0
O130 O 0.86542 0.34303 0.2433 0.0
O131 O 0.91687 0.37922 0.17433 0.0
O132 O 0.90787 0.3641 0.21034 0.0
C133 C 0.84131 0.36265 0.16689 0.0
C134 C 0.86552 0.42242 0.21786 0.0
O135 O 0.86241 0.40251 0.22947 0.0
O136 O 0.87348 0.42201 0.19602 0.0
C137 C 0.87605 0.34501 0.26386 0.0
O138 O 0.88897 0.36455 0.2686 0.0
C139 C 0.92361 0.36894 0.19385 0.0
Zn140 Zn 0.55774 0.89618 0.26257 0.0
Zn141 Zn 0.57263 0.86966 0.22355 0.0
O142 O 0.59722 0.85864 0.24956 0.0
O143 O 0.58359 0.87828 0.2826 0.0
O144 O 0.58055 0.84749 0.19464 0.0
O145 O 0.52264 0.88585 0.25839 0.0
O146 O 0.53638 0.86111 0.22928 0.0
C147 C 0.59923 0.86404 0.27215 0.0
C148 C 0.5759 0.92573 0.22328 0.0
O149 O 0.57851 0.90529 0.21173 0.0
O150 O 0.56794 0.92644 0.24506 0.0
C151 C 0.6016 0.84053 0.18678 0.0
O152 O 0.62147 0.84828 0.19756 0.0
C153 C 0.51858 0.86969 0.24217 0.0
Zn154 Zn 0.05284 0.56727 0.26876 0.0
Zn155 Zn 0.07875 0.57761 0.22789 0.0
O156 O 0.08932 0.60401 0.25332 0.0
O157 O 0.06937 0.59434 0.28703 0.0
O158 O 0.09998 0.58228 0.19761 0.0
O159 O 0.06589 0.53237 0.26885 0.0
O160 O 0.08614 0.54092 0.2351 0.0
C161 C 0.08398 0.60804 0.27582 0.0
C162 C 0.02282 0.58078 0.22715 0.0
O163 O 0.04324 0.5829 0.21597 0.0
O164 O 0.02214 0.57475 0.24943 0.0
C165 C 0.12204 0.58928 0.19869 0.0
O166 O 0.13138 0.5954 0.2199 0.0
C167 C 0.07974 0.52559 0.25128 0.0
Zn168 Zn 0.3862 0.89053 0.67344 0.0
Zn169 Zn 0.37607 0.86911 0.71556 0.0
O170 O 0.34886 0.85823 0.69108 0.0
O171 O 0.35807 0.87556 0.65602 0.0
O172 O 0.37324 0.84559 0.74417 0.0
O173 O 0.42053 0.8766 0.67014 0.0
O174 O 0.41308 0.86447 0.70762 0.0
C175 C 0.34411 0.86242 0.66863 0.0
C176 C 0.37382 0.92395 0.71522 0.0
O177 O 0.37012 0.90472 0.72775 0.0
O178 O 0.38061 0.92226 0.69303 0.0
C179 C 0.36643 0.85012 0.76609 0.0
O180 O 0.35883 0.8724 0.77243 0.0
C181 C 0.42807 0.86762 0.69001 0.0
Zn182 Zn 0.06369 0.39459 0.76636 0.0
Zn183 Zn 0.07666 0.36696 0.72732 0.0
O184 O 0.10171 0.3552 0.75235 0.0
O185 O 0.08988 0.37583 0.78546 0.0
O186 O 0.0822 0.34435 0.69858 0.0
O187 O 0.02795 0.38535 0.76321 0.0
O188 O 0.04037 0.36007 0.73394 0.0
C189 C 0.10467 0.36086 0.77474 0.0
C190 C 0.08153 0.42264 0.72556 0.0
O191 O 0.08325 0.4019 0.71447 0.0
O192 O 0.07432 0.42409 0.74758 0.0
C193 C 0.09702 0.34647 0.68077 0.0
O194 O 0.11213 0.3649 0.68024 0.0
C195 C 0.02308 0.36937 0.74706 0.0
Zn196 Zn 0.55331 0.06829 0.76536 0.0
Zn197 Zn 0.58286 0.07708 0.7261 0.0
O198 O 0.59399 0.10234 0.75209 0.0
O199 O 0.57068 0.0947 0.7842 0.0
O200 O 0.60678 0.08015 0.69764 0.0
O201 O 0.56428 0.03265 0.76556 0.0
O202 O 0.58786 0.04031 0.7338 0.0
C203 C 0.58717 0.10708 0.77405 0.0
C204 C 0.52709 0.08433 0.72234 0.0
O205 O 0.54839 0.08534 0.71267 0.0
O206 O 0.52446 0.07788 0.74436 0.0
C207 C 0.60091 0.08266 0.6753 0.0
O208 O 0.57774 0.08513 0.66929 0.0
C209 C 0.57925 0.02527 0.74914 0.0
Zn210 Zn 0.88981 0.56559 0.68247 0.0
Zn211 Zn 0.86787 0.58077 0.72364 0.0
O212 O 0.85328 0.60453 0.69828 0.0
O213 O 0.87204 0.59258 0.6642 0.0
O214 O 0.8479 0.58847 0.75393 0.0
O215 O 0.87697 0.53143 0.68459 0.0
O216 O 0.86073 0.54364 0.71975 0.0
C217 C 0.8574 0.60717 0.67553 0.0
C218 C 0.92345 0.58277 0.71981 0.0
O219 O 0.90398 0.58828 0.73195 0.0
O220 O 0.92191 0.57253 0.69895 0.0
C221 C 0.83969 0.60937 0.76122 0.0
O222 O 0.84491 0.62928 0.74908 0.0
C223 C 0.86532 0.5267 0.70396 0.0
Zn224 Zn 0.17496 0.39172 0.0648 0.0
Zn225 Zn 0.21792 0.37041 0.0793 0.0
O226 O 0.19264 0.35767 0.10385 0.0
O227 O 0.15738 0.37372 0.09146 0.0
O228 O 0.24933 0.35223 0.0874 0.0
O229 O 0.17986 0.37756 0.0307 0.0
O230 O 0.21456 0.36062 0.04316 0.0
C231 C 0.16952 0.3607 0.10635 0.0
C232 C 0.21193 0.42617 0.08027 0.0
O233 O 0.22528 0.407 0.08373 0.0
O234 O 0.1902 0.42449 0.07252 0.0
C235 C 0.24898 0.32908 0.08416 0.0
O236 O 0.22859 0.31885 0.07715 0.0
C237 C 0.1993 0.36511 0.02622 0.0
Zn238 Zn 0.27066 0.56602 0.89088 0.0
Zn239 Zn 0.22892 0.57403 0.86736 0.0
O240 O 0.25266 0.60008 0.85349 0.0
O241 O 0.28729 0.5928 0.87294 0.0
O242 O 0.19905 0.57701 0.84568 0.0
O243 O 0.27417 0.53062 0.88025 0.0
O244 O 0.23747 0.53655 0.86458 0.0
C245 C 0.2749 0.60529 0.85787 0.0
C246 C 0.22894 0.58123 0.92203 0.0
O247 O 0.21689 0.58279 0.9022 0.0
O248 O 0.25134 0.57453 0.92179 0.0
C249 C 0.18869 0.59705 0.83912 0.0
O250 O 0.1972 0.61817 0.84674 0.0
C251 C 0.25534 0.52214 0.87013 0.0
Zn252 Zn 0.39799 0.18518 0.87927 0.0
Zn253 Zn 0.37434 0.2267 0.86475 0.0
O254 O 0.36509 0.20014 0.83898 0.0
O255 O 0.38291 0.16587 0.85198 0.0
O256 O 0.35269 0.25659 0.85738 0.0
O257 O 0.38275 0.18745 0.91287 0.0
O258 O 0.36441 0.22167 0.90078 0.0
C259 C 0.36984 0.17713 0.83651 0.0
C260 C 0.43009 0.2252 0.86609 0.0
O261 O 0.41035 0.23743 0.86185 0.0
O262 O 0.42945 0.20316 0.87325 0.0
C263 C 0.34314 0.2622 0.83698 0.0
O264 O 0.34845 0.24888 0.81738 0.0
C265 C 0.36915 0.20611 0.91742 0.0
Zn266 Zn 0.68545 0.38463 0.88803 0.0
Zn267 Zn 0.72755 0.3735 0.86676 0.0
O268 O 0.70298 0.34741 0.85409 0.0
O269 O 0.66767 0.35764 0.87161 0.0
O270 O 0.75705 0.36772 0.84433 0.0
O271 O 0.68338 0.41933 0.87634 0.0
O272 O 0.72087 0.41116 0.86297 0.0
C273 C 0.68035 0.3433 0.85799 0.0
C274 C 0.72489 0.36964 0.92135 0.0
O275 O 0.73814 0.36637 0.9022 0.0
O276 O 0.70286 0.37732 0.91978 0.0
C277 C 0.76811 0.34709 0.84103 0.0
O278 O 0.76152 0.32797 0.85374 0.0
C279 C 0.70325 0.42653 0.86716 0.0
Zn280 Zn 0.55486 0.75876 0.88069 0.0
Zn281 Zn 0.58038 0.71735 0.86842 0.0
O282 O 0.59477 0.74289 0.84513 0.0
O283 O 0.57376 0.7767 0.85501 0.0
O284 O 0.60168 0.68697 0.86206 0.0
O285 O 0.56624 0.75705 0.91548 0.0
O286 O 0.58617 0.72266 0.9054 0.0
C287 C 0.58975 0.76559 0.84182 0.0
C288 C 0.52448 0.72013 0.8621 0.0
O289 O 0.54482 0.70824 0.85946 0.0
O290 O 0.52394 0.74172 0.87105 0.0
C291 C 0.60667 0.67761 0.84116 0.0
O292 O 0.59644 0.68688 0.82153 0.0
C293 C 0.57951 0.73873 0.92139 0.0
Zn294 Zn 0.76055 0.56033 0.06675 0.0
Zn295 Zn 0.71972 0.58637 0.07851 0.0
O296 O 0.74481 0.59732 0.10449 0.0
O297 O 0.77888 0.5775 0.09329 0.0
O298 O 0.69009 0.60853 0.0854 0.0
O299 O 0.75983 0.57248 0.03223 0.0
O300 O 0.72682 0.59451 0.04232 0.0
C301 C 0.76746 0.59213 0.10772 0.0
C302 C 0.71994 0.53016 0.08038 0.0
O303 O 0.70813 0.55061 0.08264 0.0
O304 O 0.74238 0.52955 0.07436 0.0
C305 C 0.67908 0.61085 0.10588 0.0
O306 O 0.68626 0.59759 0.12454 0.0
C307 C 0.74259 0.58715 0.02638 0.0
Zn308 Zn 0.38188 0.6891 0.04525 0.0
Zn309 Zn 0.36735 0.72923 0.07085 0.0
O310 O 0.34268 0.70362 0.0818 0.0
O311 O 0.35611 0.66971 0.06319 0.0
O312 O 0.35934 0.75844 0.09277 0.0
O313 O 0.41688 0.69261 0.05655 0.0
O314 O 0.40333 0.72265 0.08046 0.0
C315 C 0.34074 0.68077 0.07716 0.0
C316 C 0.3655 0.72926 0.01482 0.0
O317 O 0.36282 0.74114 0.03499 0.0
O318 O 0.37245 0.70689 0.01461 0.0
C319 C 0.33837 0.76505 0.1011 0.0
O320 O 0.3188 0.75301 0.09471 0.0
C321 C 0.42099 0.70899 0.07254 0.0
Zn322 Zn 0.56648 0.26024 0.05623 0.0
Zn323 Zn 0.58047 0.2217 0.08211 0.0
O324 O 0.604 0.2492 0.09272 0.0
O325 O 0.58938 0.28222 0.07432 0.0
O326 O 0.58899 0.19378 0.1053 0.0
O327 O 0.53103 0.25678 0.06482 0.0
O328 O 0.54315 0.22709 0.08911 0.0
C329 C 0.60502 0.27211 0.08816 0.0
C330 C 0.58672 0.2205 0.02659 0.0
O331 O 0.5881 0.20882 0.0467 0.0
O332 O 0.57896 0.24259 0.02624 0.0
C333 C 0.57982 0.1726 0.10293 0.0
O334 O 0.56572 0.16799 0.08414 0.0
C335 C 0.52594 0.24042 0.08016 0.0
Zn336 Zn 0.88545 0.68422 0.56538 0.0
Zn337 Zn 0.86385 0.72609 0.57871 0.0
O338 O 0.84862 0.70109 0.60233 0.0
O339 O 0.86779 0.66646 0.59183 0.0
O340 O 0.84392 0.75739 0.58521 0.0
O341 O 0.87326 0.6848 0.53113 0.0
O342 O 0.85821 0.72146 0.54134 0.0
C343 C 0.85274 0.6782 0.60556 0.0
C344 C 0.91926 0.72077 0.58295 0.0
O345 O 0.89984 0.73349 0.58779 0.0
O346 O 0.91766 0.6999 0.57261 0.0
C347 C 0.84026 0.76758 0.60599 0.0
O348 O 0.85092 0.75845 0.62546 0.0
C349 C 0.86257 0.7047 0.52526 0.0
Zn350 Zn 0.17901 0.88232 0.55665 0.0
Zn351 Zn 0.22016 0.8721 0.58054 0.0
O352 O 0.19484 0.84758 0.59438 0.0
O353 O 0.16096 0.85632 0.57423 0.0
O354 O 0.24993 0.86761 0.60227 0.0
O355 O 0.17727 0.91763 0.56764 0.0
O356 O 0.21346 0.90979 0.58374 0.0
C357 C 0.17243 0.84339 0.58964 0.0
C358 C 0.21994 0.86539 0.52555 0.0
O359 O 0.23179 0.86302 0.54544 0.0
O360 O 0.19789 0.87323 0.52574 0.0
C361 C 0.25827 0.84738 0.61067 0.0
O362 O 0.24754 0.8267 0.60515 0.0
C363 C 0.19632 0.92504 0.57819 0.0
Zn364 Zn 0.05243 0.26941 0.556 0.0
Zn365 Zn 0.07576 0.23012 0.5751 0.0
O366 O 0.08404 0.25859 0.59886 0.0
O367 O 0.06698 0.29115 0.58156 0.0
O368 O 0.09624 0.20098 0.58619 0.0
O369 O 0.06839 0.2642 0.52322 0.0
O370 O 0.08701 0.23179 0.53902 0.0
C371 C 0.07933 0.28167 0.59869 0.0
C372 C 0.02022 0.23107 0.5726 0.0
O373 O 0.03996 0.21959 0.57831 0.0
O374 O 0.02078 0.25215 0.56305 0.0
C375 C 0.11931 0.20266 0.58369 0.0
O376 O 0.12838 0.22321 0.5756 0.0
C377 C 0.0825 0.24556 0.52085 0.0
Zn378 Zn 0.76506 0.06584 0.55438 0.0
Zn379 Zn 0.72277 0.07684 0.57646 0.0
O380 O 0.74762 0.10175 0.59039 0.0
O381 O 0.78267 0.09232 0.57205 0.0
O382 O 0.69311 0.08369 0.59831 0.0
O383 O 0.76602 0.03094 0.56589 0.0
O384 O 0.72895 0.03919 0.58041 0.0
C385 C 0.77022 0.10591 0.58662 0.0
C386 C 0.72574 0.08215 0.52168 0.0
O387 O 0.71271 0.08497 0.54103 0.0
O388 O 0.74772 0.07422 0.52283 0.0
C389 C 0.67502 0.06941 0.59932 0.0
O390 O 0.67447 0.05013 0.58466 0.0
C391 C 0.74644 0.0238 0.57574 0.0
Zn392 Zn 0.88424 0.18074 0.38667 0.0
Zn393 Zn 0.87585 0.22297 0.36383 0.0
O394 O 0.84997 0.1985 0.35028 0.0
O395 O 0.85798 0.16348 0.36882 0.0
O396 O 0.87046 0.25321 0.34217 0.0
O397 O 0.91935 0.17744 0.37611 0.0
O398 O 0.91336 0.21432 0.36074 0.0
C399 C 0.8451 0.17602 0.35422 0.0
C400 C 0.86849 0.22161 0.41872 0.0
O401 O 0.86723 0.23423 0.39922 0.0
O402 O 0.87533 0.19919 0.41795 0.0
C403 C 0.88782 0.2648 0.33214 0.0
O404 O 0.91064 0.25789 0.33609 0.0
C405 C 0.92774 0.19631 0.36604 0.0
Zn406 Zn 0.68249 0.89427 0.38454 0.0
Zn407 Zn 0.72262 0.86872 0.36894 0.0
O408 O 0.69544 0.85871 0.34477 0.0
O409 O 0.66232 0.87867 0.35842 0.0
O410 O 0.75172 0.84695 0.35899 0.0
O411 O 0.68513 0.87988 0.41808 0.0
O412 O 0.71843 0.85968 0.40538 0.0
C413 C 0.67268 0.86428 0.34303 0.0
C414 C 0.72236 0.92484 0.36871 0.0
O415 O 0.73379 0.90447 0.36452 0.0
O416 O 0.70069 0.92527 0.37715 0.0
C417 C 0.77187 0.84888 0.37029 0.0
O418 O 0.77392 0.86596 0.3873 0.0
C419 C 0.70317 0.8656 0.42234 0.0
Zn420 Zn 0.06591 0.76904 0.39606 0.0
Zn421 Zn 0.07528 0.7271 0.37179 0.0
O422 O 0.10067 0.75137 0.35812 0.0
O423 O 0.09304 0.78587 0.37858 0.0
O424 O 0.07957 0.69748 0.34935 0.0
O425 O 0.03097 0.77165 0.38453 0.0
O426 O 0.03807 0.73487 0.36839 0.0
C427 C 0.10569 0.77366 0.36302 0.0
C428 C 0.08094 0.7274 0.42666 0.0
O429 O 0.08338 0.71531 0.40663 0.0
O430 O 0.07374 0.74974 0.42671 0.0
C431 C 0.09991 0.68935 0.34066 0.0
O432 O 0.12042 0.69987 0.34678 0.0
C433 C 0.02325 0.75262 0.37385 0.0
Zn434 Zn 0.26963 0.05656 0.38895 0.0
Zn435 Zn 0.23023 0.08055 0.37178 0.0
O436 O 0.258 0.08956 0.34756 0.0
O437 O 0.29091 0.07259 0.36422 0.0
O438 O 0.20046 0.10105 0.362 0.0
O439 O 0.26465 0.07039 0.42271 0.0
O440 O 0.23306 0.09126 0.4081 0.0
C441 C 0.28109 0.08518 0.34746 0.0
C442 C 0.232 0.02444 0.37171 0.0
O443 O 0.22 0.04441 0.3678 0.0
O444 O 0.25349 0.02477 0.38022 0.0
C445 C 0.19287 0.10527 0.3405 0.0
O446 O 0.2045 0.09543 0.32155 0.0
C447 C 0.2467 0.08521 0.42597 0.0
Zn448 Zn 0.55473 0.87834 0.76625 0.0
Zn449 Zn 0.58251 0.8678 0.72628 0.0
O450 O 0.59476 0.84241 0.75136 0.0
O451 O 0.57248 0.85134 0.78424 0.0
O452 O 0.60522 0.86237 0.6975 0.0
O453 O 0.56615 0.91335 0.76709 0.0
O454 O 0.58759 0.9046 0.73367 0.0
C455 C 0.58872 0.83816 0.77342 0.0
C456 C 0.52704 0.86372 0.72343 0.0
O457 O 0.54799 0.86141 0.71306 0.0
O458 O 0.52518 0.87042 0.74564 0.0
C459 C 0.61221 0.84171 0.68849 0.0
O460 O 0.60443 0.82121 0.69798 0.0
C461 C 0.58005 0.92002 0.74992 0.0
Zn462 Zn 0.06529 0.55168 0.76536 0.0
Zn463 Zn 0.07937 0.57726 0.72656 0.0
O464 O 0.10443 0.58666 0.75312 0.0
O465 O 0.09003 0.56923 0.78634 0.0
O466 O 0.08661 0.59886 0.6975 0.0
O467 O 0.02988 0.56242 0.76132 0.0
O468 O 0.04286 0.58675 0.73255 0.0
C469 C 0.10592 0.58219 0.77593 0.0
C470 C 0.08316 0.52126 0.72509 0.0
O471 O 0.08481 0.5415 0.71371 0.0
O472 O 0.07632 0.521 0.74724 0.0
C473 C 0.08345 0.62197 0.70029 0.0
O474 O 0.07724 0.63089 0.72194 0.0
C475 C 0.02533 0.57846 0.74529 0.0
Zn476 Zn 0.38995 0.057 0.67474 0.0
Zn477 Zn 0.38038 0.08059 0.71719 0.0
O478 O 0.35242 0.09264 0.69484 0.0
O479 O 0.36086 0.07416 0.65958 0.0
O480 O 0.37599 0.10192 0.74751 0.0
O481 O 0.42381 0.07072 0.67203 0.0
O482 O 0.41581 0.08905 0.70704 0.0
C483 C 0.34719 0.08822 0.67259 0.0
C484 C 0.37863 0.02476 0.71532 0.0
O485 O 0.3762 0.04454 0.72797 0.0
O486 O 0.38451 0.0254 0.6929 0.0
C487 C 0.35579 0.11149 0.75509 0.0
O488 O 0.33533 0.10677 0.74364 0.0
C489 C 0.4305 0.08481 0.68914 0.0
Zn490 Zn 0.88797 0.38258 0.68192 0.0
Zn491 Zn 0.86602 0.36863 0.72245 0.0
O492 O 0.85375 0.34407 0.69583 0.0
O493 O 0.87262 0.35576 0.66223 0.0
O494 O 0.84512 0.36269 0.75263 0.0
O495 O 0.8742 0.4169 0.68266 0.0
O496 O 0.85939 0.40623 0.71845 0.0
C497 C 0.85851 0.34124 0.67304 0.0
C498 C 0.92138 0.36612 0.72039 0.0
O499 O 0.90195 0.36072 0.73206 0.0
O500 O 0.91979 0.37598 0.69955 0.0
C501 C 0.83864 0.34214 0.76108 0.0
O502 O 0.84629 0.32157 0.7504 0.0
C503 C 0.86323 0.42258 0.70241 0.0
Zn504 Zn 0.56447 0.05585 0.26893 0.0
Zn505 Zn 0.5744 0.08002 0.22813 0.0
O506 O 0.60044 0.09112 0.2537 0.0
O507 O 0.59124 0.07176 0.28767 0.0
O508 O 0.57796 0.10375 0.19986 0.0
O509 O 0.52947 0.06807 0.27137 0.0
O510 O 0.53706 0.08384 0.2353 0.0
C511 C 0.6048 0.08618 0.27607 0.0
C512 C 0.57938 0.02503 0.22632 0.0
O513 O 0.58186 0.04508 0.21482 0.0
O514 O 0.57238 0.02517 0.24848 0.0
C515 C 0.58855 0.09963 0.17936 0.0
O516 O 0.59961 0.07829 0.17506 0.0
C517 C 0.52195 0.07872 0.25231 0.0
Zn518 Zn 0.8803 0.55509 0.17964 0.0
Zn519 Zn 0.87071 0.57771 0.22218 0.0
O520 O 0.84512 0.59263 0.19833 0.0
O521 O 0.85284 0.57343 0.16334 0.0
O522 O 0.86672 0.59935 0.25222 0.0
O523 O 0.91507 0.56662 0.17793 0.0
O524 O 0.90781 0.5809 0.21516 0.0
C525 C 0.84003 0.58861 0.17595 0.0
C526 C 0.86556 0.52281 0.21961 0.0
O527 O 0.86283 0.54243 0.23243 0.0
O528 O 0.87289 0.52363 0.1976 0.0
C529 C 0.84653 0.60812 0.26066 0.0
O530 O 0.82579 0.60244 0.25023 0.0
C531 C 0.92269 0.57624 0.19754 0.0
Zn532 Zn 0.38503 0.88346 0.17699 0.0
Zn533 Zn 0.36184 0.87125 0.21769 0.0
O534 O 0.34901 0.84697 0.19128 0.0
O535 O 0.3685 0.85734 0.15758 0.0
O536 O 0.33936 0.86662 0.2471 0.0
O537 O 0.37295 0.91827 0.17723 0.0
O538 O 0.35655 0.90882 0.21271 0.0
C539 C 0.35373 0.84364 0.16855 0.0
C540 C 0.41725 0.86629 0.21606 0.0
O541 O 0.3975 0.86226 0.22786 0.0
O542 O 0.41626 0.87549 0.19489 0.0
C543 C 0.34584 0.86526 0.26937 0.0
O544 O 0.3692 0.8649 0.27493 0.0
C545 C 0.36158 0.92469 0.19655 0.0
Zn546 Zn 0.05374 0.37915 0.26795 0.0
Zn547 Zn 0.07908 0.36856 0.2264 0.0
O548 O 0.09203 0.34246 0.25007 0.0
O549 O 0.07283 0.35193 0.28465 0.0
O550 O 0.09991 0.36273 0.19649 0.0
O551 O 0.06514 0.41429 0.2672 0.0
O552 O 0.08652 0.40474 0.23398 0.0
C553 C 0.08771 0.33829 0.27251 0.0
C554 C 0.02329 0.36546 0.227 0.0
O555 O 0.04352 0.36377 0.21522 0.0
O556 O 0.02284 0.37122 0.2495 0.0
C557 C 0.10722 0.342 0.18791 0.0
O558 O 0.10065 0.32159 0.19847 0.0
C559 C 0.07918 0.42053 0.24994 0.0
Zn560 Zn 0.76912 0.56001 0.88246 0.0
Zn561 Zn 0.7272 0.58397 0.86964 0.0
O562 O 0.75318 0.59596 0.8451 0.0
O563 O 0.78772 0.57755 0.85629 0.0
O564 O 0.69703 0.60477 0.86216 0.0
O565 O 0.76611 0.57324 0.91702 0.0
O566 O 0.73169 0.59203 0.90625 0.0
C567 C 0.7761 0.59174 0.84207 0.0
C568 C 0.73007 0.528 0.8666 0.0
O569 O 0.71758 0.54791 0.86394 0.0
O570 O 0.75202 0.52841 0.87396 0.0
C571 C 0.68419 0.60349 0.84291 0.0
O572 O 0.68987 0.58722 0.82575 0.0
C573 C 0.74737 0.58635 0.92252 0.0
Zn574 Zn 0.67781 0.38583 0.05242 0.0
Zn575 Zn 0.71924 0.37665 0.07643 0.0
O576 O 0.6946 0.35143 0.08999 0.0
O577 O 0.66058 0.35891 0.06963 0.0
O578 O 0.74887 0.372 0.09824 0.0
O579 O 0.67521 0.42099 0.06413 0.0
O580 O 0.71161 0.41415 0.08021 0.0
C581 C 0.67244 0.34638 0.08508 0.0
C582 C 0.71944 0.37054 0.02138 0.0
O583 O 0.73122 0.36831 0.04133 0.0
O584 O 0.69718 0.37773 0.0215 0.0
C585 C 0.75765 0.3513 0.105 0.0
O586 O 0.74762 0.33089 0.09744 0.0
C587 C 0.69399 0.42892 0.07479 0.0
Zn588 Zn 0.55754 0.76794 0.06399 0.0
Zn589 Zn 0.57804 0.72621 0.07887 0.0
O590 O 0.59118 0.7526 0.10279 0.0
O591 O 0.57339 0.78721 0.09087 0.0
O592 O 0.59828 0.69557 0.08637 0.0
O593 O 0.57149 0.76553 0.03014 0.0
O594 O 0.58483 0.72895 0.04163 0.0
C595 C 0.58711 0.77567 0.10557 0.0
C596 C 0.52288 0.73109 0.08032 0.0
O597 O 0.54188 0.71847 0.08627 0.0
O598 O 0.52521 0.75179 0.07024 0.0
C599 C 0.60524 0.6889 0.10745 0.0
O600 O 0.59795 0.70152 0.12691 0.0
C601 C 0.58157 0.74495 0.02502 0.0
Zn602 Zn 0.26275 0.56629 0.05527 0.0
Zn603 Zn 0.22163 0.58092 0.07671 0.0
O604 O 0.24801 0.60569 0.08803 0.0
O605 O 0.28243 0.59253 0.07045 0.0
O606 O 0.19237 0.589 0.09887 0.0
O607 O 0.26276 0.53207 0.06802 0.0
O608 O 0.22596 0.54322 0.08137 0.0
C609 C 0.27084 0.60815 0.08362 0.0
C610 C 0.22393 0.58281 0.02202 0.0
O611 O 0.2112 0.58763 0.04121 0.0
O612 O 0.24541 0.57361 0.02353 0.0
C613 C 0.19391 0.58137 0.12074 0.0
O614 O 0.21381 0.56934 0.12757 0.0
C615 C 0.24251 0.52663 0.07764 0.0
Zn616 Zn 0.38881 0.18427 0.05906 0.0
Zn617 Zn 0.36812 0.22647 0.0744 0.0
O618 O 0.35259 0.20141 0.09705 0.0
O619 O 0.36982 0.16641 0.0849 0.0
O620 O 0.34933 0.25767 0.08321 0.0
O621 O 0.37649 0.18789 0.0249 0.0
O622 O 0.36073 0.22347 0.03733 0.0
C623 C 0.35544 0.17829 0.09925 0.0
C624 C 0.42349 0.21926 0.07816 0.0
O625 O 0.40438 0.2324 0.08311 0.0
O626 O 0.42143 0.19868 0.06734 0.0
C627 C 0.32668 0.25695 0.07808 0.0
O628 O 0.31792 0.23695 0.0681 0.0
C629 C 0.36508 0.20777 0.02028 0.0
Zn630 Zn 0.18866 0.39174 0.88384 0.0
Zn631 Zn 0.22843 0.3646 0.87061 0.0
O632 O 0.20192 0.35425 0.84577 0.0
O633 O 0.16889 0.3752 0.85816 0.0
O634 O 0.25763 0.34195 0.86273 0.0
O635 O 0.19001 0.37918 0.91806 0.0
O636 O 0.22211 0.35628 0.90692 0.0
C637 C 0.17927 0.3601 0.84347 0.0
C638 C 0.22923 0.42096 0.86855 0.0
O639 O 0.2405 0.40023 0.86591 0.0
O640 O 0.2071 0.4221 0.8756 0.0
C641 C 0.26765 0.33893 0.84182 0.0
O642 O 0.25952 0.35153 0.82309 0.0
C643 C 0.20686 0.36382 0.92327 0.0
Zn644 Zn 0.57403 0.26555 0.89794 0.0
Zn645 Zn 0.58342 0.22389 0.87292 0.0
O646 O 0.60822 0.24865 0.85882 0.0
O647 O 0.60065 0.28274 0.88002 0.0
O648 O 0.58754 0.19401 0.85077 0.0
O649 O 0.53902 0.26785 0.88654 0.0
O650 O 0.54618 0.23151 0.86945 0.0
C651 C 0.61297 0.27099 0.86387 0.0
C652 C 0.58945 0.22372 0.92791 0.0
O653 O 0.59175 0.21197 0.90768 0.0
O654 O 0.58225 0.24605 0.92836 0.0
C655 C 0.60671 0.18806 0.8385 0.0
O656 O 0.62639 0.2014 0.84019 0.0
C657 C 0.53134 0.24913 0.87529 0.0
Zn658 Zn 0.38323 0.68536 0.88629 0.0
Zn659 Zn 0.37342 0.72485 0.86001 0.0
O660 O 0.34693 0.69993 0.84919 0.0
O661 O 0.35611 0.66695 0.87064 0.0
O662 O 0.36703 0.75388 0.83741 0.0
O663 O 0.41759 0.68195 0.87351 0.0
O664 O 0.40992 0.71486 0.85202 0.0
C665 C 0.3426 0.67786 0.85531 0.0
C666 C 0.36958 0.72759 0.91599 0.0
O667 O 0.36762 0.73851 0.89551 0.0
O668 O 0.37604 0.70513 0.9168 0.0
C669 C 0.37912 0.77358 0.83869 0.0
O670 O 0.39589 0.77588 0.85564 0.0
C671 C 0.42469 0.6974 0.85806 0.0
C672 C 0.11303 0.31988 0.30551 0.0
C673 C 0.09845 0.31639 0.28451 0.0
C674 C 0.09493 0.27278 0.29422 0.0
C675 C 0.10356 0.27808 0.318 0.0
N676 N 0.12526 0.3045 0.3453 0.0
N677 N 0.07654 0.28926 0.25752 0.0
C678 C 0.11456 0.30088 0.32309 0.0
C679 C 0.09034 0.29257 0.27801 0.0
N680 N 0.12491 0.34152 0.30862 0.0
N681 N 0.09055 0.24905 0.28744 0.0
H682 H 0.07306 0.30311 0.24494 0.0
H683 H 0.06739 0.27311 0.2536 0.0
H684 H 0.09423 0.23423 0.29885 0.0
H685 H 0.08599 0.24379 0.26971 0.0
H686 H 0.13704 0.34494 0.32278 0.0
H687 H 0.12403 0.35545 0.29565 0.0
H688 H 0.13136 0.32141 0.35159 0.0
H689 H 0.12759 0.2902 0.35773 0.0
C690 C 0.67112 0.0901 0.29648 0.0
C691 C 0.66762 0.10221 0.31941 0.0
C692 C 0.62444 0.11049 0.30938 0.0
C693 C 0.6271 0.09503 0.28842 0.0
N694 N 0.65254 0.06844 0.26266 0.0
N695 N 0.64087 0.12316 0.34856 0.0
C696 C 0.65041 0.08467 0.2819 0.0
C697 C 0.64433 0.11256 0.32597 0.0
N698 N 0.69434 0.08421 0.28846 0.0
N699 N 0.60289 0.12331 0.31322 0.0
H700 H 0.65499 0.12513 0.36113 0.0
H701 H 0.62375 0.1285 0.35556 0.0
H702 H 0.58815 0.12218 0.30122 0.0
H703 H 0.60037 0.13666 0.32686 0.0
H704 H 0.6983 0.07764 0.27088 0.0
H705 H 0.70993 0.08813 0.29859 0.0
H706 H 0.66833 0.05787 0.25899 0.0
H707 H 0.638 0.06421 0.25121 0.0
C708 C 0.83972 0.63968 0.32305 0.0
C709 C 0.8548 0.66023 0.3194 0.0
C710 C 0.85867 0.64952 0.27587 0.0
C711 C 0.84697 0.62699 0.28039 0.0
N712 N 0.82705 0.59971 0.30826 0.0
N713 N 0.88054 0.68389 0.29284 0.0
C714 C 0.83734 0.62194 0.30391 0.0
C715 C 0.86452 0.66517 0.29586 0.0
N716 N 0.82749 0.63737 0.34478 0.0
N717 N 0.86377 0.65615 0.25236 0.0
H718 H 0.88525 0.69597 0.30689 0.0
H719 H 0.89059 0.68639 0.27684 0.0
H720 H 0.85948 0.64522 0.23725 0.0
H721 H 0.87001 0.67343 0.24768 0.0
H722 H 0.81442 0.62412 0.34792 0.0
H723 H 0.82883 0.65022 0.35901 0.0
H724 H 0.82225 0.59375 0.32563 0.0
H725 H 0.82475 0.58642 0.29462 0.0
C726 C 0.31299 0.89017 0.29126 0.0
C727 C 0.32705 0.86793 0.2891 0.0
C728 C 0.30682 0.85226 0.32588 0.0
C729 C 0.2913 0.87361 0.3267 0.0
N730 N 0.27612 0.91044 0.30709 0.0
N731 N 0.33517 0.82635 0.30203 0.0
C732 C 0.29342 0.8919 0.30853 0.0
C733 C 0.32338 0.84855 0.30579 0.0
N734 N 0.31894 0.91005 0.27752 0.0
N735 N 0.3064 0.83601 0.34475 0.0
H736 H 0.34749 0.82307 0.28762 0.0
H737 H 0.3313 0.81066 0.31193 0.0
H738 H 0.2946 0.83815 0.35975 0.0
H739 H 0.31905 0.82152 0.34657 0.0
H740 H 0.31111 0.92752 0.2803 0.0
H741 H 0.33337 0.90977 0.2649 0.0
H742 H 0.27525 0.92275 0.29265 0.0
H743 H 0.26112 0.91211 0.31897 0.0
C744 C 0.10415 0.64583 0.66716 0.0
C745 C 0.08226 0.6383 0.67874 0.0
C746 C 0.05787 0.6642 0.6511 0.0
C747 C 0.07979 0.67419 0.64183 0.0
N748 N 0.12388 0.67572 0.64133 0.0
N749 N 0.03815 0.64022 0.68241 0.0
C750 C 0.103 0.66509 0.64967 0.0
C751 C 0.05906 0.64738 0.6708 0.0
N752 N 0.12599 0.63461 0.67297 0.0
N753 N 0.03595 0.6703 0.64049 0.0
H754 H 0.03808 0.62678 0.69584 0.0
H755 H 0.02096 0.6484 0.67969 0.0
H756 H 0.0345 0.68239 0.62588 0.0
H757 H 0.01952 0.66187 0.64458 0.0
H758 H 0.1423 0.63739 0.66354 0.0
H759 H 0.1275 0.62103 0.68623 0.0
H760 H 0.14124 0.67201 0.64833 0.0
H761 H 0.12371 0.68954 0.62826 0.0
C762 C 0.28111 0.08902 0.65278 0.0
C763 C 0.28461 0.0991 0.6293 0.0
C764 C 0.32529 0.11277 0.64119 0.0
C765 C 0.324 0.09748 0.66189 0.0
N766 N 0.30041 0.07238 0.68902 0.0
N767 N 0.30768 0.12413 0.60206 0.0
C768 C 0.30156 0.08663 0.66863 0.0
C769 C 0.30585 0.11261 0.62404 0.0
N770 N 0.25851 0.08106 0.6595 0.0
N771 N 0.34538 0.12693 0.63794 0.0
H772 H 0.293 0.1252 0.58993 0.0
H773 H 0.32357 0.13214 0.59563 0.0
H774 H 0.35959 0.12726 0.65063 0.0
H775 H 0.34713 0.13967 0.62403 0.0
H776 H 0.2542 0.0753 0.67706 0.0
H777 H 0.24332 0.08253 0.64812 0.0
H778 H 0.2857 0.0613 0.69319 0.0
H779 H 0.31475 0.07071 0.70142 0.0
C780 C 0.83199 0.30467 0.62068 0.0
C781 C 0.84263 0.28108 0.62499 0.0
C782 C 0.86026 0.29599 0.66341 0.0
C783 C 0.84974 0.31966 0.65907 0.0
N784 N 0.82125 0.34532 0.63704 0.0
N785 N 0.86114 0.25247 0.65309 0.0
C786 C 0.83413 0.32356 0.63878 0.0
C787 C 0.85493 0.27618 0.64724 0.0
N788 N 0.8209 0.30935 0.59883 0.0
N789 N 0.87653 0.29272 0.68207 0.0
H790 H 0.85739 0.2375 0.64171 0.0
H791 H 0.86786 0.24736 0.67011 0.0
H792 H 0.88067 0.30655 0.69463 0.0
H793 H 0.88719 0.27677 0.6842 0.0
H794 H 0.81525 0.32684 0.59336 0.0
H795 H 0.81869 0.29586 0.58535 0.0
H796 H 0.80785 0.34868 0.62396 0.0
H797 H 0.82242 0.35932 0.65018 0.0
C798 C 0.66821 0.85843 0.65203 0.0
C799 C 0.6619 0.8498 0.62833 0.0
C800 C 0.62409 0.83258 0.64469 0.0
C801 C 0.63047 0.84121 0.66833 0.0
N802 N 0.66146 0.85568 0.69576 0.0
N803 N 0.63755 0.82348 0.60307 0.0
C804 C 0.65353 0.85194 0.67238 0.0
C805 C 0.64101 0.83512 0.62502 0.0
N806 N 0.68716 0.8742 0.65499 0.0
N807 N 0.60139 0.82328 0.64074 0.0
H808 H 0.64983 0.82486 0.58846 0.0
H809 H 0.62394 0.81069 0.6001 0.0
H810 H 0.58858 0.82093 0.6547 0.0
H811 H 0.59459 0.8194 0.6234 0.0
H812 H 0.69058 0.88341 0.67137 0.0
H813 H 0.6984 0.87971 0.64069 0.0
H814 H 0.67912 0.86119 0.69993 0.0
H815 H 0.6512 0.85085 0.71107 0.0
C816 C 0.31595 0.11902 0.29766 0.0
C817 C 0.33 0.099 0.28754 0.0
C818 C 0.30813 0.07039 0.31343 0.0
C819 C 0.29622 0.0905 0.32568 0.0
N820 N 0.29053 0.13425 0.33151 0.0
N821 N 0.34371 0.05651 0.29029 0.0
C822 C 0.30052 0.11497 0.31834 0.0
C823 C 0.3273 0.07492 0.2967 0.0
N824 N 0.3167 0.14161 0.28706 0.0
N825 N 0.30058 0.04691 0.31714 0.0
H826 H 0.35889 0.05925 0.27903 0.0
H827 H 0.34386 0.03924 0.29836 0.0
H828 H 0.28588 0.04279 0.32858 0.0
H829 H 0.30709 0.03187 0.30682 0.0
H830 H 0.30498 0.15625 0.292 0.0
H831 H 0.32779 0.1452 0.27196 0.0
H832 H 0.29509 0.15249 0.32867 0.0
H833 H 0.27893 0.13186 0.34649 0.0
C834 C 0.89104 0.28161 0.28976 0.0
C835 C 0.88256 0.28464 0.31424 0.0
C836 C 0.86615 0.32583 0.30435 0.0
C837 C 0.87718 0.32382 0.2808 0.0
N838 N 0.90351 0.30128 0.25232 0.0
N839 N 0.86429 0.31052 0.34585 0.0
C840 C 0.89045 0.30206 0.27377 0.0
C841 C 0.87052 0.30694 0.32179 0.0
N842 N 0.89899 0.25894 0.28152 0.0
N843 N 0.85107 0.34559 0.30983 0.0
H844 H 0.86713 0.29715 0.35911 0.0
H845 H 0.85802 0.32734 0.35306 0.0
H846 H 0.84762 0.35976 0.29753 0.0
H847 H 0.84041 0.34697 0.32568 0.0
H848 H 0.90296 0.25498 0.26322 0.0
H849 H 0.89929 0.24339 0.29253 0.0
H850 H 0.91585 0.28707 0.24764 0.0
H851 H 0.90376 0.31584 0.24009 0.0
C852 C 0.66234 0.86791 0.29872 0.0
C853 C 0.65832 0.85651 0.32156 0.0
C854 C 0.61802 0.84302 0.30815 0.0
C855 C 0.62118 0.85613 0.28613 0.0
N856 N 0.64882 0.87455 0.25719 0.0
N857 N 0.63623 0.82777 0.34572 0.0
C858 C 0.6443 0.86612 0.2802 0.0
C859 C 0.63741 0.8421 0.32541 0.0
N860 N 0.68236 0.88224 0.29545 0.0
N861 N 0.59613 0.83221 0.31275 0.0
H862 H 0.65048 0.8268 0.35835 0.0
H863 H 0.62236 0.81542 0.34908 0.0
H864 H 0.58231 0.83129 0.29969 0.0
H865 H 0.59135 0.82473 0.3295 0.0
H866 H 0.68453 0.89396 0.28072 0.0
H867 H 0.69636 0.88362 0.30821 0.0
H868 H 0.66613 0.87949 0.25112 0.0
H869 H 0.63595 0.87462 0.24326 0.0
C870 C 0.10832 0.62657 0.30951 0.0
C871 C 0.09296 0.62997 0.28897 0.0
C872 C 0.0881 0.6738 0.29929 0.0
C873 C 0.09996 0.66946 0.32189 0.0
N874 N 0.1209 0.64176 0.34929 0.0
N875 N 0.06689 0.65637 0.26465 0.0
C876 C 0.11033 0.64593 0.32708 0.0
C877 C 0.08279 0.65356 0.28369 0.0
N878 N 0.12105 0.60481 0.31203 0.0
N879 N 0.0823 0.69737 0.29261 0.0
H880 H 0.06285 0.64218 0.25246 0.0
H881 H 0.05645 0.67235 0.26183 0.0
H882 H 0.08615 0.71263 0.30354 0.0
H883 H 0.07586 0.70199 0.27534 0.0
H884 H 0.13429 0.60179 0.32534 0.0
H885 H 0.11994 0.59045 0.29927 0.0
H886 H 0.12626 0.62437 0.35531 0.0
H887 H 0.12289 0.65553 0.3625 0.0
C888 C 0.29837 0.86568 0.66403 0.0
C889 C 0.32106 0.85411 0.65726 0.0
C890 C 0.30208 0.83608 0.62086 0.0
C891 C 0.27937 0.84755 0.6277 0.0
N892 N 0.25427 0.86769 0.65873 0.0
N893 N 0.34337 0.82393 0.63292 0.0
C894 C 0.27702 0.86058 0.65026 0.0
C895 C 0.32248 0.83782 0.63685 0.0
N896 N 0.29745 0.88266 0.68267 0.0
N897 N 0.30456 0.82472 0.59851 0.0
H898 H 0.35847 0.82481 0.64448 0.0
H899 H 0.34491 0.80999 0.61975 0.0
H900 H 0.29008 0.82303 0.58631 0.0
H901 H 0.32131 0.8185 0.59127 0.0
H902 H 0.28219 0.894 0.68638 0.0
H903 H 0.31249 0.88671 0.69352 0.0
H904 H 0.25108 0.87504 0.67616 0.0
H905 H 0.23822 0.86403 0.64921 0.0
C906 C 0.11324 0.31564 0.64934 0.0
C907 C 0.09368 0.33062 0.65891 0.0
C908 C 0.06491 0.31027 0.63183 0.0
C909 C 0.0847 0.29727 0.62025 0.0
N910 N 0.12825 0.28986 0.61561 0.0
N911 N 0.05229 0.34672 0.65455 0.0
C912 C 0.10909 0.30052 0.62835 0.0
C913 C 0.06991 0.32926 0.64877 0.0
N914 N 0.13543 0.31516 0.66075 0.0
N915 N 0.04125 0.30383 0.62744 0.0
H916 H 0.05556 0.3618 0.66594 0.0
H917 H 0.03537 0.34777 0.64585 0.0
H918 H 0.03669 0.28917 0.616 0.0
H919 H 0.02634 0.31121 0.6373 0.0
H920 H 0.14955 0.30269 0.65618 0.0
H921 H 0.1391 0.32599 0.6761 0.0
H922 H 0.14652 0.29365 0.61911 0.0
H923 H 0.12584 0.27866 0.60024 0.0
C924 C 0.64183 0.09526 0.62014 0.0
C925 C 0.65602 0.07303 0.61875 0.0
C926 C 0.63249 0.05651 0.65299 0.0
C927 C 0.61991 0.07952 0.65587 0.0
N928 N 0.61494 0.12205 0.64465 0.0
N929 N 0.6684 0.03456 0.63715 0.0
C930 C 0.62521 0.09927 0.6401 0.0
C931 C 0.65232 0.05419 0.63607 0.0
N932 N 0.64354 0.11213 0.6019 0.0
N933 N 0.62492 0.03654 0.66575 0.0
H934 H 0.68362 0.03243 0.62561 0.0
H935 H 0.6681 0.02165 0.65107 0.0
H936 H 0.61028 0.0373 0.67813 0.0
H937 H 0.63161 0.01872 0.66235 0.0
H938 H 0.63184 0.12745 0.60051 0.0
H939 H 0.65529 0.10974 0.58689 0.0
H940 H 0.62012 0.13781 0.63551 0.0
H941 H 0.60264 0.1256 0.65902 0.0
C942 C 0.8321 0.64155 0.62207 0.0
C943 C 0.8422 0.66491 0.62657 0.0
C944 C 0.85406 0.65261 0.66771 0.0
C945 C 0.84675 0.62829 0.66208 0.0
N946 N 0.82178 0.60152 0.6381 0.0
N947 N 0.85247 0.69568 0.65658 0.0
C948 C 0.83318 0.62349 0.64064 0.0
C949 C 0.84946 0.67152 0.65051 0.0
N950 N 0.82265 0.63651 0.59955 0.0
N951 N 0.86718 0.6573 0.68838 0.0
H952 H 0.8485 0.70989 0.64455 0.0
H953 H 0.85596 0.70176 0.67432 0.0
H954 H 0.8708 0.64419 0.70168 0.0
H955 H 0.87578 0.67389 0.69171 0.0
H956 H 0.81743 0.6191 0.5938 0.0
H957 H 0.82052 0.6501 0.58634 0.0
H958 H 0.81029 0.59722 0.62364 0.0
H959 H 0.82227 0.58828 0.65178 0.0
C960 C 0.28342 0.30886 0.06063 0.0
C961 C 0.27204 0.3143 0.08355 0.0
C962 C 0.29964 0.2849 0.10385 0.0
C963 C 0.31049 0.27897 0.08082 0.0
N964 N 0.31723 0.28873 0.03854 0.0
N965 N 0.2721 0.31201 0.12745 0.0
C966 C 0.3038 0.29212 0.05958 0.0
C967 C 0.28117 0.30383 0.10538 0.0
N968 N 0.27419 0.31915 0.03981 0.0
N969 N 0.3062 0.27163 0.12396 0.0
H970 H 0.25834 0.32562 0.12898 0.0
H971 H 0.27936 0.30681 0.14421 0.0
H972 H 0.32018 0.2582 0.12354 0.0
H973 H 0.29713 0.27299 0.14074 0.0
H974 H 0.27957 0.31374 0.02223 0.0
H975 H 0.26017 0.33253 0.04002 0.0
H976 H 0.31486 0.29929 0.02295 0.0
H977 H 0.33231 0.2766 0.0373 0.0
C978 C 0.32563 0.6422 0.83259 0.0
C979 C 0.32125 0.66445 0.84582 0.0
C980 C 0.28053 0.65084 0.85798 0.0
C981 C 0.28635 0.62737 0.84757 0.0
N982 N 0.30996 0.60282 0.81889 0.0
N983 N 0.29225 0.69338 0.86392 0.0
C984 C 0.3074 0.62391 0.83257 0.0
C985 C 0.29771 0.67003 0.85581 0.0
N986 N 0.34777 0.6383 0.8212 0.0
N987 N 0.25957 0.65412 0.87159 0.0
H988 H 0.30468 0.70759 0.86269 0.0
H989 H 0.27487 0.69927 0.86978 0.0
H990 H 0.24626 0.64074 0.87282 0.0
H991 H 0.25564 0.66964 0.88234 0.0
H992 H 0.35349 0.62162 0.81331 0.0
H993 H 0.36074 0.65206 0.82007 0.0
H994 H 0.32414 0.59935 0.80643 0.0
H995 H 0.29649 0.58949 0.81874 0.0
C996 C 0.28216 0.29688 0.82799 0.0
C997 C 0.28757 0.32008 0.8385 0.0
C998 C 0.33042 0.30652 0.84399 0.0
C999 C 0.32434 0.28246 0.83609 0.0
N1000 N 0.29338 0.25363 0.82435 0.0
N1001 N 0.31606 0.34674 0.85849 0.0
C1002 C 0.29998 0.27736 0.82883 0.0
C1003 C 0.3115 0.32483 0.84708 0.0
N1004 N 0.25989 0.2934 0.81733 0.0
N1005 N 0.35444 0.31208 0.84768 0.0
H1006 H 0.30302 0.36103 0.85998 0.0
H1007 H 0.33223 0.35024 0.86777 0.0
H1008 H 0.36878 0.29926 0.84516 0.0
H1009 H 0.36041 0.32983 0.85105 0.0
H1010 H 0.2559 0.27791 0.80686 0.0
H1011 H 0.24592 0.30683 0.81733 0.0
H1012 H 0.27533 0.24844 0.82176 0.0
H1013 H 0.30555 0.23863 0.82544 0.0
C1014 C 0.62854 0.30492 0.83821 0.0
C1015 C 0.63365 0.28365 0.85215 0.0
C1016 C 0.6751 0.29769 0.86041 0.0
C1017 C 0.66875 0.32045 0.84931 0.0
N1018 N 0.64369 0.3428 0.82097 0.0
N1019 N 0.6637 0.25567 0.86895 0.0
C1020 C 0.64688 0.32289 0.8357 0.0
C1021 C 0.65776 0.27853 0.8604 0.0
N1022 N 0.60571 0.30831 0.82855 0.0
N1023 N 0.69669 0.29518 0.87275 0.0
H1024 H 0.65117 0.24151 0.86938 0.0
H1025 H 0.68144 0.25003 0.87344 0.0
H1026 H 0.71024 0.30834 0.87237 0.0
H1027 H 0.70094 0.28047 0.88408 0.0
H1028 H 0.59962 0.3245 0.82038 0.0
H1029 H 0.59255 0.29469 0.82924 0.0
H1030 H 0.62885 0.34533 0.80935 0.0
H1031 H 0.65725 0.35589 0.81901 0.0
C1032 C 0.64133 0.61764 0.85376 0.0
C1033 C 0.6631 0.62086 0.83994 0.0
C1034 C 0.64754 0.66096 0.82599 0.0
C1035 C 0.62534 0.65736 0.8391 0.0
N1036 N 0.59896 0.63036 0.8612 0.0
N1037 N 0.68532 0.64303 0.80934 0.0
C1038 C 0.62162 0.63511 0.85177 0.0
C1039 C 0.66558 0.64164 0.82477 0.0
N1040 N 0.63967 0.59806 0.86911 0.0
N1041 N 0.65213 0.6834 0.8161 0.0
H1042 H 0.69943 0.62976 0.80866 0.0
H1043 H 0.6868 0.65629 0.79586 0.0
H1044 H 0.63972 0.69825 0.81696 0.0
H1045 H 0.66907 0.68806 0.80886 0.0
H1046 H 0.62564 0.59626 0.88192 0.0
H1047 H 0.65314 0.58417 0.87003 0.0
H1048 H 0.59429 0.61351 0.86853 0.0
H1049 H 0.58403 0.64259 0.8597 0.0
C1050 C 0.64695 0.67235 0.1192 0.0
C1051 C 0.62326 0.66813 0.10958 0.0
C1052 C 0.63594 0.62584 0.09824 0.0
C1053 C 0.65921 0.62976 0.10884 0.0
N1054 N 0.68563 0.65497 0.13325 0.0
N1055 N 0.59355 0.63976 0.09439 0.0
C1056 C 0.66422 0.65241 0.12072 0.0
C1057 C 0.61728 0.64452 0.10036 0.0
N1058 N 0.65358 0.69572 0.12533 0.0
N1059 N 0.63182 0.60438 0.08581 0.0
H1060 H 0.57938 0.6529 0.09609 0.0
H1061 H 0.58743 0.62231 0.08987 0.0
H1062 H 0.64456 0.58978 0.08501 0.0
H1063 H 0.6164 0.60154 0.07513 0.0
H1064 H 0.67142 0.70041 0.12969 0.0
H1065 H 0.6418 0.711 0.12401 0.0
H1066 H 0.68908 0.66995 0.14465 0.0
H1067 H 0.69929 0.64126 0.13382 0.0
C1068 C 0.32406 0.64609 0.10143 0.0
C1069 C 0.31964 0.66691 0.08658 0.0
C1070 C 0.27833 0.65287 0.07746 0.0
C1071 C 0.28367 0.6309 0.09038 0.0
N1072 N 0.30768 0.60954 0.12029 0.0
N1073 N 0.29037 0.69406 0.06692 0.0
C1074 C 0.30527 0.62864 0.10442 0.0
C1075 C 0.29591 0.67176 0.07703 0.0
N1076 N 0.34655 0.6427 0.11188 0.0
N1077 N 0.2575 0.65479 0.06376 0.0
H1078 H 0.30295 0.70805 0.06528 0.0
H1079 H 0.27269 0.6996 0.06205 0.0
H1080 H 0.2437 0.6419 0.06412 0.0
H1081 H 0.25432 0.66856 0.05103 0.0
H1082 H 0.35213 0.62669 0.12069 0.0
H1083 H 0.36003 0.656 0.11117 0.0
H1084 H 0.32218 0.60737 0.13239 0.0
H1085 H 0.29382 0.59685 0.12271 0.0
C1086 C 0.66747 0.30093 0.08673 0.0
C1087 C 0.66038 0.32467 0.09552 0.0
C1088 C 0.62133 0.30861 0.10999 0.0
C1089 C 0.6261 0.28686 0.09611 0.0
N1090 N 0.65399 0.26151 0.07158 0.0
N1091 N 0.63242 0.3509 0.11847 0.0
C1092 C 0.64955 0.28241 0.08522 0.0
C1093 C 0.63801 0.32828 0.10854 0.0
N1094 N 0.69104 0.29634 0.0791 0.0
N1095 N 0.60065 0.31036 0.12418 0.0
H1096 H 0.64506 0.36503 0.11875 0.0
H1097 H 0.61536 0.35589 0.12584 0.0
H1098 H 0.58845 0.2959 0.12549 0.0
H1099 H 0.5966 0.32498 0.13608 0.0
H1100 H 0.69794 0.27884 0.0746 0.0
H1101 H 0.70447 0.30962 0.0796 0.0
H1102 H 0.66935 0.25883 0.06037 0.0
H1103 H 0.64171 0.2472 0.07028 0.0
C1104 C 0.61141 0.82088 0.80874 0.0
C1105 C 0.59897 0.81667 0.78652 0.0
C1106 C 0.59443 0.7734 0.79714 0.0
C1107 C 0.60083 0.77943 0.82151 0.0
N1108 N 0.61978 0.80685 0.84999 0.0
N1109 N 0.57996 0.78867 0.75824 0.0
C1110 C 0.61124 0.80246 0.82696 0.0
C1111 C 0.59156 0.79265 0.77995 0.0
N1112 N 0.62285 0.84269 0.81233 0.0
N1113 N 0.59051 0.7495 0.79064 0.0
H1114 H 0.57804 0.80208 0.74489 0.0
H1115 H 0.57112 0.77246 0.75387 0.0
H1116 H 0.59279 0.73502 0.80275 0.0
H1117 H 0.58768 0.74369 0.7727 0.0
H1118 H 0.63352 0.84666 0.8275 0.0
H1119 H 0.6232 0.85616 0.79889 0.0
H1120 H 0.62522 0.82398 0.85631 0.0
H1121 H 0.62099 0.79299 0.86302 0.0
C1122 C 0.17179 0.58476 0.79844 0.0
C1123 C 0.16804 0.59634 0.82158 0.0
C1124 C 0.12481 0.60424 0.81142 0.0
C1125 C 0.12781 0.58941 0.79005 0.0
N1126 N 0.15366 0.5625 0.76486 0.0
N1127 N 0.14052 0.61535 0.85133 0.0
C1128 C 0.15122 0.57904 0.78382 0.0
C1129 C 0.14447 0.60589 0.82833 0.0
N1130 N 0.19509 0.57969 0.79017 0.0
N1131 N 0.10324 0.61703 0.81532 0.0
H1132 H 0.15436 0.61678 0.86428 0.0
H1133 H 0.12318 0.62001 0.85827 0.0
H1134 H 0.08863 0.61631 0.80314 0.0
H1135 H 0.10067 0.63004 0.82928 0.0
H1136 H 0.19905 0.57358 0.77242 0.0
H1137 H 0.21065 0.58399 0.8002 0.0
H1138 H 0.16966 0.55218 0.76144 0.0
H1139 H 0.13915 0.55739 0.75375 0.0
C1140 C 0.36907 0.1522 0.77131 0.0
C1141 C 0.35602 0.13026 0.77495 0.0
C1142 C 0.34602 0.14359 0.81693 0.0
C1143 C 0.36222 0.16343 0.81439 0.0
N1144 N 0.39094 0.18577 0.78984 0.0
N1145 N 0.33285 0.1041 0.80135 0.0
C1146 C 0.37398 0.16774 0.79166 0.0
C1147 C 0.34438 0.12582 0.79771 0.0
N1148 N 0.37632 0.15842 0.74825 0.0
N1149 N 0.33207 0.14197 0.83768 0.0
H1150 H 0.33114 0.09075 0.78766 0.0
H1151 H 0.32644 0.09852 0.81832 0.0
H1152 H 0.33287 0.15486 0.85194 0.0
H1153 H 0.31822 0.12932 0.83986 0.0
H1154 H 0.38369 0.17535 0.74403 0.0
H1155 H 0.37279 0.1476 0.73284 0.0
H1156 H 0.40238 0.1877 0.7747 0.0
H1157 H 0.3949 0.19785 0.80415 0.0
C1158 C 0.79767 0.33162 0.77918 0.0
C1159 C 0.82126 0.34171 0.78217 0.0
C1160 C 0.80994 0.35558 0.8238 0.0
C1161 C 0.78688 0.34428 0.82128 0.0
N1162 N 0.75985 0.31857 0.79803 0.0
N1163 N 0.85158 0.35932 0.80853 0.0
C1164 C 0.78118 0.3312 0.79948 0.0
C1165 C 0.82786 0.35264 0.80484 0.0
N1166 N 0.79039 0.32387 0.75653 0.0
N1167 N 0.81463 0.36932 0.84427 0.0
H1168 H 0.86525 0.35709 0.79521 0.0
H1169 H 0.85828 0.36505 0.82539 0.0
H1170 H 0.80258 0.37072 0.85915 0.0
H1171 H 0.82975 0.38052 0.84597 0.0
H1172 H 0.77251 0.31906 0.75248 0.0
H1173 H 0.80164 0.32424 0.74106 0.0
H1174 H 0.7561 0.30619 0.78396 0.0
H1175 H 0.74644 0.31913 0.8117 0.0
C1176 C 0.60587 0.1444 0.12896 0.0
C1177 C 0.58242 0.15424 0.12276 0.0
C1178 C 0.56309 0.12646 0.15178 0.0
C1179 C 0.5866 0.11825 0.15969 0.0
N1180 N 0.63052 0.12238 0.15871 0.0
N1181 N 0.53925 0.15862 0.13221 0.0
C1182 C 0.60807 0.128 0.14904 0.0
C1183 C 0.56117 0.14638 0.13527 0.0
N1184 N 0.62591 0.15004 0.11518 0.0
N1185 N 0.54257 0.11458 0.15922 0.0
H1186 H 0.53721 0.17385 0.12094 0.0
H1187 H 0.52372 0.15534 0.14276 0.0
H1188 H 0.54313 0.09945 0.17078 0.0
H1189 H 0.52525 0.11811 0.15199 0.0
H1190 H 0.643 0.14137 0.11709 0.0
H1191 H 0.625 0.16196 0.10039 0.0
H1192 H 0.64656 0.13096 0.15347 0.0
H1193 H 0.63287 0.11068 0.17353 0.0
C1194 C 0.79463 0.59133 0.17076 0.0
C1195 C 0.81812 0.59991 0.16434 0.0
C1196 C 0.80192 0.61509 0.12556 0.0
C1197 C 0.78071 0.60114 0.12944 0.0
N1198 N 0.75514 0.57783 0.15632 0.0
N1199 N 0.84357 0.62371 0.13811 0.0
C1200 C 0.77616 0.59049 0.15255 0.0
C1201 C 0.82138 0.61349 0.14266 0.0
N1202 N 0.79032 0.58326 0.19392 0.0
N1203 N 0.80339 0.62928 0.10518 0.0
H1204 H 0.85749 0.62374 0.15113 0.0
H1205 H 0.84837 0.6317 0.12162 0.0
H1206 H 0.78901 0.63061 0.09272 0.0
H1207 H 0.81767 0.64108 0.10158 0.0
H1208 H 0.77307 0.57863 0.2004 0.0
H1209 H 0.80358 0.58343 0.20751 0.0
H1210 H 0.75213 0.56678 0.1714 0.0
H1211 H 0.74088 0.57757 0.14376 0.0
C1212 C 0.32725 0.80786 0.11591 0.0
C1213 C 0.33694 0.78401 0.12073 0.0
C1214 C 0.35317 0.79827 0.15993 0.0
C1215 C 0.34407 0.82234 0.15488 0.0
N1216 N 0.31749 0.84896 0.13166 0.0
N1217 N 0.35255 0.75474 0.14977 0.0
C1218 C 0.32939 0.82673 0.134 0.0
C1219 C 0.34771 0.77866 0.14362 0.0
N1220 N 0.31717 0.81274 0.09363 0.0
N1221 N 0.36842 0.79439 0.17932 0.0
H1222 H 0.34865 0.73997 0.1382 0.0
H1223 H 0.35817 0.74941 0.16712 0.0
H1224 H 0.37272 0.80809 0.19195 0.0
H1225 H 0.37816 0.77796 0.18203 0.0
H1226 H 0.31234 0.83035 0.08784 0.0
H1227 H 0.31482 0.79918 0.08025 0.0
H1228 H 0.30483 0.85281 0.118 0.0
H1229 H 0.31867 0.86292 0.14484 0.0
C1230 C 0.16263 0.36013 0.15174 0.0
C1231 C 0.15672 0.35114 0.12806 0.0
C1232 C 0.11964 0.33245 0.14438 0.0
C1233 C 0.12562 0.34153 0.16795 0.0
N1234 N 0.15602 0.35708 0.19543 0.0
N1235 N 0.13351 0.32374 0.10281 0.0
C1236 C 0.14825 0.35305 0.17204 0.0
C1237 C 0.13646 0.3356 0.12472 0.0
N1238 N 0.18077 0.37682 0.15471 0.0
N1239 N 0.09743 0.32205 0.14052 0.0
H1240 H 0.14576 0.32556 0.08823 0.0
H1241 H 0.12041 0.31044 0.09983 0.0
H1242 H 0.08486 0.31909 0.15458 0.0
H1243 H 0.0908 0.31772 0.12323 0.0
H1244 H 0.18374 0.38618 0.17112 0.0
H1245 H 0.19165 0.38299 0.14042 0.0
H1246 H 0.17345 0.36324 0.19961 0.0
H1247 H 0.14595 0.35181 0.21073 0.0
C1248 C 0.81004 0.61607 0.8242 0.0
C1249 C 0.78921 0.60135 0.82053 0.0
C1250 C 0.79811 0.59944 0.77658 0.0
C1251 C 0.82106 0.61023 0.78099 0.0
N1252 N 0.84945 0.62898 0.80863 0.0
N1253 N 0.76414 0.57726 0.79342 0.0
C1254 C 0.82706 0.61898 0.80465 0.0
C1255 C 0.78313 0.59292 0.7967 0.0
N1256 N 0.81331 0.62738 0.84635 0.0
N1257 N 0.79064 0.59554 0.75307 0.0
H1258 H 0.75265 0.57179 0.80754 0.0
H1259 H 0.76086 0.56812 0.77697 0.0
H1260 H 0.80123 0.60023 0.73793 0.0
H1261 H 0.77308 0.58999 0.74856 0.0
H1262 H 0.8269 0.64008 0.84969 0.0
H1263 H 0.80092 0.62572 0.86084 0.0
H1264 H 0.85615 0.63309 0.82594 0.0
H1265 H 0.862 0.63196 0.79455 0.0
C1266 C 0.34884 0.82228 0.79805 0.0
C1267 C 0.36948 0.83075 0.78494 0.0
C1268 C 0.39578 0.80008 0.80531 0.0
C1269 C 0.37562 0.79315 0.82008 0.0
N1270 N 0.3338 0.80043 0.83336 0.0
N1271 N 0.41344 0.83111 0.77961 0.0
C1272 C 0.35233 0.80498 0.81721 0.0
C1273 C 0.3932 0.82058 0.78954 0.0
N1274 N 0.32579 0.83006 0.79163 0.0
N1275 N 0.41715 0.78644 0.80554 0.0
H1276 H 0.41247 0.84644 0.76834 0.0
H1277 H 0.43131 0.82618 0.78443 0.0
H1278 H 0.4197 0.77104 0.81647 0.0
H1279 H 0.43148 0.78893 0.7932 0.0
H1280 H 0.30988 0.82251 0.79862 0.0
H1281 H 0.32251 0.84265 0.77772 0.0
H1282 H 0.31728 0.81041 0.83386 0.0
H1283 H 0.33569 0.78811 0.84774 0.0
C1284 C 0.14352 0.33804 0.82709 0.0
C1285 C 0.16489 0.35149 0.82237 0.0
C1286 C 0.15013 0.36083 0.78122 0.0
C1287 C 0.12671 0.35216 0.78812 0.0
N1288 N 0.10148 0.32965 0.81582 0.0
N1289 N 0.18968 0.37487 0.79484 0.0
C1290 C 0.12367 0.33948 0.8104 0.0
C1291 C 0.16889 0.36197 0.7991 0.0
N1292 N 0.14235 0.32423 0.84776 0.0
N1293 N 0.1543 0.36863 0.75791 0.0
H1294 H 0.20422 0.3754 0.80707 0.0
H1295 H 0.19217 0.38605 0.77975 0.0
H1296 H 0.14097 0.36908 0.74442 0.0
H1297 H 0.17162 0.37267 0.75118 0.0
H1298 H 0.12805 0.31262 0.85186 0.0
H1299 H 0.15698 0.32292 0.85993 0.0
H1300 H 0.09692 0.32253 0.83277 0.0
H1301 H 0.08724 0.32916 0.80318 0.0
C1302 C 0.61168 0.12477 0.80835 0.0
C1303 C 0.5967 0.12857 0.78755 0.0
C1304 C 0.5911 0.17223 0.79854 0.0
C1305 C 0.60542 0.16824 0.81977 0.0
N1306 N 0.63328 0.14264 0.84276 0.0
N1307 N 0.57577 0.15621 0.76007 0.0
C1308 C 0.6171 0.1451 0.82391 0.0
C1309 C 0.58771 0.15248 0.78168 0.0
N1310 N 0.62003 0.10151 0.81353 0.0
N1311 N 0.58016 0.1948 0.79494 0.0
H1312 H 0.57207 0.14207 0.7477 0.0
H1313 H 0.57089 0.17346 0.7534 0.0
H1314 H 0.58356 0.21013 0.80594 0.0
H1315 H 0.56696 0.19833 0.78172 0.0
H1316 H 0.62857 0.09669 0.82979 0.0
H1317 H 0.61758 0.08657 0.80172 0.0
H1318 H 0.64421 0.12701 0.84557 0.0
H1319 H 0.63706 0.157 0.85487 0.0
C1320 C 0.79577 0.36603 0.16083 0.0
C1321 C 0.81877 0.35506 0.15411 0.0
C1322 C 0.80124 0.33972 0.11579 0.0
C1323 C 0.7782 0.35048 0.12265 0.0
N1324 N 0.75187 0.36785 0.15427 0.0
N1325 N 0.84212 0.32683 0.12846 0.0
C1326 C 0.77496 0.36172 0.14602 0.0
C1327 C 0.82103 0.34033 0.13261 0.0
N1328 N 0.79405 0.38182 0.18045 0.0
N1329 N 0.80463 0.33018 0.09274 0.0
H1330 H 0.85678 0.32688 0.14062 0.0
H1331 H 0.84422 0.31392 0.11434 0.0
H1332 H 0.79064 0.32944 0.07987 0.0
H1333 H 0.82168 0.32464 0.0857 0.0
H1334 H 0.77855 0.39277 0.18428 0.0
H1335 H 0.80867 0.38541 0.192 0.0
H1336 H 0.74809 0.37379 0.17211 0.0
H1337 H 0.73617 0.36469 0.14402 0.0
C1338 C 0.61236 0.82758 0.14358 0.0
C1339 C 0.60316 0.82166 0.16705 0.0
C1340 C 0.58709 0.78307 0.151 0.0
C1341 C 0.59608 0.78902 0.1274 0.0
N1342 N 0.62244 0.81329 0.10238 0.0
N1343 N 0.5886 0.791 0.19467 0.0
C1344 C 0.61048 0.81013 0.12411 0.0
C1345 C 0.5928 0.79842 0.17125 0.0
N1346 N 0.62162 0.85032 0.13958 0.0
N1347 N 0.57165 0.76385 0.15391 0.0
H1348 H 0.59283 0.8018 0.20991 0.0
H1349 H 0.58334 0.77329 0.19905 0.0
H1350 H 0.56673 0.75207 0.13971 0.0
H1351 H 0.56215 0.76065 0.1701 0.0
H1352 H 0.62594 0.85682 0.12228 0.0
H1353 H 0.62361 0.8634 0.15348 0.0
H1354 H 0.63499 0.82709 0.09944 0.0
H1355 H 0.62152 0.8006 0.08796 0.0
C1356 C 0.14524 0.56418 0.16691 0.0
C1357 C 0.13819 0.58763 0.17671 0.0
C1358 C 0.16652 0.60751 0.14838 0.0
C1359 C 0.17299 0.58411 0.13815 0.0
N1360 N 0.16483 0.54095 0.13371 0.0
N1361 N 0.13832 0.63178 0.17403 0.0
C1362 C 0.16116 0.56268 0.14621 0.0
C1363 C 0.14769 0.60937 0.16657 0.0
N1364 N 0.13777 0.54327 0.17816 0.0
N1365 N 0.17915 0.62775 0.14153 0.0
H1366 H 0.1246 0.63373 0.18735 0.0
H1367 H 0.14259 0.64826 0.16569 0.0
H1368 H 0.19272 0.62716 0.12799 0.0
H1369 H 0.17737 0.6448 0.15031 0.0
H1370 H 0.14463 0.52575 0.17369 0.0
H1371 H 0.12611 0.54345 0.19335 0.0
H1372 H 0.15486 0.52524 0.13704 0.0
H1373 H 0.17629 0.53924 0.11839 0.0
C1374 C 0.34999 0.17245 0.14424 0.0
C1375 C 0.34449 0.16495 0.12004 0.0
C1376 C 0.33661 0.12348 0.13455 0.0
C1377 C 0.34901 0.12937 0.15644 0.0
N1378 N 0.36676 0.15986 0.18308 0.0
N1379 N 0.32708 0.13527 0.09285 0.0
C1380 C 0.35486 0.15412 0.16194 0.0
C1381 C 0.33554 0.1411 0.11559 0.0
N1382 N 0.35075 0.19685 0.15026 0.0
N1383 N 0.32632 0.10094 0.132 0.0
H1384 H 0.32479 0.14857 0.07938 0.0
H1385 H 0.32275 0.11756 0.08723 0.0
H1386 H 0.32677 0.08803 0.14599 0.0
H1387 H 0.31573 0.09578 0.11714 0.0
H1388 H 0.35304 0.20326 0.1681 0.0
H1389 H 0.34576 0.21066 0.13812 0.0
H1390 H 0.37434 0.17696 0.18644 0.0
H1391 H 0.37047 0.14713 0.19673 0.0
C1392 C 0.80078 0.78668 0.62209 0.0
C1393 C 0.8227 0.78881 0.60817 0.0
C1394 C 0.80832 0.82898 0.59313 0.0
C1395 C 0.78681 0.8272 0.60769 0.0
N1396 N 0.76434 0.80679 0.63937 0.0
N1397 N 0.84975 0.81382 0.58456 0.0
C1398 C 0.78373 0.8069 0.6234 0.0
C1399 C 0.82717 0.81052 0.59486 0.0
N1400 N 0.79542 0.76478 0.63272 0.0
N1401 N 0.81055 0.84813 0.57735 0.0
H1402 H 0.86407 0.80084 0.58582 0.0
H1403 H 0.85507 0.83021 0.57669 0.0
H1404 H 0.79785 0.86274 0.57663 0.0
H1405 H 0.82425 0.84894 0.56405 0.0
H1406 H 0.7785 0.76113 0.64062 0.0
H1407 H 0.80711 0.74935 0.63192 0.0
H1408 H 0.76262 0.79395 0.65322 0.0
H1409 H 0.75082 0.82066 0.64008 0.0
C1410 C 0.79969 0.17043 0.35496 0.0
C1411 C 0.82289 0.16446 0.34426 0.0
C1412 C 0.80819 0.12432 0.33099 0.0
C1413 C 0.7864 0.1289 0.3447 0.0
N1414 N 0.75754 0.15856 0.3619 0.0
N1415 N 0.84675 0.14007 0.31569 0.0
C1416 C 0.78073 0.1529 0.35375 0.0
C1417 C 0.82613 0.14286 0.32983 0.0
N1418 N 0.79651 0.19185 0.36804 0.0
N1419 N 0.81205 0.10173 0.32028 0.0
H1420 H 0.85981 0.15377 0.31475 0.0
H1421 H 0.85004 0.12542 0.30362 0.0
H1422 H 0.79848 0.0885 0.32004 0.0
H1423 H 0.82847 0.09593 0.31207 0.0
H1424 H 0.78131 0.19587 0.3791 0.0
H1425 H 0.80964 0.20545 0.36852 0.0
H1426 H 0.75163 0.17623 0.36703 0.0
H1427 H 0.74345 0.14599 0.36129 0.0
C1428 C 0.80354 0.82702 0.34356 0.0
C1429 C 0.79176 0.83004 0.36668 0.0
C1430 C 0.81969 0.79901 0.38411 0.0
C1431 C 0.82986 0.79426 0.36052 0.0
N1432 N 0.82977 0.8014 0.31714 0.0
N1433 N 0.78528 0.81547 0.40773 0.0
C1434 C 0.82136 0.80767 0.34003 0.0
C1435 C 0.79895 0.81513 0.38665 0.0
N1436 N 0.79832 0.84318 0.32524 0.0
N1437 N 0.83036 0.78876 0.40426 0.0
H1438 H 0.76955 0.82651 0.41022 0.0
H1439 H 0.7881 0.80306 0.42186 0.0
H1440 H 0.84578 0.77708 0.40328 0.0
H1441 H 0.82541 0.79369 0.42212 0.0
H1442 H 0.80809 0.8436 0.30884 0.0
H1443 H 0.78543 0.85755 0.32719 0.0
H1444 H 0.82236 0.80857 0.30117 0.0
H1445 H 0.84305 0.78759 0.31399 0.0
C1446 C 0.15098 0.77882 0.36108 0.0
C1447 C 0.1274 0.78552 0.35232 0.0
C1448 C 0.14315 0.82461 0.33791 0.0
C1449 C 0.16444 0.82045 0.35203 0.0
N1450 N 0.19023 0.79299 0.37543 0.0
N1451 N 0.10153 0.81245 0.32882 0.0
C1452 C 0.16924 0.79704 0.36244 0.0
C1453 C 0.12384 0.80754 0.33909 0.0
N1454 N 0.15557 0.7554 0.36885 0.0
N1455 N 0.14143 0.84525 0.32398 0.0
H1456 H 0.0877 0.7995 0.32851 0.0
H1457 H 0.09654 0.82921 0.32109 0.0
H1458 H 0.1557 0.85769 0.32299 0.0
H1459 H 0.12709 0.84906 0.31207 0.0
H1460 H 0.17292 0.74872 0.37355 0.0
H1461 H 0.14243 0.74183 0.36836 0.0
H1462 H 0.19332 0.7777 0.38636 0.0
H1463 H 0.20439 0.80549 0.37611 0.0
C1464 C 0.17384 0.14484 0.32539 0.0
C1465 C 0.17118 0.12189 0.33713 0.0
C1466 C 0.12865 0.13317 0.34829 0.0
C1467 C 0.1311 0.15586 0.33602 0.0
N1468 N 0.15438 0.1818 0.30941 0.0
N1469 N 0.145 0.09195 0.35526 0.0
C1470 C 0.15312 0.1611 0.32327 0.0
C1471 C 0.14824 0.1154 0.34729 0.0
N1472 N 0.19653 0.15182 0.31771 0.0
N1473 N 0.10768 0.12878 0.3612 0.0
H1474 H 0.15885 0.0784 0.35446 0.0
H1475 H 0.12812 0.08521 0.36062 0.0
H1476 H 0.09233 0.14059 0.36102 0.0
H1477 H 0.10586 0.11411 0.37309 0.0
H1478 H 0.20032 0.16944 0.31174 0.0
H1479 H 0.21221 0.14061 0.31905 0.0
H1480 H 0.16875 0.18515 0.29737 0.0
H1481 H 0.14024 0.19498 0.30853 0.0
C1482 C 0.15941 0.14788 0.56369 0.0
C1483 C 0.17172 0.14274 0.58585 0.0
C1484 C 0.1454 0.1731 0.60764 0.0
C1485 C 0.13543 0.18045 0.58493 0.0
N1486 N 0.13263 0.17558 0.54114 0.0
N1487 N 0.17735 0.15009 0.62891 0.0
C1488 C 0.14219 0.16788 0.5629 0.0
C1489 C 0.16477 0.15504 0.60793 0.0
N1490 N 0.16399 0.13332 0.54351 0.0
N1491 N 0.13627 0.18339 0.62884 0.0
H1492 H 0.19102 0.13638 0.62984 0.0
H1493 H 0.17519 0.16021 0.64508 0.0
H1494 H 0.12239 0.19692 0.62907 0.0
H1495 H 0.14106 0.17739 0.6462 0.0
H1496 H 0.15401 0.13444 0.5274 0.0
H1497 H 0.1766 0.11859 0.54348 0.0
H1498 H 0.13899 0.16938 0.52413 0.0
H1499 H 0.11895 0.18923 0.53996 0.0
C1500 C 0.80486 0.12424 0.60929 0.0
C1501 C 0.78225 0.1278 0.59711 0.0
C1502 C 0.79376 0.16928 0.58548 0.0
C1503 C 0.81763 0.16428 0.59458 0.0
N1504 N 0.84364 0.14155 0.6218 0.0
N1505 N 0.75154 0.15646 0.58247 0.0
C1506 C 0.82228 0.14328 0.60901 0.0
C1507 C 0.77537 0.15142 0.58846 0.0
N1508 N 0.80991 0.10211 0.61993 0.0
N1509 N 0.78926 0.19006 0.57226 0.0
H1510 H 0.7377 0.14382 0.58473 0.0
H1511 H 0.74498 0.1739 0.57779 0.0
H1512 H 0.80198 0.20392 0.5704 0.0
H1513 H 0.77335 0.19318 0.56226 0.0
H1514 H 0.82693 0.097 0.62696 0.0
H1515 H 0.79673 0.08856 0.6213 0.0
H1516 H 0.84792 0.12742 0.63382 0.0
H1517 H 0.85635 0.15563 0.62174 0.0
C1518 C 0.16571 0.79827 0.59079 0.0
C1519 C 0.15957 0.8221 0.59996 0.0
C1520 C 0.11938 0.80765 0.61301 0.0
C1521 C 0.12335 0.78614 0.59852 0.0
N1522 N 0.15063 0.76034 0.57368 0.0
N1523 N 0.13232 0.84908 0.62285 0.0
C1524 C 0.14687 0.78085 0.58806 0.0
C1525 C 0.13706 0.82646 0.61251 0.0
N1526 N 0.18932 0.79262 0.58397 0.0
N1527 N 0.09852 0.81001 0.62689 0.0
H1528 H 0.14566 0.86252 0.62378 0.0
H1529 H 0.11531 0.85472 0.62989 0.0
H1530 H 0.08558 0.79619 0.62755 0.0
H1531 H 0.09503 0.82443 0.63919 0.0
H1532 H 0.19541 0.77492 0.57914 0.0
H1533 H 0.20344 0.80507 0.58566 0.0
H1534 H 0.16621 0.75731 0.56287 0.0
H1535 H 0.13759 0.74688 0.57123 0.0
C1536 C 0.08401 0.21488 0.45831 0.0
C1537 C 0.0941 0.23435 0.44475 0.0
C1538 C 0.10574 0.25501 0.48288 0.0
C1539 C 0.0911 0.23846 0.49599 0.0
N1540 N 0.06628 0.20224 0.49673 0.0
N1541 N 0.11712 0.27149 0.44338 0.0
C1542 C 0.08083 0.21784 0.484 0.0
C1543 C 0.10612 0.2538 0.45688 0.0
N1544 N 0.07685 0.1939 0.44665 0.0
N1545 N 0.11914 0.27181 0.49547 0.0
H1546 H 0.11904 0.27006 0.42441 0.0
H1547 H 0.12377 0.28774 0.45073 0.0
H1548 H 0.11922 0.27264 0.51456 0.0
H1549 H 0.13163 0.28341 0.48735 0.0
H1550 H 0.07179 0.17812 0.45581 0.0
H1551 H 0.07808 0.19124 0.4278 0.0
H1552 H 0.05537 0.18912 0.48848 0.0
H1553 H 0.06385 0.20321 0.51562 0.0
C1554 C 0.72438 0.10929 0.48531 0.0
C1555 C 0.71602 0.088 0.49718 0.0
C1556 C 0.70607 0.06909 0.45776 0.0
C1557 C 0.71739 0.08896 0.4459 0.0
N1558 N 0.73056 0.1307 0.44693 0.0
N1559 N 0.69238 0.05136 0.49607 0.0
C1560 C 0.72404 0.11015 0.45931 0.0
C1561 C 0.70435 0.06926 0.48377 0.0
N1562 N 0.73383 0.12793 0.49902 0.0
N1563 N 0.69866 0.04939 0.44419 0.0
H1564 H 0.69116 0.05131 0.51513 0.0
H1565 H 0.6821 0.03785 0.48764 0.0
H1566 H 0.69898 0.0493 0.42511 0.0
H1567 H 0.69283 0.03299 0.45162 0.0
H1568 H 0.74261 0.14299 0.49175 0.0
H1569 H 0.73315 0.12797 0.51811 0.0
H1570 H 0.73446 0.14742 0.45528 0.0
H1571 H 0.7302 0.13139 0.42785 0.0
C1572 C 0.86958 0.72791 0.46037 0.0
C1573 C 0.85894 0.70807 0.44747 0.0
C1574 C 0.84311 0.69204 0.48606 0.0
C1575 C 0.85768 0.70898 0.49903 0.0
N1576 N 0.88626 0.7423 0.49867 0.0
N1577 N 0.83456 0.67176 0.44734 0.0
C1578 C 0.87084 0.72714 0.4863 0.0
C1579 C 0.84514 0.69042 0.46013 0.0
N1580 N 0.8791 0.74719 0.44791 0.0
N1581 N 0.82726 0.6777 0.49867 0.0
H1582 H 0.83443 0.67103 0.42826 0.0
H1583 H 0.82677 0.6566 0.45551 0.0
H1584 H 0.82527 0.6789 0.51766 0.0
H1585 H 0.81461 0.66634 0.49036 0.0
H1586 H 0.88453 0.76339 0.45641 0.0
H1587 H 0.87962 0.7481 0.42892 0.0
H1588 H 0.89883 0.75349 0.49007 0.0
H1589 H 0.88801 0.7425 0.51762 0.0
C1590 C 0.22571 0.8384 0.46229 0.0
C1591 C 0.23353 0.85973 0.45022 0.0
C1592 C 0.24429 0.87851 0.48952 0.0
C1593 C 0.2314 0.85975 0.50146 0.0
N1594 N 0.21321 0.81999 0.50066 0.0
N1595 N 0.25329 0.89871 0.45109 0.0
C1596 C 0.22367 0.83877 0.48826 0.0
C1597 C 0.24444 0.8791 0.46348 0.0
N1598 N 0.21961 0.81827 0.44866 0.0
N1599 N 0.25552 0.89608 0.5032 0.0
H1600 H 0.25433 0.89895 0.43203 0.0
H1601 H 0.25911 0.91483 0.45942 0.0
H1602 H 0.25539 0.89585 0.52228 0.0
H1603 H 0.26646 0.90963 0.49593 0.0
H1604 H 0.21476 0.8015 0.456 0.0
H1605 H 0.2212 0.81798 0.42961 0.0
H1606 H 0.20491 0.80508 0.49233 0.0
H1607 H 0.21262 0.81964 0.51975 0.0
C1608 C 0.06645 0.70305 0.48855 0.0
C1609 C 0.08568 0.71395 0.5018 0.0
C1610 C 0.10702 0.72349 0.4637 0.0
C1611 C 0.08611 0.716 0.45059 0.0
N1612 N 0.04965 0.69218 0.44879 0.0
N1613 N 0.12711 0.72746 0.50319 0.0
C1614 C 0.06719 0.70324 0.4625 0.0
C1615 C 0.10713 0.7215 0.48963 0.0
N1616 N 0.0468 0.69422 0.50102 0.0
N1617 N 0.126 0.73368 0.45128 0.0
H1618 H 0.12717 0.72587 0.52221 0.0
H1619 H 0.14395 0.73218 0.4958 0.0
H1620 H 0.12654 0.73423 0.4322 0.0
H1621 H 0.14094 0.74176 0.45959 0.0
H1622 H 0.0308 0.68833 0.4928 0.0
H1623 H 0.04647 0.69319 0.52007 0.0
H1624 H 0.03594 0.6814 0.456 0.0
H1625 H 0.05001 0.69235 0.42972 0.0
C1626 C 0.25892 0.10575 0.46499 0.0
C1627 C 0.24082 0.09343 0.45133 0.0
C1628 C 0.21987 0.08188 0.4891 0.0
C1629 C 0.23904 0.09255 0.50276 0.0
N1630 N 0.27251 0.12039 0.50475 0.0
N1631 N 0.20023 0.07668 0.44984 0.0
C1632 C 0.25714 0.10651 0.49096 0.0
C1633 C 0.21986 0.08408 0.46322 0.0
N1634 N 0.2782 0.11592 0.45302 0.0
N1635 N 0.20284 0.06788 0.50056 0.0
H1636 H 0.19966 0.07728 0.43084 0.0
H1637 H 0.18349 0.07213 0.45761 0.0
H1638 H 0.20173 0.0661 0.51947 0.0
H1639 H 0.19065 0.05671 0.49132 0.0
H1640 H 0.29361 0.12264 0.46172 0.0
H1641 H 0.27898 0.11702 0.43398 0.0
H1642 H 0.28505 0.13248 0.49745 0.0
H1643 H 0.27119 0.12134 0.52379 0.0
C1644 C 0.83857 0.22501 0.48023 0.0
C1645 C 0.85871 0.23293 0.49422 0.0
C1646 C 0.88103 0.24344 0.4569 0.0
C1647 C 0.86231 0.23246 0.443 0.0
N1648 N 0.82068 0.21964 0.43986 0.0
N1649 N 0.89547 0.25619 0.49705 0.0
C1650 C 0.84002 0.22579 0.45425 0.0
C1651 C 0.8786 0.24469 0.48285 0.0
N1652 N 0.81879 0.21551 0.49195 0.0
N1653 N 0.90173 0.25105 0.44531 0.0
H1654 H 0.89392 0.25707 0.51607 0.0
H1655 H 0.90978 0.2664 0.49015 0.0
H1656 H 0.90339 0.25108 0.42628 0.0
H1657 H 0.91738 0.25677 0.45428 0.0
H1658 H 0.80438 0.20702 0.48312 0.0
H1659 H 0.8171 0.21588 0.51099 0.0
H1660 H 0.80333 0.21574 0.44654 0.0
H1661 H 0.82167 0.2203 0.4208 0.0
C1662 C 0.72699 0.86964 0.46111 0.0
C1663 C 0.70775 0.85847 0.44798 0.0
C1664 C 0.68929 0.84468 0.48629 0.0
C1665 C 0.7076 0.85721 0.4995 0.0
N1666 N 0.74748 0.8758 0.49975 0.0
N1667 N 0.67461 0.83023 0.44685 0.0
C1668 C 0.7278 0.86748 0.48699 0.0
C1669 C 0.69022 0.84421 0.46026 0.0
N1670 N 0.74332 0.88403 0.44912 0.0
N1671 N 0.67069 0.83386 0.49876 0.0
H1672 H 0.6753 0.8295 0.42777 0.0
H1673 H 0.66248 0.81789 0.45439 0.0
H1674 H 0.67056 0.83243 0.51778 0.0
H1675 H 0.65515 0.82691 0.4905 0.0
H1676 H 0.75544 0.89561 0.45793 0.0
H1677 H 0.74389 0.88569 0.43018 0.0
H1678 H 0.76386 0.88074 0.4915 0.0
H1679 H 0.74849 0.87595 0.51873 0.0
C1680 C 0.45453 0.06348 0.24527 0.0
C1681 C 0.44538 0.08528 0.23444 0.0
C1682 C 0.48496 0.10474 0.24102 0.0
C1683 C 0.49518 0.08162 0.24802 0.0
N1684 N 0.49027 0.03766 0.25223 0.0
N1685 N 0.45145 0.12667 0.22106 0.0
C1686 C 0.48008 0.06067 0.24932 0.0
C1687 C 0.46043 0.10603 0.23221 0.0
N1688 N 0.43886 0.04519 0.25114 0.0
N1689 N 0.49854 0.12542 0.24322 0.0
H1690 H 0.43321 0.1285 0.21559 0.0
H1691 H 0.46227 0.14139 0.21621 0.0
H1692 H 0.51639 0.12506 0.24996 0.0
H1693 H 0.49147 0.14312 0.24046 0.0
H1694 H 0.44413 0.02987 0.26128 0.0
H1695 H 0.42003 0.04653 0.24802 0.0
H1696 H 0.48032 0.02161 0.25059 0.0
H1697 H 0.50906 0.03414 0.25354 0.0
C1698 C 0.83934 0.48603 0.22224 0.0
C1699 C 0.86065 0.49833 0.22982 0.0
C1700 C 0.88065 0.45913 0.24019 0.0
C1701 C 0.8608 0.44681 0.22937 0.0
N1702 N 0.81877 0.44704 0.21693 0.0
N1703 N 0.89812 0.49813 0.25255 0.0
C1704 C 0.83912 0.45989 0.22297 0.0
C1705 C 0.88005 0.48531 0.24134 0.0
N1706 N 0.82006 0.49946 0.21313 0.0
N1707 N 0.90065 0.44572 0.24773 0.0
H1708 H 0.89784 0.51732 0.25338 0.0
H1709 H 0.91225 0.49003 0.26254 0.0
H1710 H 0.90091 0.42652 0.24782 0.0
H1711 H 0.91699 0.45334 0.25339 0.0
H1712 H 0.80477 0.49185 0.20503 0.0
H1713 H 0.81966 0.51867 0.21349 0.0
H1714 H 0.80179 0.45511 0.21306 0.0
H1715 H 0.8186 0.42786 0.21758 0.0
C1716 C 0.47475 0.86436 0.25595 0.0
C1717 C 0.4927 0.86272 0.23691 0.0
C1718 C 0.45999 0.85109 0.20899 0.0
C1719 C 0.44206 0.86011 0.22587 0.0
N1720 N 0.43331 0.8775 0.26612 0.0
N1721 N 0.49992 0.85884 0.19282 0.0
C1722 C 0.44953 0.86702 0.24976 0.0
C1723 C 0.48485 0.8568 0.21274 0.0
N1724 N 0.48163 0.86301 0.27985 0.0
N1725 N 0.45318 0.83771 0.18899 0.0
H1726 H 0.51731 0.86618 0.19328 0.0
H1727 H 0.4937 0.85639 0.17498 0.0
H1728 H 0.43504 0.83269 0.18619 0.0
H1729 H 0.4659 0.82934 0.17704 0.0
H1730 H 0.46898 0.86243 0.2942 0.0
H1731 H 0.4997 0.85925 0.28499 0.0
H1732 H 0.43881 0.88504 0.28276 0.0
H1733 H 0.41485 0.88062 0.26238 0.0
C1734 C 0.07266 0.48621 0.22848 0.0
C1735 C 0.08478 0.4989 0.24759 0.0
C1736 C 0.09723 0.45961 0.26591 0.0
C1737 C 0.08465 0.44696 0.24711 0.0
N1738 N 0.06522 0.44778 0.20744 0.0
N1739 N 0.11291 0.49837 0.28118 0.0
C1740 C 0.07424 0.46011 0.22725 0.0
C1741 C 0.09849 0.48574 0.26527 0.0
N1742 N 0.05792 0.49894 0.21265 0.0
N1743 N 0.10751 0.44657 0.28461 0.0
H1744 H 0.11424 0.51748 0.28081 0.0
H1745 H 0.12502 0.49001 0.29331 0.0
H1746 H 0.10838 0.42738 0.28468 0.0
H1747 H 0.1144 0.4546 0.30041 0.0
H1748 H 0.04581 0.49061 0.20067 0.0
H1749 H 0.05626 0.51804 0.21255 0.0
H1750 H 0.06044 0.45636 0.19117 0.0
H1751 H 0.06415 0.42873 0.20625 0.0
C1752 C 0.46429 0.84217 0.70413 0.0
C1753 C 0.4548 0.86448 0.69434 0.0
C1754 C 0.4959 0.88175 0.69554 0.0
C1755 C 0.50421 0.86135 0.70927 0.0
N1756 N 0.49674 0.82204 0.72725 0.0
N1757 N 0.46102 0.90745 0.68514 0.0
C1758 C 0.48856 0.84139 0.71359 0.0
C1759 C 0.4705 0.88471 0.69079 0.0
N1760 N 0.45023 0.8217 0.70402 0.0
N1761 N 0.51216 0.8987 0.68764 0.0
H1762 H 0.44237 0.91132 0.68317 0.0
H1763 H 0.47143 0.92326 0.68509 0.0
H1764 H 0.5309 0.89726 0.69105 0.0
H1765 H 0.50744 0.9127 0.67557 0.0
H1766 H 0.45678 0.80434 0.70897 0.0
H1767 H 0.43258 0.82164 0.69679 0.0
H1768 H 0.48541 0.80832 0.73361 0.0
H1769 H 0.51484 0.82037 0.73319 0.0
C1770 C 0.06883 0.45883 0.70104 0.0
C1771 C 0.08768 0.44585 0.7134 0.0
C1772 C 0.10969 0.48402 0.71981 0.0
C1773 C 0.08823 0.49723 0.71298 0.0
N1774 N 0.04917 0.49859 0.69306 0.0
N1775 N 0.12816 0.44431 0.73018 0.0
C1776 C 0.06862 0.48503 0.70159 0.0
C1777 C 0.10914 0.45791 0.72082 0.0
N1778 N 0.0508 0.44596 0.68982 0.0
N1779 N 0.13 0.49676 0.72618 0.0
H1780 H 0.12814 0.4251 0.73012 0.0
H1781 H 0.14369 0.45173 0.73801 0.0
H1782 H 0.13031 0.51593 0.72528 0.0
H1783 H 0.14677 0.48861 0.73067 0.0
H1784 H 0.03687 0.45395 0.67951 0.0
H1785 H 0.05096 0.42676 0.68946 0.0
H1786 H 0.03304 0.49114 0.68663 0.0
H1787 H 0.04925 0.51778 0.69271 0.0
C1788 C 0.47512 0.0805 0.67664 0.0
C1789 C 0.45657 0.09308 0.69048 0.0
C1790 C 0.48826 0.10913 0.71757 0.0
C1791 C 0.50477 0.09065 0.70824 0.0
N1792 N 0.51411 0.05869 0.6782 0.0
N1793 N 0.44689 0.12709 0.7176 0.0
C1794 C 0.49853 0.07668 0.68722 0.0
C1795 C 0.46364 0.11003 0.70892 0.0
N1796 N 0.47079 0.07326 0.65313 0.0
N1797 N 0.49638 0.1257 0.7345 0.0
H1798 H 0.43016 0.13027 0.7089 0.0
H1799 H 0.44962 0.13864 0.73257 0.0
H1800 H 0.5146 0.12588 0.74019 0.0
H1801 H 0.48578 0.14008 0.74197 0.0
H1802 H 0.48432 0.0654 0.64176 0.0
H1803 H 0.45492 0.07866 0.64392 0.0
H1804 H 0.509 0.04617 0.66469 0.0
H1805 H 0.53144 0.05501 0.68535 0.0
C1806 C 0.8433 0.48851 0.69202 0.0
C1807 C 0.85886 0.50081 0.70861 0.0
C1808 C 0.87289 0.46132 0.7253 0.0
C1809 C 0.85823 0.44897 0.70788 0.0
N1810 N 0.82515 0.45005 0.67913 0.0
N1811 N 0.88321 0.49962 0.74534 0.0
C1812 C 0.84194 0.46241 0.69271 0.0
C1813 C 0.87166 0.48744 0.72687 0.0
N1814 N 0.83039 0.50185 0.6752 0.0
N1815 N 0.88953 0.44828 0.73892 0.0
H1816 H 0.8839 0.5187 0.74663 0.0
H1817 H 0.89038 0.49089 0.76065 0.0
H1818 H 0.89107 0.42915 0.73865 0.0
H1819 H 0.90309 0.45641 0.74935 0.0
H1820 H 0.82099 0.49407 0.66066 0.0
H1821 H 0.82974 0.52105 0.6754 0.0
H1822 H 0.81137 0.45863 0.66905 0.0
H1823 H 0.82377 0.43095 0.67965 0.0
C1824 C 0.22944 0.49013 0.10212 0.0
C1825 C 0.23619 0.50041 0.07938 0.0
C1826 C 0.23209 0.46035 0.05913 0.0
C1827 C 0.22277 0.45074 0.08115 0.0
N1828 N 0.21052 0.45627 0.12327 0.0
N1829 N 0.23851 0.49669 0.03525 0.0
C1830 C 0.22093 0.46555 0.10264 0.0
C1831 C 0.23625 0.48587 0.05761 0.0
N1832 N 0.23171 0.50367 0.12316 0.0
N1833 N 0.23692 0.44506 0.03956 0.0
H1834 H 0.24035 0.51557 0.03297 0.0
H1835 H 0.23593 0.48736 0.01876 0.0
H1836 H 0.23364 0.42626 0.03982 0.0
H1837 H 0.24624 0.45057 0.02394 0.0
H1838 H 0.22924 0.49657 0.14057 0.0
H1839 H 0.23793 0.52166 0.12328 0.0
H1840 H 0.2061 0.46686 0.13872 0.0
H1841 H 0.20505 0.43805 0.12441 0.0
C1842 C 0.24638 0.48388 0.84554 0.0
C1843 C 0.25255 0.49505 0.86821 0.0
C1844 C 0.25232 0.45464 0.88773 0.0
C1845 C 0.24217 0.44441 0.86631 0.0
N1846 N 0.2288 0.44875 0.82475 0.0
N1847 N 0.25717 0.49143 0.91211 0.0
C1848 C 0.23921 0.45883 0.84506 0.0
C1849 C 0.25481 0.48049 0.8896 0.0
N1850 N 0.2478 0.49708 0.82449 0.0
N1851 N 0.25899 0.43963 0.90654 0.0
H1852 H 0.25742 0.5104 0.91488 0.0
H1853 H 0.2562 0.48182 0.92843 0.0
H1854 H 0.25702 0.42059 0.90578 0.0
H1855 H 0.26868 0.44572 0.92172 0.0
H1856 H 0.24564 0.48941 0.80713 0.0
H1857 H 0.2533 0.51533 0.82426 0.0
H1858 H 0.22339 0.45894 0.80964 0.0
H1859 H 0.22458 0.43015 0.82356 0.0
C1860 C 0.47046 0.23329 0.84573 0.0
C1861 C 0.4542 0.23708 0.86581 0.0
C1862 C 0.48819 0.24926 0.89177 0.0
C1863 C 0.50457 0.24646 0.8715 0.0
N1864 N 0.51039 0.24115 0.82796 0.0
N1865 N 0.44615 0.25506 0.90553 0.0
C1866 C 0.49542 0.24011 0.84804 0.0
C1867 C 0.46263 0.24743 0.88794 0.0
N1868 N 0.46217 0.22255 0.82476 0.0
N1869 N 0.49701 0.25159 0.91502 0.0
H1870 H 0.42727 0.25388 0.90318 0.0
H1871 H 0.45108 0.26484 0.92117 0.0
H1872 H 0.51561 0.25126 0.91919 0.0
H1873 H 0.48588 0.25107 0.93055 0.0
H1874 H 0.47365 0.21656 0.81049 0.0
H1875 H 0.44374 0.21854 0.82219 0.0
H1876 H 0.50424 0.23885 0.81012 0.0
H1877 H 0.52858 0.24656 0.82898 0.0
C1878 C 0.70715 0.49406 0.88527 0.0
C1879 C 0.71846 0.5038 0.86428 0.0
C1880 C 0.71532 0.46386 0.84326 0.0
C1881 C 0.70745 0.45333 0.86554 0.0
N1882 N 0.70088 0.4578 0.90926 0.0
N1883 N 0.73453 0.49834 0.82344 0.0
C1884 C 0.70441 0.46829 0.88692 0.0
C1885 C 0.72278 0.48882 0.84321 0.0
N1886 N 0.69938 0.50943 0.90384 0.0
N1887 N 0.71513 0.45017 0.82215 0.0
H1888 H 0.73906 0.51685 0.82248 0.0
H1889 H 0.74081 0.48774 0.8086 0.0
H1890 H 0.70955 0.43196 0.82162 0.0
H1891 H 0.7185 0.4574 0.80494 0.0
H1892 H 0.68885 0.50363 0.91856 0.0
H1893 H 0.70129 0.52844 0.90324 0.0
H1894 H 0.70121 0.46771 0.92567 0.0
H1895 H 0.70038 0.43887 0.91189 0.0
C1896 C 0.4606 0.71587 0.83534 0.0
C1897 C 0.45124 0.69718 0.85034 0.0
C1898 C 0.49244 0.68764 0.8655 0.0
C1899 C 0.50092 0.70938 0.85445 0.0
N1900 N 0.49469 0.74211 0.82558 0.0
N1901 N 0.46123 0.65677 0.86552 0.0
C1902 C 0.48553 0.72266 0.83803 0.0
C1903 C 0.46809 0.68028 0.86103 0.0
N1904 N 0.44621 0.72557 0.81737 0.0
N1905 N 0.50681 0.67497 0.88164 0.0
H1906 H 0.44447 0.65011 0.85959 0.0
H1907 H 0.47334 0.64311 0.87162 0.0
H1908 H 0.52473 0.67965 0.88574 0.0
H1909 H 0.50023 0.66082 0.89238 0.0
H1910 H 0.4522 0.73815 0.80459 0.0
H1911 H 0.42906 0.71857 0.8133 0.0
H1912 H 0.48393 0.75459 0.81583 0.0
H1913 H 0.5133 0.74612 0.82549 0.0
C1914 C 0.6977 0.4969 0.05944 0.0
C1915 C 0.70731 0.50644 0.08144 0.0
C1916 C 0.70273 0.46629 0.10078 0.0
C1917 C 0.69699 0.45589 0.07763 0.0
N1918 N 0.69339 0.46088 0.0338 0.0
N1919 N 0.71984 0.50073 0.12309 0.0
C1920 C 0.69525 0.47112 0.05668 0.0
C1921 C 0.70988 0.49131 0.10223 0.0
N1922 N 0.69148 0.51248 0.04093 0.0
N1923 N 0.70086 0.45241 0.12134 0.0
H1924 H 0.72403 0.51928 0.125 0.0
H1925 H 0.72497 0.49003 0.13796 0.0
H1926 H 0.69537 0.43416 0.12086 0.0
H1927 H 0.70266 0.4595 0.13899 0.0
H1928 H 0.68214 0.50687 0.02536 0.0
H1929 H 0.69346 0.53149 0.04226 0.0
H1930 H 0.69477 0.47099 0.01781 0.0
H1931 H 0.69317 0.44199 0.03044 0.0
C1932 C 0.47967 0.74097 0.09193 0.0
C1933 C 0.49749 0.72274 0.08519 0.0
C1934 C 0.46421 0.69364 0.08055 0.0
C1935 C 0.44679 0.71354 0.08017 0.0
N1936 N 0.44052 0.75816 0.08089 0.0
N1937 N 0.50592 0.68092 0.07099 0.0
C1938 C 0.45501 0.7378 0.08502 0.0
C1939 C 0.48967 0.69866 0.07925 0.0
N1940 N 0.48639 0.7616 0.10441 0.0
N1941 N 0.45656 0.67002 0.08257 0.0
H1942 H 0.52465 0.68356 0.06917 0.0
H1943 H 0.50033 0.66405 0.06401 0.0
H1944 H 0.43819 0.6658 0.08523 0.0
H1945 H 0.46869 0.65511 0.08473 0.0
H1946 H 0.47363 0.77462 0.11115 0.0
H1947 H 0.50431 0.76402 0.11044 0.0
H1948 H 0.44703 0.77597 0.08256 0.0
H1949 H 0.42344 0.75775 0.07263 0.0
C1950 C 0.48235 0.25576 0.08585 0.0
C1951 C 0.49961 0.23573 0.08569 0.0
C1952 C 0.46556 0.20816 0.09226 0.0
C1953 C 0.44859 0.22687 0.08523 0.0
N1954 N 0.44207 0.26934 0.07307 0.0
N1955 N 0.5057 0.19124 0.0837 0.0
C1956 C 0.45715 0.2511 0.08175 0.0
C1957 C 0.49084 0.21142 0.08795 0.0
N1958 N 0.48993 0.27916 0.09011 0.0
N1959 N 0.45754 0.1871 0.10268 0.0
H1960 H 0.52361 0.19213 0.07729 0.0
H1961 H 0.49908 0.1734 0.08344 0.0
H1962 H 0.43911 0.18462 0.10708 0.0
H1963 H 0.46954 0.17369 0.10954 0.0
H1964 H 0.47773 0.2941 0.0922 0.0
H1965 H 0.50802 0.28304 0.09453 0.0
H1966 H 0.44852 0.28643 0.06794 0.0
H1967 H 0.42372 0.26695 0.06886 0.0
C1968 C 0.60231 0.75327 -0.0148 0.0
C1969 C 0.58626 0.73861 -0.00103 0.0
C1970 C 0.57318 0.71787 0.96133 0.0
C1971 C 0.58572 0.73559 0.94749 0.0
N1972 N 0.61317 0.76953 0.94549 0.0
N1973 N 0.55497 0.70784 0.00031 0.0
C1974 C 0.60083 0.75295 0.95923 0.0
C1975 C 0.57173 0.72069 -0.01283 0.0
N1976 N 0.61903 0.76731 -0.00289 0.0
N1977 N 0.5621 0.69871 0.94978 0.0
H1978 H 0.55297 0.70925 0.01922 0.0
H1979 H 0.54163 0.69704 -0.00769 0.0
H1980 H 0.56179 0.69654 0.93084 0.0
H1981 H 0.55506 0.68376 0.959 0.0
H1982 H 0.63268 0.77696 -0.01172 0.0
H1983 H 0.62056 0.76755 0.01613 0.0
H1984 H 0.62214 0.78456 0.95282 0.0
H1985 H 0.61365 0.7687 0.92641 0.0
C1986 C 0.22377 0.608 0.95909 0.0
C1987 C 0.21726 0.58646 0.94608 0.0
C1988 C 0.20459 0.56701 -0.0159 0.0
C1989 C 0.21423 0.58713 -0.00274 0.0
N1990 N 0.22621 0.62925 -0.00153 0.0
N1991 N 0.19504 0.54887 0.94448 0.0
C1992 C 0.22126 0.60866 -0.01498 0.0
C1993 C 0.20516 0.56721 0.95807 0.0
N1994 N 0.23352 0.6271 0.94659 0.0
N1995 N 0.19652 0.54713 -0.00336 0.0
H1996 H 0.19548 0.54877 0.9254 0.0
H1997 H 0.18466 0.5349 0.95179 0.0
H1998 H 0.19513 0.54717 0.0157 0.0
H1999 H 0.19174 0.53057 -0.01152 0.0
H2000 H 0.24093 0.64254 0.95484 0.0
H2001 H 0.23443 0.62723 0.92751 0.0
H2002 H 0.23043 0.64614 -0.00902 0.0
H2003 H 0.22431 0.62976 0.01749 0.0
C2004 C 0.36858 0.23264 -0.01798 0.0
C2005 C 0.35817 0.21263 -0.00549 0.0
C2006 C 0.34645 0.19422 0.95517 0.0
C2007 C 0.36151 0.21116 0.94307 0.0
N2008 N 0.38742 0.24659 0.94467 0.0
N2009 N 0.3339 0.17627 -0.00634 0.0
C2010 C 0.37219 0.2308 0.9563 0.0
C2011 C 0.34576 0.19416 -0.0188 0.0
N2012 N 0.37538 0.25322 -0.00541 0.0
N2013 N 0.33285 0.17834 0.94162 0.0
H2014 H 0.33145 0.17705 0.01261 0.0
H2015 H 0.32692 0.16057 -0.01449 0.0
H2016 H 0.33296 0.1784 0.92253 0.0
H2017 H 0.32008 0.16657 0.949 0.0
H2018 H 0.38066 0.2693 -0.01395 0.0
H2019 H 0.3733 0.25547 0.01339 0.0
H2020 H 0.39857 0.25889 0.95383 0.0
H2021 H 0.39031 0.2464 0.92584 0.0
C2022 C 0.74338 0.38487 -0.01446 0.0
C2023 C 0.73127 0.36549 -0.00266 0.0
C2024 C 0.72754 0.34359 0.9582 0.0
C2025 C 0.73455 0.36522 0.94614 0.0
N2026 N 0.75211 0.40529 0.94718 0.0
N2027 N 0.71504 0.32485 -0.0036 0.0
C2028 C 0.74406 0.38528 0.95951 0.0
C2029 C 0.72487 0.34405 -0.01588 0.0
N2030 N 0.7534 0.40311 -0.00066 0.0
N2031 N 0.72282 0.32304 0.94458 0.0
H2032 H 0.714 0.32457 0.01547 0.0
H2033 H 0.70765 0.3095 -0.01204 0.0
H2034 H 0.72487 0.32268 0.92558 0.0
H2035 H 0.71871 0.30607 0.95195 0.0
H2036 H 0.76377 0.41717 -0.0078 0.0
H2037 H 0.75286 0.40303 0.01842 0.0
H2038 H 0.75682 0.42179 0.95551 0.0
H2039 H 0.75357 0.40543 0.92814 0.0
C2040 C 0.57574 0.19843 0.96302 0.0
C2041 C 0.59455 0.21181 0.95163 0.0
C2042 C 0.61486 0.21704 -0.00893 0.0
C2043 C 0.59334 0.209 0.00275 0.0
N2044 N 0.55516 0.18813 0.00113 0.0
N2045 N 0.63421 0.22991 0.95319 0.0
C2046 C 0.57466 0.19774 -0.01095 0.0
C2047 C 0.61516 0.21936 0.96517 0.0
N2048 N 0.55857 0.18736 0.94887 0.0
N2049 N 0.63441 0.22331 0.00511 0.0
H2050 H 0.63499 0.23075 0.93413 0.0
H2051 H 0.64901 0.23792 0.96183 0.0
H2052 H 0.63408 0.22148 0.0241 0.0
H2053 H 0.65124 0.22859 -0.00185 0.0
H2054 H 0.54487 0.1763 0.95567 0.0
H2055 H 0.55917 0.18788 0.92981 0.0
H2056 H 0.53951 0.18175 -0.00736 0.0
H2057 H 0.5547 0.18683 0.02016 0.0
C2058 C 0.72035 0.58324 -0.01331 0.0
C2059 C 0.73984 0.59347 0.00022 0.0
C2060 C 0.75942 0.60626 0.962 0.0
C2061 C 0.7424 0.59222 0.94866 0.0
N2062 N 0.70722 0.56601 0.94811 0.0
N2063 N 0.77729 0.61595 0.00144 0.0
C2064 C 0.72265 0.58084 0.96087 0.0
C2065 C 0.75907 0.60562 -0.01197 0.0
N2066 N 0.69991 0.57518 -0.00153 0.0
N2067 N 0.77571 0.62035 0.94965 0.0
H2068 H 0.77657 0.61725 0.02049 0.0
H2069 H 0.79341 0.62246 -0.00611 0.0
H2070 H 0.77605 0.62127 0.93059 0.0
H2071 H 0.78738 0.63265 0.95809 0.0
H2072 H 0.68399 0.57029 -0.01058 0.0
H2073 H 0.69781 0.57532 0.0174 0.0
H2074 H 0.6948 0.55441 0.95637 0.0
H2075 H 0.70788 0.56377 0.9292 0.0
C2076 C 0.38362 0.75028 0.95302 0.0
C2077 C 0.36406 0.74025 0.93959 0.0
C2078 C 0.34051 0.7347 -0.0227 0.0
C2079 C 0.36154 0.741 -0.00918 0.0
N2080 N 0.39976 0.76177 -0.00708 0.0
N2081 N 0.3216 0.73025 0.93727 0.0
C2082 C 0.38187 0.75154 -0.02097 0.0
C2083 C 0.34153 0.73527 0.95128 0.0
N2084 N 0.40433 0.75695 0.94085 0.0
N2085 N 0.3203 0.72678 -0.0105 0.0
H2086 H 0.32238 0.73074 0.91819 0.0
H2087 H 0.30413 0.7274 0.94425 0.0
H2088 H 0.31914 0.72723 0.00857 0.0
H2089 H 0.30498 0.7196 -0.01896 0.0
H2090 H 0.4204 0.76221 0.94936 0.0
H2091 H 0.40537 0.75688 0.92178 0.0
H2092 H 0.41474 0.77083 -0.01421 0.0
H2093 H 0.39851 0.76268 0.01197 0.0
C2094 C 0.18842 0.34446 -0.01316 0.0
C2095 C 0.20532 0.35833 0.0005 0.0
C2096 C 0.22897 0.36573 0.96307 0.0
C2097 C 0.20937 0.35642 0.94913 0.0
N2098 N 0.17134 0.33504 0.947 0.0
N2099 N 0.24161 0.38313 0.0017 0.0
C2100 C 0.1895 0.34488 0.96085 0.0
C2101 C 0.22597 0.36868 -0.01123 0.0
N2102 N 0.17153 0.3308 -0.00115 0.0
N2103 N 0.25018 0.37242 0.95175 0.0
H2104 H 0.24052 0.38587 0.02053 0.0
H2105 H 0.25476 0.39399 -0.00645 0.0
H2106 H 0.25288 0.37136 0.93291 0.0
H2107 H 0.26603 0.37678 0.9612 0.0
H2108 H 0.15985 0.31869 -0.00984 0.0
H2109 H 0.17073 0.32997 0.01791 0.0
H2110 H 0.15484 0.32903 0.95417 0.0
H2111 H 0.17257 0.33363 0.92798 0.0
C2112 C -0.00882 0.58962 0.7155 0.0
C2113 C -0.00077 0.58545 0.73989 0.0
C2114 C 0.95621 0.58314 0.75314 0.0
C2115 C 0.94846 0.58842 0.72894 0.0
N2116 N 0.95905 0.60758 0.69086 0.0
N2117 N -0.01151 0.5881 0.78282 0.0
C2118 C 0.96616 0.59556 0.7115 0.0
C2119 C -0.01857 0.58549 0.75905 0.0
N2120 N 0.00633 0.5857 0.69575 0.0
N2121 N 0.94024 0.57447 0.77014 0.0
H2122 H 0.00658 0.5914 0.78768 0.0
H2123 H -0.02403 0.59006 0.79724 0.0
H2124 H 0.92176 0.57176 0.76681 0.0
H2125 H 0.94597 0.56797 0.78708 0.0
H2126 H 7e-05 0.58683 0.67782 0.0
H2127 H 0.024 0.57825 0.69672 0.0
H2128 H 0.97161 0.61465 0.67847 0.0
H2129 H 0.94083 0.613 0.68786 0.0
C2130 C 0.35 0.96334 0.72053 0.0
C2131 C 0.37117 0.94894 0.72603 0.0
C2132 C 0.39428 -0.0139 0.73456 0.0
C2133 C 0.37413 0.00037 0.72598 0.0
N2134 N 0.33107 0.00424 0.7178 0.0
N2135 N 0.41066 0.94549 0.74489 0.0
C2136 C 0.35125 -0.01054 0.72158 0.0
C2137 C 0.39232 0.96006 0.7356 0.0
N2138 N 0.32931 0.95188 0.71298 0.0
N2139 N 0.41562 -0.00255 0.74021 0.0
H2140 H 0.40933 0.92639 0.74568 0.0
H2141 H 0.42617 0.95217 0.75343 0.0
H2142 H 0.41696 0.01658 0.74046 0.0
H2143 H 0.43198 -0.0118 0.74417 0.0
H2144 H 0.31388 0.961 0.7062 0.0
H2145 H 0.32787 0.93277 0.71315 0.0
H2146 H 0.3134 -0.00219 0.71574 0.0
H2147 H 0.33189 0.0234 0.7186 0.0
C2148 C -0.0211 0.36451 0.76047 0.0
C2149 C -0.00304 0.36369 0.74153 0.0
C2150 C 0.9647 0.35306 0.71275 0.0
C2151 C 0.94646 0.36065 0.72994 0.0
N2152 N 0.937 0.37593 0.77087 0.0
N2153 N 0.00443 0.36299 0.69746 0.0
C2154 C 0.95364 0.36673 0.75418 0.0
C2155 C -0.01067 0.35917 0.71703 0.0
N2156 N -0.01429 0.36269 0.78437 0.0
N2157 N 0.95844 0.34057 0.692 0.0
H2158 H 0.0214 0.3712 0.69872 0.0
H2159 H -0.00153 0.36138 0.67944 0.0
H2160 H 0.94054 0.33504 0.68877 0.0
H2161 H 0.97151 0.3333 0.67973 0.0
H2162 H 0.97305 0.36135 0.79863 0.0
H2163 H 0.00384 0.35942 0.78956 0.0
H2164 H 0.94215 0.38302 0.78782 0.0
H2165 H 0.91843 0.37844 0.76723 0.0
C2166 C 0.5729 0.95946 0.72757 0.0
C2167 C 0.58444 0.94661 0.74699 0.0
C2168 C 0.59631 -0.01433 0.76583 0.0
C2169 C 0.58456 -0.0015 0.74655 0.0
N2170 N 0.5665 -0.00219 0.70627 0.0
N2171 N 0.61147 0.94653 0.78152 0.0
C2172 C 0.57471 -0.01456 0.72637 0.0
C2173 C 0.59756 0.95948 0.76518 0.0
N2174 N 0.55851 0.94712 0.71135 0.0
N2175 N 0.60584 -0.00139 0.78498 0.0
H2176 H 0.61279 0.92735 0.78123 0.0
H2177 H 0.62323 0.95462 0.79398 0.0
H2178 H 0.60673 0.01776 0.78516 0.0
H2179 H 0.612 -0.00943 0.80106 0.0
H2180 H 0.54696 0.95582 0.69891 0.0
H2181 H 0.55648 0.92814 0.71144 0.0
H2182 H 0.56211 -0.01091 0.68987 0.0
H2183 H 0.56576 0.0169 0.70506 0.0
C2184 C 0.96073 0.34385 0.20655 0.0
C2185 C 0.95014 0.36675 0.19943 0.0
C2186 C -0.00998 0.38615 0.20369 0.0
C2187 C -0.00034 0.36429 0.21405 0.0
N2188 N -0.00555 0.32251 0.22678 0.0
N2189 N 0.95365 0.41095 0.19633 0.0
C2190 C -0.01489 0.3431 0.21578 0.0
C2191 C 0.96455 0.38822 0.19904 0.0
N2192 N 0.94766 0.32285 0.20401 0.0
N2193 N 0.00515 0.40518 0.19873 0.0
H2194 H 0.93482 0.41382 0.19447 0.0
H2195 H 0.96295 0.42732 0.19865 0.0
H2196 H 0.02387 0.40458 0.20246 0.0
H2197 H -0.0004 0.42056 0.18882 0.0
H2198 H 0.95503 0.3053 0.20684 0.0
H2199 H 0.9299 0.32284 0.19707 0.0
H2200 H -0.01603 0.30743 0.23124 0.0
H2201 H 0.01261 0.32106 0.23258 0.0
C2202 C 0.60481 -0.013 0.22011 0.0
C2203 C 0.58344 0.00083 0.21418 0.0
C2204 C 0.56328 0.96326 0.20088 0.0
C2205 C 0.58222 0.94942 0.21217 0.0
N2206 N 0.62282 0.94659 0.22857 0.0
N2207 N 0.54376 0.00353 0.19549 0.0
C2208 C 0.60391 0.96086 0.21995 0.0
C2209 C 0.56335 -0.0106 0.20279 0.0
N2210 N 0.62547 -0.0009 0.22663 0.0
N2211 N 0.54495 0.95117 0.18929 0.0
H2212 H 0.54393 0.02272 0.19604 0.0
H2213 H 0.52733 -0.0035 0.18932 0.0
H2214 H 0.54493 0.932 0.18795 0.0
H2215 H 0.53099 0.95985 0.17954 0.0
H2216 H 0.64222 -0.00955 0.23029 0.0
H2217 H 0.62612 0.01828 0.22664 0.0
H2218 H 0.63842 0.95347 0.23676 0.0
H2219 H 0.62258 0.9274 0.22763 0.0
C2220 C -0.01695 0.60295 0.21842 0.0
C2221 C -0.00069 0.58267 0.21391 0.0
C2222 C 0.96576 0.55868 0.1975 0.0
C2223 C 0.94941 0.5792 0.20123 0.0
N2224 N 0.94364 0.62255 0.20983 0.0
N2225 N 0.00786 0.54428 0.19279 0.0
C2226 C 0.95843 0.60192 0.21001 0.0
C2227 C -0.00877 0.56167 0.20108 0.0
N2228 N -0.00898 0.62289 0.23126 0.0
N2229 N 0.95695 0.53579 0.19268 0.0
H2230 H 0.02668 0.54595 0.19515 0.0
H2231 H 0.0032 0.52968 0.18136 0.0
H2232 H 0.93836 0.53205 0.19156 0.0
H2233 H 0.96797 0.51989 0.19249 0.0
H2234 H -0.02061 0.637 0.23773 0.0
H2235 H 0.00928 0.62468 0.23641 0.0
H2236 H 0.94977 0.64008 0.21399 0.0
H2237 H 0.92572 0.62246 0.20329 0.0
C2238 C 0.36932 -0.01042 0.22124 0.0
C2239 C 0.35922 0.00298 0.20144 0.0
C2240 C 0.34303 0.96494 0.1841 0.0
C2241 C 0.357 0.95127 0.2012 0.0
N2242 N 0.38481 0.95027 0.23546 0.0
N2243 N 0.33543 0.00423 0.16454 0.0
C2244 C 0.37003 0.96346 0.22002 0.0
C2245 C 0.34551 -0.0091 0.18314 0.0
N2246 N 0.37885 0.00172 0.24091 0.0
N2247 N 0.3273 0.95297 0.16898 0.0
H2248 H 0.3356 0.02342 0.16423 0.0
H2249 H 0.32775 -0.00362 0.14903 0.0
H2250 H 0.325 0.93398 0.16969 0.0
H2251 H 0.31504 0.96188 0.15738 0.0
H2252 H 0.38382 -0.00699 0.25705 0.0
H2253 H 0.37992 0.02078 0.24211 0.0
H2254 H 0.39731 0.95829 0.24724 0.0
H2255 H 0.38609 0.93114 0.23543 0.0
C2256 C 0.74581 -0.0188 0.55766 0.0
C2257 C 0.74261 -0.00299 0.57843 0.0
C2258 C 0.72809 0.96224 0.60237 0.0
C2259 C 0.73256 0.94644 0.58193 0.0
N2260 N 0.75113 0.93947 0.54228 0.0
N2261 N 0.73519 0.00183 0.62176 0.0
C2262 C 0.74349 0.95547 0.5604 0.0
C2263 C 0.73509 -0.0127 0.60121 0.0
N2264 N 0.74899 -0.00918 0.53487 0.0
N2265 N 0.71661 0.95338 0.62261 0.0
H2266 H 0.74051 0.02013 0.62156 0.0
H2267 H 0.73202 -0.00473 0.63928 0.0
H2268 H 0.7125 0.93484 0.62444 0.0
H2269 H 0.71012 0.96452 0.63698 0.0
H2270 H 0.74875 -0.01975 0.51887 0.0
H2271 H 0.74908 0.00963 0.53146 0.0
H2272 H 0.76147 0.9448 0.52724 0.0
H2273 H 0.74922 0.92048 0.54344 0.0
C2274 C 0.7482 -0.01525 0.38922 0.0
C2275 C 0.74712 -0.0013 0.36737 0.0
C2276 C 0.7328 0.96247 0.34489 0.0
C2277 C 0.73488 0.94854 0.36656 0.0
N2278 N 0.75048 0.94434 0.40736 0.0
N2279 N 0.74299 -0.00011 0.32356 0.0
C2280 C 0.74473 0.95902 0.388 0.0
C2281 C 0.74083 -0.01276 0.34488 0.0
N2282 N 0.75053 -0.00375 0.41146 0.0
N2283 N 0.72244 0.95223 0.32462 0.0
H2284 H 0.74899 0.01795 0.32302 0.0
H2285 H 0.74083 -0.00808 0.30633 0.0
H2286 H 0.71743 0.93383 0.32382 0.0
H2287 H 0.71772 0.96218 0.30913 0.0
H2288 H 0.7487 -0.01278 0.42804 0.0
H2289 H 0.75166 0.01524 0.41366 0.0
H2290 H 0.75996 0.95052 0.42263 0.0
H2291 H 0.74796 0.92538 0.40703 0.0
C2292 C 0.95491 0.74918 0.38803 0.0
C2293 C 0.94644 0.73821 0.3662 0.0
C2294 C -0.01297 0.74271 0.34744 0.0
C2295 C -0.00355 0.7496 0.37062 0.0
N2296 N -0.01032 0.75522 0.41422 0.0
N2297 N 0.95392 0.72382 0.32503 0.0
C2298 C -0.01956 0.75215 0.39122 0.0
C2299 C 0.96232 0.73497 0.34575 0.0
N2300 N 0.93856 0.75616 0.40599 0.0
N2301 N 0.00154 0.74403 0.32705 0.0
H2302 H 0.9356 0.71915 0.32292 0.0
H2303 H 0.96524 0.7182 0.3105 0.0
H2304 H 0.01955 0.75005 0.32768 0.0
H2305 H -0.00486 0.74133 0.30936 0.0
H2306 H 0.9434 0.7664 0.42136 0.0
H2307 H 0.91971 0.75388 0.4043 0.0
H2308 H -0.02103 0.75446 0.43002 0.0
H2309 H 0.00834 0.75585 0.41798 0.0
C2310 C 0.22401 -0.01459 0.34845 0.0
C2311 C 0.22017 0.0004 0.36959 0.0
C2312 C 0.20613 0.96508 0.39246 0.0
C2313 C 0.20847 0.95017 0.37097 0.0
N2314 N 0.21553 0.94693 0.32747 0.0
N2315 N 0.2022 0.00623 0.40963 0.0
C2316 C 0.21619 0.96058 0.34859 0.0
C2317 C 0.20923 -0.00921 0.39082 0.0
N2318 N 0.23573 -0.00526 0.32857 0.0
N2319 N 0.20296 0.95456 0.41485 0.0
H2320 H 0.20456 0.02521 0.40915 0.0
H2321 H 0.1919 0.00055 0.42457 0.0
H2322 H 0.20235 0.93562 0.41743 0.0
H2323 H 0.20376 0.96439 0.43127 0.0
H2324 H 0.24171 -0.01596 0.31368 0.0
H2325 H 0.24061 0.01315 0.32759 0.0
H2326 H 0.21883 0.95412 0.31023 0.0
H2327 H 0.2097 0.9288 0.32697 0.0
C2328 C -0.00898 0.21074 0.34027 0.0
C2329 C 0.00581 0.20614 0.36102 0.0
C2330 C 0.96967 0.19518 0.38474 0.0
C2331 C 0.95476 0.19871 0.36374 0.0
N2332 N 0.9519 0.205 0.32026 0.0
N2333 N 0.0105 0.18802 0.40068 0.0
C2334 C 0.96565 0.20501 0.34105 0.0
C2335 C -0.00447 0.19608 0.38236 0.0
N2336 N 0.00113 0.22124 0.32012 0.0
N2337 N 0.95918 0.1931 0.40741 0.0
H2338 H 0.02957 0.18882 0.39961 0.0
H2339 H 0.00418 0.17833 0.41569 0.0
H2340 H 0.94033 0.19422 0.41058 0.0
H2341 H 0.96923 0.19311 0.42354 0.0
H2342 H -0.00912 0.22784 0.3055 0.0
H2343 H 0.01989 0.22436 0.31862 0.0
H2344 H 0.95925 0.20729 0.30284 0.0
H2345 H 0.9334 0.20059 0.3202 0.0
C2346 C 0.2024 -0.00775 0.5611 0.0
C2347 C 0.21159 0.00223 0.58309 0.0
C2348 C 0.20595 0.96273 0.60337 0.0
C2349 C 0.20033 0.95188 0.58039 0.0
N2350 N 0.19787 0.95564 0.53636 0.0
N2351 N 0.22334 -0.00261 0.62509 0.0
C2352 C 0.19947 0.96649 0.55898 0.0
C2353 C 0.21355 -0.01237 0.60432 0.0
N2354 N 0.19681 0.00741 0.54207 0.0
N2355 N 0.20353 0.9494 0.62424 0.0
H2356 H 0.22798 0.01586 0.62658 0.0
H2357 H 0.22798 -0.01299 0.64033 0.0
H2358 H 0.1978 0.93123 0.62411 0.0
H2359 H 0.20518 0.95689 0.64174 0.0
H2360 H 0.18777 0.00152 0.52641 0.0
H2361 H 0.19899 0.02641 0.543 0.0
H2362 H 0.19988 0.96523 0.52011 0.0
H2363 H 0.19723 0.93669 0.53354 0.0
C2364 C 0.95781 0.21136 0.59571 0.0
C2365 C 0.94675 0.20566 0.57298 0.0
C2366 C -0.01376 0.20988 0.55207 0.0
C2367 C -0.00363 0.21891 0.57404 0.0
N2368 N -0.00783 0.22964 0.6167 0.0
N2369 N 0.94944 0.20399 0.52874 0.0
C2370 C -0.01766 0.21985 0.59596 0.0
C2371 C 0.96074 0.20583 0.55094 0.0
N2372 N 0.94501 0.20824 0.61697 0.0
N2373 N 0.00108 0.20525 0.5322 0.0
H2374 H 0.93058 0.20221 0.52674 0.0
H2375 H 0.9584 0.20679 0.51217 0.0
H2376 H 0.01991 0.20817 0.53242 0.0
H2377 H -0.00481 0.19628 0.51644 0.0
H2378 H 0.95272 0.20988 0.63425 0.0
H2379 H 0.92706 0.20202 0.61729 0.0
H2380 H -0.01792 0.23349 0.63257 0.0
H2381 H 0.01034 0.23516 0.61759 0.0
C2382 C -0.01326 0.71416 0.59166 0.0
C2383 C -0.00479 0.73852 0.58847 0.0
C2384 C 0.95242 0.75331 0.58536 0.0
C2385 C 0.94426 0.72908 0.58963 0.0
N2386 N 0.95409 0.69002 0.6081 0.0
N2387 N -0.01497 0.78193 0.59235 0.0
C2388 C 0.96162 0.71081 0.59681 0.0
C2389 C -0.02231 0.75836 0.58866 0.0
N2390 N 0.00161 0.69393 0.58757 0.0
N2391 N 0.93684 0.77119 0.57682 0.0
H2392 H 0.00312 0.78611 0.59645 0.0
H2393 H 0.97268 0.79675 0.5944 0.0
H2394 H 0.91835 0.76856 0.57349 0.0
H2395 H 0.94293 0.78823 0.57107 0.0
H2396 H -0.00496 0.67608 0.58803 0.0
H2397 H 0.01935 0.69453 0.58062 0.0
H2398 H 0.9664 0.67698 0.61512 0.0
H2399 H 0.93579 0.6875 0.613 0.0
loop_
_geom_bond_atom_site_label_1
_geom_bond_atom_site_label_2
_geom_bond_distance
_geom_bond_site_symmetry_2
_ccdc_geom_bond_type
Zn0 O3 2.031 . S
Zn0 O5 2.049 . S
Zn0 O10 2.067 . S
Zn1 O2 1.962 . S
Zn1 O4 1.986 . S
Zn1 O6 1.996 . S
Zn1 O9 1.943 . S
O2 Zn1 1.962 . S
O2 C7 1.254 . S
O3 Zn0 2.031 . S
O3 C7 1.269 . S
O4 Zn1 1.986 . S
O4 C11 1.262 . S
O5 Zn0 2.049 . S
O5 C13 1.260 . S
O6 Zn1 1.996 . S
O6 C13 1.257 . S
C7 O2 1.254 . S
C7 O3 1.269 . S
C8 O9 1.249 . S
C8 O10 1.270 . S
O9 Zn1 1.943 . S
O9 C8 1.249 . S
O10 Zn0 2.067 . S
O10 C8 1.270 . S
C11 O4 1.262 . S
C11 O12 1.232 . S
O12 C11 1.232 . S
C13 O5 1.260 . S
C13 O6 1.257 . S
Zn14 O17 2.031 . S
Zn14 O19 2.049 . S
Zn14 O24 2.067 . S
Zn15 O16 1.962 . S
Zn15 O18 1.986 . S
Zn15 O20 1.996 . S
Zn15 O23 1.943 . S
O16 Zn15 1.962 . S
O16 C21 1.254 . S
O17 Zn14 2.031 . S
O17 C21 1.269 . S
O18 Zn15 1.986 . S
O18 C25 1.262 . S
O19 Zn14 2.049 . S
O19 C27 1.260 . S
O20 Zn15 1.996 . S
O20 C27 1.257 . S
C21 O16 1.254 . S
C21 O17 1.269 . S
C22 O23 1.249 . S
C22 O24 1.270 . S
O23 Zn15 1.943 . S
O23 C22 1.249 . S
O24 Zn14 2.067 . S
O24 C22 1.270 . S
C25 O18 1.262 . S
C25 O26 1.232 . S
O26 C25 1.232 . S
C27 O19 1.260 . S
C27 O20 1.257 . S
Zn28 O31 2.031 . S
Zn28 O33 2.049 . S
Zn28 O38 2.067 . S
Zn29 O30 1.962 . S
Zn29 O32 1.986 . S
Zn29 O34 1.996 . S
Zn29 O37 1.943 . S
O30 Zn29 1.962 . S
O30 C35 1.254 . S
O31 Zn28 2.031 . S
O31 C35 1.269 . S
O32 Zn29 1.986 . S
O32 C39 1.262 . S
O33 Zn28 2.049 . S
O33 C41 1.260 . S
O34 Zn29 1.996 . S
O34 C41 1.257 . S
C35 O30 1.254 . S
C35 O31 1.269 . S
C36 O37 1.249 . S
C36 O38 1.270 . S
O37 Zn29 1.943 . S
O37 C36 1.249 . S
O38 Zn28 2.067 . S
O38 C36 1.270 . S
C39 O32 1.262 . S
C39 O40 1.232 . S
O40 C39 1.232 . S
C41 O33 1.260 . S
C41 O34 1.257 . S
Zn42 O45 2.031 . S
Zn42 O47 2.049 . S
Zn42 O52 2.067 . S
Zn43 O44 1.962 . S
Zn43 O46 1.986 . S
Zn43 O48 1.996 . S
Zn43 O51 1.943 . S
O44 Zn43 1.962 . S
O44 C49 1.254 . S
O45 Zn42 2.031 . S
O45 C49 1.269 . S
O46 Zn43 1.986 . S
O46 C53 1.262 . S
O47 Zn42 2.049 . S
O47 C55 1.260 . S
O48 Zn43 1.996 . S
O48 C55 1.257 . S
C49 O44 1.254 . S
C49 O45 1.269 . S
C50 O51 1.249 . S
C50 O52 1.270 . S
O51 Zn43 1.943 . S
O51 C50 1.249 . S
O52 Zn42 2.067 . S
O52 C50 1.270 . S
C53 O46 1.262 . S
C53 O54 1.232 . S
O54 C53 1.232 . S
C55 O47 1.260 . S
C55 O48 1.257 . S
Zn56 O59 2.031 . S
Zn56 O61 2.049 . S
Zn56 O66 2.067 . S
Zn57 O58 1.962 . S
Zn57 O60 1.986 . S
Zn57 O62 1.996 . S
Zn57 O65 1.943 . S
O58 Zn57 1.962 . S
O58 C63 1.254 . S
O59 Zn56 2.031 . S
O59 C63 1.269 . S
O60 Zn57 1.986 . S
O60 C67 1.262 . S
O61 Zn56 2.049 . S
O61 C69 1.260 . S
O62 Zn57 1.996 . S
O62 C69 1.257 . S
C63 O58 1.254 . S
C63 O59 1.269 . S
C64 O65 1.249 . S
C64 O66 1.270 . S
O65 Zn57 1.943 . S
O65 C64 1.249 . S
O66 Zn56 2.067 . S
O66 C64 1.270 . S
C67 O60 1.262 . S
C67 O68 1.232 . S
O68 C67 1.232 . S
C69 O61 1.260 . S
C69 O62 1.257 . S
Zn70 O73 2.031 . S
Zn70 O75 2.049 . S
Zn70 O80 2.067 . S
Zn71 O72 1.962 . S
Zn71 O74 1.986 . S
Zn71 O76 1.996 . S
Zn71 O79 1.943 . S
O72 Zn71 1.962 . S
O72 C77 1.254 . S
O73 Zn70 2.031 . S
O73 C77 1.269 . S
O74 Zn71 1.986 . S
O74 C81 1.262 . S
O75 Zn70 2.049 . S
O75 C83 1.260 . S
O76 Zn71 1.996 . S
O76 C83 1.257 . S
C77 O72 1.254 . S
C77 O73 1.269 . S
C78 O79 1.249 . S
C78 O80 1.270 . S
O79 Zn71 1.943 . S
O79 C78 1.249 . S
O80 Zn70 2.067 . S
O80 C78 1.270 . S
C81 O74 1.262 . S
C81 O82 1.232 . S
O82 C81 1.232 . S
C83 O75 1.260 . S
C83 O76 1.257 . S
Zn84 O87 2.031 . S
Zn84 O89 2.049 . S
Zn84 O94 2.067 . S
Zn85 O86 1.962 . S
Zn85 O88 1.986 . S
Zn85 O90 1.996 . S
Zn85 O93 1.943 . S
O86 Zn85 1.962 . S
O86 C91 1.254 . S
O87 Zn84 2.031 . S
O87 C91 1.269 . S
O88 Zn85 1.986 . S
O88 C95 1.262 . S
O89 Zn84 2.049 . S
O89 C97 1.260 . S
O90 Zn85 1.996 . S
O90 C97 1.257 . S
C91 O86 1.254 . S
C91 O87 1.269 . S
C92 O93 1.249 . S
C92 O94 1.270 . S
O93 Zn85 1.943 . S
O93 C92 1.249 . S
O94 Zn84 2.067 . S
O94 C92 1.270 . S
C95 O88 1.262 . S
C95 O96 1.232 . S
O96 C95 1.232 . S
C97 O89 1.260 . S
C97 O90 1.257 . S
Zn98 O101 2.031 . S
Zn98 O103 2.049 . S
Zn98 O108 2.067 . S
Zn99 O100 1.962 . S
Zn99 O102 1.986 . S
Zn99 O104 1.996 . S
Zn99 O107 1.943 . S
O100 Zn99 1.962 . S
O100 C105 1.254 . S
O101 Zn98 2.031 . S
O101 C105 1.269 . S
O102 Zn99 1.986 . S
O102 C109 1.262 . S
O103 Zn98 2.049 . S
O103 C111 1.260 . S
O104 Zn99 1.996 . S
O104 C111 1.257 . S
C105 O100 1.254 . S
C105 O101 1.269 . S
C106 O107 1.249 . S
C106 O108 1.270 . S
O107 Zn99 1.943 . S
O107 C106 1.249 . S
O108 Zn98 2.067 . S
O108 C106 1.270 . S
C109 O102 1.262 . S
C109 O110 1.232 . S
O110 C109 1.232 . S
C111 O103 1.260 . S
C111 O104 1.257 . S
Zn112 O115 2.031 . S
Zn112 O117 2.049 . S
Zn112 O122 2.067 . S
Zn113 O114 1.962 . S
Zn113 O116 1.986 . S
Zn113 O118 1.996 . S
Zn113 O121 1.943 . S
O114 Zn113 1.962 . S
O114 C119 1.254 . S
O115 Zn112 2.031 . S
O115 C119 1.269 . S
O116 Zn113 1.986 . S
O116 C123 1.262 . S
O117 Zn112 2.049 . S
O117 C125 1.260 . S
O118 Zn113 1.996 . S
O118 C125 1.257 . S
C119 O114 1.254 . S
C119 O115 1.269 . S
C120 O121 1.249 . S
C120 O122 1.270 . S
O121 Zn113 1.943 . S
O121 C120 1.249 . S
O122 Zn112 2.067 . S
O122 C120 1.270 . S
C123 O116 1.262 . S
C123 O124 1.232 . S
O124 C123 1.232 . S
C125 O117 1.260 . S
C125 O118 1.257 . S
Zn126 O129 2.031 . S
Zn126 O131 2.049 . S
Zn126 O136 2.067 . S
Zn127 O128 1.962 . S
Zn127 O130 1.986 . S
Zn127 O132 1.996 . S
Zn127 O135 1.943 . S
O128 Zn127 1.962 . S
O128 C133 1.254 . S
O129 Zn126 2.031 . S
O129 C133 1.269 . S
O130 Zn127 1.986 . S
O130 C137 1.262 . S
O131 Zn126 2.049 . S
O131 C139 1.260 . S
O132 Zn127 1.996 . S
O132 C139 1.257 . S
C133 O128 1.254 . S
C133 O129 1.269 . S
C134 O135 1.249 . S
C134 O136 1.270 . S
O135 Zn127 1.943 . S
O135 C134 1.249 . S
O136 Zn126 2.067 . S
O136 C134 1.270 . S
C137 O130 1.262 . S
C137 O138 1.232 . S
O138 C137 1.232 . S
C139 O131 1.260 . S
C139 O132 1.257 . S
Zn140 O143 2.031 . S
Zn140 O145 2.049 . S
Zn140 O150 2.067 . S
Zn141 O142 1.962 . S
Zn141 O144 1.986 . S
Zn141 O146 1.996 . S
Zn141 O149 1.943 . S
O142 Zn141 1.962 . S
O142 C147 1.254 . S
O143 Zn140 2.031 . S
O143 C147 1.269 . S
O144 Zn141 1.986 . S
O144 C151 1.262 . S
O145 Zn140 2.049 . S
O145 C153 1.260 . S
O146 Zn141 1.996 . S
O146 C153 1.257 . S
C147 O142 1.254 . S
C147 O143 1.269 . S
C148 O149 1.249 . S
C148 O150 1.270 . S
O149 Zn141 1.943 . S
O149 C148 1.249 . S
O150 Zn140 2.067 . S
O150 C148 1.270 . S
C151 O144 1.262 . S
C151 O152 1.232 . S
O152 C151 1.232 . S
C153 O145 1.260 . S
C153 O146 1.257 . S
Zn154 O157 2.031 . S
Zn154 O159 2.049 . S
Zn154 O164 2.067 . S
Zn155 O156 1.962 . S
Zn155 O158 1.986 . S
Zn155 O160 1.996 . S
Zn155 O163 1.943 . S
O156 Zn155 1.962 . S
O156 C161 1.254 . S
O157 Zn154 2.031 . S
O157 C161 1.269 . S
O158 Zn155 1.986 . S
O158 C165 1.262 . S
O159 Zn154 2.049 . S
O159 C167 1.260 . S
O160 Zn155 1.996 . S
O160 C167 1.257 . S
C161 O156 1.254 . S
C161 O157 1.269 . S
C162 O163 1.249 . S
C162 O164 1.270 . S
O163 Zn155 1.943 . S
O163 C162 1.249 . S
O164 Zn154 2.067 . S
O164 C162 1.270 . S
C165 O158 1.262 . S
C165 O166 1.232 . S
O166 C165 1.232 . S
C167 O159 1.260 . S
C167 O160 1.257 . S
Zn168 O171 2.031 . S
Zn168 O173 2.049 . S
Zn168 O178 2.067 . S
Zn169 O170 1.962 . S
Zn169 O172 1.986 . S
Zn169 O174 1.996 . S
Zn169 O177 1.943 . S
O170 Zn169 1.962 . S
O170 C175 1.254 . S
O171 Zn168 2.031 . S
O171 C175 1.269 . S
O172 Zn169 1.986 . S
O172 C179 1.262 . S
O173 Zn168 2.049 . S
O173 C181 1.260 . S
O174 Zn169 1.996 . S
O174 C181 1.257 . S
C175 O170 1.254 . S
C175 O171 1.269 . S
C176 O177 1.249 . S
C176 O178 1.270 . S
O177 Zn169 1.943 . S
O177 C176 1.249 . S
O178 Zn168 2.067 . S
O178 C176 1.270 . S
C179 O172 1.262 . S
C179 O180 1.232 . S
O180 C179 1.232 . S
C181 O173 1.260 . S
C181 O174 1.257 . S
Zn182 O185 2.031 . S
Zn182 O187 2.049 . S
Zn182 O192 2.067 . S
Zn183 O184 1.962 . S
Zn183 O186 1.986 . S
Zn183 O188 1.996 . S
Zn183 O191 1.943 . S
O184 Zn183 1.962 . S
O184 C189 1.254 . S
O185 Zn182 2.031 . S
O185 C189 1.269 . S
O186 Zn183 1.986 . S
O186 C193 1.262 . S
O187 Zn182 2.049 . S
O187 C195 1.260 . S
O188 Zn183 1.996 . S
O188 C195 1.257 . S
C189 O184 1.254 . S
C189 O185 1.269 . S
C190 O191 1.249 . S
C190 O192 1.270 . S
O191 Zn183 1.943 . S
O191 C190 1.249 . S
O192 Zn182 2.067 . S
O192 C190 1.270 . S
C193 O186 1.262 . S
C193 O194 1.232 . S
O194 C193 1.232 . S
C195 O187 1.260 . S
C195 O188 1.257 . S
Zn196 O199 2.031 . S
Zn196 O201 2.049 . S
Zn196 O206 2.067 . S
Zn197 O198 1.962 . S
Zn197 O200 1.986 . S
Zn197 O202 1.996 . S
Zn197 O205 1.943 . S
O198 Zn197 1.962 . S
O198 C203 1.254 . S
O199 Zn196 2.031 . S
O199 C203 1.269 . S
O200 Zn197 1.986 . S
O200 C207 1.262 . S
O201 Zn196 2.049 . S
O201 C209 1.260 . S
O202 Zn197 1.996 . S
O202 C209 1.257 . S
C203 O198 1.254 . S
C203 O199 1.269 . S
C204 O205 1.249 . S
C204 O206 1.270 . S
O205 Zn197 1.943 . S
O205 C204 1.249 . S
O206 Zn196 2.067 . S
O206 C204 1.270 . S
C207 O200 1.262 . S
C207 O208 1.232 . S
O208 C207 1.232 . S
C209 O201 1.260 . S
C209 O202 1.257 . S
Zn210 O213 2.031 . S
Zn210 O215 2.049 . S
Zn210 O220 2.067 . S
Zn211 O212 1.962 . S
Zn211 O214 1.986 . S
Zn211 O216 1.996 . S
Zn211 O219 1.943 . S
O212 Zn211 1.962 . S
O212 C217 1.254 . S
O213 Zn210 2.031 . S
O213 C217 1.269 . S
O214 Zn211 1.986 . S
O214 C221 1.262 . S
O215 Zn210 2.049 . S
O215 C223 1.260 . S
O216 Zn211 1.996 . S
O216 C223 1.257 . S
C217 O212 1.254 . S
C217 O213 1.269 . S
C218 O219 1.249 . S
C218 O220 1.270 . S
O219 Zn211 1.943 . S
O219 C218 1.249 . S
O220 Zn210 2.067 . S
O220 C218 1.270 . S
C221 O214 1.262 . S
C221 O222 1.232 . S
O222 C221 1.232 . S
C223 O215 1.260 . S
C223 O216 1.257 . S
Zn224 O227 2.031 . S
Zn224 O229 2.049 . S
Zn224 O234 2.067 . S
Zn225 O226 1.962 . S
Zn225 O228 1.986 . S
Zn225 O230 1.996 . S
Zn225 O233 1.943 . S
O226 Zn225 1.962 . S
O226 C231 1.254 . S
O227 Zn224 2.031 . S
O227 C231 1.269 . S
O228 Zn225 1.986 . S
O228 C235 1.262 . S
O229 Zn224 2.049 . S
O229 C237 1.260 . S
O230 Zn225 1.996 . S
O230 C237 1.257 . S
C231 O226 1.254 . S
C231 O227 1.269 . S
C232 O233 1.249 . S
C232 O234 1.270 . S
O233 Zn225 1.943 . S
O233 C232 1.249 . S
O234 Zn224 2.067 . S
O234 C232 1.270 . S
C235 O228 1.262 . S
C235 O236 1.232 . S
O236 C235 1.232 . S
C237 O229 1.260 . S
C237 O230 1.257 . S
Zn238 O241 2.031 . S
Zn238 O243 2.049 . S
Zn238 O248 2.067 . S
Zn239 O240 1.962 . S
Zn239 O242 1.986 . S
Zn239 O244 1.996 . S
Zn239 O247 1.943 . S
O240 Zn239 1.962 . S
O240 C245 1.254 . S
O241 Zn238 2.031 . S
O241 C245 1.269 . S
O242 Zn239 1.986 . S
O242 C249 1.262 . S
O243 Zn238 2.049 . S
O243 C251 1.260 . S
O244 Zn239 1.996 . S
O244 C251 1.257 . S
C245 O240 1.254 . S
C245 O241 1.269 . S
C246 O247 1.249 . S
C246 O248 1.270 . S
O247 Zn239 1.943 . S
O247 C246 1.249 . S
O248 Zn238 2.067 . S
O248 C246 1.270 . S
C249 O242 1.262 . S
C249 O250 1.232 . S
O250 C249 1.232 . S
C251 O243 1.260 . S
C251 O244 1.257 . S
Zn252 O255 2.031 . S
Zn252 O257 2.049 . S
Zn252 O262 2.067 . S
Zn253 O254 1.962 . S
Zn253 O256 1.986 . S
Zn253 O258 1.996 . S
Zn253 O261 1.943 . S
O254 Zn253 1.962 . S
O254 C259 1.254 . S
O255 Zn252 2.031 . S
O255 C259 1.269 . S
O256 Zn253 1.986 . S
O256 C263 1.262 . S
O257 Zn252 2.049 . S
O257 C265 1.260 . S
O258 Zn253 1.996 . S
O258 C265 1.257 . S
C259 O254 1.254 . S
C259 O255 1.269 . S
C260 O261 1.249 . S
C260 O262 1.270 . S
O261 Zn253 1.943 . S
O261 C260 1.249 . S
O262 Zn252 2.067 . S
O262 C260 1.270 . S
C263 O256 1.262 . S
C263 O264 1.232 . S
O264 C263 1.232 . S
C265 O257 1.260 . S
C265 O258 1.257 . S
Zn266 O269 2.031 . S
Zn266 O271 2.049 . S
Zn266 O276 2.067 . S
Zn267 O268 1.962 . S
Zn267 O270 1.986 . S
Zn267 O272 1.996 . S
Zn267 O275 1.943 . S
O268 Zn267 1.962 . S
O268 C273 1.254 . S
O269 Zn266 2.031 . S
O269 C273 1.269 . S
O270 Zn267 1.986 . S
O270 C277 1.262 . S
O271 Zn266 2.049 . S
O271 C279 1.260 . S
O272 Zn267 1.996 . S
O272 C279 1.257 . S
C273 O268 1.254 . S
C273 O269 1.269 . S
C274 O275 1.249 . S
C274 O276 1.270 . S
O275 Zn267 1.943 . S
O275 C274 1.249 . S
O276 Zn266 2.067 . S
O276 C274 1.270 . S
C277 O270 1.262 . S
C277 O278 1.232 . S
O278 C277 1.232 . S
C279 O271 1.260 . S
C279 O272 1.257 . S
Zn280 O283 2.031 . S
Zn280 O285 2.049 . S
Zn280 O290 2.067 . S
Zn281 O282 1.962 . S
Zn281 O284 1.986 . S
Zn281 O286 1.996 . S
Zn281 O289 1.943 . S
O282 Zn281 1.962 . S
O282 C287 1.254 . S
O283 Zn280 2.031 . S
O283 C287 1.269 . S
O284 Zn281 1.986 . S
O284 C291 1.262 . S
O285 Zn280 2.049 . S
O285 C293 1.260 . S
O286 Zn281 1.996 . S
O286 C293 1.257 . S
C287 O282 1.254 . S
C287 O283 1.269 . S
C288 O289 1.249 . S
C288 O290 1.270 . S
O289 Zn281 1.943 . S
O289 C288 1.249 . S
O290 Zn280 2.067 . S
O290 C288 1.270 . S
C291 O284 1.262 . S
C291 O292 1.232 . S
O292 C291 1.232 . S
C293 O285 1.260 . S
C293 O286 1.257 . S
Zn294 O297 2.031 . S
Zn294 O299 2.049 . S
Zn294 O304 2.067 . S
Zn295 O296 1.962 . S
Zn295 O298 1.986 . S
Zn295 O300 1.996 . S
Zn295 O303 1.943 . S
O296 Zn295 1.962 . S
O296 C301 1.254 . S
O297 Zn294 2.031 . S
O297 C301 1.269 . S
O298 Zn295 1.986 . S
O298 C305 1.262 . S
O299 Zn294 2.049 . S
O299 C307 1.260 . S
O300 Zn295 1.996 . S
O300 C307 1.257 . S
C301 O296 1.254 . S
C301 O297 1.269 . S
C302 O303 1.249 . S
C302 O304 1.270 . S
O303 Zn295 1.943 . S
O303 C302 1.249 . S
O304 Zn294 2.067 . S
O304 C302 1.270 . S
C305 O298 1.262 . S
C305 O306 1.232 . S
O306 C305 1.232 . S
C307 O299 1.260 . S
C307 O300 1.257 . S
Zn308 O311 2.031 . S
Zn308 O313 2.049 . S
Zn308 O318 2.067 . S
Zn309 O310 1.962 . S
Zn309 O312 1.986 . S
Zn309 O314 1.996 . S
Zn309 O317 1.943 . S
O310 Zn309 1.962 . S
O310 C315 1.254 . S
O311 Zn308 2.031 . S
O311 C315 1.269 . S
O312 Zn309 1.986 . S
O312 C319 1.262 . S
O313 Zn308 2.049 . S
O313 C321 1.260 . S
O314 Zn309 1.996 . S
O314 C321 1.257 . S
C315 O310 1.254 . S
C315 O311 1.269 . S
C316 O317 1.249 . S
C316 O318 1.270 . S
O317 Zn309 1.943 . S
O317 C316 1.249 . S
O318 Zn308 2.067 . S
O318 C316 1.270 . S
C319 O312 1.262 . S
C319 O320 1.232 . S
O320 C319 1.232 . S
C321 O313 1.260 . S
C321 O314 1.257 . S
Zn322 O325 2.031 . S
Zn322 O327 2.049 . S
Zn322 O332 2.067 . S
Zn323 O324 1.962 . S
Zn323 O326 1.986 . S
Zn323 O328 1.996 . S
Zn323 O331 1.943 . S
O324 Zn323 1.962 . S
O324 C329 1.254 . S
O325 Zn322 2.031 . S
O325 C329 1.269 . S
O326 Zn323 1.986 . S
O326 C333 1.262 . S
O327 Zn322 2.049 . S
O327 C335 1.260 . S
O328 Zn323 1.996 . S
O328 C335 1.257 . S
C329 O324 1.254 . S
C329 O325 1.269 . S
C330 O331 1.249 . S
C330 O332 1.270 . S
O331 Zn323 1.943 . S
O331 C330 1.249 . S
O332 Zn322 2.067 . S
O332 C330 1.270 . S
C333 O326 1.262 . S
C333 O334 1.232 . S
O334 C333 1.232 . S
C335 O327 1.260 . S
C335 O328 1.257 . S
Zn336 O339 2.031 . S
Zn336 O341 2.049 . S
Zn336 O346 2.067 . S
Zn337 O338 1.962 . S
Zn337 O340 1.986 . S
Zn337 O342 1.996 . S
Zn337 O345 1.943 . S
O338 Zn337 1.962 . S
O338 C343 1.254 . S
O339 Zn336 2.031 . S
O339 C343 1.269 . S
O340 Zn337 1.986 . S
O340 C347 1.262 . S
O341 Zn336 2.049 . S
O341 C349 1.260 . S
O342 Zn337 1.996 . S
O342 C349 1.257 . S
C343 O338 1.254 . S
C343 O339 1.269 . S
C344 O345 1.249 . S
C344 O346 1.270 . S
O345 Zn337 1.943 . S
O345 C344 1.249 . S
O346 Zn336 2.067 . S
O346 C344 1.270 . S
C347 O340 1.262 . S
C347 O348 1.232 . S
O348 C347 1.232 . S
C349 O341 1.260 . S
C349 O342 1.257 . S
Zn350 O353 2.031 . S
Zn350 O355 2.049 . S
Zn350 O360 2.067 . S
Zn351 O352 1.962 . S
Zn351 O354 1.986 . S
Zn351 O356 1.996 . S
Zn351 O359 1.943 . S
O352 Zn351 1.962 . S
O352 C357 1.254 . S
O353 Zn350 2.031 . S
O353 C357 1.269 . S
O354 Zn351 1.986 . S
O354 C361 1.262 . S
O355 Zn350 2.049 . S
O355 C363 1.260 . S
O356 Zn351 1.996 . S
O356 C363 1.257 . S
C357 O352 1.254 . S
C357 O353 1.269 . S
C358 O359 1.249 . S
C358 O360 1.270 . S
O359 Zn351 1.943 . S
O359 C358 1.249 . S
O360 Zn350 2.067 . S
O360 C358 1.270 . S
C361 O354 1.262 . S
C361 O362 1.232 . S
O362 C361 1.232 . S
C363 O355 1.260 . S
C363 O356 1.257 . S
Zn364 O367 2.031 . S
Zn364 O369 2.049 . S
Zn364 O374 2.067 . S
Zn365 O366 1.962 . S
Zn365 O368 1.986 . S
Zn365 O370 1.996 . S
Zn365 O373 1.943 . S
O366 Zn365 1.962 . S
O366 C371 1.254 . S
O367 Zn364 2.031 . S
O367 C371 1.269 . S
O368 Zn365 1.986 . S
O368 C375 1.262 . S
O369 Zn364 2.049 . S
O369 C377 1.260 . S
O370 Zn365 1.996 . S
O370 C377 1.257 . S
C371 O366 1.254 . S
C371 O367 1.269 . S
C372 O373 1.249 . S
C372 O374 1.270 . S
O373 Zn365 1.943 . S
O373 C372 1.249 . S
O374 Zn364 2.067 . S
O374 C372 1.270 . S
C375 O368 1.262 . S
C375 O376 1.232 . S
O376 C375 1.232 . S
C377 O369 1.260 . S
C377 O370 1.257 . S
Zn378 O381 2.031 . S
Zn378 O383 2.049 . S
Zn378 O388 2.067 . S
Zn379 O380 1.962 . S
Zn379 O382 1.986 . S
Zn379 O384 1.996 . S
Zn379 O387 1.943 . S
O380 Zn379 1.962 . S
O380 C385 1.254 . S
O381 Zn378 2.031 . S
O381 C385 1.269 . S
O382 Zn379 1.986 . S
O382 C389 1.262 . S
O383 Zn378 2.049 . S
O383 C391 1.260 . S
O384 Zn379 1.996 . S
O384 C391 1.257 . S
C385 O380 1.254 . S
C385 O381 1.269 . S
C386 O387 1.249 . S
C386 O388 1.270 . S
O387 Zn379 1.943 . S
O387 C386 1.249 . S
O388 Zn378 2.067 . S
O388 C386 1.270 . S
C389 O382 1.262 . S
C389 O390 1.232 . S
O390 C389 1.232 . S
C391 O383 1.260 . S
C391 O384 1.257 . S
Zn392 O395 2.031 . S
Zn392 O397 2.049 . S
Zn392 O402 2.067 . S
Zn393 O394 1.962 . S
Zn393 O396 1.986 . S
Zn393 O398 1.996 . S
Zn393 O401 1.943 . S
O394 Zn393 1.962 . S
O394 C399 1.254 . S
O395 Zn392 2.031 . S
O395 C399 1.269 . S
O396 Zn393 1.986 . S
O396 C403 1.262 . S
O397 Zn392 2.049 . S
O397 C405 1.260 . S
O398 Zn393 1.996 . S
O398 C405 1.257 . S
C399 O394 1.254 . S
C399 O395 1.269 . S
C400 O401 1.249 . S
C400 O402 1.270 . S
O401 Zn393 1.943 . S
O401 C400 1.249 . S
O402 Zn392 2.067 . S
O402 C400 1.270 . S
C403 O396 1.262 . S
C403 O404 1.232 . S
O404 C403 1.232 . S
C405 O397 1.260 . S
C405 O398 1.257 . S
Zn406 O409 2.031 . S
Zn406 O411 2.049 . S
Zn406 O416 2.067 . S
Zn407 O408 1.962 . S
Zn407 O410 1.986 . S
Zn407 O412 1.996 . S
Zn407 O415 1.943 . S
O408 Zn407 1.962 . S
O408 C413 1.254 . S
O409 Zn406 2.031 . S
O409 C413 1.269 . S
O410 Zn407 1.986 . S
O410 C417 1.262 . S
O411 Zn406 2.049 . S
O411 C419 1.260 . S
O412 Zn407 1.996 . S
O412 C419 1.257 . S
C413 O408 1.254 . S
C413 O409 1.269 . S
C414 O415 1.249 . S
C414 O416 1.270 . S
O415 Zn407 1.943 . S
O415 C414 1.249 . S
O416 Zn406 2.067 . S
O416 C414 1.270 . S
C417 O410 1.262 . S
C417 O418 1.232 . S
O418 C417 1.232 . S
C419 O411 1.260 . S
C419 O412 1.257 . S
Zn420 O423 2.031 . S
Zn420 O425 2.049 . S
Zn420 O430 2.067 . S
Zn421 O422 1.962 . S
Zn421 O424 1.986 . S
Zn421 O426 1.996 . S
Zn421 O429 1.943 . S
O422 Zn421 1.962 . S
O422 C427 1.254 . S
O423 Zn420 2.031 . S
O423 C427 1.269 . S
O424 Zn421 1.986 . S
O424 C431 1.262 . S
O425 Zn420 2.049 . S
O425 C433 1.260 . S
O426 Zn421 1.996 . S
O426 C433 1.257 . S
C427 O422 1.254 . S
C427 O423 1.269 . S
C428 O429 1.249 . S
C428 O430 1.270 . S
O429 Zn421 1.943 . S
O429 C428 1.249 . S
O430 Zn420 2.067 . S
O430 C428 1.270 . S
C431 O424 1.262 . S
C431 O432 1.232 . S
O432 C431 1.232 . S
C433 O425 1.260 . S
C433 O426 1.257 . S
Zn434 O437 2.031 . S
Zn434 O439 2.049 . S
Zn434 O444 2.067 . S
Zn435 O436 1.962 . S
Zn435 O438 1.986 . S
Zn435 O440 1.996 . S
Zn435 O443 1.943 . S
O436 Zn435 1.962 . S
O436 C441 1.254 . S
O437 Zn434 2.031 . S
O437 C441 1.269 . S
O438 Zn435 1.986 . S
O438 C445 1.262 . S
O439 Zn434 2.049 . S
O439 C447 1.260 . S
O440 Zn435 1.996 . S
O440 C447 1.257 . S
C441 O436 1.254 . S
C441 O437 1.269 . S
C442 O443 1.249 . S
C442 O444 1.270 . S
O443 Zn435 1.943 . S
O443 C442 1.249 . S
O444 Zn434 2.067 . S
O444 C442 1.270 . S
C445 O438 1.262 . S
C445 O446 1.232 . S
O446 C445 1.232 . S
C447 O439 1.260 . S
C447 O440 1.257 . S
Zn448 O451 2.031 . S
Zn448 O453 2.049 . S
Zn448 O458 2.067 . S
Zn449 O450 1.962 . S
Zn449 O452 1.986 . S
Zn449 O454 1.996 . S
Zn449 O457 1.943 . S
O450 Zn449 1.962 . S
O450 C455 1.254 . S
O451 Zn448 2.031 . S
O451 C455 1.269 . S
O452 Zn449 1.986 . S
O452 C459 1.262 . S
O453 Zn448 2.049 . S
O453 C461 1.260 . S
O454 Zn449 1.996 . S
O454 C461 1.257 . S
C455 O450 1.254 . S
C455 O451 1.269 . S
C456 O457 1.249 . S
C456 O458 1.270 . S
O457 Zn449 1.943 . S
O457 C456 1.249 . S
O458 Zn448 2.067 . S
O458 C456 1.270 . S
C459 O452 1.262 . S
C459 O460 1.232 . S
O460 C459 1.232 . S
C461 O453 1.260 . S
C461 O454 1.257 . S
Zn462 O465 2.031 . S
Zn462 O467 2.049 . S
Zn462 O472 2.067 . S
Zn463 O464 1.962 . S
Zn463 O466 1.986 . S
Zn463 O468 1.996 . S
Zn463 O471 1.943 . S
O464 Zn463 1.962 . S
O464 C469 1.254 . S
O465 Zn462 2.031 . S
O465 C469 1.269 . S
O466 Zn463 1.986 . S
O466 C473 1.262 . S
O467 Zn462 2.049 . S
O467 C475 1.260 . S
O468 Zn463 1.996 . S
O468 C475 1.257 . S
C469 O464 1.254 . S
C469 O465 1.269 . S
C470 O471 1.249 . S
C470 O472 1.270 . S
O471 Zn463 1.943 . S
O471 C470 1.249 . S
O472 Zn462 2.067 . S
O472 C470 1.270 . S
C473 O466 1.262 . S
C473 O474 1.232 . S
O474 C473 1.232 . S
C475 O467 1.260 . S
C475 O468 1.257 . S
Zn476 O479 2.031 . S
Zn476 O481 2.049 . S
Zn476 O486 2.067 . S
Zn477 O478 1.962 . S
Zn477 O480 1.986 . S
Zn477 O482 1.996 . S
Zn477 O485 1.943 . S
O478 Zn477 1.962 . S
O478 C483 1.254 . S
O479 Zn476 2.031 . S
O479 C483 1.269 . S
O480 Zn477 1.986 . S
O480 C487 1.262 . S
O481 Zn476 2.049 . S
O481 C489 1.260 . S
O482 Zn477 1.996 . S
O482 C489 1.257 . S
C483 O478 1.254 . S
C483 O479 1.269 . S
C484 O485 1.249 . S
C484 O486 1.270 . S
O485 Zn477 1.943 . S
O485 C484 1.249 . S
O486 Zn476 2.067 . S
O486 C484 1.270 . S
C487 O480 1.262 . S
C487 O488 1.232 . S
O488 C487 1.232 . S
C489 O481 1.260 . S
C489 O482 1.257 . S
Zn490 O493 2.031 . S
Zn490 O495 2.049 . S
Zn490 O500 2.067 . S
Zn491 O492 1.962 . S
Zn491 O494 1.986 . S
Zn491 O496 1.996 . S
Zn491 O499 1.943 . S
O492 Zn491 1.962 . S
O492 C497 1.254 . S
O493 Zn490 2.031 . S
O493 C497 1.269 . S
O494 Zn491 1.986 . S
O494 C501 1.262 . S
O495 Zn490 2.049 . S
O495 C503 1.260 . S
O496 Zn491 1.996 . S
O496 C503 1.257 . S
C497 O492 1.254 . S
C497 O493 1.269 . S
C498 O499 1.249 . S
C498 O500 1.270 . S
O499 Zn491 1.943 . S
O499 C498 1.249 . S
O500 Zn490 2.067 . S
O500 C498 1.270 . S
C501 O494 1.262 . S
C501 O502 1.232 . S
O502 C501 1.232 . S
C503 O495 1.260 . S
C503 O496 1.257 . S
Zn504 O507 2.031 . S
Zn504 O509 2.049 . S
Zn504 O514 2.067 . S
Zn505 O506 1.962 . S
Zn505 O508 1.986 . S
Zn505 O510 1.996 . S
Zn505 O513 1.943 . S
O506 Zn505 1.962 . S
O506 C511 1.254 . S
O507 Zn504 2.031 . S
O507 C511 1.269 . S
O508 Zn505 1.986 . S
O508 C515 1.262 . S
O509 Zn504 2.049 . S
O509 C517 1.260 . S
O510 Zn505 1.996 . S
O510 C517 1.257 . S
C511 O506 1.254 . S
C511 O507 1.269 . S
C512 O513 1.249 . S
C512 O514 1.270 . S
O513 Zn505 1.943 . S
O513 C512 1.249 . S
O514 Zn504 2.067 . S
O514 C512 1.270 . S
C515 O508 1.262 . S
C515 O516 1.232 . S
O516 C515 1.232 . S
C517 O509 1.260 . S
C517 O510 1.257 . S
Zn518 O521 2.031 . S
Zn518 O523 2.049 . S
Zn518 O528 2.067 . S
Zn519 O520 1.962 . S
Zn519 O522 1.986 . S
Zn519 O524 1.996 . S
Zn519 O527 1.943 . S
O520 Zn519 1.962 . S
O520 C525 1.254 . S
O521 Zn518 2.031 . S
O521 C525 1.269 . S
O522 Zn519 1.986 . S
O522 C529 1.262 . S
O523 Zn518 2.049 . S
O523 C531 1.260 . S
O524 Zn519 1.996 . S
O524 C531 1.257 . S
C525 O520 1.254 . S
C525 O521 1.269 . S
C526 O527 1.249 . S
C526 O528 1.270 . S
O527 Zn519 1.943 . S
O527 C526 1.249 . S
O528 Zn518 2.067 . S
O528 C526 1.270 . S
C529 O522 1.262 . S
C529 O530 1.232 . S
O530 C529 1.232 . S
C531 O523 1.260 . S
C531 O524 1.257 . S
Zn532 O535 2.031 . S
Zn532 O537 2.049 . S
Zn532 O542 2.067 . S
Zn533 O534 1.962 . S
Zn533 O536 1.986 . S
Zn533 O538 1.996 . S
Zn533 O541 1.943 . S
O534 Zn533 1.962 . S
O534 C539 1.254 . S
O535 Zn532 2.031 . S
O535 C539 1.269 . S
O536 Zn533 1.986 . S
O536 C543 1.262 . S
O537 Zn532 2.049 . S
O537 C545 1.260 . S
O538 Zn533 1.996 . S
O538 C545 1.257 . S
C539 O534 1.254 . S
C539 O535 1.269 . S
C540 O541 1.249 . S
C540 O542 1.270 . S
O541 Zn533 1.943 . S
O541 C540 1.249 . S
O542 Zn532 2.067 . S
O542 C540 1.270 . S
C543 O536 1.262 . S
C543 O544 1.232 . S
O544 C543 1.232 . S
C545 O537 1.260 . S
C545 O538 1.257 . S
Zn546 O549 2.031 . S
Zn546 O551 2.049 . S
Zn546 O556 2.067 . S
Zn547 O548 1.962 . S
Zn547 O550 1.986 . S
Zn547 O552 1.996 . S
Zn547 O555 1.943 . S
O548 Zn547 1.962 . S
O548 C553 1.254 . S
O549 Zn546 2.031 . S
O549 C553 1.269 . S
O550 Zn547 1.986 . S
O550 C557 1.262 . S
O551 Zn546 2.049 . S
O551 C559 1.260 . S
O552 Zn547 1.996 . S
O552 C559 1.257 . S
C553 O548 1.254 . S
C553 O549 1.269 . S
C554 O555 1.249 . S
C554 O556 1.270 . S
O555 Zn547 1.943 . S
O555 C554 1.249 . S
O556 Zn546 2.067 . S
O556 C554 1.270 . S
C557 O550 1.262 . S
C557 O558 1.232 . S
O558 C557 1.232 . S
C559 O551 1.260 . S
C559 O552 1.257 . S
Zn560 O563 2.031 . S
Zn560 O565 2.049 . S
Zn560 O570 2.067 . S
Zn561 O562 1.962 . S
Zn561 O564 1.986 . S
Zn561 O566 1.996 . S
Zn561 O569 1.943 . S
O562 Zn561 1.962 . S
O562 C567 1.254 . S
O563 Zn560 2.031 . S
O563 C567 1.269 . S
O564 Zn561 1.986 . S
O564 C571 1.262 . S
O565 Zn560 2.049 . S
O565 C573 1.260 . S
O566 Zn561 1.996 . S
O566 C573 1.257 . S
C567 O562 1.254 . S
C567 O563 1.269 . S
C568 O569 1.249 . S
C568 O570 1.270 . S
O569 Zn561 1.943 . S
O569 C568 1.249 . S
O570 Zn560 2.067 . S
O570 C568 1.270 . S
C571 O564 1.262 . S
C571 O572 1.232 . S
O572 C571 1.232 . S
C573 O565 1.260 . S
C573 O566 1.257 . S
Zn574 O577 2.031 . S
Zn574 O579 2.049 . S
Zn574 O584 2.067 . S
Zn575 O576 1.962 . S
Zn575 O578 1.986 . S
Zn575 O580 1.996 . S
Zn575 O583 1.943 . S
O576 Zn575 1.962 . S
O576 C581 1.254 . S
O577 Zn574 2.031 . S
O577 C581 1.269 . S
O578 Zn575 1.986 . S
O578 C585 1.262 . S
O579 Zn574 2.049 . S
O579 C587 1.260 . S
O580 Zn575 1.996 . S
O580 C587 1.257 . S
C581 O576 1.254 . S
C581 O577 1.269 . S
C582 O583 1.249 . S
C582 O584 1.270 . S
O583 Zn575 1.943 . S
O583 C582 1.249 . S
O584 Zn574 2.067 . S
O584 C582 1.270 . S
C585 O578 1.262 . S
C585 O586 1.232 . S
O586 C585 1.232 . S
C587 O579 1.260 . S
C587 O580 1.257 . S
Zn588 O591 2.031 . S
Zn588 O593 2.049 . S
Zn588 O598 2.067 . S
Zn589 O590 1.962 . S
Zn589 O592 1.986 . S
Zn589 O594 1.996 . S
Zn589 O597 1.943 . S
O590 Zn589 1.962 . S
O590 C595 1.254 . S
O591 Zn588 2.031 . S
O591 C595 1.269 . S
O592 Zn589 1.986 . S
O592 C599 1.262 . S
O593 Zn588 2.049 . S
O593 C601 1.260 . S
O594 Zn589 1.996 . S
O594 C601 1.257 . S
C595 O590 1.254 . S
C595 O591 1.269 . S
C596 O597 1.249 . S
C596 O598 1.270 . S
O597 Zn589 1.943 . S
O597 C596 1.249 . S
O598 Zn588 2.067 . S
O598 C596 1.270 . S
C599 O592 1.262 . S
C599 O600 1.232 . S
O600 C599 1.232 . S
C601 O593 1.260 . S
C601 O594 1.257 . S
Zn602 O605 2.031 . S
Zn602 O607 2.049 . S
Zn602 O612 2.067 . S
Zn603 O604 1.962 . S
Zn603 O606 1.986 . S
Zn603 O608 1.996 . S
Zn603 O611 1.943 . S
O604 Zn603 1.962 . S
O604 C609 1.254 . S
O605 Zn602 2.031 . S
O605 C609 1.269 . S
O606 Zn603 1.986 . S
O606 C613 1.262 . S
O607 Zn602 2.049 . S
O607 C615 1.260 . S
O608 Zn603 1.996 . S
O608 C615 1.257 . S
C609 O604 1.254 . S
C609 O605 1.269 . S
C610 O611 1.249 . S
C610 O612 1.270 . S
O611 Zn603 1.943 . S
O611 C610 1.249 . S
O612 Zn602 2.067 . S
O612 C610 1.270 . S
C613 O606 1.262 . S
C613 O614 1.232 . S
O614 C613 1.232 . S
C615 O607 1.260 . S
C615 O608 1.257 . S
Zn616 O619 2.031 . S
Zn616 O621 2.049 . S
Zn616 O626 2.067 . S
Zn617 O618 1.962 . S
Zn617 O620 1.986 . S
Zn617 O622 1.996 . S
Zn617 O625 1.943 . S
O618 Zn617 1.962 . S
O618 C623 1.254 . S
O619 Zn616 2.031 . S
O619 C623 1.269 . S
O620 Zn617 1.986 . S
O620 C627 1.262 . S
O621 Zn616 2.049 . S
O621 C629 1.260 . S
O622 Zn617 1.996 . S
O622 C629 1.257 . S
C623 O618 1.254 . S
C623 O619 1.269 . S
C624 O625 1.249 . S
C624 O626 1.270 . S
O625 Zn617 1.943 . S
O625 C624 1.249 . S
O626 Zn616 2.067 . S
O626 C624 1.270 . S
C627 O620 1.262 . S
C627 O628 1.232 . S
O628 C627 1.232 . S
C629 O621 1.260 . S
C629 O622 1.257 . S
Zn630 O633 2.031 . S
Zn630 O635 2.049 . S
Zn630 O640 2.067 . S
Zn631 O632 1.962 . S
Zn631 O634 1.986 . S
Zn631 O636 1.996 . S
Zn631 O639 1.943 . S
O632 Zn631 1.962 . S
O632 C637 1.254 . S
O633 Zn630 2.031 . S
O633 C637 1.269 . S
O634 Zn631 1.986 . S
O634 C641 1.262 . S
O635 Zn630 2.049 . S
O635 C643 1.260 . S
O636 Zn631 1.996 . S
O636 C643 1.257 . S
C637 O632 1.254 . S
C637 O633 1.269 . S
C638 O639 1.249 . S
C638 O640 1.270 . S
O639 Zn631 1.943 . S
O639 C638 1.249 . S
O640 Zn630 2.067 . S
O640 C638 1.270 . S
C641 O634 1.262 . S
C641 O642 1.232 . S
O642 C641 1.232 . S
C643 O635 1.260 . S
C643 O636 1.257 . S
Zn644 O647 2.031 . S
Zn644 O649 2.049 . S
Zn644 O654 2.067 . S
Zn645 O646 1.962 . S
Zn645 O648 1.986 . S
Zn645 O650 1.996 . S
Zn645 O653 1.943 . S
O646 Zn645 1.962 . S
O646 C651 1.254 . S
O647 Zn644 2.031 . S
O647 C651 1.269 . S
O648 Zn645 1.986 . S
O648 C655 1.262 . S
O649 Zn644 2.049 . S
O649 C657 1.260 . S
O650 Zn645 1.996 . S
O650 C657 1.257 . S
C651 O646 1.254 . S
C651 O647 1.269 . S
C652 O653 1.249 . S
C652 O654 1.270 . S
O653 Zn645 1.943 . S
O653 C652 1.249 . S
O654 Zn644 2.067 . S
O654 C652 1.270 . S
C655 O648 1.262 . S
C655 O656 1.232 . S
O656 C655 1.232 . S
C657 O649 1.260 . S
C657 O650 1.257 . S
Zn658 O661 2.031 . S
Zn658 O663 2.049 . S
Zn658 O668 2.067 . S
Zn659 O660 1.962 . S
Zn659 O662 1.986 . S
Zn659 O664 1.996 . S
Zn659 O667 1.943 . S
O660 Zn659 1.962 . S
O660 C665 1.254 . S
O661 Zn658 2.031 . S
O661 C665 1.269 . S
O662 Zn659 1.986 . S
O662 C669 1.262 . S
O663 Zn658 2.049 . S
O663 C671 1.260 . S
O664 Zn659 1.996 . S
O664 C671 1.257 . S
C665 O660 1.254 . S
C665 O661 1.269 . S
C666 O667 1.249 . S
C666 O668 1.270 . S
O667 Zn659 1.943 . S
O667 C666 1.249 . S
O668 Zn658 2.067 . S
O668 C666 1.270 . S
C669 O662 1.262 . S
C669 O670 1.232 . S
O670 C669 1.232 . S
C671 O663 1.260 . S
C671 O664 1.257 . S
C672 C673 1.363 . S
C672 C678 1.379 . S
C672 N680 1.356 . S
C673 C672 1.363 . S
C673 C679 1.363 . S
C674 C675 1.363 . S
C674 C679 1.379 . S
C674 N681 1.356 . S
C675 C674 1.363 . S
C675 C678 1.363 . S
N676 C678 1.356 . S
N676 H688 0.984 . S
N676 H689 0.985 . S
N677 C679 1.356 . S
N677 H682 0.984 . S
N677 H683 0.985 . S
C678 C672 1.379 . S
C678 C675 1.363 . S
C678 N676 1.356 . S
C679 C673 1.363 . S
C679 C674 1.379 . S
C679 N677 1.356 . S
N680 C672 1.356 . S
N680 H686 0.984 . S
N680 H687 0.984 . S
N681 C674 1.356 . S
N681 H684 0.984 . S
N681 H685 0.985 . S
H682 N677 0.984 . S
H683 N677 0.985 . S
H684 N681 0.984 . S
H685 N681 0.985 . S
H686 N680 0.984 . S
H687 N680 0.984 . S
H688 N676 0.984 . S
H689 N676 0.985 . S
C690 C691 1.363 . S
C690 C696 1.379 . S
C690 N698 1.356 . S
C691 C690 1.363 . S
C691 C697 1.363 . S
C692 C693 1.363 . S
C692 C697 1.379 . S
C692 N699 1.356 . S
C693 C692 1.363 . S
C693 C696 1.363 . S
N694 C696 1.356 . S
N694 H706 0.984 . S
N694 H707 0.985 . S
N695 C697 1.356 . S
N695 H700 0.984 . S
N695 H701 0.985 . S
C696 C690 1.379 . S
C696 C693 1.363 . S
C696 N694 1.356 . S
C697 C691 1.363 . S
C697 C692 1.379 . S
C697 N695 1.356 . S
N698 C690 1.356 . S
N698 H704 0.984 . S
N698 H705 0.984 . S
N699 C692 1.356 . S
N699 H702 0.984 . S
N699 H703 0.985 . S
H700 N695 0.984 . S
H701 N695 0.985 . S
H702 N699 0.984 . S
H703 N699 0.985 . S
H704 N698 0.984 . S
H705 N698 0.984 . S
H706 N694 0.984 . S
H707 N694 0.985 . S
C708 C709 1.363 . S
C708 C714 1.379 . S
C708 N716 1.356 . S
C709 C708 1.363 . S
C709 C715 1.363 . S
C710 C711 1.363 . S
C710 C715 1.379 . S
C710 N717 1.356 . S
C711 C710 1.363 . S
C711 C714 1.363 . S
N712 C714 1.356 . S
N712 H724 0.984 . S
N712 H725 0.985 . S
N713 C715 1.356 . S
N713 H718 0.984 . S
N713 H719 0.985 . S
C714 C708 1.379 . S
C714 C711 1.363 . S
C714 N712 1.356 . S
C715 C709 1.363 . S
C715 C710 1.379 . S
C715 N713 1.356 . S
N716 C708 1.356 . S
N716 H722 0.984 . S
N716 H723 0.984 . S
N717 C710 1.356 . S
N717 H720 0.984 . S
N717 H721 0.985 . S
H718 N713 0.984 . S
H719 N713 0.985 . S
H720 N717 0.984 . S
H721 N717 0.985 . S
H722 N716 0.984 . S
H723 N716 0.984 . S
H724 N712 0.984 . S
H725 N712 0.985 . S
C726 C727 1.363 . S
C726 C732 1.379 . S
C726 N734 1.356 . S
C727 C726 1.363 . S
C727 C733 1.363 . S
C728 C729 1.363 . S
C728 C733 1.379 . S
C728 N735 1.356 . S
C729 C728 1.363 . S
C729 C732 1.363 . S
N730 C732 1.356 . S
N730 H742 0.984 . S
N730 H743 0.985 . S
N731 C733 1.356 . S
N731 H736 0.984 . S
N731 H737 0.985 . S
C732 C726 1.379 . S
C732 C729 1.363 . S
C732 N730 1.356 . S
C733 C727 1.363 . S
C733 C728 1.379 . S
C733 N731 1.356 . S
N734 C726 1.356 . S
N734 H740 0.984 . S
N734 H741 0.984 . S
N735 C728 1.356 . S
N735 H738 0.984 . S
N735 H739 0.985 . S
H736 N731 0.984 . S
H737 N731 0.985 . S
H738 N735 0.984 . S
H739 N735 0.985 . S
H740 N734 0.984 . S
H741 N734 0.984 . S
H742 N730 0.984 . S
H743 N730 0.985 . S
C744 C745 1.363 . S
C744 C750 1.379 . S
C744 N752 1.356 . S
C745 C744 1.363 . S
C745 C751 1.363 . S
C746 C747 1.363 . S
C746 C751 1.379 . S
C746 N753 1.356 . S
C747 C746 1.363 . S
C747 C750 1.363 . S
N748 C750 1.356 . S
N748 H760 0.984 . S
N748 H761 0.985 . S
N749 C751 1.356 . S
N749 H754 0.984 . S
N749 H755 0.985 . S
C750 C744 1.379 . S
C750 C747 1.363 . S
C750 N748 1.356 . S
C751 C745 1.363 . S
C751 C746 1.379 . S
C751 N749 1.356 . S
N752 C744 1.356 . S
N752 H758 0.984 . S
N752 H759 0.984 . S
N753 C746 1.356 . S
N753 H756 0.984 . S
N753 H757 0.985 . S
H754 N749 0.984 . S
H755 N749 0.985 . S
H756 N753 0.984 . S
H757 N753 0.985 . S
H758 N752 0.984 . S
H759 N752 0.984 . S
H760 N748 0.984 . S
H761 N748 0.985 . S
C762 C763 1.363 . S
C762 C768 1.379 . S
C762 N770 1.356 . S
C763 C762 1.363 . S
C763 C769 1.363 . S
C764 C765 1.363 . S
C764 C769 1.379 . S
C764 N771 1.356 . S
C765 C764 1.363 . S
C765 C768 1.363 . S
N766 C768 1.356 . S
N766 H778 0.984 . S
N766 H779 0.985 . S
N767 C769 1.356 . S
N767 H772 0.984 . S
N767 H773 0.985 . S
C768 C762 1.379 . S
C768 C765 1.363 . S
C768 N766 1.356 . S
C769 C763 1.363 . S
C769 C764 1.379 . S
C769 N767 1.356 . S
N770 C762 1.356 . S
N770 H776 0.984 . S
N770 H777 0.984 . S
N771 C764 1.356 . S
N771 H774 0.984 . S
N771 H775 0.985 . S
H772 N767 0.984 . S
H773 N767 0.985 . S
H774 N771 0.984 . S
H775 N771 0.985 . S
H776 N770 0.984 . S
H777 N770 0.984 . S
H778 N766 0.984 . S
H779 N766 0.985 . S
C780 C781 1.363 . S
C780 C786 1.379 . S
C780 N788 1.356 . S
C781 C780 1.363 . S
C781 C787 1.363 . S
C782 C783 1.363 . S
C782 C787 1.379 . S
C782 N789 1.356 . S
C783 C782 1.363 . S
C783 C786 1.363 . S
N784 C786 1.356 . S
N784 H796 0.984 . S
N784 H797 0.985 . S
N785 C787 1.356 . S
N785 H790 0.984 . S
N785 H791 0.985 . S
C786 C780 1.379 . S
C786 C783 1.363 . S
C786 N784 1.356 . S
C787 C781 1.363 . S
C787 C782 1.379 . S
C787 N785 1.356 . S
N788 C780 1.356 . S
N788 H794 0.984 . S
N788 H795 0.984 . S
N789 C782 1.356 . S
N789 H792 0.984 . S
N789 H793 0.985 . S
H790 N785 0.984 . S
H791 N785 0.985 . S
H792 N789 0.984 . S
H793 N789 0.985 . S
H794 N788 0.984 . S
H795 N788 0.984 . S
H796 N784 0.984 . S
H797 N784 0.985 . S
C798 C799 1.363 . S
C798 C804 1.379 . S
C798 N806 1.356 . S
C799 C798 1.363 . S
C799 C805 1.363 . S
C800 C801 1.363 . S
C800 C805 1.379 . S
C800 N807 1.356 . S
C801 C800 1.363 . S
C801 C804 1.363 . S
N802 C804 1.356 . S
N802 H814 0.984 . S
N802 H815 0.985 . S
N803 C805 1.356 . S
N803 H808 0.984 . S
N803 H809 0.985 . S
C804 C798 1.379 . S
C804 C801 1.363 . S
C804 N802 1.356 . S
C805 C799 1.363 . S
C805 C800 1.379 . S
C805 N803 1.356 . S
N806 C798 1.356 . S
N806 H812 0.984 . S
N806 H813 0.984 . S
N807 C800 1.356 . S
N807 H810 0.984 . S
N807 H811 0.985 . S
H808 N803 0.984 . S
H809 N803 0.985 . S
H810 N807 0.984 . S
H811 N807 0.985 . S
H812 N806 0.984 . S
H813 N806 0.984 . S
H814 N802 0.984 . S
H815 N802 0.985 . S
C816 C817 1.363 . S
C816 C822 1.379 . S
C816 N824 1.356 . S
C817 C816 1.363 . S
C817 C823 1.363 . S
C818 C819 1.363 . S
C818 C823 1.379 . S
C818 N825 1.356 . S
C819 C818 1.363 . S
C819 C822 1.363 . S
N820 C822 1.356 . S
N820 H832 0.984 . S
N820 H833 0.985 . S
N821 C823 1.356 . S
N821 H826 0.984 . S
N821 H827 0.985 . S
C822 C816 1.379 . S
C822 C819 1.363 . S
C822 N820 1.356 . S
C823 C817 1.363 . S
C823 C818 1.379 . S
C823 N821 1.356 . S
N824 C816 1.356 . S
N824 H830 0.984 . S
N824 H831 0.984 . S
N825 C818 1.356 . S
N825 H828 0.984 . S
N825 H829 0.985 . S
H826 N821 0.984 . S
H827 N821 0.985 . S
H828 N825 0.984 . S
H829 N825 0.985 . S
H830 N824 0.984 . S
H831 N824 0.984 . S
H832 N820 0.984 . S
H833 N820 0.985 . S
C834 C835 1.363 . S
C834 C840 1.379 . S
C834 N842 1.356 . S
C835 C834 1.363 . S
C835 C841 1.363 . S
C836 C837 1.363 . S
C836 C841 1.379 . S
C836 N843 1.356 . S
C837 C836 1.363 . S
C837 C840 1.363 . S
N838 C840 1.356 . S
N838 H850 0.984 . S
N838 H851 0.985 . S
N839 C841 1.356 . S
N839 H844 0.984 . S
N839 H845 0.985 . S
C840 C834 1.379 . S
C840 C837 1.363 . S
C840 N838 1.356 . S
C841 C835 1.363 . S
C841 C836 1.379 . S
C841 N839 1.356 . S
N842 C834 1.356 . S
N842 H848 0.984 . S
N842 H849 0.984 . S
N843 C836 1.356 . S
N843 H846 0.984 . S
N843 H847 0.985 . S
H844 N839 0.984 . S
H845 N839 0.985 . S
H846 N843 0.984 . S
H847 N843 0.985 . S
H848 N842 0.984 . S
H849 N842 0.984 . S
H850 N838 0.984 . S
H851 N838 0.985 . S
C852 C853 1.363 . S
C852 C858 1.379 . S
C852 N860 1.356 . S
C853 C852 1.363 . S
C853 C859 1.363 . S
C854 C855 1.363 . S
C854 C859 1.379 . S
C854 N861 1.356 . S
C855 C854 1.363 . S
C855 C858 1.363 . S
N856 C858 1.356 . S
N856 H868 0.984 . S
N856 H869 0.985 . S
N857 C859 1.356 . S
N857 H862 0.984 . S
N857 H863 0.985 . S
C858 C852 1.379 . S
C858 C855 1.363 . S
C858 N856 1.356 . S
C859 C853 1.363 . S
C859 C854 1.379 . S
C859 N857 1.356 . S
N860 C852 1.356 . S
N860 H866 0.984 . S
N860 H867 0.984 . S
N861 C854 1.356 . S
N861 H864 0.984 . S
N861 H865 0.985 . S
H862 N857 0.984 . S
H863 N857 0.985 . S
H864 N861 0.984 . S
H865 N861 0.985 . S
H866 N860 0.984 . S
H867 N860 0.984 . S
H868 N856 0.984 . S
H869 N856 0.985 . S
C870 C871 1.363 . S
C870 C876 1.379 . S
C870 N878 1.356 . S
C871 C870 1.363 . S
C871 C877 1.363 . S
C872 C873 1.363 . S
C872 C877 1.379 . S
C872 N879 1.356 . S
C873 C872 1.363 . S
C873 C876 1.363 . S
N874 C876 1.356 . S
N874 H886 0.984 . S
N874 H887 0.985 . S
N875 C877 1.356 . S
N875 H880 0.984 . S
N875 H881 0.985 . S
C876 C870 1.379 . S
C876 C873 1.363 . S
C876 N874 1.356 . S
C877 C871 1.363 . S
C877 C872 1.379 . S
C877 N875 1.356 . S
N878 C870 1.356 . S
N878 H884 0.984 . S
N878 H885 0.984 . S
N879 C872 1.356 . S
N879 H882 0.984 . S
N879 H883 0.985 . S
H880 N875 0.984 . S
H881 N875 0.985 . S
H882 N879 0.984 . S
H883 N879 0.985 . S
H884 N878 0.984 . S
H885 N878 0.984 . S
H886 N874 0.984 . S
H887 N874 0.985 . S
C888 C889 1.363 . S
C888 C894 1.379 . S
C888 N896 1.356 . S
C889 C888 1.363 . S
C889 C895 1.363 . S
C890 C891 1.363 . S
C890 C895 1.379 . S
C890 N897 1.356 . S
C891 C890 1.363 . S
C891 C894 1.363 . S
N892 C894 1.356 . S
N892 H904 0.984 . S
N892 H905 0.985 . S
N893 C895 1.356 . S
N893 H898 0.984 . S
N893 H899 0.985 . S
C894 C888 1.379 . S
C894 C891 1.363 . S
C894 N892 1.356 . S
C895 C889 1.363 . S
C895 C890 1.379 . S
C895 N893 1.356 . S
N896 C888 1.356 . S
N896 H902 0.984 . S
N896 H903 0.984 . S
N897 C890 1.356 . S
N897 H900 0.984 . S
N897 H901 0.985 . S
H898 N893 0.984 . S
H899 N893 0.985 . S
H900 N897 0.984 . S
H901 N897 0.985 . S
H902 N896 0.984 . S
H903 N896 0.984 . S
H904 N892 0.984 . S
H905 N892 0.985 . S
C906 C907 1.363 . S
C906 C912 1.379 . S
C906 N914 1.356 . S
C907 C906 1.363 . S
C907 C913 1.363 . S
C908 C909 1.363 . S
C908 C913 1.379 . S
C908 N915 1.356 . S
C909 C908 1.363 . S
C909 C912 1.363 . S
N910 C912 1.356 . S
N910 H922 0.984 . S
N910 H923 0.985 . S
N911 C913 1.356 . S
N911 H916 0.984 . S
N911 H917 0.985 . S
C912 C906 1.379 . S
C912 C909 1.363 . S
C912 N910 1.356 . S
C913 C907 1.363 . S
C913 C908 1.379 . S
C913 N911 1.356 . S
N914 C906 1.356 . S
N914 H920 0.984 . S
N914 H921 0.984 . S
N915 C908 1.356 . S
N915 H918 0.984 . S
N915 H919 0.985 . S
H916 N911 0.984 . S
H917 N911 0.985 . S
H918 N915 0.984 . S
H919 N915 0.985 . S
H920 N914 0.984 . S
H921 N914 0.984 . S
H922 N910 0.984 . S
H923 N910 0.985 . S
C924 C925 1.363 . S
C924 C930 1.379 . S
C924 N932 1.356 . S
C925 C924 1.363 . S
C925 C931 1.363 . S
C926 C927 1.363 . S
C926 C931 1.379 . S
C926 N933 1.356 . S
C927 C926 1.363 . S
C927 C930 1.363 . S
N928 C930 1.356 . S
N928 H940 0.984 . S
N928 H941 0.985 . S
N929 C931 1.356 . S
N929 H934 0.984 . S
N929 H935 0.985 . S
C930 C924 1.379 . S
C930 C927 1.363 . S
C930 N928 1.356 . S
C931 C925 1.363 . S
C931 C926 1.379 . S
C931 N929 1.356 . S
N932 C924 1.356 . S
N932 H938 0.984 . S
N932 H939 0.984 . S
N933 C926 1.356 . S
N933 H936 0.984 . S
N933 H937 0.985 . S
H934 N929 0.984 . S
H935 N929 0.985 . S
H936 N933 0.984 . S
H937 N933 0.985 . S
H938 N932 0.984 . S
H939 N932 0.984 . S
H940 N928 0.984 . S
H941 N928 0.985 . S
C942 C943 1.363 . S
C942 C948 1.379 . S
C942 N950 1.356 . S
C943 C942 1.363 . S
C943 C949 1.363 . S
C944 C945 1.363 . S
C944 C949 1.379 . S
C944 N951 1.356 . S
C945 C944 1.363 . S
C945 C948 1.363 . S
N946 C948 1.356 . S
N946 H958 0.984 . S
N946 H959 0.985 . S
N947 C949 1.356 . S
N947 H952 0.984 . S
N947 H953 0.985 . S
C948 C942 1.379 . S
C948 C945 1.363 . S
C948 N946 1.356 . S
C949 C943 1.363 . S
C949 C944 1.379 . S
C949 N947 1.356 . S
N950 C942 1.356 . S
N950 H956 0.984 . S
N950 H957 0.984 . S
N951 C944 1.356 . S
N951 H954 0.984 . S
N951 H955 0.985 . S
H952 N947 0.984 . S
H953 N947 0.985 . S
H954 N951 0.984 . S
H955 N951 0.985 . S
H956 N950 0.984 . S
H957 N950 0.984 . S
H958 N946 0.984 . S
H959 N946 0.985 . S
C960 C961 1.363 . S
C960 C966 1.379 . S
C960 N968 1.356 . S
C961 C960 1.363 . S
C961 C967 1.363 . S
C962 C963 1.363 . S
C962 C967 1.379 . S
C962 N969 1.356 . S
C963 C962 1.363 . S
C963 C966 1.363 . S
N964 C966 1.356 . S
N964 H976 0.984 . S
N964 H977 0.985 . S
N965 C967 1.356 . S
N965 H970 0.984 . S
N965 H971 0.985 . S
C966 C960 1.379 . S
C966 C963 1.363 . S
C966 N964 1.356 . S
C967 C961 1.363 . S
C967 C962 1.379 . S
C967 N965 1.356 . S
N968 C960 1.356 . S
N968 H974 0.984 . S
N968 H975 0.984 . S
N969 C962 1.356 . S
N969 H972 0.984 . S
N969 H973 0.985 . S
H970 N965 0.984 . S
H971 N965 0.985 . S
H972 N969 0.984 . S
H973 N969 0.985 . S
H974 N968 0.984 . S
H975 N968 0.984 . S
H976 N964 0.984 . S
H977 N964 0.985 . S
C978 C979 1.363 . S
C978 C984 1.379 . S
C978 N986 1.356 . S
C979 C978 1.363 . S
C979 C985 1.363 . S
C980 C981 1.363 . S
C980 C985 1.379 . S
C980 N987 1.356 . S
C981 C980 1.363 . S
C981 C984 1.363 . S
N982 C984 1.356 . S
N982 H994 0.984 . S
N982 H995 0.985 . S
N983 C985 1.356 . S
N983 H988 0.984 . S
N983 H989 0.985 . S
C984 C978 1.379 . S
C984 C981 1.363 . S
C984 N982 1.356 . S
C985 C979 1.363 . S
C985 C980 1.379 . S
C985 N983 1.356 . S
N986 C978 1.356 . S
N986 H992 0.984 . S
N986 H993 0.984 . S
N987 C980 1.356 . S
N987 H990 0.984 . S
N987 H991 0.985 . S
H988 N983 0.984 . S
H989 N983 0.985 . S
H990 N987 0.984 . S
H991 N987 0.985 . S
H992 N986 0.984 . S
H993 N986 0.984 . S
H994 N982 0.984 . S
H995 N982 0.985 . S
C996 C997 1.363 . S
C996 C1002 1.379 . S
C996 N1004 1.356 . S
C997 C996 1.363 . S
C997 C1003 1.363 . S
C998 C999 1.363 . S
C998 C1003 1.379 . S
C998 N1005 1.356 . S
C999 C998 1.363 . S
C999 C1002 1.363 . S
N1000 C1002 1.356 . S
N1000 H1012 0.984 . S
N1000 H1013 0.985 . S
N1001 C1003 1.356 . S
N1001 H1006 0.984 . S
N1001 H1007 0.985 . S
C1002 C996 1.379 . S
C1002 C999 1.363 . S
C1002 N1000 1.356 . S
C1003 C997 1.363 . S
C1003 C998 1.379 . S
C1003 N1001 1.356 . S
N1004 C996 1.356 . S
N1004 H1010 0.984 . S
N1004 H1011 0.984 . S
N1005 C998 1.356 . S
N1005 H1008 0.984 . S
N1005 H1009 0.985 . S
H1006 N1001 0.984 . S
H1007 N1001 0.985 . S
H1008 N1005 0.984 . S
H1009 N1005 0.985 . S
H1010 N1004 0.984 . S
H1011 N1004 0.984 . S
H1012 N1000 0.984 . S
H1013 N1000 0.985 . S
C1014 C1015 1.363 . S
C1014 C1020 1.379 . S
C1014 N1022 1.356 . S
C1015 C1014 1.363 . S
C1015 C1021 1.363 . S
C1016 C1017 1.363 . S
C1016 C1021 1.379 . S
C1016 N1023 1.356 . S
C1017 C1016 1.363 . S
C1017 C1020 1.363 . S
N1018 C1020 1.356 . S
N1018 H1030 0.984 . S
N1018 H1031 0.985 . S
N1019 C1021 1.356 . S
N1019 H1024 0.984 . S
N1019 H1025 0.985 . S
C1020 C1014 1.379 . S
C1020 C1017 1.363 . S
C1020 N1018 1.356 . S
C1021 C1015 1.363 . S
C1021 C1016 1.379 . S
C1021 N1019 1.356 . S
N1022 C1014 1.356 . S
N1022 H1028 0.984 . S
N1022 H1029 0.984 . S
N1023 C1016 1.356 . S
N1023 H1026 0.984 . S
N1023 H1027 0.985 . S
H1024 N1019 0.984 . S
H1025 N1019 0.985 . S
H1026 N1023 0.984 . S
H1027 N1023 0.985 . S
H1028 N1022 0.984 . S
H1029 N1022 0.984 . S
H1030 N1018 0.984 . S
H1031 N1018 0.985 . S
C1032 C1033 1.363 . S
C1032 C1038 1.379 . S
C1032 N1040 1.356 . S
C1033 C1032 1.363 . S
C1033 C1039 1.363 . S
C1034 C1035 1.363 . S
C1034 C1039 1.379 . S
C1034 N1041 1.356 . S
C1035 C1034 1.363 . S
C1035 C1038 1.363 . S
N1036 C1038 1.356 . S
N1036 H1048 0.984 . S
N1036 H1049 0.985 . S
N1037 C1039 1.356 . S
N1037 H1042 0.984 . S
N1037 H1043 0.985 . S
C1038 C1032 1.379 . S
C1038 C1035 1.363 . S
C1038 N1036 1.356 . S
C1039 C1033 1.363 . S
C1039 C1034 1.379 . S
C1039 N1037 1.356 . S
N1040 C1032 1.356 . S
N1040 H1046 0.984 . S
N1040 H1047 0.984 . S
N1041 C1034 1.356 . S
N1041 H1044 0.984 . S
N1041 H1045 0.985 . S
H1042 N1037 0.984 . S
H1043 N1037 0.985 . S
H1044 N1041 0.984 . S
H1045 N1041 0.985 . S
H1046 N1040 0.984 . S
H1047 N1040 0.984 . S
H1048 N1036 0.984 . S
H1049 N1036 0.985 . S
C1050 C1051 1.363 . S
C1050 C1056 1.379 . S
C1050 N1058 1.356 . S
C1051 C1050 1.363 . S
C1051 C1057 1.363 . S
C1052 C1053 1.363 . S
C1052 C1057 1.379 . S
C1052 N1059 1.356 . S
C1053 C1052 1.363 . S
C1053 C1056 1.363 . S
N1054 C1056 1.356 . S
N1054 H1066 0.984 . S
N1054 H1067 0.985 . S
N1055 C1057 1.356 . S
N1055 H1060 0.984 . S
N1055 H1061 0.985 . S
C1056 C1050 1.379 . S
C1056 C1053 1.363 . S
C1056 N1054 1.356 . S
C1057 C1051 1.363 . S
C1057 C1052 1.379 . S
C1057 N1055 1.356 . S
N1058 C1050 1.356 . S
N1058 H1064 0.984 . S
N1058 H1065 0.984 . S
N1059 C1052 1.356 . S
N1059 H1062 0.984 . S
N1059 H1063 0.985 . S
H1060 N1055 0.984 . S
H1061 N1055 0.985 . S
H1062 N1059 0.984 . S
H1063 N1059 0.985 . S
H1064 N1058 0.984 . S
H1065 N1058 0.984 . S
H1066 N1054 0.984 . S
H1067 N1054 0.985 . S
C1068 C1069 1.363 . S
C1068 C1074 1.379 . S
C1068 N1076 1.356 . S
C1069 C1068 1.363 . S
C1069 C1075 1.363 . S
C1070 C1071 1.363 . S
C1070 C1075 1.379 . S
C1070 N1077 1.356 . S
C1071 C1070 1.363 . S
C1071 C1074 1.363 . S
N1072 C1074 1.356 . S
N1072 H1084 0.984 . S
N1072 H1085 0.985 . S
N1073 C1075 1.356 . S
N1073 H1078 0.984 . S
N1073 H1079 0.985 . S
C1074 C1068 1.379 . S
C1074 C1071 1.363 . S
C1074 N1072 1.356 . S
C1075 C1069 1.363 . S
C1075 C1070 1.379 . S
C1075 N1073 1.356 . S
N1076 C1068 1.356 . S
N1076 H1082 0.984 . S
N1076 H1083 0.984 . S
N1077 C1070 1.356 . S
N1077 H1080 0.984 . S
N1077 H1081 0.985 . S
H1078 N1073 0.984 . S
H1079 N1073 0.985 . S
H1080 N1077 0.984 . S
H1081 N1077 0.985 . S
H1082 N1076 0.984 . S
H1083 N1076 0.984 . S
H1084 N1072 0.984 . S
H1085 N1072 0.985 . S
C1086 C1087 1.363 . S
C1086 C1092 1.379 . S
C1086 N1094 1.356 . S
C1087 C1086 1.363 . S
C1087 C1093 1.363 . S
C1088 C1089 1.363 . S
C1088 C1093 1.379 . S
C1088 N1095 1.356 . S
C1089 C1088 1.363 . S
C1089 C1092 1.363 . S
N1090 C1092 1.356 . S
N1090 H1102 0.984 . S
N1090 H1103 0.985 . S
N1091 C1093 1.356 . S
N1091 H1096 0.984 . S
N1091 H1097 0.985 . S
C1092 C1086 1.379 . S
C1092 C1089 1.363 . S
C1092 N1090 1.356 . S
C1093 C1087 1.363 . S
C1093 C1088 1.379 . S
C1093 N1091 1.356 . S
N1094 C1086 1.356 . S
N1094 H1100 0.984 . S
N1094 H1101 0.984 . S
N1095 C1088 1.356 . S
N1095 H1098 0.984 . S
N1095 H1099 0.985 . S
H1096 N1091 0.984 . S
H1097 N1091 0.985 . S
H1098 N1095 0.984 . S
H1099 N1095 0.985 . S
H1100 N1094 0.984 . S
H1101 N1094 0.984 . S
H1102 N1090 0.984 . S
H1103 N1090 0.985 . S
C1104 C1105 1.363 . S
C1104 C1110 1.379 . S
C1104 N1112 1.356 . S
C1105 C1104 1.363 . S
C1105 C1111 1.363 . S
C1106 C1107 1.363 . S
C1106 C1111 1.379 . S
C1106 N1113 1.356 . S
C1107 C1106 1.363 . S
C1107 C1110 1.363 . S
N1108 C1110 1.356 . S
N1108 H1120 0.984 . S
N1108 H1121 0.985 . S
N1109 C1111 1.356 . S
N1109 H1114 0.984 . S
N1109 H1115 0.985 . S
C1110 C1104 1.379 . S
C1110 C1107 1.363 . S
C1110 N1108 1.356 . S
C1111 C1105 1.363 . S
C1111 C1106 1.379 . S
C1111 N1109 1.356 . S
N1112 C1104 1.356 . S
N1112 H1118 0.984 . S
N1112 H1119 0.984 . S
N1113 C1106 1.356 . S
N1113 H1116 0.984 . S
N1113 H1117 0.985 . S
H1114 N1109 0.984 . S
H1115 N1109 0.985 . S
H1116 N1113 0.984 . S
H1117 N1113 0.985 . S
H1118 N1112 0.984 . S
H1119 N1112 0.984 . S
H1120 N1108 0.984 . S
H1121 N1108 0.985 . S
C1122 C1123 1.363 . S
C1122 C1128 1.379 . S
C1122 N1130 1.356 . S
C1123 C1122 1.363 . S
C1123 C1129 1.363 . S
C1124 C1125 1.363 . S
C1124 C1129 1.379 . S
C1124 N1131 1.356 . S
C1125 C1124 1.363 . S
C1125 C1128 1.363 . S
N1126 C1128 1.356 . S
N1126 H1138 0.984 . S
N1126 H1139 0.985 . S
N1127 C1129 1.356 . S
N1127 H1132 0.984 . S
N1127 H1133 0.985 . S
C1128 C1122 1.379 . S
C1128 C1125 1.363 . S
C1128 N1126 1.356 . S
C1129 C1123 1.363 . S
C1129 C1124 1.379 . S
C1129 N1127 1.356 . S
N1130 C1122 1.356 . S
N1130 H1136 0.984 . S
N1130 H1137 0.984 . S
N1131 C1124 1.356 . S
N1131 H1134 0.984 . S
N1131 H1135 0.985 . S
H1132 N1127 0.984 . S
H1133 N1127 0.985 . S
H1134 N1131 0.984 . S
H1135 N1131 0.985 . S
H1136 N1130 0.984 . S
H1137 N1130 0.984 . S
H1138 N1126 0.984 . S
H1139 N1126 0.985 . S
C1140 C1141 1.363 . S
C1140 C1146 1.379 . S
C1140 N1148 1.356 . S
C1141 C1140 1.363 . S
C1141 C1147 1.363 . S
C1142 C1143 1.363 . S
C1142 C1147 1.379 . S
C1142 N1149 1.356 . S
C1143 C1142 1.363 . S
C1143 C1146 1.363 . S
N1144 C1146 1.356 . S
N1144 H1156 0.984 . S
N1144 H1157 0.985 . S
N1145 C1147 1.356 . S
N1145 H1150 0.984 . S
N1145 H1151 0.985 . S
C1146 C1140 1.379 . S
C1146 C1143 1.363 . S
C1146 N1144 1.356 . S
C1147 C1141 1.363 . S
C1147 C1142 1.379 . S
C1147 N1145 1.356 . S
N1148 C1140 1.356 . S
N1148 H1154 0.984 . S
N1148 H1155 0.984 . S
N1149 C1142 1.356 . S
N1149 H1152 0.984 . S
N1149 H1153 0.985 . S
H1150 N1145 0.984 . S
H1151 N1145 0.985 . S
H1152 N1149 0.984 . S
H1153 N1149 0.985 . S
H1154 N1148 0.984 . S
H1155 N1148 0.984 . S
H1156 N1144 0.984 . S
H1157 N1144 0.985 . S
C1158 C1159 1.363 . S
C1158 C1164 1.379 . S
C1158 N1166 1.356 . S
C1159 C1158 1.363 . S
C1159 C1165 1.363 . S
C1160 C1161 1.363 . S
C1160 C1165 1.379 . S
C1160 N1167 1.356 . S
C1161 C1160 1.363 . S
C1161 C1164 1.363 . S
N1162 C1164 1.356 . S
N1162 H1174 0.984 . S
N1162 H1175 0.985 . S
N1163 C1165 1.356 . S
N1163 H1168 0.984 . S
N1163 H1169 0.985 . S
C1164 C1158 1.379 . S
C1164 C1161 1.363 . S
C1164 N1162 1.356 . S
C1165 C1159 1.363 . S
C1165 C1160 1.379 . S
C1165 N1163 1.356 . S
N1166 C1158 1.356 . S
N1166 H1172 0.984 . S
N1166 H1173 0.984 . S
N1167 C1160 1.356 . S
N1167 H1170 0.984 . S
N1167 H1171 0.985 . S
H1168 N1163 0.984 . S
H1169 N1163 0.985 . S
H1170 N1167 0.984 . S
H1171 N1167 0.985 . S
H1172 N1166 0.984 . S
H1173 N1166 0.984 . S
H1174 N1162 0.984 . S
H1175 N1162 0.985 . S
C1176 C1177 1.363 . S
C1176 C1182 1.379 . S
C1176 N1184 1.356 . S
C1177 C1176 1.363 . S
C1177 C1183 1.363 . S
C1178 C1179 1.363 . S
C1178 C1183 1.379 . S
C1178 N1185 1.356 . S
C1179 C1178 1.363 . S
C1179 C1182 1.363 . S
N1180 C1182 1.356 . S
N1180 H1192 0.984 . S
N1180 H1193 0.985 . S
N1181 C1183 1.356 . S
N1181 H1186 0.984 . S
N1181 H1187 0.985 . S
C1182 C1176 1.379 . S
C1182 C1179 1.363 . S
C1182 N1180 1.356 . S
C1183 C1177 1.363 . S
C1183 C1178 1.379 . S
C1183 N1181 1.356 . S
N1184 C1176 1.356 . S
N1184 H1190 0.984 . S
N1184 H1191 0.984 . S
N1185 C1178 1.356 . S
N1185 H1188 0.984 . S
N1185 H1189 0.985 . S
H1186 N1181 0.984 . S
H1187 N1181 0.985 . S
H1188 N1185 0.984 . S
H1189 N1185 0.985 . S
H1190 N1184 0.984 . S
H1191 N1184 0.984 . S
H1192 N1180 0.984 . S
H1193 N1180 0.985 . S
C1194 C1195 1.363 . S
C1194 C1200 1.379 . S
C1194 N1202 1.356 . S
C1195 C1194 1.363 . S
C1195 C1201 1.363 . S
C1196 C1197 1.363 . S
C1196 C1201 1.379 . S
C1196 N1203 1.356 . S
C1197 C1196 1.363 . S
C1197 C1200 1.363 . S
N1198 C1200 1.356 . S
N1198 H1210 0.984 . S
N1198 H1211 0.985 . S
N1199 C1201 1.356 . S
N1199 H1204 0.984 . S
N1199 H1205 0.985 . S
C1200 C1194 1.379 . S
C1200 C1197 1.363 . S
C1200 N1198 1.356 . S
C1201 C1195 1.363 . S
C1201 C1196 1.379 . S
C1201 N1199 1.356 . S
N1202 C1194 1.356 . S
N1202 H1208 0.984 . S
N1202 H1209 0.984 . S
N1203 C1196 1.356 . S
N1203 H1206 0.984 . S
N1203 H1207 0.985 . S
H1204 N1199 0.984 . S
H1205 N1199 0.985 . S
H1206 N1203 0.984 . S
H1207 N1203 0.985 . S
H1208 N1202 0.984 . S
H1209 N1202 0.984 . S
H1210 N1198 0.984 . S
H1211 N1198 0.985 . S
C1212 C1213 1.363 . S
C1212 C1218 1.379 . S
C1212 N1220 1.356 . S
C1213 C1212 1.363 . S
C1213 C1219 1.363 . S
C1214 C1215 1.363 . S
C1214 C1219 1.379 . S
C1214 N1221 1.356 . S
C1215 C1214 1.363 . S
C1215 C1218 1.363 . S
N1216 C1218 1.356 . S
N1216 H1228 0.984 . S
N1216 H1229 0.985 . S
N1217 C1219 1.356 . S
N1217 H1222 0.984 . S
N1217 H1223 0.985 . S
C1218 C1212 1.379 . S
C1218 C1215 1.363 . S
C1218 N1216 1.356 . S
C1219 C1213 1.363 . S
C1219 C1214 1.379 . S
C1219 N1217 1.356 . S
N1220 C1212 1.356 . S
N1220 H1226 0.984 . S
N1220 H1227 0.984 . S
N1221 C1214 1.356 . S
N1221 H1224 0.984 . S
N1221 H1225 0.985 . S
H1222 N1217 0.984 . S
H1223 N1217 0.985 . S
H1224 N1221 0.984 . S
H1225 N1221 0.985 . S
H1226 N1220 0.984 . S
H1227 N1220 0.984 . S
H1228 N1216 0.984 . S
H1229 N1216 0.985 . S
C1230 C1231 1.363 . S
C1230 C1236 1.379 . S
C1230 N1238 1.356 . S
C1231 C1230 1.363 . S
C1231 C1237 1.363 . S
C1232 C1233 1.363 . S
C1232 C1237 1.379 . S
C1232 N1239 1.356 . S
C1233 C1232 1.363 . S
C1233 C1236 1.363 . S
N1234 C1236 1.356 . S
N1234 H1246 0.984 . S
N1234 H1247 0.985 . S
N1235 C1237 1.356 . S
N1235 H1240 0.984 . S
N1235 H1241 0.985 . S
C1236 C1230 1.379 . S
C1236 C1233 1.363 . S
C1236 N1234 1.356 . S
C1237 C1231 1.363 . S
C1237 C1232 1.379 . S
C1237 N1235 1.356 . S
N1238 C1230 1.356 . S
N1238 H1244 0.984 . S
N1238 H1245 0.984 . S
N1239 C1232 1.356 . S
N1239 H1242 0.984 . S
N1239 H1243 0.985 . S
H1240 N1235 0.984 . S
H1241 N1235 0.985 . S
H1242 N1239 0.984 . S
H1243 N1239 0.985 . S
H1244 N1238 0.984 . S
H1245 N1238 0.984 . S
H1246 N1234 0.984 . S
H1247 N1234 0.985 . S
C1248 C1249 1.363 . S
C1248 C1254 1.379 . S
C1248 N1256 1.356 . S
C1249 C1248 1.363 . S
C1249 C1255 1.363 . S
C1250 C1251 1.363 . S
C1250 C1255 1.379 . S
C1250 N1257 1.356 . S
C1251 C1250 1.363 . S
C1251 C1254 1.363 . S
N1252 C1254 1.356 . S
N1252 H1264 0.984 . S
N1252 H1265 0.985 . S
N1253 C1255 1.356 . S
N1253 H1258 0.984 . S
N1253 H1259 0.985 . S
C1254 C1248 1.379 . S
C1254 C1251 1.363 . S
C1254 N1252 1.356 . S
C1255 C1249 1.363 . S
C1255 C1250 1.379 . S
C1255 N1253 1.356 . S
N1256 C1248 1.356 . S
N1256 H1262 0.984 . S
N1256 H1263 0.984 . S
N1257 C1250 1.356 . S
N1257 H1260 0.984 . S
N1257 H1261 0.985 . S
H1258 N1253 0.984 . S
H1259 N1253 0.985 . S
H1260 N1257 0.984 . S
H1261 N1257 0.985 . S
H1262 N1256 0.984 . S
H1263 N1256 0.984 . S
H1264 N1252 0.984 . S
H1265 N1252 0.985 . S
C1266 C1267 1.363 . S
C1266 C1272 1.379 . S
C1266 N1274 1.356 . S
C1267 C1266 1.363 . S
C1267 C1273 1.363 . S
C1268 C1269 1.363 . S
C1268 C1273 1.379 . S
C1268 N1275 1.356 . S
C1269 C1268 1.363 . S
C1269 C1272 1.363 . S
N1270 C1272 1.356 . S
N1270 H1282 0.984 . S
N1270 H1283 0.985 . S
N1271 C1273 1.356 . S
N1271 H1276 0.984 . S
N1271 H1277 0.985 . S
C1272 C1266 1.379 . S
C1272 C1269 1.363 . S
C1272 N1270 1.356 . S
C1273 C1267 1.363 . S
C1273 C1268 1.379 . S
C1273 N1271 1.356 . S
N1274 C1266 1.356 . S
N1274 H1280 0.984 . S
N1274 H1281 0.984 . S
N1275 C1268 1.356 . S
N1275 H1278 0.984 . S
N1275 H1279 0.985 . S
H1276 N1271 0.984 . S
H1277 N1271 0.985 . S
H1278 N1275 0.984 . S
H1279 N1275 0.985 . S
H1280 N1274 0.984 . S
H1281 N1274 0.984 . S
H1282 N1270 0.984 . S
H1283 N1270 0.985 . S
C1284 C1285 1.363 . S
C1284 C1290 1.379 . S
C1284 N1292 1.356 . S
C1285 C1284 1.363 . S
C1285 C1291 1.363 . S
C1286 C1287 1.363 . S
C1286 C1291 1.379 . S
C1286 N1293 1.356 . S
C1287 C1286 1.363 . S
C1287 C1290 1.363 . S
N1288 C1290 1.356 . S
N1288 H1300 0.984 . S
N1288 H1301 0.985 . S
N1289 C1291 1.356 . S
N1289 H1294 0.984 . S
N1289 H1295 0.985 . S
C1290 C1284 1.379 . S
C1290 C1287 1.363 . S
C1290 N1288 1.356 . S
C1291 C1285 1.363 . S
C1291 C1286 1.379 . S
C1291 N1289 1.356 . S
N1292 C1284 1.356 . S
N1292 H1298 0.984 . S
N1292 H1299 0.984 . S
N1293 C1286 1.356 . S
N1293 H1296 0.984 . S
N1293 H1297 0.985 . S
H1294 N1289 0.984 . S
H1295 N1289 0.985 . S
H1296 N1293 0.984 . S
H1297 N1293 0.985 . S
H1298 N1292 0.984 . S
H1299 N1292 0.984 . S
H1300 N1288 0.984 . S
H1301 N1288 0.985 . S
C1302 C1303 1.363 . S
C1302 C1308 1.379 . S
C1302 N1310 1.356 . S
C1303 C1302 1.363 . S
C1303 C1309 1.363 . S
C1304 C1305 1.363 . S
C1304 C1309 1.379 . S
C1304 N1311 1.356 . S
C1305 C1304 1.363 . S
C1305 C1308 1.363 . S
N1306 C1308 1.356 . S
N1306 H1318 0.984 . S
N1306 H1319 0.985 . S
N1307 C1309 1.356 . S
N1307 H1312 0.984 . S
N1307 H1313 0.985 . S
C1308 C1302 1.379 . S
C1308 C1305 1.363 . S
C1308 N1306 1.356 . S
C1309 C1303 1.363 . S
C1309 C1304 1.379 . S
C1309 N1307 1.356 . S
N1310 C1302 1.356 . S
N1310 H1316 0.984 . S
N1310 H1317 0.984 . S
N1311 C1304 1.356 . S
N1311 H1314 0.984 . S
N1311 H1315 0.985 . S
H1312 N1307 0.984 . S
H1313 N1307 0.985 . S
H1314 N1311 0.984 . S
H1315 N1311 0.985 . S
H1316 N1310 0.984 . S
H1317 N1310 0.984 . S
H1318 N1306 0.984 . S
H1319 N1306 0.985 . S
C1320 C1321 1.363 . S
C1320 C1326 1.379 . S
C1320 N1328 1.356 . S
C1321 C1320 1.363 . S
C1321 C1327 1.363 . S
C1322 C1323 1.363 . S
C1322 C1327 1.379 . S
C1322 N1329 1.356 . S
C1323 C1322 1.363 . S
C1323 C1326 1.363 . S
N1324 C1326 1.356 . S
N1324 H1336 0.984 . S
N1324 H1337 0.985 . S
N1325 C1327 1.356 . S
N1325 H1330 0.984 . S
N1325 H1331 0.985 . S
C1326 C1320 1.379 . S
C1326 C1323 1.363 . S
C1326 N1324 1.356 . S
C1327 C1321 1.363 . S
C1327 C1322 1.379 . S
C1327 N1325 1.356 . S
N1328 C1320 1.356 . S
N1328 H1334 0.984 . S
N1328 H1335 0.984 . S
N1329 C1322 1.356 . S
N1329 H1332 0.984 . S
N1329 H1333 0.985 . S
H1330 N1325 0.984 . S
H1331 N1325 0.985 . S
H1332 N1329 0.984 . S
H1333 N1329 0.985 . S
H1334 N1328 0.984 . S
H1335 N1328 0.984 . S
H1336 N1324 0.984 . S
H1337 N1324 0.985 . S
C1338 C1339 1.363 . S
C1338 C1344 1.379 . S
C1338 N1346 1.356 . S
C1339 C1338 1.363 . S
C1339 C1345 1.363 . S
C1340 C1341 1.363 . S
C1340 C1345 1.379 . S
C1340 N1347 1.356 . S
C1341 C1340 1.363 . S
C1341 C1344 1.363 . S
N1342 C1344 1.356 . S
N1342 H1354 0.984 . S
N1342 H1355 0.985 . S
N1343 C1345 1.356 . S
N1343 H1348 0.984 . S
N1343 H1349 0.985 . S
C1344 C1338 1.379 . S
C1344 C1341 1.363 . S
C1344 N1342 1.356 . S
C1345 C1339 1.363 . S
C1345 C1340 1.379 . S
C1345 N1343 1.356 . S
N1346 C1338 1.356 . S
N1346 H1352 0.984 . S
N1346 H1353 0.984 . S
N1347 C1340 1.356 . S
N1347 H1350 0.984 . S
N1347 H1351 0.985 . S
H1348 N1343 0.984 . S
H1349 N1343 0.985 . S
H1350 N1347 0.984 . S
H1351 N1347 0.985 . S
H1352 N1346 0.984 . S
H1353 N1346 0.984 . S
H1354 N1342 0.984 . S
H1355 N1342 0.985 . S
C1356 C1357 1.363 . S
C1356 C1362 1.379 . S
C1356 N1364 1.356 . S
C1357 C1356 1.363 . S
C1357 C1363 1.363 . S
C1358 C1359 1.363 . S
C1358 C1363 1.379 . S
C1358 N1365 1.356 . S
C1359 C1358 1.363 . S
C1359 C1362 1.363 . S
N1360 C1362 1.356 . S
N1360 H1372 0.984 . S
N1360 H1373 0.985 . S
N1361 C1363 1.356 . S
N1361 H1366 0.984 . S
N1361 H1367 0.985 . S
C1362 C1356 1.379 . S
C1362 C1359 1.363 . S
C1362 N1360 1.356 . S
C1363 C1357 1.363 . S
C1363 C1358 1.379 . S
C1363 N1361 1.356 . S
N1364 C1356 1.356 . S
N1364 H1370 0.984 . S
N1364 H1371 0.984 . S
N1365 C1358 1.356 . S
N1365 H1368 0.984 . S
N1365 H1369 0.985 . S
H1366 N1361 0.984 . S
H1367 N1361 0.985 . S
H1368 N1365 0.984 . S
H1369 N1365 0.985 . S
H1370 N1364 0.984 . S
H1371 N1364 0.984 . S
H1372 N1360 0.984 . S
H1373 N1360 0.985 . S
C1374 C1375 1.363 . S
C1374 C1380 1.379 . S
C1374 N1382 1.356 . S
C1375 C1374 1.363 . S
C1375 C1381 1.363 . S
C1376 C1377 1.363 . S
C1376 C1381 1.379 . S
C1376 N1383 1.356 . S
C1377 C1376 1.363 . S
C1377 C1380 1.363 . S
N1378 C1380 1.356 . S
N1378 H1390 0.984 . S
N1378 H1391 0.985 . S
N1379 C1381 1.356 . S
N1379 H1384 0.984 . S
N1379 H1385 0.985 . S
C1380 C1374 1.379 . S
C1380 C1377 1.363 . S
C1380 N1378 1.356 . S
C1381 C1375 1.363 . S
C1381 C1376 1.379 . S
C1381 N1379 1.356 . S
N1382 C1374 1.356 . S
N1382 H1388 0.984 . S
N1382 H1389 0.984 . S
N1383 C1376 1.356 . S
N1383 H1386 0.984 . S
N1383 H1387 0.985 . S
H1384 N1379 0.984 . S
H1385 N1379 0.985 . S
H1386 N1383 0.984 . S
H1387 N1383 0.985 . S
H1388 N1382 0.984 . S
H1389 N1382 0.984 . S
H1390 N1378 0.984 . S
H1391 N1378 0.985 . S
C1392 C1393 1.363 . S
C1392 C1398 1.379 . S
C1392 N1400 1.356 . S
C1393 C1392 1.363 . S
C1393 C1399 1.363 . S
C1394 C1395 1.363 . S
C1394 C1399 1.379 . S
C1394 N1401 1.356 . S
C1395 C1394 1.363 . S
C1395 C1398 1.363 . S
N1396 C1398 1.356 . S
N1396 H1408 0.984 . S
N1396 H1409 0.985 . S
N1397 C1399 1.356 . S
N1397 H1402 0.984 . S
N1397 H1403 0.985 . S
C1398 C1392 1.379 . S
C1398 C1395 1.363 . S
C1398 N1396 1.356 . S
C1399 C1393 1.363 . S
C1399 C1394 1.379 . S
C1399 N1397 1.356 . S
N1400 C1392 1.356 . S
N1400 H1406 0.984 . S
N1400 H1407 0.984 . S
N1401 C1394 1.356 . S
N1401 H1404 0.984 . S
N1401 H1405 0.985 . S
H1402 N1397 0.984 . S
H1403 N1397 0.985 . S
H1404 N1401 0.984 . S
H1405 N1401 0.985 . S
H1406 N1400 0.984 . S
H1407 N1400 0.984 . S
H1408 N1396 0.984 . S
H1409 N1396 0.985 . S
C1410 C1411 1.363 . S
C1410 C1416 1.379 . S
C1410 N1418 1.356 . S
C1411 C1410 1.363 . S
C1411 C1417 1.363 . S
C1412 C1413 1.363 . S
C1412 C1417 1.379 . S
C1412 N1419 1.356 . S
C1413 C1412 1.363 . S
C1413 C1416 1.363 . S
N1414 C1416 1.356 . S
N1414 H1426 0.984 . S
N1414 H1427 0.985 . S
N1415 C1417 1.356 . S
N1415 H1420 0.984 . S
N1415 H1421 0.985 . S
C1416 C1410 1.379 . S
C1416 C1413 1.363 . S
C1416 N1414 1.356 . S
C1417 C1411 1.363 . S
C1417 C1412 1.379 . S
C1417 N1415 1.356 . S
N1418 C1410 1.356 . S
N1418 H1424 0.984 . S
N1418 H1425 0.984 . S
N1419 C1412 1.356 . S
N1419 H1422 0.984 . S
N1419 H1423 0.985 . S
H1420 N1415 0.984 . S
H1421 N1415 0.985 . S
H1422 N1419 0.984 . S
H1423 N1419 0.985 . S
H1424 N1418 0.984 . S
H1425 N1418 0.984 . S
H1426 N1414 0.984 . S
H1427 N1414 0.985 . S
C1428 C1429 1.363 . S
C1428 C1434 1.379 . S
C1428 N1436 1.356 . S
C1429 C1428 1.363 . S
C1429 C1435 1.363 . S
C1430 C1431 1.363 . S
C1430 C1435 1.379 . S
C1430 N1437 1.356 . S
C1431 C1430 1.363 . S
C1431 C1434 1.363 . S
N1432 C1434 1.356 . S
N1432 H1444 0.984 . S
N1432 H1445 0.985 . S
N1433 C1435 1.356 . S
N1433 H1438 0.984 . S
N1433 H1439 0.985 . S
C1434 C1428 1.379 . S
C1434 C1431 1.363 . S
C1434 N1432 1.356 . S
C1435 C1429 1.363 . S
C1435 C1430 1.379 . S
C1435 N1433 1.356 . S
N1436 C1428 1.356 . S
N1436 H1442 0.984 . S
N1436 H1443 0.984 . S
N1437 C1430 1.356 . S
N1437 H1440 0.984 . S
N1437 H1441 0.985 . S
H1438 N1433 0.984 . S
H1439 N1433 0.985 . S
H1440 N1437 0.984 . S
H1441 N1437 0.985 . S
H1442 N1436 0.984 . S
H1443 N1436 0.984 . S
H1444 N1432 0.984 . S
H1445 N1432 0.985 . S
C1446 C1447 1.363 . S
C1446 C1452 1.379 . S
C1446 N1454 1.356 . S
C1447 C1446 1.363 . S
C1447 C1453 1.363 . S
C1448 C1449 1.363 . S
C1448 C1453 1.379 . S
C1448 N1455 1.356 . S
C1449 C1448 1.363 . S
C1449 C1452 1.363 . S
N1450 C1452 1.356 . S
N1450 H1462 0.984 . S
N1450 H1463 0.985 . S
N1451 C1453 1.356 . S
N1451 H1456 0.984 . S
N1451 H1457 0.985 . S
C1452 C1446 1.379 . S
C1452 C1449 1.363 . S
C1452 N1450 1.356 . S
C1453 C1447 1.363 . S
C1453 C1448 1.379 . S
C1453 N1451 1.356 . S
N1454 C1446 1.356 . S
N1454 H1460 0.984 . S
N1454 H1461 0.984 . S
N1455 C1448 1.356 . S
N1455 H1458 0.984 . S
N1455 H1459 0.985 . S
H1456 N1451 0.984 . S
H1457 N1451 0.985 . S
H1458 N1455 0.984 . S
H1459 N1455 0.985 . S
H1460 N1454 0.984 . S
H1461 N1454 0.984 . S
H1462 N1450 0.984 . S
H1463 N1450 0.985 . S
C1464 C1465 1.363 . S
C1464 C1470 1.379 . S
C1464 N1472 1.356 . S
C1465 C1464 1.363 . S
C1465 C1471 1.363 . S
C1466 C1467 1.363 . S
C1466 C1471 1.379 . S
C1466 N1473 1.356 . S
C1467 C1466 1.363 . S
C1467 C1470 1.363 . S
N1468 C1470 1.356 . S
N1468 H1480 0.984 . S
N1468 H1481 0.985 . S
N1469 C1471 1.356 . S
N1469 H1474 0.984 . S
N1469 H1475 0.985 . S
C1470 C1464 1.379 . S
C1470 C1467 1.363 . S
C1470 N1468 1.356 . S
C1471 C1465 1.363 . S
C1471 C1466 1.379 . S
C1471 N1469 1.356 . S
N1472 C1464 1.356 . S
N1472 H1478 0.984 . S
N1472 H1479 0.984 . S
N1473 C1466 1.356 . S
N1473 H1476 0.984 . S
N1473 H1477 0.985 . S
H1474 N1469 0.984 . S
H1475 N1469 0.985 . S
H1476 N1473 0.984 . S
H1477 N1473 0.985 . S
H1478 N1472 0.984 . S
H1479 N1472 0.984 . S
H1480 N1468 0.984 . S
H1481 N1468 0.985 . S
C1482 C1483 1.363 . S
C1482 C1488 1.379 . S
C1482 N1490 1.356 . S
C1483 C1482 1.363 . S
C1483 C1489 1.363 . S
C1484 C1485 1.363 . S
C1484 C1489 1.379 . S
C1484 N1491 1.356 . S
C1485 C1484 1.363 . S
C1485 C1488 1.363 . S
N1486 C1488 1.356 . S
N1486 H1498 0.984 . S
N1486 H1499 0.985 . S
N1487 C1489 1.356 . S
N1487 H1492 0.984 . S
N1487 H1493 0.985 . S
C1488 C1482 1.379 . S
C1488 C1485 1.363 . S
C1488 N1486 1.356 . S
C1489 C1483 1.363 . S
C1489 C1484 1.379 . S
C1489 N1487 1.356 . S
N1490 C1482 1.356 . S
N1490 H1496 0.984 . S
N1490 H1497 0.984 . S
N1491 C1484 1.356 . S
N1491 H1494 0.984 . S
N1491 H1495 0.985 . S
H1492 N1487 0.984 . S
H1493 N1487 0.985 . S
H1494 N1491 0.984 . S
H1495 N1491 0.985 . S
H1496 N1490 0.984 . S
H1497 N1490 0.984 . S
H1498 N1486 0.984 . S
H1499 N1486 0.985 . S
C1500 C1501 1.363 . S
C1500 C1506 1.379 . S
C1500 N1508 1.356 . S
C1501 C1500 1.363 . S
C1501 C1507 1.363 . S
C1502 C1503 1.363 . S
C1502 C1507 1.379 . S
C1502 N1509 1.356 . S
C1503 C1502 1.363 . S
C1503 C1506 1.363 . S
N1504 C1506 1.356 . S
N1504 H1516 0.984 . S
N1504 H1517 0.985 . S
N1505 C1507 1.356 . S
N1505 H1510 0.984 . S
N1505 H1511 0.985 . S
C1506 C1500 1.379 . S
C1506 C1503 1.363 . S
C1506 N1504 1.356 . S
C1507 C1501 1.363 . S
C1507 C1502 1.379 . S
C1507 N1505 1.356 . S
N1508 C1500 1.356 . S
N1508 H1514 0.984 . S
N1508 H1515 0.984 . S
N1509 C1502 1.356 . S
N1509 H1512 0.984 . S
N1509 H1513 0.985 . S
H1510 N1505 0.984 . S
H1511 N1505 0.985 . S
H1512 N1509 0.984 . S
H1513 N1509 0.985 . S
H1514 N1508 0.984 . S
H1515 N1508 0.984 . S
H1516 N1504 0.984 . S
H1517 N1504 0.985 . S
C1518 C1519 1.363 . S
C1518 C1524 1.379 . S
C1518 N1526 1.356 . S
C1519 C1518 1.363 . S
C1519 C1525 1.363 . S
C1520 C1521 1.363 . S
C1520 C1525 1.379 . S
C1520 N1527 1.356 . S
C1521 C1520 1.363 . S
C1521 C1524 1.363 . S
N1522 C1524 1.356 . S
N1522 H1534 0.984 . S
N1522 H1535 0.985 . S
N1523 C1525 1.356 . S
N1523 H1528 0.984 . S
N1523 H1529 0.985 . S
C1524 C1518 1.379 . S
C1524 C1521 1.363 . S
C1524 N1522 1.356 . S
C1525 C1519 1.363 . S
C1525 C1520 1.379 . S
C1525 N1523 1.356 . S
N1526 C1518 1.356 . S
N1526 H1532 0.984 . S
N1526 H1533 0.984 . S
N1527 C1520 1.356 . S
N1527 H1530 0.984 . S
N1527 H1531 0.985 . S
H1528 N1523 0.984 . S
H1529 N1523 0.985 . S
H1530 N1527 0.984 . S
H1531 N1527 0.985 . S
H1532 N1526 0.984 . S
H1533 N1526 0.984 . S
H1534 N1522 0.984 . S
H1535 N1522 0.985 . S
C1536 C1537 1.363 . S
C1536 C1542 1.379 . S
C1536 N1544 1.356 . S
C1537 C1536 1.363 . S
C1537 C1543 1.363 . S
C1538 C1539 1.363 . S
C1538 C1543 1.379 . S
C1538 N1545 1.356 . S
C1539 C1538 1.363 . S
C1539 C1542 1.363 . S
N1540 C1542 1.356 . S
N1540 H1552 0.984 . S
N1540 H1553 0.985 . S
N1541 C1543 1.356 . S
N1541 H1546 0.984 . S
N1541 H1547 0.985 . S
C1542 C1536 1.379 . S
C1542 C1539 1.363 . S
C1542 N1540 1.356 . S
C1543 C1537 1.363 . S
C1543 C1538 1.379 . S
C1543 N1541 1.356 . S
N1544 C1536 1.356 . S
N1544 H1550 0.984 . S
N1544 H1551 0.984 . S
N1545 C1538 1.356 . S
N1545 H1548 0.984 . S
N1545 H1549 0.985 . S
H1546 N1541 0.984 . S
H1547 N1541 0.985 . S
H1548 N1545 0.984 . S
H1549 N1545 0.985 . S
H1550 N1544 0.984 . S
H1551 N1544 0.984 . S
H1552 N1540 0.984 . S
H1553 N1540 0.985 . S
C1554 C1555 1.363 . S
C1554 C1560 1.379 . S
C1554 N1562 1.356 . S
C1555 C1554 1.363 . S
C1555 C1561 1.363 . S
C1556 C1557 1.363 . S
C1556 C1561 1.379 . S
C1556 N1563 1.356 . S
C1557 C1556 1.363 . S
C1557 C1560 1.363 . S
N1558 C1560 1.356 . S
N1558 H1570 0.984 . S
N1558 H1571 0.985 . S
N1559 C1561 1.356 . S
N1559 H1564 0.984 . S
N1559 H1565 0.985 . S
C1560 C1554 1.379 . S
C1560 C1557 1.363 . S
C1560 N1558 1.356 . S
C1561 C1555 1.363 . S
C1561 C1556 1.379 . S
C1561 N1559 1.356 . S
N1562 C1554 1.356 . S
N1562 H1568 0.984 . S
N1562 H1569 0.984 . S
N1563 C1556 1.356 . S
N1563 H1566 0.984 . S
N1563 H1567 0.985 . S
H1564 N1559 0.984 . S
H1565 N1559 0.985 . S
H1566 N1563 0.984 . S
H1567 N1563 0.985 . S
H1568 N1562 0.984 . S
H1569 N1562 0.984 . S
H1570 N1558 0.984 . S
H1571 N1558 0.985 . S
C1572 C1573 1.363 . S
C1572 C1578 1.379 . S
C1572 N1580 1.356 . S
C1573 C1572 1.363 . S
C1573 C1579 1.363 . S
C1574 C1575 1.363 . S
C1574 C1579 1.379 . S
C1574 N1581 1.356 . S
C1575 C1574 1.363 . S
C1575 C1578 1.363 . S
N1576 C1578 1.356 . S
N1576 H1588 0.984 . S
N1576 H1589 0.985 . S
N1577 C1579 1.356 . S
N1577 H1582 0.984 . S
N1577 H1583 0.985 . S
C1578 C1572 1.379 . S
C1578 C1575 1.363 . S
C1578 N1576 1.356 . S
C1579 C1573 1.363 . S
C1579 C1574 1.379 . S
C1579 N1577 1.356 . S
N1580 C1572 1.356 . S
N1580 H1586 0.984 . S
N1580 H1587 0.984 . S
N1581 C1574 1.356 . S
N1581 H1584 0.984 . S
N1581 H1585 0.985 . S
H1582 N1577 0.984 . S
H1583 N1577 0.985 . S
H1584 N1581 0.984 . S
H1585 N1581 0.985 . S
H1586 N1580 0.984 . S
H1587 N1580 0.984 . S
H1588 N1576 0.984 . S
H1589 N1576 0.985 . S
C1590 C1591 1.363 . S
C1590 C1596 1.379 . S
C1590 N1598 1.356 . S
C1591 C1590 1.363 . S
C1591 C1597 1.363 . S
C1592 C1593 1.363 . S
C1592 C1597 1.379 . S
C1592 N1599 1.356 . S
C1593 C1592 1.363 . S
C1593 C1596 1.363 . S
N1594 C1596 1.356 . S
N1594 H1606 0.984 . S
N1594 H1607 0.985 . S
N1595 C1597 1.356 . S
N1595 H1600 0.984 . S
N1595 H1601 0.985 . S
C1596 C1590 1.379 . S
C1596 C1593 1.363 . S
C1596 N1594 1.356 . S
C1597 C1591 1.363 . S
C1597 C1592 1.379 . S
C1597 N1595 1.356 . S
N1598 C1590 1.356 . S
N1598 H1604 0.984 . S
N1598 H1605 0.984 . S
N1599 C1592 1.356 . S
N1599 H1602 0.984 . S
N1599 H1603 0.985 . S
H1600 N1595 0.984 . S
H1601 N1595 0.985 . S
H1602 N1599 0.984 . S
H1603 N1599 0.985 . S
H1604 N1598 0.984 . S
H1605 N1598 0.984 . S
H1606 N1594 0.984 . S
H1607 N1594 0.985 . S
C1608 C1609 1.363 . S
C1608 C1614 1.379 . S
C1608 N1616 1.356 . S
C1609 C1608 1.363 . S
C1609 C1615 1.363 . S
C1610 C1611 1.363 . S
C1610 C1615 1.379 . S
C1610 N1617 1.356 . S
C1611 C1610 1.363 . S
C1611 C1614 1.363 . S
N1612 C1614 1.356 . S
N1612 H1624 0.984 . S
N1612 H1625 0.985 . S
N1613 C1615 1.356 . S
N1613 H1618 0.984 . S
N1613 H1619 0.985 . S
C1614 C1608 1.379 . S
C1614 C1611 1.363 . S
C1614 N1612 1.356 . S
C1615 C1609 1.363 . S
C1615 C1610 1.379 . S
C1615 N1613 1.356 . S
N1616 C1608 1.356 . S
N1616 H1622 0.984 . S
N1616 H1623 0.984 . S
N1617 C1610 1.356 . S
N1617 H1620 0.984 . S
N1617 H1621 0.985 . S
H1618 N1613 0.984 . S
H1619 N1613 0.985 . S
H1620 N1617 0.984 . S
H1621 N1617 0.985 . S
H1622 N1616 0.984 . S
H1623 N1616 0.984 . S
H1624 N1612 0.984 . S
H1625 N1612 0.985 . S
C1626 C1627 1.363 . S
C1626 C1632 1.379 . S
C1626 N1634 1.356 . S
C1627 C1626 1.363 . S
C1627 C1633 1.363 . S
C1628 C1629 1.363 . S
C1628 C1633 1.379 . S
C1628 N1635 1.356 . S
C1629 C1628 1.363 . S
C1629 C1632 1.363 . S
N1630 C1632 1.356 . S
N1630 H1642 0.984 . S
N1630 H1643 0.985 . S
N1631 C1633 1.356 . S
N1631 H1636 0.984 . S
N1631 H1637 0.985 . S
C1632 C1626 1.379 . S
C1632 C1629 1.363 . S
C1632 N1630 1.356 . S
C1633 C1627 1.363 . S
C1633 C1628 1.379 . S
C1633 N1631 1.356 . S
N1634 C1626 1.356 . S
N1634 H1640 0.984 . S
N1634 H1641 0.984 . S
N1635 C1628 1.356 . S
N1635 H1638 0.984 . S
N1635 H1639 0.985 . S
H1636 N1631 0.984 . S
H1637 N1631 0.985 . S
H1638 N1635 0.984 . S
H1639 N1635 0.985 . S
H1640 N1634 0.984 . S
H1641 N1634 0.984 . S
H1642 N1630 0.984 . S
H1643 N1630 0.985 . S
C1644 C1645 1.363 . S
C1644 C1650 1.379 . S
C1644 N1652 1.356 . S
C1645 C1644 1.363 . S
C1645 C1651 1.363 . S
C1646 C1647 1.363 . S
C1646 C1651 1.379 . S
C1646 N1653 1.356 . S
C1647 C1646 1.363 . S
C1647 C1650 1.363 . S
N1648 C1650 1.356 . S
N1648 H1660 0.984 . S
N1648 H1661 0.985 . S
N1649 C1651 1.356 . S
N1649 H1654 0.984 . S
N1649 H1655 0.985 . S
C1650 C1644 1.379 . S
C1650 C1647 1.363 . S
C1650 N1648 1.356 . S
C1651 C1645 1.363 . S
C1651 C1646 1.379 . S
C1651 N1649 1.356 . S
N1652 C1644 1.356 . S
N1652 H1658 0.984 . S
N1652 H1659 0.984 . S
N1653 C1646 1.356 . S
N1653 H1656 0.984 . S
N1653 H1657 0.985 . S
H1654 N1649 0.984 . S
H1655 N1649 0.985 . S
H1656 N1653 0.984 . S
H1657 N1653 0.985 . S
H1658 N1652 0.984 . S
H1659 N1652 0.984 . S
H1660 N1648 0.984 . S
H1661 N1648 0.985 . S
C1662 C1663 1.363 . S
C1662 C1668 1.379 . S
C1662 N1670 1.356 . S
C1663 C1662 1.363 . S
C1663 C1669 1.363 . S
C1664 C1665 1.363 . S
C1664 C1669 1.379 . S
C1664 N1671 1.356 . S
C1665 C1664 1.363 . S
C1665 C1668 1.363 . S
N1666 C1668 1.356 . S
N1666 H1678 0.984 . S
N1666 H1679 0.985 . S
N1667 C1669 1.356 . S
N1667 H1672 0.984 . S
N1667 H1673 0.985 . S
C1668 C1662 1.379 . S
C1668 C1665 1.363 . S
C1668 N1666 1.356 . S
C1669 C1663 1.363 . S
C1669 C1664 1.379 . S
C1669 N1667 1.356 . S
N1670 C1662 1.356 . S
N1670 H1676 0.984 . S
N1670 H1677 0.984 . S
N1671 C1664 1.356 . S
N1671 H1674 0.984 . S
N1671 H1675 0.985 . S
H1672 N1667 0.984 . S
H1673 N1667 0.985 . S
H1674 N1671 0.984 . S
H1675 N1671 0.985 . S
H1676 N1670 0.984 . S
H1677 N1670 0.984 . S
H1678 N1666 0.984 . S
H1679 N1666 0.985 . S
C1680 C1681 1.363 . S
C1680 C1686 1.379 . S
C1680 N1688 1.356 . S
C1681 C1680 1.363 . S
C1681 C1687 1.363 . S
C1682 C1683 1.363 . S
C1682 C1687 1.379 . S
C1682 N1689 1.356 . S
C1683 C1682 1.363 . S
C1683 C1686 1.363 . S
N1684 C1686 1.356 . S
N1684 H1696 0.984 . S
N1684 H1697 0.985 . S
N1685 C1687 1.356 . S
N1685 H1690 0.984 . S
N1685 H1691 0.985 . S
C1686 C1680 1.379 . S
C1686 C1683 1.363 . S
C1686 N1684 1.356 . S
C1687 C1681 1.363 . S
C1687 C1682 1.379 . S
C1687 N1685 1.356 . S
N1688 C1680 1.356 . S
N1688 H1694 0.984 . S
N1688 H1695 0.984 . S
N1689 C1682 1.356 . S
N1689 H1692 0.984 . S
N1689 H1693 0.985 . S
H1690 N1685 0.984 . S
H1691 N1685 0.985 . S
H1692 N1689 0.984 . S
H1693 N1689 0.985 . S
H1694 N1688 0.984 . S
H1695 N1688 0.984 . S
H1696 N1684 0.984 . S
H1697 N1684 0.985 . S
C1698 C1699 1.363 . S
C1698 C1704 1.379 . S
C1698 N1706 1.356 . S
C1699 C1698 1.363 . S
C1699 C1705 1.363 . S
C1700 C1701 1.363 . S
C1700 C1705 1.379 . S
C1700 N1707 1.356 . S
C1701 C1700 1.363 . S
C1701 C1704 1.363 . S
N1702 C1704 1.356 . S
N1702 H1714 0.984 . S
N1702 H1715 0.985 . S
N1703 C1705 1.356 . S
N1703 H1708 0.984 . S
N1703 H1709 0.985 . S
C1704 C1698 1.379 . S
C1704 C1701 1.363 . S
C1704 N1702 1.356 . S
C1705 C1699 1.363 . S
C1705 C1700 1.379 . S
C1705 N1703 1.356 . S
N1706 C1698 1.356 . S
N1706 H1712 0.984 . S
N1706 H1713 0.984 . S
N1707 C1700 1.356 . S
N1707 H1710 0.984 . S
N1707 H1711 0.985 . S
H1708 N1703 0.984 . S
H1709 N1703 0.985 . S
H1710 N1707 0.984 . S
H1711 N1707 0.985 . S
H1712 N1706 0.984 . S
H1713 N1706 0.984 . S
H1714 N1702 0.984 . S
H1715 N1702 0.985 . S
C1716 C1717 1.363 . S
C1716 C1722 1.379 . S
C1716 N1724 1.356 . S
C1717 C1716 1.363 . S
C1717 C1723 1.363 . S
C1718 C1719 1.363 . S
C1718 C1723 1.379 . S
C1718 N1725 1.356 . S
C1719 C1718 1.363 . S
C1719 C1722 1.363 . S
N1720 C1722 1.356 . S
N1720 H1732 0.984 . S
N1720 H1733 0.985 . S
N1721 C1723 1.356 . S
N1721 H1726 0.984 . S
N1721 H1727 0.985 . S
C1722 C1716 1.379 . S
C1722 C1719 1.363 . S
C1722 N1720 1.356 . S
C1723 C1717 1.363 . S
C1723 C1718 1.379 . S
C1723 N1721 1.356 . S
N1724 C1716 1.356 . S
N1724 H1730 0.984 . S
N1724 H1731 0.984 . S
N1725 C1718 1.356 . S
N1725 H1728 0.984 . S
N1725 H1729 0.985 . S
H1726 N1721 0.984 . S
H1727 N1721 0.985 . S
H1728 N1725 0.984 . S
H1729 N1725 0.985 . S
H1730 N1724 0.984 . S
H1731 N1724 0.984 . S
H1732 N1720 0.984 . S
H1733 N1720 0.985 . S
C1734 C1735 1.363 . S
C1734 C1740 1.379 . S
C1734 N1742 1.356 . S
C1735 C1734 1.363 . S
C1735 C1741 1.363 . S
C1736 C1737 1.363 . S
C1736 C1741 1.379 . S
C1736 N1743 1.356 . S
C1737 C1736 1.363 . S
C1737 C1740 1.363 . S
N1738 C1740 1.356 . S
N1738 H1750 0.984 . S
N1738 H1751 0.985 . S
N1739 C1741 1.356 . S
N1739 H1744 0.984 . S
N1739 H1745 0.985 . S
C1740 C1734 1.379 . S
C1740 C1737 1.363 . S
C1740 N1738 1.356 . S
C1741 C1735 1.363 . S
C1741 C1736 1.379 . S
C1741 N1739 1.356 . S
N1742 C1734 1.356 . S
N1742 H1748 0.984 . S
N1742 H1749 0.984 . S
N1743 C1736 1.356 . S
N1743 H1746 0.984 . S
N1743 H1747 0.985 . S
H1744 N1739 0.984 . S
H1745 N1739 0.985 . S
H1746 N1743 0.984 . S
H1747 N1743 0.985 . S
H1748 N1742 0.984 . S
H1749 N1742 0.984 . S
H1750 N1738 0.984 . S
H1751 N1738 0.985 . S
C1752 C1753 1.363 . S
C1752 C1758 1.379 . S
C1752 N1760 1.356 . S
C1753 C1752 1.363 . S
C1753 C1759 1.363 . S
C1754 C1755 1.363 . S
C1754 C1759 1.379 . S
C1754 N1761 1.356 . S
C1755 C1754 1.363 . S
C1755 C1758 1.363 . S
N1756 C1758 1.356 . S
N1756 H1768 0.984 . S
N1756 H1769 0.985 . S
N1757 C1759 1.356 . S
N1757 H1762 0.984 . S
N1757 H1763 0.985 . S
C1758 C1752 1.379 . S
C1758 C1755 1.363 . S
C1758 N1756 1.356 . S
C1759 C1753 1.363 . S
C1759 C1754 1.379 . S
C1759 N1757 1.356 . S
N1760 C1752 1.356 . S
N1760 H1766 0.984 . S
N1760 H1767 0.984 . S
N1761 C1754 1.356 . S
N1761 H1764 0.984 . S
N1761 H1765 0.985 . S
H1762 N1757 0.984 . S
H1763 N1757 0.985 . S
H1764 N1761 0.984 . S
H1765 N1761 0.985 . S
H1766 N1760 0.984 . S
H1767 N1760 0.984 . S
H1768 N1756 0.984 . S
H1769 N1756 0.985 . S
C1770 C1771 1.363 . S
C1770 C1776 1.379 . S
C1770 N1778 1.356 . S
C1771 C1770 1.363 . S
C1771 C1777 1.363 . S
C1772 C1773 1.363 . S
C1772 C1777 1.379 . S
C1772 N1779 1.356 . S
C1773 C1772 1.363 . S
C1773 C1776 1.363 . S
N1774 C1776 1.356 . S
N1774 H1786 0.984 . S
N1774 H1787 0.985 . S
N1775 C1777 1.356 . S
N1775 H1780 0.984 . S
N1775 H1781 0.985 . S
C1776 C1770 1.379 . S
C1776 C1773 1.363 . S
C1776 N1774 1.356 . S
C1777 C1771 1.363 . S
C1777 C1772 1.379 . S
C1777 N1775 1.356 . S
N1778 C1770 1.356 . S
N1778 H1784 0.984 . S
N1778 H1785 0.984 . S
N1779 C1772 1.356 . S
N1779 H1782 0.984 . S
N1779 H1783 0.985 . S
H1780 N1775 0.984 . S
H1781 N1775 0.985 . S
H1782 N1779 0.984 . S
H1783 N1779 0.985 . S
H1784 N1778 0.984 . S
H1785 N1778 0.984 . S
H1786 N1774 0.984 . S
H1787 N1774 0.985 . S
C1788 C1789 1.363 . S
C1788 C1794 1.379 . S
C1788 N1796 1.356 . S
C1789 C1788 1.363 . S
C1789 C1795 1.363 . S
C1790 C1791 1.363 . S
C1790 C1795 1.379 . S
C1790 N1797 1.356 . S
C1791 C1790 1.363 . S
C1791 C1794 1.363 . S
N1792 C1794 1.356 . S
N1792 H1804 0.984 . S
N1792 H1805 0.985 . S
N1793 C1795 1.356 . S
N1793 H1798 0.984 . S
N1793 H1799 0.985 . S
C1794 C1788 1.379 . S
C1794 C1791 1.363 . S
C1794 N1792 1.356 . S
C1795 C1789 1.363 . S
C1795 C1790 1.379 . S
C1795 N1793 1.356 . S
N1796 C1788 1.356 . S
N1796 H1802 0.984 . S
N1796 H1803 0.984 . S
N1797 C1790 1.356 . S
N1797 H1800 0.984 . S
N1797 H1801 0.985 . S
H1798 N1793 0.984 . S
H1799 N1793 0.985 . S
H1800 N1797 0.984 . S
H1801 N1797 0.985 . S
H1802 N1796 0.984 . S
H1803 N1796 0.984 . S
H1804 N1792 0.984 . S
H1805 N1792 0.985 . S
C1806 C1807 1.363 . S
C1806 C1812 1.379 . S
C1806 N1814 1.356 . S
C1807 C1806 1.363 . S
C1807 C1813 1.363 . S
C1808 C1809 1.363 . S
C1808 C1813 1.379 . S
C1808 N1815 1.356 . S
C1809 C1808 1.363 . S
C1809 C1812 1.363 . S
N1810 C1812 1.356 . S
N1810 H1822 0.984 . S
N1810 H1823 0.985 . S
N1811 C1813 1.356 . S
N1811 H1816 0.984 . S
N1811 H1817 0.985 . S
C1812 C1806 1.379 . S
C1812 C1809 1.363 . S
C1812 N1810 1.356 . S
C1813 C1807 1.363 . S
C1813 C1808 1.379 . S
C1813 N1811 1.356 . S
N1814 C1806 1.356 . S
N1814 H1820 0.984 . S
N1814 H1821 0.984 . S
N1815 C1808 1.356 . S
N1815 H1818 0.984 . S
N1815 H1819 0.985 . S
H1816 N1811 0.984 . S
H1817 N1811 0.985 . S
H1818 N1815 0.984 . S
H1819 N1815 0.985 . S
H1820 N1814 0.984 . S
H1821 N1814 0.984 . S
H1822 N1810 0.984 . S
H1823 N1810 0.985 . S
C1824 C1825 1.363 . S
C1824 C1830 1.379 . S
C1824 N1832 1.356 . S
C1825 C1824 1.363 . S
C1825 C1831 1.363 . S
C1826 C1827 1.363 . S
C1826 C1831 1.379 . S
C1826 N1833 1.356 . S
C1827 C1826 1.363 . S
C1827 C1830 1.363 . S
N1828 C1830 1.356 . S
N1828 H1840 0.984 . S
N1828 H1841 0.985 . S
N1829 C1831 1.356 . S
N1829 H1834 0.984 . S
N1829 H1835 0.985 . S
C1830 C1824 1.379 . S
C1830 C1827 1.363 . S
C1830 N1828 1.356 . S
C1831 C1825 1.363 . S
C1831 C1826 1.379 . S
C1831 N1829 1.356 . S
N1832 C1824 1.356 . S
N1832 H1838 0.984 . S
N1832 H1839 0.984 . S
N1833 C1826 1.356 . S
N1833 H1836 0.984 . S
N1833 H1837 0.985 . S
H1834 N1829 0.984 . S
H1835 N1829 0.985 . S
H1836 N1833 0.984 . S
H1837 N1833 0.985 . S
H1838 N1832 0.984 . S
H1839 N1832 0.984 . S
H1840 N1828 0.984 . S
H1841 N1828 0.985 . S
C1842 C1843 1.363 . S
C1842 C1848 1.379 . S
C1842 N1850 1.356 . S
C1843 C1842 1.363 . S
C1843 C1849 1.363 . S
C1844 C1845 1.363 . S
C1844 C1849 1.379 . S
C1844 N1851 1.356 . S
C1845 C1844 1.363 . S
C1845 C1848 1.363 . S
N1846 C1848 1.356 . S
N1846 H1858 0.984 . S
N1846 H1859 0.985 . S
N1847 C1849 1.356 . S
N1847 H1852 0.984 . S
N1847 H1853 0.985 . S
C1848 C1842 1.379 . S
C1848 C1845 1.363 . S
C1848 N1846 1.356 . S
C1849 C1843 1.363 . S
C1849 C1844 1.379 . S
C1849 N1847 1.356 . S
N1850 C1842 1.356 . S
N1850 H1856 0.984 . S
N1850 H1857 0.984 . S
N1851 C1844 1.356 . S
N1851 H1854 0.984 . S
N1851 H1855 0.985 . S
H1852 N1847 0.984 . S
H1853 N1847 0.985 . S
H1854 N1851 0.984 . S
H1855 N1851 0.985 . S
H1856 N1850 0.984 . S
H1857 N1850 0.984 . S
H1858 N1846 0.984 . S
H1859 N1846 0.985 . S
C1860 C1861 1.363 . S
C1860 C1866 1.379 . S
C1860 N1868 1.356 . S
C1861 C1860 1.363 . S
C1861 C1867 1.363 . S
C1862 C1863 1.363 . S
C1862 C1867 1.379 . S
C1862 N1869 1.356 . S
C1863 C1862 1.363 . S
C1863 C1866 1.363 . S
N1864 C1866 1.356 . S
N1864 H1876 0.984 . S
N1864 H1877 0.985 . S
N1865 C1867 1.356 . S
N1865 H1870 0.984 . S
N1865 H1871 0.985 . S
C1866 C1860 1.379 . S
C1866 C1863 1.363 . S
C1866 N1864 1.356 . S
C1867 C1861 1.363 . S
C1867 C1862 1.379 . S
C1867 N1865 1.356 . S
N1868 C1860 1.356 . S
N1868 H1874 0.984 . S
N1868 H1875 0.984 . S
N1869 C1862 1.356 . S
N1869 H1872 0.984 . S
N1869 H1873 0.985 . S
H1870 N1865 0.984 . S
H1871 N1865 0.985 . S
H1872 N1869 0.984 . S
H1873 N1869 0.985 . S
H1874 N1868 0.984 . S
H1875 N1868 0.984 . S
H1876 N1864 0.984 . S
H1877 N1864 0.985 . S
C1878 C1879 1.363 . S
C1878 C1884 1.379 . S
C1878 N1886 1.356 . S
C1879 C1878 1.363 . S
C1879 C1885 1.363 . S
C1880 C1881 1.363 . S
C1880 C1885 1.379 . S
C1880 N1887 1.356 . S
C1881 C1880 1.363 . S
C1881 C1884 1.363 . S
N1882 C1884 1.356 . S
N1882 H1894 0.984 . S
N1882 H1895 0.985 . S
N1883 C1885 1.356 . S
N1883 H1888 0.984 . S
N1883 H1889 0.985 . S
C1884 C1878 1.379 . S
C1884 C1881 1.363 . S
C1884 N1882 1.356 . S
C1885 C1879 1.363 . S
C1885 C1880 1.379 . S
C1885 N1883 1.356 . S
N1886 C1878 1.356 . S
N1886 H1892 0.984 . S
N1886 H1893 0.984 . S
N1887 C1880 1.356 . S
N1887 H1890 0.984 . S
N1887 H1891 0.985 . S
H1888 N1883 0.984 . S
H1889 N1883 0.985 . S
H1890 N1887 0.984 . S
H1891 N1887 0.985 . S
H1892 N1886 0.984 . S
H1893 N1886 0.984 . S
H1894 N1882 0.984 . S
H1895 N1882 0.985 . S
C1896 C1897 1.363 . S
C1896 C1902 1.379 . S
C1896 N1904 1.356 . S
C1897 C1896 1.363 . S
C1897 C1903 1.363 . S
C1898 C1899 1.363 . S
C1898 C1903 1.379 . S
C1898 N1905 1.356 . S
C1899 C1898 1.363 . S
C1899 C1902 1.363 . S
N1900 C1902 1.356 . S
N1900 H1912 0.984 . S
N1900 H1913 0.985 . S
N1901 C1903 1.356 . S
N1901 H1906 0.984 . S
N1901 H1907 0.985 . S
C1902 C1896 1.379 . S
C1902 C1899 1.363 . S
C1902 N1900 1.356 . S
C1903 C1897 1.363 . S
C1903 C1898 1.379 . S
C1903 N1901 1.356 . S
N1904 C1896 1.356 . S
N1904 H1910 0.984 . S
N1904 H1911 0.984 . S
N1905 C1898 1.356 . S
N1905 H1908 0.984 . S
N1905 H1909 0.985 . S
H1906 N1901 0.984 . S
H1907 N1901 0.985 . S
H1908 N1905 0.984 . S
H1909 N1905 0.985 . S
H1910 N1904 0.984 . S
H1911 N1904 0.984 . S
H1912 N1900 0.984 . S
H1913 N1900 0.985 . S
C1914 C1915 1.363 . S
C1914 C1920 1.379 . S
C1914 N1922 1.356 . S
C1915 C1914 1.363 . S
C1915 C1921 1.363 . S
C1916 C1917 1.363 . S
C1916 C1921 1.379 . S
C1916 N1923 1.356 . S
C1917 C1916 1.363 . S
C1917 C1920 1.363 . S
N1918 C1920 1.356 . S
N1918 H1930 0.984 . S
N1918 H1931 0.985 . S
N1919 C1921 1.356 . S
N1919 H1924 0.984 . S
N1919 H1925 0.985 . S
C1920 C1914 1.379 . S
C1920 C1917 1.363 . S
C1920 N1918 1.356 . S
C1921 C1915 1.363 . S
C1921 C1916 1.379 . S
C1921 N1919 1.356 . S
N1922 C1914 1.356 . S
N1922 H1928 0.984 . S
N1922 H1929 0.984 . S
N1923 C1916 1.356 . S
N1923 H1926 0.984 . S
N1923 H1927 0.985 . S
H1924 N1919 0.984 . S
H1925 N1919 0.985 . S
H1926 N1923 0.984 . S
H1927 N1923 0.985 . S
H1928 N1922 0.984 . S
H1929 N1922 0.984 . S
H1930 N1918 0.984 . S
H1931 N1918 0.985 . S
C1932 C1933 1.363 . S
C1932 C1938 1.379 . S
C1932 N1940 1.356 . S
C1933 C1932 1.363 . S
C1933 C1939 1.363 . S
C1934 C1935 1.363 . S
C1934 C1939 1.379 . S
C1934 N1941 1.356 . S
C1935 C1934 1.363 . S
C1935 C1938 1.363 . S
N1936 C1938 1.356 . S
N1936 H1948 0.984 . S
N1936 H1949 0.985 . S
N1937 C1939 1.356 . S
N1937 H1942 0.984 . S
N1937 H1943 0.985 . S
C1938 C1932 1.379 . S
C1938 C1935 1.363 . S
C1938 N1936 1.356 . S
C1939 C1933 1.363 . S
C1939 C1934 1.379 . S
C1939 N1937 1.356 . S
N1940 C1932 1.356 . S
N1940 H1946 0.984 . S
N1940 H1947 0.984 . S
N1941 C1934 1.356 . S
N1941 H1944 0.984 . S
N1941 H1945 0.985 . S
H1942 N1937 0.984 . S
H1943 N1937 0.985 . S
H1944 N1941 0.984 . S
H1945 N1941 0.985 . S
H1946 N1940 0.984 . S
H1947 N1940 0.984 . S
H1948 N1936 0.984 . S
H1949 N1936 0.985 . S
C1950 C1951 1.363 . S
C1950 C1956 1.379 . S
C1950 N1958 1.356 . S
C1951 C1950 1.363 . S
C1951 C1957 1.363 . S
C1952 C1953 1.363 . S
C1952 C1957 1.379 . S
C1952 N1959 1.356 . S
C1953 C1952 1.363 . S
C1953 C1956 1.363 . S
N1954 C1956 1.356 . S
N1954 H1966 0.984 . S
N1954 H1967 0.985 . S
N1955 C1957 1.356 . S
N1955 H1960 0.984 . S
N1955 H1961 0.985 . S
C1956 C1950 1.379 . S
C1956 C1953 1.363 . S
C1956 N1954 1.356 . S
C1957 C1951 1.363 . S
C1957 C1952 1.379 . S
C1957 N1955 1.356 . S
N1958 C1950 1.356 . S
N1958 H1964 0.984 . S
N1958 H1965 0.984 . S
N1959 C1952 1.356 . S
N1959 H1962 0.984 . S
N1959 H1963 0.985 . S
H1960 N1955 0.984 . S
H1961 N1955 0.985 . S
H1962 N1959 0.984 . S
H1963 N1959 0.985 . S
H1964 N1958 0.984 . S
H1965 N1958 0.984 . S
H1966 N1954 0.984 . S
H1967 N1954 0.985 . S
C1968 C1969 1.363 . S
C1968 C1974 1.379 1_554 S
C1968 N1976 1.356 . S
C1969 C1968 1.363 . S
C1969 C1975 1.363 . S
C1970 C1971 1.363 . S
C1970 C1975 1.379 1_556 S
C1970 N1977 1.356 . S
C1971 C1970 1.363 . S
C1971 C1974 1.363 . S
N1972 C1974 1.356 . S
N1972 H1984 0.984 . S
N1972 H1985 0.985 . S
N1973 C1975 1.356 . S
N1973 H1978 0.984 . S
N1973 H1979 0.985 . S
C1974 C1968 1.379 1_556 S
C1974 C1971 1.363 . S
C1974 N1972 1.356 . S
C1975 C1969 1.363 . S
C1975 C1970 1.379 1_554 S
C1975 N1973 1.356 . S
N1976 C1968 1.356 . S
N1976 H1982 0.984 . S
N1976 H1983 0.984 . S
N1977 C1970 1.356 . S
N1977 H1980 0.984 . S
N1977 H1981 0.985 . S
H1978 N1973 0.984 . S
H1979 N1973 0.985 . S
H1980 N1977 0.984 . S
H1981 N1977 0.985 . S
H1982 N1976 0.984 . S
H1983 N1976 0.984 . S
H1984 N1972 0.984 . S
H1985 N1972 0.985 . S
C1986 C1987 1.363 . S
C1986 C1992 1.379 1_556 S
C1986 N1994 1.356 . S
C1987 C1986 1.363 . S
C1987 C1993 1.363 . S
C1988 C1989 1.363 . S
C1988 C1993 1.379 1_554 S
C1988 N1995 1.356 . S
C1989 C1988 1.363 . S
C1989 C1992 1.363 . S
N1990 C1992 1.356 . S
N1990 H2002 0.984 . S
N1990 H2003 0.985 . S
N1991 C1993 1.356 . S
N1991 H1996 0.984 . S
N1991 H1997 0.985 . S
C1992 C1986 1.379 1_554 S
C1992 C1989 1.363 . S
C1992 N1990 1.356 . S
C1993 C1987 1.363 . S
C1993 C1988 1.379 1_556 S
C1993 N1991 1.356 . S
N1994 C1986 1.356 . S
N1994 H2000 0.984 . S
N1994 H2001 0.984 . S
N1995 C1988 1.356 . S
N1995 H1998 0.984 . S
N1995 H1999 0.985 . S
H1996 N1991 0.984 . S
H1997 N1991 0.985 . S
H1998 N1995 0.984 . S
H1999 N1995 0.985 . S
H2000 N1994 0.984 . S
H2001 N1994 0.984 . S
H2002 N1990 0.984 . S
H2003 N1990 0.985 . S
C2004 C2005 1.363 . S
C2004 C2010 1.379 1_554 S
C2004 N2012 1.356 . S
C2005 C2004 1.363 . S
C2005 C2011 1.363 . S
C2006 C2007 1.363 . S
C2006 C2011 1.379 1_556 S
C2006 N2013 1.356 . S
C2007 C2006 1.363 . S
C2007 C2010 1.363 . S
N2008 C2010 1.356 . S
N2008 H2020 0.984 . S
N2008 H2021 0.985 . S
N2009 C2011 1.356 . S
N2009 H2014 0.984 . S
N2009 H2015 0.985 . S
C2010 C2004 1.379 1_556 S
C2010 C2007 1.363 . S
C2010 N2008 1.356 . S
C2011 C2005 1.363 . S
C2011 C2006 1.379 1_554 S
C2011 N2009 1.356 . S
N2012 C2004 1.356 . S
N2012 H2018 0.984 . S
N2012 H2019 0.984 . S
N2013 C2006 1.356 . S
N2013 H2016 0.984 . S
N2013 H2017 0.985 . S
H2014 N2009 0.984 . S
H2015 N2009 0.985 . S
H2016 N2013 0.984 . S
H2017 N2013 0.985 . S
H2018 N2012 0.984 . S
H2019 N2012 0.984 . S
H2020 N2008 0.984 . S
H2021 N2008 0.985 . S
C2022 C2023 1.363 . S
C2022 C2028 1.379 1_554 S
C2022 N2030 1.356 . S
C2023 C2022 1.363 . S
C2023 C2029 1.363 . S
C2024 C2025 1.363 . S
C2024 C2029 1.379 1_556 S
C2024 N2031 1.356 . S
C2025 C2024 1.363 . S
C2025 C2028 1.363 . S
N2026 C2028 1.356 . S
N2026 H2038 0.984 . S
N2026 H2039 0.985 . S
N2027 C2029 1.356 . S
N2027 H2032 0.984 . S
N2027 H2033 0.985 . S
C2028 C2022 1.379 1_556 S
C2028 C2025 1.363 . S
C2028 N2026 1.356 . S
C2029 C2023 1.363 . S
C2029 C2024 1.379 1_554 S
C2029 N2027 1.356 . S
N2030 C2022 1.356 . S
N2030 H2036 0.984 . S
N2030 H2037 0.984 . S
N2031 C2024 1.356 . S
N2031 H2034 0.984 . S
N2031 H2035 0.985 . S
H2032 N2027 0.984 . S
H2033 N2027 0.985 . S
H2034 N2031 0.984 . S
H2035 N2031 0.985 . S
H2036 N2030 0.984 . S
H2037 N2030 0.984 . S
H2038 N2026 0.984 . S
H2039 N2026 0.985 . S
C2040 C2041 1.363 . S
C2040 C2046 1.379 1_556 S
C2040 N2048 1.356 . S
C2041 C2040 1.363 . S
C2041 C2047 1.363 . S
C2042 C2043 1.363 . S
C2042 C2047 1.379 1_554 S
C2042 N2049 1.356 . S
C2043 C2042 1.363 . S
C2043 C2046 1.363 . S
N2044 C2046 1.356 . S
N2044 H2056 0.984 . S
N2044 H2057 0.985 . S
N2045 C2047 1.356 . S
N2045 H2050 0.984 . S
N2045 H2051 0.985 . S
C2046 C2040 1.379 1_554 S
C2046 C2043 1.363 . S
C2046 N2044 1.356 . S
C2047 C2041 1.363 . S
C2047 C2042 1.379 1_556 S
C2047 N2045 1.356 . S
N2048 C2040 1.356 . S
N2048 H2054 0.984 . S
N2048 H2055 0.984 . S
N2049 C2042 1.356 . S
N2049 H2052 0.984 . S
N2049 H2053 0.985 . S
H2050 N2045 0.984 . S
H2051 N2045 0.985 . S
H2052 N2049 0.984 . S
H2053 N2049 0.985 . S
H2054 N2048 0.984 . S
H2055 N2048 0.984 . S
H2056 N2044 0.984 . S
H2057 N2044 0.985 . S
C2058 C2059 1.363 . S
C2058 C2064 1.379 1_554 S
C2058 N2066 1.356 . S
C2059 C2058 1.363 . S
C2059 C2065 1.363 . S
C2060 C2061 1.363 . S
C2060 C2065 1.379 1_556 S
C2060 N2067 1.356 . S
C2061 C2060 1.363 . S
C2061 C2064 1.363 . S
N2062 C2064 1.356 . S
N2062 H2074 0.984 . S
N2062 H2075 0.985 . S
N2063 C2065 1.356 . S
N2063 H2068 0.984 . S
N2063 H2069 0.985 . S
C2064 C2058 1.379 1_556 S
C2064 C2061 1.363 . S
C2064 N2062 1.356 . S
C2065 C2059 1.363 . S
C2065 C2060 1.379 1_554 S
C2065 N2063 1.356 . S
N2066 C2058 1.356 . S
N2066 H2072 0.984 . S
N2066 H2073 0.984 . S
N2067 C2060 1.356 . S
N2067 H2070 0.984 . S
N2067 H2071 0.985 . S
H2068 N2063 0.984 . S
H2069 N2063 0.985 . S
H2070 N2067 0.984 . S
H2071 N2067 0.985 . S
H2072 N2066 0.984 . S
H2073 N2066 0.984 . S
H2074 N2062 0.984 . S
H2075 N2062 0.985 . S
C2076 C2077 1.363 . S
C2076 C2082 1.379 1_556 S
C2076 N2084 1.356 . S
C2077 C2076 1.363 . S
C2077 C2083 1.363 . S
C2078 C2079 1.363 . S
C2078 C2083 1.379 1_554 S
C2078 N2085 1.356 . S
C2079 C2078 1.363 . S
C2079 C2082 1.363 . S
N2080 C2082 1.356 . S
N2080 H2092 0.984 . S
N2080 H2093 0.985 . S
N2081 C2083 1.356 . S
N2081 H2086 0.984 . S
N2081 H2087 0.985 . S
C2082 C2076 1.379 1_554 S
C2082 C2079 1.363 . S
C2082 N2080 1.356 . S
C2083 C2077 1.363 . S
C2083 C2078 1.379 1_556 S
C2083 N2081 1.356 . S
N2084 C2076 1.356 . S
N2084 H2090 0.984 . S
N2084 H2091 0.984 . S
N2085 C2078 1.356 . S
N2085 H2088 0.984 . S
N2085 H2089 0.985 . S
H2086 N2081 0.984 . S
H2087 N2081 0.985 . S
H2088 N2085 0.984 . S
H2089 N2085 0.985 . S
H2090 N2084 0.984 . S
H2091 N2084 0.984 . S
H2092 N2080 0.984 . S
H2093 N2080 0.985 . S
C2094 C2095 1.363 . S
C2094 C2100 1.379 1_554 S
C2094 N2102 1.356 . S
C2095 C2094 1.363 . S
C2095 C2101 1.363 . S
C2096 C2097 1.363 . S
C2096 C2101 1.379 1_556 S
C2096 N2103 1.356 . S
C2097 C2096 1.363 . S
C2097 C2100 1.363 . S
N2098 C2100 1.356 . S
N2098 H2110 0.984 . S
N2098 H2111 0.985 . S
N2099 C2101 1.356 . S
N2099 H2104 0.984 . S
N2099 H2105 0.985 . S
C2100 C2094 1.379 1_556 S
C2100 C2097 1.363 . S
C2100 N2098 1.356 . S
C2101 C2095 1.363 . S
C2101 C2096 1.379 1_554 S
C2101 N2099 1.356 . S
N2102 C2094 1.356 . S
N2102 H2108 0.984 . S
N2102 H2109 0.984 . S
N2103 C2096 1.356 . S
N2103 H2106 0.984 . S
N2103 H2107 0.985 . S
H2104 N2099 0.984 . S
H2105 N2099 0.985 . S
H2106 N2103 0.984 . S
H2107 N2103 0.985 . S
H2108 N2102 0.984 . S
H2109 N2102 0.984 . S
H2110 N2098 0.984 . S
H2111 N2098 0.985 . S
C2112 C2113 1.363 . S
C2112 C2118 1.379 1_455 S
C2112 N2120 1.356 . S
C2113 C2112 1.363 . S
C2113 C2119 1.363 . S
C2114 C2115 1.363 . S
C2114 C2119 1.379 1_655 S
C2114 N2121 1.356 . S
C2115 C2114 1.363 . S
C2115 C2118 1.363 . S
N2116 C2118 1.356 . S
N2116 H2128 0.984 . S
N2116 H2129 0.985 . S
N2117 C2119 1.356 . S
N2117 H2122 0.984 . S
N2117 H2123 0.985 . S
C2118 C2112 1.379 1_655 S
C2118 C2115 1.363 . S
C2118 N2116 1.356 . S
C2119 C2113 1.363 . S
C2119 C2114 1.379 1_455 S
C2119 N2117 1.356 . S
N2120 C2112 1.356 . S
N2120 H2126 0.984 . S
N2120 H2127 0.984 . S
N2121 C2114 1.356 . S
N2121 H2124 0.984 . S
N2121 H2125 0.985 . S
H2122 N2117 0.984 . S
H2123 N2117 0.985 . S
H2124 N2121 0.984 . S
H2125 N2121 0.985 . S
H2126 N2120 0.984 . S
H2127 N2120 0.984 . S
H2128 N2116 0.984 . S
H2129 N2116 0.985 . S
C2130 C2131 1.363 . S
C2130 C2136 1.379 1_565 S
C2130 N2138 1.356 . S
C2131 C2130 1.363 . S
C2131 C2137 1.363 . S
C2132 C2133 1.363 . S
C2132 C2137 1.379 1_545 S
C2132 N2139 1.356 . S
C2133 C2132 1.363 . S
C2133 C2136 1.363 . S
N2134 C2136 1.356 . S
N2134 H2146 0.984 . S
N2134 H2147 0.985 . S
N2135 C2137 1.356 . S
N2135 H2140 0.984 . S
N2135 H2141 0.985 . S
C2136 C2130 1.379 1_545 S
C2136 C2133 1.363 . S
C2136 N2134 1.356 . S
C2137 C2131 1.363 . S
C2137 C2132 1.379 1_565 S
C2137 N2135 1.356 . S
N2138 C2130 1.356 . S
N2138 H2144 0.984 . S
N2138 H2145 0.984 . S
N2139 C2132 1.356 . S
N2139 H2142 0.984 . S
N2139 H2143 0.985 . S
H2140 N2135 0.984 . S
H2141 N2135 0.985 . S
H2142 N2139 0.984 . S
H2143 N2139 0.985 . S
H2144 N2138 0.984 . S
H2145 N2138 0.984 . S
H2146 N2134 0.984 . S
H2147 N2134 0.985 . S
C2148 C2149 1.363 . S
C2148 C2154 1.379 1_455 S
C2148 N2156 1.356 . S
C2149 C2148 1.363 . S
C2149 C2155 1.363 . S
C2150 C2151 1.363 . S
C2150 C2155 1.379 1_655 S
C2150 N2157 1.356 . S
C2151 C2150 1.363 . S
C2151 C2154 1.363 . S
N2152 C2154 1.356 . S
N2152 H2164 0.984 . S
N2152 H2165 0.985 . S
N2153 C2155 1.356 . S
N2153 H2158 0.984 . S
N2153 H2159 0.985 . S
C2154 C2148 1.379 1_655 S
C2154 C2151 1.363 . S
C2154 N2152 1.356 . S
C2155 C2149 1.363 . S
C2155 C2150 1.379 1_455 S
C2155 N2153 1.356 . S
N2156 C2148 1.356 . S
N2156 H2162 0.984 . S
N2156 H2163 0.984 . S
N2157 C2150 1.356 . S
N2157 H2160 0.984 . S
N2157 H2161 0.985 . S
H2158 N2153 0.984 . S
H2159 N2153 0.985 . S
H2160 N2157 0.984 . S
H2161 N2157 0.985 . S
H2162 N2156 0.984 . S
H2163 N2156 0.984 . S
H2164 N2152 0.984 . S
H2165 N2152 0.985 . S
C2166 C2167 1.363 . S
C2166 C2172 1.379 1_565 S
C2166 N2174 1.356 . S
C2167 C2166 1.363 . S
C2167 C2173 1.363 . S
C2168 C2169 1.363 . S
C2168 C2173 1.379 1_545 S
C2168 N2175 1.356 . S
C2169 C2168 1.363 . S
C2169 C2172 1.363 . S
N2170 C2172 1.356 . S
N2170 H2182 0.984 . S
N2170 H2183 0.985 . S
N2171 C2173 1.356 . S
N2171 H2176 0.984 . S
N2171 H2177 0.985 . S
C2172 C2166 1.379 1_545 S
C2172 C2169 1.363 . S
C2172 N2170 1.356 . S
C2173 C2167 1.363 . S
C2173 C2168 1.379 1_565 S
C2173 N2171 1.356 . S
N2174 C2166 1.356 . S
N2174 H2180 0.984 . S
N2174 H2181 0.984 . S
N2175 C2168 1.356 . S
N2175 H2178 0.984 . S
N2175 H2179 0.985 . S
H2176 N2171 0.984 . S
H2177 N2171 0.985 . S
H2178 N2175 0.984 . S
H2179 N2175 0.985 . S
H2180 N2174 0.984 . S
H2181 N2174 0.984 . S
H2182 N2170 0.984 . S
H2183 N2170 0.985 . S
C2184 C2185 1.363 . S
C2184 C2190 1.379 1_655 S
C2184 N2192 1.356 . S
C2185 C2184 1.363 . S
C2185 C2191 1.363 . S
C2186 C2187 1.363 . S
C2186 C2191 1.379 1_455 S
C2186 N2193 1.356 . S
C2187 C2186 1.363 . S
C2187 C2190 1.363 . S
N2188 C2190 1.356 . S
N2188 H2200 0.984 . S
N2188 H2201 0.985 . S
N2189 C2191 1.356 . S
N2189 H2194 0.984 . S
N2189 H2195 0.985 . S
C2190 C2184 1.379 1_455 S
C2190 C2187 1.363 . S
C2190 N2188 1.356 . S
C2191 C2185 1.363 . S
C2191 C2186 1.379 1_655 S
C2191 N2189 1.356 . S
N2192 C2184 1.356 . S
N2192 H2198 0.984 . S
N2192 H2199 0.984 . S
N2193 C2186 1.356 . S
N2193 H2196 0.984 . S
N2193 H2197 0.985 . S
H2194 N2189 0.984 . S
H2195 N2189 0.985 . S
H2196 N2193 0.984 . S
H2197 N2193 0.985 . S
H2198 N2192 0.984 . S
H2199 N2192 0.984 . S
H2200 N2188 0.984 . S
H2201 N2188 0.985 . S
C2202 C2203 1.363 . S
C2202 C2208 1.379 1_545 S
C2202 N2210 1.356 . S
C2203 C2202 1.363 . S
C2203 C2209 1.363 . S
C2204 C2205 1.363 . S
C2204 C2209 1.379 1_565 S
C2204 N2211 1.356 . S
C2205 C2204 1.363 . S
C2205 C2208 1.363 . S
N2206 C2208 1.356 . S
N2206 H2218 0.984 . S
N2206 H2219 0.985 . S
N2207 C2209 1.356 . S
N2207 H2212 0.984 . S
N2207 H2213 0.985 . S
C2208 C2202 1.379 1_565 S
C2208 C2205 1.363 . S
C2208 N2206 1.356 . S
C2209 C2203 1.363 . S
C2209 C2204 1.379 1_545 S
C2209 N2207 1.356 . S
N2210 C2202 1.356 . S
N2210 H2216 0.984 . S
N2210 H2217 0.984 . S
N2211 C2204 1.356 . S
N2211 H2214 0.984 . S
N2211 H2215 0.985 . S
H2212 N2207 0.984 . S
H2213 N2207 0.985 . S
H2214 N2211 0.984 . S
H2215 N2211 0.985 . S
H2216 N2210 0.984 . S
H2217 N2210 0.984 . S
H2218 N2206 0.984 . S
H2219 N2206 0.985 . S
C2220 C2221 1.363 . S
C2220 C2226 1.379 1_455 S
C2220 N2228 1.356 . S
C2221 C2220 1.363 . S
C2221 C2227 1.363 . S
C2222 C2223 1.363 . S
C2222 C2227 1.379 1_655 S
C2222 N2229 1.356 . S
C2223 C2222 1.363 . S
C2223 C2226 1.363 . S
N2224 C2226 1.356 . S
N2224 H2236 0.984 . S
N2224 H2237 0.985 . S
N2225 C2227 1.356 . S
N2225 H2230 0.984 . S
N2225 H2231 0.985 . S
C2226 C2220 1.379 1_655 S
C2226 C2223 1.363 . S
C2226 N2224 1.356 . S
C2227 C2221 1.363 . S
C2227 C2222 1.379 1_455 S
C2227 N2225 1.356 . S
N2228 C2220 1.356 . S
N2228 H2234 0.984 . S
N2228 H2235 0.984 . S
N2229 C2222 1.356 . S
N2229 H2232 0.984 . S
N2229 H2233 0.985 . S
H2230 N2225 0.984 . S
H2231 N2225 0.985 . S
H2232 N2229 0.984 . S
H2233 N2229 0.985 . S
H2234 N2228 0.984 . S
H2235 N2228 0.984 . S
H2236 N2224 0.984 . S
H2237 N2224 0.985 . S
C2238 C2239 1.363 . S
C2238 C2244 1.379 1_545 S
C2238 N2246 1.356 . S
C2239 C2238 1.363 . S
C2239 C2245 1.363 . S
C2240 C2241 1.363 . S
C2240 C2245 1.379 1_565 S
C2240 N2247 1.356 . S
C2241 C2240 1.363 . S
C2241 C2244 1.363 . S
N2242 C2244 1.356 . S
N2242 H2254 0.984 . S
N2242 H2255 0.985 . S
N2243 C2245 1.356 . S
N2243 H2248 0.984 . S
N2243 H2249 0.985 . S
C2244 C2238 1.379 1_565 S
C2244 C2241 1.363 . S
C2244 N2242 1.356 . S
C2245 C2239 1.363 . S
C2245 C2240 1.379 1_545 S
C2245 N2243 1.356 . S
N2246 C2238 1.356 . S
N2246 H2252 0.984 . S
N2246 H2253 0.984 . S
N2247 C2240 1.356 . S
N2247 H2250 0.984 . S
N2247 H2251 0.985 . S
H2248 N2243 0.984 . S
H2249 N2243 0.985 . S
H2250 N2247 0.984 . S
H2251 N2247 0.985 . S
H2252 N2246 0.984 . S
H2253 N2246 0.984 . S
H2254 N2242 0.984 . S
H2255 N2242 0.985 . S
C2256 C2257 1.363 . S
C2256 C2262 1.379 1_545 S
C2256 N2264 1.356 . S
C2257 C2256 1.363 . S
C2257 C2263 1.363 . S
C2258 C2259 1.363 . S
C2258 C2263 1.379 1_565 S
C2258 N2265 1.356 . S
C2259 C2258 1.363 . S
C2259 C2262 1.363 . S
N2260 C2262 1.356 . S
N2260 H2272 0.984 . S
N2260 H2273 0.985 . S
N2261 C2263 1.356 . S
N2261 H2266 0.984 . S
N2261 H2267 0.985 . S
C2262 C2256 1.379 1_565 S
C2262 C2259 1.363 . S
C2262 N2260 1.356 . S
C2263 C2257 1.363 . S
C2263 C2258 1.379 1_545 S
C2263 N2261 1.356 . S
N2264 C2256 1.356 . S
N2264 H2270 0.984 . S
N2264 H2271 0.984 . S
N2265 C2258 1.356 . S
N2265 H2268 0.984 . S
N2265 H2269 0.985 . S
H2266 N2261 0.984 . S
H2267 N2261 0.985 . S
H2268 N2265 0.984 . S
H2269 N2265 0.985 . S
H2270 N2264 0.984 . S
H2271 N2264 0.984 . S
H2272 N2260 0.984 . S
H2273 N2260 0.985 . S
C2274 C2275 1.363 . S
C2274 C2280 1.379 1_545 S
C2274 N2282 1.356 . S
C2275 C2274 1.363 . S
C2275 C2281 1.363 . S
C2276 C2277 1.363 . S
C2276 C2281 1.379 1_565 S
C2276 N2283 1.356 . S
C2277 C2276 1.363 . S
C2277 C2280 1.363 . S
N2278 C2280 1.356 . S
N2278 H2290 0.984 . S
N2278 H2291 0.985 . S
N2279 C2281 1.356 . S
N2279 H2284 0.984 . S
N2279 H2285 0.985 . S
C2280 C2274 1.379 1_565 S
C2280 C2277 1.363 . S
C2280 N2278 1.356 . S
C2281 C2275 1.363 . S
C2281 C2276 1.379 1_545 S
C2281 N2279 1.356 . S
N2282 C2274 1.356 . S
N2282 H2288 0.984 . S
N2282 H2289 0.984 . S
N2283 C2276 1.356 . S
N2283 H2286 0.984 . S
N2283 H2287 0.985 . S
H2284 N2279 0.984 . S
H2285 N2279 0.985 . S
H2286 N2283 0.984 . S
H2287 N2283 0.985 . S
H2288 N2282 0.984 . S
H2289 N2282 0.984 . S
H2290 N2278 0.984 . S
H2291 N2278 0.985 . S
C2292 C2293 1.363 . S
C2292 C2298 1.379 1_655 S
C2292 N2300 1.356 . S
C2293 C2292 1.363 . S
C2293 C2299 1.363 . S
C2294 C2295 1.363 . S
C2294 C2299 1.379 1_455 S
C2294 N2301 1.356 . S
C2295 C2294 1.363 . S
C2295 C2298 1.363 . S
N2296 C2298 1.356 . S
N2296 H2308 0.984 . S
N2296 H2309 0.985 . S
N2297 C2299 1.356 . S
N2297 H2302 0.984 . S
N2297 H2303 0.985 . S
C2298 C2292 1.379 1_455 S
C2298 C2295 1.363 . S
C2298 N2296 1.356 . S
C2299 C2293 1.363 . S
C2299 C2294 1.379 1_655 S
C2299 N2297 1.356 . S
N2300 C2292 1.356 . S
N2300 H2306 0.984 . S
N2300 H2307 0.984 . S
N2301 C2294 1.356 . S
N2301 H2304 0.984 . S
N2301 H2305 0.985 . S
H2302 N2297 0.984 . S
H2303 N2297 0.985 . S
H2304 N2301 0.984 . S
H2305 N2301 0.985 . S
H2306 N2300 0.984 . S
H2307 N2300 0.984 . S
H2308 N2296 0.984 . S
H2309 N2296 0.985 . S
C2310 C2311 1.363 . S
C2310 C2316 1.379 1_545 S
C2310 N2318 1.356 . S
C2311 C2310 1.363 . S
C2311 C2317 1.363 . S
C2312 C2313 1.363 . S
C2312 C2317 1.379 1_565 S
C2312 N2319 1.356 . S
C2313 C2312 1.363 . S
C2313 C2316 1.363 . S
N2314 C2316 1.356 . S
N2314 H2326 0.984 . S
N2314 H2327 0.985 . S
N2315 C2317 1.356 . S
N2315 H2320 0.984 . S
N2315 H2321 0.985 . S
C2316 C2310 1.379 1_565 S
C2316 C2313 1.363 . S
C2316 N2314 1.356 . S
C2317 C2311 1.363 . S
C2317 C2312 1.379 1_545 S
C2317 N2315 1.356 . S
N2318 C2310 1.356 . S
N2318 H2324 0.984 . S
N2318 H2325 0.984 . S
N2319 C2312 1.356 . S
N2319 H2322 0.984 . S
N2319 H2323 0.985 . S
H2320 N2315 0.984 . S
H2321 N2315 0.985 . S
H2322 N2319 0.984 . S
H2323 N2319 0.985 . S
H2324 N2318 0.984 . S
H2325 N2318 0.984 . S
H2326 N2314 0.984 . S
H2327 N2314 0.985 . S
C2328 C2329 1.363 . S
C2328 C2334 1.379 1_455 S
C2328 N2336 1.356 . S
C2329 C2328 1.363 . S
C2329 C2335 1.363 . S
C2330 C2331 1.363 . S
C2330 C2335 1.379 1_655 S
C2330 N2337 1.356 . S
C2331 C2330 1.363 . S
C2331 C2334 1.363 . S
N2332 C2334 1.356 . S
N2332 H2344 0.984 . S
N2332 H2345 0.985 . S
N2333 C2335 1.356 . S
N2333 H2338 0.984 . S
N2333 H2339 0.985 . S
C2334 C2328 1.379 1_655 S
C2334 C2331 1.363 . S
C2334 N2332 1.356 . S
C2335 C2329 1.363 . S
C2335 C2330 1.379 1_455 S
C2335 N2333 1.356 . S
N2336 C2328 1.356 . S
N2336 H2342 0.984 . S
N2336 H2343 0.984 . S
N2337 C2330 1.356 . S
N2337 H2340 0.984 . S
N2337 H2341 0.985 . S
H2338 N2333 0.984 . S
H2339 N2333 0.985 . S
H2340 N2337 0.984 . S
H2341 N2337 0.985 . S
H2342 N2336 0.984 . S
H2343 N2336 0.984 . S
H2344 N2332 0.984 . S
H2345 N2332 0.985 . S
C2346 C2347 1.363 . S
C2346 C2352 1.379 1_545 S
C2346 N2354 1.356 . S
C2347 C2346 1.363 . S
C2347 C2353 1.363 . S
C2348 C2349 1.363 . S
C2348 C2353 1.379 1_565 S
C2348 N2355 1.356 . S
C2349 C2348 1.363 . S
C2349 C2352 1.363 . S
N2350 C2352 1.356 . S
N2350 H2362 0.984 . S
N2350 H2363 0.985 . S
N2351 C2353 1.356 . S
N2351 H2356 0.984 . S
N2351 H2357 0.985 . S
C2352 C2346 1.379 1_565 S
C2352 C2349 1.363 . S
C2352 N2350 1.356 . S
C2353 C2347 1.363 . S
C2353 C2348 1.379 1_545 S
C2353 N2351 1.356 . S
N2354 C2346 1.356 . S
N2354 H2360 0.984 . S
N2354 H2361 0.984 . S
N2355 C2348 1.356 . S
N2355 H2358 0.984 . S
N2355 H2359 0.985 . S
H2356 N2351 0.984 . S
H2357 N2351 0.985 . S
H2358 N2355 0.984 . S
H2359 N2355 0.985 . S
H2360 N2354 0.984 . S
H2361 N2354 0.984 . S
H2362 N2350 0.984 . S
H2363 N2350 0.985 . S
C2364 C2365 1.363 . S
C2364 C2370 1.379 1_655 S
C2364 N2372 1.356 . S
C2365 C2364 1.363 . S
C2365 C2371 1.363 . S
C2366 C2367 1.363 . S
C2366 C2371 1.379 1_455 S
C2366 N2373 1.356 . S
C2367 C2366 1.363 . S
C2367 C2370 1.363 . S
N2368 C2370 1.356 . S
N2368 H2380 0.984 . S
N2368 H2381 0.985 . S
N2369 C2371 1.356 . S
N2369 H2374 0.984 . S
N2369 H2375 0.985 . S
C2370 C2364 1.379 1_455 S
C2370 C2367 1.363 . S
C2370 N2368 1.356 . S
C2371 C2365 1.363 . S
C2371 C2366 1.379 1_655 S
C2371 N2369 1.356 . S
N2372 C2364 1.356 . S
N2372 H2378 0.984 . S
N2372 H2379 0.984 . S
N2373 C2366 1.356 . S
N2373 H2376 0.984 . S
N2373 H2377 0.985 . S
H2374 N2369 0.984 . S
H2375 N2369 0.985 . S
H2376 N2373 0.984 . S
H2377 N2373 0.985 . S
H2378 N2372 0.984 . S
H2379 N2372 0.984 . S
H2380 N2368 0.984 . S
H2381 N2368 0.985 . S
C2382 C2383 1.363 . S
C2382 C2388 1.379 1_455 S
C2382 N2390 1.356 . S
C2383 C2382 1.363 . S
C2383 C2389 1.363 . S
C2384 C2385 1.363 . S
C2384 C2389 1.379 1_655 S
C2384 N2391 1.356 . S
C2385 C2384 1.363 . S
C2385 C2388 1.363 . S
N2386 C2388 1.356 . S
N2386 H2398 0.984 . S
N2386 H2399 0.985 . S
N2387 C2389 1.356 . S
N2387 H2392 0.984 . S
N2387 H2393 0.985 . S
C2388 C2382 1.379 1_655 S
C2388 C2385 1.363 . S
C2388 N2386 1.356 . S
C2389 C2383 1.363 . S
C2389 C2384 1.379 1_455 S
C2389 N2387 1.356 . S
N2390 C2382 1.356 . S
N2390 H2396 0.984 . S
N2390 H2397 0.984 . S
N2391 C2384 1.356 . S
N2391 H2394 0.984 . S
N2391 H2395 0.985 . S
H2392 N2387 0.984 . S
H2393 N2387 0.985 . S
H2394 N2391 0.984 . S
H2395 N2391 0.985 . S
H2396 N2390 0.984 . S
H2397 N2390 0.984 . S
H2398 N2386 0.984 . S
H2399 N2386 0.985 . S
C673 C553 1.376 . S
C675 C7 1.375 . S
C691 C25 1.271 . S
C693 C511 1.275 . S
C709 C35 1.302 . S
C711 C529 1.305 . S
C727 C543 1.289 . S
C729 C53 1.289 . S
C745 C473 1.255 . S
C747 C67 1.249 . S
C763 C77 1.330 . S
C765 C483 1.340 . S
C781 C95 1.304 . S
C783 C497 1.301 . S
C799 C105 1.353 . S
C801 C459 1.349 . S
C817 C123 1.349 . S
C819 C441 1.353 . S
C835 C403 1.249 . S
C837 C137 1.255 . S
C853 C413 1.330 . S
C855 C147 1.340 . S
C871 C161 1.301 . S
C873 C431 1.304 . S
C889 C175 1.275 . S
C891 C361 1.271 . S
C907 C193 1.305 . S
C909 C371 1.302 . S
C925 C389 1.289 . S
C927 C207 1.289 . S
C943 C343 1.375 . S
C945 C217 1.376 . S
C961 C235 1.333 . S
C963 C627 1.327 . S
C979 C665 1.297 . S
C981 C245 1.298 . S
C997 C641 1.325 . S
C999 C263 1.331 . S
C1015 C651 1.298 . S
C1017 C273 1.297 . S
C1033 C571 1.333 . S
C1035 C291 1.327 . S
C1051 C599 1.331 . S
C1053 C305 1.325 . S
C1069 C315 1.298 . S
C1071 C609 1.297 . S
C1087 C581 1.298 . S
C1089 C329 1.297 . S
C1105 C455 1.376 . S
C1107 C287 1.375 . S
C1123 C249 1.271 . S
C1125 C469 1.275 . S
C1141 C487 1.305 . S
C1143 C259 1.302 . S
C1159 C501 1.289 . S
C1161 C277 1.289 . S
C1177 C333 1.249 . S
C1179 C515 1.255 . S
C1195 C525 1.340 . S
C1197 C301 1.330 . S
C1213 C319 1.304 . S
C1215 C539 1.301 . S
C1231 C231 1.353 . S
C1233 C557 1.349 . S
C1249 C567 1.353 . S
C1251 C221 1.349 . S
C1267 C179 1.255 . S
C1269 C669 1.249 . S
C1285 C637 1.330 . S
C1287 C189 1.340 . S
C1303 C203 1.301 . S
C1305 C655 1.304 . S
C1321 C133 1.275 . S
C1323 C585 1.271 . S
C1339 C151 1.305 . S
C1341 C595 1.302 . S
C1357 C165 1.289 . S
C1359 C613 1.289 . S
C1375 C623 1.375 . S
C1377 C119 1.376 . S
C1393 C347 1.327 . S
C1395 C109 1.333 . S
C1411 C399 1.297 . S
C1413 C21 1.298 . S
C1429 C417 1.325 . S
C1431 C39 1.331 . S
C1447 C427 1.298 . S
C1449 C49 1.297 . S
C1465 C445 1.333 . S
C1467 C11 1.327 . S
C1483 C81 1.325 . S
C1485 C375 1.331 . S
C1501 C385 1.297 . S
C1503 C91 1.298 . S
C1519 C357 1.298 . S
C1521 C63 1.297 . S
C1537 C13 1.224 . S
C1539 C377 1.219 . S
C1555 C386 1.373 . S
C1557 C22 1.378 . S
C1573 C41 1.219 . S
C1575 C349 1.224 . S
C1591 C50 1.373 . S
C1593 C358 1.378 . S
C1609 C64 1.370 . S
C1611 C428 1.381 . S
C1627 C447 1.216 . S
C1629 C83 1.226 . S
C1645 C92 1.381 . S
C1647 C400 1.370 . S
C1663 C419 1.226 . S
C1665 C111 1.216 . S
C1681 C120 1.285 . S
C1683 C517 1.320 . S
C1699 C526 1.415 . S
C1701 C134 1.419 . S
C1717 C153 1.308 . S
C1719 C540 1.286 . S
C1735 C167 1.183 . S
C1737 C559 1.176 . S
C1753 C181 1.320 . S
C1755 C456 1.285 . S
C1771 C190 1.415 . S
C1773 C470 1.419 . S
C1789 C489 1.308 . S
C1791 C204 1.286 . S
C1807 C223 1.176 . S
C1809 C503 1.183 . S
C1825 C615 1.364 . S
C1827 C232 1.328 . S
C1843 C251 1.283 . S
C1845 C638 1.246 . S
C1861 C260 1.291 . S
C1863 C657 1.312 . S
C1879 C568 1.328 . S
C1881 C279 1.364 . S
C1897 C671 1.334 . S
C1899 C288 1.282 . S
C1915 C302 1.246 . S
C1917 C587 1.283 . S
C1933 C596 1.291 . S
C1935 C321 1.312 . S
C1951 C335 1.334 . S
C1953 C624 1.282 . S
C1969 C601 1.219 . S
C1971 C293 1.224 . S
C1987 C246 1.378 . S
C1989 C610 1.373 . S
C2005 C629 1.224 . S
C2007 C265 1.219 . S
C2023 C582 1.378 . S
C2025 C274 1.373 . S
C2041 C652 1.381 . S
C2043 C330 1.370 . S
C2059 C307 1.226 . S
C2061 C573 1.216 . S
C2077 C666 1.370 . S
C2079 C316 1.381 . S
C2095 C237 1.216 . S
C2097 C643 1.226 . S
C2113 C475 1.320 . S
C2115 C218 1.285 . S
C2131 C176 1.419 . S
C2133 C484 1.415 . S
C2149 C195 1.308 . S
C2151 C498 1.286 . S
C2167 C461 1.176 . S
C2169 C209 1.183 . S
C2185 C139 1.320 . S
C2187 C554 1.285 . S
C2203 C512 1.419 . S
C2205 C148 1.415 . S
C2221 C162 1.286 . S
C2223 C531 1.308 . S
C2239 C125 1.176 . S
C2241 C545 1.183 . S
C2257 C391 1.364 . S
C2259 C106 1.328 . S
C2275 C27 1.283 . S
C2277 C414 1.246 . S
C2293 C36 1.291 . S
C2295 C433 1.312 . S
C2311 C442 1.328 . S
C2313 C55 1.364 . S
C2329 C8 1.282 . S
C2331 C405 1.334 . S
C2347 C78 1.246 . S
C2349 C363 1.283 . S
C2365 C97 1.312 . S
C2367 C372 1.291 . S
C2383 C69 1.334 . S
C2385 C344 1.282 . S
