# Generated by pormake.
# Topology xfw, (5)-cn, num edge types: 1
# Building blocks:
#     Node 0, Type 0, BuildingBlock: BEQFEK_clean_sbu_0, # of connection points: 5
#     Node 1, Type 0, BuildingBlock: BEQFEK_clean_sbu_0, # of connection points: 5
#     Node 2, Type 0, BuildingBlock: BEQFEK_clean_sbu_0, # of connection points: 5
#     Node 3, Type 0, BuildingBlock: BEQFEK_clean_sbu_0, # of connection points: 5
#     Node 4, Type 0, BuildingBlock: BEQFEK_clean_sbu_0, # of connection points: 5
#     Node 5, Type 0, BuildingBlock: BEQFEK_clean_sbu_0, # of connection points: 5
#     Node 6, Type 0, BuildingBlock: BEQFEK_clean_sbu_0, # of connection points: 5
#     Node 7, Type 0, BuildingBlock: BEQFEK_clean_sbu_0, # of connection points: 5
#     Edge 8, Type (0, 0), BuildingBlock: TEMPAE_clean_linker_10, # of connection points: 2
#     Edge 9, Type (0, 0), BuildingBlock: TEMPAE_clean_linker_10, # of connection points: 2
#     Edge 10, Type (0, 0), BuildingBlock: TEMPAE_clean_linker_10, # of connection points: 2
#     Edge 11, Type (0, 0), BuildingBlock: TEMPAE_clean_linker_10, # of connection points: 2
#     Edge 12, Type (0, 0), BuildingBlock: TEMPAE_clean_linker_10, # of connection points: 2
#     Edge 13, Type (0, 0), BuildingBlock: TEMPAE_clean_linker_10, # of connection points: 2
#     Edge 14, Type (0, 0), BuildingBlock: TEMPAE_clean_linker_10, # of connection points: 2
#     Edge 15, Type (0, 0), BuildingBlock: TEMPAE_clean_linker_10, # of connection points: 2
#     Edge 16, Type (0, 0), BuildingBlock: TEMPAE_clean_linker_10, # of connection points: 2
#     Edge 17, Type (0, 0), BuildingBlock: TEMPAE_clean_linker_10, # of connection points: 2
#     Edge 18, Type (0, 0), BuildingBlock: TEMPAE_clean_linker_10, # of connection points: 2
#     Edge 19, Type (0, 0), BuildingBlock: TEMPAE_clean_linker_10, # of connection points: 2
#     Edge 20, Type (0, 0), BuildingBlock: TEMPAE_clean_linker_10, # of connection points: 2
#     Edge 21, Type (0, 0), BuildingBlock: TEMPAE_clean_linker_10, # of connection points: 2
#     Edge 22, Type (0, 0), BuildingBlock: TEMPAE_clean_linker_10, # of connection points: 2
#     Edge 23, Type (0, 0), BuildingBlock: TEMPAE_clean_linker_10, # of connection points: 2
#     Edge 24, Type (0, 0), BuildingBlock: TEMPAE_clean_linker_10, # of connection points: 2
#     Edge 25, Type (0, 0), BuildingBlock: TEMPAE_clean_linker_10, # of connection points: 2
#     Edge 26, Type (0, 0), BuildingBlock: TEMPAE_clean_linker_10, # of connection points: 2
#     Edge 27, Type (0, 0), BuildingBlock: TEMPAE_clean_linker_10, # of connection points: 2
# Relax obj value: 0.338
# Max RMSD: 0.184
# Mean RMSD: 0.184
data_MOF--net-xfw--node1-BEQFEK_clean_sbu_0--edge1-TEMPAE_clean_linker_10
_symmetry_space_group_name_H-M    P1
_symmetry_Int_Tables_number       1
_symmetry_cell_setting            triclinic
loop_
_symmetry_equiv_pos_as_xyz
'x, y, z'
_cell_length_a     29.212401
_cell_length_b     29.161131
_cell_length_c     63.037796
_cell_angle_alpha  89.962643
_cell_angle_beta   89.975082
_cell_angle_gamma 90.01005
loop_
_atom_site_label
_atom_site_type_symbol
_atom_site_fract_x
_atom_site_fract_y
_atom_site_fract_z
_atom_type_partial_charge
Co0 Co 0.23195 0.07813 0.57392 0.0
Co1 Co 0.22096 0.14028 0.61443 0.0
C2 C 0.15445 0.06627 0.60539 0.0
O3 O 0.17654 0.05517 0.58873 0.0
O4 O 0.1677 0.09906 0.6172 0.0
C5 C 0.24875 0.99239 0.55246 0.0
O6 O 0.2496 0.97517 0.57172 0.0
C7 C 0.21296 0.16752 0.65936 0.0
C8 C 0.24716 0.23509 0.65917 0.0
C9 C 0.22601 0.20364 0.67247 0.0
N10 N 0.22593 0.17736 0.63937 0.0
N11 N 0.24597 0.21796 0.63936 0.0
C12 C 0.19266 0.12243 0.66583 0.0
H13 H 0.20187 0.09528 0.6543 0.0
H14 H 0.20483 0.11219 0.68182 0.0
H15 H 0.15481 0.12554 0.66619 0.0
C16 C 0.32293 0.06336 0.59221 0.0
N17 N 0.28145 0.08302 0.59264 0.0
N18 N 0.27609 0.10531 0.6106 0.0
C19 C 0.31334 0.09792 0.62286 0.0
C20 C 0.34427 0.07081 0.6116 0.0
C21 C 0.34335 0.04203 0.57276 0.0
H22 H 0.32827 0.05749 0.55829 0.0
H23 H 0.33623 0.00471 0.57266 0.0
H24 H 0.38102 0.04702 0.57245 0.0
O25 O 0.21849 0.13767 0.56177 0.0
O26 O 0.20742 0.18252 0.58979 0.0
H27 H 0.32471 0.15039 0.64593 0.0
H28 H 0.34411 0.09412 0.65415 0.0
C29 C 0.31716 0.11311 0.64546 0.0
H30 H 0.28431 0.10712 0.65367 0.0
H31 H 0.25974 0.23354 0.62589 0.0
O32 O 0.24335 0.03533 0.55002 0.0
C33 C 0.20845 0.17637 0.56974 0.0
Co34 Co 0.0549 0.76015 0.42394 0.0
Co35 Co 0.13296 0.77141 0.39 0.0
C36 C 0.05081 0.83463 0.39217 0.0
O37 O 0.03253 0.81257 0.4074 0.0
O38 O 0.0892 0.82246 0.38439 0.0
C39 C 0.00059 0.7749 0.45921 0.0
O40 O 0.02229 0.81422 0.45745 0.0
C41 C 0.16277 0.77648 0.34615 0.0
C42 C 0.23729 0.76457 0.34804 0.0
C43 C 0.20206 0.77328 0.33383 0.0
N44 N 0.1743 0.77036 0.36658 0.0
N45 N 0.21893 0.76339 0.36766 0.0
C46 C 0.11435 0.78162 0.33873 0.0
H47 H 0.09041 0.76607 0.35037 0.0
H48 H 0.10955 0.76524 0.323 0.0
H49 H 0.10606 0.81863 0.33735 0.0
C50 C 0.04821 0.66959 0.4047 0.0
N51 N 0.06827 0.71081 0.4062 0.0
N52 N 0.10116 0.71419 0.392 0.0
C53 C 0.10304 0.67452 0.38096 0.0
C54 C 0.0696 0.64514 0.38873 0.0
C55 C 0.0074 0.6554 0.41752 0.0
H56 H 0.98177 0.68347 0.41754 0.0
H57 H 0.99122 0.62381 0.41121 0.0
H58 H 0.01819 0.64939 0.43416 0.0
O59 O 0.10943 0.77972 0.43949 0.0
O60 O 0.16691 0.78703 0.41676 0.0
H61 H 0.17084 0.6775 0.368 0.0
H62 H 0.13847 0.62715 0.36036 0.0
C63 C 0.13647 0.66451 0.3636 0.0
H64 H 0.12535 0.68221 0.34891 0.0
H65 H 0.23675 0.75749 0.38174 0.0
O66 O 0.0086 0.74377 0.44564 0.0
C67 C 0.15098 0.78954 0.43558 0.0
Co68 Co 0.76372 0.91835 0.57337 0.0
Co69 Co 0.77205 0.85979 0.6152 0.0
C70 C 0.84046 0.93067 0.60577 0.0
O71 O 0.81948 0.9399 0.58855 0.0
O72 O 0.82582 0.89997 0.61846 0.0
C73 C 0.74985 0.00397 0.55167 0.0
O74 O 0.74887 0.02097 0.57096 0.0
C75 C 0.78452 0.82282 0.65864 0.0
C76 C 0.72212 0.78065 0.662 0.0
C77 C 0.75996 0.79628 0.67312 0.0
N78 N 0.76141 0.82373 0.64018 0.0
N79 N 0.72459 0.79779 0.64222 0.0
C80 C 0.83035 0.8448 0.66166 0.0
H81 H 0.85054 0.84206 0.64682 0.0
H82 H 0.82561 0.88171 0.66534 0.0
H83 H 0.84978 0.82812 0.67466 0.0
C84 C 0.67367 0.93893 0.59127 0.0
N85 N 0.71377 0.91658 0.59184 0.0
N86 N 0.7192 0.89738 0.61052 0.0
C87 C 0.68417 0.91029 0.62316 0.0
C88 C 0.65387 0.93702 0.61134 0.0
C89 C 0.65309 0.95759 0.57127 0.0
H90 H 0.66717 0.93936 0.55727 0.0
H91 H 0.66124 0.99454 0.5697 0.0
H92 H 0.61529 0.95369 0.57149 0.0
O93 O 0.77537 0.85788 0.56204 0.0
O94 O 0.78615 0.8161 0.5911 0.0
H95 H 0.66401 0.87031 0.65001 0.0
H96 H 0.66576 0.93113 0.65488 0.0
C97 C 0.68309 0.90237 0.64662 0.0
H98 H 0.71836 0.89901 0.65292 0.0
H99 H 0.70028 0.79308 0.63029 0.0
O100 O 0.75441 0.96095 0.54916 0.0
C101 C 0.78525 0.82007 0.57092 0.0
Co102 Co 0.94141 0.23157 0.42096 0.0
Co103 Co 0.86195 0.22037 0.38782 0.0
C104 C 0.94212 0.1546 0.39056 0.0
O105 O 0.9615 0.17717 0.40531 0.0
O106 O 0.90394 0.16745 0.38278 0.0
C107 C 0.99572 0.21771 0.4562 0.0
O108 O 0.97251 0.17916 0.4552 0.0
C109 C 0.83139 0.21414 0.3442 0.0
C110 C 0.75736 0.22887 0.34613 0.0
C111 C 0.79219 0.21865 0.33191 0.0
N112 N 0.82018 0.2211 0.36461 0.0
N113 N 0.77583 0.22965 0.36572 0.0
C114 C 0.87962 0.20737 0.33676 0.0
H115 H 0.90412 0.2218 0.34844 0.0
H116 H 0.88508 0.22389 0.3211 0.0
H117 H 0.88655 0.1701 0.33525 0.0
C118 C 0.95253 0.31896 0.39919 0.0
N119 N 0.92966 0.27965 0.40224 0.0
N120 N 0.89572 0.2767 0.38858 0.0
C121 C 0.89559 0.3151 0.37654 0.0
C122 C 0.93207 0.34251 0.38269 0.0
C123 C 0.9931 0.33346 0.41207 0.0
H124 H 0.98348 0.3341 0.42909 0.0
H125 H 0.02092 0.30789 0.41012 0.0
H126 H 0.00578 0.36789 0.40744 0.0
O127 O 0.88666 0.21496 0.43716 0.0
O128 O 0.82832 0.20756 0.41496 0.0
H129 H 0.82772 0.31325 0.36358 0.0
H130 H 0.8617 0.36194 0.35515 0.0
C131 C 0.86249 0.32481 0.35901 0.0
H132 H 0.8732 0.3059 0.34459 0.0
H133 H 0.75835 0.23665 0.37979 0.0
O134 O 0.98885 0.24797 0.44207 0.0
C135 C 0.84477 0.20592 0.4337 0.0
Co136 Co 0.76181 0.05992 0.08071 0.0
Co137 Co 0.77414 0.13601 0.11574 0.0
C138 C 0.84045 0.05747 0.11062 0.0
O139 O 0.81796 0.04001 0.09532 0.0
O140 O 0.82714 0.09411 0.11973 0.0
C141 C 0.75398 0.97155 0.06002 0.0
O142 O 0.77144 0.95551 0.07775 0.0
C143 C 0.77817 0.164 0.15987 0.0
C144 C 0.76814 0.23905 0.15842 0.0
C145 C 0.77458 0.2029 0.17238 0.0
N146 N 0.77343 0.17644 0.13948 0.0
N147 N 0.76761 0.22136 0.13867 0.0
C148 C 0.78921 0.11608 0.16676 0.0
H149 H 0.82675 0.11089 0.16552 0.0
H150 H 0.77238 0.09099 0.15607 0.0
H151 H 0.77896 0.10951 0.18339 0.0
C152 C 0.67519 0.0463 0.10336 0.0
N153 N 0.71459 0.06909 0.10038 0.0
N154 N 0.71821 0.10191 0.11464 0.0
C155 C 0.68031 0.10136 0.12696 0.0
C156 C 0.65255 0.06566 0.12037 0.0
C157 C 0.65949 0.00679 0.09007 0.0
H158 H 0.66201 0.01603 0.07304 0.0
H159 H 0.68217 0.97697 0.093 0.0
H160 H 0.62366 0.99693 0.09374 0.0
O161 O 0.77532 0.11691 0.06534 0.0
O162 O 0.78566 0.17181 0.08926 0.0
H163 H 0.68273 0.16856 0.14079 0.0
H164 H 0.63383 0.13448 0.14871 0.0
C165 C 0.67091 0.13355 0.1449 0.0
H166 H 0.68951 0.12168 0.15921 0.0
H167 H 0.76307 0.23988 0.12465 0.0
O168 O 0.74579 0.01424 0.0585 0.0
C169 C 0.78462 0.15827 0.07004 0.0
Co170 Co 0.04995 0.22589 0.91835 0.0
Co171 Co 0.13325 0.21964 0.88698 0.0
C172 C 0.05146 0.15515 0.8853 0.0
O173 O 0.03019 0.17592 0.90003 0.0
O174 O 0.09113 0.16807 0.87935 0.0
C175 C 0.99295 0.20583 0.95188 0.0
O176 O 0.01613 0.16754 0.94957 0.0
C177 C 0.16566 0.22363 0.84361 0.0
C178 C 0.24093 0.22132 0.8467 0.0
C179 C 0.2058 0.22299 0.83195 0.0
N180 N 0.17639 0.2229 0.86432 0.0
N181 N 0.22147 0.22167 0.86612 0.0
C182 C 0.11775 0.22039 0.83531 0.0
H183 H 0.11158 0.18501 0.82948 0.0
H184 H 0.09261 0.22841 0.84796 0.0
H185 H 0.11261 0.24415 0.8218 0.0
C186 C 0.04274 0.31729 0.90017 0.0
N187 N 0.06476 0.2772 0.90212 0.0
N188 N 0.10018 0.27628 0.88922 0.0
C189 C 0.10219 0.31684 0.87884 0.0
C190 C 0.06535 0.34355 0.88522 0.0
C191 C 0.00079 0.3298 0.91255 0.0
H192 H 0.00805 0.32625 0.92974 0.0
H193 H 0.97278 0.30559 0.90856 0.0
H194 H 0.98948 0.36545 0.90934 0.0
O195 O 0.10271 0.20425 0.93468 0.0
O196 O 0.16455 0.20243 0.91426 0.0
H197 H 0.1708 0.31382 0.86663 0.0
H198 H 0.14107 0.36709 0.86132 0.0
C199 C 0.1373 0.32932 0.86255 0.0
H200 H 0.12621 0.31629 0.84686 0.0
H201 H 0.23888 0.22015 0.88055 0.0
O202 O 0.00078 0.23869 0.93916 0.0
C203 C 0.1451 0.1961 0.93215 0.0
Co204 Co 0.23696 0.93615 0.08057 0.0
Co205 Co 0.22505 0.86343 0.11728 0.0
C206 C 0.16028 0.94298 0.11151 0.0
O207 O 0.18255 0.95858 0.09572 0.0
O208 O 0.17307 0.90676 0.12115 0.0
C209 C 0.24581 0.02314 0.0589 0.0
O210 O 0.23184 0.04041 0.07703 0.0
C211 C 0.22512 0.83657 0.1621 0.0
C212 C 0.22607 0.76092 0.1603 0.0
C213 C 0.22527 0.7972 0.17448 0.0
N214 N 0.2263 0.82413 0.14156 0.0
N215 N 0.22697 0.77885 0.14059 0.0
C216 C 0.2202 0.88509 0.16954 0.0
H217 H 0.18967 0.88806 0.17994 0.0
H218 H 0.21714 0.90897 0.15595 0.0
H219 H 0.25048 0.89525 0.17899 0.0
C220 C 0.32727 0.94595 0.10019 0.0
N221 N 0.28571 0.92643 0.09932 0.0
N222 N 0.28196 0.89548 0.11447 0.0
C223 C 0.3217 0.89427 0.12542 0.0
C224 C 0.35137 0.92627 0.11674 0.0
C225 C 0.34242 0.98428 0.08601 0.0
H226 H 0.3188 0.01368 0.08801 0.0
H227 H 0.37763 0.99605 0.08964 0.0
H228 H 0.34063 0.97295 0.06924 0.0
O229 O 0.22076 0.87858 0.06643 0.0
O230 O 0.21076 0.82602 0.09155 0.0
H231 H 0.31673 0.8278 0.13991 0.0
H232 H 0.36978 0.85776 0.14517 0.0
C233 C 0.33225 0.86177 0.14311 0.0
H234 H 0.31792 0.87548 0.15809 0.0
H235 H 0.22752 0.76019 0.12648 0.0
O236 O 0.25195 0.98009 0.05743 0.0
C237 C 0.21079 0.8379 0.07208 0.0
Co238 Co 0.94463 0.76981 0.92115 0.0
Co239 Co 0.86526 0.7752 0.88744 0.0
C240 C 0.94855 0.83787 0.88673 0.0
O241 O 0.96759 0.81772 0.9023 0.0
O242 O 0.9093 0.82541 0.87998 0.0
C243 C 0.99736 0.78898 0.95662 0.0
O244 O 0.97417 0.8273 0.95442 0.0
C245 C 0.83392 0.77272 0.84351 0.0
C246 C 0.76039 0.75618 0.84648 0.0
C247 C 0.79463 0.76437 0.8317 0.0
N248 N 0.82347 0.76892 0.86421 0.0
N249 N 0.77946 0.75907 0.86591 0.0
C250 C 0.87995 0.78803 0.83577 0.0
H251 H 0.88453 0.82455 0.84004 0.0
H252 H 0.90718 0.76812 0.84389 0.0
H253 H 0.88399 0.78533 0.81839 0.0
C254 C 0.95027 0.67612 0.90558 0.0
N255 N 0.93 0.71737 0.90577 0.0
N256 N 0.89725 0.71857 0.89145 0.0
C257 C 0.89586 0.6775 0.88156 0.0
C258 C 0.9293 0.64945 0.89029 0.0
C259 C 0.99141 0.66423 0.91864 0.0
H260 H 0.01744 0.69172 0.91703 0.0
H261 H 0.00683 0.63109 0.91381 0.0
H262 H 0.98131 0.66236 0.93559 0.0
O263 O 0.89098 0.79445 0.93568 0.0
O264 O 0.83144 0.79512 0.91378 0.0
H265 H 0.86385 0.62784 0.86087 0.0
H266 H 0.874 0.68357 0.84938 0.0
C267 C 0.86361 0.66528 0.86404 0.0
H268 H 0.82843 0.67617 0.86826 0.0
H269 H 0.76249 0.75421 0.8803 0.0
O270 O 0.99103 0.75702 0.94327 0.0
C271 C 0.84912 0.80297 0.93194 0.0
C272 C 0.22711 0.97574 0.51503 0.0
C273 C 0.24864 0.96171 0.5338 0.0
C274 C 0.22015 0.9449 0.49828 0.0
C275 C 0.23625 0.89924 0.50014 0.0
C276 C 0.26152 0.88607 0.51831 0.0
C277 C 0.26675 0.91728 0.53513 0.0
C278 C 0.19232 0.96025 0.47937 0.0
C279 C 0.28076 0.8383 0.52053 0.0
C280 C 0.15833 0.81397 0.47325 0.0
C281 C 0.17832 0.80989 0.45306 0.0
C282 C 0.17815 0.84119 0.48901 0.0
C283 C 0.21988 0.86407 0.48481 0.0
C284 C 0.24249 0.85689 0.46519 0.0
C285 C 0.22117 0.8302 0.4494 0.0
C286 C 0.1525 0.84811 0.50961 0.0
C287 C 0.28784 0.87938 0.46042 0.0
H288 H 0.21309 0.01008 0.51391 0.0
H289 H 0.28409 0.90654 0.5495 0.0
H290 H 0.21023 0.95157 0.4644 0.0
H291 H 0.15901 0.94191 0.4793 0.0
H292 H 0.18549 0.99772 0.47957 0.0
H293 H 0.30703 0.83636 0.53324 0.0
H294 H 0.25277 0.81408 0.52453 0.0
H295 H 0.29624 0.82671 0.50537 0.0
H296 H 0.12555 0.79795 0.47645 0.0
H297 H 0.23712 0.82697 0.43394 0.0
H298 H 0.14191 0.88454 0.51103 0.0
H299 H 0.17492 0.84024 0.52332 0.0
H300 H 0.12141 0.82629 0.51071 0.0
H301 H 0.28221 0.91603 0.45649 0.0
H302 H 0.30532 0.8629 0.44675 0.0
H303 H 0.31076 0.87797 0.47444 0.0
C304 C 0.84682 0.76395 0.56294 0.0
C305 C 0.80533 0.78452 0.55713 0.0
C306 C 0.87725 0.74803 0.54731 0.0
C307 C 0.86546 0.75287 0.52561 0.0
C308 C 0.8205 0.76642 0.52007 0.0
C309 C 0.79089 0.78212 0.53596 0.0
C310 C 0.92434 0.73246 0.55395 0.0
C311 C 0.80597 0.77135 0.4972 0.0
C312 C 0.95548 0.80469 0.4897 0.0
C313 C 0.96722 0.76778 0.47658 0.0
C314 C 0.92322 0.79968 0.50594 0.0
C315 C 0.90222 0.75646 0.50935 0.0
C316 C 0.91462 0.71864 0.49651 0.0
C317 C 0.94693 0.72479 0.48017 0.0
C318 C 0.9109 0.84118 0.51915 0.0
C319 C 0.8936 0.67195 0.49995 0.0
H320 H 0.85804 0.76549 0.57932 0.0
H321 H 0.75845 0.79743 0.53151 0.0
H322 H 0.93756 0.70541 0.54321 0.0
H323 H 0.94825 0.762 0.55318 0.0
H324 H 0.92429 0.71923 0.57048 0.0
H325 H 0.7681 0.77229 0.49563 0.0
H326 H 0.81995 0.80391 0.49075 0.0
H327 H 0.81948 0.74289 0.48738 0.0
H328 H 0.97104 0.83797 0.4871 0.0
H329 H 0.95618 0.69599 0.47019 0.0
H330 H 0.9171 0.83401 0.53619 0.0
H331 H 0.87397 0.84916 0.51728 0.0
H332 H 0.93092 0.87207 0.51463 0.0
H333 H 0.90074 0.66004 0.51633 0.0
H334 H 0.90694 0.64606 0.4886 0.0
H335 H 0.85587 0.6739 0.49824 0.0
C336 C 0.77174 0.02109 0.51428 0.0
C337 C 0.7502 0.0349 0.53308 0.0
C338 C 0.77843 0.05206 0.49753 0.0
C339 C 0.76205 0.09762 0.49941 0.0
C340 C 0.73696 0.11061 0.51767 0.0
C341 C 0.73199 0.07929 0.53447 0.0
C342 C 0.80608 0.03691 0.47853 0.0
C343 C 0.71746 0.15827 0.51994 0.0
C344 C 0.8383 0.18329 0.47167 0.0
C345 C 0.81775 0.18665 0.45158 0.0
C346 C 0.81917 0.15622 0.48771 0.0
C347 C 0.77756 0.13283 0.48388 0.0
C348 C 0.75428 0.1395 0.4644 0.0
C349 C 0.77491 0.16602 0.44833 0.0
C350 C 0.84552 0.14986 0.50814 0.0
C351 C 0.709 0.1165 0.46004 0.0
H352 H 0.78584 0.98679 0.51311 0.0
H353 H 0.71464 0.08985 0.54887 0.0
H354 H 0.78769 0.04516 0.46363 0.0
H355 H 0.8391 0.05574 0.47822 0.0
H356 H 0.81346 -0.00046 0.47879 0.0
H357 H 0.69158 0.16012 0.53283 0.0
H358 H 0.7454 0.1827 0.52369 0.0
H359 H 0.70143 0.16964 0.50487 0.0
H360 H 0.87107 0.19958 0.47454 0.0
H361 H 0.75853 0.16867 0.43295 0.0
H362 H 0.85676 0.11362 0.50954 0.0
H363 H 0.82337 0.15741 0.52199 0.0
H364 H 0.87627 0.17221 0.50899 0.0
H365 H 0.71486 0.07983 0.45626 0.0
H366 H 0.69097 0.13254 0.44641 0.0
H367 H 0.68648 0.11799 0.4742 0.0
C368 C 0.20376 0.21064 0.53393 0.0
C369 C 0.18895 0.21061 0.55508 0.0
C370 C 0.17485 0.22564 0.51763 0.0
C371 C 0.1302 0.2409 0.52273 0.0
C372 C 0.11813 0.24792 0.54426 0.0
C373 C 0.14786 0.23264 0.56031 0.0
C374 C 0.18965 0.21827 0.49493 0.0
C375 C 0.07136 0.26535 0.5504 0.0
C376 C 0.05067 0.26773 0.47642 0.0
C377 C 0.02913 0.22513 0.47351 0.0
C378 C 0.08278 0.27422 0.4928 0.0
C379 C 0.09371 0.23711 0.50637 0.0
C380 C 0.07149 0.1943 0.50362 0.0
C381 C 0.03944 0.18897 0.48733 0.0
C382 C 0.10516 0.32048 0.4955 0.0
C383 C 0.08223 0.15355 0.51763 0.0
H384 H 0.23593 0.19421 0.5299 0.0
H385 H 0.13636 0.23293 0.57667 0.0
H386 H 0.17479 0.18563 0.48905 0.0
H387 H 0.17722 0.24625 0.48452 0.0
H388 H 0.2275 0.21603 0.49354 0.0
H389 H 0.07143 0.27991 0.56668 0.0
H390 H 0.05916 0.29186 0.53912 0.0
H391 H 0.04663 0.23646 0.55004 0.0
H392 H 0.04251 0.29598 0.46589 0.0
H393 H 0.02291 0.156 0.48525 0.0
H394 H 0.14282 0.31729 0.4938 0.0
H395 H 0.09843 0.33375 0.51169 0.0
H396 H 0.09258 0.34595 0.48376 0.0
H397 H 0.11893 0.1443 0.51608 0.0
H398 H 0.06136 0.12294 0.51356 0.0
H399 H 0.07588 0.16229 0.5345 0.0
C400 C 0.77748 0.81831 0.95327 0.0
C401 C 0.82354 0.82741 0.9487 0.0
C402 C 0.75591 0.83935 0.97079 0.0
C403 C 0.78102 0.87042 0.98363 0.0
C404 C 0.82687 0.88108 0.97833 0.0
C405 C 0.84746 0.85932 0.96108 0.0
C406 C 0.70705 0.82707 0.97602 0.0
C407 C 0.85486 0.91463 0.99123 0.0
C408 C 0.73679 0.96037 0.02142 0.0
C409 C 0.75046 0.94184 0.04099 0.0
C410 C 0.74195 0.9354 0.00253 0.0
C411 C 0.76125 0.89091 0.00324 0.0
C412 C 0.77071 0.87039 0.02313 0.0
C413 C 0.76525 0.89613 0.04178 0.0
C414 C 0.73095 0.95845 0.9817 0.0
C415 C 0.79085 0.82283 0.02463 0.0
H416 H 0.75897 0.79363 0.9437 0.0
H417 H 0.88286 0.86711 0.95733 0.0
H418 H 0.70635 0.80562 0.99055 0.0
H419 H 0.68671 0.85837 0.97935 0.0
H420 H 0.69037 0.80769 0.96297 0.0
H421 H 0.88941 0.92052 0.98438 0.0
H422 H 0.83693 0.94809 0.99225 0.0
H423 H 0.85907 0.90153 0.00765 0.0
H424 H 0.72455 0.99542 0.02065 0.0
H425 H 0.7752 0.8812 0.05684 0.0
H426 H 0.71467 0.93403 0.97053 0.0
H427 H 0.76317 0.9707 0.97428 0.0
H428 H 0.70791 0.98838 0.98389 0.0
H429 H 0.77308 0.79902 0.01367 0.0
H430 H 0.78873 0.80885 0.041 0.0
H431 H 0.82743 0.824 0.0199 0.0
C432 C 0.78911 0.17885 0.03191 0.0
C433 C 0.80262 0.18758 0.05286 0.0
C434 C 0.81608 0.19327 0.01478 0.0
C435 C 0.85772 0.21651 0.01879 0.0
C436 C 0.86834 0.23057 0.03973 0.0
C437 C 0.84041 0.21606 0.05661 0.0
C438 C 0.80288 0.17838 0.99269 0.0
C439 C 0.91208 0.25593 0.04466 0.0
C440 C 0.95497 0.17485 0.98418 0.0
C441 C 0.95917 0.21025 0.96927 0.0
C442 C 0.9229 0.17733 1.00062 0.0
C443 C 0.89401 0.21619 0.00224 0.0
C444 C 0.89858 0.25259 0.98751 0.0
C445 C 0.9312 0.24919 0.97115 0.0
C446 C 0.91944 0.13774 0.01605 0.0
C447 C 0.8684 0.29449 0.98874 0.0
H448 H 0.75949 0.15735 0.02897 0.0
H449 H 0.85094 0.22299 0.07278 0.0
H450 H 0.81005 0.20584 0.98098 0.0
H451 H 0.82347 0.14793 0.98815 0.0
H452 H 0.76607 0.169 0.99169 0.0
H453 H 0.91042 0.27308 0.06038 0.0
H454 H 0.94095 0.2312 0.04493 0.0
H455 H 0.91967 0.28199 0.03233 0.0
H456 H 0.97667 0.14482 0.98297 0.0
H457 H 0.93439 0.27677 0.9597 0.0
H458 H 0.88509 0.12169 0.01487 0.0
H459 H 0.92357 0.15026 0.03256 0.0
H460 H 0.94566 0.11093 0.01306 0.0
H461 H 0.83275 0.28497 0.98459 0.0
H462 H 0.87989 0.322 0.97777 0.0
H463 H 0.86781 0.30826 0.00514 0.0
C464 C 0.14391 0.15024 0.96527 0.0
C465 C 0.16965 0.17418 0.95006 0.0
C466 C 0.16482 0.12768 0.98223 0.0
C467 C 0.21296 0.12958 0.98445 0.0
C468 C 0.23944 0.15394 0.9693 0.0
C469 C 0.21745 0.17561 0.95207 0.0
C470 C 0.13513 0.10138 0.9977 0.0
C471 C 0.29076 0.15734 0.97142 0.0
C472 C 0.2417 0.09988 0.04114 0.0
C473 C 0.24802 0.05232 0.03965 0.0
C474 C 0.23519 0.12674 0.02289 0.0
C475 C 0.2344 0.10539 0.00272 0.0
C476 C 0.2449 0.05813 1.00102 0.0
C477 C 0.25182 0.0322 0.01951 0.0
C478 C 0.22498 0.17718 0.02539 0.0
C479 C 0.24423 0.03386 0.97987 0.0
H480 H 0.10701 0.14825 0.96372 0.0
H481 H 0.23749 0.19407 0.94037 0.0
H482 H 0.14604 0.06495 0.9983 0.0
H483 H 0.13905 0.11573 0.01389 0.0
H484 H 0.09827 0.1025 0.99339 0.0
H485 H 0.30652 0.17681 0.95814 0.0
H486 H 0.29956 0.17456 0.98657 0.0
H487 H 0.30611 0.12257 0.97195 0.0
H488 H 0.23952 0.11589 0.05663 0.0
H489 H 0.25724 0.99554 0.01815 0.0
H490 H 0.18761 0.1829 0.02366 0.0
H491 H 0.24247 0.1975 0.0129 0.0
H492 H 0.23567 0.1902 0.04119 0.0
H493 H 0.20819 0.02873 0.97483 0.0
H494 H 0.26111 -0.00024 0.9807 0.0
H495 H 0.26141 0.0547 0.96749 0.0
C496 C 0.05758 0.74434 0.97626 0.0
C497 C 0.03039 0.78383 0.97425 0.0
C498 C 0.0902 0.74055 0.99258 0.0
C499 C 0.09579 0.77722 0.00705 0.0
C500 C 0.0674 0.81646 0.00544 0.0
C501 C 0.03513 0.81922 0.9891 0.0
C502 C 0.11955 0.69807 0.99387 0.0
C503 C 0.07198 0.85636 0.02061 0.0
C504 C 0.15335 0.77986 0.06049 0.0
C505 C 0.19118 0.80757 0.0557 0.0
C506 C 0.12406 0.76455 0.04428 0.0
C507 C 0.13327 0.77721 0.023 0.0
C508 C 0.1749 0.79953 0.01798 0.0
C509 C 0.20334 0.81457 0.03443 0.0
C510 C 0.08057 0.7398 0.05024 0.0
C511 C 0.18661 0.81289 0.99548 0.0
H512 H 0.05391 0.7167 0.9649 0.0
H513 H 0.014 0.84965 0.98781 0.0
H514 H 0.15433 0.70599 0.98782 0.0
H515 H 0.12323 0.68644 0.01054 0.0
H516 H 0.10525 0.66952 0.98428 0.0
H517 H 0.04591 0.88338 0.01772 0.0
H518 H 0.06847 0.8443 0.03722 0.0
H519 H 0.10644 0.872 0.01898 0.0
H520 H 0.14392 0.77415 0.07692 0.0
H521 H 0.23306 0.83537 0.03069 0.0
H522 H 0.0719 0.71317 0.03834 0.0
H523 H 0.05189 0.76473 0.05071 0.0
H524 H 0.08335 0.72344 0.06611 0.0
H525 H 0.17882 0.78455 0.98434 0.0
H526 H 0.22328 0.82234 0.99379 0.0
H527 H 0.16554 0.84288 0.99075 0.0
C528 C 0.59998 0.00316 0.6095 0.0
C529 C 0.61149 0.96067 0.61836 0.0
C530 C 0.55649 0.02211 0.61237 0.0
C531 C 0.52523 0.00045 0.62635 0.0
C532 C 0.53917 0.96087 0.63773 0.0
C533 C 0.58143 0.9404 0.63294 0.0
C534 C 0.54385 0.06401 0.59948 0.0
C535 C 0.50943 0.93861 0.65438 0.0
C536 C 0.42011 0.0762 0.63042 0.0
C537 C 0.38841 0.0508 0.6186 0.0
C538 C 0.46347 0.0581 0.63518 0.0
C539 C 0.47658 0.0153 0.62637 0.0
C540 C 0.44399 0.98907 0.61497 0.0
C541 C 0.39977 0.00626 0.61225 0.0
C542 C 0.495 0.08601 0.64905 0.0
C543 C 0.45581 0.94378 0.60464 0.0
H544 H 0.62429 0.02092 0.5995 0.0
H545 H 0.58999 0.90784 0.64019 0.0
H546 H 0.50827 0.06183 0.59341 0.0
H547 H 0.54663 0.09492 0.60961 0.0
H548 H 0.56714 0.06884 0.58572 0.0
H549 H 0.53009 0.93186 0.66884 0.0
H550 H 0.47948 0.95985 0.6589 0.0
H551 H 0.49737 0.90481 0.64856 0.0
H552 H 0.41177 0.11069 0.63549 0.0
H553 H 0.37457 0.98533 0.60421 0.0
H554 H 0.50517 0.11775 0.64055 0.0
H555 H 0.52616 0.06704 0.65395 0.0
H556 H 0.47637 0.097 0.66355 0.0
H557 H 0.49051 0.94448 0.59747 0.0
H558 H 0.43092 0.9345 0.59203 0.0
H559 H 0.45494 0.91625 0.61676 0.0
C560 C 0.03974 0.59117 0.36141 0.0
C561 C 0.05754 0.59864 0.38172 0.0
C562 C 0.01959 0.5489 0.35619 0.0
C563 C 0.01745 0.51389 0.37174 0.0
C564 C 0.03823 0.52061 0.39181 0.0
C565 C 0.05799 0.56303 0.39654 0.0
C566 C -0.00176 0.5428 0.33459 0.0
C567 C 0.03728 0.48395 0.40877 0.0
C568 C 0.92375 0.42643 0.3781 0.0
C569 C 0.94787 0.38622 0.37372 0.0
C570 C 0.94464 0.46932 0.37535 0.0
C571 C 0.99057 0.47145 0.36812 0.0
C572 C 0.01307 0.43096 0.36152 0.0
C573 C 0.99141 0.38859 0.36452 0.0
C574 C 0.91934 0.51181 0.38238 0.0
C575 C 0.06169 0.43181 0.35344 0.0
H576 H 0.03932 0.61913 0.35006 0.0
H577 H 0.07197 0.56921 0.41222 0.0
H578 H 0.00622 0.50842 0.32803 0.0
H579 H 0.96047 0.54537 0.33602 0.0
H580 H 0.01008 0.56938 0.32321 0.0
H581 H 0.05718 0.49388 0.42306 0.0
H582 H 0.00139 0.47724 0.41365 0.0
H583 H 0.05145 0.45138 0.40249 0.0
H584 H 0.8901 0.42421 0.3853 0.0
H585 H 0.00984 0.35711 0.36119 0.0
H586 H 0.92397 0.53994 0.37072 0.0
H587 H 0.9335 0.5237 0.39776 0.0
H588 H 0.88213 0.50531 0.38445 0.0
H589 H 0.06733 0.46143 0.3427 0.0
H590 H 0.07053 0.39973 0.34487 0.0
H591 H 0.08546 0.43551 0.36705 0.0
C592 C 0.56868 0.07263 0.12416 0.0
C593 C 0.60909 0.04975 0.12936 0.0
C594 C 0.52622 0.0513 0.12721 0.0
C595 C 0.52473 0.00626 0.13568 0.0
C596 C 0.56538 0.98519 0.14298 0.0
C597 C 0.60738 0.00712 0.1395 0.0
C598 C 0.48357 0.07495 0.11926 0.0
C599 C 0.56509 0.93769 0.15247 0.0
C600 C 0.40507 0.9588 0.14338 0.0
C601 C 0.39784 0.93841 0.12359 0.0
C602 C 0.44744 0.97894 0.14825 0.0
C603 C 0.48271 0.9785 0.13285 0.0
C604 C 0.47629 0.95484 0.11344 0.0
C605 C 0.43381 0.93494 0.10909 0.0
C606 C 0.45334 0.00315 0.16921 0.0
C607 C 0.51321 0.95317 0.09665 0.0
H608 H 0.57051 0.10553 0.11617 0.0
H609 H 0.63906 0.98965 0.1434 0.0
H610 H 0.47187 0.05808 0.10443 0.0
H611 H 0.4555 0.072 0.13103 0.0
H612 H 0.48963 0.11183 0.11584 0.0
H613 H 0.59708 0.93055 0.16142 0.0
H614 H 0.53539 0.93307 0.16324 0.0
H615 H 0.56205 0.91197 0.13958 0.0
H616 H 0.37688 0.96128 0.15452 0.0
H617 H 0.42783 0.91875 0.09385 0.0
H618 H 0.45081 0.04073 0.16672 0.0
H619 H 0.48758 0.99599 0.17607 0.0
H620 H 0.42666 0.99283 0.18084 0.0
H621 H 0.51989 0.98829 0.09059 0.0
H622 H 0.50358 0.931 0.08304 0.0
H623 H 0.54565 0.94013 0.1035 0.0
C624 C 0.07491 0.42784 0.88235 0.0
C625 C 0.05031 0.38836 0.87718 0.0
C626 C 0.05499 0.47126 0.87987 0.0
C627 C 0.00951 0.47468 0.87218 0.0
C628 C 0.98643 0.43496 0.86503 0.0
C629 C 0.0072 0.39208 0.86766 0.0
C630 C 0.08089 0.51294 0.88745 0.0
C631 C 0.9381 0.43715 0.85663 0.0
C632 C 0.9417 0.568 0.89926 0.0
C633 C 0.9428 0.60286 0.88408 0.0
C634 C 0.9617 0.52537 0.89514 0.0
C635 C 0.98361 0.51783 0.87539 0.0
C636 C 0.98278 0.55232 0.85958 0.0
C637 C 0.96216 0.59469 0.86413 0.0
C638 C 0.96125 0.48923 0.91234 0.0
C639 C 0.00571 0.54541 0.83837 0.0
H640 H 0.1082 0.42459 0.88981 0.0
H641 H 0.98842 0.36116 0.86369 0.0
H642 H 0.07746 0.54153 0.87594 0.0
H643 H 0.06625 0.52469 0.90276 0.0
H644 H 0.11783 0.50554 0.88985 0.0
H645 H 0.92848 0.40523 0.84812 0.0
H646 H 0.91404 0.4419 0.87008 0.0
H647 H 0.93374 0.46674 0.84575 0.0
H648 H 0.92667 0.5748 0.91468 0.0
H649 H 0.96319 0.62216 0.85254 0.0
H650 H 0.99675 0.48251 0.91779 0.0
H651 H 0.9474 0.45652 0.90606 0.0
H652 H 0.9404 0.49968 0.92626 0.0
H653 H 0.0434 0.54567 0.84052 0.0
H654 H 0.99646 0.57275 0.82687 0.0
H655 H 0.99634 0.51164 0.83155 0.0
C656 C 0.09724 0.00459 0.59812 0.0
C657 C 0.11045 0.04308 0.60997 0.0
C658 C 0.05336 0.98574 0.60025 0.0
C659 C 0.02183 0.006 0.61448 0.0
C660 C 0.03564 0.04335 0.62729 0.0
C661 C 0.07992 0.06138 0.62494 0.0
C662 C 0.04006 0.94552 0.58647 0.0
C663 C 0.00294 0.06581 0.64265 0.0
C664 C 0.89846 0.99106 0.59764 0.0
C665 C 0.88464 0.9537 0.61011 0.0
C666 C 0.9424 0.00978 0.59965 0.0
C667 C 0.9734 0.99053 0.61443 0.0
C668 C 0.95901 0.9543 0.62781 0.0
C669 C 0.91467 0.93637 0.62554 0.0
C670 C 0.9563 0.04882 0.58525 0.0
C671 C 0.99114 0.93293 0.64374 0.0
H672 H 0.12076 0.9899 0.58668 0.0
H673 H 0.08986 0.09105 0.63421 0.0
H674 H 0.02489 0.91781 0.59628 0.0
H675 H 0.01368 0.95644 0.57486 0.0
H676 H 0.0697 0.9313 0.57759 0.0
H677 H 0.02044 0.09086 0.65316 0.0
H678 H 0.97585 0.08408 0.63367 0.0
H679 H 0.98577 0.03962 0.65264 0.0
H680 H 0.87533 0.005 0.58583 0.0
H681 H 0.90429 0.90756 0.63527 0.0
H682 H 0.98318 0.03695 0.57409 0.0
H683 H 0.97106 0.07732 0.59468 0.0
H684 H 0.92706 0.06228 0.57586 0.0
H685 H 0.01855 0.91403 0.63526 0.0
H686 H 0.97326 0.90863 0.65451 0.0
H687 H 0.00796 0.95981 0.65344 0.0
C688 C 0.99166 0.89572 0.39611 0.0
C689 C 0.02971 0.87827 0.38519 0.0
C690 C 0.97648 0.94064 0.39266 0.0
C691 C -0.00044 0.96865 0.37775 0.0
C692 C 0.03532 0.95 0.36532 0.0
C693 C 0.05021 0.90501 0.36927 0.0
C694 C 0.93808 0.95918 0.40624 0.0
C695 C 0.05997 0.97845 0.34889 0.0
C696 C 0.94017 0.08255 0.36882 0.0
C697 C 0.96184 0.10994 0.38414 0.0
C698 C 0.95424 0.03711 0.36533 0.0
C699 C 0.99037 0.01871 0.37761 0.0
C700 C 0.0144 0.0472 0.39197 0.0
C701 C 3e-05 0.09251 0.39495 0.0
C702 C 0.92857 0.00809 0.34949 0.0
C703 C 0.05323 0.02894 0.40537 0.0
H704 H 0.97521 0.87523 0.40827 0.0
H705 H 0.07925 0.89163 0.36054 0.0
H706 H 0.9519 0.9852 0.41738 0.0
H707 H 0.91201 0.9764 0.39624 0.0
H708 H 0.92099 0.93187 0.41565 0.0
H709 H 0.08015 0.95678 0.33782 0.0
H710 H 0.0354 -0.00064 0.33958 0.0
H711 H 0.08379 0.00242 0.35694 0.0
H712 H 0.91098 0.09587 0.36018 0.0
H713 H 0.01736 0.11348 0.40665 0.0
H714 H 0.90502 0.98466 0.35805 0.0
H715 H 0.95252 0.98659 0.34013 0.0
H716 H 0.90797 0.02939 0.33842 0.0
H717 H 0.03979 0.00317 0.41675 0.0
H718 H 0.07066 0.05643 0.4145 0.0
H719 H 0.07896 0.0115 0.39526 0.0
C720 C 0.08798 0.94536 0.13296 0.0
C721 C 0.11597 0.96446 0.11713 0.0
C722 C 0.04288 0.96076 0.1359 0.0
C723 C 0.02547 0.99581 0.12264 0.0
C724 C 0.05453 0.01727 0.10765 0.0
C725 C 0.09946 0.00147 0.10515 0.0
C726 C 0.01312 0.93762 0.1523 0.0
C727 C 0.03731 0.05495 0.09325 0.0
C728 C 0.90151 -0.00147 0.10564 0.0
C729 C 0.88522 0.03724 0.11646 0.0
C730 C 0.94649 0.9831 0.10848 0.0
C731 C 0.97585 0.00681 0.12257 0.0
C732 C 0.95875 0.0439 0.13466 0.0
C733 C 0.91357 0.05877 0.13144 0.0
C734 C 0.96338 0.94318 0.09536 0.0
C735 C 0.98887 0.06957 0.15005 0.0
H736 H 0.10056 0.91704 0.14246 0.0
H737 H 0.12091 0.01683 0.09303 0.0
H738 H 0.99331 0.96336 0.16145 0.0
H739 H 0.98813 0.91488 0.14424 0.0
H740 H 0.03354 0.91656 0.16354 0.0
H741 H 0.06522 0.07062 0.08371 0.0
H742 H 0.01132 0.04079 0.08221 0.0
H743 H 0.02046 0.08228 0.10266 0.0
H744 H 0.87976 0.98131 0.09422 0.0
H745 H 0.90119 0.08847 0.14003 0.0
H746 H 0.98037 0.91742 0.10563 0.0
H747 H 0.98918 0.95547 0.08374 0.0
H748 H 0.93526 0.92606 0.08653 0.0
H749 H 0.96872 0.09249 0.16059 0.0
H750 H 0.01376 0.09084 0.1411 0.0
H751 H 0.00879 0.04535 0.16 0.0
C752 C 0.00788 0.89906 0.8888 0.0
C753 C 0.96978 0.88035 0.87839 0.0
C754 C 0.02243 0.94383 0.88455 0.0
C755 C -0.001 0.97019 0.86913 0.0
C756 C 0.9639 0.94981 0.8569 0.0
C757 C 0.9492 0.90524 0.86188 0.0
C758 C 0.06 0.96427 0.89804 0.0
C759 C 0.93944 0.97616 0.8397 0.0
C760 C 0.99287 0.09328 0.88664 0.0
C761 C 0.03224 0.11166 0.87715 0.0
C762 C 0.97964 0.04796 0.88285 0.0
C763 C 0.00587 0.02058 0.86885 0.0
C764 C 0.04264 0.04036 0.85744 0.0
C765 C 0.05575 0.0857 0.86188 0.0
C766 C 0.94008 0.02828 0.89537 0.0
C767 C 0.07019 0.0128 0.84173 0.0
H768 H 0.0245 0.87999 0.90139 0.0
H769 H 0.92011 0.89101 0.85354 0.0
H770 H 0.08606 0.98122 0.88794 0.0
H771 H 0.04526 0.99082 0.90865 0.0
H772 H 0.07734 0.9381 0.90802 0.0
H773 H 0.92229 0.95274 0.82829 0.0
H774 H 0.91288 0.99835 0.84695 0.0
H775 H 0.96352 -0.00139 0.83088 0.0
H776 H 0.97399 0.11324 0.89821 0.0
H777 H 0.08574 0.09991 0.85415 0.0
H778 H 0.95311 0.00241 0.9068 0.0
H779 H 0.91566 0.01067 0.88467 0.0
H780 H 0.9212 0.055 0.90438 0.0
H781 H 0.0956 0.99158 0.85037 0.0
H782 H 0.08907 0.03536 0.83052 0.0
H783 H 0.04789 0.98928 0.83253 0.0
C784 C 0.25705 0.23072 0.70717 0.0
C785 C 0.22268 0.20761 0.69589 0.0
C786 C 0.25532 0.23448 0.72935 0.0
C787 C 0.21837 0.21449 0.74056 0.0
C788 C 0.18318 0.19174 0.72926 0.0
C789 C 0.18547 0.18909 0.70705 0.0
C790 C 0.29314 0.25964 0.74079 0.0
C791 C 0.14317 0.17005 0.74066 0.0
C792 C 0.2347 0.18611 0.79894 0.0
C793 C 0.21057 0.22179 0.80868 0.0
C794 C 0.23752 0.18327 0.77674 0.0
C795 C 0.21643 0.21748 0.76411 0.0
C796 C 0.19313 0.25433 0.77398 0.0
C797 C 0.19037 0.25593 0.79619 0.0
C798 C 0.2623 0.14327 0.76679 0.0
C799 C 0.171 0.29193 0.7611 0.0
H800 H 0.28576 0.24544 0.69865 0.0
H801 H 0.15776 0.17296 0.69845 0.0
H802 H 0.27855 0.28788 0.75045 0.0
H803 H 0.31088 0.23598 0.75185 0.0
H804 H 0.31884 0.27429 0.7297 0.0
H805 H 0.11916 0.15275 0.72959 0.0
H806 H 0.15573 0.14446 0.75232 0.0
H807 H 0.12404 0.19654 0.74964 0.0
H808 H 0.25035 0.1598 0.8087 0.0
H809 H 0.17269 0.28412 0.80384 0.0
H810 H 0.29035 0.15585 0.75644 0.0
H811 H 0.23836 0.12357 0.75661 0.0
H812 H 0.27704 0.11971 0.77884 0.0
H813 H 0.19681 0.30839 0.75066 0.0
H814 H 0.15515 0.31873 0.77124 0.0
H815 H 0.14416 0.27723 0.75068 0.0
C816 C 0.19315 0.76198 0.2073 0.0
C817 C 0.22314 0.7934 0.19784 0.0
C818 C 0.19017 0.75819 0.22947 0.0
C819 C 0.21835 0.78608 0.24241 0.0
C820 C 0.24946 0.81712 0.23288 0.0
C821 C 0.25156 0.8203 0.21068 0.0
C822 C 0.1565 0.72477 0.23903 0.0
C823 C 0.28053 0.84698 0.24613 0.0
C824 C 0.18027 0.80883 0.29905 0.0
C825 C 0.20657 0.7771 0.31048 0.0
C826 C 0.18372 0.81204 0.2769 0.0
C827 C 0.21475 0.78327 0.26593 0.0
C828 C 0.2422 0.75189 0.27743 0.0
C829 C 0.23787 0.7493 0.29959 0.0
C830 C 0.15413 0.8462 0.26523 0.0
C831 C 0.27586 0.72083 0.26631 0.0
H832 H 0.17141 0.74092 0.19734 0.0
H833 H 0.27616 0.84318 0.2034 0.0
H834 H 0.17467 0.70018 0.2495 0.0
H835 H 0.13142 0.74349 0.24902 0.0
H836 H 0.13751 0.70514 0.22677 0.0
H837 H 0.30301 0.86911 0.23626 0.0
H838 H 0.25978 0.86922 0.25668 0.0
H839 H 0.30236 0.82527 0.25645 0.0
H840 H 0.15736 0.8317 0.30742 0.0
H841 H 0.25851 0.72496 0.3084 0.0
H842 H 0.13251 0.82817 0.25341 0.0
H843 H 0.17599 0.87078 0.2564 0.0
H844 H 0.13147 0.86581 0.27609 0.0
H845 H 0.2575 0.69834 0.25496 0.0
H846 H 0.29523 0.69891 0.27759 0.0
H847 H 0.30059 0.74157 0.257 0.0
C848 C 0.7505 0.78648 0.7994 0.0
C849 C 0.78878 0.76505 0.80838 0.0
C850 C 0.74528 0.78926 0.77729 0.0
C851 C 0.77941 0.77047 0.76389 0.0
C852 C 0.81731 0.74736 0.77291 0.0
C853 C 0.82099 0.74409 0.79506 0.0
C854 C 0.70369 0.81302 0.76827 0.0
C855 C 0.85454 0.72708 0.7592 0.0
C856 C 0.75077 0.74893 0.7059 0.0
C857 C 0.76784 0.7887 0.69614 0.0
C858 C 0.7544 0.74239 0.72791 0.0
C859 C 0.77612 0.7762 0.74047 0.0
C860 C 0.79385 0.81618 0.73072 0.0
C861 C 0.78871 0.82234 0.70876 0.0
C862 C 0.73408 0.69979 0.73778 0.0
C863 C 0.81762 0.85288 0.74354 0.0
H864 H 0.72506 0.80192 0.80969 0.0
H865 H 0.84926 0.72523 0.80196 0.0
H866 H 0.71432 0.84436 0.75959 0.0
H867 H 0.68616 0.79031 0.75673 0.0
H868 H 0.67883 0.82298 0.78079 0.0
H869 H 0.8817 0.71011 0.76871 0.0
H870 H 0.83979 0.70159 0.74809 0.0
H871 H 0.8705 0.75448 0.74945 0.0
H872 H 0.73401 0.72304 0.69633 0.0
H873 H 0.79982 0.85426 0.7017 0.0
H874 H 0.70722 0.70955 0.74938 0.0
H875 H 0.76076 0.68063 0.74661 0.0
H876 H 0.71868 0.67658 0.72578 0.0
H877 H 0.79305 0.86859 0.75481 0.0
H878 H 0.83218 0.88041 0.73338 0.0
H879 H 0.84567 0.83754 0.75305 0.0
C880 C 0.81358 0.18416 0.29686 0.0
C881 C 0.78772 0.21581 0.30853 0.0
C882 C 0.8108 0.18249 0.27466 0.0
C883 C 0.78071 0.21259 0.26389 0.0
C884 C 0.75345 0.24368 0.27563 0.0
C885 C 0.75725 0.24488 0.29783 0.0
C886 C 0.84024 0.14864 0.26272 0.0
C887 C 0.7206 0.27596 0.26472 0.0
C888 C 0.80517 0.23687 0.20574 0.0
C889 C 0.77551 0.20607 0.19572 0.0
C890 C 0.80702 0.23961 0.22796 0.0
C891 C 0.77789 0.21139 0.24034 0.0
C892 C 0.74687 0.18121 0.2302 0.0
C893 C 0.74603 0.17898 0.20797 0.0
C894 C 0.84065 0.27207 0.2382 0.0
C895 C 0.71481 0.15109 0.24282 0.0
H896 H 0.83575 0.16028 0.30505 0.0
H897 H 0.73692 0.26916 0.30682 0.0
H898 H 0.81831 0.12503 0.25339 0.0
H899 H 0.86255 0.16712 0.25131 0.0
H900 H 0.86221 0.12794 0.27345 0.0
H901 H 0.701 0.29723 0.27618 0.0
H902 H 0.73969 0.29909 0.2539 0.0
H903 H 0.69604 0.25624 0.25488 0.0
H904 H 0.82759 0.25812 0.19616 0.0
H905 H 0.72203 0.15626 0.20013 0.0
H906 H 0.86518 0.25245 0.24811 0.0
H907 H 0.82236 0.29616 0.24886 0.0
H908 H 0.86026 0.29228 0.22633 0.0
H909 H 0.73482 0.12741 0.253 0.0
H910 H 0.69195 0.13041 0.23249 0.0
H911 H 0.69337 0.17242 0.25347 0.0
loop_
_geom_bond_atom_site_label_1
_geom_bond_atom_site_label_2
_geom_bond_distance
_geom_bond_site_symmetry_2
_ccdc_geom_bond_type
Co0 O3 1.970 . S
Co0 N17 1.989 . S
Co0 O25 1.967 . S
Co0 O32 1.920 . S
Co1 O4 1.966 . S
Co1 N10 2.022 . S
Co1 N18 1.993 . S
Co1 O26 1.941 . S
C2 O3 1.258 . S
C2 O4 1.263 . S
O3 Co0 1.970 . S
O3 C2 1.258 . S
O4 Co1 1.966 . S
O4 C2 1.263 . S
C5 O6 1.235 . S
C5 O32 1.289 1_565 S
O6 C5 1.235 . S
C7 C9 1.400 . S
C7 N10 1.351 . S
C7 C12 1.501 . S
C8 C9 1.387 . S
C8 N11 1.341 . S
C9 C7 1.400 . S
C9 C8 1.387 . S
N10 Co1 2.022 . S
N10 C7 1.351 . S
N10 N11 1.365 . S
N11 C8 1.341 . S
N11 N10 1.365 . S
N11 H31 0.862 . S
C12 C7 1.501 . S
C12 H13 0.961 . S
C12 H14 0.961 . S
C12 H15 0.960 . S
H13 C12 0.961 . S
H14 C12 0.961 . S
H15 C12 0.960 . S
C16 N17 1.342 . S
C16 C20 1.401 . S
C16 C21 1.499 . S
N17 Co0 1.989 . S
N17 C16 1.342 . S
N17 N18 1.388 . S
N18 Co1 1.993 . S
N18 N17 1.388 . S
N18 C19 1.346 . S
C19 N18 1.346 . S
C19 C20 1.396 . S
C19 C29 1.510 . S
C20 C16 1.401 . S
C20 C19 1.396 . S
C21 C16 1.499 . S
C21 H22 0.959 . S
C21 H23 0.960 . S
C21 H24 0.961 . S
H22 C21 0.959 . S
H23 C21 0.960 . S
H24 C21 0.961 . S
O25 Co0 1.967 . S
O25 C33 1.258 . S
O26 Co1 1.941 . S
O26 C33 1.266 . S
H27 C29 0.959 . S
H28 C29 0.961 . S
C29 C19 1.510 . S
C29 H27 0.959 . S
C29 H28 0.961 . S
C29 H30 0.960 . S
H30 C29 0.960 . S
H31 N11 0.862 . S
O32 Co0 1.920 . S
O32 C5 1.289 1_545 S
C33 O25 1.258 . S
C33 O26 1.266 . S
Co34 O37 1.970 . S
Co34 N51 1.989 . S
Co34 O59 1.967 . S
Co34 O66 1.920 . S
Co35 O38 1.966 . S
Co35 N44 2.022 . S
Co35 N52 1.993 . S
Co35 O60 1.941 . S
C36 O37 1.258 . S
C36 O38 1.263 . S
O37 Co34 1.970 . S
O37 C36 1.258 . S
O38 Co35 1.966 . S
O38 C36 1.263 . S
C39 O40 1.235 . S
C39 O66 1.289 1_655 S
O40 C39 1.235 . S
C41 C43 1.400 . S
C41 N44 1.351 . S
C41 C46 1.501 . S
C42 C43 1.387 . S
C42 N45 1.341 . S
C43 C41 1.400 . S
C43 C42 1.387 . S
N44 Co35 2.022 . S
N44 C41 1.351 . S
N44 N45 1.365 . S
N45 C42 1.341 . S
N45 N44 1.365 . S
N45 H65 0.862 . S
C46 C41 1.501 . S
C46 H47 0.961 . S
C46 H48 0.961 . S
C46 H49 0.960 . S
H47 C46 0.961 . S
H48 C46 0.961 . S
H49 C46 0.960 . S
C50 N51 1.342 . S
C50 C54 1.401 . S
C50 C55 1.499 . S
N51 Co34 1.989 . S
N51 C50 1.342 . S
N51 N52 1.388 . S
N52 Co35 1.993 . S
N52 N51 1.388 . S
N52 C53 1.346 . S
C53 N52 1.346 . S
C53 C54 1.396 . S
C53 C63 1.510 . S
C54 C50 1.401 . S
C54 C53 1.396 . S
C55 C50 1.499 . S
C55 H56 0.959 . S
C55 H57 0.960 . S
C55 H58 0.961 . S
H56 C55 0.959 . S
H57 C55 0.960 . S
H58 C55 0.961 . S
O59 Co34 1.967 . S
O59 C67 1.258 . S
O60 Co35 1.941 . S
O60 C67 1.266 . S
H61 C63 0.959 . S
H62 C63 0.961 . S
C63 C53 1.510 . S
C63 H61 0.959 . S
C63 H62 0.961 . S
C63 H64 0.960 . S
H64 C63 0.960 . S
H65 N45 0.862 . S
O66 Co34 1.920 . S
O66 C39 1.289 1_455 S
C67 O59 1.258 . S
C67 O60 1.266 . S
Co68 O71 1.970 . S
Co68 N85 1.989 . S
Co68 O93 1.967 . S
Co68 O100 1.920 . S
Co69 O72 1.966 . S
Co69 N78 2.022 . S
Co69 N86 1.993 . S
Co69 O94 1.941 . S
C70 O71 1.258 . S
C70 O72 1.263 . S
O71 Co68 1.970 . S
O71 C70 1.258 . S
O72 Co69 1.966 . S
O72 C70 1.263 . S
C73 O74 1.235 . S
C73 O100 1.289 1_545 S
O74 C73 1.235 . S
C75 C77 1.400 . S
C75 N78 1.351 . S
C75 C80 1.501 . S
C76 C77 1.387 . S
C76 N79 1.341 . S
C77 C75 1.400 . S
C77 C76 1.387 . S
N78 Co69 2.022 . S
N78 C75 1.351 . S
N78 N79 1.365 . S
N79 C76 1.341 . S
N79 N78 1.365 . S
N79 H99 0.862 . S
C80 C75 1.501 . S
C80 H81 0.961 . S
C80 H82 0.961 . S
C80 H83 0.960 . S
H81 C80 0.961 . S
H82 C80 0.961 . S
H83 C80 0.960 . S
C84 N85 1.342 . S
C84 C88 1.401 . S
C84 C89 1.499 . S
N85 Co68 1.989 . S
N85 C84 1.342 . S
N85 N86 1.388 . S
N86 Co69 1.993 . S
N86 N85 1.388 . S
N86 C87 1.346 . S
C87 N86 1.346 . S
C87 C88 1.396 . S
C87 C97 1.510 . S
C88 C84 1.401 . S
C88 C87 1.396 . S
C89 C84 1.499 . S
C89 H90 0.959 . S
C89 H91 0.960 . S
C89 H92 0.961 . S
H90 C89 0.959 . S
H91 C89 0.960 . S
H92 C89 0.961 . S
O93 Co68 1.967 . S
O93 C101 1.258 . S
O94 Co69 1.941 . S
O94 C101 1.266 . S
H95 C97 0.959 . S
H96 C97 0.961 . S
C97 C87 1.510 . S
C97 H95 0.959 . S
C97 H96 0.961 . S
C97 H98 0.960 . S
H98 C97 0.960 . S
H99 N79 0.862 . S
O100 Co68 1.920 . S
O100 C73 1.289 1_565 S
C101 O93 1.258 . S
C101 O94 1.266 . S
Co102 O105 1.970 . S
Co102 N119 1.989 . S
Co102 O127 1.967 . S
Co102 O134 1.920 . S
Co103 O106 1.966 . S
Co103 N112 2.022 . S
Co103 N120 1.993 . S
Co103 O128 1.941 . S
C104 O105 1.258 . S
C104 O106 1.263 . S
O105 Co102 1.970 . S
O105 C104 1.258 . S
O106 Co103 1.966 . S
O106 C104 1.263 . S
C107 O108 1.235 . S
C107 O134 1.289 1_455 S
O108 C107 1.235 . S
C109 C111 1.400 . S
C109 N112 1.351 . S
C109 C114 1.501 . S
C110 C111 1.387 . S
C110 N113 1.341 . S
C111 C109 1.400 . S
C111 C110 1.387 . S
N112 Co103 2.022 . S
N112 C109 1.351 . S
N112 N113 1.365 . S
N113 C110 1.341 . S
N113 N112 1.365 . S
N113 H133 0.862 . S
C114 C109 1.501 . S
C114 H115 0.961 . S
C114 H116 0.961 . S
C114 H117 0.960 . S
H115 C114 0.961 . S
H116 C114 0.961 . S
H117 C114 0.960 . S
C118 N119 1.342 . S
C118 C122 1.401 . S
C118 C123 1.499 . S
N119 Co102 1.989 . S
N119 C118 1.342 . S
N119 N120 1.388 . S
N120 Co103 1.993 . S
N120 N119 1.388 . S
N120 C121 1.346 . S
C121 N120 1.346 . S
C121 C122 1.396 . S
C121 C131 1.510 . S
C122 C118 1.401 . S
C122 C121 1.396 . S
C123 C118 1.499 . S
C123 H124 0.959 . S
C123 H125 0.960 . S
C123 H126 0.961 . S
H124 C123 0.959 . S
H125 C123 0.960 . S
H126 C123 0.961 . S
O127 Co102 1.967 . S
O127 C135 1.258 . S
O128 Co103 1.941 . S
O128 C135 1.266 . S
H129 C131 0.959 . S
H130 C131 0.961 . S
C131 C121 1.510 . S
C131 H129 0.959 . S
C131 H130 0.961 . S
C131 H132 0.960 . S
H132 C131 0.960 . S
H133 N113 0.862 . S
O134 Co102 1.920 . S
O134 C107 1.289 1_655 S
C135 O127 1.258 . S
C135 O128 1.266 . S
Co136 O139 1.970 . S
Co136 N153 1.989 . S
Co136 O161 1.967 . S
Co136 O168 1.920 . S
Co137 O140 1.966 . S
Co137 N146 2.022 . S
Co137 N154 1.993 . S
Co137 O162 1.941 . S
C138 O139 1.258 . S
C138 O140 1.263 . S
O139 Co136 1.970 . S
O139 C138 1.258 . S
O140 Co137 1.966 . S
O140 C138 1.263 . S
C141 O142 1.235 . S
C141 O168 1.289 1_565 S
O142 C141 1.235 . S
C143 C145 1.400 . S
C143 N146 1.351 . S
C143 C148 1.501 . S
C144 C145 1.387 . S
C144 N147 1.341 . S
C145 C143 1.400 . S
C145 C144 1.387 . S
N146 Co137 2.022 . S
N146 C143 1.351 . S
N146 N147 1.365 . S
N147 C144 1.341 . S
N147 N146 1.365 . S
N147 H167 0.862 . S
C148 C143 1.501 . S
C148 H149 0.961 . S
C148 H150 0.961 . S
C148 H151 0.960 . S
H149 C148 0.961 . S
H150 C148 0.961 . S
H151 C148 0.960 . S
C152 N153 1.342 . S
C152 C156 1.401 . S
C152 C157 1.499 . S
N153 Co136 1.989 . S
N153 C152 1.342 . S
N153 N154 1.388 . S
N154 Co137 1.993 . S
N154 N153 1.388 . S
N154 C155 1.346 . S
C155 N154 1.346 . S
C155 C156 1.396 . S
C155 C165 1.510 . S
C156 C152 1.401 . S
C156 C155 1.396 . S
C157 C152 1.499 . S
C157 H158 0.959 . S
C157 H159 0.960 . S
C157 H160 0.961 . S
H158 C157 0.959 . S
H159 C157 0.960 . S
H160 C157 0.961 . S
O161 Co136 1.967 . S
O161 C169 1.258 . S
O162 Co137 1.941 . S
O162 C169 1.266 . S
H163 C165 0.959 . S
H164 C165 0.961 . S
C165 C155 1.510 . S
C165 H163 0.959 . S
C165 H164 0.961 . S
C165 H166 0.960 . S
H166 C165 0.960 . S
H167 N147 0.862 . S
O168 Co136 1.920 . S
O168 C141 1.289 1_545 S
C169 O161 1.258 . S
C169 O162 1.266 . S
Co170 O173 1.970 . S
Co170 N187 1.989 . S
Co170 O195 1.967 . S
Co170 O202 1.920 . S
Co171 O174 1.966 . S
Co171 N180 2.022 . S
Co171 N188 1.993 . S
Co171 O196 1.941 . S
C172 O173 1.258 . S
C172 O174 1.263 . S
O173 Co170 1.970 . S
O173 C172 1.258 . S
O174 Co171 1.966 . S
O174 C172 1.263 . S
C175 O176 1.235 . S
C175 O202 1.289 1_655 S
O176 C175 1.235 . S
C177 C179 1.400 . S
C177 N180 1.351 . S
C177 C182 1.501 . S
C178 C179 1.387 . S
C178 N181 1.341 . S
C179 C177 1.400 . S
C179 C178 1.387 . S
N180 Co171 2.022 . S
N180 C177 1.351 . S
N180 N181 1.365 . S
N181 C178 1.341 . S
N181 N180 1.365 . S
N181 H201 0.862 . S
C182 C177 1.501 . S
C182 H183 0.961 . S
C182 H184 0.961 . S
C182 H185 0.960 . S
H183 C182 0.961 . S
H184 C182 0.961 . S
H185 C182 0.960 . S
C186 N187 1.342 . S
C186 C190 1.401 . S
C186 C191 1.499 . S
N187 Co170 1.989 . S
N187 C186 1.342 . S
N187 N188 1.388 . S
N188 Co171 1.993 . S
N188 N187 1.388 . S
N188 C189 1.346 . S
C189 N188 1.346 . S
C189 C190 1.396 . S
C189 C199 1.510 . S
C190 C186 1.401 . S
C190 C189 1.396 . S
C191 C186 1.499 . S
C191 H192 0.959 . S
C191 H193 0.960 . S
C191 H194 0.961 . S
H192 C191 0.959 . S
H193 C191 0.960 . S
H194 C191 0.961 . S
O195 Co170 1.967 . S
O195 C203 1.258 . S
O196 Co171 1.941 . S
O196 C203 1.266 . S
H197 C199 0.959 . S
H198 C199 0.961 . S
C199 C189 1.510 . S
C199 H197 0.959 . S
C199 H198 0.961 . S
C199 H200 0.960 . S
H200 C199 0.960 . S
H201 N181 0.862 . S
O202 Co170 1.920 . S
O202 C175 1.289 1_455 S
C203 O195 1.258 . S
C203 O196 1.266 . S
Co204 O207 1.970 . S
Co204 N221 1.989 . S
Co204 O229 1.967 . S
Co204 O236 1.920 . S
Co205 O208 1.966 . S
Co205 N214 2.022 . S
Co205 N222 1.993 . S
Co205 O230 1.941 . S
C206 O207 1.258 . S
C206 O208 1.263 . S
O207 Co204 1.970 . S
O207 C206 1.258 . S
O208 Co205 1.966 . S
O208 C206 1.263 . S
C209 O210 1.235 . S
C209 O236 1.289 1_545 S
O210 C209 1.235 . S
C211 C213 1.400 . S
C211 N214 1.351 . S
C211 C216 1.501 . S
C212 C213 1.387 . S
C212 N215 1.341 . S
C213 C211 1.400 . S
C213 C212 1.387 . S
N214 Co205 2.022 . S
N214 C211 1.351 . S
N214 N215 1.365 . S
N215 C212 1.341 . S
N215 N214 1.365 . S
N215 H235 0.862 . S
C216 C211 1.501 . S
C216 H217 0.961 . S
C216 H218 0.961 . S
C216 H219 0.960 . S
H217 C216 0.961 . S
H218 C216 0.961 . S
H219 C216 0.960 . S
C220 N221 1.342 . S
C220 C224 1.401 . S
C220 C225 1.499 . S
N221 Co204 1.989 . S
N221 C220 1.342 . S
N221 N222 1.388 . S
N222 Co205 1.993 . S
N222 N221 1.388 . S
N222 C223 1.346 . S
C223 N222 1.346 . S
C223 C224 1.396 . S
C223 C233 1.510 . S
C224 C220 1.401 . S
C224 C223 1.396 . S
C225 C220 1.499 . S
C225 H226 0.959 . S
C225 H227 0.960 . S
C225 H228 0.961 . S
H226 C225 0.959 . S
H227 C225 0.960 . S
H228 C225 0.961 . S
O229 Co204 1.967 . S
O229 C237 1.258 . S
O230 Co205 1.941 . S
O230 C237 1.266 . S
H231 C233 0.959 . S
H232 C233 0.961 . S
C233 C223 1.510 . S
C233 H231 0.959 . S
C233 H232 0.961 . S
C233 H234 0.960 . S
H234 C233 0.960 . S
H235 N215 0.862 . S
O236 Co204 1.920 . S
O236 C209 1.289 1_565 S
C237 O229 1.258 . S
C237 O230 1.266 . S
Co238 O241 1.970 . S
Co238 N255 1.989 . S
Co238 O263 1.967 . S
Co238 O270 1.920 . S
Co239 O242 1.966 . S
Co239 N248 2.022 . S
Co239 N256 1.993 . S
Co239 O264 1.941 . S
C240 O241 1.258 . S
C240 O242 1.263 . S
O241 Co238 1.970 . S
O241 C240 1.258 . S
O242 Co239 1.966 . S
O242 C240 1.263 . S
C243 O244 1.235 . S
C243 O270 1.289 1_455 S
O244 C243 1.235 . S
C245 C247 1.400 . S
C245 N248 1.351 . S
C245 C250 1.501 . S
C246 C247 1.387 . S
C246 N249 1.341 . S
C247 C245 1.400 . S
C247 C246 1.387 . S
N248 Co239 2.022 . S
N248 C245 1.351 . S
N248 N249 1.365 . S
N249 C246 1.341 . S
N249 N248 1.365 . S
N249 H269 0.862 . S
C250 C245 1.501 . S
C250 H251 0.961 . S
C250 H252 0.961 . S
C250 H253 0.960 . S
H251 C250 0.961 . S
H252 C250 0.961 . S
H253 C250 0.960 . S
C254 N255 1.342 . S
C254 C258 1.401 . S
C254 C259 1.499 . S
N255 Co238 1.989 . S
N255 C254 1.342 . S
N255 N256 1.388 . S
N256 Co239 1.993 . S
N256 N255 1.388 . S
N256 C257 1.346 . S
C257 N256 1.346 . S
C257 C258 1.396 . S
C257 C267 1.510 . S
C258 C254 1.401 . S
C258 C257 1.396 . S
C259 C254 1.499 . S
C259 H260 0.959 . S
C259 H261 0.960 . S
C259 H262 0.961 . S
H260 C259 0.959 . S
H261 C259 0.960 . S
H262 C259 0.961 . S
O263 Co238 1.967 . S
O263 C271 1.258 . S
O264 Co239 1.941 . S
O264 C271 1.266 . S
H265 C267 0.959 . S
H266 C267 0.961 . S
C267 C257 1.510 . S
C267 H265 0.959 . S
C267 H266 0.961 . S
C267 H268 0.960 . S
H268 C267 0.960 . S
H269 N249 0.862 . S
O270 Co238 1.920 . S
O270 C243 1.289 1_655 S
C271 O263 1.258 . S
C271 O264 1.266 . S
C272 C273 1.391 . S
C272 C274 1.394 . S
C272 H288 0.931 1_565 S
C273 C272 1.391 . S
C273 C277 1.376 . S
C274 C272 1.394 . S
C274 C275 1.369 . S
C274 C278 1.531 . S
C275 C274 1.369 . S
C275 C276 1.410 . S
C275 C283 1.503 . S
C276 C275 1.410 . S
C276 C277 1.392 . S
C276 C279 1.511 . S
C277 C273 1.376 . S
C277 C276 1.392 . S
C277 H289 0.929 . S
C278 C274 1.531 . S
C278 H290 0.960 . S
C278 H291 0.962 . S
C278 H292 0.960 1_565 S
C279 C276 1.511 . S
C279 H293 0.961 . S
C279 H294 0.961 . S
C279 H295 0.961 . S
C280 C281 1.370 . S
C280 C282 1.363 . S
C280 H296 0.931 . S
C281 C280 1.370 . S
C281 C285 1.408 . S
C282 C280 1.363 . S
C282 C283 1.370 . S
C282 C286 1.524 . S
C283 C275 1.503 . S
C283 C282 1.370 . S
C283 C284 1.403 . S
C284 C283 1.403 . S
C284 C285 1.404 . S
C284 C287 1.539 . S
C285 C281 1.408 . S
C285 C284 1.404 . S
C285 H297 0.930 . S
C286 C282 1.524 . S
C286 H298 0.956 . S
C286 H299 0.961 . S
C286 H300 0.961 . S
C287 C284 1.539 . S
C287 H301 0.958 . S
C287 H302 0.961 . S
C287 H303 0.960 . S
H288 C272 0.931 1_545 S
H289 C277 0.929 . S
H290 C278 0.960 . S
H291 C278 0.962 . S
H292 C278 0.960 1_545 S
H293 C279 0.961 . S
H294 C279 0.961 . S
H295 C279 0.961 . S
H296 C280 0.931 . S
H297 C285 0.930 . S
H298 C286 0.956 . S
H299 C286 0.961 . S
H300 C286 0.961 . S
H301 C287 0.958 . S
H302 C287 0.961 . S
H303 C287 0.960 . S
C304 C305 1.391 . S
C304 C306 1.394 . S
C304 H320 0.931 . S
C305 C304 1.391 . S
C305 C309 1.376 . S
C306 C304 1.394 . S
C306 C307 1.369 . S
C306 C310 1.531 . S
C307 C306 1.369 . S
C307 C308 1.410 . S
C307 C315 1.503 . S
C308 C307 1.410 . S
C308 C309 1.392 . S
C308 C311 1.511 . S
C309 C305 1.376 . S
C309 C308 1.392 . S
C309 H321 0.929 . S
C310 C306 1.531 . S
C310 H322 0.960 . S
C310 H323 0.962 . S
C310 H324 0.960 . S
C311 C308 1.511 . S
C311 H325 0.961 . S
C311 H326 0.961 . S
C311 H327 0.961 . S
C312 C313 1.370 . S
C312 C314 1.363 . S
C312 H328 0.931 . S
C313 C312 1.370 . S
C313 C317 1.408 . S
C314 C312 1.363 . S
C314 C315 1.370 . S
C314 C318 1.524 . S
C315 C307 1.503 . S
C315 C314 1.370 . S
C315 C316 1.403 . S
C316 C315 1.403 . S
C316 C317 1.404 . S
C316 C319 1.539 . S
C317 C313 1.408 . S
C317 C316 1.404 . S
C317 H329 0.930 1_655 S
C318 C314 1.524 . S
C318 H330 0.956 . S
C318 H331 0.961 . S
C318 H332 0.961 . S
C319 C316 1.539 . S
C319 H333 0.958 . S
C319 H334 0.961 . S
C319 H335 0.960 . S
H320 C304 0.931 . S
H321 C309 0.929 . S
H322 C310 0.960 . S
H323 C310 0.962 . S
H324 C310 0.960 . S
H325 C311 0.961 . S
H326 C311 0.961 . S
H327 C311 0.961 . S
H328 C312 0.931 . S
H329 C317 0.930 1_455 S
H330 C318 0.956 . S
H331 C318 0.961 . S
H332 C318 0.961 . S
H333 C319 0.958 . S
H334 C319 0.961 . S
H335 C319 0.960 . S
C336 C337 1.391 . S
C336 C338 1.394 . S
C336 H352 0.931 1_545 S
C337 C336 1.391 . S
C337 C341 1.376 . S
C338 C336 1.394 . S
C338 C339 1.369 . S
C338 C342 1.531 . S
C339 C338 1.369 . S
C339 C340 1.410 . S
C339 C347 1.503 . S
C340 C339 1.410 . S
C340 C341 1.392 . S
C340 C343 1.511 . S
C341 C337 1.376 . S
C341 C340 1.392 . S
C341 H353 0.929 . S
C342 C338 1.531 . S
C342 H354 0.960 . S
C342 H355 0.962 . S
C342 H356 0.960 1_545 S
C343 C340 1.511 . S
C343 H357 0.961 . S
C343 H358 0.961 . S
C343 H359 0.961 . S
C344 C345 1.370 . S
C344 C346 1.363 . S
C344 H360 0.931 . S
C345 C344 1.370 . S
C345 C349 1.408 . S
C346 C344 1.363 . S
C346 C347 1.370 . S
C346 C350 1.524 . S
C347 C339 1.503 . S
C347 C346 1.370 . S
C347 C348 1.403 . S
C348 C347 1.403 . S
C348 C349 1.404 . S
C348 C351 1.539 . S
C349 C345 1.408 . S
C349 C348 1.404 . S
C349 H361 0.930 . S
C350 C346 1.524 . S
C350 H362 0.956 . S
C350 H363 0.961 . S
C350 H364 0.961 . S
C351 C348 1.539 . S
C351 H365 0.958 . S
C351 H366 0.961 . S
C351 H367 0.960 . S
H352 C336 0.931 1_565 S
H353 C341 0.929 . S
H354 C342 0.960 . S
H355 C342 0.962 . S
H356 C342 0.960 1_565 S
H357 C343 0.961 . S
H358 C343 0.961 . S
H359 C343 0.961 . S
H360 C344 0.931 . S
H361 C349 0.930 . S
H362 C350 0.956 . S
H363 C350 0.961 . S
H364 C350 0.961 . S
H365 C351 0.958 . S
H366 C351 0.961 . S
H367 C351 0.960 . S
C368 C369 1.391 . S
C368 C370 1.394 . S
C368 H384 0.931 . S
C369 C368 1.391 . S
C369 C373 1.376 . S
C370 C368 1.394 . S
C370 C371 1.369 . S
C370 C374 1.531 . S
C371 C370 1.369 . S
C371 C372 1.410 . S
C371 C379 1.503 . S
C372 C371 1.410 . S
C372 C373 1.392 . S
C372 C375 1.511 . S
C373 C369 1.376 . S
C373 C372 1.392 . S
C373 H385 0.929 . S
C374 C370 1.531 . S
C374 H386 0.960 . S
C374 H387 0.962 . S
C374 H388 0.960 . S
C375 C372 1.511 . S
C375 H389 0.961 . S
C375 H390 0.961 . S
C375 H391 0.961 . S
C376 C377 1.370 . S
C376 C378 1.363 . S
C376 H392 0.931 . S
C377 C376 1.370 . S
C377 C381 1.408 . S
C378 C376 1.363 . S
C378 C379 1.370 . S
C378 C382 1.524 . S
C379 C371 1.503 . S
C379 C378 1.370 . S
C379 C380 1.403 . S
C380 C379 1.403 . S
C380 C381 1.404 . S
C380 C383 1.539 . S
C381 C377 1.408 . S
C381 C380 1.404 . S
C381 H393 0.930 . S
C382 C378 1.524 . S
C382 H394 0.956 . S
C382 H395 0.961 . S
C382 H396 0.961 . S
C383 C380 1.539 . S
C383 H397 0.958 . S
C383 H398 0.961 . S
C383 H399 0.960 . S
H384 C368 0.931 . S
H385 C373 0.929 . S
H386 C374 0.960 . S
H387 C374 0.962 . S
H388 C374 0.960 . S
H389 C375 0.961 . S
H390 C375 0.961 . S
H391 C375 0.961 . S
H392 C376 0.931 . S
H393 C381 0.930 . S
H394 C382 0.956 . S
H395 C382 0.961 . S
H396 C382 0.961 . S
H397 C383 0.958 . S
H398 C383 0.961 . S
H399 C383 0.960 . S
C400 C401 1.391 . S
C400 C402 1.394 . S
C400 H416 0.931 . S
C401 C400 1.391 . S
C401 C405 1.376 . S
C402 C400 1.394 . S
C402 C403 1.369 . S
C402 C406 1.531 . S
C403 C402 1.369 . S
C403 C404 1.410 . S
C403 C411 1.503 . S
C404 C403 1.410 . S
C404 C405 1.392 . S
C404 C407 1.511 . S
C405 C401 1.376 . S
C405 C404 1.392 . S
C405 H417 0.929 . S
C406 C402 1.531 . S
C406 H418 0.960 1_556 S
C406 H419 0.962 . S
C406 H420 0.960 . S
C407 C404 1.511 . S
C407 H421 0.961 . S
C407 H422 0.961 . S
C407 H423 0.961 . S
C408 C409 1.370 . S
C408 C410 1.363 1_554 S
C408 H424 0.931 1_565 S
C409 C408 1.370 . S
C409 C413 1.408 . S
C410 C408 1.363 1_556 S
C410 C411 1.370 . S
C410 C414 1.524 . S
C411 C403 1.503 . S
C411 C410 1.370 . S
C411 C412 1.403 1_556 S
C412 C411 1.403 1_554 S
C412 C413 1.404 . S
C412 C415 1.539 . S
C413 C409 1.408 . S
C413 C412 1.404 . S
C413 H425 0.930 . S
C414 C410 1.524 . S
C414 H426 0.956 . S
C414 H427 0.961 . S
C414 H428 0.961 . S
C415 C412 1.539 . S
C415 H429 0.958 . S
C415 H430 0.961 . S
C415 H431 0.960 . S
H416 C400 0.931 . S
H417 C405 0.929 . S
H418 C406 0.960 1_554 S
H419 C406 0.962 . S
H420 C406 0.960 . S
H421 C407 0.961 . S
H422 C407 0.961 . S
H423 C407 0.961 . S
H424 C408 0.931 1_545 S
H425 C413 0.930 . S
H426 C414 0.956 . S
H427 C414 0.961 . S
H428 C414 0.961 . S
H429 C415 0.958 . S
H430 C415 0.961 . S
H431 C415 0.960 . S
C432 C433 1.391 . S
C432 C434 1.394 . S
C432 H448 0.931 . S
C433 C432 1.391 . S
C433 C437 1.376 . S
C434 C432 1.394 . S
C434 C435 1.369 . S
C434 C438 1.531 . S
C435 C434 1.369 . S
C435 C436 1.410 . S
C435 C443 1.503 . S
C436 C435 1.410 . S
C436 C437 1.392 . S
C436 C439 1.511 . S
C437 C433 1.376 . S
C437 C436 1.392 . S
C437 H449 0.929 . S
C438 C434 1.531 . S
C438 H450 0.949 1_554 S
C438 H451 0.962 1_554 S
C438 H452 0.960 . S
C439 C436 1.511 . S
C439 H453 0.961 . S
C439 H454 0.961 . S
C439 H455 0.961 . S
C440 C441 1.370 . S
C440 C442 1.363 . S
C440 H456 0.931 . S
C441 C440 1.370 . S
C441 C445 1.408 . S
C442 C440 1.363 . S
C442 C443 1.370 1_556 S
C442 C446 1.524 . S
C443 C435 1.503 . S
C443 C442 1.370 1_554 S
C443 C444 1.403 . S
C444 C443 1.403 . S
C444 C445 1.404 1_554 S
C444 C447 1.539 . S
C445 C441 1.408 . S
C445 C444 1.404 1_556 S
C445 H457 0.930 . S
C446 C442 1.524 . S
C446 H458 0.956 . S
C446 H459 0.961 1_556 S
C446 H460 0.961 . S
C447 C444 1.539 . S
C447 H461 0.958 . S
C447 H462 0.961 . S
C447 H463 0.960 . S
H448 C432 0.931 . S
H449 C437 0.929 . S
H450 C438 0.949 1_556 S
H451 C438 0.962 1_556 S
H452 C438 0.960 . S
H453 C439 0.961 . S
H454 C439 0.961 . S
H455 C439 0.961 . S
H456 C440 0.931 . S
H457 C445 0.930 . S
H458 C446 0.956 . S
H459 C446 0.961 1_554 S
H460 C446 0.961 . S
H461 C447 0.958 . S
H462 C447 0.961 . S
H463 C447 0.960 . S
C464 C465 1.391 . S
C464 C466 1.394 . S
C464 H480 0.931 . S
C465 C464 1.391 . S
C465 C469 1.376 . S
C466 C464 1.394 . S
C466 C467 1.369 . S
C466 C470 1.531 . S
C467 C466 1.369 . S
C467 C468 1.410 . S
C467 C475 1.503 . S
C468 C467 1.410 . S
C468 C469 1.392 . S
C468 C471 1.511 . S
C469 C465 1.376 . S
C469 C468 1.392 . S
C469 H481 0.929 . S
C470 C466 1.531 . S
C470 H482 0.960 . S
C470 H483 0.962 . S
C470 H484 0.960 . S
C471 C468 1.511 . S
C471 H485 0.961 . S
C471 H486 0.961 . S
C471 H487 0.961 . S
C472 C473 1.370 . S
C472 C474 1.363 . S
C472 H488 0.931 . S
C473 C472 1.370 . S
C473 C477 1.408 . S
C474 C472 1.363 . S
C474 C475 1.370 1_554 S
C474 C478 1.524 . S
C475 C467 1.503 . S
C475 C474 1.370 1_556 S
C475 C476 1.403 . S
C476 C475 1.403 . S
C476 C477 1.404 1_556 S
C476 C479 1.539 . S
C477 C473 1.408 . S
C477 C476 1.404 1_554 S
C477 H489 0.930 1_545 S
C478 C474 1.524 . S
C478 H490 0.956 . S
C478 H491 0.961 . S
C478 H492 0.961 . S
C479 C476 1.539 . S
C479 H493 0.958 . S
C479 H494 0.961 . S
C479 H495 0.960 . S
H480 C464 0.931 . S
H481 C469 0.929 . S
H482 C470 0.960 . S
H483 C470 0.962 . S
H484 C470 0.960 . S
H485 C471 0.961 . S
H486 C471 0.961 . S
H487 C471 0.961 . S
H488 C472 0.931 . S
H489 C477 0.930 1_565 S
H490 C478 0.956 . S
H491 C478 0.961 . S
H492 C478 0.961 . S
H493 C479 0.958 . S
H494 C479 0.961 . S
H495 C479 0.960 . S
C496 C497 1.391 . S
C496 C498 1.394 . S
C496 H512 0.931 . S
C497 C496 1.391 . S
C497 C501 1.376 . S
C498 C496 1.394 . S
C498 C499 1.369 1_556 S
C498 C502 1.531 1_556 S
C499 C498 1.369 1_554 S
C499 C500 1.410 1_554 S
C499 C507 1.503 . S
C500 C499 1.410 1_556 S
C500 C501 1.392 . S
C500 C503 1.511 1_556 S
C501 C497 1.376 . S
C501 C500 1.392 . S
C501 H513 0.929 . S
C502 C498 1.531 1_554 S
C502 H514 0.960 . S
C502 H515 0.962 . S
C502 H516 0.960 1_554 S
C503 C500 1.511 1_554 S
C503 H517 0.961 . S
C503 H518 0.961 . S
C503 H519 0.961 1_554 S
C504 C505 1.370 . S
C504 C506 1.363 . S
C504 H520 0.931 . S
C505 C504 1.370 . S
C505 C509 1.408 . S
C506 C504 1.363 . S
C506 C507 1.370 . S
C506 C510 1.524 . S
C507 C499 1.503 . S
C507 C506 1.370 . S
C507 C508 1.403 . S
C508 C507 1.403 . S
C508 C509 1.404 . S
C508 C511 1.539 1_554 S
C509 C505 1.408 . S
C509 C508 1.404 . S
C509 H521 0.930 . S
C510 C506 1.524 . S
C510 H522 0.956 . S
C510 H523 0.961 . S
C510 H524 0.961 . S
C511 C508 1.539 1_556 S
C511 H525 0.958 . S
C511 H526 0.961 . S
C511 H527 0.960 . S
H512 C496 0.931 . S
H513 C501 0.929 . S
H514 C502 0.960 . S
H515 C502 0.962 . S
H516 C502 0.960 1_556 S
H517 C503 0.961 . S
H518 C503 0.961 . S
H519 C503 0.961 1_556 S
H520 C504 0.931 . S
H521 C509 0.930 . S
H522 C510 0.956 . S
H523 C510 0.961 . S
H524 C510 0.961 . S
H525 C511 0.958 . S
H526 C511 0.961 . S
H527 C511 0.960 . S
C528 C529 1.391 . S
C528 C530 1.394 . S
C528 H544 0.931 . S
C529 C528 1.391 . S
C529 C533 1.376 . S
C530 C528 1.394 . S
C530 C531 1.369 . S
C530 C534 1.531 1_565 S
C531 C530 1.369 . S
C531 C532 1.410 . S
C531 C539 1.503 1_565 S
C532 C531 1.410 . S
C532 C533 1.392 . S
C532 C535 1.511 . S
C533 C529 1.376 . S
C533 C532 1.392 . S
C533 H545 0.929 . S
C534 C530 1.531 1_545 S
C534 H546 0.960 . S
C534 H547 0.962 . S
C534 H548 0.960 . S
C535 C532 1.511 . S
C535 H549 0.961 . S
C535 H550 0.961 . S
C535 H551 0.961 . S
C536 C537 1.370 . S
C536 C538 1.363 . S
C536 H552 0.931 . S
C537 C536 1.370 . S
C537 C541 1.408 . S
C538 C536 1.363 . S
C538 C539 1.370 . S
C538 C542 1.524 . S
C539 C531 1.503 1_545 S
C539 C538 1.370 . S
C539 C540 1.403 1_545 S
C540 C539 1.403 1_565 S
C540 C541 1.404 1_565 S
C540 C543 1.539 . S
C541 C537 1.408 . S
C541 C540 1.404 1_545 S
C541 H553 0.930 . S
C542 C538 1.524 . S
C542 H554 0.956 . S
C542 H555 0.961 . S
C542 H556 0.961 . S
C543 C540 1.539 . S
C543 H557 0.958 . S
C543 H558 0.961 . S
C543 H559 0.960 . S
H544 C528 0.931 . S
H545 C533 0.929 . S
H546 C534 0.960 . S
H547 C534 0.962 . S
H548 C534 0.960 . S
H549 C535 0.961 . S
H550 C535 0.961 . S
H551 C535 0.961 . S
H552 C536 0.931 . S
H553 C541 0.930 . S
H554 C542 0.956 . S
H555 C542 0.961 . S
H556 C542 0.961 . S
H557 C543 0.958 . S
H558 C543 0.961 . S
H559 C543 0.960 . S
C560 C561 1.391 . S
C560 C562 1.394 . S
C560 H576 0.931 . S
C561 C560 1.391 . S
C561 C565 1.376 . S
C562 C560 1.394 . S
C562 C563 1.369 . S
C562 C566 1.538 . S
C563 C562 1.369 . S
C563 C564 1.410 . S
C563 C571 1.503 1_455 S
C564 C563 1.410 . S
C564 C565 1.392 . S
C564 C567 1.511 . S
C565 C561 1.376 . S
C565 C564 1.392 . S
C565 H577 0.929 . S
C566 C562 1.538 . S
C566 H578 0.960 . S
C566 H579 0.945 1_455 S
C566 H580 0.969 . S
C567 C564 1.511 . S
C567 H581 0.961 . S
C567 H582 0.961 . S
C567 H583 0.961 . S
C568 C569 1.370 . S
C568 C570 1.363 . S
C568 H584 0.931 . S
C569 C568 1.370 . S
C569 C573 1.408 . S
C570 C568 1.363 . S
C570 C571 1.370 . S
C570 C574 1.524 . S
C571 C563 1.503 1_655 S
C571 C570 1.370 . S
C571 C572 1.403 1_655 S
C572 C571 1.403 1_455 S
C572 C573 1.404 1_455 S
C572 C575 1.539 . S
C573 C569 1.408 . S
C573 C572 1.404 1_655 S
C573 H585 0.930 . S
C574 C570 1.524 . S
C574 H586 0.956 . S
C574 H587 0.961 . S
C574 H588 0.961 . S
C575 C572 1.539 . S
C575 H589 0.958 . S
C575 H590 0.961 . S
C575 H591 0.960 . S
H576 C560 0.931 . S
H577 C565 0.929 . S
H578 C566 0.960 . S
H579 C566 0.945 1_655 S
H580 C566 0.969 . S
H581 C567 0.961 . S
H582 C567 0.961 . S
H583 C567 0.961 . S
H584 C568 0.931 . S
H585 C573 0.930 . S
H586 C574 0.956 . S
H587 C574 0.961 . S
H588 C574 0.961 . S
H589 C575 0.958 . S
H590 C575 0.961 . S
H591 C575 0.960 . S
C592 C593 1.391 . S
C592 C594 1.394 . S
C592 H608 0.931 . S
C593 C592 1.391 . S
C593 C597 1.376 . S
C594 C592 1.394 . S
C594 C595 1.369 . S
C594 C598 1.531 . S
C595 C594 1.369 . S
C595 C596 1.410 1_545 S
C595 C603 1.503 1_545 S
C596 C595 1.410 1_565 S
C596 C597 1.392 1_565 S
C596 C599 1.511 . S
C597 C593 1.376 . S
C597 C596 1.392 1_545 S
C597 H609 0.929 . S
C598 C594 1.531 . S
C598 H610 0.960 . S
C598 H611 0.962 . S
C598 H612 0.960 . S
C599 C596 1.511 . S
C599 H613 0.961 . S
C599 H614 0.961 . S
C599 H615 0.961 . S
C600 C601 1.370 . S
C600 C602 1.363 . S
C600 H616 0.931 . S
C601 C600 1.370 . S
C601 C605 1.408 . S
C602 C600 1.363 . S
C602 C603 1.370 . S
C602 C606 1.524 1_565 S
C603 C595 1.503 1_565 S
C603 C602 1.370 . S
C603 C604 1.403 . S
C604 C603 1.403 . S
C604 C605 1.404 . S
C604 C607 1.539 . S
C605 C601 1.408 . S
C605 C604 1.404 . S
C605 H617 0.930 . S
C606 C602 1.524 1_545 S
C606 H618 0.956 . S
C606 H619 0.961 . S
C606 H620 0.961 . S
C607 C604 1.539 . S
C607 H621 0.958 . S
C607 H622 0.961 . S
C607 H623 0.960 . S
H608 C592 0.931 . S
H609 C597 0.929 . S
H610 C598 0.960 . S
H611 C598 0.962 . S
H612 C598 0.960 . S
H613 C599 0.961 . S
H614 C599 0.961 . S
H615 C599 0.961 . S
H616 C600 0.931 . S
H617 C605 0.930 . S
H618 C606 0.956 . S
H619 C606 0.961 . S
H620 C606 0.961 . S
H621 C607 0.958 . S
H622 C607 0.961 . S
H623 C607 0.960 . S
C624 C625 1.391 . S
C624 C626 1.394 . S
C624 H640 0.931 . S
C625 C624 1.391 . S
C625 C629 1.376 . S
C626 C624 1.394 . S
C626 C627 1.369 . S
C626 C630 1.531 . S
C627 C626 1.369 . S
C627 C628 1.410 1_455 S
C627 C635 1.503 1_455 S
C628 C627 1.410 1_655 S
C628 C629 1.392 1_655 S
C628 C631 1.511 . S
C629 C625 1.376 . S
C629 C628 1.392 1_455 S
C629 H641 0.929 . S
C630 C626 1.531 . S
C630 H642 0.960 . S
C630 H643 0.962 . S
C630 H644 0.960 . S
C631 C628 1.511 . S
C631 H645 0.961 . S
C631 H646 0.961 . S
C631 H647 0.961 . S
C632 C633 1.370 . S
C632 C634 1.363 . S
C632 H648 0.931 . S
C633 C632 1.370 . S
C633 C637 1.408 . S
C634 C632 1.363 . S
C634 C635 1.370 . S
C634 C638 1.524 1_655 S
C635 C627 1.503 1_655 S
C635 C634 1.370 . S
C635 C636 1.403 . S
C636 C635 1.403 . S
C636 C637 1.404 . S
C636 C639 1.539 . S
C637 C633 1.408 . S
C637 C636 1.404 . S
C637 H649 0.930 . S
C638 C634 1.524 1_455 S
C638 H650 0.956 . S
C638 H651 0.961 . S
C638 H652 0.961 . S
C639 C636 1.539 . S
C639 H653 0.958 . S
C639 H654 0.961 . S
C639 H655 0.960 . S
H640 C624 0.931 . S
H641 C629 0.929 . S
H642 C630 0.960 . S
H643 C630 0.962 . S
H644 C630 0.960 . S
H645 C631 0.961 . S
H646 C631 0.961 . S
H647 C631 0.961 . S
H648 C632 0.931 . S
H649 C637 0.930 . S
H650 C638 0.956 . S
H651 C638 0.961 . S
H652 C638 0.961 . S
H653 C639 0.958 . S
H654 C639 0.961 . S
H655 C639 0.960 . S
C656 C657 1.391 . S
C656 C658 1.394 1_545 S
C656 H672 0.931 1_545 S
C657 C656 1.391 . S
C657 C661 1.376 . S
C658 C656 1.394 1_565 S
C658 C659 1.369 1_565 S
C658 C662 1.531 . S
C659 C658 1.369 1_545 S
C659 C660 1.410 . S
C659 C667 1.503 1_445 S
C660 C659 1.410 . S
C660 C661 1.392 . S
C660 C663 1.511 1_455 S
C661 C657 1.376 . S
C661 C660 1.392 . S
C661 H673 0.929 . S
C662 C658 1.531 . S
C662 H674 0.960 . S
C662 H675 0.962 . S
C662 H676 0.960 . S
C663 C660 1.511 1_655 S
C663 H677 0.961 1_655 S
C663 H678 0.961 . S
C663 H679 0.962 . S
C664 C665 1.370 . S
C664 C666 1.364 1_565 S
C664 H680 0.931 . S
C665 C664 1.370 . S
C665 C669 1.408 . S
C666 C664 1.364 1_545 S
C666 C667 1.371 1_545 S
C666 C670 1.523 . S
C667 C659 1.503 1_665 S
C667 C666 1.371 1_565 S
C667 C668 1.403 . S
C668 C667 1.403 . S
C668 C669 1.404 . S
C668 C671 1.539 . S
C669 C665 1.408 . S
C669 C668 1.404 . S
C669 H681 0.930 . S
C670 C666 1.523 . S
C670 H682 0.956 . S
C670 H683 0.961 . S
C670 H684 0.961 . S
C671 C668 1.539 . S
C671 H685 0.958 1_655 S
C671 H686 0.961 . S
C671 H687 0.960 1_655 S
H672 C656 0.931 1_565 S
H673 C661 0.929 . S
H674 C662 0.960 . S
H675 C662 0.962 . S
H676 C662 0.960 . S
H677 C663 0.961 1_455 S
H678 C663 0.961 . S
H679 C663 0.962 . S
H680 C664 0.931 . S
H681 C669 0.930 . S
H682 C670 0.956 . S
H683 C670 0.961 . S
H684 C670 0.961 . S
H685 C671 0.958 1_455 S
H686 C671 0.961 . S
H687 C671 0.960 1_455 S
C688 C689 1.391 . S
C688 C690 1.394 1_455 S
C688 H704 0.931 1_455 S
C689 C688 1.391 . S
C689 C693 1.376 . S
C690 C688 1.394 1_655 S
C690 C691 1.369 1_655 S
C690 C694 1.531 . S
C691 C690 1.369 1_455 S
C691 C692 1.410 . S
C691 C699 1.503 1_465 S
C692 C691 1.410 . S
C692 C693 1.392 . S
C692 C695 1.511 1_565 S
C693 C689 1.376 . S
C693 C692 1.392 . S
C693 H705 0.929 . S
C694 C690 1.531 . S
C694 H706 0.960 . S
C694 H707 0.962 . S
C694 H708 0.960 . S
C695 C692 1.511 1_545 S
C695 H709 0.961 . S
C695 H710 0.961 . S
C695 H711 0.961 . S
C696 C697 1.370 . S
C696 C698 1.363 . S
C696 H712 0.931 . S
C697 C696 1.370 . S
C697 C701 1.408 . S
C698 C696 1.363 . S
C698 C699 1.370 . S
C698 C702 1.524 . S
C699 C691 1.503 1_645 S
C699 C698 1.370 . S
C699 C700 1.403 . S
C700 C699 1.403 . S
C700 C701 1.404 . S
C700 C703 1.539 . S
C701 C697 1.408 . S
C701 C700 1.404 . S
C701 H713 0.930 . S
C702 C698 1.524 . S
C702 H714 0.956 1_545 S
C702 H715 0.961 1_655 S
C702 H716 0.961 . S
C703 C700 1.539 . S
C703 H717 0.958 . S
C703 H718 0.961 1_655 S
C703 H719 0.960 1_655 S
H704 C688 0.931 1_655 S
H705 C693 0.929 . S
H706 C694 0.960 . S
H707 C694 0.962 . S
H708 C694 0.960 . S
H709 C695 0.961 . S
H710 C695 0.961 . S
H711 C695 0.961 . S
H712 C696 0.931 . S
H713 C701 0.930 . S
H714 C702 0.956 1_565 S
H715 C702 0.961 1_455 S
H716 C702 0.961 . S
H717 C703 0.958 . S
H718 C703 0.961 1_455 S
H719 C703 0.960 1_455 S
C720 C721 1.391 . S
C720 C722 1.394 1_565 S
C720 H736 0.931 . S
C721 C720 1.391 . S
C721 C725 1.376 . S
C722 C720 1.394 1_545 S
C722 C723 1.369 1_545 S
C722 C726 1.531 . S
C723 C722 1.369 1_565 S
C723 C724 1.410 . S
C723 C731 1.503 1_465 S
C724 C723 1.410 . S
C724 C725 1.392 . S
C724 C727 1.511 . S
C725 C721 1.376 . S
C725 C724 1.392 . S
C725 H737 0.929 . S
C726 C722 1.531 . S
C726 H738 0.960 . S
C726 H739 0.962 . S
C726 H740 0.960 . S
C727 C724 1.511 . S
C727 H741 0.961 . S
C727 H742 0.961 1_455 S
C727 H743 0.961 . S
C728 C729 1.370 . S
C728 C730 1.363 1_545 S
C728 H744 0.931 1_545 S
C729 C728 1.370 . S
C729 C733 1.408 . S
C730 C728 1.363 1_565 S
C730 C731 1.370 1_565 S
C730 C734 1.524 . S
C731 C723 1.503 1_645 S
C731 C730 1.370 1_545 S
C731 C732 1.403 . S
C732 C731 1.403 . S
C732 C733 1.404 . S
C732 C735 1.539 1_655 S
C733 C729 1.408 . S
C733 C732 1.404 . S
C733 H745 0.930 . S
C734 C730 1.524 . S
C734 H746 0.956 . S
C734 H747 0.961 . S
C734 H748 0.961 . S
C735 C732 1.539 1_455 S
C735 H749 0.958 . S
C735 H750 0.961 1_455 S
C735 H751 0.960 . S
H736 C720 0.931 . S
H737 C725 0.929 . S
H738 C726 0.960 . S
H739 C726 0.962 . S
H740 C726 0.960 . S
H741 C727 0.961 . S
H742 C727 0.961 1_655 S
H743 C727 0.961 . S
H744 C728 0.931 1_565 S
H745 C733 0.930 . S
H746 C734 0.956 . S
H747 C734 0.961 . S
H748 C734 0.961 . S
H749 C735 0.958 . S
H750 C735 0.961 1_655 S
H751 C735 0.960 . S
C752 C753 1.391 . S
C752 C754 1.394 . S
C752 H768 0.931 . S
C753 C752 1.391 . S
C753 C757 1.376 . S
C754 C752 1.394 . S
C754 C755 1.369 . S
C754 C758 1.531 . S
C755 C754 1.369 . S
C755 C756 1.410 1_655 S
C755 C763 1.503 1_665 S
C756 C755 1.410 1_455 S
C756 C757 1.392 1_455 S
C756 C759 1.511 . S
C757 C753 1.376 . S
C757 C756 1.392 1_655 S
C757 H769 0.929 . S
C758 C754 1.531 . S
C758 H770 0.960 1_565 S
C758 H771 0.962 1_565 S
C758 H772 0.960 . S
C759 C756 1.511 . S
C759 H773 0.961 . S
C759 H774 0.961 . S
C759 H775 0.961 . S
C760 C761 1.370 . S
C760 C762 1.363 1_455 S
C760 H776 0.931 1_455 S
C761 C760 1.370 . S
C761 C765 1.408 . S
C762 C760 1.363 1_655 S
C762 C763 1.370 1_655 S
C762 C766 1.524 . S
C763 C755 1.503 1_445 S
C763 C762 1.370 1_455 S
C763 C764 1.403 . S
C764 C763 1.403 . S
C764 C765 1.404 . S
C764 C767 1.539 1_545 S
C765 C761 1.408 . S
C765 C764 1.404 . S
C765 H777 0.930 . S
C766 C762 1.524 . S
C766 H778 0.956 . S
C766 H779 0.961 . S
C766 H780 0.961 . S
C767 C764 1.539 1_565 S
C767 H781 0.958 . S
C767 H782 0.961 . S
C767 H783 0.960 . S
H768 C752 0.931 . S
H769 C757 0.929 . S
H770 C758 0.960 1_545 S
H771 C758 0.962 1_545 S
H772 C758 0.960 . S
H773 C759 0.961 . S
H774 C759 0.961 . S
H775 C759 0.961 . S
H776 C760 0.931 1_655 S
H777 C765 0.930 . S
H778 C766 0.956 . S
H779 C766 0.961 . S
H780 C766 0.961 . S
H781 C767 0.958 . S
H782 C767 0.961 . S
H783 C767 0.960 . S
C784 C785 1.391 . S
C784 C786 1.394 . S
C784 H800 0.931 . S
C785 C784 1.391 . S
C785 C789 1.376 . S
C786 C784 1.394 . S
C786 C787 1.369 . S
C786 C790 1.531 . S
C787 C786 1.369 . S
C787 C788 1.410 . S
C787 C795 1.503 . S
C788 C787 1.410 . S
C788 C789 1.392 . S
C788 C791 1.511 . S
C789 C785 1.376 . S
C789 C788 1.392 . S
C789 H801 0.929 . S
C790 C786 1.531 . S
C790 H802 0.960 . S
C790 H803 0.962 . S
C790 H804 0.960 . S
C791 C788 1.511 . S
C791 H805 0.961 . S
C791 H806 0.961 . S
C791 H807 0.961 . S
C792 C793 1.370 . S
C792 C794 1.363 . S
C792 H808 0.931 . S
C793 C792 1.370 . S
C793 C797 1.408 . S
C794 C792 1.363 . S
C794 C795 1.370 . S
C794 C798 1.524 . S
C795 C787 1.503 . S
C795 C794 1.370 . S
C795 C796 1.403 . S
C796 C795 1.403 . S
C796 C797 1.404 . S
C796 C799 1.539 . S
C797 C793 1.408 . S
C797 C796 1.404 . S
C797 H809 0.930 . S
C798 C794 1.524 . S
C798 H810 0.956 . S
C798 H811 0.961 . S
C798 H812 0.961 . S
C799 C796 1.539 . S
C799 H813 0.958 . S
C799 H814 0.961 . S
C799 H815 0.960 . S
H800 C784 0.931 . S
H801 C789 0.929 . S
H802 C790 0.960 . S
H803 C790 0.962 . S
H804 C790 0.960 . S
H805 C791 0.961 . S
H806 C791 0.961 . S
H807 C791 0.961 . S
H808 C792 0.931 . S
H809 C797 0.930 . S
H810 C798 0.956 . S
H811 C798 0.961 . S
H812 C798 0.961 . S
H813 C799 0.958 . S
H814 C799 0.961 . S
H815 C799 0.960 . S
C816 C817 1.391 . S
C816 C818 1.394 . S
C816 H832 0.931 . S
C817 C816 1.391 . S
C817 C821 1.376 . S
C818 C816 1.394 . S
C818 C819 1.369 . S
C818 C822 1.531 . S
C819 C818 1.369 . S
C819 C820 1.410 . S
C819 C827 1.503 . S
C820 C819 1.410 . S
C820 C821 1.392 . S
C820 C823 1.511 . S
C821 C817 1.376 . S
C821 C820 1.392 . S
C821 H833 0.929 . S
C822 C818 1.531 . S
C822 H834 0.960 . S
C822 H835 0.962 . S
C822 H836 0.960 . S
C823 C820 1.511 . S
C823 H837 0.961 . S
C823 H838 0.961 . S
C823 H839 0.961 . S
C824 C825 1.370 . S
C824 C826 1.363 . S
C824 H840 0.931 . S
C825 C824 1.370 . S
C825 C829 1.408 . S
C826 C824 1.363 . S
C826 C827 1.370 . S
C826 C830 1.524 . S
C827 C819 1.503 . S
C827 C826 1.370 . S
C827 C828 1.403 . S
C828 C827 1.403 . S
C828 C829 1.404 . S
C828 C831 1.539 . S
C829 C825 1.408 . S
C829 C828 1.404 . S
C829 H841 0.930 . S
C830 C826 1.524 . S
C830 H842 0.956 . S
C830 H843 0.961 . S
C830 H844 0.961 . S
C831 C828 1.539 . S
C831 H845 0.958 . S
C831 H846 0.961 . S
C831 H847 0.960 . S
H832 C816 0.931 . S
H833 C821 0.929 . S
H834 C822 0.960 . S
H835 C822 0.962 . S
H836 C822 0.960 . S
H837 C823 0.961 . S
H838 C823 0.961 . S
H839 C823 0.961 . S
H840 C824 0.931 . S
H841 C829 0.930 . S
H842 C830 0.956 . S
H843 C830 0.961 . S
H844 C830 0.961 . S
H845 C831 0.958 . S
H846 C831 0.961 . S
H847 C831 0.960 . S
C848 C849 1.391 . S
C848 C850 1.394 . S
C848 H864 0.931 . S
C849 C848 1.391 . S
C849 C853 1.376 . S
C850 C848 1.394 . S
C850 C851 1.369 . S
C850 C854 1.531 . S
C851 C850 1.369 . S
C851 C852 1.410 . S
C851 C859 1.503 . S
C852 C851 1.410 . S
C852 C853 1.392 . S
C852 C855 1.511 . S
C853 C849 1.376 . S
C853 C852 1.392 . S
C853 H865 0.929 . S
C854 C850 1.531 . S
C854 H866 0.960 . S
C854 H867 0.962 . S
C854 H868 0.960 . S
C855 C852 1.511 . S
C855 H869 0.961 . S
C855 H870 0.961 . S
C855 H871 0.961 . S
C856 C857 1.370 . S
C856 C858 1.363 . S
C856 H872 0.931 . S
C857 C856 1.370 . S
C857 C861 1.408 . S
C858 C856 1.363 . S
C858 C859 1.370 . S
C858 C862 1.524 . S
C859 C851 1.503 . S
C859 C858 1.370 . S
C859 C860 1.403 . S
C860 C859 1.403 . S
C860 C861 1.404 . S
C860 C863 1.539 . S
C861 C857 1.408 . S
C861 C860 1.404 . S
C861 H873 0.930 . S
C862 C858 1.524 . S
C862 H874 0.956 . S
C862 H875 0.961 . S
C862 H876 0.961 . S
C863 C860 1.539 . S
C863 H877 0.958 . S
C863 H878 0.961 . S
C863 H879 0.960 . S
H864 C848 0.931 . S
H865 C853 0.929 . S
H866 C854 0.960 . S
H867 C854 0.962 . S
H868 C854 0.960 . S
H869 C855 0.961 . S
H870 C855 0.961 . S
H871 C855 0.961 . S
H872 C856 0.931 . S
H873 C861 0.930 . S
H874 C862 0.956 . S
H875 C862 0.961 . S
H876 C862 0.961 . S
H877 C863 0.958 . S
H878 C863 0.961 . S
H879 C863 0.960 . S
C880 C881 1.391 . S
C880 C882 1.394 . S
C880 H896 0.931 . S
C881 C880 1.391 . S
C881 C885 1.376 . S
C882 C880 1.394 . S
C882 C883 1.369 . S
C882 C886 1.531 . S
C883 C882 1.369 . S
C883 C884 1.410 . S
C883 C891 1.503 . S
C884 C883 1.410 . S
C884 C885 1.392 . S
C884 C887 1.511 . S
C885 C881 1.376 . S
C885 C884 1.392 . S
C885 H897 0.929 . S
C886 C882 1.531 . S
C886 H898 0.960 . S
C886 H899 0.962 . S
C886 H900 0.960 . S
C887 C884 1.511 . S
C887 H901 0.961 . S
C887 H902 0.961 . S
C887 H903 0.961 . S
C888 C889 1.370 . S
C888 C890 1.363 . S
C888 H904 0.931 . S
C889 C888 1.370 . S
C889 C893 1.408 . S
C890 C888 1.363 . S
C890 C891 1.370 . S
C890 C894 1.524 . S
C891 C883 1.503 . S
C891 C890 1.370 . S
C891 C892 1.403 . S
C892 C891 1.403 . S
C892 C893 1.404 . S
C892 C895 1.539 . S
C893 C889 1.408 . S
C893 C892 1.404 . S
C893 H905 0.930 . S
C894 C890 1.524 . S
C894 H906 0.956 . S
C894 H907 0.961 . S
C894 H908 0.961 . S
C895 C892 1.539 . S
C895 H909 0.958 . S
C895 H910 0.961 . S
C895 H911 0.960 . S
H896 C880 0.931 . S
H897 C885 0.929 . S
H898 C886 0.960 . S
H899 C886 0.962 . S
H900 C886 0.960 . S
H901 C887 0.961 . S
H902 C887 0.961 . S
H903 C887 0.961 . S
H904 C888 0.931 . S
H905 C893 0.930 . S
H906 C894 0.956 . S
H907 C894 0.961 . S
H908 C894 0.961 . S
H909 C895 0.958 . S
H910 C895 0.961 . S
H911 C895 0.960 . S
C273 C5 0.946 . S
C281 C67 0.908 . S
C305 C101 0.919 . S
C313 C39 0.926 . S
C337 C73 0.935 . S
C345 C135 0.916 . S
C369 C33 0.840 . S
C377 C107 0.902 . S
C401 C271 0.884 . S
C409 C141 0.897 . S
C433 C169 0.930 . S
C441 C175 0.927 . S
C465 C203 0.902 . S
C473 C209 0.927 . S
C497 C243 0.876 . S
C505 C237 0.891 . S
C529 C88 1.606 . S
C537 C20 1.578 . S
C561 C54 1.614 . S
C569 C122 1.579 . S
C593 C156 1.570 . S
C601 C224 1.594 . S
C625 C190 1.581 . S
C633 C258 1.598 . S
C657 C2 1.138 . S
C665 C70 1.134 . S
C689 C36 1.101 . S
C697 C104 1.116 . S
C721 C206 1.108 . S
C729 C138 1.120 . S
C753 C240 1.110 . S
C761 C172 1.124 . S
C785 C9 1.759 . S
C793 C179 1.781 . S
C817 C213 1.762 . S
C825 C43 1.773 . S
C849 C247 1.774 . S
C857 C77 1.779 . S
C881 C111 1.760 . S
C889 C145 1.780 . S
