# Generated by pormake.
# Topology uki, (4)-cn, num edge types: 1
# Building blocks:
#     Node 0, Type 0, BuildingBlock: ESEHIV_clean_sbu_0, # of connection points: 4
#     Node 1, Type 0, BuildingBlock: ESEHIV_clean_sbu_0, # of connection points: 4
#     Node 2, Type 0, BuildingBlock: ESEHIV_clean_sbu_0, # of connection points: 4
#     Node 3, Type 0, BuildingBlock: ESEHIV_clean_sbu_0, # of connection points: 4
#     Node 4, Type 0, BuildingBlock: ESEHIV_clean_sbu_0, # of connection points: 4
#     Node 5, Type 0, BuildingBlock: ESEHIV_clean_sbu_0, # of connection points: 4
#     Node 6, Type 0, BuildingBlock: ESEHIV_clean_sbu_0, # of connection points: 4
#     Node 7, Type 0, BuildingBlock: ESEHIV_clean_sbu_0, # of connection points: 4
#     Node 8, Type 0, BuildingBlock: ESEHIV_clean_sbu_0, # of connection points: 4
#     Node 9, Type 0, BuildingBlock: ESEHIV_clean_sbu_0, # of connection points: 4
#     Node 10, Type 0, BuildingBlock: ESEHIV_clean_sbu_0, # of connection points: 4
#     Node 11, Type 0, BuildingBlock: ESEHIV_clean_sbu_0, # of connection points: 4
#     Node 12, Type 0, BuildingBlock: ESEHIV_clean_sbu_0, # of connection points: 4
#     Node 13, Type 0, BuildingBlock: ESEHIV_clean_sbu_0, # of connection points: 4
#     Node 14, Type 0, BuildingBlock: ESEHIV_clean_sbu_0, # of connection points: 4
#     Node 15, Type 0, BuildingBlock: ESEHIV_clean_sbu_0, # of connection points: 4
#     Edge 16, Type (0, 0), BuildingBlock: CIFDUS_clean_linker_0, # of connection points: 2
#     Edge 17, Type (0, 0), BuildingBlock: CIFDUS_clean_linker_0, # of connection points: 2
#     Edge 18, Type (0, 0), BuildingBlock: CIFDUS_clean_linker_0, # of connection points: 2
#     Edge 19, Type (0, 0), BuildingBlock: CIFDUS_clean_linker_0, # of connection points: 2
#     Edge 20, Type (0, 0), BuildingBlock: CIFDUS_clean_linker_0, # of connection points: 2
#     Edge 21, Type (0, 0), BuildingBlock: CIFDUS_clean_linker_0, # of connection points: 2
#     Edge 22, Type (0, 0), BuildingBlock: CIFDUS_clean_linker_0, # of connection points: 2
#     Edge 23, Type (0, 0), BuildingBlock: CIFDUS_clean_linker_0, # of connection points: 2
#     Edge 24, Type (0, 0), BuildingBlock: CIFDUS_clean_linker_0, # of connection points: 2
#     Edge 25, Type (0, 0), BuildingBlock: CIFDUS_clean_linker_0, # of connection points: 2
#     Edge 26, Type (0, 0), BuildingBlock: CIFDUS_clean_linker_0, # of connection points: 2
#     Edge 27, Type (0, 0), BuildingBlock: CIFDUS_clean_linker_0, # of connection points: 2
#     Edge 28, Type (0, 0), BuildingBlock: CIFDUS_clean_linker_0, # of connection points: 2
#     Edge 29, Type (0, 0), BuildingBlock: CIFDUS_clean_linker_0, # of connection points: 2
#     Edge 30, Type (0, 0), BuildingBlock: CIFDUS_clean_linker_0, # of connection points: 2
#     Edge 31, Type (0, 0), BuildingBlock: CIFDUS_clean_linker_0, # of connection points: 2
#     Edge 32, Type (0, 0), BuildingBlock: CIFDUS_clean_linker_0, # of connection points: 2
#     Edge 33, Type (0, 0), BuildingBlock: CIFDUS_clean_linker_0, # of connection points: 2
#     Edge 34, Type (0, 0), BuildingBlock: CIFDUS_clean_linker_0, # of connection points: 2
#     Edge 35, Type (0, 0), BuildingBlock: CIFDUS_clean_linker_0, # of connection points: 2
#     Edge 36, Type (0, 0), BuildingBlock: CIFDUS_clean_linker_0, # of connection points: 2
#     Edge 37, Type (0, 0), BuildingBlock: CIFDUS_clean_linker_0, # of connection points: 2
#     Edge 38, Type (0, 0), BuildingBlock: CIFDUS_clean_linker_0, # of connection points: 2
#     Edge 39, Type (0, 0), BuildingBlock: CIFDUS_clean_linker_0, # of connection points: 2
#     Edge 40, Type (0, 0), BuildingBlock: CIFDUS_clean_linker_0, # of connection points: 2
#     Edge 41, Type (0, 0), BuildingBlock: CIFDUS_clean_linker_0, # of connection points: 2
#     Edge 42, Type (0, 0), BuildingBlock: CIFDUS_clean_linker_0, # of connection points: 2
#     Edge 43, Type (0, 0), BuildingBlock: CIFDUS_clean_linker_0, # of connection points: 2
#     Edge 44, Type (0, 0), BuildingBlock: CIFDUS_clean_linker_0, # of connection points: 2
#     Edge 45, Type (0, 0), BuildingBlock: CIFDUS_clean_linker_0, # of connection points: 2
#     Edge 46, Type (0, 0), BuildingBlock: CIFDUS_clean_linker_0, # of connection points: 2
#     Edge 47, Type (0, 0), BuildingBlock: CIFDUS_clean_linker_0, # of connection points: 2
# Relax obj value: 0.107
# Max RMSD: 0.194
# Mean RMSD: 0.172
data_MOF--net-uki--node1-ESEHIV_clean_sbu_0--edge1-CIFDUS_clean_linker_0
_symmetry_space_group_name_H-M    P1
_symmetry_Int_Tables_number       1
_symmetry_cell_setting            triclinic
loop_
_symmetry_equiv_pos_as_xyz
'x, y, z'
_cell_length_a     32.091743
_cell_length_b     25.26923
_cell_length_c     75.552362
_cell_angle_alpha  89.707348
_cell_angle_beta   89.965756
_cell_angle_gamma 90.74216
loop_
_atom_site_label
_atom_site_type_symbol
_atom_site_fract_x
_atom_site_fract_y
_atom_site_fract_z
_atom_type_partial_charge
Cu0 Cu 0.11704 0.26854 0.31784 0.0
N1 N 0.07384 0.31379 0.3113 0.0
N2 N 0.02956 0.35646 0.29345 0.0
C3 C 0.06035 0.32055 0.29457 0.0
C4 C 0.02367 0.37298 0.31026 0.0
C5 C 0.05106 0.34667 0.32122 0.0
O6 O 0.16487 0.29226 0.30395 0.0
C7 C 0.06161 0.18161 0.31604 0.0
O8 O 0.03599 0.21715 0.32225 0.0
H9 H 0.07344 0.29981 0.28342 0.0
H10 H 0.05414 0.35119 0.33538 0.0
N11 N 0.13176 0.27447 0.34179 0.0
N12 N 0.17214 0.28027 0.36594 0.0
C13 C 0.17085 0.28067 0.34805 0.0
C14 C 0.10734 0.26973 0.3562 0.0
C15 C 0.13213 0.27332 0.37112 0.0
C16 C 0.17532 0.34095 0.30544 0.0
O17 O 0.15441 0.37067 0.31647 0.0
H18 H 0.19797 0.28397 0.33958 0.0
H19 H 0.07395 0.26342 0.35588 0.0
O20 O 0.09942 0.19523 0.31302 0.0
H21 H 1.00076 0.40135 0.31445 0.0
H22 H 0.12144 0.27127 0.3847 0.0
Cu23 Cu 0.24917 0.93338 0.72329 0.0
N24 N 0.19403 0.94413 0.7298 0.0
N25 N 0.12745 0.96841 0.72859 0.0
C26 C 0.16422 0.96667 0.71991 0.0
C27 C 0.13457 0.94584 0.74454 0.0
C28 C 0.17568 0.93088 0.74522 0.0
O29 O 0.24878 0.90533 0.69921 0.0
C30 C 0.27045 0.03779 0.73498 0.0
O31 O 0.23156 0.03955 0.74033 0.0
H32 H 0.1695 0.98117 0.70658 0.0
H33 H 0.19125 0.91208 0.75623 0.0
N34 N 0.27223 0.88528 0.73911 0.0
N35 N 0.31427 0.85472 0.76015 0.0
C36 C 0.30106 0.89778 0.75134 0.0
C37 C 0.26642 0.83254 0.74039 0.0
C38 C 0.29282 0.81341 0.75329 0.0
C39 C 0.27184 0.86815 0.69368 0.0
O40 O 0.30128 0.84977 0.70399 0.0
H41 H 0.31335 0.93743 0.75327 0.0
H42 H 0.24545 0.80956 0.73217 0.0
O43 O 0.2825 0.99818 0.726 0.0
H44 H 0.11201 0.94145 0.75511 0.0
H45 H 0.29639 0.77242 0.75718 0.0
Cu46 Cu 0.95181 0.78582 0.31131 0.0
N47 N 0.99398 0.73784 0.3057 0.0
N48 N 0.03614 0.6894 0.28867 0.0
C49 C 1.00675 0.7273 0.2891 0.0
C50 C 0.0419 0.67557 0.3058 0.0
C51 C 1.01581 0.70537 0.31625 0.0
O52 O 0.90511 0.76525 0.29631 0.0
C53 C 1.00999 0.87075 0.3104 0.0
O54 O 0.03537 0.83331 0.31553 0.0
H55 H 0.99389 0.74657 0.27755 0.0
H56 H 1.01282 0.70323 0.33049 0.0
N57 N 0.93261 0.77987 0.33472 0.0
N58 N 0.88675 0.77632 0.35714 0.0
C59 C 0.89208 0.77871 0.33941 0.0
C60 C 0.95393 0.77886 0.35005 0.0
C61 C 0.92571 0.77659 0.36391 0.0
C62 C 0.8915 0.71804 0.29868 0.0
O63 O 0.90921 0.6886 0.31086 0.0
H64 H 0.86692 0.78059 0.32991 0.0
H65 H 0.98754 0.78005 0.35108 0.0
O66 O 0.97188 0.85873 0.30739 0.0
H67 H 0.06369 0.64645 0.31055 0.0
H68 H 0.93334 0.77462 0.37785 0.0
Cu69 Cu 0.77597 0.0923 0.70648 0.0
N70 N 0.83413 0.09487 0.70565 0.0
N71 N 0.90142 0.07476 0.70854 0.0
C72 C 0.8616 0.05706 0.70996 0.0
C73 C 0.8987 0.12547 0.70299 0.0
C74 C 0.85729 0.13766 0.70123 0.0
O75 O 0.75365 0.11885 0.68412 0.0
C76 C 0.76607 1.00598 0.72922 0.0
O77 O 0.79251 0.03498 0.73839 0.0
H78 H 0.85256 1.01752 0.7141 0.0
H79 H 0.84483 0.17537 0.69717 0.0
N80 N 0.75851 0.14004 0.72362 0.0
N81 N 0.72228 0.17508 0.74579 0.0
C82 C 0.72926 0.13137 0.73611 0.0
C83 C 0.77028 0.19104 0.72539 0.0
C84 C 0.74794 0.21282 0.73907 0.0
C85 C 0.77384 0.12205 0.66958 0.0
O86 O 0.80983 0.09825 0.6682 0.0
H87 H 0.71242 0.09426 0.73769 0.0
H88 H 0.79289 0.21131 0.7171 0.0
O89 O 0.75515 1.0224 0.71392 0.0
H90 H 0.92469 0.15248 0.70088 0.0
H91 H 0.75026 0.25326 0.74365 0.0
Cu92 Cu 0.10299 0.29929 0.98313 0.0
N93 N 0.05434 0.25816 0.98523 0.0
N94 N 0.99594 0.22323 0.99683 0.0
C95 C 0.02861 0.25665 0.99932 0.0
C96 C 1.00167 0.20258 0.98057 0.0
C97 C 0.03768 0.22427 0.97344 0.0
O98 O 0.14502 0.26804 0.99832 0.0
C99 C 0.05575 0.39266 0.98814 0.0
O100 O 0.0258 0.36452 0.9808 0.0
H101 H 0.03389 0.2797 1.01116 0.0
H102 H 0.05072 0.21614 0.96055 0.0
N103 N 0.12297 0.30009 0.95986 0.0
N104 N 0.16695 0.29686 0.93685 0.0
C105 C 0.16206 0.28955 0.95449 0.0
C106 C 0.10234 0.31455 0.94516 0.0
C107 C 0.12933 0.31258 0.93095 0.0
C108 C 0.15258 0.21867 0.99763 0.0
O109 O 0.13183 0.18896 0.98637 0.0
H110 H 0.18666 0.27803 0.96345 0.0
H111 H 0.07004 0.32624 0.94485 0.0
O112 O 0.0915 0.37204 0.99032 0.0
H113 H 0.98087 0.17471 0.97411 0.0
H114 H 0.12169 0.32163 0.91733 0.0
Cu115 Cu 0.26994 0.9921 0.0999 0.0
N116 N 0.30891 0.03644 0.11101 0.0
N117 N 0.37209 0.07257 0.11517 0.0
C118 C 0.34898 0.03759 0.10587 0.0
C119 C 0.34543 0.09406 0.12688 0.0
C120 C 0.30624 0.07175 0.12423 0.0
O121 O 0.28133 0.92034 0.10804 0.0
C122 C 0.27401 0.05482 0.07029 0.0
O123 O 0.27774 0.08982 0.08299 0.0
H124 H 0.36085 1.01285 0.0954 0.0
H125 H 0.27792 0.08085 0.1313 0.0
N126 N 0.21346 1.00451 0.10418 0.0
N127 N 0.14677 0.99244 0.0961 0.0
C128 C 0.18624 1.00119 0.09067 0.0
C129 C 0.19022 0.9984 0.11892 0.0
C130 C 0.14898 0.99091 0.11395 0.0
C131 C 0.28364 0.91452 0.12481 0.0
O132 O 0.27894 0.95623 0.13488 0.0
H133 H 0.19593 0.99802 0.07702 0.0
H134 H 0.20259 0.99421 0.13214 0.0
O135 O 0.27445 1.00574 0.07445 0.0
H136 H 0.35341 0.12447 0.13638 0.0
H137 H 0.12333 0.981 0.12272 0.0
Cu138 Cu 0.92454 0.77717 0.99962 0.0
N139 N 0.96996 0.82359 1.00319 0.0
N140 N 1.0157 0.87903 1.01615 0.0
C141 C 0.98259 0.84601 1.0185 0.0
C142 C 0.02416 0.87698 0.99864 0.0
C143 C 0.99594 0.84308 0.99073 0.0
O144 O 0.87741 0.80475 1.01268 0.0
C145 C 0.97523 0.68685 1.00318 0.0
O146 O 1.0048 0.72007 0.99818 0.0
H147 H 0.9674 0.83895 0.03105 0.0
H148 H 0.99449 0.83339 0.97682 0.0
N149 N 0.9094 0.77663 0.97566 0.0
N150 N 0.87038 0.77852 0.95104 0.0
C151 C 0.87171 0.78737 0.96871 0.0
C152 C 0.93269 0.76026 0.96199 0.0
C153 C 0.90887 0.76159 0.94681 0.0
C154 C 0.87435 0.80811 0.02944 0.0
O155 O 0.90271 0.78624 0.03954 0.0
H156 H 0.84545 0.79971 0.9766 0.0
H157 H 0.96458 0.74727 0.96305 0.0
O158 O 0.93855 0.70424 1.00571 0.0
H159 H 0.04927 0.8979 0.99195 0.0
H160 H 0.91922 0.75087 0.9337 0.0
Cu161 Cu 0.72828 0.12953 0.0951 0.0
N162 N 0.67384 0.1297 0.08612 0.0
N163 N 0.60476 0.12102 0.08323 0.0
C164 C 0.63804 0.11288 0.09382 0.0
C165 C 0.62026 0.14369 0.06838 0.0
C166 C 0.66271 0.14922 0.07024 0.0
O167 O 0.72825 0.15043 0.12001 0.0
C168 C 0.74923 0.03889 0.0762 0.0
O169 O 0.72714 0.06302 0.06404 0.0
H170 H 0.63645 0.09513 0.10688 0.0
H171 H 0.68409 0.16655 0.0607 0.0
N172 N 0.75991 0.17979 0.08255 0.0
N173 N 0.80903 0.21807 0.0656 0.0
C174 C 0.79409 0.17214 0.07253 0.0
C175 C 0.7529 0.2321 0.08188 0.0
C176 C 0.78309 0.2558 0.07147 0.0
C177 C 0.70282 0.18555 0.12514 0.0
O178 O 0.67651 0.20538 0.11366 0.0
H179 H 0.80807 0.13385 0.0706 0.0
H180 H 0.72749 0.25162 0.08847 0.0
O181 O 0.75327 0.06046 0.09132 0.0
H182 H 0.60207 0.15628 0.05709 0.0
H183 H 0.7854 0.29755 0.0683 0.0
Cu184 Cu 0.63113 0.76632 0.83048 0.0
N185 N 0.57893 0.79851 0.82902 0.0
N186 N 0.51645 0.81951 0.81823 0.0
C187 C 0.5557 0.80515 0.81436 0.0
C188 C 0.515 0.8235 0.83599 0.0
C189 C 0.55354 0.81018 0.84262 0.0
O190 O 0.66774 0.79396 0.81173 0.0
C191 C 0.59412 0.66771 0.82059 0.0
O192 O 0.57758 0.69579 0.80782 0.0
H193 H 0.56637 0.79645 0.80115 0.0
H194 H 0.56156 0.80575 0.85644 0.0
N195 N 0.6562 0.78698 0.85184 0.0
N196 N 0.69898 0.79201 0.87528 0.0
C197 C 0.68571 0.76225 0.86144 0.0
C198 C 0.65091 0.83393 0.85977 0.0
C199 C 0.67693 0.83707 0.8742 0.0
C200 C 0.66368 0.79237 0.79495 0.0
O201 O 0.63309 0.76469 0.78792 0.0
H202 H 0.69765 0.72371 0.85811 0.0
H203 H 0.63052 0.86463 0.85501 0.0
O204 O 0.62095 0.68953 0.83077 0.0
H205 H 0.48727 0.83133 0.84366 0.0
H206 H 0.68054 0.87106 0.88274 0.0
Cu207 Cu 0.75232 0.45605 0.21513 0.0
N208 N 0.71707 0.48892 0.19892 0.0
N209 N 0.65551 0.50876 0.18682 0.0
C210 C 0.67549 0.48932 0.2011 0.0
C211 C 0.68601 0.52108 0.17509 0.0
C212 C 0.72405 0.50869 0.1826 0.0
O213 O 0.73794 0.38132 0.21282 0.0
C214 C 0.74611 0.53823 0.23849 0.0
O215 O 0.74306 0.56375 0.22337 0.0
H216 H 0.66017 0.47293 0.2127 0.0
H217 H 0.75436 0.51203 0.17639 0.0
N218 N 0.80944 0.46585 0.21105 0.0
N219 N 0.87554 0.46388 0.22049 0.0
C220 C 0.83573 0.47449 0.22464 0.0
C221 C 0.83362 0.45001 0.19755 0.0
C222 C 0.87453 0.44845 0.2034 0.0
C223 C 0.76428 0.34428 0.21141 0.0
O224 O 0.80268 0.35239 0.21685 0.0
H225 H 0.82528 0.48191 0.238 0.0
H226 H 0.82193 0.43519 0.18507 0.0
O227 O 0.74439 0.48773 0.2383 0.0
H228 H 0.68123 0.53704 0.16194 0.0
H229 H 0.90083 0.4333 0.19612 0.0
Cu230 Cu 0.42807 0.29766 0.82511 0.0
N231 N 0.48051 0.26648 0.82395 0.0
N232 N 0.54242 0.24568 0.81268 0.0
C233 C 0.50672 0.2722 0.81017 0.0
C234 C 0.53874 0.22257 0.82874 0.0
C235 C 0.5006 0.23592 0.83577 0.0
O236 O 0.39432 0.2721 0.80522 0.0
C237 C 0.46873 0.39339 0.83276 0.0
O238 O 0.48695 0.36321 0.84459 0.0
H239 H 0.49931 0.29464 0.79836 0.0
H240 H 0.48874 0.22456 0.84864 0.0
N241 N 0.39991 0.2785 0.846 0.0
N242 N 0.35309 0.2763 0.86806 0.0
C243 C 0.37091 0.30581 0.85499 0.0
C244 C 0.39998 0.23008 0.85347 0.0
C245 C 0.37158 0.22872 0.86711 0.0
C246 C 0.40072 0.22667 0.79849 0.0
O247 O 0.43084 0.19745 0.80482 0.0
H248 H 0.36218 0.34583 0.85162 0.0
H249 H 0.41771 0.197 0.84868 0.0
O250 O 0.43919 0.37367 0.82349 0.0
H251 H 0.56215 0.19846 0.83505 0.0
H252 H 0.36346 0.19425 0.875 0.0
Cu253 Cu 0.30047 0.57503 0.20987 0.0
N254 N 0.34271 0.53885 0.19797 0.0
N255 N 0.40869 0.51775 0.19191 0.0
C256 C 0.38302 0.5455 0.20238 0.0
C257 C 0.38349 0.49273 0.18024 0.0
C258 C 0.34259 0.50567 0.18407 0.0
O259 O 0.30403 0.64868 0.20192 0.0
C260 C 0.31383 0.51382 0.23966 0.0
O261 O 0.32539 0.48061 0.22734 0.0
H262 H 0.39328 0.57098 0.21304 0.0
H263 H 0.31493 0.49235 0.17715 0.0
N264 N 0.24497 0.55316 0.20616 0.0
N265 N 0.17938 0.55629 0.21653 0.0
C266 C 0.2195 0.54571 0.22021 0.0
C267 C 0.2195 0.56748 0.19285 0.0
C268 C 0.1791 0.56954 0.19921 0.0
C269 C 0.30591 0.65543 0.18516 0.0
O270 O 0.30702 0.61354 0.17497 0.0
H271 H 0.2308 0.54124 0.23357 0.0
H272 H 0.22989 0.58239 0.18014 0.0
O273 O 0.30766 0.56198 0.23522 0.0
H274 H 0.39378 0.4665 0.16988 0.0
H275 H 0.15249 0.58485 0.19214 0.0
Cu276 Cu 0.61159 0.78035 0.46309 0.0
N277 N 0.558 0.74995 0.46282 0.0
N278 N 0.4935 0.72988 0.47214 0.0
C279 C 0.53267 0.74383 0.47695 0.0
C280 C 0.49434 0.7268 0.45433 0.0
C281 C 0.53399 0.73937 0.44862 0.0
O282 O 0.6441 0.74554 0.48147 0.0
C283 C 0.57465 0.88112 0.46062 0.0
O284 O 0.55298 0.85733 0.44818 0.0
H285 H 0.54207 0.75306 0.49035 0.0
H286 H 0.54368 0.74413 0.435 0.0
N287 N 0.6394 0.76879 0.44155 0.0
N288 N 0.68935 0.76735 0.42071 0.0
C289 C 0.67503 0.79159 0.43546 0.0
C290 C 0.63147 0.72847 0.43044 0.0
C291 C 0.66175 0.72776 0.41758 0.0
C292 C 0.64841 0.69538 0.48141 0.0
O293 O 0.62934 0.66737 0.46918 0.0
H294 H 0.6908 0.82398 0.44209 0.0
H295 H 0.60692 0.69926 0.43218 0.0
O296 O 0.60404 0.85589 0.46817 0.0
H297 H 0.46778 0.71813 0.44596 0.0
H298 H 0.66451 0.69815 0.40736 0.0
Cu299 Cu 0.77044 0.44896 0.57979 0.0
N300 N 0.81546 0.48597 0.5898 0.0
N301 N 0.88089 0.5177 0.59116 0.0
C302 C 0.85362 0.48615 0.58245 0.0
C303 C 0.85897 0.53763 0.60482 0.0
C304 C 0.81847 0.51801 0.60393 0.0
O305 O 0.77563 0.37435 0.58659 0.0
C306 C 0.77055 0.51555 0.55101 0.0
O307 O 0.78252 0.5477 0.56368 0.0
H308 H 0.86088 0.46385 0.57068 0.0
H309 H 0.79292 0.52741 0.61266 0.0
N310 N 0.71715 0.46963 0.58644 0.0
N311 N 0.65186 0.46668 0.57599 0.0
C312 C 0.6859 0.43886 0.58035 0.0
C313 C 0.70174 0.51895 0.5867 0.0
C314 C 0.66134 0.51716 0.58026 0.0
C315 C 0.76275 0.36317 0.60219 0.0
O316 O 0.74784 0.40136 0.61198 0.0
H317 H 0.69098 0.39879 0.57588 0.0
H318 H 0.72043 0.55445 0.58845 0.0
O319 O 0.76825 0.466 0.55447 0.0
H320 H 0.87084 0.56576 0.61439 0.0
H321 H 0.64308 0.55111 0.57647 0.0
Cu322 Cu 0.42774 0.25853 0.47992 0.0
N323 N 0.47813 0.29609 0.48264 0.0
N324 N 0.53131 0.34085 0.49489 0.0
C325 C 0.49428 0.31617 0.49771 0.0
C326 C 0.53881 0.33561 0.4774 0.0
C327 C 0.50607 0.30796 0.46991 0.0
O328 O 0.39165 0.27565 0.49992 0.0
C329 C 0.47327 0.16189 0.4836 0.0
O330 O 0.49829 0.19039 0.49359 0.0
H331 H 0.4795 0.31183 0.51052 0.0
H332 H 0.50284 0.29712 0.45615 0.0
N333 N 0.40058 0.28199 0.45936 0.0
N334 N 0.35371 0.29025 0.4375 0.0
C335 C 0.36638 0.26094 0.45154 0.0
C336 C 0.40961 0.32621 0.45006 0.0
C337 C 0.38101 0.3313 0.4366 0.0
C338 C 0.38837 0.32473 0.50348 0.0
O339 O 0.40848 0.35964 0.49365 0.0
H340 H 0.35099 0.22512 0.45617 0.0
H341 H 0.43456 0.35378 0.45316 0.0
O342 O 0.4403 0.18294 0.4774 0.0
H343 H 0.56593 0.35087 0.47044 0.0
H344 H 0.37967 0.36385 0.42727 0.0
Cu345 Cu 0.24502 0.61462 0.58006 0.0
N346 N 0.18837 0.60739 0.57432 0.0
N347 N 0.11931 0.59304 0.57531 0.0
C348 C 0.15545 0.59379 0.58462 0.0
C349 C 0.13025 0.60704 0.55865 0.0
C350 C 0.17256 0.61563 0.55809 0.0
O351 O 0.25288 0.64358 0.60371 0.0
C352 C 0.26201 0.50941 0.56778 0.0
O353 O 0.22314 0.50816 0.56237 0.0
H354 H 0.1581 0.58403 0.59853 0.0
H355 H 0.19069 0.62704 0.54659 0.0
N356 N 0.27026 0.6614 0.56399 0.0
N357 N 0.31681 0.69344 0.54457 0.0
C358 C 0.30811 0.65529 0.55663 0.0
C359 C 0.25452 0.70514 0.55643 0.0
C360 C 0.28314 0.72491 0.54438 0.0
C361 C 0.2374 0.6882 0.60767 0.0
O362 O 0.21396 0.71231 0.59597 0.0
H363 H 0.32826 0.62243 0.55964 0.0
H364 H 0.22402 0.72084 0.55918 0.0
O365 O 0.27507 0.54865 0.57687 0.0
H366 H 0.10919 0.61152 0.54758 0.0
H367 H 0.27939 0.75956 0.53608 0.0
H368 H 0.19454 0.44565 0.3019 0.0
H369 H 0.23064 0.29101 0.28382 0.0
H370 H 0.28187 0.33176 0.26387 0.0
H371 H 0.31154 0.41077 0.24974 0.0
H372 H 0.27212 0.56574 0.26614 0.0
H373 H 0.2278 0.52522 0.28897 0.0
C374 C 0.21389 0.42074 0.29373 0.0
C375 C 0.2085 0.36524 0.29427 0.0
C376 C 0.24277 0.44451 0.28206 0.0
C377 C 0.23387 0.33373 0.28358 0.0
C378 C 0.26324 0.35704 0.2722 0.0
C379 C 0.2939 0.43597 0.25849 0.0
C380 C 0.29501 0.49137 0.25608 0.0
C381 C 0.26733 0.41236 0.27108 0.0
C382 C 0.27201 0.5231 0.26767 0.0
C383 C 0.24632 0.49987 0.28063 0.0
H384 H 0.45218 0.88653 0.81816 0.0
H385 H 0.50216 0.75053 0.79179 0.0
H386 H 0.44219 0.74749 0.77193 0.0
H387 H 0.37581 0.78435 0.76174 0.0
H388 H 0.32749 0.92345 0.78672 0.0
H389 H 0.38608 0.92457 0.80754 0.0
C390 C 0.44971 0.85636 0.80805 0.0
C391 C 0.48151 0.81909 0.80633 0.0
C392 C 0.41536 0.85532 0.79651 0.0
C393 C 0.47834 0.78018 0.79315 0.0
C394 C 0.44393 0.77817 0.78189 0.0
C395 C 0.378 0.81439 0.77191 0.0
C396 C 0.34741 0.85342 0.7729 0.0
C397 C 0.41229 0.81556 0.78343 0.0
C398 C 0.35084 0.89303 0.78581 0.0
C399 C 0.38427 0.89366 0.79766 0.0
H400 H 0.76156 0.64371 0.24118 0.0
H401 H 0.7732 0.49674 0.27006 0.0
H402 H 0.817 0.5412 0.29203 0.0
H403 H 0.85806 0.61902 0.30108 0.0
H404 H 0.84932 0.76476 0.27131 0.0
H405 H 0.79826 0.7233 0.25156 0.0
C406 C 0.773 0.62145 0.25244 0.0
C407 C 0.76431 0.56673 0.25385 0.0
C408 C 0.79924 0.64687 0.26469 0.0
C409 C 0.77929 0.5388 0.26862 0.0
C410 C 0.80468 0.56414 0.28111 0.0
C411 C 0.84479 0.64199 0.29037 0.0
C412 C 0.85792 0.69486 0.28756 0.0
C413 C 0.81589 0.61771 0.27895 0.0
C414 C 0.84005 0.72398 0.27369 0.0
C415 C 0.81083 0.70027 0.26241 0.0
H416 H 0.59065 0.16113 0.80718 0.0
H417 H 0.57051 0.32214 0.79053 0.0
H418 H 0.62611 0.31518 0.76857 0.0
H419 H 0.67868 0.26218 0.7534 0.0
H420 H 0.69762 0.10027 0.76936 0.0
H421 H 0.64432 0.10848 0.79231 0.0
C422 C 0.59887 0.19478 0.79887 0.0
C423 C 0.57658 0.24204 0.80043 0.0
C424 C 0.63045 0.19018 0.78611 0.0
C425 C 0.587 0.2852 0.78942 0.0
C426 C 0.61884 0.28128 0.77692 0.0
C427 C 0.67148 0.22896 0.76205 0.0
C428 C 0.69204 0.18073 0.75971 0.0
C429 C 0.64051 0.23382 0.77504 0.0
C430 C 0.68189 0.13764 0.77081 0.0
C431 C 0.65157 0.14239 0.78396 0.0
H432 H 0.27871 0.15429 0.05746 0.0
H433 H 0.23242 0.99819 0.04452 0.0
H434 H 0.19269 0.03521 1.01979 0.0
H435 H 0.16502 0.1135 1.00412 0.0
H436 H 0.20872 0.26957 1.01881 0.0
H437 H 0.25535 0.23093 0.04066 0.0
C438 C 0.26054 0.12809 0.04904 0.0
C439 C 0.25837 0.07357 0.05292 0.0
C440 C 0.23673 0.14985 0.03533 0.0
C441 C 0.23491 0.04023 0.04178 0.0
C442 C 0.21179 0.06152 0.02776 0.0
C443 C 0.18506 0.13904 1.01197 0.0
C444 C 0.18302 0.1945 1.00993 0.0
C445 C 0.21145 0.11651 0.02477 0.0
C446 C 0.20927 0.2269 1.02021 0.0
C447 C 0.23606 0.20481 0.03269 0.0
H448 H 0.13257 1.02318 0.0626 0.0
H449 H 0.08669 0.91883 0.10371 0.0
H450 H 0.03952 0.87608 0.08259 0.0
H451 H 0.01711 0.86206 0.05173 0.0
H452 H 0.06418 0.96647 1.01069 0.0
H453 H 0.10581 1.01429 0.03238 0.0
C454 C 0.11192 0.99142 0.06697 0.0
C455 C 0.1135 0.97402 0.0847 0.0
C456 C 0.08572 0.96615 0.05466 0.0
C457 C 0.08602 0.93338 0.09022 0.0
C458 C 0.05935 0.90846 0.07807 0.0
C459 C 0.03588 0.89572 0.0475 0.0
C460 C 0.0378 0.90973 0.0294 0.0
C461 C 0.05978 0.92355 0.06014 0.0
C462 C 0.06268 0.95359 0.02435 0.0
C463 C 0.08634 0.98142 0.03681 0.0
H464 H 0.87249 0.85 0.06275 0.0
H465 H 0.80562 0.84749 1.01318 0.0
H466 H 0.7592 0.91582 0.02391 0.0
H467 H 0.74128 0.9814 0.04619 0.0
H468 H 0.80866 0.98683 0.09557 0.0
H469 H 0.85089 0.912 0.08615 0.0
C470 C 0.84731 0.86374 0.05441 0.0
C471 C 0.84277 0.84375 0.03712 0.0
C472 C 0.82104 0.90396 0.06056 0.0
C473 C 0.81006 0.8623 0.02648 0.0
C474 C 0.78351 0.90153 0.03259 0.0
C475 C 0.76496 0.96604 0.055 0.0
C476 C 0.77201 0.99012 0.07151 0.0
C477 C 0.78935 0.92352 0.04942 0.0
C478 C 0.80261 0.96922 0.08277 0.0
C479 C 0.82685 0.92648 0.07736 0.0
H480 H 0.84157 0.14853 0.04241 0.0
H481 H 0.85817 0.30558 0.0636 0.0
H482 H 0.9179 0.32085 0.04422 0.0
H483 H 0.96474 0.29052 1.02087 0.0
H484 H 0.94899 0.13356 0.99957 0.0
H485 H 0.88972 0.11736 1.01931 0.0
C486 C 0.85851 0.18586 0.04291 0.0
C487 C 0.84518 0.2259 0.05443 0.0
C488 C 0.89294 0.1945 0.03164 0.0
C489 C 0.86726 0.27434 0.05471 0.0
C490 C 0.90162 0.28305 0.04368 0.0
C491 C 0.94872 0.25252 1.02068 0.0
C492 C 0.96145 0.21331 1.00875 0.0
C493 C 0.91463 0.24354 0.03204 0.0
C494 C 0.93965 0.16466 1.00847 0.0
C495 C 0.90585 0.15527 1.01983 0.0
H496 H 0.65228 0.82074 0.7602 0.0
H497 H 0.73571 0.84292 0.80444 0.0
H498 H 0.77622 0.90762 0.78744 0.0
H499 H 0.78523 0.96262 0.76102 0.0
H500 H 0.7013 0.94385 0.71684 0.0
H501 H 0.66409 0.87282 0.73272 0.0
C502 C 0.67966 0.83917 0.76603 0.0
C503 C 0.69071 0.82699 0.78366 0.0
C504 C 0.70263 0.87727 0.75623 0.0
C505 C 0.72623 0.85158 0.79099 0.0
C506 C 0.74946 0.88873 0.78127 0.0
C507 C 0.75902 0.94279 0.75474 0.0
C508 C 0.74598 0.95895 0.73776 0.0
C509 C 0.73748 0.90264 0.76403 0.0
C510 C 0.71206 0.93238 0.72987 0.0
C511 C 0.69066 0.89184 0.73899 0.0
H512 H 0.98675 0.44707 0.28826 0.0
H513 H 0.02092 0.30123 0.26287 0.0
H514 H 0.98044 0.32521 0.23689 0.0
H515 H 0.93019 0.38383 0.22225 0.0
H516 H 0.89281 0.52699 0.24819 0.0
H517 H 0.93943 0.50796 0.27298 0.0
C518 C 0.98531 0.42037 0.2771 0.0
C519 C 1.0069 0.37215 0.27773 0.0
C520 C 0.96126 0.434 0.26221 0.0
C521 C 1.00513 0.33876 0.26287 0.0
C522 C 0.9817 0.35232 0.24795 0.0
C523 C 0.93312 0.41145 0.23312 0.0
C524 C 0.90827 0.4569 0.23335 0.0
C525 C 0.95913 0.39944 0.24756 0.0
C526 C 0.91171 0.49182 0.24773 0.0
C527 C 0.93818 0.48078 0.26193 0.0
H528 H 0.25567 0.1309 0.75186 0.0
H529 H 0.35517 1.02831 0.73573 0.0
H530 H 0.40483 0.08057 0.75298 0.0
H531 H 0.41868 0.1494 0.77511 0.0
H532 H 0.31997 0.25305 0.79111 0.0
H533 H 0.27144 0.20671 0.77134 0.0
C534 C 0.28835 0.12049 0.75187 0.0
C535 C 0.3015 0.07533 0.74262 0.0
C536 C 0.31683 0.15061 0.76195 0.0
C537 C 0.34406 0.06276 0.74268 0.0
C538 C 0.37251 0.09246 0.75266 0.0
C539 C 0.38664 0.16225 0.77412 0.0
C540 C 0.3728 0.20415 0.78474 0.0
C541 C 0.35902 0.13549 0.76273 0.0
C542 C 0.33139 0.22087 0.78311 0.0
C543 C 0.30359 0.1942 0.77186 0.0
H544 H 0.07613 0.59569 0.28559 0.0
H545 H 0.04442 0.73707 0.2565 0.0
H546 H 0.08166 0.70491 0.23075 0.0
H547 H 0.12798 0.64002 0.21704 0.0
H548 H 0.16334 0.50127 0.24647 0.0
H549 H 0.12021 0.52891 0.27144 0.0
C550 C 0.07741 0.61968 0.27368 0.0
C551 C 0.05733 0.66905 0.2732 0.0
C552 C 0.09963 0.60128 0.25887 0.0
C553 C 0.05897 0.69881 0.25739 0.0
C554 C 0.08056 0.68052 0.24259 0.0
C555 C 0.12536 0.61517 0.22873 0.0
C556 C 0.14853 0.56833 0.22982 0.0
C557 C 0.10142 0.63214 0.24322 0.0
C558 C 0.14561 0.53729 0.24529 0.0
C559 C 0.12115 0.55328 0.2596 0.0
H560 H 0.76811 0.61927 0.54234 0.0
H561 H 0.728 0.46549 0.52389 0.0
H562 H 0.68698 0.5077 0.50048 0.0
H563 H 0.65951 0.58898 0.48639 0.0
H564 H 0.69838 0.74187 0.50622 0.0
H565 H 0.74265 0.69907 0.52808 0.0
C566 C 0.75082 0.59466 0.53311 0.0
C567 C 0.7511 0.5391 0.53498 0.0
C568 C 0.72666 0.61918 0.52004 0.0
C569 C 0.72848 0.50823 0.5228 0.0
C570 C 0.7048 0.53244 0.50947 0.0
C571 C 0.67773 0.61298 0.49547 0.0
C572 C 0.67536 0.66876 0.49467 0.0
C573 C 0.70308 0.58798 0.50817 0.0
C574 C 0.69929 0.69904 0.50655 0.0
C575 C 0.72477 0.67456 0.51904 0.0
H576 H 0.67231 0.42972 0.5443 0.0
H577 H 0.56751 0.46768 0.57714 0.0
H578 H 0.51951 0.43254 0.55445 0.0
H579 H 0.50844 0.38732 0.52565 0.0
H580 H 0.61515 0.34997 0.49343 0.0
H581 H 0.66148 0.3891 0.51538 0.0
C582 C 0.63891 0.43037 0.54641 0.0
C583 C 0.62323 0.45045 0.56235 0.0
C584 C 0.61204 0.41017 0.53343 0.0
C585 C 0.58001 0.45211 0.56494 0.0
C586 C 0.55278 0.43187 0.55202 0.0
C587 C 0.54183 0.38752 0.52349 0.0
C588 C 0.55822 0.36541 0.50788 0.0
C589 C 0.56853 0.41004 0.5363 0.0
C590 C 0.60157 0.36701 0.50517 0.0
C591 C 0.62817 0.38913 0.51778 0.0
H592 H 0.24621 0.41449 0.55163 0.0
H593 H 0.34653 0.52099 0.56633 0.0
H594 H 0.39531 0.46978 0.5489 0.0
H595 H 0.40791 0.40145 0.52663 0.0
H596 H 0.30943 0.29225 0.5125 0.0
H597 H 0.2616 0.33725 0.53269 0.0
C598 C 0.27889 0.4259 0.55128 0.0
C599 C 0.29245 0.47206 0.56011 0.0
C600 C 0.30705 0.39601 0.54121 0.0
C601 C 0.33505 0.48587 0.55966 0.0
C602 C 0.36304 0.45673 0.54959 0.0
C603 C 0.37615 0.38694 0.52825 0.0
C604 C 0.36194 0.34405 0.51803 0.0
C605 C 0.34913 0.41279 0.53989 0.0
C606 C 0.32098 0.32512 0.52032 0.0
C607 C 0.29362 0.35112 0.53175 0.0
H608 H 0.49039 0.69461 0.50585 0.0
H609 H 0.41488 0.75742 0.4637 0.0
H610 H 0.35331 0.75246 0.48261 0.0
H611 H 0.32067 0.73008 0.51111 0.0
H612 H 0.39531 0.66559 0.55322 0.0
H613 H 0.45737 0.67136 0.53444 0.0
C614 C 0.46046 0.70738 0.50088 0.0
C615 C 0.45724 0.72618 0.48338 0.0
C616 C 0.42502 0.70413 0.51183 0.0
C617 C 0.41814 0.74207 0.47702 0.0
C618 C 0.38294 0.73958 0.48787 0.0
C619 C 0.3506 0.7178 0.51622 0.0
C620 C 0.35342 0.69771 0.53356 0.0
C621 C 0.38599 0.7207 0.50529 0.0
C622 C 0.39229 0.6809 0.53988 0.0
C623 C 0.42779 0.68435 0.52917 0.0
H624 H 0.34313 0.32511 0.40395 0.0
H625 H 0.28239 0.23604 0.44567 0.0
H626 H 0.22062 0.2246 0.42712 0.0
H627 H 0.18317 0.2413 0.39912 0.0
H628 H 0.24402 0.33213 0.35782 0.0
H629 H 0.30609 0.34168 0.37616 0.0
C630 C 0.31633 0.30353 0.40909 0.0
C631 C 0.31762 0.28174 0.4263 0.0
C632 C 0.28073 0.29745 0.39839 0.0
C633 C 0.28268 0.25289 0.43248 0.0
C634 C 0.24713 0.24662 0.4219 0.0
C635 C 0.20986 0.26352 0.39417 0.0
C636 C 0.20871 0.2859 0.37703 0.0
C637 C 0.24568 0.269 0.40486 0.0
C638 C 0.24402 0.31387 0.37081 0.0
C639 C 0.27956 0.31961 0.38135 0.0
H640 H 0.20923 0.78274 0.61963 0.0
H641 H 0.28917 0.65335 0.634 0.0
H642 H 0.30809 0.69851 0.66144 0.0
H643 H 0.30182 0.77466 0.68143 0.0
H644 H 0.22074 0.90306 0.66724 0.0
H645 H 0.20275 0.85852 0.63962 0.0
C646 C 0.23073 0.76424 0.62876 0.0
C647 C 0.24768 0.71457 0.6247 0.0
C648 C 0.24151 0.79045 0.64453 0.0
C649 C 0.27551 0.6914 0.63675 0.0
C650 C 0.28646 0.71731 0.65245 0.0
C651 C 0.28046 0.79316 0.67224 0.0
C652 C 0.26284 0.84237 0.67642 0.0
C653 C 0.26974 0.76692 0.65646 0.0
C654 C 0.23485 0.86534 0.6644 0.0
C655 C 0.22445 0.8398 0.64859 0.0
H656 H 0.7053 0.74318 0.3867 0.0
H657 H 0.76095 0.81305 0.43312 0.0
H658 H 0.82735 0.82289 0.41744 0.0
H659 H 0.87045 0.80868 0.39067 0.0
H660 H 0.814 0.73559 0.3449 0.0
H661 H 0.74748 0.72957 0.36025 0.0
C662 C 0.73194 0.76027 0.39349 0.0
C663 C 0.72793 0.7769 0.41117 0.0
C664 C 0.77014 0.76506 0.38448 0.0
C665 C 0.76278 0.8002 0.41951 0.0
C666 C 0.80096 0.80546 0.41057 0.0
C667 C 0.84367 0.79117 0.3841 0.0
C668 C 0.84749 0.77283 0.36656 0.0
C669 C 0.80516 0.78748 0.3931 0.0
C670 C 0.81212 0.75084 0.35823 0.0
C671 C 0.77396 0.74707 0.36705 0.0
H672 H 0.81373 0.14833 0.63854 0.0
H673 H 0.70518 0.18463 0.66985 0.0
H674 H 0.69032 0.25942 0.65054 0.0
H675 H 0.71226 0.32044 0.627 0.0
H676 H 0.82014 0.28589 0.59531 0.0
H677 H 0.83085 0.20417 0.61237 0.0
C678 C 0.7864 0.172 0.64097 0.0
C679 C 0.76097 0.16104 0.65585 0.0
C680 C 0.77811 0.2156 0.62983 0.0
C681 C 0.72553 0.19211 0.65865 0.0
C682 C 0.71704 0.23515 0.64763 0.0
C683 C 0.73783 0.29466 0.62366 0.0
C684 C 0.7657 0.30948 0.61007 0.0
C685 C 0.7438 0.24818 0.63354 0.0
C686 C 0.79827 0.27533 0.6057 0.0
C687 C 0.80452 0.2288 0.61555 0.0
H688 H 0.18838 0.34618 0.90619 0.0
H689 H 0.23033 0.23051 0.94419 0.0
H690 H 0.29296 0.21618 0.92665 0.0
H691 H 0.33497 0.2344 0.90012 0.0
H692 H 0.29253 0.34821 0.86162 0.0
H693 H 0.23135 0.36573 0.87982 0.0
C694 C 0.21106 0.31759 0.91059 0.0
C695 C 0.20437 0.28935 0.92652 0.0
C696 C 0.24711 0.30934 0.90037 0.0
C697 C 0.23467 0.25321 0.93213 0.0
C698 C 0.27048 0.24477 0.92204 0.0
C699 C 0.3123 0.26289 0.89564 0.0
C700 C 0.31843 0.28962 0.8794 0.0
C701 C 0.27689 0.27233 0.90608 0.0
C702 C 0.28902 0.3273 0.87407 0.0
C703 C 0.25376 0.33706 0.88443 0.0
H704 H 0.30697 0.67811 0.15004 0.0
H705 H 0.30039 0.75234 0.20131 0.0
H706 H 0.29401 0.83901 0.18699 0.0
H707 H 0.28832 0.89292 0.15999 0.0
H708 H 0.29373 0.81829 0.10876 0.0
H709 H 0.3026 0.73211 0.1231 0.0
C710 C 0.30432 0.71319 0.15816 0.0
C711 C 0.3041 0.70861 0.17678 0.0
C712 C 0.30032 0.76266 0.14984 0.0
C713 C 0.30066 0.75463 0.18699 0.0
C714 C 0.29694 0.80417 0.17879 0.0
C715 C 0.29154 0.8579 0.1519 0.0
C716 C 0.29025 0.86215 0.13327 0.0
C717 C 0.29641 0.80854 0.16023 0.0
C718 C 0.29456 0.81623 0.12308 0.0
C719 C 0.29961 0.76695 0.13128 0.0
H720 H 0.85688 0.72915 0.91972 0.0
H721 H 0.80391 0.8423 0.95565 0.0
H722 H 0.74502 0.85423 0.93572 0.0
H723 H 0.70928 0.83438 0.90783 0.0
H724 H 0.76344 0.72411 0.87124 0.0
H725 H 0.82081 0.70899 0.89176 0.0
C726 C 0.83272 0.75678 0.92317 0.0
C727 C 0.8352 0.78487 0.93925 0.0
C728 C 0.79894 0.76387 0.91153 0.0
C729 C 0.80288 0.81967 0.94354 0.0
C730 C 0.76919 0.82677 0.93207 0.0
C731 C 0.73371 0.80731 0.90422 0.0
C732 C 0.73187 0.78078 0.88784 0.0
C733 C 0.76702 0.79934 0.91599 0.0
C734 C 0.76356 0.74486 0.88372 0.0
C735 C 0.79666 0.73644 0.89544 0.0
H736 H 0.7661 0.17891 0.14944 0.0
H737 H 0.64374 0.24377 0.1414 0.0
H738 H 0.64952 0.29248 0.16902 0.0
H739 H 0.69221 0.32516 0.19344 0.0
H740 H 0.81604 0.26448 0.20112 0.0
H741 H 0.80633 0.20494 0.17603 0.0
C742 C 0.74044 0.20294 0.15392 0.0
C743 C 0.70477 0.20816 0.14322 0.0
C744 C 0.74424 0.23189 0.16976 0.0
C745 C 0.6718 0.23952 0.14923 0.0
C746 C 0.67502 0.26744 0.16506 0.0
C747 C 0.71685 0.29818 0.18991 0.0
C748 C 0.75499 0.29992 0.1991 0.0
C749 C 0.71156 0.2652 0.17515 0.0
C750 C 0.78638 0.26433 0.19428 0.0
C751 C 0.78097 0.23044 0.17983 0.0
H752 H 0.96505 0.96224 0.3098 0.0
H753 H 0.09089 0.90434 0.30881 0.0
H754 H 0.11823 0.99484 0.30937 0.0
H755 H 0.10673 0.09096 0.31176 0.0
H756 H 0.98081 0.14835 0.31405 0.0
H757 H 0.95354 0.05832 0.3113 0.0
C758 C 0.99843 0.96945 0.30951 0.0
C759 C 0.02577 0.92635 0.30929 0.0
C760 C 1.01412 1.02182 0.31018 0.0
C761 C 0.06901 0.9366 0.30906 0.0
C762 C 0.08477 0.98847 0.30939 0.0
C763 C 0.07335 0.08378 0.31149 0.0
C764 C 0.04599 0.12656 0.31317 0.0
C765 C 0.05767 1.03148 0.3102 0.0
C766 C 1.00274 0.11632 0.3129 0.0
C767 C 0.98701 0.06471 0.31131 0.0
H768 H 0.97865 0.09392 0.69582 0.0
H769 H 0.90905 0.99295 0.7317 0.0
H770 H 0.97317 0.94942 0.74062 0.0
H771 H 0.04936 0.94227 0.73904 0.0
H772 H 0.11896 0.04621 0.70409 0.0
H773 H 0.05449 0.08634 0.69405 0.0
C774 C 0.97745 0.06265 0.70567 0.0
C775 C 0.93897 0.04706 0.71312 0.0
C776 C 1.01451 0.03832 0.71095 0.0
C777 C 0.93804 1.00553 0.72559 0.0
C778 C 0.97479 0.98083 0.73081 0.0
C779 C 0.05049 0.97393 0.72932 0.0
C780 C 0.0891 0.99117 0.72239 0.0
C781 C 1.01325 0.99731 0.72372 0.0
C782 C 0.08979 1.03161 0.70953 0.0
C783 C 0.05289 0.05487 0.70384 0.0
H784 H 0.9809 0.43889 0.99375 0.0
H785 H 0.11314 0.47186 0.99378 0.0
H786 H 0.09991 0.56531 0.9996 0.0
H787 H 0.05061 0.63856 1.00277 0.0
H788 H 0.91839 0.60509 1.00342 0.0
H789 H 0.93183 0.51091 0.99948 0.0
C790 C 1.00686 0.46647 0.99511 0.0
C791 C 0.04797 0.44846 0.99312 0.0
C792 C 0.99901 0.52009 0.99859 0.0
C793 C 0.08123 0.48461 0.9952 0.0
C794 C 0.07366 0.53812 0.99849 0.0
C795 C 0.0247 0.61063 1.00224 0.0
C796 C 0.9835 0.62909 1.00326 0.0
C797 C 0.03266 0.55644 0.99994 0.0
C798 C 0.95039 0.59215 1.0027 0.0
C799 C 0.95805 0.53824 1.00034 0.0
H800 H 0.41378 0.06761 0.08441 0.0
H801 H 0.42869 0.10571 0.1396 0.0
H802 H 0.50327 0.123 0.13479 0.0
H803 H 0.5645 0.12656 0.11464 0.0
H804 H 0.54767 0.08829 0.05954 0.0
H805 H 0.4737 0.07089 0.0646 0.0
C806 C 0.43334 0.07912 0.09546 0.0
C807 C 0.4157 0.08482 0.11238 0.0
C808 C 0.47594 0.08876 0.09259 0.0
C809 C 0.44142 0.10127 0.12643 0.0
C810 C 0.4841 0.11082 0.1237 0.0
C811 C 0.54461 0.11391 0.10383 0.0
C812 C 0.56154 0.10872 0.08672 0.0
C813 C 0.50178 0.10446 0.10682 0.0
C814 C 0.53532 0.09307 0.07276 0.0
C815 C 0.49305 0.083 0.07566 0.0
H816 H 0.53658 0.44095 0.84781 0.0
H817 H 0.44058 0.46647 0.80879 0.0
H818 H 0.47199 0.55227 0.80119 0.0
H819 H 0.52675 0.61969 0.80547 0.0
H820 H 0.62247 0.59482 0.84466 0.0
H821 H 0.5913 0.5087 0.85218 0.0
C822 C 0.52229 0.46533 0.83771 0.0
C823 C 0.48607 0.44714 0.82893 0.0
C824 C 0.54072 0.51451 0.8333 0.0
C825 C 0.46828 0.47938 0.81582 0.0
C826 C 0.48635 0.52841 0.81141 0.0
C827 C 0.54111 0.59536 0.81557 0.0
C828 C 0.57717 0.61376 0.82441 0.0
C829 C 0.52269 0.54623 0.81999 0.0
C830 C 0.5949 0.5817 0.83758 0.0
C831 C 0.57697 0.53249 0.84193 0.0
H832 H 0.5979 0.51902 0.21241 0.0
H833 H 0.61206 0.50488 0.15589 0.0
H834 H 0.53624 0.50527 0.15231 0.0
H835 H 0.46532 0.50851 0.16549 0.0
H836 H 0.45292 0.52161 0.22213 0.0
H837 H 0.52841 0.52179 0.22543 0.0
C838 C 0.58452 0.51555 0.1993 0.0
C839 C 0.61085 0.51159 0.18448 0.0
C840 C 0.54101 0.51533 0.19737 0.0
C841 C 0.59272 0.50842 0.16755 0.0
C842 C 0.54927 0.50823 0.1655 0.0
C843 C 0.47926 0.51093 0.17853 0.0
C844 C 0.45345 0.51526 0.19354 0.0
C845 C 0.52303 0.51136 0.18035 0.0
C846 C 0.47199 0.51898 0.21035 0.0
C847 C 0.5152 0.51892 0.21227 0.0
H848 H 0.54267 0.10754 0.49363 0.0
H849 H 0.43192 0.09353 0.46148 0.0
H850 H 0.45404 1.00659 0.45141 0.0
H851 H 0.50507 0.93507 0.45132 0.0
H852 H 0.61547 0.9478 0.48369 0.0
H853 H 0.5933 0.03481 0.49397 0.0
C854 C 0.52318 0.08544 0.48449 0.0
C855 C 0.48554 0.10739 0.47835 0.0
C856 C 0.5362 0.03532 0.47867 0.0
C857 C 0.4609 0.07788 0.46648 0.0
C858 C 0.47363 1.02811 0.46066 0.0
C859 C 0.52451 0.95686 0.46057 0.0
C860 C 0.56215 0.93481 0.46661 0.0
C861 C 0.51133 1.0066 0.46656 0.0
C862 C 0.5865 0.96367 0.47875 0.0
C863 C 0.57376 1.01346 0.48466 0.0
H864 H 0.94531 0.5495 0.61214 0.0
H865 H 0.91238 0.51463 0.55799 0.0
H866 H 0.98348 0.53269 0.54865 0.0
H867 H 0.05484 0.55812 0.55551 0.0
H868 H 0.08931 0.59748 0.60907 0.0
H869 H 0.01814 0.57732 0.61896 0.0
C870 C 0.95366 0.5462 0.5983 0.0
C871 C 0.9233 0.53002 0.58587 0.0
C872 C 0.99502 0.55721 0.59288 0.0
C873 C 0.93495 0.52571 0.56798 0.0
C874 C 0.97571 0.53643 0.56255 0.0
C875 C 0.04694 0.56306 0.56933 0.0
C876 C 0.07765 0.57982 0.58144 0.0
C877 C 1.00597 0.55213 0.57486 0.0
C878 C 0.0666 0.58435 0.59941 0.0
C879 C 0.02574 0.57313 0.60507 0.0
loop_
_geom_bond_atom_site_label_1
_geom_bond_atom_site_label_2
_geom_bond_distance
_geom_bond_site_symmetry_2
_ccdc_geom_bond_type
Cu0 N1 1.999 . S
Cu0 O6 1.974 . S
Cu0 N11 1.985 . S
Cu0 O20 1.959 . S
N1 Cu0 1.999 . S
N1 C3 1.263 . S
N1 C5 1.389 1_455 S
N2 C3 1.358 1_655 S
N2 C4 1.400 . S
C3 N1 1.263 . S
C3 N2 1.358 1_455 S
C3 H9 0.930 . S
C4 N2 1.400 . S
C4 C5 1.351 . S
C4 H21 0.930 . S
C5 N1 1.389 1_655 S
C5 C4 1.351 . S
C5 H10 0.930 . S
O6 Cu0 1.974 . S
O6 C16 1.282 . S
C7 O8 1.261 . S
C7 O20 1.251 . S
O8 C7 1.261 . S
H9 C3 0.930 . S
H10 C5 0.930 . S
N11 Cu0 1.985 . S
N11 C13 1.335 . S
N11 C14 1.390 . S
N12 C13 1.345 . S
N12 C15 1.336 . S
C13 N11 1.335 . S
C13 N12 1.345 . S
C13 H18 0.930 . S
C14 N11 1.390 . S
C14 C15 1.346 . S
C14 H19 0.930 . S
C15 N12 1.336 . S
C15 C14 1.346 . S
C15 H22 0.929 . S
C16 O6 1.282 . S
C16 O17 1.216 . S
O17 C16 1.216 . S
H18 C13 0.930 . S
H19 C14 0.930 . S
O20 Cu0 1.959 . S
O20 C7 1.251 . S
H21 C4 0.930 . S
H22 C15 0.929 . S
Cu23 N24 1.999 . S
Cu23 O29 1.974 . S
Cu23 N34 1.985 . S
Cu23 O43 1.959 . S
N24 Cu23 1.999 . S
N24 C26 1.263 . S
N24 C28 1.389 . S
N25 C26 1.358 . S
N25 C27 1.400 . S
C26 N24 1.263 . S
C26 N25 1.358 . S
C26 H32 0.930 . S
C27 N25 1.400 . S
C27 C28 1.351 . S
C27 H44 0.930 1_565 S
C28 N24 1.389 . S
C28 C27 1.351 . S
C28 H33 0.930 . S
O29 Cu23 1.974 . S
O29 C39 1.282 . S
C30 O31 1.261 . S
C30 O43 1.251 1_545 S
O31 C30 1.261 . S
H32 C26 0.930 . S
H33 C28 0.930 . S
N34 Cu23 1.985 . S
N34 C36 1.335 . S
N34 C37 1.390 . S
N35 C36 1.345 . S
N35 C38 1.336 . S
C36 N34 1.335 . S
C36 N35 1.345 . S
C36 H41 0.930 . S
C37 N34 1.390 . S
C37 C38 1.346 . S
C37 H42 0.930 . S
C38 N35 1.336 . S
C38 C37 1.346 . S
C38 H45 0.929 . S
C39 O29 1.282 . S
C39 O40 1.216 . S
O40 C39 1.216 . S
H41 C36 0.930 . S
H42 C37 0.930 . S
O43 Cu23 1.959 . S
O43 C30 1.251 1_565 S
H44 C27 0.930 1_545 S
H45 C38 0.929 . S
Cu46 N47 1.999 . S
Cu46 O52 1.974 . S
Cu46 N57 1.985 . S
Cu46 O66 1.959 . S
N47 Cu46 1.999 . S
N47 C49 1.263 . S
N47 C51 1.389 1_655 S
N48 C49 1.358 1_455 S
N48 C50 1.400 . S
C49 N47 1.263 . S
C49 N48 1.358 1_655 S
C49 H55 0.930 . S
C50 N48 1.400 . S
C50 C51 1.351 . S
C50 H67 0.930 . S
C51 N47 1.389 1_455 S
C51 C50 1.351 . S
C51 H56 0.930 . S
O52 Cu46 1.974 . S
O52 C62 1.282 . S
C53 O54 1.261 . S
C53 O66 1.251 . S
O54 C53 1.261 . S
H55 C49 0.930 . S
H56 C51 0.930 . S
N57 Cu46 1.985 . S
N57 C59 1.335 . S
N57 C60 1.390 . S
N58 C59 1.345 . S
N58 C61 1.336 . S
C59 N57 1.335 . S
C59 N58 1.345 . S
C59 H64 0.930 . S
C60 N57 1.390 . S
C60 C61 1.346 . S
C60 H65 0.930 . S
C61 N58 1.336 . S
C61 C60 1.346 . S
C61 H68 0.929 . S
C62 O52 1.282 . S
C62 O63 1.216 . S
O63 C62 1.216 . S
H64 C59 0.930 . S
H65 C60 0.930 . S
O66 Cu46 1.959 . S
O66 C53 1.251 . S
H67 C50 0.930 . S
H68 C61 0.929 . S
Cu69 N70 1.999 . S
Cu69 O75 1.974 . S
Cu69 N80 1.985 . S
Cu69 O89 1.959 . S
N70 Cu69 1.999 . S
N70 C72 1.263 . S
N70 C74 1.389 . S
N71 C72 1.358 . S
N71 C73 1.400 . S
C72 N70 1.263 . S
C72 N71 1.358 . S
C72 H78 0.930 . S
C73 N71 1.400 . S
C73 C74 1.351 . S
C73 H90 0.930 1_545 S
C74 N70 1.389 . S
C74 C73 1.351 . S
C74 H79 0.930 . S
O75 Cu69 1.974 . S
O75 C85 1.282 . S
C76 O77 1.261 . S
C76 O89 1.251 1_565 S
O77 C76 1.261 . S
H78 C72 0.930 . S
H79 C74 0.930 . S
N80 Cu69 1.985 . S
N80 C82 1.335 . S
N80 C83 1.390 . S
N81 C82 1.345 . S
N81 C84 1.336 . S
C82 N80 1.335 . S
C82 N81 1.345 . S
C82 H87 0.930 . S
C83 N80 1.390 . S
C83 C84 1.346 . S
C83 H88 0.930 . S
C84 N81 1.336 . S
C84 C83 1.346 . S
C84 H91 0.929 . S
C85 O75 1.282 . S
C85 O86 1.216 . S
O86 C85 1.216 . S
H87 C82 0.930 . S
H88 C83 0.930 . S
O89 Cu69 1.959 . S
O89 C76 1.251 1_545 S
H90 C73 0.930 1_565 S
H91 C84 0.929 . S
Cu92 N93 1.999 . S
Cu92 O98 1.974 . S
Cu92 N103 1.985 . S
Cu92 O112 1.959 . S
N93 Cu92 1.999 . S
N93 C95 1.263 . S
N93 C97 1.389 1_455 S
N94 C95 1.358 1_655 S
N94 C96 1.400 . S
C95 N93 1.263 . S
C95 N94 1.358 1_455 S
C95 H101 0.930 . S
C96 N94 1.400 . S
C96 C97 1.351 . S
C96 H113 0.930 . S
C97 N93 1.389 1_655 S
C97 C96 1.351 . S
C97 H102 0.930 . S
O98 Cu92 1.974 . S
O98 C108 1.282 . S
C99 O100 1.261 . S
C99 O112 1.251 . S
O100 C99 1.261 . S
H101 C95 0.930 . S
H102 C97 0.930 . S
N103 Cu92 1.985 . S
N103 C105 1.335 . S
N103 C106 1.390 . S
N104 C105 1.345 . S
N104 C107 1.336 . S
C105 N103 1.335 . S
C105 N104 1.345 . S
C105 H110 0.930 . S
C106 N103 1.390 . S
C106 C107 1.346 . S
C106 H111 0.930 . S
C107 N104 1.336 . S
C107 C106 1.346 . S
C107 H114 0.929 . S
C108 O98 1.282 . S
C108 O109 1.216 . S
O109 C108 1.216 . S
H110 C105 0.930 . S
H111 C106 0.930 . S
O112 Cu92 1.959 . S
O112 C99 1.251 . S
H113 C96 0.930 . S
H114 C107 0.929 . S
Cu115 N116 1.999 . S
Cu115 O121 1.974 . S
Cu115 N126 1.985 . S
Cu115 O135 1.959 . S
N116 Cu115 1.999 . S
N116 C118 1.263 . S
N116 C120 1.389 . S
N117 C118 1.358 . S
N117 C119 1.400 . S
C118 N116 1.263 . S
C118 N117 1.358 . S
C118 H124 0.930 . S
C119 N117 1.400 . S
C119 C120 1.351 . S
C119 H136 0.930 1_565 S
C120 N116 1.389 . S
C120 C119 1.351 . S
C120 H125 0.930 . S
O121 Cu115 1.974 . S
O121 C131 1.282 . S
C122 O123 1.261 . S
C122 O135 1.251 1_545 S
O123 C122 1.261 . S
H124 C118 0.930 . S
H125 C120 0.930 . S
N126 Cu115 1.985 . S
N126 C128 1.335 . S
N126 C129 1.390 . S
N127 C128 1.345 . S
N127 C130 1.336 . S
C128 N126 1.335 . S
C128 N127 1.345 . S
C128 H133 0.930 . S
C129 N126 1.390 . S
C129 C130 1.346 . S
C129 H134 0.930 . S
C130 N127 1.336 . S
C130 C129 1.346 . S
C130 H137 0.929 . S
C131 O121 1.282 . S
C131 O132 1.216 . S
O132 C131 1.216 . S
H133 C128 0.930 . S
H134 C129 0.930 . S
O135 Cu115 1.959 . S
O135 C122 1.251 1_565 S
H136 C119 0.930 1_545 S
H137 C130 0.929 . S
Cu138 N139 1.999 . S
Cu138 O144 1.974 . S
Cu138 N149 1.985 . S
Cu138 O158 1.959 . S
N139 Cu138 1.999 . S
N139 C141 1.263 . S
N139 C143 1.389 1_655 S
N140 C141 1.358 1_455 S
N140 C142 1.400 . S
C141 N139 1.263 . S
C141 N140 1.358 1_655 S
C141 H147 0.930 . S
C142 N140 1.400 . S
C142 C143 1.351 . S
C142 H159 0.930 . S
C143 N139 1.389 1_455 S
C143 C142 1.351 . S
C143 H148 0.930 . S
O144 Cu138 1.974 . S
O144 C154 1.282 . S
C145 O146 1.261 . S
C145 O158 1.251 . S
O146 C145 1.261 . S
H147 C141 0.930 . S
H148 C143 0.930 . S
N149 Cu138 1.985 . S
N149 C151 1.335 . S
N149 C152 1.390 . S
N150 C151 1.345 . S
N150 C153 1.336 . S
C151 N149 1.335 . S
C151 N150 1.345 . S
C151 H156 0.930 . S
C152 N149 1.390 . S
C152 C153 1.346 . S
C152 H157 0.930 . S
C153 N150 1.336 . S
C153 C152 1.346 . S
C153 H160 0.929 . S
C154 O144 1.282 . S
C154 O155 1.216 . S
O155 C154 1.216 . S
H156 C151 0.930 . S
H157 C152 0.930 . S
O158 Cu138 1.959 . S
O158 C145 1.251 . S
H159 C142 0.930 . S
H160 C153 0.929 . S
Cu161 N162 1.999 . S
Cu161 O167 1.974 . S
Cu161 N172 1.985 . S
Cu161 O181 1.959 . S
N162 Cu161 1.999 . S
N162 C164 1.263 . S
N162 C166 1.389 . S
N163 C164 1.358 . S
N163 C165 1.400 . S
C164 N162 1.263 . S
C164 N163 1.358 . S
C164 H170 0.930 . S
C165 N163 1.400 . S
C165 C166 1.351 . S
C165 H182 0.930 1_545 S
C166 N162 1.389 . S
C166 C165 1.351 . S
C166 H171 0.930 . S
O167 Cu161 1.974 . S
O167 C177 1.282 . S
C168 O169 1.261 . S
C168 O181 1.251 1_565 S
O169 C168 1.261 . S
H170 C164 0.930 . S
H171 C166 0.930 . S
N172 Cu161 1.985 . S
N172 C174 1.335 . S
N172 C175 1.390 . S
N173 C174 1.345 . S
N173 C176 1.336 . S
C174 N172 1.335 . S
C174 N173 1.345 . S
C174 H179 0.930 . S
C175 N172 1.390 . S
C175 C176 1.346 . S
C175 H180 0.930 . S
C176 N173 1.336 . S
C176 C175 1.346 . S
C176 H183 0.929 . S
C177 O167 1.282 . S
C177 O178 1.216 . S
O178 C177 1.216 . S
H179 C174 0.930 . S
H180 C175 0.930 . S
O181 Cu161 1.959 . S
O181 C168 1.251 1_545 S
H182 C165 0.930 1_565 S
H183 C176 0.929 . S
Cu184 N185 1.999 . S
Cu184 O190 1.974 . S
Cu184 N195 1.985 . S
Cu184 O204 1.959 . S
N185 Cu184 1.999 . S
N185 C187 1.263 . S
N185 C189 1.389 . S
N186 C187 1.358 . S
N186 C188 1.400 . S
C187 N185 1.263 . S
C187 N186 1.358 . S
C187 H193 0.930 . S
C188 N186 1.400 . S
C188 C189 1.351 . S
C188 H205 0.930 . S
C189 N185 1.389 . S
C189 C188 1.351 . S
C189 H194 0.930 . S
O190 Cu184 1.974 . S
O190 C200 1.282 . S
C191 O192 1.261 . S
C191 O204 1.251 . S
O192 C191 1.261 . S
H193 C187 0.930 . S
H194 C189 0.930 . S
N195 Cu184 1.985 . S
N195 C197 1.335 . S
N195 C198 1.390 . S
N196 C197 1.345 . S
N196 C199 1.336 . S
C197 N195 1.335 . S
C197 N196 1.345 . S
C197 H202 0.930 . S
C198 N195 1.390 . S
C198 C199 1.346 . S
C198 H203 0.930 . S
C199 N196 1.336 . S
C199 C198 1.346 . S
C199 H206 0.929 . S
C200 O190 1.282 . S
C200 O201 1.216 . S
O201 C200 1.216 . S
H202 C197 0.930 . S
H203 C198 0.930 . S
O204 Cu184 1.959 . S
O204 C191 1.251 . S
H205 C188 0.930 . S
H206 C199 0.929 . S
Cu207 N208 1.999 . S
Cu207 O213 1.974 . S
Cu207 N218 1.985 . S
Cu207 O227 1.959 . S
N208 Cu207 1.999 . S
N208 C210 1.263 . S
N208 C212 1.389 . S
N209 C210 1.358 . S
N209 C211 1.400 . S
C210 N208 1.263 . S
C210 N209 1.358 . S
C210 H216 0.930 . S
C211 N209 1.400 . S
C211 C212 1.351 . S
C211 H228 0.930 . S
C212 N208 1.389 . S
C212 C211 1.351 . S
C212 H217 0.930 . S
O213 Cu207 1.974 . S
O213 C223 1.282 . S
C214 O215 1.261 . S
C214 O227 1.251 . S
O215 C214 1.261 . S
H216 C210 0.930 . S
H217 C212 0.930 . S
N218 Cu207 1.985 . S
N218 C220 1.335 . S
N218 C221 1.390 . S
N219 C220 1.345 . S
N219 C222 1.336 . S
C220 N218 1.335 . S
C220 N219 1.345 . S
C220 H225 0.930 . S
C221 N218 1.390 . S
C221 C222 1.346 . S
C221 H226 0.930 . S
C222 N219 1.336 . S
C222 C221 1.346 . S
C222 H229 0.929 . S
C223 O213 1.282 . S
C223 O224 1.216 . S
O224 C223 1.216 . S
H225 C220 0.930 . S
H226 C221 0.930 . S
O227 Cu207 1.959 . S
O227 C214 1.251 . S
H228 C211 0.930 . S
H229 C222 0.929 . S
Cu230 N231 1.999 . S
Cu230 O236 1.974 . S
Cu230 N241 1.985 . S
Cu230 O250 1.959 . S
N231 Cu230 1.999 . S
N231 C233 1.263 . S
N231 C235 1.389 . S
N232 C233 1.358 . S
N232 C234 1.400 . S
C233 N231 1.263 . S
C233 N232 1.358 . S
C233 H239 0.930 . S
C234 N232 1.400 . S
C234 C235 1.351 . S
C234 H251 0.930 . S
C235 N231 1.389 . S
C235 C234 1.351 . S
C235 H240 0.930 . S
O236 Cu230 1.974 . S
O236 C246 1.282 . S
C237 O238 1.261 . S
C237 O250 1.251 . S
O238 C237 1.261 . S
H239 C233 0.930 . S
H240 C235 0.930 . S
N241 Cu230 1.985 . S
N241 C243 1.335 . S
N241 C244 1.390 . S
N242 C243 1.345 . S
N242 C245 1.336 . S
C243 N241 1.335 . S
C243 N242 1.345 . S
C243 H248 0.930 . S
C244 N241 1.390 . S
C244 C245 1.346 . S
C244 H249 0.930 . S
C245 N242 1.336 . S
C245 C244 1.346 . S
C245 H252 0.929 . S
C246 O236 1.282 . S
C246 O247 1.216 . S
O247 C246 1.216 . S
H248 C243 0.930 . S
H249 C244 0.930 . S
O250 Cu230 1.959 . S
O250 C237 1.251 . S
H251 C234 0.930 . S
H252 C245 0.929 . S
Cu253 N254 1.999 . S
Cu253 O259 1.974 . S
Cu253 N264 1.985 . S
Cu253 O273 1.959 . S
N254 Cu253 1.999 . S
N254 C256 1.263 . S
N254 C258 1.389 . S
N255 C256 1.358 . S
N255 C257 1.400 . S
C256 N254 1.263 . S
C256 N255 1.358 . S
C256 H262 0.930 . S
C257 N255 1.400 . S
C257 C258 1.351 . S
C257 H274 0.930 . S
C258 N254 1.389 . S
C258 C257 1.351 . S
C258 H263 0.930 . S
O259 Cu253 1.974 . S
O259 C269 1.282 . S
C260 O261 1.261 . S
C260 O273 1.251 . S
O261 C260 1.261 . S
H262 C256 0.930 . S
H263 C258 0.930 . S
N264 Cu253 1.985 . S
N264 C266 1.335 . S
N264 C267 1.390 . S
N265 C266 1.345 . S
N265 C268 1.336 . S
C266 N264 1.335 . S
C266 N265 1.345 . S
C266 H271 0.930 . S
C267 N264 1.390 . S
C267 C268 1.346 . S
C267 H272 0.930 . S
C268 N265 1.336 . S
C268 C267 1.346 . S
C268 H275 0.929 . S
C269 O259 1.282 . S
C269 O270 1.216 . S
O270 C269 1.216 . S
H271 C266 0.930 . S
H272 C267 0.930 . S
O273 Cu253 1.959 . S
O273 C260 1.251 . S
H274 C257 0.930 . S
H275 C268 0.929 . S
Cu276 N277 1.999 . S
Cu276 O282 1.974 . S
Cu276 N287 1.985 . S
Cu276 O296 1.959 . S
N277 Cu276 1.999 . S
N277 C279 1.263 . S
N277 C281 1.389 . S
N278 C279 1.358 . S
N278 C280 1.400 . S
C279 N277 1.263 . S
C279 N278 1.358 . S
C279 H285 0.930 . S
C280 N278 1.400 . S
C280 C281 1.351 . S
C280 H297 0.930 . S
C281 N277 1.389 . S
C281 C280 1.351 . S
C281 H286 0.930 . S
O282 Cu276 1.974 . S
O282 C292 1.282 . S
C283 O284 1.261 . S
C283 O296 1.251 . S
O284 C283 1.261 . S
H285 C279 0.930 . S
H286 C281 0.930 . S
N287 Cu276 1.985 . S
N287 C289 1.335 . S
N287 C290 1.390 . S
N288 C289 1.345 . S
N288 C291 1.336 . S
C289 N287 1.335 . S
C289 N288 1.345 . S
C289 H294 0.930 . S
C290 N287 1.390 . S
C290 C291 1.346 . S
C290 H295 0.930 . S
C291 N288 1.336 . S
C291 C290 1.346 . S
C291 H298 0.929 . S
C292 O282 1.282 . S
C292 O293 1.216 . S
O293 C292 1.216 . S
H294 C289 0.930 . S
H295 C290 0.930 . S
O296 Cu276 1.959 . S
O296 C283 1.251 . S
H297 C280 0.930 . S
H298 C291 0.929 . S
Cu299 N300 1.999 . S
Cu299 O305 1.974 . S
Cu299 N310 1.985 . S
Cu299 O319 1.959 . S
N300 Cu299 1.999 . S
N300 C302 1.263 . S
N300 C304 1.389 . S
N301 C302 1.358 . S
N301 C303 1.400 . S
C302 N300 1.263 . S
C302 N301 1.358 . S
C302 H308 0.930 . S
C303 N301 1.400 . S
C303 C304 1.351 . S
C303 H320 0.930 . S
C304 N300 1.389 . S
C304 C303 1.351 . S
C304 H309 0.930 . S
O305 Cu299 1.974 . S
O305 C315 1.282 . S
C306 O307 1.261 . S
C306 O319 1.251 . S
O307 C306 1.261 . S
H308 C302 0.930 . S
H309 C304 0.930 . S
N310 Cu299 1.985 . S
N310 C312 1.335 . S
N310 C313 1.390 . S
N311 C312 1.345 . S
N311 C314 1.336 . S
C312 N310 1.335 . S
C312 N311 1.345 . S
C312 H317 0.930 . S
C313 N310 1.390 . S
C313 C314 1.346 . S
C313 H318 0.930 . S
C314 N311 1.336 . S
C314 C313 1.346 . S
C314 H321 0.929 . S
C315 O305 1.282 . S
C315 O316 1.216 . S
O316 C315 1.216 . S
H317 C312 0.930 . S
H318 C313 0.930 . S
O319 Cu299 1.959 . S
O319 C306 1.251 . S
H320 C303 0.930 . S
H321 C314 0.929 . S
Cu322 N323 1.999 . S
Cu322 O328 1.974 . S
Cu322 N333 1.985 . S
Cu322 O342 1.959 . S
N323 Cu322 1.999 . S
N323 C325 1.263 . S
N323 C327 1.389 . S
N324 C325 1.358 . S
N324 C326 1.400 . S
C325 N323 1.263 . S
C325 N324 1.358 . S
C325 H331 0.930 . S
C326 N324 1.400 . S
C326 C327 1.351 . S
C326 H343 0.930 . S
C327 N323 1.389 . S
C327 C326 1.351 . S
C327 H332 0.930 . S
O328 Cu322 1.974 . S
O328 C338 1.282 . S
C329 O330 1.261 . S
C329 O342 1.251 . S
O330 C329 1.261 . S
H331 C325 0.930 . S
H332 C327 0.930 . S
N333 Cu322 1.985 . S
N333 C335 1.335 . S
N333 C336 1.390 . S
N334 C335 1.345 . S
N334 C337 1.336 . S
C335 N333 1.335 . S
C335 N334 1.345 . S
C335 H340 0.930 . S
C336 N333 1.390 . S
C336 C337 1.346 . S
C336 H341 0.930 . S
C337 N334 1.336 . S
C337 C336 1.346 . S
C337 H344 0.929 . S
C338 O328 1.282 . S
C338 O339 1.216 . S
O339 C338 1.216 . S
H340 C335 0.930 . S
H341 C336 0.930 . S
O342 Cu322 1.959 . S
O342 C329 1.251 . S
H343 C326 0.930 . S
H344 C337 0.929 . S
Cu345 N346 1.999 . S
Cu345 O351 1.974 . S
Cu345 N356 1.985 . S
Cu345 O365 1.959 . S
N346 Cu345 1.999 . S
N346 C348 1.263 . S
N346 C350 1.389 . S
N347 C348 1.358 . S
N347 C349 1.400 . S
C348 N346 1.263 . S
C348 N347 1.358 . S
C348 H354 0.930 . S
C349 N347 1.400 . S
C349 C350 1.351 . S
C349 H366 0.930 . S
C350 N346 1.389 . S
C350 C349 1.351 . S
C350 H355 0.930 . S
O351 Cu345 1.974 . S
O351 C361 1.282 . S
C352 O353 1.261 . S
C352 O365 1.251 . S
O353 C352 1.261 . S
H354 C348 0.930 . S
H355 C350 0.930 . S
N356 Cu345 1.985 . S
N356 C358 1.335 . S
N356 C359 1.390 . S
N357 C358 1.345 . S
N357 C360 1.336 . S
C358 N356 1.335 . S
C358 N357 1.345 . S
C358 H363 0.930 . S
C359 N356 1.390 . S
C359 C360 1.346 . S
C359 H364 0.930 . S
C360 N357 1.336 . S
C360 C359 1.346 . S
C360 H367 0.929 . S
C361 O351 1.282 . S
C361 O362 1.216 . S
O362 C361 1.216 . S
H363 C358 0.930 . S
H364 C359 0.930 . S
O365 Cu345 1.959 . S
O365 C352 1.251 . S
H366 C349 0.930 . S
H367 C360 0.929 . S
H368 C374 0.930 . S
H369 C377 0.930 . S
H370 C378 0.930 . S
H371 C379 0.930 . S
H372 C382 0.930 . S
H373 C383 0.930 . S
C374 H368 0.930 . S
C374 C375 1.355 . S
C374 C376 1.415 . S
C375 C374 1.355 . S
C375 C377 1.419 . S
C376 C374 1.415 . S
C376 C381 1.425 . S
C376 C383 1.409 . S
C377 H369 0.930 . S
C377 C375 1.419 . S
C377 C378 1.362 . S
C378 H370 0.930 . S
C378 C377 1.362 . S
C378 C381 1.409 . S
C379 H371 0.930 . S
C379 C380 1.355 . S
C379 C381 1.415 . S
C380 C379 1.355 . S
C380 C382 1.419 . S
C381 C376 1.425 . S
C381 C378 1.409 . S
C381 C379 1.415 . S
C382 H372 0.930 . S
C382 C380 1.419 . S
C382 C383 1.362 . S
C383 H373 0.930 . S
C383 C376 1.409 . S
C383 C382 1.362 . S
H384 C390 0.930 . S
H385 C393 0.930 . S
H386 C394 0.930 . S
H387 C395 0.930 . S
H388 C398 0.930 . S
H389 C399 0.930 . S
C390 H384 0.930 . S
C390 C391 1.355 . S
C390 C392 1.415 . S
C391 C390 1.355 . S
C391 C393 1.419 . S
C392 C390 1.415 . S
C392 C397 1.425 . S
C392 C399 1.409 . S
C393 H385 0.930 . S
C393 C391 1.419 . S
C393 C394 1.362 . S
C394 H386 0.930 . S
C394 C393 1.362 . S
C394 C397 1.409 . S
C395 H387 0.930 . S
C395 C396 1.355 . S
C395 C397 1.415 . S
C396 C395 1.355 . S
C396 C398 1.419 . S
C397 C392 1.425 . S
C397 C394 1.409 . S
C397 C395 1.415 . S
C398 H388 0.930 . S
C398 C396 1.419 . S
C398 C399 1.362 . S
C399 H389 0.930 . S
C399 C392 1.409 . S
C399 C398 1.362 . S
H400 C406 0.930 . S
H401 C409 0.930 . S
H402 C410 0.930 . S
H403 C411 0.930 . S
H404 C414 0.930 . S
H405 C415 0.930 . S
C406 H400 0.930 . S
C406 C407 1.355 . S
C406 C408 1.415 . S
C407 C406 1.355 . S
C407 C409 1.419 . S
C408 C406 1.415 . S
C408 C413 1.425 . S
C408 C415 1.409 . S
C409 H401 0.930 . S
C409 C407 1.419 . S
C409 C410 1.362 . S
C410 H402 0.930 . S
C410 C409 1.362 . S
C410 C413 1.409 . S
C411 H403 0.930 . S
C411 C412 1.355 . S
C411 C413 1.415 . S
C412 C411 1.355 . S
C412 C414 1.419 . S
C413 C408 1.425 . S
C413 C410 1.409 . S
C413 C411 1.415 . S
C414 H404 0.930 . S
C414 C412 1.419 . S
C414 C415 1.362 . S
C415 H405 0.930 . S
C415 C408 1.409 . S
C415 C414 1.362 . S
H416 C422 0.930 . S
H417 C425 0.930 . S
H418 C426 0.930 . S
H419 C427 0.930 . S
H420 C430 0.930 . S
H421 C431 0.930 . S
C422 H416 0.930 . S
C422 C423 1.355 . S
C422 C424 1.415 . S
C423 C422 1.355 . S
C423 C425 1.419 . S
C424 C422 1.415 . S
C424 C429 1.425 . S
C424 C431 1.409 . S
C425 H417 0.930 . S
C425 C423 1.419 . S
C425 C426 1.362 . S
C426 H418 0.930 . S
C426 C425 1.362 . S
C426 C429 1.409 . S
C427 H419 0.930 . S
C427 C428 1.355 . S
C427 C429 1.415 . S
C428 C427 1.355 . S
C428 C430 1.419 . S
C429 C424 1.425 . S
C429 C426 1.409 . S
C429 C427 1.415 . S
C430 H420 0.930 . S
C430 C428 1.419 . S
C430 C431 1.362 . S
C431 H421 0.930 . S
C431 C424 1.409 . S
C431 C430 1.362 . S
H432 C438 0.930 . S
H433 C441 0.930 . S
H434 C442 0.930 . S
H435 C443 0.930 . S
H436 C446 0.930 . S
H437 C447 0.930 . S
C438 H432 0.930 . S
C438 C439 1.355 . S
C438 C440 1.415 . S
C439 C438 1.355 . S
C439 C441 1.419 . S
C440 C438 1.415 . S
C440 C445 1.425 . S
C440 C447 1.409 1_554 S
C441 H433 0.930 . S
C441 C439 1.419 . S
C441 C442 1.362 . S
C442 H434 0.930 . S
C442 C441 1.362 . S
C442 C445 1.409 . S
C443 H435 0.930 . S
C443 C444 1.355 1_554 S
C443 C445 1.415 . S
C444 C443 1.355 1_556 S
C444 C446 1.419 . S
C445 C440 1.425 . S
C445 C442 1.409 . S
C445 C443 1.415 . S
C446 H436 0.930 . S
C446 C444 1.419 . S
C446 C447 1.362 . S
C447 H437 0.930 . S
C447 C440 1.409 1_556 S
C447 C446 1.362 . S
H448 C454 0.930 . S
H449 C457 0.930 . S
H450 C458 0.930 . S
H451 C459 0.947 . S
H452 C462 0.930 . S
H453 C463 0.962 . S
C454 H448 0.930 . S
C454 C455 1.355 . S
C454 C456 1.415 . S
C455 C454 1.355 . S
C455 C457 1.419 . S
C456 C454 1.415 . S
C456 C461 1.425 . S
C456 C463 1.352 1_554 S
C457 H449 0.930 . S
C457 C455 1.419 . S
C457 C458 1.362 . S
C458 H450 0.930 . S
C458 C457 1.362 . S
C458 C461 1.409 . S
C459 H451 0.947 . S
C459 C460 1.367 . S
C459 C461 1.415 . S
C460 C459 1.367 . S
C460 C462 1.413 1_554 S
C461 C456 1.425 . S
C461 C458 1.409 . S
C461 C459 1.415 . S
C462 H452 0.930 . S
C462 C460 1.413 1_556 S
C462 C463 1.391 . S
C463 H453 0.962 . S
C463 C456 1.352 1_556 S
C463 C462 1.391 . S
H464 C470 0.930 . S
H465 C473 0.930 . S
H466 C474 0.930 . S
H467 C475 0.930 . S
H468 C478 0.930 1_545 S
H469 C479 0.930 . S
C470 H464 0.930 . S
C470 C471 1.355 . S
C470 C472 1.415 1_556 S
C471 C470 1.355 . S
C471 C473 1.419 . S
C472 C470 1.415 1_554 S
C472 C477 1.425 . S
C472 C479 1.409 . S
C473 H465 0.930 . S
C473 C471 1.419 . S
C473 C474 1.362 1_556 S
C474 H466 0.930 . S
C474 C473 1.362 1_554 S
C474 C477 1.409 . S
C475 H467 0.930 . S
C475 C476 1.355 . S
C475 C477 1.415 . S
C476 C475 1.355 . S
C476 C478 1.419 . S
C477 C472 1.425 . S
C477 C474 1.409 . S
C477 C475 1.415 . S
C478 H468 0.930 1_565 S
C478 C476 1.419 . S
C478 C479 1.362 . S
C479 H469 0.930 . S
C479 C472 1.409 . S
C479 C478 1.362 . S
H480 C486 0.930 . S
H481 C489 0.930 . S
H482 C490 0.930 . S
H483 C491 0.930 . S
H484 C494 0.930 . S
H485 C495 0.912 1_556 S
C486 H480 0.930 . S
C486 C487 1.355 . S
C486 C488 1.415 . S
C487 C486 1.355 . S
C487 C489 1.419 . S
C488 C486 1.415 . S
C488 C493 1.425 . S
C488 C495 1.448 . S
C489 H481 0.930 . S
C489 C487 1.419 . S
C489 C490 1.362 . S
C490 H482 0.930 . S
C490 C489 1.362 . S
C490 C493 1.409 . S
C491 H483 0.930 . S
C491 C492 1.361 1_554 S
C491 C493 1.415 . S
C492 C491 1.361 1_556 S
C492 C494 1.416 . S
C493 C488 1.425 . S
C493 C490 1.409 . S
C493 C491 1.415 . S
C494 H484 0.930 . S
C494 C492 1.416 . S
C494 C495 1.342 1_556 S
C495 H485 0.912 1_554 S
C495 C488 1.448 . S
C495 C494 1.342 1_554 S
H496 C502 0.930 . S
H497 C505 0.930 . S
H498 C506 0.930 . S
H499 C507 0.930 . S
H500 C510 0.930 . S
H501 C511 0.930 . S
C502 H496 0.930 . S
C502 C503 1.355 . S
C502 C504 1.415 . S
C503 C502 1.355 . S
C503 C505 1.419 . S
C504 C502 1.415 . S
C504 C509 1.425 . S
C504 C511 1.409 . S
C505 H497 0.930 . S
C505 C503 1.419 . S
C505 C506 1.362 . S
C506 H498 0.930 . S
C506 C505 1.362 . S
C506 C509 1.409 . S
C507 H499 0.930 . S
C507 C508 1.355 . S
C507 C509 1.415 . S
C508 C507 1.355 . S
C508 C510 1.419 . S
C509 C504 1.425 . S
C509 C506 1.409 . S
C509 C507 1.415 . S
C510 H500 0.930 . S
C510 C508 1.419 . S
C510 C511 1.362 . S
C511 H501 0.930 . S
C511 C504 1.409 . S
C511 C510 1.362 . S
H512 C518 0.930 . S
H513 C521 0.930 . S
H514 C522 0.930 . S
H515 C523 0.930 . S
H516 C526 0.930 . S
H517 C527 0.930 . S
C518 H512 0.930 . S
C518 C519 1.355 . S
C518 C520 1.415 . S
C519 C518 1.355 . S
C519 C521 1.419 . S
C520 C518 1.415 . S
C520 C525 1.425 . S
C520 C527 1.409 . S
C521 H513 0.930 . S
C521 C519 1.419 . S
C521 C522 1.362 . S
C522 H514 0.930 . S
C522 C521 1.362 . S
C522 C525 1.409 . S
C523 H515 0.930 . S
C523 C524 1.355 . S
C523 C525 1.415 . S
C524 C523 1.355 . S
C524 C526 1.419 . S
C525 C520 1.425 . S
C525 C522 1.409 . S
C525 C523 1.415 . S
C526 H516 0.930 . S
C526 C524 1.419 . S
C526 C527 1.362 . S
C527 H517 0.930 . S
C527 C520 1.409 . S
C527 C526 1.362 . S
H528 C534 0.930 . S
H529 C537 0.930 1_565 S
H530 C538 0.930 . S
H531 C539 0.930 . S
H532 C542 0.930 . S
H533 C543 0.930 . S
C534 H528 0.930 . S
C534 C535 1.355 . S
C534 C536 1.415 . S
C535 C534 1.355 . S
C535 C537 1.419 . S
C536 C534 1.415 . S
C536 C541 1.425 . S
C536 C543 1.409 . S
C537 H529 0.930 1_545 S
C537 C535 1.419 . S
C537 C538 1.362 . S
C538 H530 0.930 . S
C538 C537 1.362 . S
C538 C541 1.409 . S
C539 H531 0.930 . S
C539 C540 1.355 . S
C539 C541 1.415 . S
C540 C539 1.355 . S
C540 C542 1.419 . S
C541 C536 1.425 . S
C541 C538 1.409 . S
C541 C539 1.415 . S
C542 H532 0.930 . S
C542 C540 1.419 . S
C542 C543 1.362 . S
C543 H533 0.930 . S
C543 C536 1.409 . S
C543 C542 1.362 . S
H544 C550 0.930 . S
H545 C553 0.930 1_655 S
H546 C554 0.930 . S
H547 C555 0.930 . S
H548 C558 0.930 . S
H549 C559 0.930 . S
C550 H544 0.930 . S
C550 C551 1.355 . S
C550 C552 1.415 . S
C551 C550 1.355 . S
C551 C553 1.419 . S
C552 C550 1.415 . S
C552 C557 1.425 . S
C552 C559 1.409 . S
C553 H545 0.930 1_455 S
C553 C551 1.419 . S
C553 C554 1.362 . S
C554 H546 0.930 . S
C554 C553 1.362 . S
C554 C557 1.409 . S
C555 H547 0.930 . S
C555 C556 1.355 . S
C555 C557 1.415 . S
C556 C555 1.355 . S
C556 C558 1.419 . S
C557 C552 1.425 . S
C557 C554 1.409 . S
C557 C555 1.415 . S
C558 H548 0.930 . S
C558 C556 1.419 . S
C558 C559 1.362 . S
C559 H549 0.930 . S
C559 C552 1.409 . S
C559 C558 1.362 . S
H560 C566 0.930 . S
H561 C569 0.930 . S
H562 C570 0.930 . S
H563 C571 0.930 . S
H564 C574 0.930 . S
H565 C575 0.930 . S
C566 H560 0.930 . S
C566 C567 1.355 . S
C566 C568 1.415 . S
C567 C566 1.355 . S
C567 C569 1.419 . S
C568 C566 1.415 . S
C568 C573 1.425 . S
C568 C575 1.409 . S
C569 H561 0.930 . S
C569 C567 1.419 . S
C569 C570 1.362 . S
C570 H562 0.930 . S
C570 C569 1.362 . S
C570 C573 1.409 . S
C571 H563 0.930 . S
C571 C572 1.355 . S
C571 C573 1.415 . S
C572 C571 1.355 . S
C572 C574 1.419 . S
C573 C568 1.425 . S
C573 C570 1.409 . S
C573 C571 1.415 . S
C574 H564 0.930 . S
C574 C572 1.419 . S
C574 C575 1.362 . S
C575 H565 0.930 . S
C575 C568 1.409 . S
C575 C574 1.362 . S
H576 C582 0.930 . S
H577 C585 0.930 . S
H578 C586 0.930 . S
H579 C587 0.930 . S
H580 C590 0.930 . S
H581 C591 0.930 . S
C582 H576 0.930 . S
C582 C583 1.355 . S
C582 C584 1.415 . S
C583 C582 1.355 . S
C583 C585 1.419 . S
C584 C582 1.415 . S
C584 C589 1.425 . S
C584 C591 1.409 . S
C585 H577 0.930 . S
C585 C583 1.419 . S
C585 C586 1.362 . S
C586 H578 0.930 . S
C586 C585 1.362 . S
C586 C589 1.409 . S
C587 H579 0.930 . S
C587 C588 1.355 . S
C587 C589 1.415 . S
C588 C587 1.355 . S
C588 C590 1.419 . S
C589 C584 1.425 . S
C589 C586 1.409 . S
C589 C587 1.415 . S
C590 H580 0.930 . S
C590 C588 1.419 . S
C590 C591 1.362 . S
C591 H581 0.930 . S
C591 C584 1.409 . S
C591 C590 1.362 . S
H592 C598 0.930 . S
H593 C601 0.930 . S
H594 C602 0.930 . S
H595 C603 0.930 . S
H596 C606 0.930 . S
H597 C607 0.930 . S
C598 H592 0.930 . S
C598 C599 1.355 . S
C598 C600 1.415 . S
C599 C598 1.355 . S
C599 C601 1.419 . S
C600 C598 1.415 . S
C600 C605 1.425 . S
C600 C607 1.409 . S
C601 H593 0.930 . S
C601 C599 1.419 . S
C601 C602 1.362 . S
C602 H594 0.930 . S
C602 C601 1.362 . S
C602 C605 1.409 . S
C603 H595 0.930 . S
C603 C604 1.355 . S
C603 C605 1.415 . S
C604 C603 1.355 . S
C604 C606 1.419 . S
C605 C600 1.425 . S
C605 C602 1.409 . S
C605 C603 1.415 . S
C606 H596 0.930 . S
C606 C604 1.419 . S
C606 C607 1.362 . S
C607 H597 0.930 . S
C607 C600 1.409 . S
C607 C606 1.362 . S
H608 C614 0.930 . S
H609 C617 0.930 . S
H610 C618 0.930 . S
H611 C619 0.930 . S
H612 C622 0.930 . S
H613 C623 0.930 . S
C614 H608 0.930 . S
C614 C615 1.355 . S
C614 C616 1.415 . S
C615 C614 1.355 . S
C615 C617 1.419 . S
C616 C614 1.415 . S
C616 C621 1.425 . S
C616 C623 1.409 . S
C617 H609 0.930 . S
C617 C615 1.419 . S
C617 C618 1.362 . S
C618 H610 0.930 . S
C618 C617 1.362 . S
C618 C621 1.409 . S
C619 H611 0.930 . S
C619 C620 1.355 . S
C619 C621 1.415 . S
C620 C619 1.355 . S
C620 C622 1.419 . S
C621 C616 1.425 . S
C621 C618 1.409 . S
C621 C619 1.415 . S
C622 H612 0.930 . S
C622 C620 1.419 . S
C622 C623 1.362 . S
C623 H613 0.930 . S
C623 C616 1.409 . S
C623 C622 1.362 . S
H624 C630 0.930 . S
H625 C633 0.930 . S
H626 C634 0.930 . S
H627 C635 0.930 . S
H628 C638 0.930 . S
H629 C639 0.930 . S
C630 H624 0.930 . S
C630 C631 1.355 . S
C630 C632 1.415 . S
C631 C630 1.355 . S
C631 C633 1.419 . S
C632 C630 1.415 . S
C632 C637 1.425 . S
C632 C639 1.409 . S
C633 H625 0.930 . S
C633 C631 1.419 . S
C633 C634 1.362 . S
C634 H626 0.930 . S
C634 C633 1.362 . S
C634 C637 1.409 . S
C635 H627 0.930 . S
C635 C636 1.355 . S
C635 C637 1.415 . S
C636 C635 1.355 . S
C636 C638 1.419 . S
C637 C632 1.425 . S
C637 C634 1.409 . S
C637 C635 1.415 . S
C638 H628 0.930 . S
C638 C636 1.419 . S
C638 C639 1.362 . S
C639 H629 0.930 . S
C639 C632 1.409 . S
C639 C638 1.362 . S
H640 C646 0.930 . S
H641 C649 0.930 . S
H642 C650 0.930 . S
H643 C651 0.930 . S
H644 C654 0.930 . S
H645 C655 0.930 . S
C646 H640 0.930 . S
C646 C647 1.355 . S
C646 C648 1.415 . S
C647 C646 1.355 . S
C647 C649 1.419 . S
C648 C646 1.415 . S
C648 C653 1.425 . S
C648 C655 1.409 . S
C649 H641 0.930 . S
C649 C647 1.419 . S
C649 C650 1.362 . S
C650 H642 0.930 . S
C650 C649 1.362 . S
C650 C653 1.409 . S
C651 H643 0.930 . S
C651 C652 1.355 . S
C651 C653 1.415 . S
C652 C651 1.355 . S
C652 C654 1.419 . S
C653 C648 1.425 . S
C653 C650 1.409 . S
C653 C651 1.415 . S
C654 H644 0.930 . S
C654 C652 1.419 . S
C654 C655 1.362 . S
C655 H645 0.930 . S
C655 C648 1.409 . S
C655 C654 1.362 . S
H656 C662 0.930 . S
H657 C665 0.930 . S
H658 C666 0.930 . S
H659 C667 0.930 . S
H660 C670 0.930 . S
H661 C671 0.930 . S
C662 H656 0.930 . S
C662 C663 1.355 . S
C662 C664 1.415 . S
C663 C662 1.355 . S
C663 C665 1.419 . S
C664 C662 1.415 . S
C664 C669 1.425 . S
C664 C671 1.409 . S
C665 H657 0.930 . S
C665 C663 1.419 . S
C665 C666 1.362 . S
C666 H658 0.930 . S
C666 C665 1.362 . S
C666 C669 1.409 . S
C667 H659 0.930 . S
C667 C668 1.355 . S
C667 C669 1.415 . S
C668 C667 1.355 . S
C668 C670 1.419 . S
C669 C664 1.425 . S
C669 C666 1.409 . S
C669 C667 1.415 . S
C670 H660 0.930 . S
C670 C668 1.419 . S
C670 C671 1.362 . S
C671 H661 0.930 . S
C671 C664 1.409 . S
C671 C670 1.362 . S
H672 C678 0.930 . S
H673 C681 0.930 . S
H674 C682 0.930 . S
H675 C683 0.930 . S
H676 C686 0.930 . S
H677 C687 0.930 . S
C678 H672 0.930 . S
C678 C679 1.355 . S
C678 C680 1.415 . S
C679 C678 1.355 . S
C679 C681 1.419 . S
C680 C678 1.415 . S
C680 C685 1.425 . S
C680 C687 1.409 . S
C681 H673 0.930 . S
C681 C679 1.419 . S
C681 C682 1.362 . S
C682 H674 0.930 . S
C682 C681 1.362 . S
C682 C685 1.409 . S
C683 H675 0.930 . S
C683 C684 1.355 . S
C683 C685 1.415 . S
C684 C683 1.355 . S
C684 C686 1.419 . S
C685 C680 1.425 . S
C685 C682 1.409 . S
C685 C683 1.415 . S
C686 H676 0.930 . S
C686 C684 1.419 . S
C686 C687 1.362 . S
C687 H677 0.930 . S
C687 C680 1.409 . S
C687 C686 1.362 . S
H688 C694 0.930 . S
H689 C697 0.930 . S
H690 C698 0.930 . S
H691 C699 0.930 . S
H692 C702 0.930 . S
H693 C703 0.930 . S
C694 H688 0.930 . S
C694 C695 1.355 . S
C694 C696 1.415 . S
C695 C694 1.355 . S
C695 C697 1.419 . S
C696 C694 1.415 . S
C696 C701 1.425 . S
C696 C703 1.409 . S
C697 H689 0.930 . S
C697 C695 1.419 . S
C697 C698 1.362 . S
C698 H690 0.930 . S
C698 C697 1.362 . S
C698 C701 1.409 . S
C699 H691 0.930 . S
C699 C700 1.355 . S
C699 C701 1.415 . S
C700 C699 1.355 . S
C700 C702 1.419 . S
C701 C696 1.425 . S
C701 C698 1.409 . S
C701 C699 1.415 . S
C702 H692 0.930 . S
C702 C700 1.419 . S
C702 C703 1.362 . S
C703 H693 0.930 . S
C703 C696 1.409 . S
C703 C702 1.362 . S
H704 C710 0.930 . S
H705 C713 0.930 . S
H706 C714 0.930 . S
H707 C715 0.930 . S
H708 C718 0.930 . S
H709 C719 0.930 . S
C710 H704 0.930 . S
C710 C711 1.355 . S
C710 C712 1.415 . S
C711 C710 1.355 . S
C711 C713 1.419 . S
C712 C710 1.415 . S
C712 C717 1.425 . S
C712 C719 1.409 . S
C713 H705 0.930 . S
C713 C711 1.419 . S
C713 C714 1.362 . S
C714 H706 0.930 . S
C714 C713 1.362 . S
C714 C717 1.409 . S
C715 H707 0.930 . S
C715 C716 1.355 . S
C715 C717 1.415 . S
C716 C715 1.355 . S
C716 C718 1.419 . S
C717 C712 1.425 . S
C717 C714 1.409 . S
C717 C715 1.415 . S
C718 H708 0.930 . S
C718 C716 1.419 . S
C718 C719 1.362 . S
C719 H709 0.930 . S
C719 C712 1.409 . S
C719 C718 1.362 . S
H720 C726 0.930 . S
H721 C729 0.930 . S
H722 C730 0.930 . S
H723 C731 0.930 . S
H724 C734 0.930 . S
H725 C735 0.930 . S
C726 H720 0.930 . S
C726 C727 1.355 . S
C726 C728 1.415 . S
C727 C726 1.355 . S
C727 C729 1.419 . S
C728 C726 1.415 . S
C728 C733 1.425 . S
C728 C735 1.409 . S
C729 H721 0.930 . S
C729 C727 1.419 . S
C729 C730 1.362 . S
C730 H722 0.930 . S
C730 C729 1.362 . S
C730 C733 1.409 . S
C731 H723 0.930 . S
C731 C732 1.355 . S
C731 C733 1.415 . S
C732 C731 1.355 . S
C732 C734 1.419 . S
C733 C728 1.425 . S
C733 C730 1.409 . S
C733 C731 1.415 . S
C734 H724 0.930 . S
C734 C732 1.419 . S
C734 C735 1.362 . S
C735 H725 0.930 . S
C735 C728 1.409 . S
C735 C734 1.362 . S
H736 C742 0.930 . S
H737 C745 0.930 . S
H738 C746 0.930 . S
H739 C747 0.930 . S
H740 C750 0.930 . S
H741 C751 0.930 . S
C742 H736 0.930 . S
C742 C743 1.355 . S
C742 C744 1.415 . S
C743 C742 1.355 . S
C743 C745 1.419 . S
C744 C742 1.415 . S
C744 C749 1.425 . S
C744 C751 1.409 . S
C745 H737 0.930 . S
C745 C743 1.419 . S
C745 C746 1.362 . S
C746 H738 0.930 . S
C746 C745 1.362 . S
C746 C749 1.409 . S
C747 H739 0.930 . S
C747 C748 1.355 . S
C747 C749 1.415 . S
C748 C747 1.355 . S
C748 C750 1.419 . S
C749 C744 1.425 . S
C749 C746 1.409 . S
C749 C747 1.415 . S
C750 H740 0.930 . S
C750 C748 1.419 . S
C750 C751 1.362 . S
C751 H741 0.930 . S
C751 C744 1.409 . S
C751 C750 1.362 . S
H752 C758 0.930 . S
H753 C761 0.930 . S
H754 C762 0.930 . S
H755 C763 0.930 . S
H756 C766 0.930 . S
H757 C767 0.930 . S
C758 H752 0.930 . S
C758 C759 1.355 . S
C758 C760 1.415 1_565 S
C759 C758 1.355 . S
C759 C761 1.419 1_655 S
C760 C758 1.415 1_545 S
C760 C765 1.425 1_645 S
C760 C767 1.409 . S
C761 H753 0.930 . S
C761 C759 1.419 1_455 S
C761 C762 1.362 . S
C762 H754 0.930 . S
C762 C761 1.362 . S
C762 C765 1.409 . S
C763 H755 0.930 . S
C763 C764 1.355 . S
C763 C765 1.415 1_545 S
C764 C763 1.355 . S
C764 C766 1.419 1_455 S
C765 C760 1.425 1_465 S
C765 C762 1.409 . S
C765 C763 1.415 1_565 S
C766 H756 0.930 . S
C766 C764 1.419 1_655 S
C766 C767 1.362 . S
C767 H757 0.930 . S
C767 C760 1.409 . S
C767 C766 1.362 . S
H768 C774 0.930 . S
H769 C777 0.930 . S
H770 C778 0.930 . S
H771 C779 0.930 . S
H772 C782 0.930 . S
H773 C783 0.930 . S
C774 H768 0.930 . S
C774 C775 1.355 . S
C774 C776 1.415 . S
C775 C774 1.355 . S
C775 C777 1.419 1_545 S
C776 C774 1.415 . S
C776 C781 1.425 1_645 S
C776 C783 1.409 1_655 S
C777 H769 0.930 . S
C777 C775 1.419 1_565 S
C777 C778 1.362 . S
C778 H770 0.930 . S
C778 C777 1.362 . S
C778 C781 1.409 1_655 S
C779 H771 0.930 . S
C779 C780 1.355 . S
C779 C781 1.415 . S
C780 C779 1.355 . S
C780 C782 1.419 1_565 S
C781 C776 1.425 1_465 S
C781 C778 1.409 1_455 S
C781 C779 1.415 . S
C782 H772 0.930 . S
C782 C780 1.419 1_545 S
C782 C783 1.362 . S
C783 H773 0.930 . S
C783 C776 1.409 1_455 S
C783 C782 1.362 . S
H784 C790 0.930 1_655 S
H785 C793 0.930 . S
H786 C794 0.930 . S
H787 C795 0.930 1_455 S
H788 C798 0.930 . S
H789 C799 0.930 . S
C790 H784 0.930 1_455 S
C790 C791 1.355 . S
C790 C792 1.415 1_455 S
C791 C790 1.355 . S
C791 C793 1.419 . S
C792 C790 1.415 1_655 S
C792 C797 1.425 1_655 S
C792 C799 1.409 . S
C793 H785 0.930 . S
C793 C791 1.419 . S
C793 C794 1.362 . S
C794 H786 0.930 . S
C794 C793 1.362 . S
C794 C797 1.409 . S
C795 H787 0.930 1_655 S
C795 C796 1.355 . S
C795 C797 1.415 1_655 S
C796 C795 1.355 . S
C796 C798 1.419 . S
C797 C792 1.425 1_455 S
C797 C794 1.409 . S
C797 C795 1.415 1_455 S
C798 H788 0.930 . S
C798 C796 1.419 . S
C798 C799 1.362 . S
C799 H789 0.930 . S
C799 C792 1.409 . S
C799 C798 1.362 . S
H800 C806 0.930 . S
H801 C809 0.930 . S
H802 C810 0.930 . S
H803 C811 0.930 . S
H804 C814 0.930 . S
H805 C815 0.930 . S
C806 H800 0.930 . S
C806 C807 1.355 . S
C806 C808 1.415 . S
C807 C806 1.355 . S
C807 C809 1.419 1_565 S
C808 C806 1.415 . S
C808 C813 1.425 1_565 S
C808 C815 1.409 . S
C809 H801 0.930 . S
C809 C807 1.419 1_545 S
C809 C810 1.362 . S
C810 H802 0.930 . S
C810 C809 1.362 . S
C810 C813 1.409 . S
C811 H803 0.930 . S
C811 C812 1.355 . S
C811 C813 1.415 . S
C812 C811 1.355 . S
C812 C814 1.419 1_545 S
C813 C808 1.425 1_545 S
C813 C810 1.409 . S
C813 C811 1.415 . S
C814 H804 0.930 . S
C814 C812 1.419 1_565 S
C814 C815 1.362 . S
C815 H805 0.930 . S
C815 C808 1.409 . S
C815 C814 1.362 . S
H816 C822 0.930 . S
H817 C825 0.930 . S
H818 C826 0.930 . S
H819 C827 0.930 . S
H820 C830 0.930 . S
H821 C831 0.930 . S
C822 H816 0.930 . S
C822 C823 1.355 . S
C822 C824 1.415 . S
C823 C822 1.355 . S
C823 C825 1.419 . S
C824 C822 1.415 . S
C824 C829 1.425 . S
C824 C831 1.409 . S
C825 H817 0.930 . S
C825 C823 1.419 . S
C825 C826 1.362 . S
C826 H818 0.930 . S
C826 C825 1.362 . S
C826 C829 1.409 . S
C827 H819 0.930 . S
C827 C828 1.355 . S
C827 C829 1.415 . S
C828 C827 1.355 . S
C828 C830 1.419 . S
C829 C824 1.425 . S
C829 C826 1.409 . S
C829 C827 1.415 . S
C830 H820 0.930 . S
C830 C828 1.419 . S
C830 C831 1.362 . S
C831 H821 0.930 . S
C831 C824 1.409 . S
C831 C830 1.362 . S
H832 C838 0.930 . S
H833 C841 0.930 . S
H834 C842 0.930 . S
H835 C843 0.930 . S
H836 C846 0.930 . S
H837 C847 0.930 . S
C838 H832 0.930 . S
C838 C839 1.355 . S
C838 C840 1.415 . S
C839 C838 1.355 . S
C839 C841 1.419 . S
C840 C838 1.415 . S
C840 C845 1.425 . S
C840 C847 1.409 . S
C841 H833 0.930 . S
C841 C839 1.419 . S
C841 C842 1.362 . S
C842 H834 0.930 . S
C842 C841 1.362 . S
C842 C845 1.409 . S
C843 H835 0.930 . S
C843 C844 1.355 . S
C843 C845 1.415 . S
C844 C843 1.355 . S
C844 C846 1.419 . S
C845 C840 1.425 . S
C845 C842 1.409 . S
C845 C843 1.415 . S
C846 H836 0.930 . S
C846 C844 1.419 . S
C846 C847 1.362 . S
C847 H837 0.930 . S
C847 C840 1.409 . S
C847 C846 1.362 . S
H848 C854 0.930 . S
H849 C857 0.930 . S
H850 C858 0.930 . S
H851 C859 0.930 . S
H852 C862 0.930 . S
H853 C863 0.930 . S
C854 H848 0.930 . S
C854 C855 1.355 . S
C854 C856 1.415 . S
C855 C854 1.355 . S
C855 C857 1.419 . S
C856 C854 1.415 . S
C856 C861 1.425 1_545 S
C856 C863 1.409 . S
C857 H849 0.930 . S
C857 C855 1.419 . S
C857 C858 1.362 1_545 S
C858 H850 0.930 . S
C858 C857 1.362 1_565 S
C858 C861 1.409 . S
C859 H851 0.930 . S
C859 C860 1.355 . S
C859 C861 1.415 . S
C860 C859 1.355 . S
C860 C862 1.419 . S
C861 C856 1.425 1_565 S
C861 C858 1.409 . S
C861 C859 1.415 . S
C862 H852 0.930 . S
C862 C860 1.419 . S
C862 C863 1.362 1_565 S
C863 H853 0.930 . S
C863 C856 1.409 . S
C863 C862 1.362 1_545 S
H864 C870 0.930 . S
H865 C873 0.930 . S
H866 C874 0.930 . S
H867 C875 0.930 . S
H868 C878 0.930 . S
H869 C879 0.930 . S
C870 H864 0.930 . S
C870 C871 1.355 . S
C870 C872 1.415 . S
C871 C870 1.355 . S
C871 C873 1.419 . S
C872 C870 1.415 . S
C872 C877 1.425 1_655 S
C872 C879 1.409 1_655 S
C873 H865 0.930 . S
C873 C871 1.419 . S
C873 C874 1.362 . S
C874 H866 0.930 . S
C874 C873 1.362 . S
C874 C877 1.409 1_655 S
C875 H867 0.930 . S
C875 C876 1.355 . S
C875 C877 1.415 . S
C876 C875 1.355 . S
C876 C878 1.419 . S
C877 C872 1.425 1_455 S
C877 C874 1.409 1_455 S
C877 C875 1.415 . S
C878 H868 0.930 . S
C878 C876 1.419 . S
C878 C879 1.362 . S
C879 H869 0.930 . S
C879 C872 1.409 1_455 S
C879 C878 1.362 . S
C375 C16 1.749 . S
C380 C260 1.801 . S
C391 N186 1.370 . S
C396 N35 1.340 . S
C407 C214 1.792 . S
C412 C62 1.704 . S
C423 N232 1.352 . S
C428 N81 1.306 . S
C439 C122 1.799 . S
C444 C108 1.742 . S
C455 N127 1.349 . S
C460 N140 1.293 1_554 S
C471 C154 1.704 . S
C476 C168 1.792 . S
C487 N173 1.316 . S
C492 N94 1.296 . S
C503 C200 1.708 . S
C508 C76 1.791 . S
C519 N2 1.351 . S
C524 N219 1.368 . S
C535 C30 1.791 . S
C540 C246 1.710 . S
C551 N48 1.370 . S
C556 N265 1.338 . S
C567 C306 1.809 . S
C572 C292 1.767 . S
C583 N311 1.344 . S
C588 N324 1.300 . S
C599 C352 1.794 . S
C604 C338 1.725 . S
C615 N278 1.306 . S
C620 N357 1.354 . S
C631 N334 1.772 . S
C636 N12 1.729 . S
C647 C361 1.902 . S
C652 C39 1.907 . S
C663 N288 1.763 . S
C668 N58 1.708 . S
C679 C85 1.883 . S
C684 C315 1.928 . S
C695 N104 1.726 . S
C700 N242 1.773 . S
C711 C269 1.923 . S
C716 C131 1.889 . S
C727 N150 1.712 . S
C732 N196 1.742 . S
C743 C177 1.909 . S
C748 C223 1.903 . S
C759 C53 1.734 . S
C764 C7 1.729 . S
C775 N71 1.663 . S
C780 N25 1.679 . S
C791 C99 1.766 . S
C796 C145 1.725 . S
C807 N117 1.706 . S
C812 N163 1.628 . S
C823 C237 1.715 . S
C828 C191 1.768 . S
C839 N209 1.705 . S
C844 N255 1.620 . S
C855 C329 1.758 . S
C860 C283 1.738 . S
C871 N301 1.637 . S
C876 N347 1.680 . S
