# Generated by pormake.
# Topology pcb, (4)-cn, num edge types: 1
# Building blocks:
#     Node 0, Type 0, BuildingBlock: TATPOV_clean_sbu_0, # of connection points: 4
#     Node 1, Type 0, BuildingBlock: TATPOV_clean_sbu_0, # of connection points: 4
#     Node 2, Type 0, BuildingBlock: TATPOV_clean_sbu_0, # of connection points: 4
#     Node 3, Type 0, BuildingBlock: TATPOV_clean_sbu_0, # of connection points: 4
#     Node 4, Type 0, BuildingBlock: TATPOV_clean_sbu_0, # of connection points: 4
#     Node 5, Type 0, BuildingBlock: TATPOV_clean_sbu_0, # of connection points: 4
#     Node 6, Type 0, BuildingBlock: TATPOV_clean_sbu_0, # of connection points: 4
#     Node 7, Type 0, BuildingBlock: TATPOV_clean_sbu_0, # of connection points: 4
#     Node 8, Type 0, BuildingBlock: TATPOV_clean_sbu_0, # of connection points: 4
#     Node 9, Type 0, BuildingBlock: TATPOV_clean_sbu_0, # of connection points: 4
#     Node 10, Type 0, BuildingBlock: TATPOV_clean_sbu_0, # of connection points: 4
#     Node 11, Type 0, BuildingBlock: TATPOV_clean_sbu_0, # of connection points: 4
#     Node 12, Type 0, BuildingBlock: TATPOV_clean_sbu_0, # of connection points: 4
#     Node 13, Type 0, BuildingBlock: TATPOV_clean_sbu_0, # of connection points: 4
#     Node 14, Type 0, BuildingBlock: TATPOV_clean_sbu_0, # of connection points: 4
#     Node 15, Type 0, BuildingBlock: TATPOV_clean_sbu_0, # of connection points: 4
#     Edge 16, Type (0, 0), BuildingBlock: KIFKEQ_clean_linker_1, # of connection points: 2
#     Edge 17, Type (0, 0), BuildingBlock: KIFKEQ_clean_linker_1, # of connection points: 2
#     Edge 18, Type (0, 0), BuildingBlock: KIFKEQ_clean_linker_1, # of connection points: 2
#     Edge 19, Type (0, 0), BuildingBlock: KIFKEQ_clean_linker_1, # of connection points: 2
#     Edge 20, Type (0, 0), BuildingBlock: KIFKEQ_clean_linker_1, # of connection points: 2
#     Edge 21, Type (0, 0), BuildingBlock: KIFKEQ_clean_linker_1, # of connection points: 2
#     Edge 22, Type (0, 0), BuildingBlock: KIFKEQ_clean_linker_1, # of connection points: 2
#     Edge 23, Type (0, 0), BuildingBlock: KIFKEQ_clean_linker_1, # of connection points: 2
#     Edge 24, Type (0, 0), BuildingBlock: KIFKEQ_clean_linker_1, # of connection points: 2
#     Edge 25, Type (0, 0), BuildingBlock: KIFKEQ_clean_linker_1, # of connection points: 2
#     Edge 26, Type (0, 0), BuildingBlock: KIFKEQ_clean_linker_1, # of connection points: 2
#     Edge 27, Type (0, 0), BuildingBlock: KIFKEQ_clean_linker_1, # of connection points: 2
#     Edge 28, Type (0, 0), BuildingBlock: KIFKEQ_clean_linker_1, # of connection points: 2
#     Edge 29, Type (0, 0), BuildingBlock: KIFKEQ_clean_linker_1, # of connection points: 2
#     Edge 30, Type (0, 0), BuildingBlock: KIFKEQ_clean_linker_1, # of connection points: 2
#     Edge 31, Type (0, 0), BuildingBlock: KIFKEQ_clean_linker_1, # of connection points: 2
#     Edge 32, Type (0, 0), BuildingBlock: KIFKEQ_clean_linker_1, # of connection points: 2
#     Edge 33, Type (0, 0), BuildingBlock: KIFKEQ_clean_linker_1, # of connection points: 2
#     Edge 34, Type (0, 0), BuildingBlock: KIFKEQ_clean_linker_1, # of connection points: 2
#     Edge 35, Type (0, 0), BuildingBlock: KIFKEQ_clean_linker_1, # of connection points: 2
#     Edge 36, Type (0, 0), BuildingBlock: KIFKEQ_clean_linker_1, # of connection points: 2
#     Edge 37, Type (0, 0), BuildingBlock: KIFKEQ_clean_linker_1, # of connection points: 2
#     Edge 38, Type (0, 0), BuildingBlock: KIFKEQ_clean_linker_1, # of connection points: 2
#     Edge 39, Type (0, 0), BuildingBlock: KIFKEQ_clean_linker_1, # of connection points: 2
#     Edge 40, Type (0, 0), BuildingBlock: KIFKEQ_clean_linker_1, # of connection points: 2
#     Edge 41, Type (0, 0), BuildingBlock: KIFKEQ_clean_linker_1, # of connection points: 2
#     Edge 42, Type (0, 0), BuildingBlock: KIFKEQ_clean_linker_1, # of connection points: 2
#     Edge 43, Type (0, 0), BuildingBlock: KIFKEQ_clean_linker_1, # of connection points: 2
#     Edge 44, Type (0, 0), BuildingBlock: KIFKEQ_clean_linker_1, # of connection points: 2
#     Edge 45, Type (0, 0), BuildingBlock: KIFKEQ_clean_linker_1, # of connection points: 2
#     Edge 46, Type (0, 0), BuildingBlock: KIFKEQ_clean_linker_1, # of connection points: 2
#     Edge 47, Type (0, 0), BuildingBlock: KIFKEQ_clean_linker_1, # of connection points: 2
# Relax obj value: 0.184
# Max RMSD: 0.079
# Mean RMSD: 0.079
data_MOF--net-pcb--node1-TATPOV_clean_sbu_0--edge1-KIFKEQ_clean_linker_1
_symmetry_space_group_name_H-M    P1
_symmetry_Int_Tables_number       1
_symmetry_cell_setting            triclinic
loop_
_symmetry_equiv_pos_as_xyz
'x, y, z'
_cell_length_a     48.114523
_cell_length_b     47.114604
_cell_length_c     47.103743
_cell_angle_alpha  89.916866
_cell_angle_beta   89.779253
_cell_angle_gamma 89.720158
loop_
_atom_site_label
_atom_site_type_symbol
_atom_site_fract_x
_atom_site_fract_y
_atom_site_fract_z
_atom_type_partial_charge
Zn0 Zn 0.08871 0.10054 0.17865 0.0
Zn1 Zn 0.12939 0.13862 0.1796 0.0
O2 O 0.09602 0.15919 0.19828 0.0
O3 O 0.06361 0.1265 0.20129 0.0
O4 O 0.16127 0.16491 0.18649 0.0
O5 O 0.11147 0.07096 0.19877 0.0
O6 O 0.1454 0.10194 0.19745 0.0
C7 C 0.07182 0.1515 0.20609 0.0
C8 C 0.10841 0.12035 0.12244 0.0
O9 O 0.12506 0.13578 0.13657 0.0
O10 O 0.0915 0.10413 0.13529 0.0
C11 C 0.15977 0.19178 0.18819 0.0
O12 O 0.136 0.2046 0.18308 0.0
C13 C 0.13645 0.07734 0.20392 0.0
Zn14 Zn 0.87895 0.18136 0.12531 0.0
Zn15 Zn 0.83628 0.19423 0.15704 0.0
O16 O 0.87142 0.20825 0.17869 0.0
O17 O 0.90548 0.20462 0.14764 0.0
O18 O 0.80496 0.2101 0.18052 0.0
O19 O 0.86231 0.19808 0.09031 0.0
O20 O 0.82612 0.20915 0.1168 0.0
C21 C 0.89675 0.21228 0.17176 0.0
C22 C 0.85018 0.13261 0.1507 0.0
O23 O 0.83277 0.15108 0.15947 0.0
O24 O 0.8716 0.1402 0.13688 0.0
C25 C 0.80231 0.20615 0.20708 0.0
O26 O 0.82033 0.1899 0.22038 0.0
C27 C 0.8384 0.20904 0.09277 0.0
Zn28 Zn 0.8866 0.88767 0.11023 0.0
Zn29 Zn 0.86596 0.86281 0.15223 0.0
O30 O 0.90816 0.85573 0.1593 0.0
O31 O 0.9238 0.88757 0.12905 0.0
O32 O 0.84566 0.84227 0.18337 0.0
O33 O 0.86151 0.92161 0.11486 0.0
O34 O 0.85417 0.90493 0.15781 0.0
C35 C 0.92823 0.87002 0.14888 0.0
C36 C 0.85773 0.84072 0.09168 0.0
O37 O 0.84912 0.84256 0.11718 0.0
O38 O 0.87712 0.85659 0.08312 0.0
C39 C 0.84595 0.81528 0.18337 0.0
O40 O 0.86189 0.80192 0.16497 0.0
C41 C 0.85198 0.92495 0.13969 0.0
Zn42 Zn 0.18496 0.87863 0.11481 0.0
Zn43 Zn 0.19307 0.84159 0.15403 0.0
O44 O 0.15053 0.84087 0.15588 0.0
O45 O 0.14366 0.8724 0.12207 0.0
O46 O 0.20671 0.81481 0.18416 0.0
O47 O 0.20487 0.85711 0.08482 0.0
O48 O 0.20814 0.82305 0.11658 0.0
C49 C 0.13399 0.85555 0.14065 0.0
C50 C 0.21115 0.90507 0.15941 0.0
O51 O 0.20766 0.8802 0.16952 0.0
O52 O 0.20426 0.9103 0.13408 0.0
C53 C 0.19928 0.78913 0.18705 0.0
O54 O 0.18051 0.77864 0.16986 0.0
C55 C 0.21202 0.83212 0.09133 0.0
Zn56 Zn 0.13403 0.83798 0.87782 0.0
Zn57 Zn 0.16387 0.81101 0.84313 0.0
O58 O 0.12421 0.79838 0.83114 0.0
O59 O 0.10017 0.83084 0.8543 0.0
O60 O 0.18982 0.7896 0.81729 0.0
O61 O 0.15565 0.87384 0.87172 0.0
O62 O 0.17252 0.8531 0.8336 0.0
C63 C 0.10121 0.81086 0.83644 0.0
C64 C 0.16542 0.79817 0.90723 0.0
O65 O 0.17716 0.79734 0.88292 0.0
O66 O 0.14333 0.81245 0.91049 0.0
C67 C 0.18566 0.78498 0.79108 0.0
O68 O 0.16271 0.79434 0.7792 0.0
C69 C 0.16934 0.87525 0.8488 0.0
Zn70 Zn 0.08021 0.09518 0.85495 0.0
Zn71 Zn 0.12173 0.13088 0.8481 0.0
O72 O 0.08777 0.15001 0.82843 0.0
O73 O 0.05464 0.1181 0.83079 0.0
O74 O 0.15197 0.15828 0.83741 0.0
O75 O 0.08316 0.10296 0.8973 0.0
O76 O 0.11918 0.13117 0.89176 0.0
C77 C 0.06315 0.14209 0.82256 0.0
C78 C 0.12623 0.06804 0.82914 0.0
O79 O 0.13684 0.09256 0.83238 0.0
O80 O 0.10148 0.06343 0.83691 0.0
C81 C 0.17772 0.15213 0.83737 0.0
O82 O 0.18581 0.12719 0.84684 0.0
C83 C 0.10172 0.11872 0.90791 0.0
Zn84 Zn 0.8602 0.15478 0.87158 0.0
Zn85 Zn 0.8267 0.17315 0.83707 0.0
O86 O 0.86421 0.1906 0.82387 0.0
O87 O 0.88777 0.18556 0.86331 0.0
O88 O 0.79829 0.18936 0.81027 0.0
O89 O 0.86383 0.11785 0.85096 0.0
O90 O 0.82472 0.12958 0.82994 0.0
C91 C 0.88589 0.19561 0.83848 0.0
C92 C 0.81602 0.17703 0.90107 0.0
O93 O 0.81224 0.18749 0.8764 0.0
O94 O 0.83437 0.15815 0.90471 0.0
C95 C 0.80321 0.19632 0.78466 0.0
O96 O 0.8283 0.19264 0.77416 0.0
C97 C 0.84359 0.11128 0.83531 0.0
Zn98 Zn 0.88034 0.86016 0.88462 0.0
Zn99 Zn 0.84821 0.84058 0.84615 0.0
O100 O 0.88624 0.82215 0.83586 0.0
O101 O 0.91042 0.83237 0.87401 0.0
O102 O 0.82181 0.82533 0.81718 0.0
O103 O 0.85327 0.8506 0.91528 0.0
O104 O 0.83026 0.82593 0.88355 0.0
C105 C 0.90838 0.81968 0.85047 0.0
C106 C 0.86122 0.90416 0.84872 0.0
O107 O 0.84618 0.88407 0.83929 0.0
O108 O 0.8794 0.89899 0.86739 0.0
C109 C 0.82889 0.81841 0.79212 0.0
O110 O 0.85486 0.82145 0.78401 0.0
C111 C 0.83388 0.83374 0.90913 0.0
Zn112 Zn 0.63796 0.64002 0.60813 0.0
Zn113 Zn 0.66784 0.66705 0.64287 0.0
O114 O 0.62804 0.67863 0.65533 0.0
O115 O 0.60486 0.66462 0.61779 0.0
O116 O 0.69288 0.68925 0.66822 0.0
O117 O 0.64389 0.60409 0.63014 0.0
O118 O 0.67734 0.62544 0.65347 0.0
C119 C 0.60545 0.6775 0.64134 0.0
C120 C 0.67781 0.67062 0.57851 0.0
O121 O 0.68022 0.68144 0.60314 0.0
O122 O 0.66235 0.64933 0.57491 0.0
C123 C 0.6891 0.71561 0.67244 0.0
O124 O 0.66764 0.72838 0.66079 0.0
C125 C 0.6637 0.60311 0.64767 0.0
Zn126 Zn 0.39394 0.60079 0.62981 0.0
Zn127 Zn 0.35782 0.63788 0.64368 0.0
O128 O 0.3949 0.65216 0.66094 0.0
O129 O 0.42152 0.61424 0.6586 0.0
O130 O 0.32988 0.66595 0.659 0.0
O131 O 0.3949 0.61764 0.59057 0.0
O132 O 0.35704 0.64244 0.59992 0.0
C133 C 0.41768 0.63952 0.66677 0.0
C134 C 0.34764 0.57396 0.65287 0.0
O135 O 0.34165 0.59969 0.65861 0.0
O136 O 0.3689 0.56808 0.63816 0.0
C137 C 0.32619 0.66473 0.68572 0.0
O138 O 0.3408 0.64632 0.70049 0.0
C139 C 0.37553 0.63393 0.58237 0.0
Zn140 Zn 0.34576 0.34096 0.63937 0.0
Zn141 Zn 0.31875 0.31493 0.67566 0.0
O142 O 0.35968 0.30377 0.68465 0.0
O143 O 0.37941 0.31624 0.64447 0.0
O144 O 0.29705 0.2937 0.70539 0.0
O145 O 0.34292 0.37761 0.66054 0.0
O146 O 0.30891 0.35724 0.68415 0.0
C147 C 0.38085 0.30394 0.6683 0.0
C148 C 0.30399 0.31054 0.61285 0.0
O149 O 0.3037 0.29897 0.63736 0.0
O150 O 0.31856 0.33238 0.60859 0.0
C151 C 0.30057 0.26713 0.70853 0.0
O152 O 0.31826 0.25378 0.69187 0.0
C153 C 0.32286 0.37931 0.67784 0.0
Zn154 Zn 0.58942 0.38647 0.64294 0.0
Zn155 Zn 0.62744 0.34722 0.64845 0.0
O156 O 0.59168 0.33143 0.66822 0.0
O157 O 0.56241 0.3674 0.66851 0.0
O158 O 0.65588 0.31768 0.6593 0.0
O159 O 0.58994 0.37755 0.60088 0.0
O160 O 0.62473 0.34718 0.60482 0.0
C161 C 0.56834 0.3422 0.67548 0.0
C162 C 0.63772 0.40943 0.66661 0.0
O163 O 0.64608 0.3839 0.66379 0.0
O164 O 0.61353 0.41655 0.65902 0.0
C165 C 0.65889 0.31571 0.68604 0.0
O166 O 0.64369 0.33212 0.70253 0.0
C167 C 0.60727 0.36065 0.58951 0.0
Zn168 Zn 0.57753 0.40296 0.32527 0.0
Zn169 Zn 0.62085 0.37063 0.3164 0.0
O170 O 0.58762 0.34904 0.29849 0.0
O171 O 0.55203 0.37805 0.30339 0.0
O172 O 0.65345 0.347 0.30369 0.0
O173 O 0.59392 0.4369 0.30651 0.0
O174 O 0.63217 0.41134 0.30325 0.0
C175 C 0.56196 0.35473 0.29469 0.0
C176 C 0.60323 0.3796 0.37686 0.0
O177 O 0.61992 0.3674 0.35967 0.0
O178 O 0.58411 0.39568 0.36745 0.0
C179 C 0.65576 0.32079 0.3097 0.0
O180 O 0.63681 0.30878 0.32582 0.0
C181 C 0.61933 0.43487 0.29995 0.0
Zn182 Zn 0.61483 0.67579 0.36088 0.0
Zn183 Zn 0.65074 0.69725 0.32511 0.0
O184 O 0.61298 0.71066 0.30805 0.0
O185 O 0.58344 0.69271 0.33899 0.0
O186 O 0.67992 0.71713 0.30193 0.0
O187 O 0.62894 0.69675 0.39431 0.0
O188 O 0.6625 0.71031 0.36562 0.0
C189 C 0.58809 0.70684 0.31664 0.0
C190 C 0.64765 0.63335 0.331 0.0
O191 O 0.65724 0.65478 0.31776 0.0
O192 O 0.63024 0.63673 0.35101 0.0
C193 C 0.69037 0.70827 0.27875 0.0
O194 O 0.68103 0.68471 0.26743 0.0
C195 C 0.6516 0.70956 0.39033 0.0
Zn196 Zn 0.40801 0.59051 0.32252 0.0
Zn197 Zn 0.36386 0.62091 0.31168 0.0
O198 O 0.3964 0.64006 0.28936 0.0
O199 O 0.43232 0.61181 0.29574 0.0
O200 O 0.3307 0.64265 0.29715 0.0
O201 O 0.39096 0.55416 0.31012 0.0
O202 O 0.3524 0.57888 0.30495 0.0
C203 C 0.42185 0.63382 0.28467 0.0
C204 C 0.38393 0.61991 0.37189 0.0
O205 O 0.36602 0.62911 0.35424 0.0
O206 O 0.40341 0.60367 0.3635 0.0
C207 C 0.32275 0.66632 0.30731 0.0
O208 O 0.336 0.67707 0.3291 0.0
C209 C 0.36529 0.55516 0.30465 0.0
Zn210 Zn 0.36914 0.31984 0.39484 0.0
Zn211 Zn 0.33418 0.29672 0.35816 0.0
O212 O 0.3726 0.28346 0.34323 0.0
O213 O 0.4014 0.30224 0.37408 0.0
O214 O 0.30783 0.27849 0.33077 0.0
O215 O 0.35206 0.29851 0.42703 0.0
O216 O 0.32038 0.28223 0.39767 0.0
C217 C 0.39727 0.28754 0.35204 0.0
C218 C 0.3375 0.36127 0.36321 0.0
O219 O 0.32809 0.33919 0.35116 0.0
O220 O 0.35468 0.35893 0.38343 0.0
C221 C 0.304 0.28876 0.3061 0.0
O222 O 0.3176 0.31164 0.29839 0.0
C223 C 0.33036 0.28418 0.42265 0.0
H224 H 0.28395 0.3098 0.25597 0.0
H225 H 0.27944 0.23704 0.31179 0.0
H226 H 0.25079 0.28733 0.22388 0.0
H227 H 0.24646 0.21476 0.27979 0.0
H228 H 0.21011 0.17049 0.2043 0.0
H229 H 0.24649 0.19477 0.23033 0.0
H230 H 0.19968 0.27305 0.22578 0.0
H231 H 0.16303 0.24877 0.19956 0.0
C232 C 0.27598 0.289 0.26133 0.0
C233 C 0.2843 0.27517 0.28641 0.0
C234 C 0.25695 0.27624 0.24303 0.0
C235 C 0.24621 0.24928 0.24929 0.0
C236 C 0.2547 0.23541 0.27424 0.0
C237 C 0.27345 0.24826 0.29266 0.0
C238 C 0.20765 0.19297 0.20847 0.0
C239 C 0.18347 0.20762 0.20015 0.0
C240 C 0.22846 0.20681 0.22351 0.0
C241 C 0.2257 0.23566 0.2304 0.0
C242 C 0.20234 0.25078 0.22069 0.0
C243 C 0.18135 0.23686 0.20575 0.0
H244 H 0.66759 0.26445 0.31832 0.0
H245 H 0.69507 0.33836 0.27173 0.0
H246 H 0.70303 0.23574 0.29433 0.0
H247 H 0.73043 0.30975 0.24805 0.0
H248 H 0.76471 0.24422 0.18618 0.0
H249 H 0.72987 0.27123 0.21233 0.0
H250 H 0.75491 0.22999 0.29013 0.0
H251 H 0.78987 0.20262 0.26388 0.0
C252 C 0.6813 0.27462 0.30316 0.0
C253 C 0.67839 0.30366 0.29682 0.0
C254 C 0.70164 0.25819 0.28952 0.0
C255 C 0.71931 0.27045 0.26913 0.0
C256 C 0.7168 0.29961 0.26332 0.0
C257 C 0.69664 0.31603 0.27704 0.0
C258 C 0.76278 0.24076 0.20884 0.0
C259 C 0.78019 0.22134 0.22296 0.0
C260 C 0.74291 0.25639 0.22384 0.0
C261 C 0.73985 0.25293 0.25331 0.0
C262 C 0.75675 0.23302 0.2674 0.0
C263 C 0.77681 0.21744 0.25238 0.0
H264 H 0.84073 0.75771 0.18803 0.0
H265 H 0.80468 0.83665 0.21734 0.0
H266 H 0.80409 0.73148 0.21227 0.0
H267 H 0.76768 0.81051 0.24087 0.0
H268 H 0.71789 0.75402 0.30006 0.0
H269 H 0.75716 0.77897 0.2793 0.0
H270 H 0.75497 0.72308 0.20668 0.0
H271 H 0.71609 0.69754 0.22788 0.0
C272 C 0.8251 0.76947 0.1998 0.0
C273 C 0.82559 0.79929 0.20067 0.0
C274 C 0.80395 0.75444 0.21348 0.0
C275 C 0.78276 0.76888 0.22828 0.0
C276 C 0.78379 0.79866 0.2299 0.0
C277 C 0.805 0.81368 0.21632 0.0
C278 C 0.72574 0.74704 0.27964 0.0
C279 C 0.71379 0.7238 0.26559 0.0
C280 C 0.74823 0.76144 0.26769 0.0
C281 C 0.75926 0.75306 0.24132 0.0
C282 C 0.74729 0.72982 0.22724 0.0
C283 C 0.72484 0.71532 0.23928 0.0
H284 H 0.29515 0.65265 0.25863 0.0
H285 H 0.29999 0.71713 0.32358 0.0
H286 H 0.26218 0.6818 0.23246 0.0
H287 H 0.26631 0.74599 0.29773 0.0
H288 H 0.24076 0.80405 0.22331 0.0
H289 H 0.26715 0.77345 0.25484 0.0
H290 H 0.21617 0.7022 0.23082 0.0
H291 H 0.1901 0.73283 0.19849 0.0
C292 C 0.28884 0.67286 0.26757 0.0
C293 C 0.30046 0.6827 0.29305 0.0
C294 C 0.26974 0.68951 0.25263 0.0
C295 C 0.2617 0.71634 0.26287 0.0
C296 C 0.27243 0.72564 0.28898 0.0
C297 C 0.29164 0.70903 0.30388 0.0
C298 C 0.23496 0.78192 0.22488 0.0
C299 C 0.21345 0.77084 0.20816 0.0
C300 C 0.25 0.76438 0.24318 0.0
C301 C 0.24385 0.73532 0.24536 0.0
C302 C 0.2217 0.72441 0.22935 0.0
C303 C 0.20667 0.74199 0.21093 0.0
H304 H 0.2945 0.70758 0.66275 0.0
H305 H 0.31105 0.66339 0.7414 0.0
H306 H 0.26078 0.73793 0.68732 0.0
H307 H 0.27707 0.69299 0.7656 0.0
H308 H 0.23741 0.76849 0.80787 0.0
H309 H 0.27147 0.74093 0.78138 0.0
H310 H 0.21525 0.73673 0.71021 0.0
H311 H 0.18127 0.76513 0.73656 0.0
C312 C 0.29089 0.70428 0.68522 0.0
C313 C 0.30557 0.68318 0.70015 0.0
C314 C 0.27146 0.72155 0.69926 0.0
C315 C 0.26634 0.71801 0.72847 0.0
C316 C 0.28088 0.6967 0.74323 0.0
C317 C 0.30029 0.67958 0.72928 0.0
C318 C 0.23227 0.76178 0.78654 0.0
C319 C 0.20652 0.76885 0.7744 0.0
C320 C 0.25179 0.74583 0.77139 0.0
C321 C 0.246 0.73635 0.74377 0.0
C322 C 0.22045 0.74388 0.73136 0.0
C323 C 0.20092 0.76002 0.74652 0.0
H324 H 0.23376 0.14439 0.82999 0.0
H325 H 0.16683 0.2032 0.81216 0.0
H326 H 0.2654 0.17352 0.80187 0.0
H327 H 0.19815 0.23178 0.78354 0.0
H328 H 0.26512 0.28873 0.74868 0.0
H329 H 0.23775 0.2626 0.78354 0.0
H330 H 0.27207 0.18371 0.75207 0.0
H331 H 0.29996 0.20987 0.71776 0.0
C332 C 0.22584 0.16364 0.8203 0.0
C333 C 0.19772 0.17134 0.82317 0.0
C334 C 0.24393 0.18023 0.804 0.0
C335 C 0.23427 0.20486 0.79021 0.0
C336 C 0.2064 0.21313 0.79407 0.0
C337 C 0.18837 0.19661 0.81039 0.0
C338 C 0.26694 0.26582 0.7493 0.0
C339 C 0.2846 0.25137 0.73031 0.0
C340 C 0.25117 0.25082 0.76924 0.0
C341 C 0.25262 0.22103 0.77058 0.0
C342 C 0.27072 0.20666 0.75193 0.0
C343 C 0.28656 0.22165 0.73207 0.0
H344 H 0.80846 0.22303 0.7332 0.0
H345 H 0.74812 0.20088 0.79761 0.0
H346 H 0.77279 0.24977 0.70769 0.0
H347 H 0.71245 0.22687 0.77182 0.0
H348 H 0.66902 0.30755 0.74216 0.0
H349 H 0.70315 0.27646 0.76385 0.0
H350 H 0.72916 0.24742 0.68089 0.0
H351 H 0.69508 0.27929 0.65891 0.0
C352 C 0.78751 0.22351 0.74169 0.0
C353 C 0.7812 0.21016 0.76762 0.0
C354 C 0.76704 0.23871 0.72699 0.0
C355 C 0.73985 0.24073 0.7379 0.0
C356 C 0.73333 0.22626 0.76316 0.0
C357 C 0.75377 0.21125 0.77789 0.0
C358 C 0.6819 0.29451 0.72845 0.0
C359 C 0.67932 0.29592 0.69878 0.0
C360 C 0.70137 0.27648 0.74094 0.0
C361 C 0.71876 0.25927 0.72413 0.0
C362 C 0.71618 0.26055 0.69441 0.0
C363 C 0.69659 0.27869 0.68184 0.0
H364 H 0.83837 0.79146 0.74163 0.0
H365 H 0.77263 0.81656 0.7993 0.0
H366 H 0.80429 0.7679 0.71153 0.0
H367 H 0.7387 0.793 0.7692 0.0
H368 H 0.68401 0.76992 0.69231 0.0
H369 H 0.71796 0.79666 0.71988 0.0
H370 H 0.77384 0.72468 0.71803 0.0
H371 H 0.74007 0.69795 0.69059 0.0
C372 C 0.81666 0.79214 0.74776 0.0
C373 C 0.80821 0.80572 0.77291 0.0
C374 C 0.79721 0.77855 0.73062 0.0
C375 C 0.76892 0.77856 0.73814 0.0
C376 C 0.76035 0.79284 0.76282 0.0
C377 C 0.77982 0.80617 0.78011 0.0
C378 C 0.70354 0.75983 0.69778 0.0
C379 C 0.70934 0.73182 0.68934 0.0
C380 C 0.7229 0.7751 0.7136 0.0
C381 C 0.74853 0.76275 0.72094 0.0
C382 C 0.75438 0.73483 0.71235 0.0
C383 C 0.73494 0.71947 0.69684 0.0
H384 H 0.1454 0.13709 0.94049 0.0
H385 H 0.06074 0.10748 0.9461 0.0
H386 H 0.14796 0.13827 0.99236 0.0
H387 H 0.06284 0.10969 -0.00253 0.0
H388 H 0.13363 0.15911 0.08719 0.0
H389 H 0.1322 0.16074 0.03533 0.0
H390 H 0.08322 0.08407 0.03492 0.0
H391 H 0.08378 0.0831 0.08638 0.0
C392 C 0.12725 0.13122 0.95277 0.0
C393 C 0.10299 0.12188 0.93918 0.0
C394 C 0.12865 0.13198 0.98251 0.0
C395 C 0.10573 0.12367 -0.00079 0.0
C396 C 0.08118 0.11545 0.98543 0.0
C397 C 0.07991 0.11437 0.95588 0.0
C398 C 0.12255 0.14263 0.07595 0.0
C399 C 0.1086 0.12111 0.09095 0.0
C400 C 0.12185 0.14349 0.04621 0.0
C401 C 0.10735 0.12271 0.03083 0.0
C402 C 0.09399 0.10088 0.04595 0.0
C403 C 0.09445 0.10019 0.07556 0.0
H404 H 0.81045 0.23294 0.91455 0.0
H405 H 0.79364 0.14847 0.94529 0.0
H406 H 0.80473 0.25151 0.96284 0.0
H407 H 0.78729 0.16688 0.99314 0.0
H408 H 0.86049 0.23683 0.04777 0.0
H409 H 0.84176 0.23797 -0.00013 0.0
H410 H 0.76556 0.20042 0.03033 0.0
H411 H 0.78427 0.19989 0.07868 0.0
C412 C 0.80407 0.21863 0.93135 0.0
C413 C 0.80271 0.18929 0.92643 0.0
C414 C 0.80091 0.22921 0.95896 0.0
C415 C 0.79583 0.21061 0.98177 0.0
C416 C 0.79098 0.1818 0.97602 0.0
C417 C 0.79472 0.17119 0.94864 0.0
C418 C 0.83927 0.23001 0.04442 0.0
C419 C 0.82391 0.218 0.06674 0.0
C420 C 0.82844 0.23082 0.01702 0.0
C421 C 0.80227 0.21904 0.01133 0.0
C422 C 0.78579 0.20962 0.03417 0.0
C423 C 0.79645 0.20939 0.0618 0.0
H424 H 0.79987 0.86169 0.94508 0.0
H425 H 0.83459 0.77913 0.92727 0.0
H426 H 0.79305 0.84838 0.99438 0.0
H427 H 0.82809 0.76559 0.97701 0.0
H428 H 0.88208 0.80637 0.05313 0.0
H429 H 0.86137 0.79031 0.00919 0.0
H430 H 0.781 0.82014 0.03796 0.0
H431 H 0.80204 0.8358 0.08258 0.0
C432 C 0.80442 0.84005 0.95145 0.0
C433 C 0.81797 0.82151 0.93269 0.0
C434 C 0.80048 0.8323 0.97975 0.0
C435 C 0.81074 0.80615 0.98976 0.0
C436 C 0.82029 0.78599 0.96991 0.0
C437 C 0.82389 0.79367 0.94142 0.0
C438 C 0.85977 0.80822 0.0506 0.0
C439 C 0.84369 0.82268 0.07082 0.0
C440 C 0.84775 0.79879 0.02549 0.0
C441 C 0.81955 0.80437 0.01987 0.0
C442 C 0.80279 0.8157 0.04168 0.0
C443 C 0.81481 0.82465 0.06718 0.0
H444 H 0.19646 0.77702 0.08382 0.0
H445 H 0.24366 0.84464 0.04542 0.0
H446 H 0.19289 0.75375 0.03758 0.0
H447 H 0.24014 0.82174 -0.00049 0.0
H448 H 0.22106 0.79016 0.91666 0.0
H449 H 0.24298 0.78448 0.96317 0.0
H450 H 0.16193 0.77448 0.00165 0.0
H451 H 0.14034 0.78004 0.95556 0.0
C452 C 0.20732 0.78612 0.06581 0.0
C453 C 0.21986 0.81287 0.06796 0.0
C454 C 0.2051 0.77293 0.03928 0.0
C455 C 0.2156 0.78625 0.01472 0.0
C456 C 0.23176 0.81083 0.01787 0.0
C457 C 0.23371 0.82409 0.04423 0.0
C458 C 0.20809 0.7856 0.93494 0.0
C459 C 0.17899 0.78618 0.93268 0.0
C460 C 0.22062 0.78242 0.96157 0.0
C461 C 0.20421 0.77949 0.98622 0.0
C462 C 0.1753 0.77656 0.98322 0.0
C463 C 0.16283 0.78004 0.95677 0.0
H464 H 0.06025 0.20164 0.18113 0.0
H465 H 0.03638 0.14828 0.2513 0.0
H466 H 0.01718 0.2275 0.18502 0.0
H467 H 0.99419 0.1762 0.25791 0.0
H468 H 0.90744 0.18138 0.21833 0.0
H469 H 0.95285 0.17599 0.23874 0.0
H470 H 0.97978 0.25226 0.19511 0.0
H471 H 0.93467 0.25511 0.17211 0.0
C472 C 0.04623 0.19647 0.19843 0.0
C473 C 0.05121 0.17266 0.21548 0.0
C474 C 0.02124 0.21147 0.2009 0.0
C475 C 0.00091 0.20344 0.2211 0.0
C476 C 0.0082 0.1822 0.24096 0.0
C477 C 0.03269 0.1664 0.23761 0.0
C478 C 0.92281 0.19759 0.21403 0.0
C479 C 0.91785 0.21829 0.19332 0.0
C480 C 0.94927 0.19456 0.22576 0.0
C481 C 0.97116 0.21275 0.21752 0.0
C482 C 0.96433 0.23659 0.20068 0.0
C483 C 0.93818 0.23881 0.18796 0.0
H484 H 0.86013 0.9518 0.19015 0.0
H485 H 0.82313 0.96268 0.10748 0.0
H486 H 0.85484 0.00284 0.19902 0.0
H487 H 0.81704 0.0134 0.11676 0.0
H488 H 0.80083 0.10401 0.15215 0.0
H489 H 0.79453 0.0523 0.15532 0.0
H490 H 0.88305 0.04134 0.16517 0.0
H491 H 0.88946 0.09258 0.16099 0.0
C492 C 0.84984 0.96488 0.1744 0.0
C493 C 0.84216 0.95343 0.14808 0.0
C494 C 0.84693 0.99402 0.17943 0.0
C495 C 0.83558 0.01189 0.15853 0.0
C496 C 0.82563 -2e-05 0.13327 0.0
C497 C 0.82919 0.97103 0.12795 0.0
C498 C 0.81882 0.0905 0.15544 0.0
C499 C 0.84565 0.10214 0.15611 0.0
C500 C 0.81521 0.06106 0.15727 0.0
C501 C 0.8383 0.04303 0.16072 0.0
C502 C 0.86491 0.05486 0.16288 0.0
C503 C 0.86858 0.0841 0.16026 0.0
H504 H 0.95588 0.82007 0.16005 0.0
H505 H 0.96593 0.91099 0.15737 0.0
H506 H 0.00671 0.8142 0.16218 0.0
H507 H 0.01611 0.90527 0.16013 0.0
H508 H 0.09447 0.88442 0.11131 0.0
H509 H 0.04488 0.8859 0.11982 0.0
H510 H 0.05383 0.82586 0.18853 0.0
H511 H 0.1043 0.82419 0.17995 0.0
C512 C 0.96889 0.83873 0.16102 0.0
C513 C 0.95717 0.86596 0.15819 0.0
C514 C -0.00209 0.8354 0.16217 0.0
C515 C 0.0153 0.85928 0.16062 0.0
C516 C 0.00323 0.88648 0.16068 0.0
C517 C 0.97452 0.88976 0.15926 0.0
C518 C 0.08608 0.8714 0.12824 0.0
C519 C 0.10349 0.85439 0.14512 0.0
C520 C 0.05759 0.87241 0.13322 0.0
C521 C 0.04557 0.85643 0.15521 0.0
C522 C 0.06264 0.83851 0.17155 0.0
C523 C 0.09145 0.8376 0.16663 0.0
H524 H 0.12359 0.02533 0.22549 0.0
H525 H 0.19346 0.07807 0.20283 0.0
H526 H 0.1538 0.98414 0.22692 0.0
H527 H 0.22406 0.03662 0.20476 0.0
H528 H 0.23326 0.95588 0.14442 0.0
H529 H 0.22431 0.00028 0.16866 0.0
H530 H 0.19241 0.95431 0.24116 0.0
H531 H 0.20105 0.90961 0.21643 0.0
C532 C 0.14563 0.02831 0.22177 0.0
C533 C 0.15596 0.05479 0.21317 0.0
C534 C 0.16312 0.00464 0.22291 0.0
C535 C 0.19134 0.00692 0.21536 0.0
C536 C 0.20232 0.03408 0.21018 0.0
C537 C 0.18477 0.05785 0.20913 0.0
C538 C 0.22548 0.95518 0.16603 0.0
C539 C 0.21704 0.92938 0.17817 0.0
C540 C 0.22046 0.98073 0.1801 0.0
C541 C 0.20677 0.98091 0.20654 0.0
C542 C 0.20236 0.95487 0.2205 0.0
C543 C 0.20752 0.92922 0.20641 0.0
H544 H 0.94541 0.78836 0.88029 0.0
H545 H 0.92758 0.81866 0.79579 0.0
H546 H 0.99233 0.77565 0.86557 0.0
H547 H 0.97507 0.80632 0.78097 0.0
H548 H 0.06573 0.84313 0.80621 0.0
H549 H 0.0164 0.83409 0.79972 0.0
H550 H 0.02718 0.74975 0.83414 0.0
H551 H 0.07701 0.75886 0.84013 0.0
C552 C 0.9513 0.79135 0.85826 0.0
C553 C 0.9331 0.8048 0.83926 0.0
C554 C 0.97813 0.78386 0.84973 0.0
C555 C 0.98748 0.79022 0.82215 0.0
C556 C 0.9684 0.80125 0.80237 0.0
C557 C 0.94125 0.80825 0.81081 0.0
C558 C 0.05776 0.82218 0.81103 0.0
C559 C 0.07496 0.80168 0.82365 0.0
C560 C 0.02952 0.81692 0.80724 0.0
C561 C 0.01786 0.79128 0.81669 0.0
C562 C 0.03564 0.7697 0.82673 0.0
C563 C 0.06412 0.77483 0.83002 0.0
H564 H 0.18605 0.91979 0.88064 0.0
H565 H 0.17083 0.89456 0.79407 0.0
H566 H 0.18656 0.96933 0.8662 0.0
H567 H 0.17104 0.94452 0.77949 0.0
H568 H 0.10918 0.02347 0.79762 0.0
H569 H 0.13191 0.97742 0.79408 0.0
H570 H 0.20386 0.01077 0.837 0.0
H571 H 0.181 0.05729 0.84021 0.0
C572 C 0.18383 0.92485 0.85831 0.0
C573 C 0.17796 0.90346 0.83854 0.0
C574 C 0.18434 0.95325 0.84996 0.0
C575 C 0.17852 0.96085 0.82174 0.0
C576 C 0.17545 0.93924 0.80141 0.0
C577 C 0.17541 0.91068 0.80973 0.0
C578 C 0.13029 0.02125 0.80529 0.0
C579 C 0.14319 0.04371 0.81956 0.0
C580 C 0.14343 0.99491 0.80308 0.0
C581 C 0.16956 0.99039 0.81556 0.0
C582 C 0.18365 0.01367 0.82732 0.0
C583 C 0.17063 0.04027 0.82908 0.0
H584 H 0.02024 0.12819 0.78846 0.0
H585 H 0.05983 0.19988 0.82799 0.0
H586 H 0.97874 0.15625 0.78067 0.0
H587 H 0.01797 0.22852 0.81998 0.0
H588 H 0.92885 0.22163 0.86489 0.0
H589 H 0.97646 0.2212 0.84819 0.0
H590 H 0.94884 0.19458 0.76524 0.0
H591 H 0.90087 0.19454 0.78235 0.0
C592 C 0.0204 0.15039 0.79445 0.0
C593 C 0.04289 0.16167 0.80948 0.0
C594 C -0.00337 0.16669 0.78973 0.0
C595 C 0.99471 0.19455 0.80029 0.0
C596 C 0.01864 0.20697 0.81201 0.0
C597 C 0.04265 0.19063 0.81651 0.0
C598 C 0.9328 0.2169 0.84272 0.0
C599 C 0.91132 0.20713 0.82522 0.0
C600 C 0.96021 0.21685 0.833 0.0
C601 C 0.96661 0.20685 0.80561 0.0
C602 C 0.94461 0.20168 0.78669 0.0
C603 C 0.91708 0.20181 0.79645 0.0
H604 H 0.89667 0.94792 0.85631 0.0
H605 H 0.81719 0.92751 0.81929 0.0
H606 H 0.88978 -0.00264 0.84463 0.0
H607 H 0.81035 0.97781 0.80708 0.0
H608 H 0.79949 0.07496 0.8382 0.0
H609 H 0.80225 0.0231 0.83411 0.0
H610 H 0.88728 0.03001 0.80516 0.0
H611 H 0.88476 0.08136 0.8105 0.0
C612 C 0.87781 0.95395 0.84531 0.0
C613 C 0.85743 0.93376 0.83886 0.0
C614 C 0.87396 0.98237 0.83832 0.0
C615 C 0.84961 0.99155 0.82465 0.0
C616 C 0.82933 0.97135 0.81762 0.0
C617 C 0.8333 0.94261 0.82449 0.0
C618 C 0.81838 0.06531 0.83007 0.0
C619 C 0.84203 0.0819 0.825 0.0
C620 C 0.81999 0.03567 0.8277 0.0
C621 C 0.84521 0.02244 0.81996 0.0
C622 C 0.86779 0.03951 0.81188 0.0
C623 C 0.86632 0.06889 0.81474 0.0
H624 H 0.70647 0.70205 0.40226 0.0
H625 H 0.63028 0.73763 0.43551 0.0
H626 H 0.72621 0.70178 0.45013 0.0
H627 H 0.64997 0.73793 0.48297 0.0
H628 H 0.69959 0.64508 0.53205 0.0
H629 H 0.70535 0.66642 0.4854 0.0
H630 H 0.68658 0.74893 0.52062 0.0
H631 H 0.68136 0.7274 0.56775 0.0
C632 C 0.69454 0.71123 0.41954 0.0
C633 C 0.66677 0.71949 0.41545 0.0
C634 C 0.70578 0.71099 0.44691 0.0
C635 C 0.6895 0.71947 0.47031 0.0
C636 C 0.66312 0.7314 0.46541 0.0
C637 C 0.65174 0.73111 0.43824 0.0
C638 C 0.6979 0.66793 0.53003 0.0
C639 C 0.68967 0.68457 0.55328 0.0
C640 C 0.70141 0.68024 0.50334 0.0
C641 C 0.69614 0.70934 0.49932 0.0
C642 C 0.69073 0.72646 0.52317 0.0
C643 C 0.68778 0.71416 0.55009 0.0
H644 H 0.33023 0.63656 0.54729 0.0
H645 H 0.41911 0.64796 0.54927 0.0
H646 H 0.33144 0.63819 0.49521 0.0
H647 H 0.4203 0.65088 0.49773 0.0
H648 H 0.34432 0.65265 0.39902 0.0
H649 H 0.34106 0.66298 0.44994 0.0
H650 H 0.41542 0.61327 0.46424 0.0
H651 H 0.41903 0.6036 0.414 0.0
C652 C 0.34983 0.6404 0.53658 0.0
C653 C 0.37464 0.6417 0.5521 0.0
C654 C 0.35056 0.64136 0.50681 0.0
C655 C 0.37609 0.64396 0.49231 0.0
C656 C 0.40042 0.64798 0.50818 0.0
C657 C 0.39974 0.64652 0.5377 0.0
C658 C 0.36007 0.64419 0.41309 0.0
C659 C 0.38196 0.62734 0.4024 0.0
C660 C 0.35813 0.65001 0.44224 0.0
C661 C 0.37813 0.63922 0.46115 0.0
C662 C 0.40001 0.62254 0.45028 0.0
C663 C 0.40194 0.61677 0.42137 0.0
H664 H 0.27524 0.28883 0.43586 0.0
H665 H 0.35316 0.2552 0.46622 0.0
H666 H 0.25569 0.28503 0.48388 0.0
H667 H 0.33386 0.25103 0.51375 0.0
H668 H 0.30444 0.25428 0.59915 0.0
H669 H 0.29986 0.23552 0.5509 0.0
H670 H 0.27204 0.3179 0.52197 0.0
H671 H 0.27689 0.33642 0.56978 0.0
C672 C 0.28769 0.27929 0.45248 0.0
C673 C 0.31574 0.27257 0.44757 0.0
C674 C 0.27658 0.27724 0.47997 0.0
C675 C 0.29332 0.26807 0.5027 0.0
C676 C 0.32027 0.25799 0.49679 0.0
C677 C 0.33145 0.2605 0.46956 0.0
C678 C 0.29604 0.2679 0.5827 0.0
C679 C 0.29138 0.29685 0.58795 0.0
C680 C 0.29355 0.25722 0.55507 0.0
C681 C 0.28602 0.27533 0.53252 0.0
C682 C 0.27776 0.3033 0.53877 0.0
C683 C 0.28067 0.31401 0.56618 0.0
H684 H 0.63423 0.33941 0.40527 0.0
H685 H 0.57762 0.40964 0.4187 0.0
H686 H 0.63565 0.33104 0.45661 0.0
H687 H 0.5797 0.40194 0.46947 0.0
H688 H 0.56319 0.36705 0.55464 0.0
H689 H 0.56305 0.36857 0.50315 0.0
H690 H 0.65123 0.35059 0.50191 0.0
H691 H 0.65103 0.34793 0.55394 0.0
C692 C 0.62229 0.35317 0.41915 0.0
C693 C 0.60559 0.37502 0.40788 0.0
C694 C 0.62317 0.34843 0.44855 0.0
C695 C 0.60744 0.36551 0.46716 0.0
C696 C 0.59145 0.38781 0.45578 0.0
C697 C 0.5904 0.39239 0.42658 0.0
C698 C 0.5825 0.36309 0.54339 0.0
C699 C 0.60719 0.35774 0.55828 0.0
C700 C 0.58248 0.36415 0.51385 0.0
C701 C 0.60727 0.36044 0.49837 0.0
C702 C 0.63177 0.35356 0.51318 0.0
C703 C 0.6317 0.35207 0.54294 0.0
H704 H 0.56085 0.69898 0.61354 0.0
H705 H 0.58971 0.67591 0.69711 0.0
H706 H 0.51326 0.70034 0.63098 0.0
H707 H 0.54172 0.67692 0.7147 0.0
H708 H 0.46137 0.61843 0.69664 0.0
H709 H 0.50716 0.6397 0.69991 0.0
H710 H 0.47505 0.71734 0.66352 0.0
H711 H 0.42894 0.69596 0.66042 0.0
C712 C 0.55705 0.69526 0.63593 0.0
C713 C 0.57884 0.68696 0.65389 0.0
C714 C 0.52978 0.69622 0.64602 0.0
C715 C 0.52369 0.6884 0.67417 0.0
C716 C 0.54581 0.68289 0.69287 0.0
C717 C 0.57327 0.68243 0.68284 0.0
C718 C 0.46381 0.64044 0.69046 0.0
C719 C 0.44176 0.65535 0.67777 0.0
C720 C 0.49005 0.65274 0.69249 0.0
C721 C 0.49482 0.68005 0.68151 0.0
C722 C 0.47201 0.69615 0.6719 0.0
C723 C 0.44558 0.68394 0.67025 0.0
H724 H 0.3203 0.5356 0.62142 0.0
H725 H 0.33844 0.55875 0.70787 0.0
H726 H 0.303 0.48973 0.63744 0.0
H727 H 0.32175 0.51221 0.72411 0.0
H728 H 0.35417 0.41475 0.70899 0.0
H729 H 0.34887 0.46618 0.71104 0.0
H730 H 0.26974 0.45977 0.66865 0.0
H731 H 0.27491 0.40795 0.66729 0.0
C732 C 0.31955 0.53116 0.644 0.0
C733 C 0.33057 0.55048 0.66347 0.0
C734 C 0.30952 0.50499 0.65323 0.0
C735 C 0.31106 0.49739 0.68204 0.0
C736 C 0.32022 0.51763 0.70181 0.0
C737 C 0.32969 0.54418 0.69258 0.0
C738 C 0.335 0.42427 0.70152 0.0
C739 C 0.31491 0.40761 0.68808 0.0
C740 C 0.33189 0.45371 0.70272 0.0
C741 C 0.30898 0.46698 0.68979 0.0
C742 C 0.28757 0.45003 0.67879 0.0
C743 C 0.29044 0.42044 0.67814 0.0
H744 H 0.52846 0.35972 0.71223 0.0
H745 H 0.55756 0.28599 0.66651 0.0
H746 H 0.48378 0.33727 0.71977 0.0
H747 H 0.51251 0.26318 0.67411 0.0
H748 H 0.42239 0.28261 0.63565 0.0
H749 H 0.47119 0.27995 0.64809 0.0
H750 H 0.4507 0.30044 0.7351 0.0
H751 H 0.40143 0.30314 0.72241 0.0
C752 C 0.52563 0.33816 0.70483 0.0
C753 C 0.54618 0.32481 0.68829 0.0
C754 C 0.50003 0.32514 0.70933 0.0
C755 C 0.49437 0.29863 0.69704 0.0
C756 C 0.51617 0.28379 0.68351 0.0
C757 C 0.542 0.29676 0.67928 0.0
C758 C 0.42819 0.2855 0.65766 0.0
C759 C 0.40826 0.29366 0.67794 0.0
C760 C 0.45621 0.28372 0.6649 0.0
C761 C 0.46492 0.29044 0.69253 0.0
C762 C 0.44461 0.29545 0.71357 0.0
C763 C 0.41641 0.2969 0.70634 0.0
H764 H 0.62649 0.57217 0.67624 0.0
H765 H 0.71267 0.57317 0.65087 0.0
H766 H 0.63114 0.52333 0.69162 0.0
H767 H 0.71761 0.5234 0.6662 0.0
H768 H 0.68122 0.43179 0.63798 0.0
H769 H 0.69731 0.48048 0.64361 0.0
H770 H 0.65104 0.48718 0.72214 0.0
H771 H 0.63403 0.43891 0.71559 0.0
C772 C 0.64671 0.56201 0.67481 0.0
C773 C 0.66917 0.57616 0.66233 0.0
C774 C 0.64953 0.53405 0.68386 0.0
C775 C 0.67481 0.51936 0.68019 0.0
C776 C 0.69789 0.53417 0.6693 0.0
C777 C 0.69514 0.56257 0.66064 0.0
C778 C 0.67574 0.44324 0.65716 0.0
C779 C 0.65632 0.43193 0.67628 0.0
C780 C 0.68495 0.47116 0.66044 0.0
C781 C 0.67483 0.48794 0.68295 0.0
C782 C 0.65871 0.47496 0.70426 0.0
C783 C 0.64913 0.44728 0.70068 0.0
H784 H 0.40118 0.28487 0.29418 0.0
H785 H 0.44846 0.27285 0.37095 0.0
H786 H 0.44444 0.28818 0.26689 0.0
H787 H 0.49137 0.27608 0.34405 0.0
H788 H 0.51295 0.36225 0.26732 0.0
H789 H 0.47338 0.33083 0.27104 0.0
H790 H 0.52607 0.26568 0.30706 0.0
H791 H 0.56589 0.2975 0.30336 0.0
C792 C 0.42076 0.2816 0.30501 0.0
C793 C 0.42159 0.27925 0.33473 0.0
C794 C 0.44553 0.28361 0.28941 0.0
C795 C 0.47137 0.28299 0.30333 0.0
C796 C 0.47194 0.27661 0.33251 0.0
C797 C 0.44729 0.27498 0.34807 0.0
C798 C 0.51636 0.34075 0.27476 0.0
C799 C 0.54226 0.33258 0.28578 0.0
C800 C 0.49364 0.32256 0.27677 0.0
C801 C 0.4964 0.29598 0.29013 0.0
C802 C 0.52323 0.28624 0.29714 0.0
C803 C 0.54608 0.30442 0.29488 0.0
H804 H 0.67033 0.45066 0.31888 0.0
H805 H 0.60125 0.47907 0.26788 0.0
H806 H 0.68722 0.49956 0.32166 0.0
H807 H 0.61849 0.52765 0.26998 0.0
H808 H 0.65743 0.61405 0.27718 0.0
H809 H 0.66005 0.56421 0.26208 0.0
H810 H 0.65684 0.53759 0.34974 0.0
H811 H 0.65338 0.58703 0.3647 0.0
C812 C 0.65957 0.4671 0.3071 0.0
C813 C 0.6344 0.46124 0.29334 0.0
C814 C 0.66914 0.49506 0.30882 0.0
C815 C 0.65402 0.51733 0.2962 0.0
C816 C 0.63065 0.51087 0.27972 0.0
C817 C 0.62074 0.4831 0.27856 0.0
C818 C 0.65805 0.59751 0.29318 0.0
C819 C 0.65495 0.60425 0.32207 0.0
C820 C 0.65954 0.56909 0.28454 0.0
C821 C 0.65877 0.54714 0.30476 0.0
C822 C 0.65786 0.5541 0.33373 0.0
C823 C 0.65565 0.58236 0.34229 0.0
H824 H 0.53949 0.72923 0.33493 0.0
H825 H 0.58173 0.70007 0.25947 0.0
H826 H 0.49501 0.72234 0.31221 0.0
H827 H 0.53686 0.69321 0.23621 0.0
H828 H 0.41813 0.69183 0.28392 0.0
H829 H 0.45758 0.72388 0.27816 0.0
H830 H 0.50843 0.65332 0.25017 0.0
H831 H 0.4692 0.62179 0.25558 0.0
C832 C 0.53921 0.72274 0.31287 0.0
C833 C 0.56391 0.71464 0.29913 0.0
C834 C 0.51362 0.71887 0.29967 0.0
C835 C 0.51225 0.7064 0.27259 0.0
C836 C 0.5372 0.70233 0.25731 0.0
C837 C 0.56293 0.70647 0.27051 0.0
C838 C 0.43738 0.68352 0.2752 0.0
C839 C 0.44089 0.65422 0.27094 0.0
C840 C 0.46005 0.70185 0.27205 0.0
C841 C 0.48644 0.69108 0.26452 0.0
C842 C 0.48857 0.66251 0.2561 0.0
C843 C 0.46605 0.64426 0.25942 0.0
H844 H 0.3236 0.37531 0.30884 0.0
H845 H 0.33685 0.41141 0.3919 0.0
H846 H 0.32103 0.42316 0.28847 0.0
H847 H 0.33346 0.45906 0.37165 0.0
H848 H 0.31626 0.54231 0.33032 0.0
H849 H 0.30008 0.49433 0.34163 0.0
H850 H 0.36473 0.45906 0.28844 0.0
H851 H 0.38143 0.50682 0.27792 0.0
C852 C 0.32508 0.39344 0.32286 0.0
C853 C 0.33068 0.38971 0.35192 0.0
C854 C 0.32361 0.42074 0.31119 0.0
C855 C 0.32693 0.44468 0.32854 0.0
C856 C 0.33048 0.44093 0.35789 0.0
C857 C 0.33264 0.41369 0.36943 0.0
C858 C 0.32621 0.52434 0.3201 0.0
C859 C 0.35011 0.52814 0.30333 0.0
C860 C 0.31708 0.49694 0.32673 0.0
C861 C 0.33128 0.47312 0.316 0.0
C862 C 0.3533 0.4771 0.29679 0.0
C863 C 0.36286 0.50439 0.29077 0.0
loop_
_geom_bond_atom_site_label_1
_geom_bond_atom_site_label_2
_geom_bond_distance
_geom_bond_site_symmetry_2
_ccdc_geom_bond_type
Zn0 O3 2.031 . S
Zn0 O5 2.049 . S
Zn0 O10 2.067 . S
Zn1 O2 1.962 . S
Zn1 O4 1.986 . S
Zn1 O6 1.996 . S
Zn1 O9 1.943 . S
O2 Zn1 1.962 . S
O2 C7 1.254 . S
O3 Zn0 2.031 . S
O3 C7 1.269 . S
O4 Zn1 1.986 . S
O4 C11 1.262 . S
O5 Zn0 2.049 . S
O5 C13 1.260 . S
O6 Zn1 1.996 . S
O6 C13 1.257 . S
C7 O2 1.254 . S
C7 O3 1.269 . S
C8 O9 1.249 . S
C8 O10 1.270 . S
O9 Zn1 1.943 . S
O9 C8 1.249 . S
O10 Zn0 2.067 . S
O10 C8 1.270 . S
C11 O4 1.262 . S
C11 O12 1.232 . S
O12 C11 1.232 . S
C13 O5 1.260 . S
C13 O6 1.257 . S
Zn14 O17 2.031 . S
Zn14 O19 2.049 . S
Zn14 O24 2.067 . S
Zn15 O16 1.962 . S
Zn15 O18 1.986 . S
Zn15 O20 1.996 . S
Zn15 O23 1.943 . S
O16 Zn15 1.962 . S
O16 C21 1.254 . S
O17 Zn14 2.031 . S
O17 C21 1.269 . S
O18 Zn15 1.986 . S
O18 C25 1.262 . S
O19 Zn14 2.049 . S
O19 C27 1.260 . S
O20 Zn15 1.996 . S
O20 C27 1.257 . S
C21 O16 1.254 . S
C21 O17 1.269 . S
C22 O23 1.249 . S
C22 O24 1.270 . S
O23 Zn15 1.943 . S
O23 C22 1.249 . S
O24 Zn14 2.067 . S
O24 C22 1.270 . S
C25 O18 1.262 . S
C25 O26 1.232 . S
O26 C25 1.232 . S
C27 O19 1.260 . S
C27 O20 1.257 . S
Zn28 O31 2.031 . S
Zn28 O33 2.049 . S
Zn28 O38 2.067 . S
Zn29 O30 1.962 . S
Zn29 O32 1.986 . S
Zn29 O34 1.996 . S
Zn29 O37 1.943 . S
O30 Zn29 1.962 . S
O30 C35 1.254 . S
O31 Zn28 2.031 . S
O31 C35 1.269 . S
O32 Zn29 1.986 . S
O32 C39 1.262 . S
O33 Zn28 2.049 . S
O33 C41 1.260 . S
O34 Zn29 1.996 . S
O34 C41 1.257 . S
C35 O30 1.254 . S
C35 O31 1.269 . S
C36 O37 1.249 . S
C36 O38 1.270 . S
O37 Zn29 1.943 . S
O37 C36 1.249 . S
O38 Zn28 2.067 . S
O38 C36 1.270 . S
C39 O32 1.262 . S
C39 O40 1.232 . S
O40 C39 1.232 . S
C41 O33 1.260 . S
C41 O34 1.257 . S
Zn42 O45 2.031 . S
Zn42 O47 2.049 . S
Zn42 O52 2.067 . S
Zn43 O44 1.962 . S
Zn43 O46 1.986 . S
Zn43 O48 1.996 . S
Zn43 O51 1.943 . S
O44 Zn43 1.962 . S
O44 C49 1.254 . S
O45 Zn42 2.031 . S
O45 C49 1.269 . S
O46 Zn43 1.986 . S
O46 C53 1.262 . S
O47 Zn42 2.049 . S
O47 C55 1.260 . S
O48 Zn43 1.996 . S
O48 C55 1.257 . S
C49 O44 1.254 . S
C49 O45 1.269 . S
C50 O51 1.249 . S
C50 O52 1.270 . S
O51 Zn43 1.943 . S
O51 C50 1.249 . S
O52 Zn42 2.067 . S
O52 C50 1.270 . S
C53 O46 1.262 . S
C53 O54 1.232 . S
O54 C53 1.232 . S
C55 O47 1.260 . S
C55 O48 1.257 . S
Zn56 O59 2.031 . S
Zn56 O61 2.049 . S
Zn56 O66 2.067 . S
Zn57 O58 1.962 . S
Zn57 O60 1.986 . S
Zn57 O62 1.996 . S
Zn57 O65 1.943 . S
O58 Zn57 1.962 . S
O58 C63 1.254 . S
O59 Zn56 2.031 . S
O59 C63 1.269 . S
O60 Zn57 1.986 . S
O60 C67 1.262 . S
O61 Zn56 2.049 . S
O61 C69 1.260 . S
O62 Zn57 1.996 . S
O62 C69 1.257 . S
C63 O58 1.254 . S
C63 O59 1.269 . S
C64 O65 1.249 . S
C64 O66 1.270 . S
O65 Zn57 1.943 . S
O65 C64 1.249 . S
O66 Zn56 2.067 . S
O66 C64 1.270 . S
C67 O60 1.262 . S
C67 O68 1.232 . S
O68 C67 1.232 . S
C69 O61 1.260 . S
C69 O62 1.257 . S
Zn70 O73 2.031 . S
Zn70 O75 2.049 . S
Zn70 O80 2.067 . S
Zn71 O72 1.962 . S
Zn71 O74 1.986 . S
Zn71 O76 1.996 . S
Zn71 O79 1.943 . S
O72 Zn71 1.962 . S
O72 C77 1.254 . S
O73 Zn70 2.031 . S
O73 C77 1.269 . S
O74 Zn71 1.986 . S
O74 C81 1.262 . S
O75 Zn70 2.049 . S
O75 C83 1.260 . S
O76 Zn71 1.996 . S
O76 C83 1.257 . S
C77 O72 1.254 . S
C77 O73 1.269 . S
C78 O79 1.249 . S
C78 O80 1.270 . S
O79 Zn71 1.943 . S
O79 C78 1.249 . S
O80 Zn70 2.067 . S
O80 C78 1.270 . S
C81 O74 1.262 . S
C81 O82 1.232 . S
O82 C81 1.232 . S
C83 O75 1.260 . S
C83 O76 1.257 . S
Zn84 O87 2.031 . S
Zn84 O89 2.049 . S
Zn84 O94 2.067 . S
Zn85 O86 1.962 . S
Zn85 O88 1.986 . S
Zn85 O90 1.996 . S
Zn85 O93 1.943 . S
O86 Zn85 1.962 . S
O86 C91 1.254 . S
O87 Zn84 2.031 . S
O87 C91 1.269 . S
O88 Zn85 1.986 . S
O88 C95 1.262 . S
O89 Zn84 2.049 . S
O89 C97 1.260 . S
O90 Zn85 1.996 . S
O90 C97 1.257 . S
C91 O86 1.254 . S
C91 O87 1.269 . S
C92 O93 1.249 . S
C92 O94 1.270 . S
O93 Zn85 1.943 . S
O93 C92 1.249 . S
O94 Zn84 2.067 . S
O94 C92 1.270 . S
C95 O88 1.262 . S
C95 O96 1.232 . S
O96 C95 1.232 . S
C97 O89 1.260 . S
C97 O90 1.257 . S
Zn98 O101 2.031 . S
Zn98 O103 2.049 . S
Zn98 O108 2.067 . S
Zn99 O100 1.962 . S
Zn99 O102 1.986 . S
Zn99 O104 1.996 . S
Zn99 O107 1.943 . S
O100 Zn99 1.962 . S
O100 C105 1.254 . S
O101 Zn98 2.031 . S
O101 C105 1.269 . S
O102 Zn99 1.986 . S
O102 C109 1.262 . S
O103 Zn98 2.049 . S
O103 C111 1.260 . S
O104 Zn99 1.996 . S
O104 C111 1.257 . S
C105 O100 1.254 . S
C105 O101 1.269 . S
C106 O107 1.249 . S
C106 O108 1.270 . S
O107 Zn99 1.943 . S
O107 C106 1.249 . S
O108 Zn98 2.067 . S
O108 C106 1.270 . S
C109 O102 1.262 . S
C109 O110 1.232 . S
O110 C109 1.232 . S
C111 O103 1.260 . S
C111 O104 1.257 . S
Zn112 O115 2.031 . S
Zn112 O117 2.049 . S
Zn112 O122 2.067 . S
Zn113 O114 1.962 . S
Zn113 O116 1.986 . S
Zn113 O118 1.996 . S
Zn113 O121 1.943 . S
O114 Zn113 1.962 . S
O114 C119 1.254 . S
O115 Zn112 2.031 . S
O115 C119 1.269 . S
O116 Zn113 1.986 . S
O116 C123 1.262 . S
O117 Zn112 2.049 . S
O117 C125 1.260 . S
O118 Zn113 1.996 . S
O118 C125 1.257 . S
C119 O114 1.254 . S
C119 O115 1.269 . S
C120 O121 1.249 . S
C120 O122 1.270 . S
O121 Zn113 1.943 . S
O121 C120 1.249 . S
O122 Zn112 2.067 . S
O122 C120 1.270 . S
C123 O116 1.262 . S
C123 O124 1.232 . S
O124 C123 1.232 . S
C125 O117 1.260 . S
C125 O118 1.257 . S
Zn126 O129 2.031 . S
Zn126 O131 2.049 . S
Zn126 O136 2.067 . S
Zn127 O128 1.962 . S
Zn127 O130 1.986 . S
Zn127 O132 1.996 . S
Zn127 O135 1.943 . S
O128 Zn127 1.962 . S
O128 C133 1.254 . S
O129 Zn126 2.031 . S
O129 C133 1.269 . S
O130 Zn127 1.986 . S
O130 C137 1.262 . S
O131 Zn126 2.049 . S
O131 C139 1.260 . S
O132 Zn127 1.996 . S
O132 C139 1.257 . S
C133 O128 1.254 . S
C133 O129 1.269 . S
C134 O135 1.249 . S
C134 O136 1.270 . S
O135 Zn127 1.943 . S
O135 C134 1.249 . S
O136 Zn126 2.067 . S
O136 C134 1.270 . S
C137 O130 1.262 . S
C137 O138 1.232 . S
O138 C137 1.232 . S
C139 O131 1.260 . S
C139 O132 1.257 . S
Zn140 O143 2.031 . S
Zn140 O145 2.049 . S
Zn140 O150 2.067 . S
Zn141 O142 1.962 . S
Zn141 O144 1.986 . S
Zn141 O146 1.996 . S
Zn141 O149 1.943 . S
O142 Zn141 1.962 . S
O142 C147 1.254 . S
O143 Zn140 2.031 . S
O143 C147 1.269 . S
O144 Zn141 1.986 . S
O144 C151 1.262 . S
O145 Zn140 2.049 . S
O145 C153 1.260 . S
O146 Zn141 1.996 . S
O146 C153 1.257 . S
C147 O142 1.254 . S
C147 O143 1.269 . S
C148 O149 1.249 . S
C148 O150 1.270 . S
O149 Zn141 1.943 . S
O149 C148 1.249 . S
O150 Zn140 2.067 . S
O150 C148 1.270 . S
C151 O144 1.262 . S
C151 O152 1.232 . S
O152 C151 1.232 . S
C153 O145 1.260 . S
C153 O146 1.257 . S
Zn154 O157 2.031 . S
Zn154 O159 2.049 . S
Zn154 O164 2.067 . S
Zn155 O156 1.962 . S
Zn155 O158 1.986 . S
Zn155 O160 1.996 . S
Zn155 O163 1.943 . S
O156 Zn155 1.962 . S
O156 C161 1.254 . S
O157 Zn154 2.031 . S
O157 C161 1.269 . S
O158 Zn155 1.986 . S
O158 C165 1.262 . S
O159 Zn154 2.049 . S
O159 C167 1.260 . S
O160 Zn155 1.996 . S
O160 C167 1.257 . S
C161 O156 1.254 . S
C161 O157 1.269 . S
C162 O163 1.249 . S
C162 O164 1.270 . S
O163 Zn155 1.943 . S
O163 C162 1.249 . S
O164 Zn154 2.067 . S
O164 C162 1.270 . S
C165 O158 1.262 . S
C165 O166 1.232 . S
O166 C165 1.232 . S
C167 O159 1.260 . S
C167 O160 1.257 . S
Zn168 O171 2.031 . S
Zn168 O173 2.049 . S
Zn168 O178 2.067 . S
Zn169 O170 1.962 . S
Zn169 O172 1.986 . S
Zn169 O174 1.996 . S
Zn169 O177 1.943 . S
O170 Zn169 1.962 . S
O170 C175 1.254 . S
O171 Zn168 2.031 . S
O171 C175 1.269 . S
O172 Zn169 1.986 . S
O172 C179 1.262 . S
O173 Zn168 2.049 . S
O173 C181 1.260 . S
O174 Zn169 1.996 . S
O174 C181 1.257 . S
C175 O170 1.254 . S
C175 O171 1.269 . S
C176 O177 1.249 . S
C176 O178 1.270 . S
O177 Zn169 1.943 . S
O177 C176 1.249 . S
O178 Zn168 2.067 . S
O178 C176 1.270 . S
C179 O172 1.262 . S
C179 O180 1.232 . S
O180 C179 1.232 . S
C181 O173 1.260 . S
C181 O174 1.257 . S
Zn182 O185 2.031 . S
Zn182 O187 2.049 . S
Zn182 O192 2.067 . S
Zn183 O184 1.962 . S
Zn183 O186 1.986 . S
Zn183 O188 1.996 . S
Zn183 O191 1.943 . S
O184 Zn183 1.962 . S
O184 C189 1.254 . S
O185 Zn182 2.031 . S
O185 C189 1.269 . S
O186 Zn183 1.986 . S
O186 C193 1.262 . S
O187 Zn182 2.049 . S
O187 C195 1.260 . S
O188 Zn183 1.996 . S
O188 C195 1.257 . S
C189 O184 1.254 . S
C189 O185 1.269 . S
C190 O191 1.249 . S
C190 O192 1.270 . S
O191 Zn183 1.943 . S
O191 C190 1.249 . S
O192 Zn182 2.067 . S
O192 C190 1.270 . S
C193 O186 1.262 . S
C193 O194 1.232 . S
O194 C193 1.232 . S
C195 O187 1.260 . S
C195 O188 1.257 . S
Zn196 O199 2.031 . S
Zn196 O201 2.049 . S
Zn196 O206 2.067 . S
Zn197 O198 1.962 . S
Zn197 O200 1.986 . S
Zn197 O202 1.996 . S
Zn197 O205 1.943 . S
O198 Zn197 1.962 . S
O198 C203 1.254 . S
O199 Zn196 2.031 . S
O199 C203 1.269 . S
O200 Zn197 1.986 . S
O200 C207 1.262 . S
O201 Zn196 2.049 . S
O201 C209 1.260 . S
O202 Zn197 1.996 . S
O202 C209 1.257 . S
C203 O198 1.254 . S
C203 O199 1.269 . S
C204 O205 1.249 . S
C204 O206 1.270 . S
O205 Zn197 1.943 . S
O205 C204 1.249 . S
O206 Zn196 2.067 . S
O206 C204 1.270 . S
C207 O200 1.262 . S
C207 O208 1.232 . S
O208 C207 1.232 . S
C209 O201 1.260 . S
C209 O202 1.257 . S
Zn210 O213 2.031 . S
Zn210 O215 2.049 . S
Zn210 O220 2.067 . S
Zn211 O212 1.962 . S
Zn211 O214 1.986 . S
Zn211 O216 1.996 . S
Zn211 O219 1.943 . S
O212 Zn211 1.962 . S
O212 C217 1.254 . S
O213 Zn210 2.031 . S
O213 C217 1.269 . S
O214 Zn211 1.986 . S
O214 C221 1.262 . S
O215 Zn210 2.049 . S
O215 C223 1.260 . S
O216 Zn211 1.996 . S
O216 C223 1.257 . S
C217 O212 1.254 . S
C217 O213 1.269 . S
C218 O219 1.249 . S
C218 O220 1.270 . S
O219 Zn211 1.943 . S
O219 C218 1.249 . S
O220 Zn210 2.067 . S
O220 C218 1.270 . S
C221 O214 1.262 . S
C221 O222 1.232 . S
O222 C221 1.232 . S
C223 O215 1.260 . S
C223 O216 1.257 . S
H224 C232 0.950 . S
H225 C237 0.950 . S
H226 C234 0.950 . S
H227 C236 0.950 . S
H228 C238 0.950 . S
H229 C240 0.950 . S
H230 C242 0.950 . S
H231 C243 0.950 . S
C232 H224 0.950 . S
C232 C233 1.386 . S
C232 C234 1.391 . S
C233 C232 1.386 . S
C233 C237 1.393 . S
C234 H226 0.950 . S
C234 C232 1.391 . S
C234 C235 1.400 . S
C235 C234 1.400 . S
C235 C236 1.398 . S
C235 C241 1.491 . S
C236 H227 0.950 . S
C236 C235 1.398 . S
C236 C237 1.391 . S
C237 H225 0.950 . S
C237 C233 1.393 . S
C237 C236 1.391 . S
C238 H228 0.950 . S
C238 C239 1.386 . S
C238 C240 1.391 . S
C239 C238 1.386 . S
C239 C243 1.393 . S
C240 H229 0.950 . S
C240 C238 1.391 . S
C240 C241 1.400 . S
C241 C235 1.491 . S
C241 C240 1.400 . S
C241 C242 1.398 . S
C242 H230 0.950 . S
C242 C241 1.398 . S
C242 C243 1.391 . S
C243 H231 0.950 . S
C243 C239 1.393 . S
C243 C242 1.391 . S
H244 C252 0.950 . S
H245 C257 0.950 . S
H246 C254 0.950 . S
H247 C256 0.950 . S
H248 C258 0.950 . S
H249 C260 0.950 . S
H250 C262 0.950 . S
H251 C263 0.950 . S
C252 H244 0.950 . S
C252 C253 1.386 . S
C252 C254 1.391 . S
C253 C252 1.386 . S
C253 C257 1.393 . S
C254 H246 0.950 . S
C254 C252 1.391 . S
C254 C255 1.400 . S
C255 C254 1.400 . S
C255 C256 1.398 . S
C255 C261 1.491 . S
C256 H247 0.950 . S
C256 C255 1.398 . S
C256 C257 1.391 . S
C257 H245 0.950 . S
C257 C253 1.393 . S
C257 C256 1.391 . S
C258 H248 0.950 . S
C258 C259 1.386 . S
C258 C260 1.391 . S
C259 C258 1.386 . S
C259 C263 1.393 . S
C260 H249 0.950 . S
C260 C258 1.391 . S
C260 C261 1.400 . S
C261 C255 1.491 . S
C261 C260 1.400 . S
C261 C262 1.398 . S
C262 H250 0.950 . S
C262 C261 1.398 . S
C262 C263 1.391 . S
C263 H251 0.950 . S
C263 C259 1.393 . S
C263 C262 1.391 . S
H264 C272 0.950 . S
H265 C277 0.950 . S
H266 C274 0.950 . S
H267 C276 0.950 . S
H268 C278 0.950 . S
H269 C280 0.950 . S
H270 C282 0.950 . S
H271 C283 0.950 . S
C272 H264 0.950 . S
C272 C273 1.386 . S
C272 C274 1.391 . S
C273 C272 1.386 . S
C273 C277 1.393 . S
C274 H266 0.950 . S
C274 C272 1.391 . S
C274 C275 1.400 . S
C275 C274 1.400 . S
C275 C276 1.398 . S
C275 C281 1.491 . S
C276 H267 0.950 . S
C276 C275 1.398 . S
C276 C277 1.391 . S
C277 H265 0.950 . S
C277 C273 1.393 . S
C277 C276 1.391 . S
C278 H268 0.950 . S
C278 C279 1.386 . S
C278 C280 1.391 . S
C279 C278 1.386 . S
C279 C283 1.393 . S
C280 H269 0.950 . S
C280 C278 1.391 . S
C280 C281 1.400 . S
C281 C275 1.491 . S
C281 C280 1.400 . S
C281 C282 1.398 . S
C282 H270 0.950 . S
C282 C281 1.398 . S
C282 C283 1.391 . S
C283 H271 0.950 . S
C283 C279 1.393 . S
C283 C282 1.391 . S
H284 C292 0.950 . S
H285 C297 0.950 . S
H286 C294 0.950 . S
H287 C296 0.950 . S
H288 C298 0.950 . S
H289 C300 0.950 . S
H290 C302 0.950 . S
H291 C303 0.950 . S
C292 H284 0.950 . S
C292 C293 1.386 . S
C292 C294 1.391 . S
C293 C292 1.386 . S
C293 C297 1.393 . S
C294 H286 0.950 . S
C294 C292 1.391 . S
C294 C295 1.400 . S
C295 C294 1.400 . S
C295 C296 1.398 . S
C295 C301 1.491 . S
C296 H287 0.950 . S
C296 C295 1.398 . S
C296 C297 1.391 . S
C297 H285 0.950 . S
C297 C293 1.393 . S
C297 C296 1.391 . S
C298 H288 0.950 . S
C298 C299 1.386 . S
C298 C300 1.391 . S
C299 C298 1.386 . S
C299 C303 1.393 . S
C300 H289 0.950 . S
C300 C298 1.391 . S
C300 C301 1.400 . S
C301 C295 1.491 . S
C301 C300 1.400 . S
C301 C302 1.398 . S
C302 H290 0.950 . S
C302 C301 1.398 . S
C302 C303 1.391 . S
C303 H291 0.950 . S
C303 C299 1.393 . S
C303 C302 1.391 . S
H304 C312 0.950 . S
H305 C317 0.950 . S
H306 C314 0.950 . S
H307 C316 0.950 . S
H308 C318 0.950 . S
H309 C320 0.950 . S
H310 C322 0.950 . S
H311 C323 0.950 . S
C312 H304 0.950 . S
C312 C313 1.386 . S
C312 C314 1.391 . S
C313 C312 1.386 . S
C313 C317 1.393 . S
C314 H306 0.950 . S
C314 C312 1.391 . S
C314 C315 1.400 . S
C315 C314 1.400 . S
C315 C316 1.398 . S
C315 C321 1.491 . S
C316 H307 0.950 . S
C316 C315 1.398 . S
C316 C317 1.391 . S
C317 H305 0.950 . S
C317 C313 1.393 . S
C317 C316 1.391 . S
C318 H308 0.950 . S
C318 C319 1.386 . S
C318 C320 1.391 . S
C319 C318 1.386 . S
C319 C323 1.393 . S
C320 H309 0.950 . S
C320 C318 1.391 . S
C320 C321 1.400 . S
C321 C315 1.491 . S
C321 C320 1.400 . S
C321 C322 1.398 . S
C322 H310 0.950 . S
C322 C321 1.398 . S
C322 C323 1.391 . S
C323 H311 0.950 . S
C323 C319 1.393 . S
C323 C322 1.391 . S
H324 C332 0.950 . S
H325 C337 0.950 . S
H326 C334 0.950 . S
H327 C336 0.950 . S
H328 C338 0.950 . S
H329 C340 0.950 . S
H330 C342 0.950 . S
H331 C343 0.950 . S
C332 H324 0.950 . S
C332 C333 1.386 . S
C332 C334 1.391 . S
C333 C332 1.386 . S
C333 C337 1.393 . S
C334 H326 0.950 . S
C334 C332 1.391 . S
C334 C335 1.400 . S
C335 C334 1.400 . S
C335 C336 1.398 . S
C335 C341 1.491 . S
C336 H327 0.950 . S
C336 C335 1.398 . S
C336 C337 1.391 . S
C337 H325 0.950 . S
C337 C333 1.393 . S
C337 C336 1.391 . S
C338 H328 0.950 . S
C338 C339 1.386 . S
C338 C340 1.391 . S
C339 C338 1.386 . S
C339 C343 1.393 . S
C340 H329 0.950 . S
C340 C338 1.391 . S
C340 C341 1.400 . S
C341 C335 1.491 . S
C341 C340 1.400 . S
C341 C342 1.398 . S
C342 H330 0.950 . S
C342 C341 1.398 . S
C342 C343 1.391 . S
C343 H331 0.950 . S
C343 C339 1.393 . S
C343 C342 1.391 . S
H344 C352 0.950 . S
H345 C357 0.950 . S
H346 C354 0.950 . S
H347 C356 0.950 . S
H348 C358 0.950 . S
H349 C360 0.950 . S
H350 C362 0.950 . S
H351 C363 0.950 . S
C352 H344 0.950 . S
C352 C353 1.386 . S
C352 C354 1.391 . S
C353 C352 1.386 . S
C353 C357 1.393 . S
C354 H346 0.950 . S
C354 C352 1.391 . S
C354 C355 1.400 . S
C355 C354 1.400 . S
C355 C356 1.398 . S
C355 C361 1.491 . S
C356 H347 0.950 . S
C356 C355 1.398 . S
C356 C357 1.391 . S
C357 H345 0.950 . S
C357 C353 1.393 . S
C357 C356 1.391 . S
C358 H348 0.950 . S
C358 C359 1.386 . S
C358 C360 1.391 . S
C359 C358 1.386 . S
C359 C363 1.393 . S
C360 H349 0.950 . S
C360 C358 1.391 . S
C360 C361 1.400 . S
C361 C355 1.491 . S
C361 C360 1.400 . S
C361 C362 1.398 . S
C362 H350 0.950 . S
C362 C361 1.398 . S
C362 C363 1.391 . S
C363 H351 0.950 . S
C363 C359 1.393 . S
C363 C362 1.391 . S
H364 C372 0.950 . S
H365 C377 0.950 . S
H366 C374 0.950 . S
H367 C376 0.950 . S
H368 C378 0.950 . S
H369 C380 0.950 . S
H370 C382 0.950 . S
H371 C383 0.950 . S
C372 H364 0.950 . S
C372 C373 1.386 . S
C372 C374 1.391 . S
C373 C372 1.386 . S
C373 C377 1.393 . S
C374 H366 0.950 . S
C374 C372 1.391 . S
C374 C375 1.400 . S
C375 C374 1.400 . S
C375 C376 1.398 . S
C375 C381 1.491 . S
C376 H367 0.950 . S
C376 C375 1.398 . S
C376 C377 1.391 . S
C377 H365 0.950 . S
C377 C373 1.393 . S
C377 C376 1.391 . S
C378 H368 0.950 . S
C378 C379 1.386 . S
C378 C380 1.391 . S
C379 C378 1.386 . S
C379 C383 1.393 . S
C380 H369 0.950 . S
C380 C378 1.391 . S
C380 C381 1.400 . S
C381 C375 1.491 . S
C381 C380 1.400 . S
C381 C382 1.398 . S
C382 H370 0.950 . S
C382 C381 1.398 . S
C382 C383 1.391 . S
C383 H371 0.950 . S
C383 C379 1.393 . S
C383 C382 1.391 . S
H384 C392 0.950 . S
H385 C397 0.950 . S
H386 C394 0.950 . S
H387 C396 0.950 . S
H388 C398 0.950 . S
H389 C400 0.950 . S
H390 C402 0.950 . S
H391 C403 0.950 . S
C392 H384 0.950 . S
C392 C393 1.386 . S
C392 C394 1.391 . S
C393 C392 1.386 . S
C393 C397 1.393 . S
C394 H386 0.950 . S
C394 C392 1.391 . S
C394 C395 1.421 . S
C395 C394 1.421 . S
C395 C396 1.413 . S
C395 C401 1.457 1_556 S
C396 H387 0.950 . S
C396 C395 1.413 . S
C396 C397 1.391 . S
C397 H385 0.950 . S
C397 C393 1.393 . S
C397 C396 1.391 . S
C398 H388 0.950 . S
C398 C399 1.386 . S
C398 C400 1.391 . S
C399 C398 1.386 . S
C399 C403 1.393 . S
C400 H389 0.950 . S
C400 C398 1.391 . S
C400 C401 1.400 . S
C401 C395 1.457 1_554 S
C401 C400 1.400 . S
C401 C402 1.398 . S
C402 H390 0.950 . S
C402 C401 1.398 . S
C402 C403 1.391 . S
C403 H391 0.950 . S
C403 C399 1.393 . S
C403 C402 1.391 . S
H404 C412 0.950 . S
H405 C417 0.950 . S
H406 C414 0.950 . S
H407 C416 0.950 . S
H408 C418 0.950 . S
H409 C420 0.950 . S
H410 C422 0.950 . S
H411 C423 0.950 . S
C412 H404 0.950 . S
C412 C413 1.386 . S
C412 C414 1.391 . S
C413 C412 1.386 . S
C413 C417 1.393 . S
C414 H406 0.950 . S
C414 C412 1.391 . S
C414 C415 1.400 . S
C415 C414 1.400 . S
C415 C416 1.398 . S
C415 C421 1.458 1_556 S
C416 H407 0.950 . S
C416 C415 1.398 . S
C416 C417 1.391 . S
C417 H405 0.950 . S
C417 C413 1.393 . S
C417 C416 1.391 . S
C418 H408 0.950 . S
C418 C419 1.386 . S
C418 C420 1.391 . S
C419 C418 1.386 . S
C419 C423 1.393 . S
C420 H409 0.950 . S
C420 C418 1.391 . S
C420 C421 1.420 . S
C421 C415 1.458 1_554 S
C421 C420 1.420 . S
C421 C422 1.413 . S
C422 H410 0.950 . S
C422 C421 1.413 . S
C422 C423 1.391 . S
C423 H411 0.950 . S
C423 C419 1.393 . S
C423 C422 1.391 . S
H424 C432 0.950 . S
H425 C437 0.950 . S
H426 C434 0.950 . S
H427 C436 0.950 . S
H428 C438 0.950 . S
H429 C440 0.950 . S
H430 C442 0.950 . S
H431 C443 0.950 . S
C432 H424 0.950 . S
C432 C433 1.386 . S
C432 C434 1.391 . S
C433 C432 1.386 . S
C433 C437 1.393 . S
C434 H426 0.950 . S
C434 C432 1.391 . S
C434 C435 1.416 . S
C435 C434 1.416 . S
C435 C436 1.417 . S
C435 C441 1.459 1_556 S
C436 H427 0.950 . S
C436 C435 1.417 . S
C436 C437 1.391 . S
C437 H425 0.950 . S
C437 C433 1.393 . S
C437 C436 1.391 . S
C438 H428 0.950 . S
C438 C439 1.386 . S
C438 C440 1.391 . S
C439 C438 1.386 . S
C439 C443 1.393 . S
C440 H429 0.950 . S
C440 C438 1.391 . S
C440 C441 1.400 . S
C441 C435 1.459 1_554 S
C441 C440 1.400 . S
C441 C442 1.398 . S
C442 H430 0.950 . S
C442 C441 1.398 . S
C442 C443 1.391 . S
C443 H431 0.950 . S
C443 C439 1.393 . S
C443 C442 1.391 . S
H444 C452 0.950 . S
H445 C457 0.950 . S
H446 C454 0.950 . S
H447 C456 0.950 . S
H448 C458 0.950 . S
H449 C460 0.950 . S
H450 C462 0.950 . S
H451 C463 0.950 . S
C452 H444 0.950 . S
C452 C453 1.386 . S
C452 C454 1.391 . S
C453 C452 1.386 . S
C453 C457 1.393 . S
C454 H446 0.950 . S
C454 C452 1.391 . S
C454 C455 1.420 . S
C455 C454 1.420 . S
C455 C456 1.418 . S
C455 C461 1.454 1_554 S
C456 H447 0.950 . S
C456 C455 1.418 . S
C456 C457 1.391 . S
C457 H445 0.950 . S
C457 C453 1.393 . S
C457 C456 1.391 . S
C458 H448 0.950 . S
C458 C459 1.386 . S
C458 C460 1.391 . S
C459 C458 1.386 . S
C459 C463 1.393 . S
C460 H449 0.950 . S
C460 C458 1.391 . S
C460 C461 1.400 . S
C461 C455 1.454 1_556 S
C461 C460 1.400 . S
C461 C462 1.398 . S
C462 H450 0.950 . S
C462 C461 1.398 . S
C462 C463 1.391 . S
C463 H451 0.950 . S
C463 C459 1.393 . S
C463 C462 1.391 . S
H464 C472 0.950 . S
H465 C477 0.950 . S
H466 C474 0.950 . S
H467 C476 0.950 . S
H468 C478 0.950 . S
H469 C480 0.950 . S
H470 C482 0.950 . S
H471 C483 0.950 . S
C472 H464 0.950 . S
C472 C473 1.386 . S
C472 C474 1.391 . S
C473 C472 1.386 . S
C473 C477 1.393 . S
C474 H466 0.950 . S
C474 C472 1.391 . S
C474 C475 1.400 . S
C475 C474 1.400 . S
C475 C476 1.398 . S
C475 C481 1.491 1_455 S
C476 H467 0.950 . S
C476 C475 1.398 . S
C476 C477 1.391 . S
C477 H465 0.950 . S
C477 C473 1.393 . S
C477 C476 1.391 . S
C478 H468 0.950 . S
C478 C479 1.386 . S
C478 C480 1.391 . S
C479 C478 1.386 . S
C479 C483 1.393 . S
C480 H469 0.950 . S
C480 C478 1.391 . S
C480 C481 1.400 . S
C481 C475 1.491 1_655 S
C481 C480 1.400 . S
C481 C482 1.398 . S
C482 H470 0.950 . S
C482 C481 1.398 . S
C482 C483 1.391 . S
C483 H471 0.950 . S
C483 C479 1.393 . S
C483 C482 1.391 . S
H484 C492 0.950 . S
H485 C497 0.950 . S
H486 C494 0.950 . S
H487 C496 0.950 . S
H488 C498 0.950 . S
H489 C500 0.950 . S
H490 C502 0.950 . S
H491 C503 0.950 . S
C492 H484 0.950 . S
C492 C493 1.386 . S
C492 C494 1.391 . S
C493 C492 1.386 . S
C493 C497 1.393 . S
C494 H486 0.950 . S
C494 C492 1.391 . S
C494 C495 1.421 . S
C495 C494 1.421 . S
C495 C496 1.416 . S
C495 C501 1.454 1_565 S
C496 H487 0.950 . S
C496 C495 1.416 . S
C496 C497 1.391 . S
C497 H485 0.950 . S
C497 C493 1.393 . S
C497 C496 1.391 . S
C498 H488 0.950 . S
C498 C499 1.386 . S
C498 C500 1.391 . S
C499 C498 1.386 . S
C499 C503 1.393 . S
C500 H489 0.950 . S
C500 C498 1.391 . S
C500 C501 1.400 . S
C501 C495 1.454 1_545 S
C501 C500 1.400 . S
C501 C502 1.398 . S
C502 H490 0.950 . S
C502 C501 1.398 . S
C502 C503 1.391 . S
C503 H491 0.950 . S
C503 C499 1.393 . S
C503 C502 1.391 . S
H504 C512 0.950 . S
H505 C517 0.950 . S
H506 C514 0.950 . S
H507 C516 0.950 . S
H508 C518 0.950 . S
H509 C520 0.950 . S
H510 C522 0.950 . S
H511 C523 0.950 . S
C512 H504 0.950 . S
C512 C513 1.386 . S
C512 C514 1.391 . S
C513 C512 1.386 . S
C513 C517 1.393 . S
C514 H506 0.950 . S
C514 C512 1.391 . S
C514 C515 1.400 . S
C515 C514 1.400 . S
C515 C516 1.398 . S
C515 C521 1.491 1_655 S
C516 H507 0.950 . S
C516 C515 1.398 . S
C516 C517 1.391 . S
C517 H505 0.950 . S
C517 C513 1.393 . S
C517 C516 1.391 . S
C518 H508 0.950 . S
C518 C519 1.386 . S
C518 C520 1.391 . S
C519 C518 1.386 . S
C519 C523 1.393 . S
C520 H509 0.950 . S
C520 C518 1.391 . S
C520 C521 1.400 . S
C521 C515 1.491 1_455 S
C521 C520 1.400 . S
C521 C522 1.398 . S
C522 H510 0.950 . S
C522 C521 1.398 . S
C522 C523 1.391 . S
C523 H511 0.950 . S
C523 C519 1.393 . S
C523 C522 1.391 . S
H524 C532 0.950 . S
H525 C537 0.950 . S
H526 C534 0.950 . S
H527 C536 0.950 . S
H528 C538 0.950 . S
H529 C540 0.950 . S
H530 C542 0.950 . S
H531 C543 0.950 . S
C532 H524 0.950 . S
C532 C533 1.386 . S
C532 C534 1.391 . S
C533 C532 1.386 . S
C533 C537 1.393 . S
C534 H526 0.950 . S
C534 C532 1.391 . S
C534 C535 1.422 . S
C535 C534 1.422 . S
C535 C536 1.415 . S
C535 C541 1.455 1_545 S
C536 H527 0.950 . S
C536 C535 1.415 . S
C536 C537 1.391 . S
C537 H525 0.950 . S
C537 C533 1.393 . S
C537 C536 1.391 . S
C538 H528 0.950 . S
C538 C539 1.386 . S
C538 C540 1.391 . S
C539 C538 1.386 . S
C539 C543 1.393 . S
C540 H529 0.950 . S
C540 C538 1.391 . S
C540 C541 1.400 . S
C541 C535 1.455 1_565 S
C541 C540 1.400 . S
C541 C542 1.398 . S
C542 H530 0.950 . S
C542 C541 1.398 . S
C542 C543 1.391 . S
C543 H531 0.950 . S
C543 C539 1.393 . S
C543 C542 1.391 . S
H544 C552 0.950 . S
H545 C557 0.950 . S
H546 C554 0.950 . S
H547 C556 0.950 . S
H548 C558 0.950 . S
H549 C560 0.950 . S
H550 C562 0.950 . S
H551 C563 0.950 . S
C552 H544 0.950 . S
C552 C553 1.386 . S
C552 C554 1.391 . S
C553 C552 1.386 . S
C553 C557 1.393 . S
C554 H546 0.950 . S
C554 C552 1.391 . S
C554 C555 1.400 . S
C555 C554 1.400 . S
C555 C556 1.398 . S
C555 C561 1.491 1_655 S
C556 H547 0.950 . S
C556 C555 1.398 . S
C556 C557 1.391 . S
C557 H545 0.950 . S
C557 C553 1.393 . S
C557 C556 1.391 . S
C558 H548 0.950 . S
C558 C559 1.386 . S
C558 C560 1.391 . S
C559 C558 1.386 . S
C559 C563 1.393 . S
C560 H549 0.950 . S
C560 C558 1.391 . S
C560 C561 1.400 . S
C561 C555 1.491 1_455 S
C561 C560 1.400 . S
C561 C562 1.398 . S
C562 H550 0.950 . S
C562 C561 1.398 . S
C562 C563 1.391 . S
C563 H551 0.950 . S
C563 C559 1.393 . S
C563 C562 1.391 . S
H564 C572 0.950 . S
H565 C577 0.950 . S
H566 C574 0.950 . S
H567 C576 0.950 . S
H568 C578 0.950 . S
H569 C580 0.950 . S
H570 C582 0.950 . S
H571 C583 0.950 . S
C572 H564 0.950 . S
C572 C573 1.386 . S
C572 C574 1.391 . S
C573 C572 1.386 . S
C573 C577 1.393 . S
C574 H566 0.950 . S
C574 C572 1.391 . S
C574 C575 1.415 . S
C575 C574 1.415 . S
C575 C576 1.417 . S
C575 C581 1.459 1_565 S
C576 H567 0.950 . S
C576 C575 1.417 . S
C576 C577 1.391 . S
C577 H565 0.950 . S
C577 C573 1.393 . S
C577 C576 1.391 . S
C578 H568 0.950 . S
C578 C579 1.386 . S
C578 C580 1.391 . S
C579 C578 1.386 . S
C579 C583 1.393 . S
C580 H569 0.950 . S
C580 C578 1.391 . S
C580 C581 1.400 . S
C581 C575 1.459 1_545 S
C581 C580 1.400 . S
C581 C582 1.398 . S
C582 H570 0.950 . S
C582 C581 1.398 . S
C582 C583 1.391 . S
C583 H571 0.950 . S
C583 C579 1.393 . S
C583 C582 1.391 . S
H584 C592 0.950 . S
H585 C597 0.950 . S
H586 C594 0.950 . S
H587 C596 0.950 . S
H588 C598 0.950 . S
H589 C600 0.950 . S
H590 C602 0.950 . S
H591 C603 0.950 . S
C592 H584 0.950 . S
C592 C593 1.386 . S
C592 C594 1.391 . S
C593 C592 1.386 . S
C593 C597 1.393 . S
C594 H586 0.950 . S
C594 C592 1.391 . S
C594 C595 1.400 . S
C595 C594 1.400 . S
C595 C596 1.398 . S
C595 C601 1.491 1_455 S
C596 H587 0.950 . S
C596 C595 1.398 . S
C596 C597 1.391 . S
C597 H585 0.950 . S
C597 C593 1.393 . S
C597 C596 1.391 . S
C598 H588 0.950 . S
C598 C599 1.386 . S
C598 C600 1.391 . S
C599 C598 1.386 . S
C599 C603 1.393 . S
C600 H589 0.950 . S
C600 C598 1.391 . S
C600 C601 1.400 . S
C601 C595 1.491 1_655 S
C601 C600 1.400 . S
C601 C602 1.398 . S
C602 H590 0.950 . S
C602 C601 1.398 . S
C602 C603 1.391 . S
C603 H591 0.950 . S
C603 C599 1.393 . S
C603 C602 1.391 . S
H604 C612 0.950 . S
H605 C617 0.950 . S
H606 C614 0.950 . S
H607 C616 0.950 . S
H608 C618 0.950 . S
H609 C620 0.950 . S
H610 C622 0.950 . S
H611 C623 0.950 . S
C612 H604 0.950 . S
C612 C613 1.386 . S
C612 C614 1.391 . S
C613 C612 1.386 . S
C613 C617 1.393 . S
C614 H606 0.950 . S
C614 C612 1.391 . S
C614 C615 1.400 . S
C615 C614 1.400 . S
C615 C616 1.398 . S
C615 C621 1.454 1_565 S
C616 H607 0.950 . S
C616 C615 1.398 . S
C616 C617 1.391 . S
C617 H605 0.950 . S
C617 C613 1.393 . S
C617 C616 1.391 . S
C618 H608 0.950 . S
C618 C619 1.386 . S
C618 C620 1.391 . S
C619 C618 1.386 . S
C619 C623 1.393 . S
C620 H609 0.950 . S
C620 C618 1.391 . S
C620 C621 1.421 . S
C621 C615 1.454 1_545 S
C621 C620 1.421 . S
C621 C622 1.417 . S
C622 H610 0.950 . S
C622 C621 1.417 . S
C622 C623 1.391 . S
C623 H611 0.950 . S
C623 C619 1.393 . S
C623 C622 1.391 . S
H624 C632 0.950 . S
H625 C637 0.950 . S
H626 C634 0.950 . S
H627 C636 0.950 . S
H628 C638 0.950 . S
H629 C640 0.950 . S
H630 C642 0.950 . S
H631 C643 0.950 . S
C632 H624 0.950 . S
C632 C633 1.386 . S
C632 C634 1.391 . S
C633 C632 1.386 . S
C633 C637 1.393 . S
C634 H626 0.950 . S
C634 C632 1.391 . S
C634 C635 1.400 . S
C635 C634 1.400 . S
C635 C636 1.398 . S
C635 C641 1.491 . S
C636 H627 0.950 . S
C636 C635 1.398 . S
C636 C637 1.391 . S
C637 H625 0.950 . S
C637 C633 1.393 . S
C637 C636 1.391 . S
C638 H628 0.950 . S
C638 C639 1.386 . S
C638 C640 1.391 . S
C639 C638 1.386 . S
C639 C643 1.393 . S
C640 H629 0.950 . S
C640 C638 1.391 . S
C640 C641 1.400 . S
C641 C635 1.491 . S
C641 C640 1.400 . S
C641 C642 1.398 . S
C642 H630 0.950 . S
C642 C641 1.398 . S
C642 C643 1.391 . S
C643 H631 0.950 . S
C643 C639 1.393 . S
C643 C642 1.391 . S
H644 C652 0.950 . S
H645 C657 0.950 . S
H646 C654 0.950 . S
H647 C656 0.950 . S
H648 C658 0.950 . S
H649 C660 0.950 . S
H650 C662 0.950 . S
H651 C663 0.950 . S
C652 H644 0.950 . S
C652 C653 1.386 . S
C652 C654 1.391 . S
C653 C652 1.386 . S
C653 C657 1.393 . S
C654 H646 0.950 . S
C654 C652 1.391 . S
C654 C655 1.400 . S
C655 C654 1.400 . S
C655 C656 1.398 . S
C655 C661 1.491 . S
C656 H647 0.950 . S
C656 C655 1.398 . S
C656 C657 1.391 . S
C657 H645 0.950 . S
C657 C653 1.393 . S
C657 C656 1.391 . S
C658 H648 0.950 . S
C658 C659 1.386 . S
C658 C660 1.391 . S
C659 C658 1.386 . S
C659 C663 1.393 . S
C660 H649 0.950 . S
C660 C658 1.391 . S
C660 C661 1.400 . S
C661 C655 1.491 . S
C661 C660 1.400 . S
C661 C662 1.398 . S
C662 H650 0.950 . S
C662 C661 1.398 . S
C662 C663 1.391 . S
C663 H651 0.950 . S
C663 C659 1.393 . S
C663 C662 1.391 . S
H664 C672 0.950 . S
H665 C677 0.950 . S
H666 C674 0.950 . S
H667 C676 0.950 . S
H668 C678 0.950 . S
H669 C680 0.950 . S
H670 C682 0.950 . S
H671 C683 0.950 . S
C672 H664 0.950 . S
C672 C673 1.386 . S
C672 C674 1.391 . S
C673 C672 1.386 . S
C673 C677 1.393 . S
C674 H666 0.950 . S
C674 C672 1.391 . S
C674 C675 1.400 . S
C675 C674 1.400 . S
C675 C676 1.398 . S
C675 C681 1.491 . S
C676 H667 0.950 . S
C676 C675 1.398 . S
C676 C677 1.391 . S
C677 H665 0.950 . S
C677 C673 1.393 . S
C677 C676 1.391 . S
C678 H668 0.950 . S
C678 C679 1.386 . S
C678 C680 1.391 . S
C679 C678 1.386 . S
C679 C683 1.393 . S
C680 H669 0.950 . S
C680 C678 1.391 . S
C680 C681 1.400 . S
C681 C675 1.491 . S
C681 C680 1.400 . S
C681 C682 1.398 . S
C682 H670 0.950 . S
C682 C681 1.398 . S
C682 C683 1.391 . S
C683 H671 0.950 . S
C683 C679 1.393 . S
C683 C682 1.391 . S
H684 C692 0.950 . S
H685 C697 0.950 . S
H686 C694 0.950 . S
H687 C696 0.950 . S
H688 C698 0.950 . S
H689 C700 0.950 . S
H690 C702 0.950 . S
H691 C703 0.950 . S
C692 H684 0.950 . S
C692 C693 1.386 . S
C692 C694 1.391 . S
C693 C692 1.386 . S
C693 C697 1.393 . S
C694 H686 0.950 . S
C694 C692 1.391 . S
C694 C695 1.400 . S
C695 C694 1.400 . S
C695 C696 1.398 . S
C695 C701 1.491 . S
C696 H687 0.950 . S
C696 C695 1.398 . S
C696 C697 1.391 . S
C697 H685 0.950 . S
C697 C693 1.393 . S
C697 C696 1.391 . S
C698 H688 0.950 . S
C698 C699 1.386 . S
C698 C700 1.391 . S
C699 C698 1.386 . S
C699 C703 1.393 . S
C700 H689 0.950 . S
C700 C698 1.391 . S
C700 C701 1.400 . S
C701 C695 1.491 . S
C701 C700 1.400 . S
C701 C702 1.398 . S
C702 H690 0.950 . S
C702 C701 1.398 . S
C702 C703 1.391 . S
C703 H691 0.950 . S
C703 C699 1.393 . S
C703 C702 1.391 . S
H704 C712 0.950 . S
H705 C717 0.950 . S
H706 C714 0.950 . S
H707 C716 0.950 . S
H708 C718 0.950 . S
H709 C720 0.950 . S
H710 C722 0.950 . S
H711 C723 0.950 . S
C712 H704 0.950 . S
C712 C713 1.386 . S
C712 C714 1.391 . S
C713 C712 1.386 . S
C713 C717 1.393 . S
C714 H706 0.950 . S
C714 C712 1.391 . S
C714 C715 1.400 . S
C715 C714 1.400 . S
C715 C716 1.398 . S
C715 C721 1.491 . S
C716 H707 0.950 . S
C716 C715 1.398 . S
C716 C717 1.391 . S
C717 H705 0.950 . S
C717 C713 1.393 . S
C717 C716 1.391 . S
C718 H708 0.950 . S
C718 C719 1.386 . S
C718 C720 1.391 . S
C719 C718 1.386 . S
C719 C723 1.393 . S
C720 H709 0.950 . S
C720 C718 1.391 . S
C720 C721 1.400 . S
C721 C715 1.491 . S
C721 C720 1.400 . S
C721 C722 1.398 . S
C722 H710 0.950 . S
C722 C721 1.398 . S
C722 C723 1.391 . S
C723 H711 0.950 . S
C723 C719 1.393 . S
C723 C722 1.391 . S
H724 C732 0.950 . S
H725 C737 0.950 . S
H726 C734 0.950 . S
H727 C736 0.950 . S
H728 C738 0.950 . S
H729 C740 0.950 . S
H730 C742 0.950 . S
H731 C743 0.950 . S
C732 H724 0.950 . S
C732 C733 1.386 . S
C732 C734 1.391 . S
C733 C732 1.386 . S
C733 C737 1.393 . S
C734 H726 0.950 . S
C734 C732 1.391 . S
C734 C735 1.400 . S
C735 C734 1.400 . S
C735 C736 1.398 . S
C735 C741 1.491 . S
C736 H727 0.950 . S
C736 C735 1.398 . S
C736 C737 1.391 . S
C737 H725 0.950 . S
C737 C733 1.393 . S
C737 C736 1.391 . S
C738 H728 0.950 . S
C738 C739 1.386 . S
C738 C740 1.391 . S
C739 C738 1.386 . S
C739 C743 1.393 . S
C740 H729 0.950 . S
C740 C738 1.391 . S
C740 C741 1.400 . S
C741 C735 1.491 . S
C741 C740 1.400 . S
C741 C742 1.398 . S
C742 H730 0.950 . S
C742 C741 1.398 . S
C742 C743 1.391 . S
C743 H731 0.950 . S
C743 C739 1.393 . S
C743 C742 1.391 . S
H744 C752 0.950 . S
H745 C757 0.950 . S
H746 C754 0.950 . S
H747 C756 0.950 . S
H748 C758 0.950 . S
H749 C760 0.950 . S
H750 C762 0.950 . S
H751 C763 0.950 . S
C752 H744 0.950 . S
C752 C753 1.386 . S
C752 C754 1.391 . S
C753 C752 1.386 . S
C753 C757 1.393 . S
C754 H746 0.950 . S
C754 C752 1.391 . S
C754 C755 1.400 . S
C755 C754 1.400 . S
C755 C756 1.398 . S
C755 C761 1.491 . S
C756 H747 0.950 . S
C756 C755 1.398 . S
C756 C757 1.391 . S
C757 H745 0.950 . S
C757 C753 1.393 . S
C757 C756 1.391 . S
C758 H748 0.950 . S
C758 C759 1.386 . S
C758 C760 1.391 . S
C759 C758 1.386 . S
C759 C763 1.393 . S
C760 H749 0.950 . S
C760 C758 1.391 . S
C760 C761 1.400 . S
C761 C755 1.491 . S
C761 C760 1.400 . S
C761 C762 1.398 . S
C762 H750 0.950 . S
C762 C761 1.398 . S
C762 C763 1.391 . S
C763 H751 0.950 . S
C763 C759 1.393 . S
C763 C762 1.391 . S
H764 C772 0.950 . S
H765 C777 0.950 . S
H766 C774 0.950 . S
H767 C776 0.950 . S
H768 C778 0.950 . S
H769 C780 0.950 . S
H770 C782 0.950 . S
H771 C783 0.950 . S
C772 H764 0.950 . S
C772 C773 1.386 . S
C772 C774 1.391 . S
C773 C772 1.386 . S
C773 C777 1.393 . S
C774 H766 0.950 . S
C774 C772 1.391 . S
C774 C775 1.400 . S
C775 C774 1.400 . S
C775 C776 1.398 . S
C775 C781 1.491 . S
C776 H767 0.950 . S
C776 C775 1.398 . S
C776 C777 1.391 . S
C777 H765 0.950 . S
C777 C773 1.393 . S
C777 C776 1.391 . S
C778 H768 0.950 . S
C778 C779 1.386 . S
C778 C780 1.391 . S
C779 C778 1.386 . S
C779 C783 1.393 . S
C780 H769 0.950 . S
C780 C778 1.391 . S
C780 C781 1.400 . S
C781 C775 1.491 . S
C781 C780 1.400 . S
C781 C782 1.398 . S
C782 H770 0.950 . S
C782 C781 1.398 . S
C782 C783 1.391 . S
C783 H771 0.950 . S
C783 C779 1.393 . S
C783 C782 1.391 . S
H784 C792 0.950 . S
H785 C797 0.950 . S
H786 C794 0.950 . S
H787 C796 0.950 . S
H788 C798 0.950 . S
H789 C800 0.950 . S
H790 C802 0.950 . S
H791 C803 0.950 . S
C792 H784 0.950 . S
C792 C793 1.386 . S
C792 C794 1.391 . S
C793 C792 1.386 . S
C793 C797 1.393 . S
C794 H786 0.950 . S
C794 C792 1.391 . S
C794 C795 1.400 . S
C795 C794 1.400 . S
C795 C796 1.398 . S
C795 C801 1.491 . S
C796 H787 0.950 . S
C796 C795 1.398 . S
C796 C797 1.391 . S
C797 H785 0.950 . S
C797 C793 1.393 . S
C797 C796 1.391 . S
C798 H788 0.950 . S
C798 C799 1.386 . S
C798 C800 1.391 . S
C799 C798 1.386 . S
C799 C803 1.393 . S
C800 H789 0.950 . S
C800 C798 1.391 . S
C800 C801 1.400 . S
C801 C795 1.491 . S
C801 C800 1.400 . S
C801 C802 1.398 . S
C802 H790 0.950 . S
C802 C801 1.398 . S
C802 C803 1.391 . S
C803 H791 0.950 . S
C803 C799 1.393 . S
C803 C802 1.391 . S
H804 C812 0.950 . S
H805 C817 0.950 . S
H806 C814 0.950 . S
H807 C816 0.950 . S
H808 C818 0.950 . S
H809 C820 0.950 . S
H810 C822 0.950 . S
H811 C823 0.950 . S
C812 H804 0.950 . S
C812 C813 1.386 . S
C812 C814 1.391 . S
C813 C812 1.386 . S
C813 C817 1.393 . S
C814 H806 0.950 . S
C814 C812 1.391 . S
C814 C815 1.400 . S
C815 C814 1.400 . S
C815 C816 1.398 . S
C815 C821 1.491 . S
C816 H807 0.950 . S
C816 C815 1.398 . S
C816 C817 1.391 . S
C817 H805 0.950 . S
C817 C813 1.393 . S
C817 C816 1.391 . S
C818 H808 0.950 . S
C818 C819 1.386 . S
C818 C820 1.391 . S
C819 C818 1.386 . S
C819 C823 1.393 . S
C820 H809 0.950 . S
C820 C818 1.391 . S
C820 C821 1.400 . S
C821 C815 1.491 . S
C821 C820 1.400 . S
C821 C822 1.398 . S
C822 H810 0.950 . S
C822 C821 1.398 . S
C822 C823 1.391 . S
C823 H811 0.950 . S
C823 C819 1.393 . S
C823 C822 1.391 . S
H824 C832 0.950 . S
H825 C837 0.950 . S
H826 C834 0.950 . S
H827 C836 0.950 . S
H828 C838 0.950 . S
H829 C840 0.950 . S
H830 C842 0.950 . S
H831 C843 0.950 . S
C832 H824 0.950 . S
C832 C833 1.386 . S
C832 C834 1.391 . S
C833 C832 1.386 . S
C833 C837 1.393 . S
C834 H826 0.950 . S
C834 C832 1.391 . S
C834 C835 1.400 . S
C835 C834 1.400 . S
C835 C836 1.398 . S
C835 C841 1.491 . S
C836 H827 0.950 . S
C836 C835 1.398 . S
C836 C837 1.391 . S
C837 H825 0.950 . S
C837 C833 1.393 . S
C837 C836 1.391 . S
C838 H828 0.950 . S
C838 C839 1.386 . S
C838 C840 1.391 . S
C839 C838 1.386 . S
C839 C843 1.393 . S
C840 H829 0.950 . S
C840 C838 1.391 . S
C840 C841 1.400 . S
C841 C835 1.491 . S
C841 C840 1.400 . S
C841 C842 1.398 . S
C842 H830 0.950 . S
C842 C841 1.398 . S
C842 C843 1.391 . S
C843 H831 0.950 . S
C843 C839 1.393 . S
C843 C842 1.391 . S
H844 C852 0.950 . S
H845 C857 0.950 . S
H846 C854 0.950 . S
H847 C856 0.950 . S
H848 C858 0.950 . S
H849 C860 0.950 . S
H850 C862 0.950 . S
H851 C863 0.950 . S
C852 H844 0.950 . S
C852 C853 1.386 . S
C852 C854 1.391 . S
C853 C852 1.386 . S
C853 C857 1.393 . S
C854 H846 0.950 . S
C854 C852 1.391 . S
C854 C855 1.400 . S
C855 C854 1.400 . S
C855 C856 1.398 . S
C855 C861 1.491 . S
C856 H847 0.950 . S
C856 C855 1.398 . S
C856 C857 1.391 . S
C857 H845 0.950 . S
C857 C853 1.393 . S
C857 C856 1.391 . S
C858 H848 0.950 . S
C858 C859 1.386 . S
C858 C860 1.391 . S
C859 C858 1.386 . S
C859 C863 1.393 . S
C860 H849 0.950 . S
C860 C858 1.391 . S
C860 C861 1.400 . S
C861 C855 1.491 . S
C861 C860 1.400 . S
C861 C862 1.398 . S
C862 H850 0.950 . S
C862 C861 1.398 . S
C862 C863 1.391 . S
C863 H851 0.950 . S
C863 C859 1.393 . S
C863 C862 1.391 . S
C233 C221 0.980 . S
C239 C11 0.977 . S
C253 C179 0.977 . S
C259 C25 0.981 . S
C273 C39 0.982 . S
C279 C193 0.977 . S
C293 C207 0.979 . S
C299 C53 0.986 . S
C313 C137 0.979 . S
C319 C67 0.986 . S
C333 C81 0.977 . S
C339 C151 0.978 . S
C353 C95 0.989 . S
C359 C165 0.983 . S
C373 C109 0.987 . S
C379 C123 0.980 . S
C393 C83 1.254 . S
C399 C8 1.388 . S
C413 C92 1.376 . S
C419 C27 1.242 . S
C433 C111 1.249 . S
C439 C36 1.374 . S
C453 C55 1.218 . S
C459 C64 1.400 . S
C473 C7 1.359 . S
C479 C21 1.377 . S
C493 C41 1.227 . S
C499 C22 1.399 . S
C513 C35 1.359 . S
C519 C49 1.379 . S
C533 C13 1.238 . S
C539 C50 1.396 . S
C553 C105 1.377 . S
C559 C63 1.371 . S
C573 C69 1.248 . S
C579 C78 1.374 . S
C593 C77 1.359 . S
C599 C91 1.378 . S
C613 C106 1.397 . S
C619 C97 1.214 . S
C633 C195 1.247 . S
C639 C120 1.374 . S
C653 C139 1.257 . S
C659 C204 1.386 . S
C673 C223 1.257 . S
C679 C148 1.387 . S
C693 C176 1.375 . S
C699 C167 1.246 . S
C713 C119 1.361 . S
C719 C133 1.374 . S
C733 C134 1.381 . S
C739 C153 1.264 . S
C753 C161 1.364 . S
C759 C147 1.371 . S
C773 C125 1.221 . S
C779 C162 1.387 . S
C793 C217 1.374 . S
C799 C175 1.375 . S
C813 C181 1.260 . S
C819 C190 1.384 . S
C833 C189 1.373 . S
C839 C203 1.362 . S
C853 C218 1.380 . S
C859 C209 1.232 . S
