# Generated by pormake.
# Topology snk, (6)-cn, num edge types: 1
# Building blocks:
#     Node 0, Type 0, BuildingBlock: BETDAH_clean_sbu_0, # of connection points: 6
#     Node 1, Type 0, BuildingBlock: BETDAH_clean_sbu_0, # of connection points: 6
#     Node 2, Type 0, BuildingBlock: BETDAH_clean_sbu_0, # of connection points: 6
#     Node 3, Type 0, BuildingBlock: BETDAH_clean_sbu_0, # of connection points: 6
#     Node 4, Type 0, BuildingBlock: BETDAH_clean_sbu_0, # of connection points: 6
#     Node 5, Type 0, BuildingBlock: BETDAH_clean_sbu_0, # of connection points: 6
#     Node 6, Type 0, BuildingBlock: BETDAH_clean_sbu_0, # of connection points: 6
#     Node 7, Type 0, BuildingBlock: BETDAH_clean_sbu_0, # of connection points: 6
#     Edge 8, Type (0, 0), BuildingBlock: UVAHIK_clean_linker_0, # of connection points: 2
#     Edge 9, Type (0, 0), BuildingBlock: UVAHIK_clean_linker_0, # of connection points: 2
#     Edge 10, Type (0, 0), BuildingBlock: UVAHIK_clean_linker_0, # of connection points: 2
#     Edge 11, Type (0, 0), BuildingBlock: UVAHIK_clean_linker_0, # of connection points: 2
#     Edge 12, Type (0, 0), BuildingBlock: UVAHIK_clean_linker_0, # of connection points: 2
#     Edge 13, Type (0, 0), BuildingBlock: UVAHIK_clean_linker_0, # of connection points: 2
#     Edge 14, Type (0, 0), BuildingBlock: UVAHIK_clean_linker_0, # of connection points: 2
#     Edge 15, Type (0, 0), BuildingBlock: UVAHIK_clean_linker_0, # of connection points: 2
#     Edge 16, Type (0, 0), BuildingBlock: UVAHIK_clean_linker_0, # of connection points: 2
#     Edge 17, Type (0, 0), BuildingBlock: UVAHIK_clean_linker_0, # of connection points: 2
#     Edge 18, Type (0, 0), BuildingBlock: UVAHIK_clean_linker_0, # of connection points: 2
#     Edge 19, Type (0, 0), BuildingBlock: UVAHIK_clean_linker_0, # of connection points: 2
#     Edge 20, Type (0, 0), BuildingBlock: UVAHIK_clean_linker_0, # of connection points: 2
#     Edge 21, Type (0, 0), BuildingBlock: UVAHIK_clean_linker_0, # of connection points: 2
#     Edge 22, Type (0, 0), BuildingBlock: UVAHIK_clean_linker_0, # of connection points: 2
#     Edge 23, Type (0, 0), BuildingBlock: UVAHIK_clean_linker_0, # of connection points: 2
#     Edge 24, Type (0, 0), BuildingBlock: UVAHIK_clean_linker_0, # of connection points: 2
#     Edge 25, Type (0, 0), BuildingBlock: UVAHIK_clean_linker_0, # of connection points: 2
#     Edge 26, Type (0, 0), BuildingBlock: UVAHIK_clean_linker_0, # of connection points: 2
#     Edge 27, Type (0, 0), BuildingBlock: UVAHIK_clean_linker_0, # of connection points: 2
#     Edge 28, Type (0, 0), BuildingBlock: UVAHIK_clean_linker_0, # of connection points: 2
#     Edge 29, Type (0, 0), BuildingBlock: UVAHIK_clean_linker_0, # of connection points: 2
#     Edge 30, Type (0, 0), BuildingBlock: UVAHIK_clean_linker_0, # of connection points: 2
#     Edge 31, Type (0, 0), BuildingBlock: UVAHIK_clean_linker_0, # of connection points: 2
# Relax obj value: 0.075
# Max RMSD: 0.131
# Mean RMSD: 0.117
data_MOF--net-snk--node1-BETDAH_clean_sbu_0--edge1-UVAHIK_clean_linker_0
_symmetry_space_group_name_H-M    P1
_symmetry_Int_Tables_number       1
_symmetry_cell_setting            triclinic
loop_
_symmetry_equiv_pos_as_xyz
'x, y, z'
_cell_length_a     49.891276
_cell_length_b     49.87394
_cell_length_c     29.955391
_cell_angle_alpha  83.698656
_cell_angle_beta   96.286974
_cell_angle_gamma 89.153411
loop_
_atom_site_label
_atom_site_type_symbol
_atom_site_fract_x
_atom_site_fract_y
_atom_site_fract_z
_atom_type_partial_charge
Ho0 Ho 0.98679 0.9996 0.47028 0.0
Ho1 Ho 0.01601 0.00864 0.56544 0.0
C2 C 0.0377 0.03969 0.47873 0.0
C3 C 0.96128 0.00482 0.38952 0.0
C4 C 0.96765 0.00634 0.34249 0.0
C5 C 0.94766 0.01538 0.3073 0.0
C6 C 0.95275 0.01572 0.26225 0.0
C7 C 0.97797 0.00696 0.25148 0.0
C8 C 0.99818 0.9984 0.28705 0.0
C9 C 0.99306 0.9981 0.33217 0.0
C10 C 0.02823 0.96512 0.50265 0.0
C11 C 0.9648 0.96863 0.55705 0.0
C12 C 0.04157 0.00358 0.64608 0.0
C13 C 0.03515 1.0017 0.69311 0.0
C14 C 0.05525 0.9929 0.72827 0.0
C15 C 0.0501 0.99228 0.77333 0.0
C16 C 0.02471 1.00053 0.78416 0.0
C17 C 0.0044 0.00882 0.74861 0.0
C18 C 0.00958 0.00938 0.70348 0.0
C19 C 0.97483 0.04332 0.5325 0.0
O20 O 0.01475 0.034 0.45536 0.0
O21 O 0.04503 0.02801 0.52028 0.0
O22 O 0.96644 0.9816 0.41404 0.0
O23 O 0.96826 0.02531 0.4116 0.0
O24 O 0.00799 0.95877 0.4753 0.0
O25 O 0.02671 0.98972 0.5072 0.0
O26 O 0.98722 0.97509 0.58115 0.0
O27 O 0.958 0.9794 0.51482 0.0
O28 O 0.03597 0.02682 0.62178 0.0
O29 O 0.03507 0.98304 0.62379 0.0
O30 O 0.99533 0.04976 0.55927 0.0
O31 O 0.97618 0.01862 0.5285 0.0
H32 H 0.92798 0.02195 0.31466 0.0
H33 H 0.93689 0.02291 0.23583 0.0
H34 H 0.01774 0.99131 0.28007 0.0
H35 H 0.00876 0.99106 0.35898 0.0
H36 H 0.07506 0.98676 0.72088 0.0
H37 H 0.06605 0.98529 0.79971 0.0
H38 H 0.98471 0.01552 0.75562 0.0
H39 H 0.99378 0.01621 0.6767 0.0
Ho40 Ho 0.25452 0.73595 0.79688 0.0
Ho41 Ho 0.26287 0.76546 0.70184 0.0
C42 C 0.29464 0.78682 0.78808 0.0
C43 C 0.26 0.71048 0.87771 0.0
C44 C 0.26155 0.71716 0.92459 0.0
C45 C 0.27004 0.69722 0.9602 0.0
C46 C 0.27063 0.70276 1.00508 0.0
C47 C 0.26268 0.7284 0.01524 0.0
C48 C 0.25451 0.74848 0.97926 0.0
C49 C 0.254 0.74292 0.93433 0.0
C50 C 0.21993 0.77754 0.76564 0.0
C51 C 0.22241 0.71482 0.71083 0.0
C52 C 0.25779 0.79081 0.62093 0.0
C53 C 0.25624 0.78412 0.57406 0.0
C54 C 0.2479 0.8041 0.53843 0.0
C55 C 0.24734 0.79858 0.49356 0.0
C56 C 0.25518 0.7729 0.4834 0.0
C57 C 0.26322 0.75278 0.51938 0.0
C58 C 0.26369 0.75833 0.56432 0.0
C59 C 0.29738 0.72376 0.73353 0.0
O60 O 0.28926 0.76365 0.81114 0.0
O61 O 0.28248 0.79442 0.74694 0.0
O62 O 0.23673 0.71542 0.85325 0.0
O63 O 0.28039 0.71753 0.85543 0.0
O64 O 0.21372 0.75704 0.79259 0.0
O65 O 0.24448 0.77611 0.76066 0.0
O66 O 0.22796 0.73789 0.68761 0.0
O67 O 0.23462 0.70716 0.7519 0.0
O68 O 0.28098 0.78563 0.64553 0.0
O69 O 0.23727 0.78406 0.6431 0.0
O70 O 0.30383 0.74439 0.7071 0.0
O71 O 0.27278 0.72536 0.73796 0.0
H72 H 0.27589 0.6772 0.9533 0.0
H73 H 0.27672 0.68672 0.03183 0.0
H74 H 0.24861 0.76853 0.98582 0.0
H75 H 0.2475 0.75863 0.9072 0.0
H76 H 0.24213 0.82415 0.54532 0.0
H77 H 0.24136 0.81464 0.4668 0.0
H78 H 0.26905 0.73271 0.51282 0.0
H79 H 0.27009 0.74259 0.59145 0.0
Ho80 Ho 0.51493 0.99009 0.0609 0.0
Ho81 Ho 0.49021 0.0119 0.96486 0.0
C82 C 0.46302 0.03216 0.04689 0.0
C83 C 0.53729 0.98396 0.14366 0.0
C84 C 0.53038 0.98617 0.18968 0.0
C85 C 0.51357 0.00716 0.1992 0.0
C86 C 0.50821 0.00918 0.24364 0.0
C87 C 0.51949 0.99019 0.27924 0.0
C88 C 0.53604 0.96906 0.26932 0.0
C89 C 0.54142 0.9671 0.225 0.0
C90 C 0.47711 0.9592 0.02233 0.0
C91 C 0.5421 0.96978 0.97896 0.0
C92 C 0.46793 0.01807 0.88204 0.0
C93 C 0.47494 0.01585 0.83608 0.0
C94 C 0.49179 0.99486 0.82668 0.0
C95 C 0.49725 0.99283 0.7823 0.0
C96 C 0.48602 0.0118 0.74663 0.0
C97 C 0.46943 0.03293 0.75644 0.0
C98 C 0.46395 0.03489 0.80071 0.0
C99 C 0.52799 0.04281 1.00352 0.0
O100 O 0.48412 0.02131 0.07398 0.0
O101 O 0.45891 0.02799 1.00383 0.0
O102 O 0.52636 0.96428 0.12327 0.0
O103 O 0.53775 0.00641 0.11671 0.0
O104 O 0.49771 0.94957 0.04985 0.0
O105 O 0.47651 0.98457 0.01941 0.0
O106 O 0.52102 0.98065 0.95185 0.0
O107 O 0.54622 0.97395 0.022 0.0
O108 O 0.47883 0.03774 0.90249 0.0
O109 O 0.46743 0.99561 0.90897 0.0
O110 O 0.50738 0.05242 0.97601 0.0
O111 O 0.52861 0.01743 1.00628 0.0
H112 H 0.50477 0.02209 0.17243 0.0
H113 H 0.49515 0.02553 0.25009 0.0
H114 H 0.54536 0.95432 0.29597 0.0
H115 H 0.55452 0.95082 0.21834 0.0
H116 H 0.50055 0.97994 0.8535 0.0
H117 H 0.51034 0.97648 0.77594 0.0
H118 H 0.46015 0.04765 0.72973 0.0
H119 H 0.45082 0.05117 0.80727 0.0
Ho120 Ho 0.24093 0.26323 0.21383 0.0
Ho121 Ho 0.26236 0.23807 0.30993 0.0
C122 C 0.28339 0.21159 0.22781 0.0
C123 C 0.23538 0.28581 0.13122 0.0
C124 C 0.23765 0.27877 0.08525 0.0
C125 C 0.25947 0.26315 0.07541 0.0
C126 C 0.26148 0.2577 0.03102 0.0
C127 C 0.24165 0.26766 0.99577 0.0
C128 C 0.2197 0.28299 1.006 0.0
C129 C 0.21777 0.2885 0.05027 0.0
C130 C 0.21021 0.2248 0.25105 0.0
C131 C 0.21987 0.28971 0.2959 0.0
C132 C 0.26804 0.21555 0.39259 0.0
C133 C 0.2658 0.2226 0.43857 0.0
C134 C 0.244 0.23823 0.44843 0.0
C135 C 0.24199 0.24366 0.49284 0.0
C136 C 0.2618 0.23365 0.52808 0.0
C137 C 0.28374 0.21831 0.51783 0.0
C138 C 0.28567 0.21283 0.47354 0.0
C139 C 0.29297 0.27658 0.2725 0.0
O140 O 0.27255 0.23278 0.20093 0.0
O141 O 0.279 0.20715 0.27074 0.0
O142 O 0.21544 0.27525 0.15136 0.0
O143 O 0.25774 0.286 0.15847 0.0
O144 O 0.20053 0.24539 0.22354 0.0
O145 O 0.23558 0.2245 0.25457 0.0
O146 O 0.2307 0.26852 0.32283 0.0
O147 O 0.22433 0.29413 0.253 0.0
O148 O 0.28793 0.22616 0.37237 0.0
O149 O 0.24566 0.2153 0.36542 0.0
O150 O 0.30274 0.25599 0.29993 0.0
O151 O 0.26762 0.27677 0.26928 0.0
H152 H 0.27505 0.25535 0.10187 0.0
H153 H 0.27848 0.24559 0.02432 0.0
H154 H 0.20429 0.29126 0.9796 0.0
H155 H 0.20084 0.30066 0.05713 0.0
H156 H 0.22843 0.24608 0.42197 0.0
H157 H 0.225 0.25577 0.49956 0.0
H158 H 0.29914 0.21 0.54422 0.0
H159 H 0.30259 0.20065 0.46666 0.0
Ho160 Ho 0.74848 0.23775 0.30782 0.0
Ho161 Ho 0.75713 0.26698 0.21254 0.0
C162 C 0.78779 0.28952 0.29915 0.0
C163 C 0.75403 0.21243 0.38868 0.0
C164 C 0.7559 0.2192 0.43549 0.0
C165 C 0.7638 0.1991 0.47114 0.0
C166 C 0.76455 0.20473 0.51598 0.0
C167 C 0.75735 0.23061 0.52604 0.0
C168 C 0.74981 0.25085 0.49003 0.0
C169 C 0.74915 0.24521 0.44513 0.0
C170 C 0.7132 0.27837 0.27492 0.0
C171 C 0.71763 0.21549 0.22161 0.0
C172 C 0.75174 0.29215 0.1315 0.0
C173 C 0.74997 0.28543 0.08466 0.0
C174 C 0.74179 0.30548 0.04907 0.0
C175 C 0.74116 0.29996 1.0042 0.0
C176 C 0.74877 0.27422 0.99403 0.0
C177 C 0.7566 0.25402 0.02997 0.0
C178 C 0.75714 0.25956 0.07491 0.0
C179 C 0.79214 0.22599 0.24534 0.0
O180 O 0.78157 0.26701 0.32329 0.0
O181 O 0.77706 0.29615 0.25682 0.0
O182 O 0.7307 0.21763 0.3645 0.0
O183 O 0.7744 0.21915 0.36612 0.0
O184 O 0.70716 0.25779 0.30192 0.0
O185 O 0.73789 0.27752 0.27063 0.0
O186 O 0.72309 0.23845 0.19795 0.0
O187 O 0.72944 0.20838 0.26312 0.0
O188 O 0.77501 0.28694 0.15581 0.0
O189 O 0.73133 0.28545 0.15395 0.0
O190 O 0.79834 0.24643 0.21823 0.0
O191 O 0.7675 0.22725 0.24957 0.0
H192 H 0.76904 0.17891 0.4643 0.0
H193 H 0.77014 0.18859 0.54279 0.0
H194 H 0.74448 0.27107 0.49656 0.0
H195 H 0.74313 0.26103 0.41796 0.0
H196 H 0.73624 0.32558 0.056 0.0
H197 H 0.73535 0.31608 0.97747 0.0
H198 H 0.76223 0.23389 0.02338 0.0
H199 H 0.76341 0.24378 0.10203 0.0
Ho200 Ho 0.7416 0.763 0.71695 0.0
Ho201 Ho 0.76368 0.73762 0.8125 0.0
C202 C 0.78323 0.71069 0.72984 0.0
C203 C 0.73562 0.78562 0.63434 0.0
C204 C 0.73832 0.77886 0.5883 0.0
C205 C 0.76029 0.76339 0.57864 0.0
C206 C 0.76254 0.75804 0.53424 0.0
C207 C 0.7428 0.76795 0.49878 0.0
C208 C 0.72074 0.7832 0.50884 0.0
C209 C 0.71857 0.7886 0.55311 0.0
C210 C 0.71053 0.72536 0.75546 0.0
C211 C 0.72179 0.78977 0.7995 0.0
C212 C 0.77051 0.71551 0.89545 0.0
C213 C 0.76799 0.72241 0.94146 0.0
C214 C 0.74599 0.73779 0.95125 0.0
C215 C 0.74383 0.74316 0.99567 0.0
C216 C 0.76367 0.73334 0.03101 0.0
C217 C 0.78577 0.71821 0.02082 0.0
C218 C 0.78786 0.7128 0.97653 0.0
C219 C 0.79459 0.77505 0.7731 0.0
O220 O 0.77248 0.73204 0.70323 0.0
O221 O 0.77925 0.70632 0.77297 0.0
O222 O 0.71601 0.77422 0.65431 0.0
O223 O 0.75783 0.78659 0.66173 0.0
O224 O 0.70099 0.74619 0.72834 0.0
O225 O 0.73589 0.72446 0.75805 0.0
O226 O 0.73261 0.76848 0.8262 0.0
O227 O 0.72583 0.79412 0.75643 0.0
O228 O 0.78977 0.72714 0.87487 0.0
O229 O 0.74818 0.71413 0.86855 0.0
O230 O 0.80427 0.75397 0.7994 0.0
O231 O 0.7693 0.7761 0.77151 0.0
H232 H 0.77577 0.75557 0.60528 0.0
H233 H 0.77963 0.746 0.5277 0.0
H234 H 0.70539 0.79146 0.48233 0.0
H235 H 0.70151 0.80065 0.55982 0.0
H236 H 0.73042 0.7455 0.9247 0.0
H237 H 0.72671 0.75512 1.00229 0.0
H238 H 0.80121 0.71003 0.04725 0.0
H239 H 0.80494 0.70081 0.96972 0.0
Ho240 Ho 0.4861 0.49876 0.96814 0.0
Ho241 Ho 0.51576 0.50643 0.0634 0.0
C242 C 0.53752 0.53815 0.97763 0.0
C243 C 0.46076 0.5047 0.88723 0.0
C244 C 0.46742 0.50598 0.84037 0.0
C245 C 0.44768 0.515 0.80474 0.0
C246 C 0.45317 0.51536 0.75987 0.0
C247 C 0.47857 0.50668 0.74973 0.0
C248 C 0.49845 0.49798 0.78572 0.0
C249 C 0.49294 0.49769 0.83065 0.0
C250 C 0.52714 0.46346 0.99931 0.0
C251 C 0.46435 0.46702 0.05394 0.0
C252 C 0.541 0.50065 0.14436 0.0
C253 C 0.53421 0.49906 0.19118 0.0
C254 C 0.55393 0.4901 0.22687 0.0
C255 C 0.54832 0.48955 0.2717 0.0
C256 C 0.52282 0.498 0.28175 0.0
C257 C 0.50295 0.50662 0.2457 0.0
C258 C 0.50857 0.50709 0.20081 0.0
C259 C 0.47471 0.54174 0.03185 0.0
O260 O 0.51428 0.53316 0.9544 0.0
O261 O 0.54498 0.5257 0.0186 0.0
O262 O 0.46515 0.48136 0.91173 0.0
O263 O 0.46832 0.52495 0.90949 0.0
O264 O 0.50651 0.45759 0.97236 0.0
O265 O 0.52608 0.48801 1.00439 0.0
O266 O 0.48755 0.47206 0.07722 0.0
O267 O 0.45691 0.47943 0.01293 0.0
O268 O 0.53625 0.52398 0.12002 0.0
O269 O 0.53392 0.48034 0.1219 0.0
O270 O 0.49542 0.54772 0.05852 0.0
O271 O 0.47586 0.51714 0.02717 0.0
H272 H 0.42785 0.52143 0.81162 0.0
H273 H 0.43728 0.52188 0.73311 0.0
H274 H 0.51832 0.4915 0.77917 0.0
H275 H 0.5085 0.49078 0.85778 0.0
H276 H 0.57384 0.48388 0.22006 0.0
H277 H 0.5642 0.4831 0.29852 0.0
H278 H 0.48301 0.51292 0.25218 0.0
H279 H 0.49303 0.51395 0.17363 0.0
Ho280 Ho 0.01569 0.4921 0.5587 0.0
Ho281 Ho 0.98971 0.5128 0.4625 0.0
C282 C 0.96341 0.53395 0.54465 0.0
C283 C 0.03861 0.48771 0.64113 0.0
C284 C 0.03196 0.49153 0.68675 0.0
C285 C 0.05244 0.49863 0.71883 0.0
C286 C 0.04709 0.50138 0.76295 0.0
C287 C 0.02111 0.497 0.77594 0.0
C288 C 1.00048 0.49026 0.74342 0.0
C289 C 0.00583 0.48765 0.69912 0.0
C290 C 0.97792 0.46062 0.52185 0.0
C291 C 0.04194 0.47088 0.47665 0.0
C292 C 0.96651 0.51671 0.3803 0.0
C293 C 0.97305 0.51256 0.33475 0.0
C294 C 0.9525 0.50539 0.30288 0.0
C295 C 0.95773 0.50249 0.25875 0.0
C296 C 0.98368 0.50679 0.24556 0.0
C297 C 0.0044 0.51355 0.2779 0.0
C298 C 0.99916 0.51631 0.3222 0.0
C299 C 0.02789 0.5442 0.49881 0.0
O300 O 0.98469 0.52323 0.57147 0.0
O301 O 0.95898 0.52966 0.50168 0.0
O302 O 0.02721 0.46769 0.62223 0.0
O303 O 0.03924 0.50956 0.61285 0.0
O304 O 0.99893 0.45124 0.54866 0.0
O305 O 0.97706 0.48599 0.51861 0.0
O306 O 0.02057 0.48147 0.4499 0.0
O307 O 0.04654 0.47544 0.51949 0.0
O308 O 0.97803 0.53684 0.39871 0.0
O309 O 0.96584 0.49505 0.409 0.0
O310 O 0.00709 0.55359 0.47145 0.0
O311 O 0.02841 0.51881 0.50248 0.0
H312 H 0.07272 0.50172 0.70988 0.0
H313 H 0.0635 0.50629 0.78721 0.0
H314 H 0.98019 0.48709 0.75218 0.0
H315 H 0.98966 0.48239 0.67471 0.0
H316 H 0.93223 0.5024 0.31197 0.0
H317 H 0.94126 0.49756 0.23463 0.0
H318 H 0.02467 0.51666 0.26898 0.0
H319 H 0.01539 0.52163 0.34645 0.0
C320 C 0.04662 0.07591 0.41806 0.0
C321 C 0.05627 0.05825 0.4564 0.0
C322 C 0.06408 0.09316 0.39625 0.0
C323 C 0.1322 0.12273 0.41183 0.0
H324 H 0.1193 0.13913 0.28156 0.0
C325 C 0.2058 0.18256 0.30304 0.0
C326 C 0.19368 0.20436 0.27374 0.0
C327 C 0.1899 0.16383 0.32558 0.0
C328 C 0.12308 0.13476 0.31797 0.0
H329 H 0.09186 0.04469 0.50187 0.0
H330 H 0.12258 0.07411 0.46297 0.0
H331 H 0.09023 0.10788 0.32053 0.0
H332 H 0.15556 0.22334 0.24402 0.0
H333 H 0.12779 0.19024 0.28245 0.0
H334 H 0.16554 0.1493 0.40865 0.0
C335 C 0.10137 0.07522 0.45033 0.0
C336 C 0.10633 0.11699 0.34043 0.0
C337 C 0.08378 0.05823 0.47256 0.0
C338 C 0.16543 0.20675 0.2665 0.0
C339 C 0.14955 0.1878 0.28837 0.0
C340 C 0.14922 0.1402 0.3892 0.0
C341 C 0.09177 0.0929 0.41179 0.0
C342 C 0.11041 0.11099 0.38776 0.0
C343 C 0.16162 0.16628 0.31836 0.0
C344 C 0.14459 0.14662 0.34214 0.0
H345 H 0.02545 0.07662 0.40504 0.0
H346 H 0.05574 0.1069 0.36741 0.0
H347 H 0.1358 0.11896 0.44829 0.0
H348 H 0.22755 0.18002 0.30867 0.0
H349 H 0.19967 0.14726 0.34822 0.0
C350 C 0.04905 0.91893 0.5201 0.0
C351 C 0.04914 0.94629 0.52679 0.0
C352 C 0.06825 0.90092 0.54492 0.0
C353 C 0.13354 0.89865 0.61892 0.0
H354 H 0.11167 0.82618 0.65653 0.0
C355 C 0.20971 0.81773 0.70936 0.0
C356 C 0.20081 0.79805 0.74108 0.0
C357 C 0.19136 0.83601 0.68334 0.0
C358 C 0.11803 0.84646 0.64696 0.0
H359 H 0.06964 0.97665 0.56321 0.0
H360 H 0.10201 0.94521 0.60845 0.0
H361 H 0.0795 0.85763 0.61094 0.0
H362 H 0.16622 0.7827 0.77251 0.0
H363 H 0.13422 0.81564 0.72892 0.0
H364 H 0.17151 0.88807 0.6572 0.0
C365 C 0.08776 0.93751 0.58337 0.0
C366 C 0.09969 0.86438 0.61997 0.0
C367 C 0.06896 0.95554 0.55787 0.0
C368 C 0.17347 0.79759 0.74785 0.0
C369 C 0.15515 0.81627 0.72251 0.0
C370 C 0.15168 0.88093 0.64667 0.0
C371 C 0.0876 0.90993 0.57738 0.0
C372 C 0.10724 0.89069 0.60549 0.0
C373 C 0.16381 0.83546 0.68942 0.0
C374 C 0.14422 0.85456 0.66087 0.0
H375 H 0.03406 0.91141 0.49591 0.0
H376 H 0.06788 0.87996 0.53861 0.0
H377 H 0.14026 0.91859 0.6079 0.0
H378 H 0.23079 0.81867 0.70391 0.0
H379 H 0.1988 0.85015 0.6578 0.0
C380 C 0.31293 0.83297 0.79523 0.0
C381 C 0.3133 0.80529 0.81051 0.0
C382 C 0.32983 0.85047 0.8179 0.0
C383 C 0.37177 0.85445 0.92802 0.0
H384 H 0.40273 0.91544 0.86201 0.0
C385 C 0.46005 0.91435 1.00486 0.0
C386 C 0.45711 0.9426 0.99872 0.0
C387 C 0.44153 0.89842 0.98214 0.0
C388 C 0.39402 0.8986 0.88086 0.0
H389 H 0.33228 0.77411 0.86061 0.0
H390 H 0.36239 0.80425 0.89893 0.0
H391 H 0.37295 0.88577 0.82113 0.0
H392 H 0.43221 0.97636 0.96485 0.0
H393 H 0.4002 0.94842 0.92383 0.0
H394 H 0.3937 0.86688 0.9875 0.0
C395 C 0.34844 0.81278 0.8705 0.0
C396 C 0.37686 0.88162 0.85751 0.0
C397 C 0.33129 0.79539 0.84828 0.0
C398 C 0.43519 0.95464 0.96963 0.0
C399 C 0.41689 0.93869 0.94625 0.0
C400 C 0.38922 0.87117 0.95117 0.0
C401 C 0.34776 0.84063 0.856 0.0
C402 C 0.3656 0.8592 0.88076 0.0
C403 C 0.41988 0.91042 0.95238 0.0
C404 C 0.4006 0.89334 0.92783 0.0
H405 H 0.29915 0.84124 0.76637 0.0
H406 H 0.32841 0.87179 0.80601 0.0
H407 H 0.36302 0.83785 0.94735 0.0
H408 H 0.47675 0.90453 0.02713 0.0
H409 H 0.4444 0.87668 0.98725 0.0
C410 C 0.42396 0.0654 0.03642 0.0
C411 C 0.44331 0.04924 0.06549 0.0
C412 C 0.40602 0.08229 0.05378 0.0
C413 C 0.37479 0.09269 0.15664 0.0
H414 H 0.36379 0.16653 0.10102 0.0
C415 C 0.31657 0.17248 0.23769 0.0
C416 C 0.30055 0.19206 0.20895 0.0
C417 C 0.33341 0.15461 0.22002 0.0
C418 C 0.36624 0.14587 0.1166 0.0
H419 H 0.45854 0.03784 0.13577 0.0
H420 H 0.42711 0.0672 0.166 0.0
H421 H 0.3938 0.13603 0.07043 0.0
H422 H 0.28924 0.20777 0.13888 0.0
H423 H 0.318 0.17628 0.10802 0.0
H424 H 0.34699 0.10232 0.20244 0.0
C425 C 0.42586 0.06677 0.12976 0.0
C426 C 0.38355 0.12841 0.09908 0.0
C427 C 0.44398 0.05007 0.11239 0.0
C428 C 0.30148 0.19311 0.16206 0.0
C429 C 0.31814 0.1751 0.14435 0.0
C430 C 0.35728 0.11009 0.17394 0.0
C431 C 0.40681 0.08324 0.10063 0.0
C432 C 0.38809 0.10164 0.11898 0.0
C433 C 0.3345 0.15571 0.17309 0.0
C434 C 0.35283 0.13697 0.15426 0.0
H435 H 0.42288 0.06531 1.00013 0.0
H436 H 0.3914 0.09453 0.03049 0.0
H437 H 0.37762 0.07208 0.17238 0.0
H438 H 0.3165 0.17121 0.27401 0.0
H439 H 0.34598 0.14029 0.24332 0.0
C440 C 0.94869 0.94396 0.62605 0.0
C441 C 0.94627 0.94975 0.57881 0.0
C442 C 0.93145 0.92585 0.64664 0.0
C443 C 0.9041 0.8754 0.68099 0.0
H444 H 0.82973 0.86995 0.63043 0.0
C445 C 0.83835 0.78928 0.74674 0.0
C446 C 0.81103 0.79507 0.74939 0.0
C447 C 0.85425 0.80823 0.72492 0.0
C448 C 0.85035 0.87138 0.64535 0.0
H449 H 0.92393 0.94102 0.51605 0.0
H450 H 0.89446 0.90876 0.55177 0.0
H451 H 0.85805 0.9037 0.5957 0.0
H452 H 0.7787 0.82504 0.7313 0.0
H453 H 0.80662 0.85864 0.69442 0.0
H454 H 0.89618 0.84392 0.73172 0.0
C455 C 0.90917 0.91871 0.57313 0.0
C456 C 0.86676 0.89051 0.62498 0.0
C457 C 0.92619 0.93711 0.55258 0.0
C458 C 0.79975 0.82009 0.7296 0.0
C459 C 0.81574 0.83924 0.70822 0.0
C460 C 0.88764 0.85651 0.70163 0.0
C461 C 0.91161 0.91277 0.62046 0.0
C462 C 0.8939 0.89271 0.64243 0.0
C463 C 0.84326 0.8336 0.70578 0.0
C464 C 0.86059 0.8541 0.68396 0.0
H465 H 0.96378 0.95357 0.64728 0.0
H466 H 0.93361 0.92228 0.68318 0.0
H467 H 0.92497 0.87615 0.6951 0.0
H468 H 0.84746 0.76999 0.76134 0.0
H469 H 0.87514 0.80286 0.72285 0.0
C470 C 0.95691 0.09024 0.50919 0.0
C471 C 0.95514 0.06247 0.50581 0.0
C472 C 0.93929 0.10849 0.48126 0.0
C473 C 0.8852 0.13616 0.43508 0.0
H474 H 0.88506 0.13558 0.30548 0.0
C475 C 0.80214 0.18608 0.30226 0.0
C476 C 0.81137 0.20622 0.27161 0.0
C477 C 0.82044 0.1688 0.33048 0.0
C478 C 0.88505 0.13592 0.34159 0.0
H479 H 0.93308 0.03175 0.47246 0.0
H480 H 0.90295 0.06382 0.42238 0.0
H481 H 0.91557 0.10459 0.35769 0.0
H482 H 0.84664 0.22329 0.24425 0.0
H483 H 0.87881 0.19211 0.29278 0.0
H484 H 0.85403 0.16684 0.41899 0.0
C485 C 0.91793 0.07137 0.44656 0.0
C486 C 0.9023 0.11825 0.37125 0.0
C487 C 0.93511 0.05313 0.47511 0.0
C488 C 0.8391 0.20797 0.26788 0.0
C489 C 0.85742 0.19026 0.29549 0.0
C490 C 0.86754 0.15341 0.40542 0.0
C491 C 0.92007 0.09914 0.44924 0.0
C492 C 0.90241 0.11827 0.41812 0.0
C493 C 0.84817 0.17097 0.32753 0.0
C494 C 0.86736 0.15333 0.35856 0.0
H495 H 0.97215 0.09787 0.53282 0.0
H496 H 0.94113 0.12991 0.48377 0.0
H497 H 0.88502 0.13635 0.47118 0.0
H498 H 0.7808 0.18403 0.30516 0.0
H499 H 0.81297 0.15377 0.35469 0.0
C500 C 0.69867 0.16944 0.21701 0.0
C501 C 0.69871 0.19689 0.20016 0.0
C502 C 0.68073 0.15194 0.19654 0.0
C503 C 0.61521 0.1507 0.13001 0.0
H504 H 0.64079 0.08362 0.09315 0.0
C505 C 0.54548 0.08769 0.01943 0.0
C506 C 0.54825 0.05947 0.02636 0.0
C507 C 0.5642 0.10378 0.04133 0.0
C508 C 0.63317 0.10203 0.10388 0.0
H509 H 0.67984 0.22755 0.14893 0.0
H510 H 0.64816 0.19708 0.11389 0.0
H511 H 0.67266 0.11275 0.13106 0.0
H512 H 0.57306 0.02585 0.06082 0.0
H513 H 0.60515 0.05382 0.10089 0.0
H514 H 0.57571 0.13994 0.10427 0.0
C515 C 0.66214 0.18912 0.14269 0.0
C516 C 0.6515 0.11875 0.12541 0.0
C517 C 0.68037 0.2065 0.16262 0.0
C518 C 0.57027 0.04758 0.05531 0.0
C519 C 0.58883 0.06367 0.07784 0.0
C520 C 0.59683 0.13382 0.10918 0.0
C521 C 0.66218 0.16168 0.1594 0.0
C522 C 0.64271 0.14338 0.13819 0.0
C523 C 0.586 0.09203 0.07126 0.0
C524 C 0.60557 0.1094 0.09526 0.0
H525 H 0.71263 0.16141 0.24579 0.0
H526 H 0.68106 0.13089 0.21017 0.0
H527 H 0.60786 0.16941 0.14015 0.0
H528 H 0.52882 0.09742 0.99693 0.0
H529 H 0.56163 0.12548 0.03438 0.0
C530 C 0.68906 0.8292 0.78952 0.0
C531 C 0.70476 0.80939 0.8184 0.0
C532 C 0.67218 0.84708 0.80697 0.0
C533 C 0.66103 0.87738 0.91028 0.0
H534 H 0.58785 0.8898 0.8524 0.0
C535 C 0.58091 0.93626 0.98949 0.0
C536 C 0.56179 0.95266 0.9604 0.0
C537 C 0.59883 0.91933 0.97215 0.0
C538 C 0.60833 0.88695 0.86862 0.0
H539 H 0.71531 0.79325 0.88849 0.0
H540 H 0.68594 0.82464 0.91892 0.0
H541 H 0.61833 0.85957 0.82229 0.0
H542 H 0.54703 0.96459 0.89011 0.0
H543 H 0.57864 0.93565 0.85984 0.0
H544 H 0.65125 0.90502 0.95624 0.0
C545 C 0.68675 0.82628 0.88274 0.0
C546 C 0.62578 0.86951 0.8514 0.0
C547 C 0.70346 0.80819 0.86525 0.0
C548 C 0.56131 0.95204 0.91353 0.0
C549 C 0.57938 0.93529 0.89616 0.0
C550 C 0.64365 0.89503 0.9273 0.0
C551 C 0.67074 0.84578 0.85375 0.0
C552 C 0.65231 0.86448 0.87206 0.0
C553 C 0.59827 0.91852 0.92524 0.0
C554 C 0.61701 0.90002 0.90677 0.0
H555 H 0.68951 0.83071 0.75327 0.0
H556 H 0.66032 0.86207 0.7838 0.0
H557 H 0.68146 0.87415 0.92663 0.0
H558 H 0.58173 0.93607 0.0258 0.0
H559 H 0.61275 0.90644 0.99569 0.0
C560 C 0.58369 0.55648 0.97162 0.0
C561 C 0.5561 0.55694 0.95585 0.0
C562 C 0.60126 0.57381 0.95 0.0
C563 C 0.60586 0.61768 0.84203 0.0
H564 H 0.66574 0.64819 0.91151 0.0
C565 C 0.66561 0.70785 0.77135 0.0
C566 C 0.69385 0.70503 0.77803 0.0
C567 C 0.6496 0.68884 0.7928 0.0
C568 C 0.64921 0.63962 0.8917 0.0
H569 H 0.52513 0.57639 0.90585 0.0
H570 H 0.5554 0.60721 0.86932 0.0
H571 H 0.63598 0.61732 0.95002 0.0
H572 H 0.72754 0.67994 0.81167 0.0
H573 H 0.69945 0.64706 0.85047 0.0
H574 H 0.61868 0.64084 0.78399 0.0
C575 C 0.56381 0.59291 0.89735 0.0
C576 C 0.63219 0.62183 0.91367 0.0
C577 C 0.54636 0.57534 0.91852 0.0
C578 C 0.70582 0.6828 0.80648 0.0
C579 C 0.68979 0.66401 0.82859 0.0
C580 C 0.62262 0.63575 0.82024 0.0
C581 C 0.59156 0.59225 0.91249 0.0
C582 C 0.61018 0.61072 0.88915 0.0
C583 C 0.66153 0.66683 0.82181 0.0
C584 C 0.64438 0.64697 0.84487 0.0
H585 H 0.59184 0.54239 1.00015 0.0
H586 H 0.62252 0.57238 0.96229 0.0
H587 H 0.58958 0.60908 0.82176 0.0
H588 H 0.65585 0.72478 0.74955 0.0
H589 H 0.62786 0.69158 0.78725 0.0
C590 C 0.66606 0.29605 0.25348 0.0
C591 C 0.69368 0.29798 0.24892 0.0
C592 C 0.64743 0.31375 0.22657 0.0
C593 C 0.61889 0.36779 0.18317 0.0
H594 H 0.61791 0.37053 0.05291 0.0
C595 C 0.56699 0.45267 0.05607 0.0
C596 C 0.547 0.44393 0.02462 0.0
C597 C 0.58449 0.43402 0.0831 0.0
C598 C 0.618 0.36982 0.08921 0.0
H599 H 0.72374 0.32035 0.21436 0.0
H600 H 0.69099 0.35065 0.16605 0.0
H601 H 0.64962 0.33948 0.10269 0.0
H602 H 0.53033 0.40925 0.99485 0.0
H603 H 0.56189 0.37652 0.04131 0.0
H604 H 0.58791 0.39877 0.16973 0.0
C605 C 0.68385 0.33547 0.19037 0.0
C606 C 0.63609 0.35226 0.11751 0.0
C607 C 0.70249 0.31819 0.21791 0.0
C608 C 0.54553 0.4164 0.01908 0.0
C609 C 0.56347 0.39776 0.04552 0.0
C610 C 0.60122 0.38575 0.1549 0.0
C611 C 0.65622 0.33324 0.19435 0.0
C612 C 0.63665 0.35121 0.16462 0.0
C613 C 0.5827 0.40646 0.07821 0.0
C614 C 0.60073 0.38689 0.1078 0.0
H615 H 0.65884 0.28067 0.27736 0.0
H616 H 0.62614 0.31182 0.23009 0.0
H617 H 0.61915 0.36727 0.21947 0.0
H618 H 0.56878 0.47386 0.06042 0.0
H619 H 0.59945 0.4411 0.10783 0.0
C620 C 0.96428 0.41656 0.49573 0.0
C621 C 0.95825 0.4439 0.49789 0.0
C622 C 0.94581 0.40054 0.47306 0.0
C623 C 0.89816 0.3669 0.44687 0.0
H624 H 0.85239 0.39657 0.33936 0.0
C625 C 0.81173 0.30588 0.36847 0.0
C626 C 0.80634 0.30826 0.32115 0.0
C627 C 0.82962 0.32313 0.38946 0.0
C628 C 0.86519 0.38783 0.36906 0.0
H629 H 0.92827 0.47608 0.47826 0.0
H630 H 0.89551 0.44798 0.43992 0.0
H631 H 0.8855 0.42492 0.37562 0.0
H632 H 0.81552 0.33065 0.25873 0.0
H633 H 0.84745 0.36021 0.29521 0.0
H634 H 0.87879 0.32953 0.4393 0.0
C635 C 0.91475 0.43893 0.4547 0.0
C636 C 0.88396 0.40426 0.39032 0.0
C637 C 0.93342 0.45502 0.47694 0.0
C638 C 0.81913 0.32841 0.29528 0.0
C639 C 0.83734 0.34546 0.31628 0.0
C640 C 0.87965 0.35043 0.42536 0.0
C641 C 0.92067 0.41142 0.45255 0.0
C642 C 0.90068 0.39402 0.42959 0.0
C643 C 0.84293 0.34298 0.36369 0.0
C644 C 0.8628 0.36066 0.38626 0.0
H645 H 0.98343 0.40756 0.51122 0.0
H646 H 0.95141 0.37966 0.47133 0.0
H647 H 0.91033 0.35833 0.47739 0.0
H648 H 0.80197 0.29076 0.38946 0.0
H649 H 0.83285 0.32095 0.42603 0.0
C650 C 0.81649 0.67168 0.73892 0.0
C651 C 0.80009 0.69112 0.71053 0.0
C652 C 0.83332 0.65401 0.7208 0.0
C653 C 0.8654 0.64596 0.61638 0.0
H654 H 0.87868 0.5724 0.67226 0.0
C655 C 0.92384 0.56655 0.535 0.0
C656 C 0.94374 0.55086 0.56366 0.0
C657 C 0.90579 0.58312 0.55276 0.0
C658 C 0.8753 0.59295 0.65648 0.0
H659 H 0.78802 0.7067 0.64062 0.0
H660 H 0.81672 0.67552 0.609 0.0
H661 H 0.84772 0.60198 0.703 0.0
H662 H 0.95995 0.54003 0.63369 0.0
H663 H 0.92826 0.5688 0.66462 0.0
H664 H 0.89273 0.6367 0.56948 0.0
C665 C 0.81719 0.67433 0.64538 0.0
C666 C 0.85761 0.60997 0.67417 0.0
C667 C 0.80056 0.69215 0.66353 0.0
C668 C 0.94491 0.55187 0.61059 0.0
C669 C 0.92666 0.56824 0.62838 0.0
C670 C 0.88287 0.62886 0.59847 0.0
C671 C 0.83401 0.65516 0.67377 0.0
C672 C 0.85247 0.63677 0.65447 0.0
C673 C 0.90702 0.5842 0.59964 0.0
C674 C 0.88811 0.6022 0.6184 0.0
H675 H 0.81679 0.67044 0.7753 0.0
H676 H 0.84624 0.63986 0.74384 0.0
H677 H 0.86243 0.66657 0.60076 0.0
H678 H 0.92237 0.5663 0.4987 0.0
H679 H 0.89072 0.59498 0.52979 0.0
C680 C 0.29707 0.31931 0.22159 0.0
C681 C 0.30935 0.2974 0.25044 0.0
C682 C 0.31285 0.33855 0.19994 0.0
C683 C 0.37925 0.36853 0.21001 0.0
H684 H 0.36692 0.38652 0.08005 0.0
C685 C 0.45549 0.42998 0.11331 0.0
C686 C 0.44581 0.44814 0.07562 0.0
C687 C 0.43809 0.41224 0.13425 0.0
C688 C 0.3704 0.38213 0.11645 0.0
H689 H 0.34759 0.27868 0.28014 0.0
H690 H 0.37512 0.31265 0.24322 0.0
H691 H 0.33742 0.35504 0.11788 0.0
H692 H 0.4102 0.46209 0.03046 0.0
H693 H 0.3796 0.43178 0.06787 0.0
H694 H 0.41174 0.39589 0.20918 0.0
C695 C 0.35335 0.3148 0.23702 0.0
C696 C 0.35353 0.364 0.13803 0.0
C697 C 0.33761 0.29535 0.25801 0.0
C698 C 0.41831 0.4482 0.05929 0.0
C699 C 0.40079 0.43069 0.08065 0.0
C700 C 0.39586 0.38693 0.18859 0.0
C701 C 0.34114 0.3365 0.20759 0.0
C702 C 0.35802 0.35679 0.18493 0.0
C703 C 0.41045 0.41247 0.11847 0.0
C704 C 0.39191 0.39373 0.14142 0.0
H705 H 0.27531 0.32156 0.21569 0.0
H706 H 0.30296 0.35524 0.17771 0.0
H707 H 0.38291 0.36356 0.24632 0.0
H708 H 0.47664 0.42924 0.12644 0.0
H709 H 0.44647 0.39813 0.16256 0.0
C710 C 0.43561 0.55232 0.97352 0.0
C711 C 0.45568 0.56131 1.00456 0.0
C712 C 0.41929 0.57084 0.94401 0.0
C713 C 0.38824 0.63627 0.92913 0.0
H714 H 0.39044 0.63419 0.80031 0.0
C715 C 0.34434 0.70625 0.75831 0.0
C716 C 0.3165 0.70425 0.76077 0.0
C717 C 0.36247 0.68899 0.78722 0.0
C718 C 0.3898 0.63498 0.83618 0.0
H719 H 0.47351 0.59643 0.03128 0.0
H720 H 0.44394 0.62903 0.98049 0.0
H721 H 0.41988 0.60339 0.85469 0.0
H722 H 0.28558 0.68206 0.79339 0.0
H723 H 0.31738 0.65259 0.84507 0.0
H724 H 0.35739 0.6671 0.91061 0.0
C725 C 0.44146 0.60764 0.97847 0.0
C726 C 0.40645 0.61743 0.86709 0.0
C727 C 0.45824 0.58908 1.0074 0.0
C728 C 0.30699 0.68427 0.7914 0.0
C729 C 0.32509 0.66746 0.82088 0.0
C730 C 0.37117 0.6534 0.89822 0.0
C731 C 0.42232 0.59858 0.94602 0.0
C732 C 0.40565 0.61792 0.91368 0.0
C733 C 0.35291 0.66992 0.81927 0.0
C734 C 0.3718 0.65275 0.85162 0.0
H735 H 0.43297 0.53098 0.97123 0.0
H736 H 0.40435 0.56353 0.91951 0.0
H737 H 0.38734 0.63681 0.965 0.0
H738 H 0.35209 0.72146 0.73475 0.0
H739 H 0.38394 0.69103 0.78551 0.0
C740 C 0.18477 0.70672 0.65189 0.0
C741 C 0.20303 0.69667 0.68922 0.0
C742 C 0.16636 0.6897 0.63141 0.0
C743 C 0.13501 0.62253 0.65057 0.0
H744 H 0.11449 0.63521 0.5212 0.0
C745 C 0.07108 0.54892 0.54813 0.0
C746 C 0.04877 0.56092 0.51994 0.0
C747 C 0.09042 0.56493 0.56894 0.0
C748 C 0.11998 0.63152 0.55739 0.0
H749 H 0.21657 0.66078 0.73402 0.0
H750 H 0.1852 0.63087 0.69736 0.0
H751 H 0.14765 0.66379 0.55702 0.0
H752 H 0.0295 0.59896 0.49046 0.0
H753 H 0.06368 0.62693 0.5259 0.0
H754 H 0.1077 0.58971 0.65031 0.0
C755 C 0.18446 0.65206 0.68458 0.0
C756 C 0.13887 0.64799 0.57806 0.0
C757 C 0.2026 0.66919 0.7055 0.0
C758 C 0.04646 0.58918 0.51212 0.0
C759 C 0.06603 0.60517 0.53227 0.0
C760 C 0.11642 0.60579 0.62972 0.0
C761 C 0.16602 0.66208 0.64727 0.0
C762 C 0.14648 0.64392 0.62505 0.0
C763 C 0.0881 0.59322 0.56111 0.0
C764 C 0.10855 0.61029 0.58301 0.0
H765 H 0.18441 0.72786 0.63879 0.0
H766 H 0.15216 0.69838 0.60347 0.0
H767 H 0.13994 0.61898 0.68687 0.0
H768 H 0.07358 0.52717 0.55415 0.0
H769 H 0.1074 0.55522 0.59067 0.0
C770 C 0.18675 0.32884 0.28555 0.0
C771 C 0.20269 0.3093 0.31456 0.0
C772 C 0.16994 0.34684 0.30293 0.0
C773 C 0.15985 0.37814 0.40569 0.0
H774 H 0.08611 0.38989 0.35011 0.0
C775 C 0.08095 0.43761 0.48651 0.0
C776 C 0.06137 0.45364 0.45778 0.0
C777 C 0.09862 0.42056 0.46887 0.0
C778 C 0.10675 0.38724 0.36567 0.0
H779 H 0.21374 0.2937 0.38479 0.0
H780 H 0.18454 0.32529 0.41509 0.0
H781 H 0.11622 0.35944 0.31963 0.0
H782 H 0.04545 0.46474 0.38774 0.0
H783 H 0.0767 0.43568 0.35691 0.0
H784 H 0.15064 0.40622 0.45129 0.0
C785 C 0.18508 0.32664 0.37886 0.0
C786 C 0.12399 0.36967 0.34823 0.0
C787 C 0.20169 0.30843 0.36145 0.0
C788 C 0.06015 0.45253 0.41091 0.0
C789 C 0.078 0.43568 0.39323 0.0
C790 C 0.1427 0.39593 0.42288 0.0
C791 C 0.16888 0.34593 0.34977 0.0
C792 C 0.1507 0.36485 0.36812 0.0
C793 C 0.09736 0.41928 0.42197 0.0
C794 C 0.11586 0.40067 0.40321 0.0
H795 H 0.18698 0.33008 0.24927 0.0
H796 H 0.1579 0.36165 0.27969 0.0
H797 H 0.18044 0.37509 0.4214 0.0
H798 H 0.08233 0.4378 0.52281 0.0
H799 H 0.11291 0.40796 0.49219 0.0
C800 C 0.03984 0.00944 0.86402 0.0
C801 C 0.01972 1.00099 0.83229 0.0
C802 C 0.03529 0.00994 0.90917 0.0
C803 C 0.98075 0.01179 0.98325 0.0
H804 H 0.03777 0.98802 0.07863 0.0
C805 C 0.96268 0.99797 0.17173 0.0
C806 C 0.98292 0.0063 0.20338 0.0
C807 C 0.96718 0.99731 0.12659 0.0
C808 C 0.02173 0.99504 0.05243 0.0
H809 H 0.97904 0.98617 0.82364 0.0
H810 H 0.97108 0.98712 0.90241 0.0
H811 H 0.04544 0.98673 0.99988 0.0
H812 H 0.02375 0.02071 0.21195 0.0
H813 H 0.03162 0.01954 0.1332 0.0
H814 H 0.95705 0.02014 0.03578 0.0
C815 C 0.9903 0.99368 0.89216 0.0
C816 C 0.02613 0.99428 1.00722 0.0
C817 C 0.99486 0.99314 0.84695 0.0
C818 C 0.00784 0.01385 0.18868 0.0
C819 C 0.01235 0.01318 0.14348 0.0
C820 C 0.97636 0.01257 0.02846 0.0
C821 C 0.01048 0.00205 0.92387 0.0
C822 C 0.0057 0.00266 0.97204 0.0
C823 C 0.99206 0.00492 0.11183 0.0
C824 C 0.99679 0.0042 0.06365 0.0
H825 H 0.05904 0.01613 0.85384 0.0
H826 H 0.05112 0.01695 0.93245 0.0
H827 H 0.96471 0.0188 0.95704 0.0
H828 H 0.94342 0.99153 0.18196 0.0
H829 H 0.95126 0.99039 0.10338 0.0
C830 C 0.27683 0.75242 0.42247 0.0
C831 C 0.25546 0.76741 0.43548 0.0
C832 C 0.27759 0.7481 0.37721 0.0
C833 C 0.23448 0.74883 0.26794 0.0
H834 H 0.30259 0.75442 0.21691 0.0
C835 C 0.24103 0.74885 0.07621 0.0
C836 C 0.26242 0.7339 0.06317 0.0
C837 C 0.2403 0.75317 0.12146 0.0
C838 C 0.28345 0.75249 0.23071 0.0
H839 H 0.21779 0.78909 0.41095 0.0
H840 H 0.2193 0.7819 0.33205 0.0
H841 H 0.30091 0.76095 0.29605 0.0
H842 H 0.30015 0.71232 0.08764 0.0
H843 H 0.29868 0.71951 0.16654 0.0
H844 H 0.21702 0.74037 0.20262 0.0
C845 C 0.23542 0.77332 0.35688 0.0
C846 C 0.28249 0.75622 0.27617 0.0
C847 C 0.2347 0.77769 0.40211 0.0
C848 C 0.28323 0.72368 0.09651 0.0
C849 C 0.28252 0.72806 0.14173 0.0
C850 C 0.23544 0.7451 0.2225 0.0
C851 C 0.25695 0.7586 0.34378 0.0
C852 C 0.25799 0.75443 0.2954 0.0
C853 C 0.26097 0.74273 0.15487 0.0
C854 C 0.25994 0.74689 0.20326 0.0
H855 H 0.29329 0.74442 0.44715 0.0
H856 H 0.29432 0.73641 0.36846 0.0
H857 H 0.21534 0.7469 0.28175 0.0
H858 H 0.22454 0.7568 0.05156 0.0
H859 H 0.22355 0.76484 0.13023 0.0
C860 C 0.49555 0.03239 0.6698 0.0
C861 C 0.49099 0.00934 0.69918 0.0
C862 C 0.4989 0.0303 0.62459 0.0
C863 C 0.51547 0.98163 0.54628 0.0
H864 H 0.48004 0.03535 0.45448 0.0
C865 C 0.51011 0.96958 0.35615 0.0
C866 C 0.51463 0.99263 0.32675 0.0
C867 C 0.50683 0.97167 0.40139 0.0
C868 C 0.4903 0.02034 0.47971 0.0
H869 H 0.48647 0.96598 0.70401 0.0
H870 H 0.49232 0.96231 0.62511 0.0
H871 H 0.47582 0.03882 0.53397 0.0
H872 H 0.51915 0.036 0.32191 0.0
H873 H 0.51342 0.03966 0.40086 0.0
H874 H 0.52995 0.96315 0.49202 0.0
C875 C 0.49365 0.98198 0.63719 0.0
C876 C 0.4879 0.02234 0.5253 0.0
C877 C 0.49031 0.98408 0.68245 0.0
C878 C 0.51534 0.0179 0.3435 0.0
C879 C 0.51207 0.01999 0.38877 0.0
C880 C 0.51787 0.97963 0.50069 0.0
C881 C 0.49776 0.0051 0.60763 0.0
C882 C 0.50046 0.00301 0.55915 0.0
C883 C 0.50799 0.99687 0.41835 0.0
C884 C 0.5053 0.99896 0.46684 0.0
H885 H 0.49663 0.0521 0.6818 0.0
H886 H 0.50254 0.04843 0.60296 0.0
H887 H 0.52572 0.96662 0.57151 0.0
H888 H 0.50901 0.94988 0.34414 0.0
H889 H 0.50321 0.95353 0.42303 0.0
C890 C 0.22121 0.25647 0.91983 0.0
C891 C 0.24404 0.26271 0.94829 0.0
C892 C 0.22316 0.25308 0.8746 0.0
C893 C 0.2721 0.23954 0.79485 0.0
H894 H 0.2155 0.27071 0.70411 0.0
C895 C 0.28224 0.24476 0.60406 0.0
C896 C 0.25941 0.23856 0.57558 0.0
C897 C 0.28028 0.24812 0.64931 0.0
C898 C 0.23133 0.26164 0.72904 0.0
H899 H 0.28687 0.2702 0.95145 0.0
H900 H 0.29029 0.26431 0.87249 0.0
H901 H 0.21236 0.27505 0.78365 0.0
H902 H 0.21658 0.23108 0.57237 0.0
H903 H 0.21314 0.23691 0.65136 0.0
H904 H 0.29107 0.22612 0.74025 0.0
C905 C 0.27093 0.26168 0.88532 0.0
C906 C 0.22953 0.2641 0.77467 0.0
C907 C 0.26897 0.26504 0.93061 0.0
C908 C 0.23447 0.23621 0.59324 0.0
C909 C 0.23252 0.23954 0.63854 0.0
C910 C 0.2739 0.23707 0.74923 0.0
C911 C 0.248 0.25586 0.85667 0.0
C912 C 0.24988 0.25308 0.80814 0.0
C913 C 0.25544 0.24533 0.66722 0.0
C914 C 0.25355 0.2481 0.71575 0.0
H915 H 0.20179 0.2541 0.9326 0.0
H916 H 0.20521 0.2481 0.85371 0.0
H917 H 0.28794 0.23047 0.81979 0.0
H918 H 0.30166 0.24713 0.59131 0.0
H919 H 0.29823 0.25308 0.67022 0.0
C920 C 0.72852 0.27929 0.91264 0.0
C921 C 0.7491 0.26877 0.94612 0.0
C922 C 0.72935 0.27503 0.86741 0.0
C923 C 0.77663 0.25778 0.78717 0.0
H924 H 0.71124 0.24284 0.71258 0.0
C925 C 0.77761 0.22552 0.60741 0.0
C926 C 0.75709 0.23616 0.5739 0.0
C927 C 0.77682 0.22986 0.65262 0.0
C928 C 0.72965 0.24732 0.73277 0.0
H929 H 0.78674 0.24544 0.95802 0.0
H930 H 0.78794 0.23759 0.87931 0.0
H931 H 0.70931 0.24909 0.79177 0.0
H932 H 0.71965 0.25979 0.56189 0.0
H933 H 0.7185 0.26772 0.64059 0.0
H934 H 0.79698 0.25597 0.72817 0.0
C935 C 0.77127 0.24941 0.88798 0.0
C936 C 0.72854 0.25088 0.77823 0.0
C937 C 0.7704 0.25362 0.93324 0.0
C938 C 0.73592 0.25151 0.58671 0.0
C939 C 0.73509 0.25578 0.63196 0.0
C940 C 0.77774 0.2542 0.74171 0.0
C941 C 0.75082 0.26017 0.85442 0.0
C942 C 0.75202 0.25617 0.80605 0.0
C943 C 0.75545 0.2449 0.66555 0.0
C944 C 0.75426 0.24892 0.7139 0.0
H945 H 0.71166 0.29081 0.9214 0.0
H946 H 0.71337 0.28382 0.84247 0.0
H947 H 0.79504 0.26227 0.80734 0.0
H948 H 0.79436 0.21384 0.59869 0.0
H949 H 0.79274 0.22099 0.6776 0.0
C950 C 0.7703 0.76518 0.43377 0.0
C951 C 0.74531 0.76296 0.4513 0.0
C952 C 0.77234 0.76179 0.38849 0.0
C953 C 0.73106 0.7641 0.27754 0.0
H954 H 0.79273 0.72617 0.24347 0.0
C955 C 0.73624 0.73598 0.09614 0.0
C956 C 0.7612 0.73829 0.07854 0.0
C957 C 0.73422 0.73936 0.14143 0.0
C958 C 0.77552 0.73711 0.25233 0.0
H959 H 0.70305 0.75447 0.4353 0.0
H960 H 0.70662 0.74841 0.3565 0.0
H961 H 0.78951 0.73067 0.32293 0.0
H962 H 0.80344 0.74687 0.09445 0.0
H963 H 0.79991 0.75287 0.17329 0.0
H964 H 0.71706 0.77053 0.20694 0.0
C965 C 0.72456 0.75335 0.37747 0.0
C966 C 0.77367 0.73967 0.29794 0.0
C967 C 0.72252 0.75678 0.42268 0.0
C968 C 0.784 0.7445 0.10712 0.0
C969 C 0.78198 0.7479 0.15235 0.0
C970 C 0.7329 0.76154 0.23193 0.0
C971 C 0.74944 0.75603 0.35967 0.0
C972 C 0.75141 0.75319 0.31113 0.0
C973 C 0.75712 0.74516 0.1702 0.0
C974 C 0.75517 0.74801 0.21874 0.0
H975 H 0.78817 0.77028 0.45472 0.0
H976 H 0.79175 0.76433 0.3758 0.0
H977 H 0.71385 0.77504 0.28639 0.0
H978 H 0.71836 0.73085 0.07524 0.0
H979 H 0.71483 0.73677 0.15417 0.0
C980 C 0.49832 0.48441 0.68874 0.0
C981 C 0.48399 0.50622 0.70181 0.0
C982 C 0.5026 0.48353 0.64349 0.0
C983 C 0.5031 0.52665 0.53445 0.0
H984 H 0.49564 0.45874 0.48305 0.0
C985 C 0.50285 0.5201 0.34269 0.0
C986 C 0.5173 0.49836 0.32964 0.0
C987 C 0.49853 0.52093 0.38793 0.0
C988 C 0.49809 0.47782 0.49696 0.0
H989 H 0.46346 0.54451 0.67739 0.0
H990 H 0.47055 0.54279 0.59851 0.0
H991 H 0.48914 0.4606 0.56217 0.0
H992 H 0.53797 0.46014 0.35403 0.0
H993 H 0.53077 0.46177 0.43291 0.0
H994 H 0.51204 0.54387 0.46924 0.0
C995 C 0.47865 0.52642 0.62329 0.0
C996 C 0.49439 0.47888 0.5424 0.0
C997 C 0.47433 0.52727 0.66851 0.0
C998 C 0.52701 0.47732 0.36292 0.0
C999 C 0.52262 0.47812 0.40813 0.0
C1000 C 0.5068 0.52559 0.48901 0.0
C1001 C 0.49272 0.50446 0.61012 0.0
C1002 C 0.49684 0.50331 0.56176 0.0
C1003 C 0.50847 0.50001 0.42129 0.0
C1004 C 0.50434 0.50116 0.46965 0.0
H1005 H 0.50583 0.46772 0.71336 0.0
H1006 H 0.51378 0.46646 0.63471 0.0
H1007 H 0.50556 0.54572 0.54835 0.0
H1008 H 0.49531 0.53678 0.31808 0.0
H1009 H 0.48727 0.53795 0.39672 0.0
C1010 C 1.00044 0.47938 0.84594 0.0
C1011 C 0.01589 0.49881 0.82352 0.0
C1012 C 0.99672 0.48029 0.89139 0.0
C1013 C 1.00032 0.52585 0.9815 0.0
H1014 H 0.0059 0.45905 0.06189 0.0
C1015 C 0.00418 0.52436 0.17538 0.0
C1016 C 0.98876 0.50495 0.19792 0.0
C1017 C 0.00779 0.52342 0.12989 0.0
C1018 C 0.004 0.47786 0.03982 0.0
H1019 H 0.03891 0.5349 0.83105 0.0
H1020 H 0.03268 0.53634 0.91037 0.0
H1021 H 0.0108 0.45811 0.98195 0.0
H1022 H 0.96567 0.46889 0.19056 0.0
H1023 H 0.97172 0.46741 0.11116 0.0
H1024 H 0.99353 0.5456 0.03938 0.0
C1025 C 0.02332 0.52044 0.8928 0.0
C1026 C 0.00677 0.47731 0.99395 0.0
C1027 C 0.02712 0.51946 0.84743 0.0
C1028 C 0.97744 0.48431 0.17409 0.0
C1029 C 0.98113 0.48331 0.12868 0.0
C1030 C 0.99755 0.52639 0.02737 0.0
C1031 C 0.00826 0.50074 0.91547 0.0
C1032 C 0.00497 0.5013 0.96421 0.0
C1033 C 0.99617 0.50299 0.10588 0.0
C1034 C 0.99936 0.5024 0.05712 0.0
H1035 H 0.99171 0.46307 0.82865 0.0
H1036 H 0.98475 0.46498 0.90765 0.0
H1037 H 0.99842 0.54465 0.95945 0.0
H1038 H 0.01298 0.54066 0.1926 0.0
H1039 H 0.01975 0.53871 0.11354 0.0
loop_
_geom_bond_atom_site_label_1
_geom_bond_atom_site_label_2
_geom_bond_distance
_geom_bond_site_symmetry_2
_ccdc_geom_bond_type
Ho0 C3 2.811 1_655 S
Ho0 O20 2.322 1_665 S
Ho0 O22 2.378 1_655 S
Ho0 O23 2.524 1_565 S
Ho0 O24 2.381 1_655 S
Ho0 O25 2.669 1_655 S
Ho0 O27 2.346 . S
Ho0 O31 2.305 1_565 S
Ho1 C12 2.811 1_455 S
Ho1 O21 2.346 . S
Ho1 O25 2.305 1_545 S
Ho1 O26 2.322 1_445 S
Ho1 O28 2.378 1_455 S
Ho1 O29 2.524 1_545 S
Ho1 O30 2.381 1_455 S
Ho1 O31 2.669 1_455 S
C2 O20 1.259 . S
C2 O21 1.268 . S
C3 Ho0 2.811 1_455 S
C3 C4 1.488 . S
C3 O22 1.215 . S
C3 O23 1.289 1_465 S
C4 C3 1.488 . S
C4 C5 1.348 1_565 S
C4 C9 1.413 . S
C5 C4 1.348 1_545 S
C5 C6 1.442 . S
C5 H32 0.930 1_455 S
C6 C5 1.442 . S
C6 C7 1.381 . S
C6 H33 0.931 . S
C7 C6 1.381 . S
C7 C8 1.321 1_545 S
C8 C7 1.321 1_565 S
C8 C9 1.403 . S
C8 H34 0.934 . S
C9 C4 1.413 . S
C9 C8 1.403 . S
C9 H35 0.930 . S
C10 O24 1.275 . S
C10 O25 1.256 . S
C11 O26 1.259 . S
C11 O27 1.268 . S
C12 Ho1 2.811 1_655 S
C12 C13 1.488 . S
C12 O28 1.215 . S
C12 O29 1.289 1_645 S
C13 C12 1.488 . S
C13 C14 1.348 1_545 S
C13 C18 1.413 . S
C14 C13 1.348 1_565 S
C14 C15 1.442 . S
C14 H36 0.930 1_655 S
C15 C14 1.442 . S
C15 C16 1.381 . S
C15 H37 0.931 . S
C16 C15 1.381 . S
C16 C17 1.321 1_565 S
C17 C16 1.321 1_545 S
C17 C18 1.403 . S
C17 H38 0.934 . S
C18 C13 1.413 . S
C18 C17 1.403 . S
C18 H39 0.930 . S
C19 O30 1.275 . S
C19 O31 1.256 . S
O20 Ho0 2.322 1_445 S
O20 C2 1.259 . S
O21 Ho1 2.346 . S
O21 C2 1.268 . S
O22 Ho0 2.378 1_455 S
O22 C3 1.215 . S
O23 Ho0 2.524 1_545 S
O23 C3 1.289 1_645 S
O24 Ho0 2.381 1_455 S
O24 C10 1.275 . S
O25 Ho0 2.669 1_455 S
O25 Ho1 2.305 1_565 S
O25 C10 1.256 . S
O26 Ho1 2.322 1_665 S
O26 C11 1.259 . S
O27 Ho0 2.346 . S
O27 C11 1.268 . S
O28 Ho1 2.378 1_655 S
O28 C12 1.215 . S
O29 Ho1 2.524 1_565 S
O29 C12 1.289 1_465 S
O30 Ho1 2.381 1_655 S
O30 C19 1.275 . S
O31 Ho0 2.305 1_545 S
O31 Ho1 2.669 1_655 S
O31 C19 1.256 . S
H32 C5 0.930 1_655 S
H33 C6 0.931 . S
H34 C8 0.934 . S
H35 C9 0.930 . S
H36 C14 0.930 1_455 S
H37 C15 0.931 . S
H38 C17 0.934 . S
H39 C18 0.930 . S
Ho40 C43 2.811 . S
Ho40 O60 2.322 . S
Ho40 O62 2.378 . S
Ho40 O63 2.524 . S
Ho40 O64 2.381 . S
Ho40 O65 2.669 . S
Ho40 O67 2.346 . S
Ho40 O71 2.305 . S
Ho41 C52 2.811 . S
Ho41 O61 2.346 . S
Ho41 O65 2.305 . S
Ho41 O66 2.322 . S
Ho41 O68 2.378 . S
Ho41 O69 2.524 . S
Ho41 O70 2.381 . S
Ho41 O71 2.669 . S
C42 O60 1.259 . S
C42 O61 1.268 . S
C43 Ho40 2.811 . S
C43 C44 1.488 . S
C43 O62 1.215 . S
C43 O63 1.289 . S
C44 C43 1.488 . S
C44 C45 1.348 . S
C44 C49 1.413 . S
C45 C44 1.348 . S
C45 C46 1.442 1_556 S
C45 H72 0.930 . S
C46 C45 1.442 1_554 S
C46 C47 1.381 . S
C46 H73 0.931 . S
C47 C46 1.381 . S
C47 C48 1.321 1_554 S
C48 C47 1.321 1_556 S
C48 C49 1.403 . S
C48 H74 0.934 1_556 S
C49 C44 1.413 . S
C49 C48 1.403 . S
C49 H75 0.930 . S
C50 O64 1.275 . S
C50 O65 1.256 . S
C51 O66 1.259 . S
C51 O67 1.268 . S
C52 Ho41 2.811 . S
C52 C53 1.488 . S
C52 O68 1.215 . S
C52 O69 1.289 . S
C53 C52 1.488 . S
C53 C54 1.348 . S
C53 C58 1.413 . S
C54 C53 1.348 . S
C54 C55 1.442 . S
C54 H76 0.930 . S
C55 C54 1.442 . S
C55 C56 1.381 . S
C55 H77 0.931 . S
C56 C55 1.381 . S
C56 C57 1.321 . S
C57 C56 1.321 . S
C57 C58 1.403 . S
C57 H78 0.934 . S
C58 C53 1.413 . S
C58 C57 1.403 . S
C58 H79 0.930 . S
C59 O70 1.275 . S
C59 O71 1.256 . S
O60 Ho40 2.322 . S
O60 C42 1.259 . S
O61 Ho41 2.346 . S
O61 C42 1.268 . S
O62 Ho40 2.378 . S
O62 C43 1.215 . S
O63 Ho40 2.524 . S
O63 C43 1.289 . S
O64 Ho40 2.381 . S
O64 C50 1.275 . S
O65 Ho40 2.669 . S
O65 Ho41 2.305 . S
O65 C50 1.256 . S
O66 Ho41 2.322 . S
O66 C51 1.259 . S
O67 Ho40 2.346 . S
O67 C51 1.268 . S
O68 Ho41 2.378 . S
O68 C52 1.215 . S
O69 Ho41 2.524 . S
O69 C52 1.289 . S
O70 Ho41 2.381 . S
O70 C59 1.275 . S
O71 Ho40 2.305 . S
O71 Ho41 2.669 . S
O71 C59 1.256 . S
H72 C45 0.930 . S
H73 C46 0.931 . S
H74 C48 0.934 1_554 S
H75 C49 0.930 . S
H76 C54 0.930 . S
H77 C55 0.931 . S
H78 C57 0.934 . S
H79 C58 0.930 . S
Ho80 C83 2.811 . S
Ho80 O100 2.322 1_565 S
Ho80 O102 2.378 . S
Ho80 O103 2.498 1_565 S
Ho80 O104 2.381 . S
Ho80 O105 2.669 1_554 S
Ho80 O107 2.346 . S
Ho80 O111 2.305 1_565 S
Ho81 C92 2.811 . S
Ho81 O101 2.346 . S
Ho81 O105 2.305 1_545 S
Ho81 O106 2.322 1_545 S
Ho81 O108 2.378 . S
Ho81 O109 2.504 1_545 S
Ho81 O110 2.381 . S
Ho81 O111 2.669 1_556 S
C82 O100 1.259 . S
C82 O101 1.268 1_554 S
C83 Ho80 2.811 . S
C83 C84 1.488 . S
C83 O102 1.215 . S
C83 O103 1.261 1_565 S
C84 C83 1.488 . S
C84 C85 1.348 1_565 S
C84 C89 1.413 . S
C85 C84 1.348 1_545 S
C85 C86 1.442 . S
C85 H112 0.930 . S
C86 C85 1.442 . S
C86 C87 1.381 1_545 S
C86 H113 0.931 . S
C87 C86 1.381 1_565 S
C87 C88 1.321 . S
C88 C87 1.321 . S
C88 C89 1.403 . S
C88 H114 0.934 . S
C89 C84 1.413 . S
C89 C88 1.403 . S
C89 H115 0.930 . S
C90 O104 1.275 1_556 S
C90 O105 1.256 . S
C91 O106 1.259 . S
C91 O107 1.268 1_556 S
C92 Ho81 2.811 . S
C92 C93 1.488 . S
C92 O108 1.215 . S
C92 O109 1.267 1_545 S
C93 C92 1.488 . S
C93 C94 1.348 1_545 S
C93 C98 1.413 . S
C94 C93 1.348 1_565 S
C94 C95 1.442 . S
C94 H116 0.930 . S
C95 C94 1.442 . S
C95 C96 1.381 1_565 S
C95 H117 0.931 . S
C96 C95 1.381 1_545 S
C96 C97 1.321 . S
C97 C96 1.321 . S
C97 C98 1.403 . S
C97 H118 0.934 . S
C98 C93 1.413 . S
C98 C97 1.403 . S
C98 H119 0.930 . S
C99 O110 1.275 1_554 S
C99 O111 1.256 . S
O100 Ho80 2.322 1_545 S
O100 C82 1.259 . S
O101 Ho81 2.346 . S
O101 C82 1.268 1_556 S
O102 Ho80 2.378 . S
O102 C83 1.215 . S
O103 Ho80 2.498 1_545 S
O103 C83 1.261 1_545 S
O104 Ho80 2.381 . S
O104 C90 1.275 1_554 S
O105 Ho80 2.669 1_556 S
O105 Ho81 2.305 1_565 S
O105 C90 1.256 . S
O106 Ho81 2.322 1_565 S
O106 C91 1.259 . S
O107 Ho80 2.346 . S
O107 C91 1.268 1_554 S
O108 Ho81 2.378 . S
O108 C92 1.215 . S
O109 Ho81 2.504 1_565 S
O109 C92 1.267 1_565 S
O110 Ho81 2.381 . S
O110 C99 1.275 1_556 S
O111 Ho80 2.305 1_545 S
O111 Ho81 2.669 1_554 S
O111 C99 1.256 . S
H112 C85 0.930 . S
H113 C86 0.931 . S
H114 C88 0.934 . S
H115 C89 0.930 . S
H116 C94 0.930 . S
H117 C95 0.931 . S
H118 C97 0.934 . S
H119 C98 0.930 . S
Ho120 C123 2.811 . S
Ho120 O140 2.322 . S
Ho120 O142 2.378 . S
Ho120 O143 2.524 . S
Ho120 O144 2.381 . S
Ho120 O145 2.669 . S
Ho120 O147 2.346 . S
Ho120 O151 2.305 . S
Ho121 C132 2.811 . S
Ho121 O141 2.346 . S
Ho121 O145 2.305 . S
Ho121 O146 2.322 . S
Ho121 O148 2.378 . S
Ho121 O149 2.524 . S
Ho121 O150 2.381 . S
Ho121 O151 2.669 . S
C122 O140 1.259 . S
C122 O141 1.268 . S
C123 Ho120 2.811 . S
C123 C124 1.488 . S
C123 O142 1.215 . S
C123 O143 1.289 . S
C124 C123 1.488 . S
C124 C125 1.348 . S
C124 C129 1.413 . S
C125 C124 1.348 . S
C125 C126 1.442 1_554 S
C125 H152 0.930 . S
C126 C125 1.442 1_556 S
C126 C127 1.381 . S
C126 H153 0.931 . S
C127 C126 1.381 . S
C127 C128 1.321 . S
C128 C127 1.321 . S
C128 C129 1.403 1_556 S
C128 H154 0.934 . S
C129 C124 1.413 . S
C129 C128 1.403 1_554 S
C129 H155 0.930 . S
C130 O144 1.275 . S
C130 O145 1.256 . S
C131 O146 1.259 . S
C131 O147 1.268 . S
C132 Ho121 2.811 . S
C132 C133 1.488 . S
C132 O148 1.215 . S
C132 O149 1.289 . S
C133 C132 1.488 . S
C133 C134 1.348 . S
C133 C138 1.413 . S
C134 C133 1.348 . S
C134 C135 1.442 . S
C134 H156 0.930 . S
C135 C134 1.442 . S
C135 C136 1.381 . S
C135 H157 0.931 . S
C136 C135 1.381 . S
C136 C137 1.321 . S
C137 C136 1.321 . S
C137 C138 1.403 . S
C137 H158 0.934 . S
C138 C133 1.413 . S
C138 C137 1.403 . S
C138 H159 0.930 . S
C139 O150 1.275 . S
C139 O151 1.256 . S
O140 Ho120 2.322 . S
O140 C122 1.259 . S
O141 Ho121 2.346 . S
O141 C122 1.268 . S
O142 Ho120 2.378 . S
O142 C123 1.215 . S
O143 Ho120 2.524 . S
O143 C123 1.289 . S
O144 Ho120 2.381 . S
O144 C130 1.275 . S
O145 Ho120 2.669 . S
O145 Ho121 2.305 . S
O145 C130 1.256 . S
O146 Ho121 2.322 . S
O146 C131 1.259 . S
O147 Ho120 2.346 . S
O147 C131 1.268 . S
O148 Ho121 2.378 . S
O148 C132 1.215 . S
O149 Ho121 2.524 . S
O149 C132 1.289 . S
O150 Ho121 2.381 . S
O150 C139 1.275 . S
O151 Ho120 2.305 . S
O151 Ho121 2.669 . S
O151 C139 1.256 . S
H152 C125 0.930 . S
H153 C126 0.931 . S
H154 C128 0.934 . S
H155 C129 0.930 . S
H156 C134 0.930 . S
H157 C135 0.931 . S
H158 C137 0.934 . S
H159 C138 0.930 . S
Ho160 C163 2.811 . S
Ho160 O180 2.322 . S
Ho160 O182 2.378 . S
Ho160 O183 2.524 . S
Ho160 O184 2.381 . S
Ho160 O185 2.669 . S
Ho160 O187 2.346 . S
Ho160 O191 2.305 . S
Ho161 C172 2.811 . S
Ho161 O181 2.346 . S
Ho161 O185 2.305 . S
Ho161 O186 2.322 . S
Ho161 O188 2.378 . S
Ho161 O189 2.524 . S
Ho161 O190 2.381 . S
Ho161 O191 2.669 . S
C162 O180 1.259 . S
C162 O181 1.268 . S
C163 Ho160 2.811 . S
C163 C164 1.488 . S
C163 O182 1.215 . S
C163 O183 1.289 . S
C164 C163 1.488 . S
C164 C165 1.348 . S
C164 C169 1.413 . S
C165 C164 1.348 . S
C165 C166 1.442 . S
C165 H192 0.930 . S
C166 C165 1.442 . S
C166 C167 1.381 . S
C166 H193 0.931 . S
C167 C166 1.381 . S
C167 C168 1.321 . S
C168 C167 1.321 . S
C168 C169 1.403 . S
C168 H194 0.934 . S
C169 C164 1.413 . S
C169 C168 1.403 . S
C169 H195 0.930 . S
C170 O184 1.275 . S
C170 O185 1.256 . S
C171 O186 1.259 . S
C171 O187 1.268 . S
C172 Ho161 2.811 . S
C172 C173 1.488 . S
C172 O188 1.215 . S
C172 O189 1.289 . S
C173 C172 1.488 . S
C173 C174 1.348 . S
C173 C178 1.413 . S
C174 C173 1.348 . S
C174 C175 1.442 1_554 S
C174 H196 0.930 . S
C175 C174 1.442 1_556 S
C175 C176 1.381 . S
C175 H197 0.931 . S
C176 C175 1.381 . S
C176 C177 1.321 1_556 S
C177 C176 1.321 1_554 S
C177 C178 1.403 . S
C177 H198 0.934 1_554 S
C178 C173 1.413 . S
C178 C177 1.403 . S
C178 H199 0.930 . S
C179 O190 1.275 . S
C179 O191 1.256 . S
O180 Ho160 2.322 . S
O180 C162 1.259 . S
O181 Ho161 2.346 . S
O181 C162 1.268 . S
O182 Ho160 2.378 . S
O182 C163 1.215 . S
O183 Ho160 2.524 . S
O183 C163 1.289 . S
O184 Ho160 2.381 . S
O184 C170 1.275 . S
O185 Ho160 2.669 . S
O185 Ho161 2.305 . S
O185 C170 1.256 . S
O186 Ho161 2.322 . S
O186 C171 1.259 . S
O187 Ho160 2.346 . S
O187 C171 1.268 . S
O188 Ho161 2.378 . S
O188 C172 1.215 . S
O189 Ho161 2.524 . S
O189 C172 1.289 . S
O190 Ho161 2.381 . S
O190 C179 1.275 . S
O191 Ho160 2.305 . S
O191 Ho161 2.669 . S
O191 C179 1.256 . S
H192 C165 0.930 . S
H193 C166 0.931 . S
H194 C168 0.934 . S
H195 C169 0.930 . S
H196 C174 0.930 . S
H197 C175 0.931 . S
H198 C177 0.934 1_556 S
H199 C178 0.930 . S
Ho200 C203 2.811 . S
Ho200 O220 2.322 . S
Ho200 O222 2.378 . S
Ho200 O223 2.524 . S
Ho200 O224 2.381 . S
Ho200 O225 2.669 . S
Ho200 O227 2.346 . S
Ho200 O231 2.305 . S
Ho201 C212 2.811 . S
Ho201 O221 2.346 . S
Ho201 O225 2.305 . S
Ho201 O226 2.322 . S
Ho201 O228 2.378 . S
Ho201 O229 2.524 . S
Ho201 O230 2.381 . S
Ho201 O231 2.669 . S
C202 O220 1.259 . S
C202 O221 1.268 . S
C203 Ho200 2.811 . S
C203 C204 1.488 . S
C203 O222 1.215 . S
C203 O223 1.289 . S
C204 C203 1.488 . S
C204 C205 1.348 . S
C204 C209 1.413 . S
C205 C204 1.348 . S
C205 C206 1.442 . S
C205 H232 0.930 . S
C206 C205 1.442 . S
C206 C207 1.381 . S
C206 H233 0.931 . S
C207 C206 1.381 . S
C207 C208 1.321 . S
C208 C207 1.321 . S
C208 C209 1.403 . S
C208 H234 0.934 . S
C209 C204 1.413 . S
C209 C208 1.403 . S
C209 H235 0.930 . S
C210 O224 1.275 . S
C210 O225 1.256 . S
C211 O226 1.259 . S
C211 O227 1.268 . S
C212 Ho201 2.811 . S
C212 C213 1.488 . S
C212 O228 1.215 . S
C212 O229 1.289 . S
C213 C212 1.488 . S
C213 C214 1.348 . S
C213 C218 1.413 . S
C214 C213 1.348 . S
C214 C215 1.442 1_556 S
C214 H236 0.930 . S
C215 C214 1.442 1_554 S
C215 C216 1.381 . S
C215 H237 0.931 . S
C216 C215 1.381 . S
C216 C217 1.321 . S
C217 C216 1.321 . S
C217 C218 1.403 1_554 S
C217 H238 0.934 . S
C218 C213 1.413 . S
C218 C217 1.403 1_556 S
C218 H239 0.930 . S
C219 O230 1.275 . S
C219 O231 1.256 . S
O220 Ho200 2.322 . S
O220 C202 1.259 . S
O221 Ho201 2.346 . S
O221 C202 1.268 . S
O222 Ho200 2.378 . S
O222 C203 1.215 . S
O223 Ho200 2.524 . S
O223 C203 1.289 . S
O224 Ho200 2.381 . S
O224 C210 1.275 . S
O225 Ho200 2.669 . S
O225 Ho201 2.305 . S
O225 C210 1.256 . S
O226 Ho201 2.322 . S
O226 C211 1.259 . S
O227 Ho200 2.346 . S
O227 C211 1.268 . S
O228 Ho201 2.378 . S
O228 C212 1.215 . S
O229 Ho201 2.524 . S
O229 C212 1.289 . S
O230 Ho201 2.381 . S
O230 C219 1.275 . S
O231 Ho200 2.305 . S
O231 Ho201 2.669 . S
O231 C219 1.256 . S
H232 C205 0.930 . S
H233 C206 0.931 . S
H234 C208 0.934 . S
H235 C209 0.930 . S
H236 C214 0.930 . S
H237 C215 0.931 . S
H238 C217 0.934 . S
H239 C218 0.930 . S
Ho240 C243 2.811 . S
Ho240 O260 2.322 . S
Ho240 O262 2.378 . S
Ho240 O263 2.524 . S
Ho240 O264 2.381 . S
Ho240 O265 2.669 1_556 S
Ho240 O267 2.346 1_556 S
Ho240 O271 2.305 . S
Ho241 C252 2.811 . S
Ho241 O261 2.346 1_554 S
Ho241 O265 2.305 . S
Ho241 O266 2.322 . S
Ho241 O268 2.378 . S
Ho241 O269 2.524 . S
Ho241 O270 2.381 . S
Ho241 O271 2.669 1_554 S
C242 O260 1.259 . S
C242 O261 1.268 . S
C243 Ho240 2.811 . S
C243 C244 1.488 . S
C243 O262 1.215 . S
C243 O263 1.289 . S
C244 C243 1.488 . S
C244 C245 1.348 . S
C244 C249 1.413 . S
C245 C244 1.348 . S
C245 C246 1.442 . S
C245 H272 0.930 . S
C246 C245 1.442 . S
C246 C247 1.381 . S
C246 H273 0.931 . S
C247 C246 1.381 . S
C247 C248 1.321 . S
C248 C247 1.321 . S
C248 C249 1.403 . S
C248 H274 0.934 . S
C249 C244 1.413 . S
C249 C248 1.403 . S
C249 H275 0.930 . S
C250 O264 1.275 1_554 S
C250 O265 1.256 . S
C251 O266 1.259 . S
C251 O267 1.268 . S
C252 Ho241 2.811 . S
C252 C253 1.488 . S
C252 O268 1.215 . S
C252 O269 1.289 . S
C253 C252 1.488 . S
C253 C254 1.348 . S
C253 C258 1.413 . S
C254 C253 1.348 . S
C254 C255 1.442 . S
C254 H276 0.930 . S
C255 C254 1.442 . S
C255 C256 1.381 . S
C255 H277 0.931 . S
C256 C255 1.381 . S
C256 C257 1.321 . S
C257 C256 1.321 . S
C257 C258 1.403 . S
C257 H278 0.934 . S
C258 C253 1.413 . S
C258 C257 1.403 . S
C258 H279 0.930 . S
C259 O270 1.275 1_556 S
C259 O271 1.256 . S
O260 Ho240 2.322 . S
O260 C242 1.259 . S
O261 Ho241 2.346 1_556 S
O261 C242 1.268 . S
O262 Ho240 2.378 . S
O262 C243 1.215 . S
O263 Ho240 2.524 . S
O263 C243 1.289 . S
O264 Ho240 2.381 . S
O264 C250 1.275 1_556 S
O265 Ho240 2.669 1_554 S
O265 Ho241 2.305 . S
O265 C250 1.256 . S
O266 Ho241 2.322 . S
O266 C251 1.259 . S
O267 Ho240 2.346 1_554 S
O267 C251 1.268 . S
O268 Ho241 2.378 . S
O268 C252 1.215 . S
O269 Ho241 2.524 . S
O269 C252 1.289 . S
O270 Ho241 2.381 . S
O270 C259 1.275 1_554 S
O271 Ho240 2.305 . S
O271 Ho241 2.669 1_556 S
O271 C259 1.256 . S
H272 C245 0.930 . S
H273 C246 0.931 . S
H274 C248 0.934 . S
H275 C249 0.930 . S
H276 C254 0.930 . S
H277 C255 0.931 . S
H278 C257 0.934 . S
H279 C258 0.930 . S
Ho280 C283 2.811 1_455 S
Ho280 O300 2.322 1_455 S
Ho280 O302 2.378 1_455 S
Ho280 O303 2.524 . S
Ho280 O304 2.381 1_455 S
Ho280 O305 2.669 1_455 S
Ho280 O307 2.346 . S
Ho280 O311 2.305 . S
Ho281 C292 2.811 1_655 S
Ho281 O301 2.346 . S
Ho281 O305 2.305 . S
Ho281 O306 2.322 1_655 S
Ho281 O308 2.378 1_655 S
Ho281 O309 2.524 . S
Ho281 O310 2.381 1_655 S
Ho281 O311 2.669 1_655 S
C282 O300 1.259 . S
C282 O301 1.268 . S
C283 Ho280 2.811 1_655 S
C283 C284 1.488 . S
C283 O302 1.215 . S
C283 O303 1.289 1_655 S
C284 C283 1.488 . S
C284 C285 1.348 . S
C284 C289 1.413 . S
C285 C284 1.348 . S
C285 C286 1.442 . S
C285 H312 0.930 1_655 S
C286 C285 1.442 . S
C286 C287 1.381 . S
C286 H313 0.931 . S
C287 C286 1.381 . S
C287 C288 1.321 . S
C288 C287 1.321 . S
C288 C289 1.403 . S
C288 H314 0.934 . S
C289 C284 1.413 . S
C289 C288 1.403 . S
C289 H315 0.930 . S
C290 O304 1.275 . S
C290 O305 1.256 . S
C291 O306 1.259 . S
C291 O307 1.268 . S
C292 Ho281 2.811 1_455 S
C292 C293 1.488 . S
C292 O308 1.215 . S
C292 O309 1.289 1_455 S
C293 C292 1.488 . S
C293 C294 1.348 . S
C293 C298 1.413 . S
C294 C293 1.348 . S
C294 C295 1.442 . S
C294 H316 0.930 1_455 S
C295 C294 1.442 . S
C295 C296 1.381 . S
C295 H317 0.931 . S
C296 C295 1.381 . S
C296 C297 1.321 . S
C297 C296 1.321 . S
C297 C298 1.403 . S
C297 H318 0.934 . S
C298 C293 1.413 . S
C298 C297 1.403 . S
C298 H319 0.930 . S
C299 O310 1.275 . S
C299 O311 1.256 . S
O300 Ho280 2.322 1_655 S
O300 C282 1.259 . S
O301 Ho281 2.346 . S
O301 C282 1.268 . S
O302 Ho280 2.378 1_655 S
O302 C283 1.215 . S
O303 Ho280 2.524 . S
O303 C283 1.289 1_455 S
O304 Ho280 2.381 1_655 S
O304 C290 1.275 . S
O305 Ho280 2.669 1_655 S
O305 Ho281 2.305 . S
O305 C290 1.256 . S
O306 Ho281 2.322 1_455 S
O306 C291 1.259 . S
O307 Ho280 2.346 . S
O307 C291 1.268 . S
O308 Ho281 2.378 1_455 S
O308 C292 1.215 . S
O309 Ho281 2.524 . S
O309 C292 1.289 1_655 S
O310 Ho281 2.381 1_455 S
O310 C299 1.275 . S
O311 Ho280 2.305 . S
O311 Ho281 2.669 1_455 S
O311 C299 1.256 . S
H312 C285 0.930 1_455 S
H313 C286 0.931 . S
H314 C288 0.934 . S
H315 C289 0.930 . S
H316 C294 0.930 1_655 S
H317 C295 0.931 . S
H318 C297 0.934 . S
H319 C298 0.930 . S
C320 C321 1.349 . S
C320 C322 1.327 . S
C320 H345 0.950 . S
C321 C320 1.349 . S
C321 C337 1.349 . S
C322 C320 1.327 . S
C322 C341 1.429 . S
C322 H346 0.950 . S
C323 C340 1.574 . S
C323 C342 1.368 . S
C323 H347 0.949 . S
H324 C328 0.949 . S
C325 C326 1.349 . S
C325 C327 1.327 . S
C325 H348 0.950 . S
C326 C325 1.349 . S
C326 C338 1.349 . S
C327 C325 1.327 . S
C327 C343 1.429 . S
C327 H349 0.950 . S
C328 H324 0.949 . S
C328 C336 1.574 . S
C328 C344 1.368 . S
H329 C337 0.950 . S
H330 C335 0.950 . S
H331 C336 0.949 . S
H332 C338 0.950 . S
H333 C339 0.950 . S
H334 C340 0.949 . S
C335 H330 0.950 . S
C335 C337 1.327 . S
C335 C341 1.429 . S
C336 C328 1.574 . S
C336 H331 0.949 . S
C336 C342 1.368 . S
C337 C321 1.349 . S
C337 H329 0.950 . S
C337 C335 1.327 . S
C338 C326 1.349 . S
C338 H332 0.950 . S
C338 C339 1.327 . S
C339 H333 0.950 . S
C339 C338 1.327 . S
C339 C343 1.429 . S
C340 C323 1.574 . S
C340 H334 0.949 . S
C340 C344 1.368 . S
C341 C322 1.429 . S
C341 C335 1.429 . S
C341 C342 1.523 . S
C342 C323 1.368 . S
C342 C336 1.368 . S
C342 C341 1.523 . S
C343 C327 1.429 . S
C343 C339 1.429 . S
C343 C344 1.523 . S
C344 C328 1.368 . S
C344 C340 1.368 . S
C344 C343 1.523 . S
H345 C320 0.950 . S
H346 C322 0.950 . S
H347 C323 0.949 . S
H348 C325 0.950 . S
H349 C327 0.950 . S
C350 C351 1.349 . S
C350 C352 1.327 . S
C350 H375 0.950 . S
C351 C350 1.349 . S
C351 C367 1.349 . S
C352 C350 1.327 . S
C352 C371 1.429 . S
C352 H376 0.950 . S
C353 C370 1.574 . S
C353 C372 1.368 . S
C353 H377 0.949 . S
H354 C358 0.949 . S
C355 C356 1.349 . S
C355 C357 1.327 . S
C355 H378 0.950 . S
C356 C355 1.349 . S
C356 C368 1.349 . S
C357 C355 1.327 . S
C357 C373 1.429 . S
C357 H379 0.950 . S
C358 H354 0.949 . S
C358 C366 1.574 . S
C358 C374 1.368 . S
H359 C367 0.950 . S
H360 C365 0.950 . S
H361 C366 0.949 . S
H362 C368 0.950 . S
H363 C369 0.950 . S
H364 C370 0.949 . S
C365 H360 0.950 . S
C365 C367 1.327 . S
C365 C371 1.429 . S
C366 C358 1.574 . S
C366 H361 0.949 . S
C366 C372 1.368 . S
C367 C351 1.349 . S
C367 H359 0.950 . S
C367 C365 1.327 . S
C368 C356 1.349 . S
C368 H362 0.950 . S
C368 C369 1.327 . S
C369 H363 0.950 . S
C369 C368 1.327 . S
C369 C373 1.429 . S
C370 C353 1.574 . S
C370 H364 0.949 . S
C370 C374 1.368 . S
C371 C352 1.429 . S
C371 C365 1.429 . S
C371 C372 1.523 . S
C372 C353 1.368 . S
C372 C366 1.368 . S
C372 C371 1.523 . S
C373 C357 1.429 . S
C373 C369 1.429 . S
C373 C374 1.523 . S
C374 C358 1.368 . S
C374 C370 1.368 . S
C374 C373 1.523 . S
H375 C350 0.950 . S
H376 C352 0.950 . S
H377 C353 0.949 . S
H378 C355 0.950 . S
H379 C357 0.950 . S
C380 C381 1.349 . S
C380 C382 1.327 . S
C380 H405 0.950 . S
C381 C380 1.349 . S
C381 C397 1.349 . S
C382 C380 1.327 . S
C382 C401 1.429 . S
C382 H406 0.950 . S
C383 C400 1.574 . S
C383 C402 1.368 . S
C383 H407 0.949 . S
H384 C388 0.949 . S
C385 C386 1.349 . S
C385 C387 1.327 . S
C385 H408 0.950 1_556 S
C386 C385 1.349 . S
C386 C398 1.349 . S
C387 C385 1.327 . S
C387 C403 1.429 . S
C387 H409 0.950 . S
C388 H384 0.949 . S
C388 C396 1.574 . S
C388 C404 1.368 . S
H389 C397 0.950 . S
H390 C395 0.950 . S
H391 C396 0.949 . S
H392 C398 0.950 . S
H393 C399 0.950 . S
H394 C400 0.949 . S
C395 H390 0.950 . S
C395 C397 1.327 . S
C395 C401 1.429 . S
C396 C388 1.574 . S
C396 H391 0.949 . S
C396 C402 1.368 . S
C397 C381 1.349 . S
C397 H389 0.950 . S
C397 C395 1.327 . S
C398 C386 1.349 . S
C398 H392 0.950 . S
C398 C399 1.327 . S
C399 H393 0.950 . S
C399 C398 1.327 . S
C399 C403 1.429 . S
C400 C383 1.574 . S
C400 H394 0.949 . S
C400 C404 1.368 . S
C401 C382 1.429 . S
C401 C395 1.429 . S
C401 C402 1.523 . S
C402 C383 1.368 . S
C402 C396 1.368 . S
C402 C401 1.523 . S
C403 C387 1.429 . S
C403 C399 1.429 . S
C403 C404 1.523 . S
C404 C388 1.368 . S
C404 C400 1.368 . S
C404 C403 1.523 . S
H405 C380 0.950 . S
H406 C382 0.950 . S
H407 C383 0.949 . S
H408 C385 0.950 1_554 S
H409 C387 0.950 . S
C410 C411 1.349 . S
C410 C412 1.327 . S
C410 H435 0.969 . S
C411 C410 1.349 . S
C411 C427 1.349 . S
C412 C410 1.327 . S
C412 C431 1.429 . S
C412 H436 0.950 . S
C413 C430 1.574 . S
C413 C432 1.368 . S
C413 H437 0.949 . S
H414 C418 0.949 . S
C415 C416 1.349 . S
C415 C417 1.327 . S
C415 H438 0.950 . S
C416 C415 1.349 . S
C416 C428 1.349 . S
C417 C415 1.327 . S
C417 C433 1.429 . S
C417 H439 0.950 . S
C418 H414 0.949 . S
C418 C426 1.574 . S
C418 C434 1.368 . S
H419 C427 0.950 . S
H420 C425 0.950 . S
H421 C426 0.949 . S
H422 C428 0.950 . S
H423 C429 0.950 . S
H424 C430 0.949 . S
C425 H420 0.950 . S
C425 C427 1.327 . S
C425 C431 1.429 . S
C426 C418 1.574 . S
C426 H421 0.949 . S
C426 C432 1.368 . S
C427 C411 1.349 . S
C427 H419 0.950 . S
C427 C425 1.327 . S
C428 C416 1.349 . S
C428 H422 0.950 . S
C428 C429 1.327 . S
C429 H423 0.950 . S
C429 C428 1.327 . S
C429 C433 1.429 . S
C430 C413 1.574 . S
C430 H424 0.949 . S
C430 C434 1.368 . S
C431 C412 1.429 . S
C431 C425 1.429 . S
C431 C432 1.523 . S
C432 C413 1.368 . S
C432 C426 1.368 . S
C432 C431 1.523 . S
C433 C417 1.429 . S
C433 C429 1.429 . S
C433 C434 1.523 . S
C434 C418 1.368 . S
C434 C430 1.368 . S
C434 C433 1.523 . S
H435 C410 0.969 . S
H436 C412 0.950 . S
H437 C413 0.949 . S
H438 C415 0.950 . S
H439 C417 0.950 . S
C440 C441 1.349 . S
C440 C442 1.327 . S
C440 H465 0.950 . S
C441 C440 1.349 . S
C441 C457 1.349 . S
C442 C440 1.327 . S
C442 C461 1.429 . S
C442 H466 0.950 . S
C443 C460 1.574 . S
C443 C462 1.368 . S
C443 H467 0.949 . S
H444 C448 0.949 . S
C445 C446 1.349 . S
C445 C447 1.327 . S
C445 H468 0.950 . S
C446 C445 1.349 . S
C446 C458 1.349 . S
C447 C445 1.327 . S
C447 C463 1.429 . S
C447 H469 0.950 . S
C448 H444 0.949 . S
C448 C456 1.574 . S
C448 C464 1.368 . S
H449 C457 0.950 . S
H450 C455 0.950 . S
H451 C456 0.949 . S
H452 C458 0.950 . S
H453 C459 0.950 . S
H454 C460 0.949 . S
C455 H450 0.950 . S
C455 C457 1.327 . S
C455 C461 1.429 . S
C456 C448 1.574 . S
C456 H451 0.949 . S
C456 C462 1.368 . S
C457 C441 1.349 . S
C457 H449 0.950 . S
C457 C455 1.327 . S
C458 C446 1.349 . S
C458 H452 0.950 . S
C458 C459 1.327 . S
C459 H453 0.950 . S
C459 C458 1.327 . S
C459 C463 1.429 . S
C460 C443 1.574 . S
C460 H454 0.949 . S
C460 C464 1.368 . S
C461 C442 1.429 . S
C461 C455 1.429 . S
C461 C462 1.523 . S
C462 C443 1.368 . S
C462 C456 1.368 . S
C462 C461 1.523 . S
C463 C447 1.429 . S
C463 C459 1.429 . S
C463 C464 1.523 . S
C464 C448 1.368 . S
C464 C460 1.368 . S
C464 C463 1.523 . S
H465 C440 0.950 . S
H466 C442 0.950 . S
H467 C443 0.949 . S
H468 C445 0.950 . S
H469 C447 0.950 . S
C470 C471 1.349 . S
C470 C472 1.327 . S
C470 H495 0.950 . S
C471 C470 1.349 . S
C471 C487 1.349 . S
C472 C470 1.327 . S
C472 C491 1.429 . S
C472 H496 0.950 . S
C473 C490 1.574 . S
C473 C492 1.368 . S
C473 H497 0.949 . S
H474 C478 0.949 . S
C475 C476 1.349 . S
C475 C477 1.327 . S
C475 H498 0.950 . S
C476 C475 1.349 . S
C476 C488 1.349 . S
C477 C475 1.327 . S
C477 C493 1.429 . S
C477 H499 0.950 . S
C478 H474 0.949 . S
C478 C486 1.574 . S
C478 C494 1.368 . S
H479 C487 0.950 . S
H480 C485 0.950 . S
H481 C486 0.949 . S
H482 C488 0.950 . S
H483 C489 0.950 . S
H484 C490 0.949 . S
C485 H480 0.950 . S
C485 C487 1.327 . S
C485 C491 1.429 . S
C486 C478 1.574 . S
C486 H481 0.949 . S
C486 C492 1.368 . S
C487 C471 1.349 . S
C487 H479 0.950 . S
C487 C485 1.327 . S
C488 C476 1.349 . S
C488 H482 0.950 . S
C488 C489 1.327 . S
C489 H483 0.950 . S
C489 C488 1.327 . S
C489 C493 1.429 . S
C490 C473 1.574 . S
C490 H484 0.949 . S
C490 C494 1.368 . S
C491 C472 1.429 . S
C491 C485 1.429 . S
C491 C492 1.523 . S
C492 C473 1.368 . S
C492 C486 1.368 . S
C492 C491 1.523 . S
C493 C477 1.429 . S
C493 C489 1.429 . S
C493 C494 1.523 . S
C494 C478 1.368 . S
C494 C490 1.368 . S
C494 C493 1.523 . S
H495 C470 0.950 . S
H496 C472 0.950 . S
H497 C473 0.949 . S
H498 C475 0.950 . S
H499 C477 0.950 . S
C500 C501 1.349 . S
C500 C502 1.327 . S
C500 H525 0.950 . S
C501 C500 1.349 . S
C501 C517 1.349 . S
C502 C500 1.327 . S
C502 C521 1.429 . S
C502 H526 0.950 . S
C503 C520 1.574 . S
C503 C522 1.368 . S
C503 H527 0.949 . S
H504 C508 0.949 . S
C505 C506 1.349 . S
C505 C507 1.327 . S
C505 H528 0.950 1_554 S
C506 C505 1.349 . S
C506 C518 1.349 . S
C507 C505 1.327 . S
C507 C523 1.429 . S
C507 H529 0.950 . S
C508 H504 0.949 . S
C508 C516 1.574 . S
C508 C524 1.368 . S
H509 C517 0.950 . S
H510 C515 0.950 . S
H511 C516 0.949 . S
H512 C518 0.950 . S
H513 C519 0.950 . S
H514 C520 0.949 . S
C515 H510 0.950 . S
C515 C517 1.327 . S
C515 C521 1.429 . S
C516 C508 1.574 . S
C516 H511 0.949 . S
C516 C522 1.368 . S
C517 C501 1.349 . S
C517 H509 0.950 . S
C517 C515 1.327 . S
C518 C506 1.349 . S
C518 H512 0.950 . S
C518 C519 1.327 . S
C519 H513 0.950 . S
C519 C518 1.327 . S
C519 C523 1.429 . S
C520 C503 1.574 . S
C520 H514 0.949 . S
C520 C524 1.368 . S
C521 C502 1.429 . S
C521 C515 1.429 . S
C521 C522 1.523 . S
C522 C503 1.368 . S
C522 C516 1.368 . S
C522 C521 1.523 . S
C523 C507 1.429 . S
C523 C519 1.429 . S
C523 C524 1.523 . S
C524 C508 1.368 . S
C524 C520 1.368 . S
C524 C523 1.523 . S
H525 C500 0.950 . S
H526 C502 0.950 . S
H527 C503 0.949 . S
H528 C505 0.950 1_556 S
H529 C507 0.950 . S
C530 C531 1.349 . S
C530 C532 1.327 . S
C530 H555 0.950 . S
C531 C530 1.349 . S
C531 C547 1.349 . S
C532 C530 1.327 . S
C532 C551 1.429 . S
C532 H556 0.950 . S
C533 C550 1.574 . S
C533 C552 1.368 . S
C533 H557 0.949 . S
H534 C538 0.949 . S
C535 C536 1.349 . S
C535 C537 1.327 . S
C535 H558 0.950 . S
C536 C535 1.349 . S
C536 C548 1.349 . S
C537 C535 1.327 . S
C537 C553 1.429 . S
C537 H559 0.950 . S
C538 H534 0.949 . S
C538 C546 1.574 . S
C538 C554 1.368 . S
H539 C547 0.950 . S
H540 C545 0.950 . S
H541 C546 0.949 . S
H542 C548 0.950 . S
H543 C549 0.950 . S
H544 C550 0.949 . S
C545 H540 0.950 . S
C545 C547 1.327 . S
C545 C551 1.429 . S
C546 C538 1.574 . S
C546 H541 0.949 . S
C546 C552 1.368 . S
C547 C531 1.349 . S
C547 H539 0.950 . S
C547 C545 1.327 . S
C548 C536 1.349 . S
C548 H542 0.950 . S
C548 C549 1.327 . S
C549 H543 0.950 . S
C549 C548 1.327 . S
C549 C553 1.429 . S
C550 C533 1.574 . S
C550 H544 0.949 . S
C550 C554 1.368 . S
C551 C532 1.429 . S
C551 C545 1.429 . S
C551 C552 1.523 . S
C552 C533 1.368 . S
C552 C546 1.368 . S
C552 C551 1.523 . S
C553 C537 1.429 . S
C553 C549 1.429 . S
C553 C554 1.523 . S
C554 C538 1.368 . S
C554 C550 1.368 . S
C554 C553 1.523 . S
H555 C530 0.950 . S
H556 C532 0.950 . S
H557 C533 0.949 . S
H558 C535 0.950 . S
H559 C537 0.950 . S
C560 C561 1.349 . S
C560 C562 1.327 . S
C560 H585 0.950 . S
C561 C560 1.349 . S
C561 C577 1.349 . S
C562 C560 1.327 . S
C562 C581 1.429 . S
C562 H586 0.950 . S
C563 C580 1.574 . S
C563 C582 1.368 . S
C563 H587 0.949 . S
H564 C568 0.949 . S
C565 C566 1.349 . S
C565 C567 1.327 . S
C565 H588 0.950 . S
C566 C565 1.349 . S
C566 C578 1.349 . S
C567 C565 1.327 . S
C567 C583 1.429 . S
C567 H589 0.950 . S
C568 H564 0.949 . S
C568 C576 1.574 . S
C568 C584 1.368 . S
H569 C577 0.950 . S
H570 C575 0.950 . S
H571 C576 0.949 . S
H572 C578 0.950 . S
H573 C579 0.950 . S
H574 C580 0.949 . S
C575 H570 0.950 . S
C575 C577 1.327 . S
C575 C581 1.429 . S
C576 C568 1.574 . S
C576 H571 0.949 . S
C576 C582 1.368 . S
C577 C561 1.349 . S
C577 H569 0.950 . S
C577 C575 1.327 . S
C578 C566 1.349 . S
C578 H572 0.950 . S
C578 C579 1.327 . S
C579 H573 0.950 . S
C579 C578 1.327 . S
C579 C583 1.429 . S
C580 C563 1.574 . S
C580 H574 0.949 . S
C580 C584 1.368 . S
C581 C562 1.429 . S
C581 C575 1.429 . S
C581 C582 1.523 . S
C582 C563 1.368 . S
C582 C576 1.368 . S
C582 C581 1.523 . S
C583 C567 1.429 . S
C583 C579 1.429 . S
C583 C584 1.523 . S
C584 C568 1.368 . S
C584 C580 1.368 . S
C584 C583 1.523 . S
H585 C560 0.950 . S
H586 C562 0.950 . S
H587 C563 0.949 . S
H588 C565 0.950 . S
H589 C567 0.950 . S
C590 C591 1.349 . S
C590 C592 1.327 . S
C590 H615 0.950 . S
C591 C590 1.349 . S
C591 C607 1.349 . S
C592 C590 1.327 . S
C592 C611 1.429 . S
C592 H616 0.950 . S
C593 C610 1.574 . S
C593 C612 1.368 . S
C593 H617 0.949 . S
H594 C598 0.949 . S
C595 C596 1.349 . S
C595 C597 1.327 . S
C595 H618 0.950 . S
C596 C595 1.349 . S
C596 C608 1.349 . S
C597 C595 1.327 . S
C597 C613 1.429 . S
C597 H619 0.950 . S
C598 H594 0.949 . S
C598 C606 1.574 . S
C598 C614 1.368 . S
H599 C607 0.950 . S
H600 C605 0.950 . S
H601 C606 0.949 . S
H602 C608 0.950 . S
H603 C609 0.950 . S
H604 C610 0.949 . S
C605 H600 0.950 . S
C605 C607 1.327 . S
C605 C611 1.429 . S
C606 C598 1.574 . S
C606 H601 0.949 . S
C606 C612 1.368 . S
C607 C591 1.349 . S
C607 H599 0.950 . S
C607 C605 1.327 . S
C608 C596 1.349 . S
C608 H602 0.950 . S
C608 C609 1.327 . S
C609 H603 0.950 . S
C609 C608 1.327 . S
C609 C613 1.429 . S
C610 C593 1.574 . S
C610 H604 0.949 . S
C610 C614 1.368 . S
C611 C592 1.429 . S
C611 C605 1.429 . S
C611 C612 1.523 . S
C612 C593 1.368 . S
C612 C606 1.368 . S
C612 C611 1.523 . S
C613 C597 1.429 . S
C613 C609 1.429 . S
C613 C614 1.523 . S
C614 C598 1.368 . S
C614 C610 1.368 . S
C614 C613 1.523 . S
H615 C590 0.950 . S
H616 C592 0.950 . S
H617 C593 0.949 . S
H618 C595 0.950 . S
H619 C597 0.950 . S
C620 C621 1.349 . S
C620 C622 1.327 . S
C620 H645 0.950 . S
C621 C620 1.349 . S
C621 C637 1.349 . S
C622 C620 1.327 . S
C622 C641 1.429 . S
C622 H646 0.950 . S
C623 C640 1.574 . S
C623 C642 1.368 . S
C623 H647 0.949 . S
H624 C628 0.949 . S
C625 C626 1.349 . S
C625 C627 1.327 . S
C625 H648 0.950 . S
C626 C625 1.349 . S
C626 C638 1.349 . S
C627 C625 1.327 . S
C627 C643 1.429 . S
C627 H649 0.950 . S
C628 H624 0.949 . S
C628 C636 1.574 . S
C628 C644 1.368 . S
H629 C637 0.950 . S
H630 C635 0.950 . S
H631 C636 0.949 . S
H632 C638 0.950 . S
H633 C639 0.950 . S
H634 C640 0.949 . S
C635 H630 0.950 . S
C635 C637 1.327 . S
C635 C641 1.429 . S
C636 C628 1.574 . S
C636 H631 0.949 . S
C636 C642 1.368 . S
C637 C621 1.349 . S
C637 H629 0.950 . S
C637 C635 1.327 . S
C638 C626 1.349 . S
C638 H632 0.950 . S
C638 C639 1.327 . S
C639 H633 0.950 . S
C639 C638 1.327 . S
C639 C643 1.429 . S
C640 C623 1.574 . S
C640 H634 0.949 . S
C640 C644 1.368 . S
C641 C622 1.429 . S
C641 C635 1.429 . S
C641 C642 1.523 . S
C642 C623 1.368 . S
C642 C636 1.368 . S
C642 C641 1.523 . S
C643 C627 1.429 . S
C643 C639 1.429 . S
C643 C644 1.523 . S
C644 C628 1.368 . S
C644 C640 1.368 . S
C644 C643 1.523 . S
H645 C620 0.950 . S
H646 C622 0.950 . S
H647 C623 0.949 . S
H648 C625 0.950 . S
H649 C627 0.950 . S
C650 C651 1.349 . S
C650 C652 1.327 . S
C650 H675 0.950 . S
C651 C650 1.349 . S
C651 C667 1.349 . S
C652 C650 1.327 . S
C652 C671 1.429 . S
C652 H676 0.950 . S
C653 C670 1.574 . S
C653 C672 1.368 . S
C653 H677 0.949 . S
H654 C658 0.949 . S
C655 C656 1.349 . S
C655 C657 1.327 . S
C655 H678 0.950 . S
C656 C655 1.349 . S
C656 C668 1.349 . S
C657 C655 1.327 . S
C657 C673 1.429 . S
C657 H679 0.950 . S
C658 H654 0.949 . S
C658 C666 1.574 . S
C658 C674 1.368 . S
H659 C667 0.950 . S
H660 C665 0.950 . S
H661 C666 0.949 . S
H662 C668 0.950 . S
H663 C669 0.950 . S
H664 C670 0.949 . S
C665 H660 0.950 . S
C665 C667 1.327 . S
C665 C671 1.429 . S
C666 C658 1.574 . S
C666 H661 0.949 . S
C666 C672 1.368 . S
C667 C651 1.349 . S
C667 H659 0.950 . S
C667 C665 1.327 . S
C668 C656 1.349 . S
C668 H662 0.950 . S
C668 C669 1.327 . S
C669 H663 0.950 . S
C669 C668 1.327 . S
C669 C673 1.429 . S
C670 C653 1.574 . S
C670 H664 0.949 . S
C670 C674 1.368 . S
C671 C652 1.429 . S
C671 C665 1.429 . S
C671 C672 1.523 . S
C672 C653 1.368 . S
C672 C666 1.368 . S
C672 C671 1.523 . S
C673 C657 1.429 . S
C673 C669 1.429 . S
C673 C674 1.523 . S
C674 C658 1.368 . S
C674 C670 1.368 . S
C674 C673 1.523 . S
H675 C650 0.950 . S
H676 C652 0.950 . S
H677 C653 0.949 . S
H678 C655 0.950 . S
H679 C657 0.950 . S
C680 C681 1.349 . S
C680 C682 1.327 . S
C680 H705 0.950 . S
C681 C680 1.349 . S
C681 C697 1.349 . S
C682 C680 1.327 . S
C682 C701 1.429 . S
C682 H706 0.950 . S
C683 C700 1.574 . S
C683 C702 1.368 . S
C683 H707 0.949 . S
H684 C688 0.949 . S
C685 C686 1.349 . S
C685 C687 1.327 . S
C685 H708 0.950 . S
C686 C685 1.349 . S
C686 C698 1.349 . S
C687 C685 1.327 . S
C687 C703 1.429 . S
C687 H709 0.950 . S
C688 H684 0.949 . S
C688 C696 1.574 . S
C688 C704 1.368 . S
H689 C697 0.950 . S
H690 C695 0.950 . S
H691 C696 0.949 . S
H692 C698 0.950 . S
H693 C699 0.950 . S
H694 C700 0.949 . S
C695 H690 0.950 . S
C695 C697 1.327 . S
C695 C701 1.429 . S
C696 C688 1.574 . S
C696 H691 0.949 . S
C696 C702 1.368 . S
C697 C681 1.349 . S
C697 H689 0.950 . S
C697 C695 1.327 . S
C698 C686 1.349 . S
C698 H692 0.950 . S
C698 C699 1.327 . S
C699 H693 0.950 . S
C699 C698 1.327 . S
C699 C703 1.429 . S
C700 C683 1.574 . S
C700 H694 0.949 . S
C700 C704 1.368 . S
C701 C682 1.429 . S
C701 C695 1.429 . S
C701 C702 1.523 . S
C702 C683 1.368 . S
C702 C696 1.368 . S
C702 C701 1.523 . S
C703 C687 1.429 . S
C703 C699 1.429 . S
C703 C704 1.523 . S
C704 C688 1.368 . S
C704 C700 1.368 . S
C704 C703 1.523 . S
H705 C680 0.950 . S
H706 C682 0.950 . S
H707 C683 0.949 . S
H708 C685 0.950 . S
H709 C687 0.950 . S
C710 C711 1.349 . S
C710 C712 1.327 . S
C710 H735 0.950 . S
C711 C710 1.349 . S
C711 C727 1.349 . S
C712 C710 1.327 . S
C712 C731 1.429 . S
C712 H736 0.950 . S
C713 C730 1.574 . S
C713 C732 1.368 . S
C713 H737 0.949 . S
H714 C718 0.949 . S
C715 C716 1.349 . S
C715 C717 1.327 . S
C715 H738 0.950 . S
C716 C715 1.349 . S
C716 C728 1.349 . S
C717 C715 1.327 . S
C717 C733 1.429 . S
C717 H739 0.950 . S
C718 H714 0.949 . S
C718 C726 1.574 . S
C718 C734 1.368 . S
H719 C727 0.950 . S
H720 C725 0.950 . S
H721 C726 0.949 . S
H722 C728 0.950 . S
H723 C729 0.950 . S
H724 C730 0.949 . S
C725 H720 0.950 . S
C725 C727 1.327 . S
C725 C731 1.429 . S
C726 C718 1.574 . S
C726 H721 0.949 . S
C726 C732 1.368 . S
C727 C711 1.349 . S
C727 H719 0.950 . S
C727 C725 1.327 . S
C728 C716 1.349 . S
C728 H722 0.950 . S
C728 C729 1.327 . S
C729 H723 0.950 . S
C729 C728 1.327 . S
C729 C733 1.429 . S
C730 C713 1.574 . S
C730 H724 0.949 . S
C730 C734 1.368 . S
C731 C712 1.429 . S
C731 C725 1.429 . S
C731 C732 1.523 . S
C732 C713 1.368 . S
C732 C726 1.368 . S
C732 C731 1.523 . S
C733 C717 1.429 . S
C733 C729 1.429 . S
C733 C734 1.523 . S
C734 C718 1.368 . S
C734 C730 1.368 . S
C734 C733 1.523 . S
H735 C710 0.950 . S
H736 C712 0.950 . S
H737 C713 0.949 . S
H738 C715 0.950 . S
H739 C717 0.950 . S
C740 C741 1.349 . S
C740 C742 1.327 . S
C740 H765 0.950 . S
C741 C740 1.349 . S
C741 C757 1.349 . S
C742 C740 1.327 . S
C742 C761 1.429 . S
C742 H766 0.950 . S
C743 C760 1.574 . S
C743 C762 1.368 . S
C743 H767 0.949 . S
H744 C748 0.949 . S
C745 C746 1.349 . S
C745 C747 1.327 . S
C745 H768 0.950 . S
C746 C745 1.349 . S
C746 C758 1.349 . S
C747 C745 1.327 . S
C747 C763 1.429 . S
C747 H769 0.950 . S
C748 H744 0.949 . S
C748 C756 1.574 . S
C748 C764 1.368 . S
H749 C757 0.950 . S
H750 C755 0.950 . S
H751 C756 0.949 . S
H752 C758 0.950 . S
H753 C759 0.950 . S
H754 C760 0.949 . S
C755 H750 0.950 . S
C755 C757 1.327 . S
C755 C761 1.429 . S
C756 C748 1.574 . S
C756 H751 0.949 . S
C756 C762 1.368 . S
C757 C741 1.349 . S
C757 H749 0.950 . S
C757 C755 1.327 . S
C758 C746 1.349 . S
C758 H752 0.950 . S
C758 C759 1.327 . S
C759 H753 0.950 . S
C759 C758 1.327 . S
C759 C763 1.429 . S
C760 C743 1.574 . S
C760 H754 0.949 . S
C760 C764 1.368 . S
C761 C742 1.429 . S
C761 C755 1.429 . S
C761 C762 1.523 . S
C762 C743 1.368 . S
C762 C756 1.368 . S
C762 C761 1.523 . S
C763 C747 1.429 . S
C763 C759 1.429 . S
C763 C764 1.523 . S
C764 C748 1.368 . S
C764 C760 1.368 . S
C764 C763 1.523 . S
H765 C740 0.950 . S
H766 C742 0.950 . S
H767 C743 0.949 . S
H768 C745 0.950 . S
H769 C747 0.950 . S
C770 C771 1.349 . S
C770 C772 1.327 . S
C770 H795 0.950 . S
C771 C770 1.349 . S
C771 C787 1.349 . S
C772 C770 1.327 . S
C772 C791 1.429 . S
C772 H796 0.950 . S
C773 C790 1.574 . S
C773 C792 1.368 . S
C773 H797 0.949 . S
H774 C778 0.949 . S
C775 C776 1.349 . S
C775 C777 1.327 . S
C775 H798 0.950 . S
C776 C775 1.349 . S
C776 C788 1.349 . S
C777 C775 1.327 . S
C777 C793 1.429 . S
C777 H799 0.950 . S
C778 H774 0.949 . S
C778 C786 1.574 . S
C778 C794 1.368 . S
H779 C787 0.950 . S
H780 C785 0.950 . S
H781 C786 0.949 . S
H782 C788 0.950 . S
H783 C789 0.950 . S
H784 C790 0.949 . S
C785 H780 0.950 . S
C785 C787 1.327 . S
C785 C791 1.429 . S
C786 C778 1.574 . S
C786 H781 0.949 . S
C786 C792 1.368 . S
C787 C771 1.349 . S
C787 H779 0.950 . S
C787 C785 1.327 . S
C788 C776 1.349 . S
C788 H782 0.950 . S
C788 C789 1.327 . S
C789 H783 0.950 . S
C789 C788 1.327 . S
C789 C793 1.429 . S
C790 C773 1.574 . S
C790 H784 0.949 . S
C790 C794 1.368 . S
C791 C772 1.429 . S
C791 C785 1.429 . S
C791 C792 1.523 . S
C792 C773 1.368 . S
C792 C786 1.368 . S
C792 C791 1.523 . S
C793 C777 1.429 . S
C793 C789 1.429 . S
C793 C794 1.523 . S
C794 C778 1.368 . S
C794 C790 1.368 . S
C794 C793 1.523 . S
H795 C770 0.950 . S
H796 C772 0.950 . S
H797 C773 0.949 . S
H798 C775 0.950 . S
H799 C777 0.950 . S
C800 C801 1.349 . S
C800 C802 1.327 1_655 S
C800 H825 0.950 1_655 S
C801 C800 1.349 . S
C801 C817 1.349 1_565 S
C802 C800 1.327 1_455 S
C802 C821 1.429 1_455 S
C802 H826 0.950 . S
C803 C820 1.574 1_556 S
C803 C822 1.368 1_545 S
C803 H827 0.949 . S
H804 C808 0.949 . S
C805 C806 1.349 . S
C805 C807 1.327 1_455 S
C805 H828 0.950 1_455 S
C806 C805 1.349 . S
C806 C818 1.349 1_545 S
C807 C805 1.327 1_655 S
C807 C823 1.429 1_655 S
C807 H829 0.950 . S
C808 H804 0.949 . S
C808 C816 1.574 1_554 S
C808 C824 1.368 1_565 S
H809 C817 0.950 . S
H810 C815 0.950 . S
H811 C816 0.949 . S
H812 C818 0.950 . S
H813 C819 0.950 . S
H814 C820 0.949 . S
C815 H810 0.950 . S
C815 C817 1.327 . S
C815 C821 1.429 1_545 S
C816 C808 1.574 1_556 S
C816 H811 0.949 . S
C816 C822 1.368 1_455 S
C817 C801 1.349 1_545 S
C817 H809 0.950 . S
C817 C815 1.327 . S
C818 C806 1.349 1_565 S
C818 H812 0.950 . S
C818 C819 1.327 . S
C819 H813 0.950 . S
C819 C818 1.327 . S
C819 C823 1.429 1_565 S
C820 C803 1.574 1_554 S
C820 H814 0.949 . S
C820 C824 1.368 1_655 S
C821 C802 1.429 1_655 S
C821 C815 1.429 1_565 S
C821 C822 1.523 . S
C822 C803 1.368 1_565 S
C822 C816 1.368 1_655 S
C822 C821 1.523 . S
C823 C807 1.429 1_455 S
C823 C819 1.429 1_545 S
C823 C824 1.523 . S
C824 C808 1.368 1_545 S
C824 C820 1.368 1_455 S
C824 C823 1.523 . S
H825 C800 0.950 1_455 S
H826 C802 0.950 . S
H827 C803 0.949 . S
H828 C805 0.950 1_655 S
H829 C807 0.950 . S
C830 C831 1.349 . S
C830 C832 1.327 . S
C830 H855 0.950 . S
C831 C830 1.349 . S
C831 C847 1.349 . S
C832 C830 1.327 . S
C832 C851 1.429 . S
C832 H856 0.950 . S
C833 C850 1.574 . S
C833 C852 1.368 . S
C833 H857 0.949 . S
H834 C838 0.949 . S
C835 C836 1.349 . S
C835 C837 1.327 . S
C835 H858 0.950 . S
C836 C835 1.349 . S
C836 C848 1.349 . S
C837 C835 1.327 . S
C837 C853 1.429 . S
C837 H859 0.950 . S
C838 H834 0.949 . S
C838 C846 1.574 . S
C838 C854 1.368 . S
H839 C847 0.950 . S
H840 C845 0.950 . S
H841 C846 0.949 . S
H842 C848 0.950 . S
H843 C849 0.950 . S
H844 C850 0.949 . S
C845 H840 0.950 . S
C845 C847 1.327 . S
C845 C851 1.429 . S
C846 C838 1.574 . S
C846 H841 0.949 . S
C846 C852 1.368 . S
C847 C831 1.349 . S
C847 H839 0.950 . S
C847 C845 1.327 . S
C848 C836 1.349 . S
C848 H842 0.950 . S
C848 C849 1.327 . S
C849 H843 0.950 . S
C849 C848 1.327 . S
C849 C853 1.429 . S
C850 C833 1.574 . S
C850 H844 0.949 . S
C850 C854 1.368 . S
C851 C832 1.429 . S
C851 C845 1.429 . S
C851 C852 1.523 . S
C852 C833 1.368 . S
C852 C846 1.368 . S
C852 C851 1.523 . S
C853 C837 1.429 . S
C853 C849 1.429 . S
C853 C854 1.523 . S
C854 C838 1.368 . S
C854 C850 1.368 . S
C854 C853 1.523 . S
H855 C830 0.950 . S
H856 C832 0.950 . S
H857 C833 0.949 . S
H858 C835 0.950 . S
H859 C837 0.950 . S
C860 C861 1.349 . S
C860 C862 1.327 . S
C860 H885 0.950 . S
C861 C860 1.349 . S
C861 C877 1.349 1_545 S
C862 C860 1.327 . S
C862 C881 1.429 . S
C862 H886 0.950 . S
C863 C880 1.574 . S
C863 C882 1.368 1_565 S
C863 H887 0.949 . S
H864 C868 0.949 . S
C865 C866 1.349 . S
C865 C867 1.327 . S
C865 H888 0.950 . S
C866 C865 1.349 . S
C866 C878 1.349 1_565 S
C867 C865 1.327 . S
C867 C883 1.429 . S
C867 H889 0.950 . S
C868 H864 0.949 . S
C868 C876 1.574 . S
C868 C884 1.368 1_545 S
H869 C877 0.950 . S
H870 C875 0.950 . S
H871 C876 0.949 . S
H872 C878 0.950 . S
H873 C879 0.950 . S
H874 C880 0.949 . S
C875 H870 0.950 . S
C875 C877 1.327 . S
C875 C881 1.429 1_565 S
C876 C868 1.574 . S
C876 H871 0.949 . S
C876 C882 1.368 . S
C877 C861 1.349 1_565 S
C877 H869 0.950 . S
C877 C875 1.327 . S
C878 C866 1.349 1_545 S
C878 H872 0.950 . S
C878 C879 1.327 . S
C879 H873 0.950 . S
C879 C878 1.327 . S
C879 C883 1.429 1_545 S
C880 C863 1.574 . S
C880 H874 0.949 . S
C880 C884 1.368 . S
C881 C862 1.429 . S
C881 C875 1.429 1_545 S
C881 C882 1.523 . S
C882 C863 1.368 1_545 S
C882 C876 1.368 . S
C882 C881 1.523 . S
C883 C867 1.429 . S
C883 C879 1.429 1_565 S
C883 C884 1.523 . S
C884 C868 1.368 1_565 S
C884 C880 1.368 . S
C884 C883 1.523 . S
H885 C860 0.950 . S
H886 C862 0.950 . S
H887 C863 0.949 . S
H888 C865 0.950 . S
H889 C867 0.950 . S
C890 C891 1.349 . S
C890 C892 1.327 . S
C890 H915 0.950 . S
C891 C890 1.349 . S
C891 C907 1.349 . S
C892 C890 1.327 . S
C892 C911 1.429 . S
C892 H916 0.950 . S
C893 C910 1.574 . S
C893 C912 1.368 . S
C893 H917 0.949 . S
H894 C898 0.949 . S
C895 C896 1.349 . S
C895 C897 1.327 . S
C895 H918 0.950 . S
C896 C895 1.349 . S
C896 C908 1.349 . S
C897 C895 1.327 . S
C897 C913 1.429 . S
C897 H919 0.950 . S
C898 H894 0.949 . S
C898 C906 1.574 . S
C898 C914 1.368 . S
H899 C907 0.950 . S
H900 C905 0.950 . S
H901 C906 0.949 . S
H902 C908 0.950 . S
H903 C909 0.950 . S
H904 C910 0.949 . S
C905 H900 0.950 . S
C905 C907 1.327 . S
C905 C911 1.429 . S
C906 C898 1.574 . S
C906 H901 0.949 . S
C906 C912 1.368 . S
C907 C891 1.349 . S
C907 H899 0.950 . S
C907 C905 1.327 . S
C908 C896 1.349 . S
C908 H902 0.950 . S
C908 C909 1.327 . S
C909 H903 0.950 . S
C909 C908 1.327 . S
C909 C913 1.429 . S
C910 C893 1.574 . S
C910 H904 0.949 . S
C910 C914 1.368 . S
C911 C892 1.429 . S
C911 C905 1.429 . S
C911 C912 1.523 . S
C912 C893 1.368 . S
C912 C906 1.368 . S
C912 C911 1.523 . S
C913 C897 1.429 . S
C913 C909 1.429 . S
C913 C914 1.523 . S
C914 C898 1.368 . S
C914 C910 1.368 . S
C914 C913 1.523 . S
H915 C890 0.950 . S
H916 C892 0.950 . S
H917 C893 0.949 . S
H918 C895 0.950 . S
H919 C897 0.950 . S
C920 C921 1.349 . S
C920 C922 1.327 . S
C920 H945 0.950 . S
C921 C920 1.349 . S
C921 C937 1.349 . S
C922 C920 1.327 . S
C922 C941 1.429 . S
C922 H946 0.950 . S
C923 C940 1.574 . S
C923 C942 1.368 . S
C923 H947 0.949 . S
H924 C928 0.949 . S
C925 C926 1.349 . S
C925 C927 1.327 . S
C925 H948 0.950 . S
C926 C925 1.349 . S
C926 C938 1.349 . S
C927 C925 1.327 . S
C927 C943 1.429 . S
C927 H949 0.950 . S
C928 H924 0.949 . S
C928 C936 1.574 . S
C928 C944 1.368 . S
H929 C937 0.950 . S
H930 C935 0.950 . S
H931 C936 0.949 . S
H932 C938 0.950 . S
H933 C939 0.950 . S
H934 C940 0.949 . S
C935 H930 0.950 . S
C935 C937 1.327 . S
C935 C941 1.429 . S
C936 C928 1.574 . S
C936 H931 0.949 . S
C936 C942 1.368 . S
C937 C921 1.349 . S
C937 H929 0.950 . S
C937 C935 1.327 . S
C938 C926 1.349 . S
C938 H932 0.950 . S
C938 C939 1.327 . S
C939 H933 0.950 . S
C939 C938 1.327 . S
C939 C943 1.429 . S
C940 C923 1.574 . S
C940 H934 0.949 . S
C940 C944 1.368 . S
C941 C922 1.429 . S
C941 C935 1.429 . S
C941 C942 1.523 . S
C942 C923 1.368 . S
C942 C936 1.368 . S
C942 C941 1.523 . S
C943 C927 1.429 . S
C943 C939 1.429 . S
C943 C944 1.523 . S
C944 C928 1.368 . S
C944 C940 1.368 . S
C944 C943 1.523 . S
H945 C920 0.950 . S
H946 C922 0.950 . S
H947 C923 0.949 . S
H948 C925 0.950 . S
H949 C927 0.950 . S
C950 C951 1.349 . S
C950 C952 1.327 . S
C950 H975 0.950 . S
C951 C950 1.349 . S
C951 C967 1.349 . S
C952 C950 1.327 . S
C952 C971 1.429 . S
C952 H976 0.950 . S
C953 C970 1.574 . S
C953 C972 1.368 . S
C953 H977 0.949 . S
H954 C958 0.949 . S
C955 C956 1.349 . S
C955 C957 1.327 . S
C955 H978 0.950 . S
C956 C955 1.349 . S
C956 C968 1.349 . S
C957 C955 1.327 . S
C957 C973 1.429 . S
C957 H979 0.950 . S
C958 H954 0.949 . S
C958 C966 1.574 . S
C958 C974 1.368 . S
H959 C967 0.950 . S
H960 C965 0.950 . S
H961 C966 0.949 . S
H962 C968 0.950 . S
H963 C969 0.950 . S
H964 C970 0.949 . S
C965 H960 0.950 . S
C965 C967 1.327 . S
C965 C971 1.429 . S
C966 C958 1.574 . S
C966 H961 0.949 . S
C966 C972 1.368 . S
C967 C951 1.349 . S
C967 H959 0.950 . S
C967 C965 1.327 . S
C968 C956 1.349 . S
C968 H962 0.950 . S
C968 C969 1.327 . S
C969 H963 0.950 . S
C969 C968 1.327 . S
C969 C973 1.429 . S
C970 C953 1.574 . S
C970 H964 0.949 . S
C970 C974 1.368 . S
C971 C952 1.429 . S
C971 C965 1.429 . S
C971 C972 1.523 . S
C972 C953 1.368 . S
C972 C966 1.368 . S
C972 C971 1.523 . S
C973 C957 1.429 . S
C973 C969 1.429 . S
C973 C974 1.523 . S
C974 C958 1.368 . S
C974 C970 1.368 . S
C974 C973 1.523 . S
H975 C950 0.950 . S
H976 C952 0.950 . S
H977 C953 0.949 . S
H978 C955 0.950 . S
H979 C957 0.950 . S
C980 C981 1.349 . S
C980 C982 1.327 . S
C980 H1005 0.950 . S
C981 C980 1.349 . S
C981 C997 1.349 . S
C982 C980 1.327 . S
C982 C1001 1.429 . S
C982 H1006 0.950 . S
C983 C1000 1.574 . S
C983 C1002 1.368 . S
C983 H1007 0.949 . S
H984 C988 0.949 . S
C985 C986 1.349 . S
C985 C987 1.327 . S
C985 H1008 0.950 . S
C986 C985 1.349 . S
C986 C998 1.349 . S
C987 C985 1.327 . S
C987 C1003 1.429 . S
C987 H1009 0.950 . S
C988 H984 0.949 . S
C988 C996 1.574 . S
C988 C1004 1.368 . S
H989 C997 0.950 . S
H990 C995 0.950 . S
H991 C996 0.949 . S
H992 C998 0.950 . S
H993 C999 0.950 . S
H994 C1000 0.949 . S
C995 H990 0.950 . S
C995 C997 1.327 . S
C995 C1001 1.429 . S
C996 C988 1.574 . S
C996 H991 0.949 . S
C996 C1002 1.368 . S
C997 C981 1.349 . S
C997 H989 0.950 . S
C997 C995 1.327 . S
C998 C986 1.349 . S
C998 H992 0.950 . S
C998 C999 1.327 . S
C999 H993 0.950 . S
C999 C998 1.327 . S
C999 C1003 1.429 . S
C1000 C983 1.574 . S
C1000 H994 0.949 . S
C1000 C1004 1.368 . S
C1001 C982 1.429 . S
C1001 C995 1.429 . S
C1001 C1002 1.523 . S
C1002 C983 1.368 . S
C1002 C996 1.368 . S
C1002 C1001 1.523 . S
C1003 C987 1.429 . S
C1003 C999 1.429 . S
C1003 C1004 1.523 . S
C1004 C988 1.368 . S
C1004 C1000 1.368 . S
C1004 C1003 1.523 . S
H1005 C980 0.950 . S
H1006 C982 0.950 . S
H1007 C983 0.949 . S
H1008 C985 0.950 . S
H1009 C987 0.950 . S
C1010 C1011 1.349 . S
C1010 C1012 1.327 . S
C1010 H1035 0.958 . S
C1011 C1010 1.349 . S
C1011 C1027 1.349 . S
C1012 C1010 1.327 . S
C1012 C1031 1.429 . S
C1012 H1036 0.950 1_655 S
C1013 C1030 1.574 1_556 S
C1013 C1032 1.368 . S
C1013 H1037 0.949 . S
H1014 C1018 0.949 . S
C1015 C1016 1.349 . S
C1015 C1017 1.327 . S
C1015 H1038 0.961 . S
C1016 C1015 1.349 . S
C1016 C1028 1.349 . S
C1017 C1015 1.327 . S
C1017 C1033 1.429 . S
C1017 H1039 0.950 1_455 S
C1018 H1014 0.949 . S
C1018 C1026 1.574 1_554 S
C1018 C1034 1.368 . S
H1019 C1027 0.950 . S
H1020 C1025 0.950 . S
H1021 C1026 0.949 . S
H1022 C1028 0.950 . S
H1023 C1029 0.950 . S
H1024 C1030 0.949 . S
C1025 H1020 0.950 . S
C1025 C1027 1.327 . S
C1025 C1031 1.429 . S
C1026 C1018 1.574 1_556 S
C1026 H1021 0.949 . S
C1026 C1032 1.368 1_455 S
C1027 C1011 1.349 . S
C1027 H1019 0.950 . S
C1027 C1025 1.327 . S
C1028 C1016 1.349 . S
C1028 H1022 0.950 . S
C1028 C1029 1.327 . S
C1029 H1023 0.950 . S
C1029 C1028 1.327 . S
C1029 C1033 1.429 . S
C1030 C1013 1.574 1_554 S
C1030 H1024 0.949 . S
C1030 C1034 1.368 1_655 S
C1031 C1012 1.429 . S
C1031 C1025 1.429 . S
C1031 C1032 1.523 . S
C1032 C1013 1.368 . S
C1032 C1026 1.368 1_655 S
C1032 C1031 1.523 . S
C1033 C1017 1.429 . S
C1033 C1029 1.429 . S
C1033 C1034 1.523 . S
C1034 C1018 1.368 . S
C1034 C1030 1.368 1_455 S
C1034 C1033 1.523 . S
H1035 C1010 0.958 . S
H1036 C1012 0.950 1_455 S
H1037 C1013 0.949 . S
H1038 C1015 0.961 . S
H1039 C1017 0.950 1_655 S
C321 C2 1.518 . S
C326 C130 1.505 . S
C351 C10 0.775 . S
C356 C50 0.777 . S
C381 C42 1.518 . S
C386 C90 1.515 . S
C411 C82 2.158 . S
C416 C122 2.154 . S
C441 C11 1.518 . S
C446 C219 1.516 . S
C471 C19 0.775 . S
C476 C179 0.774 . S
C501 C171 1.518 . S
C506 C99 1.506 . S
C531 C211 2.158 . S
C536 C91 2.163 . S
C561 C242 1.518 . S
C566 C210 1.512 . S
C591 C170 0.775 . S
C596 C250 0.774 . S
C621 C290 1.510 . S
C626 C162 1.521 . S
C651 C202 2.158 . S
C656 C282 2.161 . S
C681 C139 1.510 . S
C686 C251 1.517 . S
C711 C259 0.775 . S
C716 C59 0.777 . S
C741 C51 1.518 . S
C746 C299 1.508 . S
C771 C131 2.158 . S
C776 C291 2.156 . S
C801 C16 1.482 . S
C806 C7 1.482 . S
C831 C56 1.482 . S
C836 C47 1.482 . S
C861 C96 1.548 . S
C866 C87 1.548 . S
C891 C127 1.548 . S
C896 C136 1.548 . S
C921 C176 1.482 . S
C926 C167 1.482 . S
C951 C207 1.548 . S
C956 C216 1.548 . S
C981 C247 1.482 . S
C986 C256 1.482 . S
C1011 C287 1.548 . S
C1016 C296 1.548 . S
