# Generated by pormake.
# Topology lcs-a, (4)-cn, num edge types: 1
# Building blocks:
#     Node 0, Type 0, BuildingBlock: TATPOV_clean_sbu_0, # of connection points: 4
#     Node 1, Type 0, BuildingBlock: TATPOV_clean_sbu_0, # of connection points: 4
#     Node 2, Type 0, BuildingBlock: TATPOV_clean_sbu_0, # of connection points: 4
#     Node 3, Type 0, BuildingBlock: TATPOV_clean_sbu_0, # of connection points: 4
#     Node 4, Type 0, BuildingBlock: TATPOV_clean_sbu_0, # of connection points: 4
#     Node 5, Type 0, BuildingBlock: TATPOV_clean_sbu_0, # of connection points: 4
#     Node 6, Type 0, BuildingBlock: TATPOV_clean_sbu_0, # of connection points: 4
#     Node 7, Type 0, BuildingBlock: TATPOV_clean_sbu_0, # of connection points: 4
#     Node 8, Type 0, BuildingBlock: TATPOV_clean_sbu_0, # of connection points: 4
#     Node 9, Type 0, BuildingBlock: TATPOV_clean_sbu_0, # of connection points: 4
#     Node 10, Type 0, BuildingBlock: TATPOV_clean_sbu_0, # of connection points: 4
#     Node 11, Type 0, BuildingBlock: TATPOV_clean_sbu_0, # of connection points: 4
#     Node 12, Type 0, BuildingBlock: TATPOV_clean_sbu_0, # of connection points: 4
#     Node 13, Type 0, BuildingBlock: TATPOV_clean_sbu_0, # of connection points: 4
#     Node 14, Type 0, BuildingBlock: TATPOV_clean_sbu_0, # of connection points: 4
#     Node 15, Type 0, BuildingBlock: TATPOV_clean_sbu_0, # of connection points: 4
#     Node 16, Type 0, BuildingBlock: TATPOV_clean_sbu_0, # of connection points: 4
#     Node 17, Type 0, BuildingBlock: TATPOV_clean_sbu_0, # of connection points: 4
#     Node 18, Type 0, BuildingBlock: TATPOV_clean_sbu_0, # of connection points: 4
#     Node 19, Type 0, BuildingBlock: TATPOV_clean_sbu_0, # of connection points: 4
#     Node 20, Type 0, BuildingBlock: TATPOV_clean_sbu_0, # of connection points: 4
#     Node 21, Type 0, BuildingBlock: TATPOV_clean_sbu_0, # of connection points: 4
#     Node 22, Type 0, BuildingBlock: TATPOV_clean_sbu_0, # of connection points: 4
#     Node 23, Type 0, BuildingBlock: TATPOV_clean_sbu_0, # of connection points: 4
#     Node 24, Type 0, BuildingBlock: TATPOV_clean_sbu_0, # of connection points: 4
#     Node 25, Type 0, BuildingBlock: TATPOV_clean_sbu_0, # of connection points: 4
#     Node 26, Type 0, BuildingBlock: TATPOV_clean_sbu_0, # of connection points: 4
#     Node 27, Type 0, BuildingBlock: TATPOV_clean_sbu_0, # of connection points: 4
#     Node 28, Type 0, BuildingBlock: TATPOV_clean_sbu_0, # of connection points: 4
#     Node 29, Type 0, BuildingBlock: TATPOV_clean_sbu_0, # of connection points: 4
#     Node 30, Type 0, BuildingBlock: TATPOV_clean_sbu_0, # of connection points: 4
#     Node 31, Type 0, BuildingBlock: TATPOV_clean_sbu_0, # of connection points: 4
#     Node 32, Type 0, BuildingBlock: TATPOV_clean_sbu_0, # of connection points: 4
#     Node 33, Type 0, BuildingBlock: TATPOV_clean_sbu_0, # of connection points: 4
#     Node 34, Type 0, BuildingBlock: TATPOV_clean_sbu_0, # of connection points: 4
#     Node 35, Type 0, BuildingBlock: TATPOV_clean_sbu_0, # of connection points: 4
#     Node 36, Type 0, BuildingBlock: TATPOV_clean_sbu_0, # of connection points: 4
#     Node 37, Type 0, BuildingBlock: TATPOV_clean_sbu_0, # of connection points: 4
#     Node 38, Type 0, BuildingBlock: TATPOV_clean_sbu_0, # of connection points: 4
#     Node 39, Type 0, BuildingBlock: TATPOV_clean_sbu_0, # of connection points: 4
#     Node 40, Type 0, BuildingBlock: TATPOV_clean_sbu_0, # of connection points: 4
#     Node 41, Type 0, BuildingBlock: TATPOV_clean_sbu_0, # of connection points: 4
#     Node 42, Type 0, BuildingBlock: TATPOV_clean_sbu_0, # of connection points: 4
#     Node 43, Type 0, BuildingBlock: TATPOV_clean_sbu_0, # of connection points: 4
#     Node 44, Type 0, BuildingBlock: TATPOV_clean_sbu_0, # of connection points: 4
#     Node 45, Type 0, BuildingBlock: TATPOV_clean_sbu_0, # of connection points: 4
#     Node 46, Type 0, BuildingBlock: TATPOV_clean_sbu_0, # of connection points: 4
#     Node 47, Type 0, BuildingBlock: TATPOV_clean_sbu_0, # of connection points: 4
#     Node 48, Type 0, BuildingBlock: TATPOV_clean_sbu_0, # of connection points: 4
#     Node 49, Type 0, BuildingBlock: TATPOV_clean_sbu_0, # of connection points: 4
#     Node 50, Type 0, BuildingBlock: TATPOV_clean_sbu_0, # of connection points: 4
#     Node 51, Type 0, BuildingBlock: TATPOV_clean_sbu_0, # of connection points: 4
#     Node 52, Type 0, BuildingBlock: TATPOV_clean_sbu_0, # of connection points: 4
#     Node 53, Type 0, BuildingBlock: TATPOV_clean_sbu_0, # of connection points: 4
#     Node 54, Type 0, BuildingBlock: TATPOV_clean_sbu_0, # of connection points: 4
#     Node 55, Type 0, BuildingBlock: TATPOV_clean_sbu_0, # of connection points: 4
#     Node 56, Type 0, BuildingBlock: TATPOV_clean_sbu_0, # of connection points: 4
#     Node 57, Type 0, BuildingBlock: TATPOV_clean_sbu_0, # of connection points: 4
#     Node 58, Type 0, BuildingBlock: TATPOV_clean_sbu_0, # of connection points: 4
#     Node 59, Type 0, BuildingBlock: TATPOV_clean_sbu_0, # of connection points: 4
#     Node 60, Type 0, BuildingBlock: TATPOV_clean_sbu_0, # of connection points: 4
#     Node 61, Type 0, BuildingBlock: TATPOV_clean_sbu_0, # of connection points: 4
#     Node 62, Type 0, BuildingBlock: TATPOV_clean_sbu_0, # of connection points: 4
#     Node 63, Type 0, BuildingBlock: TATPOV_clean_sbu_0, # of connection points: 4
#     Node 64, Type 0, BuildingBlock: TATPOV_clean_sbu_0, # of connection points: 4
#     Node 65, Type 0, BuildingBlock: TATPOV_clean_sbu_0, # of connection points: 4
#     Node 66, Type 0, BuildingBlock: TATPOV_clean_sbu_0, # of connection points: 4
#     Node 67, Type 0, BuildingBlock: TATPOV_clean_sbu_0, # of connection points: 4
#     Node 68, Type 0, BuildingBlock: TATPOV_clean_sbu_0, # of connection points: 4
#     Node 69, Type 0, BuildingBlock: TATPOV_clean_sbu_0, # of connection points: 4
#     Node 70, Type 0, BuildingBlock: TATPOV_clean_sbu_0, # of connection points: 4
#     Node 71, Type 0, BuildingBlock: TATPOV_clean_sbu_0, # of connection points: 4
#     Node 72, Type 0, BuildingBlock: TATPOV_clean_sbu_0, # of connection points: 4
#     Node 73, Type 0, BuildingBlock: TATPOV_clean_sbu_0, # of connection points: 4
#     Node 74, Type 0, BuildingBlock: TATPOV_clean_sbu_0, # of connection points: 4
#     Node 75, Type 0, BuildingBlock: TATPOV_clean_sbu_0, # of connection points: 4
#     Node 76, Type 0, BuildingBlock: TATPOV_clean_sbu_0, # of connection points: 4
#     Node 77, Type 0, BuildingBlock: TATPOV_clean_sbu_0, # of connection points: 4
#     Node 78, Type 0, BuildingBlock: TATPOV_clean_sbu_0, # of connection points: 4
#     Node 79, Type 0, BuildingBlock: TATPOV_clean_sbu_0, # of connection points: 4
#     Node 80, Type 0, BuildingBlock: TATPOV_clean_sbu_0, # of connection points: 4
#     Node 81, Type 0, BuildingBlock: TATPOV_clean_sbu_0, # of connection points: 4
#     Node 82, Type 0, BuildingBlock: TATPOV_clean_sbu_0, # of connection points: 4
#     Node 83, Type 0, BuildingBlock: TATPOV_clean_sbu_0, # of connection points: 4
#     Node 84, Type 0, BuildingBlock: TATPOV_clean_sbu_0, # of connection points: 4
#     Node 85, Type 0, BuildingBlock: TATPOV_clean_sbu_0, # of connection points: 4
#     Node 86, Type 0, BuildingBlock: TATPOV_clean_sbu_0, # of connection points: 4
#     Node 87, Type 0, BuildingBlock: TATPOV_clean_sbu_0, # of connection points: 4
#     Node 88, Type 0, BuildingBlock: TATPOV_clean_sbu_0, # of connection points: 4
#     Node 89, Type 0, BuildingBlock: TATPOV_clean_sbu_0, # of connection points: 4
#     Node 90, Type 0, BuildingBlock: TATPOV_clean_sbu_0, # of connection points: 4
#     Node 91, Type 0, BuildingBlock: TATPOV_clean_sbu_0, # of connection points: 4
#     Node 92, Type 0, BuildingBlock: TATPOV_clean_sbu_0, # of connection points: 4
#     Node 93, Type 0, BuildingBlock: TATPOV_clean_sbu_0, # of connection points: 4
#     Node 94, Type 0, BuildingBlock: TATPOV_clean_sbu_0, # of connection points: 4
#     Node 95, Type 0, BuildingBlock: TATPOV_clean_sbu_0, # of connection points: 4
#     Edge 96, Type (0, 0), None
#     Edge 97, Type (0, 0), None
#     Edge 98, Type (0, 0), None
#     Edge 99, Type (0, 0), None
#     Edge 100, Type (0, 0), None
#     Edge 101, Type (0, 0), None
#     Edge 102, Type (0, 0), None
#     Edge 103, Type (0, 0), None
#     Edge 104, Type (0, 0), None
#     Edge 105, Type (0, 0), None
#     Edge 106, Type (0, 0), None
#     Edge 107, Type (0, 0), None
#     Edge 108, Type (0, 0), None
#     Edge 109, Type (0, 0), None
#     Edge 110, Type (0, 0), None
#     Edge 111, Type (0, 0), None
#     Edge 112, Type (0, 0), None
#     Edge 113, Type (0, 0), None
#     Edge 114, Type (0, 0), None
#     Edge 115, Type (0, 0), None
#     Edge 116, Type (0, 0), None
#     Edge 117, Type (0, 0), None
#     Edge 118, Type (0, 0), None
#     Edge 119, Type (0, 0), None
#     Edge 120, Type (0, 0), None
#     Edge 121, Type (0, 0), None
#     Edge 122, Type (0, 0), None
#     Edge 123, Type (0, 0), None
#     Edge 124, Type (0, 0), None
#     Edge 125, Type (0, 0), None
#     Edge 126, Type (0, 0), None
#     Edge 127, Type (0, 0), None
#     Edge 128, Type (0, 0), None
#     Edge 129, Type (0, 0), None
#     Edge 130, Type (0, 0), None
#     Edge 131, Type (0, 0), None
#     Edge 132, Type (0, 0), None
#     Edge 133, Type (0, 0), None
#     Edge 134, Type (0, 0), None
#     Edge 135, Type (0, 0), None
#     Edge 136, Type (0, 0), None
#     Edge 137, Type (0, 0), None
#     Edge 138, Type (0, 0), None
#     Edge 139, Type (0, 0), None
#     Edge 140, Type (0, 0), None
#     Edge 141, Type (0, 0), None
#     Edge 142, Type (0, 0), None
#     Edge 143, Type (0, 0), None
#     Edge 144, Type (0, 0), None
#     Edge 145, Type (0, 0), None
#     Edge 146, Type (0, 0), None
#     Edge 147, Type (0, 0), None
#     Edge 148, Type (0, 0), None
#     Edge 149, Type (0, 0), None
#     Edge 150, Type (0, 0), None
#     Edge 151, Type (0, 0), None
#     Edge 152, Type (0, 0), None
#     Edge 153, Type (0, 0), None
#     Edge 154, Type (0, 0), None
#     Edge 155, Type (0, 0), None
#     Edge 156, Type (0, 0), None
#     Edge 157, Type (0, 0), None
#     Edge 158, Type (0, 0), None
#     Edge 159, Type (0, 0), None
#     Edge 160, Type (0, 0), None
#     Edge 161, Type (0, 0), None
#     Edge 162, Type (0, 0), None
#     Edge 163, Type (0, 0), None
#     Edge 164, Type (0, 0), None
#     Edge 165, Type (0, 0), None
#     Edge 166, Type (0, 0), None
#     Edge 167, Type (0, 0), None
#     Edge 168, Type (0, 0), None
#     Edge 169, Type (0, 0), None
#     Edge 170, Type (0, 0), None
#     Edge 171, Type (0, 0), None
#     Edge 172, Type (0, 0), None
#     Edge 173, Type (0, 0), None
#     Edge 174, Type (0, 0), None
#     Edge 175, Type (0, 0), None
#     Edge 176, Type (0, 0), None
#     Edge 177, Type (0, 0), None
#     Edge 178, Type (0, 0), None
#     Edge 179, Type (0, 0), None
#     Edge 180, Type (0, 0), None
#     Edge 181, Type (0, 0), None
#     Edge 182, Type (0, 0), None
#     Edge 183, Type (0, 0), None
#     Edge 184, Type (0, 0), None
#     Edge 185, Type (0, 0), None
#     Edge 186, Type (0, 0), None
#     Edge 187, Type (0, 0), None
#     Edge 188, Type (0, 0), None
#     Edge 189, Type (0, 0), None
#     Edge 190, Type (0, 0), None
#     Edge 191, Type (0, 0), None
#     Edge 192, Type (0, 0), None
#     Edge 193, Type (0, 0), None
#     Edge 194, Type (0, 0), None
#     Edge 195, Type (0, 0), None
#     Edge 196, Type (0, 0), None
#     Edge 197, Type (0, 0), None
#     Edge 198, Type (0, 0), None
#     Edge 199, Type (0, 0), None
#     Edge 200, Type (0, 0), None
#     Edge 201, Type (0, 0), None
#     Edge 202, Type (0, 0), None
#     Edge 203, Type (0, 0), None
#     Edge 204, Type (0, 0), None
#     Edge 205, Type (0, 0), None
#     Edge 206, Type (0, 0), None
#     Edge 207, Type (0, 0), None
#     Edge 208, Type (0, 0), None
#     Edge 209, Type (0, 0), None
#     Edge 210, Type (0, 0), None
#     Edge 211, Type (0, 0), None
#     Edge 212, Type (0, 0), None
#     Edge 213, Type (0, 0), None
#     Edge 214, Type (0, 0), None
#     Edge 215, Type (0, 0), None
#     Edge 216, Type (0, 0), None
#     Edge 217, Type (0, 0), None
#     Edge 218, Type (0, 0), None
#     Edge 219, Type (0, 0), None
#     Edge 220, Type (0, 0), None
#     Edge 221, Type (0, 0), None
#     Edge 222, Type (0, 0), None
#     Edge 223, Type (0, 0), None
#     Edge 224, Type (0, 0), None
#     Edge 225, Type (0, 0), None
#     Edge 226, Type (0, 0), None
#     Edge 227, Type (0, 0), None
#     Edge 228, Type (0, 0), None
#     Edge 229, Type (0, 0), None
#     Edge 230, Type (0, 0), None
#     Edge 231, Type (0, 0), None
#     Edge 232, Type (0, 0), None
#     Edge 233, Type (0, 0), None
#     Edge 234, Type (0, 0), None
#     Edge 235, Type (0, 0), None
#     Edge 236, Type (0, 0), None
#     Edge 237, Type (0, 0), None
#     Edge 238, Type (0, 0), None
#     Edge 239, Type (0, 0), None
#     Edge 240, Type (0, 0), None
#     Edge 241, Type (0, 0), None
#     Edge 242, Type (0, 0), None
#     Edge 243, Type (0, 0), None
#     Edge 244, Type (0, 0), None
#     Edge 245, Type (0, 0), None
#     Edge 246, Type (0, 0), None
#     Edge 247, Type (0, 0), None
#     Edge 248, Type (0, 0), None
#     Edge 249, Type (0, 0), None
#     Edge 250, Type (0, 0), None
#     Edge 251, Type (0, 0), None
#     Edge 252, Type (0, 0), None
#     Edge 253, Type (0, 0), None
#     Edge 254, Type (0, 0), None
#     Edge 255, Type (0, 0), None
#     Edge 256, Type (0, 0), None
#     Edge 257, Type (0, 0), None
#     Edge 258, Type (0, 0), None
#     Edge 259, Type (0, 0), None
#     Edge 260, Type (0, 0), None
#     Edge 261, Type (0, 0), None
#     Edge 262, Type (0, 0), None
#     Edge 263, Type (0, 0), None
#     Edge 264, Type (0, 0), None
#     Edge 265, Type (0, 0), None
#     Edge 266, Type (0, 0), None
#     Edge 267, Type (0, 0), None
#     Edge 268, Type (0, 0), None
#     Edge 269, Type (0, 0), None
#     Edge 270, Type (0, 0), None
#     Edge 271, Type (0, 0), None
#     Edge 272, Type (0, 0), None
#     Edge 273, Type (0, 0), None
#     Edge 274, Type (0, 0), None
#     Edge 275, Type (0, 0), None
#     Edge 276, Type (0, 0), None
#     Edge 277, Type (0, 0), None
#     Edge 278, Type (0, 0), None
#     Edge 279, Type (0, 0), None
#     Edge 280, Type (0, 0), None
#     Edge 281, Type (0, 0), None
#     Edge 282, Type (0, 0), None
#     Edge 283, Type (0, 0), None
#     Edge 284, Type (0, 0), None
#     Edge 285, Type (0, 0), None
#     Edge 286, Type (0, 0), None
#     Edge 287, Type (0, 0), None
# Relax obj value: 0.784
# Max RMSD: 0.373
# Mean RMSD: 0.309
data_MOF--net-lcs-a--node1-TATPOV_clean_sbu_0--edge1-none
_symmetry_space_group_name_H-M    P1
_symmetry_Int_Tables_number       1
_symmetry_cell_setting            triclinic
loop_
_symmetry_equiv_pos_as_xyz
'x, y, z'
_cell_length_a     40.31704
_cell_length_b     40.31627
_cell_length_c     40.317664
_cell_angle_alpha  88.744547
_cell_angle_beta   88.746099
_cell_angle_gamma 88.74338
loop_
_atom_site_label
_atom_site_type_symbol
_atom_site_fract_x
_atom_site_fract_y
_atom_site_fract_z
_atom_type_partial_charge
Zn0 Zn 0.05151 0.18902 0.30034 0.0
Zn1 Zn 0.05789 0.26274 0.3214 0.0
O2 O 0.03685 0.23988 0.36318 0.0
O3 O 0.01157 0.20966 0.32827 0.0
O4 O 0.0562 0.30888 0.33134 0.0
O5 O 0.09396 0.21389 0.28666 0.0
O6 O 0.10728 0.25026 0.32094 0.0
C7 C 0.01452 0.21919 0.35765 0.0
C8 C 0.03263 0.23366 0.25817 0.0
O9 O 0.02916 0.25677 0.27916 0.0
O10 O 0.06007 0.2176 0.25874 0.0
C11 C 0.02959 0.3238 0.3398 0.0
O12 O 0.00083 0.30931 0.33846 0.0
C13 C 0.11136 0.22094 0.3112 0.0
Zn14 Zn 0.01152 0.78398 0.57514 0.0
Zn15 Zn 0.95412 0.76354 0.55726 0.0
O16 O 0.93886 0.7365 0.59767 0.0
O17 O 0.99087 0.74701 0.60666 0.0
O18 O 0.92044 0.76212 0.52327 0.0
O19 O 0.00363 0.83332 0.58644 0.0
O20 O 0.95903 0.81342 0.56792 0.0
C21 C 0.96482 0.73099 0.61426 0.0
C22 C 0.02424 0.73884 0.53227 0.0
O23 O 0.99365 0.73484 0.53953 0.0
O24 O 0.03531 0.76791 0.53361 0.0
C25 C 0.91186 0.73426 0.5129 0.0
O26 O 0.92569 0.70704 0.52516 0.0
C27 C 0.97305 0.82821 0.59138 0.0
Zn28 Zn 0.44697 0.73177 0.78712 0.0
Zn29 Zn 0.44606 0.67719 0.77593 0.0
O30 O 0.48619 0.65234 0.78982 0.0
O31 O 0.49298 0.70493 0.80085 0.0
O32 O 0.41623 0.64563 0.75764 0.0
O33 O 0.41594 0.74269 0.82541 0.0
O34 O 0.43089 0.6903 0.8258 0.0
C35 C 0.50406 0.67476 0.80105 0.0
C36 C 0.45975 0.73513 0.7296 0.0
O37 O 0.46764 0.7055 0.73784 0.0
O38 O 0.43202 0.74551 0.74038 0.0
C39 C 0.42998 0.61916 0.74734 0.0
O40 O 0.46052 0.6197 0.73539 0.0
C41 C 0.41956 0.71566 0.84139 0.0
Zn42 Zn 0.478 0.28277 0.06437 0.0
Zn43 Zn 0.54074 0.2908 0.06409 0.0
O44 O 0.54793 0.30906 0.1101 0.0
O45 O 0.49464 0.31185 0.10248 0.0
O46 O 0.58314 0.2885 0.0414 0.0
O47 O 0.47183 0.23393 0.07732 0.0
O48 O 0.52352 0.24223 0.06587 0.0
C49 C 0.51949 0.31986 0.11904 0.0
C50 C 0.48786 0.33057 0.02488 0.0
O51 O 0.51546 0.32894 0.03954 0.0
O52 O 0.47461 0.30335 0.01836 0.0
C53 C 0.59847 0.31439 0.03261 0.0
O54 O 0.58632 0.34394 0.03958 0.0
C55 C 0.5018 0.22799 0.08453 0.0
Zn56 Zn 0.02302 0.72753 0.24466 0.0
Zn57 Zn 0.0288 0.67488 0.25449 0.0
O58 O 0.01575 0.64428 0.21769 0.0
O59 O 0.01053 0.69718 0.20411 0.0
O60 O 0.04392 0.64966 0.29361 0.0
O61 O 0.06673 0.74959 0.23678 0.0
O62 O 0.06966 0.69648 0.22756 0.0
C63 C 0.00844 0.6668 0.19632 0.0
C64 C 0.96532 0.72222 0.26899 0.0
O65 O 0.98013 0.69425 0.26468 0.0
O66 O 0.9822 0.74838 0.267 0.0
C67 C 0.02262 0.63257 0.30945 0.0
O68 O 0.991 0.63868 0.30445 0.0
C69 C 0.0788 0.72591 0.21985 0.0
Zn70 Zn 0.51583 0.84732 0.36263 0.0
Zn71 Zn 0.55748 0.80885 0.37687 0.0
O72 O 0.55631 0.77192 0.34464 0.0
O73 O 0.51328 0.80347 0.33384 0.0
O74 O 0.59209 0.79281 0.40569 0.0
O75 O 0.53674 0.88854 0.3421 0.0
O76 O 0.57476 0.85101 0.35006 0.0
C77 C 0.53016 0.77701 0.32863 0.0
C78 C 0.48595 0.82017 0.41147 0.0
O79 O 0.51234 0.8037 0.40359 0.0
O80 O 0.48326 0.85002 0.40142 0.0
C81 C 0.58942 0.76382 0.41823 0.0
O82 O 0.56147 0.7479 0.4167 0.0
C83 C 0.55971 0.87062 0.32969 0.0
Zn84 Zn 0.4891 0.33137 0.67572 0.0
Zn85 Zn 0.46535 0.36696 0.71021 0.0
O86 O 0.47994 0.39153 0.66442 0.0
O87 O 0.52667 0.36516 0.66837 0.0
O88 O 0.44044 0.39357 0.74495 0.0
O89 O 0.44532 0.33821 0.64937 0.0
O90 O 0.43235 0.32939 0.70039 0.0
C91 C 0.50903 0.38548 0.65206 0.0
C92 C 0.51122 0.31596 0.73472 0.0
O93 O 0.50789 0.34743 0.73318 0.0
O94 O 0.49171 0.29991 0.71737 0.0
C95 C 0.43946 0.38078 0.77418 0.0
O96 O 0.46596 0.38339 0.79223 0.0
C97 C 0.42718 0.32309 0.67017 0.0
Zn98 Zn 0.95593 0.16085 0.82806 0.0
Zn99 Zn 0.89916 0.19058 0.81844 0.0
O100 O 0.90658 0.23081 0.78907 0.0
O101 O 0.95358 0.20639 0.80035 0.0
O102 O 0.85395 0.19979 0.83366 0.0
O103 O 0.9415 0.11715 0.81057 0.0
O104 O 0.90671 0.15007 0.78589 0.0
C105 C 0.93769 0.23042 0.78681 0.0
C106 C 0.94729 0.18933 0.88346 0.0
O107 O 0.92485 0.19844 0.86303 0.0
O108 O 0.96643 0.16518 0.87631 0.0
C109 C 0.85275 0.22708 0.84913 0.0
O110 O 0.87927 0.24513 0.85131 0.0
C111 C 0.93129 0.1295 0.78359 0.0
Zn112 Zn 0.30059 0.05142 0.18888 0.0
Zn113 Zn 0.32163 0.05779 0.2626 0.0
O114 O 0.36341 0.03674 0.23975 0.0
O115 O 0.3285 0.01146 0.20953 0.0
O116 O 0.3316 0.0561 0.30873 0.0
O117 O 0.28693 0.09388 0.21373 0.0
O118 O 0.32119 0.10719 0.25013 0.0
C119 C 0.35787 0.0144 0.21907 0.0
C120 C 0.25841 0.03255 0.23352 0.0
O121 O 0.27938 0.02908 0.25664 0.0
O122 O 0.25899 0.05999 0.21746 0.0
C123 C 0.33999 0.02947 0.32366 0.0
O124 O 0.33853 0.0007 0.3092 0.0
C125 C 0.31147 0.11128 0.2208 0.0
Zn126 Zn 0.28285 0.06437 0.47826 0.0
Zn127 Zn 0.29093 0.06421 0.54065 0.0
O128 O 0.30921 0.11023 0.54782 0.0
O129 O 0.31203 0.10256 0.49454 0.0
O130 O 0.28869 0.04147 0.58305 0.0
O131 O 0.23408 0.07734 0.47189 0.0
O132 O 0.24224 0.06614 0.52367 0.0
C133 C 0.32001 0.11916 0.51938 0.0
C134 C 0.33071 0.025 0.48769 0.0
O135 O 0.32905 0.03968 0.51528 0.0
O136 O 0.30351 0.01844 0.47441 0.0
C137 C 0.31457 0.03266 0.59838 0.0
O138 O 0.34413 0.03965 0.58626 0.0
C139 C 0.22804 0.08467 0.50181 0.0
Zn140 Zn 0.20894 0.94864 0.69743 0.0
Zn141 Zn 0.21676 0.89714 0.7646 0.0
O142 O 0.19035 0.93523 0.78724 0.0
O143 O 0.19002 0.9678 0.74251 0.0
O144 O 0.22179 0.86237 0.79726 0.0
O145 O 0.20944 0.89855 0.6913 0.0
O146 O 0.18596 0.87436 0.73285 0.0
C147 C 0.18386 0.96327 0.77333 0.0
C148 C 0.26622 0.92867 0.72381 0.0
O149 O 0.26304 0.91566 0.7525 0.0
O150 O 0.2484 0.91646 0.70187 0.0
C151 C 0.23552 0.86927 0.82382 0.0
O152 O 0.24949 0.89814 0.82687 0.0
C153 C 0.18348 0.88558 0.70358 0.0
Zn154 Zn 0.25842 0.87669 0.97684 0.0
Zn155 Zn 0.23481 0.8975 0.02766 0.0
O156 O 0.20574 0.86026 0.04234 0.0
O157 O 0.22922 0.8387 -0.00201 0.0
O158 O 0.22988 0.92975 0.06341 0.0
O159 O 0.30691 0.87085 0.98376 0.0
O160 O 0.28182 0.8739 0.03221 0.0
C161 C 0.21016 0.83582 0.02349 0.0
C162 C 0.21193 0.91038 0.95567 0.0
O163 O 0.21126 0.91858 0.98608 0.0
O164 O 0.24023 0.90804 0.94181 0.0
C165 C 0.20496 0.94904 0.06802 0.0
O166 O 0.18049 0.95026 0.04708 0.0
C167 C 0.30517 0.86169 0.01395 0.0
Zn168 Zn 0.29029 0.96349 0.17836 0.0
Zn169 Zn 0.26062 0.97985 0.13749 0.0
O170 O 0.27629 0.01911 0.11009 0.0
O171 O 0.31028 0.00487 0.15022 0.0
O172 O 0.22047 0.95911 0.12094 0.0
O173 O 0.31944 0.92343 0.17111 0.0
O174 O 0.30302 0.94793 0.12513 0.0
C175 C 0.30299 0.02373 0.1255 0.0
C176 C 0.25542 0.00259 0.21298 0.0
O177 O 0.25042 0.00684 0.18191 0.0
O178 O 0.26934 0.97573 0.22266 0.0
C179 C 0.20581 0.97117 0.09586 0.0
O180 O 0.20716 0.00316 0.08945 0.0
C181 C 0.32464 0.92999 0.14054 0.0
Zn182 Zn 0.38324 0.0927 0.44718 0.0
Zn183 Zn 0.36117 0.08451 0.39943 0.0
O184 O 0.31603 0.10617 0.39208 0.0
O185 O 0.33602 0.11717 0.4403 0.0
O186 O 0.37053 0.05755 0.36047 0.0
O187 O 0.41923 0.12578 0.44754 0.0
O188 O 0.38888 0.13026 0.40311 0.0
C189 C 0.31283 0.12062 0.4196 0.0
C190 C 0.35613 0.03951 0.46531 0.0
O191 O 0.34635 0.05075 0.43734 0.0
O192 O 0.38169 0.05184 0.47744 0.0
C193 C 0.35232 0.03261 0.35657 0.0
O194 O 0.33381 0.02138 0.38133 0.0
C195 C 0.4069 0.144 0.42476 0.0
Zn196 Zn 0.2448 0.02295 0.72739 0.0
Zn197 Zn 0.25473 0.02873 0.67471 0.0
O198 O 0.21796 0.01566 0.64408 0.0
O199 O 0.20433 0.01042 0.69697 0.0
O200 O 0.29388 0.04382 0.64951 0.0
O201 O 0.23704 0.06675 0.74937 0.0
O202 O 0.22782 0.06963 0.69626 0.0
C203 C 0.19657 0.00832 0.66658 0.0
C204 C 0.26917 0.96528 0.7221 0.0
O205 O 0.26491 0.98008 0.69413 0.0
O206 O 0.26708 0.98212 0.74827 0.0
C207 C 0.3097 0.0225 0.63244 0.0
O208 O 0.30464 0.99088 0.63847 0.0
C209 C 0.2201 0.07878 0.72569 0.0
Zn210 Zn 0.16097 0.828 0.95615 0.0
Zn211 Zn 0.19067 0.81856 0.89893 0.0
O212 O 0.23092 0.78915 0.90628 0.0
O213 O 0.20647 0.80031 0.95327 0.0
O214 O 0.19995 0.83394 0.85375 0.0
O215 O 0.11733 0.81076 0.94123 0.0
O216 O 0.15017 0.78599 0.90644 0.0
C217 C 0.23049 0.78679 0.93737 0.0
C218 C 0.18948 0.88343 0.94738 0.0
O219 O 0.19842 0.86307 0.9248 0.0
O220 O 0.16549 0.87623 0.96671 0.0
C221 C 0.22728 0.84936 0.8527 0.0
O222 O 0.24522 0.85143 0.87932 0.0
C223 C 0.12961 0.78374 0.93103 0.0
Zn224 Zn 0.18908 0.30046 0.05127 0.0
Zn225 Zn 0.26281 0.32154 0.05764 0.0
O226 O 0.23994 0.36331 0.03659 0.0
O227 O 0.20972 0.32839 0.01132 0.0
O228 O 0.30893 0.33151 0.05595 0.0
O229 O 0.21398 0.28681 0.0937 0.0
O230 O 0.25034 0.3211 0.10703 0.0
C231 C 0.21926 0.35777 0.01426 0.0
C232 C 0.23375 0.25831 0.0324 0.0
O233 O 0.25687 0.27929 0.02893 0.0
O234 O 0.2177 0.25888 0.05984 0.0
C235 C 0.32385 0.33994 0.02932 0.0
O236 O 0.30938 0.33851 0.00056 0.0
C237 C 0.22101 0.31137 0.11109 0.0
Zn238 Zn 0.69894 0.20892 0.94904 0.0
Zn239 Zn 0.76489 0.21573 0.89684 0.0
O240 O 0.78781 0.18915 0.93459 0.0
O241 O 0.74434 0.19149 0.96867 0.0
O242 O 0.7974 0.22111 0.86208 0.0
O243 O 0.69239 0.20887 0.89896 0.0
O244 O 0.73318 0.18504 0.87395 0.0
C245 C 0.7749 0.18453 0.96343 0.0
C246 C 0.72408 0.26585 0.92846 0.0
O247 O 0.75288 0.26191 0.91586 0.0
O248 O 0.702 0.2481 0.91641 0.0
C249 C 0.82379 0.2351 0.86901 0.0
O250 O 0.82672 0.24902 0.89792 0.0
C251 C 0.70414 0.1828 0.88576 0.0
Zn252 Zn 0.06473 0.4776 0.28249 0.0
Zn253 Zn 0.06433 0.5408 0.29077 0.0
O254 O 0.11032 0.54793 0.30906 0.0
O255 O 0.10286 0.49459 0.3114 0.0
O256 O 0.04158 0.58318 0.28846 0.0
O257 O 0.07727 0.47188 0.23343 0.0
O258 O 0.06593 0.52345 0.24228 0.0
C259 C 0.11933 0.51944 0.31964 0.0
C260 C 0.0252 0.48788 0.33043 0.0
O261 O 0.03985 0.51548 0.32886 0.0
O262 O 0.01872 0.47466 0.30318 0.0
C263 C 0.03275 0.59851 0.31434 0.0
O264 O 0.03979 0.58643 0.3439 0.0
C265 C 0.08462 0.50187 0.22787 0.0
Zn266 Zn 0.73186 0.78723 0.44674 0.0
Zn267 Zn 0.67728 0.77607 0.44584 0.0
O268 O 0.65243 0.78997 0.48596 0.0
O269 O 0.70503 0.80097 0.49275 0.0
O270 O 0.64576 0.75775 0.416 0.0
O271 O 0.74279 0.82551 0.41572 0.0
O272 O 0.69041 0.82593 0.43066 0.0
C273 C 0.67486 0.80118 0.50383 0.0
C274 C 0.73521 0.72971 0.45955 0.0
O275 O 0.70559 0.73798 0.46745 0.0
O276 O 0.74558 0.74048 0.43181 0.0
C277 C 0.61929 0.74741 0.42973 0.0
O278 O 0.61977 0.73554 0.46029 0.0
C279 C 0.71577 0.8415 0.41933 0.0
Zn280 Zn 0.82824 0.95612 0.16072 0.0
Zn281 Zn 0.81862 0.89905 0.19038 0.0
O282 O 0.78922 0.90646 0.23061 0.0
O283 O 0.80057 0.95346 0.20626 0.0
O284 O 0.8339 0.85383 0.19966 0.0
O285 O 0.81086 0.94146 0.11704 0.0
O286 O 0.7861 0.90663 0.14986 0.0
C287 C 0.787 0.93756 0.23027 0.0
C288 C 0.88364 0.94725 0.18919 0.0
O289 O 0.8632 0.92478 0.1982 0.0
O290 O 0.8765 0.96651 0.16513 0.0
C291 C 0.84933 0.85274 0.22699 0.0
O292 O 0.85141 0.87934 0.24496 0.0
C293 C 0.78385 0.93125 0.12933 0.0
Zn294 Zn 0.30541 0.6767 0.5395 0.0
Zn295 Zn 0.2382 0.71053 0.56801 0.0
O296 O 0.21205 0.69072 0.53124 0.0
O297 O 0.25996 0.66816 0.51621 0.0
O298 O 0.20479 0.73286 0.5952 0.0
O299 O 0.30464 0.68201 0.58969 0.0
O300 O 0.2538 0.66786 0.59308 0.0
C301 C 0.22891 0.67239 0.5118 0.0
C302 C 0.30093 0.73941 0.54427 0.0
O303 O 0.2697 0.74393 0.54447 0.0
O304 O 0.31156 0.719 0.56599 0.0
C305 C 0.1831 0.74611 0.57673 0.0
O306 O 0.19174 0.7568 0.54684 0.0
C307 C 0.28405 0.65934 0.59568 0.0
Zn308 Zn 0.09283 0.44731 0.38303 0.0
Zn309 Zn 0.08466 0.39956 0.361 0.0
O310 O 0.1064 0.39213 0.31592 0.0
O311 O 0.11734 0.44041 0.33584 0.0
O312 O 0.05768 0.36061 0.37035 0.0
O313 O 0.1259 0.44772 0.41903 0.0
O314 O 0.13039 0.40325 0.38874 0.0
C315 C 0.12084 0.41964 0.3127 0.0
C316 C 0.03972 0.46546 0.35582 0.0
O317 O 0.05096 0.43749 0.34605 0.0
O318 O 0.05199 0.47757 0.38143 0.0
C319 C 0.03275 0.35672 0.35212 0.0
O320 O 0.02156 0.38147 0.33357 0.0
C321 C 0.14413 0.42493 0.40673 0.0
Zn322 Zn 0.36287 0.5157 0.84721 0.0
Zn323 Zn 0.37713 0.55735 0.80876 0.0
O324 O 0.34492 0.55619 0.77181 0.0
O325 O 0.33408 0.51317 0.80336 0.0
O326 O 0.40598 0.59196 0.79274 0.0
O327 O 0.34233 0.5366 0.88843 0.0
O328 O 0.35029 0.57463 0.85091 0.0
C329 C 0.32889 0.53006 0.77689 0.0
C330 C 0.41171 0.48581 0.82007 0.0
O331 O 0.40384 0.5122 0.80361 0.0
O332 O 0.40164 0.48311 0.84992 0.0
C333 C 0.41853 0.58928 0.76377 0.0
O334 O 0.41701 0.56133 0.74784 0.0
C335 C 0.32992 0.55958 0.87051 0.0
Zn336 Zn 0.01488 0.6963 0.7071 0.0
Zn337 Zn 0.96523 0.67904 0.69946 0.0
O338 O 0.94184 0.69428 0.65732 0.0
O339 O 0.99287 0.71019 0.66062 0.0
O340 O 0.93294 0.65117 0.72442 0.0
O341 O 0.05158 0.66239 0.70224 0.0
O342 O 0.00636 0.64961 0.67663 0.0
C343 C 0.96613 0.70978 0.64465 0.0
C344 C 0.98997 0.74792 0.73193 0.0
O345 O 0.968 0.72853 0.72073 0.0
O346 O 0.01955 0.7371 0.73435 0.0
C347 C 0.90379 0.65407 0.71329 0.0
O348 O 0.88597 0.68075 0.72028 0.0
C349 C 0.03816 0.64707 0.67918 0.0
Zn350 Zn 0.08978 0.1582 0.38212 0.0
Zn351 Zn 0.10775 0.11678 0.35217 0.0
O352 O 0.07702 0.10062 0.31781 0.0
O353 O 0.05508 0.14178 0.3469 0.0
O354 O 0.15275 0.09668 0.35627 0.0
O355 O 0.10753 0.20242 0.36759 0.0
O356 O 0.11403 0.16461 0.32943 0.0
C357 C 0.05281 0.12069 0.3239 0.0
C358 C 0.06909 0.11643 0.42237 0.0
O359 O 0.0784 0.1033 0.39499 0.0
O360 O 0.08156 0.14382 0.4297 0.0
C361 C 0.16265 0.10238 0.3852 0.0
O362 O 0.14829 0.08713 0.41061 0.0
C363 C 0.11337 0.19507 0.33758 0.0
Zn364 Zn 0.44759 0.34032 0.20217 0.0
Zn365 Zn 0.49837 0.35427 0.20878 0.0
O366 O 0.53257 0.34517 0.17156 0.0
O367 O 0.48142 0.3339 0.1608 0.0
O368 O 0.52216 0.37142 0.24694 0.0
O369 O 0.41459 0.37688 0.19347 0.0
O370 O 0.466 0.39114 0.1828 0.0
C371 C 0.51161 0.33495 0.15143 0.0
C372 C 0.46268 0.28306 0.22322 0.0
O373 O 0.4879 0.30197 0.21976 0.0
O374 O 0.4339 0.29596 0.22118 0.0
C375 C 0.55314 0.3727 0.24131 0.0
O376 O 0.57234 0.34896 0.25359 0.0
C377 C 0.43468 0.39546 0.17773 0.0
Zn378 Zn 0.48604 0.73861 0.85726 0.0
Zn379 Zn 0.44441 0.77549 0.91248 0.0
O380 O 0.4456 0.81148 0.87443 0.0
O381 O 0.49405 0.78984 0.86379 0.0
O382 O 0.42707 0.79053 0.95754 0.0
O383 O 0.45382 0.70936 0.88601 0.0
O384 O 0.41213 0.74237 0.89202 0.0
C385 C 0.47194 0.81117 0.8563 0.0
C386 C 0.50754 0.73222 0.91561 0.0
O387 O 0.4943 0.76047 0.9219 0.0
O388 O 0.4886 0.712 0.90217 0.0
C389 C 0.4027 0.77996 0.97511 0.0
O390 O 0.39926 0.78972 0.00591 0.0
C391 C 0.42465 0.71728 0.87754 0.0
Zn392 Zn 0.0315 0.28609 0.77077 0.0
Zn393 Zn 0.98598 0.31087 0.75485 0.0
O394 O 0.94402 0.28508 0.76105 0.0
O395 O 0.98803 0.25716 0.77855 0.0
O396 O 0.98042 0.35924 0.74195 0.0
O397 O 0.04882 0.30356 0.81336 0.0
O398 O -0.00395 0.31463 0.80667 0.0
C399 C 0.95689 0.25873 0.77385 0.0
C400 C 0.037 0.2598 0.71653 0.0
O401 O 0.00986 0.27722 0.71897 0.0
O402 O 0.06063 0.26668 0.73521 0.0
C403 C 0.96095 0.37581 0.761 0.0
O404 O 0.93572 0.36058 0.77512 0.0
C405 C 0.02094 0.31222 0.82581 0.0
Zn406 Zn 0.4737 0.26752 0.62888 0.0
Zn407 Zn 0.43425 0.23743 0.6136 0.0
O408 O 0.46066 0.21242 0.65231 0.0
O409 O 0.50032 0.22276 0.61858 0.0
O410 O 0.39669 0.21167 0.59686 0.0
O411 O 0.44635 0.2702 0.67333 0.0
O412 O 0.41331 0.2812 0.63349 0.0
C413 C 0.49193 0.21298 0.64721 0.0
C414 C 0.47555 0.28058 0.56994 0.0
O415 O 0.46751 0.25017 0.57306 0.0
O416 O 0.4608 0.29978 0.58982 0.0
C417 C 0.39422 0.21449 0.56564 0.0
O418 O 0.41983 0.20538 0.54704 0.0
C419 C 0.42319 0.28828 0.66226 0.0
Zn420 Zn 0.4581 0.73893 0.25794 0.0
Zn421 Zn 0.49778 0.69559 0.27667 0.0
O422 O 0.52427 0.72178 0.30878 0.0
O423 O 0.49365 0.76131 0.28715 0.0
O424 O 0.51699 0.64905 0.28187 0.0
O425 O 0.41369 0.72597 0.27902 0.0
O426 O 0.44919 0.68918 0.29592 0.0
C427 C 0.51719 0.75236 0.30591 0.0
C428 C 0.49643 0.74273 0.21173 0.0
O429 O 0.50961 0.71884 0.22913 0.0
O430 O 0.46528 0.74273 0.20882 0.0
C431 C 0.5202 0.63769 0.31149 0.0
O432 O 0.51288 0.65688 0.33663 0.0
C433 C 0.42478 0.70872 0.30302 0.0
Zn434 Zn 0.01294 0.73595 0.15072 0.0
Zn435 Zn 0.05635 0.773 0.13783 0.0
O436 O 0.01749 0.79092 0.17065 0.0
O437 O 0.98678 0.77875 0.13163 0.0
O438 O 0.07406 0.80725 0.10558 0.0
O439 O 0.06141 0.71728 0.16626 0.0
O440 O 0.08866 0.76179 0.17386 0.0
C441 C 0.98797 0.7893 0.16072 0.0
C442 C 0.01867 0.73701 0.09132 0.0
O443 O 0.04645 0.7313 0.10493 0.0
O444 O 0.00172 0.76001 0.10449 0.0
C445 C 0.09594 0.79593 0.08532 0.0
O446 O 0.10307 0.81279 0.05797 0.0
C447 C 0.08159 0.73281 0.18374 0.0
Zn448 Zn 0.70742 0.01477 0.69621 0.0
Zn449 Zn 0.6997 0.96517 0.67886 0.0
O450 O 0.65746 0.94184 0.69396 0.0
O451 O 0.66088 0.99282 0.70995 0.0
O452 O 0.72451 0.93291 0.65088 0.0
O453 O 0.70262 0.05156 0.6624 0.0
O454 O 0.67699 0.0064 0.64947 0.0
C455 C 0.64482 0.96615 0.70946 0.0
C456 C 0.73207 0.98971 0.74787 0.0
O457 O 0.72089 0.96779 0.72842 0.0
O458 O 0.73458 0.0193 0.7371 0.0
C459 C 0.7134 0.90377 0.65399 0.0
O460 O 0.72002 0.88631 0.68099 0.0
C461 C 0.67958 0.03821 0.64699 0.0
Zn462 Zn 0.73869 0.85736 0.48577 0.0
Zn463 Zn 0.77564 0.91254 0.44416 0.0
O464 O 0.81161 0.87447 0.44535 0.0
O465 O 0.78994 0.86379 0.49378 0.0
O466 O 0.79066 0.95762 0.42683 0.0
O467 O 0.70948 0.88616 0.45355 0.0
O468 O 0.7425 0.89211 0.41188 0.0
C469 C 0.81129 0.85633 0.47167 0.0
C470 C 0.73238 0.91572 0.50729 0.0
O471 O 0.76064 0.92197 0.49404 0.0
O472 O 0.71213 0.90231 0.48835 0.0
C473 C 0.78002 0.97518 0.40248 0.0
O474 O 0.78972 0.00599 0.39903 0.0
C475 C 0.71741 0.87766 0.42439 0.0
Zn476 Zn 0.73365 -0.0048 0.1824 0.0
Zn477 Zn 0.75538 0.03738 0.15566 0.0
O478 O 0.80074 0.05064 0.16954 0.0
O479 O 0.7814 0.00925 0.19897 0.0
O480 O 0.74357 0.06888 0.11878 0.0
O481 O 0.73665 0.95154 0.15958 0.0
O482 O 0.76916 0.98882 0.13622 0.0
C483 C 0.80468 0.02912 0.19244 0.0
C484 C 0.70973 0.0329 0.22401 0.0
O485 O 0.72915 0.04793 0.20301 0.0
O486 O 0.69787 0.00549 0.21587 0.0
C487 C 0.76318 0.09234 0.11152 0.0
O488 O 0.75935 0.12 0.12779 0.0
C489 C 0.76059 0.95835 0.13999 0.0
Zn490 Zn 0.70477 0.11047 0.94939 0.0
Zn491 Zn 0.65307 0.11421 0.95876 0.0
O492 O 0.63366 0.1522 0.98543 0.0
O493 O 0.68867 0.15071 0.98113 0.0
O494 O 0.63082 0.0827 0.92735 0.0
O495 O 0.71945 0.12843 0.9047 0.0
O496 O 0.67142 0.14891 0.92186 0.0
C497 C 0.66183 0.16445 0.99214 0.0
C498 C 0.71058 0.07644 -0.00162 0.0
O499 O 0.68205 0.09104 -0.00089 0.0
O500 O 0.72107 0.06692 0.9703 0.0
C501 C 0.6489 0.05778 0.91891 0.0
O502 O 0.67037 0.04543 0.9399 0.0
C503 C 0.69707 0.15097 0.90292 0.0
Zn504 Zn 0.6733 0.96069 0.77441 0.0
Zn505 Zn 0.68392 0.02076 0.82491 0.0
O506 O 0.66718 0.05738 0.7941 0.0
O507 O 0.6625 0.01219 0.76571 0.0
O508 O 0.67963 0.0348 0.87322 0.0
O509 O 0.6326 0.9402 0.79989 0.0
O510 O 0.64837 0.98621 0.82086 0.0
C511 C 0.65896 0.0434 0.76767 0.0
C512 C 0.73382 0.98237 0.78438 0.0
O513 O 0.73061 0.00743 0.8033 0.0
O514 O 0.71905 0.95642 0.79424 0.0
C515 C 0.65272 0.04882 0.88373 0.0
O516 O 0.6297 0.05758 0.86252 0.0
C517 C 0.62609 0.96462 0.81835 0.0
Zn518 Zn 0.7231 0.84018 0.53774 0.0
Zn519 Zn 0.69902 0.85213 0.58515 0.0
O520 O 0.67052 0.81746 0.55966 0.0
O521 O 0.67616 0.85379 0.52079 0.0
O522 O 0.68051 0.86455 0.62954 0.0
O523 O 0.7292 0.79367 0.56158 0.0
O524 O 0.74601 0.83035 0.59419 0.0
C525 C 0.66621 0.82558 0.52931 0.0
C526 C 0.73258 0.9013 0.54145 0.0
O527 O 0.70456 0.89609 0.55566 0.0
O528 O 0.75456 0.87912 0.54638 0.0
C529 C 0.68453 0.89508 0.63478 0.0
O530 O 0.67337 0.917 0.61294 0.0
C531 C 0.75135 0.80237 0.58075 0.0
Zn532 Zn 0.77101 0.03135 0.28599 0.0
Zn533 Zn 0.75509 0.98581 0.31078 0.0
O534 O 0.76127 0.94388 0.28494 0.0
O535 O 0.77875 0.9879 0.25704 0.0
O536 O 0.7422 0.98025 0.35914 0.0
O537 O 0.81362 0.04864 0.30345 0.0
O538 O 0.80692 -0.00413 0.31451 0.0
C539 C 0.77405 0.95676 0.25859 0.0
C540 C 0.71674 0.03688 0.25982 0.0
O541 O 0.71918 0.00972 0.27721 0.0
O542 O 0.73541 0.06051 0.26668 0.0
C543 C 0.76126 0.96078 0.3757 0.0
O544 O 0.77544 0.93557 0.36048 0.0
C545 C 0.82607 0.02075 0.31211 0.0
Zn546 Zn 0.73659 0.15278 0.01313 0.0
Zn547 Zn 0.77365 0.13823 0.05602 0.0
O548 O 0.79233 0.17099 0.0174 0.0
O549 O 0.77885 0.13243 0.98668 0.0
O550 O 0.80751 0.10571 0.07415 0.0
O551 O 0.71755 0.16598 0.06202 0.0
O552 O 0.76224 0.17432 0.08845 0.0
C553 C 0.79023 0.1612 0.98788 0.0
C554 C 0.73669 0.0924 0.01741 0.0
O555 O 0.73192 0.10541 0.04562 0.0
O556 O 0.75846 0.1064 -0.00047 0.0
C557 C 0.79596 0.08548 0.09595 0.0
O558 O 0.81262 0.058 0.10307 0.0
C559 C 0.73308 0.18392 0.08178 0.0
Zn560 Zn 0.69639 0.70723 0.01467 0.0
Zn561 Zn 0.67913 0.69957 0.96502 0.0
O562 O 0.69437 0.65742 0.94165 0.0
O563 O 0.71028 0.66074 0.99267 0.0
O564 O 0.65121 0.72445 0.93273 0.0
O565 O 0.66249 0.70236 0.05138 0.0
O566 O 0.64972 0.67674 0.00615 0.0
C567 C 0.70987 0.64476 0.96595 0.0
C568 C 0.74801 0.73205 0.98976 0.0
O569 O 0.72863 0.72086 0.96779 0.0
O570 O 0.73719 0.73447 0.01935 0.0
C571 C 0.65418 0.71331 0.90359 0.0
O572 O 0.68098 0.72015 0.88589 0.0
C573 C 0.64717 0.67929 0.03796 0.0
Zn574 Zn 0.18252 0.73341 -0.00496 0.0
Zn575 Zn 0.15579 0.7552 0.03719 0.0
O576 O 0.16972 0.80056 0.05042 0.0
O577 O 0.19915 0.78113 0.00907 0.0
O578 O 0.11869 0.74365 0.06854 0.0
O579 O 0.15977 0.73647 0.95134 0.0
O580 O 0.13644 0.76902 0.98859 0.0
C581 C 0.19264 0.80444 0.02892 0.0
C582 C 0.22414 0.70955 0.03278 0.0
O583 O 0.20309 0.72892 0.04782 0.0
O584 O 0.21604 0.6977 0.00536 0.0
C585 C 0.11174 0.76325 0.09208 0.0
O586 O 0.1286 0.75969 0.11941 0.0
C587 C 0.14022 0.76045 0.95812 0.0
Zn588 Zn 0.85748 0.48593 0.73847 0.0
Zn589 Zn 0.91268 0.44429 0.77536 0.0
O590 O 0.87461 0.44549 0.81134 0.0
O591 O 0.86395 0.49394 0.78971 0.0
O592 O 0.95775 0.42695 0.79038 0.0
O593 O 0.88625 0.45369 0.70928 0.0
O594 O 0.89223 0.41202 0.74222 0.0
C595 C 0.85648 0.47182 0.81104 0.0
C596 C 0.91585 0.50743 0.73211 0.0
O597 O 0.92211 0.49418 0.76036 0.0
O598 O 0.9024 0.48849 0.71188 0.0
C599 C 0.97532 0.4026 0.77977 0.0
O600 O 0.00613 0.39916 0.78949 0.0
C601 C 0.87774 0.42453 0.71716 0.0
Zn602 Zn 0.34046 0.20224 0.44741 0.0
Zn603 Zn 0.3544 0.20891 0.4982 0.0
O604 O 0.34529 0.17171 0.53242 0.0
O605 O 0.33407 0.16089 0.48127 0.0
O606 O 0.37135 0.24719 0.52197 0.0
O607 O 0.37704 0.19359 0.41441 0.0
O608 O 0.3913 0.18295 0.46585 0.0
C609 C 0.3351 0.15155 0.51147 0.0
C610 C 0.2832 0.22332 0.46247 0.0
O611 O 0.30211 0.21986 0.48769 0.0
O612 O 0.2961 0.22126 0.43369 0.0
C613 C 0.37286 0.2416 0.55295 0.0
O614 O 0.34954 0.25431 0.57236 0.0
C615 C 0.39562 0.17789 0.43452 0.0
Zn616 Zn 0.15035 0.0127 0.73562 0.0
Zn617 Zn 0.13799 0.05629 0.77268 0.0
O618 O 0.17084 0.01739 0.79036 0.0
O619 O 0.1317 0.98657 0.77856 0.0
O620 O 0.10587 0.07388 0.80707 0.0
O621 O 0.16664 0.061 0.71708 0.0
O622 O 0.17399 0.08857 0.76149 0.0
C623 C 0.16086 0.98787 0.7889 0.0
C624 C 0.0913 0.01887 0.73696 0.0
O625 O 0.10505 0.04654 0.73102 0.0
O626 O 0.10422 0.00218 0.76029 0.0
C627 C 0.0856 0.0958 0.79584 0.0
O628 O 0.05831 0.10294 0.81279 0.0
C629 C 0.18397 0.08135 0.73258 0.0
Zn630 Zn 0.81442 0.26095 0.52894 0.0
Zn631 Zn 0.85188 0.24194 0.49488 0.0
O632 O 0.85773 0.2647 0.44856 0.0
O633 O 0.81939 0.28621 0.48045 0.0
O634 O 0.88912 0.2107 0.50377 0.0
O635 O 0.83151 0.28704 0.56672 0.0
O636 O 0.86617 0.28331 0.52429 0.0
C637 C 0.83519 0.28674 0.45298 0.0
C638 C 0.77614 0.21754 0.51025 0.0
O639 O 0.80216 0.21987 0.49114 0.0
O640 O 0.77681 0.23044 0.53839 0.0
C641 C 0.89534 0.18661 0.48517 0.0
O642 O 0.87314 0.17839 0.4636 0.0
C643 C 0.85689 0.29743 0.55122 0.0
Zn644 Zn 0.84031 0.53791 0.72285 0.0
Zn645 Zn 0.85231 0.58531 0.69874 0.0
O646 O 0.81761 0.55981 0.67026 0.0
O647 O 0.85391 0.52096 0.67592 0.0
O648 O 0.86478 0.62968 0.68013 0.0
O649 O 0.79381 0.56178 0.72893 0.0
O650 O 0.83051 0.59438 0.74574 0.0
C651 C 0.82568 0.52944 0.66598 0.0
C652 C 0.90145 0.5416 0.73232 0.0
O653 O 0.89625 0.55582 0.70429 0.0
O654 O 0.87926 0.54654 0.75429 0.0
C655 C 0.89527 0.63501 0.68425 0.0
O656 O 0.9173 0.61327 0.67309 0.0
C657 C 0.80253 0.58094 0.75108 0.0
Zn658 Zn 0.62913 0.47363 0.26739 0.0
Zn659 Zn 0.61389 0.43418 0.23731 0.0
O660 O 0.65259 0.46059 0.2123 0.0
O661 O 0.61883 0.50023 0.22262 0.0
O662 O 0.59716 0.39657 0.21163 0.0
O663 O 0.67357 0.44628 0.27011 0.0
O664 O 0.63377 0.41325 0.28108 0.0
C665 C 0.64746 0.49186 0.21285 0.0
C666 C 0.5702 0.47546 0.28044 0.0
O667 O 0.57333 0.46743 0.25004 0.0
O668 O 0.59006 0.46071 0.29965 0.0
C669 C 0.56593 0.3942 0.21437 0.0
O670 O 0.5474 0.41991 0.2054 0.0
C671 C 0.66253 0.42313 0.2882 0.0
Zn672 Zn 0.50561 0.77283 0.79441 0.0
Zn673 Zn 0.5137 0.81669 0.75994 0.0
O674 O 0.49489 0.83244 0.80676 0.0
O675 O 0.45937 0.79383 0.80477 0.0
O676 O 0.52191 0.85592 0.73177 0.0
O677 O 0.54675 0.79341 0.81678 0.0
O678 O 0.55902 0.79056 0.76525 0.0
C679 C 0.47009 0.81793 0.82039 0.0
C680 C 0.48686 0.75839 0.7336 0.0
O681 O 0.4797 0.78909 0.73604 0.0
O682 O 0.51118 0.74756 0.75016 0.0
C683 C 0.50004 0.87878 0.73351 0.0
O684 O 0.47203 0.87282 0.74952 0.0
C685 C 0.56759 0.78436 0.79501 0.0
Zn686 Zn 0.44734 0.38309 0.09263 0.0
Zn687 Zn 0.39959 0.36103 0.08441 0.0
O688 O 0.39222 0.31587 0.10606 0.0
O689 O 0.44043 0.33587 0.1171 0.0
O690 O 0.36066 0.37045 0.05743 0.0
O691 O 0.44768 0.41912 0.12568 0.0
O692 O 0.40324 0.38875 0.13015 0.0
C693 C 0.41972 0.31268 0.12053 0.0
C694 C 0.46548 0.35597 0.03945 0.0
O695 O 0.43751 0.34618 0.05068 0.0
O696 O 0.4776 0.38153 0.05178 0.0
C697 C 0.35676 0.35227 0.03246 0.0
O698 O 0.38152 0.33378 0.02119 0.0
C699 C 0.42488 0.40679 0.14387 0.0
Zn700 Zn 0.96358 0.17849 0.29003 0.0
Zn701 Zn 0.97994 0.13763 0.26036 0.0
O702 O 0.01919 0.11023 0.27601 0.0
O703 O 0.00496 0.15035 0.31001 0.0
O704 O 0.95922 0.12108 0.22019 0.0
O705 O 0.92353 0.17124 0.31921 0.0
O706 O 0.94803 0.12525 0.30276 0.0
C707 C 0.02382 0.12564 0.30271 0.0
C708 C 0.00267 0.21312 0.25516 0.0
O709 O 0.00692 0.18205 0.25016 0.0
O710 O 0.97581 0.2228 0.26909 0.0
C711 C 0.97128 0.09596 0.20561 0.0
O712 O 0.00329 0.08962 0.20695 0.0
C713 C 0.9301 0.14067 0.3244 0.0
Zn714 Zn 0.04971 0.67642 0.59667 0.0
Zn715 Zn 0.09653 0.7016 0.60589 0.0
O716 O 0.09156 0.74063 0.63512 0.0
O717 O 0.04338 0.71919 0.6271 0.0
O718 O 0.14376 0.70706 0.59508 0.0
O719 O 0.04215 0.63476 0.6228 0.0
O720 O 0.08136 0.66469 0.64337 0.0
C721 C 0.06069 0.74126 0.64021 0.0
C722 C 0.04578 0.71188 0.54551 0.0
O723 O 0.0688 0.72056 0.56465 0.0
O724 O 0.03349 0.68347 0.55006 0.0
C725 C 0.14933 0.73578 0.58247 0.0
O726 O 0.12465 0.75546 0.57339 0.0
C727 C 0.05797 0.64358 0.64781 0.0
Zn728 Zn 0.53972 0.30529 0.67662 0.0
Zn729 Zn 0.56829 0.23805 0.71039 0.0
O730 O 0.53156 0.21191 0.69052 0.0
O731 O 0.51639 0.25986 0.6681 0.0
O732 O 0.59539 0.20462 0.73281 0.0
O733 O 0.58991 0.30449 0.68196 0.0
O734 O 0.59346 0.25366 0.66778 0.0
C735 C 0.51203 0.22879 0.6723 0.0
C736 C 0.54452 0.30078 0.73929 0.0
O737 O 0.54466 0.26955 0.74374 0.0
O738 O 0.56622 0.31149 0.71891 0.0
C739 C 0.57686 0.18295 0.74599 0.0
O740 O 0.54694 0.19163 0.75659 0.0
C741 C 0.59597 0.28393 0.65928 0.0
Zn742 Zn 0.97755 0.25833 0.8769 0.0
Zn743 Zn 0.028 0.23474 0.89737 0.0
O744 O 0.04278 0.20558 0.86022 0.0
O745 O -0.0016 0.2291 0.83876 0.0
O746 O 0.0636 0.22994 0.92978 0.0
O747 O 0.98413 0.30684 0.87065 0.0
O748 O 0.03256 0.28158 0.87338 0.0
C749 C 0.02387 0.21001 0.83582 0.0
C750 C 0.95588 0.21185 0.91023 0.0
O751 O 0.98638 0.21092 0.91814 0.0
O752 O 0.94218 0.24022 0.9078 0.0
C753 C 0.06824 0.20494 0.94896 0.0
O754 O 0.04744 0.18035 0.94992 0.0
C755 C 0.01429 0.30506 0.8614 0.0
Zn756 Zn 0.94885 0.69783 0.2087 0.0
Zn757 Zn 0.89716 0.76475 0.21629 0.0
O758 O 0.93517 0.78748 0.18985 0.0
O759 O 0.96805 0.74298 0.19006 0.0
O760 O 0.86236 0.79733 0.22138 0.0
O761 O 0.89877 0.69159 0.20911 0.0
O762 O 0.87437 0.73297 0.18554 0.0
C763 C 0.96338 0.77376 0.18376 0.0
C764 C 0.92873 0.72398 0.2659 0.0
O765 O 0.91583 0.7527 0.26253 0.0
O766 O 0.91659 0.70196 0.24813 0.0
C767 C 0.86925 0.82385 0.23517 0.0
O768 O 0.89814 0.82691 0.24911 0.0
C769 C 0.88574 0.70375 0.18312 0.0
Zn770 Zn 0.45996 0.78062 0.36371 0.0
Zn771 Zn 0.40022 0.78978 0.36585 0.0
O772 O 0.40691 0.81607 0.32025 0.0
O773 O 0.45256 0.82913 0.34323 0.0
O774 O 0.35488 0.78984 0.38807 0.0
O775 O 0.45636 0.7421 0.33507 0.0
O776 O 0.40367 0.74164 0.34764 0.0
C777 C 0.43403 0.83182 0.31836 0.0
C778 C 0.45534 0.80079 0.41601 0.0
O779 O 0.43015 0.81322 0.40126 0.0
O780 O 0.45971 0.76989 0.41366 0.0
C781 C 0.35159 0.78124 0.41864 0.0
O782 O 0.32197 0.78239 0.43285 0.0
C783 C 0.42872 0.72898 0.33241 0.0
Zn784 Zn 0.79464 0.5055 0.77275 0.0
Zn785 Zn 0.76011 0.51361 0.8166 0.0
O786 O 0.80693 0.49476 0.83235 0.0
O787 O 0.80494 0.45924 0.79373 0.0
O788 O 0.73193 0.52186 0.85583 0.0
O789 O 0.81704 0.54663 0.79335 0.0
O790 O 0.76547 0.55893 0.79047 0.0
C791 C 0.82056 0.46996 0.81783 0.0
C792 C 0.73381 0.48679 0.75824 0.0
O793 O 0.73622 0.47964 0.78895 0.0
O794 O 0.75041 0.5111 0.74745 0.0
C795 C 0.73357 0.5 0.87871 0.0
O796 O 0.74948 0.47192 0.87277 0.0
C797 C 0.79525 0.56746 0.78432 0.0
Zn798 Zn 0.67652 0.5968 0.04951 0.0
Zn799 Zn 0.7017 0.60601 0.09631 0.0
O800 O 0.74073 0.63526 0.09136 0.0
O801 O 0.71927 0.62725 0.04319 0.0
O802 O 0.70714 0.59517 0.14354 0.0
O803 O 0.63485 0.62292 0.04195 0.0
O804 O 0.66477 0.64349 0.08117 0.0
C805 C 0.74135 0.64036 0.06049 0.0
C806 C 0.71203 0.54566 0.04554 0.0
O807 O 0.72069 0.56479 0.06856 0.0
O808 O 0.68361 0.5502 0.03326 0.0
C809 C 0.73585 0.58256 0.14912 0.0
O810 O 0.75554 0.57349 0.12445 0.0
C811 C 0.64367 0.64793 0.05777 0.0
Zn812 Zn 0.67596 0.48899 0.33124 0.0
Zn813 Zn 0.71047 0.46527 0.36683 0.0
O814 O 0.66467 0.47984 0.3914 0.0
O815 O 0.6686 0.52657 0.36502 0.0
O816 O 0.74521 0.44046 0.39351 0.0
O817 O 0.64962 0.44521 0.33811 0.0
O818 O 0.70068 0.43223 0.32928 0.0
C819 C 0.6523 0.50893 0.38534 0.0
C820 C 0.73496 0.51113 0.31582 0.0
O821 O 0.73342 0.50781 0.34729 0.0
O822 O 0.71762 0.49161 0.29978 0.0
C823 C 0.77445 0.4394 0.38072 0.0
O824 O 0.79263 0.46579 0.38345 0.0
C825 C 0.67045 0.42708 0.32301 0.0
Zn826 Zn 0.84743 0.36273 0.5156 0.0
Zn827 Zn 0.80896 0.37697 0.55725 0.0
O828 O 0.77203 0.34474 0.55607 0.0
O829 O 0.80357 0.33395 0.51304 0.0
O830 O 0.7929 0.40578 0.59187 0.0
O831 O 0.88864 0.34219 0.5365 0.0
O832 O 0.85109 0.35012 0.57456 0.0
C833 C 0.7771 0.32875 0.52992 0.0
C834 C 0.82031 0.41159 0.48573 0.0
O835 O 0.80383 0.40371 0.51211 0.0
O836 O 0.85016 0.40152 0.48304 0.0
C837 C 0.76391 0.41832 0.58918 0.0
O838 O 0.74801 0.4168 0.56123 0.0
C839 C 0.87075 0.3298 0.5595 0.0
Zn840 Zn 0.78733 0.44686 0.73162 0.0
Zn841 Zn 0.77615 0.44601 0.67703 0.0
O842 O 0.79006 0.48612 0.65218 0.0
O843 O 0.80108 0.49288 0.70479 0.0
O844 O 0.75783 0.41615 0.64552 0.0
O845 O 0.8256 0.41582 0.74254 0.0
O846 O 0.82602 0.43081 0.69015 0.0
C847 C 0.80128 0.50397 0.67463 0.0
C848 C 0.72981 0.45968 0.73497 0.0
O849 O 0.73808 0.46761 0.70536 0.0
O850 O 0.74057 0.43197 0.7454 0.0
C851 C 0.7475 0.42986 0.61904 0.0
O852 O 0.73565 0.46043 0.61949 0.0
C853 C 0.84158 0.41946 0.71551 0.0
Zn854 Zn 0.78407 0.57532 0.01142 0.0
Zn855 Zn 0.76365 0.55737 0.95394 0.0
O856 O 0.73661 0.59778 0.93869 0.0
O857 O 0.74709 0.60677 0.9907 0.0
O858 O 0.76225 0.5234 0.92023 0.0
O859 O 0.83338 0.5868 0.00356 0.0
O860 O 0.81351 0.56803 0.95905 0.0
C861 C 0.73108 0.61437 0.96465 0.0
C862 C 0.73897 0.53234 0.02402 0.0
O863 O 0.73494 0.53959 0.99343 0.0
O864 O 0.76803 0.53373 0.03513 0.0
C865 C 0.73441 0.51301 0.91163 0.0
O866 O 0.70716 0.52523 0.92544 0.0
C867 C 0.82825 0.59159 0.97296 0.0
Zn868 Zn 0.67686 0.53961 0.30517 0.0
Zn869 Zn 0.71055 0.56831 0.23795 0.0
O870 O 0.69065 0.53162 0.21178 0.0
O871 O 0.66836 0.51629 0.25973 0.0
O872 O 0.73298 0.59541 0.20454 0.0
O873 O 0.6822 0.5898 0.30439 0.0
O874 O 0.66798 0.5935 0.25359 0.0
C875 C 0.67253 0.51199 0.22866 0.0
C876 C 0.7395 0.54444 0.30065 0.0
O877 O 0.74389 0.5446 0.2694 0.0
O878 O 0.71913 0.56613 0.3114 0.0
C879 C 0.74619 0.57686 0.18289 0.0
O880 O 0.75675 0.54693 0.19157 0.0
C881 C 0.6595 0.59592 0.28387 0.0
Zn882 Zn 0.78065 0.36393 0.45971 0.0
Zn883 Zn 0.78991 0.36599 0.39996 0.0
O884 O 0.81621 0.32039 0.40664 0.0
O885 O 0.82913 0.34335 0.45239 0.0
O886 O 0.78991 0.38827 0.35463 0.0
O887 O 0.74208 0.33535 0.45614 0.0
O888 O 0.7418 0.34769 0.4034 0.0
C889 C 0.83188 0.31851 0.43381 0.0
C890 C 0.80094 0.41616 0.45512 0.0
O891 O 0.81335 0.40137 0.42993 0.0
O892 O 0.77004 0.41388 0.45948 0.0
C893 C 0.78127 0.41884 0.35139 0.0
O894 O 0.78239 0.43312 0.3218 0.0
C895 C 0.72905 0.33257 0.42847 0.0
Zn896 Zn 0.773 0.79449 0.50535 0.0
Zn897 Zn 0.81685 0.75995 0.51343 0.0
O898 O 0.83261 0.80677 0.49459 0.0
O899 O 0.79398 0.80478 0.45909 0.0
O900 O 0.85607 0.73174 0.52167 0.0
O901 O 0.79363 0.81687 0.54647 0.0
O902 O 0.79073 0.7653 0.55875 0.0
C903 C 0.81808 0.82041 0.4698 0.0
C904 C 0.7585 0.73368 0.48664 0.0
O905 O 0.78919 0.73607 0.47946 0.0
O906 O 0.7477 0.75026 0.51096 0.0
C907 C 0.87896 0.7334 0.49983 0.0
O908 O 0.87309 0.74936 0.47177 0.0
C909 C 0.78459 0.79509 0.56729 0.0
Zn910 Zn 0.33147 0.6758 0.48886 0.0
Zn911 Zn 0.36707 0.71031 0.46509 0.0
O912 O 0.39164 0.66451 0.47965 0.0
O913 O 0.3653 0.66846 0.52639 0.0
O914 O 0.39362 0.74503 0.44008 0.0
O915 O 0.33829 0.64946 0.44507 0.0
O916 O 0.32946 0.70049 0.43212 0.0
C917 C 0.3856 0.65215 0.50875 0.0
C918 C 0.31609 0.73481 0.51096 0.0
O919 O 0.34755 0.73329 0.50764 0.0
O920 O 0.30001 0.71744 0.4915 0.0
C921 C 0.38086 0.77428 0.43924 0.0
O922 O 0.38336 0.79217 0.46586 0.0
C923 C 0.32315 0.67027 0.42695 0.0
Zn924 Zn 0.59708 0.04974 0.67617 0.0
Zn925 Zn 0.60619 0.09642 0.70152 0.0
O926 O 0.6354 0.09151 0.74057 0.0
O927 O 0.62754 0.0434 0.71893 0.0
O928 O 0.59526 0.14362 0.70697 0.0
O929 O 0.62325 0.04228 0.63452 0.0
O930 O 0.64376 0.0814 0.6646 0.0
C931 C 0.6406 0.06066 0.74107 0.0
C932 C 0.5459 0.04554 0.71161 0.0
O933 O 0.565 0.06854 0.72041 0.0
O934 O 0.55054 0.03336 0.68316 0.0
C935 C 0.58258 0.14918 0.73565 0.0
O936 O 0.57349 0.1245 0.75531 0.0
C937 C 0.64824 0.05806 0.64344 0.0
Zn938 Zn 0.17858 0.29016 0.96334 0.0
Zn939 Zn 0.13773 0.26048 0.9797 0.0
O940 O 0.11031 0.27614 0.01894 0.0
O941 O 0.15042 0.31015 0.0047 0.0
O942 O 0.1212 0.22029 0.95902 0.0
O943 O 0.17133 0.31931 0.92328 0.0
O944 O 0.12534 0.30287 0.94777 0.0
C945 C 0.1257 0.30285 0.02355 0.0
C946 C 0.21322 0.25531 0.00244 0.0
O947 O 0.18214 0.25031 0.0067 0.0
O948 O 0.22289 0.26924 0.97559 0.0
C949 C 0.09609 0.2057 0.97108 0.0
O950 O 0.08968 0.20709 0.00307 0.0
C951 C 0.14075 0.3245 0.92984 0.0
Zn952 Zn 0.36395 0.45983 0.78051 0.0
Zn953 Zn 0.36607 0.40008 0.78966 0.0
O954 O 0.32047 0.40678 0.81594 0.0
O955 O 0.34346 0.45243 0.829 0.0
O956 O 0.38831 0.35474 0.78967 0.0
O957 O 0.33531 0.45622 0.742 0.0
O958 O 0.34786 0.40353 0.74152 0.0
C959 C 0.31858 0.43391 0.83169 0.0
C960 C 0.41624 0.4552 0.80068 0.0
O961 O 0.40148 0.43001 0.8131 0.0
O962 O 0.41389 0.45958 0.76979 0.0
C963 C 0.41888 0.35147 0.78105 0.0
O964 O 0.43312 0.32187 0.78217 0.0
C965 C 0.33263 0.42859 0.72886 0.0
Zn966 Zn 0.72746 0.24513 0.02272 0.0
Zn967 Zn 0.67486 0.25457 0.02847 0.0
O968 O 0.64439 0.21767 0.01545 0.0
O969 O 0.69735 0.20429 0.01031 0.0
O970 O 0.64957 0.29359 0.04374 0.0
O971 O 0.74982 0.23683 0.06615 0.0
O972 O 0.69666 0.22754 0.06921 0.0
C973 C 0.667 0.19637 0.00822 0.0
C974 C 0.7221 0.26943 0.96501 0.0
O975 O 0.69413 0.26486 0.97974 0.0
O976 O 0.74819 0.26777 0.98199 0.0
C977 C 0.63254 0.30954 0.02247 0.0
O978 O 0.63862 0.30469 0.99083 0.0
C979 C 0.72613 0.21999 0.07833 0.0
Zn980 Zn 0.57587 0.01256 0.7835 0.0
Zn981 Zn 0.55733 0.95422 0.76315 0.0
O982 O 0.59778 0.93898 0.73617 0.0
O983 O 0.60686 0.99098 0.74664 0.0
O984 O 0.52347 0.92038 0.76204 0.0
O985 O 0.58711 0.00441 0.83291 0.0
O986 O 0.56776 0.9602 0.81293 0.0
C987 C 0.6144 0.96491 0.73063 0.0
C988 C 0.53225 0.02404 0.7384 0.0
O989 O 0.5394 0.99345 0.7343 0.0
O990 O 0.5336 0.03505 0.7675 0.0
C991 C 0.51301 0.91171 0.73425 0.0
O992 O 0.52513 0.92549 0.70693 0.0
C993 C 0.59152 0.97379 0.82766 0.0
Zn994 Zn 0.87712 0.9773 0.2582 0.0
Zn995 Zn 0.89764 0.02779 0.23463 0.0
O996 O 0.86052 0.04258 0.20545 0.0
O997 O 0.83899 -0.00175 0.22901 0.0
O998 O 0.93004 0.06341 0.22986 0.0
O999 O 0.87089 0.98392 0.30672 0.0
O1000 O 0.87363 0.03235 0.28146 0.0
C1001 C 0.83609 0.02372 0.20991 0.0
C1002 C 0.91046 0.95569 0.21173 0.0
O1003 O 0.91849 0.98615 0.21091 0.0
O1004 O 0.90799 0.94191 0.24007 0.0
C1005 C 0.94919 0.06809 0.20485 0.0
O1006 O 0.95013 0.04732 0.18022 0.0
C1007 C 0.86165 0.01408 0.30494 0.0
Zn1008 Zn 0.50709 0.26317 0.16917 0.0
Zn1009 Zn 0.4388 0.21874 0.16324 0.0
O1010 O 0.41266 0.257 0.14258 0.0
O1011 O 0.46062 0.28054 0.14821 0.0
O1012 O 0.4199 0.17711 0.14601 0.0
O1013 O 0.53388 0.2376 0.13152 0.0
O1014 O 0.48382 0.22242 0.14095 0.0
C1015 C 0.43073 0.28215 0.13858 0.0
C1016 C 0.46721 0.24623 0.22237 0.0
O1017 O 0.44202 0.22982 0.21377 0.0
O1018 O 0.49517 0.23607 0.21111 0.0
C1019 C 0.39121 0.17917 0.13356 0.0
O1020 O 0.37004 0.20213 0.14377 0.0
C1021 C 0.50807 0.22474 0.12039 0.0
Zn1022 Zn 0.53801 0.72296 0.84004 0.0
Zn1023 Zn 0.58541 0.69883 0.85204 0.0
O1024 O 0.55989 0.67036 0.81735 0.0
O1025 O 0.52101 0.67604 0.85367 0.0
O1026 O 0.62977 0.68023 0.86452 0.0
O1027 O 0.56188 0.729 0.79353 0.0
O1028 O 0.5945 0.74582 0.83026 0.0
C1029 C 0.52953 0.66609 0.82546 0.0
C1030 C 0.54171 0.73242 0.90119 0.0
O1031 O 0.55592 0.70439 0.89598 0.0
O1032 O 0.54664 0.75439 0.879 0.0
C1033 C 0.63506 0.68433 0.89501 0.0
O1034 O 0.61329 0.67317 0.91701 0.0
C1035 C 0.58107 0.75112 0.80227 0.0
Zn1036 Zn 0.96103 0.7748 0.6734 0.0
Zn1037 Zn 0.02096 0.82502 0.68376 0.0
O1038 O 0.05755 0.79426 0.66689 0.0
O1039 O 0.01231 0.76596 0.66228 0.0
O1040 O 0.03513 0.87331 0.67977 0.0
O1041 O 0.94039 0.80024 0.63309 0.0
O1042 O 0.98673 0.82157 0.64778 0.0
C1043 C 0.0435 0.76789 0.65861 0.0
C1044 C 0.98268 0.78443 0.73378 0.0
O1045 O 0.00775 0.80329 0.73043 0.0
O1046 O 0.95667 0.79435 0.71917 0.0
C1047 C 0.04881 0.88404 0.65276 0.0
O1048 O 0.05715 0.86304 0.62942 0.0
C1049 C 0.96462 0.81882 0.62606 0.0
Zn1050 Zn 0.98559 0.11829 0.39336 0.0
Zn1051 Zn 0.96965 0.15898 0.42337 0.0
O1052 O 0.98559 0.20458 0.4094 0.0
O1053 O 0.00344 0.16544 0.37557 0.0
O1054 O 0.93587 0.15456 0.45909 0.0
O1055 O 0.94919 0.10174 0.36452 0.0
O1056 O 0.94128 0.15299 0.37955 0.0
C1057 C 0.0019 0.19595 0.38334 0.0
C1058 C 0.03365 0.11209 0.43102 0.0
O1059 O 0.01713 0.13896 0.43639 0.0
O1060 O 0.01914 0.08899 0.41676 0.0
C1061 C 0.93008 0.17789 0.47875 0.0
O1062 O 0.95242 0.20083 0.48175 0.0
C1063 C 0.93563 0.12997 0.35925 0.0
Zn1064 Zn 0.52917 0.81432 0.26082 0.0
Zn1065 Zn 0.49511 0.85177 0.2418 0.0
O1066 O 0.44879 0.85764 0.26455 0.0
O1067 O 0.48069 0.81931 0.2861 0.0
O1068 O 0.50402 0.88901 0.21055 0.0
O1069 O 0.56695 0.83138 0.28693 0.0
O1070 O 0.52452 0.86606 0.28318 0.0
C1071 C 0.45322 0.83513 0.28661 0.0
C1072 C 0.51048 0.77603 0.21743 0.0
O1073 O 0.49135 0.80204 0.21976 0.0
O1074 O 0.53863 0.7767 0.23032 0.0
C1075 C 0.48541 0.89524 0.18647 0.0
O1076 O 0.46383 0.87305 0.17825 0.0
C1077 C 0.55144 0.85676 0.29732 0.0
Zn1078 Zn 0.94916 0.70442 0.11065 0.0
Zn1079 Zn 0.95896 0.65297 0.11427 0.0
O1080 O 0.98573 0.63333 0.15216 0.0
O1081 O 0.98095 0.68828 0.15088 0.0
O1082 O 0.92777 0.63086 0.08244 0.0
O1083 O 0.90465 0.71918 0.12879 0.0
O1084 O 0.9218 0.67105 0.14908 0.0
C1085 C 0.99222 0.66151 0.1645 0.0
C1086 C -0.00157 0.71097 0.07671 0.0
O1087 O -0.00075 0.68251 0.09145 0.0
O1088 O 0.97027 0.7218 0.06775 0.0
C1089 C 0.91927 0.64921 0.05771 0.0
O1090 O 0.9401 0.67104 0.04578 0.0
C1091 C 0.90286 0.69672 0.15124 0.0
Zn1092 Zn -0.00472 0.18252 0.7334 0.0
Zn1093 Zn 0.03744 0.1557 0.75511 0.0
O1094 O 0.05069 0.16958 0.80047 0.0
O1095 O 0.00937 0.1991 0.78112 0.0
O1096 O 0.06872 0.11854 0.7436 0.0
O1097 O 0.95159 0.15975 0.7364 0.0
O1098 O 0.98884 0.13638 0.76891 0.0
C1099 C 0.02923 0.19253 0.80441 0.0
C1100 C 0.03305 0.224 0.70942 0.0
O1101 O 0.04809 0.20299 0.72881 0.0
O1102 O 0.00562 0.21592 0.69758 0.0
C1103 C 0.0923 0.11168 0.76318 0.0
O1104 O 0.11953 0.12873 0.7597 0.0
C1105 C 0.95838 0.14015 0.76033 0.0
Zn1106 Zn 0.51296 0.30798 0.62364 0.0
Zn1107 Zn 0.55806 0.34406 0.57805 0.0
O1108 O 0.54093 0.3865 0.60219 0.0
O1109 O 0.49827 0.35595 0.60551 0.0
O1110 O 0.59535 0.34657 0.54383 0.0
O1111 O 0.55675 0.27785 0.61746 0.0
O1112 O 0.58425 0.32301 0.61653 0.0
C1113 C 0.5126 0.38125 0.61575 0.0
C1114 C 0.51128 0.28785 0.56547 0.0
O1115 O 0.51816 0.31781 0.55761 0.0
O1116 O 0.52928 0.27464 0.58765 0.0
C1117 C 0.60477 0.31759 0.53495 0.0
O1118 O 0.58656 0.29207 0.54343 0.0
C1119 C 0.58187 0.29327 0.62668 0.0
Zn1120 Zn 0.1695 0.50695 0.26321 0.0
Zn1121 Zn 0.16351 0.43871 0.21883 0.0
O1122 O 0.14301 0.41246 0.25709 0.0
O1123 O 0.14859 0.46046 0.28054 0.0
O1124 O 0.14619 0.41983 0.17727 0.0
O1125 O 0.13172 0.53375 0.23785 0.0
O1126 O 0.14097 0.48363 0.22266 0.0
C1127 C 0.13898 0.43057 0.28221 0.0
C1128 C 0.22264 0.46717 0.2462 0.0
O1129 O 0.21408 0.44201 0.22974 0.0
O1130 O 0.21137 0.49511 0.23601 0.0
C1131 C 0.13355 0.39122 0.17942 0.0
O1132 O 0.14351 0.37009 0.20252 0.0
C1133 C 0.12053 0.50799 0.22494 0.0
Zn1134 Zn 0.11838 0.39348 0.9853 0.0
Zn1135 Zn 0.15905 0.42348 0.96939 0.0
O1136 O 0.20466 0.40952 0.98532 0.0
O1137 O 0.16552 0.37568 0.00316 0.0
O1138 O 0.15462 0.45921 0.93561 0.0
O1139 O 0.10183 0.36463 0.94892 0.0
O1140 O 0.15308 0.37966 0.94101 0.0
C1141 C 0.19602 0.38346 0.00163 0.0
C1142 C 0.11218 0.4311 0.03341 0.0
O1143 O 0.13904 0.43647 0.01688 0.0
O1144 O 0.08908 0.41686 0.01887 0.0
C1145 C 0.17797 0.47885 0.9298 0.0
O1146 O 0.20091 0.48182 0.95214 0.0
C1147 C 0.13005 0.35936 0.93536 0.0
Zn1148 Zn 0.25818 0.45807 0.73876 0.0
Zn1149 Zn 0.27692 0.49771 0.69547 0.0
O1150 O 0.30902 0.52421 0.72166 0.0
O1151 O 0.2874 0.49357 0.76118 0.0
O1152 O 0.28211 0.51693 0.64892 0.0
O1153 O 0.27924 0.41366 0.72584 0.0
O1154 O 0.29631 0.44917 0.68905 0.0
C1155 C 0.30616 0.51711 0.75224 0.0
C1156 C 0.21197 0.49635 0.7426 0.0
O1157 O 0.22938 0.50952 0.71871 0.0
O1158 O 0.20905 0.4652 0.7426 0.0
C1159 C 0.31174 0.5201 0.63756 0.0
O1160 O 0.33687 0.51274 0.65673 0.0
C1161 C 0.30325 0.42469 0.70856 0.0
Zn1162 Zn 0.2676 0.62896 0.4735 0.0
Zn1163 Zn 0.23749 0.6137 0.43404 0.0
O1164 O 0.21251 0.65241 0.46048 0.0
O1165 O 0.22288 0.61866 0.50018 0.0
O1166 O 0.21159 0.59696 0.39655 0.0
O1167 O 0.27028 0.67341 0.44616 0.0
O1168 O 0.28125 0.6336 0.41308 0.0
C1169 C 0.21308 0.64727 0.49173 0.0
C1170 C 0.28066 0.57002 0.4753 0.0
O1171 O 0.25025 0.57315 0.46728 0.0
O1172 O 0.29986 0.5899 0.46055 0.0
C1173 C 0.21447 0.56576 0.39394 0.0
O1174 O 0.20522 0.54704 0.41941 0.0
C1175 C 0.28834 0.66236 0.42298 0.0
Zn1176 Zn 0.20242 0.44755 0.3403 0.0
Zn1177 Zn 0.20902 0.49838 0.35422 0.0
O1178 O 0.17179 0.53254 0.34506 0.0
O1179 O 0.16105 0.48137 0.33385 0.0
O1180 O 0.24736 0.52223 0.37098 0.0
O1181 O 0.19372 0.41457 0.37687 0.0
O1182 O 0.18309 0.46602 0.39114 0.0
C1183 C 0.15168 0.51156 0.33484 0.0
C1184 C 0.22346 0.46262 0.28303 0.0
O1185 O 0.21996 0.48784 0.30194 0.0
O1186 O 0.22146 0.43384 0.29593 0.0
C1187 C 0.24178 0.55319 0.37275 0.0
O1188 O 0.25498 0.57284 0.34992 0.0
C1189 C 0.17802 0.43469 0.39545 0.0
Zn1190 Zn 0.15826 0.38228 0.08948 0.0
Zn1191 Zn 0.11684 0.3523 0.10747 0.0
O1192 O 0.10068 0.31794 0.07675 0.0
O1193 O 0.14181 0.34707 0.0548 0.0
O1194 O 0.09693 0.35635 0.15255 0.0
O1195 O 0.20249 0.36776 0.10723 0.0
O1196 O 0.16468 0.32959 0.1137 0.0
C1197 C 0.12074 0.32405 0.05254 0.0
C1198 C 0.11646 0.42253 0.06888 0.0
O1199 O 0.10333 0.39514 0.07816 0.0
O1200 O 0.14385 0.42987 0.08131 0.0
C1201 C 0.10252 0.38535 0.16232 0.0
O1202 O 0.08752 0.41069 0.14758 0.0
C1203 C 0.19514 0.33774 0.11305 0.0
Zn1204 Zn 0.26106 0.52907 0.8142 0.0
Zn1205 Zn 0.24202 0.49501 0.85164 0.0
O1206 O 0.26477 0.44867 0.85749 0.0
O1207 O 0.28633 0.48058 0.81918 0.0
O1208 O 0.21077 0.50389 0.88887 0.0
O1209 O 0.28717 0.56684 0.83128 0.0
O1210 O 0.28341 0.52441 0.86594 0.0
C1211 C 0.28683 0.45311 0.83499 0.0
C1212 C 0.21767 0.5104 0.7759 0.0
O1213 O 0.21999 0.49127 0.8019 0.0
O1214 O 0.23057 0.53854 0.77657 0.0
C1215 C 0.18664 0.48533 0.89506 0.0
O1216 O 0.17837 0.46379 0.87285 0.0
C1217 C 0.29755 0.55133 0.85666 0.0
Zn1218 Zn 0.30809 0.62371 0.51272 0.0
Zn1219 Zn 0.34421 0.57814 0.55778 0.0
O1220 O 0.38664 0.60228 0.54063 0.0
O1221 O 0.35606 0.6056 0.49799 0.0
O1222 O 0.34673 0.54392 0.59507 0.0
O1223 O 0.27798 0.61748 0.55652 0.0
O1224 O 0.32316 0.61662 0.58398 0.0
C1225 C 0.38137 0.61584 0.51231 0.0
C1226 C 0.28796 0.56554 0.51102 0.0
O1227 O 0.31793 0.55769 0.51788 0.0
O1228 O 0.27476 0.5877 0.52905 0.0
C1229 C 0.31774 0.53506 0.60453 0.0
O1230 O 0.29222 0.54356 0.58634 0.0
C1231 C 0.29341 0.62673 0.58162 0.0
Zn1232 Zn 0.26323 0.16935 0.50688 0.0
Zn1233 Zn 0.21892 0.1634 0.43858 0.0
O1234 O 0.25721 0.14277 0.41249 0.0
O1235 O 0.2807 0.14833 0.46048 0.0
O1236 O 0.17734 0.14616 0.41964 0.0
O1237 O 0.23761 0.13179 0.5337 0.0
O1238 O 0.22256 0.14099 0.48356 0.0
C1239 C 0.28232 0.1387 0.43059 0.0
C1240 C 0.24637 0.22254 0.467 0.0
O1241 O 0.22995 0.21394 0.44182 0.0
O1242 O 0.23619 0.21132 0.49496 0.0
C1243 C 0.17948 0.13359 0.391 0.0
O1244 O 0.20256 0.14362 0.36987 0.0
C1245 C 0.22479 0.12056 0.50792 0.0
Zn1246 Zn 0.73881 0.25808 0.45798 0.0
Zn1247 Zn 0.69569 0.27676 0.4976 0.0
O1248 O 0.72188 0.30882 0.52414 0.0
O1249 O 0.76136 0.2873 0.49337 0.0
O1250 O 0.64915 0.28193 0.51683 0.0
O1251 O 0.72603 0.27916 0.41355 0.0
O1252 O 0.68927 0.29625 0.4491 0.0
C1253 C 0.75245 0.30603 0.51696 0.0
C1254 C 0.74285 0.21181 0.49619 0.0
O1255 O 0.71898 0.22922 0.50939 0.0
O1256 O 0.74293 0.20895 0.46503 0.0
C1257 C 0.6378 0.31156 0.52 0.0
O1258 O 0.65699 0.33669 0.51266 0.0
C1259 C 0.70877 0.30317 0.4246 0.0
Zn1260 Zn 0.3936 0.98546 0.11819 0.0
Zn1261 Zn 0.4236 0.96955 0.15887 0.0
O1262 O 0.40963 0.98547 0.20447 0.0
O1263 O 0.37579 0.0033 0.16533 0.0
O1264 O 0.45935 0.93579 0.15442 0.0
O1265 O 0.36478 0.94906 0.10162 0.0
O1266 O 0.37979 0.94115 0.15288 0.0
C1267 C 0.38356 0.00177 0.19583 0.0
C1268 C 0.43121 0.0336 0.11201 0.0
O1269 O 0.43657 0.01705 0.13886 0.0
O1270 O 0.41696 0.01907 0.08891 0.0
C1271 C 0.479 0.92999 0.17777 0.0
O1272 O 0.48198 0.95231 0.20072 0.0
C1273 C 0.3595 0.9355 0.12984 0.0
Zn1274 Zn 0.7748 0.67348 0.96074 0.0
Zn1275 Zn 0.82512 0.68388 0.02073 0.0
O1276 O 0.79437 0.66698 0.05732 0.0
O1277 O 0.76604 0.6624 0.01209 0.0
O1278 O 0.87342 0.67981 0.03486 0.0
O1279 O 0.8003 0.63314 0.94008 0.0
O1280 O 0.82155 0.64806 0.98637 0.0
C1281 C 0.76798 0.65874 0.04328 0.0
C1282 C 0.78453 0.73388 0.98249 0.0
O1283 O 0.80339 0.73055 0.00756 0.0
O1284 O 0.79445 0.71924 0.95649 0.0
C1285 C 0.88411 0.65282 0.04861 0.0
O1286 O 0.86308 0.62954 0.05704 0.0
C1287 C 0.81886 0.62623 0.96435 0.0
Zn1288 Zn 0.62389 0.51285 0.30787 0.0
Zn1289 Zn 0.57828 0.55795 0.34396 0.0
O1290 O 0.60242 0.54081 0.38639 0.0
O1291 O 0.60574 0.49816 0.35583 0.0
O1292 O 0.54405 0.59523 0.34648 0.0
O1293 O 0.61774 0.55666 0.27776 0.0
O1294 O 0.61675 0.58416 0.32292 0.0
C1295 C 0.61599 0.51249 0.38113 0.0
C1296 C 0.56573 0.51119 0.28772 0.0
O1297 O 0.55785 0.51806 0.31768 0.0
O1298 O 0.58791 0.52919 0.27452 0.0
C1299 C 0.53516 0.60466 0.3175 0.0
O1300 O 0.54363 0.58646 0.29197 0.0
C1301 C 0.62691 0.58179 0.29319 0.0
Zn1302 Zn 0.28603 0.77095 0.03126 0.0
Zn1303 Zn 0.31093 0.75502 0.98576 0.0
O1304 O 0.2852 0.76114 0.94375 0.0
O1305 O 0.25719 0.77854 0.98773 0.0
O1306 O 0.35932 0.74219 0.98027 0.0
O1307 O 0.3032 0.81368 0.04852 0.0
O1308 O 0.31461 0.80688 -0.00419 0.0
C1309 C 0.2588 0.77384 0.95659 0.0
C1310 C 0.25994 0.71663 0.03679 0.0
O1311 O 0.27735 0.71908 0.00964 0.0
O1312 O 0.26674 0.73534 0.06042 0.0
C1313 C 0.37589 0.7612 0.96076 0.0
O1314 O 0.3607 0.77533 0.93551 0.0
C1315 C 0.31205 0.82606 0.02066 0.0
Zn1316 Zn 0.38241 0.08965 0.1581 0.0
Zn1317 Zn 0.35246 0.1077 0.11666 0.0
O1318 O 0.31811 0.07694 0.10051 0.0
O1319 O 0.3472 0.05497 0.14164 0.0
O1320 O 0.35657 0.15262 0.0964 0.0
O1321 O 0.36786 0.10737 0.20231 0.0
O1322 O 0.32973 0.11399 0.16448 0.0
C1323 C 0.32419 0.05272 0.12056 0.0
C1324 C 0.42266 0.06907 0.1163 0.0
O1325 O 0.39529 0.07838 0.10316 0.0
O1326 O 0.43 0.08148 0.1437 0.0
C1327 C 0.38544 0.16266 0.10216 0.0
O1328 O 0.41093 0.14876 0.08661 0.0
C1329 C 0.33787 0.11327 0.19495 0.0
Zn1330 Zn 0.11096 0.94892 0.70418 0.0
Zn1331 Zn 0.11455 0.95882 0.65281 0.0
O1332 O 0.15241 0.98562 0.63309 0.0
O1333 O 0.15121 0.98071 0.68803 0.0
O1334 O 0.08262 0.92769 0.63078 0.0
O1335 O 0.12915 0.90446 0.719 0.0
O1336 O 0.14939 0.92159 0.67084 0.0
C1337 C 0.16478 0.99204 0.66127 0.0
C1338 C 0.07707 -0.00171 0.71095 0.0
O1339 O 0.09184 -0.00088 0.6825 0.0
O1340 O 0.06826 0.97011 0.72187 0.0
C1341 C 0.05795 0.91919 0.64919 0.0
O1342 O 0.04612 0.93998 0.67112 0.0
C1343 C 0.15158 0.90267 0.69653 0.0
loop_
_geom_bond_atom_site_label_1
_geom_bond_atom_site_label_2
_geom_bond_distance
_geom_bond_site_symmetry_2
_ccdc_geom_bond_type
Zn0 O3 2.031 1_455 S
Zn0 O5 2.049 . S
Zn0 O10 2.067 . S
Zn1 O2 1.962 . S
Zn1 O4 1.986 . S
Zn1 O6 1.996 . S
Zn1 O9 1.943 . S
O2 Zn1 1.962 . S
O2 C7 1.263 . S
O3 Zn0 2.031 1_655 S
O3 C7 1.268 1_655 S
O4 Zn1 1.986 . S
O4 C11 1.262 . S
O5 Zn0 2.049 . S
O5 C13 1.260 . S
O6 Zn1 1.996 . S
O6 C13 1.257 . S
C7 O2 1.263 . S
C7 O3 1.268 1_455 S
C8 O9 1.249 . S
C8 O10 1.270 . S
O9 Zn1 1.943 . S
O9 C8 1.249 . S
O10 Zn0 2.067 . S
O10 C8 1.270 . S
C11 O4 1.262 . S
C11 O12 1.232 . S
O12 C11 1.232 . S
C13 O5 1.260 . S
C13 O6 1.257 . S
Zn14 O17 2.031 1_455 S
Zn14 O19 2.049 . S
Zn14 O24 2.067 . S
Zn15 O16 1.962 . S
Zn15 O18 1.986 . S
Zn15 O20 1.996 . S
Zn15 O23 1.943 . S
O16 Zn15 1.962 . S
O16 C21 1.254 . S
O17 Zn14 2.031 1_655 S
O17 C21 1.269 . S
O18 Zn15 1.986 . S
O18 C25 1.262 . S
O19 Zn14 2.049 . S
O19 C27 1.257 1_455 S
O20 Zn15 1.996 . S
O20 C27 1.260 . S
C21 O16 1.254 . S
C21 O17 1.269 . S
C22 O23 1.249 1_455 S
C22 O24 1.270 . S
O23 Zn15 1.943 . S
O23 C22 1.249 1_655 S
O24 Zn14 2.067 . S
O24 C22 1.270 . S
C25 O18 1.262 . S
C25 O26 1.232 . S
O26 C25 1.232 . S
C27 O19 1.257 1_655 S
C27 O20 1.260 . S
Zn28 O31 2.031 . S
Zn28 O33 2.049 . S
Zn28 O38 2.067 . S
Zn29 O30 1.962 . S
Zn29 O32 1.986 . S
Zn29 O34 1.996 . S
Zn29 O37 1.943 . S
O30 Zn29 1.962 . S
O30 C35 1.254 . S
O31 Zn28 2.031 . S
O31 C35 1.269 . S
O32 Zn29 1.986 . S
O32 C39 1.262 . S
O33 Zn28 2.049 . S
O33 C41 1.260 . S
O34 Zn29 1.996 . S
O34 C41 1.257 . S
C35 O30 1.254 . S
C35 O31 1.269 . S
C36 O37 1.249 . S
C36 O38 1.270 . S
O37 Zn29 1.943 . S
O37 C36 1.249 . S
O38 Zn28 2.067 . S
O38 C36 1.270 . S
C39 O32 1.262 . S
C39 O40 1.232 . S
O40 C39 1.232 . S
C41 O33 1.260 . S
C41 O34 1.257 . S
Zn42 O45 2.031 . S
Zn42 O47 2.049 . S
Zn42 O52 2.067 . S
Zn43 O44 1.962 . S
Zn43 O46 1.986 . S
Zn43 O48 1.996 . S
Zn43 O51 1.943 . S
O44 Zn43 1.962 . S
O44 C49 1.254 . S
O45 Zn42 2.031 . S
O45 C49 1.269 . S
O46 Zn43 1.986 . S
O46 C53 1.262 . S
O47 Zn42 2.049 . S
O47 C55 1.260 . S
O48 Zn43 1.996 . S
O48 C55 1.257 . S
C49 O44 1.254 . S
C49 O45 1.269 . S
C50 O51 1.249 . S
C50 O52 1.270 . S
O51 Zn43 1.943 . S
O51 C50 1.249 . S
O52 Zn42 2.067 . S
O52 C50 1.270 . S
C53 O46 1.262 . S
C53 O54 1.232 . S
O54 C53 1.232 . S
C55 O47 1.260 . S
C55 O48 1.257 . S
Zn56 O59 2.031 1_455 S
Zn56 O61 2.049 . S
Zn56 O66 2.067 1_455 S
Zn57 O58 1.962 . S
Zn57 O60 1.986 . S
Zn57 O62 1.996 . S
Zn57 O65 1.930 1_455 S
O58 Zn57 1.962 . S
O58 C63 1.254 1_455 S
O59 Zn56 2.031 1_655 S
O59 C63 1.269 . S
O60 Zn57 1.986 . S
O60 C67 1.262 . S
O61 Zn56 2.049 . S
O61 C69 1.260 . S
O62 Zn57 1.996 . S
O62 C69 1.257 . S
C63 O58 1.254 1_655 S
C63 O59 1.269 . S
C64 O65 1.260 . S
C64 O66 1.270 . S
O65 Zn57 1.930 1_655 S
O65 C64 1.260 . S
O66 Zn56 2.067 1_655 S
O66 C64 1.270 . S
C67 O60 1.262 . S
C67 O68 1.232 . S
O68 C67 1.232 . S
C69 O61 1.260 . S
C69 O62 1.257 . S
Zn70 O73 2.031 . S
Zn70 O75 2.049 . S
Zn70 O80 2.067 . S
Zn71 O72 1.962 . S
Zn71 O74 1.986 . S
Zn71 O76 1.996 . S
Zn71 O79 1.943 . S
O72 Zn71 1.962 . S
O72 C77 1.254 . S
O73 Zn70 2.031 . S
O73 C77 1.269 . S
O74 Zn71 1.986 . S
O74 C81 1.262 . S
O75 Zn70 2.049 . S
O75 C83 1.260 . S
O76 Zn71 1.996 . S
O76 C83 1.257 . S
C77 O72 1.254 . S
C77 O73 1.269 . S
C78 O79 1.249 . S
C78 O80 1.270 . S
O79 Zn71 1.943 . S
O79 C78 1.249 . S
O80 Zn70 2.067 . S
O80 C78 1.270 . S
C81 O74 1.262 . S
C81 O82 1.232 . S
O82 C81 1.232 . S
C83 O75 1.260 . S
C83 O76 1.257 . S
Zn84 O87 2.031 . S
Zn84 O89 2.049 . S
Zn84 O94 2.067 . S
Zn85 O86 1.962 . S
Zn85 O88 1.986 . S
Zn85 O90 1.996 . S
Zn85 O93 1.943 . S
O86 Zn85 1.962 . S
O86 C91 1.254 . S
O87 Zn84 2.031 . S
O87 C91 1.269 . S
O88 Zn85 1.986 . S
O88 C95 1.262 . S
O89 Zn84 2.049 . S
O89 C97 1.260 . S
O90 Zn85 1.996 . S
O90 C97 1.257 . S
C91 O86 1.254 . S
C91 O87 1.269 . S
C92 O93 1.249 . S
C92 O94 1.270 . S
O93 Zn85 1.943 . S
O93 C92 1.249 . S
O94 Zn84 2.067 . S
O94 C92 1.270 . S
C95 O88 1.262 . S
C95 O96 1.232 . S
O96 C95 1.232 . S
C97 O89 1.260 . S
C97 O90 1.257 . S
Zn98 O101 2.031 . S
Zn98 O103 2.049 . S
Zn98 O108 2.067 . S
Zn99 O100 1.962 . S
Zn99 O102 1.986 . S
Zn99 O104 1.996 . S
Zn99 O107 1.943 . S
O100 Zn99 1.962 . S
O100 C105 1.254 . S
O101 Zn98 2.031 . S
O101 C105 1.269 . S
O102 Zn99 1.986 . S
O102 C109 1.262 . S
O103 Zn98 2.049 . S
O103 C111 1.260 . S
O104 Zn99 1.996 . S
O104 C111 1.257 . S
C105 O100 1.254 . S
C105 O101 1.269 . S
C106 O107 1.249 . S
C106 O108 1.270 . S
O107 Zn99 1.943 . S
O107 C106 1.249 . S
O108 Zn98 2.067 . S
O108 C106 1.270 . S
C109 O102 1.262 . S
C109 O110 1.232 . S
O110 C109 1.232 . S
C111 O103 1.260 . S
C111 O104 1.257 . S
Zn112 O115 2.031 1_545 S
Zn112 O117 2.049 . S
Zn112 O122 2.067 . S
Zn113 O114 1.962 . S
Zn113 O116 1.986 . S
Zn113 O118 1.996 . S
Zn113 O121 1.943 . S
O114 Zn113 1.962 . S
O114 C119 1.263 . S
O115 Zn112 2.031 1_565 S
O115 C119 1.268 1_565 S
O116 Zn113 1.986 . S
O116 C123 1.262 . S
O117 Zn112 2.049 . S
O117 C125 1.260 . S
O118 Zn113 1.996 . S
O118 C125 1.257 . S
C119 O114 1.263 . S
C119 O115 1.268 1_545 S
C120 O121 1.249 . S
C120 O122 1.270 . S
O121 Zn113 1.943 . S
O121 C120 1.249 . S
O122 Zn112 2.067 . S
O122 C120 1.270 . S
C123 O116 1.262 . S
C123 O124 1.232 . S
O124 C123 1.232 . S
C125 O117 1.260 . S
C125 O118 1.257 . S
Zn126 O129 2.031 . S
Zn126 O131 2.049 . S
Zn126 O136 2.067 . S
Zn127 O128 1.962 . S
Zn127 O130 1.986 . S
Zn127 O132 1.996 . S
Zn127 O135 1.943 . S
O128 Zn127 1.962 . S
O128 C133 1.254 . S
O129 Zn126 2.031 . S
O129 C133 1.269 . S
O130 Zn127 1.986 . S
O130 C137 1.262 . S
O131 Zn126 2.049 . S
O131 C139 1.260 . S
O132 Zn127 1.996 . S
O132 C139 1.257 . S
C133 O128 1.254 . S
C133 O129 1.269 . S
C134 O135 1.249 . S
C134 O136 1.270 . S
O135 Zn127 1.943 . S
O135 C134 1.249 . S
O136 Zn126 2.067 . S
O136 C134 1.270 . S
C137 O130 1.262 . S
C137 O138 1.232 . S
O138 C137 1.232 . S
C139 O131 1.260 . S
C139 O132 1.257 . S
Zn140 O143 2.031 . S
Zn140 O145 2.049 . S
Zn140 O150 2.067 . S
Zn141 O142 1.962 . S
Zn141 O144 1.986 . S
Zn141 O146 1.996 . S
Zn141 O149 1.943 . S
O142 Zn141 1.962 . S
O142 C147 1.254 . S
O143 Zn140 2.031 . S
O143 C147 1.269 . S
O144 Zn141 1.986 . S
O144 C151 1.262 . S
O145 Zn140 2.049 . S
O145 C153 1.260 . S
O146 Zn141 1.996 . S
O146 C153 1.257 . S
C147 O142 1.254 . S
C147 O143 1.269 . S
C148 O149 1.249 . S
C148 O150 1.270 . S
O149 Zn141 1.943 . S
O149 C148 1.249 . S
O150 Zn140 2.067 . S
O150 C148 1.270 . S
C151 O144 1.262 . S
C151 O152 1.232 . S
O152 C151 1.232 . S
C153 O145 1.260 . S
C153 O146 1.257 . S
Zn154 O157 2.031 1_556 S
Zn154 O159 2.049 . S
Zn154 O164 2.067 . S
Zn155 O156 1.962 . S
Zn155 O158 1.986 . S
Zn155 O160 1.996 . S
Zn155 O163 1.943 1_554 S
O156 Zn155 1.962 . S
O156 C161 1.254 . S
O157 Zn154 2.031 1_554 S
O157 C161 1.269 . S
O158 Zn155 1.986 . S
O158 C165 1.262 . S
O159 Zn154 2.049 . S
O159 C167 1.260 . S
O160 Zn155 1.996 . S
O160 C167 1.257 1_554 S
C161 O156 1.254 . S
C161 O157 1.269 . S
C162 O163 1.249 . S
C162 O164 1.270 . S
O163 Zn155 1.943 1_556 S
O163 C162 1.249 . S
O164 Zn154 2.067 . S
O164 C162 1.270 . S
C165 O158 1.262 . S
C165 O166 1.232 . S
O166 C165 1.232 . S
C167 O159 1.260 . S
C167 O160 1.257 1_556 S
Zn168 O171 2.031 . S
Zn168 O173 2.049 1_545 S
Zn168 O178 2.067 . S
Zn169 O170 1.962 1_565 S
Zn169 O172 1.986 . S
Zn169 O174 1.996 . S
Zn169 O177 1.943 . S
O170 Zn169 1.962 1_545 S
O170 C175 1.254 . S
O171 Zn168 2.031 . S
O171 C175 1.269 . S
O172 Zn169 1.986 . S
O172 C179 1.262 . S
O173 Zn168 2.049 1_565 S
O173 C181 1.260 . S
O174 Zn169 1.996 . S
O174 C181 1.257 . S
C175 O170 1.254 . S
C175 O171 1.269 . S
C176 O177 1.249 . S
C176 O178 1.270 1_565 S
O177 Zn169 1.943 . S
O177 C176 1.249 . S
O178 Zn168 2.067 . S
O178 C176 1.270 1_545 S
C179 O172 1.262 . S
C179 O180 1.232 . S
O180 C179 1.232 . S
C181 O173 1.260 . S
C181 O174 1.257 . S
Zn182 O185 2.031 . S
Zn182 O187 2.049 . S
Zn182 O192 2.067 . S
Zn183 O184 1.962 . S
Zn183 O186 1.986 . S
Zn183 O188 1.996 . S
Zn183 O191 1.943 . S
O184 Zn183 1.962 . S
O184 C189 1.254 . S
O185 Zn182 2.031 . S
O185 C189 1.269 . S
O186 Zn183 1.986 . S
O186 C193 1.262 . S
O187 Zn182 2.049 . S
O187 C195 1.260 . S
O188 Zn183 1.996 . S
O188 C195 1.257 . S
C189 O184 1.254 . S
C189 O185 1.269 . S
C190 O191 1.249 . S
C190 O192 1.270 . S
O191 Zn183 1.943 . S
O191 C190 1.249 . S
O192 Zn182 2.067 . S
O192 C190 1.270 . S
C193 O186 1.262 . S
C193 O194 1.232 . S
O194 C193 1.232 . S
C195 O187 1.260 . S
C195 O188 1.257 . S
Zn196 O199 2.031 1_545 S
Zn196 O201 2.049 . S
Zn196 O206 2.067 1_545 S
Zn197 O198 1.962 . S
Zn197 O200 1.986 . S
Zn197 O202 1.996 . S
Zn197 O205 1.930 1_545 S
O198 Zn197 1.962 . S
O198 C203 1.254 1_545 S
O199 Zn196 2.031 1_565 S
O199 C203 1.269 . S
O200 Zn197 1.986 . S
O200 C207 1.262 . S
O201 Zn196 2.049 . S
O201 C209 1.260 . S
O202 Zn197 1.996 . S
O202 C209 1.257 . S
C203 O198 1.254 1_565 S
C203 O199 1.269 . S
C204 O205 1.260 . S
C204 O206 1.270 . S
O205 Zn197 1.930 1_565 S
O205 C204 1.260 . S
O206 Zn196 2.067 1_565 S
O206 C204 1.270 . S
C207 O200 1.262 . S
C207 O208 1.232 . S
O208 C207 1.232 . S
C209 O201 1.260 . S
C209 O202 1.257 . S
Zn210 O213 2.031 . S
Zn210 O215 2.049 . S
Zn210 O220 2.067 . S
Zn211 O212 1.962 . S
Zn211 O214 1.986 . S
Zn211 O216 1.996 . S
Zn211 O219 1.943 . S
O212 Zn211 1.962 . S
O212 C217 1.254 . S
O213 Zn210 2.031 . S
O213 C217 1.269 . S
O214 Zn211 1.986 . S
O214 C221 1.262 . S
O215 Zn210 2.049 . S
O215 C223 1.260 . S
O216 Zn211 1.996 . S
O216 C223 1.257 . S
C217 O212 1.254 . S
C217 O213 1.269 . S
C218 O219 1.249 . S
C218 O220 1.270 . S
O219 Zn211 1.943 . S
O219 C218 1.249 . S
O220 Zn210 2.067 . S
O220 C218 1.270 . S
C221 O214 1.262 . S
C221 O222 1.232 . S
O222 C221 1.232 . S
C223 O215 1.260 . S
C223 O216 1.257 . S
Zn224 O227 2.031 1_554 S
Zn224 O229 2.049 . S
Zn224 O234 2.067 . S
Zn225 O226 1.962 . S
Zn225 O228 1.986 . S
Zn225 O230 1.996 . S
Zn225 O233 1.943 . S
O226 Zn225 1.962 . S
O226 C231 1.263 . S
O227 Zn224 2.031 1_556 S
O227 C231 1.268 1_556 S
O228 Zn225 1.986 . S
O228 C235 1.262 . S
O229 Zn224 2.049 . S
O229 C237 1.260 . S
O230 Zn225 1.996 . S
O230 C237 1.257 . S
C231 O226 1.263 . S
C231 O227 1.268 1_554 S
C232 O233 1.249 . S
C232 O234 1.270 . S
O233 Zn225 1.943 . S
O233 C232 1.249 . S
O234 Zn224 2.067 . S
O234 C232 1.270 . S
C235 O228 1.262 . S
C235 O236 1.232 . S
O236 C235 1.232 . S
C237 O229 1.260 . S
C237 O230 1.257 . S
Zn238 O241 2.031 . S
Zn238 O243 2.049 . S
Zn238 O248 2.067 . S
Zn239 O240 1.962 . S
Zn239 O242 1.986 . S
Zn239 O244 1.996 . S
Zn239 O247 1.943 . S
O240 Zn239 1.962 . S
O240 C245 1.254 . S
O241 Zn238 2.031 . S
O241 C245 1.269 . S
O242 Zn239 1.986 . S
O242 C249 1.262 . S
O243 Zn238 2.049 . S
O243 C251 1.260 . S
O244 Zn239 1.996 . S
O244 C251 1.257 . S
C245 O240 1.254 . S
C245 O241 1.269 . S
C246 O247 1.249 . S
C246 O248 1.270 . S
O247 Zn239 1.943 . S
O247 C246 1.249 . S
O248 Zn238 2.067 . S
O248 C246 1.270 . S
C249 O242 1.262 . S
C249 O250 1.232 . S
O250 C249 1.232 . S
C251 O243 1.260 . S
C251 O244 1.257 . S
Zn252 O255 2.031 . S
Zn252 O257 2.049 . S
Zn252 O262 2.067 . S
Zn253 O254 1.962 . S
Zn253 O256 1.986 . S
Zn253 O258 1.996 . S
Zn253 O261 1.943 . S
O254 Zn253 1.962 . S
O254 C259 1.254 . S
O255 Zn252 2.031 . S
O255 C259 1.269 . S
O256 Zn253 1.986 . S
O256 C263 1.262 . S
O257 Zn252 2.049 . S
O257 C265 1.260 . S
O258 Zn253 1.996 . S
O258 C265 1.257 . S
C259 O254 1.254 . S
C259 O255 1.269 . S
C260 O261 1.249 . S
C260 O262 1.270 . S
O261 Zn253 1.943 . S
O261 C260 1.249 . S
O262 Zn252 2.067 . S
O262 C260 1.270 . S
C263 O256 1.262 . S
C263 O264 1.232 . S
O264 C263 1.232 . S
C265 O257 1.260 . S
C265 O258 1.257 . S
Zn266 O269 2.031 . S
Zn266 O271 2.049 . S
Zn266 O276 2.067 . S
Zn267 O268 1.962 . S
Zn267 O270 1.986 . S
Zn267 O272 1.996 . S
Zn267 O275 1.943 . S
O268 Zn267 1.962 . S
O268 C273 1.254 . S
O269 Zn266 2.031 . S
O269 C273 1.269 . S
O270 Zn267 1.986 . S
O270 C277 1.262 . S
O271 Zn266 2.049 . S
O271 C279 1.260 . S
O272 Zn267 1.996 . S
O272 C279 1.257 . S
C273 O268 1.254 . S
C273 O269 1.269 . S
C274 O275 1.249 . S
C274 O276 1.270 . S
O275 Zn267 1.943 . S
O275 C274 1.249 . S
O276 Zn266 2.067 . S
O276 C274 1.270 . S
C277 O270 1.262 . S
C277 O278 1.232 . S
O278 C277 1.232 . S
C279 O271 1.260 . S
C279 O272 1.257 . S
Zn280 O283 2.031 . S
Zn280 O285 2.049 . S
Zn280 O290 2.067 . S
Zn281 O282 1.962 . S
Zn281 O284 1.986 . S
Zn281 O286 1.996 . S
Zn281 O289 1.943 . S
O282 Zn281 1.962 . S
O282 C287 1.254 . S
O283 Zn280 2.031 . S
O283 C287 1.269 . S
O284 Zn281 1.986 . S
O284 C291 1.262 . S
O285 Zn280 2.049 . S
O285 C293 1.260 . S
O286 Zn281 1.996 . S
O286 C293 1.257 . S
C287 O282 1.254 . S
C287 O283 1.269 . S
C288 O289 1.249 . S
C288 O290 1.270 . S
O289 Zn281 1.943 . S
O289 C288 1.249 . S
O290 Zn280 2.067 . S
O290 C288 1.270 . S
C291 O284 1.262 . S
C291 O292 1.232 . S
O292 C291 1.232 . S
C293 O285 1.260 . S
C293 O286 1.257 . S
Zn294 O297 2.031 . S
Zn294 O299 2.049 . S
Zn294 O304 2.067 . S
Zn295 O296 1.962 . S
Zn295 O298 1.986 . S
Zn295 O300 1.996 . S
Zn295 O303 1.943 . S
O296 Zn295 1.962 . S
O296 C301 1.254 . S
O297 Zn294 2.031 . S
O297 C301 1.269 . S
O298 Zn295 1.986 . S
O298 C305 1.262 . S
O299 Zn294 2.049 . S
O299 C307 1.260 . S
O300 Zn295 1.996 . S
O300 C307 1.257 . S
C301 O296 1.254 . S
C301 O297 1.269 . S
C302 O303 1.249 . S
C302 O304 1.270 . S
O303 Zn295 1.943 . S
O303 C302 1.249 . S
O304 Zn294 2.067 . S
O304 C302 1.270 . S
C305 O298 1.262 . S
C305 O306 1.232 . S
O306 C305 1.232 . S
C307 O299 1.260 . S
C307 O300 1.257 . S
Zn308 O311 2.031 . S
Zn308 O313 2.049 . S
Zn308 O318 2.067 . S
Zn309 O310 1.962 . S
Zn309 O312 1.986 . S
Zn309 O314 1.996 . S
Zn309 O317 1.943 . S
O310 Zn309 1.962 . S
O310 C315 1.254 . S
O311 Zn308 2.031 . S
O311 C315 1.269 . S
O312 Zn309 1.986 . S
O312 C319 1.262 . S
O313 Zn308 2.049 . S
O313 C321 1.260 . S
O314 Zn309 1.996 . S
O314 C321 1.257 . S
C315 O310 1.254 . S
C315 O311 1.269 . S
C316 O317 1.249 . S
C316 O318 1.270 . S
O317 Zn309 1.943 . S
O317 C316 1.249 . S
O318 Zn308 2.067 . S
O318 C316 1.270 . S
C319 O312 1.262 . S
C319 O320 1.232 . S
O320 C319 1.232 . S
C321 O313 1.260 . S
C321 O314 1.257 . S
Zn322 O325 2.031 . S
Zn322 O327 2.049 . S
Zn322 O332 2.067 . S
Zn323 O324 1.962 . S
Zn323 O326 1.986 . S
Zn323 O328 1.996 . S
Zn323 O331 1.943 . S
O324 Zn323 1.962 . S
O324 C329 1.254 . S
O325 Zn322 2.031 . S
O325 C329 1.269 . S
O326 Zn323 1.986 . S
O326 C333 1.262 . S
O327 Zn322 2.049 . S
O327 C335 1.260 . S
O328 Zn323 1.996 . S
O328 C335 1.257 . S
C329 O324 1.254 . S
C329 O325 1.269 . S
C330 O331 1.249 . S
C330 O332 1.270 . S
O331 Zn323 1.943 . S
O331 C330 1.249 . S
O332 Zn322 2.067 . S
O332 C330 1.270 . S
C333 O326 1.262 . S
C333 O334 1.232 . S
O334 C333 1.232 . S
C335 O327 1.260 . S
C335 O328 1.257 . S
Zn336 O339 2.031 1_455 S
Zn336 O341 2.049 . S
Zn336 O346 2.067 . S
Zn337 O338 1.962 . S
Zn337 O340 1.986 . S
Zn337 O342 1.996 1_655 S
Zn337 O345 1.943 . S
O338 Zn337 1.962 . S
O338 C343 1.254 . S
O339 Zn336 2.031 1_655 S
O339 C343 1.269 . S
O340 Zn337 1.986 . S
O340 C347 1.262 . S
O341 Zn336 2.049 . S
O341 C349 1.260 . S
O342 Zn337 1.996 1_455 S
O342 C349 1.257 . S
C343 O338 1.254 . S
C343 O339 1.269 . S
C344 O345 1.249 1_455 S
C344 O346 1.270 . S
O345 Zn337 1.943 . S
O345 C344 1.249 1_655 S
O346 Zn336 2.067 . S
O346 C344 1.270 . S
C347 O340 1.262 . S
C347 O348 1.232 . S
O348 C347 1.232 . S
C349 O341 1.260 . S
C349 O342 1.257 . S
Zn350 O353 2.031 . S
Zn350 O355 2.049 . S
Zn350 O360 2.067 . S
Zn351 O352 1.962 . S
Zn351 O354 1.986 . S
Zn351 O356 1.996 . S
Zn351 O359 1.943 . S
O352 Zn351 1.962 . S
O352 C357 1.254 . S
O353 Zn350 2.031 . S
O353 C357 1.269 . S
O354 Zn351 1.986 . S
O354 C361 1.262 . S
O355 Zn350 2.049 . S
O355 C363 1.260 . S
O356 Zn351 1.996 . S
O356 C363 1.257 . S
C357 O352 1.254 . S
C357 O353 1.269 . S
C358 O359 1.249 . S
C358 O360 1.270 . S
O359 Zn351 1.943 . S
O359 C358 1.249 . S
O360 Zn350 2.067 . S
O360 C358 1.270 . S
C361 O354 1.262 . S
C361 O362 1.232 . S
O362 C361 1.232 . S
C363 O355 1.260 . S
C363 O356 1.257 . S
Zn364 O367 2.031 . S
Zn364 O369 2.049 . S
Zn364 O374 2.067 . S
Zn365 O366 1.962 . S
Zn365 O368 1.986 . S
Zn365 O370 1.996 . S
Zn365 O373 1.943 . S
O366 Zn365 1.962 . S
O366 C371 1.254 . S
O367 Zn364 2.031 . S
O367 C371 1.269 . S
O368 Zn365 1.986 . S
O368 C375 1.262 . S
O369 Zn364 2.049 . S
O369 C377 1.260 . S
O370 Zn365 1.996 . S
O370 C377 1.257 . S
C371 O366 1.254 . S
C371 O367 1.269 . S
C372 O373 1.249 . S
C372 O374 1.270 . S
O373 Zn365 1.943 . S
O373 C372 1.249 . S
O374 Zn364 2.067 . S
O374 C372 1.270 . S
C375 O368 1.262 . S
C375 O376 1.232 . S
O376 C375 1.232 . S
C377 O369 1.260 . S
C377 O370 1.257 . S
Zn378 O381 2.031 . S
Zn378 O383 2.049 . S
Zn378 O388 2.067 . S
Zn379 O380 1.962 . S
Zn379 O382 1.986 . S
Zn379 O384 1.996 . S
Zn379 O387 1.943 . S
O380 Zn379 1.962 . S
O380 C385 1.254 . S
O381 Zn378 2.031 . S
O381 C385 1.269 . S
O382 Zn379 1.986 . S
O382 C389 1.262 . S
O383 Zn378 2.049 . S
O383 C391 1.260 . S
O384 Zn379 1.996 . S
O384 C391 1.257 . S
C385 O380 1.254 . S
C385 O381 1.269 . S
C386 O387 1.249 . S
C386 O388 1.270 . S
O387 Zn379 1.943 . S
O387 C386 1.249 . S
O388 Zn378 2.067 . S
O388 C386 1.270 . S
C389 O382 1.262 . S
C389 O390 1.232 . S
O390 C389 1.232 . S
C391 O383 1.260 . S
C391 O384 1.257 . S
Zn392 O395 2.031 1_455 S
Zn392 O397 2.049 . S
Zn392 O402 2.067 . S
Zn393 O394 1.962 . S
Zn393 O396 1.986 . S
Zn393 O398 1.996 1_655 S
Zn393 O401 1.943 1_655 S
O394 Zn393 1.962 . S
O394 C399 1.254 . S
O395 Zn392 2.031 1_655 S
O395 C399 1.269 . S
O396 Zn393 1.986 . S
O396 C403 1.262 . S
O397 Zn392 2.049 . S
O397 C405 1.260 . S
O398 Zn393 1.996 1_455 S
O398 C405 1.257 . S
C399 O394 1.254 . S
C399 O395 1.269 . S
C400 O401 1.249 . S
C400 O402 1.270 . S
O401 Zn393 1.943 1_455 S
O401 C400 1.249 . S
O402 Zn392 2.067 . S
O402 C400 1.270 . S
C403 O396 1.262 . S
C403 O404 1.232 . S
O404 C403 1.232 . S
C405 O397 1.260 . S
C405 O398 1.257 . S
Zn406 O409 2.031 . S
Zn406 O411 2.049 . S
Zn406 O416 2.067 . S
Zn407 O408 1.962 . S
Zn407 O410 1.986 . S
Zn407 O412 1.996 . S
Zn407 O415 1.943 . S
O408 Zn407 1.962 . S
O408 C413 1.254 . S
O409 Zn406 2.031 . S
O409 C413 1.269 . S
O410 Zn407 1.986 . S
O410 C417 1.262 . S
O411 Zn406 2.049 . S
O411 C419 1.260 . S
O412 Zn407 1.996 . S
O412 C419 1.257 . S
C413 O408 1.254 . S
C413 O409 1.269 . S
C414 O415 1.249 . S
C414 O416 1.270 . S
O415 Zn407 1.943 . S
O415 C414 1.249 . S
O416 Zn406 2.067 . S
O416 C414 1.270 . S
C417 O410 1.262 . S
C417 O418 1.232 . S
O418 C417 1.232 . S
C419 O411 1.260 . S
C419 O412 1.257 . S
Zn420 O423 2.031 . S
Zn420 O425 2.049 . S
Zn420 O430 2.067 . S
Zn421 O422 1.962 . S
Zn421 O424 1.986 . S
Zn421 O426 1.996 . S
Zn421 O429 1.943 . S
O422 Zn421 1.962 . S
O422 C427 1.254 . S
O423 Zn420 2.031 . S
O423 C427 1.269 . S
O424 Zn421 1.986 . S
O424 C431 1.262 . S
O425 Zn420 2.049 . S
O425 C433 1.260 . S
O426 Zn421 1.996 . S
O426 C433 1.257 . S
C427 O422 1.254 . S
C427 O423 1.269 . S
C428 O429 1.249 . S
C428 O430 1.270 . S
O429 Zn421 1.943 . S
O429 C428 1.249 . S
O430 Zn420 2.067 . S
O430 C428 1.270 . S
C431 O424 1.262 . S
C431 O432 1.232 . S
O432 C431 1.232 . S
C433 O425 1.260 . S
C433 O426 1.257 . S
Zn434 O437 2.032 1_455 S
Zn434 O439 2.048 . S
Zn434 O444 2.067 1_455 S
Zn435 O436 1.962 . S
Zn435 O438 1.986 . S
Zn435 O440 1.996 . S
Zn435 O443 1.943 . S
O436 Zn435 1.962 . S
O436 C441 1.254 . S
O437 Zn434 2.032 1_655 S
O437 C441 1.269 1_655 S
O438 Zn435 1.986 . S
O438 C445 1.262 . S
O439 Zn434 2.048 . S
O439 C447 1.260 . S
O440 Zn435 1.996 . S
O440 C447 1.257 . S
C441 O436 1.254 . S
C441 O437 1.269 1_455 S
C442 O443 1.249 . S
C442 O444 1.270 1_455 S
O443 Zn435 1.943 . S
O443 C442 1.249 . S
O444 Zn434 2.067 1_655 S
O444 C442 1.270 1_655 S
C445 O438 1.262 . S
C445 O446 1.232 . S
O446 C445 1.232 . S
C447 O439 1.260 . S
C447 O440 1.257 . S
Zn448 O451 2.031 1_545 S
Zn448 O453 2.049 . S
Zn448 O458 2.067 . S
Zn449 O450 1.962 . S
Zn449 O452 1.986 . S
Zn449 O454 1.996 1_565 S
Zn449 O457 1.943 . S
O450 Zn449 1.962 . S
O450 C455 1.254 . S
O451 Zn448 2.031 1_565 S
O451 C455 1.269 . S
O452 Zn449 1.986 . S
O452 C459 1.262 . S
O453 Zn448 2.049 . S
O453 C461 1.260 . S
O454 Zn449 1.996 1_545 S
O454 C461 1.257 . S
C455 O450 1.254 . S
C455 O451 1.269 . S
C456 O457 1.249 1_545 S
C456 O458 1.270 . S
O457 Zn449 1.943 . S
O457 C456 1.249 1_565 S
O458 Zn448 2.067 . S
O458 C456 1.270 . S
C459 O452 1.262 . S
C459 O460 1.232 . S
O460 C459 1.232 . S
C461 O453 1.260 . S
C461 O454 1.257 . S
Zn462 O465 2.031 . S
Zn462 O467 2.049 . S
Zn462 O472 2.067 . S
Zn463 O464 1.962 . S
Zn463 O466 1.986 . S
Zn463 O468 1.996 . S
Zn463 O471 1.943 . S
O464 Zn463 1.962 . S
O464 C469 1.254 . S
O465 Zn462 2.031 . S
O465 C469 1.269 . S
O466 Zn463 1.986 . S
O466 C473 1.262 . S
O467 Zn462 2.049 . S
O467 C475 1.260 . S
O468 Zn463 1.996 . S
O468 C475 1.257 . S
C469 O464 1.254 . S
C469 O465 1.269 . S
C470 O471 1.249 . S
C470 O472 1.270 . S
O471 Zn463 1.943 . S
O471 C470 1.249 . S
O472 Zn462 2.067 . S
O472 C470 1.270 . S
C473 O466 1.262 . S
C473 O474 1.232 . S
O474 C473 1.232 . S
C475 O467 1.260 . S
C475 O468 1.257 . S
Zn476 O479 2.031 1_565 S
Zn476 O481 2.049 . S
Zn476 O486 2.067 . S
Zn477 O478 1.962 . S
Zn477 O480 1.986 . S
Zn477 O482 1.996 1_545 S
Zn477 O485 1.943 . S
O478 Zn477 1.962 . S
O478 C483 1.254 . S
O479 Zn476 2.031 1_545 S
O479 C483 1.269 . S
O480 Zn477 1.986 . S
O480 C487 1.262 . S
O481 Zn476 2.049 . S
O481 C489 1.260 . S
O482 Zn477 1.996 1_565 S
O482 C489 1.257 . S
C483 O478 1.254 . S
C483 O479 1.269 . S
C484 O485 1.249 . S
C484 O486 1.270 1_545 S
O485 Zn477 1.943 . S
O485 C484 1.249 . S
O486 Zn476 2.067 . S
O486 C484 1.270 1_565 S
C487 O480 1.262 . S
C487 O488 1.232 . S
O488 C487 1.232 . S
C489 O481 1.260 . S
C489 O482 1.257 . S
Zn490 O493 2.030 1_556 S
Zn490 O495 2.049 . S
Zn490 O500 2.061 1_556 S
Zn491 O492 1.962 . S
Zn491 O494 1.986 . S
Zn491 O496 1.996 . S
Zn491 O499 1.943 . S
O492 Zn491 1.962 . S
O492 C497 1.254 . S
O493 Zn490 2.030 1_554 S
O493 C497 1.267 1_554 S
O494 Zn491 1.986 . S
O494 C501 1.262 . S
O495 Zn490 2.049 . S
O495 C503 1.260 . S
O496 Zn491 1.996 . S
O496 C503 1.257 . S
C497 O492 1.254 . S
C497 O493 1.267 1_556 S
C498 O499 1.249 . S
C498 O500 1.269 1_556 S
O499 Zn491 1.943 . S
O499 C498 1.249 . S
O500 Zn490 2.061 1_554 S
O500 C498 1.269 1_554 S
C501 O494 1.262 . S
C501 O502 1.232 . S
O502 C501 1.232 . S
C503 O495 1.260 . S
C503 O496 1.257 . S
Zn504 O507 2.031 1_565 S
Zn504 O509 2.049 . S
Zn504 O514 2.067 . S
Zn505 O506 1.962 . S
Zn505 O508 1.986 . S
Zn505 O510 1.996 1_545 S
Zn505 O513 1.943 . S
O506 Zn505 1.962 . S
O506 C511 1.254 . S
O507 Zn504 2.031 1_545 S
O507 C511 1.269 . S
O508 Zn505 1.986 . S
O508 C515 1.262 . S
O509 Zn504 2.049 . S
O509 C517 1.260 . S
O510 Zn505 1.996 1_565 S
O510 C517 1.257 . S
C511 O506 1.254 . S
C511 O507 1.269 . S
C512 O513 1.249 1_565 S
C512 O514 1.270 . S
O513 Zn505 1.943 . S
O513 C512 1.249 1_545 S
O514 Zn504 2.067 . S
O514 C512 1.270 . S
C515 O508 1.262 . S
C515 O516 1.232 . S
O516 C515 1.232 . S
C517 O509 1.260 . S
C517 O510 1.257 . S
Zn518 O521 2.031 . S
Zn518 O523 2.049 . S
Zn518 O528 2.067 . S
Zn519 O520 1.962 . S
Zn519 O522 1.986 . S
Zn519 O524 1.996 . S
Zn519 O527 1.943 . S
O520 Zn519 1.962 . S
O520 C525 1.254 . S
O521 Zn518 2.031 . S
O521 C525 1.269 . S
O522 Zn519 1.986 . S
O522 C529 1.262 . S
O523 Zn518 2.049 . S
O523 C531 1.260 . S
O524 Zn519 1.996 . S
O524 C531 1.257 . S
C525 O520 1.254 . S
C525 O521 1.269 . S
C526 O527 1.249 . S
C526 O528 1.270 . S
O527 Zn519 1.943 . S
O527 C526 1.249 . S
O528 Zn518 2.067 . S
O528 C526 1.270 . S
C529 O522 1.262 . S
C529 O530 1.232 . S
O530 C529 1.232 . S
C531 O523 1.260 . S
C531 O524 1.257 . S
Zn532 O535 2.031 1_545 S
Zn532 O537 2.049 . S
Zn532 O542 2.067 . S
Zn533 O534 1.962 . S
Zn533 O536 1.986 . S
Zn533 O538 1.996 1_565 S
Zn533 O541 1.943 1_565 S
O534 Zn533 1.962 . S
O534 C539 1.254 . S
O535 Zn532 2.031 1_565 S
O535 C539 1.269 . S
O536 Zn533 1.986 . S
O536 C543 1.262 . S
O537 Zn532 2.049 . S
O537 C545 1.260 . S
O538 Zn533 1.996 1_545 S
O538 C545 1.257 . S
C539 O534 1.254 . S
C539 O535 1.269 . S
C540 O541 1.249 . S
C540 O542 1.270 . S
O541 Zn533 1.943 1_545 S
O541 C540 1.249 . S
O542 Zn532 2.067 . S
O542 C540 1.270 . S
C543 O536 1.262 . S
C543 O544 1.232 . S
O544 C543 1.232 . S
C545 O537 1.260 . S
C545 O538 1.257 . S
Zn546 O549 2.032 1_554 S
Zn546 O551 2.048 . S
Zn546 O556 2.067 1_554 S
Zn547 O548 1.962 . S
Zn547 O550 1.986 . S
Zn547 O552 1.996 . S
Zn547 O555 1.943 . S
O548 Zn547 1.962 . S
O548 C553 1.254 . S
O549 Zn546 2.032 1_556 S
O549 C553 1.269 1_556 S
O550 Zn547 1.986 . S
O550 C557 1.262 . S
O551 Zn546 2.048 . S
O551 C559 1.260 . S
O552 Zn547 1.996 . S
O552 C559 1.257 . S
C553 O548 1.254 . S
C553 O549 1.269 1_554 S
C554 O555 1.249 . S
C554 O556 1.270 1_554 S
O555 Zn547 1.943 . S
O555 C554 1.249 . S
O556 Zn546 2.067 1_556 S
O556 C554 1.270 1_556 S
C557 O550 1.262 . S
C557 O558 1.232 . S
O558 C557 1.232 . S
C559 O551 1.260 . S
C559 O552 1.257 . S
Zn560 O563 2.031 1_554 S
Zn560 O565 2.049 . S
Zn560 O570 2.067 . S
Zn561 O562 1.962 . S
Zn561 O564 1.986 . S
Zn561 O566 1.996 1_556 S
Zn561 O569 1.943 . S
O562 Zn561 1.962 . S
O562 C567 1.254 . S
O563 Zn560 2.031 1_556 S
O563 C567 1.269 . S
O564 Zn561 1.986 . S
O564 C571 1.262 . S
O565 Zn560 2.049 . S
O565 C573 1.260 . S
O566 Zn561 1.996 1_554 S
O566 C573 1.257 . S
C567 O562 1.254 . S
C567 O563 1.269 . S
C568 O569 1.249 1_554 S
C568 O570 1.270 . S
O569 Zn561 1.943 . S
O569 C568 1.249 1_556 S
O570 Zn560 2.067 . S
O570 C568 1.270 . S
C571 O564 1.262 . S
C571 O572 1.232 . S
O572 C571 1.232 . S
C573 O565 1.260 . S
C573 O566 1.257 . S
Zn574 O577 2.031 1_556 S
Zn574 O579 2.049 . S
Zn574 O584 2.067 . S
Zn575 O576 1.962 . S
Zn575 O578 1.986 . S
Zn575 O580 1.996 1_554 S
Zn575 O583 1.943 . S
O576 Zn575 1.962 . S
O576 C581 1.254 . S
O577 Zn574 2.031 1_554 S
O577 C581 1.269 . S
O578 Zn575 1.986 . S
O578 C585 1.262 . S
O579 Zn574 2.049 . S
O579 C587 1.260 . S
O580 Zn575 1.996 1_556 S
O580 C587 1.257 . S
C581 O576 1.254 . S
C581 O577 1.269 . S
C582 O583 1.249 . S
C582 O584 1.270 1_554 S
O583 Zn575 1.943 . S
O583 C582 1.249 . S
O584 Zn574 2.067 . S
O584 C582 1.270 1_556 S
C585 O578 1.262 . S
C585 O586 1.232 . S
O586 C585 1.232 . S
C587 O579 1.260 . S
C587 O580 1.257 . S
Zn588 O591 2.031 . S
Zn588 O593 2.049 . S
Zn588 O598 2.067 . S
Zn589 O590 1.962 . S
Zn589 O592 1.986 . S
Zn589 O594 1.996 . S
Zn589 O597 1.943 . S
O590 Zn589 1.962 . S
O590 C595 1.254 . S
O591 Zn588 2.031 . S
O591 C595 1.269 . S
O592 Zn589 1.986 . S
O592 C599 1.262 . S
O593 Zn588 2.049 . S
O593 C601 1.260 . S
O594 Zn589 1.996 . S
O594 C601 1.257 . S
C595 O590 1.254 . S
C595 O591 1.269 . S
C596 O597 1.249 . S
C596 O598 1.270 . S
O597 Zn589 1.943 . S
O597 C596 1.249 . S
O598 Zn588 2.067 . S
O598 C596 1.270 . S
C599 O592 1.262 . S
C599 O600 1.232 . S
O600 C599 1.232 . S
C601 O593 1.260 . S
C601 O594 1.257 . S
Zn602 O605 2.031 . S
Zn602 O607 2.049 . S
Zn602 O612 2.067 . S
Zn603 O604 1.962 . S
Zn603 O606 1.986 . S
Zn603 O608 1.996 . S
Zn603 O611 1.943 . S
O604 Zn603 1.962 . S
O604 C609 1.254 . S
O605 Zn602 2.031 . S
O605 C609 1.269 . S
O606 Zn603 1.986 . S
O606 C613 1.262 . S
O607 Zn602 2.049 . S
O607 C615 1.260 . S
O608 Zn603 1.996 . S
O608 C615 1.257 . S
C609 O604 1.254 . S
C609 O605 1.269 . S
C610 O611 1.249 . S
C610 O612 1.270 . S
O611 Zn603 1.943 . S
O611 C610 1.249 . S
O612 Zn602 2.067 . S
O612 C610 1.270 . S
C613 O606 1.262 . S
C613 O614 1.232 . S
O614 C613 1.232 . S
C615 O607 1.260 . S
C615 O608 1.257 . S
Zn616 O619 2.032 1_545 S
Zn616 O621 2.048 . S
Zn616 O626 2.067 1_545 S
Zn617 O618 1.962 . S
Zn617 O620 1.986 . S
Zn617 O622 1.996 . S
Zn617 O625 1.943 . S
O618 Zn617 1.962 . S
O618 C623 1.254 . S
O619 Zn616 2.032 1_565 S
O619 C623 1.269 1_565 S
O620 Zn617 1.986 . S
O620 C627 1.262 . S
O621 Zn616 2.048 . S
O621 C629 1.260 . S
O622 Zn617 1.996 . S
O622 C629 1.257 . S
C623 O618 1.254 . S
C623 O619 1.269 1_545 S
C624 O625 1.249 . S
C624 O626 1.270 1_545 S
O625 Zn617 1.943 . S
O625 C624 1.249 . S
O626 Zn616 2.067 1_565 S
O626 C624 1.270 1_565 S
C627 O620 1.262 . S
C627 O628 1.232 . S
O628 C627 1.232 . S
C629 O621 1.260 . S
C629 O622 1.257 . S
Zn630 O633 2.031 . S
Zn630 O635 2.049 . S
Zn630 O640 2.067 . S
Zn631 O632 1.962 . S
Zn631 O634 1.986 . S
Zn631 O636 1.996 . S
Zn631 O639 1.943 . S
O632 Zn631 1.962 . S
O632 C637 1.254 . S
O633 Zn630 2.031 . S
O633 C637 1.269 . S
O634 Zn631 1.986 . S
O634 C641 1.262 . S
O635 Zn630 2.049 . S
O635 C643 1.260 . S
O636 Zn631 1.996 . S
O636 C643 1.257 . S
C637 O632 1.254 . S
C637 O633 1.269 . S
C638 O639 1.249 . S
C638 O640 1.270 . S
O639 Zn631 1.943 . S
O639 C638 1.249 . S
O640 Zn630 2.067 . S
O640 C638 1.270 . S
C641 O634 1.262 . S
C641 O642 1.232 . S
O642 C641 1.232 . S
C643 O635 1.260 . S
C643 O636 1.257 . S
Zn644 O647 2.031 . S
Zn644 O649 2.049 . S
Zn644 O654 2.067 . S
Zn645 O646 1.962 . S
Zn645 O648 1.986 . S
Zn645 O650 1.996 . S
Zn645 O653 1.943 . S
O646 Zn645 1.962 . S
O646 C651 1.254 . S
O647 Zn644 2.031 . S
O647 C651 1.269 . S
O648 Zn645 1.986 . S
O648 C655 1.262 . S
O649 Zn644 2.049 . S
O649 C657 1.260 . S
O650 Zn645 1.996 . S
O650 C657 1.257 . S
C651 O646 1.254 . S
C651 O647 1.269 . S
C652 O653 1.249 . S
C652 O654 1.270 . S
O653 Zn645 1.943 . S
O653 C652 1.249 . S
O654 Zn644 2.067 . S
O654 C652 1.270 . S
C655 O648 1.262 . S
C655 O656 1.232 . S
O656 C655 1.232 . S
C657 O649 1.260 . S
C657 O650 1.257 . S
Zn658 O661 2.031 . S
Zn658 O663 2.049 . S
Zn658 O668 2.067 . S
Zn659 O660 1.962 . S
Zn659 O662 1.986 . S
Zn659 O664 1.996 . S
Zn659 O667 1.943 . S
O660 Zn659 1.962 . S
O660 C665 1.254 . S
O661 Zn658 2.031 . S
O661 C665 1.269 . S
O662 Zn659 1.986 . S
O662 C669 1.262 . S
O663 Zn658 2.049 . S
O663 C671 1.260 . S
O664 Zn659 1.996 . S
O664 C671 1.257 . S
C665 O660 1.254 . S
C665 O661 1.269 . S
C666 O667 1.249 . S
C666 O668 1.270 . S
O667 Zn659 1.943 . S
O667 C666 1.249 . S
O668 Zn658 2.067 . S
O668 C666 1.270 . S
C669 O662 1.262 . S
C669 O670 1.232 . S
O670 C669 1.232 . S
C671 O663 1.260 . S
C671 O664 1.257 . S
Zn672 O675 2.031 . S
Zn672 O677 2.049 . S
Zn672 O682 2.067 . S
Zn673 O674 1.962 . S
Zn673 O676 1.986 . S
Zn673 O678 1.996 . S
Zn673 O681 1.943 . S
O674 Zn673 1.962 . S
O674 C679 1.254 . S
O675 Zn672 2.031 . S
O675 C679 1.269 . S
O676 Zn673 1.986 . S
O676 C683 1.262 . S
O677 Zn672 2.049 . S
O677 C685 1.260 . S
O678 Zn673 1.996 . S
O678 C685 1.257 . S
C679 O674 1.254 . S
C679 O675 1.269 . S
C680 O681 1.249 . S
C680 O682 1.270 . S
O681 Zn673 1.943 . S
O681 C680 1.249 . S
O682 Zn672 2.067 . S
O682 C680 1.270 . S
C683 O676 1.262 . S
C683 O684 1.232 . S
O684 C683 1.232 . S
C685 O677 1.260 . S
C685 O678 1.257 . S
Zn686 O689 2.031 . S
Zn686 O691 2.049 . S
Zn686 O696 2.067 . S
Zn687 O688 1.962 . S
Zn687 O690 1.986 . S
Zn687 O692 1.996 . S
Zn687 O695 1.943 . S
O688 Zn687 1.962 . S
O688 C693 1.254 . S
O689 Zn686 2.031 . S
O689 C693 1.269 . S
O690 Zn687 1.986 . S
O690 C697 1.262 . S
O691 Zn686 2.049 . S
O691 C699 1.260 . S
O692 Zn687 1.996 . S
O692 C699 1.257 . S
C693 O688 1.254 . S
C693 O689 1.269 . S
C694 O695 1.249 . S
C694 O696 1.270 . S
O695 Zn687 1.943 . S
O695 C694 1.249 . S
O696 Zn686 2.067 . S
O696 C694 1.270 . S
C697 O690 1.262 . S
C697 O698 1.232 . S
O698 C697 1.232 . S
C699 O691 1.260 . S
C699 O692 1.257 . S
Zn700 O703 2.031 . S
Zn700 O705 2.049 1_455 S
Zn700 O710 2.067 . S
Zn701 O702 1.962 1_655 S
Zn701 O704 1.986 . S
Zn701 O706 1.996 . S
Zn701 O709 1.943 . S
O702 Zn701 1.962 1_455 S
O702 C707 1.254 . S
O703 Zn700 2.031 . S
O703 C707 1.269 . S
O704 Zn701 1.986 . S
O704 C711 1.262 . S
O705 Zn700 2.049 1_655 S
O705 C713 1.260 . S
O706 Zn701 1.996 . S
O706 C713 1.257 . S
C707 O702 1.254 . S
C707 O703 1.269 . S
C708 O709 1.249 . S
C708 O710 1.270 1_655 S
O709 Zn701 1.943 . S
O709 C708 1.249 . S
O710 Zn700 2.067 . S
O710 C708 1.270 1_455 S
C711 O704 1.262 . S
C711 O712 1.232 . S
O712 C711 1.232 . S
C713 O705 1.260 . S
C713 O706 1.257 . S
Zn714 O717 2.031 . S
Zn714 O719 2.049 . S
Zn714 O724 2.067 . S
Zn715 O716 1.962 . S
Zn715 O718 1.986 . S
Zn715 O720 1.996 . S
Zn715 O723 1.943 . S
O716 Zn715 1.962 . S
O716 C721 1.254 . S
O717 Zn714 2.031 . S
O717 C721 1.269 . S
O718 Zn715 1.986 . S
O718 C725 1.262 . S
O719 Zn714 2.049 . S
O719 C727 1.260 . S
O720 Zn715 1.996 . S
O720 C727 1.257 . S
C721 O716 1.254 . S
C721 O717 1.269 . S
C722 O723 1.249 . S
C722 O724 1.270 . S
O723 Zn715 1.943 . S
O723 C722 1.249 . S
O724 Zn714 2.067 . S
O724 C722 1.270 . S
C725 O718 1.262 . S
C725 O726 1.232 . S
O726 C725 1.232 . S
C727 O719 1.260 . S
C727 O720 1.257 . S
Zn728 O731 2.031 . S
Zn728 O733 2.049 . S
Zn728 O738 2.067 . S
Zn729 O730 1.962 . S
Zn729 O732 1.986 . S
Zn729 O734 1.996 . S
Zn729 O737 1.943 . S
O730 Zn729 1.962 . S
O730 C735 1.254 . S
O731 Zn728 2.031 . S
O731 C735 1.269 . S
O732 Zn729 1.986 . S
O732 C739 1.262 . S
O733 Zn728 2.049 . S
O733 C741 1.260 . S
O734 Zn729 1.996 . S
O734 C741 1.257 . S
C735 O730 1.254 . S
C735 O731 1.269 . S
C736 O737 1.249 . S
C736 O738 1.270 . S
O737 Zn729 1.943 . S
O737 C736 1.249 . S
O738 Zn728 2.067 . S
O738 C736 1.270 . S
C739 O732 1.262 . S
C739 O740 1.232 . S
O740 C739 1.232 . S
C741 O733 1.260 . S
C741 O734 1.257 . S
Zn742 O745 2.031 1_655 S
Zn742 O747 2.049 . S
Zn742 O752 2.067 . S
Zn743 O744 1.962 . S
Zn743 O746 1.986 . S
Zn743 O748 1.996 . S
Zn743 O751 1.943 1_455 S
O744 Zn743 1.962 . S
O744 C749 1.254 . S
O745 Zn742 2.031 1_455 S
O745 C749 1.269 . S
O746 Zn743 1.986 . S
O746 C753 1.262 . S
O747 Zn742 2.049 . S
O747 C755 1.260 . S
O748 Zn743 1.996 . S
O748 C755 1.257 1_455 S
C749 O744 1.254 . S
C749 O745 1.269 . S
C750 O751 1.249 . S
C750 O752 1.270 . S
O751 Zn743 1.943 1_655 S
O751 C750 1.249 . S
O752 Zn742 2.067 . S
O752 C750 1.270 . S
C753 O746 1.262 . S
C753 O754 1.232 . S
O754 C753 1.232 . S
C755 O747 1.260 . S
C755 O748 1.257 1_655 S
Zn756 O759 2.031 . S
Zn756 O761 2.049 . S
Zn756 O766 2.067 . S
Zn757 O758 1.962 . S
Zn757 O760 1.986 . S
Zn757 O762 1.996 . S
Zn757 O765 1.943 . S
O758 Zn757 1.962 . S
O758 C763 1.254 . S
O759 Zn756 2.031 . S
O759 C763 1.269 . S
O760 Zn757 1.986 . S
O760 C767 1.262 . S
O761 Zn756 2.049 . S
O761 C769 1.260 . S
O762 Zn757 1.996 . S
O762 C769 1.257 . S
C763 O758 1.254 . S
C763 O759 1.269 . S
C764 O765 1.249 . S
C764 O766 1.270 . S
O765 Zn757 1.943 . S
O765 C764 1.249 . S
O766 Zn756 2.067 . S
O766 C764 1.270 . S
C767 O760 1.262 . S
C767 O768 1.232 . S
O768 C767 1.232 . S
C769 O761 1.260 . S
C769 O762 1.257 . S
Zn770 O773 2.031 . S
Zn770 O775 2.049 . S
Zn770 O780 2.067 . S
Zn771 O772 1.962 . S
Zn771 O774 1.986 . S
Zn771 O776 1.996 . S
Zn771 O779 1.943 . S
O772 Zn771 1.962 . S
O772 C777 1.254 . S
O773 Zn770 2.031 . S
O773 C777 1.269 . S
O774 Zn771 1.986 . S
O774 C781 1.262 . S
O775 Zn770 2.049 . S
O775 C783 1.260 . S
O776 Zn771 1.996 . S
O776 C783 1.257 . S
C777 O772 1.254 . S
C777 O773 1.269 . S
C778 O779 1.249 . S
C778 O780 1.270 . S
O779 Zn771 1.943 . S
O779 C778 1.249 . S
O780 Zn770 2.067 . S
O780 C778 1.270 . S
C781 O774 1.262 . S
C781 O782 1.232 . S
O782 C781 1.232 . S
C783 O775 1.260 . S
C783 O776 1.257 . S
Zn784 O787 2.031 . S
Zn784 O789 2.049 . S
Zn784 O794 2.067 . S
Zn785 O786 1.962 . S
Zn785 O788 1.986 . S
Zn785 O790 1.996 . S
Zn785 O793 1.943 . S
O786 Zn785 1.962 . S
O786 C791 1.254 . S
O787 Zn784 2.031 . S
O787 C791 1.269 . S
O788 Zn785 1.986 . S
O788 C795 1.262 . S
O789 Zn784 2.049 . S
O789 C797 1.260 . S
O790 Zn785 1.996 . S
O790 C797 1.257 . S
C791 O786 1.254 . S
C791 O787 1.269 . S
C792 O793 1.249 . S
C792 O794 1.270 . S
O793 Zn785 1.943 . S
O793 C792 1.249 . S
O794 Zn784 2.067 . S
O794 C792 1.270 . S
C795 O788 1.262 . S
C795 O796 1.232 . S
O796 C795 1.232 . S
C797 O789 1.260 . S
C797 O790 1.257 . S
Zn798 O801 2.031 . S
Zn798 O803 2.049 . S
Zn798 O808 2.067 . S
Zn799 O800 1.962 . S
Zn799 O802 1.986 . S
Zn799 O804 1.996 . S
Zn799 O807 1.943 . S
O800 Zn799 1.962 . S
O800 C805 1.254 . S
O801 Zn798 2.031 . S
O801 C805 1.269 . S
O802 Zn799 1.986 . S
O802 C809 1.262 . S
O803 Zn798 2.049 . S
O803 C811 1.260 . S
O804 Zn799 1.996 . S
O804 C811 1.257 . S
C805 O800 1.254 . S
C805 O801 1.269 . S
C806 O807 1.249 . S
C806 O808 1.270 . S
O807 Zn799 1.943 . S
O807 C806 1.249 . S
O808 Zn798 2.067 . S
O808 C806 1.270 . S
C809 O802 1.262 . S
C809 O810 1.232 . S
O810 C809 1.232 . S
C811 O803 1.260 . S
C811 O804 1.257 . S
Zn812 O815 2.031 . S
Zn812 O817 2.049 . S
Zn812 O822 2.067 . S
Zn813 O814 1.962 . S
Zn813 O816 1.986 . S
Zn813 O818 1.996 . S
Zn813 O821 1.943 . S
O814 Zn813 1.962 . S
O814 C819 1.254 . S
O815 Zn812 2.031 . S
O815 C819 1.269 . S
O816 Zn813 1.986 . S
O816 C823 1.262 . S
O817 Zn812 2.049 . S
O817 C825 1.260 . S
O818 Zn813 1.996 . S
O818 C825 1.257 . S
C819 O814 1.254 . S
C819 O815 1.269 . S
C820 O821 1.249 . S
C820 O822 1.270 . S
O821 Zn813 1.943 . S
O821 C820 1.249 . S
O822 Zn812 2.067 . S
O822 C820 1.270 . S
C823 O816 1.262 . S
C823 O824 1.232 . S
O824 C823 1.232 . S
C825 O817 1.260 . S
C825 O818 1.257 . S
Zn826 O829 2.031 . S
Zn826 O831 2.049 . S
Zn826 O836 2.067 . S
Zn827 O828 1.962 . S
Zn827 O830 1.986 . S
Zn827 O832 1.996 . S
Zn827 O835 1.943 . S
O828 Zn827 1.962 . S
O828 C833 1.254 . S
O829 Zn826 2.031 . S
O829 C833 1.269 . S
O830 Zn827 1.986 . S
O830 C837 1.262 . S
O831 Zn826 2.049 . S
O831 C839 1.260 . S
O832 Zn827 1.996 . S
O832 C839 1.257 . S
C833 O828 1.254 . S
C833 O829 1.269 . S
C834 O835 1.249 . S
C834 O836 1.270 . S
O835 Zn827 1.943 . S
O835 C834 1.249 . S
O836 Zn826 2.067 . S
O836 C834 1.270 . S
C837 O830 1.262 . S
C837 O838 1.232 . S
O838 C837 1.232 . S
C839 O831 1.260 . S
C839 O832 1.257 . S
Zn840 O843 2.031 . S
Zn840 O845 2.049 . S
Zn840 O850 2.067 . S
Zn841 O842 1.962 . S
Zn841 O844 1.986 . S
Zn841 O846 1.996 . S
Zn841 O849 1.943 . S
O842 Zn841 1.962 . S
O842 C847 1.254 . S
O843 Zn840 2.031 . S
O843 C847 1.269 . S
O844 Zn841 1.986 . S
O844 C851 1.262 . S
O845 Zn840 2.049 . S
O845 C853 1.260 . S
O846 Zn841 1.996 . S
O846 C853 1.257 . S
C847 O842 1.254 . S
C847 O843 1.269 . S
C848 O849 1.249 . S
C848 O850 1.270 . S
O849 Zn841 1.943 . S
O849 C848 1.249 . S
O850 Zn840 2.067 . S
O850 C848 1.270 . S
C851 O844 1.262 . S
C851 O852 1.232 . S
O852 C851 1.232 . S
C853 O845 1.260 . S
C853 O846 1.257 . S
Zn854 O857 2.031 1_554 S
Zn854 O859 2.049 . S
Zn854 O864 2.067 . S
Zn855 O856 1.962 . S
Zn855 O858 1.986 . S
Zn855 O860 1.996 . S
Zn855 O863 1.943 . S
O856 Zn855 1.962 . S
O856 C861 1.254 . S
O857 Zn854 2.031 1_556 S
O857 C861 1.269 . S
O858 Zn855 1.986 . S
O858 C865 1.262 . S
O859 Zn854 2.049 . S
O859 C867 1.257 1_554 S
O860 Zn855 1.996 . S
O860 C867 1.260 . S
C861 O856 1.254 . S
C861 O857 1.269 . S
C862 O863 1.249 1_554 S
C862 O864 1.270 . S
O863 Zn855 1.943 . S
O863 C862 1.249 1_556 S
O864 Zn854 2.067 . S
O864 C862 1.270 . S
C865 O858 1.262 . S
C865 O866 1.232 . S
O866 C865 1.232 . S
C867 O859 1.257 1_556 S
C867 O860 1.260 . S
Zn868 O871 2.031 . S
Zn868 O873 2.049 . S
Zn868 O878 2.067 . S
Zn869 O870 1.962 . S
Zn869 O872 1.986 . S
Zn869 O874 1.996 . S
Zn869 O877 1.943 . S
O870 Zn869 1.962 . S
O870 C875 1.254 . S
O871 Zn868 2.031 . S
O871 C875 1.269 . S
O872 Zn869 1.986 . S
O872 C879 1.262 . S
O873 Zn868 2.049 . S
O873 C881 1.260 . S
O874 Zn869 1.996 . S
O874 C881 1.257 . S
C875 O870 1.254 . S
C875 O871 1.269 . S
C876 O877 1.249 . S
C876 O878 1.270 . S
O877 Zn869 1.943 . S
O877 C876 1.249 . S
O878 Zn868 2.067 . S
O878 C876 1.270 . S
C879 O872 1.262 . S
C879 O880 1.232 . S
O880 C879 1.232 . S
C881 O873 1.260 . S
C881 O874 1.257 . S
Zn882 O885 2.031 . S
Zn882 O887 2.049 . S
Zn882 O892 2.067 . S
Zn883 O884 1.962 . S
Zn883 O886 1.986 . S
Zn883 O888 1.996 . S
Zn883 O891 1.943 . S
O884 Zn883 1.962 . S
O884 C889 1.254 . S
O885 Zn882 2.031 . S
O885 C889 1.269 . S
O886 Zn883 1.986 . S
O886 C893 1.262 . S
O887 Zn882 2.049 . S
O887 C895 1.260 . S
O888 Zn883 1.996 . S
O888 C895 1.257 . S
C889 O884 1.254 . S
C889 O885 1.269 . S
C890 O891 1.249 . S
C890 O892 1.270 . S
O891 Zn883 1.943 . S
O891 C890 1.249 . S
O892 Zn882 2.067 . S
O892 C890 1.270 . S
C893 O886 1.262 . S
C893 O894 1.232 . S
O894 C893 1.232 . S
C895 O887 1.260 . S
C895 O888 1.257 . S
Zn896 O899 2.031 . S
Zn896 O901 2.049 . S
Zn896 O906 2.067 . S
Zn897 O898 1.962 . S
Zn897 O900 1.986 . S
Zn897 O902 1.996 . S
Zn897 O905 1.943 . S
O898 Zn897 1.962 . S
O898 C903 1.254 . S
O899 Zn896 2.031 . S
O899 C903 1.269 . S
O900 Zn897 1.986 . S
O900 C907 1.262 . S
O901 Zn896 2.049 . S
O901 C909 1.260 . S
O902 Zn897 1.996 . S
O902 C909 1.257 . S
C903 O898 1.254 . S
C903 O899 1.269 . S
C904 O905 1.249 . S
C904 O906 1.270 . S
O905 Zn897 1.943 . S
O905 C904 1.249 . S
O906 Zn896 2.067 . S
O906 C904 1.270 . S
C907 O900 1.262 . S
C907 O908 1.232 . S
O908 C907 1.232 . S
C909 O901 1.260 . S
C909 O902 1.257 . S
Zn910 O913 2.031 . S
Zn910 O915 2.049 . S
Zn910 O920 2.067 . S
Zn911 O912 1.962 . S
Zn911 O914 1.986 . S
Zn911 O916 1.996 . S
Zn911 O919 1.943 . S
O912 Zn911 1.962 . S
O912 C917 1.254 . S
O913 Zn910 2.031 . S
O913 C917 1.269 . S
O914 Zn911 1.986 . S
O914 C921 1.262 . S
O915 Zn910 2.049 . S
O915 C923 1.260 . S
O916 Zn911 1.996 . S
O916 C923 1.257 . S
C917 O912 1.254 . S
C917 O913 1.269 . S
C918 O919 1.249 . S
C918 O920 1.270 . S
O919 Zn911 1.943 . S
O919 C918 1.249 . S
O920 Zn910 2.067 . S
O920 C918 1.270 . S
C921 O914 1.262 . S
C921 O922 1.232 . S
O922 C921 1.232 . S
C923 O915 1.260 . S
C923 O916 1.257 . S
Zn924 O927 2.031 . S
Zn924 O929 2.049 . S
Zn924 O934 2.067 . S
Zn925 O926 1.962 . S
Zn925 O928 1.986 . S
Zn925 O930 1.996 . S
Zn925 O933 1.943 . S
O926 Zn925 1.962 . S
O926 C931 1.254 . S
O927 Zn924 2.031 . S
O927 C931 1.269 . S
O928 Zn925 1.986 . S
O928 C935 1.262 . S
O929 Zn924 2.049 . S
O929 C937 1.260 . S
O930 Zn925 1.996 . S
O930 C937 1.257 . S
C931 O926 1.254 . S
C931 O927 1.269 . S
C932 O933 1.249 . S
C932 O934 1.270 . S
O933 Zn925 1.943 . S
O933 C932 1.249 . S
O934 Zn924 2.067 . S
O934 C932 1.270 . S
C935 O928 1.262 . S
C935 O936 1.232 . S
O936 C935 1.232 . S
C937 O929 1.260 . S
C937 O930 1.257 . S
Zn938 O941 2.031 . S
Zn938 O943 2.049 1_554 S
Zn938 O948 2.067 . S
Zn939 O940 1.962 1_556 S
Zn939 O942 1.986 . S
Zn939 O944 1.996 . S
Zn939 O947 1.943 . S
O940 Zn939 1.962 1_554 S
O940 C945 1.254 . S
O941 Zn938 2.031 . S
O941 C945 1.269 . S
O942 Zn939 1.986 . S
O942 C949 1.262 . S
O943 Zn938 2.049 1_556 S
O943 C951 1.260 . S
O944 Zn939 1.996 . S
O944 C951 1.257 . S
C945 O940 1.254 . S
C945 O941 1.269 . S
C946 O947 1.249 . S
C946 O948 1.270 1_556 S
O947 Zn939 1.943 . S
O947 C946 1.249 . S
O948 Zn938 2.067 . S
O948 C946 1.270 1_554 S
C949 O942 1.262 . S
C949 O950 1.232 . S
O950 C949 1.232 . S
C951 O943 1.260 . S
C951 O944 1.257 . S
Zn952 O955 2.031 . S
Zn952 O957 2.049 . S
Zn952 O962 2.067 . S
Zn953 O954 1.962 . S
Zn953 O956 1.986 . S
Zn953 O958 1.996 . S
Zn953 O961 1.943 . S
O954 Zn953 1.962 . S
O954 C959 1.254 . S
O955 Zn952 2.031 . S
O955 C959 1.269 . S
O956 Zn953 1.986 . S
O956 C963 1.262 . S
O957 Zn952 2.049 . S
O957 C965 1.260 . S
O958 Zn953 1.996 . S
O958 C965 1.257 . S
C959 O954 1.254 . S
C959 O955 1.269 . S
C960 O961 1.249 . S
C960 O962 1.270 . S
O961 Zn953 1.943 . S
O961 C960 1.249 . S
O962 Zn952 2.067 . S
O962 C960 1.270 . S
C963 O956 1.262 . S
C963 O964 1.232 . S
O964 C963 1.232 . S
C965 O957 1.260 . S
C965 O958 1.257 . S
Zn966 O969 2.031 1_554 S
Zn966 O971 2.049 . S
Zn966 O976 2.067 1_554 S
Zn967 O968 1.962 . S
Zn967 O970 1.986 . S
Zn967 O972 1.996 . S
Zn967 O975 1.930 1_554 S
O968 Zn967 1.962 . S
O968 C973 1.254 1_554 S
O969 Zn966 2.031 1_556 S
O969 C973 1.269 . S
O970 Zn967 1.986 . S
O970 C977 1.262 . S
O971 Zn966 2.049 . S
O971 C979 1.260 . S
O972 Zn967 1.996 . S
O972 C979 1.257 . S
C973 O968 1.254 1_556 S
C973 O969 1.269 . S
C974 O975 1.260 . S
C974 O976 1.270 . S
O975 Zn967 1.930 1_556 S
O975 C974 1.260 . S
O976 Zn966 2.067 1_556 S
O976 C974 1.270 . S
C977 O970 1.262 . S
C977 O978 1.232 . S
O978 C977 1.232 . S
C979 O971 1.260 . S
C979 O972 1.257 . S
Zn980 O983 2.031 1_545 S
Zn980 O985 2.049 . S
Zn980 O990 2.067 . S
Zn981 O982 1.962 . S
Zn981 O984 1.986 . S
Zn981 O986 1.996 . S
Zn981 O989 1.943 . S
O982 Zn981 1.962 . S
O982 C987 1.254 . S
O983 Zn980 2.031 1_565 S
O983 C987 1.269 . S
O984 Zn981 1.986 . S
O984 C991 1.262 . S
O985 Zn980 2.049 . S
O985 C993 1.257 1_545 S
O986 Zn981 1.996 . S
O986 C993 1.260 . S
C987 O982 1.254 . S
C987 O983 1.269 . S
C988 O989 1.249 1_545 S
C988 O990 1.270 . S
O989 Zn981 1.943 . S
O989 C988 1.249 1_565 S
O990 Zn980 2.067 . S
O990 C988 1.270 . S
C991 O984 1.262 . S
C991 O992 1.232 . S
O992 C991 1.232 . S
C993 O985 1.257 1_565 S
C993 O986 1.260 . S
Zn994 O997 2.031 1_565 S
Zn994 O999 2.049 . S
Zn994 O1004 2.067 . S
Zn995 O996 1.962 . S
Zn995 O998 1.986 . S
Zn995 O1000 1.996 . S
Zn995 O1003 1.943 1_545 S
O996 Zn995 1.962 . S
O996 C1001 1.254 . S
O997 Zn994 2.031 1_545 S
O997 C1001 1.269 . S
O998 Zn995 1.986 . S
O998 C1005 1.262 . S
O999 Zn994 2.049 . S
O999 C1007 1.260 . S
O1000 Zn995 1.996 . S
O1000 C1007 1.257 1_545 S
C1001 O996 1.254 . S
C1001 O997 1.269 . S
C1002 O1003 1.249 . S
C1002 O1004 1.270 . S
O1003 Zn995 1.943 1_565 S
O1003 C1002 1.249 . S
O1004 Zn994 2.067 . S
O1004 C1002 1.270 . S
C1005 O998 1.262 . S
C1005 O1006 1.232 . S
O1006 C1005 1.232 . S
C1007 O999 1.260 . S
C1007 O1000 1.257 1_565 S
Zn1008 O1011 2.031 . S
Zn1008 O1013 2.049 . S
Zn1008 O1018 2.067 . S
Zn1009 O1010 1.962 . S
Zn1009 O1012 1.986 . S
Zn1009 O1014 1.996 . S
Zn1009 O1017 1.943 . S
O1010 Zn1009 1.962 . S
O1010 C1015 1.254 . S
O1011 Zn1008 2.031 . S
O1011 C1015 1.269 . S
O1012 Zn1009 1.986 . S
O1012 C1019 1.262 . S
O1013 Zn1008 2.049 . S
O1013 C1021 1.260 . S
O1014 Zn1009 1.996 . S
O1014 C1021 1.257 . S
C1015 O1010 1.254 . S
C1015 O1011 1.269 . S
C1016 O1017 1.249 . S
C1016 O1018 1.270 . S
O1017 Zn1009 1.943 . S
O1017 C1016 1.249 . S
O1018 Zn1008 2.067 . S
O1018 C1016 1.270 . S
C1019 O1012 1.262 . S
C1019 O1020 1.232 . S
O1020 C1019 1.232 . S
C1021 O1013 1.260 . S
C1021 O1014 1.257 . S
Zn1022 O1025 2.031 . S
Zn1022 O1027 2.049 . S
Zn1022 O1032 2.067 . S
Zn1023 O1024 1.962 . S
Zn1023 O1026 1.986 . S
Zn1023 O1028 1.996 . S
Zn1023 O1031 1.943 . S
O1024 Zn1023 1.962 . S
O1024 C1029 1.254 . S
O1025 Zn1022 2.031 . S
O1025 C1029 1.269 . S
O1026 Zn1023 1.986 . S
O1026 C1033 1.262 . S
O1027 Zn1022 2.049 . S
O1027 C1035 1.260 . S
O1028 Zn1023 1.996 . S
O1028 C1035 1.257 . S
C1029 O1024 1.254 . S
C1029 O1025 1.269 . S
C1030 O1031 1.249 . S
C1030 O1032 1.270 . S
O1031 Zn1023 1.943 . S
O1031 C1030 1.249 . S
O1032 Zn1022 2.067 . S
O1032 C1030 1.270 . S
C1033 O1026 1.262 . S
C1033 O1034 1.232 . S
O1034 C1033 1.232 . S
C1035 O1027 1.260 . S
C1035 O1028 1.257 . S
Zn1036 O1039 2.031 1_655 S
Zn1036 O1041 2.049 . S
Zn1036 O1046 2.067 . S
Zn1037 O1038 1.962 . S
Zn1037 O1040 1.986 . S
Zn1037 O1042 1.996 1_455 S
Zn1037 O1045 1.943 . S
O1038 Zn1037 1.962 . S
O1038 C1043 1.254 . S
O1039 Zn1036 2.031 1_455 S
O1039 C1043 1.269 . S
O1040 Zn1037 1.986 . S
O1040 C1047 1.262 . S
O1041 Zn1036 2.049 . S
O1041 C1049 1.260 . S
O1042 Zn1037 1.996 1_655 S
O1042 C1049 1.257 . S
C1043 O1038 1.254 . S
C1043 O1039 1.269 . S
C1044 O1045 1.249 1_655 S
C1044 O1046 1.270 . S
O1045 Zn1037 1.943 . S
O1045 C1044 1.249 1_455 S
O1046 Zn1036 2.067 . S
O1046 C1044 1.270 . S
C1047 O1040 1.262 . S
C1047 O1048 1.232 . S
O1048 C1047 1.232 . S
C1049 O1041 1.260 . S
C1049 O1042 1.257 . S
Zn1050 O1053 2.031 . S
Zn1050 O1055 2.049 1_455 S
Zn1050 O1060 2.067 . S
Zn1051 O1052 1.962 . S
Zn1051 O1054 1.986 . S
Zn1051 O1056 1.996 . S
Zn1051 O1059 1.943 1_655 S
O1052 Zn1051 1.962 . S
O1052 C1057 1.254 1_655 S
O1053 Zn1050 2.031 . S
O1053 C1057 1.269 . S
O1054 Zn1051 1.986 . S
O1054 C1061 1.262 . S
O1055 Zn1050 2.049 1_655 S
O1055 C1063 1.260 . S
O1056 Zn1051 1.996 . S
O1056 C1063 1.257 . S
C1057 O1052 1.254 1_455 S
C1057 O1053 1.269 . S
C1058 O1059 1.249 . S
C1058 O1060 1.270 . S
O1059 Zn1051 1.943 1_455 S
O1059 C1058 1.249 . S
O1060 Zn1050 2.067 . S
O1060 C1058 1.270 . S
C1061 O1054 1.262 . S
C1061 O1062 1.232 . S
O1062 C1061 1.232 . S
C1063 O1055 1.260 . S
C1063 O1056 1.257 . S
Zn1064 O1067 2.031 . S
Zn1064 O1069 2.049 . S
Zn1064 O1074 2.067 . S
Zn1065 O1066 1.962 . S
Zn1065 O1068 1.986 . S
Zn1065 O1070 1.996 . S
Zn1065 O1073 1.943 . S
O1066 Zn1065 1.962 . S
O1066 C1071 1.254 . S
O1067 Zn1064 2.031 . S
O1067 C1071 1.269 . S
O1068 Zn1065 1.986 . S
O1068 C1075 1.262 . S
O1069 Zn1064 2.049 . S
O1069 C1077 1.260 . S
O1070 Zn1065 1.996 . S
O1070 C1077 1.257 . S
C1071 O1066 1.254 . S
C1071 O1067 1.269 . S
C1072 O1073 1.249 . S
C1072 O1074 1.270 . S
O1073 Zn1065 1.943 . S
O1073 C1072 1.249 . S
O1074 Zn1064 2.067 . S
O1074 C1072 1.270 . S
C1075 O1068 1.262 . S
C1075 O1076 1.232 . S
O1076 C1075 1.232 . S
C1077 O1069 1.260 . S
C1077 O1070 1.257 . S
Zn1078 O1081 2.030 1_655 S
Zn1078 O1083 2.049 . S
Zn1078 O1088 2.061 1_655 S
Zn1079 O1080 1.962 . S
Zn1079 O1082 1.986 . S
Zn1079 O1084 1.996 . S
Zn1079 O1087 1.943 . S
O1080 Zn1079 1.962 . S
O1080 C1085 1.254 . S
O1081 Zn1078 2.030 1_455 S
O1081 C1085 1.267 1_455 S
O1082 Zn1079 1.986 . S
O1082 C1089 1.262 . S
O1083 Zn1078 2.049 . S
O1083 C1091 1.260 . S
O1084 Zn1079 1.996 . S
O1084 C1091 1.257 . S
C1085 O1080 1.254 . S
C1085 O1081 1.267 1_655 S
C1086 O1087 1.249 . S
C1086 O1088 1.269 1_655 S
O1087 Zn1079 1.943 . S
O1087 C1086 1.249 . S
O1088 Zn1078 2.061 1_455 S
O1088 C1086 1.269 1_455 S
C1089 O1082 1.262 . S
C1089 O1090 1.232 . S
O1090 C1089 1.232 . S
C1091 O1083 1.260 . S
C1091 O1084 1.257 . S
Zn1092 O1095 2.031 1_655 S
Zn1092 O1097 2.049 . S
Zn1092 O1102 2.067 . S
Zn1093 O1094 1.962 . S
Zn1093 O1096 1.986 . S
Zn1093 O1098 1.996 1_455 S
Zn1093 O1101 1.943 . S
O1094 Zn1093 1.962 . S
O1094 C1099 1.254 . S
O1095 Zn1092 2.031 1_455 S
O1095 C1099 1.269 . S
O1096 Zn1093 1.986 . S
O1096 C1103 1.262 . S
O1097 Zn1092 2.049 . S
O1097 C1105 1.260 . S
O1098 Zn1093 1.996 1_655 S
O1098 C1105 1.257 . S
C1099 O1094 1.254 . S
C1099 O1095 1.269 . S
C1100 O1101 1.249 . S
C1100 O1102 1.270 1_455 S
O1101 Zn1093 1.943 . S
O1101 C1100 1.249 . S
O1102 Zn1092 2.067 . S
O1102 C1100 1.270 1_655 S
C1103 O1096 1.262 . S
C1103 O1104 1.232 . S
O1104 C1103 1.232 . S
C1105 O1097 1.260 . S
C1105 O1098 1.257 . S
Zn1106 O1109 2.031 . S
Zn1106 O1111 2.049 . S
Zn1106 O1116 2.067 . S
Zn1107 O1108 1.962 . S
Zn1107 O1110 1.986 . S
Zn1107 O1112 1.996 . S
Zn1107 O1115 1.943 . S
O1108 Zn1107 1.962 . S
O1108 C1113 1.254 . S
O1109 Zn1106 2.031 . S
O1109 C1113 1.269 . S
O1110 Zn1107 1.986 . S
O1110 C1117 1.262 . S
O1111 Zn1106 2.049 . S
O1111 C1119 1.260 . S
O1112 Zn1107 1.996 . S
O1112 C1119 1.257 . S
C1113 O1108 1.254 . S
C1113 O1109 1.269 . S
C1114 O1115 1.249 . S
C1114 O1116 1.270 . S
O1115 Zn1107 1.943 . S
O1115 C1114 1.249 . S
O1116 Zn1106 2.067 . S
O1116 C1114 1.270 . S
C1117 O1110 1.262 . S
C1117 O1118 1.232 . S
O1118 C1117 1.232 . S
C1119 O1111 1.260 . S
C1119 O1112 1.257 . S
Zn1120 O1123 2.031 . S
Zn1120 O1125 2.049 . S
Zn1120 O1130 2.067 . S
Zn1121 O1122 1.962 . S
Zn1121 O1124 1.986 . S
Zn1121 O1126 1.996 . S
Zn1121 O1129 1.943 . S
O1122 Zn1121 1.962 . S
O1122 C1127 1.254 . S
O1123 Zn1120 2.031 . S
O1123 C1127 1.269 . S
O1124 Zn1121 1.986 . S
O1124 C1131 1.262 . S
O1125 Zn1120 2.049 . S
O1125 C1133 1.260 . S
O1126 Zn1121 1.996 . S
O1126 C1133 1.257 . S
C1127 O1122 1.254 . S
C1127 O1123 1.269 . S
C1128 O1129 1.249 . S
C1128 O1130 1.270 . S
O1129 Zn1121 1.943 . S
O1129 C1128 1.249 . S
O1130 Zn1120 2.067 . S
O1130 C1128 1.270 . S
C1131 O1124 1.262 . S
C1131 O1132 1.232 . S
O1132 C1131 1.232 . S
C1133 O1125 1.260 . S
C1133 O1126 1.257 . S
Zn1134 O1137 2.031 . S
Zn1134 O1139 2.049 1_554 S
Zn1134 O1144 2.067 . S
Zn1135 O1136 1.962 . S
Zn1135 O1138 1.986 . S
Zn1135 O1140 1.996 . S
Zn1135 O1143 1.943 1_556 S
O1136 Zn1135 1.962 . S
O1136 C1141 1.254 1_556 S
O1137 Zn1134 2.031 . S
O1137 C1141 1.269 . S
O1138 Zn1135 1.986 . S
O1138 C1145 1.262 . S
O1139 Zn1134 2.049 1_556 S
O1139 C1147 1.260 . S
O1140 Zn1135 1.996 . S
O1140 C1147 1.257 . S
C1141 O1136 1.254 1_554 S
C1141 O1137 1.269 . S
C1142 O1143 1.249 . S
C1142 O1144 1.270 . S
O1143 Zn1135 1.943 1_554 S
O1143 C1142 1.249 . S
O1144 Zn1134 2.067 . S
O1144 C1142 1.270 . S
C1145 O1138 1.262 . S
C1145 O1146 1.232 . S
O1146 C1145 1.232 . S
C1147 O1139 1.260 . S
C1147 O1140 1.257 . S
Zn1148 O1151 2.031 . S
Zn1148 O1153 2.049 . S
Zn1148 O1158 2.067 . S
Zn1149 O1150 1.962 . S
Zn1149 O1152 1.986 . S
Zn1149 O1154 1.996 . S
Zn1149 O1157 1.943 . S
O1150 Zn1149 1.962 . S
O1150 C1155 1.254 . S
O1151 Zn1148 2.031 . S
O1151 C1155 1.269 . S
O1152 Zn1149 1.986 . S
O1152 C1159 1.262 . S
O1153 Zn1148 2.049 . S
O1153 C1161 1.260 . S
O1154 Zn1149 1.996 . S
O1154 C1161 1.257 . S
C1155 O1150 1.254 . S
C1155 O1151 1.269 . S
C1156 O1157 1.249 . S
C1156 O1158 1.270 . S
O1157 Zn1149 1.943 . S
O1157 C1156 1.249 . S
O1158 Zn1148 2.067 . S
O1158 C1156 1.270 . S
C1159 O1152 1.262 . S
C1159 O1160 1.232 . S
O1160 C1159 1.232 . S
C1161 O1153 1.260 . S
C1161 O1154 1.257 . S
Zn1162 O1165 2.031 . S
Zn1162 O1167 2.049 . S
Zn1162 O1172 2.067 . S
Zn1163 O1164 1.962 . S
Zn1163 O1166 1.986 . S
Zn1163 O1168 1.996 . S
Zn1163 O1171 1.943 . S
O1164 Zn1163 1.962 . S
O1164 C1169 1.254 . S
O1165 Zn1162 2.031 . S
O1165 C1169 1.269 . S
O1166 Zn1163 1.986 . S
O1166 C1173 1.262 . S
O1167 Zn1162 2.049 . S
O1167 C1175 1.260 . S
O1168 Zn1163 1.996 . S
O1168 C1175 1.257 . S
C1169 O1164 1.254 . S
C1169 O1165 1.269 . S
C1170 O1171 1.249 . S
C1170 O1172 1.270 . S
O1171 Zn1163 1.943 . S
O1171 C1170 1.249 . S
O1172 Zn1162 2.067 . S
O1172 C1170 1.270 . S
C1173 O1166 1.262 . S
C1173 O1174 1.232 . S
O1174 C1173 1.232 . S
C1175 O1167 1.260 . S
C1175 O1168 1.257 . S
Zn1176 O1179 2.031 . S
Zn1176 O1181 2.049 . S
Zn1176 O1186 2.067 . S
Zn1177 O1178 1.962 . S
Zn1177 O1180 1.986 . S
Zn1177 O1182 1.996 . S
Zn1177 O1185 1.943 . S
O1178 Zn1177 1.962 . S
O1178 C1183 1.254 . S
O1179 Zn1176 2.031 . S
O1179 C1183 1.269 . S
O1180 Zn1177 1.986 . S
O1180 C1187 1.262 . S
O1181 Zn1176 2.049 . S
O1181 C1189 1.260 . S
O1182 Zn1177 1.996 . S
O1182 C1189 1.257 . S
C1183 O1178 1.254 . S
C1183 O1179 1.269 . S
C1184 O1185 1.249 . S
C1184 O1186 1.270 . S
O1185 Zn1177 1.943 . S
O1185 C1184 1.249 . S
O1186 Zn1176 2.067 . S
O1186 C1184 1.270 . S
C1187 O1180 1.262 . S
C1187 O1188 1.232 . S
O1188 C1187 1.232 . S
C1189 O1181 1.260 . S
C1189 O1182 1.257 . S
Zn1190 O1193 2.031 . S
Zn1190 O1195 2.049 . S
Zn1190 O1200 2.067 . S
Zn1191 O1192 1.962 . S
Zn1191 O1194 1.986 . S
Zn1191 O1196 1.996 . S
Zn1191 O1199 1.943 . S
O1192 Zn1191 1.962 . S
O1192 C1197 1.254 . S
O1193 Zn1190 2.031 . S
O1193 C1197 1.269 . S
O1194 Zn1191 1.986 . S
O1194 C1201 1.262 . S
O1195 Zn1190 2.049 . S
O1195 C1203 1.260 . S
O1196 Zn1191 1.996 . S
O1196 C1203 1.257 . S
C1197 O1192 1.254 . S
C1197 O1193 1.269 . S
C1198 O1199 1.249 . S
C1198 O1200 1.270 . S
O1199 Zn1191 1.943 . S
O1199 C1198 1.249 . S
O1200 Zn1190 2.067 . S
O1200 C1198 1.270 . S
C1201 O1194 1.262 . S
C1201 O1202 1.232 . S
O1202 C1201 1.232 . S
C1203 O1195 1.260 . S
C1203 O1196 1.257 . S
Zn1204 O1207 2.031 . S
Zn1204 O1209 2.049 . S
Zn1204 O1214 2.067 . S
Zn1205 O1206 1.962 . S
Zn1205 O1208 1.986 . S
Zn1205 O1210 1.996 . S
Zn1205 O1213 1.943 . S
O1206 Zn1205 1.962 . S
O1206 C1211 1.254 . S
O1207 Zn1204 2.031 . S
O1207 C1211 1.269 . S
O1208 Zn1205 1.986 . S
O1208 C1215 1.262 . S
O1209 Zn1204 2.049 . S
O1209 C1217 1.260 . S
O1210 Zn1205 1.996 . S
O1210 C1217 1.257 . S
C1211 O1206 1.254 . S
C1211 O1207 1.269 . S
C1212 O1213 1.249 . S
C1212 O1214 1.270 . S
O1213 Zn1205 1.943 . S
O1213 C1212 1.249 . S
O1214 Zn1204 2.067 . S
O1214 C1212 1.270 . S
C1215 O1208 1.262 . S
C1215 O1216 1.232 . S
O1216 C1215 1.232 . S
C1217 O1209 1.260 . S
C1217 O1210 1.257 . S
Zn1218 O1221 2.031 . S
Zn1218 O1223 2.049 . S
Zn1218 O1228 2.067 . S
Zn1219 O1220 1.962 . S
Zn1219 O1222 1.986 . S
Zn1219 O1224 1.996 . S
Zn1219 O1227 1.943 . S
O1220 Zn1219 1.962 . S
O1220 C1225 1.254 . S
O1221 Zn1218 2.031 . S
O1221 C1225 1.269 . S
O1222 Zn1219 1.986 . S
O1222 C1229 1.262 . S
O1223 Zn1218 2.049 . S
O1223 C1231 1.260 . S
O1224 Zn1219 1.996 . S
O1224 C1231 1.257 . S
C1225 O1220 1.254 . S
C1225 O1221 1.269 . S
C1226 O1227 1.249 . S
C1226 O1228 1.270 . S
O1227 Zn1219 1.943 . S
O1227 C1226 1.249 . S
O1228 Zn1218 2.067 . S
O1228 C1226 1.270 . S
C1229 O1222 1.262 . S
C1229 O1230 1.232 . S
O1230 C1229 1.232 . S
C1231 O1223 1.260 . S
C1231 O1224 1.257 . S
Zn1232 O1235 2.031 . S
Zn1232 O1237 2.049 . S
Zn1232 O1242 2.067 . S
Zn1233 O1234 1.962 . S
Zn1233 O1236 1.986 . S
Zn1233 O1238 1.996 . S
Zn1233 O1241 1.943 . S
O1234 Zn1233 1.962 . S
O1234 C1239 1.254 . S
O1235 Zn1232 2.031 . S
O1235 C1239 1.269 . S
O1236 Zn1233 1.986 . S
O1236 C1243 1.262 . S
O1237 Zn1232 2.049 . S
O1237 C1245 1.260 . S
O1238 Zn1233 1.996 . S
O1238 C1245 1.257 . S
C1239 O1234 1.254 . S
C1239 O1235 1.269 . S
C1240 O1241 1.249 . S
C1240 O1242 1.270 . S
O1241 Zn1233 1.943 . S
O1241 C1240 1.249 . S
O1242 Zn1232 2.067 . S
O1242 C1240 1.270 . S
C1243 O1236 1.262 . S
C1243 O1244 1.232 . S
O1244 C1243 1.232 . S
C1245 O1237 1.260 . S
C1245 O1238 1.257 . S
Zn1246 O1249 2.031 . S
Zn1246 O1251 2.049 . S
Zn1246 O1256 2.067 . S
Zn1247 O1248 1.962 . S
Zn1247 O1250 1.986 . S
Zn1247 O1252 1.996 . S
Zn1247 O1255 1.943 . S
O1248 Zn1247 1.962 . S
O1248 C1253 1.254 . S
O1249 Zn1246 2.031 . S
O1249 C1253 1.269 . S
O1250 Zn1247 1.986 . S
O1250 C1257 1.262 . S
O1251 Zn1246 2.049 . S
O1251 C1259 1.260 . S
O1252 Zn1247 1.996 . S
O1252 C1259 1.257 . S
C1253 O1248 1.254 . S
C1253 O1249 1.269 . S
C1254 O1255 1.249 . S
C1254 O1256 1.270 . S
O1255 Zn1247 1.943 . S
O1255 C1254 1.249 . S
O1256 Zn1246 2.067 . S
O1256 C1254 1.270 . S
C1257 O1250 1.262 . S
C1257 O1258 1.232 . S
O1258 C1257 1.232 . S
C1259 O1251 1.260 . S
C1259 O1252 1.257 . S
Zn1260 O1263 2.031 . S
Zn1260 O1265 2.049 1_545 S
Zn1260 O1270 2.067 . S
Zn1261 O1262 1.962 . S
Zn1261 O1264 1.986 . S
Zn1261 O1266 1.996 . S
Zn1261 O1269 1.943 1_565 S
O1262 Zn1261 1.962 . S
O1262 C1267 1.254 1_565 S
O1263 Zn1260 2.031 . S
O1263 C1267 1.269 . S
O1264 Zn1261 1.986 . S
O1264 C1271 1.262 . S
O1265 Zn1260 2.049 1_565 S
O1265 C1273 1.260 . S
O1266 Zn1261 1.996 . S
O1266 C1273 1.257 . S
C1267 O1262 1.254 1_545 S
C1267 O1263 1.269 . S
C1268 O1269 1.249 . S
C1268 O1270 1.270 . S
O1269 Zn1261 1.943 1_545 S
O1269 C1268 1.249 . S
O1270 Zn1260 2.067 . S
O1270 C1268 1.270 . S
C1271 O1264 1.262 . S
C1271 O1272 1.232 . S
O1272 C1271 1.232 . S
C1273 O1265 1.260 . S
C1273 O1266 1.257 . S
Zn1274 O1277 2.031 1_556 S
Zn1274 O1279 2.049 . S
Zn1274 O1284 2.067 . S
Zn1275 O1276 1.962 . S
Zn1275 O1278 1.986 . S
Zn1275 O1280 1.996 1_554 S
Zn1275 O1283 1.943 . S
O1276 Zn1275 1.962 . S
O1276 C1281 1.254 . S
O1277 Zn1274 2.031 1_554 S
O1277 C1281 1.269 . S
O1278 Zn1275 1.986 . S
O1278 C1285 1.262 . S
O1279 Zn1274 2.049 . S
O1279 C1287 1.260 . S
O1280 Zn1275 1.996 1_556 S
O1280 C1287 1.257 . S
C1281 O1276 1.254 . S
C1281 O1277 1.269 . S
C1282 O1283 1.249 1_556 S
C1282 O1284 1.270 . S
O1283 Zn1275 1.943 . S
O1283 C1282 1.249 1_554 S
O1284 Zn1274 2.067 . S
O1284 C1282 1.270 . S
C1285 O1278 1.262 . S
C1285 O1286 1.232 . S
O1286 C1285 1.232 . S
C1287 O1279 1.260 . S
C1287 O1280 1.257 . S
Zn1288 O1291 2.031 . S
Zn1288 O1293 2.049 . S
Zn1288 O1298 2.067 . S
Zn1289 O1290 1.962 . S
Zn1289 O1292 1.986 . S
Zn1289 O1294 1.996 . S
Zn1289 O1297 1.943 . S
O1290 Zn1289 1.962 . S
O1290 C1295 1.254 . S
O1291 Zn1288 2.031 . S
O1291 C1295 1.269 . S
O1292 Zn1289 1.986 . S
O1292 C1299 1.262 . S
O1293 Zn1288 2.049 . S
O1293 C1301 1.260 . S
O1294 Zn1289 1.996 . S
O1294 C1301 1.257 . S
C1295 O1290 1.254 . S
C1295 O1291 1.269 . S
C1296 O1297 1.249 . S
C1296 O1298 1.270 . S
O1297 Zn1289 1.943 . S
O1297 C1296 1.249 . S
O1298 Zn1288 2.067 . S
O1298 C1296 1.270 . S
C1299 O1292 1.262 . S
C1299 O1300 1.232 . S
O1300 C1299 1.232 . S
C1301 O1293 1.260 . S
C1301 O1294 1.257 . S
Zn1302 O1305 2.031 1_554 S
Zn1302 O1307 2.049 . S
Zn1302 O1312 2.067 . S
Zn1303 O1304 1.962 . S
Zn1303 O1306 1.986 . S
Zn1303 O1308 1.996 1_556 S
Zn1303 O1311 1.943 1_556 S
O1304 Zn1303 1.962 . S
O1304 C1309 1.254 . S
O1305 Zn1302 2.031 1_556 S
O1305 C1309 1.269 . S
O1306 Zn1303 1.986 . S
O1306 C1313 1.262 . S
O1307 Zn1302 2.049 . S
O1307 C1315 1.260 . S
O1308 Zn1303 1.996 1_554 S
O1308 C1315 1.257 . S
C1309 O1304 1.254 . S
C1309 O1305 1.269 . S
C1310 O1311 1.249 . S
C1310 O1312 1.270 . S
O1311 Zn1303 1.943 1_554 S
O1311 C1310 1.249 . S
O1312 Zn1302 2.067 . S
O1312 C1310 1.270 . S
C1313 O1306 1.262 . S
C1313 O1314 1.232 . S
O1314 C1313 1.232 . S
C1315 O1307 1.260 . S
C1315 O1308 1.257 . S
Zn1316 O1319 2.031 . S
Zn1316 O1321 2.049 . S
Zn1316 O1326 2.067 . S
Zn1317 O1318 1.962 . S
Zn1317 O1320 1.986 . S
Zn1317 O1322 1.996 . S
Zn1317 O1325 1.943 . S
O1318 Zn1317 1.962 . S
O1318 C1323 1.254 . S
O1319 Zn1316 2.031 . S
O1319 C1323 1.269 . S
O1320 Zn1317 1.986 . S
O1320 C1327 1.262 . S
O1321 Zn1316 2.049 . S
O1321 C1329 1.260 . S
O1322 Zn1317 1.996 . S
O1322 C1329 1.257 . S
C1323 O1318 1.254 . S
C1323 O1319 1.269 . S
C1324 O1325 1.249 . S
C1324 O1326 1.270 . S
O1325 Zn1317 1.943 . S
O1325 C1324 1.249 . S
O1326 Zn1316 2.067 . S
O1326 C1324 1.270 . S
C1327 O1320 1.262 . S
C1327 O1328 1.232 . S
O1328 C1327 1.232 . S
C1329 O1321 1.260 . S
C1329 O1322 1.257 . S
Zn1330 O1333 2.030 1_565 S
Zn1330 O1335 2.049 . S
Zn1330 O1340 2.061 1_565 S
Zn1331 O1332 1.962 . S
Zn1331 O1334 1.986 . S
Zn1331 O1336 1.996 . S
Zn1331 O1339 1.943 . S
O1332 Zn1331 1.962 . S
O1332 C1337 1.254 . S
O1333 Zn1330 2.030 1_545 S
O1333 C1337 1.267 1_545 S
O1334 Zn1331 1.986 . S
O1334 C1341 1.262 . S
O1335 Zn1330 2.049 . S
O1335 C1343 1.260 . S
O1336 Zn1331 1.996 . S
O1336 C1343 1.257 . S
C1337 O1332 1.254 . S
C1337 O1333 1.267 1_565 S
C1338 O1339 1.249 . S
C1338 O1340 1.269 1_565 S
O1339 Zn1331 1.943 . S
O1339 C1338 1.249 . S
O1340 Zn1330 2.061 1_545 S
O1340 C1338 1.269 1_545 S
C1341 O1334 1.262 . S
C1341 O1342 1.232 . S
O1342 C1341 1.232 . S
C1343 O1335 1.260 . S
C1343 O1336 1.257 . S
C363 C13 0.619 . S
C27 C1049 1.733 . S
C391 C41 0.742 . S
C1021 C55 1.691 . S
C447 C69 0.342 . S
C1077 C83 1.407 . S
C419 C97 1.246 . S
C111 C1105 1.176 . S
C1329 C125 0.619 . S
C1245 C139 1.691 . S
C1343 C153 0.806 . S
C1315 C167 1.389 1_554 S
C181 C1273 1.422 . S
C195 C615 1.461 . S
C629 C209 0.342 . S
C223 C587 1.176 . S
C1203 C237 0.619 . S
C503 C251 0.806 . S
C1133 C265 1.691 . S
C475 C279 0.742 . S
C293 C489 1.176 . S
C1231 C307 0.777 . S
C321 C1189 1.461 . S
C1217 C335 1.407 . S
C21 C343 0.850 . S
C707 C357 1.933 . S
C49 C371 1.064 . S
C385 C679 1.470 . S
C105 C399 0.780 . S
C413 C735 1.093 . S
C77 C427 0.767 . S
C441 C763 1.560 1_455 S
C987 C455 0.850 . S
C469 C903 1.470 . S
C483 C1001 0.914 . S
C973 C497 1.821 . S
C931 C511 0.803 . S
C525 C273 1.219 . S
C287 C539 0.780 . S
C245 C553 1.560 1_556 S
C861 C567 0.850 . S
C161 C581 0.914 . S
C791 C595 1.470 . S
C609 C133 1.064 . S
C623 C147 1.560 1_545 S
C889 C637 2.051 . S
C847 C651 1.219 . S
C875 C665 1.093 . S
C1035 C685 0.503 . S
C699 C377 1.461 . S
C713 C1063 1.422 . S
C727 C349 1.575 . S
C741 C1119 0.777 . S
C405 C755 1.389 1_455 S
C769 C1091 0.806 . S
C433 C783 0.761 . S
C797 C657 0.503 . S
C573 C811 1.575 . S
C671 C825 1.246 . S
C839 C643 1.407 . S
C601 C853 0.742 . S
C1287 C867 1.733 . S
C1301 C881 0.777 . S
C1259 C895 0.761 . S
C531 C909 0.503 . S
C1175 C923 1.246 . S
C937 C461 1.575 . S
C951 C1147 1.422 . S
C1161 C965 0.761 . S
C979 C559 0.342 . S
C517 C993 1.733 . S
C545 C1007 1.389 1_545 S
C1015 C693 0.819 . S
C35 C1029 1.219 . S
C1043 C721 0.803 . S
C7 C1057 1.181 . S
C1071 C777 2.051 . S
C1085 C63 1.821 . S
C1099 C749 0.914 . S
C91 C1113 1.300 . S
C1127 C315 0.819 . S
C231 C1141 1.181 . S
C1155 C329 0.767 . S
C301 C1169 1.093 . S
C1183 C259 1.064 . S
C1197 C945 1.933 . S
C1211 C959 2.051 . S
C1225 C917 1.300 . S
C1239 C189 0.819 . S
C833 C1253 0.767 . S
C1267 C119 1.181 . S
C805 C1281 0.803 . S
C1295 C819 1.300 . S
C217 C1309 0.780 . S
C1323 C175 1.933 . S
C1337 C203 1.821 . S
C708 C8 1.041 1_655 S
C722 C22 1.859 . S
C680 C36 1.303 . S
C694 C50 1.653 . S
C64 C764 1.358 . S
C778 C78 1.240 . S
C92 C736 1.574 . S
C750 C106 1.659 . S
C120 C176 1.041 1_545 S
C190 C134 1.653 . S
C148 C204 1.358 . S
C218 C162 1.659 . S
C232 C946 1.041 1_554 S
C974 C246 1.358 . S
C260 C316 1.653 . S
C904 C274 1.303 . S
C288 C1002 1.659 . S
C918 C302 1.574 . S
C330 C960 1.240 . S
C1044 C344 1.798 1_655 S
C358 C1058 1.433 . S
C1016 C372 1.738 . S
C386 C1030 1.394 . S
C1100 C400 1.542 . S
C1114 C414 1.132 . S
C1072 C428 1.481 . S
C442 C1086 1.016 1_455 S
C456 C512 1.798 1_545 S
C526 C470 1.394 . S
C484 C540 1.542 . S
C498 C554 1.016 1_556 S
C568 C1282 1.798 1_554 S
C1310 C582 1.542 . S
C652 C596 1.394 . S
C1240 C610 1.738 . S
C624 C1338 1.016 1_545 S
C638 C1254 1.481 . S
C1296 C666 1.132 . S
C792 C848 1.303 . S
C806 C862 1.859 . S
C820 C876 1.574 . S
C890 C834 1.240 . S
C988 C932 1.859 . S
C1128 C1184 1.738 . S
C1142 C1198 1.433 . S
C1212 C1156 1.481 . S
C1170 C1226 1.132 . S
C1324 C1268 1.433 . S
C11 C319 2.047 . S
C25 C907 1.783 . S
C333 C39 2.182 . S
C53 C977 1.654 . S
C67 C263 1.654 . S
C81 C277 2.182 . S
C95 C963 2.745 . S
C249 C109 2.086 . S
C123 C193 2.047 . S
C137 C207 1.654 . S
C151 C221 2.086 . S
C179 C165 1.656 . S
C697 C235 2.047 . S
C767 C291 2.086 . S
C305 C725 2.336 . S
C347 C655 2.232 . S
C1243 C361 2.751 . S
C375 C669 2.003 . S
C389 C1313 2.233 . S
C403 C599 2.233 . S
C417 C613 2.003 . S
C431 C1299 2.297 . S
C445 C585 2.245 . S
C529 C459 2.232 . S
C473 C543 2.233 . S
C557 C487 2.245 . S
C515 C501 2.523 . S
C1033 C571 2.232 . S
C627 C1103 2.245 . S
C1061 C641 1.428 . S
C991 C683 1.783 . S
C1005 C711 1.656 . S
C739 C935 2.336 . S
C949 C753 1.656 . S
C781 C921 2.745 . S
C795 C865 1.783 . S
C809 C879 2.336 . S
C823 C893 2.745 . S
C851 C837 2.182 . S
C1327 C1019 2.751 . S
C1047 C1341 2.523 . S
C1271 C1075 1.428 . S
C1089 C1285 2.523 . S
C1257 C1117 2.297 . S
C1201 C1131 2.751 . S
C1145 C1215 1.428 . S
C1159 C1229 2.297 . S
C1173 C1187 2.003 . S
