# Generated by pormake.
# Topology ukk, (4)-cn, num edge types: 1
# Building blocks:
#     Node 0, Type 0, BuildingBlock: ESEHIV_clean_sbu_0, # of connection points: 4
#     Node 1, Type 0, BuildingBlock: ESEHIV_clean_sbu_0, # of connection points: 4
#     Node 2, Type 0, BuildingBlock: ESEHIV_clean_sbu_0, # of connection points: 4
#     Node 3, Type 0, BuildingBlock: ESEHIV_clean_sbu_0, # of connection points: 4
#     Node 4, Type 0, BuildingBlock: ESEHIV_clean_sbu_0, # of connection points: 4
#     Node 5, Type 0, BuildingBlock: ESEHIV_clean_sbu_0, # of connection points: 4
#     Node 6, Type 0, BuildingBlock: ESEHIV_clean_sbu_0, # of connection points: 4
#     Node 7, Type 0, BuildingBlock: ESEHIV_clean_sbu_0, # of connection points: 4
#     Node 8, Type 0, BuildingBlock: ESEHIV_clean_sbu_0, # of connection points: 4
#     Node 9, Type 0, BuildingBlock: ESEHIV_clean_sbu_0, # of connection points: 4
#     Node 10, Type 0, BuildingBlock: ESEHIV_clean_sbu_0, # of connection points: 4
#     Node 11, Type 0, BuildingBlock: ESEHIV_clean_sbu_0, # of connection points: 4
#     Node 12, Type 0, BuildingBlock: ESEHIV_clean_sbu_0, # of connection points: 4
#     Node 13, Type 0, BuildingBlock: ESEHIV_clean_sbu_0, # of connection points: 4
#     Node 14, Type 0, BuildingBlock: ESEHIV_clean_sbu_0, # of connection points: 4
#     Node 15, Type 0, BuildingBlock: ESEHIV_clean_sbu_0, # of connection points: 4
#     Edge 16, Type (0, 0), BuildingBlock: XIVTED_clean_linker_0, # of connection points: 2
#     Edge 17, Type (0, 0), BuildingBlock: XIVTED_clean_linker_0, # of connection points: 2
#     Edge 18, Type (0, 0), BuildingBlock: XIVTED_clean_linker_0, # of connection points: 2
#     Edge 19, Type (0, 0), BuildingBlock: XIVTED_clean_linker_0, # of connection points: 2
#     Edge 20, Type (0, 0), BuildingBlock: XIVTED_clean_linker_0, # of connection points: 2
#     Edge 21, Type (0, 0), BuildingBlock: XIVTED_clean_linker_0, # of connection points: 2
#     Edge 22, Type (0, 0), BuildingBlock: XIVTED_clean_linker_0, # of connection points: 2
#     Edge 23, Type (0, 0), BuildingBlock: XIVTED_clean_linker_0, # of connection points: 2
#     Edge 24, Type (0, 0), BuildingBlock: XIVTED_clean_linker_0, # of connection points: 2
#     Edge 25, Type (0, 0), BuildingBlock: XIVTED_clean_linker_0, # of connection points: 2
#     Edge 26, Type (0, 0), BuildingBlock: XIVTED_clean_linker_0, # of connection points: 2
#     Edge 27, Type (0, 0), BuildingBlock: XIVTED_clean_linker_0, # of connection points: 2
#     Edge 28, Type (0, 0), BuildingBlock: XIVTED_clean_linker_0, # of connection points: 2
#     Edge 29, Type (0, 0), BuildingBlock: XIVTED_clean_linker_0, # of connection points: 2
#     Edge 30, Type (0, 0), BuildingBlock: XIVTED_clean_linker_0, # of connection points: 2
#     Edge 31, Type (0, 0), BuildingBlock: XIVTED_clean_linker_0, # of connection points: 2
#     Edge 32, Type (0, 0), BuildingBlock: XIVTED_clean_linker_0, # of connection points: 2
#     Edge 33, Type (0, 0), BuildingBlock: XIVTED_clean_linker_0, # of connection points: 2
#     Edge 34, Type (0, 0), BuildingBlock: XIVTED_clean_linker_0, # of connection points: 2
#     Edge 35, Type (0, 0), BuildingBlock: XIVTED_clean_linker_0, # of connection points: 2
#     Edge 36, Type (0, 0), BuildingBlock: XIVTED_clean_linker_0, # of connection points: 2
#     Edge 37, Type (0, 0), BuildingBlock: XIVTED_clean_linker_0, # of connection points: 2
#     Edge 38, Type (0, 0), BuildingBlock: XIVTED_clean_linker_0, # of connection points: 2
#     Edge 39, Type (0, 0), BuildingBlock: XIVTED_clean_linker_0, # of connection points: 2
#     Edge 40, Type (0, 0), BuildingBlock: XIVTED_clean_linker_0, # of connection points: 2
#     Edge 41, Type (0, 0), BuildingBlock: XIVTED_clean_linker_0, # of connection points: 2
#     Edge 42, Type (0, 0), BuildingBlock: XIVTED_clean_linker_0, # of connection points: 2
#     Edge 43, Type (0, 0), BuildingBlock: XIVTED_clean_linker_0, # of connection points: 2
#     Edge 44, Type (0, 0), BuildingBlock: XIVTED_clean_linker_0, # of connection points: 2
#     Edge 45, Type (0, 0), BuildingBlock: XIVTED_clean_linker_0, # of connection points: 2
#     Edge 46, Type (0, 0), BuildingBlock: XIVTED_clean_linker_0, # of connection points: 2
#     Edge 47, Type (0, 0), BuildingBlock: XIVTED_clean_linker_0, # of connection points: 2
# Relax obj value: 0.042
# Max RMSD: 0.118
# Mean RMSD: 0.118
data_MOF--net-ukk--node1-ESEHIV_clean_sbu_0--edge1-XIVTED_clean_linker_0
_symmetry_space_group_name_H-M    P1
_symmetry_Int_Tables_number       1
_symmetry_cell_setting            triclinic
loop_
_symmetry_equiv_pos_as_xyz
'x, y, z'
_cell_length_a     57.616475
_cell_length_b     57.600314
_cell_length_c     23.002625
_cell_angle_alpha  89.684557
_cell_angle_beta   89.676357
_cell_angle_gamma 89.799266
loop_
_atom_site_label
_atom_site_type_symbol
_atom_site_fract_x
_atom_site_fract_y
_atom_site_fract_z
_atom_type_partial_charge
Cu0 Cu 0.40821 0.15769 0.10952 0.0
N1 N 0.44008 0.15533 0.0905 0.0
N2 N 0.47892 0.15644 0.09856 0.0
C3 C 0.45828 0.16324 0.12138 0.0
C4 C 0.47339 0.14424 0.05064 0.0
C5 C 0.44958 0.14363 0.04579 0.0
O6 O 0.40144 0.13395 0.1695 0.0
C7 C 0.41296 0.20669 0.11465 0.0
O8 O 0.4267 0.20292 0.06989 0.0
H9 H 0.45631 0.17331 0.16067 0.0
H10 H 0.43992 0.13462 0.01278 0.0
N11 N 0.39045 0.14868 0.04429 0.0
N12 N 0.36628 0.14453 0.96844 0.0
C13 C 0.37424 0.15913 1.01016 0.0
C14 C 0.39217 0.12689 0.02393 0.0
C15 C 0.37763 0.12435 0.97747 0.0
C16 C 0.41591 0.12704 0.20778 0.0
O17 O 0.43566 0.13803 0.21325 0.0
H18 H 0.36857 0.17694 0.01535 0.0
H19 H 0.40331 0.11361 0.0422 0.0
O20 O 0.40198 0.18953 0.13693 0.0
H21 H 0.48557 0.13542 0.02236 0.0
H22 H 0.37527 0.10862 0.95265 0.0
Cu23 Cu 0.13605 0.63144 0.95614 0.0
N24 N 0.13947 0.59877 0.95285 0.0
N25 N 0.14064 0.56279 0.9151 0.0
C26 C 0.13128 0.58437 0.91144 0.0
C27 C 0.15502 0.56362 0.96121 0.0
C28 C 0.1543 0.58572 0.98415 0.0
O29 O 0.10568 0.6397 0.92445 0.0
C30 C 0.17687 0.63439 0.88403 0.0
O31 O 0.17069 0.61388 0.86509 0.0
H32 H 0.11995 0.59005 0.87685 0.0
H33 H 0.16484 0.59217 0.01927 0.0
N34 N 0.13587 0.64254 0.03336 0.0
N35 N 0.1347 0.66711 0.10929 0.0
C36 C 0.13653 0.66498 0.05069 0.0
C37 C 0.1336 0.63006 0.08261 0.0
C38 C 0.13293 0.64505 0.12922 0.0
C39 C 0.09909 0.63791 0.87194 0.0
O40 O 0.11423 0.63194 0.83176 0.0
H41 H 0.13768 0.67946 0.02066 0.0
H42 H 0.13217 0.61136 0.08452 0.0
O43 O 0.16322 0.64548 0.91803 0.0
H44 H 0.16587 0.54949 0.97638 0.0
H45 H 0.13127 0.63996 0.1744 0.0
Cu46 Cu 0.64475 0.9003 0.05426 0.0
N47 N 0.61259 0.89387 0.05559 0.0
N48 N 0.5755 0.89042 0.08496 0.0
C49 C 0.59493 0.9036 0.08623 0.0
C50 C 0.581 0.87208 0.05136 0.0
C51 C 0.60369 0.8743 0.03328 0.0
O52 O 0.65259 0.9264 0.10533 0.0
C53 C 0.65413 0.8579 0.11562 0.0
O54 O 0.63882 0.86547 0.15357 0.0
H55 H 0.5966 0.9192 0.11179 0.0
H56 H 0.61356 0.86174 1.00848 0.0
N57 N 0.65466 0.90771 0.97814 0.0
N58 N 0.67682 0.91068 0.89751 0.0
C59 C 0.67575 0.90367 0.9539 0.0
C60 C 0.64199 0.91764 0.93585 0.0
C61 C 0.65552 0.91949 0.88633 0.0
C62 C 0.64432 0.92971 0.1562 0.0
O63 O 0.63077 0.91397 0.17985 0.0
H64 H 0.68987 0.89539 0.97699 0.0
H65 H 0.6241 0.92309 0.94067 0.0
O66 O 0.66022 0.87105 0.07355 0.0
H67 H 0.56966 0.85761 0.04232 0.0
H68 H 0.65005 0.92703 0.84543 0.0
Cu69 Cu 0.90168 0.39166 0.89506 0.0
N70 N 0.90013 0.40164 0.81726 0.0
N71 N 0.89874 0.42827 0.74556 0.0
C72 C 0.90558 0.42346 0.80046 0.0
C73 C 0.88864 0.40852 0.72699 0.0
C74 C 0.88947 0.39216 0.77129 0.0
O75 O 0.92939 0.4074 0.92443 0.0
C76 C 0.85511 0.38331 0.92833 0.0
O77 O 0.86096 0.36212 0.91339 0.0
H78 H 0.91283 0.43614 0.82972 0.0
H79 H 0.88159 0.37515 0.77119 0.0
N80 N 0.90754 0.35974 0.90716 0.0
N81 N 0.91353 0.3266 0.95695 0.0
C82 C 0.91038 0.34985 0.96003 0.0
C83 C 0.90916 0.3422 0.86897 0.0
C84 C 0.91279 0.32176 0.89952 0.0
C85 C 0.94782 0.40029 0.89875 0.0
O86 O 0.94606 0.38413 0.859 0.0
H87 H 0.90946 0.35957 1.0001 0.0
H88 H 0.90761 0.34409 0.82236 0.0
O89 O 0.87067 0.39916 0.92763 0.0
H90 H 0.88038 0.40631 0.68525 0.0
H91 H 0.9148 0.30469 0.8807 0.0
Cu92 Cu 0.38952 0.41755 0.18332 0.0
N93 N 0.40204 0.41221 0.10884 0.0
N94 N 0.43286 0.40618 0.04997 0.0
C95 C 0.42468 0.41664 0.0985 0.0
C96 C 0.41432 0.39474 0.02857 0.0
C97 C 0.39541 0.39835 0.06513 0.0
O98 O 0.39764 0.45032 0.19892 0.0
C99 C 0.39114 0.37168 0.21561 0.0
O100 O 0.37186 0.37292 0.18574 0.0
H101 H 0.43543 0.42567 0.12939 0.0
H102 H 0.37866 0.39002 0.06238 0.0
N103 N 0.35696 0.41635 0.19584 0.0
N104 N 0.32378 0.41524 0.24817 0.0
C105 C 0.34719 0.41723 0.24939 0.0
C106 C 0.33909 0.41382 0.15902 0.0
C107 C 0.31867 0.41309 0.19111 0.0
C108 C 0.38668 0.46368 0.16361 0.0
O109 O 0.37331 0.45391 0.12472 0.0
H110 H 0.3573 0.41871 0.28867 0.0
H111 H 0.34079 0.41236 0.11233 0.0
O112 O 0.40247 0.39043 0.22508 0.0
H113 H 0.41457 0.38363 0.99079 0.0
H114 H 0.30141 0.41122 0.17349 0.0
Cu115 Cu 0.39171 0.67458 0.92787 0.0
N116 N 0.39069 0.6634 1.00492 0.0
N117 N 0.39207 0.63375 0.06911 0.0
C118 C 0.38375 0.64155 0.01763 0.0
C119 C 0.40467 0.65157 0.08993 0.0
C120 C 0.40389 0.66974 0.05022 0.0
O121 O 0.42253 0.6633 0.90359 0.0
C122 C 0.34537 0.67163 0.91524 0.0
O123 O 0.34837 0.68573 0.95923 0.0
H124 H 0.37489 0.63069 0.98662 0.0
H125 H 0.41406 0.68548 0.05167 0.0
N126 N 0.39004 0.70724 0.91631 0.0
N127 N 0.3891 0.74125 0.86758 0.0
C128 C 0.39281 0.71807 0.86434 0.0
C129 C 0.38438 0.72423 0.95384 0.0
C130 C 0.3837 0.74515 0.92391 0.0
C131 C 0.43961 0.67696 0.91235 0.0
O132 O 0.43524 0.69875 0.92471 0.0
H133 H 0.39707 0.70897 0.8246 0.0
H134 H 0.38062 0.72155 0.9995 0.0
O135 O 0.36339 0.66265 0.89149 0.0
H136 H 0.41483 0.65107 0.12934 0.0
H137 H 0.3797 0.76196 0.94233 0.0
Cu138 Cu 0.65146 0.64166 0.16893 0.0
N139 N 0.61912 0.64566 0.16773 0.0
N140 N 0.58305 0.65017 0.13375 0.0
C141 C 0.60429 0.64091 0.12404 0.0
C142 C 0.58454 0.661 0.18541 0.0
C143 C 0.60673 0.65809 0.20637 0.0
O144 O 0.65926 0.61536 0.11866 0.0
C145 C 0.65656 0.68539 0.11072 0.0
O146 O 0.63946 0.67817 0.07806 0.0
H147 H 0.60941 0.6325 0.084 0.0
H148 H 0.61377 0.66573 0.24529 0.0
N149 N 0.6612 0.63444 0.2449 0.0
N150 N 0.68257 0.63217 0.32629 0.0
C151 C 0.68131 0.64034 0.27095 0.0
C152 C 0.64937 0.6221 0.2849 0.0
C153 C 0.66241 0.62068 0.3349 0.0
C154 C 0.65843 0.6154 0.06331 0.0
O155 O 0.65425 0.63495 0.03567 0.0
H156 H 0.69461 0.65061 0.24976 0.0
H157 H 0.63243 0.61458 0.27803 0.0
O158 O 0.66521 0.67168 0.14859 0.0
H159 H 0.57086 0.67125 0.20518 0.0
H160 H 0.65748 0.61149 0.3742 0.0
Cu161 Cu 0.63793 0.39436 0.84485 0.0
N162 N 0.63731 0.42678 0.83191 0.0
N163 N 0.64165 0.46476 0.85096 0.0
C164 C 0.64535 0.44273 0.86955 0.0
C165 C 0.63112 0.46251 0.799 0.0
C166 C 0.62847 0.43917 0.78742 0.0
O167 O 0.60955 0.38697 0.8901 0.0
C168 C 0.68549 0.39738 0.85449 0.0
O169 O 0.68158 0.40805 0.80484 0.0
H170 H 0.65365 0.43814 0.91011 0.0
H171 H 0.62032 0.43193 0.74954 0.0
N172 N 0.63606 0.37728 0.77487 0.0
N173 N 0.63923 0.34858 0.70899 0.0
C174 C 0.64695 0.35722 0.76023 0.0
C175 C 0.62076 0.38116 0.73192 0.0
C176 C 0.62279 0.36378 0.69134 0.0
C177 C 0.60168 0.39974 0.93101 0.0
O178 O 0.6148 0.41647 0.95089 0.0
H179 H 0.65984 0.34886 0.78733 0.0
H180 H 0.60804 0.39496 0.73153 0.0
O181 O 0.66826 0.38828 0.88143 0.0
H182 H 0.62506 0.47667 0.7719 0.0
H183 H 0.61205 0.36188 0.65323 0.0
Cu184 Cu 0.88062 0.63978 0.64996 0.0
N185 N 0.89673 0.63885 0.72051 0.0
N186 N 0.9292 0.63827 0.77394 0.0
C187 C 0.9199 0.64167 0.72085 0.0
C188 C 0.9109 0.63324 0.80886 0.0
C189 C 0.89086 0.63345 0.77563 0.0
O190 O 0.88907 0.60959 0.61572 0.0
C191 C 0.88722 0.68651 0.64821 0.0
O192 O 0.87841 0.6824 0.70004 0.0
H193 H 0.92976 0.64585 0.68203 0.0
H194 H 0.8735 0.62923 0.79023 0.0
N195 N 0.84799 0.64167 0.65228 0.0
N196 N 0.81184 0.64246 0.61597 0.0
C197 C 0.83475 0.63995 0.60429 0.0
C198 C 0.83301 0.64552 0.69626 0.0
C199 C 0.81072 0.64593 0.67406 0.0
C200 C 0.8772 0.59236 0.6348 0.0
O201 O 0.85955 0.59639 0.66966 0.0
H202 H 0.84196 0.6367 0.56157 0.0
H203 H 0.83793 0.64809 0.74106 0.0
O204 O 0.89032 0.66932 0.61386 0.0
H205 H 0.91198 0.62883 0.85457 0.0
H206 H 0.79499 0.64899 0.6988 0.0
Cu207 Cu 0.66723 0.15022 0.37514 0.0
N208 N 0.66777 0.11788 0.38761 0.0
N209 N 0.66679 0.07993 0.36666 0.0
C210 C 0.658 0.10122 0.35461 0.0
C211 C 0.68244 0.08328 0.40913 0.0
C212 C 0.68297 0.10662 0.422 0.0
O213 O 0.64011 0.15808 0.32831 0.0
C214 C 0.70901 0.14403 0.30925 0.0
O215 O 0.69938 0.12445 0.2934 0.0
H216 H 0.64626 0.10483 0.3191 0.0
H217 H 0.69486 0.11504 0.45129 0.0
N218 N 0.66445 0.16625 0.44637 0.0
N219 N 0.66184 0.19489 0.51248 0.0
C220 C 0.66445 0.18947 0.4554 0.0
C221 C 0.66163 0.1567 0.4994 0.0
C222 C 0.66006 0.17417 0.54 0.0
C223 C 0.63771 0.15362 0.27453 0.0
O224 O 0.65511 0.14433 0.24566 0.0
H225 H 0.66645 0.20208 0.42072 0.0
H226 H 0.66052 0.13826 0.50798 0.0
O227 O 0.69729 0.15833 0.34003 0.0
H228 H 0.6935 0.06995 0.42759 0.0
H229 H 0.65729 0.17171 0.58617 0.0
Cu230 Cu 0.15282 0.40036 0.66659 0.0
N231 N 0.14057 0.40791 0.74015 0.0
N232 N 0.1123 0.41515 0.80508 0.0
C233 C 0.11762 0.41102 0.74891 0.0
C234 C 0.13276 0.41434 0.83332 0.0
C235 C 0.15024 0.40997 0.79306 0.0
O236 O 0.13451 0.41786 0.61042 0.0
C237 C 0.15392 0.35215 0.69492 0.0
O238 O 0.16143 0.35995 0.74493 0.0
H239 H 0.10492 0.4097 0.71458 0.0
H240 H 0.16853 0.40799 0.80201 0.0
N241 N 0.1842 0.40727 0.65013 0.0
N242 N 0.21647 0.41179 0.59533 0.0
C243 C 0.19341 0.40718 0.59591 0.0
C244 C 0.20203 0.41208 0.68547 0.0
C245 C 0.22186 0.41493 0.65193 0.0
C246 C 0.12554 0.43822 0.61273 0.0
O247 O 0.11267 0.44504 0.56884 0.0
H248 H 0.1832 0.40377 0.55759 0.0
H249 H 0.20082 0.41319 0.73228 0.0
O250 O 0.14889 0.36675 0.65485 0.0
H251 H 0.13494 0.41669 0.87962 0.0
H252 H 0.23901 0.41855 0.66844 0.0
Cu253 Cu 0.39854 0.90382 0.41488 0.0
N254 N 0.39485 0.93587 0.42879 0.0
N255 N 0.39315 0.97433 0.41294 0.0
C256 C 0.40384 0.95412 0.39909 0.0
C257 C 0.37719 0.96864 0.45367 0.0
C258 C 0.37833 0.94503 0.46341 0.0
O259 O 0.42401 0.89863 0.35886 0.0
C260 C 0.35466 0.9046 0.35812 0.0
O261 O 0.36184 0.92485 0.33884 0.0
H262 H 0.41688 0.95251 0.36541 0.0
H263 H 0.3669 0.93498 0.49113 0.0
N264 N 0.40706 0.88841 0.48447 0.0
N265 N 0.40994 0.86305 0.5589 0.0
C266 C 0.39638 0.87127 0.51521 0.0
C267 C 0.4278 0.8911 0.51007 0.0
C268 C 0.42965 0.87557 0.55554 0.0
C269 C 0.42617 0.9081 0.30885 0.0
O270 O 0.40943 0.92144 0.28904 0.0
H271 H 0.37956 0.86428 0.50427 0.0
H272 H 0.441 0.90311 0.49534 0.0
O273 O 0.36839 0.89214 0.38873 0.0
H274 H 0.36498 0.98057 0.4735 0.0
H275 H 0.44453 0.87341 0.58362 0.0
Cu276 Cu 0.87808 0.90477 0.57149 0.0
N277 N 0.89216 0.90672 0.49774 0.0
N278 N 0.92298 0.90913 0.43784 0.0
C279 C 0.91491 0.9117 0.49264 0.0
C280 C 0.90441 0.90224 0.4068 0.0
C281 C 0.88536 0.90087 0.44385 0.0
O282 O 0.89154 0.93218 0.60947 0.0
C283 C 0.87878 0.85728 0.5678 0.0
O284 O 0.86573 0.86301 0.52331 0.0
H285 H 0.92568 0.9158 0.52956 0.0
H286 H 0.86814 0.89503 0.43271 0.0
N287 N 0.84536 0.90687 0.57316 0.0
N288 N 0.80919 0.90766 0.61075 0.0
C289 C 0.83185 0.90259 0.62028 0.0
C290 C 0.83078 0.91472 0.53204 0.0
C291 C 0.80854 0.91518 0.55494 0.0
C292 C 0.87945 0.94992 0.62378 0.0
O293 O 0.85686 0.94785 0.62887 0.0
H294 H 0.83874 0.89643 0.66121 0.0
H295 H 0.83604 0.92045 0.48912 0.0
O296 O 0.88644 0.87357 0.60001 0.0
H297 H 0.90468 0.89798 0.36104 0.0
H298 H 0.79326 0.92147 0.53263 0.0
Cu299 Cu 0.92704 0.15 0.35436 0.0
N300 N 0.92333 0.13869 0.4307 0.0
N301 N 0.91871 0.11104 0.49905 0.0
C302 C 0.92474 0.11583 0.44342 0.0
C303 C 0.91335 0.13188 0.52242 0.0
C304 C 0.91624 0.1489 0.48022 0.0
O305 O 0.9566 0.13656 0.32825 0.0
C306 C 0.88115 0.15479 0.33558 0.0
O307 O 0.88575 0.16939 0.3776 0.0
H308 H 0.92894 0.10282 0.41123 0.0
H309 H 0.91253 0.16721 0.48477 0.0
N310 N 0.92989 0.18237 0.34372 0.0
N311 N 0.92941 0.21598 0.29347 0.0
C312 C 0.928 0.19256 0.29101 0.0
C313 C 0.93271 0.19991 0.38136 0.0
C314 C 0.93247 0.22063 0.35051 0.0
C315 C 0.97366 0.14431 0.35764 0.0
O316 O 0.96956 0.15963 0.3985 0.0
H317 H 0.92554 0.18276 0.25158 0.0
H318 H 0.93448 0.19785 0.42787 0.0
O319 O 0.89778 0.14235 0.31547 0.0
H320 H 0.90729 0.13463 0.56648 0.0
H321 H 0.93391 0.23778 0.36909 0.0
Cu322 Cu 0.17598 0.13456 0.61134 0.0
N323 N 0.16496 0.13425 0.53441 0.0
N324 N 0.13765 0.13177 0.46538 0.0
C325 C 0.14281 0.12864 0.52212 0.0
C326 C 0.15749 0.13964 0.44077 0.0
C327 C 0.17432 0.14108 0.48335 0.0
O328 O 0.1645 0.10431 0.64047 0.0
C329 C 0.1696 0.18159 0.61559 0.0
O330 O 0.18337 0.17877 0.57047 0.0
H331 H 0.13038 0.12343 0.55509 0.0
H332 H 0.19177 0.14755 0.4777 0.0
N333 N 0.20861 0.1364 0.61938 0.0
N334 N 0.24359 0.14016 0.66166 0.0
C335 C 0.22023 0.14068 0.66923 0.0
C336 C 0.22516 0.13321 0.57878 0.0
C337 C 0.24661 0.13553 0.6045 0.0
C338 C 0.17805 0.0867 0.64407 0.0
O339 O 0.20055 0.08998 0.64125 0.0
H340 H 0.21161 0.14348 0.71053 0.0
H341 H 0.22193 0.12907 0.53379 0.0
O342 O 0.16348 0.16358 0.64463 0.0
H343 H 0.1596 0.14445 0.3955 0.0
H344 H 0.26315 0.13387 0.58241 0.0
Cu345 Cu 0.13786 0.87845 0.39267 0.0
N346 N 0.14202 0.89308 0.46529 0.0
N347 N 0.14686 0.92247 0.52819 0.0
C348 C 0.14078 0.91629 0.47364 0.0
C349 C 0.15207 0.90221 0.55518 0.0
C350 C 0.14911 0.8842 0.51642 0.0
O351 O 0.10888 0.89138 0.36132 0.0
C352 C 0.18415 0.87238 0.37307 0.0
O353 O 0.17962 0.85773 0.41557 0.0
H354 H 0.13647 0.92848 0.43937 0.0
H355 H 0.15265 0.86603 0.5245 0.0
N356 N 0.13369 0.84585 0.39495 0.0
N357 N 0.13112 0.80895 0.36327 0.0
C358 C 0.13574 0.83137 0.34899 0.0
C359 C 0.12752 0.83218 0.43995 0.0
C360 C 0.12599 0.80956 0.42074 0.0
C361 C 0.09198 0.89004 0.39746 0.0
O362 O 0.09568 0.88067 0.44875 0.0
H363 H 0.14016 0.83734 0.30568 0.0
H364 H 0.12417 0.83823 0.48362 0.0
O365 O 0.16733 0.88415 0.35176 0.0
H366 H 0.15795 0.90048 0.59958 0.0
H367 H 0.12154 0.79472 0.44753 0.0
H368 H 0.3596 1.00625 0.38971 0.0
H369 H 0.44776 0.10183 0.26925 0.0
H370 H 0.433 0.99339 0.37118 0.0
H371 H 0.37533 0.10212 0.22252 0.0
H372 H 0.44214 0.06483 0.31963 0.0
H373 H 0.36459 0.04391 0.34102 0.0
C374 C 0.37681 1.01144 0.37583 0.0
C375 C 0.39596 0.99667 0.3848 0.0
C376 C 0.42746 0.073 0.29848 0.0
C377 C 0.40177 0.03983 0.32913 0.0
C378 C 0.43059 0.09425 0.26995 0.0
C379 C 0.41197 0.10522 0.24148 0.0
C380 C 0.40546 0.06265 0.29959 0.0
C381 C 0.39018 0.09434 0.24375 0.0
C382 C 0.3796 0.03285 0.34765 0.0
C383 C 0.41779 1.00417 0.36496 0.0
N384 N 0.3875 0.07372 0.27251 0.0
N385 N 0.42013 0.02527 0.3385 0.0
H386 H 0.06264 0.64779 0.94564 0.0
H387 H 0.96579 0.63109 0.70073 0.0
H388 H 0.078 0.63257 0.76597 0.0
H389 H 0.949 0.64588 0.87983 0.0
H390 H 1.00683 0.63257 0.72419 0.0
H391 H 1.02122 0.6484 0.92262 0.0
C392 C 0.05737 0.64474 0.90123 0.0
C393 C 0.07397 0.64009 0.85769 0.0
C394 C 0.99423 0.63556 0.75847 0.0
C395 C 0.02635 0.64062 0.83114 0.0
C396 C 0.97064 0.63486 0.74502 0.0
C397 C 0.95368 0.63859 0.78822 0.0
C398 C 1.0012 0.63998 0.81571 0.0
C399 C 0.96135 0.64279 0.84513 0.0
C400 C 0.03365 0.64502 0.88819 0.0
C401 C 0.06595 0.63623 0.80102 0.0
N402 N 0.9845 0.64341 0.85718 0.0
N403 N 0.04279 0.63652 0.7895 0.0
H404 H 0.68135 0.95947 0.14566 0.0
H405 H 0.62583 0.06203 0.33119 0.0
H406 H 0.61602 0.95098 0.23556 0.0
H407 H 0.69958 0.04967 0.32923 0.0
H408 H 0.62018 0.02516 0.2791 0.0
H409 H 0.68688 0.99655 0.1963 0.0
C410 C 0.66818 0.96541 0.17594 0.0
C411 C 0.64828 0.95202 0.18673 0.0
C412 C 0.63758 0.03059 0.29012 0.0
C413 C 0.65422 0.99461 0.24351 0.0
C414 C 0.64078 0.05159 0.31949 0.0
C415 C 0.66316 0.05873 0.33487 0.0
C416 C 0.65695 1.01701 0.27458 0.0
C417 C 0.68204 0.0446 0.31878 0.0
C418 C 0.67137 0.98651 0.20485 0.0
C419 C 0.63173 0.96061 0.22639 0.0
N420 N 0.67854 0.02453 0.28911 0.0
N421 N 0.63496 0.98143 0.25289 0.0
H422 H 0.07649 0.43791 0.7547 0.0
H423 H 0.9823 0.38551 0.97042 0.0
H424 H 0.09539 0.39998 0.90932 0.0
H425 H 0.96631 0.43638 0.83883 0.0
H426 H 0.02381 0.39348 0.95647 0.0
H427 H 0.03643 0.44003 0.78994 0.0
C428 C 0.07219 0.43014 0.79632 0.0
C429 C 0.08925 0.41855 0.82882 0.0
C430 C 1.01124 0.40346 0.9319 0.0
C431 C 0.04321 0.42073 0.86962 0.0
C432 C 0.98753 0.39914 0.9405 0.0
C433 C 0.97088 0.41077 0.90682 0.0
C434 C 1.01834 0.41908 0.8881 0.0
C435 C 0.9786 0.4275 0.86672 0.0
C436 C 0.04932 0.43145 0.81666 0.0
C437 C 0.08278 0.40909 0.88294 0.0
N438 N 1.00173 0.4309 0.85786 0.0
N439 N 0.06022 0.41007 0.90123 0.0
H440 H 0.42241 0.49355 0.19745 0.0
H441 H 0.35698 0.60327 0.05395 0.0
H442 H 0.353 0.49304 0.12833 0.0
H443 H 0.42392 0.60993 0.13481 0.0
H444 H 0.35556 0.56282 0.08528 0.0
H445 H 0.42365 0.53608 0.18098 0.0
C446 C 0.40734 0.50236 0.17988 0.0
C447 C 0.38764 0.4896 0.16389 0.0
C448 C 0.37058 0.57305 0.09663 0.0
C449 C 0.389 0.53803 0.1443 0.0
C450 C 0.3714 0.59623 0.07843 0.0
C451 C 0.3906 0.61015 0.09141 0.0
C452 C 0.3892 0.5633 0.12787 0.0
C453 C 0.40866 0.59998 0.12409 0.0
C454 C 0.4081 0.52659 0.17008 0.0
C455 C 0.3687 0.50197 0.14076 0.0
N456 N 0.40762 0.57716 0.14075 0.0
N457 N 0.36993 0.52522 0.13145 0.0
H458 H 0.45374 0.63361 0.95163 0.0
H459 H 0.56164 0.68961 0.10131 0.0
H460 H 0.47953 0.7014 0.90454 0.0
H461 H 0.56182 0.61577 0.07358 0.0
H462 H 0.52893 0.69354 0.03462 0.0
H463 H 0.49128 0.62498 0.99826 0.0
C464 C 0.46751 0.64634 0.94926 0.0
C465 C 0.46343 0.66834 0.92445 0.0
C466 C 0.53616 0.67645 0.04266 0.0
C467 C 0.50585 0.65889 0.97921 0.0
C468 C 0.5547 0.67423 0.08099 0.0
C469 C 0.56429 0.65236 0.09291 0.0
C470 C 0.52667 0.65659 0.01689 0.0
C471 C 0.55483 0.63292 0.06518 0.0
C472 C 0.48883 0.64149 0.97635 0.0
C473 C 0.48179 0.68431 0.9236 0.0
N474 N 0.53624 0.6354 0.02898 0.0
N475 N 0.50194 0.67946 0.95153 0.0
H476 H 0.64783 0.4704 0.96763 0.0
H477 H 0.65703 0.60899 0.94522 0.0
H478 H 0.64648 0.50829 0.80526 0.0
H479 H 0.6614 0.57091 0.10692 0.0
H480 H 0.65491 0.57222 0.89297 0.0
H481 H 0.65451 0.50674 0.01877 0.0
C482 C 0.64915 0.48626 0.94247 0.0
C483 C 0.6465 0.48609 0.88172 0.0
C484 C 0.65648 0.57188 0.93985 0.0
C485 C 0.6539 0.5281 0.94064 0.0
C486 C 0.65774 0.59291 0.9698 0.0
C487 C 0.65933 0.59314 0.03073 0.0
C488 C 0.65669 0.55079 0.97089 0.0
C489 C 0.66018 0.57166 0.06001 0.0
C490 C 0.65285 0.5071 0.97191 0.0
C491 C 0.64806 0.50746 0.85203 0.0
N492 N 0.65871 0.55142 0.02991 0.0
N493 N 0.65157 0.52752 0.88172 0.0
H494 H 0.46772 0.43606 0.07696 0.0
H495 H 0.5668 0.37052 0.89278 0.0
H496 H 0.45382 0.37408 0.97865 0.0
H497 H 0.57968 0.42594 0.01369 0.0
H498 H 0.52549 0.37153 0.92056 0.0
H499 H 0.5085 0.43303 0.05012 0.0
C500 C 0.47313 0.42171 0.04992 0.0
C501 C 0.45699 0.40519 0.03078 0.0
C502 C 0.53742 0.38335 0.94121 0.0
C503 C 0.50432 0.40177 0.99883 0.0
C504 C 0.56107 0.38273 0.92553 0.0
C505 C 0.57693 0.39816 0.95084 0.0
C506 C 0.52947 0.39964 0.98225 0.0
C507 C 0.56828 0.41368 0.9928 0.0
C508 C 0.49659 0.42003 0.03437 0.0
C509 C 0.46538 0.38734 0.99446 0.0
N510 N 0.54529 0.41408 1.00681 0.0
N511 N 0.48838 0.3861 0.9798 0.0
H512 H 0.92974 0.46326 0.76095 0.0
H513 H 0.85036 0.55648 0.60112 0.0
H514 H 0.86822 0.44524 0.66561 0.0
H515 H 0.91943 0.57236 0.65876 0.0
H516 H 0.85806 0.51521 0.61762 0.0
H517 H 0.92765 0.50261 0.71999 0.0
C518 C 0.91587 0.4675 0.73115 0.0
C519 C 0.89903 0.45084 0.7172 0.0
C520 C 0.8718 0.52757 0.62541 0.0
C521 C 0.89652 0.49603 0.66996 0.0
C522 C 0.86747 0.55115 0.6154 0.0
C523 C 0.88441 0.56783 0.6276 0.0
C524 C 0.89306 0.52053 0.64956 0.0
C525 C 0.90608 0.56002 0.64757 0.0
C526 C 0.91477 0.48997 0.70745 0.0
C527 C 0.88166 0.45734 0.67756 0.0
N528 N 0.90965 0.53697 0.65894 0.0
N529 N 0.88071 0.47942 0.65603 0.0
H530 H 0.62631 0.14672 0.16015 0.0
H531 H 0.49002 0.16604 0.21124 0.0
H532 H 0.59659 0.16775 0.32434 0.0
H533 H 0.52069 0.15286 0.04288 0.0
H534 H 0.52884 0.16781 0.25281 0.0
H535 H 0.58788 0.14967 0.11606 0.0
C536 C 0.61176 0.15211 0.18691 0.0
C537 C 0.61477 0.15693 0.24618 0.0
C538 C 0.52707 0.16465 0.20668 0.0
C539 C 0.57052 0.16018 0.19588 0.0
C540 C 0.50483 0.16377 0.18271 0.0
C541 C 0.50185 0.15916 0.12323 0.0
C542 C 0.54663 0.1608 0.17119 0.0
C543 C 0.52194 0.15606 0.08901 0.0
C544 C 0.58978 0.15378 0.16166 0.0
C545 C 0.59517 0.16384 0.27853 0.0
N546 N 0.54337 0.15682 0.11348 0.0
N547 N 0.57392 0.16512 0.25309 0.0
H548 H 0.10351 0.55388 0.84607 0.0
H549 H 0.16402 0.44673 0.68142 0.0
H550 H 0.17148 0.52798 0.89067 0.0
H551 H 0.09284 0.46735 0.65656 0.0
H552 H 0.16739 0.47578 0.75873 0.0
H553 H 0.09963 0.52233 0.77603 0.0
C554 C 0.11764 0.5416 0.84119 0.0
C555 C 0.13784 0.54374 0.87463 0.0
C556 C 0.15096 0.47379 0.73674 0.0
C557 C 0.13352 0.50728 0.79402 0.0
C558 C 0.149 0.45701 0.69291 0.0
C559 C 0.12802 0.45423 0.66307 0.0
C560 C 0.1319 0.48823 0.75015 0.0
C561 C 0.10935 0.46876 0.67851 0.0
C562 C 0.11538 0.52346 0.8013 0.0
C563 C 0.15546 0.527 0.86657 0.0
N564 N 0.11173 0.48507 0.72064 0.0
N565 N 0.15295 0.50964 0.82702 0.0
H566 H 0.44304 0.93654 0.22254 0.0
H567 H 0.55122 0.85666 0.14013 0.0
H568 H 0.45973 0.87421 0.31857 0.0
H569 H 0.55168 0.93035 0.10727 0.0
H570 H 0.51501 0.86108 0.19532 0.0
H571 H 0.47992 0.93291 0.16942 0.0
C572 C 0.45437 0.922 0.23223 0.0
C573 C 0.44818 0.9056 0.27508 0.0
C574 C 0.52302 0.8763 0.17616 0.0
C575 C 0.49041 0.90131 0.21395 0.0
C576 C 0.54361 0.87378 0.14434 0.0
C577 C 0.55443 0.89317 0.11879 0.0
C578 C 0.51277 0.89833 0.18169 0.0
C579 C 0.54394 0.915 0.12641 0.0
C580 C 0.47549 0.92005 0.20213 0.0
C581 C 0.46373 0.88726 0.28601 0.0
N582 N 0.52356 0.91697 0.15663 0.0
N583 N 0.48399 0.8855 0.25537 0.0
H584 H 0.8612 0.99019 0.66712 0.0
H585 H 0.94228 0.07158 0.4709 0.0
H586 H 0.9197 0.96423 0.56903 0.0
H587 H 0.88953 0.09793 0.58704 0.0
H588 H 0.93577 0.03253 0.51 0.0
H589 H 0.87312 0.02984 0.64383 0.0
C590 C 0.87683 0.99282 0.64158 0.0
C591 C 0.88941 0.97374 0.62002 0.0
C592 C 0.92575 0.04687 0.52732 0.0
C593 C 0.90294 1.01938 0.59187 0.0
C594 C 0.92935 0.06921 0.50471 0.0
C595 C 0.91631 0.08819 0.52522 0.0
C596 C 0.9088 0.04327 0.57059 0.0
C597 C 0.90009 0.08397 0.56994 0.0
C598 C 0.88358 1.01553 0.62804 0.0
C599 C 0.90951 0.97833 0.58696 0.0
N600 N 0.89666 0.06201 0.59062 0.0
N601 N 0.91544 1.00063 0.57326 0.0
H602 H 1.00881 0.16504 0.29826 0.0
H603 H 0.10306 0.10238 0.49781 0.0
H604 H 0.99337 0.10657 0.4089 0.0
H605 H 0.12026 0.15561 0.37245 0.0
H606 H 0.06371 0.10102 0.45876 0.0
H607 H 0.05035 0.15875 0.31524 0.0
C608 C 1.01428 0.15026 0.32418 0.0
C609 C 0.99773 0.13591 0.35097 0.0
C610 C 0.07612 0.11285 0.43933 0.0
C611 C 0.04517 0.12931 0.37336 0.0
C612 C 0.09861 0.11374 0.46192 0.0
C613 C 0.11503 0.12933 0.43892 0.0
C614 C 0.06977 0.12782 0.39358 0.0
C615 C 0.10828 0.1433 0.39156 0.0
C616 C 0.03798 0.14685 0.33458 0.0
C617 C 1.00564 0.11762 0.3862 0.0
N618 N 0.08615 0.14241 0.37099 0.0
N619 N 0.02875 0.11502 0.39699 0.0
H620 H 0.1754 0.93689 0.61478 0.0
H621 H 0.1376 0.07124 0.59337 0.0
H622 H 0.12376 0.96178 0.49435 0.0
H623 H 0.19923 0.04676 0.68002 0.0
H624 H 0.12798 0.03082 0.56913 0.0
H625 H 0.18017 0.97642 0.65054 0.0
C626 C 0.16486 0.95058 0.59613 0.0
C627 C 0.14919 0.94581 0.55114 0.0
C628 C 0.14344 0.0343 0.59414 0.0
C629 C 0.15468 0.99155 0.59215 0.0
C630 C 0.14879 0.05736 0.6086 0.0
C631 C 0.16925 0.06246 0.639 0.0
C632 C 0.1585 1.01616 0.61069 0.0
C633 C 0.1833 0.04372 0.65655 0.0
C634 C 0.1677 0.97326 0.61644 0.0
C635 C 0.13627 0.96456 0.52848 0.0
N636 N 0.17773 1.02154 0.64207 0.0
N637 N 0.1393 0.98653 0.54914 0.0
H638 H 0.9556 0.93766 0.48192 0.0
H639 H 0.06155 0.87748 0.31127 0.0
H640 H 0.94548 0.88494 0.3523 0.0
H641 H 0.06847 0.9217 0.46044 0.0
H642 H 1.01943 0.88551 0.31102 0.0
H643 H 0.99706 0.9374 0.46034 0.0
C644 C 0.9621 0.92607 0.44867 0.0
C645 C 0.947 0.91103 0.41962 0.0
C646 C 0.03027 0.89387 0.34294 0.0
C647 C 0.99483 0.91062 0.39436 0.0
C648 C 0.05431 0.88952 0.34257 0.0
C649 C 0.06846 0.89918 0.38556 0.0
C650 C 1.02048 0.908 0.38651 0.0
C651 C 0.05817 0.91409 0.42626 0.0
C652 C 0.98583 0.92597 0.43616 0.0
C653 C 0.95644 0.8968 0.37586 0.0
N654 N 0.03489 0.91793 0.42593 0.0
N655 N 0.97978 0.89672 0.36504 0.0
H656 H 0.43276 0.35372 0.17879 0.0
H657 H 0.38361 0.22337 0.20058 0.0
H658 H 0.36932 0.33553 0.26744 0.0
H659 H 0.43974 0.24439 0.08729 0.0
H660 H 0.38207 0.26297 0.23962 0.0
H661 H 0.4404 0.31226 0.16207 0.0
C662 C 0.42102 0.34095 0.19718 0.0
C663 C 0.40057 0.34805 0.2254 0.0
C664 C 0.39481 0.25885 0.20641 0.0
C665 C 0.4086 0.30064 0.20431 0.0
C666 C 0.39564 0.23623 0.18399 0.0
C667 C 0.41164 0.23048 0.14001 0.0
C668 C 0.41022 0.27588 0.18517 0.0
C669 C 0.42691 0.24796 0.12062 0.0
C670 C 0.42511 0.31729 0.18661 0.0
C671 C 0.38547 0.33075 0.24623 0.0
N672 N 0.42578 0.26976 0.14312 0.0
N673 N 0.38963 0.30795 0.23479 0.0
H674 H 0.19651 0.67567 0.9167 0.0
H675 H 0.32743 0.63417 0.85421 0.0
H676 H 0.21292 0.61106 0.83142 0.0
H677 H 0.30803 0.6992 0.93327 0.0
H678 H 0.28598 0.62651 0.83584 0.0
H679 H 0.23755 0.68595 0.91336 0.0
C680 C 0.20868 0.66376 0.89659 0.0
C681 C 0.20116 0.6424 0.87472 0.0
C682 C 0.29091 0.64255 0.85666 0.0
C683 C 0.24854 0.6539 0.8715 0.0
C684 C 0.31455 0.64694 0.86689 0.0
C685 C 0.32121 0.6672 0.89597 0.0
C686 C 0.27395 0.65861 0.87546 0.0
C687 C 0.30376 0.68315 0.91157 0.0
C688 C 0.23221 0.66959 0.89482 0.0
C689 C 0.21787 0.6277 0.84905 0.0
N690 N 0.28109 0.67846 0.90152 0.0
N691 N 0.24077 0.63359 0.84874 0.0
H692 H 0.66919 0.83166 0.02374 0.0
H693 H 0.6734 0.71163 0.20016 0.0
H694 H 0.65354 0.82714 0.20708 0.0
H695 H 0.6528 0.71624 0.02048 0.0
H696 H 0.67728 0.75409 0.20215 0.0
H697 H 0.67438 0.7894 0.02161 0.0
C698 C 0.66731 0.82187 0.06382 0.0
C699 C 0.66081 0.83297 0.11568 0.0
C700 C 0.67225 0.74571 0.16213 0.0
C701 C 0.66686 0.78464 0.11342 0.0
C702 C 0.6702 0.72151 0.16078 0.0
C703 C 0.66269 0.71039 0.11007 0.0
C704 C 0.66723 0.75884 0.1121 0.0
C705 C 0.65853 0.72411 0.06053 0.0
C706 C 0.67013 0.79774 0.06241 0.0
C707 C 0.65842 0.81929 0.16612 0.0
N708 N 0.66085 0.7476 0.06276 0.0
N709 N 0.66143 0.79585 0.16375 0.0
H710 H 0.7195 0.42851 0.83026 0.0
H711 H 0.82158 0.35391 0.96767 0.0
H712 H 0.70653 0.36668 0.9317 0.0
H713 H 0.83107 0.42371 0.90355 0.0
H714 H 0.77954 0.35893 0.96042 0.0
H715 H 0.75993 0.42764 0.86053 0.0
C716 C 0.72514 0.41473 0.85922 0.0
C717 C 0.70954 0.39748 0.87797 0.0
C718 C 0.79073 0.37332 0.94891 0.0
C719 C 0.7563 0.39632 0.91274 0.0
C720 C 0.81479 0.37051 0.95318 0.0
C721 C 0.82995 0.38842 0.93612 0.0
C722 C 0.7816 0.39408 0.92633 0.0
C723 C 0.82011 0.4095 0.91756 0.0
C724 C 0.7483 0.41434 0.87675 0.0
C725 C 0.71791 0.3803 0.91608 0.0
N726 N 0.7966 0.4116 0.91227 0.0
N727 N 0.74079 0.37996 0.93154 0.0
H728 H 0.8991 0.72124 0.72103 0.0
H729 H 0.87308 0.82186 0.4915 0.0
H730 H 0.88562 0.70801 0.54008 0.0
H731 H 0.89686 0.83535 0.66555 0.0
H732 H 0.87937 0.7805 0.50728 0.0
H733 H 0.90065 0.76275 0.70022 0.0
C734 C 0.89677 0.72707 0.67657 0.0
C735 C 0.8921 0.71107 0.63222 0.0
C736 C 0.88339 0.79243 0.54199 0.0
C737 C 0.89349 0.75896 0.6082 0.0
C738 C 0.87972 0.81616 0.53318 0.0
C739 C 0.88424 0.83224 0.57752 0.0
C740 C 0.89147 0.78441 0.59587 0.0
C741 C 0.89306 0.82365 0.6302 0.0
C742 C 0.89765 0.75085 0.66479 0.0
C743 C 0.88936 0.71968 0.57552 0.0
N744 N 0.89616 0.80032 0.63809 0.0
N745 N 0.88978 0.74307 0.56528 0.0
H746 H 0.85737 0.11796 0.28605 0.0
H747 H 0.73525 0.18255 0.33283 0.0
H748 H 0.84936 0.18923 0.33929 0.0
H749 H 0.74066 0.11315 0.26418 0.0
H750 H 0.77742 0.18595 0.32712 0.0
H751 H 0.81516 0.11629 0.26871 0.0
C752 C 0.84685 0.13332 0.293 0.0
C753 C 0.85684 0.15365 0.31479 0.0
C754 C 0.76942 0.17002 0.31273 0.0
C755 C 0.80876 0.15188 0.29576 0.0
C756 C 0.74526 0.16811 0.31594 0.0
C757 C 0.73431 0.14751 0.2993 0.0
C758 C 0.78289 0.15111 0.29334 0.0
C759 C 0.7483 0.12938 0.27764 0.0
C760 C 0.82277 0.13236 0.28346 0.0
C761 C 0.84238 0.17305 0.32335 0.0
N762 N 0.77185 0.13149 0.2759 0.0
N763 N 0.81919 0.17161 0.31434 0.0
H764 H 0.15863 0.31711 0.77537 0.0
H765 H 0.16162 0.21638 0.53896 0.0
H766 H 0.14598 0.32864 0.59279 0.0
H767 H 0.16074 0.20185 0.72297 0.0
H768 H 0.15468 0.25729 0.55898 0.0
H769 H 0.1586 0.27519 0.75849 0.0
C770 C 0.15572 0.31087 0.7317 0.0
C771 C 0.15244 0.32658 0.68534 0.0
C772 C 0.15573 0.24524 0.59517 0.0
C773 C 0.15248 0.27833 0.66575 0.0
C774 C 0.15969 0.22179 0.58378 0.0
C775 C 0.16182 0.20561 0.62938 0.0
C776 C 0.15425 0.25293 0.65285 0.0
C777 C 0.15907 0.21368 0.68651 0.0
C778 C 0.15564 0.28686 0.7222 0.0
C779 C 0.14864 0.31731 0.62987 0.0
N780 N 0.15574 0.23684 0.69668 0.0
N781 N 0.14896 0.29389 0.62162 0.0
H782 H 0.20468 0.90988 0.3168 0.0
H783 H 0.33293 0.86427 0.39232 0.0
H784 H 0.22012 0.84294 0.3925 0.0
H785 H 0.31987 0.92968 0.30588 0.0
H786 H 0.2916 0.85528 0.38596 0.0
H787 H 0.24665 0.91661 0.30467 0.0
C788 C 0.21682 0.89647 0.32989 0.0
C789 C 0.20884 0.87591 0.35615 0.0
C790 C 0.29776 0.87154 0.36792 0.0
C791 C 0.25678 0.88354 0.34314 0.0
C792 C 0.32143 0.87667 0.37152 0.0
C793 C 0.32998 0.89781 0.34986 0.0
C794 C 0.28235 0.88772 0.34284 0.0
C795 C 0.31413 0.91317 0.32334 0.0
C796 C 0.24078 0.90035 0.32332 0.0
C797 C 0.22541 0.85918 0.37265 0.0
N798 N 0.29111 0.90792 0.32101 0.0
N799 N 0.24845 0.86343 0.36632 0.0
H800 H 0.28851 0.12529 0.65532 0.0
H801 H 0.32513 0.16846 0.97406 0.0
H802 H 0.24041 0.16085 0.76881 0.0
H803 H 0.36861 0.12863 0.85861 0.0
H804 H 0.29473 0.1693 0.89852 0.0
H805 H 0.31855 0.12943 0.72795 0.0
C806 C 0.28418 0.13417 0.69523 0.0
C807 C 0.26164 0.14276 0.70525 0.0
C808 C 0.31102 0.16055 0.88967 0.0
C809 C 0.2965 0.14736 0.79035 0.0
C810 C 0.32843 0.16026 0.93257 0.0
C811 C 0.34942 0.14835 0.92277 0.0
C812 C 0.31476 0.14899 0.8365 0.0
C813 C 0.35265 0.13779 0.86838 0.0
C814 C 0.30147 0.13643 0.73719 0.0
C815 C 0.25736 0.15372 0.75898 0.0
N816 N 0.3356 0.1383 0.82776 0.0
N817 N 0.27457 0.15569 0.79941 0.0
H818 H 0.11077 0.76683 0.38329 0.0
H819 H 0.1519 0.71003 0.08101 0.0
H820 H 0.15156 0.80417 0.25581 0.0
H821 H 0.11569 0.67292 0.21712 0.0
H822 H 0.15085 0.74508 0.14137 0.0
H823 H 0.11162 0.73289 0.32086 0.0
C824 C 0.12006 0.76801 0.34242 0.0
C825 C 0.13123 0.78869 0.32555 0.0
C826 C 0.14315 0.72924 0.15797 0.0
C827 C 0.13199 0.74935 0.25247 0.0
C828 C 0.14364 0.70918 0.12332 0.0
C829 C 0.13398 0.68823 0.14376 0.0
C830 C 0.13281 0.7285 0.21353 0.0
C831 C 0.12371 0.68837 0.19947 0.0
C832 C 0.12042 0.74849 0.3064 0.0
C833 C 0.14253 0.78886 0.27097 0.0
N834 N 0.1234 0.70805 0.23206 0.0
N835 N 0.14264 0.76957 0.23661 0.0
H836 H 0.72305 0.9072 0.9231 0.0
H837 H 0.76278 0.90663 0.58741 0.0
H838 H 0.67554 0.91045 0.77895 0.0
H839 H 0.81124 0.90685 0.7298 0.0
H840 H 0.73079 0.90674 0.65735 0.0
H841 H 0.7555 0.90544 0.85385 0.0
C842 C 0.71934 0.90742 0.87705 0.0
C843 C 0.69632 0.9091 0.85726 0.0
C844 C 0.74842 0.90673 0.67338 0.0
C845 C 0.73366 0.90722 0.77726 0.0
C846 C 0.76681 0.90677 0.63326 0.0
C847 C 0.79 0.90683 0.65217 0.0
C848 C 0.75301 0.90674 0.73336 0.0
C849 C 0.79382 0.90659 0.71266 0.0
C850 C 0.73796 0.90653 0.83741 0.0
C851 C 0.69285 0.90954 0.7967 0.0
N852 N 0.7756 0.90661 0.75086 0.0
N853 N 0.71121 0.90861 0.75916 0.0
H854 H 0.94309 0.26143 0.28987 0.0
H855 H 0.9037 0.28033 0.95851 0.0
H856 H 0.91096 0.20839 0.18597 0.0
H857 H 0.92956 0.33555 0.06601 0.0
H858 H 0.90789 0.25344 0.0403 0.0
H859 H 0.93943 0.28852 0.20816 0.0
C860 C 0.9352 0.25539 0.2502 0.0
C861 C 0.92741 0.23235 0.2454 0.0
C862 C 0.91266 0.27144 0.04607 0.0
C863 C 0.92338 0.26349 0.15081 0.0
C864 C 0.9104 0.28684 0.99909 0.0
C865 C 0.91625 0.31038 1.00498 0.0
C866 C 0.92094 0.27948 0.09968 0.0
C867 C 0.92454 0.3177 0.05933 0.0
C868 C 0.93321 0.27093 0.2033 0.0
C869 C 0.91758 0.22572 0.19208 0.0
N870 N 0.92666 0.30235 0.10436 0.0
N871 N 0.91589 0.24113 0.14718 0.0
H872 H 0.25948 0.4317 0.58807 0.0
H873 H 0.27992 0.39728 0.25326 0.0
H874 H 0.20955 0.39394 0.48657 0.0
H875 H 0.33086 0.43252 0.35714 0.0
H876 H 0.25364 0.39671 0.33716 0.0
H877 H 0.28547 0.4326 0.50386 0.0
C878 C 0.2539 0.42349 0.5484 0.0
C879 C 0.23205 0.41269 0.54521 0.0
C880 C 0.27057 0.40457 0.34163 0.0
C881 C 0.26202 0.4139 0.44738 0.0
C882 C 0.28562 0.40503 0.29342 0.0
C883 C 0.30784 0.41495 0.29754 0.0
C884 C 0.2776 0.41417 0.39478 0.0
C885 C 0.31413 0.4244 0.35156 0.0
C886 C 0.26881 0.42412 0.49998 0.0
C887 C 0.22595 0.4027 0.49161 0.0
N888 N 0.29916 0.4238 0.39772 0.0
N889 N 0.24079 0.40354 0.44517 0.0
H890 H 0.44038 0.82978 0.59204 0.0
H891 H 0.36323 0.78053 0.85315 0.0
H892 H 0.37 0.853 0.61815 0.0
H893 H 0.4187 0.74096 0.77511 0.0
H894 H 0.36688 0.80946 0.77453 0.0
H895 H 0.43434 0.79931 0.66523 0.0
C896 C 0.4236 0.82839 0.61314 0.0
C897 C 0.40567 0.84398 0.59891 0.0
C898 C 0.37817 0.79438 0.77449 0.0
C899 C 0.39869 0.80922 0.68386 0.0
C900 C 0.3762 0.77794 0.81957 0.0
C901 C 0.3907 0.75824 0.82088 0.0
C902 C 0.3951 0.79144 0.73089 0.0
C903 C 0.40705 0.75572 0.77573 0.0
C904 C 0.42013 0.81094 0.65482 0.0
C905 C 0.38421 0.84126 0.6275 0.0
N906 N 0.40896 0.77219 0.73312 0.0
N907 N 0.3814 0.82442 0.66911 0.0
H908 H 0.72811 0.6421 0.30343 0.0
H909 H 0.76606 0.63387 0.63863 0.0
H910 H 0.68036 0.6282 0.44452 0.0
H911 H 0.81372 0.64935 0.49837 0.0
H912 H 0.73446 0.63226 0.56835 0.0
H913 H 0.75952 0.64541 0.37399 0.0
C914 C 0.72411 0.63987 0.34911 0.0
C915 C 0.70137 0.63475 0.36758 0.0
C916 C 0.75184 0.63602 0.55293 0.0
C917 C 0.73757 0.63833 0.4491 0.0
C918 C 0.76996 0.63706 0.59324 0.0
C919 C 0.79281 0.64169 0.57484 0.0
C920 C 0.75643 0.63965 0.49345 0.0
C921 C 0.79659 0.64538 0.51494 0.0
C922 C 0.74215 0.64165 0.3895 0.0
C923 C 0.69754 0.6318 0.42771 0.0
N924 N 0.77867 0.64427 0.47662 0.0
N925 N 0.71537 0.6336 0.46605 0.0
H926 H 0.6504 0.23625 0.46092 0.0
H927 H 0.65685 0.30896 0.75831 0.0
H928 H 0.67034 0.2062 0.62555 0.0
H929 H 0.63543 0.33823 0.5941 0.0
H930 H 0.66408 0.27179 0.70975 0.0
H931 H 0.6469 0.27412 0.50795 0.0
C932 C 0.65422 0.23754 0.50678 0.0
C933 C 0.66055 0.21773 0.53907 0.0
C934 C 0.65787 0.28638 0.6843 0.0
C935 C 0.65637 0.26136 0.59373 0.0
C936 C 0.65387 0.30771 0.71204 0.0
C937 C 0.6453 0.32688 0.68059 0.0
C938 C 0.65338 0.2841 0.62447 0.0
C939 C 0.64161 0.32395 0.62058 0.0
C940 C 0.65209 0.25924 0.53379 0.0
C941 C 0.66503 0.22073 0.59875 0.0
N942 N 0.64558 0.30308 0.59472 0.0
N943 N 0.66281 0.24199 0.62399 0.0
loop_
_geom_bond_atom_site_label_1
_geom_bond_atom_site_label_2
_geom_bond_distance
_geom_bond_site_symmetry_2
_ccdc_geom_bond_type
Cu0 N1 1.999 . S
Cu0 O6 1.974 . S
Cu0 N11 1.985 . S
Cu0 O20 1.959 . S
N1 Cu0 1.999 . S
N1 C3 1.263 . S
N1 C5 1.389 . S
N2 C3 1.358 . S
N2 C4 1.400 . S
C3 N1 1.263 . S
C3 N2 1.358 . S
C3 H9 0.930 . S
C4 N2 1.400 . S
C4 C5 1.351 . S
C4 H21 0.930 . S
C5 N1 1.389 . S
C5 C4 1.351 . S
C5 H10 0.930 . S
O6 Cu0 1.974 . S
O6 C16 1.282 . S
C7 O8 1.261 . S
C7 O20 1.251 . S
O8 C7 1.261 . S
H9 C3 0.930 . S
H10 C5 0.930 . S
N11 Cu0 1.985 . S
N11 C13 1.335 . S
N11 C14 1.390 . S
N12 C13 1.345 . S
N12 C15 1.336 . S
C13 N11 1.335 . S
C13 N12 1.345 . S
C13 H18 0.930 . S
C14 N11 1.390 . S
C14 C15 1.346 . S
C14 H19 0.930 . S
C15 N12 1.336 . S
C15 C14 1.346 . S
C15 H22 0.929 . S
C16 O6 1.282 . S
C16 O17 1.216 . S
O17 C16 1.216 . S
H18 C13 0.930 . S
H19 C14 0.930 . S
O20 Cu0 1.959 . S
O20 C7 1.251 . S
H21 C4 0.930 . S
H22 C15 0.929 . S
Cu23 N24 1.999 . S
Cu23 O29 1.974 . S
Cu23 N34 1.985 . S
Cu23 O43 1.959 . S
N24 Cu23 1.999 . S
N24 C26 1.263 . S
N24 C28 1.389 . S
N25 C26 1.358 . S
N25 C27 1.400 . S
C26 N24 1.263 . S
C26 N25 1.358 . S
C26 H32 0.930 . S
C27 N25 1.400 . S
C27 C28 1.351 . S
C27 H44 0.930 . S
C28 N24 1.389 . S
C28 C27 1.351 . S
C28 H33 0.930 . S
O29 Cu23 1.974 . S
O29 C39 1.282 . S
C30 O31 1.261 . S
C30 O43 1.251 . S
O31 C30 1.261 . S
H32 C26 0.930 . S
H33 C28 0.930 . S
N34 Cu23 1.985 . S
N34 C36 1.335 . S
N34 C37 1.390 . S
N35 C36 1.345 . S
N35 C38 1.336 . S
C36 N34 1.335 . S
C36 N35 1.345 . S
C36 H41 0.930 . S
C37 N34 1.390 . S
C37 C38 1.346 . S
C37 H42 0.930 . S
C38 N35 1.336 . S
C38 C37 1.346 . S
C38 H45 0.929 . S
C39 O29 1.282 . S
C39 O40 1.216 . S
O40 C39 1.216 . S
H41 C36 0.930 . S
H42 C37 0.930 . S
O43 Cu23 1.959 . S
O43 C30 1.251 . S
H44 C27 0.930 . S
H45 C38 0.929 . S
Cu46 N47 1.999 . S
Cu46 O52 1.974 . S
Cu46 N57 1.985 . S
Cu46 O66 1.959 . S
N47 Cu46 1.999 . S
N47 C49 1.263 . S
N47 C51 1.389 . S
N48 C49 1.358 . S
N48 C50 1.400 . S
C49 N47 1.263 . S
C49 N48 1.358 . S
C49 H55 0.930 . S
C50 N48 1.400 . S
C50 C51 1.351 . S
C50 H67 0.930 . S
C51 N47 1.389 . S
C51 C50 1.351 . S
C51 H56 0.930 . S
O52 Cu46 1.974 . S
O52 C62 1.282 . S
C53 O54 1.261 . S
C53 O66 1.251 . S
O54 C53 1.261 . S
H55 C49 0.930 . S
H56 C51 0.930 . S
N57 Cu46 1.985 . S
N57 C59 1.335 . S
N57 C60 1.390 . S
N58 C59 1.345 . S
N58 C61 1.336 . S
C59 N57 1.335 . S
C59 N58 1.345 . S
C59 H64 0.930 . S
C60 N57 1.390 . S
C60 C61 1.346 . S
C60 H65 0.930 . S
C61 N58 1.336 . S
C61 C60 1.346 . S
C61 H68 0.929 . S
C62 O52 1.282 . S
C62 O63 1.216 . S
O63 C62 1.216 . S
H64 C59 0.930 . S
H65 C60 0.930 . S
O66 Cu46 1.959 . S
O66 C53 1.251 . S
H67 C50 0.930 . S
H68 C61 0.929 . S
Cu69 N70 1.999 . S
Cu69 O75 1.974 . S
Cu69 N80 1.985 . S
Cu69 O89 1.959 . S
N70 Cu69 1.999 . S
N70 C72 1.263 . S
N70 C74 1.389 . S
N71 C72 1.358 . S
N71 C73 1.400 . S
C72 N70 1.263 . S
C72 N71 1.358 . S
C72 H78 0.930 . S
C73 N71 1.400 . S
C73 C74 1.351 . S
C73 H90 0.930 . S
C74 N70 1.389 . S
C74 C73 1.351 . S
C74 H79 0.930 . S
O75 Cu69 1.974 . S
O75 C85 1.282 . S
C76 O77 1.261 . S
C76 O89 1.251 . S
O77 C76 1.261 . S
H78 C72 0.930 . S
H79 C74 0.930 . S
N80 Cu69 1.985 . S
N80 C82 1.335 . S
N80 C83 1.390 . S
N81 C82 1.345 . S
N81 C84 1.336 . S
C82 N80 1.335 . S
C82 N81 1.345 . S
C82 H87 0.930 . S
C83 N80 1.390 . S
C83 C84 1.346 . S
C83 H88 0.930 . S
C84 N81 1.336 . S
C84 C83 1.346 . S
C84 H91 0.929 . S
C85 O75 1.282 . S
C85 O86 1.216 . S
O86 C85 1.216 . S
H87 C82 0.930 . S
H88 C83 0.930 . S
O89 Cu69 1.959 . S
O89 C76 1.251 . S
H90 C73 0.930 . S
H91 C84 0.929 . S
Cu92 N93 1.999 . S
Cu92 O98 1.974 . S
Cu92 N103 1.985 . S
Cu92 O112 1.959 . S
N93 Cu92 1.999 . S
N93 C95 1.263 . S
N93 C97 1.389 . S
N94 C95 1.358 . S
N94 C96 1.400 . S
C95 N93 1.263 . S
C95 N94 1.358 . S
C95 H101 0.930 . S
C96 N94 1.400 . S
C96 C97 1.351 . S
C96 H113 0.930 . S
C97 N93 1.389 . S
C97 C96 1.351 . S
C97 H102 0.930 . S
O98 Cu92 1.974 . S
O98 C108 1.282 . S
C99 O100 1.261 . S
C99 O112 1.251 . S
O100 C99 1.261 . S
H101 C95 0.930 . S
H102 C97 0.930 . S
N103 Cu92 1.985 . S
N103 C105 1.335 . S
N103 C106 1.390 . S
N104 C105 1.345 . S
N104 C107 1.336 . S
C105 N103 1.335 . S
C105 N104 1.345 . S
C105 H110 0.930 . S
C106 N103 1.390 . S
C106 C107 1.346 . S
C106 H111 0.930 . S
C107 N104 1.336 . S
C107 C106 1.346 . S
C107 H114 0.929 . S
C108 O98 1.282 . S
C108 O109 1.216 . S
O109 C108 1.216 . S
H110 C105 0.930 . S
H111 C106 0.930 . S
O112 Cu92 1.959 . S
O112 C99 1.251 . S
H113 C96 0.930 . S
H114 C107 0.929 . S
Cu115 N116 1.999 . S
Cu115 O121 1.974 . S
Cu115 N126 1.985 . S
Cu115 O135 1.959 . S
N116 Cu115 1.999 . S
N116 C118 1.263 . S
N116 C120 1.389 . S
N117 C118 1.358 . S
N117 C119 1.400 . S
C118 N116 1.263 . S
C118 N117 1.358 . S
C118 H124 0.930 . S
C119 N117 1.400 . S
C119 C120 1.351 . S
C119 H136 0.930 . S
C120 N116 1.389 . S
C120 C119 1.351 . S
C120 H125 0.930 . S
O121 Cu115 1.974 . S
O121 C131 1.282 . S
C122 O123 1.261 . S
C122 O135 1.251 . S
O123 C122 1.261 . S
H124 C118 0.930 . S
H125 C120 0.930 . S
N126 Cu115 1.985 . S
N126 C128 1.335 . S
N126 C129 1.390 . S
N127 C128 1.345 . S
N127 C130 1.336 . S
C128 N126 1.335 . S
C128 N127 1.345 . S
C128 H133 0.930 . S
C129 N126 1.390 . S
C129 C130 1.346 . S
C129 H134 0.930 . S
C130 N127 1.336 . S
C130 C129 1.346 . S
C130 H137 0.929 . S
C131 O121 1.282 . S
C131 O132 1.216 . S
O132 C131 1.216 . S
H133 C128 0.930 . S
H134 C129 0.930 . S
O135 Cu115 1.959 . S
O135 C122 1.251 . S
H136 C119 0.930 . S
H137 C130 0.929 . S
Cu138 N139 1.999 . S
Cu138 O144 1.974 . S
Cu138 N149 1.985 . S
Cu138 O158 1.959 . S
N139 Cu138 1.999 . S
N139 C141 1.263 . S
N139 C143 1.389 . S
N140 C141 1.358 . S
N140 C142 1.400 . S
C141 N139 1.263 . S
C141 N140 1.358 . S
C141 H147 0.930 . S
C142 N140 1.400 . S
C142 C143 1.351 . S
C142 H159 0.930 . S
C143 N139 1.389 . S
C143 C142 1.351 . S
C143 H148 0.930 . S
O144 Cu138 1.974 . S
O144 C154 1.282 . S
C145 O146 1.261 . S
C145 O158 1.251 . S
O146 C145 1.261 . S
H147 C141 0.930 . S
H148 C143 0.930 . S
N149 Cu138 1.985 . S
N149 C151 1.335 . S
N149 C152 1.390 . S
N150 C151 1.345 . S
N150 C153 1.336 . S
C151 N149 1.335 . S
C151 N150 1.345 . S
C151 H156 0.930 . S
C152 N149 1.390 . S
C152 C153 1.346 . S
C152 H157 0.930 . S
C153 N150 1.336 . S
C153 C152 1.346 . S
C153 H160 0.929 . S
C154 O144 1.282 . S
C154 O155 1.216 . S
O155 C154 1.216 . S
H156 C151 0.930 . S
H157 C152 0.930 . S
O158 Cu138 1.959 . S
O158 C145 1.251 . S
H159 C142 0.930 . S
H160 C153 0.929 . S
Cu161 N162 1.999 . S
Cu161 O167 1.974 . S
Cu161 N172 1.985 . S
Cu161 O181 1.959 . S
N162 Cu161 1.999 . S
N162 C164 1.263 . S
N162 C166 1.389 . S
N163 C164 1.358 . S
N163 C165 1.400 . S
C164 N162 1.263 . S
C164 N163 1.358 . S
C164 H170 0.930 . S
C165 N163 1.400 . S
C165 C166 1.351 . S
C165 H182 0.930 . S
C166 N162 1.389 . S
C166 C165 1.351 . S
C166 H171 0.930 . S
O167 Cu161 1.974 . S
O167 C177 1.282 . S
C168 O169 1.261 . S
C168 O181 1.251 . S
O169 C168 1.261 . S
H170 C164 0.930 . S
H171 C166 0.930 . S
N172 Cu161 1.985 . S
N172 C174 1.335 . S
N172 C175 1.390 . S
N173 C174 1.345 . S
N173 C176 1.336 . S
C174 N172 1.335 . S
C174 N173 1.345 . S
C174 H179 0.930 . S
C175 N172 1.390 . S
C175 C176 1.346 . S
C175 H180 0.930 . S
C176 N173 1.336 . S
C176 C175 1.346 . S
C176 H183 0.929 . S
C177 O167 1.282 . S
C177 O178 1.216 . S
O178 C177 1.216 . S
H179 C174 0.930 . S
H180 C175 0.930 . S
O181 Cu161 1.959 . S
O181 C168 1.251 . S
H182 C165 0.930 . S
H183 C176 0.929 . S
Cu184 N185 1.999 . S
Cu184 O190 1.974 . S
Cu184 N195 1.985 . S
Cu184 O204 1.959 . S
N185 Cu184 1.999 . S
N185 C187 1.263 . S
N185 C189 1.389 . S
N186 C187 1.358 . S
N186 C188 1.400 . S
C187 N185 1.263 . S
C187 N186 1.358 . S
C187 H193 0.930 . S
C188 N186 1.400 . S
C188 C189 1.351 . S
C188 H205 0.930 . S
C189 N185 1.389 . S
C189 C188 1.351 . S
C189 H194 0.930 . S
O190 Cu184 1.974 . S
O190 C200 1.282 . S
C191 O192 1.261 . S
C191 O204 1.251 . S
O192 C191 1.261 . S
H193 C187 0.930 . S
H194 C189 0.930 . S
N195 Cu184 1.985 . S
N195 C197 1.335 . S
N195 C198 1.390 . S
N196 C197 1.345 . S
N196 C199 1.336 . S
C197 N195 1.335 . S
C197 N196 1.345 . S
C197 H202 0.930 . S
C198 N195 1.390 . S
C198 C199 1.346 . S
C198 H203 0.930 . S
C199 N196 1.336 . S
C199 C198 1.346 . S
C199 H206 0.929 . S
C200 O190 1.282 . S
C200 O201 1.216 . S
O201 C200 1.216 . S
H202 C197 0.930 . S
H203 C198 0.930 . S
O204 Cu184 1.959 . S
O204 C191 1.251 . S
H205 C188 0.930 . S
H206 C199 0.929 . S
Cu207 N208 1.999 . S
Cu207 O213 1.974 . S
Cu207 N218 1.985 . S
Cu207 O227 1.959 . S
N208 Cu207 1.999 . S
N208 C210 1.263 . S
N208 C212 1.389 . S
N209 C210 1.358 . S
N209 C211 1.400 . S
C210 N208 1.263 . S
C210 N209 1.358 . S
C210 H216 0.930 . S
C211 N209 1.400 . S
C211 C212 1.351 . S
C211 H228 0.930 . S
C212 N208 1.389 . S
C212 C211 1.351 . S
C212 H217 0.930 . S
O213 Cu207 1.974 . S
O213 C223 1.282 . S
C214 O215 1.261 . S
C214 O227 1.251 . S
O215 C214 1.261 . S
H216 C210 0.930 . S
H217 C212 0.930 . S
N218 Cu207 1.985 . S
N218 C220 1.335 . S
N218 C221 1.390 . S
N219 C220 1.345 . S
N219 C222 1.336 . S
C220 N218 1.335 . S
C220 N219 1.345 . S
C220 H225 0.930 . S
C221 N218 1.390 . S
C221 C222 1.346 . S
C221 H226 0.930 . S
C222 N219 1.336 . S
C222 C221 1.346 . S
C222 H229 0.929 . S
C223 O213 1.282 . S
C223 O224 1.216 . S
O224 C223 1.216 . S
H225 C220 0.930 . S
H226 C221 0.930 . S
O227 Cu207 1.959 . S
O227 C214 1.251 . S
H228 C211 0.930 . S
H229 C222 0.929 . S
Cu230 N231 1.999 . S
Cu230 O236 1.974 . S
Cu230 N241 1.985 . S
Cu230 O250 1.959 . S
N231 Cu230 1.999 . S
N231 C233 1.263 . S
N231 C235 1.389 . S
N232 C233 1.358 . S
N232 C234 1.400 . S
C233 N231 1.263 . S
C233 N232 1.358 . S
C233 H239 0.930 . S
C234 N232 1.400 . S
C234 C235 1.351 . S
C234 H251 0.930 . S
C235 N231 1.389 . S
C235 C234 1.351 . S
C235 H240 0.930 . S
O236 Cu230 1.974 . S
O236 C246 1.282 . S
C237 O238 1.261 . S
C237 O250 1.251 . S
O238 C237 1.261 . S
H239 C233 0.930 . S
H240 C235 0.930 . S
N241 Cu230 1.985 . S
N241 C243 1.335 . S
N241 C244 1.390 . S
N242 C243 1.345 . S
N242 C245 1.336 . S
C243 N241 1.335 . S
C243 N242 1.345 . S
C243 H248 0.930 . S
C244 N241 1.390 . S
C244 C245 1.346 . S
C244 H249 0.930 . S
C245 N242 1.336 . S
C245 C244 1.346 . S
C245 H252 0.929 . S
C246 O236 1.282 . S
C246 O247 1.216 . S
O247 C246 1.216 . S
H248 C243 0.930 . S
H249 C244 0.930 . S
O250 Cu230 1.959 . S
O250 C237 1.251 . S
H251 C234 0.930 . S
H252 C245 0.929 . S
Cu253 N254 1.999 . S
Cu253 O259 1.974 . S
Cu253 N264 1.985 . S
Cu253 O273 1.959 . S
N254 Cu253 1.999 . S
N254 C256 1.263 . S
N254 C258 1.389 . S
N255 C256 1.358 . S
N255 C257 1.400 . S
C256 N254 1.263 . S
C256 N255 1.358 . S
C256 H262 0.930 . S
C257 N255 1.400 . S
C257 C258 1.351 . S
C257 H274 0.930 . S
C258 N254 1.389 . S
C258 C257 1.351 . S
C258 H263 0.930 . S
O259 Cu253 1.974 . S
O259 C269 1.282 . S
C260 O261 1.261 . S
C260 O273 1.251 . S
O261 C260 1.261 . S
H262 C256 0.930 . S
H263 C258 0.930 . S
N264 Cu253 1.985 . S
N264 C266 1.335 . S
N264 C267 1.390 . S
N265 C266 1.345 . S
N265 C268 1.336 . S
C266 N264 1.335 . S
C266 N265 1.345 . S
C266 H271 0.930 . S
C267 N264 1.390 . S
C267 C268 1.346 . S
C267 H272 0.930 . S
C268 N265 1.336 . S
C268 C267 1.346 . S
C268 H275 0.929 . S
C269 O259 1.282 . S
C269 O270 1.216 . S
O270 C269 1.216 . S
H271 C266 0.930 . S
H272 C267 0.930 . S
O273 Cu253 1.959 . S
O273 C260 1.251 . S
H274 C257 0.930 . S
H275 C268 0.929 . S
Cu276 N277 1.999 . S
Cu276 O282 1.974 . S
Cu276 N287 1.985 . S
Cu276 O296 1.959 . S
N277 Cu276 1.999 . S
N277 C279 1.263 . S
N277 C281 1.389 . S
N278 C279 1.358 . S
N278 C280 1.400 . S
C279 N277 1.263 . S
C279 N278 1.358 . S
C279 H285 0.930 . S
C280 N278 1.400 . S
C280 C281 1.351 . S
C280 H297 0.930 . S
C281 N277 1.389 . S
C281 C280 1.351 . S
C281 H286 0.930 . S
O282 Cu276 1.974 . S
O282 C292 1.282 . S
C283 O284 1.261 . S
C283 O296 1.251 . S
O284 C283 1.261 . S
H285 C279 0.930 . S
H286 C281 0.930 . S
N287 Cu276 1.985 . S
N287 C289 1.335 . S
N287 C290 1.390 . S
N288 C289 1.345 . S
N288 C291 1.336 . S
C289 N287 1.335 . S
C289 N288 1.345 . S
C289 H294 0.930 . S
C290 N287 1.390 . S
C290 C291 1.346 . S
C290 H295 0.930 . S
C291 N288 1.336 . S
C291 C290 1.346 . S
C291 H298 0.929 . S
C292 O282 1.282 . S
C292 O293 1.216 . S
O293 C292 1.216 . S
H294 C289 0.930 . S
H295 C290 0.930 . S
O296 Cu276 1.959 . S
O296 C283 1.251 . S
H297 C280 0.930 . S
H298 C291 0.929 . S
Cu299 N300 1.999 . S
Cu299 O305 1.974 . S
Cu299 N310 1.985 . S
Cu299 O319 1.959 . S
N300 Cu299 1.999 . S
N300 C302 1.263 . S
N300 C304 1.389 . S
N301 C302 1.358 . S
N301 C303 1.400 . S
C302 N300 1.263 . S
C302 N301 1.358 . S
C302 H308 0.930 . S
C303 N301 1.400 . S
C303 C304 1.351 . S
C303 H320 0.930 . S
C304 N300 1.389 . S
C304 C303 1.351 . S
C304 H309 0.930 . S
O305 Cu299 1.974 . S
O305 C315 1.282 . S
C306 O307 1.261 . S
C306 O319 1.251 . S
O307 C306 1.261 . S
H308 C302 0.930 . S
H309 C304 0.930 . S
N310 Cu299 1.985 . S
N310 C312 1.335 . S
N310 C313 1.390 . S
N311 C312 1.345 . S
N311 C314 1.336 . S
C312 N310 1.335 . S
C312 N311 1.345 . S
C312 H317 0.930 . S
C313 N310 1.390 . S
C313 C314 1.346 . S
C313 H318 0.930 . S
C314 N311 1.336 . S
C314 C313 1.346 . S
C314 H321 0.929 . S
C315 O305 1.282 . S
C315 O316 1.216 . S
O316 C315 1.216 . S
H317 C312 0.930 . S
H318 C313 0.930 . S
O319 Cu299 1.959 . S
O319 C306 1.251 . S
H320 C303 0.930 . S
H321 C314 0.929 . S
Cu322 N323 1.999 . S
Cu322 O328 1.974 . S
Cu322 N333 1.985 . S
Cu322 O342 1.959 . S
N323 Cu322 1.999 . S
N323 C325 1.263 . S
N323 C327 1.389 . S
N324 C325 1.358 . S
N324 C326 1.400 . S
C325 N323 1.263 . S
C325 N324 1.358 . S
C325 H331 0.930 . S
C326 N324 1.400 . S
C326 C327 1.351 . S
C326 H343 0.930 . S
C327 N323 1.389 . S
C327 C326 1.351 . S
C327 H332 0.930 . S
O328 Cu322 1.974 . S
O328 C338 1.282 . S
C329 O330 1.261 . S
C329 O342 1.251 . S
O330 C329 1.261 . S
H331 C325 0.930 . S
H332 C327 0.930 . S
N333 Cu322 1.985 . S
N333 C335 1.335 . S
N333 C336 1.390 . S
N334 C335 1.345 . S
N334 C337 1.336 . S
C335 N333 1.335 . S
C335 N334 1.345 . S
C335 H340 0.930 . S
C336 N333 1.390 . S
C336 C337 1.346 . S
C336 H341 0.930 . S
C337 N334 1.336 . S
C337 C336 1.346 . S
C337 H344 0.929 . S
C338 O328 1.282 . S
C338 O339 1.216 . S
O339 C338 1.216 . S
H340 C335 0.930 . S
H341 C336 0.930 . S
O342 Cu322 1.959 . S
O342 C329 1.251 . S
H343 C326 0.930 . S
H344 C337 0.929 . S
Cu345 N346 1.999 . S
Cu345 O351 1.974 . S
Cu345 N356 1.985 . S
Cu345 O365 1.959 . S
N346 Cu345 1.999 . S
N346 C348 1.263 . S
N346 C350 1.389 . S
N347 C348 1.358 . S
N347 C349 1.400 . S
C348 N346 1.263 . S
C348 N347 1.358 . S
C348 H354 0.930 . S
C349 N347 1.400 . S
C349 C350 1.351 . S
C349 H366 0.930 . S
C350 N346 1.389 . S
C350 C349 1.351 . S
C350 H355 0.930 . S
O351 Cu345 1.974 . S
O351 C361 1.282 . S
C352 O353 1.261 . S
C352 O365 1.251 . S
O353 C352 1.261 . S
H354 C348 0.930 . S
H355 C350 0.930 . S
N356 Cu345 1.985 . S
N356 C358 1.335 . S
N356 C359 1.390 . S
N357 C358 1.345 . S
N357 C360 1.336 . S
C358 N356 1.335 . S
C358 N357 1.345 . S
C358 H363 0.930 . S
C359 N356 1.390 . S
C359 C360 1.346 . S
C359 H364 0.930 . S
C360 N357 1.336 . S
C360 C359 1.346 . S
C360 H367 0.929 . S
C361 O351 1.282 . S
C361 O362 1.216 . S
O362 C361 1.216 . S
H363 C358 0.930 . S
H364 C359 0.930 . S
O365 Cu345 1.959 . S
O365 C352 1.251 . S
H366 C349 0.930 . S
H367 C360 0.929 . S
H368 C374 0.930 . S
H369 C378 0.930 . S
H370 C383 0.929 . S
H371 C381 0.929 . S
H372 C376 0.929 . S
H373 C382 0.929 . S
C374 H368 0.930 . S
C374 C375 1.367 . S
C374 C382 1.378 . S
C375 C374 1.367 . S
C375 C383 1.433 . S
C376 H372 0.929 . S
C376 C378 1.378 . S
C376 C380 1.350 . S
C377 C380 1.463 1_565 S
C377 C382 1.350 . S
C377 N385 1.427 . S
C378 H369 0.930 . S
C378 C376 1.378 . S
C378 C379 1.367 . S
C379 C378 1.367 . S
C379 C381 1.433 . S
C380 C376 1.350 . S
C380 C377 1.463 1_545 S
C380 N384 1.427 . S
C381 H371 0.929 . S
C381 C379 1.433 . S
C381 N384 1.384 . S
C382 H373 0.929 . S
C382 C374 1.378 . S
C382 C377 1.350 . S
C383 H370 0.929 . S
C383 C375 1.433 . S
C383 N385 1.384 . S
N384 C380 1.427 . S
N384 C381 1.384 . S
N385 C377 1.427 . S
N385 C383 1.384 . S
H386 C392 0.930 . S
H387 C396 0.930 . S
H388 C401 0.929 . S
H389 C399 0.929 . S
H390 C394 0.929 . S
H391 C400 0.929 . S
C392 H386 0.930 . S
C392 C393 1.367 . S
C392 C400 1.378 . S
C393 C392 1.367 . S
C393 C401 1.433 . S
C394 H390 0.929 . S
C394 C396 1.378 . S
C394 C398 1.350 . S
C395 C398 1.463 1_455 S
C395 C400 1.350 . S
C395 N403 1.427 . S
C396 H387 0.930 . S
C396 C394 1.378 . S
C396 C397 1.367 . S
C397 C396 1.367 . S
C397 C399 1.433 . S
C398 C394 1.350 . S
C398 C395 1.463 1_655 S
C398 N402 1.427 . S
C399 H389 0.929 . S
C399 C397 1.433 . S
C399 N402 1.384 . S
C400 H391 0.929 . S
C400 C392 1.378 . S
C400 C395 1.350 . S
C401 H388 0.929 . S
C401 C393 1.433 . S
C401 N403 1.384 . S
N402 C398 1.427 . S
N402 C399 1.384 . S
N403 C395 1.427 . S
N403 C401 1.384 . S
H404 C410 0.930 . S
H405 C414 0.930 . S
H406 C419 0.929 . S
H407 C417 0.929 . S
H408 C412 0.929 . S
H409 C418 0.929 . S
C410 H404 0.930 . S
C410 C411 1.367 . S
C410 C418 1.378 . S
C411 C410 1.367 . S
C411 C419 1.433 . S
C412 H408 0.929 . S
C412 C414 1.378 . S
C412 C416 1.350 . S
C413 C416 1.463 1_565 S
C413 C418 1.350 . S
C413 N421 1.427 . S
C414 H405 0.930 . S
C414 C412 1.378 . S
C414 C415 1.367 . S
C415 C414 1.367 . S
C415 C417 1.433 . S
C416 C412 1.350 . S
C416 C413 1.463 1_545 S
C416 N420 1.427 . S
C417 H407 0.929 . S
C417 C415 1.433 . S
C417 N420 1.384 . S
C418 H409 0.929 . S
C418 C410 1.378 . S
C418 C413 1.350 . S
C419 H406 0.929 . S
C419 C411 1.433 . S
C419 N421 1.384 . S
N420 C416 1.427 . S
N420 C417 1.384 . S
N421 C413 1.427 . S
N421 C419 1.384 . S
H422 C428 0.930 . S
H423 C432 0.930 . S
H424 C437 0.929 . S
H425 C435 0.929 . S
H426 C430 0.929 . S
H427 C436 0.929 . S
C428 H422 0.930 . S
C428 C429 1.367 . S
C428 C436 1.378 . S
C429 C428 1.367 . S
C429 C437 1.433 . S
C430 H426 0.929 . S
C430 C432 1.378 . S
C430 C434 1.350 . S
C431 C434 1.463 1_455 S
C431 C436 1.350 . S
C431 N439 1.427 . S
C432 H423 0.930 . S
C432 C430 1.378 . S
C432 C433 1.367 . S
C433 C432 1.367 . S
C433 C435 1.433 . S
C434 C430 1.350 . S
C434 C431 1.463 1_655 S
C434 N438 1.427 . S
C435 H425 0.929 . S
C435 C433 1.433 . S
C435 N438 1.384 . S
C436 H427 0.929 . S
C436 C428 1.378 . S
C436 C431 1.350 . S
C437 H424 0.929 . S
C437 C429 1.433 . S
C437 N439 1.384 . S
N438 C434 1.427 . S
N438 C435 1.384 . S
N439 C431 1.427 . S
N439 C437 1.384 . S
H440 C446 0.930 . S
H441 C450 0.930 . S
H442 C455 0.929 1_556 S
H443 C453 0.929 . S
H444 C448 0.929 . S
H445 C454 0.929 . S
C446 H440 0.930 . S
C446 C447 1.367 . S
C446 C454 1.378 . S
C447 C446 1.367 . S
C447 C455 1.433 . S
C448 H444 0.929 . S
C448 C450 1.378 . S
C448 C452 1.350 1_556 S
C449 C452 1.463 . S
C449 C454 1.350 . S
C449 N457 1.427 1_554 S
C450 H441 0.930 . S
C450 C448 1.378 . S
C450 C451 1.367 . S
C451 C450 1.367 . S
C451 C453 1.433 1_556 S
C452 C448 1.350 1_554 S
C452 C449 1.463 . S
C452 N456 1.427 . S
C453 H443 0.929 . S
C453 C451 1.433 1_554 S
C453 N456 1.384 . S
C454 H445 0.929 . S
C454 C446 1.378 . S
C454 C449 1.350 . S
C455 H442 0.929 1_554 S
C455 C447 1.433 . S
C455 N457 1.384 1_554 S
N456 C452 1.427 . S
N456 C453 1.384 . S
N457 C449 1.427 1_556 S
N457 C455 1.384 1_556 S
H458 C464 0.930 . S
H459 C468 0.930 . S
H460 C473 0.929 . S
H461 C471 0.929 . S
H462 C466 0.929 . S
H463 C472 0.929 . S
C464 H458 0.930 . S
C464 C465 1.367 . S
C464 C472 1.378 . S
C465 C464 1.367 . S
C465 C473 1.433 . S
C466 H462 0.929 . S
C466 C468 1.378 . S
C466 C470 1.350 1_554 S
C467 C470 1.463 . S
C467 C472 1.350 . S
C467 N475 1.427 . S
C468 H459 0.930 . S
C468 C466 1.378 . S
C468 C469 1.367 . S
C469 C468 1.367 . S
C469 C471 1.433 1_554 S
C470 C466 1.350 1_556 S
C470 C467 1.463 . S
C470 N474 1.427 . S
C471 H461 0.929 . S
C471 C469 1.433 1_556 S
C471 N474 1.384 . S
C472 H463 0.929 . S
C472 C464 1.378 . S
C472 C467 1.350 . S
C473 H460 0.929 . S
C473 C465 1.433 . S
C473 N475 1.384 . S
N474 C470 1.427 . S
N474 C471 1.384 . S
N475 C467 1.427 . S
N475 C473 1.384 . S
H476 C482 0.930 . S
H477 C486 0.930 . S
H478 C491 0.929 . S
H479 C489 0.929 . S
H480 C484 0.929 1_556 S
H481 C490 0.929 . S
C482 H476 0.930 . S
C482 C483 1.367 1_554 S
C482 C490 1.378 . S
C483 C482 1.367 1_556 S
C483 C491 1.433 . S
C484 H480 0.929 1_554 S
C484 C486 1.378 . S
C484 C488 1.350 . S
C485 C488 1.463 . S
C485 C490 1.350 . S
C485 N493 1.427 1_554 S
C486 H477 0.930 . S
C486 C484 1.378 . S
C486 C487 1.367 . S
C487 C486 1.367 . S
C487 C489 1.433 . S
C488 C484 1.350 . S
C488 C485 1.463 . S
C488 N492 1.427 . S
C489 H479 0.929 . S
C489 C487 1.433 . S
C489 N492 1.384 . S
C490 H481 0.929 . S
C490 C482 1.378 . S
C490 C485 1.350 . S
C491 H478 0.929 . S
C491 C483 1.433 . S
C491 N493 1.384 . S
N492 C488 1.427 . S
N492 C489 1.384 . S
N493 C485 1.427 1_556 S
N493 C491 1.384 . S
H494 C500 0.930 . S
H495 C504 0.930 . S
H496 C509 0.929 . S
H497 C507 0.929 . S
H498 C502 0.929 . S
H499 C508 0.929 . S
C500 H494 0.930 . S
C500 C501 1.367 . S
C500 C508 1.378 . S
C501 C500 1.367 . S
C501 C509 1.433 1_554 S
C502 H498 0.929 . S
C502 C504 1.378 . S
C502 C506 1.350 . S
C503 C506 1.463 . S
C503 C508 1.350 1_556 S
C503 N511 1.427 . S
C504 H495 0.930 . S
C504 C502 1.378 . S
C504 C505 1.367 . S
C505 C504 1.367 . S
C505 C507 1.433 1_556 S
C506 C502 1.350 . S
C506 C503 1.463 . S
C506 N510 1.427 1_556 S
C507 H497 0.929 . S
C507 C505 1.433 1_554 S
C507 N510 1.384 . S
C508 H499 0.929 . S
C508 C500 1.378 . S
C508 C503 1.350 1_554 S
C509 H496 0.929 . S
C509 C501 1.433 1_556 S
C509 N511 1.384 . S
N510 C506 1.427 1_554 S
N510 C507 1.384 . S
N511 C503 1.427 . S
N511 C509 1.384 . S
H512 C518 0.930 . S
H513 C522 0.930 . S
H514 C527 0.929 . S
H515 C525 0.929 . S
H516 C520 0.929 . S
H517 C526 0.929 . S
C518 H512 0.930 . S
C518 C519 1.367 . S
C518 C526 1.378 . S
C519 C518 1.367 . S
C519 C527 1.433 . S
C520 H516 0.929 . S
C520 C522 1.378 . S
C520 C524 1.350 . S
C521 C524 1.463 . S
C521 C526 1.350 . S
C521 N529 1.427 . S
C522 H513 0.930 . S
C522 C520 1.378 . S
C522 C523 1.367 . S
C523 C522 1.367 . S
C523 C525 1.433 . S
C524 C520 1.350 . S
C524 C521 1.463 . S
C524 N528 1.427 . S
C525 H515 0.929 . S
C525 C523 1.433 . S
C525 N528 1.384 . S
C526 H517 0.929 . S
C526 C518 1.378 . S
C526 C521 1.350 . S
C527 H514 0.929 . S
C527 C519 1.433 . S
C527 N529 1.384 . S
N528 C524 1.427 . S
N528 C525 1.384 . S
N529 C521 1.427 . S
N529 C527 1.384 . S
H530 C536 0.930 . S
H531 C540 0.930 . S
H532 C545 0.929 . S
H533 C543 0.929 . S
H534 C538 0.929 . S
H535 C544 0.929 . S
C536 H530 0.930 . S
C536 C537 1.367 . S
C536 C544 1.378 . S
C537 C536 1.367 . S
C537 C545 1.433 . S
C538 H534 0.929 . S
C538 C540 1.378 . S
C538 C542 1.350 . S
C539 C542 1.463 . S
C539 C544 1.350 . S
C539 N547 1.427 . S
C540 H531 0.930 . S
C540 C538 1.378 . S
C540 C541 1.367 . S
C541 C540 1.367 . S
C541 C543 1.433 . S
C542 C538 1.350 . S
C542 C539 1.463 . S
C542 N546 1.427 . S
C543 H533 0.929 . S
C543 C541 1.433 . S
C543 N546 1.384 . S
C544 H535 0.929 . S
C544 C536 1.378 . S
C544 C539 1.350 . S
C545 H532 0.929 . S
C545 C537 1.433 . S
C545 N547 1.384 . S
N546 C542 1.427 . S
N546 C543 1.384 . S
N547 C539 1.427 . S
N547 C545 1.384 . S
H548 C554 0.930 . S
H549 C558 0.930 . S
H550 C563 0.929 . S
H551 C561 0.929 . S
H552 C556 0.929 . S
H553 C562 0.929 . S
C554 H548 0.930 . S
C554 C555 1.367 . S
C554 C562 1.378 . S
C555 C554 1.367 . S
C555 C563 1.433 . S
C556 H552 0.929 . S
C556 C558 1.378 . S
C556 C560 1.350 . S
C557 C560 1.463 . S
C557 C562 1.350 . S
C557 N565 1.427 . S
C558 H549 0.930 . S
C558 C556 1.378 . S
C558 C559 1.367 . S
C559 C558 1.367 . S
C559 C561 1.433 . S
C560 C556 1.350 . S
C560 C557 1.463 . S
C560 N564 1.427 . S
C561 H551 0.929 . S
C561 C559 1.433 . S
C561 N564 1.384 . S
C562 H553 0.929 . S
C562 C554 1.378 . S
C562 C557 1.350 . S
C563 H550 0.929 . S
C563 C555 1.433 . S
C563 N565 1.384 . S
N564 C560 1.427 . S
N564 C561 1.384 . S
N565 C557 1.427 . S
N565 C563 1.384 . S
H566 C572 0.930 . S
H567 C576 0.930 . S
H568 C581 0.929 . S
H569 C579 0.929 . S
H570 C574 0.929 . S
H571 C580 0.929 . S
C572 H566 0.930 . S
C572 C573 1.367 . S
C572 C580 1.378 . S
C573 C572 1.367 . S
C573 C581 1.433 . S
C574 H570 0.929 . S
C574 C576 1.378 . S
C574 C578 1.350 . S
C575 C578 1.463 . S
C575 C580 1.350 . S
C575 N583 1.427 . S
C576 H567 0.930 . S
C576 C574 1.378 . S
C576 C577 1.367 . S
C577 C576 1.367 . S
C577 C579 1.433 . S
C578 C574 1.350 . S
C578 C575 1.463 . S
C578 N582 1.427 . S
C579 H569 0.929 . S
C579 C577 1.433 . S
C579 N582 1.384 . S
C580 H571 0.929 . S
C580 C572 1.378 . S
C580 C575 1.350 . S
C581 H568 0.929 . S
C581 C573 1.433 . S
C581 N583 1.384 . S
N582 C578 1.427 . S
N582 C579 1.384 . S
N583 C575 1.427 . S
N583 C581 1.384 . S
H584 C590 0.930 . S
H585 C594 0.930 . S
H586 C599 0.929 . S
H587 C597 0.929 . S
H588 C592 0.929 . S
H589 C598 0.929 . S
C590 H584 0.930 . S
C590 C591 1.367 . S
C590 C598 1.378 . S
C591 C590 1.367 . S
C591 C599 1.433 . S
C592 H588 0.929 . S
C592 C594 1.378 . S
C592 C596 1.350 . S
C593 C596 1.463 1_565 S
C593 C598 1.350 . S
C593 N601 1.427 . S
C594 H585 0.930 . S
C594 C592 1.378 . S
C594 C595 1.367 . S
C595 C594 1.367 . S
C595 C597 1.433 . S
C596 C592 1.350 . S
C596 C593 1.463 1_545 S
C596 N600 1.427 . S
C597 H587 0.929 . S
C597 C595 1.433 . S
C597 N600 1.384 . S
C598 H589 0.929 . S
C598 C590 1.378 . S
C598 C593 1.350 . S
C599 H586 0.929 . S
C599 C591 1.433 . S
C599 N601 1.384 . S
N600 C596 1.427 . S
N600 C597 1.384 . S
N601 C593 1.427 . S
N601 C599 1.384 . S
H602 C608 0.930 . S
H603 C612 0.930 . S
H604 C617 0.929 . S
H605 C615 0.929 . S
H606 C610 0.929 . S
H607 C616 0.929 . S
C608 H602 0.930 . S
C608 C609 1.367 . S
C608 C616 1.378 . S
C609 C608 1.367 . S
C609 C617 1.433 . S
C610 H606 0.929 . S
C610 C612 1.378 . S
C610 C614 1.350 . S
C611 C614 1.463 1_655 S
C611 C616 1.350 . S
C611 N619 1.427 . S
C612 H603 0.930 . S
C612 C610 1.378 . S
C612 C613 1.367 . S
C613 C612 1.367 . S
C613 C615 1.433 . S
C614 C610 1.350 . S
C614 C611 1.463 1_455 S
C614 N618 1.427 . S
C615 H605 0.929 . S
C615 C613 1.433 . S
C615 N618 1.384 . S
C616 H607 0.929 . S
C616 C608 1.378 . S
C616 C611 1.350 . S
C617 H604 0.929 . S
C617 C609 1.433 . S
C617 N619 1.384 . S
N618 C614 1.427 . S
N618 C615 1.384 . S
N619 C611 1.427 . S
N619 C617 1.384 . S
H620 C626 0.930 . S
H621 C630 0.930 . S
H622 C635 0.929 . S
H623 C633 0.929 . S
H624 C628 0.929 . S
H625 C634 0.929 . S
C626 H620 0.930 . S
C626 C627 1.367 . S
C626 C634 1.378 . S
C627 C626 1.367 . S
C627 C635 1.433 . S
C628 H624 0.929 . S
C628 C630 1.378 . S
C628 C632 1.350 . S
C629 C632 1.463 1_565 S
C629 C634 1.350 . S
C629 N637 1.427 . S
C630 H621 0.930 . S
C630 C628 1.378 . S
C630 C631 1.367 . S
C631 C630 1.367 . S
C631 C633 1.433 . S
C632 C628 1.350 . S
C632 C629 1.463 1_545 S
C632 N636 1.427 . S
C633 H623 0.929 . S
C633 C631 1.433 . S
C633 N636 1.384 . S
C634 H625 0.929 . S
C634 C626 1.378 . S
C634 C629 1.350 . S
C635 H622 0.929 . S
C635 C627 1.433 . S
C635 N637 1.384 . S
N636 C632 1.427 . S
N636 C633 1.384 . S
N637 C629 1.427 . S
N637 C635 1.384 . S
H638 C644 0.930 . S
H639 C648 0.930 . S
H640 C653 0.929 . S
H641 C651 0.929 . S
H642 C646 0.929 . S
H643 C652 0.929 . S
C644 H638 0.930 . S
C644 C645 1.367 . S
C644 C652 1.378 . S
C645 C644 1.367 . S
C645 C653 1.433 . S
C646 H642 0.929 . S
C646 C648 1.378 . S
C646 C650 1.350 . S
C647 C650 1.463 1_655 S
C647 C652 1.350 . S
C647 N655 1.427 . S
C648 H639 0.930 . S
C648 C646 1.378 . S
C648 C649 1.367 . S
C649 C648 1.367 . S
C649 C651 1.433 . S
C650 C646 1.350 . S
C650 C647 1.463 1_455 S
C650 N654 1.427 . S
C651 H641 0.929 . S
C651 C649 1.433 . S
C651 N654 1.384 . S
C652 H643 0.929 . S
C652 C644 1.378 . S
C652 C647 1.350 . S
C653 H640 0.929 . S
C653 C645 1.433 . S
C653 N655 1.384 . S
N654 C650 1.427 . S
N654 C651 1.384 . S
N655 C647 1.427 . S
N655 C653 1.384 . S
H656 C662 0.930 . S
H657 C666 0.930 . S
H658 C671 0.929 . S
H659 C669 0.929 . S
H660 C664 0.929 . S
H661 C670 0.929 . S
C662 H656 0.930 . S
C662 C663 1.367 . S
C662 C670 1.378 . S
C663 C662 1.367 . S
C663 C671 1.433 . S
C664 H660 0.929 . S
C664 C666 1.378 . S
C664 C668 1.350 . S
C665 C668 1.463 . S
C665 C670 1.350 . S
C665 N673 1.427 . S
C666 H657 0.930 . S
C666 C664 1.378 . S
C666 C667 1.367 . S
C667 C666 1.367 . S
C667 C669 1.433 . S
C668 C664 1.350 . S
C668 C665 1.463 . S
C668 N672 1.427 . S
C669 H659 0.929 . S
C669 C667 1.433 . S
C669 N672 1.384 . S
C670 H661 0.929 . S
C670 C662 1.378 . S
C670 C665 1.350 . S
C671 H658 0.929 . S
C671 C663 1.433 . S
C671 N673 1.384 . S
N672 C668 1.427 . S
N672 C669 1.384 . S
N673 C665 1.427 . S
N673 C671 1.384 . S
H674 C680 0.930 . S
H675 C684 0.930 . S
H676 C689 0.929 . S
H677 C687 0.929 . S
H678 C682 0.929 . S
H679 C688 0.929 . S
C680 H674 0.930 . S
C680 C681 1.367 . S
C680 C688 1.378 . S
C681 C680 1.367 . S
C681 C689 1.433 . S
C682 H678 0.929 . S
C682 C684 1.378 . S
C682 C686 1.350 . S
C683 C686 1.463 . S
C683 C688 1.350 . S
C683 N691 1.427 . S
C684 H675 0.930 . S
C684 C682 1.378 . S
C684 C685 1.367 . S
C685 C684 1.367 . S
C685 C687 1.433 . S
C686 C682 1.350 . S
C686 C683 1.463 . S
C686 N690 1.427 . S
C687 H677 0.929 . S
C687 C685 1.433 . S
C687 N690 1.384 . S
C688 H679 0.929 . S
C688 C680 1.378 . S
C688 C683 1.350 . S
C689 H676 0.929 . S
C689 C681 1.433 . S
C689 N691 1.384 . S
N690 C686 1.427 . S
N690 C687 1.384 . S
N691 C683 1.427 . S
N691 C689 1.384 . S
H692 C698 0.930 . S
H693 C702 0.930 . S
H694 C707 0.929 . S
H695 C705 0.929 . S
H696 C700 0.929 . S
H697 C706 0.929 . S
C698 H692 0.930 . S
C698 C699 1.367 . S
C698 C706 1.378 . S
C699 C698 1.367 . S
C699 C707 1.433 . S
C700 H696 0.929 . S
C700 C702 1.378 . S
C700 C704 1.350 . S
C701 C704 1.463 . S
C701 C706 1.350 . S
C701 N709 1.427 . S
C702 H693 0.930 . S
C702 C700 1.378 . S
C702 C703 1.367 . S
C703 C702 1.367 . S
C703 C705 1.433 . S
C704 C700 1.350 . S
C704 C701 1.463 . S
C704 N708 1.427 . S
C705 H695 0.929 . S
C705 C703 1.433 . S
C705 N708 1.384 . S
C706 H697 0.929 . S
C706 C698 1.378 . S
C706 C701 1.350 . S
C707 H694 0.929 . S
C707 C699 1.433 . S
C707 N709 1.384 . S
N708 C704 1.427 . S
N708 C705 1.384 . S
N709 C701 1.427 . S
N709 C707 1.384 . S
H710 C716 0.930 . S
H711 C720 0.930 . S
H712 C725 0.929 . S
H713 C723 0.929 . S
H714 C718 0.929 . S
H715 C724 0.929 . S
C716 H710 0.930 . S
C716 C717 1.367 . S
C716 C724 1.378 . S
C717 C716 1.367 . S
C717 C725 1.433 . S
C718 H714 0.929 . S
C718 C720 1.378 . S
C718 C722 1.350 . S
C719 C722 1.463 . S
C719 C724 1.350 . S
C719 N727 1.427 . S
C720 H711 0.930 . S
C720 C718 1.378 . S
C720 C721 1.367 . S
C721 C720 1.367 . S
C721 C723 1.433 . S
C722 C718 1.350 . S
C722 C719 1.463 . S
C722 N726 1.427 . S
C723 H713 0.929 . S
C723 C721 1.433 . S
C723 N726 1.384 . S
C724 H715 0.929 . S
C724 C716 1.378 . S
C724 C719 1.350 . S
C725 H712 0.929 . S
C725 C717 1.433 . S
C725 N727 1.384 . S
N726 C722 1.427 . S
N726 C723 1.384 . S
N727 C719 1.427 . S
N727 C725 1.384 . S
H728 C734 0.930 . S
H729 C738 0.930 . S
H730 C743 0.929 . S
H731 C741 0.929 . S
H732 C736 0.929 . S
H733 C742 0.929 . S
C734 H728 0.930 . S
C734 C735 1.367 . S
C734 C742 1.378 . S
C735 C734 1.367 . S
C735 C743 1.433 . S
C736 H732 0.929 . S
C736 C738 1.378 . S
C736 C740 1.350 . S
C737 C740 1.463 . S
C737 C742 1.350 . S
C737 N745 1.427 . S
C738 H729 0.930 . S
C738 C736 1.378 . S
C738 C739 1.367 . S
C739 C738 1.367 . S
C739 C741 1.433 . S
C740 C736 1.350 . S
C740 C737 1.463 . S
C740 N744 1.427 . S
C741 H731 0.929 . S
C741 C739 1.433 . S
C741 N744 1.384 . S
C742 H733 0.929 . S
C742 C734 1.378 . S
C742 C737 1.350 . S
C743 H730 0.929 . S
C743 C735 1.433 . S
C743 N745 1.384 . S
N744 C740 1.427 . S
N744 C741 1.384 . S
N745 C737 1.427 . S
N745 C743 1.384 . S
H746 C752 0.930 . S
H747 C756 0.930 . S
H748 C761 0.929 . S
H749 C759 0.929 . S
H750 C754 0.929 . S
H751 C760 0.929 . S
C752 H746 0.930 . S
C752 C753 1.367 . S
C752 C760 1.378 . S
C753 C752 1.367 . S
C753 C761 1.433 . S
C754 H750 0.929 . S
C754 C756 1.378 . S
C754 C758 1.350 . S
C755 C758 1.463 . S
C755 C760 1.350 . S
C755 N763 1.427 . S
C756 H747 0.930 . S
C756 C754 1.378 . S
C756 C757 1.367 . S
C757 C756 1.367 . S
C757 C759 1.433 . S
C758 C754 1.350 . S
C758 C755 1.463 . S
C758 N762 1.427 . S
C759 H749 0.929 . S
C759 C757 1.433 . S
C759 N762 1.384 . S
C760 H751 0.929 . S
C760 C752 1.378 . S
C760 C755 1.350 . S
C761 H748 0.929 . S
C761 C753 1.433 . S
C761 N763 1.384 . S
N762 C758 1.427 . S
N762 C759 1.384 . S
N763 C755 1.427 . S
N763 C761 1.384 . S
H764 C770 0.930 . S
H765 C774 0.930 . S
H766 C779 0.929 . S
H767 C777 0.929 . S
H768 C772 0.929 . S
H769 C778 0.929 . S
C770 H764 0.930 . S
C770 C771 1.367 . S
C770 C778 1.378 . S
C771 C770 1.367 . S
C771 C779 1.433 . S
C772 H768 0.929 . S
C772 C774 1.378 . S
C772 C776 1.350 . S
C773 C776 1.463 . S
C773 C778 1.350 . S
C773 N781 1.427 . S
C774 H765 0.930 . S
C774 C772 1.378 . S
C774 C775 1.367 . S
C775 C774 1.367 . S
C775 C777 1.433 . S
C776 C772 1.350 . S
C776 C773 1.463 . S
C776 N780 1.427 . S
C777 H767 0.929 . S
C777 C775 1.433 . S
C777 N780 1.384 . S
C778 H769 0.929 . S
C778 C770 1.378 . S
C778 C773 1.350 . S
C779 H766 0.929 . S
C779 C771 1.433 . S
C779 N781 1.384 . S
N780 C776 1.427 . S
N780 C777 1.384 . S
N781 C773 1.427 . S
N781 C779 1.384 . S
H782 C788 0.930 . S
H783 C792 0.930 . S
H784 C797 0.929 . S
H785 C795 0.929 . S
H786 C790 0.929 . S
H787 C796 0.929 . S
C788 H782 0.930 . S
C788 C789 1.367 . S
C788 C796 1.378 . S
C789 C788 1.367 . S
C789 C797 1.433 . S
C790 H786 0.929 . S
C790 C792 1.378 . S
C790 C794 1.350 . S
C791 C794 1.463 . S
C791 C796 1.350 . S
C791 N799 1.427 . S
C792 H783 0.930 . S
C792 C790 1.378 . S
C792 C793 1.367 . S
C793 C792 1.367 . S
C793 C795 1.433 . S
C794 C790 1.350 . S
C794 C791 1.463 . S
C794 N798 1.427 . S
C795 H785 0.929 . S
C795 C793 1.433 . S
C795 N798 1.384 . S
C796 H787 0.929 . S
C796 C788 1.378 . S
C796 C791 1.350 . S
C797 H784 0.929 . S
C797 C789 1.433 . S
C797 N799 1.384 . S
N798 C794 1.427 . S
N798 C795 1.384 . S
N799 C791 1.427 . S
N799 C797 1.384 . S
H800 C806 0.930 . S
H801 C810 0.930 1_554 S
H802 C815 0.929 . S
H803 C813 0.929 . S
H804 C808 0.929 . S
H805 C814 0.929 . S
C806 H800 0.930 . S
C806 C807 1.367 . S
C806 C814 1.378 . S
C807 C806 1.367 . S
C807 C815 1.433 . S
C808 H804 0.929 . S
C808 C810 1.378 . S
C808 C812 1.350 . S
C809 C812 1.463 . S
C809 C814 1.350 . S
C809 N817 1.427 . S
C810 H801 0.930 1_556 S
C810 C808 1.378 . S
C810 C811 1.367 . S
C811 C810 1.367 . S
C811 C813 1.433 . S
C812 C808 1.350 . S
C812 C809 1.463 . S
C812 N816 1.427 . S
C813 H803 0.929 . S
C813 C811 1.433 . S
C813 N816 1.384 . S
C814 H805 0.929 . S
C814 C806 1.378 . S
C814 C809 1.350 . S
C815 H802 0.929 . S
C815 C807 1.433 . S
C815 N817 1.384 . S
N816 C812 1.427 . S
N816 C813 1.384 . S
N817 C809 1.427 . S
N817 C815 1.384 . S
H818 C824 0.930 . S
H819 C828 0.930 . S
H820 C833 0.929 . S
H821 C831 0.929 . S
H822 C826 0.929 . S
H823 C832 0.929 . S
C824 H818 0.930 . S
C824 C825 1.367 . S
C824 C832 1.378 . S
C825 C824 1.367 . S
C825 C833 1.433 . S
C826 H822 0.929 . S
C826 C828 1.378 . S
C826 C830 1.350 . S
C827 C830 1.463 . S
C827 C832 1.350 . S
C827 N835 1.427 . S
C828 H819 0.930 . S
C828 C826 1.378 . S
C828 C829 1.367 . S
C829 C828 1.367 . S
C829 C831 1.433 . S
C830 C826 1.350 . S
C830 C827 1.463 . S
C830 N834 1.427 . S
C831 H821 0.929 . S
C831 C829 1.433 . S
C831 N834 1.384 . S
C832 H823 0.929 . S
C832 C824 1.378 . S
C832 C827 1.350 . S
C833 H820 0.929 . S
C833 C825 1.433 . S
C833 N835 1.384 . S
N834 C830 1.427 . S
N834 C831 1.384 . S
N835 C827 1.427 . S
N835 C833 1.384 . S
H836 C842 0.930 1_554 S
H837 C846 0.930 . S
H838 C851 0.929 . S
H839 C849 0.929 . S
H840 C844 0.929 . S
H841 C850 0.929 . S
C842 H836 0.930 1_556 S
C842 C843 1.367 . S
C842 C850 1.378 . S
C843 C842 1.367 . S
C843 C851 1.433 . S
C844 H840 0.929 . S
C844 C846 1.378 . S
C844 C848 1.350 . S
C845 C848 1.463 . S
C845 C850 1.350 . S
C845 N853 1.427 . S
C846 H837 0.930 . S
C846 C844 1.378 . S
C846 C847 1.367 . S
C847 C846 1.367 . S
C847 C849 1.433 . S
C848 C844 1.350 . S
C848 C845 1.463 . S
C848 N852 1.427 . S
C849 H839 0.929 . S
C849 C847 1.433 . S
C849 N852 1.384 . S
C850 H841 0.929 . S
C850 C842 1.378 . S
C850 C845 1.350 . S
C851 H838 0.929 . S
C851 C843 1.433 . S
C851 N853 1.384 . S
N852 C848 1.427 . S
N852 C849 1.384 . S
N853 C845 1.427 . S
N853 C851 1.384 . S
H854 C860 0.930 . S
H855 C864 0.930 1_556 S
H856 C869 0.929 . S
H857 C867 0.929 . S
H858 C862 0.929 . S
H859 C868 0.929 . S
C860 H854 0.930 . S
C860 C861 1.367 . S
C860 C868 1.378 . S
C861 C860 1.367 . S
C861 C869 1.433 . S
C862 H858 0.929 . S
C862 C864 1.378 . S
C862 C866 1.350 . S
C863 C866 1.463 . S
C863 C868 1.350 . S
C863 N871 1.427 . S
C864 H855 0.930 1_554 S
C864 C862 1.378 . S
C864 C865 1.367 . S
C865 C864 1.367 . S
C865 C867 1.433 . S
C866 C862 1.350 . S
C866 C863 1.463 . S
C866 N870 1.427 . S
C867 H857 0.929 . S
C867 C865 1.433 . S
C867 N870 1.384 . S
C868 H859 0.929 . S
C868 C860 1.378 . S
C868 C863 1.350 . S
C869 H856 0.929 . S
C869 C861 1.433 . S
C869 N871 1.384 . S
N870 C866 1.427 . S
N870 C867 1.384 . S
N871 C863 1.427 . S
N871 C869 1.384 . S
H872 C878 0.930 . S
H873 C882 0.930 . S
H874 C887 0.929 . S
H875 C885 0.929 . S
H876 C880 0.929 . S
H877 C886 0.929 . S
C878 H872 0.930 . S
C878 C879 1.367 . S
C878 C886 1.378 . S
C879 C878 1.367 . S
C879 C887 1.433 . S
C880 H876 0.929 . S
C880 C882 1.378 . S
C880 C884 1.350 . S
C881 C884 1.463 . S
C881 C886 1.350 . S
C881 N889 1.427 . S
C882 H873 0.930 . S
C882 C880 1.378 . S
C882 C883 1.367 . S
C883 C882 1.367 . S
C883 C885 1.433 . S
C884 C880 1.350 . S
C884 C881 1.463 . S
C884 N888 1.427 . S
C885 H875 0.929 . S
C885 C883 1.433 . S
C885 N888 1.384 . S
C886 H877 0.929 . S
C886 C878 1.378 . S
C886 C881 1.350 . S
C887 H874 0.929 . S
C887 C879 1.433 . S
C887 N889 1.384 . S
N888 C884 1.427 . S
N888 C885 1.384 . S
N889 C881 1.427 . S
N889 C887 1.384 . S
H890 C896 0.930 . S
H891 C900 0.930 . S
H892 C905 0.929 . S
H893 C903 0.929 . S
H894 C898 0.929 . S
H895 C904 0.929 . S
C896 H890 0.930 . S
C896 C897 1.367 . S
C896 C904 1.378 . S
C897 C896 1.367 . S
C897 C905 1.433 . S
C898 H894 0.929 . S
C898 C900 1.378 . S
C898 C902 1.350 . S
C899 C902 1.463 . S
C899 C904 1.350 . S
C899 N907 1.427 . S
C900 H891 0.930 . S
C900 C898 1.378 . S
C900 C901 1.367 . S
C901 C900 1.367 . S
C901 C903 1.433 . S
C902 C898 1.350 . S
C902 C899 1.463 . S
C902 N906 1.427 . S
C903 H893 0.929 . S
C903 C901 1.433 . S
C903 N906 1.384 . S
C904 H895 0.929 . S
C904 C896 1.378 . S
C904 C899 1.350 . S
C905 H892 0.929 . S
C905 C897 1.433 . S
C905 N907 1.384 . S
N906 C902 1.427 . S
N906 C903 1.384 . S
N907 C899 1.427 . S
N907 C905 1.384 . S
H908 C914 0.930 . S
H909 C918 0.930 . S
H910 C923 0.929 . S
H911 C921 0.929 . S
H912 C916 0.929 . S
H913 C922 0.929 . S
C914 H908 0.930 . S
C914 C915 1.367 . S
C914 C922 1.378 . S
C915 C914 1.367 . S
C915 C923 1.433 . S
C916 H912 0.929 . S
C916 C918 1.378 . S
C916 C920 1.350 . S
C917 C920 1.463 . S
C917 C922 1.350 . S
C917 N925 1.427 . S
C918 H909 0.930 . S
C918 C916 1.378 . S
C918 C919 1.367 . S
C919 C918 1.367 . S
C919 C921 1.433 . S
C920 C916 1.350 . S
C920 C917 1.463 . S
C920 N924 1.427 . S
C921 H911 0.929 . S
C921 C919 1.433 . S
C921 N924 1.384 . S
C922 H913 0.929 . S
C922 C914 1.378 . S
C922 C917 1.350 . S
C923 H910 0.929 . S
C923 C915 1.433 . S
C923 N925 1.384 . S
N924 C920 1.427 . S
N924 C921 1.384 . S
N925 C917 1.427 . S
N925 C923 1.384 . S
H926 C932 0.930 . S
H927 C936 0.930 . S
H928 C941 0.929 . S
H929 C939 0.929 . S
H930 C934 0.929 . S
H931 C940 0.929 . S
C932 H926 0.930 . S
C932 C933 1.367 . S
C932 C940 1.378 . S
C933 C932 1.367 . S
C933 C941 1.433 . S
C934 H930 0.929 . S
C934 C936 1.378 . S
C934 C938 1.350 . S
C935 C938 1.463 . S
C935 C940 1.350 . S
C935 N943 1.427 . S
C936 H927 0.930 . S
C936 C934 1.378 . S
C936 C937 1.367 . S
C937 C936 1.367 . S
C937 C939 1.433 . S
C938 C934 1.350 . S
C938 C935 1.463 . S
C938 N942 1.427 . S
C939 H929 0.929 . S
C939 C937 1.433 . S
C939 N942 1.384 . S
C940 H931 0.929 . S
C940 C932 1.378 . S
C940 C935 1.350 . S
C941 H928 0.929 . S
C941 C933 1.433 . S
C941 N943 1.384 . S
N942 C938 1.427 . S
N942 C939 1.384 . S
N943 C935 1.427 . S
N943 C941 1.384 . S
C375 N255 1.501 . S
C379 C16 1.610 . S
C393 C39 1.609 . S
C397 N186 1.494 . S
C411 C62 1.608 . S
C415 N209 1.500 . S
C429 N232 1.489 . S
C433 C85 1.611 . S
C447 C108 1.612 . S
C451 N117 1.488 . S
C465 C131 1.613 . S
C469 N140 1.490 . S
C483 N163 1.506 . S
C487 C154 1.607 . S
C501 N94 1.488 . S
C505 C177 1.612 . S
C519 N71 1.488 . S
C523 C200 1.612 . S
C537 C223 1.607 . S
C541 N2 1.506 . S
C555 N25 1.496 . S
C559 C246 1.609 . S
C573 C269 1.611 . S
C577 N48 1.498 . S
C591 C292 1.612 . S
C595 N301 1.488 . S
C609 C315 1.612 . S
C613 N324 1.488 . S
C627 N347 1.503 . S
C631 C338 1.610 . S
C645 N278 1.490 . S
C649 C361 1.611 . S
C663 C99 1.347 . S
C667 C7 1.350 . S
C681 C30 1.356 . S
C685 C122 1.356 . S
C699 C53 1.356 . S
C703 C145 1.355 . S
C717 C168 1.348 . S
C721 C76 1.353 . S
C735 C191 1.348 . S
C739 C283 1.353 . S
C753 C306 1.356 . S
C757 C214 1.354 . S
C771 C237 1.347 . S
C775 C329 1.349 . S
C789 C352 1.351 . S
C793 C260 1.356 . S
C807 N334 1.832 . S
C811 N12 1.840 1_556 S
C825 N357 1.830 . S
C829 N35 1.839 1_554 S
C843 N58 1.836 1_556 S
C847 N288 1.836 . S
C861 N311 1.835 . S
C865 N81 1.838 1_554 S
C879 N242 1.833 . S
C883 N104 1.839 . S
C897 N265 1.833 . S
C901 N127 1.839 . S
C915 N150 1.836 . S
C919 N196 1.837 . S
C933 N219 1.833 . S
C937 N173 1.839 . S
