# Generated by pormake.
# Topology uon, (4)-cn, num edge types: 1
# Building blocks:
#     Node 0, Type 0, BuildingBlock: ESEHIV_clean_sbu_0, # of connection points: 4
#     Node 1, Type 0, BuildingBlock: ESEHIV_clean_sbu_0, # of connection points: 4
#     Node 2, Type 0, BuildingBlock: ESEHIV_clean_sbu_0, # of connection points: 4
#     Node 3, Type 0, BuildingBlock: ESEHIV_clean_sbu_0, # of connection points: 4
#     Node 4, Type 0, BuildingBlock: ESEHIV_clean_sbu_0, # of connection points: 4
#     Node 5, Type 0, BuildingBlock: ESEHIV_clean_sbu_0, # of connection points: 4
#     Edge 6, Type (0, 0), BuildingBlock: AJUNOK_clean_linker_0, # of connection points: 2
#     Edge 7, Type (0, 0), BuildingBlock: AJUNOK_clean_linker_0, # of connection points: 2
#     Edge 8, Type (0, 0), BuildingBlock: AJUNOK_clean_linker_0, # of connection points: 2
#     Edge 9, Type (0, 0), BuildingBlock: AJUNOK_clean_linker_0, # of connection points: 2
#     Edge 10, Type (0, 0), BuildingBlock: AJUNOK_clean_linker_0, # of connection points: 2
#     Edge 11, Type (0, 0), BuildingBlock: AJUNOK_clean_linker_0, # of connection points: 2
#     Edge 12, Type (0, 0), BuildingBlock: AJUNOK_clean_linker_0, # of connection points: 2
#     Edge 13, Type (0, 0), BuildingBlock: AJUNOK_clean_linker_0, # of connection points: 2
#     Edge 14, Type (0, 0), BuildingBlock: AJUNOK_clean_linker_0, # of connection points: 2
#     Edge 15, Type (0, 0), BuildingBlock: AJUNOK_clean_linker_0, # of connection points: 2
#     Edge 16, Type (0, 0), BuildingBlock: AJUNOK_clean_linker_0, # of connection points: 2
#     Edge 17, Type (0, 0), BuildingBlock: AJUNOK_clean_linker_0, # of connection points: 2
# Relax obj value: 0.074
# Max RMSD: 0.074
# Mean RMSD: 0.074
data_MOF--net-uon--node1-ESEHIV_clean_sbu_0--edge1-AJUNOK_clean_linker_0
_symmetry_space_group_name_H-M    P1
_symmetry_Int_Tables_number       1
_symmetry_cell_setting            triclinic
loop_
_symmetry_equiv_pos_as_xyz
'x, y, z'
_cell_length_a     25.9322
_cell_length_b     26.16145
_cell_length_c     20.502517
_cell_angle_alpha  90.472907
_cell_angle_beta   90.793548
_cell_angle_gamma 119.03854
loop_
_atom_site_label
_atom_site_type_symbol
_atom_site_fract_x
_atom_site_fract_y
_atom_site_fract_z
_atom_type_partial_charge
Cu0 Cu 0.26111 0.46674 0.9967 0.0
N1 N 0.26207 0.49356 0.91232 0.0
N2 N 0.31336 0.53393 0.82224 0.0
C3 C 0.29659 0.49046 0.8657 0.0
C4 C 0.28489 0.56334 0.84021 0.0
C5 C 0.2537 0.53866 0.8959 0.0
O6 O 0.31001 0.42882 0.99064 0.0
C7 C 0.3065 0.53923 0.11337 0.0
O8 O 0.30511 0.4937 0.14158 0.0
H9 H 0.31448 0.46098 0.86802 0.0
H10 H 0.23352 0.55731 0.92698 0.0
N11 N 0.18406 0.41622 1.02329 0.0
N12 N 0.10589 0.37039 0.08706 0.0
C13 C 0.16371 0.40998 0.08454 0.0
C14 C 0.1372 0.37983 0.9858 0.0
C15 C 0.08903 0.35099 1.02516 0.0
C16 C 0.28687 0.37785 0.96467 0.0
O17 O 0.22912 0.34683 0.96167 0.0
H18 H 0.19063 0.43363 0.12656 0.0
H19 H 0.13809 0.37466 0.93349 0.0
O20 O 0.29319 0.53604 0.05296 0.0
H21 H 0.29249 0.6045 0.82004 0.0
H22 H 0.0448 0.31906 1.00946 0.0
Cu23 Cu 0.81992 0.20793 0.30231 0.0
N24 N 0.80418 0.22264 0.21764 0.0
N25 N 0.81624 0.2867 0.14002 0.0
C26 C 0.80555 0.27332 0.20342 0.0
C27 C 0.82101 0.24233 0.11243 0.0
C28 C 0.81405 0.20293 0.16075 0.0
O29 O 0.90497 0.24218 0.30327 0.0
C30 C 0.79753 0.25603 0.42044 0.0
O31 O 0.83508 0.24406 0.45116 0.0
H32 H 0.80553 0.30319 0.24029 0.0
H33 H 0.82269 0.16658 0.15613 0.0
N34 N 0.7838 0.12798 0.32097 0.0
N35 N 0.7425 0.04649 0.38011 0.0
C36 C 0.77208 0.10558 0.38127 0.0
C37 C 0.76162 0.08136 0.27997 0.0
C38 C 0.73636 0.031 0.31637 0.0
C39 C 0.93613 0.29647 0.29191 0.0
O40 O 0.91298 0.33071 0.30159 0.0
H41 H 0.78509 0.13227 0.42523 0.0
H42 H 0.7626 0.08367 0.22737 0.0
O43 O 0.7884 0.24552 0.35947 0.0
H44 H 0.83449 0.24151 0.06287 0.0
H45 H 0.71362 0.98655 0.29739 0.0
Cu46 Cu 0.60531 0.79785 0.68079 0.0
N47 N 0.54869 0.81938 0.70274 0.0
N48 N 0.46111 0.81561 0.68961 0.0
C49 C 0.5027 0.80621 0.66209 0.0
C50 C 0.48209 0.83623 0.75042 0.0
C51 C 0.53623 0.8382 0.75857 0.0
O52 O 0.64143 0.84092 0.60144 0.0
C53 C 0.5319 0.69051 0.72395 0.0
O54 O 0.549 0.72292 0.77743 0.0
H55 H 0.49898 0.78786 0.61361 0.0
H56 H 0.56287 0.84945 0.80288 0.0
N57 N 0.66273 0.81344 0.74713 0.0
N58 N 0.71665 0.79928 0.82439 0.0
C59 C 0.67722 0.77501 0.77438 0.0
C60 C 0.69544 0.86411 0.78001 0.0
C61 C 0.72877 0.85564 0.82731 0.0
C62 C 0.65675 0.89525 0.60405 0.0
O63 O 0.65173 0.91741 0.65975 0.0
H64 H 0.65703 0.72934 0.75997 0.0
H65 H 0.69411 0.90416 0.77146 0.0
O66 O 0.55499 0.71384 0.67011 0.0
H67 H 0.45877 0.84618 0.78741 0.0
H68 H 0.75897 0.88843 0.86176 0.0
Cu69 Cu 0.8016 0.58555 0.06206 0.0
N70 N 0.72284 0.53054 0.07463 0.0
N71 N 0.65119 0.44592 0.0327 0.0
C72 C 0.68989 0.50256 1.02147 0.0
C73 C 0.65725 0.43916 0.09704 0.0
C74 C 0.70166 0.49129 0.12272 0.0
O75 O 0.80151 0.63735 0.99326 0.0
C76 C 0.84234 0.50854 0.08958 0.0
O77 O 0.833 0.52226 0.14826 0.0
H78 H 0.69997 0.52164 0.97363 0.0
H79 H 0.72262 0.49708 0.1702 0.0
N80 N 0.84144 0.62963 0.13729 0.0
N81 N 0.91392 0.66925 0.21312 0.0
C82 C 0.89892 0.64854 0.15127 0.0
C83 C 0.81937 0.63967 0.19197 0.0
C84 C 0.86406 0.66425 0.23883 0.0
C85 C 0.7764 0.6673 1.0083 0.0
O86 O 0.7552 0.66184 0.0672 0.0
H87 H 0.92819 0.64328 0.11806 0.0
H88 H 0.77331 0.6265 0.19869 0.0
O89 O 0.83488 0.53432 0.04057 0.0
H90 H 0.63666 0.39773 0.1218 0.0
H91 H 0.85914 0.67356 0.2892 0.0
Cu92 Cu 0.249 0.79495 0.39918 0.0
N93 N 0.28677 0.78071 0.3298 0.0
N94 N 0.31593 0.73431 0.2595 0.0
C95 C 0.28663 0.73032 0.31494 0.0
C96 C 0.33547 0.78953 0.23911 0.0
C97 C 0.31767 0.81805 0.28266 0.0
O98 O 0.16601 0.7673 0.3754 0.0
C99 C 0.25907 0.77767 0.53399 0.0
O100 O 0.23045 0.80711 0.54181 0.0
H101 H 0.26309 0.69081 0.34265 0.0
H102 H 0.32554 0.86251 0.27945 0.0
N103 N 0.28523 0.87557 0.41582 0.0
N104 N 0.33629 0.96136 0.46911 0.0
C105 C 0.32532 0.90547 0.46349 0.0
C106 C 0.27105 0.91404 0.38934 0.0
C107 C 0.30241 0.96693 0.42205 0.0
C108 C 0.13464 0.72014 0.34293 0.0
O109 O 0.15668 0.6854 0.33041 0.0
H110 H 0.34329 0.8855 0.49587 0.0
H111 H 0.23833 0.90361 0.35086 0.0
O112 O 0.26284 0.76064 0.47672 0.0
H113 H 0.36001 0.80772 0.19518 0.0
H114 H 0.29918 1.00599 0.41302 0.0
Cu115 Cu 0.51377 0.25992 0.70234 0.0
N116 N 0.56914 0.29545 0.63684 0.0
N117 N 0.6399 0.3109 0.56577 0.0
C118 C 0.60659 0.27755 0.61475 0.0
C119 C 0.62333 0.35206 0.55734 0.0
C120 C 0.57968 0.34239 0.60123 0.0
O121 O 0.46021 0.18041 0.67253 0.0
C122 C 0.53701 0.25953 0.83917 0.0
O123 O 0.48056 0.22275 0.84584 0.0
H124 H 0.60877 0.24012 0.6334 0.0
H125 H 0.55709 0.36767 0.60664 0.0
N126 N 0.46935 0.29835 0.71448 0.0
N127 N 0.41627 0.33311 0.76482 0.0
C128 C 0.45809 0.3169 0.7715 0.0
C129 C 0.43405 0.30407 0.6699 0.0
C130 C 0.40122 0.32535 0.70074 0.0
C131 C 0.47435 0.14067 0.66325 0.0
O132 O 0.52602 0.1494 0.68453 0.0
H133 H 0.47708 0.31511 0.81782 0.0
H134 H 0.43013 0.29061 0.61922 0.0
O135 O 0.55823 0.26928 0.78226 0.0
H136 H 0.64171 0.38699 0.52247 0.0
H137 H 0.36699 0.33204 0.67827 0.0
C138 C 0.29283 0.33024 0.86143 0.0
C139 C 0.32143 0.36305 0.91827 0.0
C140 C 0.32421 0.32141 0.8117 0.0
C141 C 0.38559 0.34417 0.81674 0.0
H142 H 0.24576 0.31261 0.85397 0.0
H143 H 0.29994 0.296 0.76906 0.0
S144 S 0.48132 0.42927 0.95768 0.0
N145 N 0.41463 0.41629 0.97802 0.0
N146 N 0.4738 0.39875 0.88478 0.0
C147 C 0.41479 0.37555 0.87417 0.0
C148 C 0.38273 0.3853 0.92471 0.0
C149 C 0.99012 0.27512 0.20493 0.0
C150 C 0.98692 0.31603 0.24757 0.0
C151 C 1.02995 0.29321 0.15349 0.0
C152 C 0.06901 0.35271 0.14345 0.0
H153 H 0.95948 0.22885 0.20895 0.0
H154 H 1.02956 0.2605 0.12047 0.0
S155 S 0.08154 0.47722 0.24314 0.0
N156 N 1.02839 0.41886 0.27755 0.0
N157 N 0.10413 0.45247 0.18161 0.0
C158 C 0.06844 0.39395 0.18734 0.0
C159 C 1.02717 0.37568 0.23916 0.0
C160 C 0.71903 0.95413 0.43633 0.0
C161 C 0.71954 1.00824 0.43525 0.0
C162 C 0.69819 0.91728 0.49057 0.0
C163 C 0.67715 0.93326 0.54577 0.0
H164 H 0.73591 0.94072 0.39543 0.0
H165 H 0.69947 0.87651 0.48963 0.0
S166 S 0.66271 0.06741 0.56383 0.0
N167 N 0.69219 0.07328 0.49165 0.0
N168 N 0.65421 1.00538 0.59341 0.0
C169 C 0.67594 0.98661 0.54427 0.0
C170 C 0.69682 0.02373 0.48915 0.0
C171 C 0.76288 0.69319 0.89291 0.0
C172 C 0.76683 0.70487 0.96056 0.0
C173 C 0.74707 0.72449 0.84855 0.0
C174 C 0.73562 0.76932 0.86999 0.0
H175 H 0.77011 0.65836 0.87427 0.0
H176 H 0.74348 0.71338 0.7971 0.0
S177 S 0.74131 0.81793 0.04188 0.0
N178 N 0.7594 0.76567 0.04633 0.0
N179 N 0.72948 0.82348 0.96364 0.0
C180 C 0.74071 0.78214 0.93731 0.0
C181 C 0.75634 0.75021 0.98231 0.0
C182 C 0.99527 0.64794 0.23615 0.0
C183 C 0.96809 0.68234 0.24751 0.0
C184 C 0.048 0.65972 0.26853 0.0
C185 C 0.07638 0.70687 0.31335 0.0
H186 H 0.97531 0.61116 0.20223 0.0
H187 H 0.06699 0.63191 0.25736 0.0
S188 S 1.02286 0.81028 0.36034 0.0
N189 N 0.97285 0.76514 0.30692 0.0
N190 N 0.07229 0.78796 0.36765 0.0
C191 C 0.04926 0.7414 0.3256 0.0
C192 C 0.99509 0.72893 0.29286 0.0
C193 C 0.38536 0.08625 0.59012 0.0
C194 C 0.43693 0.09025 0.61878 0.0
C195 C 0.35289 0.04403 0.54188 0.0
C196 C 0.37027 1.00368 0.51994 0.0
H197 H 0.37036 0.11684 0.60392 0.0
H198 H 0.31365 0.04308 0.52168 0.0
S199 S 0.49988 0.99267 0.5815 0.0
N200 N 0.50209 0.04767 0.62384 0.0
N201 N 0.44168 0.9692 0.53224 0.0
C202 C 0.42075 1.00588 0.54941 0.0
C203 C 0.45384 0.04886 0.59895 0.0
C204 C 0.31518 0.68508 0.15584 0.0
C205 C 0.31872 0.68756 0.22441 0.0
C206 C 0.31342 0.63808 0.12064 0.0
C207 C 0.31526 0.59136 0.15235 0.0
H208 H 0.31166 0.71878 0.12907 0.0
H209 H 0.30905 0.63787 0.068 0.0
S210 S 0.3309 0.58 0.33131 0.0
N211 N 0.32888 0.64171 0.32269 0.0
N212 N 0.32496 0.5529 0.25684 0.0
C213 C 0.32116 0.59443 0.22095 0.0
C214 C 0.32289 0.64247 0.25684 0.0
C215 C 0.71748 0.28184 0.5606 0.0
C216 C 0.68229 0.30202 0.52922 0.0
C217 C 0.7562 0.2692 0.52551 0.0
C218 C 0.76088 0.27558 0.45736 0.0
H219 H 0.71473 0.27538 0.61279 0.0
H220 H 0.78135 0.25267 0.55193 0.0
S221 S 0.67905 0.32809 0.35191 0.0
N222 N 0.6552 0.3285 0.42605 0.0
N223 N 0.72802 0.30535 0.36011 0.0
C224 C 0.7268 0.29696 0.42555 0.0
C225 C 0.68759 0.31008 0.4614 0.0
C226 C 0.42489 0.62955 0.70112 0.0
C227 C 0.4773 0.6343 0.72764 0.0
C228 C 0.37008 0.59203 0.72858 0.0
C229 C 0.36599 0.55807 0.78332 0.0
H230 H 0.42682 0.65955 0.66393 0.0
H231 H 0.33125 0.5931 0.7103 0.0
S232 S 0.49136 0.54954 0.8633 0.0
N233 N 0.52186 0.59732 0.80483 0.0
N234 N 0.42007 0.52734 0.85739 0.0
C235 C 0.41795 0.55812 0.80535 0.0
C236 C 0.47334 0.59613 0.77709 0.0
C237 C 0.88506 0.44902 0.13184 0.0
C238 C 0.85 0.45632 0.08382 0.0
C239 C 0.87708 0.39353 0.14648 0.0
C240 C 0.8338 0.34335 0.11354 0.0
H241 H 0.91544 0.48588 0.16214 0.0
H242 H 0.90218 0.38929 0.18671 0.0
S243 S 0.73627 0.33897 0.97823 0.0
N244 N 0.77477 0.40907 0.99877 0.0
N245 N 0.76044 0.30449 1.02633 0.0
C246 C 0.8026 0.35039 0.06132 0.0
C247 C 0.81058 0.40708 0.04634 0.0
C248 C 0.32656 0.74342 0.57975 0.0
C249 C 0.30245 0.78118 0.58456 0.0
C250 C 0.37651 0.75337 0.61674 0.0
C251 C 0.40484 0.80172 0.65992 0.0
H252 H 0.30822 0.7072 0.54498 0.0
H253 H 0.39424 0.72391 0.60981 0.0
S254 S 0.35765 0.91209 0.69387 0.0
N255 N 0.30887 0.8672 0.63934 0.0
N256 N 0.40335 0.88609 0.70793 0.0
C257 C 0.37946 0.83807 0.66804 0.0
C258 C 0.32815 0.82775 0.63061 0.0
C259 C 0.54296 0.30288 0.95114 0.0
C260 C 0.57005 0.30394 0.8916 0.0
C261 C 0.56961 0.34934 0.99682 0.0
C262 C 0.62388 0.39919 0.98442 0.0
H263 H 0.50009 0.26658 0.962 0.0
H264 H 0.54701 0.34687 0.04166 0.0
S265 S 0.71579 0.42185 0.83835 0.0
N266 N 0.65676 0.35779 0.82518 0.0
N267 N 0.70563 0.44491 0.90958 0.0
C268 C 0.65205 0.40026 0.92569 0.0
C269 C 0.62559 0.35264 0.8799 0.0
loop_
_geom_bond_atom_site_label_1
_geom_bond_atom_site_label_2
_geom_bond_distance
_geom_bond_site_symmetry_2
_ccdc_geom_bond_type
Cu0 N1 1.999 . S
Cu0 O6 1.974 . S
Cu0 N11 1.985 1_556 S
Cu0 O20 1.959 1_556 S
N1 Cu0 1.999 . S
N1 C3 1.263 . S
N1 C5 1.389 . S
N2 C3 1.358 . S
N2 C4 1.400 . S
C3 N1 1.263 . S
C3 N2 1.358 . S
C3 H9 0.930 . S
C4 N2 1.400 . S
C4 C5 1.351 . S
C4 H21 0.930 . S
C5 N1 1.389 . S
C5 C4 1.351 . S
C5 H10 0.930 . S
O6 Cu0 1.974 . S
O6 C16 1.282 . S
C7 O8 1.261 . S
C7 O20 1.251 . S
O8 C7 1.261 . S
H9 C3 0.930 . S
H10 C5 0.930 . S
N11 Cu0 1.985 1_554 S
N11 C13 1.335 . S
N11 C14 1.390 . S
N12 C13 1.345 . S
N12 C15 1.336 . S
C13 N11 1.335 . S
C13 N12 1.345 . S
C13 H18 0.930 . S
C14 N11 1.390 . S
C14 C15 1.346 . S
C14 H19 0.930 . S
C15 N12 1.336 . S
C15 C14 1.346 . S
C15 H22 0.929 . S
C16 O6 1.282 . S
C16 O17 1.216 . S
O17 C16 1.216 . S
H18 C13 0.930 . S
H19 C14 0.930 . S
O20 Cu0 1.959 1_554 S
O20 C7 1.251 . S
H21 C4 0.930 . S
H22 C15 0.929 . S
Cu23 N24 1.999 . S
Cu23 O29 1.974 . S
Cu23 N34 1.985 . S
Cu23 O43 1.959 . S
N24 Cu23 1.999 . S
N24 C26 1.263 . S
N24 C28 1.389 . S
N25 C26 1.358 . S
N25 C27 1.400 . S
C26 N24 1.263 . S
C26 N25 1.358 . S
C26 H32 0.930 . S
C27 N25 1.400 . S
C27 C28 1.351 . S
C27 H44 0.930 . S
C28 N24 1.389 . S
C28 C27 1.351 . S
C28 H33 0.930 . S
O29 Cu23 1.974 . S
O29 C39 1.282 . S
C30 O31 1.261 . S
C30 O43 1.251 . S
O31 C30 1.261 . S
H32 C26 0.930 . S
H33 C28 0.930 . S
N34 Cu23 1.985 . S
N34 C36 1.335 . S
N34 C37 1.390 . S
N35 C36 1.345 . S
N35 C38 1.336 . S
C36 N34 1.335 . S
C36 N35 1.345 . S
C36 H41 0.930 . S
C37 N34 1.390 . S
C37 C38 1.346 . S
C37 H42 0.930 . S
C38 N35 1.336 . S
C38 C37 1.346 . S
C38 H45 0.929 . S
C39 O29 1.282 . S
C39 O40 1.216 . S
O40 C39 1.216 . S
H41 C36 0.930 . S
H42 C37 0.930 . S
O43 Cu23 1.959 . S
O43 C30 1.251 . S
H44 C27 0.930 . S
H45 C38 0.929 . S
Cu46 N47 1.999 . S
Cu46 O52 1.974 . S
Cu46 N57 1.985 . S
Cu46 O66 1.959 . S
N47 Cu46 1.999 . S
N47 C49 1.263 . S
N47 C51 1.389 . S
N48 C49 1.358 . S
N48 C50 1.400 . S
C49 N47 1.263 . S
C49 N48 1.358 . S
C49 H55 0.930 . S
C50 N48 1.400 . S
C50 C51 1.351 . S
C50 H67 0.930 . S
C51 N47 1.389 . S
C51 C50 1.351 . S
C51 H56 0.930 . S
O52 Cu46 1.974 . S
O52 C62 1.282 . S
C53 O54 1.261 . S
C53 O66 1.251 . S
O54 C53 1.261 . S
H55 C49 0.930 . S
H56 C51 0.930 . S
N57 Cu46 1.985 . S
N57 C59 1.335 . S
N57 C60 1.390 . S
N58 C59 1.345 . S
N58 C61 1.336 . S
C59 N57 1.335 . S
C59 N58 1.345 . S
C59 H64 0.930 . S
C60 N57 1.390 . S
C60 C61 1.346 . S
C60 H65 0.930 . S
C61 N58 1.336 . S
C61 C60 1.346 . S
C61 H68 0.929 . S
C62 O52 1.282 . S
C62 O63 1.216 . S
O63 C62 1.216 . S
H64 C59 0.930 . S
H65 C60 0.930 . S
O66 Cu46 1.959 . S
O66 C53 1.251 . S
H67 C50 0.930 . S
H68 C61 0.929 . S
Cu69 N70 1.999 . S
Cu69 O75 1.974 . S
Cu69 N80 1.985 1_556 S
Cu69 O89 1.959 1_556 S
N70 Cu69 1.999 . S
N70 C72 1.263 . S
N70 C74 1.389 . S
N71 C72 1.358 . S
N71 C73 1.400 . S
C72 N70 1.263 . S
C72 N71 1.358 . S
C72 H78 0.930 . S
C73 N71 1.400 . S
C73 C74 1.351 . S
C73 H90 0.930 . S
C74 N70 1.389 . S
C74 C73 1.351 . S
C74 H79 0.930 . S
O75 Cu69 1.974 . S
O75 C85 1.282 . S
C76 O77 1.261 . S
C76 O89 1.251 . S
O77 C76 1.261 . S
H78 C72 0.930 . S
H79 C74 0.930 . S
N80 Cu69 1.985 1_554 S
N80 C82 1.335 . S
N80 C83 1.390 . S
N81 C82 1.345 . S
N81 C84 1.336 . S
C82 N80 1.335 . S
C82 N81 1.345 . S
C82 H87 0.930 . S
C83 N80 1.390 . S
C83 C84 1.346 . S
C83 H88 0.930 . S
C84 N81 1.336 . S
C84 C83 1.346 . S
C84 H91 0.929 . S
C85 O75 1.282 . S
C85 O86 1.216 . S
O86 C85 1.216 . S
H87 C82 0.930 . S
H88 C83 0.930 . S
O89 Cu69 1.959 1_554 S
O89 C76 1.251 . S
H90 C73 0.930 . S
H91 C84 0.929 . S
Cu92 N93 1.999 . S
Cu92 O98 1.974 . S
Cu92 N103 1.985 . S
Cu92 O112 1.959 . S
N93 Cu92 1.999 . S
N93 C95 1.263 . S
N93 C97 1.389 . S
N94 C95 1.358 . S
N94 C96 1.400 . S
C95 N93 1.263 . S
C95 N94 1.358 . S
C95 H101 0.930 . S
C96 N94 1.400 . S
C96 C97 1.351 . S
C96 H113 0.930 . S
C97 N93 1.389 . S
C97 C96 1.351 . S
C97 H102 0.930 . S
O98 Cu92 1.974 . S
O98 C108 1.282 . S
C99 O100 1.261 . S
C99 O112 1.251 . S
O100 C99 1.261 . S
H101 C95 0.930 . S
H102 C97 0.930 . S
N103 Cu92 1.985 . S
N103 C105 1.335 . S
N103 C106 1.390 . S
N104 C105 1.345 . S
N104 C107 1.336 . S
C105 N103 1.335 . S
C105 N104 1.345 . S
C105 H110 0.930 . S
C106 N103 1.390 . S
C106 C107 1.346 . S
C106 H111 0.930 . S
C107 N104 1.336 . S
C107 C106 1.346 . S
C107 H114 0.929 . S
C108 O98 1.282 . S
C108 O109 1.216 . S
O109 C108 1.216 . S
H110 C105 0.930 . S
H111 C106 0.930 . S
O112 Cu92 1.959 . S
O112 C99 1.251 . S
H113 C96 0.930 . S
H114 C107 0.929 . S
Cu115 N116 1.999 . S
Cu115 O121 1.974 . S
Cu115 N126 1.985 . S
Cu115 O135 1.959 . S
N116 Cu115 1.999 . S
N116 C118 1.263 . S
N116 C120 1.389 . S
N117 C118 1.358 . S
N117 C119 1.400 . S
C118 N116 1.263 . S
C118 N117 1.358 . S
C118 H124 0.930 . S
C119 N117 1.400 . S
C119 C120 1.351 . S
C119 H136 0.930 . S
C120 N116 1.389 . S
C120 C119 1.351 . S
C120 H125 0.930 . S
O121 Cu115 1.974 . S
O121 C131 1.282 . S
C122 O123 1.261 . S
C122 O135 1.251 . S
O123 C122 1.261 . S
H124 C118 0.930 . S
H125 C120 0.930 . S
N126 Cu115 1.985 . S
N126 C128 1.335 . S
N126 C129 1.390 . S
N127 C128 1.345 . S
N127 C130 1.336 . S
C128 N126 1.335 . S
C128 N127 1.345 . S
C128 H133 0.930 . S
C129 N126 1.390 . S
C129 C130 1.346 . S
C129 H134 0.930 . S
C130 N127 1.336 . S
C130 C129 1.346 . S
C130 H137 0.929 . S
C131 O121 1.282 . S
C131 O132 1.216 . S
O132 C131 1.216 . S
H133 C128 0.930 . S
H134 C129 0.930 . S
O135 Cu115 1.959 . S
O135 C122 1.251 . S
H136 C119 0.930 . S
H137 C130 0.929 . S
C138 C139 1.369 . S
C138 C140 1.419 . S
C138 H142 0.930 . S
C139 C138 1.369 . S
C139 C148 1.429 . S
C140 C138 1.419 . S
C140 C141 1.363 . S
C140 H143 0.929 . S
C141 C140 1.363 . S
C141 C147 1.428 . S
H142 C138 0.930 . S
H143 C140 0.929 . S
S144 N145 1.613 . S
S144 N146 1.610 . S
N145 S144 1.613 . S
N145 C148 1.350 . S
N146 S144 1.610 . S
N146 C147 1.351 . S
C147 C141 1.428 . S
C147 N146 1.351 . S
C147 C148 1.434 . S
C148 C139 1.429 . S
C148 N145 1.350 . S
C148 C147 1.434 . S
C149 C150 1.369 . S
C149 C151 1.419 . S
C149 H153 0.930 . S
C150 C149 1.369 . S
C150 C159 1.429 . S
C151 C149 1.419 . S
C151 C152 1.363 1_655 S
C151 H154 0.929 . S
C152 C151 1.363 1_455 S
C152 C158 1.428 . S
H153 C149 0.930 . S
H154 C151 0.929 . S
S155 N156 1.613 . S
S155 N157 1.610 . S
N156 S155 1.613 . S
N156 C159 1.350 1_455 S
N157 S155 1.610 . S
N157 C158 1.351 . S
C158 C152 1.428 . S
C158 N157 1.351 . S
C158 C159 1.434 1_455 S
C159 C150 1.429 . S
C159 N156 1.350 1_655 S
C159 C158 1.434 1_655 S
C160 C161 1.369 . S
C160 C162 1.419 1_545 S
C160 H164 0.930 . S
C161 C160 1.369 . S
C161 C170 1.429 1_545 S
C162 C160 1.419 1_565 S
C162 C163 1.363 . S
C162 H165 0.929 . S
C163 C162 1.363 . S
C163 C169 1.428 . S
H164 C160 0.930 . S
H165 C162 0.929 . S
S166 N167 1.613 . S
S166 N168 1.610 . S
N167 S166 1.613 . S
N167 C170 1.350 . S
N168 S166 1.610 . S
N168 C169 1.351 . S
C169 C163 1.428 . S
C169 N168 1.351 . S
C169 C170 1.434 . S
C170 C161 1.429 1_565 S
C170 N167 1.350 . S
C170 C169 1.434 . S
C171 C172 1.369 . S
C171 C173 1.419 . S
C171 H175 0.930 . S
C172 C171 1.369 . S
C172 C181 1.429 . S
C173 C171 1.419 . S
C173 C174 1.363 . S
C173 H176 0.929 . S
C174 C173 1.363 . S
C174 C180 1.428 . S
H175 C171 0.930 . S
H176 C173 0.929 . S
S177 N178 1.613 . S
S177 N179 1.610 . S
N178 S177 1.613 . S
N178 C181 1.350 . S
N179 S177 1.610 . S
N179 C180 1.351 . S
C180 C174 1.428 . S
C180 N179 1.351 . S
C180 C181 1.434 . S
C181 C172 1.429 . S
C181 N178 1.350 . S
C181 C180 1.434 . S
C182 C183 1.369 . S
C182 C184 1.419 1_655 S
C182 H186 0.930 . S
C183 C182 1.369 . S
C183 C192 1.429 1_655 S
C184 C182 1.419 1_455 S
C184 C185 1.363 . S
C184 H187 0.929 . S
C185 C184 1.363 . S
C185 C191 1.428 . S
H186 C182 0.930 . S
H187 C184 0.929 . S
S188 N189 1.613 . S
S188 N190 1.610 . S
N189 S188 1.613 . S
N189 C192 1.350 . S
N190 S188 1.610 . S
N190 C191 1.351 . S
C191 C185 1.428 . S
C191 N190 1.351 . S
C191 C192 1.434 . S
C192 C183 1.429 1_455 S
C192 N189 1.350 . S
C192 C191 1.434 . S
C193 C194 1.369 . S
C193 C195 1.419 . S
C193 H197 0.930 . S
C194 C193 1.369 . S
C194 C203 1.429 . S
C195 C193 1.419 . S
C195 C196 1.363 1_545 S
C195 H198 0.929 . S
C196 C195 1.363 1_565 S
C196 C202 1.428 . S
H197 C193 0.930 . S
H198 C195 0.929 . S
S199 N200 1.613 1_565 S
S199 N201 1.610 . S
N200 S199 1.613 1_545 S
N200 C203 1.350 . S
N201 S199 1.610 . S
N201 C202 1.351 . S
C202 C196 1.428 . S
C202 N201 1.351 . S
C202 C203 1.434 1_565 S
C203 C194 1.429 . S
C203 N200 1.350 . S
C203 C202 1.434 1_545 S
C204 C205 1.369 . S
C204 C206 1.419 . S
C204 H208 0.930 . S
C205 C204 1.369 . S
C205 C214 1.429 . S
C206 C204 1.419 . S
C206 C207 1.363 . S
C206 H209 0.929 . S
C207 C206 1.363 . S
C207 C213 1.428 . S
H208 C204 0.930 . S
H209 C206 0.929 . S
S210 N211 1.613 . S
S210 N212 1.610 . S
N211 S210 1.613 . S
N211 C214 1.350 . S
N212 S210 1.610 . S
N212 C213 1.351 . S
C213 C207 1.428 . S
C213 N212 1.351 . S
C213 C214 1.434 . S
C214 C205 1.429 . S
C214 N211 1.350 . S
C214 C213 1.434 . S
C215 C216 1.369 . S
C215 C217 1.419 . S
C215 H219 0.930 . S
C216 C215 1.369 . S
C216 C225 1.429 . S
C217 C215 1.419 . S
C217 C218 1.363 . S
C217 H220 0.929 . S
C218 C217 1.363 . S
C218 C224 1.428 . S
H219 C215 0.930 . S
H220 C217 0.929 . S
S221 N222 1.613 . S
S221 N223 1.610 . S
N222 S221 1.613 . S
N222 C225 1.350 . S
N223 S221 1.610 . S
N223 C224 1.351 . S
C224 C218 1.428 . S
C224 N223 1.351 . S
C224 C225 1.434 . S
C225 C216 1.429 . S
C225 N222 1.350 . S
C225 C224 1.434 . S
C226 C227 1.369 . S
C226 C228 1.419 . S
C226 H230 0.930 . S
C227 C226 1.369 . S
C227 C236 1.429 . S
C228 C226 1.419 . S
C228 C229 1.363 . S
C228 H231 0.929 . S
C229 C228 1.363 . S
C229 C235 1.428 . S
H230 C226 0.930 . S
H231 C228 0.929 . S
S232 N233 1.613 . S
S232 N234 1.610 . S
N233 S232 1.613 . S
N233 C236 1.350 . S
N234 S232 1.610 . S
N234 C235 1.351 . S
C235 C229 1.428 . S
C235 N234 1.351 . S
C235 C236 1.434 . S
C236 C227 1.429 . S
C236 N233 1.350 . S
C236 C235 1.434 . S
C237 C238 1.369 . S
C237 C239 1.419 . S
C237 H241 0.930 . S
C238 C237 1.369 . S
C238 C247 1.429 . S
C239 C237 1.419 . S
C239 C240 1.363 . S
C239 H242 0.929 . S
C240 C239 1.363 . S
C240 C246 1.428 . S
H241 C237 0.930 . S
H242 C239 0.929 . S
S243 N244 1.613 . S
S243 N245 1.610 . S
N244 S243 1.613 . S
N244 C247 1.350 . S
N245 S243 1.610 . S
N245 C246 1.351 . S
C246 C240 1.428 . S
C246 N245 1.351 . S
C246 C247 1.434 . S
C247 C238 1.429 . S
C247 N244 1.350 . S
C247 C246 1.434 . S
C248 C249 1.369 . S
C248 C250 1.419 . S
C248 H252 0.930 . S
C249 C248 1.369 . S
C249 C258 1.429 . S
C250 C248 1.419 . S
C250 C251 1.363 . S
C250 H253 0.929 . S
C251 C250 1.363 . S
C251 C257 1.428 . S
H252 C248 0.930 . S
H253 C250 0.929 . S
S254 N255 1.613 . S
S254 N256 1.610 . S
N255 S254 1.613 . S
N255 C258 1.350 . S
N256 S254 1.610 . S
N256 C257 1.351 . S
C257 C251 1.428 . S
C257 N256 1.351 . S
C257 C258 1.434 . S
C258 C249 1.429 . S
C258 N255 1.350 . S
C258 C257 1.434 . S
C259 C260 1.369 . S
C259 C261 1.419 . S
C259 H263 0.930 . S
C260 C259 1.369 . S
C260 C269 1.429 . S
C261 C259 1.419 . S
C261 C262 1.363 . S
C261 H264 0.929 . S
C262 C261 1.363 . S
C262 C268 1.428 . S
H263 C259 0.930 . S
H264 C261 0.929 . S
S265 N266 1.613 . S
S265 N267 1.610 . S
N266 S265 1.613 . S
N266 C269 1.350 . S
N267 S265 1.610 . S
N267 C268 1.351 . S
C268 C262 1.428 . S
C268 N267 1.351 . S
C268 C269 1.434 . S
C269 C260 1.429 . S
C269 N266 1.350 . S
C269 C268 1.434 . S
C139 C16 1.467 . S
C141 N127 1.472 . S
C150 C39 1.465 . S
C152 N12 1.471 . S
C161 N35 1.472 . S
C163 C62 1.466 . S
C172 C85 1.467 . S
C174 N58 1.471 . S
C183 N81 1.471 . S
C185 C108 1.468 . S
C194 C131 1.465 . S
C196 N104 1.472 . S
C205 N94 1.420 . S
C207 C7 1.492 . S
C216 N117 1.425 . S
C218 C30 1.491 . S
C227 C53 1.493 . S
C229 N2 1.423 . S
C238 C76 1.492 . S
C240 N25 1.422 . S
C249 C99 1.494 . S
C251 N48 1.429 . S
C260 C122 1.490 . S
C262 N71 1.422 . S
