# Generated by pormake.
# Topology umz, (4)-cn, num edge types: 1
# Building blocks:
#     Node 0, Type 0, BuildingBlock: QUQFOY_clean_sbu_1, # of connection points: 4
#     Node 1, Type 0, BuildingBlock: QUQFOY_clean_sbu_1, # of connection points: 4
#     Node 2, Type 0, BuildingBlock: QUQFOY_clean_sbu_1, # of connection points: 4
#     Node 3, Type 0, BuildingBlock: QUQFOY_clean_sbu_1, # of connection points: 4
#     Node 4, Type 0, BuildingBlock: QUQFOY_clean_sbu_1, # of connection points: 4
#     Node 5, Type 0, BuildingBlock: QUQFOY_clean_sbu_1, # of connection points: 4
#     Node 6, Type 0, BuildingBlock: QUQFOY_clean_sbu_1, # of connection points: 4
#     Node 7, Type 0, BuildingBlock: QUQFOY_clean_sbu_1, # of connection points: 4
#     Node 8, Type 0, BuildingBlock: QUQFOY_clean_sbu_1, # of connection points: 4
#     Node 9, Type 0, BuildingBlock: QUQFOY_clean_sbu_1, # of connection points: 4
#     Node 10, Type 0, BuildingBlock: QUQFOY_clean_sbu_1, # of connection points: 4
#     Node 11, Type 0, BuildingBlock: QUQFOY_clean_sbu_1, # of connection points: 4
#     Node 12, Type 0, BuildingBlock: QUQFOY_clean_sbu_1, # of connection points: 4
#     Node 13, Type 0, BuildingBlock: QUQFOY_clean_sbu_1, # of connection points: 4
#     Node 14, Type 0, BuildingBlock: QUQFOY_clean_sbu_1, # of connection points: 4
#     Node 15, Type 0, BuildingBlock: QUQFOY_clean_sbu_1, # of connection points: 4
#     Edge 16, Type (0, 0), BuildingBlock: UVAHIK_clean_linker_0, # of connection points: 2
#     Edge 17, Type (0, 0), BuildingBlock: UVAHIK_clean_linker_0, # of connection points: 2
#     Edge 18, Type (0, 0), BuildingBlock: UVAHIK_clean_linker_0, # of connection points: 2
#     Edge 19, Type (0, 0), BuildingBlock: UVAHIK_clean_linker_0, # of connection points: 2
#     Edge 20, Type (0, 0), BuildingBlock: UVAHIK_clean_linker_0, # of connection points: 2
#     Edge 21, Type (0, 0), BuildingBlock: UVAHIK_clean_linker_0, # of connection points: 2
#     Edge 22, Type (0, 0), BuildingBlock: UVAHIK_clean_linker_0, # of connection points: 2
#     Edge 23, Type (0, 0), BuildingBlock: UVAHIK_clean_linker_0, # of connection points: 2
#     Edge 24, Type (0, 0), BuildingBlock: UVAHIK_clean_linker_0, # of connection points: 2
#     Edge 25, Type (0, 0), BuildingBlock: UVAHIK_clean_linker_0, # of connection points: 2
#     Edge 26, Type (0, 0), BuildingBlock: UVAHIK_clean_linker_0, # of connection points: 2
#     Edge 27, Type (0, 0), BuildingBlock: UVAHIK_clean_linker_0, # of connection points: 2
#     Edge 28, Type (0, 0), BuildingBlock: UVAHIK_clean_linker_0, # of connection points: 2
#     Edge 29, Type (0, 0), BuildingBlock: UVAHIK_clean_linker_0, # of connection points: 2
#     Edge 30, Type (0, 0), BuildingBlock: UVAHIK_clean_linker_0, # of connection points: 2
#     Edge 31, Type (0, 0), BuildingBlock: UVAHIK_clean_linker_0, # of connection points: 2
#     Edge 32, Type (0, 0), BuildingBlock: UVAHIK_clean_linker_0, # of connection points: 2
#     Edge 33, Type (0, 0), BuildingBlock: UVAHIK_clean_linker_0, # of connection points: 2
#     Edge 34, Type (0, 0), BuildingBlock: UVAHIK_clean_linker_0, # of connection points: 2
#     Edge 35, Type (0, 0), BuildingBlock: UVAHIK_clean_linker_0, # of connection points: 2
#     Edge 36, Type (0, 0), BuildingBlock: UVAHIK_clean_linker_0, # of connection points: 2
#     Edge 37, Type (0, 0), BuildingBlock: UVAHIK_clean_linker_0, # of connection points: 2
#     Edge 38, Type (0, 0), BuildingBlock: UVAHIK_clean_linker_0, # of connection points: 2
#     Edge 39, Type (0, 0), BuildingBlock: UVAHIK_clean_linker_0, # of connection points: 2
#     Edge 40, Type (0, 0), BuildingBlock: UVAHIK_clean_linker_0, # of connection points: 2
#     Edge 41, Type (0, 0), BuildingBlock: UVAHIK_clean_linker_0, # of connection points: 2
#     Edge 42, Type (0, 0), BuildingBlock: UVAHIK_clean_linker_0, # of connection points: 2
#     Edge 43, Type (0, 0), BuildingBlock: UVAHIK_clean_linker_0, # of connection points: 2
#     Edge 44, Type (0, 0), BuildingBlock: UVAHIK_clean_linker_0, # of connection points: 2
#     Edge 45, Type (0, 0), BuildingBlock: UVAHIK_clean_linker_0, # of connection points: 2
#     Edge 46, Type (0, 0), BuildingBlock: UVAHIK_clean_linker_0, # of connection points: 2
#     Edge 47, Type (0, 0), BuildingBlock: UVAHIK_clean_linker_0, # of connection points: 2
# Relax obj value: 0.234
# Max RMSD: 0.188
# Mean RMSD: 0.188
data_MOF--net-umz--node1-QUQFOY_clean_sbu_1--edge1-UVAHIK_clean_linker_0
_symmetry_space_group_name_H-M    P1
_symmetry_Int_Tables_number       1
_symmetry_cell_setting            triclinic
loop_
_symmetry_equiv_pos_as_xyz
'x, y, z'
_cell_length_a     82.616663
_cell_length_b     82.580087
_cell_length_c     28.120566
_cell_angle_alpha  90.009154
_cell_angle_beta   90.001929
_cell_angle_gamma 89.975259
loop_
_atom_site_label
_atom_site_type_symbol
_atom_site_fract_x
_atom_site_fract_y
_atom_site_fract_z
_atom_type_partial_charge
O0 O 0.03719 0.6348 0.05891 0.0
Cd1 Cd 0.02708 0.64572 0.11757 0.0
Cd2 Cd 0.00637 0.62197 0.11068 0.0
O3 O 0.01619 0.61924 0.04364 0.0
O4 O 0.03439 0.66863 0.11691 0.0
O5 O 0.00887 0.66128 0.10559 0.0
C6 C 0.01966 0.6726 0.10699 0.0
C7 C 0.97862 0.62074 0.12529 0.0
C8 C 0.03005 0.62468 0.03213 0.0
C9 C 0.02982 0.62099 0.19215 0.0
O10 O 0.02011 0.61307 0.16595 0.0
O11 O 0.0332 0.63562 0.18218 0.0
O12 O 0.98658 0.60824 0.11095 0.0
O13 O 0.98625 0.63433 0.1288 0.0
O14 O 0.86872 0.03646 0.55504 0.0
Cd15 Cd 0.85645 0.02789 0.61344 0.0
Cd16 Cd 0.88005 0.00643 0.61233 0.0
O17 O 0.8844 0.01521 0.54481 0.0
O18 O 0.83448 0.03733 0.60676 0.0
O19 O 0.83925 0.01098 0.60337 0.0
C20 C 0.82913 0.02286 0.59967 0.0
C21 C 0.88114 0.97885 0.62978 0.0
C22 C 0.87928 0.02892 0.53084 0.0
C23 C 0.88004 0.03132 0.69078 0.0
O24 O 0.88804 0.02089 0.66726 0.0
O25 O 0.86572 0.035 0.67825 0.0
O26 O 0.89383 0.98675 0.61685 0.0
O27 O 0.86746 0.98642 0.63057 0.0
O28 O 0.46279 0.86603 0.06178 0.0
Cd29 Cd 0.47343 0.85531 0.11992 0.0
Cd30 Cd 0.49408 0.87898 0.11121 0.0
O31 O 0.48377 0.88138 0.04468 0.0
O32 O 0.46627 0.83234 0.12036 0.0
O33 O 0.49163 0.83984 0.10691 0.0
C34 C 0.48094 0.82845 0.10939 0.0
C35 C 0.52192 0.88008 0.12375 0.0
C36 C 0.46979 0.876 0.03423 0.0
C37 C 0.47131 0.88031 0.19404 0.0
O38 O 0.48076 0.88819 0.16694 0.0
O39 O 0.46792 0.86564 0.1847 0.0
O40 O 0.51398 0.89254 0.109 0.0
O41 O 0.5142 0.86662 0.12921 0.0
O42 O 0.63297 0.46553 0.55596 0.0
Cd43 Cd 0.6445 0.47449 0.61518 0.0
Cd44 Cd 0.6209 0.49577 0.61195 0.0
O45 O 0.6171 0.48658 0.5446 0.0
O46 O 0.6667 0.46537 0.61185 0.0
O47 O 0.66155 0.49161 0.60634 0.0
C48 C 0.67193 0.4799 0.60501 0.0
C49 C 0.62024 0.52345 0.62756 0.0
C50 C 0.62246 0.4729 0.53111 0.0
C51 C 0.6202 0.47137 0.6912 0.0
O52 O 0.61232 0.48172 0.66701 0.0
O53 O 0.63458 0.46764 0.6794 0.0
O54 O 0.6075 0.51577 0.61402 0.0
O55 O 0.63372 0.51558 0.63037 0.0
O56 O 0.03834 0.86563 0.93357 0.0
Cd57 Cd 0.02803 0.85468 0.87529 0.0
Cd58 Cd 0.00728 0.87838 0.8822 0.0
O59 O 0.01726 0.88105 0.94906 0.0
O60 O 0.03512 0.8317 0.87604 0.0
O61 O 0.0097 0.83934 0.88786 0.0
C62 C 0.02038 0.8279 0.88634 0.0
C63 C 0.97947 0.87982 0.8692 0.0
C64 C 0.03118 0.87571 0.96039 0.0
C65 C 0.0306 0.87935 0.80047 0.0
O66 O 0.02091 0.8873 0.82669 0.0
O67 O 0.03399 0.86473 0.81051 0.0
O68 O 0.98756 0.89222 0.88348 0.0
O69 O 0.98702 0.86622 0.86423 0.0
O70 O 0.63198 0.0367 0.43741 0.0
Cd71 Cd 0.64413 0.02759 0.37942 0.0
Cd72 Cd 0.62039 0.00631 0.3815 0.0
O73 O 0.61585 0.01581 0.44806 0.0
O74 O 0.66624 0.03684 0.38434 0.0
O75 O 0.66122 0.01058 0.38993 0.0
C76 C 0.67151 0.02235 0.39174 0.0
C77 C 0.61954 0.97859 0.36595 0.0
C78 C 0.62116 0.02951 0.46153 0.0
C79 C 0.62065 0.03034 0.30113 0.0
O80 O 0.61254 0.02013 0.32508 0.0
O81 O 0.63488 0.03418 0.3141 0.0
O82 O 0.60676 0.9865 0.37815 0.0
O83 O 0.63317 0.98624 0.36509 0.0
O84 O 0.46262 0.63486 0.93278 0.0
Cd85 Cd 0.47291 0.64634 0.87533 0.0
Cd86 Cd 0.49377 0.62264 0.88116 0.0
O87 O 0.48362 0.61922 0.94748 0.0
O88 O 0.46556 0.66923 0.87748 0.0
O89 O 0.49106 0.6618 0.88894 0.0
C90 C 0.48026 0.67313 0.88801 0.0
C91 C 0.5216 0.62146 0.86772 0.0
C92 C 0.46969 0.6245 0.95893 0.0
C93 C 0.47071 0.62229 0.79867 0.0
O94 O 0.48038 0.61421 0.82458 0.0
O95 O 0.46713 0.63678 0.80973 0.0
O96 O 0.51354 0.60887 0.88075 0.0
O97 O 0.51401 0.63511 0.8649 0.0
O98 O 0.86828 0.46393 0.43506 0.0
Cd99 Cd 0.85581 0.47319 0.37797 0.0
Cd100 Cd 0.8793 0.49457 0.37994 0.0
O101 O 0.88393 0.48511 0.44654 0.0
O102 O 0.83369 0.46413 0.38491 0.0
O103 O 0.83902 0.49035 0.39017 0.0
C104 C 0.82869 0.47865 0.39343 0.0
C105 C 0.88011 0.5223 0.36519 0.0
C106 C 0.87892 0.47125 0.45951 0.0
C107 C 0.87901 0.47051 0.29943 0.0
O108 O 0.88712 0.4807 0.32353 0.0
O109 O 0.86475 0.46671 0.31221 0.0
O110 O 0.89291 0.5144 0.37711 0.0
O111 O 0.8665 0.51464 0.36356 0.0
O112 O 0.96283 0.36793 0.93376 0.0
Cd113 Cd 0.97261 0.35581 0.87675 0.0
Cd114 Cd 0.99392 0.37936 0.88101 0.0
O115 O 0.98394 0.3835 0.94721 0.0
O116 O 0.96381 0.33354 0.8823 0.0
O117 O 0.98989 0.33922 0.88957 0.0
C118 C 0.97831 0.32871 0.89174 0.0
C119 C 0.02177 0.38055 0.86851 0.0
C120 C 0.97001 0.3784 0.95919 0.0
C121 C 0.97054 0.37935 0.79881 0.0
O122 O 0.9805 0.38739 0.82388 0.0
O123 O 0.96666 0.36503 0.8109 0.0
O124 O 0.01362 0.3932 0.88043 0.0
O125 O 0.01427 0.36688 0.86554 0.0
O126 O 0.13357 0.96313 0.43655 0.0
Cd127 Cd 0.14506 0.97218 0.37739 0.0
Cd128 Cd 0.12116 0.9931 0.38003 0.0
O129 O 0.11744 0.984 0.44749 0.0
O130 O 0.16738 0.96337 0.38103 0.0
O131 O 0.16187 0.98955 0.3863 0.0
C132 C 0.17241 0.97798 0.38778 0.0
C133 C 0.12015 0.02078 0.36446 0.0
C134 C 0.12295 0.97041 0.46121 0.0
C135 C 0.12095 0.96855 0.30113 0.0
O136 O 0.11287 0.97881 0.32508 0.0
O137 O 0.13538 0.96509 0.31311 0.0
O138 O 0.10748 0.01291 0.3777 0.0
O139 O 0.13374 0.0131 0.36176 0.0
O140 O 0.53707 0.13268 0.93473 0.0
Cd141 Cd 0.52749 0.14515 0.87808 0.0
Cd142 Cd 0.50594 0.1217 0.88116 0.0
O143 O 0.51593 0.11705 0.94705 0.0
O144 O 0.53667 0.16724 0.88438 0.0
O145 O 0.51049 0.16201 0.89117 0.0
C146 C 0.52224 0.17231 0.8937 0.0
C147 C 0.47807 0.12069 0.86898 0.0
C148 C 0.52985 0.12205 0.95945 0.0
C149 C 0.5294 0.12195 0.79911 0.0
O150 O 0.51928 0.1139 0.82359 0.0
O151 O 0.53347 0.13614 0.81198 0.0
O152 O 0.4862 0.10793 0.88004 0.0
O153 O 0.48561 0.13435 0.86662 0.0
O154 O 0.36836 0.53828 0.43397 0.0
Cd155 Cd 0.35584 0.52907 0.3769 0.0
Cd156 Cd 0.37942 0.50772 0.3783 0.0
O157 O 0.3841 0.51712 0.44493 0.0
O158 O 0.33376 0.5382 0.38413 0.0
O159 O 0.33901 0.51196 0.38913 0.0
C160 C 0.32872 0.5237 0.39258 0.0
C161 C 0.38037 0.47997 0.36381 0.0
C162 C 0.37906 0.53094 0.45818 0.0
C163 C 0.37893 0.53192 0.2981 0.0
O164 O 0.3871 0.52169 0.32188 0.0
O165 O 0.36467 0.53567 0.31115 0.0
O166 O 0.39315 0.48796 0.37532 0.0
O167 O 0.36672 0.48757 0.36224 0.0
O168 O 0.96426 0.13371 0.05522 0.0
Cd169 Cd 0.97349 0.14492 0.11462 0.0
Cd170 Cd 0.99464 0.12119 0.10943 0.0
O171 O 0.98518 0.11781 0.04223 0.0
O172 O 0.96462 0.16724 0.11232 0.0
O173 O 0.99077 0.16181 0.10572 0.0
C174 C 0.97917 0.17232 0.10507 0.0
C175 C 0.02235 0.12007 0.12481 0.0
C176 C 0.97148 0.12333 0.02953 0.0
C177 C 0.97063 0.12032 0.18978 0.0
O178 O 0.98077 0.11251 0.16472 0.0
O179 O 0.96689 0.13477 0.17877 0.0
O180 O 0.01443 0.10749 0.11099 0.0
O181 O 0.0147 0.13369 0.12748 0.0
O182 O 0.36853 0.96339 0.55882 0.0
Cd183 Cd 0.35586 0.97194 0.61653 0.0
Cd184 Cd 0.37942 0.99329 0.61716 0.0
O185 O 0.3842 0.98469 0.5497 0.0
O186 O 0.33387 0.96275 0.60808 0.0
O187 O 0.33893 0.98906 0.60562 0.0
C188 C 0.32873 0.9773 0.6009 0.0
C189 C 0.38043 0.02088 0.63471 0.0
C190 C 0.37921 0.97098 0.53527 0.0
C191 C 0.37885 0.96821 0.69512 0.0
O192 O 0.38702 0.97866 0.67223 0.0
O193 O 0.36459 0.96464 0.68177 0.0
O194 O 0.3932 0.01294 0.62267 0.0
O195 O 0.36674 0.01333 0.6348 0.0
O196 O 0.53708 0.36823 0.05598 0.0
Cd197 Cd 0.52818 0.35668 0.11526 0.0
Cd198 Cd 0.50679 0.38029 0.11174 0.0
O199 O 0.51605 0.38412 0.04453 0.0
O200 O 0.5372 0.33444 0.11183 0.0
O201 O 0.51099 0.3397 0.10648 0.0
C202 C 0.52265 0.32927 0.10506 0.0
C203 C 0.47908 0.38131 0.12731 0.0
C204 C 0.52972 0.37873 0.03108 0.0
C205 C 0.53111 0.38094 0.19143 0.0
O206 O 0.52074 0.38875 0.16716 0.0
O207 O 0.53498 0.3666 0.17955 0.0
O208 O 0.48699 0.39397 0.11413 0.0
O209 O 0.48674 0.36769 0.12938 0.0
O210 O 0.13279 0.53722 0.55511 0.0
Cd211 Cd 0.14455 0.52877 0.61462 0.0
Cd212 Cd 0.12079 0.50758 0.61352 0.0
O213 O 0.11677 0.51619 0.54566 0.0
O214 O 0.16671 0.53791 0.6099 0.0
O215 O 0.16165 0.51161 0.60662 0.0
C216 C 0.17198 0.52334 0.60413 0.0
C217 C 0.11972 0.48002 0.63136 0.0
C218 C 0.12215 0.52973 0.53109 0.0
C219 C 0.12057 0.53273 0.691 0.0
O220 O 0.11258 0.52222 0.66778 0.0
O221 O 0.13493 0.53626 0.67861 0.0
O222 O 0.10705 0.48787 0.61797 0.0
O223 O 0.13337 0.48765 0.6325 0.0
C224 C 0.00279 0.69262 0.06206 0.0
C225 C 0.01582 0.68939 0.09276 0.0
C226 C 0.00108 0.70793 0.04123 0.0
C227 C 0.02666 0.7431 0.01013 0.0
H228 H 0.986 0.7629 0.97339 0.0
C229 C 0.00337 0.80811 0.93165 0.0
C230 C 0.0164 0.81117 0.90084 0.0
C231 C 0.00151 0.79285 0.95264 0.0
C232 C 0.99746 0.75758 0.98364 0.0
H233 H 0.0364 0.69994 0.12902 0.0
H234 H 0.03303 0.72676 0.09459 0.0
H235 H 0.98587 0.73807 0.02065 0.0
H236 H 0.03686 0.80036 0.86459 0.0
H237 H 0.03325 0.77362 0.8993 0.0
H238 H 0.03831 0.76275 0.97497 0.0
C239 C 0.02451 0.71736 0.08485 0.0
C240 C 0.99739 0.74326 0.01039 0.0
C241 C 0.02637 0.70203 0.105 0.0
C242 C 0.02682 0.79841 0.88868 0.0
C243 C 0.02482 0.78312 0.90899 0.0
C244 C 0.02674 0.75741 0.98386 0.0
C245 C 0.01225 0.72034 0.05119 0.0
C246 C 0.01201 0.73585 0.02403 0.0
C247 C 0.01255 0.7803 0.94272 0.0
C248 C 0.01216 0.76482 0.96997 0.0
H249 H 0.99451 0.68307 0.05183 0.0
H250 H 0.99153 0.70973 0.01539 0.0
H251 H 0.03819 0.73763 0.01899 0.0
H252 H 0.99518 0.81776 0.94182 0.0
H253 H 0.99196 0.79118 0.97853 0.0
C254 C 0.69922 0.03293 0.40829 0.0
C255 C 0.68862 0.01968 0.40534 0.0
C256 C 0.71487 0.03099 0.42592 0.0
C257 C 0.73928 0.00436 0.50311 0.0
H258 H 0.77416 0.03135 0.45595 0.0
C259 C 0.80633 0.00471 0.57342 0.0
C260 C 0.81232 0.02033 0.58298 0.0
C261 C 0.7912 0.0027 0.55158 0.0
C262 C 0.76452 0.02374 0.46947 0.0
H263 H 0.68635 0.99383 0.41714 0.0
H264 H 0.71394 0.99036 0.44728 0.0
H265 H 0.74842 0.03081 0.41383 0.0
H266 H 0.80681 0.046 0.57902 0.0
H267 H 0.78067 0.04245 0.54068 0.0
H268 H 0.75565 0.99732 0.55881 0.0
C269 C 0.70999 0.00232 0.4366 0.0
C270 C 0.74976 0.02345 0.44547 0.0
C271 C 0.69424 0.00428 0.41898 0.0
C272 C 0.80262 0.03381 0.57205 0.0
C273 C 0.78768 0.0318 0.5498 0.0
C274 C 0.75419 0.00451 0.52687 0.0
C275 C 0.72043 0.01571 0.44085 0.0
C276 C 0.73677 0.01415 0.46273 0.0
C277 C 0.78198 0.01628 0.53841 0.0
C278 C 0.76677 0.01456 0.51095 0.0
H279 H 0.6953 0.04497 0.39828 0.0
H280 H 0.72242 0.04164 0.42939 0.0
H281 H 0.72952 0.99714 0.51761 0.0
H282 H 0.81352 0.99409 0.58144 0.0
H283 H 0.78701 0.9906 0.54324 0.0
C284 C 0.49764 0.80844 0.06389 0.0
C285 C 0.48478 0.81165 0.09521 0.0
C286 C 0.49933 0.7931 0.04324 0.0
C287 C 0.47381 0.75768 0.01408 0.0
H288 H 0.5144 0.73819 0.97522 0.0
C289 C 0.4972 0.69292 0.9336 0.0
C290 C 0.48407 0.68983 0.90319 0.0
C291 C 0.499 0.70814 0.95494 0.0
C292 C 0.50296 0.74342 0.98609 0.0
H293 H 0.46449 0.80105 0.13273 0.0
H294 H 0.46783 0.77418 0.09859 0.0
H295 H 0.51462 0.76305 0.02236 0.0
H296 H 0.46332 0.70055 0.8681 0.0
H297 H 0.46682 0.72721 0.90346 0.0
H298 H 0.4621 0.73792 0.97961 0.0
C299 C 0.47623 0.7836 0.08825 0.0
C300 C 0.50309 0.75776 0.01277 0.0
C301 C 0.47439 0.79897 0.10822 0.0
C302 C 0.47345 0.70253 0.89188 0.0
C303 C 0.47538 0.71777 0.91255 0.0
C304 C 0.47369 0.74336 0.98789 0.0
C305 C 0.4883 0.78063 0.05402 0.0
C306 C 0.48849 0.76507 0.02711 0.0
C307 C 0.4878 0.72061 0.9458 0.0
C308 C 0.48823 0.73606 0.9732 0.0
H309 H 0.5058 0.81802 0.05306 0.0
H310 H 0.50873 0.79131 0.01694 0.0
H311 H 0.4623 0.76307 0.02352 0.0
H312 H 0.50554 0.68333 0.94311 0.0
H313 H 0.50867 0.70984 0.98045 0.0
C314 C 0.69981 0.4695 0.58991 0.0
C315 C 0.68909 0.48268 0.59221 0.0
C316 C 0.71547 0.47149 0.57245 0.0
C317 C 0.73955 0.49796 0.49405 0.0
H318 H 0.77464 0.47112 0.54083 0.0
C319 C 0.8063 0.49707 0.42115 0.0
C320 C 0.81204 0.48139 0.4112 0.0
C321 C 0.79134 0.49927 0.44381 0.0
C322 C 0.76494 0.4787 0.52745 0.0
H323 H 0.68664 0.50848 0.57967 0.0
H324 H 0.71425 0.51204 0.54984 0.0
H325 H 0.74907 0.47184 0.58385 0.0
H326 H 0.80626 0.45578 0.4155 0.0
H327 H 0.78042 0.45965 0.45535 0.0
H328 H 0.7557 0.50478 0.43756 0.0
C329 C 0.71038 0.50009 0.56086 0.0
C330 C 0.75028 0.47909 0.55196 0.0
C331 C 0.69462 0.49807 0.57832 0.0
C332 C 0.80226 0.46803 0.4227 0.0
C333 C 0.78749 0.47022 0.44582 0.0
C334 C 0.75437 0.49773 0.4698 0.0
C335 C 0.72092 0.48675 0.55704 0.0
C336 C 0.73721 0.48831 0.5348 0.0
C337 C 0.78205 0.48581 0.45748 0.0
C338 C 0.76701 0.48772 0.48558 0.0
H339 H 0.69595 0.45746 0.60016 0.0
H340 H 0.72309 0.46087 0.56934 0.0
H341 H 0.72973 0.50511 0.4796 0.0
H342 H 0.81356 0.50761 0.41271 0.0
H343 H 0.78734 0.51142 0.45236 0.0
C344 C 0.96782 0.30215 0.9204 0.0
C345 C 0.98113 0.31207 0.90949 0.0
C346 C 0.97004 0.28743 0.94374 0.0
C347 C 0.99746 0.25448 0.96908 0.0
H348 H 0.97163 0.24958 0.08339 0.0
C349 C 0.9975 0.19487 0.07824 0.0
C350 C 0.98209 0.18948 0.0924 0.0
C351 C 0.99962 0.21062 0.0607 0.0
C352 C 0.97886 0.25067 0.05142 0.0
H353 H 0.00732 0.31387 0.91221 0.0
H354 H 0.01119 0.2877 0.95218 0.0
H355 H 0.97097 0.27504 0.03973 0.0
H356 H 0.95697 0.19657 0.1008 0.0
H357 H 0.96055 0.22367 0.06979 0.0
H358 H 0.00474 0.22983 0.97934 0.0
C359 C 0.99905 0.29157 0.94303 0.0
C360 C 0.97852 0.26528 0.02658 0.0
C361 C 0.99682 0.3065 0.92018 0.0
C362 C 0.96901 0.20032 0.09034 0.0
C363 C 0.9711 0.21596 0.07277 0.0
C364 C 0.99765 0.23972 0.99365 0.0
C365 C 0.98562 0.28215 0.95616 0.0
C366 C 0.98751 0.2672 0.98463 0.0
C367 C 0.98637 0.22127 0.05702 0.0
C368 C 0.98801 0.23752 0.0345 0.0
H369 H 0.95558 0.30603 0.91264 0.0
H370 H 0.95951 0.28026 0.9529 0.0
H371 H 0.0045 0.2557 0.93677 0.0
H372 H 0.00783 0.1868 0.07941 0.0
H373 H 0.01158 0.21437 0.04945 0.0
C374 C 0.30625 0.99577 0.57409 0.0
C375 C 0.31211 0.98005 0.58296 0.0
C376 C 0.29133 0.99803 0.55121 0.0
C377 C 0.26539 0.97796 0.46534 0.0
H378 H 0.22968 0.00335 0.51469 0.0
C379 C 0.20048 0.96802 0.4022 0.0
C380 C 0.18952 0.98101 0.40062 0.0
C381 C 0.21611 0.97019 0.41972 0.0
C382 C 0.23964 0.9965 0.49983 0.0
H383 H 0.30658 0.95444 0.57654 0.0
H384 H 0.28083 0.95843 0.53635 0.0
H385 H 0.25558 0.00306 0.55711 0.0
H386 H 0.1866 0.00667 0.41451 0.0
H387 H 0.21414 0.01056 0.44453 0.0
H388 H 0.24971 0.97132 0.40822 0.0
C389 C 0.28777 0.96897 0.54687 0.0
C390 C 0.25442 0.99628 0.52429 0.0
C391 C 0.30248 0.96671 0.57018 0.0
C392 C 0.19477 0.99642 0.41528 0.0
C393 C 0.2105 0.99861 0.43284 0.0
C394 C 0.25076 0.97832 0.44066 0.0
C395 C 0.28221 0.98461 0.53627 0.0
C396 C 0.26724 0.98661 0.50795 0.0
C397 C 0.22127 0.98545 0.43595 0.0
C398 C 0.23752 0.98716 0.45836 0.0
H399 H 0.31339 0.00629 0.58352 0.0
H400 H 0.28724 0.01022 0.5435 0.0
H401 H 0.27522 0.97064 0.45155 0.0
H402 H 0.19684 0.95597 0.39132 0.0
H403 H 0.22393 0.9597 0.42225 0.0
C404 C 0.50409 0.1948 0.92229 0.0
C405 C 0.51968 0.18899 0.91153 0.0
C406 C 0.5021 0.2098 0.94497 0.0
C407 C 0.52328 0.2362 0.0273 0.0
H408 H 0.49668 0.27147 0.98067 0.0
C409 C 0.53293 0.30136 0.08939 0.0
C410 C 0.51979 0.31211 0.09226 0.0
C411 C 0.53083 0.2857 0.07197 0.0
C412 C 0.5039 0.26163 0.99479 0.0
H413 H 0.54533 0.19467 0.91443 0.0
H414 H 0.54181 0.22056 0.95432 0.0
H415 H 0.49669 0.24547 0.93875 0.0
H416 H 0.49395 0.31461 0.08076 0.0
H417 H 0.4902 0.287 0.05105 0.0
H418 H 0.53052 0.2521 0.08328 0.0
C419 C 0.53117 0.21352 0.9454 0.0
C420 C 0.50394 0.24679 0.9706 0.0
C421 C 0.53315 0.19873 0.92226 0.0
C422 C 0.50433 0.30661 0.07896 0.0
C423 C 0.5022 0.29085 0.06157 0.0
C424 C 0.52308 0.25089 0.05176 0.0
C425 C 0.51567 0.21905 0.95784 0.0
C426 C 0.514 0.23413 0.98593 0.0
C427 C 0.5155 0.28028 0.05718 0.0
C428 C 0.51379 0.26398 0.03503 0.0
H429 H 0.49348 0.18758 0.91446 0.0
H430 H 0.49002 0.21386 0.95413 0.0
H431 H 0.53091 0.22649 0.04033 0.0
H432 H 0.54502 0.3052 0.09917 0.0
H433 H 0.54141 0.27806 0.06841 0.0
C434 C 0.3023 0.53441 0.4217 0.0
C435 C 0.31207 0.52101 0.41045 0.0
C436 C 0.28755 0.53229 0.44491 0.0
C437 C 0.25444 0.50484 0.46968 0.0
H438 H 0.24909 0.53122 0.58278 0.0
C439 C 0.19468 0.50502 0.57823 0.0
C440 C 0.18913 0.52049 0.59134 0.0
C441 C 0.21044 0.50291 0.56085 0.0
C442 C 0.25032 0.52383 0.55116 0.0
H443 H 0.31359 0.49479 0.41251 0.0
H444 H 0.28739 0.4911 0.45234 0.0
H445 H 0.27467 0.53174 0.53981 0.0
H446 H 0.19596 0.54575 0.598 0.0
H447 H 0.22311 0.54217 0.56737 0.0
H448 H 0.22981 0.49749 0.47971 0.0
C449 C 0.29139 0.50323 0.44352 0.0
C450 C 0.26499 0.5241 0.52668 0.0
C451 C 0.30634 0.50536 0.42075 0.0
C452 C 0.19983 0.53366 0.58834 0.0
C453 C 0.2155 0.53157 0.571 0.0
C454 C 0.23962 0.50471 0.49392 0.0
C455 C 0.2821 0.51673 0.45693 0.0
C456 C 0.26707 0.51492 0.48512 0.0
C457 C 0.22096 0.51622 0.55638 0.0
C458 C 0.23726 0.51453 0.5343 0.0
H459 H 0.3063 0.54664 0.41422 0.0
H460 H 0.28048 0.54289 0.45423 0.0
H461 H 0.25578 0.49766 0.43769 0.0
H462 H 0.18671 0.49462 0.58012 0.0
H463 H 0.21432 0.49089 0.55043 0.0
C464 C 0.0319 0.60509 0.96433 0.0
C465 C 0.03868 0.61789 0.99053 0.0
C466 C 0.04097 0.59713 0.92953 0.0
C467 C 0.0833 0.58852 0.89782 0.0
H468 H 0.0643 0.57213 0.78134 0.0
C469 C 0.12001 0.55525 0.75108 0.0
C470 C 0.11245 0.54187 0.72953 0.0
C471 C 0.1115 0.56499 0.78324 0.0
C472 C 0.06973 0.57651 0.81393 0.0
H473 H 0.06004 0.63294 -0.00115 0.0
H474 H 0.07575 0.61918 0.93765 0.0
H475 H 0.04821 0.58923 0.83385 0.0
H476 H 0.09028 0.52779 0.72671 0.0
H477 H 0.07559 0.54463 0.78299 0.0
H478 H 0.1048 0.57569 0.8779 0.0
C479 C 0.06353 0.61509 0.94472 0.0
C480 C 0.06053 0.58632 0.84397 0.0
C481 C 0.05446 0.62306 0.97954 0.0
C482 C 0.09645 0.53807 0.74232 0.0
C483 C 0.08797 0.5478 0.77432 0.0
C484 C 0.09252 0.57872 0.86768 0.0
C485 C 0.05702 0.60181 0.92008 0.0
C486 C 0.06714 0.5923 0.88651 0.0
C487 C 0.09527 0.56155 0.79437 0.0
C488 C 0.08577 0.57244 0.82572 0.0
H489 H 0.01979 0.60077 0.97191 0.0
H490 H 0.03562 0.58685 0.91146 0.0
H491 H 0.08868 0.59274 0.93066 0.0
H492 H 0.13232 0.55852 0.74198 0.0
H493 H 0.11745 0.57553 0.79806 0.0
C494 C 0.96683 0.09617 0.24222 0.0
C495 C 0.96221 0.11195 0.22921 0.0
C496 C 0.95786 0.08745 0.27553 0.0
C497 C 0.9169 0.0848 0.32542 0.0
H498 H 0.93741 0.05711 0.41908 0.0
C499 C 0.8818 0.05261 0.47591 0.0
C500 C 0.88693 0.03706 0.48968 0.0
C501 C 0.89046 0.06141 0.44203 0.0
C502 C 0.9315 0.0646 0.39265 0.0
H503 H 0.94486 0.13116 0.24241 0.0
H504 H 0.92925 0.11592 0.30104 0.0
H505 H 0.95408 0.07393 0.36742 0.0
H506 H 0.90469 0.01821 0.47663 0.0
H507 H 0.91966 0.0335 0.41688 0.0
H508 H 0.89431 0.07544 0.35064 0.0
C509 C 0.93971 0.11026 0.28486 0.0
C510 C 0.94105 0.07429 0.36322 0.0
C511 C 0.94873 0.11903 0.25159 0.0
C512 C 0.90044 0.03018 0.467 0.0
C513 C 0.90911 0.03899 0.43308 0.0
C514 C 0.90734 0.07509 0.35485 0.0
C515 C 0.94403 0.09428 0.29659 0.0
C516 C 0.93386 0.08448 0.32921 0.0
C517 C 0.90444 0.05485 0.42107 0.0
C518 C 0.91454 0.06485 0.38874 0.0
H519 H 0.97716 0.09035 0.22574 0.0
H520 H 0.96144 0.07512 0.2835 0.0
H521 H 0.91101 0.09231 0.29902 0.0
H522 H 0.87143 0.05828 0.49261 0.0
H523 H 0.88658 0.07362 0.4338 0.0
C524 C 0.46758 0.89542 0.96614 0.0
C525 C 0.4609 0.88272 0.99299 0.0
C526 C 0.45833 0.90334 0.93169 0.0
C527 C 0.41583 0.91199 0.90158 0.0
H528 H 0.43451 0.9284 0.7847 0.0
C529 C 0.37909 0.94565 0.75514 0.0
C530 C 0.38673 0.95908 0.73409 0.0
C531 C 0.3875 0.93582 0.78731 0.0
C532 C 0.42916 0.92401 0.8174 0.0
H533 H 0.43953 0.86781 0.00285 0.0
H534 H 0.42349 0.88148 0.94215 0.0
H535 H 0.45068 0.91117 0.83654 0.0
H536 H 0.4089 0.97318 0.73236 0.0
H537 H 0.42342 0.95617 0.78852 0.0
H538 H 0.3943 0.92492 0.88229 0.0
C539 C 0.43577 0.88552 0.94848 0.0
C540 C 0.43842 0.91412 0.84707 0.0
C541 C 0.44502 0.87761 0.983 0.0
C542 C 0.40267 0.96287 0.74754 0.0
C543 C 0.41106 0.95304 0.77947 0.0
C544 C 0.40653 0.92185 0.87176 0.0
C545 C 0.4422 0.89871 0.92317 0.0
C546 C 0.43195 0.90817 0.88982 0.0
C547 C 0.40371 0.93921 0.79886 0.0
C548 C 0.41319 0.92815 0.82972 0.0
H549 H 0.47975 0.89969 0.97297 0.0
H550 H 0.46361 0.91354 0.91316 0.0
H551 H 0.41054 0.90779 0.93458 0.0
H552 H 0.36682 0.94239 0.74554 0.0
H553 H 0.38153 0.92523 0.8017 0.0
C554 C 0.535 0.40493 0.24442 0.0
C555 C 0.53962 0.3892 0.2309 0.0
C556 C 0.54405 0.41358 0.27772 0.0
C557 C 0.58514 0.41613 0.32708 0.0
H558 H 0.56472 0.44397 0.42057 0.0
C559 C 0.62022 0.44896 0.4769 0.0
C560 C 0.61503 0.46457 0.48993 0.0
C561 C 0.61163 0.43997 0.44325 0.0
C562 C 0.5706 0.43642 0.39421 0.0
H563 H 0.55704 0.36998 0.24324 0.0
H564 H 0.57277 0.38508 0.30193 0.0
H565 H 0.54801 0.42703 0.36939 0.0
H566 H 0.59727 0.48332 0.47568 0.0
H567 H 0.58243 0.46769 0.41645 0.0
H568 H 0.60775 0.42554 0.35201 0.0
C569 C 0.56226 0.39078 0.28611 0.0
C570 C 0.56102 0.42667 0.36503 0.0
C571 C 0.55317 0.38209 0.2528 0.0
C572 C 0.60156 0.47131 0.46666 0.0
C573 C 0.59296 0.4623 0.43303 0.0
C574 C 0.59473 0.42589 0.35633 0.0
C575 C 0.55794 0.40672 0.29834 0.0
C576 C 0.56817 0.41647 0.33098 0.0
C577 C 0.59766 0.44638 0.42187 0.0
C578 C 0.58756 0.4362 0.39005 0.0
H579 H 0.52463 0.41078 0.22831 0.0
H580 H 0.54047 0.42588 0.28602 0.0
H581 H 0.591 0.40859 0.30068 0.0
H582 H 0.63056 0.44339 0.49407 0.0
H583 H 0.61553 0.42772 0.4356 0.0
C584 C 0.12063 0.94642 0.23986 0.0
C585 C 0.11289 0.95952 0.26228 0.0
C586 C 0.1122 0.93669 0.20751 0.0
C587 C 0.07057 0.92447 0.17786 0.0
H588 H 0.08944 0.9089 0.06023 0.0
C589 C 0.03285 0.89526 0.02834 0.0
C590 C 0.03982 0.88264 0.00177 0.0
C591 C 0.04187 0.90339 0.0629 0.0
C592 C 0.08409 0.91294 0.09332 0.0
H593 H 0.09045 0.97316 0.26642 0.0
H594 H 0.0759 0.95635 0.20977 0.0
H595 H 0.10537 0.9262 0.11277 0.0
H596 H 0.0615 0.8681 0.99255 0.0
H597 H 0.07713 0.88215 0.05335 0.0
H598 H 0.04928 0.9113 0.15842 0.0
C599 C 0.08837 0.95338 0.21792 0.0
C600 C 0.0932 0.92289 0.12332 0.0
C601 C 0.09677 0.96309 0.25012 0.0
C602 C 0.05577 0.87782 0.01217 0.0
C603 C 0.06479 0.88596 0.04675 0.0
C604 C 0.06148 0.91451 0.14794 0.0
C605 C 0.09587 0.93987 0.19704 0.0
C606 C 0.08647 0.92891 0.16564 0.0
C607 C 0.05806 0.89907 0.07174 0.0
C608 C 0.06807 0.90876 0.1051 0.0
H609 H 0.13303 0.94332 0.24846 0.0
H610 H 0.1183 0.92634 0.19207 0.0
H611 H 0.06517 0.92864 0.21073 0.0
H612 H 0.02061 0.8993 0.02122 0.0
H613 H 0.03635 0.91351 0.08125 0.0
C614 C 0.53273 0.09849 0.74378 0.0
C615 C 0.5376 0.11401 0.75848 0.0
C616 C 0.54167 0.08995 0.70995 0.0
C617 C 0.58293 0.08704 0.6623 0.0
H618 H 0.56271 0.05967 0.56732 0.0
C619 C 0.61867 0.05362 0.515 0.0
C620 C 0.61338 0.03807 0.50177 0.0
C621 C 0.6099 0.06281 0.54777 0.0
C622 C 0.56853 0.06709 0.59408 0.0
H623 H 0.55528 0.13306 0.74743 0.0
H624 H 0.57083 0.11818 0.68784 0.0
H625 H 0.54591 0.07679 0.61782 0.0
H626 H 0.59517 0.01965 0.51463 0.0
H627 H 0.57999 0.03563 0.57236 0.0
H628 H 0.60555 0.07729 0.63858 0.0
C629 C 0.56021 0.11253 0.70316 0.0
C630 C 0.55891 0.07695 0.62286 0.0
C631 C 0.55122 0.12111 0.73698 0.0
C632 C 0.59956 0.03161 0.52387 0.0
C633 C 0.59077 0.04081 0.55661 0.0
C634 C 0.59256 0.07718 0.63347 0.0
C635 C 0.55571 0.09673 0.69 0.0
C636 C 0.56598 0.08697 0.65748 0.0
C637 C 0.59563 0.05666 0.56805 0.0
C638 C 0.58546 0.06702 0.59922 0.0
H639 H 0.52228 0.09266 0.75952 0.0
H640 H 0.53794 0.07777 0.70091 0.0
H641 H 0.58874 0.09442 0.68918 0.0
H642 H 0.62927 0.05898 0.4987 0.0
H643 H 0.61392 0.075 0.55563 0.0
C644 C 0.37934 0.55413 0.23703 0.0
C645 C 0.38681 0.54066 0.25839 0.0
C646 C 0.38781 0.56368 0.20433 0.0
C647 C 0.42961 0.57462 0.17306 0.0
H648 H 0.41068 0.59174 0.05742 0.0
C649 C 0.46763 0.60421 0.02486 0.0
C650 C 0.46092 0.61727 -0.00037 0.0
C651 C 0.45847 0.59593 0.05879 0.0
C652 C 0.41606 0.58726 0.08996 0.0
H653 H 0.40873 0.52615 0.26001 0.0
H654 H 0.42336 0.54266 0.20281 0.0
H655 H 0.39445 0.57455 0.10951 0.0
H656 H 0.43958 0.63241 0.9921 0.0
H657 H 0.42372 0.61811 0.05187 0.0
H658 H 0.45122 0.58727 0.15366 0.0
C659 C 0.41109 0.54604 0.21207 0.0
C660 C 0.40678 0.57737 0.11969 0.0
C661 C 0.40264 0.53651 0.24461 0.0
C662 C 0.4451 0.62234 0.01069 0.0
C663 C 0.43595 0.61407 0.04467 0.0
C664 C 0.43887 0.58453 0.14346 0.0
C665 C 0.40393 0.55995 0.19247 0.0
C666 C 0.41352 0.5708 0.16128 0.0
C667 C 0.44242 0.60055 0.06837 0.0
C668 C 0.43227 0.59084 0.10133 0.0
H669 H 0.36716 0.55767 0.24689 0.0
H670 H 0.38198 0.57434 0.18984 0.0
H671 H 0.43504 0.57002 0.20541 0.0
H672 H 0.47975 0.59996 0.01717 0.0
H673 H 0.46378 0.58549 0.07612 0.0
C674 C 0.96707 0.40303 0.74441 0.0
C675 C 0.96236 0.38737 0.75833 0.0
C676 C 0.95817 0.41158 0.71055 0.0
C677 C 0.91714 0.41411 0.66112 0.0
H678 H 0.93749 0.44189 0.56742 0.0
C679 C 0.88167 0.4471 0.51264 0.0
C680 C 0.88676 0.46274 0.49972 0.0
C681 C 0.89044 0.43803 0.54566 0.0
C682 C 0.93162 0.43436 0.59383 0.0
H683 H 0.94499 0.36814 0.74593 0.0
H684 H 0.9295 0.38305 0.68628 0.0
H685 H 0.95424 0.42493 0.61851 0.0
H686 H 0.90464 0.48143 0.51329 0.0
H687 H 0.91983 0.46565 0.57149 0.0
H688 H 0.89452 0.42359 0.63649 0.0
C689 C 0.93997 0.38878 0.70223 0.0
C690 C 0.94123 0.42459 0.62294 0.0
C691 C 0.94893 0.38019 0.73608 0.0
C692 C 0.9004 0.4694 0.52229 0.0
C693 C 0.9092 0.46031 0.55531 0.0
C694 C 0.90753 0.42389 0.63199 0.0
C695 C 0.94432 0.40469 0.68978 0.0
C696 C 0.9341 0.41441 0.65706 0.0
C697 C 0.90452 0.44439 0.56654 0.0
C698 C 0.91467 0.43418 0.59816 0.0
H699 H 0.97738 0.40893 0.76075 0.0
H700 H 0.96178 0.42385 0.70205 0.0
H701 H 0.91129 0.40661 0.68762 0.0
H702 H 0.87121 0.44159 0.49597 0.0
H703 H 0.88656 0.42578 0.55332 0.0
C704 C 0.94568 0.38068 0.01182 0.0
C705 C 0.96136 0.38588 -0.00028 0.0
C706 C 0.93659 0.38906 0.04568 0.0
C707 C 0.93953 0.41915 0.14285 0.0
H708 H 0.89476 0.42817 0.11052 0.0
C709 C 0.90267 0.46639 0.24542 0.0
C710 C 0.88696 0.46193 0.25954 0.0
C711 C 0.91121 0.45706 0.21258 0.0
C712 C 0.90719 0.42562 0.12025 0.0
H713 H 0.98002 0.40358 0.01525 0.0
H714 H 0.96414 0.41825 0.07413 0.0
H715 H 0.91108 0.41116 0.05814 0.0
H716 H 0.86763 0.44457 0.24839 0.0
H717 H 0.88261 0.42822 0.19089 0.0
H718 H 0.93569 0.4337 0.20471 0.0
C719 C 0.9589 0.40762 0.05764 0.0
C720 C 0.91653 0.41584 0.09036 0.0
C721 C 0.968 0.39922 0.02378 0.0
C722 C 0.8797 0.44835 0.23826 0.0
C723 C 0.88827 0.43899 0.20529 0.0
C724 C 0.93021 0.42893 0.17265 0.0
C725 C 0.94297 0.40283 0.06825 0.0
C726 C 0.93284 0.41258 0.10118 0.0
C727 C 0.90427 0.44303 0.19303 0.0
C728 C 0.91398 0.43239 0.16149 0.0
H729 H 0.94021 0.37038 0.99417 0.0
H730 H 0.92447 0.38489 0.05373 0.0
H731 H 0.95197 0.41666 0.15259 0.0
H732 H 0.90859 0.47686 0.26074 0.0
H733 H 0.92338 0.46069 0.20302 0.0
C734 C 0.03499 0.90376 0.74947 0.0
C735 C 0.03912 0.88773 0.76124 0.0
C736 C 0.04427 0.9125 0.71693 0.0
C737 C 0.07504 0.90856 0.62215 0.0
H738 H 0.08489 0.95302 0.65622 0.0
C739 C 0.12072 0.94642 0.5152 0.0
C740 C 0.11562 0.96209 0.50257 0.0
C741 C 0.11224 0.9375 0.54923 0.0
C742 C 0.08215 0.94066 0.64606 0.0
H743 H 0.05586 0.86811 0.74651 0.0
H744 H 0.07213 0.88344 0.68987 0.0
H745 H 0.06772 0.93678 0.7081 0.0
H746 H 0.0981 0.98099 0.5177 0.0
H747 H 0.08332 0.96542 0.57709 0.0
H748 H 0.08947 0.91248 0.56005 0.0
C749 C 0.06165 0.8892 0.70564 0.0
C750 C 0.07227 0.93137 0.67568 0.0
C751 C 0.05233 0.88042 0.73816 0.0
C752 C 0.10236 0.96896 0.52658 0.0
C753 C 0.0939 0.96004 0.56071 0.0
C754 C 0.08494 0.91786 0.59256 0.0
C755 C 0.05792 0.90546 0.69547 0.0
C756 C 0.06852 0.91524 0.66392 0.0
C757 C 0.09851 0.94407 0.57153 0.0
C758 C 0.08855 0.93403 0.60409 0.0
H759 H 0.02481 0.90972 0.76627 0.0
H760 H 0.04086 0.92488 0.70905 0.0
H761 H 0.07223 0.89624 0.61182 0.0
H762 H 0.13093 0.94078 0.49762 0.0
H763 H 0.11627 0.92534 0.55748 0.0
C764 C 0.59725 0.0341 0.24591 0.0
C765 C 0.61284 0.03872 0.26066 0.0
C766 C 0.58896 0.04306 0.21165 0.0
C767 C 0.58694 0.08407 0.16161 0.0
H768 H 0.55952 0.06361 0.0672 0.0
C769 C 0.55417 0.11931 0.01194 0.0
C770 C 0.53849 0.11422 -0.00057 0.0
C771 C 0.56329 0.11058 0.04498 0.0
C772 C 0.56697 0.0695 0.09376 0.0
H773 H 0.63221 0.05603 0.24943 0.0
H774 H 0.61774 0.07163 0.18905 0.0
H775 H 0.57624 0.0469 0.11904 0.0
H776 H 0.5198 0.09641 0.01367 0.0
H777 H 0.53566 0.0813 0.07179 0.0
H778 H 0.57762 0.10668 0.13629 0.0
C779 C 0.61187 0.06118 0.20466 0.0
C780 C 0.57659 0.05993 0.12332 0.0
C781 C 0.62021 0.05217 0.23895 0.0
C782 C 0.53186 0.10064 0.02235 0.0
C783 C 0.541 0.09189 0.05533 0.0
C784 C 0.57732 0.09365 0.13196 0.0
C785 C 0.59605 0.05687 0.19126 0.0
C786 C 0.5866 0.06709 0.15782 0.0
C787 C 0.55693 0.09656 0.0662 0.0
C788 C 0.56714 0.08646 0.09796 0.0
H789 H 0.59121 0.0238 0.26183 0.0
H790 H 0.57674 0.0395 0.20248 0.0
H791 H 0.59433 0.08995 0.18833 0.0
H792 H 0.55966 0.12973 0.995 0.0
H793 H 0.57555 0.11445 0.05242 0.0
C794 C 0.38195 0.55508 0.51127 0.0
C795 C 0.38691 0.53938 0.49849 0.0
C796 C 0.39073 0.56406 0.5445 0.0
C797 C 0.43181 0.56718 0.59393 0.0
H798 H 0.41147 0.5954 0.68661 0.0
C799 C 0.46703 0.59838 0.74526 0.0
C800 C 0.46253 0.61418 0.75834 0.0
C801 C 0.45813 0.58983 0.71137 0.0
C802 C 0.41732 0.58775 0.66044 0.0
H803 H 0.40453 0.52048 0.5125 0.0
H804 H 0.41973 0.53608 0.57109 0.0
H805 H 0.39468 0.57856 0.63517 0.0
H806 H 0.44554 0.63367 0.74453 0.0
H807 H 0.43006 0.61874 0.68491 0.0
H808 H 0.45445 0.57632 0.61932 0.0
C809 C 0.40921 0.54155 0.55463 0.0
C810 C 0.4077 0.57806 0.63112 0.0
C811 C 0.40041 0.53256 0.52138 0.0
C812 C 0.44931 0.6215 0.73532 0.0
C813 C 0.44036 0.61291 0.70148 0.0
C814 C 0.44142 0.57686 0.62327 0.0
C815 C 0.40468 0.55753 0.56574 0.0
C816 C 0.41484 0.56762 0.59765 0.0
C817 C 0.44451 0.59687 0.6898 0.0
C818 C 0.43429 0.58721 0.65697 0.0
H819 H 0.3716 0.56071 0.49436 0.0
H820 H 0.38697 0.57635 0.55203 0.0
H821 H 0.43768 0.55953 0.56782 0.0
H822 H 0.47716 0.59238 0.76221 0.0
H823 H 0.46158 0.57746 0.70345 0.0
C824 C 0.90392 0.03589 0.7436 0.0
C825 C 0.88816 0.04024 0.72972 0.0
C826 C 0.91256 0.04545 0.77566 0.0
C827 C 0.90868 0.07731 0.86672 0.0
H828 H 0.95351 0.08587 0.83413 0.0
C829 C 0.94747 0.12182 0.97541 0.0
C830 C 0.963 0.1163 0.988 0.0
C831 C 0.93839 0.11367 0.94103 0.0
C832 C 0.94105 0.08351 0.84391 0.0
H833 H 0.86884 0.05767 0.74038 0.0
H834 H 0.88399 0.07441 0.79651 0.0
H835 H 0.93711 0.0688 0.78241 0.0
H836 H 0.98148 0.09838 0.97255 0.0
H837 H 0.96561 0.08414 0.91276 0.0
H838 H 0.91267 0.09189 0.92851 0.0
C839 C 0.88962 0.06356 0.78254 0.0
C840 C 0.93166 0.0737 0.81434 0.0
C841 C 0.88095 0.05398 0.75036 0.0
C842 C 0.96957 0.10296 0.96369 0.0
C843 C 0.96048 0.09481 0.9293 0.0
C844 C 0.91808 0.08711 0.89636 0.0
C845 C 0.90566 0.05959 0.79464 0.0
C846 C 0.91542 0.07036 0.82566 0.0
C847 C 0.94464 0.09985 0.91841 0.0
C848 C 0.93442 0.09021 0.88546 0.0
H849 H 0.90981 0.02532 0.72875 0.0
H850 H 0.92476 0.04187 0.78512 0.0
H851 H 0.89624 0.07485 0.8766 0.0
H852 H 0.94207 0.13212 0.99322 0.0
H853 H 0.92635 0.11803 0.93277 0.0
C854 C 0.38236 0.94726 0.48076 0.0
C855 C 0.3871 0.96296 0.4943 0.0
C856 C 0.3912 0.93864 0.44687 0.0
C857 C 0.43218 0.93653 0.39604 0.0
H858 H 0.41202 0.90775 0.30459 0.0
C859 C 0.4674 0.90481 0.24508 0.0
C860 C 0.46313 0.88879 0.2337 0.0
C861 C 0.45847 0.91359 0.27842 0.0
C862 C 0.41782 0.91558 0.33036 0.0
H863 H 0.40435 0.98222 0.48088 0.0
H864 H 0.41961 0.96726 0.421 0.0
H865 H 0.39512 0.92444 0.35612 0.0
H866 H 0.44651 0.86921 0.24992 0.0
H867 H 0.43098 0.88455 0.30846 0.0
H868 H 0.45489 0.92771 0.37006 0.0
C869 C 0.40925 0.9615 0.43744 0.0
C870 C 0.40814 0.92518 0.35977 0.0
C871 C 0.40041 0.97013 0.47143 0.0
C872 C 0.45011 0.88153 0.2578 0.0
C873 C 0.44112 0.89035 0.29103 0.0
C874 C 0.44186 0.92697 0.36653 0.0
C875 C 0.40496 0.94552 0.42559 0.0
C876 C 0.41521 0.93576 0.39298 0.0
C877 C 0.44504 0.90657 0.30105 0.0
C878 C 0.43479 0.91637 0.33342 0.0
H879 H 0.37217 0.94135 0.49762 0.0
H880 H 0.38763 0.92632 0.43886 0.0
H881 H 0.43801 0.94431 0.42189 0.0
H882 H 0.47737 0.91076 0.22725 0.0
H883 H 0.46173 0.92608 0.28514 0.0
C884 C 0.5312 0.39938 0.96591 0.0
C885 C 0.538 0.38604 0.98964 0.0
C886 C 0.54009 0.40779 0.93161 0.0
C887 C 0.58228 0.41623 0.89825 0.0
H888 H 0.56296 0.43415 0.7842 0.0
C889 C 0.6192 0.44907 0.75179 0.0
C890 C 0.61195 0.4626 0.73018 0.0
C891 C 0.61052 0.43963 0.78425 0.0
C892 C 0.56849 0.42938 0.81619 0.0
H893 H 0.55916 0.3705 0.99392 0.0
H894 H 0.57455 0.38505 0.93369 0.0
H895 H 0.54679 0.41699 0.83628 0.0
H896 H 0.59017 0.47731 0.72767 0.0
H897 H 0.57519 0.46101 0.78467 0.0
H898 H 0.60395 0.42871 0.87827 0.0
C899 C 0.56247 0.3892 0.94232 0.0
C900 C 0.55923 0.41951 0.84594 0.0
C901 C 0.55358 0.3808 0.97658 0.0
C902 C 0.59609 0.46689 0.74331 0.0
C903 C 0.58744 0.45747 0.77572 0.0
C904 C 0.59154 0.42611 0.86848 0.0
C905 C 0.55597 0.40302 0.92028 0.0
C906 C 0.56599 0.41289 0.88743 0.0
C907 C 0.59442 0.44354 0.79576 0.0
C908 C 0.58471 0.43288 0.82729 0.0
H909 H 0.51924 0.40376 0.97514 0.0
H910 H 0.53477 0.41845 0.91548 0.0
H911 H 0.58777 0.41153 0.93038 0.0
H912 H 0.63138 0.44542 0.7424 0.0
H913 H 0.61621 0.42893 0.79894 0.0
C914 C 0.11955 0.55343 0.47619 0.0
C915 C 0.1146 0.53779 0.48963 0.0
C916 C 0.11082 0.56219 0.44235 0.0
C917 C 0.06973 0.56488 0.39286 0.0
H918 H 0.08973 0.59351 0.30074 0.0
C919 C 0.03395 0.59663 0.24353 0.0
C920 C 0.03825 0.61258 0.23149 0.0
C921 C 0.04304 0.58789 0.27653 0.0
C922 C 0.08397 0.58573 0.32673 0.0
H923 H 0.09715 0.51873 0.47583 0.0
H924 H 0.08209 0.53394 0.41612 0.0
H925 H 0.10672 0.57666 0.35164 0.0
H926 H 0.05514 0.63208 0.24613 0.0
H927 H 0.07096 0.61679 0.30419 0.0
H928 H 0.04699 0.57392 0.36789 0.0
C929 C 0.09252 0.53955 0.43261 0.0
C930 C 0.09371 0.57603 0.35574 0.0
C931 C 0.10125 0.53077 0.46651 0.0
C932 C 0.05151 0.61981 0.25457 0.0
C933 C 0.06066 0.61101 0.2875 0.0
C934 C 0.06001 0.57455 0.36382 0.0
C935 C 0.09696 0.55551 0.42109 0.0
C936 C 0.08669 0.56547 0.38909 0.0
C937 C 0.05668 0.59486 0.29821 0.0
C938 C 0.06702 0.58507 0.33038 0.0
H939 H 0.12979 0.55921 0.49324 0.0
H940 H 0.11452 0.57448 0.4345 0.0
H941 H 0.06394 0.55714 0.41889 0.0
H942 H 0.0238 0.5907 0.22648 0.0
H943 H 0.03972 0.57544 0.28374 0.0
C944 C 0.87778 0.54249 0.30043 0.0
C945 C 0.88172 0.53899 0.34776 0.0
C946 C 0.88346 0.55669 0.27905 0.0
C947 C 0.91727 0.58599 0.29667 0.0
H948 H 0.90223 0.60161 0.17441 0.0
C949 C 0.95676 0.6276 0.18311 0.0
C950 C 0.96196 0.61875 0.14327 0.0
C951 C 0.94293 0.62279 0.20815 0.0
C952 C 0.90641 0.59754 0.20892 0.0
H953 H 0.89319 0.54802 0.4115 0.0
H954 H 0.90177 0.57352 0.376 0.0
H955 H 0.88452 0.58461 0.22284 0.0
H956 H 0.95603 0.59903 0.09556 0.0
H957 H 0.93156 0.59101 0.13831 0.0
H958 H 0.93911 0.59903 0.2825 0.0
C959 C 0.89521 0.565 0.35402 0.0
C960 C 0.89638 0.58761 0.23655 0.0
C961 C 0.89006 0.55052 0.37481 0.0
C962 C 0.95227 0.60605 0.12618 0.0
C963 C 0.93825 0.6015 0.15051 0.0
C964 C 0.92705 0.59625 0.26972 0.0
C965 C 0.89287 0.56788 0.30503 0.0
C966 C 0.90193 0.5811 0.28001 0.0
C967 C 0.93389 0.60935 0.1929 0.0
C968 C 0.92196 0.60164 0.22491 0.0
H969 H 0.87155 0.53361 0.27876 0.0
H970 H 0.88143 0.55816 0.24131 0.0
H971 H 0.92234 0.58113 0.32913 0.0
H972 H 0.96408 0.63736 0.19724 0.0
H973 H 0.93981 0.62897 0.24088 0.0
C974 C 0.87416 0.9576 0.68939 0.0
C975 C 0.88291 0.96231 0.64887 0.0
C976 C 0.87887 0.9439 0.71527 0.0
C977 C 0.90323 0.90686 0.71781 0.0
H978 H 0.92151 0.92368 0.8346 0.0
C979 C 0.95847 0.87757 0.80652 0.0
C980 C 0.96269 0.88196 0.85301 0.0
C981 C 0.94421 0.88347 0.78603 0.0
C982 C 0.91613 0.91838 0.8032 0.0
H983 H 0.90236 0.95571 0.60099 0.0
H984 H 0.91016 0.93142 0.64513 0.0
H985 H 0.90352 0.94043 0.78813 0.0
H986 H 0.95479 0.89444 0.91643 0.0
H987 H 0.92918 0.90347 0.88267 0.0
H988 H 0.9157 0.88476 0.73263 0.0
C989 C 0.89982 0.93839 0.6572 0.0
C990 C 0.90582 0.92814 0.77633 0.0
C991 C 0.89541 0.95229 0.63208 0.0
C992 C 0.95177 0.891 0.88032 0.0
C993 C 0.93721 0.89638 0.86051 0.0
C994 C 0.91319 0.89686 0.74542 0.0
C995 C 0.89209 0.9345 0.70014 0.0
C996 C 0.89976 0.9227 0.73263 0.0
C997 C 0.93365 0.89355 0.81214 0.0
C998 C 0.92038 0.90271 0.7876 0.0
H999 H 0.86459 0.96522 0.70331 0.0
H1000 H 0.87281 0.94116 0.74847 0.0
H1001 H 0.89865 0.90242 0.68415 0.0
H1002 H 0.96685 0.87076 0.78462 0.0
H1003 H 0.94221 0.88103 0.74871 0.0
C1004 C 0.54278 0.87757 0.18674 0.0
C1005 C 0.53868 0.8821 0.14026 0.0
C1006 C 0.55699 0.88338 0.20769 0.0
C1007 C 0.58521 0.91825 0.19188 0.0
H1008 H 0.60221 0.90206 0.31127 0.0
C1009 C 0.62687 0.95717 0.30723 0.0
C1010 C 0.61791 0.96198 0.34728 0.0
C1011 C 0.62225 0.94346 0.28128 0.0
C1012 C 0.59776 0.90656 0.27752 0.0
H1013 H 0.54679 0.89471 0.0773 0.0
H1014 H 0.57233 0.90355 0.11182 0.0
H1015 H 0.5853 0.88452 0.26201 0.0
H1016 H 0.5982 0.95551 0.39435 0.0
H1017 H 0.59056 0.93119 0.3501 0.0
H1018 H 0.59781 0.94023 0.20764 0.0
C1019 C 0.56422 0.89645 0.13365 0.0
C1020 C 0.58788 0.89663 0.24945 0.0
C1021 C 0.5497 0.89116 0.11339 0.0
C1022 C 0.60531 0.95202 0.36364 0.0
C1023 C 0.60098 0.9381 0.33845 0.0
C1024 C 0.59544 0.92794 0.2192 0.0
C1025 C 0.56765 0.89349 0.18205 0.0
C1026 C 0.58085 0.90257 0.20713 0.0
C1027 C 0.60892 0.93414 0.29587 0.0
C1028 C 0.60132 0.92241 0.26302 0.0
H1029 H 0.53432 0.87074 0.20831 0.0
H1030 H 0.55889 0.88084 0.245 0.0
H1031 H 0.57995 0.92361 0.16038 0.0
H1032 H 0.63652 0.96474 0.29363 0.0
H1033 H 0.62846 0.94067 0.24836 0.0
C1034 C 0.61038 0.55172 0.61843 0.0
C1035 C 0.61864 0.5401 0.64535 0.0
C1036 C 0.60527 0.5662 0.63942 0.0
C1037 C 0.60405 0.58857 0.75731 0.0
H1038 H 0.56143 0.60029 0.71108 0.0
C1039 C 0.54795 0.60677 0.8671 0.0
C1040 C 0.53833 0.61957 0.85026 0.0
C1041 C 0.56204 0.6023 0.84298 0.0
C1042 C 0.57346 0.59743 0.72394 0.0
H1043 H 0.62874 0.53455 0.71434 0.0
H1044 H 0.61891 0.55907 0.75213 0.0
H1045 H 0.57819 0.58243 0.66426 0.0
H1046 H 0.53641 0.63843 0.79699 0.0
H1047 H 0.56079 0.63016 0.75364 0.0
H1048 H 0.59815 0.60243 0.81969 0.0
C1049 C 0.61691 0.55768 0.71434 0.0
C1050 C 0.58324 0.58719 0.69689 0.0
C1051 C 0.62256 0.5435 0.69277 0.0
C1052 C 0.54368 0.62859 0.81093 0.0
C1053 C 0.55757 0.62385 0.78607 0.0
C1054 C 0.59401 0.59848 0.78504 0.0
C1055 C 0.60758 0.56897 0.68848 0.0
C1056 C 0.59854 0.58219 0.71364 0.0
C1057 C 0.56654 0.61032 0.80101 0.0
C1058 C 0.5785 0.60268 0.76894 0.0
H1059 H 0.60729 0.54932 0.58166 0.0
H1060 H 0.59877 0.57479 0.61752 0.0
H1061 H 0.61588 0.58548 0.7711 0.0
H1062 H 0.54407 0.59962 0.89732 0.0
H1063 H 0.56867 0.59173 0.85491 0.0
C1064 C 0.12675 0.45872 0.69081 0.0
C1065 C 0.11798 0.46348 0.65037 0.0
C1066 C 0.12213 0.44493 0.7164 0.0
C1067 C 0.09792 0.40775 0.71782 0.0
H1068 H 0.07992 0.42397 0.83572 0.0
C1069 C 0.04274 0.37826 0.80587 0.0
C1070 C 0.0386 0.38244 0.85258 0.0
C1071 C 0.05702 0.38415 0.78554 0.0
C1072 C 0.08523 0.41883 0.80397 0.0
H1073 H 0.09858 0.45687 0.60235 0.0
H1074 H 0.09092 0.43246 0.64601 0.0
H1075 H 0.09778 0.44096 0.78963 0.0
H1076 H 0.04664 0.39453 0.91648 0.0
H1077 H 0.0723 0.4035 0.88297 0.0
H1078 H 0.08549 0.38558 0.73189 0.0
C1079 C 0.10121 0.43945 0.65824 0.0
C1080 C 0.09547 0.42873 0.77733 0.0
C1081 C 0.10554 0.45344 0.6334 0.0
C1082 C 0.04962 0.39122 0.88024 0.0
C1083 C 0.0642 0.39659 0.86057 0.0
C1084 C 0.08803 0.39761 0.74518 0.0
C1085 C 0.10898 0.43549 0.70108 0.0
C1086 C 0.10141 0.42352 0.73325 0.0
C1087 C 0.06768 0.394 0.81202 0.0
C1088 C 0.08093 0.40325 0.78774 0.0
H1089 H 0.13629 0.46634 0.70486 0.0
H1090 H 0.12822 0.44214 0.74952 0.0
H1091 H 0.10242 0.40348 0.68387 0.0
H1092 H 0.03426 0.37167 0.78372 0.0
H1093 H 0.05897 0.3819 0.74809 0.0
C1094 C 0.0488 0.10559 0.12591 0.0
C1095 C 0.03897 0.11817 0.14313 0.0
C1096 C 0.06275 0.101 0.15054 0.0
C1097 C 0.07337 0.09519 0.26994 0.0
H1098 H 0.11609 0.0837 0.22418 0.0
C1099 C 0.10992 0.04889 0.37444 0.0
C1100 C 0.11839 0.03749 0.34727 0.0
C1101 C 0.10481 0.06346 0.35403 0.0
C1102 C 0.10418 0.08666 0.23756 0.0
H1103 H 0.03651 0.13652 0.19772 0.0
H1104 H 0.06065 0.12804 0.24193 0.0
H1105 H 0.09863 0.101 0.17587 0.0
H1106 H 0.12886 0.03243 0.27843 0.0
H1107 H 0.11905 0.05712 0.24155 0.0
H1108 H 0.07779 0.07973 0.3288 0.0
C1109 C 0.05771 0.122 0.20883 0.0
C1110 C 0.09429 0.09677 0.21002 0.0
C1111 C 0.04396 0.12687 0.18347 0.0
C1112 C 0.1225 0.0412 0.30019 0.0
C1113 C 0.11687 0.05548 0.27915 0.0
C1114 C 0.08301 0.08476 0.29678 0.0
C1115 C 0.06688 0.10867 0.1934 0.0
C1116 C 0.07867 0.10081 0.22558 0.0
C1117 C 0.10735 0.06656 0.30525 0.0
C1118 C 0.09842 0.07992 0.28048 0.0
H1119 H 0.04519 0.09868 0.09491 0.0
H1120 H 0.06953 0.09058 0.13819 0.0
H1121 H 0.06125 0.09793 0.28236 0.0
H1122 H 0.10668 0.04625 0.41097 0.0
H1123 H 0.09816 0.07187 0.37611 0.0
C1124 C 0.37311 0.04238 0.69325 0.0
C1125 C 0.38205 0.0375 0.65327 0.0
C1126 C 0.3776 0.05628 0.71855 0.0
C1127 C 0.40174 0.09351 0.71948 0.0
H1128 H 0.41955 0.07771 0.83809 0.0
C1129 C 0.45705 0.12299 0.80653 0.0
C1130 C 0.4612 0.11895 0.85333 0.0
C1131 C 0.4427 0.11717 0.7865 0.0
C1132 C 0.41429 0.08274 0.80613 0.0
H1133 H 0.40162 0.04396 0.60567 0.0
H1134 H 0.40903 0.06857 0.64875 0.0
H1135 H 0.40172 0.06059 0.79233 0.0
H1136 H 0.45311 0.10717 0.91767 0.0
H1137 H 0.42733 0.09831 0.88463 0.0
H1138 H 0.4142 0.11571 0.73297 0.0
C1139 C 0.39872 0.0616 0.66088 0.0
C1140 C 0.40406 0.07276 0.77969 0.0
C1141 C 0.39453 0.0475 0.63638 0.0
C1142 C 0.45012 0.11037 0.88135 0.0
C1143 C 0.43547 0.10507 0.86196 0.0
C1144 C 0.41162 0.10374 0.74663 0.0
C1145 C 0.39078 0.0657 0.70333 0.0
C1146 C 0.39821 0.0778 0.73534 0.0
C1147 C 0.43197 0.1075 0.81336 0.0
C1148 C 0.41866 0.09824 0.78941 0.0
H1149 H 0.36354 0.03478 0.70723 0.0
H1150 H 0.37138 0.05918 0.75139 0.0
H1151 H 0.3973 0.09766 0.68532 0.0
H1152 H 0.46557 0.12942 0.78411 0.0
H1153 H 0.44074 0.11928 0.74899 0.0
C1154 C 0.45255 0.39563 0.1281 0.0
C1155 C 0.46241 0.38308 0.14536 0.0
C1156 C 0.43848 0.40006 0.15241 0.0
C1157 C 0.42736 0.40554 0.27155 0.0
H1158 H 0.38478 0.41688 0.22433 0.0
C1159 C 0.39034 0.45181 0.37464 0.0
C1160 C 0.38202 0.4632 0.34705 0.0
C1161 C 0.39549 0.4372 0.35453 0.0
C1162 C 0.39665 0.41396 0.23813 0.0
H1163 H 0.46484 0.36464 0.19968 0.0
H1164 H 0.44049 0.37285 0.24338 0.0
H1165 H 0.40253 0.39971 0.17649 0.0
H1166 H 0.37187 0.46823 0.27779 0.0
H1167 H 0.38174 0.44346 0.24149 0.0
H1168 H 0.42262 0.42092 0.33039 0.0
C1169 C 0.44349 0.37898 0.21047 0.0
C1170 C 0.40671 0.40393 0.21086 0.0
C1171 C 0.45736 0.37427 0.18541 0.0
C1172 C 0.37809 0.45945 0.29987 0.0
C1173 C 0.38377 0.44513 0.27917 0.0
C1174 C 0.41756 0.4159 0.29814 0.0
C1175 C 0.43426 0.39227 0.195 0.0
C1176 C 0.42228 0.39996 0.22692 0.0
C1177 C 0.39315 0.43406 0.30568 0.0
C1178 C 0.40221 0.42069 0.28129 0.0
H1179 H 0.4562 0.40262 0.09732 0.0
H1180 H 0.43166 0.41044 0.14005 0.0
H1181 H 0.43944 0.40285 0.28438 0.0
H1182 H 0.39346 0.4545 0.41123 0.0
H1183 H 0.40204 0.4288 0.37691 0.0
loop_
_geom_bond_atom_site_label_1
_geom_bond_atom_site_label_2
_geom_bond_distance
_geom_bond_site_symmetry_2
_ccdc_geom_bond_type
O0 Cd1 2.223 . S
O0 C8 1.315 . S
Cd1 O0 2.223 . S
Cd1 O4 2.297 . S
Cd1 O5 2.439 . S
Cd1 O11 2.240 . S
Cd2 O3 2.240 . S
Cd2 O10 2.223 . S
Cd2 O12 2.297 1_455 S
Cd2 O13 2.439 1_455 S
O3 Cd2 2.240 . S
O3 C8 1.279 . S
O4 Cd1 2.297 . S
O4 C6 1.247 . S
O5 Cd1 2.439 . S
O5 C6 1.208 . S
C6 O4 1.247 . S
C6 O5 1.208 . S
C7 O12 1.247 . S
C7 O13 1.208 . S
C8 O0 1.315 . S
C8 O3 1.279 . S
C9 O10 1.315 . S
C9 O11 1.279 . S
O10 Cd2 2.223 . S
O10 C9 1.315 . S
O11 Cd1 2.240 . S
O11 C9 1.279 . S
O12 Cd2 2.297 1_655 S
O12 C7 1.247 . S
O13 Cd2 2.439 1_655 S
O13 C7 1.208 . S
O14 Cd15 2.223 . S
O14 C22 1.315 . S
Cd15 O14 2.223 . S
Cd15 O18 2.297 . S
Cd15 O19 2.439 . S
Cd15 O25 2.240 . S
Cd16 O17 2.240 . S
Cd16 O24 2.223 . S
Cd16 O26 2.297 1_545 S
Cd16 O27 2.439 1_545 S
O17 Cd16 2.240 . S
O17 C22 1.279 . S
O18 Cd15 2.297 . S
O18 C20 1.247 . S
O19 Cd15 2.439 . S
O19 C20 1.208 . S
C20 O18 1.247 . S
C20 O19 1.208 . S
C21 O26 1.247 . S
C21 O27 1.208 . S
C22 O14 1.315 . S
C22 O17 1.279 . S
C23 O24 1.315 . S
C23 O25 1.279 . S
O24 Cd16 2.223 . S
O24 C23 1.315 . S
O25 Cd15 2.240 . S
O25 C23 1.279 . S
O26 Cd16 2.297 1_565 S
O26 C21 1.247 . S
O27 Cd16 2.439 1_565 S
O27 C21 1.208 . S
O28 Cd29 2.223 . S
O28 C36 1.315 . S
Cd29 O28 2.223 . S
Cd29 O32 2.297 . S
Cd29 O33 2.439 . S
Cd29 O39 2.240 . S
Cd30 O31 2.240 . S
Cd30 O38 2.223 . S
Cd30 O40 2.297 . S
Cd30 O41 2.439 . S
O31 Cd30 2.240 . S
O31 C36 1.279 . S
O32 Cd29 2.297 . S
O32 C34 1.247 . S
O33 Cd29 2.439 . S
O33 C34 1.208 . S
C34 O32 1.247 . S
C34 O33 1.208 . S
C35 O40 1.247 . S
C35 O41 1.208 . S
C36 O28 1.315 . S
C36 O31 1.279 . S
C37 O38 1.315 . S
C37 O39 1.279 . S
O38 Cd30 2.223 . S
O38 C37 1.315 . S
O39 Cd29 2.240 . S
O39 C37 1.279 . S
O40 Cd30 2.297 . S
O40 C35 1.247 . S
O41 Cd30 2.439 . S
O41 C35 1.208 . S
O42 Cd43 2.223 . S
O42 C50 1.315 . S
Cd43 O42 2.223 . S
Cd43 O46 2.297 . S
Cd43 O47 2.439 . S
Cd43 O53 2.240 . S
Cd44 O45 2.240 . S
Cd44 O52 2.223 . S
Cd44 O54 2.297 . S
Cd44 O55 2.439 . S
O45 Cd44 2.240 . S
O45 C50 1.279 . S
O46 Cd43 2.297 . S
O46 C48 1.247 . S
O47 Cd43 2.439 . S
O47 C48 1.208 . S
C48 O46 1.247 . S
C48 O47 1.208 . S
C49 O54 1.247 . S
C49 O55 1.208 . S
C50 O42 1.315 . S
C50 O45 1.279 . S
C51 O52 1.315 . S
C51 O53 1.279 . S
O52 Cd44 2.223 . S
O52 C51 1.315 . S
O53 Cd43 2.240 . S
O53 C51 1.279 . S
O54 Cd44 2.297 . S
O54 C49 1.247 . S
O55 Cd44 2.439 . S
O55 C49 1.208 . S
O56 Cd57 2.223 . S
O56 C64 1.315 . S
Cd57 O56 2.223 . S
Cd57 O60 2.297 . S
Cd57 O61 2.439 . S
Cd57 O67 2.240 . S
Cd58 O59 2.240 . S
Cd58 O66 2.223 . S
Cd58 O68 2.297 1_455 S
Cd58 O69 2.439 1_455 S
O59 Cd58 2.240 . S
O59 C64 1.279 . S
O60 Cd57 2.297 . S
O60 C62 1.247 . S
O61 Cd57 2.439 . S
O61 C62 1.208 . S
C62 O60 1.247 . S
C62 O61 1.208 . S
C63 O68 1.247 . S
C63 O69 1.208 . S
C64 O56 1.315 . S
C64 O59 1.279 . S
C65 O66 1.315 . S
C65 O67 1.279 . S
O66 Cd58 2.223 . S
O66 C65 1.315 . S
O67 Cd57 2.240 . S
O67 C65 1.279 . S
O68 Cd58 2.297 1_655 S
O68 C63 1.247 . S
O69 Cd58 2.439 1_655 S
O69 C63 1.208 . S
O70 Cd71 2.223 . S
O70 C78 1.315 . S
Cd71 O70 2.223 . S
Cd71 O74 2.297 . S
Cd71 O75 2.439 . S
Cd71 O81 2.240 . S
Cd72 O73 2.240 . S
Cd72 O80 2.223 . S
Cd72 O82 2.297 1_545 S
Cd72 O83 2.439 1_545 S
O73 Cd72 2.240 . S
O73 C78 1.279 . S
O74 Cd71 2.297 . S
O74 C76 1.247 . S
O75 Cd71 2.439 . S
O75 C76 1.208 . S
C76 O74 1.247 . S
C76 O75 1.208 . S
C77 O82 1.247 . S
C77 O83 1.208 . S
C78 O70 1.315 . S
C78 O73 1.279 . S
C79 O80 1.315 . S
C79 O81 1.279 . S
O80 Cd72 2.223 . S
O80 C79 1.315 . S
O81 Cd71 2.240 . S
O81 C79 1.279 . S
O82 Cd72 2.297 1_565 S
O82 C77 1.247 . S
O83 Cd72 2.439 1_565 S
O83 C77 1.208 . S
O84 Cd85 2.223 . S
O84 C92 1.315 . S
Cd85 O84 2.223 . S
Cd85 O88 2.297 . S
Cd85 O89 2.439 . S
Cd85 O95 2.240 . S
Cd86 O87 2.240 . S
Cd86 O94 2.223 . S
Cd86 O96 2.297 . S
Cd86 O97 2.439 . S
O87 Cd86 2.240 . S
O87 C92 1.279 . S
O88 Cd85 2.297 . S
O88 C90 1.247 . S
O89 Cd85 2.439 . S
O89 C90 1.208 . S
C90 O88 1.247 . S
C90 O89 1.208 . S
C91 O96 1.247 . S
C91 O97 1.208 . S
C92 O84 1.315 . S
C92 O87 1.279 . S
C93 O94 1.315 . S
C93 O95 1.279 . S
O94 Cd86 2.223 . S
O94 C93 1.315 . S
O95 Cd85 2.240 . S
O95 C93 1.279 . S
O96 Cd86 2.297 . S
O96 C91 1.247 . S
O97 Cd86 2.439 . S
O97 C91 1.208 . S
O98 Cd99 2.223 . S
O98 C106 1.315 . S
Cd99 O98 2.223 . S
Cd99 O102 2.297 . S
Cd99 O103 2.439 . S
Cd99 O109 2.240 . S
Cd100 O101 2.240 . S
Cd100 O108 2.223 . S
Cd100 O110 2.297 . S
Cd100 O111 2.439 . S
O101 Cd100 2.240 . S
O101 C106 1.279 . S
O102 Cd99 2.297 . S
O102 C104 1.247 . S
O103 Cd99 2.439 . S
O103 C104 1.208 . S
C104 O102 1.247 . S
C104 O103 1.208 . S
C105 O110 1.247 . S
C105 O111 1.208 . S
C106 O98 1.315 . S
C106 O101 1.279 . S
C107 O108 1.315 . S
C107 O109 1.279 . S
O108 Cd100 2.223 . S
O108 C107 1.315 . S
O109 Cd99 2.240 . S
O109 C107 1.279 . S
O110 Cd100 2.297 . S
O110 C105 1.247 . S
O111 Cd100 2.439 . S
O111 C105 1.208 . S
O112 Cd113 2.223 . S
O112 C120 1.315 . S
Cd113 O112 2.223 . S
Cd113 O116 2.297 . S
Cd113 O117 2.439 . S
Cd113 O123 2.240 . S
Cd114 O115 2.240 . S
Cd114 O122 2.223 . S
Cd114 O124 2.297 1_655 S
Cd114 O125 2.439 1_655 S
O115 Cd114 2.240 . S
O115 C120 1.279 . S
O116 Cd113 2.297 . S
O116 C118 1.247 . S
O117 Cd113 2.439 . S
O117 C118 1.208 . S
C118 O116 1.247 . S
C118 O117 1.208 . S
C119 O124 1.247 . S
C119 O125 1.208 . S
C120 O112 1.315 . S
C120 O115 1.279 . S
C121 O122 1.315 . S
C121 O123 1.279 . S
O122 Cd114 2.223 . S
O122 C121 1.315 . S
O123 Cd113 2.240 . S
O123 C121 1.279 . S
O124 Cd114 2.297 1_455 S
O124 C119 1.247 . S
O125 Cd114 2.439 1_455 S
O125 C119 1.208 . S
O126 Cd127 2.223 . S
O126 C134 1.315 . S
Cd127 O126 2.223 . S
Cd127 O130 2.297 . S
Cd127 O131 2.439 . S
Cd127 O137 2.240 . S
Cd128 O129 2.240 . S
Cd128 O136 2.223 . S
Cd128 O138 2.297 1_565 S
Cd128 O139 2.439 1_565 S
O129 Cd128 2.240 . S
O129 C134 1.279 . S
O130 Cd127 2.297 . S
O130 C132 1.247 . S
O131 Cd127 2.439 . S
O131 C132 1.208 . S
C132 O130 1.247 . S
C132 O131 1.208 . S
C133 O138 1.247 . S
C133 O139 1.208 . S
C134 O126 1.315 . S
C134 O129 1.279 . S
C135 O136 1.315 . S
C135 O137 1.279 . S
O136 Cd128 2.223 . S
O136 C135 1.315 . S
O137 Cd127 2.240 . S
O137 C135 1.279 . S
O138 Cd128 2.297 1_545 S
O138 C133 1.247 . S
O139 Cd128 2.439 1_545 S
O139 C133 1.208 . S
O140 Cd141 2.223 . S
O140 C148 1.315 . S
Cd141 O140 2.223 . S
Cd141 O144 2.297 . S
Cd141 O145 2.439 . S
Cd141 O151 2.240 . S
Cd142 O143 2.240 . S
Cd142 O150 2.223 . S
Cd142 O152 2.297 . S
Cd142 O153 2.439 . S
O143 Cd142 2.240 . S
O143 C148 1.279 . S
O144 Cd141 2.297 . S
O144 C146 1.247 . S
O145 Cd141 2.439 . S
O145 C146 1.208 . S
C146 O144 1.247 . S
C146 O145 1.208 . S
C147 O152 1.247 . S
C147 O153 1.208 . S
C148 O140 1.315 . S
C148 O143 1.279 . S
C149 O150 1.315 . S
C149 O151 1.279 . S
O150 Cd142 2.223 . S
O150 C149 1.315 . S
O151 Cd141 2.240 . S
O151 C149 1.279 . S
O152 Cd142 2.297 . S
O152 C147 1.247 . S
O153 Cd142 2.439 . S
O153 C147 1.208 . S
O154 Cd155 2.223 . S
O154 C162 1.315 . S
Cd155 O154 2.223 . S
Cd155 O158 2.297 . S
Cd155 O159 2.439 . S
Cd155 O165 2.240 . S
Cd156 O157 2.240 . S
Cd156 O164 2.223 . S
Cd156 O166 2.297 . S
Cd156 O167 2.439 . S
O157 Cd156 2.240 . S
O157 C162 1.279 . S
O158 Cd155 2.297 . S
O158 C160 1.247 . S
O159 Cd155 2.439 . S
O159 C160 1.208 . S
C160 O158 1.247 . S
C160 O159 1.208 . S
C161 O166 1.247 . S
C161 O167 1.208 . S
C162 O154 1.315 . S
C162 O157 1.279 . S
C163 O164 1.315 . S
C163 O165 1.279 . S
O164 Cd156 2.223 . S
O164 C163 1.315 . S
O165 Cd155 2.240 . S
O165 C163 1.279 . S
O166 Cd156 2.297 . S
O166 C161 1.247 . S
O167 Cd156 2.439 . S
O167 C161 1.208 . S
O168 Cd169 2.223 . S
O168 C176 1.315 . S
Cd169 O168 2.223 . S
Cd169 O172 2.297 . S
Cd169 O173 2.439 . S
Cd169 O179 2.240 . S
Cd170 O171 2.240 . S
Cd170 O178 2.223 . S
Cd170 O180 2.297 1_655 S
Cd170 O181 2.439 1_655 S
O171 Cd170 2.240 . S
O171 C176 1.279 . S
O172 Cd169 2.297 . S
O172 C174 1.247 . S
O173 Cd169 2.439 . S
O173 C174 1.208 . S
C174 O172 1.247 . S
C174 O173 1.208 . S
C175 O180 1.247 . S
C175 O181 1.208 . S
C176 O168 1.315 . S
C176 O171 1.279 . S
C177 O178 1.315 . S
C177 O179 1.279 . S
O178 Cd170 2.223 . S
O178 C177 1.315 . S
O179 Cd169 2.240 . S
O179 C177 1.279 . S
O180 Cd170 2.297 1_455 S
O180 C175 1.247 . S
O181 Cd170 2.439 1_455 S
O181 C175 1.208 . S
O182 Cd183 2.223 . S
O182 C190 1.315 . S
Cd183 O182 2.223 . S
Cd183 O186 2.297 . S
Cd183 O187 2.439 . S
Cd183 O193 2.240 . S
Cd184 O185 2.240 . S
Cd184 O192 2.223 . S
Cd184 O194 2.297 1_565 S
Cd184 O195 2.439 1_565 S
O185 Cd184 2.240 . S
O185 C190 1.279 . S
O186 Cd183 2.297 . S
O186 C188 1.247 . S
O187 Cd183 2.439 . S
O187 C188 1.208 . S
C188 O186 1.247 . S
C188 O187 1.208 . S
C189 O194 1.247 . S
C189 O195 1.208 . S
C190 O182 1.315 . S
C190 O185 1.279 . S
C191 O192 1.315 . S
C191 O193 1.279 . S
O192 Cd184 2.223 . S
O192 C191 1.315 . S
O193 Cd183 2.240 . S
O193 C191 1.279 . S
O194 Cd184 2.297 1_545 S
O194 C189 1.247 . S
O195 Cd184 2.439 1_545 S
O195 C189 1.208 . S
O196 Cd197 2.223 . S
O196 C204 1.315 . S
Cd197 O196 2.223 . S
Cd197 O200 2.297 . S
Cd197 O201 2.439 . S
Cd197 O207 2.240 . S
Cd198 O199 2.240 . S
Cd198 O206 2.223 . S
Cd198 O208 2.297 . S
Cd198 O209 2.439 . S
O199 Cd198 2.240 . S
O199 C204 1.279 . S
O200 Cd197 2.297 . S
O200 C202 1.247 . S
O201 Cd197 2.439 . S
O201 C202 1.208 . S
C202 O200 1.247 . S
C202 O201 1.208 . S
C203 O208 1.247 . S
C203 O209 1.208 . S
C204 O196 1.315 . S
C204 O199 1.279 . S
C205 O206 1.315 . S
C205 O207 1.279 . S
O206 Cd198 2.223 . S
O206 C205 1.315 . S
O207 Cd197 2.240 . S
O207 C205 1.279 . S
O208 Cd198 2.297 . S
O208 C203 1.247 . S
O209 Cd198 2.439 . S
O209 C203 1.208 . S
O210 Cd211 2.223 . S
O210 C218 1.315 . S
Cd211 O210 2.223 . S
Cd211 O214 2.297 . S
Cd211 O215 2.439 . S
Cd211 O221 2.240 . S
Cd212 O213 2.240 . S
Cd212 O220 2.223 . S
Cd212 O222 2.297 . S
Cd212 O223 2.439 . S
O213 Cd212 2.240 . S
O213 C218 1.279 . S
O214 Cd211 2.297 . S
O214 C216 1.247 . S
O215 Cd211 2.439 . S
O215 C216 1.208 . S
C216 O214 1.247 . S
C216 O215 1.208 . S
C217 O222 1.247 . S
C217 O223 1.208 . S
C218 O210 1.315 . S
C218 O213 1.279 . S
C219 O220 1.315 . S
C219 O221 1.279 . S
O220 Cd212 2.223 . S
O220 C219 1.315 . S
O221 Cd211 2.240 . S
O221 C219 1.279 . S
O222 Cd212 2.297 . S
O222 C217 1.247 . S
O223 Cd212 2.439 . S
O223 C217 1.208 . S
C224 C225 1.349 . S
C224 C226 1.327 . S
C224 H249 0.950 . S
C225 C224 1.349 . S
C225 C241 1.349 . S
C226 C224 1.327 . S
C226 C245 1.429 . S
C226 H250 0.950 1_554 S
C227 C244 1.574 . S
C227 C246 1.368 . S
C227 H251 0.949 . S
H228 C232 0.949 . S
C229 C230 1.349 . S
C229 C231 1.327 . S
C229 H252 0.950 . S
C230 C229 1.349 . S
C230 C242 1.349 . S
C231 C229 1.327 . S
C231 C247 1.429 . S
C231 H253 0.950 1_556 S
C232 H228 0.949 . S
C232 C240 1.574 . S
C232 C248 1.368 . S
H233 C241 0.950 . S
H234 C239 0.950 . S
H235 C240 0.949 . S
H236 C242 0.950 . S
H237 C243 0.950 . S
H238 C244 0.949 . S
C239 H234 0.950 . S
C239 C241 1.327 . S
C239 C245 1.429 . S
C240 C232 1.574 . S
C240 H235 0.949 . S
C240 C246 1.368 1_556 S
C241 C225 1.349 . S
C241 H233 0.950 . S
C241 C239 1.327 . S
C242 C230 1.349 . S
C242 H236 0.950 . S
C242 C243 1.327 . S
C243 H237 0.950 . S
C243 C242 1.327 . S
C243 C247 1.429 . S
C244 C227 1.574 . S
C244 H238 0.949 . S
C244 C248 1.368 1_554 S
C245 C226 1.429 . S
C245 C239 1.429 . S
C245 C246 1.523 . S
C246 C227 1.368 . S
C246 C240 1.368 1_554 S
C246 C245 1.523 . S
C247 C231 1.429 . S
C247 C243 1.429 . S
C247 C248 1.523 . S
C248 C232 1.368 . S
C248 C244 1.368 1_556 S
C248 C247 1.523 . S
H249 C224 0.950 . S
H250 C226 0.950 1_556 S
H251 C227 0.949 . S
H252 C229 0.950 . S
H253 C231 0.950 1_554 S
C254 C255 1.349 . S
C254 C256 1.327 . S
C254 H279 0.950 . S
C255 C254 1.349 . S
C255 C271 1.349 . S
C256 C254 1.327 . S
C256 C275 1.429 . S
C256 H280 0.950 . S
C257 C274 1.574 . S
C257 C276 1.368 . S
C257 H281 0.949 1_545 S
H258 C262 0.949 . S
C259 C260 1.349 . S
C259 C261 1.327 . S
C259 H282 0.950 1_545 S
C260 C259 1.349 . S
C260 C272 1.349 . S
C261 C259 1.327 . S
C261 C277 1.429 . S
C261 H283 0.950 1_545 S
C262 H258 0.949 . S
C262 C270 1.574 . S
C262 C278 1.368 . S
H263 C271 0.950 1_565 S
H264 C269 0.950 1_565 S
H265 C270 0.949 . S
H266 C272 0.950 . S
H267 C273 0.950 . S
H268 C274 0.949 1_565 S
C269 H264 0.950 1_545 S
C269 C271 1.327 . S
C269 C275 1.429 . S
C270 C262 1.574 . S
C270 H265 0.949 . S
C270 C276 1.368 . S
C271 C255 1.349 . S
C271 H263 0.950 1_545 S
C271 C269 1.327 . S
C272 C260 1.349 . S
C272 H266 0.950 . S
C272 C273 1.327 . S
C273 H267 0.950 . S
C273 C272 1.327 . S
C273 C277 1.429 . S
C274 C257 1.574 . S
C274 H268 0.949 1_545 S
C274 C278 1.368 . S
C275 C256 1.429 . S
C275 C269 1.429 . S
C275 C276 1.523 . S
C276 C257 1.368 . S
C276 C270 1.368 . S
C276 C275 1.523 . S
C277 C261 1.429 . S
C277 C273 1.429 . S
C277 C278 1.523 . S
C278 C262 1.368 . S
C278 C274 1.368 . S
C278 C277 1.523 . S
H279 C254 0.950 . S
H280 C256 0.950 . S
H281 C257 0.949 1_565 S
H282 C259 0.950 1_565 S
H283 C261 0.950 1_565 S
C284 C285 1.349 . S
C284 C286 1.327 . S
C284 H309 0.950 . S
C285 C284 1.349 . S
C285 C301 1.349 . S
C286 C284 1.327 . S
C286 C305 1.429 . S
C286 H310 0.950 1_554 S
C287 C304 1.574 . S
C287 C306 1.368 . S
C287 H311 0.949 . S
H288 C292 0.949 . S
C289 C290 1.349 . S
C289 C291 1.327 . S
C289 H312 0.950 . S
C290 C289 1.349 . S
C290 C302 1.349 . S
C291 C289 1.327 . S
C291 C307 1.429 . S
C291 H313 0.950 1_556 S
C292 H288 0.949 . S
C292 C300 1.574 . S
C292 C308 1.368 . S
H293 C301 0.950 . S
H294 C299 0.950 . S
H295 C300 0.949 . S
H296 C302 0.950 . S
H297 C303 0.950 . S
H298 C304 0.949 . S
C299 H294 0.950 . S
C299 C301 1.327 . S
C299 C305 1.429 . S
C300 C292 1.574 . S
C300 H295 0.949 . S
C300 C306 1.368 1_556 S
C301 C285 1.349 . S
C301 H293 0.950 . S
C301 C299 1.327 . S
C302 C290 1.349 . S
C302 H296 0.950 . S
C302 C303 1.327 . S
C303 H297 0.950 . S
C303 C302 1.327 . S
C303 C307 1.429 . S
C304 C287 1.574 . S
C304 H298 0.949 . S
C304 C308 1.368 1_554 S
C305 C286 1.429 . S
C305 C299 1.429 . S
C305 C306 1.523 . S
C306 C287 1.368 . S
C306 C300 1.368 1_554 S
C306 C305 1.523 . S
C307 C291 1.429 . S
C307 C303 1.429 . S
C307 C308 1.523 . S
C308 C292 1.368 . S
C308 C304 1.368 1_556 S
C308 C307 1.523 . S
H309 C284 0.950 . S
H310 C286 0.950 1_556 S
H311 C287 0.949 . S
H312 C289 0.950 . S
H313 C291 0.950 1_554 S
C314 C315 1.349 . S
C314 C316 1.327 . S
C314 H339 0.950 . S
C315 C314 1.349 . S
C315 C331 1.349 . S
C316 C314 1.327 . S
C316 C335 1.429 . S
C316 H340 0.950 . S
C317 C334 1.574 . S
C317 C336 1.368 . S
C317 H341 0.949 . S
H318 C322 0.949 . S
C319 C320 1.349 . S
C319 C321 1.327 . S
C319 H342 0.950 . S
C320 C319 1.349 . S
C320 C332 1.349 . S
C321 C319 1.327 . S
C321 C337 1.429 . S
C321 H343 0.950 . S
C322 H318 0.949 . S
C322 C330 1.574 . S
C322 C338 1.368 . S
H323 C331 0.950 . S
H324 C329 0.950 . S
H325 C330 0.949 . S
H326 C332 0.950 . S
H327 C333 0.950 . S
H328 C334 0.949 . S
C329 H324 0.950 . S
C329 C331 1.327 . S
C329 C335 1.429 . S
C330 C322 1.574 . S
C330 H325 0.949 . S
C330 C336 1.368 . S
C331 C315 1.349 . S
C331 H323 0.950 . S
C331 C329 1.327 . S
C332 C320 1.349 . S
C332 H326 0.950 . S
C332 C333 1.327 . S
C333 H327 0.950 . S
C333 C332 1.327 . S
C333 C337 1.429 . S
C334 C317 1.574 . S
C334 H328 0.949 . S
C334 C338 1.368 . S
C335 C316 1.429 . S
C335 C329 1.429 . S
C335 C336 1.523 . S
C336 C317 1.368 . S
C336 C330 1.368 . S
C336 C335 1.523 . S
C337 C321 1.429 . S
C337 C333 1.429 . S
C337 C338 1.523 . S
C338 C322 1.368 . S
C338 C334 1.368 . S
C338 C337 1.523 . S
H339 C314 0.950 . S
H340 C316 0.950 . S
H341 C317 0.949 . S
H342 C319 0.950 . S
H343 C321 0.950 . S
C344 C345 1.349 . S
C344 C346 1.327 . S
C344 H369 0.950 . S
C345 C344 1.349 . S
C345 C361 1.349 . S
C346 C344 1.327 . S
C346 C365 1.429 . S
C346 H370 0.950 . S
C347 C364 1.574 1_556 S
C347 C366 1.368 . S
C347 H371 0.949 1_655 S
H348 C352 0.949 . S
C349 C350 1.349 . S
C349 C351 1.327 . S
C349 H372 0.950 1_655 S
C350 C349 1.349 . S
C350 C362 1.349 . S
C351 C349 1.327 . S
C351 C367 1.429 . S
C351 H373 0.950 1_655 S
C352 H348 0.949 . S
C352 C360 1.574 1_554 S
C352 C368 1.368 . S
H353 C361 0.950 1_455 S
H354 C359 0.950 1_455 S
H355 C360 0.949 . S
H356 C362 0.950 . S
H357 C363 0.950 . S
H358 C364 0.949 1_455 S
C359 H354 0.950 1_655 S
C359 C361 1.327 . S
C359 C365 1.429 . S
C360 C352 1.574 1_556 S
C360 H355 0.949 . S
C360 C366 1.368 . S
C361 C345 1.349 . S
C361 H353 0.950 1_655 S
C361 C359 1.327 . S
C362 C350 1.349 . S
C362 H356 0.950 . S
C362 C363 1.327 . S
C363 H357 0.950 . S
C363 C362 1.327 . S
C363 C367 1.429 . S
C364 C347 1.574 1_554 S
C364 H358 0.949 1_655 S
C364 C368 1.368 . S
C365 C346 1.429 . S
C365 C359 1.429 . S
C365 C366 1.523 . S
C366 C347 1.368 . S
C366 C360 1.368 . S
C366 C365 1.523 . S
C367 C351 1.429 . S
C367 C363 1.429 . S
C367 C368 1.523 . S
C368 C352 1.368 . S
C368 C364 1.368 . S
C368 C367 1.523 . S
H369 C344 0.950 . S
H370 C346 0.950 . S
H371 C347 0.949 1_455 S
H372 C349 0.950 1_455 S
H373 C351 0.950 1_455 S
C374 C375 1.349 . S
C374 C376 1.327 . S
C374 H399 0.950 1_565 S
C375 C374 1.349 . S
C375 C391 1.349 . S
C376 C374 1.327 . S
C376 C395 1.429 . S
C376 H400 0.950 1_565 S
C377 C394 1.574 . S
C377 C396 1.368 . S
C377 H401 0.949 . S
H378 C382 0.949 1_545 S
C379 C380 1.349 . S
C379 C381 1.327 . S
C379 H402 0.950 . S
C380 C379 1.349 . S
C380 C392 1.349 . S
C381 C379 1.327 . S
C381 C397 1.429 . S
C381 H403 0.950 . S
C382 H378 0.949 1_565 S
C382 C390 1.574 . S
C382 C398 1.368 . S
H383 C391 0.950 . S
H384 C389 0.950 . S
H385 C390 0.949 1_545 S
H386 C392 0.950 1_545 S
H387 C393 0.950 1_545 S
H388 C394 0.949 . S
C389 H384 0.950 . S
C389 C391 1.327 . S
C389 C395 1.429 . S
C390 C382 1.574 . S
C390 H385 0.949 1_565 S
C390 C396 1.368 . S
C391 C375 1.349 . S
C391 H383 0.950 . S
C391 C389 1.327 . S
C392 C380 1.349 . S
C392 H386 0.950 1_565 S
C392 C393 1.327 . S
C393 H387 0.950 1_565 S
C393 C392 1.327 . S
C393 C397 1.429 . S
C394 C377 1.574 . S
C394 H388 0.949 . S
C394 C398 1.368 . S
C395 C376 1.429 . S
C395 C389 1.429 . S
C395 C396 1.523 . S
C396 C377 1.368 . S
C396 C390 1.368 . S
C396 C395 1.523 . S
C397 C381 1.429 . S
C397 C393 1.429 . S
C397 C398 1.523 . S
C398 C382 1.368 . S
C398 C394 1.368 . S
C398 C397 1.523 . S
H399 C374 0.950 1_545 S
H400 C376 0.950 1_545 S
H401 C377 0.949 . S
H402 C379 0.950 . S
H403 C381 0.950 . S
C404 C405 1.349 . S
C404 C406 1.327 . S
C404 H429 0.950 . S
C405 C404 1.349 . S
C405 C421 1.349 . S
C406 C404 1.327 . S
C406 C425 1.429 . S
C406 H430 0.962 . S
C407 C424 1.574 . S
C407 C426 1.368 . S
C407 H431 0.949 . S
H408 C412 0.949 . S
C409 C410 1.349 . S
C409 C411 1.327 . S
C409 H432 0.950 . S
C410 C409 1.349 . S
C410 C422 1.349 . S
C411 C409 1.327 . S
C411 C427 1.429 . S
C411 H433 0.960 . S
C412 H408 0.949 . S
C412 C420 1.574 . S
C412 C428 1.368 . S
H413 C421 0.950 . S
H414 C419 0.950 . S
H415 C420 0.949 . S
H416 C422 0.950 . S
H417 C423 0.950 . S
H418 C424 0.949 . S
C419 H414 0.950 . S
C419 C421 1.327 . S
C419 C425 1.429 . S
C420 C412 1.574 . S
C420 H415 0.949 . S
C420 C426 1.368 1_554 S
C421 C405 1.349 . S
C421 H413 0.950 . S
C421 C419 1.327 . S
C422 C410 1.349 . S
C422 H416 0.950 . S
C422 C423 1.327 . S
C423 H417 0.950 . S
C423 C422 1.327 . S
C423 C427 1.429 . S
C424 C407 1.574 . S
C424 H418 0.949 . S
C424 C428 1.368 1_556 S
C425 C406 1.429 . S
C425 C419 1.429 . S
C425 C426 1.523 . S
C426 C407 1.368 . S
C426 C420 1.368 1_556 S
C426 C425 1.523 . S
C427 C411 1.429 . S
C427 C423 1.429 . S
C427 C428 1.523 . S
C428 C412 1.368 . S
C428 C424 1.368 1_554 S
C428 C427 1.523 . S
H429 C404 0.950 . S
H430 C406 0.962 . S
H431 C407 0.949 . S
H432 C409 0.950 . S
H433 C411 0.960 . S
C434 C435 1.349 . S
C434 C436 1.327 . S
C434 H459 0.950 . S
C435 C434 1.349 . S
C435 C451 1.349 . S
C436 C434 1.327 . S
C436 C455 1.429 . S
C436 H460 0.950 . S
C437 C454 1.574 . S
C437 C456 1.368 . S
C437 H461 0.949 . S
H438 C442 0.949 . S
C439 C440 1.349 . S
C439 C441 1.327 . S
C439 H462 0.950 . S
C440 C439 1.349 . S
C440 C452 1.349 . S
C441 C439 1.327 . S
C441 C457 1.429 . S
C441 H463 0.950 . S
C442 H438 0.949 . S
C442 C450 1.574 . S
C442 C458 1.368 . S
H443 C451 0.950 . S
H444 C449 0.950 . S
H445 C450 0.949 . S
H446 C452 0.950 . S
H447 C453 0.950 . S
H448 C454 0.949 . S
C449 H444 0.950 . S
C449 C451 1.327 . S
C449 C455 1.429 . S
C450 C442 1.574 . S
C450 H445 0.949 . S
C450 C456 1.368 . S
C451 C435 1.349 . S
C451 H443 0.950 . S
C451 C449 1.327 . S
C452 C440 1.349 . S
C452 H446 0.950 . S
C452 C453 1.327 . S
C453 H447 0.950 . S
C453 C452 1.327 . S
C453 C457 1.429 . S
C454 C437 1.574 . S
C454 H448 0.949 . S
C454 C458 1.368 . S
C455 C436 1.429 . S
C455 C449 1.429 . S
C455 C456 1.523 . S
C456 C437 1.368 . S
C456 C450 1.368 . S
C456 C455 1.523 . S
C457 C441 1.429 . S
C457 C453 1.429 . S
C457 C458 1.523 . S
C458 C442 1.368 . S
C458 C454 1.368 . S
C458 C457 1.523 . S
H459 C434 0.950 . S
H460 C436 0.950 . S
H461 C437 0.949 . S
H462 C439 0.950 . S
H463 C441 0.950 . S
C464 C465 1.349 1_556 S
C464 C466 1.327 . S
C464 H489 0.950 . S
C465 C464 1.349 1_554 S
C465 C481 1.349 . S
C466 C464 1.327 . S
C466 C485 1.429 . S
C466 H490 0.950 . S
C467 C484 1.574 . S
C467 C486 1.368 . S
C467 H491 0.949 . S
H468 C472 0.949 . S
C469 C470 1.349 . S
C469 C471 1.327 . S
C469 H492 0.950 . S
C470 C469 1.349 . S
C470 C482 1.349 . S
C471 C469 1.327 . S
C471 C487 1.429 . S
C471 H493 0.950 . S
C472 H468 0.949 . S
C472 C480 1.574 . S
C472 C488 1.368 . S
H473 C481 0.950 . S
H474 C479 0.950 . S
H475 C480 0.949 . S
H476 C482 0.950 . S
H477 C483 0.950 . S
H478 C484 0.949 . S
C479 H474 0.950 . S
C479 C481 1.330 . S
C479 C485 1.424 1_554 S
C480 C472 1.574 . S
C480 H475 0.949 . S
C480 C486 1.368 . S
C481 C465 1.349 . S
C481 H473 0.950 . S
C481 C479 1.330 . S
C482 C470 1.349 . S
C482 H476 0.950 . S
C482 C483 1.327 . S
C483 H477 0.950 . S
C483 C482 1.327 . S
C483 C487 1.429 . S
C484 C467 1.574 . S
C484 H478 0.949 . S
C484 C488 1.368 . S
C485 C466 1.429 . S
C485 C479 1.424 1_556 S
C485 C486 1.523 . S
C486 C467 1.368 . S
C486 C480 1.368 . S
C486 C485 1.523 . S
C487 C471 1.429 . S
C487 C483 1.429 . S
C487 C488 1.523 . S
C488 C472 1.368 . S
C488 C484 1.368 . S
C488 C487 1.523 . S
H489 C464 0.950 . S
H490 C466 0.950 . S
H491 C467 0.949 . S
H492 C469 0.950 . S
H493 C471 0.950 . S
C494 C495 1.349 . S
C494 C496 1.327 . S
C494 H519 0.950 . S
C495 C494 1.349 . S
C495 C511 1.349 . S
C496 C494 1.327 . S
C496 C515 1.429 . S
C496 H520 0.950 . S
C497 C514 1.574 . S
C497 C516 1.368 . S
C497 H521 0.949 . S
H498 C502 0.949 . S
C499 C500 1.349 . S
C499 C501 1.327 . S
C499 H522 0.950 . S
C500 C499 1.349 . S
C500 C512 1.349 . S
C501 C499 1.327 . S
C501 C517 1.429 . S
C501 H523 0.950 . S
C502 H498 0.949 . S
C502 C510 1.574 . S
C502 C518 1.368 . S
H503 C511 0.950 . S
H504 C509 0.950 . S
H505 C510 0.949 . S
H506 C512 0.950 . S
H507 C513 0.950 . S
H508 C514 0.949 . S
C509 H504 0.950 . S
C509 C511 1.327 . S
C509 C515 1.429 . S
C510 C502 1.574 . S
C510 H505 0.949 . S
C510 C516 1.368 . S
C511 C495 1.349 . S
C511 H503 0.950 . S
C511 C509 1.327 . S
C512 C500 1.349 . S
C512 H506 0.950 . S
C512 C513 1.327 . S
C513 H507 0.950 . S
C513 C512 1.327 . S
C513 C517 1.429 . S
C514 C497 1.574 . S
C514 H508 0.949 . S
C514 C518 1.368 . S
C515 C496 1.429 . S
C515 C509 1.429 . S
C515 C516 1.523 . S
C516 C497 1.368 . S
C516 C510 1.368 . S
C516 C515 1.523 . S
C517 C501 1.429 . S
C517 C513 1.429 . S
C517 C518 1.523 . S
C518 C502 1.368 . S
C518 C514 1.368 . S
C518 C517 1.523 . S
H519 C494 0.950 . S
H520 C496 0.950 . S
H521 C497 0.949 . S
H522 C499 0.950 . S
H523 C501 0.950 . S
C524 C525 1.349 1_556 S
C524 C526 1.327 . S
C524 H549 0.950 . S
C525 C524 1.349 1_554 S
C525 C541 1.349 . S
C526 C524 1.327 . S
C526 C545 1.429 . S
C526 H550 0.950 . S
C527 C544 1.574 . S
C527 C546 1.368 . S
C527 H551 0.949 . S
H528 C532 0.949 . S
C529 C530 1.349 . S
C529 C531 1.327 . S
C529 H552 0.950 . S
C530 C529 1.349 . S
C530 C542 1.349 . S
C531 C529 1.327 . S
C531 C547 1.429 . S
C531 H553 0.950 . S
C532 H528 0.949 . S
C532 C540 1.574 . S
C532 C548 1.368 . S
H533 C541 0.950 . S
H534 C539 0.950 . S
H535 C540 0.949 . S
H536 C542 0.950 . S
H537 C543 0.950 . S
H538 C544 0.949 . S
C539 H534 0.950 . S
C539 C541 1.327 . S
C539 C545 1.429 1_554 S
C540 C532 1.574 . S
C540 H535 0.949 . S
C540 C546 1.368 . S
C541 C525 1.349 . S
C541 H533 0.950 . S
C541 C539 1.327 . S
C542 C530 1.349 . S
C542 H536 0.950 . S
C542 C543 1.327 . S
C543 H537 0.950 . S
C543 C542 1.327 . S
C543 C547 1.429 . S
C544 C527 1.574 . S
C544 H538 0.949 . S
C544 C548 1.368 . S
C545 C526 1.429 . S
C545 C539 1.429 1_556 S
C545 C546 1.523 . S
C546 C527 1.368 . S
C546 C540 1.368 . S
C546 C545 1.523 . S
C547 C531 1.429 . S
C547 C543 1.429 . S
C547 C548 1.523 . S
C548 C532 1.368 . S
C548 C544 1.368 . S
C548 C547 1.523 . S
H549 C524 0.950 . S
H550 C526 0.950 . S
H551 C527 0.949 . S
H552 C529 0.950 . S
H553 C531 0.950 . S
C554 C555 1.349 . S
C554 C556 1.327 . S
C554 H579 0.950 . S
C555 C554 1.349 . S
C555 C571 1.349 . S
C556 C554 1.327 . S
C556 C575 1.429 . S
C556 H580 0.950 . S
C557 C574 1.574 . S
C557 C576 1.368 . S
C557 H581 0.949 . S
H558 C562 0.949 . S
C559 C560 1.349 . S
C559 C561 1.327 . S
C559 H582 0.950 . S
C560 C559 1.349 . S
C560 C572 1.349 . S
C561 C559 1.327 . S
C561 C577 1.429 . S
C561 H583 0.950 . S
C562 H558 0.949 . S
C562 C570 1.574 . S
C562 C578 1.368 . S
H563 C571 0.950 . S
H564 C569 0.950 . S
H565 C570 0.949 . S
H566 C572 0.950 . S
H567 C573 0.950 . S
H568 C574 0.949 . S
C569 H564 0.950 . S
C569 C571 1.327 . S
C569 C575 1.429 . S
C570 C562 1.574 . S
C570 H565 0.949 . S
C570 C576 1.368 . S
C571 C555 1.349 . S
C571 H563 0.950 . S
C571 C569 1.327 . S
C572 C560 1.349 . S
C572 H566 0.950 . S
C572 C573 1.327 . S
C573 H567 0.950 . S
C573 C572 1.327 . S
C573 C577 1.429 . S
C574 C557 1.574 . S
C574 H568 0.949 . S
C574 C578 1.368 . S
C575 C556 1.429 . S
C575 C569 1.429 . S
C575 C576 1.523 . S
C576 C557 1.368 . S
C576 C570 1.368 . S
C576 C575 1.523 . S
C577 C561 1.429 . S
C577 C573 1.429 . S
C577 C578 1.523 . S
C578 C562 1.368 . S
C578 C574 1.368 . S
C578 C577 1.523 . S
H579 C554 0.950 . S
H580 C556 0.950 . S
H581 C557 0.949 . S
H582 C559 0.950 . S
H583 C561 0.950 . S
C584 C585 1.349 . S
C584 C586 1.327 . S
C584 H609 0.950 . S
C585 C584 1.349 . S
C585 C601 1.349 . S
C586 C584 1.327 . S
C586 C605 1.429 . S
C586 H610 0.950 . S
C587 C604 1.574 . S
C587 C606 1.368 . S
C587 H611 0.949 . S
H588 C592 0.949 . S
C589 C590 1.349 1_554 S
C589 C591 1.327 . S
C589 H612 0.950 . S
C590 C589 1.349 1_556 S
C590 C602 1.349 . S
C591 C589 1.327 . S
C591 C607 1.429 . S
C591 H613 0.950 . S
C592 H588 0.949 . S
C592 C600 1.574 . S
C592 C608 1.368 . S
H593 C601 0.950 . S
H594 C599 0.950 . S
H595 C600 0.949 . S
H596 C602 0.950 . S
H597 C603 0.950 . S
H598 C604 0.949 . S
C599 H594 0.950 . S
C599 C601 1.327 . S
C599 C605 1.429 . S
C600 C592 1.574 . S
C600 H595 0.949 . S
C600 C606 1.368 . S
C601 C585 1.349 . S
C601 H593 0.950 . S
C601 C599 1.327 . S
C602 C590 1.349 . S
C602 H596 0.950 . S
C602 C603 1.327 . S
C603 H597 0.950 . S
C603 C602 1.327 . S
C603 C607 1.429 1_556 S
C604 C587 1.574 . S
C604 H598 0.949 . S
C604 C608 1.368 . S
C605 C586 1.429 . S
C605 C599 1.429 . S
C605 C606 1.523 . S
C606 C587 1.368 . S
C606 C600 1.368 . S
C606 C605 1.523 . S
C607 C591 1.429 . S
C607 C603 1.429 1_554 S
C607 C608 1.523 . S
C608 C592 1.368 . S
C608 C604 1.368 . S
C608 C607 1.523 . S
H609 C584 0.950 . S
H610 C586 0.950 . S
H611 C587 0.949 . S
H612 C589 0.950 . S
H613 C591 0.950 . S
C614 C615 1.349 . S
C614 C616 1.327 . S
C614 H639 0.950 . S
C615 C614 1.349 . S
C615 C631 1.349 . S
C616 C614 1.327 . S
C616 C635 1.429 . S
C616 H640 0.950 . S
C617 C634 1.574 . S
C617 C636 1.368 . S
C617 H641 0.949 . S
H618 C622 0.949 . S
C619 C620 1.349 . S
C619 C621 1.327 . S
C619 H642 0.950 . S
C620 C619 1.349 . S
C620 C632 1.349 . S
C621 C619 1.327 . S
C621 C637 1.429 . S
C621 H643 0.950 . S
C622 H618 0.949 . S
C622 C630 1.574 . S
C622 C638 1.368 . S
H623 C631 0.950 . S
H624 C629 0.950 . S
H625 C630 0.949 . S
H626 C632 0.950 . S
H627 C633 0.950 . S
H628 C634 0.949 . S
C629 H624 0.950 . S
C629 C631 1.327 . S
C629 C635 1.429 . S
C630 C622 1.574 . S
C630 H625 0.949 . S
C630 C636 1.368 . S
C631 C615 1.349 . S
C631 H623 0.950 . S
C631 C629 1.327 . S
C632 C620 1.349 . S
C632 H626 0.950 . S
C632 C633 1.327 . S
C633 H627 0.950 . S
C633 C632 1.327 . S
C633 C637 1.429 . S
C634 C617 1.574 . S
C634 H628 0.949 . S
C634 C638 1.368 . S
C635 C616 1.429 . S
C635 C629 1.429 . S
C635 C636 1.523 . S
C636 C617 1.368 . S
C636 C630 1.368 . S
C636 C635 1.523 . S
C637 C621 1.429 . S
C637 C633 1.429 . S
C637 C638 1.523 . S
C638 C622 1.368 . S
C638 C634 1.368 . S
C638 C637 1.523 . S
H639 C614 0.950 . S
H640 C616 0.950 . S
H641 C617 0.949 . S
H642 C619 0.950 . S
H643 C621 0.950 . S
C644 C645 1.349 . S
C644 C646 1.327 . S
C644 H669 0.950 . S
C645 C644 1.349 . S
C645 C661 1.349 . S
C646 C644 1.327 . S
C646 C665 1.429 . S
C646 H670 0.950 . S
C647 C664 1.574 . S
C647 C666 1.368 . S
C647 H671 0.949 . S
H648 C652 0.949 . S
C649 C650 1.349 1_554 S
C649 C651 1.327 . S
C649 H672 0.950 . S
C650 C649 1.349 1_556 S
C650 C662 1.349 . S
C651 C649 1.327 . S
C651 C667 1.429 . S
C651 H673 0.950 . S
C652 H648 0.949 . S
C652 C660 1.574 . S
C652 C668 1.368 . S
H653 C661 0.950 . S
H654 C659 0.950 . S
H655 C660 0.949 . S
H656 C662 0.950 . S
H657 C663 0.950 . S
H658 C664 0.949 . S
C659 H654 0.950 . S
C659 C661 1.327 . S
C659 C665 1.429 . S
C660 C652 1.574 . S
C660 H655 0.949 . S
C660 C666 1.368 . S
C661 C645 1.349 . S
C661 H653 0.950 . S
C661 C659 1.327 . S
C662 C650 1.349 . S
C662 H656 0.950 . S
C662 C663 1.327 . S
C663 H657 0.950 . S
C663 C662 1.327 . S
C663 C667 1.429 1_556 S
C664 C647 1.574 . S
C664 H658 0.949 . S
C664 C668 1.368 . S
C665 C646 1.429 . S
C665 C659 1.429 . S
C665 C666 1.523 . S
C666 C647 1.368 . S
C666 C660 1.368 . S
C666 C665 1.523 . S
C667 C651 1.429 . S
C667 C663 1.429 1_554 S
C667 C668 1.523 . S
C668 C652 1.368 . S
C668 C664 1.368 . S
C668 C667 1.523 . S
H669 C644 0.950 . S
H670 C646 0.950 . S
H671 C647 0.949 . S
H672 C649 0.950 . S
H673 C651 0.950 . S
C674 C675 1.349 . S
C674 C676 1.327 . S
C674 H699 0.950 . S
C675 C674 1.349 . S
C675 C691 1.349 . S
C676 C674 1.327 . S
C676 C695 1.429 . S
C676 H700 0.950 . S
C677 C694 1.574 . S
C677 C696 1.368 . S
C677 H701 0.949 . S
H678 C682 0.949 . S
C679 C680 1.349 . S
C679 C681 1.327 . S
C679 H702 0.950 . S
C680 C679 1.349 . S
C680 C692 1.349 . S
C681 C679 1.327 . S
C681 C697 1.429 . S
C681 H703 0.950 . S
C682 H678 0.949 . S
C682 C690 1.574 . S
C682 C698 1.368 . S
H683 C691 0.950 . S
H684 C689 0.950 . S
H685 C690 0.949 . S
H686 C692 0.950 . S
H687 C693 0.950 . S
H688 C694 0.949 . S
C689 H684 0.950 . S
C689 C691 1.327 . S
C689 C695 1.429 . S
C690 C682 1.574 . S
C690 H685 0.949 . S
C690 C696 1.368 . S
C691 C675 1.349 . S
C691 H683 0.950 . S
C691 C689 1.327 . S
C692 C680 1.349 . S
C692 H686 0.950 . S
C692 C693 1.327 . S
C693 H687 0.950 . S
C693 C692 1.327 . S
C693 C697 1.429 . S
C694 C677 1.574 . S
C694 H688 0.949 . S
C694 C698 1.368 . S
C695 C676 1.429 . S
C695 C689 1.429 . S
C695 C696 1.523 . S
C696 C677 1.368 . S
C696 C690 1.368 . S
C696 C695 1.523 . S
C697 C681 1.429 . S
C697 C693 1.429 . S
C697 C698 1.523 . S
C698 C682 1.368 . S
C698 C694 1.368 . S
C698 C697 1.523 . S
H699 C674 0.950 . S
H700 C676 0.950 . S
H701 C677 0.949 . S
H702 C679 0.950 . S
H703 C681 0.950 . S
C704 C705 1.349 . S
C704 C706 1.327 . S
C704 H729 0.950 . S
C705 C704 1.349 . S
C705 C721 1.349 1_556 S
C706 C704 1.327 . S
C706 C725 1.429 1_556 S
C706 H730 0.950 . S
C707 C724 1.574 . S
C707 C726 1.368 . S
C707 H731 0.949 . S
H708 C712 0.949 . S
C709 C710 1.349 . S
C709 C711 1.327 . S
C709 H732 0.950 . S
C710 C709 1.349 . S
C710 C722 1.349 . S
C711 C709 1.327 . S
C711 C727 1.429 . S
C711 H733 0.950 . S
C712 H708 0.949 . S
C712 C720 1.574 . S
C712 C728 1.368 . S
H713 C721 0.950 . S
H714 C719 0.950 . S
H715 C720 0.949 . S
H716 C722 0.950 . S
H717 C723 0.950 . S
H718 C724 0.949 . S
C719 H714 0.950 . S
C719 C721 1.327 . S
C719 C725 1.429 . S
C720 C712 1.574 . S
C720 H715 0.949 . S
C720 C726 1.368 . S
C721 C705 1.349 1_554 S
C721 H713 0.950 . S
C721 C719 1.327 . S
C722 C710 1.349 . S
C722 H716 0.950 . S
C722 C723 1.327 . S
C723 H717 0.950 . S
C723 C722 1.327 . S
C723 C727 1.429 . S
C724 C707 1.574 . S
C724 H718 0.949 . S
C724 C728 1.368 . S
C725 C706 1.429 1_554 S
C725 C719 1.429 . S
C725 C726 1.523 . S
C726 C707 1.368 . S
C726 C720 1.368 . S
C726 C725 1.523 . S
C727 C711 1.429 . S
C727 C723 1.429 . S
C727 C728 1.523 . S
C728 C712 1.368 . S
C728 C724 1.368 . S
C728 C727 1.523 . S
H729 C704 0.950 . S
H730 C706 0.950 . S
H731 C707 0.949 . S
H732 C709 0.950 . S
H733 C711 0.950 . S
C734 C735 1.349 . S
C734 C736 1.327 . S
C734 H759 0.950 . S
C735 C734 1.349 . S
C735 C751 1.349 . S
C736 C734 1.327 . S
C736 C755 1.429 . S
C736 H760 0.950 . S
C737 C754 1.574 . S
C737 C756 1.368 . S
C737 H761 0.949 . S
H738 C742 0.949 . S
C739 C740 1.349 . S
C739 C741 1.327 . S
C739 H762 0.950 . S
C740 C739 1.349 . S
C740 C752 1.349 . S
C741 C739 1.327 . S
C741 C757 1.429 . S
C741 H763 0.950 . S
C742 H738 0.949 . S
C742 C750 1.574 . S
C742 C758 1.368 . S
H743 C751 0.950 . S
H744 C749 0.950 . S
H745 C750 0.949 . S
H746 C752 0.950 . S
H747 C753 0.950 . S
H748 C754 0.949 . S
C749 H744 0.950 . S
C749 C751 1.327 . S
C749 C755 1.429 . S
C750 C742 1.574 . S
C750 H745 0.949 . S
C750 C756 1.368 . S
C751 C735 1.349 . S
C751 H743 0.950 . S
C751 C749 1.327 . S
C752 C740 1.349 . S
C752 H746 0.950 . S
C752 C753 1.327 . S
C753 H747 0.950 . S
C753 C752 1.327 . S
C753 C757 1.429 . S
C754 C737 1.574 . S
C754 H748 0.949 . S
C754 C758 1.368 . S
C755 C736 1.429 . S
C755 C749 1.429 . S
C755 C756 1.523 . S
C756 C737 1.368 . S
C756 C750 1.368 . S
C756 C755 1.523 . S
C757 C741 1.429 . S
C757 C753 1.429 . S
C757 C758 1.523 . S
C758 C742 1.368 . S
C758 C754 1.368 . S
C758 C757 1.523 . S
H759 C734 0.950 . S
H760 C736 0.950 . S
H761 C737 0.949 . S
H762 C739 0.950 . S
H763 C741 0.950 . S
C764 C765 1.349 . S
C764 C766 1.327 . S
C764 H789 0.950 . S
C765 C764 1.349 . S
C765 C781 1.349 . S
C766 C764 1.327 . S
C766 C785 1.429 . S
C766 H790 0.950 . S
C767 C784 1.574 . S
C767 C786 1.368 . S
C767 H791 0.949 . S
H768 C772 0.949 . S
C769 C770 1.349 1_554 S
C769 C771 1.327 . S
C769 H792 0.950 . S
C770 C769 1.349 1_556 S
C770 C782 1.349 . S
C771 C769 1.327 . S
C771 C787 1.429 . S
C771 H793 0.950 . S
C772 H768 0.949 . S
C772 C780 1.574 . S
C772 C788 1.368 . S
H773 C781 0.950 . S
H774 C779 0.950 . S
H775 C780 0.949 . S
H776 C782 0.950 . S
H777 C783 0.950 . S
H778 C784 0.949 . S
C779 H774 0.950 . S
C779 C781 1.327 . S
C779 C785 1.429 . S
C780 C772 1.574 . S
C780 H775 0.949 . S
C780 C786 1.368 . S
C781 C765 1.349 . S
C781 H773 0.950 . S
C781 C779 1.327 . S
C782 C770 1.349 . S
C782 H776 0.950 . S
C782 C783 1.327 1_556 S
C783 H777 0.950 . S
C783 C782 1.327 1_554 S
C783 C787 1.429 . S
C784 C767 1.574 . S
C784 H778 0.949 . S
C784 C788 1.368 . S
C785 C766 1.429 . S
C785 C779 1.429 . S
C785 C786 1.523 . S
C786 C767 1.368 . S
C786 C780 1.368 . S
C786 C785 1.523 . S
C787 C771 1.429 . S
C787 C783 1.429 . S
C787 C788 1.523 . S
C788 C772 1.368 . S
C788 C784 1.368 . S
C788 C787 1.523 . S
H789 C764 0.950 . S
H790 C766 0.950 . S
H791 C767 0.949 . S
H792 C769 0.950 . S
H793 C771 0.950 . S
C794 C795 1.349 . S
C794 C796 1.327 . S
C794 H819 0.950 . S
C795 C794 1.349 . S
C795 C811 1.349 . S
C796 C794 1.327 . S
C796 C815 1.429 . S
C796 H820 0.950 . S
C797 C814 1.574 . S
C797 C816 1.368 . S
C797 H821 0.949 . S
H798 C802 0.949 . S
C799 C800 1.349 . S
C799 C801 1.327 . S
C799 H822 0.950 . S
C800 C799 1.349 . S
C800 C812 1.349 . S
C801 C799 1.327 . S
C801 C817 1.429 . S
C801 H823 0.950 . S
C802 H798 0.949 . S
C802 C810 1.574 . S
C802 C818 1.368 . S
H803 C811 0.950 . S
H804 C809 0.950 . S
H805 C810 0.949 . S
H806 C812 0.950 . S
H807 C813 0.950 . S
H808 C814 0.949 . S
C809 H804 0.950 . S
C809 C811 1.327 . S
C809 C815 1.429 . S
C810 C802 1.574 . S
C810 H805 0.949 . S
C810 C816 1.368 . S
C811 C795 1.349 . S
C811 H803 0.950 . S
C811 C809 1.327 . S
C812 C800 1.349 . S
C812 H806 0.950 . S
C812 C813 1.327 . S
C813 H807 0.950 . S
C813 C812 1.327 . S
C813 C817 1.429 . S
C814 C797 1.574 . S
C814 H808 0.949 . S
C814 C818 1.368 . S
C815 C796 1.429 . S
C815 C809 1.429 . S
C815 C816 1.523 . S
C816 C797 1.368 . S
C816 C810 1.368 . S
C816 C815 1.523 . S
C817 C801 1.429 . S
C817 C813 1.429 . S
C817 C818 1.523 . S
C818 C802 1.368 . S
C818 C814 1.368 . S
C818 C817 1.523 . S
H819 C794 0.950 . S
H820 C796 0.950 . S
H821 C797 0.949 . S
H822 C799 0.950 . S
H823 C801 0.950 . S
C824 C825 1.349 . S
C824 C826 1.327 . S
C824 H849 0.950 . S
C825 C824 1.349 . S
C825 C841 1.349 . S
C826 C824 1.327 . S
C826 C845 1.429 . S
C826 H850 0.950 . S
C827 C844 1.574 . S
C827 C846 1.368 . S
C827 H851 0.949 . S
H828 C832 0.949 . S
C829 C830 1.349 . S
C829 C831 1.327 . S
C829 H852 0.950 . S
C830 C829 1.349 . S
C830 C842 1.349 1_554 S
C831 C829 1.327 . S
C831 C847 1.429 1_554 S
C831 H853 0.950 . S
C832 H828 0.949 . S
C832 C840 1.574 . S
C832 C848 1.368 . S
H833 C841 0.950 . S
H834 C839 0.950 . S
H835 C840 0.949 . S
H836 C842 0.950 . S
H837 C843 0.950 . S
H838 C844 0.949 . S
C839 H834 0.950 . S
C839 C841 1.327 . S
C839 C845 1.429 . S
C840 C832 1.574 . S
C840 H835 0.949 . S
C840 C846 1.368 . S
C841 C825 1.349 . S
C841 H833 0.950 . S
C841 C839 1.327 . S
C842 C830 1.349 1_556 S
C842 H836 0.950 . S
C842 C843 1.327 . S
C843 H837 0.950 . S
C843 C842 1.327 . S
C843 C847 1.429 . S
C844 C827 1.574 . S
C844 H838 0.949 . S
C844 C848 1.368 . S
C845 C826 1.429 . S
C845 C839 1.429 . S
C845 C846 1.523 . S
C846 C827 1.368 . S
C846 C840 1.368 . S
C846 C845 1.523 . S
C847 C831 1.429 1_556 S
C847 C843 1.429 . S
C847 C848 1.523 . S
C848 C832 1.368 . S
C848 C844 1.368 . S
C848 C847 1.523 . S
H849 C824 0.950 . S
H850 C826 0.950 . S
H851 C827 0.949 . S
H852 C829 0.950 . S
H853 C831 0.950 . S
C854 C855 1.349 . S
C854 C856 1.327 . S
C854 H879 0.950 . S
C855 C854 1.349 . S
C855 C871 1.349 . S
C856 C854 1.327 . S
C856 C875 1.429 . S
C856 H880 0.950 . S
C857 C874 1.574 . S
C857 C876 1.368 . S
C857 H881 0.949 . S
H858 C862 0.949 . S
C859 C860 1.349 . S
C859 C861 1.327 . S
C859 H882 0.950 . S
C860 C859 1.349 . S
C860 C872 1.349 . S
C861 C859 1.327 . S
C861 C877 1.429 . S
C861 H883 0.950 . S
C862 H858 0.949 . S
C862 C870 1.574 . S
C862 C878 1.368 . S
H863 C871 0.950 . S
H864 C869 0.950 . S
H865 C870 0.949 . S
H866 C872 0.950 . S
H867 C873 0.950 . S
H868 C874 0.949 . S
C869 H864 0.950 . S
C869 C871 1.327 . S
C869 C875 1.429 . S
C870 C862 1.574 . S
C870 H865 0.949 . S
C870 C876 1.368 . S
C871 C855 1.349 . S
C871 H863 0.950 . S
C871 C869 1.327 . S
C872 C860 1.349 . S
C872 H866 0.950 . S
C872 C873 1.327 . S
C873 H867 0.950 . S
C873 C872 1.327 . S
C873 C877 1.429 . S
C874 C857 1.574 . S
C874 H868 0.949 . S
C874 C878 1.368 . S
C875 C856 1.429 . S
C875 C869 1.429 . S
C875 C876 1.523 . S
C876 C857 1.368 . S
C876 C870 1.368 . S
C876 C875 1.523 . S
C877 C861 1.429 . S
C877 C873 1.429 . S
C877 C878 1.523 . S
C878 C862 1.368 . S
C878 C874 1.368 . S
C878 C877 1.523 . S
H879 C854 0.950 . S
H880 C856 0.950 . S
H881 C857 0.949 . S
H882 C859 0.950 . S
H883 C861 0.950 . S
C884 C885 1.349 1_556 S
C884 C886 1.327 . S
C884 H909 0.950 . S
C885 C884 1.349 1_554 S
C885 C901 1.349 . S
C886 C884 1.327 . S
C886 C905 1.429 . S
C886 H910 0.950 . S
C887 C904 1.574 . S
C887 C906 1.368 . S
C887 H911 0.949 . S
H888 C892 0.949 . S
C889 C890 1.349 . S
C889 C891 1.327 . S
C889 H912 0.950 . S
C890 C889 1.349 . S
C890 C902 1.349 . S
C891 C889 1.327 . S
C891 C907 1.429 . S
C891 H913 0.950 . S
C892 H888 0.949 . S
C892 C900 1.574 . S
C892 C908 1.368 . S
H893 C901 0.950 . S
H894 C899 0.950 . S
H895 C900 0.949 . S
H896 C902 0.950 . S
H897 C903 0.950 . S
H898 C904 0.949 . S
C899 H894 0.950 . S
C899 C901 1.327 . S
C899 C905 1.429 1_554 S
C900 C892 1.574 . S
C900 H895 0.949 . S
C900 C906 1.368 . S
C901 C885 1.349 . S
C901 H893 0.950 . S
C901 C899 1.327 . S
C902 C890 1.349 . S
C902 H896 0.950 . S
C902 C903 1.327 . S
C903 H897 0.950 . S
C903 C902 1.327 . S
C903 C907 1.429 . S
C904 C887 1.574 . S
C904 H898 0.949 . S
C904 C908 1.368 . S
C905 C886 1.429 . S
C905 C899 1.429 1_556 S
C905 C906 1.523 . S
C906 C887 1.368 . S
C906 C900 1.368 . S
C906 C905 1.523 . S
C907 C891 1.429 . S
C907 C903 1.429 . S
C907 C908 1.523 . S
C908 C892 1.368 . S
C908 C904 1.368 . S
C908 C907 1.523 . S
H909 C884 0.950 . S
H910 C886 0.950 . S
H911 C887 0.949 . S
H912 C889 0.950 . S
H913 C891 0.950 . S
C914 C915 1.349 . S
C914 C916 1.327 . S
C914 H939 0.950 . S
C915 C914 1.349 . S
C915 C931 1.349 . S
C916 C914 1.327 . S
C916 C935 1.429 . S
C916 H940 0.950 . S
C917 C934 1.574 . S
C917 C936 1.368 . S
C917 H941 0.949 . S
H918 C922 0.949 . S
C919 C920 1.349 . S
C919 C921 1.327 . S
C919 H942 0.950 . S
C920 C919 1.349 . S
C920 C932 1.349 . S
C921 C919 1.327 . S
C921 C937 1.429 . S
C921 H943 0.950 . S
C922 H918 0.949 . S
C922 C930 1.574 . S
C922 C938 1.368 . S
H923 C931 0.950 . S
H924 C929 0.950 . S
H925 C930 0.949 . S
H926 C932 0.950 . S
H927 C933 0.950 . S
H928 C934 0.949 . S
C929 H924 0.950 . S
C929 C931 1.327 . S
C929 C935 1.429 . S
C930 C922 1.574 . S
C930 H925 0.949 . S
C930 C936 1.368 . S
C931 C915 1.349 . S
C931 H923 0.950 . S
C931 C929 1.327 . S
C932 C920 1.349 . S
C932 H926 0.950 . S
C932 C933 1.327 . S
C933 H927 0.950 . S
C933 C932 1.327 . S
C933 C937 1.429 . S
C934 C917 1.574 . S
C934 H928 0.949 . S
C934 C938 1.368 . S
C935 C916 1.429 . S
C935 C929 1.429 . S
C935 C936 1.523 . S
C936 C917 1.368 . S
C936 C930 1.368 . S
C936 C935 1.523 . S
C937 C921 1.429 . S
C937 C933 1.429 . S
C937 C938 1.523 . S
C938 C922 1.368 . S
C938 C934 1.368 . S
C938 C937 1.523 . S
H939 C914 0.950 . S
H940 C916 0.950 . S
H941 C917 0.949 . S
H942 C919 0.950 . S
H943 C921 0.950 . S
C944 C945 1.349 . S
C944 C946 1.327 . S
C944 H969 0.950 . S
C945 C944 1.349 . S
C945 C961 1.349 . S
C946 C944 1.327 . S
C946 C965 1.429 . S
C946 H970 0.950 . S
C947 C964 1.574 . S
C947 C966 1.368 . S
C947 H971 0.949 . S
H948 C952 0.949 . S
C949 C950 1.349 . S
C949 C951 1.327 . S
C949 H972 0.950 . S
C950 C949 1.349 . S
C950 C962 1.349 . S
C951 C949 1.327 . S
C951 C967 1.429 . S
C951 H973 0.950 . S
C952 H948 0.949 . S
C952 C960 1.574 . S
C952 C968 1.368 . S
H953 C961 0.950 . S
H954 C959 0.950 . S
H955 C960 0.949 . S
H956 C962 0.950 . S
H957 C963 0.950 . S
H958 C964 0.949 . S
C959 H954 0.950 . S
C959 C961 1.327 . S
C959 C965 1.429 . S
C960 C952 1.574 . S
C960 H955 0.949 . S
C960 C966 1.368 . S
C961 C945 1.349 . S
C961 H953 0.950 . S
C961 C959 1.327 . S
C962 C950 1.349 . S
C962 H956 0.950 . S
C962 C963 1.327 . S
C963 H957 0.950 . S
C963 C962 1.327 . S
C963 C967 1.429 . S
C964 C947 1.574 . S
C964 H958 0.949 . S
C964 C968 1.368 . S
C965 C946 1.429 . S
C965 C959 1.429 . S
C965 C966 1.523 . S
C966 C947 1.368 . S
C966 C960 1.368 . S
C966 C965 1.523 . S
C967 C951 1.429 . S
C967 C963 1.429 . S
C967 C968 1.523 . S
C968 C952 1.368 . S
C968 C964 1.368 . S
C968 C967 1.523 . S
H969 C944 0.950 . S
H970 C946 0.950 . S
H971 C947 0.949 . S
H972 C949 0.950 . S
H973 C951 0.950 . S
C974 C975 1.349 . S
C974 C976 1.327 . S
C974 H999 0.950 . S
C975 C974 1.349 . S
C975 C991 1.349 . S
C976 C974 1.327 . S
C976 C995 1.429 . S
C976 H1000 0.950 . S
C977 C994 1.574 . S
C977 C996 1.368 . S
C977 H1001 0.949 . S
H978 C982 0.949 . S
C979 C980 1.349 . S
C979 C981 1.327 . S
C979 H1002 0.950 . S
C980 C979 1.349 . S
C980 C992 1.349 . S
C981 C979 1.327 . S
C981 C997 1.429 . S
C981 H1003 0.950 . S
C982 H978 0.949 . S
C982 C990 1.574 . S
C982 C998 1.368 . S
H983 C991 0.950 . S
H984 C989 0.950 . S
H985 C990 0.949 . S
H986 C992 0.950 . S
H987 C993 0.950 . S
H988 C994 0.949 . S
C989 H984 0.950 . S
C989 C991 1.327 . S
C989 C995 1.429 . S
C990 C982 1.574 . S
C990 H985 0.949 . S
C990 C996 1.368 . S
C991 C975 1.349 . S
C991 H983 0.950 . S
C991 C989 1.327 . S
C992 C980 1.349 . S
C992 H986 0.950 . S
C992 C993 1.327 . S
C993 H987 0.950 . S
C993 C992 1.327 . S
C993 C997 1.429 . S
C994 C977 1.574 . S
C994 H988 0.949 . S
C994 C998 1.368 . S
C995 C976 1.429 . S
C995 C989 1.429 . S
C995 C996 1.523 . S
C996 C977 1.368 . S
C996 C990 1.368 . S
C996 C995 1.523 . S
C997 C981 1.429 . S
C997 C993 1.429 . S
C997 C998 1.523 . S
C998 C982 1.368 . S
C998 C994 1.368 . S
C998 C997 1.523 . S
H999 C974 0.950 . S
H1000 C976 0.950 . S
H1001 C977 0.949 . S
H1002 C979 0.950 . S
H1003 C981 0.950 . S
C1004 C1005 1.349 . S
C1004 C1006 1.327 . S
C1004 H1029 0.950 . S
C1005 C1004 1.349 . S
C1005 C1021 1.349 . S
C1006 C1004 1.327 . S
C1006 C1025 1.429 . S
C1006 H1030 0.950 . S
C1007 C1024 1.574 . S
C1007 C1026 1.368 . S
C1007 H1031 0.949 . S
H1008 C1012 0.949 . S
C1009 C1010 1.349 . S
C1009 C1011 1.327 . S
C1009 H1032 0.950 . S
C1010 C1009 1.349 . S
C1010 C1022 1.349 . S
C1011 C1009 1.327 . S
C1011 C1027 1.429 . S
C1011 H1033 0.950 . S
C1012 H1008 0.949 . S
C1012 C1020 1.574 . S
C1012 C1028 1.368 . S
H1013 C1021 0.950 . S
H1014 C1019 0.950 . S
H1015 C1020 0.949 . S
H1016 C1022 0.950 . S
H1017 C1023 0.950 . S
H1018 C1024 0.949 . S
C1019 H1014 0.950 . S
C1019 C1021 1.327 . S
C1019 C1025 1.429 . S
C1020 C1012 1.574 . S
C1020 H1015 0.949 . S
C1020 C1026 1.368 . S
C1021 C1005 1.349 . S
C1021 H1013 0.950 . S
C1021 C1019 1.327 . S
C1022 C1010 1.349 . S
C1022 H1016 0.950 . S
C1022 C1023 1.327 . S
C1023 H1017 0.950 . S
C1023 C1022 1.327 . S
C1023 C1027 1.429 . S
C1024 C1007 1.574 . S
C1024 H1018 0.949 . S
C1024 C1028 1.368 . S
C1025 C1006 1.429 . S
C1025 C1019 1.429 . S
C1025 C1026 1.523 . S
C1026 C1007 1.368 . S
C1026 C1020 1.368 . S
C1026 C1025 1.523 . S
C1027 C1011 1.429 . S
C1027 C1023 1.429 . S
C1027 C1028 1.523 . S
C1028 C1012 1.368 . S
C1028 C1024 1.368 . S
C1028 C1027 1.523 . S
H1029 C1004 0.950 . S
H1030 C1006 0.950 . S
H1031 C1007 0.949 . S
H1032 C1009 0.950 . S
H1033 C1011 0.950 . S
C1034 C1035 1.349 . S
C1034 C1036 1.327 . S
C1034 H1059 0.950 . S
C1035 C1034 1.349 . S
C1035 C1051 1.349 . S
C1036 C1034 1.327 . S
C1036 C1055 1.429 . S
C1036 H1060 0.950 . S
C1037 C1054 1.574 . S
C1037 C1056 1.368 . S
C1037 H1061 0.949 . S
H1038 C1042 0.949 . S
C1039 C1040 1.349 . S
C1039 C1041 1.327 . S
C1039 H1062 0.950 . S
C1040 C1039 1.349 . S
C1040 C1052 1.349 . S
C1041 C1039 1.327 . S
C1041 C1057 1.429 . S
C1041 H1063 0.950 . S
C1042 H1038 0.949 . S
C1042 C1050 1.574 . S
C1042 C1058 1.368 . S
H1043 C1051 0.950 . S
H1044 C1049 0.950 . S
H1045 C1050 0.949 . S
H1046 C1052 0.950 . S
H1047 C1053 0.950 . S
H1048 C1054 0.949 . S
C1049 H1044 0.950 . S
C1049 C1051 1.327 . S
C1049 C1055 1.429 . S
C1050 C1042 1.574 . S
C1050 H1045 0.949 . S
C1050 C1056 1.368 . S
C1051 C1035 1.349 . S
C1051 H1043 0.950 . S
C1051 C1049 1.327 . S
C1052 C1040 1.349 . S
C1052 H1046 0.950 . S
C1052 C1053 1.327 . S
C1053 H1047 0.950 . S
C1053 C1052 1.327 . S
C1053 C1057 1.429 . S
C1054 C1037 1.574 . S
C1054 H1048 0.949 . S
C1054 C1058 1.368 . S
C1055 C1036 1.429 . S
C1055 C1049 1.429 . S
C1055 C1056 1.523 . S
C1056 C1037 1.368 . S
C1056 C1050 1.368 . S
C1056 C1055 1.523 . S
C1057 C1041 1.429 . S
C1057 C1053 1.429 . S
C1057 C1058 1.523 . S
C1058 C1042 1.368 . S
C1058 C1054 1.368 . S
C1058 C1057 1.523 . S
H1059 C1034 0.950 . S
H1060 C1036 0.950 . S
H1061 C1037 0.949 . S
H1062 C1039 0.950 . S
H1063 C1041 0.950 . S
C1064 C1065 1.349 . S
C1064 C1066 1.327 . S
C1064 H1089 0.950 . S
C1065 C1064 1.349 . S
C1065 C1081 1.349 . S
C1066 C1064 1.327 . S
C1066 C1085 1.429 . S
C1066 H1090 0.950 . S
C1067 C1084 1.574 . S
C1067 C1086 1.368 . S
C1067 H1091 0.949 . S
H1068 C1072 0.949 . S
C1069 C1070 1.349 . S
C1069 C1071 1.327 . S
C1069 H1092 0.950 . S
C1070 C1069 1.349 . S
C1070 C1082 1.349 . S
C1071 C1069 1.327 . S
C1071 C1087 1.429 . S
C1071 H1093 0.950 . S
C1072 H1068 0.949 . S
C1072 C1080 1.574 . S
C1072 C1088 1.368 . S
H1073 C1081 0.950 . S
H1074 C1079 0.950 . S
H1075 C1080 0.949 . S
H1076 C1082 0.950 . S
H1077 C1083 0.950 . S
H1078 C1084 0.949 . S
C1079 H1074 0.950 . S
C1079 C1081 1.327 . S
C1079 C1085 1.429 . S
C1080 C1072 1.574 . S
C1080 H1075 0.949 . S
C1080 C1086 1.368 . S
C1081 C1065 1.349 . S
C1081 H1073 0.950 . S
C1081 C1079 1.327 . S
C1082 C1070 1.349 . S
C1082 H1076 0.950 . S
C1082 C1083 1.327 . S
C1083 H1077 0.950 . S
C1083 C1082 1.327 . S
C1083 C1087 1.429 . S
C1084 C1067 1.574 . S
C1084 H1078 0.949 . S
C1084 C1088 1.368 . S
C1085 C1066 1.429 . S
C1085 C1079 1.429 . S
C1085 C1086 1.523 . S
C1086 C1067 1.368 . S
C1086 C1080 1.368 . S
C1086 C1085 1.523 . S
C1087 C1071 1.429 . S
C1087 C1083 1.429 . S
C1087 C1088 1.523 . S
C1088 C1072 1.368 . S
C1088 C1084 1.368 . S
C1088 C1087 1.523 . S
H1089 C1064 0.950 . S
H1090 C1066 0.950 . S
H1091 C1067 0.949 . S
H1092 C1069 0.950 . S
H1093 C1071 0.950 . S
C1094 C1095 1.349 . S
C1094 C1096 1.327 . S
C1094 H1119 0.950 . S
C1095 C1094 1.349 . S
C1095 C1111 1.349 . S
C1096 C1094 1.327 . S
C1096 C1115 1.429 . S
C1096 H1120 0.950 . S
C1097 C1114 1.574 . S
C1097 C1116 1.368 . S
C1097 H1121 0.949 . S
H1098 C1102 0.949 . S
C1099 C1100 1.349 . S
C1099 C1101 1.327 . S
C1099 H1122 0.950 . S
C1100 C1099 1.349 . S
C1100 C1112 1.349 . S
C1101 C1099 1.327 . S
C1101 C1117 1.429 . S
C1101 H1123 0.950 . S
C1102 H1098 0.949 . S
C1102 C1110 1.574 . S
C1102 C1118 1.368 . S
H1103 C1111 0.950 . S
H1104 C1109 0.950 . S
H1105 C1110 0.949 . S
H1106 C1112 0.950 . S
H1107 C1113 0.950 . S
H1108 C1114 0.949 . S
C1109 H1104 0.950 . S
C1109 C1111 1.327 . S
C1109 C1115 1.429 . S
C1110 C1102 1.574 . S
C1110 H1105 0.949 . S
C1110 C1116 1.368 . S
C1111 C1095 1.349 . S
C1111 H1103 0.950 . S
C1111 C1109 1.327 . S
C1112 C1100 1.349 . S
C1112 H1106 0.950 . S
C1112 C1113 1.327 . S
C1113 H1107 0.950 . S
C1113 C1112 1.327 . S
C1113 C1117 1.429 . S
C1114 C1097 1.574 . S
C1114 H1108 0.949 . S
C1114 C1118 1.368 . S
C1115 C1096 1.429 . S
C1115 C1109 1.429 . S
C1115 C1116 1.523 . S
C1116 C1097 1.368 . S
C1116 C1110 1.368 . S
C1116 C1115 1.523 . S
C1117 C1101 1.429 . S
C1117 C1113 1.429 . S
C1117 C1118 1.523 . S
C1118 C1102 1.368 . S
C1118 C1114 1.368 . S
C1118 C1117 1.523 . S
H1119 C1094 0.950 . S
H1120 C1096 0.950 . S
H1121 C1097 0.949 . S
H1122 C1099 0.950 . S
H1123 C1101 0.950 . S
C1124 C1125 1.349 . S
C1124 C1126 1.327 . S
C1124 H1149 0.950 . S
C1125 C1124 1.349 . S
C1125 C1141 1.349 . S
C1126 C1124 1.327 . S
C1126 C1145 1.429 . S
C1126 H1150 0.950 . S
C1127 C1144 1.574 . S
C1127 C1146 1.368 . S
C1127 H1151 0.949 . S
H1128 C1132 0.949 . S
C1129 C1130 1.349 . S
C1129 C1131 1.327 . S
C1129 H1152 0.950 . S
C1130 C1129 1.349 . S
C1130 C1142 1.349 . S
C1131 C1129 1.327 . S
C1131 C1147 1.429 . S
C1131 H1153 0.950 . S
C1132 H1128 0.949 . S
C1132 C1140 1.574 . S
C1132 C1148 1.368 . S
H1133 C1141 0.950 . S
H1134 C1139 0.950 . S
H1135 C1140 0.949 . S
H1136 C1142 0.950 . S
H1137 C1143 0.950 . S
H1138 C1144 0.949 . S
C1139 H1134 0.950 . S
C1139 C1141 1.327 . S
C1139 C1145 1.429 . S
C1140 C1132 1.574 . S
C1140 H1135 0.949 . S
C1140 C1146 1.368 . S
C1141 C1125 1.349 . S
C1141 H1133 0.950 . S
C1141 C1139 1.327 . S
C1142 C1130 1.349 . S
C1142 H1136 0.950 . S
C1142 C1143 1.327 . S
C1143 H1137 0.950 . S
C1143 C1142 1.327 . S
C1143 C1147 1.429 . S
C1144 C1127 1.574 . S
C1144 H1138 0.949 . S
C1144 C1148 1.368 . S
C1145 C1126 1.429 . S
C1145 C1139 1.429 . S
C1145 C1146 1.523 . S
C1146 C1127 1.368 . S
C1146 C1140 1.368 . S
C1146 C1145 1.523 . S
C1147 C1131 1.429 . S
C1147 C1143 1.429 . S
C1147 C1148 1.523 . S
C1148 C1132 1.368 . S
C1148 C1144 1.368 . S
C1148 C1147 1.523 . S
H1149 C1124 0.950 . S
H1150 C1126 0.950 . S
H1151 C1127 0.949 . S
H1152 C1129 0.950 . S
H1153 C1131 0.950 . S
C1154 C1155 1.349 . S
C1154 C1156 1.327 . S
C1154 H1179 0.950 . S
C1155 C1154 1.349 . S
C1155 C1171 1.349 . S
C1156 C1154 1.327 . S
C1156 C1175 1.429 . S
C1156 H1180 0.950 . S
C1157 C1174 1.574 . S
C1157 C1176 1.368 . S
C1157 H1181 0.949 . S
H1158 C1162 0.949 . S
C1159 C1160 1.349 . S
C1159 C1161 1.327 . S
C1159 H1182 0.950 . S
C1160 C1159 1.349 . S
C1160 C1172 1.349 . S
C1161 C1159 1.327 . S
C1161 C1177 1.429 . S
C1161 H1183 0.950 . S
C1162 H1158 0.949 . S
C1162 C1170 1.574 . S
C1162 C1178 1.368 . S
H1163 C1171 0.950 . S
H1164 C1169 0.950 . S
H1165 C1170 0.949 . S
H1166 C1172 0.950 . S
H1167 C1173 0.950 . S
H1168 C1174 0.949 . S
C1169 H1164 0.950 . S
C1169 C1171 1.327 . S
C1169 C1175 1.429 . S
C1170 C1162 1.574 . S
C1170 H1165 0.949 . S
C1170 C1176 1.368 . S
C1171 C1155 1.349 . S
C1171 H1163 0.950 . S
C1171 C1169 1.327 . S
C1172 C1160 1.349 . S
C1172 H1166 0.950 . S
C1172 C1173 1.327 . S
C1173 H1167 0.950 . S
C1173 C1172 1.327 . S
C1173 C1177 1.429 . S
C1174 C1157 1.574 . S
C1174 H1168 0.949 . S
C1174 C1178 1.368 . S
C1175 C1156 1.429 . S
C1175 C1169 1.429 . S
C1175 C1176 1.523 . S
C1176 C1157 1.368 . S
C1176 C1170 1.368 . S
C1176 C1175 1.523 . S
C1177 C1161 1.429 . S
C1177 C1173 1.429 . S
C1177 C1178 1.523 . S
C1178 C1162 1.368 . S
C1178 C1174 1.368 . S
C1178 C1177 1.523 . S
H1179 C1154 0.950 . S
H1180 C1156 0.950 . S
H1181 C1157 0.949 . S
H1182 C1159 0.950 . S
H1183 C1161 0.950 . S
C225 C6 0.881 . S
C230 C62 0.881 . S
C255 C76 0.881 . S
C260 C20 0.881 . S
C285 C34 0.881 . S
C290 C90 0.881 . S
C315 C48 0.881 . S
C320 C104 0.881 . S
C345 C118 0.881 . S
C350 C174 0.881 . S
C375 C188 0.881 . S
C380 C132 0.882 . S
C405 C146 0.881 . S
C410 C202 0.881 . S
C435 C160 0.881 . S
C440 C216 0.881 . S
C465 C8 1.731 . S
C470 C219 1.693 . S
C495 C177 1.693 . S
C500 C22 1.731 . S
C525 C36 1.731 . S
C530 C191 1.694 . S
C555 C205 1.693 . S
C560 C50 1.731 . S
C585 C135 1.693 . S
C590 C64 1.731 . S
C615 C149 1.693 . S
C620 C78 1.731 . S
C645 C163 1.693 . S
C650 C92 1.731 . S
C675 C121 1.694 . S
C680 C106 1.731 . S
C705 C120 1.731 . S
C710 C107 1.693 . S
C735 C65 1.693 . S
C740 C134 1.731 . S
C765 C79 1.694 . S
C770 C148 1.731 . S
C795 C162 1.731 . S
C800 C93 1.693 . S
C825 C23 1.693 . S
C830 C176 1.731 . S
C855 C190 1.731 . S
C860 C37 1.693 . S
C885 C204 1.731 . S
C890 C51 1.693 . S
C915 C218 1.731 . S
C920 C9 1.694 . S
C945 C105 1.171 . S
C950 C7 1.171 . S
C975 C21 1.171 . S
C980 C63 1.171 . S
C1005 C35 1.171 . S
C1010 C77 1.171 . S
C1035 C49 1.171 . S
C1040 C91 1.171 . S
C1065 C217 1.171 . S
C1070 C119 1.171 . S
C1095 C175 1.171 . S
C1100 C133 1.171 . S
C1125 C189 1.171 . S
C1130 C147 1.171 . S
C1155 C203 1.171 . S
C1160 C161 1.171 . S
