# Generated by pormake.
# Topology vbm, (6)-cn, num edge types: 1
# Building blocks:
#     Node 0, Type 0, BuildingBlock: VOLQOD_clean_sbu_1, # of connection points: 6
#     Node 1, Type 0, BuildingBlock: VOLQOD_clean_sbu_1, # of connection points: 6
#     Node 2, Type 0, BuildingBlock: VOLQOD_clean_sbu_1, # of connection points: 6
#     Node 3, Type 0, BuildingBlock: VOLQOD_clean_sbu_1, # of connection points: 6
#     Node 4, Type 0, BuildingBlock: VOLQOD_clean_sbu_1, # of connection points: 6
#     Node 5, Type 0, BuildingBlock: VOLQOD_clean_sbu_1, # of connection points: 6
#     Node 6, Type 0, BuildingBlock: VOLQOD_clean_sbu_1, # of connection points: 6
#     Node 7, Type 0, BuildingBlock: VOLQOD_clean_sbu_1, # of connection points: 6
#     Node 8, Type 0, BuildingBlock: VOLQOD_clean_sbu_1, # of connection points: 6
#     Node 9, Type 0, BuildingBlock: VOLQOD_clean_sbu_1, # of connection points: 6
#     Node 10, Type 0, BuildingBlock: VOLQOD_clean_sbu_1, # of connection points: 6
#     Node 11, Type 0, BuildingBlock: VOLQOD_clean_sbu_1, # of connection points: 6
#     Node 12, Type 0, BuildingBlock: VOLQOD_clean_sbu_1, # of connection points: 6
#     Node 13, Type 0, BuildingBlock: VOLQOD_clean_sbu_1, # of connection points: 6
#     Node 14, Type 0, BuildingBlock: VOLQOD_clean_sbu_1, # of connection points: 6
#     Node 15, Type 0, BuildingBlock: VOLQOD_clean_sbu_1, # of connection points: 6
#     Edge 16, Type (0, 0), None
#     Edge 17, Type (0, 0), None
#     Edge 18, Type (0, 0), None
#     Edge 19, Type (0, 0), None
#     Edge 20, Type (0, 0), None
#     Edge 21, Type (0, 0), None
#     Edge 22, Type (0, 0), None
#     Edge 23, Type (0, 0), None
#     Edge 24, Type (0, 0), None
#     Edge 25, Type (0, 0), None
#     Edge 26, Type (0, 0), None
#     Edge 27, Type (0, 0), None
#     Edge 28, Type (0, 0), None
#     Edge 29, Type (0, 0), None
#     Edge 30, Type (0, 0), None
#     Edge 31, Type (0, 0), None
#     Edge 32, Type (0, 0), None
#     Edge 33, Type (0, 0), None
#     Edge 34, Type (0, 0), None
#     Edge 35, Type (0, 0), None
#     Edge 36, Type (0, 0), None
#     Edge 37, Type (0, 0), None
#     Edge 38, Type (0, 0), None
#     Edge 39, Type (0, 0), None
#     Edge 40, Type (0, 0), None
#     Edge 41, Type (0, 0), None
#     Edge 42, Type (0, 0), None
#     Edge 43, Type (0, 0), None
#     Edge 44, Type (0, 0), None
#     Edge 45, Type (0, 0), None
#     Edge 46, Type (0, 0), None
#     Edge 47, Type (0, 0), None
#     Edge 48, Type (0, 0), None
#     Edge 49, Type (0, 0), None
#     Edge 50, Type (0, 0), None
#     Edge 51, Type (0, 0), None
#     Edge 52, Type (0, 0), None
#     Edge 53, Type (0, 0), None
#     Edge 54, Type (0, 0), None
#     Edge 55, Type (0, 0), None
#     Edge 56, Type (0, 0), None
#     Edge 57, Type (0, 0), None
#     Edge 58, Type (0, 0), None
#     Edge 59, Type (0, 0), None
#     Edge 60, Type (0, 0), None
#     Edge 61, Type (0, 0), None
#     Edge 62, Type (0, 0), None
#     Edge 63, Type (0, 0), None
# Relax obj value: 0.100
# Max RMSD: 0.119
# Mean RMSD: 0.119
data_MOF--net-vbm--node1-VOLQOD_clean_sbu_1--edge1-none
_symmetry_space_group_name_H-M    P1
_symmetry_Int_Tables_number       1
_symmetry_cell_setting            triclinic
loop_
_symmetry_equiv_pos_as_xyz
'x, y, z'
_cell_length_a     33.963495
_cell_length_b     8.5053025
_cell_length_c     35.032094
_cell_angle_alpha  89.999886
_cell_angle_beta   89.999887
_cell_angle_gamma 89.993942
loop_
_atom_site_label
_atom_site_type_symbol
_atom_site_fract_x
_atom_site_fract_y
_atom_site_fract_z
_atom_type_partial_charge
O0 O 0.07464 0.42067 0.07463 0.0
Zn1 Zn 0.06395 0.18416 0.06952 0.0
O2 O 0.10059 0.08614 0.10341 0.0
Zn3 Zn 0.1413 0.97444 0.07635 0.0
Zn4 Zn 0.12236 0.22237 0.1418 0.0
Zn5 Zn 0.07032 0.94164 0.13222 0.0
O6 O 0.13246 0.73642 0.08984 0.0
O7 O 0.06888 0.745 0.10505 0.0
O8 O 0.07703 0.1296 0.01567 0.0
O9 O 0.13255 0.9916 0.0192 0.0
O10 O 0.19429 0.09511 0.08644 0.0
O11 O 0.1795 0.24959 0.13565 0.0
O12 O 0.11059 0.15047 0.19631 0.0
O13 O 0.00808 0.09121 0.07827 0.0
O14 O 0.0918 0.90524 0.18442 0.0
O15 O 0.01393 0.98934 0.13623 0.0
C16 C 0.09528 0.49975 0.0985 0.0
C17 C 0.09878 0.66915 0.0946 0.0
C18 C 0.2032 0.20558 0.10995 0.0
C19 C 0.10505 0.05514 -7e-05 0.0
C20 C 0.10299 0.01081 0.20758 0.0
C21 C -0.00652 0.01767 0.10682 0.0
O22 O 0.10917 0.4397 0.12881 0.0
O23 O 0.87104 0.5639 0.07463 0.0
Zn24 Zn 0.88174 0.80041 0.06951 0.0
O25 O 0.84509 0.89843 0.1034 0.0
Zn26 Zn 0.80439 0.01013 0.07635 0.0
Zn27 Zn 0.82333 0.7622 0.1418 0.0
Zn28 Zn 0.87537 0.04293 0.13222 0.0
O29 O 0.81323 0.24816 0.08984 0.0
O30 O 0.87681 0.23957 0.10505 0.0
O31 O 0.86866 0.85497 0.01567 0.0
O32 O 0.81314 -0.00703 0.01919 0.0
O33 O 0.75139 0.88946 0.08644 0.0
O34 O 0.76619 0.73498 0.13565 0.0
O35 O 0.8351 0.8341 0.1963 0.0
O36 O 0.93761 0.89337 0.07827 0.0
O37 O 0.85388 0.07934 0.18441 0.0
O38 O 0.93175 -0.00477 0.13623 0.0
C39 C 0.85041 0.48482 0.0985 0.0
C40 C 0.84691 0.31542 0.0946 0.0
C41 C 0.74249 0.77899 0.10995 0.0
C42 C 0.84063 0.92942 -8e-05 0.0
C43 C 0.8427 0.97377 0.20757 0.0
C44 C 0.9522 0.9669 0.10682 0.0
O45 O 0.83651 0.54487 0.12881 0.0
O46 O 0.07466 0.56395 0.38132 0.0
Zn47 Zn 0.06396 0.80046 0.38644 0.0
O48 O 0.1006 0.89847 0.35255 0.0
Zn49 Zn 0.1413 0.01014 0.37961 0.0
Zn50 Zn 0.12236 0.76222 0.31415 0.0
Zn51 Zn 0.07032 0.04299 0.32373 0.0
O52 O 0.13246 0.24816 0.36611 0.0
O53 O 0.06888 0.23964 0.3509 0.0
O54 O 0.07703 0.85502 0.44028 0.0
O55 O 0.13255 -0.00701 0.43676 0.0
O56 O 0.1943 0.88946 0.36951 0.0
O57 O 0.1795 0.73499 0.3203 0.0
O58 O 0.11059 0.83413 0.25965 0.0
O59 O 0.00809 0.89338 0.37768 0.0
O60 O 0.0918 0.07939 0.27154 0.0
O61 O 0.01394 -0.00469 0.31972 0.0
C62 C 0.09529 0.48486 0.35745 0.0
C63 C 0.09878 0.31546 0.36135 0.0
C64 C 0.2032 0.779 0.346 0.0
C65 C 0.10506 0.92947 0.45603 0.0
C66 C 0.10299 0.97381 0.24838 0.0
C67 C -0.00651 0.96692 0.34913 0.0
O68 O 0.10918 0.5449 0.32714 0.0
O69 O 0.87104 0.42062 0.38132 0.0
Zn70 Zn 0.88174 0.18411 0.38644 0.0
O71 O 0.8451 0.08611 0.35255 0.0
Zn72 Zn 0.80439 0.97443 0.3796 0.0
Zn73 Zn 0.82333 0.22236 0.31415 0.0
Zn74 Zn 0.87537 0.94159 0.32373 0.0
O75 O 0.81323 0.73641 0.36611 0.0
O76 O 0.87681 0.74494 0.3509 0.0
O77 O 0.86866 0.12956 0.44028 0.0
O78 O 0.81314 0.99158 0.43676 0.0
O79 O 0.7514 0.0951 0.36951 0.0
O80 O 0.76619 0.24959 0.3203 0.0
O81 O 0.8351 0.15044 0.25965 0.0
O82 O 0.93761 0.09119 0.37768 0.0
O83 O 0.85389 0.90519 0.27154 0.0
O84 O 0.93175 0.98928 0.31972 0.0
C85 C 0.85041 0.49972 0.35745 0.0
C86 C 0.84691 0.66912 0.36135 0.0
C87 C 0.74249 0.20557 0.346 0.0
C88 C 0.84063 0.05511 0.45603 0.0
C89 C 0.8427 0.01076 0.24838 0.0
C90 C 0.9522 0.01765 0.34913 0.0
O91 O 0.83652 0.43967 0.32714 0.0
O92 O 0.85981 0.5838 0.8198 0.0
Zn93 Zn 0.87713 0.81836 0.8153 0.0
O94 O 0.84422 0.9265 0.85171 0.0
Zn95 Zn 0.80197 0.0379 0.82597 0.0
Zn96 Zn 0.82092 0.77534 0.8853 0.0
Zn97 Zn 0.8757 0.05265 0.88531 0.0
O98 O 0.81342 0.27649 0.83485 0.0
O99 O 0.86677 0.26865 0.87208 0.0
O100 O 0.86517 0.89735 0.7623 0.0
O101 O 0.80848 0.02499 0.76901 0.0
O102 O 0.74798 0.92112 0.83721 0.0
O103 O 0.76911 0.70626 0.86693 0.0
O104 O 0.81806 0.84052 0.94036 0.0
O105 O 0.93577 0.88195 0.82394 0.0
O106 O 0.86566 0.01884 0.9413 0.0
O107 O 0.93212 0.03835 0.87472 0.0
C108 C 0.84888 0.51252 0.85025 0.0
C109 C 0.84311 0.34298 0.85098 0.0
C110 C 0.74249 0.77921 0.84911 0.0
C111 C 0.83646 0.97429 0.74835 0.0
C112 C 0.84002 0.93591 0.95838 0.0
C113 C 0.95161 0.97737 0.84777 0.0
O114 O 0.84991 0.5813 0.88226 0.0
O115 O 0.08587 0.40076 0.81981 0.0
Zn116 Zn 0.06855 0.16619 0.81531 0.0
O117 O 0.10146 0.05805 0.85171 0.0
Zn118 Zn 0.14371 0.94666 0.82597 0.0
Zn119 Zn 0.12476 0.20921 0.8853 0.0
Zn120 Zn 0.06998 0.93191 0.88531 0.0
O121 O 0.13225 0.70807 0.83486 0.0
O122 O 0.07891 0.7159 0.87209 0.0
O123 O 0.08051 0.08722 0.7623 0.0
O124 O 0.1372 0.95957 0.76901 0.0
O125 O 0.1977 0.06343 0.83722 0.0
O126 O 0.17657 0.27829 0.86693 0.0
O127 O 0.12762 0.14403 0.94036 0.0
O128 O 0.00991 0.10259 0.82394 0.0
O129 O 0.08002 0.96573 0.9413 0.0
O130 O 0.01356 0.94619 0.87472 0.0
C131 C 0.0968 0.47204 0.85026 0.0
C132 C 0.10257 0.64157 0.85098 0.0
C133 C 0.20319 0.20535 0.84911 0.0
C134 C 0.10922 0.01027 0.74835 0.0
C135 C 0.10566 0.04865 0.95838 0.0
C136 C -0.00593 0.00715 0.84777 0.0
O137 O 0.09577 0.40325 0.88227 0.0
O138 O 0.8598 0.40073 0.63615 0.0
Zn139 Zn 0.87713 0.16617 0.64065 0.0
O140 O 0.84423 0.05803 0.60424 0.0
Zn141 Zn 0.80198 0.94666 0.62998 0.0
Zn142 Zn 0.82092 0.2092 0.57065 0.0
Zn143 Zn 0.87571 0.93187 0.57064 0.0
O144 O 0.81343 0.70808 0.62109 0.0
O145 O 0.86678 0.71587 0.58387 0.0
O146 O 0.86517 0.08719 0.69365 0.0
O147 O 0.80848 0.95956 0.68694 0.0
O148 O 0.74799 0.06344 0.61873 0.0
O149 O 0.76911 0.2783 0.58902 0.0
O150 O 0.81806 0.14402 0.51559 0.0
O151 O 0.93577 0.1026 0.63201 0.0
O152 O 0.86567 0.96568 0.51466 0.0
O153 O 0.93212 0.94618 0.58124 0.0
C154 C 0.84888 0.47202 0.6057 0.0
C155 C 0.84312 0.64156 0.60497 0.0
C156 C 0.7425 0.20535 0.60684 0.0
C157 C 0.83646 0.01026 0.7076 0.0
C158 C 0.84002 0.04862 0.49758 0.0
C159 C 0.95161 0.00718 0.60818 0.0
O160 O 0.84991 0.40323 0.57369 0.0
O161 O 0.08588 0.58385 0.63615 0.0
Zn162 Zn 0.06856 0.81842 0.64065 0.0
O163 O 0.10146 0.92655 0.60424 0.0
Zn164 Zn 0.14371 0.03792 0.62998 0.0
Zn165 Zn 0.12477 0.77538 0.57065 0.0
Zn166 Zn 0.06998 0.05271 0.57064 0.0
O167 O 0.13225 0.27651 0.6211 0.0
O168 O 0.07891 0.26871 0.58386 0.0
O169 O 0.08051 0.89738 0.69366 0.0
O170 O 0.1372 0.02501 0.68695 0.0
O171 O 0.19769 0.92114 0.61873 0.0
O172 O 0.17657 0.70628 0.58902 0.0
O173 O 0.12763 0.84056 0.51559 0.0
O174 O 0.00992 0.882 0.63201 0.0
O175 O 0.08002 0.01889 0.51465 0.0
O176 O 0.01356 0.03841 0.58124 0.0
C177 C 0.0968 0.51256 0.6057 0.0
C178 C 0.10256 0.34303 0.60497 0.0
C179 C 0.20319 0.77923 0.60684 0.0
C180 C 0.10923 0.97431 0.70761 0.0
C181 C 0.10567 0.93596 0.49758 0.0
C182 C -0.00593 0.97743 0.60818 0.0
O183 O 0.09577 0.58136 0.57369 0.0
O184 O 0.57464 0.92067 0.07463 0.0
Zn185 Zn 0.56395 0.68415 0.06952 0.0
O186 O 0.60059 0.58613 0.10341 0.0
Zn187 Zn 0.6413 0.47444 0.07635 0.0
Zn188 Zn 0.62236 0.72237 0.1418 0.0
Zn189 Zn 0.57032 0.44163 0.13222 0.0
O190 O 0.63246 0.23641 0.08984 0.0
O191 O 0.56888 0.24499 0.10505 0.0
O192 O 0.57703 0.62959 0.01567 0.0
O193 O 0.63255 0.49159 0.0192 0.0
O194 O 0.69429 0.59512 0.08644 0.0
O195 O 0.67949 0.74959 0.13565 0.0
O196 O 0.61058 0.65046 0.1963 0.0
O197 O 0.50808 0.5912 0.07827 0.0
O198 O 0.5918 0.40522 0.18441 0.0
O199 O 0.51393 0.48933 0.13623 0.0
C200 C 0.59528 -0.00026 0.0985 0.0
C201 C 0.59878 0.16914 0.0946 0.0
C202 C 0.70319 0.70559 0.10995 0.0
C203 C 0.60505 0.55514 -7e-05 0.0
C204 C 0.60299 0.51079 0.20758 0.0
C205 C 0.49349 0.51767 0.10682 0.0
O206 O 0.60917 0.93969 0.12881 0.0
O207 O 0.37104 0.0639 0.07463 0.0
Zn208 Zn 0.38174 0.30041 0.06951 0.0
O209 O 0.34509 0.39843 0.10341 0.0
Zn210 Zn 0.30439 0.51013 0.07635 0.0
Zn211 Zn 0.32333 0.2622 0.1418 0.0
Zn212 Zn 0.37537 0.54293 0.13222 0.0
O213 O 0.31323 0.74816 0.08984 0.0
O214 O 0.37681 0.73957 0.10505 0.0
O215 O 0.36866 0.35497 0.01567 0.0
O216 O 0.31314 0.49297 0.0192 0.0
O217 O 0.25139 0.38945 0.08644 0.0
O218 O 0.26619 0.23498 0.13565 0.0
O219 O 0.3351 0.3341 0.1963 0.0
O220 O 0.43761 0.39337 0.07826 0.0
O221 O 0.35389 0.57934 0.18441 0.0
O222 O 0.43175 0.49523 0.13623 0.0
C223 C 0.35041 0.98482 0.0985 0.0
C224 C 0.34691 0.81542 0.0946 0.0
C225 C 0.24249 0.27898 0.10995 0.0
C226 C 0.34063 0.42943 -8e-05 0.0
C227 C 0.3427 0.47377 0.20757 0.0
C228 C 0.4522 0.4669 0.10682 0.0
O229 O 0.33651 0.04487 0.12881 0.0
O230 O 0.57465 0.06393 0.38132 0.0
Zn231 Zn 0.56396 0.30044 0.38644 0.0
O232 O 0.6006 0.39845 0.35255 0.0
Zn233 Zn 0.6413 0.51013 0.37961 0.0
Zn234 Zn 0.62236 0.2622 0.31415 0.0
Zn235 Zn 0.57032 0.54297 0.32373 0.0
O236 O 0.63246 0.74815 0.36611 0.0
O237 O 0.56888 0.73962 0.3509 0.0
O238 O 0.57703 0.355 0.44028 0.0
O239 O 0.63255 0.49298 0.43676 0.0
O240 O 0.69429 0.38944 0.36951 0.0
O241 O 0.6795 0.23497 0.3203 0.0
O242 O 0.61059 0.33412 0.25965 0.0
O243 O 0.50809 0.39337 0.37768 0.0
O244 O 0.5918 0.57937 0.27154 0.0
O245 O 0.51394 0.49529 0.31972 0.0
C246 C 0.59529 0.98484 0.35745 0.0
C247 C 0.59878 0.81544 0.36135 0.0
C248 C 0.7032 0.27897 0.346 0.0
C249 C 0.60506 0.42945 0.45603 0.0
C250 C 0.60299 0.4738 0.24838 0.0
C251 C 0.49349 0.46691 0.34913 0.0
O252 O 0.60918 0.04488 0.32714 0.0
O253 O 0.37104 0.92063 0.38132 0.0
Zn254 Zn 0.38174 0.68412 0.38644 0.0
O255 O 0.3451 0.58612 0.35254 0.0
Zn256 Zn 0.30439 0.47444 0.3796 0.0
Zn257 Zn 0.32333 0.72237 0.31415 0.0
Zn258 Zn 0.37537 0.4416 0.32373 0.0
O259 O 0.31323 0.23642 0.36611 0.0
O260 O 0.37681 0.24495 0.3509 0.0
O261 O 0.36866 0.62957 0.44028 0.0
O262 O 0.31314 0.49159 0.43676 0.0
O263 O 0.2514 0.59512 0.36951 0.0
O264 O 0.2662 0.74961 0.3203 0.0
O265 O 0.3351 0.65045 0.25965 0.0
O266 O 0.43761 0.59119 0.37768 0.0
O267 O 0.35389 0.4052 0.27154 0.0
O268 O 0.43175 0.48929 0.31972 0.0
C269 C 0.35041 -0.00027 0.35745 0.0
C270 C 0.34691 0.16913 0.36135 0.0
C271 C 0.2425 0.7056 0.346 0.0
C272 C 0.34063 0.55512 0.45603 0.0
C273 C 0.3427 0.51077 0.24838 0.0
C274 C 0.4522 0.51765 0.34913 0.0
O275 O 0.33652 0.93969 0.32714 0.0
O276 O 0.35981 0.0838 0.8198 0.0
Zn277 Zn 0.37713 0.31837 0.8153 0.0
O278 O 0.34422 0.42651 0.85171 0.0
Zn279 Zn 0.30197 0.5379 0.82597 0.0
Zn280 Zn 0.32092 0.27534 0.8853 0.0
Zn281 Zn 0.3757 0.55265 0.88531 0.0
O282 O 0.31342 0.77649 0.83485 0.0
O283 O 0.36677 0.76865 0.87208 0.0
O284 O 0.36517 0.39735 0.7623 0.0
O285 O 0.30848 0.52499 0.76901 0.0
O286 O 0.24798 0.42111 0.83721 0.0
O287 O 0.26912 0.20625 0.86693 0.0
O288 O 0.31806 0.34052 0.94036 0.0
O289 O 0.43577 0.38195 0.82394 0.0
O290 O 0.36566 0.51885 0.9413 0.0
O291 O 0.43212 0.53834 0.87472 0.0
C292 C 0.34888 0.01252 0.85025 0.0
C293 C 0.34311 0.84299 0.85098 0.0
C294 C 0.2425 0.27919 0.84911 0.0
C295 C 0.33646 0.4743 0.74835 0.0
C296 C 0.34002 0.43591 0.95838 0.0
C297 C 0.45161 0.47737 0.84777 0.0
O298 O 0.34992 0.08131 0.88226 0.0
O299 O 0.58587 0.90075 0.81981 0.0
Zn300 Zn 0.56855 0.66618 0.8153 0.0
O301 O 0.60146 0.55804 0.85171 0.0
Zn302 Zn 0.64371 0.44665 0.82597 0.0
Zn303 Zn 0.62476 0.70921 0.8853 0.0
Zn304 Zn 0.56998 0.4319 0.88531 0.0
O305 O 0.63225 0.20806 0.83485 0.0
O306 O 0.57891 0.2159 0.87209 0.0
O307 O 0.58051 0.58721 0.7623 0.0
O308 O 0.6372 0.45957 0.76901 0.0
O309 O 0.6977 0.56343 0.83722 0.0
O310 O 0.67656 0.77831 0.86693 0.0
O311 O 0.62762 0.64403 0.94036 0.0
O312 O 0.50991 0.60258 0.82394 0.0
O313 O 0.58002 0.46571 0.9413 0.0
O314 O 0.51356 0.44619 0.87472 0.0
C315 C 0.5968 0.97203 0.85025 0.0
C316 C 0.60257 0.14156 0.85098 0.0
C317 C 0.70318 0.70536 0.84911 0.0
C318 C 0.60923 0.51026 0.74835 0.0
C319 C 0.60567 0.54865 0.95838 0.0
C320 C 0.49407 0.50714 0.84777 0.0
O321 O 0.59576 0.90324 0.88226 0.0
O322 O 0.3598 0.90073 0.63615 0.0
Zn323 Zn 0.37713 0.66617 0.64065 0.0
O324 O 0.34423 0.55803 0.60424 0.0
Zn325 Zn 0.30198 0.44666 0.62998 0.0
Zn326 Zn 0.32092 0.70921 0.57065 0.0
Zn327 Zn 0.37571 0.43188 0.57064 0.0
O328 O 0.31343 0.20808 0.62109 0.0
O329 O 0.36678 0.21587 0.58387 0.0
O330 O 0.36517 0.58719 0.69365 0.0
O331 O 0.30848 0.45957 0.68694 0.0
O332 O 0.24799 0.56345 0.61873 0.0
O333 O 0.26912 0.77832 0.58902 0.0
O334 O 0.31806 0.64403 0.51559 0.0
O335 O 0.43577 0.6026 0.63201 0.0
O336 O 0.36567 0.46569 0.51465 0.0
O337 O 0.43212 0.44619 0.58124 0.0
C338 C 0.34888 0.97202 0.6057 0.0
C339 C 0.34312 0.14156 0.60497 0.0
C340 C 0.2425 0.70538 0.60684 0.0
C341 C 0.33646 0.51026 0.7076 0.0
C342 C 0.34002 0.54863 0.49757 0.0
C343 C 0.45161 0.50718 0.60818 0.0
O344 O 0.34992 0.90323 0.57369 0.0
O345 O 0.58588 0.08384 0.63614 0.0
Zn346 Zn 0.56856 0.31841 0.64065 0.0
O347 O 0.60146 0.42654 0.60424 0.0
Zn348 Zn 0.64371 0.53791 0.62998 0.0
Zn349 Zn 0.62476 0.27536 0.57065 0.0
Zn350 Zn 0.56998 0.5527 0.57064 0.0
O351 O 0.63225 0.7765 0.62109 0.0
O352 O 0.57891 0.7687 0.58386 0.0
O353 O 0.58051 0.39738 0.69365 0.0
O354 O 0.6372 0.525 0.68695 0.0
O355 O 0.69769 0.42113 0.61873 0.0
O356 O 0.67656 0.20626 0.58902 0.0
O357 O 0.62763 0.34054 0.51559 0.0
O358 O 0.50992 0.38199 0.63201 0.0
O359 O 0.58002 0.51888 0.51465 0.0
O360 O 0.51356 0.5384 0.58124 0.0
C361 C 0.5968 0.01255 0.6057 0.0
C362 C 0.60256 0.84302 0.60497 0.0
C363 C 0.70318 0.2792 0.60684 0.0
C364 C 0.60923 0.4743 0.7076 0.0
C365 C 0.60567 0.43594 0.49757 0.0
C366 C 0.49407 0.47743 0.60818 0.0
O367 O 0.59577 0.08135 0.57369 0.0
loop_
_geom_bond_atom_site_label_1
_geom_bond_atom_site_label_2
_geom_bond_distance
_geom_bond_site_symmetry_2
_ccdc_geom_bond_type
O0 Zn1 1.953 . S
O0 C16 1.225 . S
Zn1 O0 1.953 . S
Zn1 O2 1.949 . S
Zn1 O8 1.919 . S
Zn1 O13 1.924 . S
O2 Zn1 1.949 . S
O2 Zn3 1.923 1_545 S
O2 Zn4 1.950 . S
O2 Zn5 1.945 1_545 S
Zn3 O2 1.923 1_565 S
Zn3 O6 1.933 . S
Zn3 O9 1.941 . S
Zn3 O10 1.965 1_565 S
Zn4 O2 1.950 . S
Zn4 O11 1.938 . S
Zn4 O12 1.906 . S
Zn4 O22 1.953 . S
Zn5 O2 1.945 1_565 S
Zn5 O7 1.932 . S
Zn5 O14 1.977 . S
Zn5 O15 1.910 . S
O6 Zn3 1.933 . S
O6 C17 1.226 . S
O7 Zn5 1.932 . S
O7 C17 1.307 . S
O8 Zn1 1.919 . S
O8 C19 1.253 . S
O9 Zn3 1.941 . S
O9 C19 1.283 1_565 S
O10 Zn3 1.965 1_545 S
O10 C18 1.303 . S
O11 Zn4 1.938 . S
O11 C18 1.247 . S
O12 Zn4 1.906 . S
O12 C20 1.304 1_545 S
O13 Zn1 1.924 . S
O13 C21 1.311 . S
O14 Zn5 1.977 . S
O14 C20 1.272 . S
O15 Zn5 1.910 . S
O15 C21 1.231 1_565 S
C16 O0 1.225 . S
C16 O22 1.298 . S
C17 O6 1.226 . S
C17 O7 1.307 . S
C18 O10 1.303 . S
C18 O11 1.247 . S
C19 O8 1.253 . S
C19 O9 1.283 1_545 S
C20 O12 1.304 1_565 S
C20 O14 1.272 . S
C21 O13 1.311 . S
C21 O15 1.231 1_545 S
O22 Zn4 1.953 . S
O22 C16 1.298 . S
O23 Zn24 1.953 . S
O23 C39 1.225 . S
Zn24 O23 1.953 . S
Zn24 O25 1.949 . S
Zn24 O31 1.919 . S
Zn24 O36 1.924 . S
O25 Zn24 1.949 . S
O25 Zn26 1.923 1_565 S
O25 Zn27 1.950 . S
O25 Zn28 1.945 1_565 S
Zn26 O25 1.923 1_545 S
Zn26 O29 1.933 . S
Zn26 O32 1.941 . S
Zn26 O33 1.965 1_545 S
Zn27 O25 1.950 . S
Zn27 O34 1.938 . S
Zn27 O35 1.906 . S
Zn27 O45 1.953 . S
Zn28 O25 1.945 1_545 S
Zn28 O30 1.932 . S
Zn28 O37 1.977 . S
Zn28 O38 1.910 . S
O29 Zn26 1.933 . S
O29 C40 1.226 . S
O30 Zn28 1.932 . S
O30 C40 1.307 . S
O31 Zn24 1.919 . S
O31 C42 1.253 . S
O32 Zn26 1.941 . S
O32 C42 1.283 1_545 S
O33 Zn26 1.965 1_565 S
O33 C41 1.303 . S
O34 Zn27 1.938 . S
O34 C41 1.247 . S
O35 Zn27 1.906 . S
O35 C43 1.304 1_565 S
O36 Zn24 1.924 . S
O36 C44 1.311 . S
O37 Zn28 1.977 . S
O37 C43 1.272 . S
O38 Zn28 1.910 . S
O38 C44 1.231 1_545 S
C39 O23 1.225 . S
C39 O45 1.298 . S
C40 O29 1.226 . S
C40 O30 1.307 . S
C41 O33 1.303 . S
C41 O34 1.247 . S
C42 O31 1.253 . S
C42 O32 1.283 1_565 S
C43 O35 1.304 1_545 S
C43 O37 1.272 . S
C44 O36 1.311 . S
C44 O38 1.231 1_565 S
O45 Zn27 1.953 . S
O45 C39 1.298 . S
O46 Zn47 1.953 . S
O46 C62 1.225 . S
Zn47 O46 1.953 . S
Zn47 O48 1.949 . S
Zn47 O54 1.919 . S
Zn47 O59 1.924 . S
O48 Zn47 1.949 . S
O48 Zn49 1.923 1_565 S
O48 Zn50 1.950 . S
O48 Zn51 1.945 1_565 S
Zn49 O48 1.923 1_545 S
Zn49 O52 1.933 . S
Zn49 O55 1.941 . S
Zn49 O56 1.965 1_545 S
Zn50 O48 1.950 . S
Zn50 O57 1.938 . S
Zn50 O58 1.906 . S
Zn50 O68 1.953 . S
Zn51 O48 1.945 1_545 S
Zn51 O53 1.932 . S
Zn51 O60 1.977 . S
Zn51 O61 1.910 . S
O52 Zn49 1.933 . S
O52 C63 1.226 . S
O53 Zn51 1.932 . S
O53 C63 1.307 . S
O54 Zn47 1.919 . S
O54 C65 1.253 . S
O55 Zn49 1.941 . S
O55 C65 1.283 1_545 S
O56 Zn49 1.965 1_565 S
O56 C64 1.303 . S
O57 Zn50 1.938 . S
O57 C64 1.247 . S
O58 Zn50 1.906 . S
O58 C66 1.304 1_565 S
O59 Zn47 1.924 . S
O59 C67 1.311 . S
O60 Zn51 1.977 . S
O60 C66 1.272 . S
O61 Zn51 1.910 . S
O61 C67 1.231 1_545 S
C62 O46 1.225 . S
C62 O68 1.298 . S
C63 O52 1.226 . S
C63 O53 1.307 . S
C64 O56 1.303 . S
C64 O57 1.247 . S
C65 O54 1.253 . S
C65 O55 1.283 1_565 S
C66 O58 1.304 1_545 S
C66 O60 1.272 . S
C67 O59 1.311 . S
C67 O61 1.231 1_565 S
O68 Zn50 1.953 . S
O68 C62 1.298 . S
O69 Zn70 1.953 . S
O69 C85 1.225 . S
Zn70 O69 1.953 . S
Zn70 O71 1.949 . S
Zn70 O77 1.919 . S
Zn70 O82 1.924 . S
O71 Zn70 1.949 . S
O71 Zn72 1.923 1_545 S
O71 Zn73 1.950 . S
O71 Zn74 1.945 1_545 S
Zn72 O71 1.923 1_565 S
Zn72 O75 1.933 . S
Zn72 O78 1.941 . S
Zn72 O79 1.965 1_565 S
Zn73 O71 1.950 . S
Zn73 O80 1.938 . S
Zn73 O81 1.906 . S
Zn73 O91 1.953 . S
Zn74 O71 1.945 1_565 S
Zn74 O76 1.932 . S
Zn74 O83 1.977 . S
Zn74 O84 1.910 . S
O75 Zn72 1.933 . S
O75 C86 1.226 . S
O76 Zn74 1.932 . S
O76 C86 1.307 . S
O77 Zn70 1.919 . S
O77 C88 1.253 . S
O78 Zn72 1.941 . S
O78 C88 1.283 1_565 S
O79 Zn72 1.965 1_545 S
O79 C87 1.303 . S
O80 Zn73 1.938 . S
O80 C87 1.247 . S
O81 Zn73 1.906 . S
O81 C89 1.304 1_545 S
O82 Zn70 1.924 . S
O82 C90 1.311 . S
O83 Zn74 1.977 . S
O83 C89 1.272 . S
O84 Zn74 1.910 . S
O84 C90 1.231 1_565 S
C85 O69 1.225 . S
C85 O91 1.298 . S
C86 O75 1.226 . S
C86 O76 1.307 . S
C87 O79 1.303 . S
C87 O80 1.247 . S
C88 O77 1.253 . S
C88 O78 1.283 1_545 S
C89 O81 1.304 1_565 S
C89 O83 1.272 . S
C90 O82 1.311 . S
C90 O84 1.231 1_545 S
O91 Zn73 1.953 . S
O91 C85 1.298 . S
O92 Zn93 1.953 . S
O92 C108 1.225 . S
Zn93 O92 1.953 . S
Zn93 O94 1.949 . S
Zn93 O100 1.919 . S
Zn93 O105 1.924 . S
O94 Zn93 1.949 . S
O94 Zn95 1.923 1_565 S
O94 Zn96 1.950 . S
O94 Zn97 1.945 1_565 S
Zn95 O94 1.923 1_545 S
Zn95 O98 1.933 . S
Zn95 O101 1.941 . S
Zn95 O102 1.965 1_545 S
Zn96 O94 1.950 . S
Zn96 O103 1.938 . S
Zn96 O104 1.906 . S
Zn96 O114 1.953 . S
Zn97 O94 1.945 1_545 S
Zn97 O99 1.932 . S
Zn97 O106 1.977 . S
Zn97 O107 1.910 . S
O98 Zn95 1.933 . S
O98 C109 1.226 . S
O99 Zn97 1.932 . S
O99 C109 1.307 . S
O100 Zn93 1.919 . S
O100 C111 1.253 1_565 S
O101 Zn95 1.941 . S
O101 C111 1.283 . S
O102 Zn95 1.965 1_565 S
O102 C110 1.303 . S
O103 Zn96 1.938 . S
O103 C110 1.247 . S
O104 Zn96 1.906 . S
O104 C112 1.304 . S
O105 Zn93 1.924 . S
O105 C113 1.311 . S
O106 Zn97 1.977 . S
O106 C112 1.272 1_545 S
O107 Zn97 1.910 . S
O107 C113 1.231 1_545 S
C108 O92 1.225 . S
C108 O114 1.298 . S
C109 O98 1.226 . S
C109 O99 1.307 . S
C110 O102 1.303 . S
C110 O103 1.247 . S
C111 O100 1.253 1_545 S
C111 O101 1.283 . S
C112 O104 1.304 . S
C112 O106 1.272 1_565 S
C113 O105 1.311 . S
C113 O107 1.231 1_565 S
O114 Zn96 1.953 . S
O114 C108 1.298 . S
O115 Zn116 1.953 . S
O115 C131 1.225 . S
Zn116 O115 1.953 . S
Zn116 O117 1.949 . S
Zn116 O123 1.919 . S
Zn116 O128 1.924 . S
O117 Zn116 1.949 . S
O117 Zn118 1.923 1_545 S
O117 Zn119 1.950 . S
O117 Zn120 1.945 1_545 S
Zn118 O117 1.923 1_565 S
Zn118 O121 1.933 . S
Zn118 O124 1.941 . S
Zn118 O125 1.965 1_565 S
Zn119 O117 1.950 . S
Zn119 O126 1.938 . S
Zn119 O127 1.906 . S
Zn119 O137 1.953 . S
Zn120 O117 1.945 1_565 S
Zn120 O122 1.932 . S
Zn120 O129 1.977 . S
Zn120 O130 1.910 . S
O121 Zn118 1.933 . S
O121 C132 1.226 . S
O122 Zn120 1.932 . S
O122 C132 1.307 . S
O123 Zn116 1.919 . S
O123 C134 1.253 1_545 S
O124 Zn118 1.941 . S
O124 C134 1.283 . S
O125 Zn118 1.965 1_545 S
O125 C133 1.303 . S
O126 Zn119 1.938 . S
O126 C133 1.247 . S
O127 Zn119 1.906 . S
O127 C135 1.304 . S
O128 Zn116 1.924 . S
O128 C136 1.311 . S
O129 Zn120 1.977 . S
O129 C135 1.272 1_565 S
O130 Zn120 1.910 . S
O130 C136 1.231 1_565 S
C131 O115 1.225 . S
C131 O137 1.298 . S
C132 O121 1.226 . S
C132 O122 1.307 . S
C133 O125 1.303 . S
C133 O126 1.247 . S
C134 O123 1.253 1_565 S
C134 O124 1.283 . S
C135 O127 1.304 . S
C135 O129 1.272 1_545 S
C136 O128 1.311 . S
C136 O130 1.231 1_545 S
O137 Zn119 1.953 . S
O137 C131 1.298 . S
O138 Zn139 1.953 . S
O138 C154 1.225 . S
Zn139 O138 1.953 . S
Zn139 O140 1.949 . S
Zn139 O146 1.919 . S
Zn139 O151 1.924 . S
O140 Zn139 1.949 . S
O140 Zn141 1.923 1_545 S
O140 Zn142 1.950 . S
O140 Zn143 1.945 1_545 S
Zn141 O140 1.923 1_565 S
Zn141 O144 1.933 . S
Zn141 O147 1.941 . S
Zn141 O148 1.965 1_565 S
Zn142 O140 1.950 . S
Zn142 O149 1.938 . S
Zn142 O150 1.906 . S
Zn142 O160 1.953 . S
Zn143 O140 1.945 1_565 S
Zn143 O145 1.932 . S
Zn143 O152 1.977 . S
Zn143 O153 1.910 . S
O144 Zn141 1.933 . S
O144 C155 1.226 . S
O145 Zn143 1.932 . S
O145 C155 1.307 . S
O146 Zn139 1.919 . S
O146 C157 1.253 1_545 S
O147 Zn141 1.941 . S
O147 C157 1.283 . S
O148 Zn141 1.965 1_545 S
O148 C156 1.303 . S
O149 Zn142 1.938 . S
O149 C156 1.247 . S
O150 Zn142 1.906 . S
O150 C158 1.304 . S
O151 Zn139 1.924 . S
O151 C159 1.311 . S
O152 Zn143 1.977 . S
O152 C158 1.272 1_565 S
O153 Zn143 1.910 . S
O153 C159 1.231 1_565 S
C154 O138 1.225 . S
C154 O160 1.298 . S
C155 O144 1.226 . S
C155 O145 1.307 . S
C156 O148 1.303 . S
C156 O149 1.247 . S
C157 O146 1.253 1_565 S
C157 O147 1.283 . S
C158 O150 1.304 . S
C158 O152 1.272 1_545 S
C159 O151 1.311 . S
C159 O153 1.231 1_545 S
O160 Zn142 1.953 . S
O160 C154 1.298 . S
O161 Zn162 1.953 . S
O161 C177 1.225 . S
Zn162 O161 1.953 . S
Zn162 O163 1.949 . S
Zn162 O169 1.919 . S
Zn162 O174 1.924 . S
O163 Zn162 1.949 . S
O163 Zn164 1.923 1_565 S
O163 Zn165 1.950 . S
O163 Zn166 1.945 1_565 S
Zn164 O163 1.923 1_545 S
Zn164 O167 1.933 . S
Zn164 O170 1.941 . S
Zn164 O171 1.965 1_545 S
Zn165 O163 1.950 . S
Zn165 O172 1.938 . S
Zn165 O173 1.906 . S
Zn165 O183 1.953 . S
Zn166 O163 1.945 1_545 S
Zn166 O168 1.932 . S
Zn166 O175 1.977 . S
Zn166 O176 1.910 . S
O167 Zn164 1.933 . S
O167 C178 1.226 . S
O168 Zn166 1.932 . S
O168 C178 1.307 . S
O169 Zn162 1.919 . S
O169 C180 1.253 1_565 S
O170 Zn164 1.941 . S
O170 C180 1.283 . S
O171 Zn164 1.965 1_565 S
O171 C179 1.303 . S
O172 Zn165 1.938 . S
O172 C179 1.247 . S
O173 Zn165 1.906 . S
O173 C181 1.304 . S
O174 Zn162 1.924 . S
O174 C182 1.311 . S
O175 Zn166 1.977 . S
O175 C181 1.272 1_545 S
O176 Zn166 1.910 . S
O176 C182 1.231 1_545 S
C177 O161 1.225 . S
C177 O183 1.298 . S
C178 O167 1.226 . S
C178 O168 1.307 . S
C179 O171 1.303 . S
C179 O172 1.247 . S
C180 O169 1.253 1_545 S
C180 O170 1.283 . S
C181 O173 1.304 . S
C181 O175 1.272 1_565 S
C182 O174 1.311 . S
C182 O176 1.231 1_565 S
O183 Zn165 1.953 . S
O183 C177 1.298 . S
O184 Zn185 1.953 . S
O184 C200 1.225 . S
Zn185 O184 1.953 . S
Zn185 O186 1.949 . S
Zn185 O192 1.919 . S
Zn185 O197 1.924 . S
O186 Zn185 1.949 . S
O186 Zn187 1.923 . S
O186 Zn188 1.950 . S
O186 Zn189 1.945 . S
Zn187 O186 1.923 . S
Zn187 O190 1.933 . S
Zn187 O193 1.941 . S
Zn187 O194 1.965 . S
Zn188 O186 1.950 . S
Zn188 O195 1.938 . S
Zn188 O196 1.906 . S
Zn188 O206 1.953 . S
Zn189 O186 1.945 . S
Zn189 O191 1.932 . S
Zn189 O198 1.977 . S
Zn189 O199 1.910 . S
O190 Zn187 1.933 . S
O190 C201 1.226 . S
O191 Zn189 1.932 . S
O191 C201 1.307 . S
O192 Zn185 1.919 . S
O192 C203 1.253 . S
O193 Zn187 1.941 . S
O193 C203 1.283 . S
O194 Zn187 1.965 . S
O194 C202 1.303 . S
O195 Zn188 1.938 . S
O195 C202 1.247 . S
O196 Zn188 1.906 . S
O196 C204 1.304 . S
O197 Zn185 1.924 . S
O197 C205 1.311 . S
O198 Zn189 1.977 . S
O198 C204 1.272 . S
O199 Zn189 1.910 . S
O199 C205 1.231 . S
C200 O184 1.225 . S
C200 O206 1.298 . S
C201 O190 1.226 . S
C201 O191 1.307 . S
C202 O194 1.303 . S
C202 O195 1.247 . S
C203 O192 1.253 . S
C203 O193 1.283 . S
C204 O196 1.304 . S
C204 O198 1.272 . S
C205 O197 1.311 . S
C205 O199 1.231 . S
O206 Zn188 1.953 . S
O206 C200 1.298 . S
O207 Zn208 1.953 . S
O207 C223 1.225 . S
Zn208 O207 1.953 . S
Zn208 O209 1.949 . S
Zn208 O215 1.919 . S
Zn208 O220 1.924 . S
O209 Zn208 1.949 . S
O209 Zn210 1.923 . S
O209 Zn211 1.950 . S
O209 Zn212 1.945 . S
Zn210 O209 1.923 . S
Zn210 O213 1.933 . S
Zn210 O216 1.941 . S
Zn210 O217 1.965 . S
Zn211 O209 1.950 . S
Zn211 O218 1.938 . S
Zn211 O219 1.906 . S
Zn211 O229 1.953 . S
Zn212 O209 1.945 . S
Zn212 O214 1.932 . S
Zn212 O221 1.977 . S
Zn212 O222 1.910 . S
O213 Zn210 1.933 . S
O213 C224 1.226 . S
O214 Zn212 1.932 . S
O214 C224 1.307 . S
O215 Zn208 1.919 . S
O215 C226 1.253 . S
O216 Zn210 1.941 . S
O216 C226 1.283 . S
O217 Zn210 1.965 . S
O217 C225 1.303 . S
O218 Zn211 1.938 . S
O218 C225 1.247 . S
O219 Zn211 1.906 . S
O219 C227 1.304 . S
O220 Zn208 1.924 . S
O220 C228 1.311 . S
O221 Zn212 1.977 . S
O221 C227 1.272 . S
O222 Zn212 1.910 . S
O222 C228 1.231 . S
C223 O207 1.225 . S
C223 O229 1.298 . S
C224 O213 1.226 . S
C224 O214 1.307 . S
C225 O217 1.303 . S
C225 O218 1.247 . S
C226 O215 1.253 . S
C226 O216 1.283 . S
C227 O219 1.304 . S
C227 O221 1.272 . S
C228 O220 1.311 . S
C228 O222 1.231 . S
O229 Zn211 1.953 . S
O229 C223 1.298 . S
O230 Zn231 1.953 . S
O230 C246 1.225 . S
Zn231 O230 1.953 . S
Zn231 O232 1.949 . S
Zn231 O238 1.919 . S
Zn231 O243 1.924 . S
O232 Zn231 1.949 . S
O232 Zn233 1.923 . S
O232 Zn234 1.950 . S
O232 Zn235 1.945 . S
Zn233 O232 1.923 . S
Zn233 O236 1.933 . S
Zn233 O239 1.941 . S
Zn233 O240 1.965 . S
Zn234 O232 1.950 . S
Zn234 O241 1.938 . S
Zn234 O242 1.906 . S
Zn234 O252 1.953 . S
Zn235 O232 1.945 . S
Zn235 O237 1.932 . S
Zn235 O244 1.977 . S
Zn235 O245 1.910 . S
O236 Zn233 1.933 . S
O236 C247 1.226 . S
O237 Zn235 1.932 . S
O237 C247 1.307 . S
O238 Zn231 1.919 . S
O238 C249 1.253 . S
O239 Zn233 1.941 . S
O239 C249 1.283 . S
O240 Zn233 1.965 . S
O240 C248 1.303 . S
O241 Zn234 1.938 . S
O241 C248 1.247 . S
O242 Zn234 1.906 . S
O242 C250 1.304 . S
O243 Zn231 1.924 . S
O243 C251 1.311 . S
O244 Zn235 1.977 . S
O244 C250 1.272 . S
O245 Zn235 1.910 . S
O245 C251 1.231 . S
C246 O230 1.225 . S
C246 O252 1.298 . S
C247 O236 1.226 . S
C247 O237 1.307 . S
C248 O240 1.303 . S
C248 O241 1.247 . S
C249 O238 1.253 . S
C249 O239 1.283 . S
C250 O242 1.304 . S
C250 O244 1.272 . S
C251 O243 1.311 . S
C251 O245 1.231 . S
O252 Zn234 1.953 . S
O252 C246 1.298 . S
O253 Zn254 1.953 . S
O253 C269 1.225 . S
Zn254 O253 1.953 . S
Zn254 O255 1.949 . S
Zn254 O261 1.919 . S
Zn254 O266 1.924 . S
O255 Zn254 1.949 . S
O255 Zn256 1.923 . S
O255 Zn257 1.950 . S
O255 Zn258 1.945 . S
Zn256 O255 1.923 . S
Zn256 O259 1.933 . S
Zn256 O262 1.941 . S
Zn256 O263 1.965 . S
Zn257 O255 1.950 . S
Zn257 O264 1.938 . S
Zn257 O265 1.906 . S
Zn257 O275 1.953 . S
Zn258 O255 1.945 . S
Zn258 O260 1.932 . S
Zn258 O267 1.977 . S
Zn258 O268 1.910 . S
O259 Zn256 1.933 . S
O259 C270 1.226 . S
O260 Zn258 1.932 . S
O260 C270 1.307 . S
O261 Zn254 1.919 . S
O261 C272 1.253 . S
O262 Zn256 1.941 . S
O262 C272 1.283 . S
O263 Zn256 1.965 . S
O263 C271 1.303 . S
O264 Zn257 1.938 . S
O264 C271 1.247 . S
O265 Zn257 1.906 . S
O265 C273 1.304 . S
O266 Zn254 1.924 . S
O266 C274 1.311 . S
O267 Zn258 1.977 . S
O267 C273 1.272 . S
O268 Zn258 1.910 . S
O268 C274 1.231 . S
C269 O253 1.225 . S
C269 O275 1.298 . S
C270 O259 1.226 . S
C270 O260 1.307 . S
C271 O263 1.303 . S
C271 O264 1.247 . S
C272 O261 1.253 . S
C272 O262 1.283 . S
C273 O265 1.304 . S
C273 O267 1.272 . S
C274 O266 1.311 . S
C274 O268 1.231 . S
O275 Zn257 1.953 . S
O275 C269 1.298 . S
O276 Zn277 1.953 . S
O276 C292 1.225 . S
Zn277 O276 1.953 . S
Zn277 O278 1.949 . S
Zn277 O284 1.919 . S
Zn277 O289 1.924 . S
O278 Zn277 1.949 . S
O278 Zn279 1.923 . S
O278 Zn280 1.950 . S
O278 Zn281 1.945 . S
Zn279 O278 1.923 . S
Zn279 O282 1.933 . S
Zn279 O285 1.941 . S
Zn279 O286 1.965 . S
Zn280 O278 1.950 . S
Zn280 O287 1.938 . S
Zn280 O288 1.906 . S
Zn280 O298 1.953 . S
Zn281 O278 1.945 . S
Zn281 O283 1.932 . S
Zn281 O290 1.977 . S
Zn281 O291 1.910 . S
O282 Zn279 1.933 . S
O282 C293 1.226 . S
O283 Zn281 1.932 . S
O283 C293 1.307 . S
O284 Zn277 1.919 . S
O284 C295 1.253 . S
O285 Zn279 1.941 . S
O285 C295 1.283 . S
O286 Zn279 1.965 . S
O286 C294 1.303 . S
O287 Zn280 1.938 . S
O287 C294 1.247 . S
O288 Zn280 1.906 . S
O288 C296 1.304 . S
O289 Zn277 1.924 . S
O289 C297 1.311 . S
O290 Zn281 1.977 . S
O290 C296 1.272 . S
O291 Zn281 1.910 . S
O291 C297 1.231 . S
C292 O276 1.225 . S
C292 O298 1.298 . S
C293 O282 1.226 . S
C293 O283 1.307 . S
C294 O286 1.303 . S
C294 O287 1.247 . S
C295 O284 1.253 . S
C295 O285 1.283 . S
C296 O288 1.304 . S
C296 O290 1.272 . S
C297 O289 1.311 . S
C297 O291 1.231 . S
O298 Zn280 1.953 . S
O298 C292 1.298 . S
O299 Zn300 1.953 . S
O299 C315 1.225 . S
Zn300 O299 1.953 . S
Zn300 O301 1.949 . S
Zn300 O307 1.919 . S
Zn300 O312 1.924 . S
O301 Zn300 1.949 . S
O301 Zn302 1.923 . S
O301 Zn303 1.950 . S
O301 Zn304 1.945 . S
Zn302 O301 1.923 . S
Zn302 O305 1.933 . S
Zn302 O308 1.941 . S
Zn302 O309 1.965 . S
Zn303 O301 1.950 . S
Zn303 O310 1.938 . S
Zn303 O311 1.906 . S
Zn303 O321 1.953 . S
Zn304 O301 1.945 . S
Zn304 O306 1.932 . S
Zn304 O313 1.977 . S
Zn304 O314 1.910 . S
O305 Zn302 1.933 . S
O305 C316 1.226 . S
O306 Zn304 1.932 . S
O306 C316 1.307 . S
O307 Zn300 1.919 . S
O307 C318 1.253 . S
O308 Zn302 1.941 . S
O308 C318 1.283 . S
O309 Zn302 1.965 . S
O309 C317 1.303 . S
O310 Zn303 1.938 . S
O310 C317 1.247 . S
O311 Zn303 1.906 . S
O311 C319 1.304 . S
O312 Zn300 1.924 . S
O312 C320 1.311 . S
O313 Zn304 1.977 . S
O313 C319 1.272 . S
O314 Zn304 1.910 . S
O314 C320 1.231 . S
C315 O299 1.225 . S
C315 O321 1.298 . S
C316 O305 1.226 . S
C316 O306 1.307 . S
C317 O309 1.303 . S
C317 O310 1.247 . S
C318 O307 1.253 . S
C318 O308 1.283 . S
C319 O311 1.304 . S
C319 O313 1.272 . S
C320 O312 1.311 . S
C320 O314 1.231 . S
O321 Zn303 1.953 . S
O321 C315 1.298 . S
O322 Zn323 1.953 . S
O322 C338 1.225 . S
Zn323 O322 1.953 . S
Zn323 O324 1.949 . S
Zn323 O330 1.919 . S
Zn323 O335 1.924 . S
O324 Zn323 1.949 . S
O324 Zn325 1.923 . S
O324 Zn326 1.950 . S
O324 Zn327 1.945 . S
Zn325 O324 1.923 . S
Zn325 O328 1.933 . S
Zn325 O331 1.941 . S
Zn325 O332 1.965 . S
Zn326 O324 1.950 . S
Zn326 O333 1.938 . S
Zn326 O334 1.906 . S
Zn326 O344 1.953 . S
Zn327 O324 1.945 . S
Zn327 O329 1.932 . S
Zn327 O336 1.977 . S
Zn327 O337 1.910 . S
O328 Zn325 1.933 . S
O328 C339 1.226 . S
O329 Zn327 1.932 . S
O329 C339 1.307 . S
O330 Zn323 1.919 . S
O330 C341 1.253 . S
O331 Zn325 1.941 . S
O331 C341 1.283 . S
O332 Zn325 1.965 . S
O332 C340 1.303 . S
O333 Zn326 1.938 . S
O333 C340 1.247 . S
O334 Zn326 1.906 . S
O334 C342 1.304 . S
O335 Zn323 1.924 . S
O335 C343 1.311 . S
O336 Zn327 1.977 . S
O336 C342 1.272 . S
O337 Zn327 1.910 . S
O337 C343 1.231 . S
C338 O322 1.225 . S
C338 O344 1.298 . S
C339 O328 1.226 . S
C339 O329 1.307 . S
C340 O332 1.303 . S
C340 O333 1.247 . S
C341 O330 1.253 . S
C341 O331 1.283 . S
C342 O334 1.304 . S
C342 O336 1.272 . S
C343 O335 1.311 . S
C343 O337 1.231 . S
O344 Zn326 1.953 . S
O344 C338 1.298 . S
O345 Zn346 1.953 . S
O345 C361 1.225 . S
Zn346 O345 1.953 . S
Zn346 O347 1.949 . S
Zn346 O353 1.919 . S
Zn346 O358 1.924 . S
O347 Zn346 1.949 . S
O347 Zn348 1.923 . S
O347 Zn349 1.950 . S
O347 Zn350 1.945 . S
Zn348 O347 1.923 . S
Zn348 O351 1.933 . S
Zn348 O354 1.941 . S
Zn348 O355 1.965 . S
Zn349 O347 1.950 . S
Zn349 O356 1.938 . S
Zn349 O357 1.906 . S
Zn349 O367 1.953 . S
Zn350 O347 1.945 . S
Zn350 O352 1.932 . S
Zn350 O359 1.977 . S
Zn350 O360 1.910 . S
O351 Zn348 1.933 . S
O351 C362 1.226 . S
O352 Zn350 1.932 . S
O352 C362 1.307 . S
O353 Zn346 1.919 . S
O353 C364 1.253 . S
O354 Zn348 1.941 . S
O354 C364 1.283 . S
O355 Zn348 1.965 . S
O355 C363 1.303 . S
O356 Zn349 1.938 . S
O356 C363 1.247 . S
O357 Zn349 1.906 . S
O357 C365 1.304 . S
O358 Zn346 1.924 . S
O358 C366 1.311 . S
O359 Zn350 1.977 . S
O359 C365 1.272 . S
O360 Zn350 1.910 . S
O360 C366 1.231 . S
C361 O345 1.225 . S
C361 O367 1.298 . S
C362 O351 1.226 . S
C362 O352 1.307 . S
C363 O355 1.303 . S
C363 O356 1.247 . S
C364 O353 1.253 . S
C364 O354 1.283 . S
C365 O357 1.304 . S
C365 O359 1.272 . S
C366 O358 1.311 . S
C366 O360 1.231 . S
O367 Zn349 1.953 . S
O367 C361 1.298 . S
C18 C225 1.777 . S
C41 C202 1.777 . S
C271 C64 1.777 . S
C87 C248 1.777 . S
C317 C110 1.736 . S
C294 C133 1.736 . S
C363 C156 1.736 . S
C179 C340 1.736 . S
C66 C20 1.435 1_545 S
C89 C43 1.435 1_565 S
C157 C111 1.363 1_565 S
C134 C180 1.363 1_565 S
C250 C204 1.435 . S
C273 C227 1.435 . S
C295 C341 1.363 . S
C318 C364 1.363 . S
C135 C19 1.428 1_556 S
C112 C42 1.428 1_556 S
C65 C181 1.428 . S
C158 C88 1.428 . S
C203 C319 1.428 1_554 S
C296 C226 1.428 1_556 S
C249 C365 1.428 . S
C342 C272 1.428 . S
C44 C21 1.531 1_665 S
C90 C67 1.531 1_645 S
C136 C113 1.613 1_445 S
C159 C182 1.613 1_645 S
C228 C205 1.531 . S
C274 C251 1.531 . S
C297 C320 1.613 . S
C343 C366 1.613 . S
C17 C16 1.572 . S
C40 C39 1.572 . S
C63 C62 1.572 . S
C85 C86 1.572 . S
C109 C108 1.585 . S
C131 C132 1.585 . S
C155 C154 1.585 . S
C178 C177 1.585 . S
C200 C201 1.572 1_565 S
C224 C223 1.572 1_565 S
C246 C247 1.572 1_545 S
C269 C270 1.572 1_565 S
C293 C292 1.585 1_565 S
C316 C315 1.585 1_545 S
C338 C339 1.585 1_565 S
C362 C361 1.585 1_565 S
