# Generated by pormake.
# Topology ecd, (8)-cn, num edge types: 1
# Building blocks:
#     Node 0, Type 0, BuildingBlock: TAGTUT_clean_sbu_3, # of connection points: 8
#     Node 1, Type 0, BuildingBlock: TAGTUT_clean_sbu_3, # of connection points: 8
#     Node 2, Type 0, BuildingBlock: TAGTUT_clean_sbu_3, # of connection points: 8
#     Node 3, Type 0, BuildingBlock: TAGTUT_clean_sbu_3, # of connection points: 8
#     Node 4, Type 0, BuildingBlock: TAGTUT_clean_sbu_3, # of connection points: 8
#     Node 5, Type 0, BuildingBlock: TAGTUT_clean_sbu_3, # of connection points: 8
#     Node 6, Type 0, BuildingBlock: TAGTUT_clean_sbu_3, # of connection points: 8
#     Node 7, Type 0, BuildingBlock: TAGTUT_clean_sbu_3, # of connection points: 8
#     Node 8, Type 0, BuildingBlock: TAGTUT_clean_sbu_3, # of connection points: 8
#     Node 9, Type 0, BuildingBlock: TAGTUT_clean_sbu_3, # of connection points: 8
#     Node 10, Type 0, BuildingBlock: TAGTUT_clean_sbu_3, # of connection points: 8
#     Node 11, Type 0, BuildingBlock: TAGTUT_clean_sbu_3, # of connection points: 8
#     Node 12, Type 0, BuildingBlock: TAGTUT_clean_sbu_3, # of connection points: 8
#     Node 13, Type 0, BuildingBlock: TAGTUT_clean_sbu_3, # of connection points: 8
#     Node 14, Type 0, BuildingBlock: TAGTUT_clean_sbu_3, # of connection points: 8
#     Node 15, Type 0, BuildingBlock: TAGTUT_clean_sbu_3, # of connection points: 8
#     Node 16, Type 0, BuildingBlock: TAGTUT_clean_sbu_3, # of connection points: 8
#     Node 17, Type 0, BuildingBlock: TAGTUT_clean_sbu_3, # of connection points: 8
#     Edge 18, Type (0, 0), BuildingBlock: OJICUG_clean_linker_0, # of connection points: 2
#     Edge 19, Type (0, 0), BuildingBlock: OJICUG_clean_linker_0, # of connection points: 2
#     Edge 20, Type (0, 0), BuildingBlock: OJICUG_clean_linker_0, # of connection points: 2
#     Edge 21, Type (0, 0), BuildingBlock: OJICUG_clean_linker_0, # of connection points: 2
#     Edge 22, Type (0, 0), BuildingBlock: OJICUG_clean_linker_0, # of connection points: 2
#     Edge 23, Type (0, 0), BuildingBlock: OJICUG_clean_linker_0, # of connection points: 2
#     Edge 24, Type (0, 0), BuildingBlock: OJICUG_clean_linker_0, # of connection points: 2
#     Edge 25, Type (0, 0), BuildingBlock: OJICUG_clean_linker_0, # of connection points: 2
#     Edge 26, Type (0, 0), BuildingBlock: OJICUG_clean_linker_0, # of connection points: 2
#     Edge 27, Type (0, 0), BuildingBlock: OJICUG_clean_linker_0, # of connection points: 2
#     Edge 28, Type (0, 0), BuildingBlock: OJICUG_clean_linker_0, # of connection points: 2
#     Edge 29, Type (0, 0), BuildingBlock: OJICUG_clean_linker_0, # of connection points: 2
#     Edge 30, Type (0, 0), BuildingBlock: OJICUG_clean_linker_0, # of connection points: 2
#     Edge 31, Type (0, 0), BuildingBlock: OJICUG_clean_linker_0, # of connection points: 2
#     Edge 32, Type (0, 0), BuildingBlock: OJICUG_clean_linker_0, # of connection points: 2
#     Edge 33, Type (0, 0), BuildingBlock: OJICUG_clean_linker_0, # of connection points: 2
#     Edge 34, Type (0, 0), BuildingBlock: OJICUG_clean_linker_0, # of connection points: 2
#     Edge 35, Type (0, 0), BuildingBlock: OJICUG_clean_linker_0, # of connection points: 2
#     Edge 36, Type (0, 0), BuildingBlock: OJICUG_clean_linker_0, # of connection points: 2
#     Edge 37, Type (0, 0), BuildingBlock: OJICUG_clean_linker_0, # of connection points: 2
#     Edge 38, Type (0, 0), BuildingBlock: OJICUG_clean_linker_0, # of connection points: 2
#     Edge 39, Type (0, 0), BuildingBlock: OJICUG_clean_linker_0, # of connection points: 2
#     Edge 40, Type (0, 0), BuildingBlock: OJICUG_clean_linker_0, # of connection points: 2
#     Edge 41, Type (0, 0), BuildingBlock: OJICUG_clean_linker_0, # of connection points: 2
#     Edge 42, Type (0, 0), BuildingBlock: OJICUG_clean_linker_0, # of connection points: 2
#     Edge 43, Type (0, 0), BuildingBlock: OJICUG_clean_linker_0, # of connection points: 2
#     Edge 44, Type (0, 0), BuildingBlock: OJICUG_clean_linker_0, # of connection points: 2
#     Edge 45, Type (0, 0), BuildingBlock: OJICUG_clean_linker_0, # of connection points: 2
#     Edge 46, Type (0, 0), BuildingBlock: OJICUG_clean_linker_0, # of connection points: 2
#     Edge 47, Type (0, 0), BuildingBlock: OJICUG_clean_linker_0, # of connection points: 2
#     Edge 48, Type (0, 0), BuildingBlock: OJICUG_clean_linker_0, # of connection points: 2
#     Edge 49, Type (0, 0), BuildingBlock: OJICUG_clean_linker_0, # of connection points: 2
#     Edge 50, Type (0, 0), BuildingBlock: OJICUG_clean_linker_0, # of connection points: 2
#     Edge 51, Type (0, 0), BuildingBlock: OJICUG_clean_linker_0, # of connection points: 2
#     Edge 52, Type (0, 0), BuildingBlock: OJICUG_clean_linker_0, # of connection points: 2
#     Edge 53, Type (0, 0), BuildingBlock: OJICUG_clean_linker_0, # of connection points: 2
#     Edge 54, Type (0, 0), BuildingBlock: OJICUG_clean_linker_0, # of connection points: 2
#     Edge 55, Type (0, 0), BuildingBlock: OJICUG_clean_linker_0, # of connection points: 2
#     Edge 56, Type (0, 0), BuildingBlock: OJICUG_clean_linker_0, # of connection points: 2
#     Edge 57, Type (0, 0), BuildingBlock: OJICUG_clean_linker_0, # of connection points: 2
#     Edge 58, Type (0, 0), BuildingBlock: OJICUG_clean_linker_0, # of connection points: 2
#     Edge 59, Type (0, 0), BuildingBlock: OJICUG_clean_linker_0, # of connection points: 2
#     Edge 60, Type (0, 0), BuildingBlock: OJICUG_clean_linker_0, # of connection points: 2
#     Edge 61, Type (0, 0), BuildingBlock: OJICUG_clean_linker_0, # of connection points: 2
#     Edge 62, Type (0, 0), BuildingBlock: OJICUG_clean_linker_0, # of connection points: 2
#     Edge 63, Type (0, 0), BuildingBlock: OJICUG_clean_linker_0, # of connection points: 2
#     Edge 64, Type (0, 0), BuildingBlock: OJICUG_clean_linker_0, # of connection points: 2
#     Edge 65, Type (0, 0), BuildingBlock: OJICUG_clean_linker_0, # of connection points: 2
#     Edge 66, Type (0, 0), BuildingBlock: OJICUG_clean_linker_0, # of connection points: 2
#     Edge 67, Type (0, 0), BuildingBlock: OJICUG_clean_linker_0, # of connection points: 2
#     Edge 68, Type (0, 0), BuildingBlock: OJICUG_clean_linker_0, # of connection points: 2
#     Edge 69, Type (0, 0), BuildingBlock: OJICUG_clean_linker_0, # of connection points: 2
#     Edge 70, Type (0, 0), BuildingBlock: OJICUG_clean_linker_0, # of connection points: 2
#     Edge 71, Type (0, 0), BuildingBlock: OJICUG_clean_linker_0, # of connection points: 2
#     Edge 72, Type (0, 0), BuildingBlock: OJICUG_clean_linker_0, # of connection points: 2
#     Edge 73, Type (0, 0), BuildingBlock: OJICUG_clean_linker_0, # of connection points: 2
#     Edge 74, Type (0, 0), BuildingBlock: OJICUG_clean_linker_0, # of connection points: 2
#     Edge 75, Type (0, 0), BuildingBlock: OJICUG_clean_linker_0, # of connection points: 2
#     Edge 76, Type (0, 0), BuildingBlock: OJICUG_clean_linker_0, # of connection points: 2
#     Edge 77, Type (0, 0), BuildingBlock: OJICUG_clean_linker_0, # of connection points: 2
#     Edge 78, Type (0, 0), BuildingBlock: OJICUG_clean_linker_0, # of connection points: 2
#     Edge 79, Type (0, 0), BuildingBlock: OJICUG_clean_linker_0, # of connection points: 2
#     Edge 80, Type (0, 0), BuildingBlock: OJICUG_clean_linker_0, # of connection points: 2
#     Edge 81, Type (0, 0), BuildingBlock: OJICUG_clean_linker_0, # of connection points: 2
#     Edge 82, Type (0, 0), BuildingBlock: OJICUG_clean_linker_0, # of connection points: 2
#     Edge 83, Type (0, 0), BuildingBlock: OJICUG_clean_linker_0, # of connection points: 2
#     Edge 84, Type (0, 0), BuildingBlock: OJICUG_clean_linker_0, # of connection points: 2
#     Edge 85, Type (0, 0), BuildingBlock: OJICUG_clean_linker_0, # of connection points: 2
#     Edge 86, Type (0, 0), BuildingBlock: OJICUG_clean_linker_0, # of connection points: 2
#     Edge 87, Type (0, 0), BuildingBlock: OJICUG_clean_linker_0, # of connection points: 2
#     Edge 88, Type (0, 0), BuildingBlock: OJICUG_clean_linker_0, # of connection points: 2
#     Edge 89, Type (0, 0), BuildingBlock: OJICUG_clean_linker_0, # of connection points: 2
# Relax obj value: 0.307
# Max RMSD: 0.284
# Mean RMSD: 0.281
data_MOF--net-ecd--node1-TAGTUT_clean_sbu_3--edge1-OJICUG_clean_linker_0
_symmetry_space_group_name_H-M    P1
_symmetry_Int_Tables_number       1
_symmetry_cell_setting            triclinic
loop_
_symmetry_equiv_pos_as_xyz
'x, y, z'
_cell_length_a     37.479765
_cell_length_b     37.606095
_cell_length_c     27.604372
_cell_angle_alpha  89.633256
_cell_angle_beta   89.574278
_cell_angle_gamma 119.73142
loop_
_atom_site_label
_atom_site_type_symbol
_atom_site_fract_x
_atom_site_fract_y
_atom_site_fract_z
_atom_type_partial_charge
C0 C 0.09071 0.51161 0.21021 0.0
C1 C 0.98792 0.47045 0.07168 0.0
C2 C 0.93969 0.5266 0.14598 0.0
Mg3 Mg 0.0848 0.55218 0.31211 0.0
Mg4 Mg 0.99442 0.5256 0.3615 0.0
O5 O 0.02912 0.54858 0.30754 0.0
Mg6 Mg 0.01018 0.51542 0.2489 0.0
O7 O 0.9961 0.48455 0.18822 0.0
Mg8 Mg 0.03314 0.53348 0.14766 0.0
Mg9 Mg 0.94142 0.45048 0.16592 0.0
C10 C 0.93132 0.52548 0.29095 0.0
O11 O 0.96735 0.45055 0.28529 0.0
O12 O 0.09471 0.59747 0.36997 0.0
O13 O 0.92412 0.40797 0.22853 0.0
O14 O 0.06306 0.50581 0.3813 0.0
O15 O 0.03308 0.57754 0.40557 0.0
O16 O 0.99744 0.47167 0.37085 0.0
O17 O 0.04959 0.57785 0.20769 0.0
O18 O 0.10661 0.60326 0.25072 0.0
C19 C 0.08679 0.60603 0.21444 0.0
C20 C 0.07194 0.60187 0.40146 0.0
O21 O 0.9538 0.52743 0.25428 0.0
O22 O 0.01517 0.47856 0.10243 0.0
O23 O 0.93946 0.51997 0.3342 0.0
O24 O 0.97703 0.54137 0.13146 0.0
O25 O 0.9505 0.45091 0.08617 0.0
O26 O 0.91968 0.49207 0.16768 0.0
O27 O 0.06762 0.50483 0.24835 0.0
O28 O 0.0845 0.52594 0.17133 0.0
C29 C 0.02685 0.48364 0.39961 0.0
C30 C 0.93828 0.41512 0.27203 0.0
C31 C 0.59121 0.5115 0.2504 0.0
C32 C 0.53778 0.5443 0.39639 0.0
C33 C 0.42356 0.48758 0.3342 0.0
Mg34 Mg 0.54607 0.47454 0.14461 0.0
Mg35 Mg 0.48379 0.50687 0.10065 0.0
O36 O 0.49603 0.48188 0.15078 0.0
Mg37 Mg 0.50704 0.509 0.2121 0.0
O38 O 0.52053 0.53231 0.27783 0.0
Mg39 Mg 0.50621 0.47817 0.30926 0.0
Mg40 Mg 0.5017 0.56505 0.30647 0.0
C41 C 0.42051 0.50454 0.17102 0.0
O42 O 0.5285 0.57483 0.18292 0.0
O43 O 0.50838 0.43079 0.08619 0.0
O44 O 0.51783 0.60801 0.24444 0.0
O45 O 0.57479 0.52383 0.07982 0.0
O46 O 0.46237 0.44957 0.06243 0.0
O47 O 0.54351 0.55766 0.09273 0.0
O48 O 0.48226 0.44507 0.24264 0.0
O49 O 0.51389 0.41967 0.19957 0.0
C50 C 0.48915 0.41589 0.23384 0.0
C51 C 0.47636 0.42453 0.06283 0.0
O52 O 0.43769 0.49615 0.2064 0.0
O53 O 0.53177 0.5126 0.37404 0.0
O54 O 0.43915 0.51894 0.13085 0.0
O55 O 0.4442 0.46899 0.33262 0.0
O56 O 0.52864 0.57049 0.37871 0.0
O57 O 0.4383 0.52467 0.32025 0.0
O58 O 0.57606 0.52003 0.21259 0.0
O59 O 0.56806 0.48983 0.28532 0.0
C60 C 0.55767 0.54321 0.06225 0.0
C61 C 0.52797 0.6063 0.20007 0.0
C62 C 0.4357 0.94084 0.22116 0.0
C63 C 0.49957 0.04485 0.08578 0.0
C64 C 0.6112 0.08242 0.14782 0.0
Mg65 Mg 0.47457 0.93533 0.32649 0.0
Mg66 Mg 0.53077 0.02224 0.37755 0.0
O67 O 0.52835 0.9898 0.3264 0.0
Mg68 Mg 0.52201 0.01472 0.26716 0.0
O69 O 0.51315 0.03356 0.20347 0.0
Mg70 Mg 0.52226 0.99403 0.16399 0.0
Mg71 Mg 0.53789 0.08791 0.18197 0.0
C72 C 0.60621 0.0867 0.32425 0.0
O73 O 0.50311 0.06031 0.30041 0.0
O74 O 0.50364 0.92104 0.38987 0.0
O75 O 0.52102 0.11111 0.24507 0.0
O76 O 0.44541 0.95396 0.39384 0.0
O77 O 0.53902 0.98257 0.42611 0.0
O78 O 0.47241 0.01756 0.37635 0.0
O79 O 0.54254 0.97407 0.22843 0.0
O80 O 0.50704 0.91446 0.26665 0.0
C81 C 0.53201 0.93627 0.23243 0.0
C82 C 0.52607 0.94409 0.42419 0.0
O83 O 0.59257 0.06773 0.28348 0.0
O84 O 0.50018 0.01387 0.1031 0.0
O85 O 0.58276 0.07855 0.36113 0.0
O86 O 0.58715 0.04396 0.14342 0.0
O87 O 0.51286 0.07847 0.10899 0.0
O88 O 0.60022 0.10532 0.16954 0.0
O89 O 0.4516 0.96041 0.2609 0.0
O90 O 0.45778 0.94757 0.18327 0.0
C91 C 0.45675 0.99027 0.40835 0.0
C92 C 0.50684 0.09491 0.28705 0.0
C93 C 0.9306 0.42363 0.74743 0.0
C94 C 0.97714 0.43814 0.58924 0.0
C95 C 0.98681 0.54696 0.57205 0.0
Mg96 Mg 0.98577 0.487 0.82183 0.0
Mg97 Mg 0.08095 0.56715 0.80718 0.0
O98 O 0.02675 0.53744 0.78521 0.0
Mg99 Mg 0.01038 0.5142 0.71961 0.0
O100 O 0.98957 0.48896 0.65653 0.0
Mg101 Mg 0.93006 0.48323 0.65856 0.0
Mg102 Mg 0.03441 0.51655 0.60791 0.0
C103 C 0.09097 0.60954 0.70195 0.0
O104 O 0.06355 0.49567 0.70705 0.0
O105 O 1.00501 0.52603 0.88622 0.0
O106 O 0.09136 0.53492 0.64227 0.0
O107 O 0.03407 0.46988 0.84 0.0
O108 O 0.06763 0.58165 0.87974 0.0
O109 O 0.09739 0.52099 0.82239 0.0
O110 O 0.95537 0.52991 0.72694 0.0
O111 O 0.94083 0.50725 0.80397 0.0
C112 C 0.93494 0.52458 0.76754 0.0
C113 C 0.03409 0.55885 0.90343 0.0
O114 O 0.05632 0.57958 0.68833 0.0
O115 O 0.96388 0.45821 0.61306 0.0
O116 O 0.10639 0.60958 0.74367 0.0
O117 O 0.9504 0.53014 0.59076 0.0
O118 O 0.01268 0.45864 0.56993 0.0
O119 O 0.01615 0.56154 0.60119 0.0
O120 O 0.96798 0.45098 0.75389 0.0
O121 O 0.90953 0.42896 0.71479 0.0
C122 C 0.07295 0.48497 0.83894 0.0
C123 C 0.09163 0.51022 0.67354 0.0
C124 C 0.4404 0.51004 0.70178 0.0
C125 C 0.52188 0.47995 0.5779 0.0
C126 C 0.62274 0.54741 0.66246 0.0
Mg127 Mg 0.46898 0.54811 0.81269 0.0
Mg128 Mg 0.52789 0.52013 0.8718 0.0
O129 O 0.5223 0.5461 0.81789 0.0
Mg130 Mg 0.51996 0.5174 0.759 0.0
O131 O 0.51732 0.49324 0.69506 0.0
Mg132 Mg 0.53363 0.5468 0.66027 0.0
Mg133 Mg 0.54537 0.46453 0.67958 0.0
C134 C 0.60347 0.52905 0.81885 0.0
O135 O 0.49694 0.45055 0.79031 0.0
O136 O 0.49663 0.59247 0.87496 0.0
O137 O 0.52005 0.41892 0.74044 0.0
O138 O 0.43731 0.49874 0.87807 0.0
O139 O 0.53692 0.57229 0.9131 0.0
O140 O 0.4698 0.46602 0.86675 0.0
O141 O 0.54428 0.58139 0.72629 0.0
O142 O 0.50229 0.60163 0.75565 0.0
C143 C 0.53178 0.60735 0.72709 0.0
C144 C 0.5224 0.59657 0.90789 0.0
O145 O 0.58856 0.53298 0.77833 0.0
O146 O 0.52273 0.51111 0.59621 0.0
O147 O 0.58184 0.51757 0.85754 0.0
O148 O 0.59936 0.56242 0.65496 0.0
O149 O 0.52978 0.45534 0.60201 0.0
O150 O 0.60907 0.51079 0.67811 0.0
O151 O 0.45102 0.50343 0.74431 0.0
O152 O 0.46713 0.52756 0.66802 0.0
C153 C 0.45102 0.47637 0.89595 0.0
C154 C 0.50093 0.4194 0.77931 0.0
C155 C 0.49139 0.098 0.75939 0.0
C156 C 0.48484 0.08106 0.57166 0.0
C157 C 0.56098 0.04156 0.57955 0.0
Mg158 Mg 0.51111 0.04789 0.82936 0.0
Mg159 Mg 0.4943 0.95342 0.81527 0.0
O160 O 0.51993 1.00731 0.79103 0.0
Mg161 Mg 0.50592 0.0211 0.72786 0.0
O162 O 0.49446 0.04094 0.66805 0.0
Mg163 Mg 0.54591 0.09688 0.66293 0.0
Mg164 Mg 0.48853 1.00648 0.61746 0.0
C165 C 0.52557 0.9425 0.71111 0.0
O166 O 0.43645 0.96572 0.71876 0.0
O167 O 0.54572 0.03401 0.88352 0.0
O168 O 0.44223 0.94899 0.64238 0.0
O169 O 0.44975 0.99672 0.85764 0.0
O170 O 0.51352 0.96606 0.89097 0.0
O171 O 0.43169 0.93597 0.82526 0.0
O172 O 0.57527 0.07769 0.72767 0.0
O173 O 0.57091 0.09752 0.8025 0.0
C174 C 0.592 0.10064 0.76496 0.0
C175 C 0.53318 1.00194 0.90923 0.0
O176 O 0.52725 0.97574 0.69507 0.0
O177 O 0.51067 0.10597 0.60228 0.0
O178 O 0.51255 0.92845 0.75427 0.0
O179 O 0.57351 0.07792 0.59482 0.0
O180 O 0.47257 0.04259 0.57094 0.0
O181 O 0.54799 0.01413 0.61162 0.0
O182 O 0.48237 0.06085 0.76672 0.0
O183 O 0.51497 0.11808 0.72339 0.0
C184 C 0.42389 0.95887 0.85201 0.0
C185 C 0.42141 0.94247 0.6813 0.0
C186 C 0.76002 0.93448 0.5588 0.0
C187 C 0.75497 0.92104 0.73166 0.0
C188 C 0.69464 0.79323 0.71455 0.0
Mg189 Mg 0.70202 0.87983 0.48439 0.0
Mg190 Mg 0.61237 0.79067 0.48594 0.0
O191 O 0.66541 0.82302 0.51126 0.0
Mg192 Mg 0.68014 0.84397 0.57925 0.0
O193 O 0.70239 0.86932 0.64218 0.0
Mg194 Mg 0.75695 0.86906 0.63892 0.0
Mg195 Mg 0.66966 0.84781 0.69741 0.0
C196 C 0.6036 0.74354 0.58722 0.0
O197 O 0.62688 0.86137 0.59597 0.0
O198 O 0.68517 0.85514 0.41258 0.0
O199 O 0.61802 0.85316 0.67676 0.0
O200 O 0.64752 0.89121 0.48671 0.0
O201 O 0.62581 0.79709 0.40509 0.0
O202 O 0.5899 0.83079 0.49889 0.0
O203 O 0.73471 0.82999 0.56687 0.0
O204 O 0.75004 0.86008 0.49262 0.0
C205 C 0.75604 0.84009 0.52662 0.0
C206 C 0.65863 0.82738 0.38647 0.0
O207 O 0.63442 0.7763 0.60354 0.0
O208 O 0.77469 0.91112 0.70186 0.0
O209 O 0.58976 0.74162 0.54391 0.0
O210 O 0.73194 0.81479 0.69931 0.0
O211 O 0.71584 0.89978 0.7377 0.0
O212 O 0.66749 0.79105 0.6867 0.0
O213 O 0.72212 0.90835 0.55359 0.0
O214 O 0.78164 0.92712 0.5885 0.0
C215 C 0.60881 0.8697 0.49536 0.0
C216 C 0.60852 0.86177 0.63577 0.0
C217 C 0.17776 0.93584 0.51902 0.0
C218 C 0.20119 0.85272 0.37798 0.0
C219 C 0.1522 0.76351 0.46817 0.0
Mg220 Mg 0.14084 0.89493 0.62715 0.0
Mg221 Mg 0.17737 0.83932 0.67388 0.0
O222 O 0.14494 0.84284 0.62507 0.0
Mg223 Mg 0.17403 0.85237 0.56275 0.0
O224 O 0.20141 0.86512 0.49781 0.0
Mg225 Mg 0.14947 0.85116 0.46213 0.0
Mg226 Mg 0.23127 0.83978 0.47567 0.0
C227 C 0.16873 0.76798 0.61342 0.0
O228 O 0.23978 0.87293 0.592 0.0
O229 O 0.10155 0.86262 0.6951 0.0
O230 O 0.27606 0.86046 0.53549 0.0
O231 O 0.19249 0.92705 0.68729 0.0
O232 O 0.13195 0.82887 0.7275 0.0
O233 O 0.2285 0.89844 0.67122 0.0
O234 O 0.11072 0.8295 0.52855 0.0
O235 O 0.08564 0.86144 0.57216 0.0
C236 C 0.08231 0.83811 0.53657 0.0
C237 C 0.10479 0.84008 0.72827 0.0
O238 O 0.16049 0.78329 0.57582 0.0
O239 O 0.19573 0.87765 0.40273 0.0
O240 O 0.18316 0.78866 0.65186 0.0
O241 O 0.13704 0.78505 0.45162 0.0
O242 O 0.22311 0.83839 0.39565 0.0
O243 O 0.18762 0.77902 0.4869 0.0
O244 O 0.18494 0.92053 0.55756 0.0
O245 O 0.16326 0.91448 0.48091 0.0
C246 C 0.2183 0.91644 0.70156 0.0
C247 C 0.27244 0.87253 0.57805 0.0
C248 C 0.20151 0.27138 0.5375 0.0
C249 C 0.19342 0.28014 0.72876 0.0
C250 C 0.11662 0.32172 0.70199 0.0
Mg251 Mg 0.19211 0.32664 0.46541 0.0
Mg252 Mg 0.21182 0.42169 0.47765 0.0
O253 O 0.18301 0.36756 0.50257 0.0
Mg254 Mg 0.19119 0.3502 0.56854 0.0
O255 O 0.19574 0.32589 0.6301 0.0
Mg256 Mg 0.14259 0.27011 0.62823 0.0
Mg257 Mg 0.19499 0.35713 0.68114 0.0
C258 C 0.17132 0.42901 0.57979 0.0
O259 O 0.26063 0.40331 0.5896 0.0
O260 O 0.16553 0.34585 0.40658 0.0
O261 O 0.24544 0.41467 0.66476 0.0
O262 O 0.2571 0.37662 0.44748 0.0
O263 O 0.20972 0.41088 0.39655 0.0
O264 O 0.27333 0.43529 0.48454 0.0
O265 O 0.12291 0.29501 0.56142 0.0
O266 O 0.12902 0.27998 0.48478 0.0
C267 C 0.10771 0.27361 0.52309 0.0
C268 C 0.1909 0.3744 0.37958 0.0
O269 O 0.1696 0.39603 0.59678 0.0
O270 O 0.17107 0.25657 0.69461 0.0
O271 O 0.18679 0.44396 0.53729 0.0
O272 O 0.1067 0.28587 0.68765 0.0
O273 O 0.20453 0.31831 0.7307 0.0
O274 O 0.13609 0.35001 0.67194 0.0
O275 O 0.21318 0.30932 0.53209 0.0
O276 O 0.17654 0.2506 0.572 0.0
C277 C 0.28325 0.41323 0.45908 0.0
C278 C 0.27156 0.42195 0.63103 0.0
C279 C 0.74738 0.93517 0.01526 0.0
C280 C 0.64364 0.85015 0.87746 0.0
C281 C 0.60325 0.76057 0.96851 0.0
Mg282 Mg 0.74991 0.89869 0.11852 0.0
Mg283 Mg 0.66329 0.83427 0.17519 0.0
O284 O 0.69614 0.84327 0.12057 0.0
Mg285 Mg 0.67225 0.84981 0.06072 0.0
O286 O 0.65478 0.86122 -0.00245 0.0
Mg287 Mg 0.69376 0.84982 0.95967 0.0
Mg288 Mg 0.59962 0.8367 0.97621 0.0
C289 C 0.60008 0.76293 0.11395 0.0
O290 O 0.6252 0.86712 0.0944 0.0
O291 O 0.76706 0.87119 0.1779 0.0
O292 O 0.5784 0.86035 0.03858 0.0
O293 O 0.72853 0.92612 0.18365 0.0
O294 O 0.70781 0.82589 0.21564 0.0
O295 O 0.66347 0.89046 0.17311 0.0
O296 O 0.71463 0.82868 0.02408 0.0
O297 O 0.77329 0.86802 0.06165 0.0
C298 C 0.75271 0.84045 0.03036 0.0
C299 C 0.74689 0.84307 0.20935 0.0
O300 O 0.62025 0.78017 0.07449 0.0
O301 O 0.6721 0.87615 0.9029 0.0
O302 O 0.60905 0.78135 0.15441 0.0
O303 O 0.63993 0.78253 0.95126 0.0
O304 O 0.60702 0.83336 0.89512 0.0
O305 O 0.58312 0.7759 0.98807 0.0
O306 O 0.72505 0.91902 0.05364 0.0
O307 O 0.7421 0.91427 0.97696 0.0
C308 C 0.69218 0.91038 0.20166 0.0
C309 C 0.59323 0.86919 0.08191 0.0
C310 C 0.10931 0.84668 0.03093 0.0
C311 C 0.19075 0.84239 0.89178 0.0
C312 C 0.28818 0.88624 0.98351 0.0
Mg313 Mg 0.1241 0.86765 0.14317 0.0
Mg314 Mg 0.18866 0.83444 0.20414 0.0
O315 O 0.18002 0.86671 0.15487 0.0
Mg316 Mg 0.18718 0.85094 0.0886 0.0
O317 O 0.18948 0.83806 0.01878 0.0
Mg318 Mg 0.20353 0.89332 -0.00715 0.0
Mg319 Mg 0.20521 0.8043 0.98643 0.0
C320 C 0.26742 0.8564 0.15112 0.0
O321 O 0.16605 0.78247 0.10638 0.0
O322 O 0.16926 0.89294 0.20351 0.0
O323 O 0.17547 0.75172 0.04126 0.0
O324 O 0.0868 0.8083 0.19346 0.0
O325 O 0.2083 0.88493 0.25501 0.0
O326 O 0.12887 0.78501 0.18623 0.0
O327 O 0.20928 0.91701 0.06681 0.0
O328 O 0.16255 0.92953 0.0999 0.0
C329 C 0.19459 0.94084 0.07324 0.0
C330 C 0.19481 0.90734 0.2376 0.0
O331 O 0.25582 0.86914 0.11394 0.0
O332 O 0.19533 0.87087 0.91946 0.0
O333 O 0.24108 0.8308 0.18103 0.0
O334 O 0.26942 0.90691 0.9864 0.0
O335 O 0.1909 0.81025 0.90818 0.0
O336 O 0.26979 0.84708 0.98777 0.0
O337 O 0.12045 0.83564 0.0698 0.0
O338 O 0.13555 0.87051 -0.00059 0.0
C339 C 0.10274 0.7881 0.21192 0.0
C340 C 0.16334 0.75071 0.08564 0.0
C341 C 0.17325 0.26801 0.02857 0.0
C342 C 0.18986 0.36282 0.88875 0.0
C343 C 0.13339 0.40883 0.97003 0.0
Mg344 Mg 0.14061 0.26072 0.14024 0.0
Mg345 Mg 0.17494 0.34509 0.19693 0.0
O346 O 0.14081 0.31511 0.14721 0.0
Mg347 Mg 0.16505 0.34085 0.08302 0.0
O348 O 0.1839 0.35902 0.01414 0.0
Mg349 Mg 0.1306 0.31865 0.98349 0.0
Mg350 Mg 0.21524 0.41105 0.98529 0.0
C351 C 0.15722 0.40953 0.15173 0.0
O352 O 0.23257 0.38777 0.10392 0.0
O353 O 0.10288 0.24386 0.21069 0.0
O354 O 0.26184 0.43546 0.04395 0.0
O355 O 0.19677 0.28019 0.1955 0.0
O356 O 0.13379 0.30316 0.25166 0.0
O357 O 0.22787 0.34316 0.17434 0.0
O358 O 0.10054 0.29986 0.05534 0.0
O359 O 0.0823 0.23992 0.09024 0.0
C360 C 0.07503 0.26173 0.06011 0.0
C361 C 0.10659 0.26521 0.24852 0.0
O362 O 0.15056 0.39299 0.10918 0.0
O363 O 0.16042 0.33638 0.91414 0.0
O364 O 0.17209 0.39875 0.18651 0.0
O365 O 0.11454 0.36956 0.97073 0.0
O366 O 0.21827 0.39623 0.90715 0.0
O367 O 0.17105 0.43056 0.9819 0.0
O368 O 0.17984 0.2877 0.06859 0.0
O369 O 0.15419 0.27371 -0.0062 0.0
C370 C 0.22479 0.31685 0.20438 0.0
C371 C 0.26275 0.42103 0.08633 0.0
C372 C 0.42576 0.27415 0.907 0.0
C373 C 0.37985 0.25244 0.06065 0.0
C374 C 0.37208 0.14201 0.06956 0.0
Mg375 Mg 0.36445 0.21762 0.83504 0.0
Mg376 Mg 0.27314 0.13053 0.84558 0.0
O377 O 0.32793 0.16258 0.86546 0.0
Mg378 Mg 0.34554 0.18248 0.93146 0.0
O379 O 0.36783 0.20362 -0.00519 0.0
Mg380 Mg 0.42831 0.21043 0.98783 0.0
Mg381 Mg 0.32269 0.17448 0.04355 0.0
C382 C 0.26673 0.08394 0.94488 0.0
O383 O 0.29283 0.19905 0.94791 0.0
O384 O 0.34299 0.18577 0.7681 0.0
O385 O 0.26523 0.16035 0.01327 0.0
O386 O 0.31055 0.23095 0.83213 0.0
O387 O 0.2834 0.12656 0.76788 0.0
O388 O 0.25149 0.17286 0.84832 0.0
O389 O 0.40005 0.16866 0.91646 0.0
O390 O 0.41201 0.19729 0.84181 0.0
C391 C 0.41912 0.17722 0.87445 0.0
C392 C 0.31565 0.15484 0.74646 0.0
O393 O 0.29979 0.1156 0.95913 0.0
O394 O 0.39126 0.23109 0.03591 0.0
O395 O 0.25117 0.08281 0.90305 0.0
O396 O 0.4086 0.15987 0.0512 0.0
O397 O 0.34508 0.23267 0.08177 0.0
O398 O 0.34302 0.13018 0.0402 0.0
O399 O 0.38723 0.24879 0.90413 0.0
O400 O 0.44813 0.26605 0.93464 0.0
C401 C 0.27136 0.21106 0.83809 0.0
C402 C 0.26513 0.1849 0.98158 0.0
C403 C 0.92493 0.18936 0.95138 0.0
C404 C 0.8594 0.23675 0.0538 0.0
C405 C 0.7477 0.15766 0.01688 0.0
Mg406 Mg 0.89236 0.1529 0.84401 0.0
Mg407 Mg 0.82828 0.17113 0.78344 0.0
O408 O 0.83822 0.15304 0.84154 0.0
Mg409 Mg 0.84133 0.18298 0.90052 0.0
O410 O 0.84588 0.20802 0.96681 0.0
Mg411 Mg 0.83695 0.15502 0.00868 0.0
Mg412 Mg 0.8191 0.24106 0.97903 0.0
C413 C 0.75541 0.16716 0.83823 0.0
O414 O 0.86189 0.24747 0.86411 0.0
O415 O 0.86496 0.10437 0.78808 0.0
O416 O 0.84117 0.28122 0.91398 0.0
O417 O 0.91835 0.19727 0.77266 0.0
O418 O 0.81811 0.11475 0.74956 0.0
O419 O 0.88342 0.2279 0.78126 0.0
O420 O 0.82008 0.12206 0.93852 0.0
O421 O 0.86054 0.10249 0.90222 0.0
C422 C 0.83249 0.09615 0.93338 0.0
C423 C 0.83553 0.09343 0.75834 0.0
O424 O 0.77062 0.16556 0.88001 0.0
O425 O 0.8622 0.22183 0.01358 0.0
O426 O 0.77575 0.1746 0.79888 0.0
O427 O 0.77245 0.1439 0.02357 0.0
O428 O 0.84601 0.26186 0.05111 0.0
O429 O 0.75792 0.192 -0.00424 0.0
O430 O 0.9119 0.19822 0.91175 0.0
O431 O 0.90102 0.17157 0.98765 0.0
C432 C 0.90185 0.21655 0.75288 0.0
C433 C 0.8579 0.27875 0.87419 0.0
C434 C 0.86792 0.60618 0.88445 0.0
C435 C 0.86598 0.61377 0.07047 0.0
C436 C 0.79987 0.6654 0.06337 0.0
Mg437 Mg 0.86827 0.66604 0.81375 0.0
Mg438 Mg 0.87101 0.75609 0.82234 0.0
O439 O 0.84957 0.70219 0.8461 0.0
Mg440 Mg 0.85664 0.68557 0.91318 0.0
O441 O 0.86276 0.66273 0.97464 0.0
Mg442 Mg 0.81084 0.6075 0.97583 0.0
Mg443 Mg 0.87146 0.69456 0.02897 0.0
C444 C 0.83047 0.76144 0.92381 0.0
O445 O 0.92569 0.73847 0.92843 0.0
O446 O 0.85604 0.68581 0.74392 0.0
O447 O 0.9223 0.75005 0.00776 0.0
O448 O 0.93454 0.71901 0.81092 0.0
O449 O 0.8567 0.74555 0.74318 0.0
O450 O 0.93452 0.77707 0.82911 0.0
O451 O 0.78919 0.63035 0.90565 0.0
O452 O 0.80086 0.61953 0.82777 0.0
C453 C 0.77655 0.61167 0.86446 0.0
C454 C 0.85268 0.71352 0.72164 0.0
O455 O 0.83196 0.73009 0.94136 0.0
O456 O 0.8405 0.59231 0.0376 0.0
O457 O 0.84408 0.77603 0.88091 0.0
O458 O 0.78554 0.62934 0.04546 0.0
O459 O 0.88114 0.65264 0.07398 0.0
O460 O 0.81564 0.69461 0.03346 0.0
O461 O 0.88026 0.64452 0.88132 0.0
O462 O 0.84121 0.58465 0.91719 0.0
C463 C 0.95336 0.7573 0.82057 0.0
C464 C 0.94217 0.75789 0.96792 0.0
C465 C 0.25777 0.08893 0.41704 0.0
C466 C 0.27487 0.08115 0.24541 0.0
C467 C 0.32536 0.20623 0.23424 0.0
Mg468 Mg 0.31268 0.15336 0.48474 0.0
Mg469 Mg 0.40417 0.23814 0.47093 0.0
O470 O 0.35021 0.20594 0.44872 0.0
Mg471 Mg 0.33741 0.17742 0.38595 0.0
O472 O 0.3189 0.14488 0.32762 0.0
Mg473 Mg 0.26341 0.14203 0.32066 0.0
Mg474 Mg 0.35476 0.16237 0.27458 0.0
C475 C 0.41398 0.27506 0.36494 0.0
O476 O 0.39258 0.16368 0.38499 0.0
O477 O 0.3293 0.19199 0.54755 0.0
O478 O 0.40864 0.16838 0.30583 0.0
O479 O 0.3652 0.14081 0.49822 0.0
O480 O 0.39126 0.2484 0.54517 0.0
O481 O 0.42509 0.1954 0.47613 0.0
O482 O 0.28149 0.19084 0.38448 0.0
O483 O 0.26523 0.16952 0.46239 0.0
C484 C 0.2596 0.18508 0.42374 0.0
C485 C 0.35719 0.22416 0.56684 0.0
O486 O 0.38312 0.24135 0.35072 0.0
O487 O 0.25193 0.09186 0.26837 0.0
O488 O 0.42683 0.28043 0.40884 0.0
O489 O 0.28817 0.18629 0.2502 0.0
O490 O 0.31403 0.10391 0.24138 0.0
O491 O 0.3529 0.21713 0.2652 0.0
O492 O 0.29569 0.11521 0.42171 0.0
O493 O 0.23764 0.09285 0.38225 0.0
C494 C 0.40393 0.15825 0.49038 0.0
C495 C 0.41591 0.16457 0.34999 0.0
C496 C 0.77772 0.1839 0.38148 0.0
C497 C 0.84753 0.15833 0.23368 0.0
C498 C 0.94943 0.20041 0.3303 0.0
Mg499 Mg 0.81532 0.21758 0.49412 0.0
Mg500 Mg 0.87409 0.18321 0.54396 0.0
O501 O 0.86359 0.20745 0.49102 0.0
Mg502 Mg 0.85567 0.18219 0.42785 0.0
O503 O 0.84647 0.16134 0.35945 0.0
Mg504 Mg 0.86937 0.21779 0.33008 0.0
Mg505 Mg 0.86215 0.12559 0.33204 0.0
C506 C 0.93807 0.18382 0.47609 0.0
O507 O 0.83032 0.1144 0.45445 0.0
O508 O 0.85107 0.26038 0.55446 0.0
O509 O 0.83478 0.07873 0.3911 0.0
O510 O 0.78438 0.16854 0.55992 0.0
O511 O 0.89504 0.24041 0.58239 0.0
O512 O 0.81451 0.13288 0.55223 0.0
O513 O 0.88321 0.24751 0.40002 0.0
O514 O 0.84955 0.27224 0.44041 0.0
C515 C 0.87528 0.27636 0.40728 0.0
C516 C 0.88163 0.26587 0.58034 0.0
O517 O 0.92213 0.19201 0.43937 0.0
O518 O 0.85474 0.18988 0.25744 0.0
O519 O 0.91865 0.17008 0.516 0.0
O520 O 0.93453 0.22447 0.32495 0.0
O521 O 0.84712 0.12709 0.25373 0.0
O522 O 0.9268 0.16181 0.33601 0.0
O523 O 0.78981 0.17533 0.42202 0.0
O524 O 0.80283 0.20209 0.34575 0.0
C525 C 0.79982 0.14853 0.58039 0.0
C526 C 0.82567 0.081 0.43585 0.0
C527 C 0.83349 0.76174 0.42538 0.0
C528 C 0.83695 0.7631 0.24376 0.0
C529 C 0.89789 0.70424 0.24208 0.0
Mg530 Mg 0.84087 0.70895 0.50206 0.0
Mg531 Mg 0.81794 0.60411 0.47381 0.0
O532 O 0.84496 0.66293 0.45897 0.0
Mg533 Mg 0.83952 0.68273 0.39252 0.0
O534 O 0.83611 0.70905 0.33289 0.0
Mg535 Mg 0.89101 0.76134 0.33297 0.0
Mg536 Mg 0.82759 0.67966 0.27641 0.0
C537 C 0.84852 0.60049 0.36655 0.0
O538 O 0.76746 0.63145 0.37242 0.0
O539 O 0.86596 0.66649 0.50271 0.0
O540 O 0.77337 0.62614 0.29165 0.0
O541 O 0.77749 0.65708 0.5264 0.0
O542 O 0.85145 0.61094 0.54123 0.0
O543 O 0.75955 0.59403 0.49879 0.0
O544 O 0.91143 0.73583 0.4005 0.0
O545 O 0.90422 0.75437 0.47597 0.0
C546 C 0.92659 0.7584 0.43885 0.0
C547 C 0.8652 0.64939 0.54306 0.0
O548 O 0.85711 0.63743 0.35693 0.0
O549 O 0.86375 0.78148 0.27631 0.0
O550 O 0.83086 0.58205 0.40641 0.0
O551 O 0.91363 0.74035 0.26008 0.0
O552 O 0.82113 0.7248 0.23525 0.0
O553 O 0.88103 0.67535 0.27203 0.0
O554 O 0.8209 0.72359 0.43163 0.0
O555 O 0.86061 0.78232 0.39254 0.0
C556 C 0.75224 0.61854 0.52346 0.0
C557 C 0.7521 0.61529 0.33049 0.0
C558 C 0.15377 0.70114 0.4478 0.0
C559 C 0.1307 0.71979 0.46025 0.0
H560 H 0.1527 0.64808 0.42016 0.0
C561 C 0.08773 0.6971 0.46141 0.0
H562 H 0.18707 0.71833 0.44664 0.0
C563 C 0.06788 0.65647 0.44678 0.0
C564 C 0.09116 0.63906 0.42992 0.0
H565 H 0.06968 0.71117 0.4718 0.0
H566 H 0.03465 0.63989 0.44516 0.0
C567 C 0.13412 0.661 0.43266 0.0
C568 C 0.37352 0.49283 0.38839 0.0
C569 C 0.38557 0.46832 0.36278 0.0
H570 H 0.33263 0.49468 0.44116 0.0
C571 C 0.36546 0.42596 0.3716 0.0
H572 H 0.38926 0.52574 0.38308 0.0
C573 C 0.33375 0.40836 0.40554 0.0
C574 C 0.32165 0.43283 0.43121 0.0
H575 H 0.37462 0.40651 0.35276 0.0
H576 H 0.31817 0.37545 0.41098 0.0
C577 C 0.34194 0.47523 0.42262 0.0
C578 C 0.60328 0.93251 0.49394 0.0
C579 C 0.58408 0.88969 0.4952 0.0
H580 H 0.59848 0.98408 0.47093 0.0
C581 C 0.54167 0.86607 0.48701 0.0
H582 H 0.63565 0.95133 0.50184 0.0
C583 C 0.52068 0.88467 0.46852 0.0
C584 C 0.54188 0.92685 0.45944 0.0
H585 H 0.52575 0.83294 0.48935 0.0
H586 H 0.48921 0.86571 0.45702 0.0
C587 C 0.58197 0.95117 0.47649 0.0
C588 C 0.69733 0.16171 0.07097 0.0
C589 C 0.70957 0.13755 0.04509 0.0
H590 H 0.65814 0.16354 0.12596 0.0
C591 C 0.69066 0.09538 0.05479 0.0
H592 H 0.71244 0.19455 0.06515 0.0
C593 C 0.65992 0.07758 0.0901 0.0
C594 C 0.648 0.10185 0.11664 0.0
H595 H 0.7003 0.07638 0.03576 0.0
H596 H 0.64528 0.04481 0.09625 0.0
C597 C 0.66708 0.14409 0.10676 0.0
C598 C 0.92352 0.61446 0.1143 0.0
C599 C 0.88205 0.5934 0.10122 0.0
H600 H 0.97476 0.60911 0.13829 0.0
C601 C 0.85825 0.55115 0.11023 0.0
H602 H 0.94239 0.6471 0.10775 0.0
C603 C 0.87662 0.52956 0.12806 0.0
C604 C 0.91904 0.55 0.13613 0.0
H605 H 0.82604 0.53449 0.10081 0.0
H606 H 0.85825 0.4966 0.13224 0.0
C607 C 0.94208 0.59274 0.13118 0.0
C608 C 0.38529 0.32072 0.06882 0.0
C609 C 0.40362 0.29706 0.05796 0.0
H610 H 0.39413 0.38109 0.07569 0.0
C611 C 0.44399 0.31606 0.03944 0.0
H612 H 0.35378 0.30652 0.08178 0.0
C613 C 0.4667 0.3584 0.03491 0.0
C614 C 0.44929 0.38229 0.04871 0.0
H615 H 0.45851 0.29829 0.02983 0.0
H616 H 0.49872 0.37263 0.02386 0.0
C617 C 0.40793 0.36318 0.06382 0.0
C618 C 0.91279 0.37358 0.60747 0.0
C619 C 0.95375 0.39334 0.59064 0.0
H620 H 0.85778 0.31645 0.61978 0.0
C621 C 0.97256 0.37012 0.57972 0.0
H622 H 0.89777 0.39086 0.61717 0.0
C623 C 0.94991 0.32749 0.58287 0.0
C624 C 0.90811 0.30778 0.59621 0.0
H625 H 1.00443 0.3848 0.56803 0.0
H626 H 0.96416 0.31001 0.57096 0.0
C627 C 0.89012 0.33111 0.61008 0.0
C628 C 0.67684 0.54424 0.61466 0.0
C629 C 0.66237 0.56814 0.63694 0.0
H630 H 0.71485 0.54081 0.55933 0.0
C631 C 0.67869 0.60931 0.62262 0.0
H632 H 0.6645 0.51229 0.62447 0.0
C633 C 0.70683 0.62542 0.58438 0.0
C634 C 0.71914 0.60062 0.55989 0.0
H635 H 0.66778 0.62833 0.63904 0.0
H636 H 0.71851 0.65707 0.57357 0.0
C637 C 0.70463 0.56021 0.57615 0.0
C638 C 0.48828 0.13617 0.51969 0.0
C639 C 0.46538 0.09672 0.53949 0.0
H640 H 0.48637 0.18663 0.48695 0.0
C641 C 0.42261 0.07488 0.53507 0.0
H642 H 0.52148 0.15297 0.52221 0.0
C643 C 0.40243 0.09419 0.51595 0.0
C644 C 0.42505 0.13527 0.50059 0.0
H645 H 0.40459 0.04425 0.55019 0.0
H646 H 0.36914 0.07776 0.51608 0.0
C647 C 0.46818 0.15529 0.49977 0.0
C648 C 0.37237 0.899 0.89977 0.0
C649 C 0.38907 0.94021 0.88598 0.0
H650 H 0.32909 0.85001 0.94453 0.0
C651 C 0.37678 0.96498 0.91059 0.0
H652 H 0.38246 0.8796 0.88268 0.0
C653 C 0.34686 0.94833 0.94686 0.0
C654 C 0.32842 0.90649 0.95891 0.0
H655 H 0.39002 0.99719 0.90149 0.0
H656 H 0.33659 0.96778 0.96349 0.0
C657 C 0.34263 0.88238 0.93627 0.0
C658 C 0.12821 0.48722 0.88991 0.0
C659 C 0.08949 0.46418 0.86889 0.0
H660 H 0.17135 0.48871 0.9406 0.0
C661 C 0.06383 0.42343 0.88434 0.0
H662 H 0.14827 0.519 0.87978 0.0
C663 C 0.07682 0.40604 0.91994 0.0
C664 C 0.11564 0.42916 0.94101 0.0
H665 H 0.03345 0.40512 0.86936 0.0
H666 H 0.05682 0.37423 0.93007 0.0
C667 C 0.14096 0.47007 0.92586 0.0
C668 C 0.5836 0.65458 0.94345 0.0
C669 C 0.54109 0.6344 0.93525 0.0
H670 H 0.63719 0.71153 0.9597 0.0
C671 C 0.51863 0.65421 0.94479 0.0
H672 H 0.60151 0.63976 0.93601 0.0
C673 C 0.53889 0.69487 0.9588 0.0
C674 C 0.58192 0.7163 0.96232 0.0
H675 H 0.48581 0.639 0.93872 0.0
H676 H 0.52112 0.7102 0.96358 0.0
C677 C 0.60405 0.69562 0.95636 0.0
C678 C 0.7534 0.98368 0.75667 0.0
C679 C 0.7763 0.9643 0.74595 0.0
H680 H 0.75427 0.04054 0.76599 0.0
C681 C 0.81879 0.98851 0.73663 0.0
H682 H 0.72058 0.96607 0.76339 0.0
C683 C 0.83767 0.03101 0.73672 0.0
C684 C 0.81451 0.05018 0.74602 0.0
H685 H 0.83731 0.97464 0.72763 0.0
H686 H 0.87054 0.04899 0.73034 0.0
C687 C 0.77233 0.02629 0.75635 0.0
C688 C 0.05469 0.84422 0.78323 0.0
C689 C 0.07334 0.82245 0.76603 0.0
H690 H 1.00175 0.84032 0.81731 0.0
C691 C 0.0576 0.78126 0.77948 0.0
H692 H 0.06737 0.87641 0.77446 0.0
C693 C 0.01975 0.76031 0.80304 0.0
C694 C 0.99795 0.78075 0.81371 0.0
H695 H 0.07221 0.76417 0.76729 0.0
H696 H 1.00597 0.72752 0.80853 0.0
C697 C 0.01732 0.82351 0.80785 0.0
C698 C 0.20719 0.20531 0.80565 0.0
C699 C 0.24752 0.2303 0.82215 0.0
H700 H 0.15856 0.20162 0.76202 0.0
C701 C 0.26689 0.27275 0.81436 0.0
H702 H 0.19129 0.17243 0.81125 0.0
C703 C 0.24773 0.28942 0.78668 0.0
C704 C 0.2094 0.2637 0.76566 0.0
H705 H 0.29781 0.2927 0.82699 0.0
H706 H 0.26428 0.322 0.77883 0.0
C707 C 0.1885 0.22185 0.77704 0.0
C708 C 1.00764 0.18992 0.30738 0.0
C709 C 0.99375 0.21645 0.32335 0.0
H710 H 0.05548 0.18492 0.27111 0.0
C711 C 0.02166 0.25853 0.32611 0.0
H712 H 0.98702 0.15717 0.3057 0.0
C713 C 0.06143 0.27428 0.30746 0.0
C714 C 0.07308 0.24814 0.28464 0.0
H715 H 0.01197 0.27946 0.33951 0.0
H716 H 0.08129 0.30721 0.30627 0.0
C717 C 0.04694 0.20571 0.28771 0.0
C718 C 0.74918 0.77998 0.22094 0.0
C719 C 0.76815 0.82247 0.22673 0.0
H720 H 0.75719 0.72781 0.21786 0.0
C721 C 0.81064 0.8456 0.23342 0.0
H722 H 0.71661 0.76186 0.21368 0.0
C723 C 0.83409 0.82652 0.23366 0.0
C724 C 0.8152 0.78395 0.22806 0.0
H725 H 0.82584 0.87865 0.23637 0.0
H726 H 0.86681 0.84486 0.23989 0.0
C727 C 0.77265 0.76083 0.2211 0.0
C728 C 0.21408 0.01448 0.22763 0.0
C729 C 0.25638 0.03735 0.23588 0.0
H730 H 0.16115 0.95512 0.22431 0.0
C731 C 0.27824 0.01699 0.24731 0.0
H732 H 0.19647 0.02952 0.21963 0.0
C733 C 0.25777 0.97433 0.25157 0.0
C734 C 0.21531 0.95166 0.24402 0.0
H735 H 0.31075 0.03407 0.25519 0.0
H736 H 0.27523 0.95914 0.25948 0.0
C737 C 0.19379 0.97209 0.23161 0.0
C738 C 0.99391 0.54695 0.97759 0.0
C739 C 0.03256 0.55879 0.95616 0.0
H740 H 0.94754 0.50678 0.02869 0.0
C741 C 0.05815 0.5464 0.97818 0.0
H742 H 0.97365 0.55632 0.96117 0.0
C743 C 0.04239 0.51637 0.01428 0.0
C744 C 1.00156 0.49994 0.03108 0.0
H745 H 0.08791 0.55471 0.96239 0.0
H746 H 0.06185 0.50488 0.02798 0.0
C747 C 0.97815 0.51708 0.01436 0.0
C748 C 0.50027 0.47466 0.95616 0.0
C749 C 0.47151 0.48748 0.94441 0.0
H750 H 0.55219 0.48437 -0.00168 0.0
C751 C 0.47066 0.51759 0.97322 0.0
H752 H 0.50148 0.45081 0.93563 0.0
C753 C 0.50048 0.53732 0.00885 0.0
C754 C 0.53066 0.52597 0.01886 0.0
H755 H 0.44931 0.5284 0.96565 0.0
H756 H 0.4996 0.5615 0.02901 0.0
C757 C 0.53028 0.49458 -0.00855 0.0
C758 C 0.47245 0.00974 0.01028 0.0
C759 C 0.50268 0.04481 0.0336 0.0
H760 H 0.45957 0.96504 0.95552 0.0
C761 C 0.54343 0.06345 0.01654 0.0
H762 H 0.44106 0.99407 0.02389 0.0
C763 C 0.55455 0.04487 0.98075 0.0
C764 C 0.52469 0.00897 0.95862 0.0
H765 H 0.56765 0.08957 0.03499 0.0
H766 H 0.58631 0.05972 0.96845 0.0
C767 C 0.48347 0.99162 0.97353 0.0
C768 C 0.53672 0.0575 0.50074 0.0
C769 C 0.53613 0.0287 0.53378 0.0
H770 H 0.50969 0.06863 0.43888 0.0
C771 C 0.50607 0.98693 0.5272 0.0
H772 H 0.55856 0.08978 0.50467 0.0
C773 C 0.47687 0.97466 0.49021 0.0
C774 C 0.4783 1.00331 0.45632 0.0
H775 H 0.50431 0.96344 0.55161 0.0
H776 H 0.45519 0.94235 0.48612 0.0
C777 C 0.50768 0.04519 0.46359 0.0
C778 C 0.97602 0.47874 0.46395 0.0
C779 C 0.01746 0.49511 0.44828 0.0
H780 H 0.93331 0.48227 0.51367 0.0
C781 C 0.04791 0.52747 0.47477 0.0
H782 H 0.95149 0.45344 0.44488 0.0
C783 C 0.03712 0.54521 0.51253 0.0
C784 C 0.99567 0.52963 0.52753 0.0
H785 H 0.07997 0.54109 0.46425 0.0
H786 H 0.06173 0.57127 0.53052 0.0
C787 C 0.96528 0.49577 0.50285 0.0
C788 C 0.49866 0.51583 0.46921 0.0
C789 C 0.53796 0.53734 0.44793 0.0
H790 H 0.46031 0.47268 0.52333 0.0
C791 C 0.56923 0.53056 0.46545 0.0
H792 H 0.47329 0.51843 0.45444 0.0
C793 C 0.56139 0.50318 0.50385 0.0
C794 C 0.52221 0.48231 0.52561 0.0
H795 H 0.59909 0.54483 0.44764 0.0
H796 H 0.58681 0.50103 0.51922 0.0
C797 C 0.49046 0.48737 0.50616 0.0
C798 C 0.64289 0.86531 0.267 0.0
C799 C 0.68404 0.89062 0.2508 0.0
H800 H 0.6019 0.82307 0.32111 0.0
C801 C 0.71541 0.89028 0.27767 0.0
H802 H 0.61773 0.86483 0.24742 0.0
C803 C 0.70586 0.86405 0.31782 0.0
C804 C 0.66485 0.83925 0.33447 0.0
H805 H 0.74728 0.90891 0.26659 0.0
H806 H 0.73106 0.8651 0.338 0.0
C807 C 0.63344 0.84001 0.30821 0.0
C808 C 0.11485 0.82637 0.28968 0.0
C809 C 0.11476 0.79452 0.26363 0.0
H810 H 0.14306 0.87024 0.34535 0.0
C811 C 0.13723 0.77636 0.28191 0.0
H812 H 0.09752 0.84066 0.27739 0.0
C813 C 0.16501 0.79449 0.31965 0.0
C814 C 0.16944 0.83003 0.34114 0.0
H815 H 0.13679 0.75082 0.26338 0.0
H816 H 0.18419 0.78181 0.33036 0.0
C817 C 0.14181 0.84382 0.32819 0.0
C818 C 0.24726 0.37417 0.26407 0.0
C819 C 0.2291 0.33149 0.25548 0.0
H820 H 0.24819 0.42151 0.30847 0.0
C821 C 0.20582 0.30447 0.29292 0.0
H822 H 0.26668 0.39624 0.23676 0.0
C823 C 0.19503 0.31913 0.33366 0.0
C824 C 0.20778 0.36128 0.33858 0.0
H825 H 0.1921 0.27168 0.28854 0.0
H826 H 0.17459 0.29669 0.36007 0.0
C827 C 0.23624 0.38889 0.30485 0.0
C828 C 0.15843 0.31415 0.82281 0.0
C829 C 0.18156 0.35556 0.83665 0.0
H830 H 0.11547 0.27038 0.77393 0.0
C831 C 0.18042 0.38549 0.8073 0.0
H832 H 0.15775 0.29013 0.84545 0.0
C833 C 0.15649 0.37406 0.76538 0.0
C834 C 0.13295 0.33241 0.75203 0.0
H835 H 0.19594 0.41726 0.81817 0.0
H836 H 0.15694 0.39798 0.74285 0.0
C837 C 0.13295 0.30259 0.78265 0.0
C838 C 0.69901 0.84605 0.83035 0.0
C839 C 0.65655 0.82983 0.84041 0.0
H840 H 0.74521 0.84558 0.78472 0.0
C841 C 0.62858 0.79409 0.81664 0.0
H842 H 0.72197 0.87283 0.84899 0.0
C843 C 0.64243 0.77781 0.78017 0.0
C844 C 0.68442 0.79751 0.76579 0.0
H845 H 0.596 0.77971 0.82472 0.0
H846 H 0.61967 0.75215 0.75972 0.0
C847 C 0.71277 0.82986 0.79397 0.0
C848 C 0.21993 0.85183 0.80775 0.0
C849 C 0.19151 0.85303 0.8399 0.0
H850 H 0.25236 0.87262 0.74013 0.0
C851 C 0.17393 0.87749 0.82735 0.0
H852 H 0.23558 0.83513 0.8173 0.0
C853 C 0.18518 0.90097 0.78468 0.0
C854 C 0.21294 0.89922 0.75181 0.0
H855 H 0.15272 0.88004 0.85207 0.0
H856 H 0.17076 0.91911 0.77659 0.0
C857 C 0.23054 0.87463 0.76432 0.0
C858 C 0.37529 0.20095 0.63803 0.0
C859 C 0.35403 0.21965 0.61888 0.0
H860 H 0.37503 0.15822 0.68956 0.0
C861 C 0.31602 0.21054 0.63958 0.0
H862 H 0.40387 0.20617 0.62152 0.0
C863 C 0.29842 0.1813 0.67658 0.0
C864 C 0.31921 0.16179 0.69478 0.0
H865 H 0.29832 0.2234 0.62412 0.0
H866 H 0.27005 0.17627 0.6935 0.0
C867 C 0.3574 0.17126 0.67436 0.0
C868 C 0.85226 0.15169 0.64062 0.0
C869 C 0.8243 0.16489 0.62622 0.0
H870 H 0.90018 0.1587 0.68882 0.0
C871 C 0.82419 0.19653 0.65271 0.0
H872 H 0.85331 0.12709 0.62167 0.0
C873 C 0.85204 0.21532 0.69063 0.0
C874 C 0.87991 0.20206 0.70519 0.0
H875 H 0.80364 0.20786 0.64309 0.0
H876 H 0.85074 0.23971 0.7098 0.0
C877 C 0.88002 0.17039 0.67874 0.0
C878 C 0.81761 0.66826 0.65423 0.0
C879 C 0.84862 0.70713 0.66898 0.0
H880 H 0.80027 0.61797 0.60606 0.0
C881 C 0.884 0.72815 0.63959 0.0
H882 H 0.7904 0.65093 0.67669 0.0
C883 C 0.8894 0.70929 0.59855 0.0
C884 C 0.86026 0.66861 0.58732 0.0
H885 H 0.90909 0.75744 0.65079 0.0
H886 H 0.91723 0.72574 0.57689 0.0
C887 C 0.82385 0.64877 0.61479 0.0
C888 C 0.81898 0.64428 0.14333 0.0
C889 C 0.82207 0.67504 0.11159 0.0
H890 H 0.84203 0.62888 0.20591 0.0
C891 C 0.8518 0.71612 0.12276 0.0
H892 H 0.79716 0.61244 0.13641 0.0
C893 C 0.87835 0.72584 0.1626 0.0
C894 C 0.87554 0.69502 0.19403 0.0
H895 H 0.85547 0.74116 0.09972 0.0
H896 H 0.90011 0.75767 0.16966 0.0
C897 C 0.84564 0.65398 0.183 0.0
C898 C 0.3913 0.19339 0.13778 0.0
C899 C 0.36285 0.15686 0.11564 0.0
H900 H 0.40113 0.23873 0.19071 0.0
C901 C 0.32148 0.13772 0.13205 0.0
H902 H 0.42314 0.20939 0.12595 0.0
C903 C 0.30818 0.15598 0.16632 0.0
C904 C 0.33645 0.19229 0.18879 0.0
H905 H 0.29867 0.10909 0.11665 0.0
H906 H 0.27606 0.14035 0.17702 0.0
C907 C 0.37826 0.21078 0.1739 0.0
C908 C 0.81695 0.19243 0.12349 0.0
C909 C 0.85467 0.21266 0.09839 0.0
H910 H 0.78379 0.15528 0.18509 0.0
C911 C 0.88657 0.20565 0.11279 0.0
H912 H 0.79136 0.19608 0.11206 0.0
C913 C 0.88204 0.18175 0.15411 0.0
C914 C 0.84506 0.16338 0.18106 0.0
H915 H 0.91567 0.22017 0.09325 0.0
H916 H 0.9086 0.18057 0.16734 0.0
C917 C 0.81216 0.1679 0.16423 0.0
C918 C 0.10645 0.45534 0.22832 0.0
C919 C 0.11438 0.49015 0.20138 0.0
H920 H 0.11318 0.40219 0.23253 0.0
C921 C 0.13797 0.49896 0.15792 0.0
H922 H 0.08795 0.44713 0.26117 0.0
C923 C 0.15074 0.47226 0.1402 0.0
C924 C 0.14159 0.43696 0.16646 0.0
H925 H 0.14481 0.52566 0.136 0.0
H926 H 0.16799 0.47939 0.10645 0.0
C927 C 0.1202 0.42923 0.21119 0.0
C928 C 0.53849 0.70539 0.1517 0.0
C929 C 0.57128 0.71839 0.1183 0.0
H930 H 0.49982 0.6603 0.20425 0.0
C931 C 0.58463 0.69073 0.10547 0.0
H932 H 0.52782 0.72618 0.16268 0.0
C933 C 0.56884 0.65288 0.12998 0.0
C934 C 0.53955 0.64226 0.16765 0.0
H935 H 0.61039 0.70016 0.08067 0.0
H936 H 0.58215 0.63371 0.1223 0.0
C937 C 0.52308 0.66799 0.17635 0.0
C938 C 0.33984 0.91696 0.15127 0.0
C939 C 0.31132 0.87733 0.16755 0.0
H940 H 0.40052 0.96857 0.15756 0.0
C941 C 0.32325 0.86038 0.20601 0.0
H942 H 0.33181 0.93162 0.12283 0.0
C943 C 0.36257 0.88198 0.22674 0.0
C944 C 0.39098 0.92145 0.21013 0.0
H945 H 0.30205 0.83012 0.22022 0.0
H946 H 0.37121 0.86725 0.25445 0.0
C947 C 0.37893 0.93857 0.1722 0.0
C948 C 0.50689 0.1582 0.31371 0.0
C949 C 0.49111 0.11582 0.319 0.0
H950 H 0.49555 0.2082 0.32263 0.0
C951 C 0.45623 0.09331 0.34886 0.0
H952 H 0.53394 0.17651 0.2914 0.0
C953 C 0.43491 0.11194 0.36814 0.0
C954 C 0.4477 0.15302 0.35688 0.0
H955 H 0.44258 0.06054 0.35282 0.0
H956 H 0.40546 0.09283 0.38587 0.0
C957 C 0.48538 0.17662 0.33248 0.0
C958 C 0.88919 0.34767 0.38425 0.0
C959 C 0.89236 0.3127 0.37341 0.0
H960 H 0.9021 0.4079 0.3614 0.0
C961 C 0.91199 0.31287 0.32956 0.0
H962 H 0.87492 0.34912 0.41787 0.0
C963 C 0.92605 0.34578 0.29662 0.0
C964 C 0.92256 0.38035 0.30732 0.0
H965 H 0.9165 0.28757 0.32017 0.0
H966 H 0.9404 0.3445 0.26296 0.0
C967 C 0.90474 0.38138 0.35194 0.0
C968 C 0.68966 0.60594 0.28888 0.0
C969 C 0.70749 0.58928 0.32028 0.0
H970 H 0.64073 0.59502 0.24007 0.0
C971 C 0.68826 0.54653 0.3244 0.0
H972 H 0.70475 0.63878 0.28289 0.0
C973 C 0.65211 0.52138 0.29862 0.0
C974 C 0.63456 0.53804 0.26675 0.0
H975 H 0.70206 0.53247 0.34599 0.0
H976 H 0.63743 0.48853 0.30399 0.0
C977 C 0.65388 0.58084 0.26257 0.0
C978 C 0.91585 0.60864 0.81545 0.0
C979 C 0.88155 0.58586 0.84668 0.0
H980 H 0.95925 0.60757 0.76417 0.0
C981 C 0.86096 0.54296 0.84222 0.0
H982 H 0.93273 0.64173 0.81736 0.0
C983 C 0.87537 0.52355 0.81033 0.0
C984 C 0.91126 0.54592 0.78152 0.0
H985 H 0.83435 0.52402 0.86485 0.0
H986 H 0.86013 0.49039 0.8112 0.0
C987 C 0.93067 0.58902 0.7838 0.0
C988 C 0.50312 0.36136 0.82416 0.0
C989 C 0.482 0.38244 0.81234 0.0
H990 H 0.50268 0.31169 0.86398 0.0
C991 C 0.44231 0.36762 0.83226 0.0
H992 H 0.53377 0.37198 0.80977 0.0
C993 C 0.42392 0.33225 0.86207 0.0
C994 C 0.44524 0.31147 0.87448 0.0
H995 H 0.42504 0.38294 0.82392 0.0
H996 H 0.39312 0.32147 0.87607 0.0
C997 C 0.48531 0.32685 0.85543 0.0
C998 C 0.6458 0.09308 0.80809 0.0
C999 C 0.63582 0.11704 0.77747 0.0
H1000 H 0.69046 0.09074 0.85461 0.0
C1001 C 0.66348 0.15927 0.7745 0.0
H1002 H 0.62411 0.06076 0.81334 0.0
C1003 C 0.70094 0.17664 0.79942 0.0
C1004 C 0.71125 0.15262 0.82953 0.0
H1005 H 0.65587 0.17896 0.75348 0.0
H1006 H 0.72279 0.20884 0.79369 0.0
C1007 C 0.68293 0.11056 0.83367 0.0
C1008 C 0.54481 0.85733 0.66951 0.0
C1009 C 0.57931 0.87786 0.63865 0.0
H1010 H 0.50093 0.8613 0.71581 0.0
C1011 C 0.592 0.91874 0.62543 0.0
H1012 H 0.53466 0.82616 0.68123 0.0
C1013 C 0.57273 0.9394 0.64595 0.0
C1014 C 0.54061 0.91964 0.68043 0.0
H1015 H 0.61926 0.93592 0.60307 0.0
H1016 H 0.58523 0.97164 0.63785 0.0
C1017 C 0.52583 0.87781 0.69001 0.0
C1018 C 0.15545 0.67349 0.67556 0.0
C1019 C 0.11332 0.64631 0.66932 0.0
H1020 H 0.20684 0.73275 0.65998 0.0
C1021 C 0.09249 0.65652 0.63427 0.0
H1022 H 0.17277 0.66655 0.70146 0.0
C1023 C 0.11236 0.69463 0.60974 0.0
C1024 C 0.15349 0.72335 0.61978 0.0
H1025 H 0.06 0.63658 0.62855 0.0
H1026 H 0.09438 0.70315 0.58684 0.0
C1027 C 0.17523 0.71127 0.65101 0.0
C1028 C 0.38828 0.49178 0.63498 0.0
C1029 C 0.3967 0.4895 0.68482 0.0
H1030 H 0.34318 0.47209 0.57829 0.0
C1031 C 0.36359 0.46496 0.71556 0.0
H1032 H 0.41288 0.51009 0.60952 0.0
C1033 C 0.3236 0.44359 0.69727 0.0
C1034 C 0.31521 0.44561 0.64747 0.0
H1035 H 0.36854 0.46176 0.75358 0.0
H1036 H 0.29906 0.42462 0.72251 0.0
C1037 C 0.34825 0.46979 0.61649 0.0
C1038 C 0.76945 0.78058 0.52033 0.0
C1039 C 0.78222 0.82217 0.51207 0.0
H1040 H 0.77522 0.72868 0.49934 0.0
C1041 C 0.815 0.84434 0.47917 0.0
H1042 H 0.74374 0.76233 0.5445 0.0
C1043 C 0.83275 0.82515 0.45294 0.0
C1044 C 0.81825 0.78298 0.45851 0.0
H1045 H 0.82538 0.87633 0.47148 0.0
H1046 H 0.85664 0.84316 0.42657 0.0
C1047 C 0.78723 0.7612 0.49381 0.0
C1048 C 0.25903 0.04318 0.48463 0.0
C1049 C 0.23661 0.05432 0.45303 0.0
H1050 H 0.25767 0.99691 0.53237 0.0
C1051 C 0.19355 0.03 0.45364 0.0
H1052 H 0.29223 0.06118 0.48541 0.0
C1053 C 0.1738 0.9939 0.48157 0.0
C1054 C 0.19636 0.98066 0.50966 0.0
H1055 H 0.17507 0.03765 0.43049 0.0
H1056 H 0.14093 0.97426 0.47775 0.0
C1057 C 0.23915 1.00664 0.51244 0.0
C1058 C 0.99936 0.18656 0.51411 0.0
C1059 C 0.98291 0.20283 0.48046 0.0
H1060 H 0.05192 0.19699 0.55586 0.0
C1061 C 1.00772 0.24293 0.46306 0.0
H1062 H 0.98052 0.15591 0.52881 0.0
C1063 C 0.04752 0.26668 0.48022 0.0
C1064 C 0.06346 0.25081 0.51481 0.0
H1065 H 0.99563 0.25681 0.43843 0.0
H1066 H 0.06623 0.29756 0.46604 0.0
C1067 C 0.0395 0.21032 0.53092 0.0
C1068 C 0.10398 0.44942 0.6691 0.0
C1069 C 0.11734 0.4911 0.6601 0.0
H1070 H 0.10938 0.39695 0.65022 0.0
C1071 C 0.15091 0.51247 0.62776 0.0
H1072 H 0.07766 0.43154 0.69261 0.0
C1073 C 0.16881 0.49258 0.60305 0.0
C1074 C 0.15426 0.45054 0.61001 0.0
H1075 H 0.16206 0.54448 0.61937 0.0
H1076 H 0.19354 0.5101 0.57739 0.0
C1077 C 0.12221 0.42947 0.64442 0.0
C1078 C 0.54181 0.68711 0.63215 0.0
C1079 C 0.58407 0.707 0.62055 0.0
H1080 H 0.49225 0.64095 0.67581 0.0
C1081 C 0.60861 0.69383 0.6444 0.0
H1082 H 0.52217 0.69689 0.61501 0.0
C1083 C 0.5914 0.66128 0.67818 0.0
C1084 C 0.54937 0.64194 0.69078 0.0
H1085 H 0.6413 0.70871 0.63672 0.0
H1086 H 0.61127 0.65175 0.69529 0.0
C1087 C 0.52478 0.65537 0.66737 0.0
C1088 C 0.35176 0.93402 0.67401 0.0
C1089 C 0.37673 0.91586 0.67363 0.0
H1090 H 0.30118 0.93644 0.64171 0.0
C1091 C 0.36405 0.88033 0.6458 0.0
H1092 H 0.36145 0.96236 0.69319 0.0
C1093 C 0.32975 0.86575 0.61566 0.0
C1094 C 0.30678 0.88592 0.61306 0.0
H1095 H 0.38324 0.86632 0.64351 0.0
H1096 H 0.32218 0.83963 0.59292 0.0
C1097 C 0.3174 0.91941 0.64379 0.0
C1098 C 0.57268 0.91994 0.11088 0.0
C1099 C 0.57433 0.88399 0.1191 0.0
H1100 H 0.56047 0.96519 0.13957 0.0
C1101 C 0.56148 0.86472 0.165 0.0
H1102 H 0.58322 0.93614 0.07653 0.0
C1103 C 0.54662 0.88068 0.20129 0.0
C1104 C 0.54572 0.91731 0.19342 0.0
H1105 H 0.56304 0.83727 0.17288 0.0
H1106 H 0.53699 0.86497 0.23598 0.0
C1107 C 0.55944 0.93667 0.14758 0.0
C1108 C 0.164 0.71101 0.15937 0.0
C1109 C 0.14558 0.71194 0.11544 0.0
H1110 H 0.16096 0.67726 0.22387 0.0
C1111 C 0.10785 0.67736 0.10379 0.0
H1112 H 0.19267 0.73736 0.16996 0.0
C1113 C 0.08891 0.64305 0.13547 0.0
C1114 C 0.10744 0.64199 0.1795 0.0
H1115 H 0.09223 0.67743 0.07096 0.0
H1116 H 0.05946 0.61747 0.1256 0.0
C1117 C 0.14561 0.67646 0.19047 0.0
C1118 C 0.32281 0.48652 0.11552 0.0
C1119 C 0.30009 0.44356 0.11659 0.0
H1120 H 0.37843 0.54033 0.13558 0.0
C1121 C 0.31408 0.4223 0.14596 0.0
H1122 H 0.31281 0.50388 0.09362 0.0
C1123 C 0.35097 0.44328 0.1715 0.0
C1124 C 0.37534 0.48604 0.16731 0.0
H1125 H 0.29832 0.38926 0.14629 0.0
H1126 H 0.36263 0.42564 0.18985 0.0
C1127 C 0.35987 0.50748 0.14069 0.0
C1128 C 0.19779 0.21838 0.04979 0.0
C1129 C 0.19543 0.24549 0.01674 0.0
H1130 H 0.2199 0.17676 0.06387 0.0
C1131 C 0.21475 0.25138 0.97098 0.0
H1132 H 0.18329 0.21327 0.0852 0.0
C1133 C 0.23662 0.23126 0.95892 0.0
C1134 C 0.23864 0.20359 -0.00842 0.0
H1135 H 0.21396 0.27258 0.94482 0.0
H1136 H 0.25259 0.23805 0.92445 0.0
C1137 C 0.21857 0.19724 0.03713 0.0
C1138 C 0.76005 1.00721 0.01624 0.0
C1139 C 0.77499 0.97988 0.00937 0.0
H1140 H 0.76638 0.06565 -0.00259 0.0
C1141 C 0.81197 0.99355 0.9834 0.0
H1142 H 0.73104 0.99712 0.03499 0.0
C1143 C 0.83196 0.03238 0.9616 0.0
C1144 C 0.81533 0.05859 0.9647 0.0
H1145 H 0.82385 0.97293 0.97686 0.0
H1146 H 0.85923 0.04078 0.93986 0.0
C1147 C 0.78006 0.04628 -0.00592 0.0
C1148 C 0.04043 0.78391 0.02895 0.0
C1149 C 0.06605 0.82481 0.01509 0.0
H1150 H 0.98198 0.73007 0.02141 0.0
C1151 C 0.05202 0.8424 0.97989 0.0
H1152 H 0.05064 0.76907 0.05471 0.0
C1153 C 0.01246 0.81991 0.9605 0.0
C1154 C 0.98687 0.7792 0.9751 0.0
H1155 H 0.07155 0.87376 0.96778 0.0
H1156 H 1.00141 0.83466 0.93575 0.0
C1157 C 1.00158 0.76132 0.0088 0.0
C1158 C 0.44657 0.09671 0.83118 0.0
C1159 C 0.47649 0.11879 0.79468 0.0
H1160 H 0.40545 0.09747 0.88613 0.0
C1161 C 0.49118 0.16117 0.79127 0.0
H1162 H 0.43428 0.06401 0.83526 0.0
C1163 C 0.4753 0.18036 0.82118 0.0
C1164 C 0.44387 0.1582 0.8559 0.0
H1165 H 0.51426 0.17958 0.76427 0.0
H1166 H 0.48618 0.21266 0.81514 0.0
C1167 C 0.43038 0.11605 0.86117 0.0
C1168 C 0.92715 0.3869 0.82602 0.0
C1169 C 0.91127 0.38621 0.77968 0.0
H1170 H 0.92232 0.35399 0.89194 0.0
C1171 C 0.87775 0.34899 0.76417 0.0
H1172 H 0.95298 0.4145 0.8394 0.0
C1173 C 0.86086 0.31364 0.79412 0.0
C1174 C 0.87632 0.31502 0.84081 0.0
H1175 H 0.865 0.347 0.72855 0.0
H1176 H 0.8353 0.28543 0.78112 0.0
C1177 C 0.90957 0.35206 0.85631 0.0
C1178 C 0.71884 0.59813 0.80906 0.0
C1179 C 0.7322 0.5889 0.8527 0.0
H1180 H 0.66799 0.58618 0.76344 0.0
C1181 C 0.70347 0.55687 0.88201 0.0
H1182 H 0.74044 0.62282 0.78564 0.0
C1183 C 0.66209 0.53506 0.86843 0.0
C1184 C 0.64831 0.54525 0.82566 0.0
H1185 H 0.71298 0.54859 0.91517 0.0
H1186 H 0.64048 0.51103 0.89252 0.0
C1187 C 0.67742 0.57672 0.79578 0.0
C1188 C 0.81255 0.84342 0.98294 0.0
C1189 C 0.77272 0.82033 0.00297 0.0
H1190 H 0.8614 0.84316 0.94154 0.0
C1191 C 0.75266 0.77738 -0.00187 0.0
H1192 H 0.82901 0.87646 0.98604 0.0
C1193 C 0.772 0.75812 0.97446 0.0
C1194 C 0.81136 0.78135 0.95322 0.0
H1195 H 0.72216 0.75854 0.01346 0.0
H1196 H 0.75565 0.72507 0.97154 0.0
C1197 C 0.83118 0.82429 0.95756 0.0
C1198 C 0.2497 0.05182 0.02888 0.0
C1199 C 0.24595 0.04751 0.97816 0.0
H1200 H 0.2363 0.02168 0.0988 0.0
C1201 C 0.22226 1.00794 0.95962 0.0
H1202 H 0.26603 0.08192 0.04444 0.0
C1203 C 0.20448 0.97363 0.99067 0.0
C1204 C 0.20979 0.97775 0.04119 0.0
H1205 H 0.2181 1.00336 0.92092 0.0
H1206 H 0.18655 0.9439 0.97469 0.0
C1207 C 0.23197 0.01738 0.06007 0.0
C1208 C 0.99628 0.24887 0.96304 0.0
C1209 C 0.96917 0.20641 0.964 0.0
H1210 H 0.04989 0.29949 -0.00693 0.0
C1211 C 0.97956 0.18207 -0.00649 0.0
H1212 H 0.98876 0.26879 0.94234 0.0
C1213 C 0.01407 0.19965 0.02368 0.0
C1214 C 0.03973 0.24232 0.02527 0.0
H1215 H 0.95887 0.14932 -0.00373 0.0
H1216 H 0.01963 0.17979 0.04719 0.0
C1217 C 0.03103 0.26652 -0.00683 0.0
C1218 C 0.18854 0.20727 0.49434 0.0
C1219 C 0.21215 0.24996 0.49921 0.0
H1220 H 0.18367 0.15323 0.46277 0.0
C1221 C 0.24618 0.27156 0.46759 0.0
H1222 H 0.16163 0.18959 0.51707 0.0
C1223 C 0.25868 0.25048 0.43574 0.0
C1224 C 0.23702 0.2074 0.43425 0.0
H1225 H 0.26479 0.30456 0.46974 0.0
H1226 H 0.28753 0.26762 0.4161 0.0
C1227 C 0.20058 0.18642 0.46209 0.0
C1228 C 0.81694 0.04661 0.51788 0.0
C1229 C 0.80977 0.04366 0.46755 0.0
H1230 H 0.80768 0.01449 0.58589 0.0
C1231 C 0.78788 1.00446 0.4475 0.0
H1232 H 0.83453 0.07627 0.53449 0.0
C1233 C 0.77266 0.96926 0.47689 0.0
C1234 C 0.77916 0.97202 0.52725 0.0
H1235 H 0.78203 1.00091 0.40897 0.0
H1236 H 0.75644 0.93995 0.45956 0.0
C1237 C 0.80207 0.01121 0.54729 0.0
C1238 C 0.01951 0.83834 0.50365 0.0
C1239 C 0.04594 0.82187 0.50319 0.0
H1240 H 0.96255 0.83277 0.48062 0.0
C1241 C 0.03618 0.78873 0.47175 0.0
H1242 H 0.02593 0.86404 0.52661 0.0
C1243 C 0.99933 0.77052 0.44495 0.0
C1244 C 0.97159 0.78545 0.4482 0.0
H1245 H 0.05583 0.77523 0.47001 0.0
H1246 H 0.99104 0.74282 0.42502 0.0
C1247 C 0.98333 0.82072 0.47639 0.0
C1248 C 0.84466 0.53626 0.33565 0.0
C1249 C 0.86243 0.57906 0.33269 0.0
H1250 H 0.8522 0.48448 0.32151 0.0
C1251 C 0.89698 0.60109 0.30216 0.0
H1252 H 0.81781 0.51825 0.35837 0.0
C1253 C 0.91576 0.58127 0.27936 0.0
C1254 C 0.90098 0.53937 0.28788 0.0
H1255 H 0.91221 0.6341 0.29991 0.0
H1256 H 0.94498 0.59974 0.26087 0.0
C1257 C 0.86379 0.51665 0.31357 0.0
C1258 C 0.4638 0.34074 0.25161 0.0
C1259 C 0.47103 0.37937 0.26704 0.0
H1260 H 0.43907 0.27689 0.27008 0.0
C1261 C 0.45893 0.38255 0.31453 0.0
H1262 H 0.47209 0.33692 0.21512 0.0
C1263 C 0.44131 0.34884 0.34603 0.0
C1264 C 0.43368 0.31033 0.33064 0.0
H1265 H 0.46292 0.41104 0.32799 0.0
H1266 H 0.43271 0.35275 0.38235 0.0
C1267 C 0.44467 0.30636 0.2829 0.0
C1268 C 0.67985 0.1429 0.30572 0.0
C1269 C 0.65078 0.11184 0.33591 0.0
H1270 H 0.74223 0.19123 0.29724 0.0
C1271 C 0.66356 0.10601 0.38202 0.0
H1272 H 0.6711 0.14851 0.27041 0.0
C1273 C 0.7039 0.13043 0.39781 0.0
C1274 C 0.73319 0.1617 0.36803 0.0
H1275 H 0.6421 0.08201 0.4063 0.0
H1276 H 0.71228 0.12405 0.43295 0.0
C1277 C 0.7205 0.16768 0.32171 0.0
loop_
_geom_bond_atom_site_label_1
_geom_bond_atom_site_label_2
_geom_bond_distance
_geom_bond_site_symmetry_2
_ccdc_geom_bond_type
C0 O27 1.312 . S
C0 O28 1.208 . S
C1 O22 1.331 1_655 S
C1 O25 1.244 . S
C2 O24 1.264 . S
C2 O26 1.273 . S
Mg3 O5 1.936 . S
Mg3 O12 2.081 . S
Mg3 O14 2.023 . S
Mg3 O18 2.031 . S
Mg3 O27 2.291 . S
Mg4 O5 1.963 1_655 S
Mg4 O15 1.942 1_655 S
Mg4 O16 1.955 1_655 S
Mg4 O23 1.986 . S
O5 Mg3 1.936 . S
O5 Mg4 1.963 1_455 S
O5 Mg6 1.915 . S
Mg6 O5 1.915 . S
Mg6 O7 1.915 1_455 S
Mg6 O11 2.013 1_455 S
Mg6 O17 2.114 . S
Mg6 O21 2.013 1_455 S
Mg6 O27 2.114 . S
O7 Mg6 1.915 1_655 S
O7 Mg8 1.936 1_655 S
O7 Mg9 1.963 . S
Mg8 O7 1.936 1_455 S
Mg8 O17 2.291 . S
Mg8 O22 2.081 . S
Mg8 O24 2.023 1_455 S
Mg8 O28 2.031 . S
Mg9 O7 1.963 . S
Mg9 O13 1.986 . S
Mg9 O25 1.942 . S
Mg9 O26 1.955 . S
C10 O21 1.191 . S
C10 O23 1.307 . S
O11 Mg6 2.013 1_655 S
O11 C30 1.191 . S
O12 Mg3 2.081 . S
O12 C20 1.331 . S
O13 Mg9 1.986 . S
O13 C30 1.307 . S
O14 Mg3 2.023 . S
O14 C29 1.264 . S
O15 Mg4 1.942 1_455 S
O15 C20 1.244 . S
O16 Mg4 1.955 1_455 S
O16 C29 1.273 . S
O17 Mg6 2.114 . S
O17 Mg8 2.291 . S
O17 C19 1.312 . S
O18 Mg3 2.031 . S
O18 C19 1.208 . S
C19 O17 1.312 . S
C19 O18 1.208 . S
C20 O12 1.331 . S
C20 O15 1.244 . S
O21 Mg6 2.013 1_655 S
O21 C10 1.191 . S
O22 C1 1.331 1_455 S
O22 Mg8 2.081 . S
O23 Mg4 1.986 . S
O23 C10 1.307 . S
O24 C2 1.264 . S
O24 Mg8 2.023 1_655 S
O25 C1 1.244 . S
O25 Mg9 1.942 . S
O26 C2 1.273 . S
O26 Mg9 1.955 . S
O27 C0 1.312 . S
O27 Mg3 2.291 . S
O27 Mg6 2.114 . S
O28 C0 1.208 . S
O28 Mg8 2.031 . S
C29 O14 1.264 . S
C29 O16 1.273 . S
C30 O11 1.191 . S
C30 O13 1.307 . S
C31 O58 1.312 . S
C31 O59 1.208 . S
C32 O53 1.331 . S
C32 O56 1.244 . S
C33 O55 1.264 . S
C33 O57 1.273 . S
Mg34 O36 1.936 . S
Mg34 O43 2.081 . S
Mg34 O45 2.023 . S
Mg34 O49 2.031 . S
Mg34 O58 2.291 . S
Mg35 O36 1.963 . S
Mg35 O46 1.942 . S
Mg35 O47 1.955 . S
Mg35 O54 1.986 . S
O36 Mg34 1.936 . S
O36 Mg35 1.963 . S
O36 Mg37 1.915 . S
Mg37 O36 1.915 . S
Mg37 O38 1.915 . S
Mg37 O42 2.013 . S
Mg37 O48 2.114 . S
Mg37 O52 2.013 . S
Mg37 O58 2.114 . S
O38 Mg37 1.915 . S
O38 Mg39 1.936 . S
O38 Mg40 1.963 . S
Mg39 O38 1.936 . S
Mg39 O48 2.291 . S
Mg39 O53 2.081 . S
Mg39 O55 2.023 . S
Mg39 O59 2.031 . S
Mg40 O38 1.963 . S
Mg40 O44 1.986 . S
Mg40 O56 1.942 . S
Mg40 O57 1.955 . S
C41 O52 1.191 . S
C41 O54 1.307 . S
O42 Mg37 2.013 . S
O42 C61 1.191 . S
O43 Mg34 2.081 . S
O43 C51 1.331 . S
O44 Mg40 1.986 . S
O44 C61 1.307 . S
O45 Mg34 2.023 . S
O45 C60 1.264 . S
O46 Mg35 1.942 . S
O46 C51 1.244 . S
O47 Mg35 1.955 . S
O47 C60 1.273 . S
O48 Mg37 2.114 . S
O48 Mg39 2.291 . S
O48 C50 1.312 . S
O49 Mg34 2.031 . S
O49 C50 1.208 . S
C50 O48 1.312 . S
C50 O49 1.208 . S
C51 O43 1.331 . S
C51 O46 1.244 . S
O52 Mg37 2.013 . S
O52 C41 1.191 . S
O53 C32 1.331 . S
O53 Mg39 2.081 . S
O54 Mg35 1.986 . S
O54 C41 1.307 . S
O55 C33 1.264 . S
O55 Mg39 2.023 . S
O56 C32 1.244 . S
O56 Mg40 1.942 . S
O57 C33 1.273 . S
O57 Mg40 1.955 . S
O58 C31 1.312 . S
O58 Mg34 2.291 . S
O58 Mg37 2.114 . S
O59 C31 1.208 . S
O59 Mg39 2.031 . S
C60 O45 1.264 . S
C60 O47 1.273 . S
C61 O42 1.191 . S
C61 O44 1.307 . S
C62 O89 1.312 . S
C62 O90 1.208 . S
C63 O84 1.331 . S
C63 O87 1.244 . S
C64 O86 1.264 . S
C64 O88 1.273 . S
Mg65 O67 1.936 . S
Mg65 O74 2.081 . S
Mg65 O76 2.023 . S
Mg65 O80 2.031 . S
Mg65 O89 2.291 . S
Mg66 O67 1.963 1_545 S
Mg66 O77 1.942 1_545 S
Mg66 O78 1.955 . S
Mg66 O85 1.986 . S
O67 Mg65 1.936 . S
O67 Mg66 1.963 1_565 S
O67 Mg68 1.915 1_565 S
Mg68 O67 1.915 1_545 S
Mg68 O69 1.915 . S
Mg68 O73 2.013 . S
Mg68 O79 2.114 1_545 S
Mg68 O83 2.013 . S
Mg68 O89 2.114 1_545 S
O69 Mg68 1.915 . S
O69 Mg70 1.936 1_545 S
O69 Mg71 1.963 . S
Mg70 O69 1.936 1_565 S
Mg70 O79 2.291 . S
Mg70 O84 2.081 1_565 S
Mg70 O86 2.023 1_565 S
Mg70 O90 2.031 . S
Mg71 O69 1.963 . S
Mg71 O75 1.986 . S
Mg71 O87 1.942 . S
Mg71 O88 1.955 . S
C72 O83 1.191 . S
C72 O85 1.307 . S
O73 Mg68 2.013 . S
O73 C92 1.191 . S
O74 Mg65 2.081 . S
O74 C82 1.331 . S
O75 Mg71 1.986 . S
O75 C92 1.307 . S
O76 Mg65 2.023 . S
O76 C91 1.264 . S
O77 Mg66 1.942 1_565 S
O77 C82 1.244 . S
O78 Mg66 1.955 . S
O78 C91 1.273 1_545 S
O79 Mg68 2.114 1_565 S
O79 Mg70 2.291 . S
O79 C81 1.312 . S
O80 Mg65 2.031 . S
O80 C81 1.208 . S
C81 O79 1.312 . S
C81 O80 1.208 . S
C82 O74 1.331 . S
C82 O77 1.244 . S
O83 Mg68 2.013 . S
O83 C72 1.191 . S
O84 C63 1.331 . S
O84 Mg70 2.081 1_545 S
O85 Mg66 1.986 . S
O85 C72 1.307 . S
O86 C64 1.264 . S
O86 Mg70 2.023 1_545 S
O87 C63 1.244 . S
O87 Mg71 1.942 . S
O88 C64 1.273 . S
O88 Mg71 1.955 . S
O89 C62 1.312 . S
O89 Mg65 2.291 . S
O89 Mg68 2.114 1_565 S
O90 C62 1.208 . S
O90 Mg70 2.031 . S
C91 O76 1.264 . S
C91 O78 1.273 1_565 S
C92 O73 1.191 . S
C92 O75 1.307 . S
C93 O120 1.312 . S
C93 O121 1.208 . S
C94 O115 1.331 . S
C94 O118 1.244 . S
C95 O117 1.264 . S
C95 O119 1.273 1_655 S
Mg96 O98 1.936 1_655 S
Mg96 O105 2.081 1_655 S
Mg96 O107 2.023 1_655 S
Mg96 O111 2.031 . S
Mg96 O120 2.291 . S
Mg97 O98 1.963 . S
Mg97 O108 1.942 . S
Mg97 O109 1.955 . S
Mg97 O116 1.986 . S
O98 Mg96 1.936 1_455 S
O98 Mg97 1.963 . S
O98 Mg99 1.915 . S
Mg99 O98 1.915 . S
Mg99 O100 1.915 1_455 S
Mg99 O104 2.013 . S
Mg99 O110 2.114 1_455 S
Mg99 O114 2.013 . S
Mg99 O120 2.114 1_455 S
O100 Mg99 1.915 1_655 S
O100 Mg101 1.936 . S
O100 Mg102 1.963 1_655 S
Mg101 O100 1.936 . S
Mg101 O110 2.291 . S
Mg101 O115 2.081 . S
Mg101 O117 2.023 . S
Mg101 O121 2.031 . S
Mg102 O100 1.963 1_455 S
Mg102 O106 1.986 . S
Mg102 O118 1.942 1_455 S
Mg102 O119 1.955 . S
C103 O114 1.191 . S
C103 O116 1.307 . S
O104 Mg99 2.013 . S
O104 C123 1.191 . S
O105 Mg96 2.081 1_455 S
O105 C113 1.331 . S
O106 Mg102 1.986 . S
O106 C123 1.307 . S
O107 Mg96 2.023 1_455 S
O107 C122 1.264 . S
O108 Mg97 1.942 . S
O108 C113 1.244 . S
O109 Mg97 1.955 . S
O109 C122 1.273 . S
O110 Mg99 2.114 1_655 S
O110 Mg101 2.291 . S
O110 C112 1.312 . S
O111 Mg96 2.031 . S
O111 C112 1.208 . S
C112 O110 1.312 . S
C112 O111 1.208 . S
C113 O105 1.331 . S
C113 O108 1.244 . S
O114 Mg99 2.013 . S
O114 C103 1.191 . S
O115 C94 1.331 . S
O115 Mg101 2.081 . S
O116 Mg97 1.986 . S
O116 C103 1.307 . S
O117 C95 1.264 . S
O117 Mg101 2.023 . S
O118 C94 1.244 . S
O118 Mg102 1.942 1_655 S
O119 C95 1.273 1_455 S
O119 Mg102 1.955 . S
O120 C93 1.312 . S
O120 Mg96 2.291 . S
O120 Mg99 2.114 1_655 S
O121 C93 1.208 . S
O121 Mg101 2.031 . S
C122 O107 1.264 . S
C122 O109 1.273 . S
C123 O104 1.191 . S
C123 O106 1.307 . S
C124 O151 1.312 . S
C124 O152 1.208 . S
C125 O146 1.331 . S
C125 O149 1.244 . S
C126 O148 1.264 . S
C126 O150 1.273 . S
Mg127 O129 1.936 . S
Mg127 O136 2.081 . S
Mg127 O138 2.023 . S
Mg127 O142 2.031 . S
Mg127 O151 2.291 . S
Mg128 O129 1.963 . S
Mg128 O139 1.942 . S
Mg128 O140 1.955 . S
Mg128 O147 1.986 . S
O129 Mg127 1.936 . S
O129 Mg128 1.963 . S
O129 Mg130 1.915 . S
Mg130 O129 1.915 . S
Mg130 O131 1.915 . S
Mg130 O135 2.013 . S
Mg130 O141 2.114 . S
Mg130 O145 2.013 . S
Mg130 O151 2.114 . S
O131 Mg130 1.915 . S
O131 Mg132 1.936 . S
O131 Mg133 1.963 . S
Mg132 O131 1.936 . S
Mg132 O141 2.291 . S
Mg132 O146 2.081 . S
Mg132 O148 2.023 . S
Mg132 O152 2.031 . S
Mg133 O131 1.963 . S
Mg133 O137 1.986 . S
Mg133 O149 1.942 . S
Mg133 O150 1.955 . S
C134 O145 1.191 . S
C134 O147 1.307 . S
O135 Mg130 2.013 . S
O135 C154 1.191 . S
O136 Mg127 2.081 . S
O136 C144 1.331 . S
O137 Mg133 1.986 . S
O137 C154 1.307 . S
O138 Mg127 2.023 . S
O138 C153 1.264 . S
O139 Mg128 1.942 . S
O139 C144 1.244 . S
O140 Mg128 1.955 . S
O140 C153 1.273 . S
O141 Mg130 2.114 . S
O141 Mg132 2.291 . S
O141 C143 1.312 . S
O142 Mg127 2.031 . S
O142 C143 1.208 . S
C143 O141 1.312 . S
C143 O142 1.208 . S
C144 O136 1.331 . S
C144 O139 1.244 . S
O145 Mg130 2.013 . S
O145 C134 1.191 . S
O146 C125 1.331 . S
O146 Mg132 2.081 . S
O147 Mg128 1.986 . S
O147 C134 1.307 . S
O148 C126 1.264 . S
O148 Mg132 2.023 . S
O149 C125 1.244 . S
O149 Mg133 1.942 . S
O150 C126 1.273 . S
O150 Mg133 1.955 . S
O151 C124 1.312 . S
O151 Mg127 2.291 . S
O151 Mg130 2.114 . S
O152 C124 1.208 . S
O152 Mg132 2.031 . S
C153 O138 1.264 . S
C153 O140 1.273 . S
C154 O135 1.191 . S
C154 O137 1.307 . S
C155 O182 1.312 . S
C155 O183 1.208 . S
C156 O177 1.331 . S
C156 O180 1.244 . S
C157 O179 1.264 . S
C157 O181 1.273 . S
Mg158 O160 1.936 1_545 S
Mg158 O167 2.081 . S
Mg158 O169 2.023 1_545 S
Mg158 O173 2.031 . S
Mg158 O182 2.291 . S
Mg159 O160 1.963 . S
Mg159 O170 1.942 . S
Mg159 O171 1.955 . S
Mg159 O178 1.986 . S
O160 Mg158 1.936 1_565 S
O160 Mg159 1.963 . S
O160 Mg161 1.915 1_565 S
Mg161 O160 1.915 1_545 S
Mg161 O162 1.915 . S
Mg161 O166 2.013 1_545 S
Mg161 O172 2.114 . S
Mg161 O176 2.013 1_545 S
Mg161 O182 2.114 . S
O162 Mg161 1.915 . S
O162 Mg163 1.936 . S
O162 Mg164 1.963 1_545 S
Mg163 O162 1.936 . S
Mg163 O172 2.291 . S
Mg163 O177 2.081 . S
Mg163 O179 2.023 . S
Mg163 O183 2.031 . S
Mg164 O162 1.963 1_565 S
Mg164 O168 1.986 . S
Mg164 O180 1.942 1_565 S
Mg164 O181 1.955 1_565 S
C165 O176 1.191 . S
C165 O178 1.307 . S
O166 Mg161 2.013 1_565 S
O166 C185 1.191 . S
O167 Mg158 2.081 . S
O167 C175 1.331 1_545 S
O168 Mg164 1.986 . S
O168 C185 1.307 . S
O169 Mg158 2.023 1_565 S
O169 C184 1.264 . S
O170 Mg159 1.942 . S
O170 C175 1.244 . S
O171 Mg159 1.955 . S
O171 C184 1.273 . S
O172 Mg161 2.114 . S
O172 Mg163 2.291 . S
O172 C174 1.312 . S
O173 Mg158 2.031 . S
O173 C174 1.208 . S
C174 O172 1.312 . S
C174 O173 1.208 . S
C175 O167 1.331 1_565 S
C175 O170 1.244 . S
O176 Mg161 2.013 1_565 S
O176 C165 1.191 . S
O177 C156 1.331 . S
O177 Mg163 2.081 . S
O178 Mg159 1.986 . S
O178 C165 1.307 . S
O179 C157 1.264 . S
O179 Mg163 2.023 . S
O180 C156 1.244 . S
O180 Mg164 1.942 1_545 S
O181 C157 1.273 . S
O181 Mg164 1.955 1_545 S
O182 C155 1.312 . S
O182 Mg158 2.291 . S
O182 Mg161 2.114 . S
O183 C155 1.208 . S
O183 Mg163 2.031 . S
C184 O169 1.264 . S
C184 O171 1.273 . S
C185 O166 1.191 . S
C185 O168 1.307 . S
C186 O213 1.312 . S
C186 O214 1.208 . S
C187 O208 1.331 . S
C187 O211 1.244 . S
C188 O210 1.264 . S
C188 O212 1.273 . S
Mg189 O191 1.936 . S
Mg189 O198 2.081 . S
Mg189 O200 2.023 . S
Mg189 O204 2.031 . S
Mg189 O213 2.291 . S
Mg190 O191 1.963 . S
Mg190 O201 1.942 . S
Mg190 O202 1.955 . S
Mg190 O209 1.986 . S
O191 Mg189 1.936 . S
O191 Mg190 1.963 . S
O191 Mg192 1.915 . S
Mg192 O191 1.915 . S
Mg192 O193 1.915 . S
Mg192 O197 2.013 . S
Mg192 O203 2.114 . S
Mg192 O207 2.013 . S
Mg192 O213 2.114 . S
O193 Mg192 1.915 . S
O193 Mg194 1.936 . S
O193 Mg195 1.963 . S
Mg194 O193 1.936 . S
Mg194 O203 2.291 . S
Mg194 O208 2.081 . S
Mg194 O210 2.023 . S
Mg194 O214 2.031 . S
Mg195 O193 1.963 . S
Mg195 O199 1.986 . S
Mg195 O211 1.942 . S
Mg195 O212 1.955 . S
C196 O207 1.191 . S
C196 O209 1.307 . S
O197 Mg192 2.013 . S
O197 C216 1.191 . S
O198 Mg189 2.081 . S
O198 C206 1.331 . S
O199 Mg195 1.986 . S
O199 C216 1.307 . S
O200 Mg189 2.023 . S
O200 C215 1.264 . S
O201 Mg190 1.942 . S
O201 C206 1.244 . S
O202 Mg190 1.955 . S
O202 C215 1.273 . S
O203 Mg192 2.114 . S
O203 Mg194 2.291 . S
O203 C205 1.312 . S
O204 Mg189 2.031 . S
O204 C205 1.208 . S
C205 O203 1.312 . S
C205 O204 1.208 . S
C206 O198 1.331 . S
C206 O201 1.244 . S
O207 Mg192 2.013 . S
O207 C196 1.191 . S
O208 C187 1.331 . S
O208 Mg194 2.081 . S
O209 Mg190 1.986 . S
O209 C196 1.307 . S
O210 C188 1.264 . S
O210 Mg194 2.023 . S
O211 C187 1.244 . S
O211 Mg195 1.942 . S
O212 C188 1.273 . S
O212 Mg195 1.955 . S
O213 C186 1.312 . S
O213 Mg189 2.291 . S
O213 Mg192 2.114 . S
O214 C186 1.208 . S
O214 Mg194 2.031 . S
C215 O200 1.264 . S
C215 O202 1.273 . S
C216 O197 1.191 . S
C216 O199 1.307 . S
C217 O244 1.312 . S
C217 O245 1.208 . S
C218 O239 1.331 . S
C218 O242 1.244 . S
C219 O241 1.264 . S
C219 O243 1.273 . S
Mg220 O222 1.936 . S
Mg220 O229 2.081 . S
Mg220 O231 2.023 . S
Mg220 O235 2.031 . S
Mg220 O244 2.291 . S
Mg221 O222 1.963 . S
Mg221 O232 1.942 . S
Mg221 O233 1.955 . S
Mg221 O240 1.986 . S
O222 Mg220 1.936 . S
O222 Mg221 1.963 . S
O222 Mg223 1.915 . S
Mg223 O222 1.915 . S
Mg223 O224 1.915 . S
Mg223 O228 2.013 . S
Mg223 O234 2.114 . S
Mg223 O238 2.013 . S
Mg223 O244 2.114 . S
O224 Mg223 1.915 . S
O224 Mg225 1.936 . S
O224 Mg226 1.963 . S
Mg225 O224 1.936 . S
Mg225 O234 2.291 . S
Mg225 O239 2.081 . S
Mg225 O241 2.023 . S
Mg225 O245 2.031 . S
Mg226 O224 1.963 . S
Mg226 O230 1.986 . S
Mg226 O242 1.942 . S
Mg226 O243 1.955 . S
C227 O238 1.191 . S
C227 O240 1.307 . S
O228 Mg223 2.013 . S
O228 C247 1.191 . S
O229 Mg220 2.081 . S
O229 C237 1.331 . S
O230 Mg226 1.986 . S
O230 C247 1.307 . S
O231 Mg220 2.023 . S
O231 C246 1.264 . S
O232 Mg221 1.942 . S
O232 C237 1.244 . S
O233 Mg221 1.955 . S
O233 C246 1.273 . S
O234 Mg223 2.114 . S
O234 Mg225 2.291 . S
O234 C236 1.312 . S
O235 Mg220 2.031 . S
O235 C236 1.208 . S
C236 O234 1.312 . S
C236 O235 1.208 . S
C237 O229 1.331 . S
C237 O232 1.244 . S
O238 Mg223 2.013 . S
O238 C227 1.191 . S
O239 C218 1.331 . S
O239 Mg225 2.081 . S
O240 Mg221 1.986 . S
O240 C227 1.307 . S
O241 C219 1.264 . S
O241 Mg225 2.023 . S
O242 C218 1.244 . S
O242 Mg226 1.942 . S
O243 C219 1.273 . S
O243 Mg226 1.955 . S
O244 C217 1.312 . S
O244 Mg220 2.291 . S
O244 Mg223 2.114 . S
O245 C217 1.208 . S
O245 Mg225 2.031 . S
C246 O231 1.264 . S
C246 O233 1.273 . S
C247 O228 1.191 . S
C247 O230 1.307 . S
C248 O275 1.312 . S
C248 O276 1.208 . S
C249 O270 1.331 . S
C249 O273 1.244 . S
C250 O272 1.264 . S
C250 O274 1.273 . S
Mg251 O253 1.936 . S
Mg251 O260 2.081 . S
Mg251 O262 2.023 . S
Mg251 O266 2.031 . S
Mg251 O275 2.291 . S
Mg252 O253 1.963 . S
Mg252 O263 1.942 . S
Mg252 O264 1.955 . S
Mg252 O271 1.986 . S
O253 Mg251 1.936 . S
O253 Mg252 1.963 . S
O253 Mg254 1.915 . S
Mg254 O253 1.915 . S
Mg254 O255 1.915 . S
Mg254 O259 2.013 . S
Mg254 O265 2.114 . S
Mg254 O269 2.013 . S
Mg254 O275 2.114 . S
O255 Mg254 1.915 . S
O255 Mg256 1.936 . S
O255 Mg257 1.963 . S
Mg256 O255 1.936 . S
Mg256 O265 2.291 . S
Mg256 O270 2.081 . S
Mg256 O272 2.023 . S
Mg256 O276 2.031 . S
Mg257 O255 1.963 . S
Mg257 O261 1.986 . S
Mg257 O273 1.942 . S
Mg257 O274 1.955 . S
C258 O269 1.191 . S
C258 O271 1.307 . S
O259 Mg254 2.013 . S
O259 C278 1.191 . S
O260 Mg251 2.081 . S
O260 C268 1.331 . S
O261 Mg257 1.986 . S
O261 C278 1.307 . S
O262 Mg251 2.023 . S
O262 C277 1.264 . S
O263 Mg252 1.942 . S
O263 C268 1.244 . S
O264 Mg252 1.955 . S
O264 C277 1.273 . S
O265 Mg254 2.114 . S
O265 Mg256 2.291 . S
O265 C267 1.312 . S
O266 Mg251 2.031 . S
O266 C267 1.208 . S
C267 O265 1.312 . S
C267 O266 1.208 . S
C268 O260 1.331 . S
C268 O263 1.244 . S
O269 Mg254 2.013 . S
O269 C258 1.191 . S
O270 C249 1.331 . S
O270 Mg256 2.081 . S
O271 Mg252 1.986 . S
O271 C258 1.307 . S
O272 C250 1.264 . S
O272 Mg256 2.023 . S
O273 C249 1.244 . S
O273 Mg257 1.942 . S
O274 C250 1.273 . S
O274 Mg257 1.955 . S
O275 C248 1.312 . S
O275 Mg251 2.291 . S
O275 Mg254 2.114 . S
O276 C248 1.208 . S
O276 Mg256 2.031 . S
C277 O262 1.264 . S
C277 O264 1.273 . S
C278 O259 1.191 . S
C278 O261 1.307 . S
C279 O306 1.312 . S
C279 O307 1.208 . S
C280 O301 1.331 . S
C280 O304 1.244 . S
C281 O303 1.264 . S
C281 O305 1.273 . S
Mg282 O284 1.936 . S
Mg282 O291 2.081 . S
Mg282 O293 2.023 . S
Mg282 O297 2.031 . S
Mg282 O306 2.291 . S
Mg283 O284 1.963 . S
Mg283 O294 1.942 . S
Mg283 O295 1.955 . S
Mg283 O302 1.986 . S
O284 Mg282 1.936 . S
O284 Mg283 1.963 . S
O284 Mg285 1.915 . S
Mg285 O284 1.915 . S
Mg285 O286 1.915 . S
Mg285 O290 2.013 . S
Mg285 O296 2.114 . S
Mg285 O300 2.013 . S
Mg285 O306 2.114 . S
O286 Mg285 1.915 . S
O286 Mg287 1.936 1_554 S
O286 Mg288 1.963 . S
Mg287 O286 1.936 1_556 S
Mg287 O296 2.291 1_556 S
Mg287 O301 2.081 . S
Mg287 O303 2.023 . S
Mg287 O307 2.031 1_556 S
Mg288 O286 1.963 . S
Mg288 O292 1.986 . S
Mg288 O304 1.942 1_554 S
Mg288 O305 1.955 1_554 S
C289 O300 1.191 . S
C289 O302 1.307 . S
O290 Mg285 2.013 . S
O290 C309 1.191 . S
O291 Mg282 2.081 . S
O291 C299 1.331 . S
O292 Mg288 1.986 . S
O292 C309 1.307 . S
O293 Mg282 2.023 . S
O293 C308 1.264 . S
O294 Mg283 1.942 . S
O294 C299 1.244 . S
O295 Mg283 1.955 . S
O295 C308 1.273 . S
O296 Mg285 2.114 . S
O296 Mg287 2.291 1_554 S
O296 C298 1.312 . S
O297 Mg282 2.031 . S
O297 C298 1.208 . S
C298 O296 1.312 . S
C298 O297 1.208 . S
C299 O291 1.331 . S
C299 O294 1.244 . S
O300 Mg285 2.013 . S
O300 C289 1.191 . S
O301 C280 1.331 . S
O301 Mg287 2.081 . S
O302 Mg283 1.986 . S
O302 C289 1.307 . S
O303 C281 1.264 . S
O303 Mg287 2.023 . S
O304 C280 1.244 . S
O304 Mg288 1.942 1_556 S
O305 C281 1.273 . S
O305 Mg288 1.955 1_556 S
O306 C279 1.312 . S
O306 Mg282 2.291 . S
O306 Mg285 2.114 . S
O307 C279 1.208 . S
O307 Mg287 2.031 1_554 S
C308 O293 1.264 . S
C308 O295 1.273 . S
C309 O290 1.191 . S
C309 O292 1.307 . S
C310 O337 1.312 . S
C310 O338 1.208 . S
C311 O332 1.331 . S
C311 O335 1.244 . S
C312 O334 1.264 . S
C312 O336 1.273 . S
Mg313 O315 1.936 . S
Mg313 O322 2.081 . S
Mg313 O324 2.023 . S
Mg313 O328 2.031 . S
Mg313 O337 2.291 . S
Mg314 O315 1.963 . S
Mg314 O325 1.942 . S
Mg314 O326 1.955 . S
Mg314 O333 1.986 . S
O315 Mg313 1.936 . S
O315 Mg314 1.963 . S
O315 Mg316 1.915 . S
Mg316 O315 1.915 . S
Mg316 O317 1.915 . S
Mg316 O321 2.013 . S
Mg316 O327 2.114 . S
Mg316 O331 2.013 . S
Mg316 O337 2.114 . S
O317 Mg316 1.915 . S
O317 Mg318 1.936 1_554 S
O317 Mg319 1.965 . S
Mg318 O317 1.936 1_556 S
Mg318 O327 2.291 1_556 S
Mg318 O332 2.081 . S
Mg318 O334 2.023 . S
Mg318 O338 2.031 1_556 S
Mg319 O317 1.965 . S
Mg319 O323 1.993 . S
Mg319 O335 1.935 1_554 S
Mg319 O336 1.951 1_554 S
C320 O331 1.191 . S
C320 O333 1.307 . S
O321 Mg316 2.013 . S
O321 C340 1.191 . S
O322 Mg313 2.081 . S
O322 C330 1.331 . S
O323 Mg319 1.993 . S
O323 C340 1.307 . S
O324 Mg313 2.023 . S
O324 C339 1.264 . S
O325 Mg314 1.942 . S
O325 C330 1.244 . S
O326 Mg314 1.955 . S
O326 C339 1.273 . S
O327 Mg316 2.114 . S
O327 Mg318 2.291 1_554 S
O327 C329 1.312 . S
O328 Mg313 2.031 . S
O328 C329 1.208 . S
C329 O327 1.312 . S
C329 O328 1.208 . S
C330 O322 1.331 . S
C330 O325 1.244 . S
O331 Mg316 2.013 . S
O331 C320 1.191 . S
O332 C311 1.331 . S
O332 Mg318 2.081 . S
O333 Mg314 1.986 . S
O333 C320 1.307 . S
O334 C312 1.264 . S
O334 Mg318 2.023 . S
O335 C311 1.244 . S
O335 Mg319 1.935 1_556 S
O336 C312 1.273 . S
O336 Mg319 1.951 1_556 S
O337 C310 1.312 . S
O337 Mg313 2.291 . S
O337 Mg316 2.114 . S
O338 C310 1.208 . S
O338 Mg318 2.031 1_554 S
C339 O324 1.264 . S
C339 O326 1.273 . S
C340 O321 1.191 . S
C340 O323 1.307 . S
C341 O368 1.312 . S
C341 O369 1.208 . S
C342 O363 1.331 . S
C342 O366 1.244 . S
C343 O365 1.264 . S
C343 O367 1.273 . S
Mg344 O346 1.936 . S
Mg344 O353 2.081 . S
Mg344 O355 2.023 . S
Mg344 O359 2.031 . S
Mg344 O368 2.291 . S
Mg345 O346 1.963 . S
Mg345 O356 1.942 . S
Mg345 O357 1.955 . S
Mg345 O364 1.986 . S
O346 Mg344 1.936 . S
O346 Mg345 1.963 . S
O346 Mg347 1.915 . S
Mg347 O346 1.915 . S
Mg347 O348 1.915 . S
Mg347 O352 2.013 . S
Mg347 O358 2.114 . S
Mg347 O362 2.013 . S
Mg347 O368 2.114 . S
O348 Mg347 1.915 . S
O348 Mg349 1.936 1_554 S
O348 Mg350 1.963 . S
Mg349 O348 1.936 1_556 S
Mg349 O358 2.291 1_556 S
Mg349 O363 2.081 . S
Mg349 O365 2.023 . S
Mg349 O369 2.031 1_556 S
Mg350 O348 1.963 . S
Mg350 O354 1.986 . S
Mg350 O366 1.942 1_554 S
Mg350 O367 1.955 1_554 S
C351 O362 1.191 . S
C351 O364 1.307 . S
O352 Mg347 2.013 . S
O352 C371 1.191 . S
O353 Mg344 2.081 . S
O353 C361 1.331 . S
O354 Mg350 1.986 . S
O354 C371 1.307 . S
O355 Mg344 2.023 . S
O355 C370 1.264 . S
O356 Mg345 1.942 . S
O356 C361 1.244 . S
O357 Mg345 1.955 . S
O357 C370 1.273 . S
O358 Mg347 2.114 . S
O358 Mg349 2.291 1_554 S
O358 C360 1.312 . S
O359 Mg344 2.031 . S
O359 C360 1.208 . S
C360 O358 1.312 . S
C360 O359 1.208 . S
C361 O353 1.331 . S
C361 O356 1.244 . S
O362 Mg347 2.013 . S
O362 C351 1.191 . S
O363 C342 1.331 . S
O363 Mg349 2.081 . S
O364 Mg345 1.986 . S
O364 C351 1.307 . S
O365 C343 1.264 . S
O365 Mg349 2.023 . S
O366 C342 1.244 . S
O366 Mg350 1.942 1_556 S
O367 C343 1.273 . S
O367 Mg350 1.955 1_556 S
O368 C341 1.312 . S
O368 Mg344 2.291 . S
O368 Mg347 2.114 . S
O369 C341 1.208 . S
O369 Mg349 2.031 1_554 S
C370 O355 1.264 . S
C370 O357 1.273 . S
C371 O352 1.191 . S
C371 O354 1.307 . S
C372 O399 1.312 . S
C372 O400 1.208 . S
C373 O394 1.331 . S
C373 O397 1.244 . S
C374 O396 1.264 . S
C374 O398 1.273 . S
Mg375 O377 1.936 . S
Mg375 O384 2.081 . S
Mg375 O386 2.023 . S
Mg375 O390 2.031 . S
Mg375 O399 2.291 . S
Mg376 O377 1.963 . S
Mg376 O387 1.942 . S
Mg376 O388 1.955 . S
Mg376 O395 1.986 . S
O377 Mg375 1.936 . S
O377 Mg376 1.963 . S
O377 Mg378 1.915 . S
Mg378 O377 1.915 . S
Mg378 O379 1.915 . S
Mg378 O383 2.013 . S
Mg378 O389 2.114 . S
Mg378 O393 2.013 . S
Mg378 O399 2.114 . S
O379 Mg378 1.915 . S
O379 Mg380 1.936 . S
O379 Mg381 1.963 1_556 S
Mg380 O379 1.936 . S
Mg380 O389 2.291 . S
Mg380 O394 2.081 1_556 S
Mg380 O396 2.023 1_556 S
Mg380 O400 2.031 . S
Mg381 O379 1.963 1_554 S
Mg381 O385 1.986 . S
Mg381 O397 1.942 . S
Mg381 O398 1.955 . S
C382 O393 1.191 . S
C382 O395 1.307 . S
O383 Mg378 2.013 . S
O383 C402 1.191 . S
O384 Mg375 2.081 . S
O384 C392 1.331 . S
O385 Mg381 1.986 . S
O385 C402 1.307 1_554 S
O386 Mg375 2.023 . S
O386 C401 1.264 . S
O387 Mg376 1.942 . S
O387 C392 1.244 . S
O388 Mg376 1.955 . S
O388 C401 1.273 . S
O389 Mg378 2.114 . S
O389 Mg380 2.291 . S
O389 C391 1.312 . S
O390 Mg375 2.031 . S
O390 C391 1.208 . S
C391 O389 1.312 . S
C391 O390 1.208 . S
C392 O384 1.331 . S
C392 O387 1.244 . S
O393 Mg378 2.013 . S
O393 C382 1.191 . S
O394 C373 1.331 . S
O394 Mg380 2.081 1_554 S
O395 Mg376 1.986 . S
O395 C382 1.307 . S
O396 C374 1.264 . S
O396 Mg380 2.023 1_554 S
O397 C373 1.244 . S
O397 Mg381 1.942 . S
O398 C374 1.273 . S
O398 Mg381 1.955 . S
O399 C372 1.312 . S
O399 Mg375 2.291 . S
O399 Mg378 2.114 . S
O400 C372 1.208 . S
O400 Mg380 2.031 . S
C401 O386 1.264 . S
C401 O388 1.273 . S
C402 O383 1.191 . S
C402 O385 1.307 1_556 S
C403 O430 1.312 . S
C403 O431 1.208 . S
C404 O425 1.331 . S
C404 O428 1.244 . S
C405 O427 1.264 . S
C405 O429 1.273 . S
Mg406 O408 1.936 . S
Mg406 O415 2.081 . S
Mg406 O417 2.023 . S
Mg406 O421 2.031 . S
Mg406 O430 2.291 . S
Mg407 O408 1.963 . S
Mg407 O418 1.942 . S
Mg407 O419 1.955 . S
Mg407 O426 1.986 . S
O408 Mg406 1.936 . S
O408 Mg407 1.963 . S
O408 Mg409 1.915 . S
Mg409 O408 1.915 . S
Mg409 O410 1.915 . S
Mg409 O414 2.013 . S
Mg409 O420 2.114 . S
Mg409 O424 2.013 . S
Mg409 O430 2.114 . S
O410 Mg409 1.915 . S
O410 Mg411 1.936 1_556 S
O410 Mg412 1.963 . S
Mg411 O410 1.936 1_554 S
Mg411 O420 2.291 1_554 S
Mg411 O425 2.081 . S
Mg411 O427 2.023 . S
Mg411 O431 2.031 1_554 S
Mg412 O410 1.963 . S
Mg412 O416 1.986 . S
Mg412 O428 1.942 1_556 S
Mg412 O429 1.955 1_556 S
C413 O424 1.191 . S
C413 O426 1.307 . S
O414 Mg409 2.013 . S
O414 C433 1.191 . S
O415 Mg406 2.081 . S
O415 C423 1.331 . S
O416 Mg412 1.986 . S
O416 C433 1.307 . S
O417 Mg406 2.023 . S
O417 C432 1.264 . S
O418 Mg407 1.942 . S
O418 C423 1.244 . S
O419 Mg407 1.955 . S
O419 C432 1.273 . S
O420 Mg409 2.114 . S
O420 Mg411 2.291 1_556 S
O420 C422 1.312 . S
O421 Mg406 2.031 . S
O421 C422 1.208 . S
C422 O420 1.312 . S
C422 O421 1.208 . S
C423 O415 1.331 . S
C423 O418 1.244 . S
O424 Mg409 2.013 . S
O424 C413 1.191 . S
O425 C404 1.331 . S
O425 Mg411 2.081 . S
O426 Mg407 1.986 . S
O426 C413 1.307 . S
O427 C405 1.264 . S
O427 Mg411 2.023 . S
O428 C404 1.244 . S
O428 Mg412 1.942 1_554 S
O429 C405 1.273 . S
O429 Mg412 1.955 1_554 S
O430 C403 1.312 . S
O430 Mg406 2.291 . S
O430 Mg409 2.114 . S
O431 C403 1.208 . S
O431 Mg411 2.031 1_556 S
C432 O417 1.264 . S
C432 O419 1.273 . S
C433 O414 1.191 . S
C433 O416 1.307 . S
C434 O461 1.312 . S
C434 O462 1.208 . S
C435 O456 1.331 . S
C435 O459 1.244 . S
C436 O458 1.264 . S
C436 O460 1.273 . S
Mg437 O439 1.936 . S
Mg437 O446 2.081 . S
Mg437 O448 2.023 . S
Mg437 O452 2.031 . S
Mg437 O461 2.291 . S
Mg438 O439 1.963 . S
Mg438 O449 1.942 . S
Mg438 O450 1.955 . S
Mg438 O457 1.986 . S
O439 Mg437 1.936 . S
O439 Mg438 1.963 . S
O439 Mg440 1.915 . S
Mg440 O439 1.915 . S
Mg440 O441 1.915 . S
Mg440 O445 2.013 . S
Mg440 O451 2.114 . S
Mg440 O455 2.013 . S
Mg440 O461 2.114 . S
O441 Mg440 1.915 . S
O441 Mg442 1.936 . S
O441 Mg443 1.963 1_556 S
Mg442 O441 1.936 . S
Mg442 O451 2.291 . S
Mg442 O456 2.081 1_556 S
Mg442 O458 2.023 1_556 S
Mg442 O462 2.031 . S
Mg443 O441 1.963 1_554 S
Mg443 O447 1.986 . S
Mg443 O459 1.942 . S
Mg443 O460 1.955 . S
C444 O455 1.191 . S
C444 O457 1.307 . S
O445 Mg440 2.013 . S
O445 C464 1.191 . S
O446 Mg437 2.081 . S
O446 C454 1.331 . S
O447 Mg443 1.986 . S
O447 C464 1.307 1_554 S
O448 Mg437 2.023 . S
O448 C463 1.264 . S
O449 Mg438 1.942 . S
O449 C454 1.244 . S
O450 Mg438 1.955 . S
O450 C463 1.273 . S
O451 Mg440 2.114 . S
O451 Mg442 2.291 . S
O451 C453 1.312 . S
O452 Mg437 2.031 . S
O452 C453 1.208 . S
C453 O451 1.312 . S
C453 O452 1.208 . S
C454 O446 1.331 . S
C454 O449 1.244 . S
O455 Mg440 2.013 . S
O455 C444 1.191 . S
O456 C435 1.331 . S
O456 Mg442 2.081 1_554 S
O457 Mg438 1.986 . S
O457 C444 1.307 . S
O458 C436 1.264 . S
O458 Mg442 2.023 1_554 S
O459 C435 1.244 . S
O459 Mg443 1.942 . S
O460 C436 1.273 . S
O460 Mg443 1.955 . S
O461 C434 1.312 . S
O461 Mg437 2.291 . S
O461 Mg440 2.114 . S
O462 C434 1.208 . S
O462 Mg442 2.031 . S
C463 O448 1.264 . S
C463 O450 1.273 . S
C464 O445 1.191 . S
C464 O447 1.307 1_556 S
C465 O492 1.312 . S
C465 O493 1.208 . S
C466 O487 1.331 . S
C466 O490 1.244 . S
C467 O489 1.264 . S
C467 O491 1.273 . S
Mg468 O470 1.936 . S
Mg468 O477 2.081 . S
Mg468 O479 2.023 . S
Mg468 O483 2.031 . S
Mg468 O492 2.291 . S
Mg469 O470 1.963 . S
Mg469 O480 1.942 . S
Mg469 O481 1.955 . S
Mg469 O488 1.986 . S
O470 Mg468 1.936 . S
O470 Mg469 1.963 . S
O470 Mg471 1.915 . S
Mg471 O470 1.915 . S
Mg471 O472 1.915 . S
Mg471 O476 2.013 . S
Mg471 O482 2.114 . S
Mg471 O486 2.013 . S
Mg471 O492 2.114 . S
O472 Mg471 1.915 . S
O472 Mg473 1.936 . S
O472 Mg474 1.963 . S
Mg473 O472 1.936 . S
Mg473 O482 2.291 . S
Mg473 O487 2.081 . S
Mg473 O489 2.023 . S
Mg473 O493 2.031 . S
Mg474 O472 1.963 . S
Mg474 O478 1.986 . S
Mg474 O490 1.942 . S
Mg474 O491 1.955 . S
C475 O486 1.191 . S
C475 O488 1.307 . S
O476 Mg471 2.013 . S
O476 C495 1.191 . S
O477 Mg468 2.081 . S
O477 C485 1.331 . S
O478 Mg474 1.986 . S
O478 C495 1.307 . S
O479 Mg468 2.023 . S
O479 C494 1.264 . S
O480 Mg469 1.942 . S
O480 C485 1.244 . S
O481 Mg469 1.955 . S
O481 C494 1.273 . S
O482 Mg471 2.114 . S
O482 Mg473 2.291 . S
O482 C484 1.312 . S
O483 Mg468 2.031 . S
O483 C484 1.208 . S
C484 O482 1.312 . S
C484 O483 1.208 . S
C485 O477 1.331 . S
C485 O480 1.244 . S
O486 Mg471 2.013 . S
O486 C475 1.191 . S
O487 C466 1.331 . S
O487 Mg473 2.081 . S
O488 Mg469 1.986 . S
O488 C475 1.307 . S
O489 C467 1.264 . S
O489 Mg473 2.023 . S
O490 C466 1.244 . S
O490 Mg474 1.942 . S
O491 C467 1.273 . S
O491 Mg474 1.955 . S
O492 C465 1.312 . S
O492 Mg468 2.291 . S
O492 Mg471 2.114 . S
O493 C465 1.208 . S
O493 Mg473 2.031 . S
C494 O479 1.264 . S
C494 O481 1.273 . S
C495 O476 1.191 . S
C495 O478 1.307 . S
C496 O523 1.312 . S
C496 O524 1.208 . S
C497 O518 1.331 . S
C497 O521 1.244 . S
C498 O520 1.264 . S
C498 O522 1.273 . S
Mg499 O501 1.936 . S
Mg499 O508 2.081 . S
Mg499 O510 2.023 . S
Mg499 O514 2.031 . S
Mg499 O523 2.291 . S
Mg500 O501 1.963 . S
Mg500 O511 1.942 . S
Mg500 O512 1.955 . S
Mg500 O519 1.986 . S
O501 Mg499 1.936 . S
O501 Mg500 1.963 . S
O501 Mg502 1.915 . S
Mg502 O501 1.915 . S
Mg502 O503 1.915 . S
Mg502 O507 2.013 . S
Mg502 O513 2.114 . S
Mg502 O517 2.013 . S
Mg502 O523 2.114 . S
O503 Mg502 1.915 . S
O503 Mg504 1.936 . S
O503 Mg505 1.963 . S
Mg504 O503 1.936 . S
Mg504 O513 2.291 . S
Mg504 O518 2.081 . S
Mg504 O520 2.023 . S
Mg504 O524 2.031 . S
Mg505 O503 1.963 . S
Mg505 O509 1.986 . S
Mg505 O521 1.942 . S
Mg505 O522 1.955 . S
C506 O517 1.191 . S
C506 O519 1.307 . S
O507 Mg502 2.013 . S
O507 C526 1.191 . S
O508 Mg499 2.081 . S
O508 C516 1.331 . S
O509 Mg505 1.986 . S
O509 C526 1.307 . S
O510 Mg499 2.023 . S
O510 C525 1.264 . S
O511 Mg500 1.942 . S
O511 C516 1.244 . S
O512 Mg500 1.955 . S
O512 C525 1.273 . S
O513 Mg502 2.114 . S
O513 Mg504 2.291 . S
O513 C515 1.312 . S
O514 Mg499 2.031 . S
O514 C515 1.208 . S
C515 O513 1.312 . S
C515 O514 1.208 . S
C516 O508 1.331 . S
C516 O511 1.244 . S
O517 Mg502 2.013 . S
O517 C506 1.191 . S
O518 C497 1.331 . S
O518 Mg504 2.081 . S
O519 Mg500 1.986 . S
O519 C506 1.307 . S
O520 C498 1.264 . S
O520 Mg504 2.023 . S
O521 C497 1.244 . S
O521 Mg505 1.942 . S
O522 C498 1.273 . S
O522 Mg505 1.955 . S
O523 C496 1.312 . S
O523 Mg499 2.291 . S
O523 Mg502 2.114 . S
O524 C496 1.208 . S
O524 Mg504 2.031 . S
C525 O510 1.264 . S
C525 O512 1.273 . S
C526 O507 1.191 . S
C526 O509 1.307 . S
C527 O554 1.312 . S
C527 O555 1.208 . S
C528 O549 1.331 . S
C528 O552 1.244 . S
C529 O551 1.264 . S
C529 O553 1.273 . S
Mg530 O532 1.936 . S
Mg530 O539 2.081 . S
Mg530 O541 2.023 . S
Mg530 O545 2.031 . S
Mg530 O554 2.291 . S
Mg531 O532 1.963 . S
Mg531 O542 1.942 . S
Mg531 O543 1.955 . S
Mg531 O550 1.986 . S
O532 Mg530 1.936 . S
O532 Mg531 1.963 . S
O532 Mg533 1.915 . S
Mg533 O532 1.915 . S
Mg533 O534 1.915 . S
Mg533 O538 2.013 . S
Mg533 O544 2.114 . S
Mg533 O548 2.013 . S
Mg533 O554 2.114 . S
O534 Mg533 1.915 . S
O534 Mg535 1.936 . S
O534 Mg536 1.963 . S
Mg535 O534 1.936 . S
Mg535 O544 2.291 . S
Mg535 O549 2.081 . S
Mg535 O551 2.023 . S
Mg535 O555 2.031 . S
Mg536 O534 1.963 . S
Mg536 O540 1.986 . S
Mg536 O552 1.942 . S
Mg536 O553 1.955 . S
C537 O548 1.191 . S
C537 O550 1.307 . S
O538 Mg533 2.013 . S
O538 C557 1.191 . S
O539 Mg530 2.081 . S
O539 C547 1.331 . S
O540 Mg536 1.986 . S
O540 C557 1.307 . S
O541 Mg530 2.023 . S
O541 C556 1.264 . S
O542 Mg531 1.942 . S
O542 C547 1.244 . S
O543 Mg531 1.955 . S
O543 C556 1.273 . S
O544 Mg533 2.114 . S
O544 Mg535 2.291 . S
O544 C546 1.312 . S
O545 Mg530 2.031 . S
O545 C546 1.208 . S
C546 O544 1.312 . S
C546 O545 1.208 . S
C547 O539 1.331 . S
C547 O542 1.244 . S
O548 Mg533 2.013 . S
O548 C537 1.191 . S
O549 C528 1.331 . S
O549 Mg535 2.081 . S
O550 Mg531 1.986 . S
O550 C537 1.307 . S
O551 C529 1.264 . S
O551 Mg535 2.023 . S
O552 C528 1.244 . S
O552 Mg536 1.942 . S
O553 C529 1.273 . S
O553 Mg536 1.955 . S
O554 C527 1.312 . S
O554 Mg530 2.291 . S
O554 Mg533 2.114 . S
O555 C527 1.208 . S
O555 Mg535 2.031 . S
C556 O541 1.264 . S
C556 O543 1.273 . S
C557 O538 1.191 . S
C557 O540 1.307 . S
C558 C559 1.387 . S
C558 H562 0.950 . S
C558 C567 1.390 . S
C559 C558 1.387 . S
C559 C561 1.387 . S
H560 C567 0.950 . S
C561 C559 1.387 . S
C561 C563 1.390 . S
C561 H565 0.950 . S
H562 C558 0.950 . S
C563 C561 1.390 . S
C563 C564 1.387 . S
C563 H566 0.950 . S
C564 C563 1.387 . S
C564 C567 1.387 . S
H565 C561 0.950 . S
H566 C563 0.950 . S
C567 C558 1.390 . S
C567 H560 0.950 . S
C567 C564 1.387 . S
C568 C569 1.387 . S
C568 H572 0.950 . S
C568 C577 1.390 . S
C569 C568 1.387 . S
C569 C571 1.387 . S
H570 C577 0.950 . S
C571 C569 1.387 . S
C571 C573 1.390 . S
C571 H575 0.950 . S
H572 C568 0.950 . S
C573 C571 1.390 . S
C573 C574 1.387 . S
C573 H576 0.950 . S
C574 C573 1.387 . S
C574 C577 1.387 . S
H575 C571 0.950 . S
H576 C573 0.950 . S
C577 C568 1.390 . S
C577 H570 0.950 . S
C577 C574 1.387 . S
C578 C579 1.387 . S
C578 H582 0.950 . S
C578 C587 1.390 . S
C579 C578 1.387 . S
C579 C581 1.387 . S
H580 C587 0.950 1_545 S
C581 C579 1.387 . S
C581 C583 1.390 . S
C581 H585 0.950 . S
H582 C578 0.950 . S
C583 C581 1.390 . S
C583 C584 1.387 . S
C583 H586 0.950 . S
C584 C583 1.387 . S
C584 C587 1.387 . S
H585 C581 0.950 . S
H586 C583 0.950 . S
C587 C578 1.390 . S
C587 H580 0.950 1_565 S
C587 C584 1.387 . S
C588 C589 1.387 . S
C588 H592 0.950 . S
C588 C597 1.390 . S
C589 C588 1.387 . S
C589 C591 1.387 . S
H590 C597 0.950 . S
C591 C589 1.387 . S
C591 C593 1.390 . S
C591 H595 0.950 . S
H592 C588 0.950 . S
C593 C591 1.390 . S
C593 C594 1.387 . S
C593 H596 0.950 . S
C594 C593 1.387 . S
C594 C597 1.387 . S
H595 C591 0.950 . S
H596 C593 0.950 . S
C597 C588 1.390 . S
C597 H590 0.950 . S
C597 C594 1.387 . S
C598 C599 1.387 . S
C598 H602 0.950 . S
C598 C607 1.390 . S
C599 C598 1.387 . S
C599 C601 1.387 . S
H600 C607 0.950 . S
C601 C599 1.387 . S
C601 C603 1.390 . S
C601 H605 0.950 . S
H602 C598 0.950 . S
C603 C601 1.390 . S
C603 C604 1.387 . S
C603 H606 0.950 . S
C604 C603 1.387 . S
C604 C607 1.387 . S
H605 C601 0.950 . S
H606 C603 0.950 . S
C607 C598 1.390 . S
C607 H600 0.950 . S
C607 C604 1.387 . S
C608 C609 1.387 . S
C608 H612 0.950 . S
C608 C617 1.390 . S
C609 C608 1.387 . S
C609 C611 1.387 . S
H610 C617 0.950 . S
C611 C609 1.387 . S
C611 C613 1.390 . S
C611 H615 0.950 . S
H612 C608 0.950 . S
C613 C611 1.390 . S
C613 C614 1.387 . S
C613 H616 0.950 . S
C614 C613 1.387 . S
C614 C617 1.387 . S
H615 C611 0.950 . S
H616 C613 0.950 . S
C617 C608 1.390 . S
C617 H610 0.950 . S
C617 C614 1.387 . S
C618 C619 1.387 . S
C618 H622 0.950 . S
C618 C627 1.390 . S
C619 C618 1.387 . S
C619 C621 1.387 . S
H620 C627 0.950 . S
C621 C619 1.387 . S
C621 C623 1.390 . S
C621 H625 0.950 1_655 S
H622 C618 0.950 . S
C623 C621 1.390 . S
C623 C624 1.387 . S
C623 H626 0.950 . S
C624 C623 1.387 . S
C624 C627 1.387 . S
H625 C621 0.950 1_455 S
H626 C623 0.950 . S
C627 C618 1.390 . S
C627 H620 0.950 . S
C627 C624 1.387 . S
C628 C629 1.387 . S
C628 H632 0.950 . S
C628 C637 1.390 . S
C629 C628 1.387 . S
C629 C631 1.387 . S
H630 C637 0.950 . S
C631 C629 1.387 . S
C631 C633 1.390 . S
C631 H635 0.950 . S
H632 C628 0.950 . S
C633 C631 1.390 . S
C633 C634 1.387 . S
C633 H636 0.950 . S
C634 C633 1.387 . S
C634 C637 1.387 . S
H635 C631 0.950 . S
H636 C633 0.950 . S
C637 C628 1.390 . S
C637 H630 0.950 . S
C637 C634 1.387 . S
C638 C639 1.387 . S
C638 H642 0.950 . S
C638 C647 1.390 . S
C639 C638 1.387 . S
C639 C641 1.387 . S
H640 C647 0.950 . S
C641 C639 1.387 . S
C641 C643 1.390 . S
C641 H645 0.950 . S
H642 C638 0.950 . S
C643 C641 1.390 . S
C643 C644 1.387 . S
C643 H646 0.950 . S
C644 C643 1.387 . S
C644 C647 1.387 . S
H645 C641 0.950 . S
H646 C643 0.950 . S
C647 C638 1.390 . S
C647 H640 0.950 . S
C647 C644 1.387 . S
C648 C649 1.387 . S
C648 H652 0.950 . S
C648 C657 1.390 . S
C649 C648 1.387 . S
C649 C651 1.387 . S
H650 C657 0.950 . S
C651 C649 1.387 . S
C651 C653 1.390 . S
C651 H655 0.950 1_565 S
H652 C648 0.950 . S
C653 C651 1.390 . S
C653 C654 1.387 . S
C653 H656 0.950 . S
C654 C653 1.387 . S
C654 C657 1.387 . S
H655 C651 0.950 1_545 S
H656 C653 0.950 . S
C657 C648 1.390 . S
C657 H650 0.950 . S
C657 C654 1.387 . S
C658 C659 1.387 . S
C658 H662 0.950 . S
C658 C667 1.390 . S
C659 C658 1.387 . S
C659 C661 1.387 . S
H660 C667 0.950 . S
C661 C659 1.387 . S
C661 C663 1.390 . S
C661 H665 0.950 . S
H662 C658 0.950 . S
C663 C661 1.390 . S
C663 C664 1.387 . S
C663 H666 0.950 . S
C664 C663 1.387 . S
C664 C667 1.387 . S
H665 C661 0.950 . S
H666 C663 0.950 . S
C667 C658 1.390 . S
C667 H660 0.950 . S
C667 C664 1.387 . S
C668 C669 1.387 . S
C668 H672 0.950 . S
C668 C677 1.390 . S
C669 C668 1.387 . S
C669 C671 1.387 . S
H670 C677 0.950 . S
C671 C669 1.387 . S
C671 C673 1.390 . S
C671 H675 0.950 . S
H672 C668 0.950 . S
C673 C671 1.390 . S
C673 C674 1.387 . S
C673 H676 0.950 . S
C674 C673 1.387 . S
C674 C677 1.387 . S
H675 C671 0.950 . S
H676 C673 0.950 . S
C677 C668 1.390 . S
C677 H670 0.950 . S
C677 C674 1.387 . S
C678 C679 1.387 . S
C678 H682 0.950 . S
C678 C687 1.390 1_565 S
C679 C678 1.387 . S
C679 C681 1.387 1_565 S
H680 C687 0.950 . S
C681 C679 1.387 1_545 S
C681 C683 1.390 . S
C681 H685 0.954 . S
H682 C678 0.950 . S
C683 C681 1.390 . S
C683 C684 1.387 . S
C683 H686 0.950 . S
C684 C683 1.387 . S
C684 C687 1.387 . S
H685 C681 0.954 . S
H686 C683 0.950 . S
C687 C678 1.390 1_545 S
C687 H680 0.950 . S
C687 C684 1.387 . S
C688 C689 1.387 . S
C688 H692 0.950 . S
C688 C697 1.390 . S
C689 C688 1.387 . S
C689 C691 1.387 1_455 S
H690 C697 0.950 . S
C691 C689 1.387 1_655 S
C691 C693 1.390 . S
C691 H695 0.950 . S
H692 C688 0.950 . S
C693 C691 1.390 . S
C693 C694 1.387 . S
C693 H696 0.950 . S
C694 C693 1.387 . S
C694 C697 1.387 1_655 S
H695 C691 0.950 . S
H696 C693 0.950 . S
C697 C688 1.390 . S
C697 H690 0.950 . S
C697 C694 1.387 1_455 S
C698 C699 1.387 . S
C698 H702 0.950 . S
C698 C707 1.390 . S
C699 C698 1.387 . S
C699 C701 1.387 . S
H700 C707 0.950 . S
C701 C699 1.387 . S
C701 C703 1.390 . S
C701 H705 0.950 . S
H702 C698 0.950 . S
C703 C701 1.390 . S
C703 C704 1.387 . S
C703 H706 0.950 . S
C704 C703 1.387 . S
C704 C707 1.387 . S
H705 C701 0.950 . S
H706 C703 0.950 . S
C707 C698 1.390 . S
C707 H700 0.950 . S
C707 C704 1.387 . S
C708 C709 1.387 . S
C708 H712 0.950 . S
C708 C717 1.390 . S
C709 C708 1.387 . S
C709 C711 1.387 . S
H710 C717 0.950 . S
C711 C709 1.387 . S
C711 C713 1.390 1_655 S
C711 H715 0.950 . S
H712 C708 0.950 . S
C713 C711 1.390 1_455 S
C713 C714 1.387 . S
C713 H716 0.950 . S
C714 C713 1.387 . S
C714 C717 1.387 1_455 S
H715 C711 0.950 . S
H716 C713 0.950 . S
C717 C708 1.390 . S
C717 H710 0.950 . S
C717 C714 1.387 1_655 S
C718 C719 1.387 . S
C718 H722 0.950 . S
C718 C727 1.390 . S
C719 C718 1.387 . S
C719 C721 1.387 . S
H720 C727 0.950 . S
C721 C719 1.387 . S
C721 C723 1.390 . S
C721 H725 0.950 . S
H722 C718 0.950 . S
C723 C721 1.390 . S
C723 C724 1.387 . S
C723 H726 0.950 . S
C724 C723 1.387 . S
C724 C727 1.387 . S
H725 C721 0.950 . S
H726 C723 0.950 . S
C727 C718 1.390 . S
C727 H720 0.950 . S
C727 C724 1.387 . S
C728 C729 1.387 . S
C728 H732 0.950 . S
C728 C737 1.390 1_545 S
C729 C728 1.387 . S
C729 C731 1.387 . S
H730 C737 0.950 . S
C731 C729 1.387 . S
C731 C733 1.390 1_545 S
C731 H735 0.950 . S
H732 C728 0.950 . S
C733 C731 1.390 1_565 S
C733 C734 1.387 . S
C733 H736 0.950 . S
C734 C733 1.387 . S
C734 C737 1.387 . S
H735 C731 0.950 . S
H736 C733 0.950 . S
C737 C728 1.390 1_565 S
C737 H730 0.950 . S
C737 C734 1.387 . S
C738 C739 1.387 1_554 S
C738 H742 0.950 . S
C738 C747 1.390 . S
C739 C738 1.387 1_556 S
C739 C741 1.387 . S
H740 C747 0.950 . S
C741 C739 1.387 . S
C741 C743 1.390 1_456 S
C741 H745 0.950 . S
H742 C738 0.950 . S
C743 C741 1.390 1_654 S
C743 C744 1.387 . S
C743 H746 0.950 . S
C744 C743 1.387 . S
C744 C747 1.387 1_655 S
H745 C741 0.950 . S
H746 C743 0.950 . S
C747 C738 1.390 . S
C747 H740 0.950 . S
C747 C744 1.387 1_455 S
C748 C749 1.387 . S
C748 H752 0.950 . S
C748 C757 1.390 1_556 S
C749 C748 1.387 . S
C749 C751 1.387 . S
H750 C757 0.950 . S
C751 C749 1.387 . S
C751 C753 1.390 1_556 S
C751 H755 0.950 . S
H752 C748 0.950 . S
C753 C751 1.390 1_554 S
C753 C754 1.387 . S
C753 H756 0.950 . S
C754 C753 1.387 . S
C754 C757 1.387 . S
H755 C751 0.950 . S
H756 C753 0.950 . S
C757 C748 1.390 1_554 S
C757 H750 0.950 . S
C757 C754 1.387 . S
C758 C759 1.387 1_565 S
C758 H762 0.950 . S
C758 C767 1.390 1_554 S
C759 C758 1.387 1_545 S
C759 C761 1.387 1_554 S
H760 C767 0.949 1_554 S
C761 C759 1.387 1_556 S
C761 C763 1.390 . S
C761 H765 0.950 . S
H762 C758 0.950 . S
C763 C761 1.390 . S
C763 C764 1.387 1_545 S
C763 H766 0.950 . S
C764 C763 1.387 1_565 S
C764 C767 1.387 . S
H765 C761 0.950 . S
H766 C763 0.950 . S
C767 C758 1.390 1_556 S
C767 H760 0.949 1_556 S
C767 C764 1.387 . S
C768 C769 1.387 . S
C768 H772 0.950 . S
C768 C777 1.390 . S
C769 C768 1.387 . S
C769 C771 1.387 1_545 S
H770 C777 0.950 . S
C771 C769 1.387 1_565 S
C771 C773 1.390 . S
C771 H775 0.950 . S
H772 C768 0.950 . S
C773 C771 1.390 . S
C773 C774 1.387 . S
C773 H776 0.950 . S
C774 C773 1.387 . S
C774 C777 1.387 1_565 S
H775 C771 0.950 . S
H776 C773 0.950 . S
C777 C768 1.390 . S
C777 H770 0.950 . S
C777 C774 1.387 1_545 S
C778 C779 1.387 1_655 S
C778 H782 0.950 . S
C778 C787 1.390 . S
C779 C778 1.387 1_455 S
C779 C781 1.387 . S
H780 C787 0.950 . S
C781 C779 1.387 . S
C781 C783 1.390 . S
C781 H785 0.950 . S
H782 C778 0.950 . S
C783 C781 1.390 . S
C783 C784 1.387 1_455 S
C783 H786 0.950 . S
C784 C783 1.387 1_655 S
C784 C787 1.387 . S
H785 C781 0.950 . S
H786 C783 0.950 . S
C787 C778 1.390 . S
C787 H780 0.950 . S
C787 C784 1.387 . S
C788 C789 1.387 . S
C788 H792 0.950 . S
C788 C797 1.390 . S
C789 C788 1.387 . S
C789 C791 1.387 . S
H790 C797 0.950 . S
C791 C789 1.387 . S
C791 C793 1.390 . S
C791 H795 0.950 . S
H792 C788 0.950 . S
C793 C791 1.390 . S
C793 C794 1.387 . S
C793 H796 0.950 . S
C794 C793 1.387 . S
C794 C797 1.387 . S
H795 C791 0.950 . S
H796 C793 0.950 . S
C797 C788 1.390 . S
C797 H790 0.950 . S
C797 C794 1.387 . S
C798 C799 1.387 . S
C798 H802 0.950 . S
C798 C807 1.390 . S
C799 C798 1.387 . S
C799 C801 1.387 . S
H800 C807 0.950 . S
C801 C799 1.387 . S
C801 C803 1.390 . S
C801 H805 0.950 . S
H802 C798 0.950 . S
C803 C801 1.390 . S
C803 C804 1.387 . S
C803 H806 0.950 . S
C804 C803 1.387 . S
C804 C807 1.387 . S
H805 C801 0.950 . S
H806 C803 0.950 . S
C807 C798 1.390 . S
C807 H800 0.950 . S
C807 C804 1.387 . S
C808 C809 1.387 . S
C808 H812 0.950 . S
C808 C817 1.390 . S
C809 C808 1.387 . S
C809 C811 1.387 . S
H810 C817 0.950 . S
C811 C809 1.387 . S
C811 C813 1.390 . S
C811 H815 0.950 . S
H812 C808 0.950 . S
C813 C811 1.390 . S
C813 C814 1.387 . S
C813 H816 0.950 . S
C814 C813 1.387 . S
C814 C817 1.387 . S
H815 C811 0.950 . S
H816 C813 0.950 . S
C817 C808 1.390 . S
C817 H810 0.950 . S
C817 C814 1.387 . S
C818 C819 1.387 . S
C818 H822 0.950 . S
C818 C827 1.390 . S
C819 C818 1.387 . S
C819 C821 1.387 . S
H820 C827 0.950 . S
C821 C819 1.387 . S
C821 C823 1.390 . S
C821 H825 0.950 . S
H822 C818 0.950 . S
C823 C821 1.390 . S
C823 C824 1.387 . S
C823 H826 0.950 . S
C824 C823 1.387 . S
C824 C827 1.387 . S
H825 C821 0.950 . S
H826 C823 0.950 . S
C827 C818 1.390 . S
C827 H820 0.950 . S
C827 C824 1.387 . S
C828 C829 1.387 . S
C828 H832 0.950 . S
C828 C837 1.390 . S
C829 C828 1.387 . S
C829 C831 1.387 . S
H830 C837 0.950 . S
C831 C829 1.387 . S
C831 C833 1.390 . S
C831 H835 0.950 . S
H832 C828 0.950 . S
C833 C831 1.390 . S
C833 C834 1.387 . S
C833 H836 0.950 . S
C834 C833 1.387 . S
C834 C837 1.387 . S
H835 C831 0.950 . S
H836 C833 0.950 . S
C837 C828 1.390 . S
C837 H830 0.950 . S
C837 C834 1.387 . S
C838 C839 1.387 . S
C838 H842 0.950 . S
C838 C847 1.390 . S
C839 C838 1.387 . S
C839 C841 1.387 . S
H840 C847 0.950 . S
C841 C839 1.387 . S
C841 C843 1.390 . S
C841 H845 0.950 . S
H842 C838 0.950 . S
C843 C841 1.390 . S
C843 C844 1.387 . S
C843 H846 0.950 . S
C844 C843 1.387 . S
C844 C847 1.387 . S
H845 C841 0.950 . S
H846 C843 0.950 . S
C847 C838 1.390 . S
C847 H840 0.950 . S
C847 C844 1.387 . S
C848 C849 1.387 . S
C848 H852 0.950 . S
C848 C857 1.390 . S
C849 C848 1.387 . S
C849 C851 1.387 . S
H850 C857 0.950 . S
C851 C849 1.387 . S
C851 C853 1.390 . S
C851 H855 0.950 . S
H852 C848 0.950 . S
C853 C851 1.390 . S
C853 C854 1.387 . S
C853 H856 0.950 . S
C854 C853 1.387 . S
C854 C857 1.387 . S
H855 C851 0.950 . S
H856 C853 0.950 . S
C857 C848 1.390 . S
C857 H850 0.950 . S
C857 C854 1.387 . S
C858 C859 1.387 . S
C858 H862 0.950 . S
C858 C867 1.390 . S
C859 C858 1.387 . S
C859 C861 1.387 . S
H860 C867 0.950 . S
C861 C859 1.387 . S
C861 C863 1.390 . S
C861 H865 0.950 . S
H862 C858 0.950 . S
C863 C861 1.390 . S
C863 C864 1.387 . S
C863 H866 0.950 . S
C864 C863 1.387 . S
C864 C867 1.387 . S
H865 C861 0.950 . S
H866 C863 0.950 . S
C867 C858 1.390 . S
C867 H860 0.950 . S
C867 C864 1.387 . S
C868 C869 1.387 . S
C868 H872 0.950 . S
C868 C877 1.390 . S
C869 C868 1.387 . S
C869 C871 1.387 . S
H870 C877 0.950 . S
C871 C869 1.387 . S
C871 C873 1.390 . S
C871 H875 0.950 . S
H872 C868 0.950 . S
C873 C871 1.390 . S
C873 C874 1.387 . S
C873 H876 0.950 . S
C874 C873 1.387 . S
C874 C877 1.387 . S
H875 C871 0.950 . S
H876 C873 0.950 . S
C877 C868 1.390 . S
C877 H870 0.950 . S
C877 C874 1.387 . S
C878 C879 1.387 . S
C878 H882 0.950 . S
C878 C887 1.390 . S
C879 C878 1.387 . S
C879 C881 1.387 . S
H880 C887 0.950 . S
C881 C879 1.387 . S
C881 C883 1.390 . S
C881 H885 0.950 . S
H882 C878 0.950 . S
C883 C881 1.390 . S
C883 C884 1.387 . S
C883 H886 0.950 . S
C884 C883 1.387 . S
C884 C887 1.387 . S
H885 C881 0.950 . S
H886 C883 0.950 . S
C887 C878 1.390 . S
C887 H880 0.950 . S
C887 C884 1.387 . S
C888 C889 1.387 . S
C888 H892 0.950 . S
C888 C897 1.390 . S
C889 C888 1.387 . S
C889 C891 1.387 . S
H890 C897 0.950 . S
C891 C889 1.387 . S
C891 C893 1.390 . S
C891 H895 0.950 . S
H892 C888 0.950 . S
C893 C891 1.390 . S
C893 C894 1.387 . S
C893 H896 0.950 . S
C894 C893 1.387 . S
C894 C897 1.387 . S
H895 C891 0.950 . S
H896 C893 0.950 . S
C897 C888 1.390 . S
C897 H890 0.950 . S
C897 C894 1.387 . S
C898 C899 1.387 . S
C898 H902 0.950 . S
C898 C907 1.390 . S
C899 C898 1.387 . S
C899 C901 1.387 . S
H900 C907 0.950 . S
C901 C899 1.387 . S
C901 C903 1.390 . S
C901 H905 0.950 . S
H902 C898 0.950 . S
C903 C901 1.390 . S
C903 C904 1.387 . S
C903 H906 0.950 . S
C904 C903 1.387 . S
C904 C907 1.387 . S
H905 C901 0.950 . S
H906 C903 0.950 . S
C907 C898 1.390 . S
C907 H900 0.950 . S
C907 C904 1.387 . S
C908 C909 1.387 . S
C908 H912 0.950 . S
C908 C917 1.390 . S
C909 C908 1.387 . S
C909 C911 1.387 . S
H910 C917 0.950 . S
C911 C909 1.387 . S
C911 C913 1.390 . S
C911 H915 0.950 . S
H912 C908 0.950 . S
C913 C911 1.390 . S
C913 C914 1.387 . S
C913 H916 0.950 . S
C914 C913 1.387 . S
C914 C917 1.387 . S
H915 C911 0.950 . S
H916 C913 0.950 . S
C917 C908 1.390 . S
C917 H910 0.950 . S
C917 C914 1.387 . S
C918 C919 1.387 . S
C918 H922 0.950 . S
C918 C927 1.390 . S
C919 C918 1.387 . S
C919 C921 1.387 . S
H920 C927 0.950 . S
C921 C919 1.387 . S
C921 C923 1.390 . S
C921 H925 0.950 . S
H922 C918 0.950 . S
C923 C921 1.390 . S
C923 C924 1.387 . S
C923 H926 0.950 . S
C924 C923 1.387 . S
C924 C927 1.387 . S
H925 C921 0.950 . S
H926 C923 0.950 . S
C927 C918 1.390 . S
C927 H920 0.950 . S
C927 C924 1.387 . S
C928 C929 1.387 . S
C928 H932 0.950 . S
C928 C937 1.390 . S
C929 C928 1.387 . S
C929 C931 1.387 . S
H930 C937 0.950 . S
C931 C929 1.387 . S
C931 C933 1.390 . S
C931 H935 0.950 . S
H932 C928 0.950 . S
C933 C931 1.390 . S
C933 C934 1.387 . S
C933 H936 0.950 . S
C934 C933 1.387 . S
C934 C937 1.387 . S
H935 C931 0.950 . S
H936 C933 0.950 . S
C937 C928 1.390 . S
C937 H930 0.950 . S
C937 C934 1.387 . S
C938 C939 1.387 . S
C938 H942 0.950 . S
C938 C947 1.390 . S
C939 C938 1.387 . S
C939 C941 1.387 . S
H940 C947 0.950 . S
C941 C939 1.387 . S
C941 C943 1.390 . S
C941 H945 0.950 . S
H942 C938 0.950 . S
C943 C941 1.390 . S
C943 C944 1.387 . S
C943 H946 0.950 . S
C944 C943 1.387 . S
C944 C947 1.387 . S
H945 C941 0.950 . S
H946 C943 0.950 . S
C947 C938 1.390 . S
C947 H940 0.950 . S
C947 C944 1.387 . S
C948 C949 1.387 . S
C948 H952 0.950 . S
C948 C957 1.390 . S
C949 C948 1.387 . S
C949 C951 1.387 . S
H950 C957 0.950 . S
C951 C949 1.387 . S
C951 C953 1.390 . S
C951 H955 0.950 . S
H952 C948 0.950 . S
C953 C951 1.390 . S
C953 C954 1.387 . S
C953 H956 0.950 . S
C954 C953 1.387 . S
C954 C957 1.387 . S
H955 C951 0.950 . S
H956 C953 0.950 . S
C957 C948 1.390 . S
C957 H950 0.950 . S
C957 C954 1.387 . S
C958 C959 1.387 . S
C958 H962 0.950 . S
C958 C967 1.390 . S
C959 C958 1.387 . S
C959 C961 1.387 . S
H960 C967 0.950 . S
C961 C959 1.387 . S
C961 C963 1.390 . S
C961 H965 0.950 . S
H962 C958 0.950 . S
C963 C961 1.390 . S
C963 C964 1.387 . S
C963 H966 0.950 . S
C964 C963 1.387 . S
C964 C967 1.387 . S
H965 C961 0.950 . S
H966 C963 0.950 . S
C967 C958 1.390 . S
C967 H960 0.950 . S
C967 C964 1.387 . S
C968 C969 1.387 . S
C968 H972 0.950 . S
C968 C977 1.390 . S
C969 C968 1.387 . S
C969 C971 1.387 . S
H970 C977 0.950 . S
C971 C969 1.387 . S
C971 C973 1.390 . S
C971 H975 0.950 . S
H972 C968 0.950 . S
C973 C971 1.390 . S
C973 C974 1.387 . S
C973 H976 0.950 . S
C974 C973 1.387 . S
C974 C977 1.387 . S
H975 C971 0.950 . S
H976 C973 0.950 . S
C977 C968 1.390 . S
C977 H970 0.950 . S
C977 C974 1.387 . S
C978 C979 1.387 . S
C978 H982 0.950 . S
C978 C987 1.390 . S
C979 C978 1.387 . S
C979 C981 1.387 . S
H980 C987 0.950 . S
C981 C979 1.387 . S
C981 C983 1.390 . S
C981 H985 0.950 . S
H982 C978 0.950 . S
C983 C981 1.390 . S
C983 C984 1.387 . S
C983 H986 0.950 . S
C984 C983 1.387 . S
C984 C987 1.387 . S
H985 C981 0.950 . S
H986 C983 0.950 . S
C987 C978 1.390 . S
C987 H980 0.950 . S
C987 C984 1.387 . S
C988 C989 1.387 . S
C988 H992 0.950 . S
C988 C997 1.390 . S
C989 C988 1.387 . S
C989 C991 1.387 . S
H990 C997 0.950 . S
C991 C989 1.387 . S
C991 C993 1.390 . S
C991 H995 0.950 . S
H992 C988 0.950 . S
C993 C991 1.390 . S
C993 C994 1.387 . S
C993 H996 0.950 . S
C994 C993 1.387 . S
C994 C997 1.387 . S
H995 C991 0.950 . S
H996 C993 0.950 . S
C997 C988 1.390 . S
C997 H990 0.950 . S
C997 C994 1.387 . S
C998 C999 1.387 . S
C998 H1002 0.950 . S
C998 C1007 1.390 . S
C999 C998 1.387 . S
C999 C1001 1.387 . S
H1000 C1007 0.950 . S
C1001 C999 1.387 . S
C1001 C1003 1.390 . S
C1001 H1005 0.950 . S
H1002 C998 0.950 . S
C1003 C1001 1.390 . S
C1003 C1004 1.387 . S
C1003 H1006 0.950 . S
C1004 C1003 1.387 . S
C1004 C1007 1.387 . S
H1005 C1001 0.950 . S
H1006 C1003 0.950 . S
C1007 C998 1.390 . S
C1007 H1000 0.950 . S
C1007 C1004 1.387 . S
C1008 C1009 1.387 . S
C1008 H1012 0.950 . S
C1008 C1017 1.390 . S
C1009 C1008 1.387 . S
C1009 C1011 1.387 . S
H1010 C1017 0.950 . S
C1011 C1009 1.387 . S
C1011 C1013 1.390 . S
C1011 H1015 0.950 . S
H1012 C1008 0.950 . S
C1013 C1011 1.390 . S
C1013 C1014 1.387 . S
C1013 H1016 0.950 . S
C1014 C1013 1.387 . S
C1014 C1017 1.387 . S
H1015 C1011 0.950 . S
H1016 C1013 0.950 . S
C1017 C1008 1.390 . S
C1017 H1010 0.950 . S
C1017 C1014 1.387 . S
C1018 C1019 1.387 . S
C1018 H1022 0.950 . S
C1018 C1027 1.390 . S
C1019 C1018 1.387 . S
C1019 C1021 1.387 . S
H1020 C1027 0.950 . S
C1021 C1019 1.387 . S
C1021 C1023 1.390 . S
C1021 H1025 0.950 . S
H1022 C1018 0.950 . S
C1023 C1021 1.390 . S
C1023 C1024 1.387 . S
C1023 H1026 0.950 . S
C1024 C1023 1.387 . S
C1024 C1027 1.387 . S
H1025 C1021 0.950 . S
H1026 C1023 0.950 . S
C1027 C1018 1.390 . S
C1027 H1020 0.950 . S
C1027 C1024 1.387 . S
C1028 C1029 1.387 . S
C1028 H1032 0.950 . S
C1028 C1037 1.390 . S
C1029 C1028 1.387 . S
C1029 C1031 1.387 . S
H1030 C1037 0.950 . S
C1031 C1029 1.387 . S
C1031 C1033 1.390 . S
C1031 H1035 0.950 . S
H1032 C1028 0.950 . S
C1033 C1031 1.390 . S
C1033 C1034 1.387 . S
C1033 H1036 0.950 . S
C1034 C1033 1.387 . S
C1034 C1037 1.387 . S
H1035 C1031 0.950 . S
H1036 C1033 0.950 . S
C1037 C1028 1.390 . S
C1037 H1030 0.950 . S
C1037 C1034 1.387 . S
C1038 C1039 1.387 . S
C1038 H1042 0.950 . S
C1038 C1047 1.390 . S
C1039 C1038 1.387 . S
C1039 C1041 1.387 . S
H1040 C1047 0.950 . S
C1041 C1039 1.387 . S
C1041 C1043 1.390 . S
C1041 H1045 0.950 . S
H1042 C1038 0.950 . S
C1043 C1041 1.390 . S
C1043 C1044 1.387 . S
C1043 H1046 0.950 . S
C1044 C1043 1.387 . S
C1044 C1047 1.387 . S
H1045 C1041 0.950 . S
H1046 C1043 0.950 . S
C1047 C1038 1.390 . S
C1047 H1040 0.950 . S
C1047 C1044 1.387 . S
C1048 C1049 1.387 . S
C1048 H1052 0.950 . S
C1048 C1057 1.390 . S
C1049 C1048 1.387 . S
C1049 C1051 1.387 . S
H1050 C1057 0.950 . S
C1051 C1049 1.387 . S
C1051 C1053 1.390 . S
C1051 H1055 0.950 1_565 S
H1052 C1048 0.950 . S
C1053 C1051 1.390 . S
C1053 C1054 1.387 . S
C1053 H1056 0.950 . S
C1054 C1053 1.387 . S
C1054 C1057 1.387 . S
H1055 C1051 0.950 1_545 S
H1056 C1053 0.950 . S
C1057 C1048 1.390 . S
C1057 H1050 0.950 . S
C1057 C1054 1.387 . S
C1058 C1059 1.387 . S
C1058 H1062 0.950 1_455 S
C1058 C1067 1.390 . S
C1059 C1058 1.387 . S
C1059 C1061 1.387 . S
H1060 C1067 0.950 . S
C1061 C1059 1.387 . S
C1061 C1063 1.390 . S
C1061 H1065 0.950 . S
H1062 C1058 0.950 1_655 S
C1063 C1061 1.390 . S
C1063 C1064 1.387 . S
C1063 H1066 0.950 . S
C1064 C1063 1.387 . S
C1064 C1067 1.387 . S
H1065 C1061 0.950 . S
H1066 C1063 0.950 . S
C1067 C1058 1.390 . S
C1067 H1060 0.950 . S
C1067 C1064 1.387 . S
C1068 C1069 1.387 . S
C1068 H1072 0.950 . S
C1068 C1077 1.390 . S
C1069 C1068 1.387 . S
C1069 C1071 1.387 . S
H1070 C1077 0.950 . S
C1071 C1069 1.387 . S
C1071 C1073 1.390 . S
C1071 H1075 0.950 . S
H1072 C1068 0.950 . S
C1073 C1071 1.390 . S
C1073 C1074 1.387 . S
C1073 H1076 0.950 . S
C1074 C1073 1.387 . S
C1074 C1077 1.387 . S
H1075 C1071 0.950 . S
H1076 C1073 0.950 . S
C1077 C1068 1.390 . S
C1077 H1070 0.950 . S
C1077 C1074 1.387 . S
C1078 C1079 1.387 . S
C1078 H1082 0.950 . S
C1078 C1087 1.390 . S
C1079 C1078 1.387 . S
C1079 C1081 1.387 . S
H1080 C1087 0.950 . S
C1081 C1079 1.387 . S
C1081 C1083 1.390 . S
C1081 H1085 0.950 . S
H1082 C1078 0.950 . S
C1083 C1081 1.390 . S
C1083 C1084 1.387 . S
C1083 H1086 0.950 . S
C1084 C1083 1.387 . S
C1084 C1087 1.387 . S
H1085 C1081 0.950 . S
H1086 C1083 0.950 . S
C1087 C1078 1.390 . S
C1087 H1080 0.950 . S
C1087 C1084 1.387 . S
C1088 C1089 1.387 . S
C1088 H1092 0.950 . S
C1088 C1097 1.390 . S
C1089 C1088 1.387 . S
C1089 C1091 1.387 . S
H1090 C1097 0.950 . S
C1091 C1089 1.387 . S
C1091 C1093 1.390 . S
C1091 H1095 0.950 . S
H1092 C1088 0.950 . S
C1093 C1091 1.390 . S
C1093 C1094 1.387 . S
C1093 H1096 0.950 . S
C1094 C1093 1.387 . S
C1094 C1097 1.387 . S
H1095 C1091 0.950 . S
H1096 C1093 0.950 . S
C1097 C1088 1.390 . S
C1097 H1090 0.950 . S
C1097 C1094 1.387 . S
C1098 C1099 1.387 . S
C1098 H1102 0.950 . S
C1098 C1107 1.390 . S
C1099 C1098 1.387 . S
C1099 C1101 1.387 . S
H1100 C1107 0.950 . S
C1101 C1099 1.387 . S
C1101 C1103 1.390 . S
C1101 H1105 0.950 . S
H1102 C1098 0.950 . S
C1103 C1101 1.390 . S
C1103 C1104 1.387 . S
C1103 H1106 0.950 . S
C1104 C1103 1.387 . S
C1104 C1107 1.387 . S
H1105 C1101 0.950 . S
H1106 C1103 0.950 . S
C1107 C1098 1.390 . S
C1107 H1100 0.950 . S
C1107 C1104 1.387 . S
C1108 C1109 1.387 . S
C1108 H1112 0.950 . S
C1108 C1117 1.390 . S
C1109 C1108 1.387 . S
C1109 C1111 1.387 . S
H1110 C1117 0.950 . S
C1111 C1109 1.387 . S
C1111 C1113 1.390 . S
C1111 H1115 0.950 . S
H1112 C1108 0.950 . S
C1113 C1111 1.390 . S
C1113 C1114 1.387 . S
C1113 H1116 0.950 . S
C1114 C1113 1.387 . S
C1114 C1117 1.387 . S
H1115 C1111 0.950 . S
H1116 C1113 0.950 . S
C1117 C1108 1.390 . S
C1117 H1110 0.950 . S
C1117 C1114 1.387 . S
C1118 C1119 1.387 . S
C1118 H1122 0.950 . S
C1118 C1127 1.390 . S
C1119 C1118 1.387 . S
C1119 C1121 1.387 . S
H1120 C1127 0.950 . S
C1121 C1119 1.387 . S
C1121 C1123 1.390 . S
C1121 H1125 0.950 . S
H1122 C1118 0.950 . S
C1123 C1121 1.390 . S
C1123 C1124 1.387 . S
C1123 H1126 0.950 . S
C1124 C1123 1.387 . S
C1124 C1127 1.387 . S
H1125 C1121 0.950 . S
H1126 C1123 0.950 . S
C1127 C1118 1.390 . S
C1127 H1120 0.950 . S
C1127 C1124 1.387 . S
C1128 C1129 1.387 . S
C1128 H1132 0.950 . S
C1128 C1137 1.397 . S
C1129 C1128 1.387 . S
C1129 C1131 1.387 . S
H1130 C1137 0.949 1_556 S
C1131 C1129 1.387 . S
C1131 C1133 1.390 1_554 S
C1131 H1135 0.950 . S
H1132 C1128 0.950 . S
C1133 C1131 1.390 1_556 S
C1133 C1134 1.387 . S
C1133 H1136 0.950 . S
C1134 C1133 1.387 . S
C1134 C1137 1.382 1_556 S
H1135 C1131 0.950 . S
H1136 C1133 0.950 . S
C1137 C1128 1.397 . S
C1137 H1130 0.949 1_554 S
C1137 C1134 1.382 1_554 S
C1138 C1139 1.387 1_556 S
C1138 H1142 0.950 . S
C1138 C1147 1.390 . S
C1139 C1138 1.387 1_554 S
C1139 C1141 1.387 . S
H1140 C1147 0.950 . S
C1141 C1139 1.387 . S
C1141 C1143 1.390 . S
C1141 H1145 0.950 . S
H1142 C1138 0.950 . S
C1143 C1141 1.390 . S
C1143 C1144 1.387 1_554 S
C1143 H1146 0.950 1_565 S
C1144 C1143 1.387 1_556 S
C1144 C1147 1.387 . S
H1145 C1141 0.950 . S
H1146 C1143 0.950 1_545 S
C1147 C1138 1.390 . S
C1147 H1140 0.950 . S
C1147 C1144 1.387 . S
C1148 C1149 1.387 . S
C1148 H1152 0.950 . S
C1148 C1157 1.390 . S
C1149 C1148 1.387 . S
C1149 C1151 1.387 1_554 S
H1150 C1157 0.950 . S
C1151 C1149 1.387 1_556 S
C1151 C1153 1.390 . S
C1151 H1155 0.950 . S
H1152 C1148 0.950 . S
C1153 C1151 1.390 . S
C1153 C1154 1.387 . S
C1153 H1156 0.950 . S
C1154 C1153 1.387 . S
C1154 C1157 1.387 1_556 S
H1155 C1151 0.950 . S
H1156 C1153 0.950 . S
C1157 C1148 1.390 . S
C1157 H1150 0.950 . S
C1157 C1154 1.387 1_554 S
C1158 C1159 1.387 . S
C1158 H1162 0.950 . S
C1158 C1167 1.390 . S
C1159 C1158 1.387 . S
C1159 C1161 1.387 . S
H1160 C1167 0.950 . S
C1161 C1159 1.387 . S
C1161 C1163 1.390 . S
C1161 H1165 0.950 . S
H1162 C1158 0.950 . S
C1163 C1161 1.390 . S
C1163 C1164 1.387 . S
C1163 H1166 0.950 . S
C1164 C1163 1.387 . S
C1164 C1167 1.387 . S
H1165 C1161 0.950 . S
H1166 C1163 0.950 . S
C1167 C1158 1.390 . S
C1167 H1160 0.950 . S
C1167 C1164 1.387 . S
C1168 C1169 1.387 . S
C1168 H1172 0.950 . S
C1168 C1177 1.390 . S
C1169 C1168 1.387 . S
C1169 C1171 1.387 . S
H1170 C1177 0.950 . S
C1171 C1169 1.387 . S
C1171 C1173 1.390 . S
C1171 H1175 0.950 . S
H1172 C1168 0.950 . S
C1173 C1171 1.390 . S
C1173 C1174 1.387 . S
C1173 H1176 0.950 . S
C1174 C1173 1.387 . S
C1174 C1177 1.387 . S
H1175 C1171 0.950 . S
H1176 C1173 0.950 . S
C1177 C1168 1.390 . S
C1177 H1170 0.950 . S
C1177 C1174 1.387 . S
C1178 C1179 1.387 . S
C1178 H1182 0.950 . S
C1178 C1187 1.390 . S
C1179 C1178 1.387 . S
C1179 C1181 1.387 . S
H1180 C1187 0.950 . S
C1181 C1179 1.387 . S
C1181 C1183 1.390 . S
C1181 H1185 0.950 . S
H1182 C1178 0.950 . S
C1183 C1181 1.390 . S
C1183 C1184 1.387 . S
C1183 H1186 0.950 . S
C1184 C1183 1.387 . S
C1184 C1187 1.387 . S
H1185 C1181 0.950 . S
H1186 C1183 0.950 . S
C1187 C1178 1.390 . S
C1187 H1180 0.950 . S
C1187 C1184 1.387 . S
C1188 C1189 1.387 . S
C1188 H1192 0.950 . S
C1188 C1197 1.390 1_554 S
C1189 C1188 1.387 . S
C1189 C1191 1.387 . S
H1190 C1197 0.950 . S
C1191 C1189 1.387 . S
C1191 C1193 1.390 1_554 S
C1191 H1195 0.950 . S
H1192 C1188 0.950 . S
C1193 C1191 1.390 1_556 S
C1193 C1194 1.387 . S
C1193 H1196 0.950 . S
C1194 C1193 1.387 . S
C1194 C1197 1.387 . S
H1195 C1191 0.950 . S
H1196 C1193 0.950 . S
C1197 C1188 1.390 1_556 S
C1197 H1190 0.950 . S
C1197 C1194 1.387 . S
C1198 C1199 1.387 1_554 S
C1198 H1202 0.950 . S
C1198 C1207 1.390 . S
C1199 C1198 1.387 1_556 S
C1199 C1201 1.387 . S
H1200 C1207 0.950 . S
C1201 C1199 1.387 . S
C1201 C1203 1.390 . S
C1201 H1205 0.950 . S
H1202 C1198 0.950 . S
C1203 C1201 1.390 . S
C1203 C1204 1.387 1_556 S
C1203 H1206 0.950 1_545 S
C1204 C1203 1.387 1_554 S
C1204 C1207 1.387 . S
H1205 C1201 0.950 . S
H1206 C1203 0.950 1_565 S
C1207 C1198 1.390 . S
C1207 H1200 0.950 . S
C1207 C1204 1.387 . S
C1208 C1209 1.387 . S
C1208 H1212 0.950 . S
C1208 C1217 1.390 . S
C1209 C1208 1.387 . S
C1209 C1211 1.387 1_556 S
H1210 C1217 0.950 1_455 S
C1211 C1209 1.387 1_554 S
C1211 C1213 1.390 . S
C1211 H1215 0.950 . S
H1212 C1208 0.950 . S
C1213 C1211 1.390 . S
C1213 C1214 1.387 . S
C1213 H1216 0.950 . S
C1214 C1213 1.387 . S
C1214 C1217 1.387 1_554 S
H1215 C1211 0.950 . S
H1216 C1213 0.950 . S
C1217 C1208 1.390 . S
C1217 H1210 0.950 1_655 S
C1217 C1214 1.387 1_556 S
C1218 C1219 1.387 . S
C1218 H1222 0.950 . S
C1218 C1227 1.390 . S
C1219 C1218 1.387 . S
C1219 C1221 1.387 . S
H1220 C1227 0.950 . S
C1221 C1219 1.387 . S
C1221 C1223 1.390 . S
C1221 H1225 0.950 . S
H1222 C1218 0.950 . S
C1223 C1221 1.390 . S
C1223 C1224 1.387 . S
C1223 H1226 0.950 . S
C1224 C1223 1.387 . S
C1224 C1227 1.387 . S
H1225 C1221 0.950 . S
H1226 C1223 0.950 . S
C1227 C1218 1.390 . S
C1227 H1220 0.950 . S
C1227 C1224 1.387 . S
C1228 C1229 1.387 . S
C1228 H1232 0.950 . S
C1228 C1237 1.390 . S
C1229 C1228 1.387 . S
C1229 C1231 1.387 . S
H1230 C1237 0.950 . S
C1231 C1229 1.387 . S
C1231 C1233 1.390 . S
C1231 H1235 0.950 . S
H1232 C1228 0.950 . S
C1233 C1231 1.390 . S
C1233 C1234 1.387 . S
C1233 H1236 0.950 1_545 S
C1234 C1233 1.387 . S
C1234 C1237 1.387 . S
H1235 C1231 0.950 . S
H1236 C1233 0.950 1_565 S
C1237 C1228 1.390 . S
C1237 H1230 0.950 . S
C1237 C1234 1.387 . S
C1238 C1239 1.387 . S
C1238 H1242 0.950 1_655 S
C1238 C1247 1.390 . S
C1239 C1238 1.387 . S
C1239 C1241 1.387 . S
H1240 C1247 0.950 . S
C1241 C1239 1.387 . S
C1241 C1243 1.390 . S
C1241 H1245 0.950 . S
H1242 C1238 0.950 1_455 S
C1243 C1241 1.390 . S
C1243 C1244 1.387 . S
C1243 H1246 0.950 . S
C1244 C1243 1.387 . S
C1244 C1247 1.387 . S
H1245 C1241 0.950 . S
H1246 C1243 0.950 . S
C1247 C1238 1.390 . S
C1247 H1240 0.950 . S
C1247 C1244 1.387 . S
C1248 C1249 1.387 . S
C1248 H1252 0.950 . S
C1248 C1257 1.390 . S
C1249 C1248 1.387 . S
C1249 C1251 1.387 . S
H1250 C1257 0.950 . S
C1251 C1249 1.387 . S
C1251 C1253 1.390 . S
C1251 H1255 0.950 . S
H1252 C1248 0.950 . S
C1253 C1251 1.390 . S
C1253 C1254 1.387 . S
C1253 H1256 0.950 . S
C1254 C1253 1.387 . S
C1254 C1257 1.387 . S
H1255 C1251 0.950 . S
H1256 C1253 0.950 . S
C1257 C1248 1.390 . S
C1257 H1250 0.950 . S
C1257 C1254 1.387 . S
C1258 C1259 1.387 . S
C1258 H1262 0.950 . S
C1258 C1267 1.390 . S
C1259 C1258 1.387 . S
C1259 C1261 1.387 . S
H1260 C1267 0.950 . S
C1261 C1259 1.387 . S
C1261 C1263 1.390 . S
C1261 H1265 0.950 . S
H1262 C1258 0.950 . S
C1263 C1261 1.390 . S
C1263 C1264 1.387 . S
C1263 H1266 0.950 . S
C1264 C1263 1.387 . S
C1264 C1267 1.387 . S
H1265 C1261 0.950 . S
H1266 C1263 0.950 . S
C1267 C1258 1.390 . S
C1267 H1260 0.950 . S
C1267 C1264 1.387 . S
C1268 C1269 1.387 . S
C1268 H1272 0.950 . S
C1268 C1277 1.390 . S
C1269 C1268 1.387 . S
C1269 C1271 1.387 . S
H1270 C1277 0.950 . S
C1271 C1269 1.387 . S
C1271 C1273 1.390 . S
C1271 H1275 0.950 . S
H1272 C1268 0.950 . S
C1273 C1271 1.390 . S
C1273 C1274 1.387 . S
C1273 H1276 0.950 . S
C1274 C1273 1.387 . S
C1274 C1277 1.387 . S
H1275 C1271 0.950 . S
H1276 C1273 0.950 . S
C1277 C1268 1.390 . S
C1277 H1270 0.950 . S
C1277 C1274 1.387 . S
C559 C219 0.291 . S
C564 C20 0.114 . S
C569 C33 0.261 . S
C574 C277 0.270 . S
C579 C215 0.194 . S
C584 C82 0.128 . S
C589 C405 0.299 . S
C594 C64 0.292 . S
C599 C435 0.121 . S
C604 C2 0.275 . S
C609 C373 0.149 . S
C614 C51 0.136 . S
C619 C94 0.158 . S
C624 C516 0.128 . S
C629 C126 0.308 . S
C634 C556 0.291 . S
C639 C156 0.118 . S
C644 C494 0.273 . S
C649 C184 0.335 . S
C654 C312 0.275 . S
C659 C122 0.294 . S
C664 C343 0.307 . S
C669 C144 0.161 . S
C674 C281 0.215 . S
C679 C187 0.097 . S
C684 C423 0.133 . S
C689 C237 0.176 . S
C694 C463 0.309 . S
C699 C401 0.227 . S
C704 C249 0.184 . S
C709 C498 0.220 . S
C714 C361 0.186 . S
C719 C299 0.119 . S
C724 C528 0.152 . S
C729 C466 0.051 . S
C734 C330 0.232 . S
C739 C113 1.668 . S
C744 C1 1.665 . S
C749 C153 1.845 . S
C754 C60 1.846 . S
C759 C63 1.699 . S
C764 C175 1.697 . S
C769 C157 1.880 . S
C774 C91 1.878 . S
C779 C29 1.845 . S
C784 C95 1.842 . S
C789 C32 1.703 . S
C794 C125 1.702 . S
C799 C308 1.719 . S
C804 C206 1.761 . S
C809 C339 1.719 . S
C814 C218 1.761 . S
C819 C370 1.778 . S
C824 C268 1.821 . S
C829 C342 1.806 . S
C834 C250 1.763 . S
C839 C280 1.744 . S
C844 C188 1.702 . S
C849 C311 1.801 . S
C854 C246 1.757 . S
C859 C485 1.642 . S
C864 C392 1.645 . S
C869 C525 1.824 . S
C874 C432 1.822 . S
C879 C454 1.677 . S
C884 C547 1.680 . S
C889 C436 1.859 . S
C894 C529 1.856 . S
C899 C374 1.824 . S
C904 C467 1.826 . S
C909 C404 1.677 . S
C914 C497 1.679 . S
C919 C0 1.936 . S
C924 C351 1.966 . S
C929 C289 1.835 . S
C934 C61 1.932 . S
C939 C320 1.946 . S
C944 C62 1.925 . S
C949 C92 1.969 . S
C954 C495 1.876 . S
C959 C515 1.925 . S
C964 C30 1.995 . S
C969 C557 1.956 . S
C974 C31 1.931 . S
C979 C434 2.041 . S
C984 C112 1.973 . S
C989 C154 2.008 . S
C994 C372 1.936 . S
C999 C174 1.939 . S
C1004 C413 1.968 . S
C1009 C216 1.878 . S
C1014 C165 1.975 . S
C1019 C103 1.992 . S
C1024 C227 1.895 . S
C1029 C124 1.979 . S
C1034 C278 2.004 . S
C1039 C205 1.942 . S
C1044 C527 1.991 . S
C1049 C465 2.001 1_565 S
C1054 C217 1.946 . S
C1059 C506 1.930 1_455 S
C1064 C267 1.906 . S
C1069 C123 1.893 . S
C1074 C258 2.000 . S
C1079 C196 2.037 . S
C1084 C143 1.959 . S
C1089 C185 1.889 . S
C1094 C247 1.996 . S
C1099 C309 2.060 . S
C1104 C81 1.980 . S
C1109 C340 2.066 . S
C1114 C19 1.993 . S
C1119 C371 2.024 . S
C1124 C41 1.912 . S
C1129 C341 1.889 . S
C1134 C402 1.913 . S
C1139 C279 1.922 . S
C1144 C422 1.969 1_565 S
C1149 C310 1.883 . S
C1154 C464 1.907 1_455 S
C1159 C155 2.026 . S
C1164 C391 1.959 . S
C1169 C93 1.919 . S
C1174 C433 1.993 . S
C1179 C453 1.927 . S
C1184 C134 1.959 . S
C1189 C298 1.919 . S
C1194 C444 1.985 . S
C1199 C382 2.003 . S
C1204 C329 1.928 1_545 S
C1209 C403 1.997 . S
C1214 C360 2.058 1_655 S
C1219 C248 2.015 . S
C1224 C484 1.955 . S
C1229 C526 1.940 . S
C1234 C186 1.874 1_545 S
C1239 C236 2.001 1_655 S
C1244 C546 1.942 . S
C1249 C537 1.955 . S
C1254 C10 1.866 . S
C1259 C50 1.908 . S
C1264 C475 1.980 . S
C1269 C72 1.944 . S
C1274 C496 1.916 . S
