# Generated by pormake.
# Topology fny, (5)-cn, num edge types: 1
# Building blocks:
#     Node 0, Type 0, BuildingBlock: BEQFEK_clean_sbu_0, # of connection points: 5
#     Node 1, Type 0, BuildingBlock: BEQFEK_clean_sbu_0, # of connection points: 5
#     Node 2, Type 0, BuildingBlock: BEQFEK_clean_sbu_0, # of connection points: 5
#     Node 3, Type 0, BuildingBlock: BEQFEK_clean_sbu_0, # of connection points: 5
#     Node 4, Type 0, BuildingBlock: BEQFEK_clean_sbu_0, # of connection points: 5
#     Node 5, Type 0, BuildingBlock: BEQFEK_clean_sbu_0, # of connection points: 5
#     Node 6, Type 0, BuildingBlock: BEQFEK_clean_sbu_0, # of connection points: 5
#     Node 7, Type 0, BuildingBlock: BEQFEK_clean_sbu_0, # of connection points: 5
#     Node 8, Type 0, BuildingBlock: BEQFEK_clean_sbu_0, # of connection points: 5
#     Node 9, Type 0, BuildingBlock: BEQFEK_clean_sbu_0, # of connection points: 5
#     Node 10, Type 0, BuildingBlock: BEQFEK_clean_sbu_0, # of connection points: 5
#     Node 11, Type 0, BuildingBlock: BEQFEK_clean_sbu_0, # of connection points: 5
#     Edge 12, Type (0, 0), BuildingBlock: XIVTED_clean_linker_0, # of connection points: 2
#     Edge 13, Type (0, 0), BuildingBlock: XIVTED_clean_linker_0, # of connection points: 2
#     Edge 14, Type (0, 0), BuildingBlock: XIVTED_clean_linker_0, # of connection points: 2
#     Edge 15, Type (0, 0), BuildingBlock: XIVTED_clean_linker_0, # of connection points: 2
#     Edge 16, Type (0, 0), BuildingBlock: XIVTED_clean_linker_0, # of connection points: 2
#     Edge 17, Type (0, 0), BuildingBlock: XIVTED_clean_linker_0, # of connection points: 2
#     Edge 18, Type (0, 0), BuildingBlock: XIVTED_clean_linker_0, # of connection points: 2
#     Edge 19, Type (0, 0), BuildingBlock: XIVTED_clean_linker_0, # of connection points: 2
#     Edge 20, Type (0, 0), BuildingBlock: XIVTED_clean_linker_0, # of connection points: 2
#     Edge 21, Type (0, 0), BuildingBlock: XIVTED_clean_linker_0, # of connection points: 2
#     Edge 22, Type (0, 0), BuildingBlock: XIVTED_clean_linker_0, # of connection points: 2
#     Edge 23, Type (0, 0), BuildingBlock: XIVTED_clean_linker_0, # of connection points: 2
#     Edge 24, Type (0, 0), BuildingBlock: XIVTED_clean_linker_0, # of connection points: 2
#     Edge 25, Type (0, 0), BuildingBlock: XIVTED_clean_linker_0, # of connection points: 2
#     Edge 26, Type (0, 0), BuildingBlock: XIVTED_clean_linker_0, # of connection points: 2
#     Edge 27, Type (0, 0), BuildingBlock: XIVTED_clean_linker_0, # of connection points: 2
#     Edge 28, Type (0, 0), BuildingBlock: XIVTED_clean_linker_0, # of connection points: 2
#     Edge 29, Type (0, 0), BuildingBlock: XIVTED_clean_linker_0, # of connection points: 2
#     Edge 30, Type (0, 0), BuildingBlock: XIVTED_clean_linker_0, # of connection points: 2
#     Edge 31, Type (0, 0), BuildingBlock: XIVTED_clean_linker_0, # of connection points: 2
#     Edge 32, Type (0, 0), BuildingBlock: XIVTED_clean_linker_0, # of connection points: 2
#     Edge 33, Type (0, 0), BuildingBlock: XIVTED_clean_linker_0, # of connection points: 2
#     Edge 34, Type (0, 0), BuildingBlock: XIVTED_clean_linker_0, # of connection points: 2
#     Edge 35, Type (0, 0), BuildingBlock: XIVTED_clean_linker_0, # of connection points: 2
#     Edge 36, Type (0, 0), BuildingBlock: XIVTED_clean_linker_0, # of connection points: 2
#     Edge 37, Type (0, 0), BuildingBlock: XIVTED_clean_linker_0, # of connection points: 2
#     Edge 38, Type (0, 0), BuildingBlock: XIVTED_clean_linker_0, # of connection points: 2
#     Edge 39, Type (0, 0), BuildingBlock: XIVTED_clean_linker_0, # of connection points: 2
#     Edge 40, Type (0, 0), BuildingBlock: XIVTED_clean_linker_0, # of connection points: 2
#     Edge 41, Type (0, 0), BuildingBlock: XIVTED_clean_linker_0, # of connection points: 2
# Relax obj value: 0.262
# Max RMSD: 0.110
# Mean RMSD: 0.110
data_MOF--net-fny--node1-BEQFEK_clean_sbu_0--edge1-XIVTED_clean_linker_0
_symmetry_space_group_name_H-M    P1
_symmetry_Int_Tables_number       1
_symmetry_cell_setting            triclinic
loop_
_symmetry_equiv_pos_as_xyz
'x, y, z'
_cell_length_a     62.220673
_cell_length_b     62.191113
_cell_length_c     23.859125
_cell_angle_alpha  90.057719
_cell_angle_beta   89.983043
_cell_angle_gamma 119.84459
loop_
_atom_site_label
_atom_site_type_symbol
_atom_site_fract_x
_atom_site_fract_y
_atom_site_fract_z
_atom_type_partial_charge
Co0 Co 0.40653 0.53021 0.29788 0.0
Co1 Co 0.36548 0.49514 0.22068 0.0
C2 C 0.40661 0.5436 0.17599 0.0
O3 O 0.4161 0.54836 0.22493 0.0
O4 O 0.38621 0.52354 0.16671 0.0
C5 C 0.45163 0.55217 0.34516 0.0
O6 O 0.45739 0.54769 0.29523 0.0
C7 C 0.32573 0.46933 0.13878 0.0
C8 C 0.3062 0.43167 0.17574 0.0
C9 C 0.30638 0.4454 0.13001 0.0
N10 N 0.33678 0.46957 0.18705 0.0
N11 N 0.3251 0.44707 0.20894 0.0
C12 C 0.33271 0.49202 0.1045 0.0
H13 H 0.34085 0.50869 0.13175 0.0
H14 H 0.31636 0.49054 0.0823 0.0
H15 H 0.34681 0.49423 0.07304 0.0
C16 C 0.36397 0.52566 0.36748 0.0
N17 N 0.37375 0.52086 0.3217 0.0
N18 N 0.35578 0.50574 0.28829 0.0
C19 C 0.33385 0.50069 0.31154 0.0
C20 C 0.33812 0.51307 0.36301 0.0
C21 C 0.37916 0.5407 0.41623 0.0
H22 H 0.39459 0.53699 0.42389 0.0
H23 H 0.38728 0.56067 0.40623 0.0
H24 H 0.36782 0.53644 0.45483 0.0
O25 O 0.412 0.50139 0.29664 0.0
O26 O 0.38403 0.47712 0.23544 0.0
H27 H 0.3031 0.46525 0.29119 0.0
H28 H 0.29512 0.48924 0.30065 0.0
C29 C 0.30929 0.4851 0.2838 0.0
H30 H 0.31104 0.48845 0.23796 0.0
H31 H 0.33015 0.44222 0.24654 0.0
O32 O 0.43056 0.55022 0.35327 0.0
C33 C 0.40195 0.48168 0.26786 0.0
Co34 Co 0.89038 0.39073 0.79301 0.0
Co35 Co 0.8882 0.35104 0.7148 0.0
C36 C 0.87873 0.38936 0.66786 0.0
O37 O 0.88359 0.3988 0.7166 0.0
O38 O 0.8781 0.36886 0.65891 0.0
C39 C 0.85801 0.40465 0.83221 0.0
O40 O 0.84373 0.38686 0.79734 0.0
C41 C 0.88681 0.3188 0.62431 0.0
C42 C 0.88564 0.28748 0.67039 0.0
C43 C 0.88413 0.29534 0.61683 0.0
N44 N 0.88835 0.32366 0.67942 0.0
N45 N 0.88871 0.30537 0.70661 0.0
C46 C 0.89099 0.3378 0.58072 0.0
H47 H 0.90359 0.35666 0.59727 0.0
H48 H 0.87306 0.33655 0.56985 0.0
H49 H 0.89956 0.3351 0.54253 0.0
C50 C 0.85773 0.34631 0.86437 0.0
N51 N 0.87034 0.3569 0.81659 0.0
N52 N 0.86662 0.33946 0.7804 0.0
C53 C 0.84984 0.3172 0.80271 0.0
C54 C 0.8439 0.32069 0.85739 0.0
C55 C 0.85906 0.3603 0.91661 0.0
H56 H 0.87225 0.38033 0.91219 0.0
H57 H 0.84032 0.35704 0.92726 0.0
H58 H 0.86544 0.3535 0.95219 0.0
O59 O 0.92605 0.40137 0.79864 0.0
O60 O 0.92404 0.37407 0.73577 0.0
H61 H 0.84923 0.28295 0.78887 0.0
H62 H 0.81978 0.281 0.78115 0.0
C63 C 0.83984 0.29291 0.77291 0.0
H64 H 0.8427 0.29577 0.72707 0.0
H65 H 0.8904 0.30481 0.75001 0.0
O66 O 0.88062 0.41045 0.83768 0.0
C67 C 0.93662 0.39236 0.76862 0.0
Co68 Co 0.51829 0.8822 0.29677 0.0
Co69 Co 0.55627 0.87713 0.22673 0.0
C70 C 0.50811 0.86669 0.17489 0.0
O71 O 0.5022 0.87187 0.22207 0.0
O72 O 0.52878 0.86713 0.16885 0.0
C73 C 0.49274 0.90382 0.33332 0.0
O74 O 0.49869 0.91329 0.28276 0.0
C75 C 0.58602 0.8638 0.15419 0.0
C76 C 0.62116 0.88033 0.20217 0.0
C77 C 0.60977 0.8672 0.15409 0.0
N78 N 0.58354 0.87474 0.20016 0.0
N79 N 0.60464 0.8848 0.22834 0.0
C80 C 0.56538 0.84885 0.11409 0.0
H81 H 0.54752 0.83911 0.13698 0.0
H82 H 0.56853 0.83508 0.09136 0.0
H83 H 0.56414 0.8615 0.08316 0.0
C84 C 0.52318 0.84602 0.37249 0.0
N85 N 0.52864 0.86029 0.32604 0.0
N86 N 0.54486 0.85778 0.29567 0.0
C87 C 0.54996 0.84141 0.32164 0.0
C88 C 0.53651 0.83338 0.37173 0.0
C89 C 0.50635 0.84549 0.41791 0.0
H90 H 0.50836 0.86412 0.42306 0.0
H91 H 0.48688 0.83237 0.40588 0.0
H92 H 0.5104 0.83944 0.45836 0.0
O93 O 0.54592 0.91697 0.29454 0.0
O94 O 0.57197 0.91389 0.23735 0.0
H95 H 0.58579 0.84585 0.30701 0.0
H96 H 0.56161 0.81406 0.31493 0.0
C97 C 0.56616 0.83234 0.29727 0.0
H98 H 0.56391 0.83067 0.25111 0.0
H99 H 0.60758 0.89436 0.26609 0.0
O100 O 0.49562 0.8856 0.34614 0.0
C101 C 0.56588 0.92704 0.26668 0.0
Co102 Co 0.66072 0.51276 0.79887 0.0
Co103 Co 0.70239 0.5449 0.71899 0.0
C104 C 0.6596 0.49595 0.67964 0.0
O105 O 0.65003 0.4926 0.72837 0.0
O106 O 0.68047 0.51526 0.66921 0.0
C107 C 0.61594 0.4934 0.85027 0.0
O108 O 0.60958 0.49795 0.80113 0.0
C109 C 0.73675 0.57025 0.62664 0.0
C110 C 0.76804 0.60106 0.67144 0.0
C111 C 0.7602 0.59074 0.61871 0.0
N112 N 0.73162 0.56817 0.68162 0.0
N113 N 0.75002 0.58704 0.70792 0.0
C114 C 0.71794 0.55503 0.58306 0.0
H115 H 0.69913 0.55007 0.59777 0.0
H116 H 0.7184 0.53763 0.57588 0.0
H117 H 0.72153 0.56535 0.54306 0.0
C118 C 0.70226 0.51692 0.87051 0.0
N119 N 0.69324 0.52149 0.82319 0.0
N120 N 0.71156 0.53474 0.7886 0.0
C121 C 0.73291 0.5382 0.81244 0.0
C122 C 0.72791 0.52737 0.86574 0.0
C123 C 0.68659 0.50394 0.92045 0.0
H124 H 0.67594 0.48373 0.9119 0.0
H125 H 0.69796 0.50732 0.9587 0.0
H126 H 0.67315 0.51043 0.9279 0.0
O127 O 0.65684 0.54221 0.79258 0.0
O128 O 0.68532 0.56488 0.73057 0.0
H129 H 0.76855 0.56922 0.7943 0.0
H130 H 0.76787 0.5401 0.79671 0.0
C131 C 0.75738 0.54932 0.78311 0.0
H132 H 0.75474 0.54741 0.73706 0.0
H133 H 0.75012 0.59053 0.75072 0.0
O134 O 0.63698 0.49511 0.85677 0.0
C135 C 0.66754 0.56144 0.76246 0.0
Co136 Co 0.17328 0.64647 0.28902 0.0
Co137 Co 0.1779 0.68888 0.21774 0.0
C138 C 0.18765 0.65026 0.1669 0.0
O139 O 0.18299 0.63971 0.21461 0.0
O140 O 0.18717 0.67047 0.16028 0.0
C141 C 0.15146 0.60022 0.32972 0.0
O142 O 0.14207 0.59538 0.27895 0.0
C143 C 0.19149 0.73152 0.14378 0.0
C144 C 0.17488 0.75053 0.19028 0.0
C145 C 0.18819 0.75196 0.14271 0.0
N146 N 0.18034 0.71837 0.18979 0.0
N147 N 0.17023 0.72965 0.21708 0.0
C148 C 0.20663 0.72557 0.1047 0.0
H149 H 0.21581 0.71698 0.12821 0.0
H150 H 0.22086 0.74243 0.08287 0.0
H151 H 0.19421 0.71205 0.07293 0.0
C152 C 0.20984 0.68777 0.36305 0.0
N153 N 0.19538 0.67881 0.31692 0.0
N154 N 0.19774 0.69736 0.28617 0.0
C155 C 0.21424 0.71888 0.31163 0.0
C156 C 0.22254 0.71368 0.3617 0.0
C157 C 0.21039 0.67165 0.40889 0.0
H158 H 0.19152 0.6557 0.41576 0.0
H159 H 0.22263 0.66426 0.39613 0.0
H160 H 0.21737 0.6821 0.44868 0.0
O161 O 0.13853 0.63946 0.28733 0.0
O162 O 0.14117 0.66826 0.22982 0.0
H163 H 0.20942 0.75004 0.29647 0.0
H164 H 0.24131 0.75783 0.30445 0.0
C165 C 0.22306 0.744 0.28692 0.0
H166 H 0.22467 0.74326 0.24077 0.0
H167 H 0.16055 0.72329 0.25472 0.0
O168 O 0.17015 0.62127 0.34022 0.0
C169 C 0.12824 0.64921 0.25967 0.0
Co170 Co 0.54947 0.15947 0.80427 0.0
Co171 Co 0.51104 0.16161 0.72923 0.0
C172 C 0.55821 0.17143 0.67859 0.0
O173 O 0.56328 0.16665 0.72697 0.0
O174 O 0.53804 0.17169 0.67054 0.0
C175 C 0.59643 0.19082 0.84205 0.0
O176 O 0.59421 0.20485 0.80402 0.0
C177 C 0.47966 0.17133 0.65415 0.0
C178 C 0.44398 0.15304 0.69992 0.0
C179 C 0.45545 0.1666 0.65238 0.0
N180 N 0.48234 0.16071 0.70038 0.0
N181 N 0.46092 0.14955 0.72725 0.0
C182 C 0.5006 0.18773 0.61608 0.0
H183 H 0.51778 0.19865 0.64088 0.0
H184 H 0.49648 0.20054 0.59215 0.0
H185 H 0.50387 0.176 0.58611 0.0
C186 C 0.53987 0.19377 0.8756 0.0
N187 N 0.53646 0.18007 0.82886 0.0
N188 N 0.52123 0.18258 0.79507 0.0
C189 C 0.51503 0.19864 0.8187 0.0
C190 C 0.52678 0.2065 0.87082 0.0
C191 C 0.55318 0.19269 0.9268 0.0
H192 H 0.55455 0.17559 0.92706 0.0
H193 H 0.572 0.20908 0.92765 0.0
H194 H 0.54339 0.19327 0.96519 0.0
O195 O 0.52437 0.12353 0.80984 0.0
O196 O 0.49903 0.12597 0.74821 0.0
H197 H 0.47901 0.19289 0.80019 0.0
H198 H 0.50243 0.22502 0.80764 0.0
C199 C 0.49863 0.20674 0.79133 0.0
H200 H 0.50141 0.20787 0.74529 0.0
H201 H 0.45809 0.14018 0.76519 0.0
O202 O 0.57882 0.16868 0.8489 0.0
C203 C 0.50484 0.11314 0.77984 0.0
Co204 Co 0.52489 0.64798 0.73292 0.0
Co205 Co 0.56052 0.69076 0.80581 0.0
C206 C 0.51319 0.65026 0.8555 0.0
O207 O 0.50815 0.64003 0.80734 0.0
O208 O 0.53314 0.67098 0.8631 0.0
C209 C 0.50159 0.60121 0.69485 0.0
O210 O 0.50721 0.5976 0.74569 0.0
C211 C 0.58812 0.73343 0.88091 0.0
C212 C 0.62352 0.75355 0.83433 0.0
C213 C 0.61147 0.75431 0.88227 0.0
N214 N 0.58653 0.72069 0.83434 0.0
N215 N 0.60778 0.73265 0.80699 0.0
C216 C 0.56701 0.7266 0.92043 0.0
H217 H 0.54916 0.71698 0.89745 0.0
H218 H 0.5687 0.74323 0.94177 0.0
H219 H 0.56703 0.71374 0.95261 0.0
C220 C 0.52744 0.68876 0.65987 0.0
N221 N 0.53317 0.68002 0.70607 0.0
N222 N 0.54842 0.6987 0.73777 0.0
C223 C 0.55262 0.72006 0.71287 0.0
C224 C 0.53957 0.71465 0.66216 0.0
C225 C 0.51178 0.67258 0.61294 0.0
H226 H 0.51504 0.65673 0.60724 0.0
H227 H 0.49196 0.66508 0.6237 0.0
H228 H 0.51582 0.68309 0.57312 0.0
O229 O 0.55405 0.64322 0.73306 0.0
O230 O 0.57878 0.67227 0.79175 0.0
H231 H 0.5877 0.7521 0.72913 0.0
H232 H 0.56264 0.75854 0.72122 0.0
C233 C 0.56786 0.7452 0.73841 0.0
H234 H 0.56534 0.74413 0.78451 0.0
H235 H 0.61138 0.72668 0.76904 0.0
O236 O 0.50403 0.62211 0.68177 0.0
C237 C 0.57411 0.65395 0.76044 0.0
Co238 Co 0.89485 0.50733 0.22888 0.0
Co239 Co 0.89417 0.54772 0.2997 0.0
C240 C 0.8832 0.50076 0.35441 0.0
O241 O 0.88757 0.49471 0.30673 0.0
O242 O 0.88376 0.52143 0.36061 0.0
C243 C 0.86355 0.45939 0.19594 0.0
O244 O 0.84942 0.46222 0.2327 0.0
C245 C 0.87758 0.57684 0.36134 0.0
C246 C 0.90272 0.61485 0.33051 0.0
C247 C 0.88212 0.60099 0.36361 0.0
N248 N 0.8945 0.5763 0.32776 0.0
N249 N 0.90979 0.5991 0.31018 0.0
C250 C 0.8572 0.55434 0.38929 0.0
H251 H 0.86514 0.54932 0.42524 0.0
H252 H 0.8494 0.53841 0.35984 0.0
H253 H 0.84231 0.55759 0.4052 0.0
C254 C 0.86048 0.51592 0.15569 0.0
N255 N 0.8745 0.52023 0.20224 0.0
N256 N 0.87304 0.53684 0.23345 0.0
C257 C 0.85754 0.5433 0.20784 0.0
C258 C 0.84881 0.53007 0.15761 0.0
C259 C 0.85997 0.50037 0.10728 0.0
H260 H 0.87679 0.49853 0.10681 0.0
H261 H 0.84332 0.48178 0.1107 0.0
H262 H 0.85866 0.50865 0.06712 0.0
O263 O 0.93085 0.53214 0.22217 0.0
O264 O 0.92976 0.55934 0.28066 0.0
H265 H 0.86744 0.57981 0.23532 0.0
H266 H 0.83667 0.56273 0.2056 0.0
C267 C 0.85063 0.56129 0.23166 0.0
H268 H 0.8428 0.55511 0.27407 0.0
H269 H 0.92429 0.6037 0.28207 0.0
O270 O 0.88547 0.47712 0.18744 0.0
C271 C 0.94191 0.55237 0.24977 0.0
Co272 Co 0.40916 0.88231 0.72876 0.0
Co273 Co 0.3661 0.87669 0.79959 0.0
C274 C 0.40408 0.86618 0.85004 0.0
O275 O 0.41512 0.8716 0.80284 0.0
O276 O 0.3838 0.86649 0.85647 0.0
C277 C 0.4562 0.90431 0.69141 0.0
O278 O 0.45985 0.91373 0.74208 0.0
C279 C 0.32316 0.8628 0.87276 0.0
C280 C 0.30431 0.87954 0.8262 0.0
C281 C 0.30273 0.86612 0.87366 0.0
N282 N 0.33644 0.87404 0.82694 0.0
N283 N 0.32526 0.88422 0.79962 0.0
C284 C 0.32903 0.84764 0.91192 0.0
H285 H 0.33729 0.83816 0.88832 0.0
H286 H 0.31222 0.83365 0.9343 0.0
H287 H 0.34281 0.86012 0.94319 0.0
C288 C 0.36823 0.84654 0.65225 0.0
N289 N 0.37698 0.86053 0.69918 0.0
N290 N 0.35827 0.85777 0.72991 0.0
C291 C 0.33689 0.84151 0.70372 0.0
C292 C 0.34231 0.8338 0.65308 0.0
C293 C 0.38453 0.84637 0.60634 0.0
H294 H 0.39101 0.83321 0.61748 0.0
H295 H 0.37443 0.84058 0.56587 0.0
H296 H 0.40102 0.86506 0.60171 0.0
O297 O 0.41615 0.91706 0.73286 0.0
O298 O 0.38698 0.91353 0.79042 0.0
H299 H 0.30539 0.8457 0.71941 0.0
H300 H 0.29807 0.81399 0.7103 0.0
C301 C 0.31168 0.83221 0.72838 0.0
H302 H 0.31235 0.83031 0.77444 0.0
H303 H 0.33175 0.89401 0.76216 0.0
O304 O 0.43514 0.88609 0.67871 0.0
C305 C 0.40623 0.92693 0.76155 0.0
Co306 Co 0.54091 0.39052 0.23958 0.0
Co307 Co 0.50456 0.34781 0.31215 0.0
C308 C 0.55262 0.38767 0.36154 0.0
O309 O 0.55794 0.39793 0.31349 0.0
O310 O 0.53232 0.36728 0.369 0.0
C311 C 0.56575 0.4375 0.20272 0.0
O312 O 0.56021 0.44103 0.25373 0.0
C313 C 0.47809 0.30517 0.38752 0.0
C314 C 0.44171 0.28522 0.34477 0.0
C315 C 0.45476 0.28433 0.39071 0.0
N316 N 0.47872 0.31799 0.34188 0.0
N317 N 0.45689 0.30613 0.31681 0.0
C318 C 0.50004 0.31184 0.4242 0.0
H319 H 0.5173 0.32093 0.39899 0.0
H320 H 0.49849 0.29522 0.44522 0.0
H321 H 0.50117 0.32514 0.4567 0.0
C322 C 0.53678 0.34964 0.16488 0.0
N323 N 0.53158 0.35836 0.2119 0.0
N324 N 0.51599 0.33967 0.24307 0.0
C325 C 0.51099 0.31828 0.21683 0.0
C326 C 0.52391 0.32374 0.16593 0.0
C327 C 0.55259 0.36594 0.11832 0.0
H328 H 0.54932 0.38179 0.11281 0.0
H329 H 0.57237 0.37347 0.12943 0.0
H330 H 0.54869 0.35558 0.07826 0.0
O331 O 0.51234 0.39615 0.24154 0.0
O332 O 0.48689 0.36699 0.29924 0.0
H333 H 0.47526 0.28715 0.23293 0.0
H334 H 0.4992 0.27926 0.22207 0.0
C335 C 0.49498 0.29303 0.24109 0.0
H336 H 0.49781 0.29349 0.28704 0.0
H337 H 0.45252 0.31214 0.27995 0.0
O338 O 0.56207 0.41625 0.18841 0.0
C339 C 0.49223 0.38572 0.26877 0.0
Co340 Co 0.16731 0.53044 0.72453 0.0
Co341 Co 0.17288 0.4934 0.7965 0.0
C342 C 0.18334 0.5426 0.84492 0.0
O343 O 0.17796 0.54803 0.79745 0.0
O344 O 0.18292 0.52197 0.85197 0.0
C345 C 0.14459 0.55428 0.68306 0.0
O346 O 0.13497 0.54948 0.7336 0.0
C347 C 0.19501 0.46819 0.85672 0.0
C348 C 0.16683 0.42886 0.84212 0.0
C349 C 0.18966 0.44408 0.86613 0.0
N350 N 0.17628 0.46734 0.82732 0.0
N351 N 0.15946 0.44382 0.8189 0.0
C352 C 0.21692 0.4916 0.87726 0.0
H353 H 0.21656 0.49197 0.92375 0.0
H354 H 0.21669 0.50808 0.86038 0.0
H355 H 0.23439 0.49228 0.86464 0.0
C356 C 0.20354 0.52551 0.64965 0.0
N357 N 0.18933 0.52007 0.69616 0.0
N358 N 0.19157 0.50361 0.72619 0.0
C359 C 0.20737 0.49795 0.69921 0.0
C360 C 0.2157 0.51173 0.64955 0.0
C361 C 0.20449 0.54285 0.60502 0.0
H362 H 0.18545 0.53895 0.59536 0.0
H363 H 0.21515 0.56216 0.62083 0.0
H364 H 0.21328 0.5411 0.56612 0.0
O365 O 0.13274 0.50261 0.72868 0.0
O366 O 0.13605 0.47696 0.78658 0.0
H367 H 0.19896 0.46254 0.73172 0.0
H368 H 0.22773 0.47802 0.69288 0.0
C369 C 0.21546 0.48072 0.72214 0.0
H370 H 0.2258 0.48858 0.76157 0.0
H371 H 0.14306 0.43793 0.7965 0.0
O372 O 0.16299 0.55141 0.67217 0.0
C373 C 0.12279 0.48277 0.75694 0.0
Co374 Co 0.65951 0.16084 0.23298 0.0
Co375 Co 0.70062 0.16096 0.30284 0.0
C376 C 0.66504 0.1722 0.35862 0.0
O377 O 0.65468 0.16786 0.31107 0.0
O378 O 0.68517 0.17172 0.36443 0.0
C379 C 0.64488 0.19423 0.20612 0.0
O380 O 0.66313 0.20721 0.24113 0.0
C381 C 0.74783 0.17931 0.35901 0.0
C382 C 0.75564 0.14847 0.34936 0.0
C383 C 0.76545 0.17242 0.36939 0.0
N384 N 0.72862 0.16052 0.33289 0.0
N385 N 0.73323 0.14202 0.32756 0.0
C386 C 0.74866 0.20299 0.37526 0.0
H387 H 0.73314 0.20423 0.35567 0.0
H388 H 0.76643 0.21928 0.36258 0.0
H389 H 0.74726 0.20362 0.42154 0.0
C390 C 0.70212 0.19259 0.15556 0.0
N391 N 0.69267 0.18019 0.20429 0.0
N392 N 0.71077 0.18151 0.23518 0.0
C393 C 0.73247 0.19534 0.20716 0.0
C394 C 0.72786 0.20323 0.15583 0.0
C395 C 0.68683 0.19282 0.1073 0.0
H396 H 0.66737 0.18572 0.11892 0.0
H397 H 0.69484 0.21183 0.08992 0.0
H398 H 0.68679 0.18043 0.07382 0.0
O399 O 0.64764 0.12466 0.22644 0.0
O400 O 0.67613 0.12541 0.28395 0.0
H401 H 0.77039 0.20477 0.19047 0.0
H402 H 0.76454 0.21244 0.2595 0.0
C403 C 0.75688 0.19849 0.22546 0.0
H404 H 0.75438 0.18067 0.24128 0.0
H405 H 0.72133 0.1252 0.30801 0.0
O406 O 0.63881 0.17179 0.19581 0.0
C407 C 0.65679 0.11343 0.25367 0.0
H408 H 0.44942 0.58876 0.18272 0.0
H409 H 0.46747 0.60838 0.85008 0.0
H410 H 0.3965 0.53869 0.06198 0.0
H411 H 0.5193 0.66031 0.96984 0.0
H412 H 0.44067 0.5839 0.927 0.0
H413 H 0.47415 0.61591 0.10621 0.0
C414 C 0.44282 0.58347 0.14016 0.0
C415 C 0.42068 0.56118 0.12921 0.0
C416 C 0.45781 0.6007 0.93666 0.0
C417 C 0.44939 0.59251 0.04053 0.0
C418 C 0.47323 0.61482 0.89257 0.0
C419 C 0.49592 0.6366 0.90305 0.0
C420 C 0.46493 0.60811 0.99237 0.0
C421 C 0.50208 0.64376 0.95938 0.0
C422 C 0.45708 0.59908 0.09633 0.0
C423 C 0.41333 0.55558 0.07283 0.0
N424 N 0.4868 0.62952 1.00174 0.0
N425 N 0.42766 0.57101 0.03084 0.0
H426 H 0.87312 0.37915 0.55408 0.0
H427 H 0.88098 0.50832 0.46876 0.0
H428 H 0.87752 0.43281 0.6751 0.0
H429 H 0.87548 0.45352 0.34968 0.0
H430 H 0.8773 0.48015 0.54528 0.0
H431 H 0.87155 0.40523 0.47895 0.0
C432 C 0.87353 0.39625 0.56501 0.0
C433 C 0.87553 0.40368 0.62129 0.0
C434 C 0.87675 0.47427 0.50232 0.0
C435 C 0.87395 0.43395 0.53503 0.0
C436 C 0.87877 0.49036 0.45858 0.0
C437 C 0.87871 0.4835 0.40241 0.0
C438 C 0.87463 0.4511 0.48995 0.0
C439 C 0.87584 0.45987 0.39211 0.0
C440 C 0.87271 0.41123 0.522 0.0
C441 C 0.87607 0.42623 0.63249 0.0
N442 N 0.87405 0.44472 0.43515 0.0
N443 N 0.87542 0.44052 0.58997 0.0
H444 H 0.51564 0.86158 0.06225 0.0
H445 H 0.39132 0.86042 0.96254 0.0
H446 H 0.46176 0.86167 0.17606 0.0
H447 H 0.44594 0.86199 0.8485 0.0
H448 H 0.41512 0.85738 0.04116 0.0
H449 H 0.48876 0.85826 0.98342 0.0
C450 C 0.4981 0.86063 0.07083 0.0
C451 C 0.49115 0.86203 0.12619 0.0
C452 C 0.42179 0.8582 0.99886 0.0
C453 C 0.46021 0.8584 0.03577 0.0
C454 C 0.40812 0.85984 0.95385 0.0
C455 C 0.41657 0.86158 0.8985 0.0
C456 C 0.44416 0.85829 0.98873 0.0
C457 C 0.43862 0.86081 0.89024 0.0
C458 C 0.48275 0.85883 0.02572 0.0
C459 C 0.4681 0.86078 0.13433 0.0
N460 N 0.45162 0.85937 0.93462 0.0
N461 N 0.45364 0.85918 0.08988 0.0
H462 H 0.59948 0.42783 0.35617 0.0
H463 H 0.61539 0.45203 0.68793 0.0
H464 H 0.54541 0.37879 0.47614 0.0
H465 H 0.67047 0.49832 0.56651 0.0
H466 H 0.59047 0.42413 0.61231 0.0
H467 H 0.62624 0.45243 0.43305 0.0
C468 C 0.59322 0.42204 0.39872 0.0
C469 C 0.56992 0.40106 0.40925 0.0
C470 C 0.60807 0.44028 0.60217 0.0
C471 C 0.60085 0.42972 0.49855 0.0
C472 C 0.62242 0.45631 0.64546 0.0
C473 C 0.64523 0.47777 0.63398 0.0
C474 C 0.61636 0.44563 0.54644 0.0
C475 C 0.65312 0.4821 0.57779 0.0
C476 C 0.60863 0.43623 0.44281 0.0
C477 C 0.56313 0.39469 0.46567 0.0
N478 N 0.63871 0.46632 0.53636 0.0
N479 N 0.5784 0.40902 0.50802 0.0
H480 H 0.19125 0.66153 0.05361 0.0
H481 H 0.19004 0.53661 0.95754 0.0
H482 H 0.19241 0.60873 0.16902 0.0
H483 H 0.1875 0.58865 0.84201 0.0
H484 H 0.19416 0.56436 0.0352 0.0
H485 H 0.19317 0.63683 0.97536 0.0
C486 C 0.19219 0.64496 0.06265 0.0
C487 C 0.19156 0.63728 0.11832 0.0
C488 C 0.19287 0.56978 0.99278 0.0
C489 C 0.19356 0.60866 0.02856 0.0
C490 C 0.19059 0.55393 0.94831 0.0
C491 C 0.1883 0.5601 0.89282 0.0
C492 C 0.19286 0.59206 0.98199 0.0
C493 C 0.18909 0.5829 0.88388 0.0
C494 C 0.19319 0.63076 0.01786 0.0
C495 C 0.19274 0.61547 0.12704 0.0
N496 N 0.19116 0.59787 0.92774 0.0
N497 N 0.19355 0.60196 0.08291 0.0
H498 H 0.62597 0.1806 0.35381 0.0
H499 H 0.60359 0.17447 0.68553 0.0
H500 H 0.67372 0.17286 0.47334 0.0
H501 H 0.55334 0.17694 0.56449 0.0
H502 H 0.63108 0.17735 0.6095 0.0
H503 H 0.60148 0.18291 0.43066 0.0
C504 C 0.63151 0.17955 0.39631 0.0
C505 C 0.65204 0.17635 0.40673 0.0
C506 C 0.61414 0.17739 0.59943 0.0
C507 C 0.62355 0.17893 0.49589 0.0
C508 C 0.59831 0.17577 0.64295 0.0
C509 C 0.57584 0.17532 0.63176 0.0
C510 C 0.60768 0.17861 0.54367 0.0
C511 C 0.57034 0.1772 0.57545 0.0
C512 C 0.61736 0.18085 0.44033 0.0
C513 C 0.65815 0.17533 0.46301 0.0
N514 N 0.58605 0.17864 0.53367 0.0
N515 N 0.6439 0.17645 0.50534 0.0
H516 H 0.53163 0.42679 0.12275 0.0
H517 H 0.63574 0.52465 0.9372 0.0
H518 H 0.60163 0.48535 0.18374 0.0
H519 H 0.56679 0.46474 0.87509 0.0
H520 H 0.6166 0.52114 0.02829 0.0
H521 H 0.53684 0.45046 0.03743 0.0
C522 C 0.54795 0.44493 0.11815 0.0
C523 C 0.56682 0.45394 0.15835 0.0
C524 C 0.60542 0.50904 0.99463 0.0
C525 C 0.57314 0.4807 0.06133 0.0
C526 C 0.61639 0.5109 0.94295 0.0
C527 C 0.60294 0.49411 0.90023 0.0
C528 C 0.58119 0.48965 1.00383 0.0
C529 C 0.57781 0.47739 0.90813 0.0
C530 C 0.55085 0.45849 0.06983 0.0
C531 C 0.58715 0.47767 0.15234 0.0
N532 N 0.56783 0.47503 0.95987 0.0
N533 N 0.59016 0.49006 0.1036 0.0
H534 H 0.12656 0.55027 0.34945 0.0
H535 H 0.12529 0.58449 0.66188 0.0
H536 H 0.1383 0.62011 0.41372 0.0
H537 H 0.12813 0.52088 0.59971 0.0
H538 H 0.1081 0.58752 0.57151 0.0
H539 H 0.10571 0.53035 0.43755 0.0
C540 C 0.12435 0.56122 0.38189 0.0
C541 C 0.13534 0.58691 0.37663 0.0
C542 C 0.1118 0.57244 0.57826 0.0
C543 C 0.1116 0.56468 0.47574 0.0
C544 C 0.12173 0.5709 0.62949 0.0
C545 C 0.12929 0.55336 0.63607 0.0
C546 C 0.10998 0.55653 0.53413 0.0
C547 C 0.12362 0.53549 0.59438 0.0
C548 C 0.11229 0.54993 0.4317 0.0
C549 C 0.13123 0.60037 0.41815 0.0
N550 N 0.11479 0.53785 0.54444 0.0
N551 N 0.12011 0.58918 0.46664 0.0
H552 H 0.59951 0.17877 0.16187 0.0
H553 H 0.61782 0.2386 0.88026 0.0
H554 H 0.67555 0.23773 0.15423 0.0
H555 H 0.61457 0.1685 0.90876 0.0
H556 H 0.63214 0.25073 0.97732 0.0
H557 H 0.59317 0.18934 0.06703 0.0
C558 C 0.61447 0.19472 0.14122 0.0
C559 C 0.63814 0.20708 0.16474 0.0
C560 C 0.62917 0.23317 0.96118 0.0
C561 C 0.63134 0.21847 0.05702 0.0
C562 C 0.62127 0.22628 0.90596 0.0
C563 C 0.61434 0.2022 0.88757 0.0
C564 C 0.63035 0.21588 0.99644 0.0
C565 C 0.61913 0.18695 0.92209 0.0
C566 C 0.61092 0.20067 0.08733 0.0
C567 C 0.65706 0.22766 0.13669 0.0
N568 N 0.62628 0.19382 0.97563 0.0
N569 N 0.65361 0.2321 0.08267 0.0
H570 H 0.47125 0.55133 0.68108 0.0
H571 H 0.50169 0.57564 0.36251 0.0
H572 H 0.5331 0.61576 0.60799 0.0
H573 H 0.43147 0.52348 0.43599 0.0
H574 H 0.5221 0.57708 0.45177 0.0
H575 H 0.46671 0.52845 0.59375 0.0
C576 C 0.48414 0.56037 0.64696 0.0
C577 C 0.50158 0.58559 0.64953 0.0
C578 C 0.50229 0.56482 0.44772 0.0
C579 C 0.49681 0.56005 0.55126 0.0
C580 C 0.49073 0.56426 0.39726 0.0
C581 C 0.46491 0.55066 0.39386 0.0
C582 C 0.4877 0.55169 0.49418 0.0
C583 C 0.45138 0.53534 0.43859 0.0
C584 C 0.48175 0.54738 0.59755 0.0
C585 C 0.51856 0.59654 0.60574 0.0
N586 N 0.4629 0.53662 0.48746 0.0
N587 N 0.51543 0.58383 0.55766 0.0
H588 H 0.81593 0.43668 0.15674 0.0
H589 H 0.87723 0.45003 0.87883 0.0
H590 H 0.88617 0.43943 0.13617 0.0
H591 H 0.81469 0.37583 0.88749 0.0
H592 H 0.86847 0.45737 0.97452 0.0
H593 H 0.80445 0.42011 0.06103 0.0
C594 C 0.82839 0.43263 0.13321 0.0
C595 C 0.85237 0.44012 0.15307 0.0
C596 C 0.85614 0.4398 0.95449 0.0
C597 C 0.83943 0.42158 0.04576 0.0
C598 C 0.86104 0.43569 0.90014 0.0
C599 C 0.84699 0.41219 0.87646 0.0
C600 C 0.83755 0.42009 0.98506 0.0
C601 C 0.82608 0.39412 0.90525 0.0
C602 C 0.82186 0.42341 0.07874 0.0
C603 C 0.86781 0.43448 0.12146 0.0
N604 N 0.82246 0.39808 0.95957 0.0
N605 N 0.86134 0.42614 0.06846 0.0
H606 H 0.53215 0.92894 0.39992 0.0
H607 H 0.44168 0.9293 0.62471 0.0
H608 H 0.45822 0.91553 0.3698 0.0
H609 H 0.50236 0.91603 0.65496 0.0
H610 H 0.45951 0.94733 0.53373 0.0
H611 H 0.5324 0.94727 0.49066 0.0
C612 C 0.51625 0.93059 0.41205 0.0
C613 C 0.49479 0.92014 0.37908 0.0
C614 C 0.46939 0.94127 0.56099 0.0
C615 C 0.49481 0.94051 0.48204 0.0
C616 C 0.45921 0.93091 0.61255 0.0
C617 C 0.47034 0.92057 0.64561 0.0
C618 C 0.49041 0.94062 0.54242 0.0
C619 C 0.4931 0.92335 0.62943 0.0
C620 C 0.51645 0.94111 0.46347 0.0
C621 C 0.4748 0.92294 0.39526 0.0
N622 N 0.50218 0.93262 0.5779 0.0
N623 N 0.47502 0.93237 0.44668 0.0
H624 H 0.23659 0.456 0.8393 0.0
H625 H 0.25682 0.41362 0.13675 0.0
H626 H 0.17742 0.41318 0.95533 0.0
H627 H 0.31538 0.45567 0.01856 0.0
H628 H 0.22636 0.40424 0.06241 0.0
H629 H 0.26436 0.44744 0.89515 0.0
C630 C 0.22954 0.44471 0.87664 0.0
C631 C 0.20519 0.436 0.89442 0.0
C632 C 0.24589 0.41524 0.0525 0.0
C633 C 0.23647 0.42604 0.95813 0.0
C634 C 0.26322 0.42057 0.09486 0.0
C635 C 0.28843 0.43633 0.08394 0.0
C636 C 0.25401 0.42582 0.99925 0.0
C637 C 0.29596 0.44444 0.02904 0.0
C638 C 0.24524 0.43962 0.90819 0.0
C639 C 0.19637 0.42058 0.94136 0.0
N640 N 0.27876 0.43947 0.98881 0.0
N641 N 0.21221 0.41649 0.97252 0.0
H642 H 0.8637 0.30067 0.51766 0.0
H643 H 0.78558 0.16307 0.46125 0.0
H644 H 0.8829 0.25109 0.60246 0.0
H645 H 0.80149 0.21672 0.33061 0.0
H646 H 0.82321 0.19346 0.51086 0.0
H647 H 0.84374 0.27044 0.44562 0.0
C648 C 0.86489 0.28405 0.52058 0.0
C649 C 0.87572 0.27899 0.56664 0.0
C650 C 0.81879 0.19833 0.47062 0.0
C651 C 0.85066 0.24293 0.48457 0.0
C652 C 0.79735 0.18108 0.44258 0.0
C653 C 0.79019 0.18798 0.39327 0.0
C654 C 0.8327 0.22245 0.449 0.0
C655 C 0.80602 0.21124 0.36994 0.0
C656 C 0.85296 0.26639 0.47907 0.0
C657 C 0.87479 0.2559 0.56799 0.0
N658 N 0.8263 0.22791 0.39866 0.0
N659 N 0.86187 0.23843 0.52835 0.0
H660 H 0.63022 0.83879 0.17919 0.0
H661 H 0.63261 0.80333 0.85925 0.0
H662 H 0.61234 0.87162 0.04079 0.0
H663 H 0.61172 0.75141 0.99592 0.0
H664 H 0.64205 0.83661 0.927 0.0
H665 H 0.64034 0.8151 0.1123 0.0
C666 C 0.62904 0.8414 0.13463 0.0
C667 C 0.62001 0.85658 0.1149 0.0
C668 C 0.6359 0.81801 0.94203 0.0
C669 C 0.63171 0.83016 0.03918 0.0
C670 C 0.63055 0.79913 0.90366 0.0
C671 C 0.62086 0.77474 0.92251 0.0
C672 C 0.63185 0.8123 0.99927 0.0
C673 C 0.61862 0.77003 0.98013 0.0
C674 C 0.63475 0.82794 0.09674 0.0
C675 C 0.61882 0.85961 0.05714 0.0
N676 N 0.62384 0.78868 0.01673 0.0
N677 N 0.62437 0.84624 0.02104 0.0
H678 H 0.80043 0.63623 0.59834 0.0
H679 H 0.83593 0.58652 0.327 0.0
H680 H 0.75711 0.56343 0.52482 0.0
H681 H 0.89018 0.63327 0.44915 0.0
H682 H 0.8044 0.59162 0.37687 0.0
H683 H 0.83075 0.64704 0.52257 0.0
C684 C 0.79679 0.6228 0.56552 0.0
C685 C 0.77582 0.59895 0.56781 0.0
C686 C 0.82335 0.6013 0.39187 0.0
C687 C 0.81003 0.61147 0.48106 0.0
C688 C 0.84123 0.59837 0.36365 0.0
C689 C 0.86525 0.60896 0.38535 0.0
C690 C 0.82967 0.61487 0.44198 0.0
C691 C 0.87159 0.62452 0.43211 0.0
C692 C 0.81405 0.62906 0.52241 0.0
C693 C 0.77219 0.58229 0.52431 0.0
N694 N 0.85366 0.62664 0.45989 0.0
N695 N 0.78919 0.58887 0.48293 0.0
H696 H 0.21606 0.8008 0.1676 0.0
H697 H 0.25394 0.83825 0.84858 0.0
H698 H 0.18495 0.74984 0.02912 0.0
H699 H 0.30472 0.86949 0.98723 0.0
H700 H 0.22023 0.81435 0.91514 0.0
H701 H 0.24008 0.83444 0.10094 0.0
C702 C 0.21391 0.79691 0.12303 0.0
C703 C 0.19911 0.77268 0.10331 0.0
C704 C 0.23866 0.82688 0.93086 0.0
C705 C 0.2259 0.81062 0.02781 0.0
C706 C 0.25778 0.84046 0.89315 0.0
C707 C 0.28198 0.85525 0.91296 0.0
C708 C 0.24394 0.8286 0.98836 0.0
C709 C 0.28624 0.85777 0.97076 0.0
C710 C 0.22755 0.81598 0.08528 0.0
C711 C 0.19667 0.76834 0.04553 0.0
N712 N 0.26737 0.84431 1.00669 0.0
N713 N 0.21019 0.78716 1.00956 0.0
H714 H 0.45281 0.16252 0.53907 0.0
H715 H 0.45689 0.28736 0.50441 0.0
H716 H 0.43589 0.1957 0.67846 0.0
H717 H 0.43311 0.23524 0.36745 0.0
H718 H 0.44767 0.25352 0.5698 0.0
H719 H 0.44362 0.18753 0.47457 0.0
C720 C 0.44659 0.17471 0.55576 0.0
C721 C 0.44529 0.17745 0.61362 0.0
C722 C 0.44397 0.24939 0.52557 0.0
C723 C 0.43536 0.20624 0.54109 0.0
C724 C 0.44942 0.26867 0.48842 0.0
C725 C 0.44614 0.26392 0.43085 0.0
C726 C 0.43578 0.22546 0.50452 0.0
C727 C 0.43606 0.23949 0.41176 0.0
C728 C 0.44128 0.18887 0.51919 0.0
C729 C 0.43714 0.1933 0.63384 0.0
N730 N 0.43174 0.22114 0.44851 0.0
N731 N 0.43303 0.20764 0.59753 0.0
H732 H 0.72447 0.48831 0.92755 0.0
H733 H 0.84977 0.5702 0.10512 0.0
H734 H 0.77247 0.56657 0.90106 0.0
H735 H 0.80739 0.49051 0.1124 0.0
H736 H 0.82077 0.56971 0.03431 0.0
H737 H 0.75348 0.48907 0.99835 0.0
C738 C 0.74108 0.5057 0.9367 0.0
C739 C 0.74589 0.52742 0.90816 0.0
C740 C 0.81776 0.55231 0.05141 0.0
C741 C 0.77952 0.52848 0.98973 0.0
C742 C 0.83425 0.5526 0.09222 0.0
C743 C 0.831 0.53037 0.11526 0.0
C744 C 0.79764 0.5296 0.03333 0.0
C745 C 0.81075 0.50811 0.09585 0.0
C746 C 0.75775 0.50611 0.97707 0.0
C747 C 0.768 0.54932 0.9215 0.0
N748 N 0.7949 0.5083 0.05646 0.0
N749 N 0.78383 0.54931 0.96129 0.0
H750 H 0.26196 0.71284 0.41236 0.0
H751 H 0.30074 0.83242 0.60856 0.0
H752 H 0.22461 0.75541 0.40811 0.0
H753 H 0.34314 0.79501 0.59834 0.0
H754 H 0.27191 0.80368 0.53823 0.0
H755 H 0.29084 0.74167 0.4825 0.0
C756 C 0.25975 0.72821 0.42628 0.0
C757 C 0.24067 0.73155 0.40405 0.0
C758 C 0.28752 0.80171 0.55123 0.0
C759 C 0.27401 0.765 0.48493 0.0
C760 C 0.30396 0.81809 0.59176 0.0
C761 C 0.32452 0.81626 0.60976 0.0
C762 C 0.29138 0.78303 0.52828 0.0
C763 C 0.32777 0.79739 0.5856 0.0
C764 C 0.27637 0.74479 0.46627 0.0
C765 C 0.23907 0.75211 0.42348 0.0
N766 N 0.31144 0.78158 0.54651 0.0
N767 N 0.25535 0.76788 0.46269 0.0
H768 H 0.48385 0.28253 0.11978 0.0
H769 H 0.56594 0.24507 0.92482 0.0
H770 H 0.56351 0.32469 0.11175 0.0
H771 H 0.48644 0.20914 0.91214 0.0
H772 H 0.56512 0.27314 0.99576 0.0
H773 H 0.48406 0.2544 0.04746 0.0
C774 C 0.50141 0.28582 0.10308 0.0
C775 C 0.5237 0.30611 0.12218 0.0
C776 C 0.5478 0.25918 0.97754 0.0
C777 C 0.52411 0.27383 0.03865 0.0
C778 C 0.54824 0.24299 0.93706 0.0
C779 C 0.52622 0.22451 0.91235 0.0
C780 C 0.52511 0.25697 0.99435 0.0
C781 C 0.50392 0.22315 0.92955 0.0
C782 C 0.50151 0.2698 0.06143 0.0
C783 C 0.54584 0.30949 0.09821 0.0
N784 N 0.50393 0.23899 0.96952 0.0
N785 N 0.54548 0.29358 0.05814 0.0
H786 H 0.29504 0.4728 0.40158 0.0
H787 H 0.25744 0.55202 0.60714 0.0
H788 H 0.33862 0.55211 0.41948 0.0
H789 H 0.21513 0.47249 0.59369 0.0
H790 H 0.28679 0.55252 0.53746 0.0
H791 H 0.26526 0.47233 0.46989 0.0
C792 C 0.2983 0.49017 0.41954 0.0
C793 C 0.3195 0.51253 0.40439 0.0
C794 C 0.27114 0.53492 0.54972 0.0
C795 C 0.28532 0.51214 0.48374 0.0
C796 C 0.25429 0.53463 0.5895 0.0
C797 C 0.23379 0.51217 0.60686 0.0
C798 C 0.26756 0.51254 0.52643 0.0
C799 C 0.23082 0.49023 0.58239 0.0
C800 C 0.28131 0.48987 0.45894 0.0
C801 C 0.32277 0.53437 0.43006 0.0
N802 N 0.2474 0.49097 0.54368 0.0
N803 N 0.30597 0.53363 0.46815 0.0
H804 H 0.77245 0.24637 0.17025 0.0
H805 H 0.7944 0.28533 0.84697 0.0
H806 H 0.7256 0.19762 0.03978 0.0
H807 H 0.85472 0.31293 0.96507 0.0
H808 H 0.76701 0.25591 0.91823 0.0
H809 H 0.80111 0.27388 0.098 0.0
C810 C 0.76813 0.24132 0.12657 0.0
C811 C 0.74615 0.21959 0.11167 0.0
C812 C 0.78627 0.26838 0.92851 0.0
C813 C 0.7788 0.25161 0.0281 0.0
C814 C 0.80202 0.28507 0.88756 0.0
C815 C 0.82706 0.30177 0.89964 0.0
C816 C 0.79536 0.26858 0.98267 0.0
C817 C 0.8355 0.30092 0.95394 0.0
C818 C 0.78449 0.25716 0.08525 0.0
C819 C 0.74163 0.21442 0.05395 0.0
N820 N 0.81975 0.28486 0.99333 0.0
N821 N 0.75757 0.23031 0.01458 0.0
H822 H 0.49669 0.79406 0.42358 0.0
H823 H 0.57906 0.757 0.61891 0.0
H824 H 0.57642 0.83194 0.41805 0.0
H825 H 0.49959 0.71294 0.60752 0.0
H826 H 0.5784 0.78566 0.54913 0.0
H827 H 0.49723 0.76545 0.49379 0.0
C828 C 0.51435 0.79646 0.43726 0.0
C829 C 0.53655 0.81557 0.41459 0.0
C830 C 0.56106 0.76974 0.56179 0.0
C831 C 0.53735 0.78259 0.49552 0.0
C832 C 0.56142 0.75339 0.60202 0.0
C833 C 0.53935 0.73243 0.61948 0.0
C834 C 0.53841 0.76537 0.53866 0.0
C835 C 0.51711 0.72868 0.59519 0.0
C836 C 0.51464 0.77999 0.47726 0.0
C837 C 0.55882 0.81743 0.43374 0.0
N838 N 0.51721 0.74493 0.55642 0.0
N839 N 0.55865 0.80132 0.47297 0.0
H840 H 0.42547 0.47362 0.35556 0.0
H841 H 0.48485 0.40967 0.18137 0.0
H842 H 0.40245 0.45154 0.18463 0.0
H843 H 0.46277 0.38726 0.35248 0.0
H844 H 0.46019 0.43058 0.18136 0.0
H845 H 0.44481 0.44746 0.35603 0.0
C846 C 0.42436 0.46316 0.31827 0.0
C847 C 0.41224 0.46467 0.27003 0.0
C848 C 0.46059 0.42087 0.21867 0.0
C849 C 0.43485 0.43532 0.26995 0.0
C850 C 0.47466 0.40899 0.21879 0.0
C851 C 0.47573 0.39658 0.26693 0.0
C852 C 0.44816 0.42106 0.26759 0.0
C853 C 0.46225 0.39641 0.31435 0.0
C854 C 0.43531 0.44821 0.31867 0.0
C855 C 0.41143 0.45076 0.22282 0.0
N856 N 0.44934 0.40882 0.31383 0.0
N857 N 0.42293 0.43698 0.22364 0.0
H858 H 0.0904 0.47647 0.6727 0.0
H859 H 0.96894 0.41673 0.85523 0.0
H860 H 0.09275 0.45428 0.84276 0.0
H861 H 0.96682 0.3949 0.68276 0.0
H862 H 1.01449 0.43696 0.85296 0.0
H863 H 0.04494 0.45287 0.67618 0.0
C864 C 0.08134 0.46652 0.71066 0.0
C865 C 0.09537 0.46719 0.75739 0.0
C866 C 1.00395 0.4276 0.81583 0.0
C867 C 0.04344 0.44084 0.76211 0.0
C868 C 0.97803 0.41617 0.81699 0.0
C869 C 0.96406 0.40404 0.76916 0.0
C870 C 1.01597 0.42757 0.76601 0.0
C871 C 0.97683 0.40387 0.7207 0.0
C872 C 0.05545 0.45307 0.71255 0.0
C873 C 0.08264 0.45405 0.80562 0.0
N874 N 1.00204 0.41574 0.72011 0.0
N875 N 0.05738 0.44169 0.80705 0.0
H876 H 0.62965 0.0811 0.16887 0.0
H877 H 0.57327 0.95956 0.35164 0.0
H878 H 0.65517 0.08306 0.33787 0.0
H879 H 0.5926 0.95702 0.17916 0.0
H880 H 0.59636 1.00506 0.34752 0.0
H881 H 0.60887 0.03544 0.17113 0.0
C882 C 0.63085 0.07195 0.20637 0.0
C883 C 0.64423 0.0859 0.25318 0.0
C884 C 0.59562 0.99449 0.31072 0.0
C885 C 0.62012 0.03393 0.2564 0.0
C886 C 0.58245 0.96858 0.313 0.0
C887 C 0.58118 0.9545 0.2658 0.0
C888 C 0.60692 1.00644 0.26037 0.0
C889 C 0.59337 0.96718 0.21668 0.0
C890 C 0.61912 0.04598 0.20752 0.0
C891 C 0.64521 0.07307 0.3007 0.0
N892 N 0.60545 0.99245 0.21495 0.0
N893 N 0.63307 0.04785 0.30138 0.0
H894 H 0.58083 0.62885 0.67411 0.0
H895 H 0.64767 0.57342 0.85079 0.0
H896 H 0.60616 0.65568 0.84158 0.0
H897 H 0.66477 0.58874 0.67517 0.0
H898 H 0.62796 0.59914 0.84942 0.0
H899 H 0.60701 0.60957 0.67364 0.0
C900 C 0.59204 0.63085 0.71061 0.0
C901 C 0.59137 0.64396 0.75794 0.0
C902 C 0.63629 0.5971 0.81139 0.0
C903 C 0.62081 0.62144 0.75804 0.0
C904 C 0.64749 0.58241 0.81206 0.0
C905 C 0.65799 0.57906 0.76305 0.0
C906 C 0.63483 0.60788 0.76094 0.0
C907 C 0.65711 0.59104 0.71397 0.0
C908 C 0.60701 0.61992 0.71018 0.0
C909 C 0.60624 0.64589 0.8041 0.0
N910 N 0.64532 0.60458 0.71388 0.0
N911 N 0.62003 0.6344 0.80338 0.0
H912 H 0.09623 0.62342 0.34469 0.0
H913 H 0.97414 0.55841 0.16397 0.0
H914 H 0.0977 0.64642 0.1736 0.0
H915 H 0.97231 0.58085 0.33419 0.0
H916 H 1.01974 0.58372 0.16563 0.0
H917 H 0.05073 0.60078 0.34145 0.0
C918 C 0.08697 0.62383 0.30657 0.0
C919 C 0.10076 0.63703 0.25951 0.0
C920 C 1.00924 0.58309 0.20242 0.0
C921 C 0.04881 0.61048 0.25502 0.0
C922 C 0.9833 0.5686 0.20162 0.0
C923 C 0.9694 0.56759 0.24894 0.0
C924 C 1.02133 0.59596 0.25146 0.0
C925 C 0.98226 0.58122 0.29664 0.0
C926 C 0.06106 0.61092 0.30479 0.0
C927 C 0.08777 0.63674 0.21103 0.0
N928 N 1.00746 0.59455 0.29695 0.0
N929 N 0.06252 0.62338 0.20973 0.0
H930 H 0.40803 0.95579 0.85041 0.0
H931 H 0.47772 0.08454 0.69198 0.0
H932 H 0.43302 0.96059 0.67989 0.0
H933 H 0.49635 0.07915 0.86356 0.0
H934 H 0.45271 0.03925 0.68768 0.0
H935 H 0.43181 1.00135 0.85676 0.0
C936 C 0.4182 0.96643 0.81409 0.0
C937 C 0.4185 0.95439 0.76446 0.0
C938 C 0.46221 0.04802 0.72628 0.0
C939 C 0.4454 1.00632 0.77139 0.0
C940 C 0.4764 0.07384 0.72894 0.0
C941 C 0.48921 0.08567 0.77823 0.0
C942 C 0.46017 0.03382 0.77368 0.0
C943 C 0.4869 0.07078 0.82468 0.0
C944 C 0.43191 0.99234 0.81797 0.0
C945 C 0.43229 0.9691 0.71892 0.0
N946 N 0.47245 0.04561 0.82148 0.0
N947 N 0.44499 0.99427 0.72329 0.0
loop_
_geom_bond_atom_site_label_1
_geom_bond_atom_site_label_2
_geom_bond_distance
_geom_bond_site_symmetry_2
_ccdc_geom_bond_type
Co0 O3 1.970 . S
Co0 N17 1.989 . S
Co0 O25 1.967 . S
Co0 O32 1.920 . S
Co1 O4 1.966 . S
Co1 N10 2.022 . S
Co1 N18 1.993 . S
Co1 O26 1.941 . S
C2 O3 1.258 . S
C2 O4 1.263 . S
O3 Co0 1.970 . S
O3 C2 1.258 . S
O4 Co1 1.966 . S
O4 C2 1.263 . S
C5 O6 1.235 . S
C5 O32 1.289 . S
O6 C5 1.235 . S
C7 C9 1.400 . S
C7 N10 1.351 . S
C7 C12 1.501 . S
C8 C9 1.387 . S
C8 N11 1.341 . S
C9 C7 1.400 . S
C9 C8 1.387 . S
N10 Co1 2.022 . S
N10 C7 1.351 . S
N10 N11 1.365 . S
N11 C8 1.341 . S
N11 N10 1.365 . S
N11 H31 0.862 . S
C12 C7 1.501 . S
C12 H13 0.961 . S
C12 H14 0.961 . S
C12 H15 0.960 . S
H13 C12 0.961 . S
H14 C12 0.961 . S
H15 C12 0.960 . S
C16 N17 1.342 . S
C16 C20 1.401 . S
C16 C21 1.499 . S
N17 Co0 1.989 . S
N17 C16 1.342 . S
N17 N18 1.388 . S
N18 Co1 1.993 . S
N18 N17 1.388 . S
N18 C19 1.346 . S
C19 N18 1.346 . S
C19 C20 1.396 . S
C19 C29 1.510 . S
C20 C16 1.401 . S
C20 C19 1.396 . S
C21 C16 1.499 . S
C21 H22 0.959 . S
C21 H23 0.960 . S
C21 H24 0.961 . S
H22 C21 0.959 . S
H23 C21 0.960 . S
H24 C21 0.961 . S
O25 Co0 1.967 . S
O25 C33 1.258 . S
O26 Co1 1.941 . S
O26 C33 1.266 . S
H27 C29 0.959 . S
H28 C29 0.961 . S
C29 C19 1.510 . S
C29 H27 0.959 . S
C29 H28 0.961 . S
C29 H30 0.960 . S
H30 C29 0.960 . S
H31 N11 0.862 . S
O32 Co0 1.920 . S
O32 C5 1.289 . S
C33 O25 1.258 . S
C33 O26 1.266 . S
Co34 O37 1.970 . S
Co34 N51 1.989 . S
Co34 O59 1.967 . S
Co34 O66 1.920 . S
Co35 O38 1.966 . S
Co35 N44 2.022 . S
Co35 N52 1.993 . S
Co35 O60 1.941 . S
C36 O37 1.258 . S
C36 O38 1.263 . S
O37 Co34 1.970 . S
O37 C36 1.258 . S
O38 Co35 1.966 . S
O38 C36 1.263 . S
C39 O40 1.235 . S
C39 O66 1.289 . S
O40 C39 1.235 . S
C41 C43 1.400 . S
C41 N44 1.351 . S
C41 C46 1.501 . S
C42 C43 1.387 . S
C42 N45 1.341 . S
C43 C41 1.400 . S
C43 C42 1.387 . S
N44 Co35 2.022 . S
N44 C41 1.351 . S
N44 N45 1.365 . S
N45 C42 1.341 . S
N45 N44 1.365 . S
N45 H65 0.862 . S
C46 C41 1.501 . S
C46 H47 0.961 . S
C46 H48 0.961 . S
C46 H49 0.960 . S
H47 C46 0.961 . S
H48 C46 0.961 . S
H49 C46 0.960 . S
C50 N51 1.342 . S
C50 C54 1.401 . S
C50 C55 1.499 . S
N51 Co34 1.989 . S
N51 C50 1.342 . S
N51 N52 1.388 . S
N52 Co35 1.993 . S
N52 N51 1.388 . S
N52 C53 1.346 . S
C53 N52 1.346 . S
C53 C54 1.396 . S
C53 C63 1.510 . S
C54 C50 1.401 . S
C54 C53 1.396 . S
C55 C50 1.499 . S
C55 H56 0.959 . S
C55 H57 0.960 . S
C55 H58 0.961 . S
H56 C55 0.959 . S
H57 C55 0.960 . S
H58 C55 0.961 . S
O59 Co34 1.967 . S
O59 C67 1.258 . S
O60 Co35 1.941 . S
O60 C67 1.266 . S
H61 C63 0.959 . S
H62 C63 0.961 . S
C63 C53 1.510 . S
C63 H61 0.959 . S
C63 H62 0.961 . S
C63 H64 0.960 . S
H64 C63 0.960 . S
H65 N45 0.862 . S
O66 Co34 1.920 . S
O66 C39 1.289 . S
C67 O59 1.258 . S
C67 O60 1.266 . S
Co68 O71 1.970 . S
Co68 N85 1.989 . S
Co68 O93 1.967 . S
Co68 O100 1.920 . S
Co69 O72 1.966 . S
Co69 N78 2.022 . S
Co69 N86 1.993 . S
Co69 O94 1.941 . S
C70 O71 1.258 . S
C70 O72 1.263 . S
O71 Co68 1.970 . S
O71 C70 1.258 . S
O72 Co69 1.966 . S
O72 C70 1.263 . S
C73 O74 1.235 . S
C73 O100 1.289 . S
O74 C73 1.235 . S
C75 C77 1.400 . S
C75 N78 1.351 . S
C75 C80 1.501 . S
C76 C77 1.387 . S
C76 N79 1.341 . S
C77 C75 1.400 . S
C77 C76 1.387 . S
N78 Co69 2.022 . S
N78 C75 1.351 . S
N78 N79 1.365 . S
N79 C76 1.341 . S
N79 N78 1.365 . S
N79 H99 0.862 . S
C80 C75 1.501 . S
C80 H81 0.961 . S
C80 H82 0.961 . S
C80 H83 0.960 . S
H81 C80 0.961 . S
H82 C80 0.961 . S
H83 C80 0.960 . S
C84 N85 1.342 . S
C84 C88 1.401 . S
C84 C89 1.499 . S
N85 Co68 1.989 . S
N85 C84 1.342 . S
N85 N86 1.388 . S
N86 Co69 1.993 . S
N86 N85 1.388 . S
N86 C87 1.346 . S
C87 N86 1.346 . S
C87 C88 1.396 . S
C87 C97 1.510 . S
C88 C84 1.401 . S
C88 C87 1.396 . S
C89 C84 1.499 . S
C89 H90 0.959 . S
C89 H91 0.960 . S
C89 H92 0.961 . S
H90 C89 0.959 . S
H91 C89 0.960 . S
H92 C89 0.961 . S
O93 Co68 1.967 . S
O93 C101 1.258 . S
O94 Co69 1.941 . S
O94 C101 1.266 . S
H95 C97 0.959 . S
H96 C97 0.961 . S
C97 C87 1.510 . S
C97 H95 0.959 . S
C97 H96 0.961 . S
C97 H98 0.960 . S
H98 C97 0.960 . S
H99 N79 0.862 . S
O100 Co68 1.920 . S
O100 C73 1.289 . S
C101 O93 1.258 . S
C101 O94 1.266 . S
Co102 O105 1.970 . S
Co102 N119 1.989 . S
Co102 O127 1.967 . S
Co102 O134 1.920 . S
Co103 O106 1.966 . S
Co103 N112 2.022 . S
Co103 N120 1.993 . S
Co103 O128 1.941 . S
C104 O105 1.258 . S
C104 O106 1.263 . S
O105 Co102 1.970 . S
O105 C104 1.258 . S
O106 Co103 1.966 . S
O106 C104 1.263 . S
C107 O108 1.235 . S
C107 O134 1.289 . S
O108 C107 1.235 . S
C109 C111 1.400 . S
C109 N112 1.351 . S
C109 C114 1.501 . S
C110 C111 1.387 . S
C110 N113 1.341 . S
C111 C109 1.400 . S
C111 C110 1.387 . S
N112 Co103 2.022 . S
N112 C109 1.351 . S
N112 N113 1.365 . S
N113 C110 1.341 . S
N113 N112 1.365 . S
N113 H133 0.862 . S
C114 C109 1.501 . S
C114 H115 0.961 . S
C114 H116 0.961 . S
C114 H117 0.960 . S
H115 C114 0.961 . S
H116 C114 0.961 . S
H117 C114 0.960 . S
C118 N119 1.342 . S
C118 C122 1.401 . S
C118 C123 1.499 . S
N119 Co102 1.989 . S
N119 C118 1.342 . S
N119 N120 1.388 . S
N120 Co103 1.993 . S
N120 N119 1.388 . S
N120 C121 1.346 . S
C121 N120 1.346 . S
C121 C122 1.396 . S
C121 C131 1.510 . S
C122 C118 1.401 . S
C122 C121 1.396 . S
C123 C118 1.499 . S
C123 H124 0.959 . S
C123 H125 0.960 . S
C123 H126 0.961 . S
H124 C123 0.959 . S
H125 C123 0.960 . S
H126 C123 0.961 . S
O127 Co102 1.967 . S
O127 C135 1.258 . S
O128 Co103 1.941 . S
O128 C135 1.266 . S
H129 C131 0.959 . S
H130 C131 0.961 . S
C131 C121 1.510 . S
C131 H129 0.959 . S
C131 H130 0.961 . S
C131 H132 0.960 . S
H132 C131 0.960 . S
H133 N113 0.862 . S
O134 Co102 1.920 . S
O134 C107 1.289 . S
C135 O127 1.258 . S
C135 O128 1.266 . S
Co136 O139 1.970 . S
Co136 N153 1.989 . S
Co136 O161 1.967 . S
Co136 O168 1.920 . S
Co137 O140 1.966 . S
Co137 N146 2.022 . S
Co137 N154 1.993 . S
Co137 O162 1.941 . S
C138 O139 1.258 . S
C138 O140 1.263 . S
O139 Co136 1.970 . S
O139 C138 1.258 . S
O140 Co137 1.966 . S
O140 C138 1.263 . S
C141 O142 1.235 . S
C141 O168 1.289 . S
O142 C141 1.235 . S
C143 C145 1.400 . S
C143 N146 1.351 . S
C143 C148 1.501 . S
C144 C145 1.387 . S
C144 N147 1.341 . S
C145 C143 1.400 . S
C145 C144 1.387 . S
N146 Co137 2.022 . S
N146 C143 1.351 . S
N146 N147 1.365 . S
N147 C144 1.341 . S
N147 N146 1.365 . S
N147 H167 0.862 . S
C148 C143 1.501 . S
C148 H149 0.961 . S
C148 H150 0.961 . S
C148 H151 0.960 . S
H149 C148 0.961 . S
H150 C148 0.961 . S
H151 C148 0.960 . S
C152 N153 1.342 . S
C152 C156 1.401 . S
C152 C157 1.499 . S
N153 Co136 1.989 . S
N153 C152 1.342 . S
N153 N154 1.388 . S
N154 Co137 1.993 . S
N154 N153 1.388 . S
N154 C155 1.346 . S
C155 N154 1.346 . S
C155 C156 1.396 . S
C155 C165 1.510 . S
C156 C152 1.401 . S
C156 C155 1.396 . S
C157 C152 1.499 . S
C157 H158 0.959 . S
C157 H159 0.960 . S
C157 H160 0.961 . S
H158 C157 0.959 . S
H159 C157 0.960 . S
H160 C157 0.961 . S
O161 Co136 1.967 . S
O161 C169 1.258 . S
O162 Co137 1.941 . S
O162 C169 1.266 . S
H163 C165 0.959 . S
H164 C165 0.961 . S
C165 C155 1.510 . S
C165 H163 0.959 . S
C165 H164 0.961 . S
C165 H166 0.960 . S
H166 C165 0.960 . S
H167 N147 0.862 . S
O168 Co136 1.920 . S
O168 C141 1.289 . S
C169 O161 1.258 . S
C169 O162 1.266 . S
Co170 O173 1.970 . S
Co170 N187 1.989 . S
Co170 O195 1.967 . S
Co170 O202 1.920 . S
Co171 O174 1.966 . S
Co171 N180 2.022 . S
Co171 N188 1.993 . S
Co171 O196 1.941 . S
C172 O173 1.258 . S
C172 O174 1.263 . S
O173 Co170 1.970 . S
O173 C172 1.258 . S
O174 Co171 1.966 . S
O174 C172 1.263 . S
C175 O176 1.235 . S
C175 O202 1.289 . S
O176 C175 1.235 . S
C177 C179 1.400 . S
C177 N180 1.351 . S
C177 C182 1.501 . S
C178 C179 1.387 . S
C178 N181 1.341 . S
C179 C177 1.400 . S
C179 C178 1.387 . S
N180 Co171 2.022 . S
N180 C177 1.351 . S
N180 N181 1.365 . S
N181 C178 1.341 . S
N181 N180 1.365 . S
N181 H201 0.862 . S
C182 C177 1.501 . S
C182 H183 0.961 . S
C182 H184 0.961 . S
C182 H185 0.960 . S
H183 C182 0.961 . S
H184 C182 0.961 . S
H185 C182 0.960 . S
C186 N187 1.342 . S
C186 C190 1.401 . S
C186 C191 1.499 . S
N187 Co170 1.989 . S
N187 C186 1.342 . S
N187 N188 1.388 . S
N188 Co171 1.993 . S
N188 N187 1.388 . S
N188 C189 1.346 . S
C189 N188 1.346 . S
C189 C190 1.396 . S
C189 C199 1.510 . S
C190 C186 1.401 . S
C190 C189 1.396 . S
C191 C186 1.499 . S
C191 H192 0.959 . S
C191 H193 0.960 . S
C191 H194 0.961 . S
H192 C191 0.959 . S
H193 C191 0.960 . S
H194 C191 0.961 . S
O195 Co170 1.967 . S
O195 C203 1.258 . S
O196 Co171 1.941 . S
O196 C203 1.266 . S
H197 C199 0.959 . S
H198 C199 0.961 . S
C199 C189 1.510 . S
C199 H197 0.959 . S
C199 H198 0.961 . S
C199 H200 0.960 . S
H200 C199 0.960 . S
H201 N181 0.862 . S
O202 Co170 1.920 . S
O202 C175 1.289 . S
C203 O195 1.258 . S
C203 O196 1.266 . S
Co204 O207 1.970 . S
Co204 N221 1.989 . S
Co204 O229 1.967 . S
Co204 O236 1.920 . S
Co205 O208 1.966 . S
Co205 N214 2.022 . S
Co205 N222 1.993 . S
Co205 O230 1.941 . S
C206 O207 1.258 . S
C206 O208 1.263 . S
O207 Co204 1.970 . S
O207 C206 1.258 . S
O208 Co205 1.966 . S
O208 C206 1.263 . S
C209 O210 1.235 . S
C209 O236 1.289 . S
O210 C209 1.235 . S
C211 C213 1.400 . S
C211 N214 1.351 . S
C211 C216 1.501 . S
C212 C213 1.387 . S
C212 N215 1.341 . S
C213 C211 1.400 . S
C213 C212 1.387 . S
N214 Co205 2.022 . S
N214 C211 1.351 . S
N214 N215 1.365 . S
N215 C212 1.341 . S
N215 N214 1.365 . S
N215 H235 0.862 . S
C216 C211 1.501 . S
C216 H217 0.961 . S
C216 H218 0.961 . S
C216 H219 0.960 . S
H217 C216 0.961 . S
H218 C216 0.961 . S
H219 C216 0.960 . S
C220 N221 1.342 . S
C220 C224 1.401 . S
C220 C225 1.499 . S
N221 Co204 1.989 . S
N221 C220 1.342 . S
N221 N222 1.388 . S
N222 Co205 1.993 . S
N222 N221 1.388 . S
N222 C223 1.346 . S
C223 N222 1.346 . S
C223 C224 1.396 . S
C223 C233 1.510 . S
C224 C220 1.401 . S
C224 C223 1.396 . S
C225 C220 1.499 . S
C225 H226 0.959 . S
C225 H227 0.960 . S
C225 H228 0.961 . S
H226 C225 0.959 . S
H227 C225 0.960 . S
H228 C225 0.961 . S
O229 Co204 1.967 . S
O229 C237 1.258 . S
O230 Co205 1.941 . S
O230 C237 1.266 . S
H231 C233 0.959 . S
H232 C233 0.961 . S
C233 C223 1.510 . S
C233 H231 0.959 . S
C233 H232 0.961 . S
C233 H234 0.960 . S
H234 C233 0.960 . S
H235 N215 0.862 . S
O236 Co204 1.920 . S
O236 C209 1.289 . S
C237 O229 1.258 . S
C237 O230 1.266 . S
Co238 O241 1.970 . S
Co238 N255 1.989 . S
Co238 O263 1.967 . S
Co238 O270 1.920 . S
Co239 O242 1.966 . S
Co239 N248 2.022 . S
Co239 N256 1.993 . S
Co239 O264 1.941 . S
C240 O241 1.258 . S
C240 O242 1.263 . S
O241 Co238 1.970 . S
O241 C240 1.258 . S
O242 Co239 1.966 . S
O242 C240 1.263 . S
C243 O244 1.235 . S
C243 O270 1.289 . S
O244 C243 1.235 . S
C245 C247 1.400 . S
C245 N248 1.351 . S
C245 C250 1.501 . S
C246 C247 1.387 . S
C246 N249 1.341 . S
C247 C245 1.400 . S
C247 C246 1.387 . S
N248 Co239 2.022 . S
N248 C245 1.351 . S
N248 N249 1.365 . S
N249 C246 1.341 . S
N249 N248 1.365 . S
N249 H269 0.862 . S
C250 C245 1.501 . S
C250 H251 0.961 . S
C250 H252 0.961 . S
C250 H253 0.960 . S
H251 C250 0.961 . S
H252 C250 0.961 . S
H253 C250 0.960 . S
C254 N255 1.342 . S
C254 C258 1.401 . S
C254 C259 1.499 . S
N255 Co238 1.989 . S
N255 C254 1.342 . S
N255 N256 1.388 . S
N256 Co239 1.993 . S
N256 N255 1.388 . S
N256 C257 1.346 . S
C257 N256 1.346 . S
C257 C258 1.396 . S
C257 C267 1.510 . S
C258 C254 1.401 . S
C258 C257 1.396 . S
C259 C254 1.499 . S
C259 H260 0.959 . S
C259 H261 0.960 . S
C259 H262 0.961 . S
H260 C259 0.959 . S
H261 C259 0.960 . S
H262 C259 0.961 . S
O263 Co238 1.967 . S
O263 C271 1.258 . S
O264 Co239 1.941 . S
O264 C271 1.266 . S
H265 C267 0.959 . S
H266 C267 0.961 . S
C267 C257 1.510 . S
C267 H265 0.959 . S
C267 H266 0.961 . S
C267 H268 0.960 . S
H268 C267 0.960 . S
H269 N249 0.862 . S
O270 Co238 1.920 . S
O270 C243 1.289 . S
C271 O263 1.258 . S
C271 O264 1.266 . S
Co272 O275 1.970 . S
Co272 N289 1.989 . S
Co272 O297 1.967 . S
Co272 O304 1.920 . S
Co273 O276 1.966 . S
Co273 N282 2.022 . S
Co273 N290 1.993 . S
Co273 O298 1.941 . S
C274 O275 1.258 . S
C274 O276 1.263 . S
O275 Co272 1.970 . S
O275 C274 1.258 . S
O276 Co273 1.966 . S
O276 C274 1.263 . S
C277 O278 1.235 . S
C277 O304 1.289 . S
O278 C277 1.235 . S
C279 C281 1.400 . S
C279 N282 1.351 . S
C279 C284 1.501 . S
C280 C281 1.387 . S
C280 N283 1.341 . S
C281 C279 1.400 . S
C281 C280 1.387 . S
N282 Co273 2.022 . S
N282 C279 1.351 . S
N282 N283 1.365 . S
N283 C280 1.341 . S
N283 N282 1.365 . S
N283 H303 0.862 . S
C284 C279 1.501 . S
C284 H285 0.961 . S
C284 H286 0.961 . S
C284 H287 0.960 . S
H285 C284 0.961 . S
H286 C284 0.961 . S
H287 C284 0.960 . S
C288 N289 1.342 . S
C288 C292 1.401 . S
C288 C293 1.499 . S
N289 Co272 1.989 . S
N289 C288 1.342 . S
N289 N290 1.388 . S
N290 Co273 1.993 . S
N290 N289 1.388 . S
N290 C291 1.346 . S
C291 N290 1.346 . S
C291 C292 1.396 . S
C291 C301 1.510 . S
C292 C288 1.401 . S
C292 C291 1.396 . S
C293 C288 1.499 . S
C293 H294 0.959 . S
C293 H295 0.960 . S
C293 H296 0.961 . S
H294 C293 0.959 . S
H295 C293 0.960 . S
H296 C293 0.961 . S
O297 Co272 1.967 . S
O297 C305 1.258 . S
O298 Co273 1.941 . S
O298 C305 1.266 . S
H299 C301 0.959 . S
H300 C301 0.961 . S
C301 C291 1.510 . S
C301 H299 0.959 . S
C301 H300 0.961 . S
C301 H302 0.960 . S
H302 C301 0.960 . S
H303 N283 0.862 . S
O304 Co272 1.920 . S
O304 C277 1.289 . S
C305 O297 1.258 . S
C305 O298 1.266 . S
Co306 O309 1.970 . S
Co306 N323 1.989 . S
Co306 O331 1.967 . S
Co306 O338 1.920 . S
Co307 O310 1.966 . S
Co307 N316 2.022 . S
Co307 N324 1.993 . S
Co307 O332 1.941 . S
C308 O309 1.258 . S
C308 O310 1.263 . S
O309 Co306 1.970 . S
O309 C308 1.258 . S
O310 Co307 1.966 . S
O310 C308 1.263 . S
C311 O312 1.235 . S
C311 O338 1.289 . S
O312 C311 1.235 . S
C313 C315 1.400 . S
C313 N316 1.351 . S
C313 C318 1.501 . S
C314 C315 1.387 . S
C314 N317 1.341 . S
C315 C313 1.400 . S
C315 C314 1.387 . S
N316 Co307 2.022 . S
N316 C313 1.351 . S
N316 N317 1.365 . S
N317 C314 1.341 . S
N317 N316 1.365 . S
N317 H337 0.862 . S
C318 C313 1.501 . S
C318 H319 0.961 . S
C318 H320 0.961 . S
C318 H321 0.960 . S
H319 C318 0.961 . S
H320 C318 0.961 . S
H321 C318 0.960 . S
C322 N323 1.342 . S
C322 C326 1.401 . S
C322 C327 1.499 . S
N323 Co306 1.989 . S
N323 C322 1.342 . S
N323 N324 1.388 . S
N324 Co307 1.993 . S
N324 N323 1.388 . S
N324 C325 1.346 . S
C325 N324 1.346 . S
C325 C326 1.396 . S
C325 C335 1.510 . S
C326 C322 1.401 . S
C326 C325 1.396 . S
C327 C322 1.499 . S
C327 H328 0.959 . S
C327 H329 0.960 . S
C327 H330 0.961 . S
H328 C327 0.959 . S
H329 C327 0.960 . S
H330 C327 0.961 . S
O331 Co306 1.967 . S
O331 C339 1.258 . S
O332 Co307 1.941 . S
O332 C339 1.266 . S
H333 C335 0.959 . S
H334 C335 0.961 . S
C335 C325 1.510 . S
C335 H333 0.959 . S
C335 H334 0.961 . S
C335 H336 0.960 . S
H336 C335 0.960 . S
H337 N317 0.862 . S
O338 Co306 1.920 . S
O338 C311 1.289 . S
C339 O331 1.258 . S
C339 O332 1.266 . S
Co340 O343 1.970 . S
Co340 N357 1.989 . S
Co340 O365 1.967 . S
Co340 O372 1.920 . S
Co341 O344 1.966 . S
Co341 N350 2.022 . S
Co341 N358 1.993 . S
Co341 O366 1.941 . S
C342 O343 1.258 . S
C342 O344 1.263 . S
O343 Co340 1.970 . S
O343 C342 1.258 . S
O344 Co341 1.966 . S
O344 C342 1.263 . S
C345 O346 1.235 . S
C345 O372 1.289 . S
O346 C345 1.235 . S
C347 C349 1.400 . S
C347 N350 1.351 . S
C347 C352 1.501 . S
C348 C349 1.387 . S
C348 N351 1.341 . S
C349 C347 1.400 . S
C349 C348 1.387 . S
N350 Co341 2.022 . S
N350 C347 1.351 . S
N350 N351 1.365 . S
N351 C348 1.341 . S
N351 N350 1.365 . S
N351 H371 0.862 . S
C352 C347 1.501 . S
C352 H353 0.961 . S
C352 H354 0.961 . S
C352 H355 0.960 . S
H353 C352 0.961 . S
H354 C352 0.961 . S
H355 C352 0.960 . S
C356 N357 1.342 . S
C356 C360 1.401 . S
C356 C361 1.499 . S
N357 Co340 1.989 . S
N357 C356 1.342 . S
N357 N358 1.388 . S
N358 Co341 1.993 . S
N358 N357 1.388 . S
N358 C359 1.346 . S
C359 N358 1.346 . S
C359 C360 1.396 . S
C359 C369 1.510 . S
C360 C356 1.401 . S
C360 C359 1.396 . S
C361 C356 1.499 . S
C361 H362 0.959 . S
C361 H363 0.960 . S
C361 H364 0.961 . S
H362 C361 0.959 . S
H363 C361 0.960 . S
H364 C361 0.961 . S
O365 Co340 1.967 . S
O365 C373 1.258 . S
O366 Co341 1.941 . S
O366 C373 1.266 . S
H367 C369 0.959 . S
H368 C369 0.961 . S
C369 C359 1.510 . S
C369 H367 0.959 . S
C369 H368 0.961 . S
C369 H370 0.960 . S
H370 C369 0.960 . S
H371 N351 0.862 . S
O372 Co340 1.920 . S
O372 C345 1.289 . S
C373 O365 1.258 . S
C373 O366 1.266 . S
Co374 O377 1.970 . S
Co374 N391 1.989 . S
Co374 O399 1.967 . S
Co374 O406 1.920 . S
Co375 O378 1.966 . S
Co375 N384 2.022 . S
Co375 N392 1.993 . S
Co375 O400 1.941 . S
C376 O377 1.258 . S
C376 O378 1.263 . S
O377 Co374 1.970 . S
O377 C376 1.258 . S
O378 Co375 1.966 . S
O378 C376 1.263 . S
C379 O380 1.235 . S
C379 O406 1.289 . S
O380 C379 1.235 . S
C381 C383 1.400 . S
C381 N384 1.351 . S
C381 C386 1.501 . S
C382 C383 1.387 . S
C382 N385 1.341 . S
C383 C381 1.400 . S
C383 C382 1.387 . S
N384 Co375 2.022 . S
N384 C381 1.351 . S
N384 N385 1.365 . S
N385 C382 1.341 . S
N385 N384 1.365 . S
N385 H405 0.862 . S
C386 C381 1.501 . S
C386 H387 0.961 . S
C386 H388 0.961 . S
C386 H389 0.960 . S
H387 C386 0.961 . S
H388 C386 0.961 . S
H389 C386 0.960 . S
C390 N391 1.342 . S
C390 C394 1.401 . S
C390 C395 1.499 . S
N391 Co374 1.989 . S
N391 C390 1.342 . S
N391 N392 1.388 . S
N392 Co375 1.993 . S
N392 N391 1.388 . S
N392 C393 1.346 . S
C393 N392 1.346 . S
C393 C394 1.396 . S
C393 C403 1.510 . S
C394 C390 1.401 . S
C394 C393 1.396 . S
C395 C390 1.499 . S
C395 H396 0.959 . S
C395 H397 0.960 . S
C395 H398 0.961 . S
H396 C395 0.959 . S
H397 C395 0.960 . S
H398 C395 0.961 . S
O399 Co374 1.967 . S
O399 C407 1.258 . S
O400 Co375 1.941 . S
O400 C407 1.266 . S
H401 C403 0.959 . S
H402 C403 0.961 . S
C403 C393 1.510 . S
C403 H401 0.959 . S
C403 H402 0.961 . S
C403 H404 0.960 . S
H404 C403 0.960 . S
H405 N385 0.862 . S
O406 Co374 1.920 . S
O406 C379 1.289 . S
C407 O399 1.258 . S
C407 O400 1.266 . S
H408 C414 0.930 . S
H409 C418 0.930 . S
H410 C423 0.929 . S
H411 C421 0.929 . S
H412 C416 0.929 . S
H413 C422 0.929 . S
C414 H408 0.930 . S
C414 C415 1.367 . S
C414 C422 1.378 . S
C415 C414 1.367 . S
C415 C423 1.433 . S
C416 H412 0.929 . S
C416 C418 1.378 . S
C416 C420 1.350 . S
C417 C420 1.463 1_554 S
C417 C422 1.350 . S
C417 N425 1.427 . S
C418 H409 0.930 . S
C418 C416 1.378 . S
C418 C419 1.367 . S
C419 C418 1.367 . S
C419 C421 1.433 . S
C420 C416 1.350 . S
C420 C417 1.463 1_556 S
C420 N424 1.427 . S
C421 H411 0.929 . S
C421 C419 1.433 . S
C421 N424 1.384 . S
C422 H413 0.929 . S
C422 C414 1.378 . S
C422 C417 1.350 . S
C423 H410 0.929 . S
C423 C415 1.433 . S
C423 N425 1.384 . S
N424 C420 1.427 . S
N424 C421 1.384 . S
N425 C417 1.427 . S
N425 C423 1.384 . S
H426 C432 0.930 . S
H427 C436 0.930 . S
H428 C441 0.929 . S
H429 C439 0.929 . S
H430 C434 0.929 . S
H431 C440 0.929 . S
C432 H426 0.930 . S
C432 C433 1.367 . S
C432 C440 1.378 . S
C433 C432 1.367 . S
C433 C441 1.433 . S
C434 H430 0.929 . S
C434 C436 1.378 . S
C434 C438 1.350 . S
C435 C438 1.463 . S
C435 C440 1.350 . S
C435 N443 1.427 . S
C436 H427 0.930 . S
C436 C434 1.378 . S
C436 C437 1.367 . S
C437 C436 1.367 . S
C437 C439 1.433 . S
C438 C434 1.350 . S
C438 C435 1.463 . S
C438 N442 1.427 . S
C439 H429 0.929 . S
C439 C437 1.433 . S
C439 N442 1.384 . S
C440 H431 0.929 . S
C440 C432 1.378 . S
C440 C435 1.350 . S
C441 H428 0.929 . S
C441 C433 1.433 . S
C441 N443 1.384 . S
N442 C438 1.427 . S
N442 C439 1.384 . S
N443 C435 1.427 . S
N443 C441 1.384 . S
H444 C450 0.930 . S
H445 C454 0.930 . S
H446 C459 0.929 . S
H447 C457 0.929 . S
H448 C452 0.929 1_554 S
H449 C458 0.929 1_556 S
C450 H444 0.930 . S
C450 C451 1.367 . S
C450 C458 1.378 . S
C451 C450 1.367 . S
C451 C459 1.433 . S
C452 H448 0.929 1_556 S
C452 C454 1.378 . S
C452 C456 1.350 . S
C453 C456 1.463 1_554 S
C453 C458 1.350 . S
C453 N461 1.427 . S
C454 H445 0.930 . S
C454 C452 1.378 . S
C454 C455 1.367 . S
C455 C454 1.367 . S
C455 C457 1.433 . S
C456 C452 1.350 . S
C456 C453 1.463 1_556 S
C456 N460 1.427 . S
C457 H447 0.929 . S
C457 C455 1.433 . S
C457 N460 1.384 . S
C458 H449 0.929 1_554 S
C458 C450 1.378 . S
C458 C453 1.350 . S
C459 H446 0.929 . S
C459 C451 1.433 . S
C459 N461 1.384 . S
N460 C456 1.427 . S
N460 C457 1.384 . S
N461 C453 1.427 . S
N461 C459 1.384 . S
H462 C468 0.930 . S
H463 C472 0.930 . S
H464 C477 0.929 . S
H465 C475 0.929 . S
H466 C470 0.929 . S
H467 C476 0.929 . S
C468 H462 0.930 . S
C468 C469 1.367 . S
C468 C476 1.378 . S
C469 C468 1.367 . S
C469 C477 1.433 . S
C470 H466 0.929 . S
C470 C472 1.378 . S
C470 C474 1.350 . S
C471 C474 1.463 . S
C471 C476 1.350 . S
C471 N479 1.427 . S
C472 H463 0.930 . S
C472 C470 1.378 . S
C472 C473 1.367 . S
C473 C472 1.367 . S
C473 C475 1.433 . S
C474 C470 1.350 . S
C474 C471 1.463 . S
C474 N478 1.427 . S
C475 H465 0.929 . S
C475 C473 1.433 . S
C475 N478 1.384 . S
C476 H467 0.929 . S
C476 C468 1.378 . S
C476 C471 1.350 . S
C477 H464 0.929 . S
C477 C469 1.433 . S
C477 N479 1.384 . S
N478 C474 1.427 . S
N478 C475 1.384 . S
N479 C471 1.427 . S
N479 C477 1.384 . S
H480 C486 0.930 . S
H481 C490 0.930 . S
H482 C495 0.929 . S
H483 C493 0.929 . S
H484 C488 0.929 1_554 S
H485 C494 0.929 1_556 S
C486 H480 0.930 . S
C486 C487 1.367 . S
C486 C494 1.378 . S
C487 C486 1.367 . S
C487 C495 1.433 . S
C488 H484 0.929 1_556 S
C488 C490 1.378 . S
C488 C492 1.350 . S
C489 C492 1.463 1_554 S
C489 C494 1.350 . S
C489 N497 1.427 . S
C490 H481 0.930 . S
C490 C488 1.378 . S
C490 C491 1.367 . S
C491 C490 1.367 . S
C491 C493 1.433 . S
C492 C488 1.350 . S
C492 C489 1.463 1_556 S
C492 N496 1.427 . S
C493 H483 0.929 . S
C493 C491 1.433 . S
C493 N496 1.384 . S
C494 H485 0.929 1_554 S
C494 C486 1.378 . S
C494 C489 1.350 . S
C495 H482 0.929 . S
C495 C487 1.433 . S
C495 N497 1.384 . S
N496 C492 1.427 . S
N496 C493 1.384 . S
N497 C489 1.427 . S
N497 C495 1.384 . S
H498 C504 0.930 . S
H499 C508 0.930 . S
H500 C513 0.929 . S
H501 C511 0.929 . S
H502 C506 0.929 . S
H503 C512 0.929 . S
C504 H498 0.930 . S
C504 C505 1.367 . S
C504 C512 1.378 . S
C505 C504 1.367 . S
C505 C513 1.433 . S
C506 H502 0.929 . S
C506 C508 1.378 . S
C506 C510 1.350 . S
C507 C510 1.463 . S
C507 C512 1.350 . S
C507 N515 1.427 . S
C508 H499 0.930 . S
C508 C506 1.378 . S
C508 C509 1.367 . S
C509 C508 1.367 . S
C509 C511 1.433 . S
C510 C506 1.350 . S
C510 C507 1.463 . S
C510 N514 1.427 . S
C511 H501 0.929 . S
C511 C509 1.433 . S
C511 N514 1.384 . S
C512 H503 0.929 . S
C512 C504 1.378 . S
C512 C507 1.350 . S
C513 H500 0.929 . S
C513 C505 1.433 . S
C513 N515 1.384 . S
N514 C510 1.427 . S
N514 C511 1.384 . S
N515 C507 1.427 . S
N515 C513 1.384 . S
H516 C522 0.930 . S
H517 C526 0.930 . S
H518 C531 0.929 . S
H519 C529 0.929 . S
H520 C524 0.936 . S
H521 C530 0.936 . S
C522 H516 0.930 . S
C522 C523 1.367 . S
C522 C530 1.373 1_554 S
C523 C522 1.367 . S
C523 C531 1.433 . S
C524 H520 0.936 . S
C524 C526 1.373 1_554 S
C524 C528 1.347 1_554 S
C525 C528 1.463 1_554 S
C525 C530 1.347 1_554 S
C525 N533 1.427 . S
C526 H517 0.930 . S
C526 C524 1.373 1_556 S
C526 C527 1.367 . S
C527 C526 1.367 . S
C527 C529 1.433 . S
C528 C524 1.347 1_556 S
C528 C525 1.463 1_556 S
C528 N532 1.427 . S
C529 H519 0.929 . S
C529 C527 1.433 . S
C529 N532 1.384 . S
C530 H521 0.936 . S
C530 C522 1.373 1_556 S
C530 C525 1.347 1_556 S
C531 H518 0.929 . S
C531 C523 1.433 . S
C531 N533 1.384 . S
N532 C528 1.427 . S
N532 C529 1.384 . S
N533 C525 1.427 . S
N533 C531 1.384 . S
H534 C540 0.930 . S
H535 C544 0.930 . S
H536 C549 0.929 . S
H537 C547 0.929 . S
H538 C542 0.929 . S
H539 C548 0.929 . S
C540 H534 0.930 . S
C540 C541 1.367 . S
C540 C548 1.378 . S
C541 C540 1.367 . S
C541 C549 1.433 . S
C542 H538 0.929 . S
C542 C544 1.378 . S
C542 C546 1.350 . S
C543 C546 1.463 . S
C543 C548 1.350 . S
C543 N551 1.427 . S
C544 H535 0.930 . S
C544 C542 1.378 . S
C544 C545 1.367 . S
C545 C544 1.367 . S
C545 C547 1.433 . S
C546 C542 1.350 . S
C546 C543 1.463 . S
C546 N550 1.427 . S
C547 H537 0.929 . S
C547 C545 1.433 . S
C547 N550 1.384 . S
C548 H539 0.929 . S
C548 C540 1.378 . S
C548 C543 1.350 . S
C549 H536 0.929 . S
C549 C541 1.433 . S
C549 N551 1.384 . S
N550 C546 1.427 . S
N550 C547 1.384 . S
N551 C543 1.427 . S
N551 C549 1.384 . S
H552 C558 0.930 . S
H553 C562 0.930 . S
H554 C567 0.929 . S
H555 C565 0.929 . S
H556 C560 0.929 . S
H557 C566 0.929 . S
C558 H552 0.930 . S
C558 C559 1.367 . S
C558 C566 1.378 . S
C559 C558 1.367 . S
C559 C567 1.433 . S
C560 H556 0.929 . S
C560 C562 1.378 . S
C560 C564 1.350 . S
C561 C564 1.463 1_554 S
C561 C566 1.350 . S
C561 N569 1.427 . S
C562 H553 0.930 . S
C562 C560 1.378 . S
C562 C563 1.367 . S
C563 C562 1.367 . S
C563 C565 1.433 . S
C564 C560 1.350 . S
C564 C561 1.463 1_556 S
C564 N568 1.427 . S
C565 H555 0.929 . S
C565 C563 1.433 . S
C565 N568 1.384 . S
C566 H557 0.929 . S
C566 C558 1.378 . S
C566 C561 1.350 . S
C567 H554 0.929 . S
C567 C559 1.433 . S
C567 N569 1.384 . S
N568 C564 1.427 . S
N568 C565 1.384 . S
N569 C561 1.427 . S
N569 C567 1.384 . S
H570 C576 0.930 . S
H571 C580 0.930 . S
H572 C585 0.929 . S
H573 C583 0.929 . S
H574 C578 0.929 . S
H575 C584 0.929 . S
C576 H570 0.930 . S
C576 C577 1.367 . S
C576 C584 1.378 . S
C577 C576 1.367 . S
C577 C585 1.433 . S
C578 H574 0.929 . S
C578 C580 1.378 . S
C578 C582 1.350 . S
C579 C582 1.463 . S
C579 C584 1.350 . S
C579 N587 1.427 . S
C580 H571 0.930 . S
C580 C578 1.378 . S
C580 C581 1.367 . S
C581 C580 1.367 . S
C581 C583 1.433 . S
C582 C578 1.350 . S
C582 C579 1.463 . S
C582 N586 1.427 . S
C583 H573 0.929 . S
C583 C581 1.433 . S
C583 N586 1.384 . S
C584 H575 0.929 . S
C584 C576 1.378 . S
C584 C579 1.350 . S
C585 H572 0.929 . S
C585 C577 1.433 . S
C585 N587 1.384 . S
N586 C582 1.427 . S
N586 C583 1.384 . S
N587 C579 1.427 . S
N587 C585 1.384 . S
H588 C594 0.930 . S
H589 C598 0.930 . S
H590 C603 0.929 . S
H591 C601 0.929 . S
H592 C596 0.929 . S
H593 C602 0.929 . S
C594 H588 0.930 . S
C594 C595 1.367 . S
C594 C602 1.378 . S
C595 C594 1.367 . S
C595 C603 1.433 . S
C596 H592 0.929 . S
C596 C598 1.378 . S
C596 C600 1.350 . S
C597 C600 1.463 1_554 S
C597 C602 1.350 . S
C597 N605 1.427 . S
C598 H589 0.930 . S
C598 C596 1.378 . S
C598 C599 1.367 . S
C599 C598 1.367 . S
C599 C601 1.433 . S
C600 C596 1.350 . S
C600 C597 1.463 1_556 S
C600 N604 1.427 . S
C601 H591 0.929 . S
C601 C599 1.433 . S
C601 N604 1.384 . S
C602 H593 0.929 . S
C602 C594 1.378 . S
C602 C597 1.350 . S
C603 H590 0.929 . S
C603 C595 1.433 . S
C603 N605 1.384 . S
N604 C600 1.427 . S
N604 C601 1.384 . S
N605 C597 1.427 . S
N605 C603 1.384 . S
H606 C612 0.930 . S
H607 C616 0.930 . S
H608 C621 0.929 . S
H609 C619 0.929 . S
H610 C614 0.929 . S
H611 C620 0.929 . S
C612 H606 0.930 . S
C612 C613 1.367 . S
C612 C620 1.378 . S
C613 C612 1.367 . S
C613 C621 1.433 . S
C614 H610 0.929 . S
C614 C616 1.378 . S
C614 C618 1.350 . S
C615 C618 1.463 . S
C615 C620 1.350 . S
C615 N623 1.427 . S
C616 H607 0.930 . S
C616 C614 1.378 . S
C616 C617 1.367 . S
C617 C616 1.367 . S
C617 C619 1.433 . S
C618 C614 1.350 . S
C618 C615 1.463 . S
C618 N622 1.427 . S
C619 H609 0.929 . S
C619 C617 1.433 . S
C619 N622 1.384 . S
C620 H611 0.929 . S
C620 C612 1.378 . S
C620 C615 1.350 . S
C621 H608 0.929 . S
C621 C613 1.433 . S
C621 N623 1.384 . S
N622 C618 1.427 . S
N622 C619 1.384 . S
N623 C615 1.427 . S
N623 C621 1.384 . S
H624 C630 0.930 . S
H625 C634 0.930 . S
H626 C639 0.929 . S
H627 C637 0.929 . S
H628 C632 0.929 . S
H629 C638 0.929 . S
C630 H624 0.930 . S
C630 C631 1.367 . S
C630 C638 1.378 . S
C631 C630 1.367 . S
C631 C639 1.433 . S
C632 H628 0.929 . S
C632 C634 1.378 . S
C632 C636 1.350 . S
C633 C636 1.463 1_556 S
C633 C638 1.350 . S
C633 N641 1.427 . S
C634 H625 0.930 . S
C634 C632 1.378 . S
C634 C635 1.367 . S
C635 C634 1.367 . S
C635 C637 1.433 . S
C636 C632 1.350 . S
C636 C633 1.463 1_554 S
C636 N640 1.427 . S
C637 H627 0.929 . S
C637 C635 1.433 . S
C637 N640 1.384 . S
C638 H629 0.929 . S
C638 C630 1.378 . S
C638 C633 1.350 . S
C639 H626 0.929 . S
C639 C631 1.433 . S
C639 N641 1.384 . S
N640 C636 1.427 . S
N640 C637 1.384 . S
N641 C633 1.427 . S
N641 C639 1.384 . S
H642 C648 0.930 . S
H643 C652 0.930 . S
H644 C657 0.929 . S
H645 C655 0.929 . S
H646 C650 0.929 . S
H647 C656 0.929 . S
C648 H642 0.930 . S
C648 C649 1.367 . S
C648 C656 1.378 . S
C649 C648 1.367 . S
C649 C657 1.433 . S
C650 H646 0.929 . S
C650 C652 1.378 . S
C650 C654 1.350 . S
C651 C654 1.463 . S
C651 C656 1.350 . S
C651 N659 1.427 . S
C652 H643 0.930 . S
C652 C650 1.378 . S
C652 C653 1.367 . S
C653 C652 1.367 . S
C653 C655 1.433 . S
C654 C650 1.350 . S
C654 C651 1.463 . S
C654 N658 1.427 . S
C655 H645 0.929 . S
C655 C653 1.433 . S
C655 N658 1.384 . S
C656 H647 0.929 . S
C656 C648 1.378 . S
C656 C651 1.350 . S
C657 H644 0.929 . S
C657 C649 1.433 . S
C657 N659 1.384 . S
N658 C654 1.427 . S
N658 C655 1.384 . S
N659 C651 1.427 . S
N659 C657 1.384 . S
H660 C666 0.930 . S
H661 C670 0.930 . S
H662 C675 0.929 . S
H663 C673 0.929 . S
H664 C668 0.929 . S
H665 C674 0.929 . S
C666 H660 0.930 . S
C666 C667 1.367 . S
C666 C674 1.378 . S
C667 C666 1.367 . S
C667 C675 1.433 . S
C668 H664 0.929 . S
C668 C670 1.378 . S
C668 C672 1.350 . S
C669 C672 1.463 1_554 S
C669 C674 1.350 . S
C669 N677 1.427 1_554 S
C670 H661 0.930 . S
C670 C668 1.378 . S
C670 C671 1.367 . S
C671 C670 1.367 . S
C671 C673 1.433 . S
C672 C668 1.350 . S
C672 C669 1.463 1_556 S
C672 N676 1.427 1_556 S
C673 H663 0.929 . S
C673 C671 1.433 . S
C673 N676 1.384 1_556 S
C674 H665 0.929 . S
C674 C666 1.378 . S
C674 C669 1.350 . S
C675 H662 0.929 . S
C675 C667 1.433 . S
C675 N677 1.384 1_554 S
N676 C672 1.427 1_554 S
N676 C673 1.384 1_554 S
N677 C669 1.427 1_556 S
N677 C675 1.384 1_556 S
H678 C684 0.930 . S
H679 C688 0.930 . S
H680 C693 0.929 . S
H681 C691 0.929 . S
H682 C686 0.929 . S
H683 C692 0.929 . S
C684 H678 0.930 . S
C684 C685 1.367 . S
C684 C692 1.378 . S
C685 C684 1.367 . S
C685 C693 1.433 . S
C686 H682 0.929 . S
C686 C688 1.378 . S
C686 C690 1.350 . S
C687 C690 1.463 . S
C687 C692 1.350 . S
C687 N695 1.427 . S
C688 H679 0.930 . S
C688 C686 1.378 . S
C688 C689 1.367 . S
C689 C688 1.367 . S
C689 C691 1.433 . S
C690 C686 1.350 . S
C690 C687 1.463 . S
C690 N694 1.427 . S
C691 H681 0.929 . S
C691 C689 1.433 . S
C691 N694 1.384 . S
C692 H683 0.929 . S
C692 C684 1.378 . S
C692 C687 1.350 . S
C693 H680 0.929 . S
C693 C685 1.433 . S
C693 N695 1.384 . S
N694 C690 1.427 . S
N694 C691 1.384 . S
N695 C687 1.427 . S
N695 C693 1.384 . S
H696 C702 0.930 . S
H697 C706 0.930 . S
H698 C711 0.929 . S
H699 C709 0.929 . S
H700 C704 0.929 . S
H701 C710 0.929 . S
C702 H696 0.930 . S
C702 C703 1.367 . S
C702 C710 1.378 . S
C703 C702 1.367 . S
C703 C711 1.433 . S
C704 H700 0.929 . S
C704 C706 1.378 . S
C704 C708 1.350 . S
C705 C708 1.463 1_554 S
C705 C710 1.350 . S
C705 N713 1.427 1_554 S
C706 H697 0.930 . S
C706 C704 1.378 . S
C706 C707 1.367 . S
C707 C706 1.367 . S
C707 C709 1.433 . S
C708 C704 1.350 . S
C708 C705 1.463 1_556 S
C708 N712 1.427 1_556 S
C709 H699 0.929 . S
C709 C707 1.433 . S
C709 N712 1.384 1_556 S
C710 H701 0.929 . S
C710 C702 1.378 . S
C710 C705 1.350 . S
C711 H698 0.929 . S
C711 C703 1.433 . S
C711 N713 1.384 1_554 S
N712 C708 1.427 1_554 S
N712 C709 1.384 1_554 S
N713 C705 1.427 1_556 S
N713 C711 1.384 1_556 S
H714 C720 0.930 . S
H715 C724 0.930 . S
H716 C729 0.929 . S
H717 C727 0.929 . S
H718 C722 0.929 . S
H719 C728 0.929 . S
C720 H714 0.930 . S
C720 C721 1.367 . S
C720 C728 1.378 . S
C721 C720 1.367 . S
C721 C729 1.433 . S
C722 H718 0.929 . S
C722 C724 1.378 . S
C722 C726 1.350 . S
C723 C726 1.463 . S
C723 C728 1.350 . S
C723 N731 1.427 . S
C724 H715 0.930 . S
C724 C722 1.378 . S
C724 C725 1.367 . S
C725 C724 1.367 . S
C725 C727 1.433 . S
C726 C722 1.350 . S
C726 C723 1.463 . S
C726 N730 1.427 . S
C727 H717 0.929 . S
C727 C725 1.433 . S
C727 N730 1.384 . S
C728 H719 0.929 . S
C728 C720 1.378 . S
C728 C723 1.350 . S
C729 H716 0.929 . S
C729 C721 1.433 . S
C729 N731 1.384 . S
N730 C726 1.427 . S
N730 C727 1.384 . S
N731 C723 1.427 . S
N731 C729 1.384 . S
H732 C738 0.930 . S
H733 C742 0.930 . S
H734 C747 0.929 . S
H735 C745 0.929 . S
H736 C740 0.929 . S
H737 C746 0.929 . S
C738 H732 0.930 . S
C738 C739 1.367 . S
C738 C746 1.378 . S
C739 C738 1.367 . S
C739 C747 1.433 . S
C740 H736 0.929 . S
C740 C742 1.378 . S
C740 C744 1.350 . S
C741 C744 1.463 1_556 S
C741 C746 1.350 . S
C741 N749 1.433 . S
C742 H733 0.930 . S
C742 C740 1.378 . S
C742 C743 1.367 . S
C743 C742 1.367 . S
C743 C745 1.433 . S
C744 C740 1.350 . S
C744 C741 1.463 1_554 S
C744 N748 1.433 . S
C745 H735 0.929 . S
C745 C743 1.433 . S
C745 N748 1.394 . S
C746 H737 0.929 . S
C746 C738 1.378 . S
C746 C741 1.350 . S
C747 H734 0.929 . S
C747 C739 1.433 . S
C747 N749 1.394 . S
N748 C744 1.433 . S
N748 C745 1.394 . S
N749 C741 1.433 . S
N749 C747 1.394 . S
H750 C756 0.930 . S
H751 C760 0.930 . S
H752 C765 0.929 . S
H753 C763 0.929 . S
H754 C758 0.929 . S
H755 C764 0.929 . S
C756 H750 0.930 . S
C756 C757 1.367 . S
C756 C764 1.378 . S
C757 C756 1.367 . S
C757 C765 1.433 . S
C758 H754 0.929 . S
C758 C760 1.378 . S
C758 C762 1.350 . S
C759 C762 1.463 . S
C759 C764 1.350 . S
C759 N767 1.427 . S
C760 H751 0.930 . S
C760 C758 1.378 . S
C760 C761 1.367 . S
C761 C760 1.367 . S
C761 C763 1.433 . S
C762 C758 1.350 . S
C762 C759 1.463 . S
C762 N766 1.427 . S
C763 H753 0.929 . S
C763 C761 1.433 . S
C763 N766 1.384 . S
C764 H755 0.929 . S
C764 C756 1.378 . S
C764 C759 1.350 . S
C765 H752 0.929 . S
C765 C757 1.433 . S
C765 N767 1.384 . S
N766 C762 1.427 . S
N766 C763 1.384 . S
N767 C759 1.427 . S
N767 C765 1.384 . S
H768 C774 0.930 . S
H769 C778 0.930 . S
H770 C783 0.929 . S
H771 C781 0.929 . S
H772 C776 0.918 1_554 S
H773 C782 0.918 1_556 S
C774 H768 0.930 . S
C774 C775 1.367 . S
C774 C782 1.378 . S
C775 C774 1.367 . S
C775 C783 1.433 . S
C776 H772 0.918 1_556 S
C776 C778 1.378 . S
C776 C780 1.350 . S
C777 C780 1.463 1_554 S
C777 C782 1.350 . S
C777 N785 1.427 . S
C778 H769 0.930 . S
C778 C776 1.378 . S
C778 C779 1.367 . S
C779 C778 1.367 . S
C779 C781 1.433 . S
C780 C776 1.350 . S
C780 C777 1.463 1_556 S
C780 N784 1.427 . S
C781 H771 0.929 . S
C781 C779 1.433 . S
C781 N784 1.384 . S
C782 H773 0.918 1_554 S
C782 C774 1.378 . S
C782 C777 1.350 . S
C783 H770 0.929 . S
C783 C775 1.433 . S
C783 N785 1.384 . S
N784 C780 1.427 . S
N784 C781 1.384 . S
N785 C777 1.427 . S
N785 C783 1.384 . S
H786 C792 0.930 . S
H787 C796 0.930 . S
H788 C801 0.929 . S
H789 C799 0.929 . S
H790 C794 0.929 . S
H791 C800 0.929 . S
C792 H786 0.930 . S
C792 C793 1.367 . S
C792 C800 1.378 . S
C793 C792 1.367 . S
C793 C801 1.433 . S
C794 H790 0.929 . S
C794 C796 1.378 . S
C794 C798 1.350 . S
C795 C798 1.463 . S
C795 C800 1.350 . S
C795 N803 1.427 . S
C796 H787 0.930 . S
C796 C794 1.378 . S
C796 C797 1.367 . S
C797 C796 1.367 . S
C797 C799 1.433 . S
C798 C794 1.350 . S
C798 C795 1.463 . S
C798 N802 1.427 . S
C799 H789 0.929 . S
C799 C797 1.433 . S
C799 N802 1.384 . S
C800 H791 0.929 . S
C800 C792 1.378 . S
C800 C795 1.350 . S
C801 H788 0.929 . S
C801 C793 1.433 . S
C801 N803 1.384 . S
N802 C798 1.427 . S
N802 C799 1.384 . S
N803 C795 1.427 . S
N803 C801 1.384 . S
H804 C810 0.930 . S
H805 C814 0.930 . S
H806 C819 0.929 . S
H807 C817 0.929 . S
H808 C812 0.929 . S
H809 C818 0.929 . S
C810 H804 0.930 . S
C810 C811 1.367 . S
C810 C818 1.378 . S
C811 C810 1.367 . S
C811 C819 1.433 . S
C812 H808 0.929 . S
C812 C814 1.378 . S
C812 C816 1.350 . S
C813 C816 1.463 1_554 S
C813 C818 1.350 . S
C813 N821 1.427 1_554 S
C814 H805 0.930 . S
C814 C812 1.378 . S
C814 C815 1.367 . S
C815 C814 1.367 . S
C815 C817 1.433 . S
C816 C812 1.350 . S
C816 C813 1.463 1_556 S
C816 N820 1.427 1_556 S
C817 H807 0.929 . S
C817 C815 1.433 . S
C817 N820 1.384 1_556 S
C818 H809 0.929 . S
C818 C810 1.378 . S
C818 C813 1.350 . S
C819 H806 0.929 . S
C819 C811 1.433 . S
C819 N821 1.384 1_554 S
N820 C816 1.427 1_554 S
N820 C817 1.384 1_554 S
N821 C813 1.427 1_556 S
N821 C819 1.384 1_556 S
H822 C828 0.930 . S
H823 C832 0.930 . S
H824 C837 0.929 . S
H825 C835 0.929 . S
H826 C830 0.929 . S
H827 C836 0.929 . S
C828 H822 0.930 . S
C828 C829 1.367 . S
C828 C836 1.378 . S
C829 C828 1.367 . S
C829 C837 1.433 . S
C830 H826 0.929 . S
C830 C832 1.378 . S
C830 C834 1.350 . S
C831 C834 1.463 . S
C831 C836 1.350 . S
C831 N839 1.427 . S
C832 H823 0.930 . S
C832 C830 1.378 . S
C832 C833 1.367 . S
C833 C832 1.367 . S
C833 C835 1.433 . S
C834 C830 1.350 . S
C834 C831 1.463 . S
C834 N838 1.427 . S
C835 H825 0.929 . S
C835 C833 1.433 . S
C835 N838 1.384 . S
C836 H827 0.929 . S
C836 C828 1.378 . S
C836 C831 1.350 . S
C837 H824 0.929 . S
C837 C829 1.433 . S
C837 N839 1.384 . S
N838 C834 1.427 . S
N838 C835 1.384 . S
N839 C831 1.427 . S
N839 C837 1.384 . S
H840 C846 0.930 . S
H841 C850 0.930 . S
H842 C855 0.929 . S
H843 C853 0.929 . S
H844 C848 0.929 . S
H845 C854 0.929 . S
C846 H840 0.930 . S
C846 C847 1.367 . S
C846 C854 1.378 . S
C847 C846 1.367 . S
C847 C855 1.433 . S
C848 H844 0.929 . S
C848 C850 1.378 . S
C848 C852 1.350 . S
C849 C852 1.463 . S
C849 C854 1.350 . S
C849 N857 1.427 . S
C850 H841 0.930 . S
C850 C848 1.378 . S
C850 C851 1.367 . S
C851 C850 1.367 . S
C851 C853 1.433 . S
C852 C848 1.350 . S
C852 C849 1.463 . S
C852 N856 1.427 . S
C853 H843 0.929 . S
C853 C851 1.433 . S
C853 N856 1.384 . S
C854 H845 0.929 . S
C854 C846 1.378 . S
C854 C849 1.350 . S
C855 H842 0.929 . S
C855 C847 1.433 . S
C855 N857 1.384 . S
N856 C852 1.427 . S
N856 C853 1.384 . S
N857 C849 1.427 . S
N857 C855 1.384 . S
H858 C864 0.930 . S
H859 C868 0.930 . S
H860 C873 0.929 . S
H861 C871 0.929 . S
H862 C866 0.929 . S
H863 C872 0.929 . S
C864 H858 0.930 . S
C864 C865 1.367 . S
C864 C872 1.378 . S
C865 C864 1.367 . S
C865 C873 1.433 . S
C866 H862 0.929 . S
C866 C868 1.378 . S
C866 C870 1.350 . S
C867 C870 1.463 1_455 S
C867 C872 1.350 . S
C867 N875 1.427 . S
C868 H859 0.930 . S
C868 C866 1.378 . S
C868 C869 1.367 . S
C869 C868 1.367 . S
C869 C871 1.433 . S
C870 C866 1.350 . S
C870 C867 1.463 1_655 S
C870 N874 1.427 . S
C871 H861 0.929 . S
C871 C869 1.433 . S
C871 N874 1.384 . S
C872 H863 0.929 . S
C872 C864 1.378 . S
C872 C867 1.350 . S
C873 H860 0.929 . S
C873 C865 1.433 . S
C873 N875 1.384 . S
N874 C870 1.427 . S
N874 C871 1.384 . S
N875 C867 1.427 . S
N875 C873 1.384 . S
H876 C882 0.930 . S
H877 C886 0.930 . S
H878 C891 0.929 . S
H879 C889 0.929 . S
H880 C884 0.929 . S
H881 C890 0.929 . S
C882 H876 0.930 . S
C882 C883 1.367 . S
C882 C890 1.378 . S
C883 C882 1.367 . S
C883 C891 1.433 . S
C884 H880 0.929 . S
C884 C886 1.378 . S
C884 C888 1.350 . S
C885 C888 1.463 1_545 S
C885 C890 1.350 . S
C885 N893 1.427 . S
C886 H877 0.930 . S
C886 C884 1.378 . S
C886 C887 1.367 . S
C887 C886 1.367 . S
C887 C889 1.433 . S
C888 C884 1.350 . S
C888 C885 1.463 1_565 S
C888 N892 1.427 . S
C889 H879 0.929 . S
C889 C887 1.433 . S
C889 N892 1.384 . S
C890 H881 0.929 . S
C890 C882 1.378 . S
C890 C885 1.350 . S
C891 H878 0.929 . S
C891 C883 1.433 . S
C891 N893 1.384 . S
N892 C888 1.427 . S
N892 C889 1.384 . S
N893 C885 1.427 . S
N893 C891 1.384 . S
H894 C900 0.930 . S
H895 C904 0.930 . S
H896 C909 0.929 . S
H897 C907 0.929 . S
H898 C902 0.929 . S
H899 C908 0.929 . S
C900 H894 0.930 . S
C900 C901 1.367 . S
C900 C908 1.378 . S
C901 C900 1.367 . S
C901 C909 1.433 . S
C902 H898 0.929 . S
C902 C904 1.378 . S
C902 C906 1.350 . S
C903 C906 1.463 . S
C903 C908 1.350 . S
C903 N911 1.427 . S
C904 H895 0.930 . S
C904 C902 1.378 . S
C904 C905 1.367 . S
C905 C904 1.367 . S
C905 C907 1.433 . S
C906 C902 1.350 . S
C906 C903 1.463 . S
C906 N910 1.427 . S
C907 H897 0.929 . S
C907 C905 1.433 . S
C907 N910 1.384 . S
C908 H899 0.929 . S
C908 C900 1.378 . S
C908 C903 1.350 . S
C909 H896 0.929 . S
C909 C901 1.433 . S
C909 N911 1.384 . S
N910 C906 1.427 . S
N910 C907 1.384 . S
N911 C903 1.427 . S
N911 C909 1.384 . S
H912 C918 0.930 . S
H913 C922 0.930 . S
H914 C927 0.929 . S
H915 C925 0.929 . S
H916 C920 0.929 . S
H917 C926 0.929 . S
C918 H912 0.930 . S
C918 C919 1.367 . S
C918 C926 1.378 . S
C919 C918 1.367 . S
C919 C927 1.433 . S
C920 H916 0.929 . S
C920 C922 1.378 . S
C920 C924 1.350 . S
C921 C924 1.463 1_455 S
C921 C926 1.350 . S
C921 N929 1.427 . S
C922 H913 0.930 . S
C922 C920 1.378 . S
C922 C923 1.367 . S
C923 C922 1.367 . S
C923 C925 1.433 . S
C924 C920 1.350 . S
C924 C921 1.463 1_655 S
C924 N928 1.427 . S
C925 H915 0.929 . S
C925 C923 1.433 . S
C925 N928 1.384 . S
C926 H917 0.929 . S
C926 C918 1.378 . S
C926 C921 1.350 . S
C927 H914 0.929 . S
C927 C919 1.433 . S
C927 N929 1.384 . S
N928 C924 1.427 . S
N928 C925 1.384 . S
N929 C921 1.427 . S
N929 C927 1.384 . S
H930 C936 0.930 . S
H931 C940 0.930 . S
H932 C945 0.929 . S
H933 C943 0.929 . S
H934 C938 0.929 . S
H935 C944 0.929 . S
C936 H930 0.930 . S
C936 C937 1.367 . S
C936 C944 1.378 . S
C937 C936 1.367 . S
C937 C945 1.433 . S
C938 H934 0.929 . S
C938 C940 1.378 . S
C938 C942 1.350 . S
C939 C942 1.463 1_565 S
C939 C944 1.350 . S
C939 N947 1.427 . S
C940 H931 0.930 . S
C940 C938 1.378 . S
C940 C941 1.367 . S
C941 C940 1.367 . S
C941 C943 1.433 . S
C942 C938 1.350 . S
C942 C939 1.463 1_545 S
C942 N946 1.427 . S
C943 H933 0.929 . S
C943 C941 1.433 . S
C943 N946 1.384 . S
C944 H935 0.929 . S
C944 C936 1.378 . S
C944 C939 1.350 . S
C945 H932 0.929 . S
C945 C937 1.433 . S
C945 N947 1.384 . S
N946 C942 1.427 . S
N946 C943 1.384 . S
N947 C939 1.427 . S
N947 C945 1.384 . S
C415 C2 2.954 . S
C419 C206 2.954 . S
C433 C36 2.954 . S
C437 C240 2.954 . S
C451 C70 2.954 . S
C455 C274 2.954 . S
C469 C308 2.954 . S
C473 C104 2.954 . S
C487 C138 2.954 . S
C491 C342 2.954 . S
C505 C376 2.954 . S
C509 C172 2.954 . S
C523 C311 1.105 . S
C527 C107 1.103 . S
C541 C141 1.098 . S
C545 C345 1.094 . S
C559 C379 1.106 . S
C563 C175 1.091 . S
C577 C209 1.095 . S
C581 C5 1.097 . S
C595 C243 1.091 . S
C599 C39 1.106 . S
C613 C73 1.104 . S
C617 C277 1.104 . S
C631 C349 0.768 . S
C635 C9 0.756 . S
C649 C43 0.773 . S
C653 C383 0.760 . S
C667 C77 0.761 . S
C671 C213 0.758 . S
C685 C111 0.757 . S
C689 C247 0.771 . S
C703 C145 0.762 . S
C707 C281 0.757 . S
C721 C179 0.769 . S
C725 C315 0.770 . S
C739 C122 2.258 . S
C743 C258 2.259 . S
C757 C156 2.258 . S
C761 C292 2.260 . S
C775 C326 2.260 . S
C779 C190 2.257 . S
C793 C20 2.261 . S
C797 C360 2.257 . S
C811 C394 2.258 . S
C815 C54 2.259 . S
C829 C88 2.257 . S
C833 C224 2.260 . S
C847 C33 0.744 . S
C851 C339 0.739 . S
C865 C373 0.741 . S
C869 C67 0.741 . S
C883 C407 0.745 . S
C887 C101 0.736 . S
C901 C237 0.743 . S
C905 C135 0.740 . S
C919 C169 0.746 . S
C923 C271 0.736 . S
C937 C305 0.740 . S
C941 C203 0.742 . S
