# Generated by pormake.
# Topology mok, (4)-cn, num edge types: 1
# Building blocks:
#     Node 0, Type 0, BuildingBlock: UXUYUI_clean_sbu_0, # of connection points: 4
#     Node 1, Type 0, BuildingBlock: UXUYUI_clean_sbu_0, # of connection points: 4
#     Node 2, Type 0, BuildingBlock: UXUYUI_clean_sbu_0, # of connection points: 4
#     Node 3, Type 0, BuildingBlock: UXUYUI_clean_sbu_0, # of connection points: 4
#     Node 4, Type 0, BuildingBlock: UXUYUI_clean_sbu_0, # of connection points: 4
#     Node 5, Type 0, BuildingBlock: UXUYUI_clean_sbu_0, # of connection points: 4
#     Node 6, Type 0, BuildingBlock: UXUYUI_clean_sbu_0, # of connection points: 4
#     Node 7, Type 0, BuildingBlock: UXUYUI_clean_sbu_0, # of connection points: 4
#     Edge 8, Type (0, 0), BuildingBlock: EZIPEK_clean_linker_0, # of connection points: 2
#     Edge 9, Type (0, 0), BuildingBlock: EZIPEK_clean_linker_0, # of connection points: 2
#     Edge 10, Type (0, 0), BuildingBlock: EZIPEK_clean_linker_0, # of connection points: 2
#     Edge 11, Type (0, 0), BuildingBlock: EZIPEK_clean_linker_0, # of connection points: 2
#     Edge 12, Type (0, 0), BuildingBlock: EZIPEK_clean_linker_0, # of connection points: 2
#     Edge 13, Type (0, 0), BuildingBlock: EZIPEK_clean_linker_0, # of connection points: 2
#     Edge 14, Type (0, 0), BuildingBlock: EZIPEK_clean_linker_0, # of connection points: 2
#     Edge 15, Type (0, 0), BuildingBlock: EZIPEK_clean_linker_0, # of connection points: 2
#     Edge 16, Type (0, 0), BuildingBlock: EZIPEK_clean_linker_0, # of connection points: 2
#     Edge 17, Type (0, 0), BuildingBlock: EZIPEK_clean_linker_0, # of connection points: 2
#     Edge 18, Type (0, 0), BuildingBlock: EZIPEK_clean_linker_0, # of connection points: 2
#     Edge 19, Type (0, 0), BuildingBlock: EZIPEK_clean_linker_0, # of connection points: 2
#     Edge 20, Type (0, 0), BuildingBlock: EZIPEK_clean_linker_0, # of connection points: 2
#     Edge 21, Type (0, 0), BuildingBlock: EZIPEK_clean_linker_0, # of connection points: 2
#     Edge 22, Type (0, 0), BuildingBlock: EZIPEK_clean_linker_0, # of connection points: 2
#     Edge 23, Type (0, 0), BuildingBlock: EZIPEK_clean_linker_0, # of connection points: 2
# Relax obj value: 0.076
# Max RMSD: 0.067
# Mean RMSD: 0.067
data_MOF--net-mok--node1-UXUYUI_clean_sbu_0--edge1-EZIPEK_clean_linker_0
_symmetry_space_group_name_H-M    P1
_symmetry_Int_Tables_number       1
_symmetry_cell_setting            triclinic
loop_
_symmetry_equiv_pos_as_xyz
'x, y, z'
_cell_length_a     54.978443
_cell_length_b     25.237711
_cell_length_c     30.679801
_cell_angle_alpha  90.029123
_cell_angle_beta   89.925007
_cell_angle_gamma 90.005972
loop_
_atom_site_label
_atom_site_type_symbol
_atom_site_fract_x
_atom_site_fract_y
_atom_site_fract_z
_atom_type_partial_charge
Li0 Li 0.58719 0.34755 0.04922 0.0
Li1 Li 0.62077 0.30222 0.01071 0.0
Li2 Li 0.58665 0.34904 0.97 0.0
Li3 Li 0.57888 0.26336 1.00684 0.0
C4 C 0.61895 0.42313 0.03144 0.0
N5 N 0.63226 0.51158 0.07883 0.0
C6 C 0.64105 0.42396 0.05388 0.0
C7 C 0.60374 0.46749 0.03268 0.0
C8 C 0.64744 0.46903 0.07773 0.0
C9 C 0.61075 0.51175 0.05697 0.0
C10 C 0.60977 0.23347 0.08235 0.0
C11 C 0.62301 0.1425 0.08683 0.0
N12 N 0.62923 0.15017 0.12925 0.0
C13 C 0.61601 0.24025 0.12616 0.0
C14 C 0.61308 0.18406 0.06265 0.0
C15 C 0.62594 0.19775 0.14925 0.0
C16 C 0.55865 0.41081 0.10877 0.0
N17 N 0.58048 0.38674 0.10188 0.0
C18 C 0.59566 0.42032 0.1696 0.0
C19 C 0.59878 0.39071 0.13152 0.0
C20 C 0.57344 0.44584 0.17737 0.0
C21 C 0.55471 0.44083 0.1466 0.0
H22 H 0.54436 0.40707 0.08479 0.0
H23 H 0.616 0.37149 0.12521 0.0
C24 C 0.66734 0.29315 0.97207 0.0
N25 N 0.6552 0.28828 0.01057 0.0
C26 C 0.69251 0.2851 0.97018 0.0
C27 C 0.69232 0.2674 0.04758 0.0
C28 C 0.66719 0.27604 0.04804 0.0
C29 C 0.70519 0.27205 1.0083 0.0
H30 H 0.65745 0.30357 0.94285 0.0
H31 H 0.65736 0.27378 0.07845 0.0
C32 C 0.53951 0.34895 0.98825 0.0
N33 N 0.50009 0.38726 0.94226 0.0
C34 C 0.5241 0.314 0.9662 0.0
C35 C 0.53475 0.40332 0.98725 0.0
C36 C 0.50429 0.33416 0.94304 0.0
C37 C 0.51476 0.42191 0.96372 0.0
C38 C 0.60773 0.239 0.92998 0.0
C39 C 0.59742 0.23798 0.88836 0.0
C40 C 0.62443 0.1998 0.94181 0.0
C41 C 0.60349 0.19702 0.8597 0.0
C42 C 0.63007 0.15954 0.91222 0.0
N43 N 0.61954 0.15894 0.87214 0.0
C44 C 0.59228 0.43641 0.91251 0.0
C45 C 0.56417 0.37201 0.88756 0.0
C46 C 0.58945 0.46561 0.87411 0.0
N47 N 0.57988 0.39029 0.91841 0.0
C48 C 0.56088 0.39986 0.84856 0.0
C49 C 0.57386 0.4469 0.84144 0.0
H50 H 0.60488 0.44987 0.93714 0.0
H51 H 0.55462 0.33513 0.89273 0.0
C52 C 0.55239 0.17806 0.04438 0.0
N53 N 0.56039 0.19817 1.00575 0.0
C54 C 0.53906 0.13081 0.04549 0.0
C55 C 0.54205 0.12601 0.96702 0.0
C56 C 0.55528 0.17338 0.96741 0.0
C57 C 0.53386 0.10427 1.00644 0.0
H58 H 0.55644 0.19872 0.07441 0.0
H59 H 0.56121 0.19054 0.93703 0.0
O60 O 0.61211 0.37889 0.00879 0.0
O61 O 0.60007 0.2748 0.05929 0.0
O62 O 0.55912 0.33001 0.01075 0.0
O63 O 0.60206 0.27908 0.95836 0.0
H64 H 0.65305 0.39 0.05323 0.0
H65 H 0.5866 0.46751 0.01543 0.0
H66 H 0.66442 0.47012 0.09547 0.0
H67 H 0.59907 0.54618 0.05854 0.0
H68 H 0.62567 0.10409 0.07191 0.0
H69 H 0.6133 0.27795 0.14218 0.0
H70 H 0.60771 0.17755 0.02926 0.0
H71 H 0.631 0.20256 0.18308 0.0
H72 H 0.61049 0.42365 0.19265 0.0
H73 H 0.53736 0.46025 0.15167 0.0
H74 H 0.702 0.28917 0.9394 0.0
H75 H 0.70169 0.25781 0.07759 0.0
H76 H 0.52747 0.2718 0.96676 0.0
H77 H 0.54645 0.43089 1.00421 0.0
H78 H 0.49229 0.3076 0.92566 0.0
H79 H 0.51093 0.46386 0.96255 0.0
H80 H 0.5847 0.26821 0.87836 0.0
H81 H 0.63322 0.20066 0.97326 0.0
H82 H 0.59548 0.19557 0.82754 0.0
H83 H 0.64291 0.12891 0.92105 0.0
H84 H 0.59986 0.5016 0.86936 0.0
H85 H 0.54881 0.38429 0.8238 0.0
H86 H 0.5329 0.11507 0.07642 0.0
H87 H 0.53814 0.10661 0.93632 0.0
Li88 Li 0.39141 0.71082 1.0063 0.0
Li89 Li 0.42513 0.66421 0.04269 0.0
Li90 Li 0.43344 0.74899 1.00175 0.0
Li91 Li 0.42498 0.66435 0.96357 0.0
C92 C 0.4036 0.77956 0.07708 0.0
N93 N 0.38575 0.86573 0.12269 0.0
C94 C 0.39814 0.77502 0.12145 0.0
C95 C 0.40031 0.82818 0.05614 0.0
C96 C 0.38902 0.81895 0.14387 0.0
C97 C 0.39121 0.87121 0.07968 0.0
C98 C 0.39329 0.58955 0.02529 0.0
C99 C 0.40176 0.50034 0.04895 0.0
N100 N 0.38082 0.5005 0.07262 0.0
C101 C 0.37179 0.58875 0.04962 0.0
C102 C 0.40834 0.54493 0.02468 0.0
C103 C 0.36583 0.54336 0.0734 0.0
C104 C 0.34442 0.72125 0.96979 0.0
N105 N 0.35705 0.72512 1.00779 0.0
C106 C 0.32045 0.74522 0.04687 0.0
C107 C 0.34557 0.73651 0.04601 0.0
C108 C 0.30707 0.74172 1.00809 0.0
C109 C 0.31926 0.72964 0.96917 0.0
H110 H 0.35391 0.71141 0.93996 0.0
H111 H 0.35582 0.73802 0.07598 0.0
C112 C 0.45275 0.59571 0.09984 0.0
N113 N 0.43182 0.62384 0.09466 0.0
C114 C 0.45636 0.56509 0.13742 0.0
C115 C 0.41696 0.59331 0.16361 0.0
C116 C 0.41411 0.62326 0.12568 0.0
C117 C 0.43825 0.56373 0.16973 0.0
H118 H 0.4665 0.59657 0.07462 0.0
H119 H 0.39753 0.64537 0.12054 0.0
C120 C 0.40374 0.7744 0.92513 0.0
N121 N 0.39121 0.85311 0.86662 0.0
C122 C 0.41406 0.77532 0.88347 0.0
C123 C 0.38671 0.8131 0.93669 0.0
C124 C 0.4076 0.81556 0.85446 0.0
C125 C 0.38069 0.85265 0.90676 0.0
C126 C 0.4723 0.66497 0.97911 0.0
C127 C 0.48739 0.70181 0.95842 0.0
C128 C 0.47689 0.61082 0.97422 0.0
C129 C 0.50665 0.68379 0.93263 0.0
C130 C 0.49623 0.5944 0.94789 0.0
N131 N 0.51059 0.6309 0.92782 0.0
C132 C 0.46197 0.83026 0.03998 0.0
C133 C 0.45535 0.84257 0.96436 0.0
C134 C 0.47547 0.87723 0.04211 0.0
N135 N 0.45209 0.814 1.00155 0.0
C136 C 0.46863 0.88987 0.96506 0.0
C137 C 0.47881 0.90758 1.00431 0.0
H138 H 0.45927 0.80675 0.06906 0.0
H139 H 0.44782 0.82864 0.93403 0.0
C140 C 0.41835 0.57838 0.90489 0.0
N141 N 0.43105 0.62407 0.91102 0.0
C142 C 0.42098 0.54939 0.86629 0.0
C143 C 0.44986 0.61462 0.84088 0.0
C144 C 0.44677 0.64222 0.88008 0.0
C145 C 0.43668 0.5679 0.83363 0.0
H146 H 0.40575 0.56497 0.92959 0.0
H147 H 0.45664 0.67865 0.88547 0.0
O148 O 0.41257 0.73685 0.05468 0.0
O149 O 0.39975 0.6341 1.00269 0.0
O150 O 0.40976 0.73492 0.95383 0.0
O151 O 0.45306 0.68186 1.00376 0.0
H152 H 0.40086 0.73798 0.13843 0.0
H153 H 0.40507 0.83294 0.02226 0.0
H154 H 0.38459 0.81587 0.17814 0.0
H155 H 0.38859 0.90904 0.0638 0.0
H156 H 0.41333 0.46568 0.04908 0.0
H157 H 0.35995 0.62296 0.05047 0.0
H158 H 0.42506 0.54496 1.00606 0.0
H159 H 0.34931 0.54227 0.09259 0.0
H160 H 0.31148 0.7541 0.07747 0.0
H161 H 0.30939 0.72645 0.93876 0.0
H162 H 0.47294 0.54237 0.14112 0.0
H163 H 0.40257 0.59275 0.18777 0.0
H164 H 0.42707 0.74558 0.87366 0.0
H165 H 0.37795 0.81242 0.96822 0.0
H166 H 0.41561 0.8169 0.82225 0.0
H167 H 0.36758 0.88286 0.91539 0.0
H168 H 0.48419 0.74385 0.96199 0.0
H169 H 0.46541 0.58179 0.99003 0.0
H170 H 0.5184 0.71184 0.91627 0.0
H171 H 0.49975 0.55267 0.9432 0.0
H172 H 0.48317 0.88987 0.07289 0.0
H173 H 0.47103 0.91232 0.93528 0.0
H174 H 0.41042 0.51363 0.86146 0.0
H175 H 0.46205 0.62998 0.81616 0.0
Li176 Li 0.57591 0.74482 0.51202 0.0
Li177 Li 0.58448 0.66233 0.54914 0.0
Li178 Li 0.61768 0.70652 0.5108 0.0
Li179 Li 0.58385 0.65778 0.46949 0.0
C180 C 0.60213 0.7794 0.58284 0.0
N181 N 0.60837 0.87487 0.62549 0.0
C182 C 0.59152 0.78766 0.62371 0.0
C183 C 0.61605 0.81954 0.56382 0.0
C184 C 0.59484 0.83625 0.6447 0.0
C185 C 0.61896 0.86756 0.58586 0.0
C186 C 0.53654 0.6581 0.53004 0.0
C187 C 0.50374 0.59495 0.53519 0.0
N188 N 0.49646 0.61789 0.57316 0.0
C189 C 0.52863 0.68133 0.56891 0.0
C190 C 0.52397 0.61471 0.51285 0.0
C191 C 0.50838 0.66027 0.59033 0.0
C192 C 0.55441 0.83526 0.47184 0.0
N193 N 0.55746 0.81015 0.51072 0.0
C194 C 0.53482 0.87819 0.54727 0.0
C195 C 0.54764 0.83028 0.54798 0.0
C196 C 0.53168 0.90518 0.5077 0.0
C197 C 0.54149 0.88301 0.46956 0.0
H198 H 0.562 0.81817 0.4425 0.0
H199 H 0.54968 0.8092 0.57834 0.0
C200 C 0.59087 0.63667 0.63785 0.0
N201 N 0.57843 0.62136 0.60165 0.0
C202 C 0.58873 0.60818 0.67673 0.0
C203 C 0.56094 0.54837 0.64074 0.0
C204 C 0.56377 0.5778 0.60238 0.0
C205 C 0.57366 0.56347 0.67836 0.0
H206 H 0.60294 0.67042 0.63627 0.0
H207 H 0.5547 0.56504 0.573 0.0
C208 C 0.61019 0.75721 0.42913 0.0
N209 N 0.63652 0.80934 0.36549 0.0
C210 C 0.61744 0.73036 0.39143 0.0
C211 C 0.61601 0.81077 0.43417 0.0
C212 C 0.63083 0.75736 0.35971 0.0
C213 C 0.62943 0.83636 0.40171 0.0
C214 C 0.6147 0.58463 0.53078 0.0
C215 C 0.63315 0.58465 0.56204 0.0
C216 C 0.60147 0.53832 0.52291 0.0
C217 C 0.63806 0.53813 0.58508 0.0
C218 C 0.60695 0.49261 0.5466 0.0
N219 N 0.62498 0.49346 0.57691 0.0
C220 C 0.66344 0.73267 0.54886 0.0
C221 C 0.66528 0.71545 0.47301 0.0
C222 C 0.68859 0.74128 0.55021 0.0
N223 N 0.65226 0.72053 0.51055 0.0
C224 C 0.69043 0.72408 0.47282 0.0
C225 C 0.7023 0.73711 0.51178 0.0
H226 H 0.65287 0.73511 0.57854 0.0
H227 H 0.65628 0.70387 0.44328 0.0
C228 C 0.55826 0.63067 0.39117 0.0
N229 N 0.5774 0.61823 0.41737 0.0
C230 C 0.55487 0.60391 0.35158 0.0
C231 C 0.59065 0.55158 0.36714 0.0
C232 C 0.59342 0.57944 0.4062 0.0
C233 C 0.57132 0.5641 0.33923 0.0
H234 H 0.54593 0.66203 0.40064 0.0
H235 H 0.60869 0.5709 0.42723 0.0
O236 O 0.5988 0.73228 0.56159 0.0
O237 O 0.55642 0.67784 0.50878 0.0
O238 O 0.59703 0.73138 0.46047 0.0
O239 O 0.60935 0.62998 0.50846 0.0
H240 H 0.58055 0.75712 0.63878 0.0
H241 H 0.62461 0.81359 0.53248 0.0
H242 H 0.58661 0.84331 0.67622 0.0
H243 H 0.62967 0.89899 0.57147 0.0
H244 H 0.49383 0.56136 0.52238 0.0
H245 H 0.53827 0.71473 0.5827 0.0
H246 H 0.52988 0.59639 0.48273 0.0
H247 H 0.50217 0.67754 0.62064 0.0
H248 H 0.52734 0.894 0.57726 0.0
H249 H 0.53927 0.90264 0.43843 0.0
H250 H 0.59901 0.62041 0.70511 0.0
H251 H 0.54943 0.51353 0.64084 0.0
H252 H 0.61298 0.68899 0.38685 0.0
H253 H 0.61008 0.8325 0.46263 0.0
H254 H 0.6367 0.73699 0.3305 0.0
H255 H 0.63413 0.87776 0.40525 0.0
H256 H 0.64344 0.62033 0.56865 0.0
H257 H 0.58694 0.53789 0.49913 0.0
H258 H 0.65222 0.53756 0.60952 0.0
H259 H 0.5968 0.45652 0.54102 0.0
H260 H 0.69729 0.75084 0.58087 0.0
H261 H 0.70058 0.71998 0.44272 0.0
H262 H 0.53985 0.61459 0.33055 0.0
H263 H 0.60374 0.52134 0.35829 0.0
Li264 Li 0.42774 0.34865 0.54273 0.0
Li265 Li 0.43523 0.26687 0.5052 0.0
Li266 Li 0.42726 0.35203 0.4623 0.0
Li267 Li 0.3944 0.30374 0.50518 0.0
C268 C 0.47416 0.36305 0.51618 0.0
N269 N 0.51287 0.42281 0.54597 0.0
C270 C 0.48613 0.3489 0.55464 0.0
C271 C 0.48196 0.40747 0.49277 0.0
C272 C 0.5056 0.37975 0.56924 0.0
C273 C 0.50158 0.43711 0.50835 0.0
C274 C 0.41887 0.23462 0.57944 0.0
C275 C 0.41476 0.14083 0.59268 0.0
N276 N 0.43172 0.14428 0.62477 0.0
C277 C 0.43623 0.23726 0.61262 0.0
C278 C 0.40795 0.18608 0.56948 0.0
C279 C 0.44247 0.19115 0.63518 0.0
C280 C 0.42151 0.37535 0.63128 0.0
N281 N 0.43361 0.39102 0.59475 0.0
C282 C 0.44987 0.46609 0.63291 0.0
C283 C 0.44739 0.43595 0.59483 0.0
C284 C 0.43762 0.45039 0.6709 0.0
C285 C 0.42331 0.4045 0.66989 0.0
H286 H 0.41002 0.34063 0.63024 0.0
H287 H 0.45601 0.44926 0.56518 0.0
C288 C 0.44762 0.16285 0.47499 0.0
N289 N 0.45377 0.20138 0.50404 0.0
C290 C 0.46018 0.11457 0.47433 0.0
C291 C 0.48533 0.14633 0.53329 0.0
C292 C 0.47246 0.19417 0.53251 0.0
C293 C 0.47918 0.10582 0.50398 0.0
H294 H 0.43292 0.16949 0.45233 0.0
H295 H 0.47722 0.22527 0.55508 0.0
C296 C 0.39548 0.42377 0.52568 0.0
N297 N 0.38172 0.51131 0.57377 0.0
C298 C 0.37673 0.4197 0.5563 0.0
C299 C 0.40725 0.47227 0.51951 0.0
C300 C 0.37005 0.46445 0.58032 0.0
C301 C 0.40003 0.51609 0.54417 0.0
C302 C 0.39587 0.25906 0.42711 0.0
C303 C 0.38891 0.2871 0.38987 0.0
C304 C 0.38402 0.21175 0.43768 0.0
C305 C 0.37002 0.26754 0.36403 0.0
C306 C 0.36517 0.19361 0.41109 0.0
N307 N 0.35861 0.22166 0.37513 0.0
C308 C 0.45077 0.37498 0.3813 0.0
C309 C 0.41902 0.43397 0.40089 0.0
C310 C 0.4541 0.40145 0.34159 0.0
N311 N 0.43337 0.39145 0.40987 0.0
C312 C 0.42181 0.46171 0.36176 0.0
C313 C 0.43938 0.44516 0.33151 0.0
H314 H 0.46176 0.34071 0.38905 0.0
H315 H 0.405 0.44564 0.4237 0.0
C316 C 0.34978 0.26208 0.5391 0.0
N317 N 0.35984 0.29062 0.50603 0.0
C318 C 0.32463 0.2535 0.54054 0.0
C319 C 0.32059 0.30387 0.47398 0.0
C320 C 0.34576 0.31205 0.47411 0.0
C321 C 0.3098 0.27439 0.50757 0.0
H322 H 0.36123 0.24646 0.56463 0.0
H323 H 0.35409 0.33567 0.44877 0.0
O324 O 0.45519 0.33319 0.50106 0.0
O325 O 0.41297 0.27906 0.5562 0.0
O326 O 0.40255 0.38021 0.50243 0.0
O327 O 0.41399 0.27813 0.45332 0.0
H328 H 0.48018 0.31508 0.57343 0.0
H329 H 0.47295 0.419 0.46294 0.0
H330 H 0.51489 0.36952 0.59913 0.0
H331 H 0.50783 0.4715 0.49053 0.0
H332 H 0.40659 0.10294 0.58508 0.0
H333 H 0.44511 0.27431 0.62043 0.0
H334 H 0.39457 0.18325 0.54381 0.0
H335 H 0.45598 0.19257 0.66076 0.0
H336 H 0.46074 0.50188 0.63251 0.0
H337 H 0.41338 0.39179 0.69855 0.0
H338 H 0.45505 0.0842 0.45114 0.0
H339 H 0.49992 0.14092 0.55654 0.0
H340 H 0.36758 0.3823 0.56167 0.0
H341 H 0.42203 0.47584 0.49634 0.0
H342 H 0.35563 0.46189 0.60424 0.0
H343 H 0.40905 0.55383 0.53992 0.0
H344 H 0.39785 0.32374 0.38112 0.0
H345 H 0.38912 0.18962 0.46641 0.0
H346 H 0.36437 0.28895 0.33523 0.0
H347 H 0.3557 0.15732 0.41912 0.0
H348 H 0.4677 0.38758 0.31872 0.0
H349 H 0.41003 0.49499 0.35468 0.0
H350 H 0.3168 0.23086 0.56705 0.0
H351 H 0.30959 0.32083 0.44825 0.0
Li352 Li 0.08432 0.85232 0.0456 0.0
Li353 Li 0.11816 0.80566 0.00903 0.0
Li354 Li 0.08492 0.85308 0.96649 0.0
Li355 Li 0.07603 0.76796 1.00375 0.0
C356 C 0.11681 0.92644 0.02919 0.0
N357 N 0.12997 0.01433 0.07738 0.0
C358 C 0.13822 0.92595 0.05368 0.0
C359 C 0.1022 0.97176 0.02887 0.0
C360 C 0.14454 0.97078 0.0779 0.0
C361 C 0.10913 0.01575 0.05356 0.0
C362 C 0.10493 0.73619 0.07947 0.0
C363 C 0.11669 0.64414 0.08196 0.0
N364 N 0.12116 0.64887 0.12537 0.0
C365 C 0.10941 0.73999 0.12421 0.0
C366 C 0.10843 0.68779 0.05824 0.0
C367 C 0.11771 0.69547 0.14679 0.0
C368 C 0.05651 0.92031 0.10307 0.0
N369 N 0.07747 0.89226 0.09779 0.0
C370 C 0.09231 0.92296 0.16665 0.0
C371 C 0.09514 0.8928 0.1288 0.0
C372 C 0.07104 0.95262 0.17277 0.0
C373 C 0.05288 0.95102 0.14065 0.0
H374 H 0.04276 0.91939 0.07793 0.0
H375 H 0.1117 0.87055 0.12366 0.0
C376 C 0.16524 0.79947 0.97282 0.0
N377 N 0.15248 0.79099 0.01023 0.0
C378 C 0.19039 0.79115 0.97164 0.0
C379 C 0.18893 0.76577 0.04754 0.0
C380 C 0.16381 0.77472 0.04732 0.0
C381 C 0.20243 0.77415 0.00937 0.0
H382 H 0.15585 0.81295 0.94393 0.0
H383 H 0.15346 0.76936 0.07692 0.0
C384 C 0.03749 0.85385 0.98207 0.0
N385 N 0.99926 0.8911 0.93239 0.0
C386 C 0.02218 0.81831 0.96046 0.0
C387 C 0.03322 0.90832 0.97882 0.0
C388 C 1.00295 0.83794 0.93549 0.0
C389 C 0.01387 0.92637 0.95334 0.0
C390 C 0.10661 0.7442 0.92693 0.0
C391 C 0.09684 0.74436 0.88488 0.0
C392 C 0.12367 0.70553 0.93831 0.0
C393 C 0.10395 0.7053 0.85521 0.0
C394 C 0.13034 0.66718 0.90771 0.0
N395 N 0.12041 0.66781 0.86715 0.0
C396 C 0.09242 0.93909 0.90836 0.0
C397 C 0.06354 0.87651 0.88315 0.0
C398 C 0.09023 0.96825 0.86979 0.0
N399 N 0.07929 0.89394 0.91425 0.0
C400 C 0.06086 0.90433 0.844 0.0
C401 C 0.07451 0.95047 0.83698 0.0
H402 H 0.10504 0.95189 0.93321 0.0
H403 H 0.05341 0.84037 0.8883 0.0
C404 C 0.04607 0.68802 0.04036 0.0
N405 N 0.05744 0.70284 1.00284 0.0
C406 C 0.03295 0.64051 0.04231 0.0
C407 C 0.04331 0.62428 0.96694 0.0
C408 C 0.05606 0.67227 0.96633 0.0
C409 C 0.03165 0.60796 1.00531 0.0
H410 H 0.04739 0.71298 0.06894 0.0
H411 H 0.06486 0.68487 0.93669 0.0
O412 O 0.11001 0.8825 1.00613 0.0
O413 O 0.09671 0.77943 0.05695 0.0
O414 O 0.05659 0.83536 1.00618 0.0
O415 O 0.09993 0.78247 0.9563 0.0
H416 H 0.14972 0.89118 0.05432 0.0
H417 H 0.08556 0.97272 0.01011 0.0
H418 H 0.16099 0.97088 0.09721 0.0
H419 H 0.09791 0.05095 0.0539 0.0
H420 H 0.11945 0.60646 0.06588 0.0
H421 H 0.10653 0.77691 0.14135 0.0
H422 H 0.10451 0.68368 0.02397 0.0
H423 H 0.12135 0.69794 0.18138 0.0
H424 H 0.1067 0.92367 0.19072 0.0
H425 H 0.0363 0.97373 0.14441 0.0
H426 H 0.20037 0.79811 0.94172 0.0
H427 H 0.19778 0.75297 0.07725 0.0
H428 H 0.0252 0.77604 0.96271 0.0
H429 H 0.04489 0.93635 0.99534 0.0
H430 H 0.99102 0.81091 0.91843 0.0
H431 H 0.01049 0.96839 0.95007 0.0
H432 H 0.08378 0.77404 0.87527 0.0
H433 H 0.13192 0.70527 0.97023 0.0
H434 H 0.09641 0.70483 0.82266 0.0
H435 H 0.1435 0.63702 0.91616 0.0
H436 H 0.10112 1.00357 0.86514 0.0
H437 H 0.04866 0.88952 0.81913 0.0
H438 H 0.02412 0.62897 0.07242 0.0
H439 H 0.04252 0.60011 0.93779 0.0
Li440 Li 0.89438 0.20926 0.00879 0.0
Li441 Li 0.92785 0.15993 0.04998 0.0
Li442 Li 0.93589 0.24615 1.00743 0.0
Li443 Li 0.92752 0.16474 0.96998 0.0
C444 C 0.89974 0.25637 0.0897 0.0
N445 N 0.86914 0.30183 0.15072 0.0
C446 C 0.89357 0.22873 0.12764 0.0
C447 C 0.89054 0.30737 0.08307 0.0
C448 C 0.87803 0.25235 0.15803 0.0
C449 C 0.87503 0.32958 0.11421 0.0
C450 C 0.89538 0.08919 0.98723 0.0
C451 C 0.89889 0.99624 0.97016 0.0
N452 N 0.8815 1.00188 0.939 0.0
C453 C 0.87754 0.0941 0.95508 0.0
C454 C 0.90615 0.03992 0.99492 0.0
C455 C 0.87079 0.04947 0.93101 0.0
C456 C 0.84905 0.2399 0.97158 0.0
N457 N 0.85987 0.22325 0.00905 0.0
C458 C 0.82138 0.22242 0.04578 0.0
C459 C 0.8465 0.21364 0.04559 0.0
C460 C 0.80987 0.23995 1.00768 0.0
C461 C 0.82391 0.24852 0.97016 0.0
H462 H 0.8599 0.24581 0.94257 0.0
H463 H 0.85524 0.19843 0.07446 0.0
C464 C 0.95243 0.13427 0.12944 0.0
N465 N 0.9341 0.12002 0.10203 0.0
C466 C 0.95562 0.10773 0.16915 0.0
C467 C 0.92135 0.05185 0.15124 0.0
C468 C 0.9187 0.07965 0.11214 0.0
C469 C 0.93984 0.06618 0.18035 0.0
H470 H 0.96422 0.16697 0.12087 0.0
H471 H 0.90394 0.06989 0.09032 0.0
C472 C 0.9135 0.28262 0.93699 0.0
N473 N 0.91535 0.3801 0.89611 0.0
C474 C 0.92835 0.28993 0.90046 0.0
C475 C 0.89943 0.32474 0.95243 0.0
C476 C 0.92907 0.33955 0.88031 0.0
C477 C 0.90066 0.37376 0.93142 0.0
C478 C 0.97407 0.15068 0.99276 0.0
C479 C 0.98489 0.1671 0.95378 0.0
C480 C 0.98251 0.10505 0.01365 0.0
C481 C 1.00382 0.13708 0.93601 0.0
C482 C 1.00159 0.07631 0.99497 0.0
N483 N 0.01172 0.09272 0.95682 0.0
C484 C 0.95234 0.34471 0.04293 0.0
C485 C 0.96947 0.32341 0.97424 0.0
C486 C 0.96497 0.39289 0.04375 0.0
N487 N 0.95451 0.31135 1.00824 0.0
C488 C 0.98219 0.37144 0.97347 0.0
C489 C 0.97991 0.40682 0.00848 0.0
H490 H 0.94081 0.33398 0.07004 0.0
H491 H 0.97141 0.29595 0.94747 0.0
C492 C 0.92374 0.14231 0.87978 0.0
N493 N 0.93344 0.12333 0.91748 0.0
C494 C 0.92586 0.11361 0.84097 0.0
C495 C 0.94766 0.04567 0.8802 0.0
C496 C 0.94521 0.0758 0.91829 0.0
C497 C 0.93781 0.06459 0.84106 0.0
H498 H 0.91379 0.17919 0.88001 0.0
H499 H 0.95218 0.06052 0.94868 0.0
O500 O 0.91492 0.23382 0.05955 0.0
O501 O 0.90253 0.13262 0.01056 0.0
O502 O 0.91287 0.23459 0.95767 0.0
O503 O 0.95551 0.17938 0.01072 0.0
H504 H 0.90054 0.18934 0.13348 0.0
H505 H 0.8954 0.32969 0.05431 0.0
H506 H 0.87303 0.23129 0.18741 0.0
H507 H 0.86773 0.36894 0.1094 0.0
H508 H 0.90715 0.95791 0.97557 0.0
H509 H 0.86917 0.13207 0.94854 0.0
H510 H 0.92023 0.03563 0.01928 0.0
H511 H 0.85709 0.05269 0.90588 0.0
H512 H 0.81096 0.21483 0.07511 0.0
H513 H 0.81549 0.26157 0.94013 0.0
H514 H 0.96995 0.11993 0.19116 0.0
H515 H 0.90873 0.02035 0.15924 0.0
H516 H 0.93954 0.25792 0.88825 0.0
H517 H 0.88766 0.31966 0.98033 0.0
H518 H 0.94063 0.34587 0.85222 0.0
H519 H 0.88993 0.40674 0.94317 0.0
H520 H 0.97847 0.20214 0.9371 0.0
H521 H 0.97436 0.09187 0.04389 0.0
H522 H 0.01221 0.149 0.90564 0.0
H523 H 0.0083 0.04091 0.01077 0.0
H524 H 0.96298 0.41923 0.0714 0.0
H525 H 0.99374 0.38089 0.94591 0.0
H526 H 0.91775 0.12886 0.81136 0.0
H527 H 0.95672 0.00758 0.8814 0.0
Li528 Li 0.07893 0.24753 0.50819 0.0
Li529 Li 0.08608 0.16593 0.5445 0.0
Li530 Li 0.12066 0.21081 0.50837 0.0
Li531 Li 0.08562 0.16567 0.46439 0.0
C532 C 0.09419 0.26316 0.59402 0.0
N533 N 0.07988 0.32014 0.66651 0.0
C534 C 0.07088 0.25639 0.61129 0.0
C535 C 0.11029 0.29869 0.61368 0.0
C536 C 0.06397 0.28559 0.64795 0.0
C537 C 0.10269 0.32722 0.65029 0.0
C538 C 0.03779 0.15565 0.51297 0.0
C539 C 0.01216 0.07907 0.50239 0.0
N540 N 0.99551 0.10014 0.53026 0.0
C541 C 0.02022 0.17693 0.54094 0.0
C542 C 0.03359 0.10662 0.49308 0.0
C543 C 0.99906 0.14808 0.54951 0.0
C544 C 0.03828 0.31454 0.49139 0.0
N545 N 0.06094 0.31342 0.50921 0.0
C546 C 0.05801 0.40547 0.52774 0.0
C547 C 0.07097 0.35776 0.52699 0.0
C548 C 0.03463 0.40771 0.50957 0.0
C549 C 0.02478 0.36158 0.49105 0.0
H550 H 0.03077 0.2789 0.47717 0.0
H551 H 0.08915 0.35625 0.54029 0.0
C552 C 0.09565 0.13348 0.63044 0.0
N553 N 0.07991 0.12452 0.59698 0.0
C554 C 0.09362 0.10518 0.66941 0.0
C555 C 0.05923 0.05837 0.63925 0.0
C556 C 0.06199 0.08745 0.60067 0.0
C557 C 0.07524 0.06719 0.67404 0.0
H558 H 0.11011 0.16214 0.62658 0.0
H559 H 0.05009 0.07946 0.57364 0.0
C560 C 0.09825 0.28505 0.43731 0.0
N561 N 0.08982 0.38316 0.40045 0.0
C562 C 0.07981 0.29134 0.40646 0.0
C563 C 0.11247 0.32855 0.44934 0.0
C564 C 0.07581 0.3413 0.38823 0.0
C565 C 0.10792 0.37785 0.43032 0.0
C566 C 0.11426 0.08638 0.52365 0.0
C567 C 0.13283 0.08009 0.55427 0.0
C568 C 0.09875 0.04395 0.51444 0.0
C569 C 0.13545 0.03145 0.57549 0.0
C570 C 0.10197 0.99594 0.53633 0.0
N571 N 0.12009 0.99075 0.56615 0.0
C572 C 0.1677 0.21759 0.54663 0.0
C573 C 0.16626 0.24084 0.47181 0.0
C574 C 0.1929 0.22553 0.54746 0.0
N575 N 0.15498 0.22487 0.50907 0.0
C576 C 0.19137 0.25004 0.47136 0.0
C577 C 0.20497 0.24193 0.50945 0.0
H578 H 0.15827 0.20518 0.57587 0.0
H579 H 0.15576 0.24618 0.44235 0.0
C580 C 0.05955 0.1395 0.38609 0.0
N581 N 0.07917 0.12761 0.4113 0.0
C582 C 0.05569 0.11273 0.34666 0.0
C583 C 0.09195 0.06128 0.36035 0.0
C584 C 0.09524 0.08928 0.39924 0.0
C585 C 0.07208 0.07319 0.3335 0.0
H586 H 0.04701 0.17005 0.39646 0.0
H587 H 0.11077 0.08081 0.41967 0.0
O588 O 0.10128 0.23537 0.55792 0.0
O589 O 0.05852 0.18355 0.50388 0.0
O590 O 0.10182 0.23698 0.45678 0.0
O591 O 0.11091 0.13417 0.50353 0.0
H592 H 0.05834 0.22874 0.59662 0.0
H593 H 0.12841 0.3043 0.60062 0.0
H594 H 0.04597 0.28076 0.66166 0.0
H595 H 0.11492 0.355 0.66578 0.0
H596 H 0.00878 0.04093 0.48747 0.0
H597 H 0.0228 0.21547 0.55566 0.0
H598 H 0.04677 0.08978 0.47092 0.0
H599 H 0.98539 0.16393 0.57131 0.0
H600 H 0.06619 0.44039 0.5421 0.0
H601 H 0.00681 0.36201 0.47661 0.0
H602 H 0.10643 0.11243 0.69554 0.0
H603 H 0.04505 0.02872 0.64168 0.0
H604 H 0.06852 0.25814 0.39709 0.0
H605 H 0.12662 0.32445 0.47361 0.0
H606 H 0.0615 0.34684 0.36449 0.0
H607 H 0.11867 0.41196 0.43951 0.0
H608 H 0.14492 0.11256 0.5619 0.0
H609 H 0.08429 0.04813 0.49086 0.0
H610 H 0.14963 0.02612 0.59948 0.0
H611 H 0.09002 0.96286 0.52968 0.0
H612 H 0.20289 0.21906 0.57739 0.0
H613 H 0.20017 0.26266 0.44152 0.0
H614 H 0.04022 0.12292 0.32651 0.0
H615 H 0.105 0.03122 0.35091 0.0
Li616 Li 0.92539 0.84844 0.54936 0.0
Li617 Li 0.93389 0.76413 0.51093 0.0
Li618 Li 0.92483 0.84866 0.47002 0.0
Li619 Li 0.89145 0.80123 0.5079 0.0
C620 C 0.9725 0.85465 0.52869 0.0
N621 N 0.01158 0.90094 0.57063 0.0
C622 C 0.99056 0.82303 0.54738 0.0
C623 C 0.97446 0.90982 0.53092 0.0
C624 C 0.01015 0.84719 0.5685 0.0
C625 C 0.9943 0.93247 0.55242 0.0
C626 C 0.9078 0.7376 0.58932 0.0
C627 C 0.88742 0.6585 0.61428 0.0
N628 N 0.90193 0.65778 0.65015 0.0
C629 C 0.92223 0.73649 0.62677 0.0
C630 C 0.89002 0.69866 0.5833 0.0
C631 C 0.91911 0.69565 0.65699 0.0
C632 C 0.91598 0.92999 0.61033 0.0
N633 N 0.9314 0.88913 0.60165 0.0
C634 C 0.95243 0.90421 0.66896 0.0
C635 C 0.94949 0.87605 0.62998 0.0
C636 C 0.93652 0.94597 0.67883 0.0
C637 C 0.91824 0.95912 0.64891 0.0
H638 H 0.90157 0.93932 0.58766 0.0
H639 H 0.9614 0.84316 0.62277 0.0
C640 C 0.95632 0.67251 0.47308 0.0
N641 N 0.95297 0.69927 0.51119 0.0
C642 C 0.96949 0.62504 0.47223 0.0
C643 C 0.97674 0.63455 0.54943 0.0
C644 C 0.96317 0.68152 0.54889 0.0
C645 C 0.97982 0.60549 0.51079 0.0
H646 H 0.94877 0.68794 0.44318 0.0
H647 H 0.96108 0.70413 0.57851 0.0
C648 C 0.89207 0.92193 0.48832 0.0
N649 N 0.87744 0.00937 0.44096 0.0
C650 C 0.87109 0.91955 0.46272 0.0
C651 C 0.90543 0.96898 0.4903 0.0
C652 C 0.86403 0.96415 0.43894 0.0
C653 C 0.8978 0.01268 0.46596 0.0
C654 C 0.90218 0.73368 0.43709 0.0
C655 C 0.89719 0.73744 0.39253 0.0
C656 C 0.89687 0.68676 0.45929 0.0
C657 C 0.88667 0.69434 0.37106 0.0
C658 C 0.88639 0.64451 0.43668 0.0
N659 N 0.88151 0.64917 0.3934 0.0
C660 C 0.95231 0.91659 0.41232 0.0
C661 C 0.91355 0.8896 0.38691 0.0
C662 C 0.95602 0.94692 0.37463 0.0
N663 N 0.93124 0.88901 0.41787 0.0
C664 C 0.91648 0.91931 0.34886 0.0
C665 C 0.93789 0.94847 0.3425 0.0
H666 H 0.9662 0.91532 0.43718 0.0
H667 H 0.89696 0.86745 0.39209 0.0
C668 C 0.84495 0.79062 0.54675 0.0
N669 N 0.85703 0.78605 0.50817 0.0
C670 C 0.81979 0.78227 0.54879 0.0
C671 C 0.81987 0.76461 0.47138 0.0
C672 C 0.84499 0.77362 0.47077 0.0
C673 C 0.80704 0.76914 0.51073 0.0
H674 H 0.85486 0.80119 0.57593 0.0
H675 H 0.85473 0.77164 0.44025 0.0
O676 O 0.95306 0.83167 0.50825 0.0
O677 O 0.91045 0.77766 0.55958 0.0
O678 O 0.89966 0.8782 0.51085 0.0
O679 O 0.91222 0.77575 0.45872 0.0
H680 H 0.98944 0.78031 0.54568 0.0
H681 H 0.96071 0.93488 0.51656 0.0
H682 H 0.02421 0.82319 0.58325 0.0
H683 H 0.99593 0.97509 0.55472 0.0
H684 H 0.8738 0.62803 0.6099 0.0
H685 H 0.93589 0.76648 0.63225 0.0
H686 H 0.87817 0.69955 0.55523 0.0
H687 H 0.93033 0.69409 0.68589 0.0
H688 H 0.96663 0.89292 0.69156 0.0
H689 H 0.90559 0.99095 0.65577 0.0
H690 H 0.97171 0.60389 0.44176 0.0
H691 H 0.98471 0.62092 0.57967 0.0
H692 H 0.86054 0.88348 0.4608 0.0
H693 H 0.92157 0.97167 0.51026 0.0
H694 H 0.84793 0.96275 0.41873 0.0
H695 H 0.90807 0.04922 0.46692 0.0
H696 H 0.90137 0.77327 0.3747 0.0
H697 H 0.90116 0.68275 0.49343 0.0
H698 H 0.88262 0.69678 0.33662 0.0
H699 H 0.88221 0.60796 0.45351 0.0
H700 H 0.97273 0.96914 0.37065 0.0
H701 H 0.90211 0.9199 0.32473 0.0
H702 H 0.81035 0.78627 0.57962 0.0
H703 H 0.81048 0.75497 0.4414 0.0
C704 C 0.76724 0.20442 1.00082 0.0
C705 C 0.78303 0.24838 1.00694 0.0
C706 C 0.74779 0.30752 0.01539 0.0
C707 C 0.73204 0.26402 1.00728 0.0
N708 N 0.72619 0.17262 0.98725 0.0
N709 N 0.78899 0.34244 0.01522 0.0
C710 C 0.74162 0.21285 0.99858 0.0
C711 C 0.77346 0.30018 0.01279 0.0
N712 N 0.77677 0.15448 0.99791 0.0
N713 N 0.73812 0.35558 0.02665 0.0
H714 H 0.80787 0.33841 0.01541 0.0
H715 H 0.78337 0.38179 0.01438 0.0
H716 H 0.71945 0.36291 0.02741 0.0
H717 H 0.74837 0.38744 0.03785 0.0
H718 H 0.76637 0.12005 0.99865 0.0
H719 H 0.79543 0.14698 0.99723 0.0
H720 H 0.73196 0.13591 0.97577 0.0
H721 H 0.70733 0.17692 0.9866 0.0
C722 C 0.24511 0.80987 0.01368 0.0
C723 C 0.22926 0.76581 0.00904 0.0
C724 C 0.26437 0.70565 1.00714 0.0
C725 C 0.28023 0.75004 1.00836 0.0
N726 N 0.28609 0.84465 1.00646 0.0
N727 N 0.22343 0.67268 0.99519 0.0
C728 C 0.2707 0.80228 0.00991 0.0
C729 C 0.2388 0.71389 1.00405 0.0
N730 N 0.23569 0.85877 0.02288 0.0
N731 N 0.27374 0.6556 0.01029 0.0
H732 H 0.20459 0.67707 0.99338 0.0
H733 H 0.22937 0.63501 0.98634 0.0
H734 H 0.29236 0.64799 0.01217 0.0
H735 H 0.2631 0.62186 0.01447 0.0
H736 H 0.24628 0.89132 0.03149 0.0
H737 H 0.21705 0.86601 0.02523 0.0
H738 H 0.28017 0.88353 1.00249 0.0
H739 H 0.30493 0.84065 1.00411 0.0
C740 C 0.77055 0.71011 0.52113 0.0
C741 C 0.78017 0.7611 0.51184 0.0
C742 C 0.73873 0.79718 0.5061 0.0
C743 C 0.72915 0.74549 0.5124 0.0
N744 N 0.73541 0.65168 0.52162 0.0
N745 N 0.77405 0.85224 0.49122 0.0
C746 C 0.74494 0.70163 0.5188 0.0
C747 C 0.76441 0.80443 0.50319 0.0
N748 N 0.78594 0.67007 0.53302 0.0
N749 N 0.72323 0.83948 0.5038 0.0
H750 H 0.79271 0.85959 0.49029 0.0
H751 H 0.76375 0.88377 0.47956 0.0
H752 H 0.70435 0.8355 0.50445 0.0
H753 H 0.72891 0.8788 0.50418 0.0
H754 H 0.78011 0.63365 0.54498 0.0
H755 H 0.80481 0.67435 0.53368 0.0
H756 H 0.74585 0.6173 0.52125 0.0
H757 H 0.71675 0.64414 0.52159 0.0
C758 C 0.24183 0.29746 0.52695 0.0
C759 C 0.23189 0.25007 0.50937 0.0
C760 C 0.27309 0.21747 0.49267 0.0
C761 C 0.28293 0.26587 0.50843 0.0
N762 N 0.27728 0.35368 0.53757 0.0
N763 N 0.23728 0.16629 0.47288 0.0
C764 C 0.26744 0.30634 0.52481 0.0
C765 C 0.24734 0.2104 0.49152 0.0
N766 N 0.22672 0.33364 0.54625 0.0
N767 N 0.28848 0.17796 0.47946 0.0
H768 H 0.21868 0.15824 0.47364 0.0
H769 H 0.24701 0.13864 0.45475 0.0
H770 H 0.30731 0.18261 0.47779 0.0
H771 H 0.28295 0.13956 0.47221 0.0
H772 H 0.23272 0.36606 0.56419 0.0
H773 H 0.20782 0.32996 0.54633 0.0
H774 H 0.26711 0.38719 0.54512 0.0
H775 H 0.29597 0.36067 0.53856 0.0
C776 C 0.55783 0.45795 0.25415 0.0
C777 C 0.57027 0.47879 0.21735 0.0
C778 C 0.58205 0.55738 0.25966 0.0
C779 C 0.56925 0.53696 0.29623 0.0
N780 N 0.54103 0.47379 0.32631 0.0
N781 N 0.58988 0.55241 0.18181 0.0
C782 C 0.55584 0.4891 0.29277 0.0
C783 C 0.58105 0.52986 0.21915 0.0
N784 N 0.54885 0.40745 0.2528 0.0
N785 N 0.59574 0.6023 0.26406 0.0
H786 H 0.58949 0.53327 0.15167 0.0
H787 H 0.59573 0.59155 0.17978 0.0
H788 H 0.59614 0.62474 0.29262 0.0
H789 H 0.60785 0.61578 0.24043 0.0
H790 H 0.5421 0.38757 0.27995 0.0
H791 H 0.54962 0.38381 0.22493 0.0
H792 H 0.52875 0.44249 0.32418 0.0
H793 H 0.53955 0.49515 0.35531 0.0
C794 C 0.4275 0.48229 0.21272 0.0
C795 C 0.44093 0.53018 0.20947 0.0
C796 C 0.4571 0.51614 0.28327 0.0
C797 C 0.44128 0.47214 0.28842 0.0
N798 N 0.41025 0.41448 0.25955 0.0
N799 N 0.46715 0.59549 0.24231 0.0
C800 C 0.42624 0.45535 0.25343 0.0
C801 C 0.45557 0.54764 0.2448 0.0
N802 N 0.41642 0.46201 0.17648 0.0
N803 N 0.47374 0.52742 0.31504 0.0
H804 H 0.46672 0.61929 0.21453 0.0
H805 H 0.47582 0.61341 0.26862 0.0
H806 H 0.47496 0.50585 0.34396 0.0
H807 H 0.48759 0.55521 0.31137 0.0
H808 H 0.40841 0.42467 0.17534 0.0
H809 H 0.41706 0.48066 0.14616 0.0
H810 H 0.39672 0.40444 0.23734 0.0
H811 H 0.40949 0.39235 0.28824 0.0
C812 C 0.45624 0.50092 0.78369 0.0
C813 C 0.43808 0.54 0.79086 0.0
C814 C 0.42197 0.52527 0.71711 0.0
C815 C 0.43874 0.48306 0.71136 0.0
N816 N 0.47104 0.42808 0.73895 0.0
N817 N 0.40264 0.58769 0.76647 0.0
C818 C 0.45575 0.47031 0.74456 0.0
C819 C 0.42073 0.55189 0.75801 0.0
N820 N 0.47407 0.49364 0.81416 0.0
N821 N 0.40746 0.54036 0.68312 0.0
H822 H 0.40173 0.60974 0.7952 0.0
H823 H 0.38768 0.59362 0.74633 0.0
H824 H 0.40729 0.52074 0.65321 0.0
H825 H 0.39678 0.57438 0.68318 0.0
H826 H 0.48923 0.46966 0.80947 0.0
H827 H 0.47457 0.51439 0.84356 0.0
H828 H 0.48206 0.41266 0.76338 0.0
H829 H 0.47185 0.4063 0.71007 0.0
C830 C 0.55494 0.51488 0.79174 0.0
C831 C 0.57257 0.47461 0.79861 0.0
C832 C 0.58849 0.48789 0.7245 0.0
C833 C 0.57229 0.53117 0.71897 0.0
N834 N 0.54088 0.58835 0.74702 0.0
N835 N 0.6073 0.42473 0.7737 0.0
C836 C 0.55563 0.54522 0.7525 0.0
C837 C 0.58959 0.46146 0.76545 0.0
N838 N 0.53741 0.5235 0.82262 0.0
N839 N 0.60259 0.47162 0.69024 0.0
H840 H 0.60815 0.40297 0.80255 0.0
H841 H 0.62207 0.4178 0.75324 0.0
H842 H 0.60289 0.49105 0.66027 0.0
H843 H 0.61275 0.43684 0.69018 0.0
H844 H 0.52263 0.5487 0.81837 0.0
H845 H 0.53672 0.5027 0.85198 0.0
H846 H 0.53014 0.60455 0.77157 0.0
H847 H 0.54024 0.61001 0.71809 0.0
C848 C 0.08081 0.0361 0.21371 0.0
C849 C 0.06849 0.98671 0.21224 0.0
C850 C 0.05447 0.99966 0.28767 0.0
C851 C 0.06927 0.04563 0.29077 0.0
N852 N 0.09732 0.10731 0.25793 0.0
N853 N 0.0444 0.91951 0.24758 0.0
C854 C 0.08254 0.06396 0.25398 0.0
C855 C 0.05529 0.9682 0.24904 0.0
N856 N 0.09041 0.05677 0.17624 0.0
N857 N 0.03953 0.98636 0.32162 0.0
H858 H 0.04415 0.89605 0.21959 0.0
H859 H 0.03683 0.9008 0.2746 0.0
H860 H 0.03906 0.00756 0.35081 0.0
H861 H 0.02633 0.95688 0.31991 0.0
H862 H 0.09749 0.0949 0.17384 0.0
H863 H 0.08948 0.03733 0.14628 0.0
H864 H 0.10978 0.11898 0.23426 0.0
H865 H 0.09813 0.13031 0.28616 0.0
C866 C 0.95527 0.96346 0.26728 0.0
C867 C 0.94076 0.98165 0.3026 0.0
C868 C 0.92684 0.05711 0.25864 0.0
C869 C 0.94161 0.03937 0.22353 0.0
N870 N 0.97331 0.98216 0.19655 0.0
N871 N 0.91683 0.05085 0.33562 0.0
C872 C 0.95698 0.9946 0.22862 0.0
C873 C 0.92778 0.0301 0.29936 0.0
N874 N 0.96656 0.9153 0.27001 0.0
N875 N 0.91144 0.09904 0.25266 0.0
H876 H 0.91719 0.03212 0.36592 0.0
H877 H 0.90918 0.08854 0.3368 0.0
H878 H 0.91106 0.12141 0.22408 0.0
H879 H 0.89804 0.10995 0.27491 0.0
H880 H 0.97516 0.89688 0.24384 0.0
H881 H 0.96601 0.89178 0.29794 0.0
H882 H 0.9869 0.95376 0.20007 0.0
H883 H 0.97454 1.00322 0.16738 0.0
C884 C 0.95579 0.01433 0.72801 0.0
C885 C 0.93804 0.97419 0.72145 0.0
C886 C 0.92023 0.99333 0.79323 0.0
C887 C 0.93859 0.03185 0.80063 0.0
N888 N 0.97609 0.07351 0.77886 0.0
N889 N 0.90641 0.91824 0.75051 0.0
C890 C 0.95709 0.04064 0.76911 0.0
C891 C 0.92115 0.96157 0.75492 0.0
N892 N 0.97083 0.02847 0.69443 0.0
N893 N 0.90146 0.98827 0.82223 0.0
H894 H 0.90649 0.89414 0.72287 0.0
H895 H 0.89559 0.90341 0.77556 0.0
H896 H 0.90044 0.00984 0.85117 0.0
H897 H 0.886 0.96558 0.81629 0.0
H898 H 0.98238 0.06112 0.69532 0.0
H899 H 0.97062 0.00954 0.6642 0.0
H900 H 0.99145 0.07757 0.7593 0.0
H901 H 0.97739 0.09389 0.80836 0.0
C902 C 0.05724 0.02176 0.78861 0.0
C903 C 0.07347 0.97857 0.79432 0.0
C904 C 0.08808 0.98901 0.71908 0.0
C905 C 0.07357 0.03522 0.71476 0.0
N906 N 0.04566 0.0986 0.7456 0.0
N907 N 0.10594 0.92341 0.76719 0.0
C908 C 0.0584 0.05231 0.74955 0.0
C909 C 0.08926 0.96268 0.76005 0.0
N910 N 0.0405 0.03293 0.82033 0.0
N911 N 0.10036 0.96979 0.68364 0.0
H912 H 0.10689 0.90205 0.79624 0.0
H913 H 0.11992 0.91416 0.74559 0.0
H914 H 0.10027 0.98856 0.65337 0.0
H915 H 0.10913 0.93325 0.68307 0.0
H916 H 0.02655 0.06042 0.81675 0.0
H917 H 0.03949 0.01194 0.84957 0.0
H918 H 0.03643 0.11666 0.77123 0.0
H919 H 0.04548 0.12098 0.71701 0.0
C920 C 0.48067 0.00684 0.01179 0.0
C921 C 0.49298 0.95792 1.00572 0.0
C922 C 0.53222 1.0046 1.00412 0.0
C923 C 0.51976 0.05378 1.00671 0.0
N924 N 0.48217 0.10288 1.00753 0.0
N925 N 0.52993 0.90982 0.9909 0.0
C926 C 0.49397 0.05522 0.00913 0.0
C927 C 0.51864 0.95669 1.00047 0.0
N928 N 0.45633 0.00688 0.02105 0.0
N929 N 0.55706 1.00367 1.00635 0.0
H930 H 0.52068 0.8738 0.98907 0.0
H931 H 0.54812 0.90696 0.98174 0.0
H932 H 0.5676 0.03796 1.00839 0.0
H933 H 0.5672 0.96907 0.00949 0.0
H934 H 0.44676 0.04051 0.03065 0.0
H935 H 0.44591 0.97236 0.02228 0.0
H936 H 0.46341 0.10665 1.00419 0.0
H937 H 0.49129 0.1391 1.00631 0.0
C938 C 0.53071 1.00433 0.49656 0.0
C939 C 0.51815 0.95656 0.50627 0.0
C940 C 0.48061 0.00738 0.51853 0.0
C941 C 0.49257 0.05427 0.50449 0.0
N942 N 0.52787 0.09553 0.47231 0.0
N943 N 0.48008 0.91134 0.51847 0.0
C944 C 0.51733 0.05222 0.49128 0.0
C945 C 0.49277 0.95773 0.51501 0.0
N946 N 0.55554 1.00443 0.49398 0.0
N947 N 0.45795 0.01045 0.53674 0.0
H948 H 0.48824 0.87421 0.5155 0.0
H949 H 0.46118 0.90968 0.52021 0.0
H950 H 0.44855 0.04608 0.54046 0.0
H951 H 0.44941 0.97848 0.55181 0.0
H952 H 0.56583 0.03897 0.49165 0.0
H953 H 0.56604 0.97042 0.49823 0.0
H954 H 0.545 0.09465 0.45781 0.0
H955 H 0.51862 0.13111 0.46742 0.0
C956 C 0.0301 0.51047 0.02271 0.0
C957 C 0.01824 0.55655 1.00675 0.0
C958 C 0.98083 0.50516 0.99441 0.0
C959 C 0.99311 0.45852 1.00812 0.0
N960 N 0.02977 0.41474 0.03155 0.0
N961 N 0.98336 0.59803 0.9738 0.0
C962 C 0.01786 0.46066 0.02126 0.0
C963 C 0.99386 0.55395 0.99164 0.0
N964 N 0.05296 0.51467 0.03997 0.0
N965 N 0.95657 0.50281 0.98469 0.0
H966 H 0.99193 0.63489 0.97295 0.0
H967 H 0.96676 0.59785 0.95757 0.0
H968 H 0.94671 0.46749 0.98434 0.0
H969 H 0.94573 0.53594 0.97934 0.0
H970 H 0.06169 0.4843 0.05669 0.0
H971 H 0.06287 0.54991 0.03994 0.0
H972 H 0.04845 0.41221 0.03646 0.0
H973 H 0.02115 0.37795 0.03279 0.0
C974 C 0.99928 0.46314 0.53593 0.0
C975 C 0.02053 0.45837 0.50981 0.0
C976 C 0.01651 0.55172 0.4882 0.0
C977 C 0.99392 0.5548 0.51063 0.0
N978 N 0.96156 0.51022 0.54914 0.0
N979 N 0.04685 0.49517 0.45461 0.0
C980 C 0.98467 0.50957 0.53266 0.0
C981 C 0.02845 0.50188 0.4841 0.0
N982 N 0.99349 0.42412 0.56504 0.0
N983 N 0.02702 0.59675 0.47212 0.0
H984 H 0.05584 0.45916 0.45019 0.0
H985 H 0.05168 0.52379 0.43174 0.0
H986 H 0.01906 0.6341 0.47504 0.0
H987 H 0.04462 0.59784 0.45957 0.0
H988 H 0.97974 0.42795 0.58821 0.0
H989 H 1.00386 0.38982 0.56882 0.0
H990 H 0.95291 0.47664 0.56137 0.0
H991 H 0.95015 0.54312 0.54693 0.0
loop_
_geom_bond_atom_site_label_1
_geom_bond_atom_site_label_2
_geom_bond_distance
_geom_bond_site_symmetry_2
_ccdc_geom_bond_type
Li0 N17 1.990 . S
Li0 O60 1.956 1_554 S
Li0 O61 1.970 . S
Li0 O62 1.961 . S
Li1 N25 1.990 . S
Li1 O60 1.970 1_554 S
Li1 O61 1.956 . S
Li1 O63 1.961 1_554 S
Li2 N47 1.990 . S
Li2 O60 1.961 . S
Li2 O62 1.956 1_556 S
Li2 O63 1.970 . S
Li3 N53 1.990 . S
Li3 O61 1.961 1_556 S
Li3 O62 1.970 1_556 S
Li3 O63 1.956 . S
C4 C6 1.348 1_556 S
C4 C7 1.356 . S
C4 O60 1.325 . S
N5 C8 1.314 . S
N5 C9 1.279 1_554 S
C6 C4 1.348 1_554 S
C6 C8 1.353 . S
C6 H64 0.929 . S
C7 C4 1.356 . S
C7 C9 1.358 . S
C7 H65 0.930 . S
C8 N5 1.314 . S
C8 C6 1.353 . S
C8 H66 0.930 . S
C9 N5 1.279 1_556 S
C9 C7 1.358 . S
C9 H67 0.930 . S
C10 C13 1.348 . S
C10 C14 1.356 . S
C10 O61 1.325 . S
C11 N12 1.279 . S
C11 C14 1.358 . S
C11 H68 0.930 . S
N12 C11 1.279 . S
N12 C15 1.314 . S
C13 C10 1.348 . S
C13 C15 1.353 . S
C13 H69 0.929 . S
C14 C10 1.356 . S
C14 C11 1.358 . S
C14 H70 0.930 . S
C15 N12 1.314 . S
C15 C13 1.353 . S
C15 H71 0.930 . S
C16 N17 1.314 . S
C16 C21 1.353 . S
C16 H22 0.930 . S
N17 Li0 1.990 . S
N17 C16 1.314 . S
N17 C19 1.279 . S
C18 C19 1.358 . S
C18 C20 1.356 . S
C18 H72 0.930 . S
C19 N17 1.279 . S
C19 C18 1.358 . S
C19 H23 0.930 . S
C20 C18 1.356 . S
C20 C21 1.348 . S
C21 C16 1.353 . S
C21 C20 1.348 . S
C21 H73 0.929 . S
H22 C16 0.930 . S
H23 C19 0.930 . S
C24 N25 1.314 1_556 S
C24 C26 1.353 . S
C24 H30 0.930 . S
N25 Li1 1.990 . S
N25 C24 1.314 1_554 S
N25 C28 1.279 . S
C26 C24 1.353 . S
C26 C29 1.345 1_556 S
C26 H74 0.929 . S
C27 C28 1.358 . S
C27 C29 1.359 . S
C27 H75 0.930 . S
C28 N25 1.279 . S
C28 C27 1.358 . S
C28 H31 0.930 . S
C29 C26 1.345 1_554 S
C29 C27 1.359 . S
H30 C24 0.930 . S
H31 C28 0.930 . S
C32 C34 1.346 1_554 S
C32 C35 1.357 . S
C32 O62 1.325 . S
N33 C36 1.314 . S
N33 C37 1.279 1_556 S
C34 C32 1.346 1_556 S
C34 C36 1.353 . S
C34 H76 0.929 . S
C35 C32 1.357 . S
C35 C37 1.358 . S
C35 H77 0.930 . S
C36 N33 1.314 . S
C36 C34 1.353 . S
C36 H78 0.930 . S
C37 N33 1.279 1_554 S
C37 C35 1.358 . S
C37 H79 0.930 . S
C38 C39 1.348 . S
C38 C40 1.356 . S
C38 O63 1.325 . S
C39 C38 1.348 . S
C39 C41 1.353 . S
C39 H80 0.929 . S
C40 C38 1.356 . S
C40 C42 1.358 . S
C40 H81 0.930 . S
C41 C39 1.353 . S
C41 N43 1.314 . S
C41 H82 0.930 . S
C42 C40 1.358 . S
C42 N43 1.279 . S
C42 H83 0.930 . S
N43 C41 1.314 . S
N43 C42 1.279 . S
C44 C46 1.353 . S
C44 N47 1.314 . S
C44 H50 0.930 . S
C45 N47 1.279 . S
C45 C48 1.358 . S
C45 H51 0.930 . S
C46 C44 1.353 . S
C46 C49 1.348 . S
C46 H84 0.929 . S
N47 Li2 1.990 . S
N47 C44 1.314 . S
N47 C45 1.279 . S
C48 C45 1.358 . S
C48 C49 1.356 . S
C48 H85 0.930 . S
C49 C46 1.348 . S
C49 C48 1.356 . S
H50 C44 0.930 . S
H51 C45 0.930 . S
C52 N53 1.314 1_554 S
C52 C54 1.353 . S
C52 H58 0.930 . S
N53 Li3 1.990 . S
N53 C52 1.314 1_556 S
N53 C56 1.279 . S
C54 C52 1.353 . S
C54 C57 1.350 1_554 S
C54 H86 0.929 . S
C55 C56 1.358 . S
C55 C57 1.354 . S
C55 H87 0.930 . S
C56 N53 1.279 . S
C56 C55 1.358 . S
C56 H59 0.930 . S
C57 C54 1.350 1_556 S
C57 C55 1.354 . S
H58 C52 0.930 . S
H59 C56 0.930 . S
O60 Li0 1.956 1_556 S
O60 Li1 1.970 1_556 S
O60 Li2 1.961 . S
O60 C4 1.325 . S
O61 Li0 1.970 . S
O61 Li1 1.956 . S
O61 Li3 1.961 1_554 S
O61 C10 1.325 . S
O62 Li0 1.961 . S
O62 Li2 1.956 1_554 S
O62 Li3 1.970 1_554 S
O62 C32 1.325 . S
O63 Li1 1.961 1_556 S
O63 Li2 1.970 . S
O63 Li3 1.956 . S
O63 C38 1.325 . S
H64 C6 0.929 . S
H65 C7 0.930 . S
H66 C8 0.930 . S
H67 C9 0.930 . S
H68 C11 0.930 . S
H69 C13 0.929 . S
H70 C14 0.930 . S
H71 C15 0.930 . S
H72 C18 0.930 . S
H73 C21 0.929 . S
H74 C26 0.929 . S
H75 C27 0.930 . S
H76 C34 0.929 . S
H77 C35 0.930 . S
H78 C36 0.930 . S
H79 C37 0.930 . S
H80 C39 0.929 . S
H81 C40 0.930 . S
H82 C41 0.930 . S
H83 C42 0.930 . S
H84 C46 0.929 . S
H85 C48 0.930 . S
H86 C54 0.929 . S
H87 C55 0.930 . S
Li88 N105 1.990 . S
Li88 O148 1.956 . S
Li88 O149 1.970 1_554 S
Li88 O150 1.961 1_554 S
Li89 N113 1.990 . S
Li89 O148 1.970 . S
Li89 O149 1.956 1_554 S
Li89 O151 1.961 . S
Li90 N135 1.990 . S
Li90 O148 1.961 1_556 S
Li90 O150 1.956 . S
Li90 O151 1.970 1_556 S
Li91 N141 1.990 . S
Li91 O149 1.961 . S
Li91 O150 1.970 . S
Li91 O151 1.956 1_556 S
C92 C94 1.348 . S
C92 C95 1.356 . S
C92 O148 1.325 . S
N93 C96 1.314 . S
N93 C97 1.279 . S
C94 C92 1.348 . S
C94 C96 1.353 . S
C94 H152 0.929 . S
C95 C92 1.356 . S
C95 C97 1.358 . S
C95 H153 0.930 . S
C96 N93 1.314 . S
C96 C94 1.353 . S
C96 H154 0.930 . S
C97 N93 1.279 . S
C97 C95 1.358 . S
C97 H155 0.930 . S
C98 C101 1.348 1_556 S
C98 C102 1.356 . S
C98 O149 1.325 . S
C99 N100 1.279 1_556 S
C99 C102 1.358 . S
C99 H156 0.930 . S
N100 C99 1.279 1_554 S
N100 C103 1.314 . S
C101 C98 1.348 1_554 S
C101 C103 1.353 . S
C101 H157 0.929 . S
C102 C98 1.356 . S
C102 C99 1.358 . S
C102 H158 0.930 . S
C103 N100 1.314 . S
C103 C101 1.353 . S
C103 H159 0.930 . S
C104 N105 1.314 1_556 S
C104 C109 1.353 . S
C104 H110 0.930 . S
N105 Li88 1.990 . S
N105 C104 1.314 1_554 S
N105 C107 1.279 . S
C106 C107 1.358 . S
C106 C108 1.359 . S
C106 H160 0.930 . S
C107 N105 1.279 . S
C107 C106 1.358 . S
C107 H111 0.930 . S
C108 C106 1.359 . S
C108 C109 1.345 1_554 S
C109 C104 1.353 . S
C109 C108 1.345 1_556 S
C109 H161 0.929 . S
H110 C104 0.930 . S
H111 C107 0.930 . S
C112 N113 1.314 . S
C112 C114 1.353 . S
C112 H118 0.930 . S
N113 Li89 1.990 . S
N113 C112 1.314 . S
N113 C116 1.279 . S
C114 C112 1.353 . S
C114 C117 1.348 . S
C114 H162 0.929 . S
C115 C116 1.358 . S
C115 C117 1.356 . S
C115 H163 0.930 . S
C116 N113 1.279 . S
C116 C115 1.358 . S
C116 H119 0.930 . S
C117 C114 1.348 . S
C117 C115 1.356 . S
H118 C112 0.930 . S
H119 C116 0.930 . S
C120 C122 1.348 . S
C120 C123 1.356 . S
C120 O150 1.325 . S
N121 C124 1.314 . S
N121 C125 1.279 . S
C122 C120 1.348 . S
C122 C124 1.353 . S
C122 H164 0.929 . S
C123 C120 1.356 . S
C123 C125 1.358 . S
C123 H165 0.930 . S
C124 N121 1.314 . S
C124 C122 1.353 . S
C124 H166 0.930 . S
C125 N121 1.279 . S
C125 C123 1.358 . S
C125 H167 0.930 . S
C126 C127 1.346 1_554 S
C126 C128 1.357 . S
C126 O151 1.325 . S
C127 C126 1.346 1_556 S
C127 C129 1.353 . S
C127 H168 0.929 . S
C128 C126 1.357 . S
C128 C130 1.358 . S
C128 H169 0.930 . S
C129 C127 1.353 . S
C129 N131 1.314 . S
C129 H170 0.930 . S
C130 C128 1.358 . S
C130 N131 1.279 1_554 S
C130 H171 0.930 . S
N131 C129 1.314 . S
N131 C130 1.279 1_556 S
C132 C134 1.353 . S
C132 N135 1.314 1_554 S
C132 H138 0.930 . S
C133 N135 1.279 . S
C133 C136 1.358 . S
C133 H139 0.930 . S
C134 C132 1.353 . S
C134 C137 1.350 1_554 S
C134 H172 0.929 . S
N135 Li90 1.990 . S
N135 C132 1.314 1_556 S
N135 C133 1.279 . S
C136 C133 1.358 . S
C136 C137 1.354 . S
C136 H173 0.930 . S
C137 C134 1.350 1_556 S
C137 C136 1.354 . S
H138 C132 0.930 . S
H139 C133 0.930 . S
C140 N141 1.314 . S
C140 C142 1.353 . S
C140 H146 0.930 . S
N141 Li91 1.990 . S
N141 C140 1.314 . S
N141 C144 1.279 . S
C142 C140 1.353 . S
C142 C145 1.348 . S
C142 H174 0.929 . S
C143 C144 1.358 . S
C143 C145 1.356 . S
C143 H175 0.930 . S
C144 N141 1.279 . S
C144 C143 1.358 . S
C144 H147 0.930 . S
C145 C142 1.348 . S
C145 C143 1.356 . S
H146 C140 0.930 . S
H147 C144 0.930 . S
O148 Li88 1.956 . S
O148 Li89 1.970 . S
O148 Li90 1.961 1_554 S
O148 C92 1.325 . S
O149 Li88 1.970 1_556 S
O149 Li89 1.956 1_556 S
O149 Li91 1.961 . S
O149 C98 1.325 . S
O150 Li88 1.961 1_556 S
O150 Li90 1.956 . S
O150 Li91 1.970 . S
O150 C120 1.325 . S
O151 Li89 1.961 . S
O151 Li90 1.970 1_554 S
O151 Li91 1.956 1_554 S
O151 C126 1.325 . S
H152 C94 0.929 . S
H153 C95 0.930 . S
H154 C96 0.930 . S
H155 C97 0.930 . S
H156 C99 0.930 . S
H157 C101 0.929 . S
H158 C102 0.930 . S
H159 C103 0.930 . S
H160 C106 0.930 . S
H161 C109 0.929 . S
H162 C114 0.929 . S
H163 C115 0.930 . S
H164 C122 0.929 . S
H165 C123 0.930 . S
H166 C124 0.930 . S
H167 C125 0.930 . S
H168 C127 0.929 . S
H169 C128 0.930 . S
H170 C129 0.930 . S
H171 C130 0.930 . S
H172 C134 0.929 . S
H173 C136 0.930 . S
H174 C142 0.929 . S
H175 C143 0.930 . S
Li176 N193 1.990 . S
Li176 O236 1.956 . S
Li176 O237 1.970 . S
Li176 O238 1.961 . S
Li177 N201 1.990 . S
Li177 O236 1.970 . S
Li177 O237 1.956 . S
Li177 O239 1.961 . S
Li178 N223 1.990 . S
Li178 O236 1.961 . S
Li178 O238 1.956 . S
Li178 O239 1.970 . S
Li179 N229 1.990 . S
Li179 O237 1.961 . S
Li179 O238 1.970 . S
Li179 O239 1.956 . S
C180 C182 1.348 . S
C180 C183 1.356 . S
C180 O236 1.325 . S
N181 C184 1.314 . S
N181 C185 1.279 . S
C182 C180 1.348 . S
C182 C184 1.353 . S
C182 H240 0.929 . S
C183 C180 1.356 . S
C183 C185 1.358 . S
C183 H241 0.930 . S
C184 N181 1.314 . S
C184 C182 1.353 . S
C184 H242 0.930 . S
C185 N181 1.279 . S
C185 C183 1.358 . S
C185 H243 0.930 . S
C186 C189 1.348 . S
C186 C190 1.356 . S
C186 O237 1.325 . S
C187 N188 1.279 . S
C187 C190 1.358 . S
C187 H244 0.930 . S
N188 C187 1.279 . S
N188 C191 1.314 . S
C189 C186 1.348 . S
C189 C191 1.353 . S
C189 H245 0.929 . S
C190 C186 1.356 . S
C190 C187 1.358 . S
C190 H246 0.930 . S
C191 N188 1.314 . S
C191 C189 1.353 . S
C191 H247 0.930 . S
C192 N193 1.314 . S
C192 C197 1.353 . S
C192 H198 0.930 . S
N193 Li176 1.990 . S
N193 C192 1.314 . S
N193 C195 1.279 . S
C194 C195 1.358 . S
C194 C196 1.356 . S
C194 H248 0.930 . S
C195 N193 1.279 . S
C195 C194 1.358 . S
C195 H199 0.930 . S
C196 C194 1.356 . S
C196 C197 1.348 . S
C197 C192 1.353 . S
C197 C196 1.348 . S
C197 H249 0.929 . S
H198 C192 0.930 . S
H199 C195 0.930 . S
C200 N201 1.314 . S
C200 C202 1.353 . S
C200 H206 0.930 . S
N201 Li177 1.990 . S
N201 C200 1.314 . S
N201 C204 1.279 . S
C202 C200 1.353 . S
C202 C205 1.348 . S
C202 H250 0.929 . S
C203 C204 1.358 . S
C203 C205 1.356 . S
C203 H251 0.930 . S
C204 N201 1.279 . S
C204 C203 1.358 . S
C204 H207 0.930 . S
C205 C202 1.348 . S
C205 C203 1.356 . S
H206 C200 0.930 . S
H207 C204 0.930 . S
C208 C210 1.348 . S
C208 C211 1.356 . S
C208 O238 1.325 . S
N209 C212 1.314 . S
N209 C213 1.279 . S
C210 C208 1.348 . S
C210 C212 1.353 . S
C210 H252 0.929 . S
C211 C208 1.356 . S
C211 C213 1.358 . S
C211 H253 0.930 . S
C212 N209 1.314 . S
C212 C210 1.353 . S
C212 H254 0.930 . S
C213 N209 1.279 . S
C213 C211 1.358 . S
C213 H255 0.930 . S
C214 C215 1.348 . S
C214 C216 1.356 . S
C214 O239 1.325 . S
C215 C214 1.348 . S
C215 C217 1.353 . S
C215 H256 0.929 . S
C216 C214 1.356 . S
C216 C218 1.358 . S
C216 H257 0.930 . S
C217 C215 1.353 . S
C217 N219 1.314 . S
C217 H258 0.930 . S
C218 C216 1.358 . S
C218 N219 1.279 . S
C218 H259 0.930 . S
N219 C217 1.314 . S
N219 C218 1.279 . S
C220 C222 1.353 . S
C220 N223 1.314 . S
C220 H226 0.930 . S
C221 N223 1.279 . S
C221 C224 1.358 . S
C221 H227 0.930 . S
C222 C220 1.353 . S
C222 C225 1.348 . S
C222 H260 0.929 . S
N223 Li178 1.990 . S
N223 C220 1.314 . S
N223 C221 1.279 . S
C224 C221 1.358 . S
C224 C225 1.356 . S
C224 H261 0.930 . S
C225 C222 1.348 . S
C225 C224 1.356 . S
H226 C220 0.930 . S
H227 C221 0.930 . S
C228 N229 1.314 . S
C228 C230 1.353 . S
C228 H234 0.930 . S
N229 Li179 1.990 . S
N229 C228 1.314 . S
N229 C232 1.279 . S
C230 C228 1.353 . S
C230 C233 1.348 . S
C230 H262 0.929 . S
C231 C232 1.358 . S
C231 C233 1.356 . S
C231 H263 0.930 . S
C232 N229 1.279 . S
C232 C231 1.358 . S
C232 H235 0.930 . S
C233 C230 1.348 . S
C233 C231 1.356 . S
H234 C228 0.930 . S
H235 C232 0.930 . S
O236 Li176 1.956 . S
O236 Li177 1.970 . S
O236 Li178 1.961 . S
O236 C180 1.325 . S
O237 Li176 1.970 . S
O237 Li177 1.956 . S
O237 Li179 1.961 . S
O237 C186 1.325 . S
O238 Li176 1.961 . S
O238 Li178 1.956 . S
O238 Li179 1.970 . S
O238 C208 1.325 . S
O239 Li177 1.961 . S
O239 Li178 1.970 . S
O239 Li179 1.956 . S
O239 C214 1.325 . S
H240 C182 0.929 . S
H241 C183 0.930 . S
H242 C184 0.930 . S
H243 C185 0.930 . S
H244 C187 0.930 . S
H245 C189 0.929 . S
H246 C190 0.930 . S
H247 C191 0.930 . S
H248 C194 0.930 . S
H249 C197 0.929 . S
H250 C202 0.929 . S
H251 C203 0.930 . S
H252 C210 0.929 . S
H253 C211 0.930 . S
H254 C212 0.930 . S
H255 C213 0.930 . S
H256 C215 0.929 . S
H257 C216 0.930 . S
H258 C217 0.930 . S
H259 C218 0.930 . S
H260 C222 0.929 . S
H261 C224 0.930 . S
H262 C230 0.929 . S
H263 C231 0.930 . S
Li264 N281 1.990 . S
Li264 O324 1.956 . S
Li264 O325 1.970 . S
Li264 O326 1.961 . S
Li265 N289 1.990 . S
Li265 O324 1.970 . S
Li265 O325 1.956 . S
Li265 O327 1.961 . S
Li266 N311 1.990 . S
Li266 O324 1.961 . S
Li266 O326 1.956 . S
Li266 O327 1.970 . S
Li267 N317 1.990 . S
Li267 O325 1.961 . S
Li267 O326 1.970 . S
Li267 O327 1.956 . S
C268 C270 1.348 . S
C268 C271 1.356 . S
C268 O324 1.325 . S
N269 C272 1.314 . S
N269 C273 1.279 . S
C270 C268 1.348 . S
C270 C272 1.353 . S
C270 H328 0.929 . S
C271 C268 1.356 . S
C271 C273 1.358 . S
C271 H329 0.930 . S
C272 N269 1.314 . S
C272 C270 1.353 . S
C272 H330 0.930 . S
C273 N269 1.279 . S
C273 C271 1.358 . S
C273 H331 0.930 . S
C274 C277 1.348 . S
C274 C278 1.356 . S
C274 O325 1.325 . S
C275 N276 1.279 . S
C275 C278 1.358 . S
C275 H332 0.930 . S
N276 C275 1.279 . S
N276 C279 1.314 . S
C277 C274 1.348 . S
C277 C279 1.353 . S
C277 H333 0.929 . S
C278 C274 1.356 . S
C278 C275 1.358 . S
C278 H334 0.930 . S
C279 N276 1.314 . S
C279 C277 1.353 . S
C279 H335 0.930 . S
C280 N281 1.314 . S
C280 C285 1.353 . S
C280 H286 0.930 . S
N281 Li264 1.990 . S
N281 C280 1.314 . S
N281 C283 1.279 . S
C282 C283 1.358 . S
C282 C284 1.356 . S
C282 H336 0.930 . S
C283 N281 1.279 . S
C283 C282 1.358 . S
C283 H287 0.930 . S
C284 C282 1.356 . S
C284 C285 1.348 . S
C285 C280 1.353 . S
C285 C284 1.348 . S
C285 H337 0.929 . S
H286 C280 0.930 . S
H287 C283 0.930 . S
C288 N289 1.314 . S
C288 C290 1.353 . S
C288 H294 0.930 . S
N289 Li265 1.990 . S
N289 C288 1.314 . S
N289 C292 1.279 . S
C290 C288 1.353 . S
C290 C293 1.348 . S
C290 H338 0.929 . S
C291 C292 1.358 . S
C291 C293 1.356 . S
C291 H339 0.930 . S
C292 N289 1.279 . S
C292 C291 1.358 . S
C292 H295 0.930 . S
C293 C290 1.348 . S
C293 C291 1.356 . S
H294 C288 0.930 . S
H295 C292 0.930 . S
C296 C298 1.348 . S
C296 C299 1.356 . S
C296 O326 1.325 . S
N297 C300 1.314 . S
N297 C301 1.279 . S
C298 C296 1.348 . S
C298 C300 1.353 . S
C298 H340 0.929 . S
C299 C296 1.356 . S
C299 C301 1.358 . S
C299 H341 0.930 . S
C300 N297 1.314 . S
C300 C298 1.353 . S
C300 H342 0.930 . S
C301 N297 1.279 . S
C301 C299 1.358 . S
C301 H343 0.930 . S
C302 C303 1.348 . S
C302 C304 1.356 . S
C302 O327 1.325 . S
C303 C302 1.348 . S
C303 C305 1.353 . S
C303 H344 0.929 . S
C304 C302 1.356 . S
C304 C306 1.358 . S
C304 H345 0.930 . S
C305 C303 1.353 . S
C305 N307 1.314 . S
C305 H346 0.930 . S
C306 C304 1.358 . S
C306 N307 1.279 . S
C306 H347 0.930 . S
N307 C305 1.314 . S
N307 C306 1.279 . S
C308 C310 1.353 . S
C308 N311 1.314 . S
C308 H314 0.930 . S
C309 N311 1.279 . S
C309 C312 1.358 . S
C309 H315 0.930 . S
C310 C308 1.353 . S
C310 C313 1.348 . S
C310 H348 0.929 . S
N311 Li266 1.990 . S
N311 C308 1.314 . S
N311 C309 1.279 . S
C312 C309 1.358 . S
C312 C313 1.356 . S
C312 H349 0.930 . S
C313 C310 1.348 . S
C313 C312 1.356 . S
H314 C308 0.930 . S
H315 C309 0.930 . S
C316 N317 1.314 . S
C316 C318 1.353 . S
C316 H322 0.930 . S
N317 Li267 1.990 . S
N317 C316 1.314 . S
N317 C320 1.279 . S
C318 C316 1.353 . S
C318 C321 1.348 . S
C318 H350 0.929 . S
C319 C320 1.358 . S
C319 C321 1.356 . S
C319 H351 0.930 . S
C320 N317 1.279 . S
C320 C319 1.358 . S
C320 H323 0.930 . S
C321 C318 1.348 . S
C321 C319 1.356 . S
H322 C316 0.930 . S
H323 C320 0.930 . S
O324 Li264 1.956 . S
O324 Li265 1.970 . S
O324 Li266 1.961 . S
O324 C268 1.325 . S
O325 Li264 1.970 . S
O325 Li265 1.956 . S
O325 Li267 1.961 . S
O325 C274 1.325 . S
O326 Li264 1.961 . S
O326 Li266 1.956 . S
O326 Li267 1.970 . S
O326 C296 1.325 . S
O327 Li265 1.961 . S
O327 Li266 1.970 . S
O327 Li267 1.956 . S
O327 C302 1.325 . S
H328 C270 0.929 . S
H329 C271 0.930 . S
H330 C272 0.930 . S
H331 C273 0.930 . S
H332 C275 0.930 . S
H333 C277 0.929 . S
H334 C278 0.930 . S
H335 C279 0.930 . S
H336 C282 0.930 . S
H337 C285 0.929 . S
H338 C290 0.929 . S
H339 C291 0.930 . S
H340 C298 0.929 . S
H341 C299 0.930 . S
H342 C300 0.930 . S
H343 C301 0.930 . S
H344 C303 0.929 . S
H345 C304 0.930 . S
H346 C305 0.930 . S
H347 C306 0.930 . S
H348 C310 0.929 . S
H349 C312 0.930 . S
H350 C318 0.929 . S
H351 C319 0.930 . S
Li352 N369 1.990 . S
Li352 O412 1.956 1_554 S
Li352 O413 1.970 . S
Li352 O414 1.961 . S
Li353 N377 1.990 . S
Li353 O412 1.970 1_554 S
Li353 O413 1.956 . S
Li353 O415 1.961 1_554 S
Li354 N399 1.990 . S
Li354 O412 1.961 . S
Li354 O414 1.956 1_556 S
Li354 O415 1.970 . S
Li355 N405 1.990 . S
Li355 O413 1.961 1_556 S
Li355 O414 1.970 1_556 S
Li355 O415 1.956 . S
C356 C358 1.348 1_556 S
C356 C359 1.356 . S
C356 O412 1.325 . S
N357 C360 1.314 1_545 S
N357 C361 1.279 1_554 S
C358 C356 1.348 1_554 S
C358 C360 1.353 . S
C358 H416 0.929 . S
C359 C356 1.356 . S
C359 C361 1.358 1_565 S
C359 H417 0.930 . S
C360 N357 1.314 1_565 S
C360 C358 1.353 . S
C360 H418 0.930 . S
C361 N357 1.279 1_556 S
C361 C359 1.358 1_545 S
C361 H419 0.930 . S
C362 C365 1.348 . S
C362 C366 1.356 . S
C362 O413 1.325 . S
C363 N364 1.279 . S
C363 C366 1.358 . S
C363 H420 0.930 . S
N364 C363 1.279 . S
N364 C367 1.314 . S
C365 C362 1.348 . S
C365 C367 1.353 . S
C365 H421 0.929 . S
C366 C362 1.356 . S
C366 C363 1.358 . S
C366 H422 0.930 . S
C367 N364 1.314 . S
C367 C365 1.353 . S
C367 H423 0.930 . S
C368 N369 1.314 . S
C368 C373 1.353 . S
C368 H374 0.930 . S
N369 Li352 1.990 . S
N369 C368 1.314 . S
N369 C371 1.279 . S
C370 C371 1.358 . S
C370 C372 1.356 . S
C370 H424 0.930 . S
C371 N369 1.279 . S
C371 C370 1.358 . S
C371 H375 0.930 . S
C372 C370 1.356 . S
C372 C373 1.348 . S
C373 C368 1.353 . S
C373 C372 1.348 . S
C373 H425 0.929 . S
H374 C368 0.930 . S
H375 C371 0.930 . S
C376 N377 1.314 1_556 S
C376 C378 1.353 . S
C376 H382 0.930 . S
N377 Li353 1.990 . S
N377 C376 1.314 1_554 S
N377 C380 1.279 . S
C378 C376 1.353 . S
C378 C381 1.345 1_556 S
C378 H426 0.929 . S
C379 C380 1.358 . S
C379 C381 1.359 . S
C379 H427 0.930 . S
C380 N377 1.279 . S
C380 C379 1.358 . S
C380 H383 0.930 . S
C381 C378 1.345 1_554 S
C381 C379 1.359 . S
H382 C376 0.930 . S
H383 C380 0.930 . S
C384 C386 1.346 1_554 S
C384 C387 1.357 . S
C384 O414 1.325 . S
N385 C388 1.314 . S
N385 C389 1.247 1_656 S
C386 C384 1.346 1_556 S
C386 C388 1.353 1_455 S
C386 H428 0.929 . S
C387 C384 1.357 . S
C387 C389 1.399 . S
C387 H429 0.930 . S
C388 N385 1.314 . S
C388 C386 1.353 1_655 S
C388 H430 0.930 . S
C389 N385 1.247 1_454 S
C389 C387 1.399 . S
C389 H431 0.922 1_455 S
C390 C391 1.348 . S
C390 C392 1.356 . S
C390 O415 1.325 . S
C391 C390 1.348 . S
C391 C393 1.353 . S
C391 H432 0.929 . S
C392 C390 1.356 . S
C392 C394 1.358 . S
C392 H433 0.930 . S
C393 C391 1.353 . S
C393 N395 1.314 . S
C393 H434 0.930 . S
C394 C392 1.358 . S
C394 N395 1.279 . S
C394 H435 0.930 . S
N395 C393 1.314 . S
N395 C394 1.279 . S
C396 C398 1.353 . S
C396 N399 1.314 . S
C396 H402 0.930 . S
C397 N399 1.279 . S
C397 C400 1.358 . S
C397 H403 0.930 . S
C398 C396 1.353 . S
C398 C401 1.348 . S
C398 H436 0.929 . S
N399 Li354 1.990 . S
N399 C396 1.314 . S
N399 C397 1.279 . S
C400 C397 1.358 . S
C400 C401 1.356 . S
C400 H437 0.930 . S
C401 C398 1.348 . S
C401 C400 1.356 . S
H402 C396 0.930 . S
H403 C397 0.930 . S
C404 N405 1.314 1_554 S
C404 C406 1.353 . S
C404 H410 0.930 . S
N405 Li355 1.990 . S
N405 C404 1.314 1_556 S
N405 C408 1.279 . S
C406 C404 1.353 . S
C406 C409 1.350 1_554 S
C406 H438 0.929 . S
C407 C408 1.358 . S
C407 C409 1.354 . S
C407 H439 0.930 . S
C408 N405 1.279 . S
C408 C407 1.358 . S
C408 H411 0.930 . S
C409 C406 1.350 1_556 S
C409 C407 1.354 . S
H410 C404 0.930 . S
H411 C408 0.930 . S
O412 Li352 1.956 1_556 S
O412 Li353 1.970 1_556 S
O412 Li354 1.961 . S
O412 C356 1.325 . S
O413 Li352 1.970 . S
O413 Li353 1.956 . S
O413 Li355 1.961 1_554 S
O413 C362 1.325 . S
O414 Li352 1.961 . S
O414 Li354 1.956 1_554 S
O414 Li355 1.970 1_554 S
O414 C384 1.325 . S
O415 Li353 1.961 1_556 S
O415 Li354 1.970 . S
O415 Li355 1.956 . S
O415 C390 1.325 . S
H416 C358 0.929 . S
H417 C359 0.930 . S
H418 C360 0.930 . S
H419 C361 0.930 . S
H420 C363 0.930 . S
H421 C365 0.929 . S
H422 C366 0.930 . S
H423 C367 0.930 . S
H424 C370 0.930 . S
H425 C373 0.929 . S
H426 C378 0.929 . S
H427 C379 0.930 . S
H428 C386 0.929 . S
H429 C387 0.930 . S
H430 C388 0.930 . S
H431 C389 0.922 1_655 S
H432 C391 0.929 . S
H433 C392 0.930 . S
H434 C393 0.930 . S
H435 C394 0.930 . S
H436 C398 0.929 . S
H437 C400 0.930 . S
H438 C406 0.929 . S
H439 C407 0.930 . S
Li440 N457 1.990 . S
Li440 O500 1.956 . S
Li440 O501 1.970 1_554 S
Li440 O502 1.961 1_554 S
Li441 N465 1.990 . S
Li441 O500 1.970 . S
Li441 O501 1.956 1_554 S
Li441 O503 1.961 . S
Li442 N487 1.990 . S
Li442 O500 1.961 1_556 S
Li442 O502 1.956 . S
Li442 O503 1.970 1_556 S
Li443 N493 1.990 . S
Li443 O501 1.961 . S
Li443 O502 1.970 . S
Li443 O503 1.956 1_556 S
C444 C446 1.348 . S
C444 C447 1.356 . S
C444 O500 1.325 . S
N445 C448 1.314 . S
N445 C449 1.279 . S
C446 C444 1.348 . S
C446 C448 1.353 . S
C446 H504 0.929 . S
C447 C444 1.356 . S
C447 C449 1.358 . S
C447 H505 0.930 . S
C448 N445 1.314 . S
C448 C446 1.353 . S
C448 H506 0.930 . S
C449 N445 1.279 . S
C449 C447 1.358 . S
C449 H507 0.930 . S
C450 C453 1.348 1_556 S
C450 C454 1.356 . S
C450 O501 1.325 . S
C451 N452 1.279 1_556 S
C451 C454 1.358 1_565 S
C451 H508 0.930 . S
N452 C451 1.279 1_554 S
N452 C455 1.314 1_565 S
C453 C450 1.348 1_554 S
C453 C455 1.353 . S
C453 H509 0.929 . S
C454 C450 1.356 . S
C454 C451 1.358 1_545 S
C454 H510 0.930 . S
C455 N452 1.314 1_545 S
C455 C453 1.353 . S
C455 H511 0.930 . S
C456 N457 1.314 1_556 S
C456 C461 1.353 . S
C456 H462 0.930 . S
N457 Li440 1.990 . S
N457 C456 1.314 1_554 S
N457 C459 1.279 . S
C458 C459 1.358 . S
C458 C460 1.359 . S
C458 H512 0.930 . S
C459 N457 1.279 . S
C459 C458 1.358 . S
C459 H463 0.930 . S
C460 C458 1.359 . S
C460 C461 1.345 1_554 S
C461 C456 1.353 . S
C461 C460 1.345 1_556 S
C461 H513 0.929 . S
H462 C456 0.930 . S
H463 C459 0.930 . S
C464 N465 1.314 . S
C464 C466 1.353 . S
C464 H470 0.930 . S
N465 Li441 1.990 . S
N465 C464 1.314 . S
N465 C468 1.279 . S
C466 C464 1.353 . S
C466 C469 1.348 . S
C466 H514 0.929 . S
C467 C468 1.358 . S
C467 C469 1.356 . S
C467 H515 0.930 . S
C468 N465 1.279 . S
C468 C467 1.358 . S
C468 H471 0.930 . S
C469 C466 1.348 . S
C469 C467 1.356 . S
H470 C464 0.930 . S
H471 C468 0.930 . S
C472 C474 1.348 . S
C472 C475 1.356 . S
C472 O502 1.325 . S
N473 C476 1.314 . S
N473 C477 1.279 . S
C474 C472 1.348 . S
C474 C476 1.353 . S
C474 H516 0.929 . S
C475 C472 1.356 . S
C475 C477 1.358 . S
C475 H517 0.930 . S
C476 N473 1.314 . S
C476 C474 1.353 . S
C476 H518 0.930 . S
C477 N473 1.279 . S
C477 C475 1.358 . S
C477 H519 0.930 . S
C478 C479 1.346 1_554 S
C478 C480 1.357 . S
C478 O503 1.325 . S
C479 C478 1.346 1_556 S
C479 C481 1.353 1_655 S
C479 H520 0.929 . S
C480 C478 1.357 . S
C480 C482 1.399 . S
C480 H521 0.930 . S
C481 C479 1.353 1_455 S
C481 N483 1.314 . S
C481 H522 0.930 . S
C482 C480 1.399 . S
C482 N483 1.247 1_654 S
C482 H523 0.922 1_655 S
N483 C481 1.314 . S
N483 C482 1.247 1_456 S
C484 C486 1.353 . S
C484 N487 1.314 1_554 S
C484 H490 0.930 . S
C485 N487 1.279 . S
C485 C488 1.358 . S
C485 H491 0.930 . S
C486 C484 1.353 . S
C486 C489 1.350 1_554 S
C486 H524 0.929 . S
N487 Li442 1.990 . S
N487 C484 1.314 1_556 S
N487 C485 1.279 . S
C488 C485 1.358 . S
C488 C489 1.354 . S
C488 H525 0.930 . S
C489 C486 1.350 1_556 S
C489 C488 1.354 . S
H490 C484 0.930 . S
H491 C485 0.930 . S
C492 N493 1.314 . S
C492 C494 1.353 . S
C492 H498 0.930 . S
N493 Li443 1.990 . S
N493 C492 1.314 . S
N493 C496 1.279 . S
C494 C492 1.353 . S
C494 C497 1.348 . S
C494 H526 0.929 . S
C495 C496 1.358 . S
C495 C497 1.356 . S
C495 H527 0.930 . S
C496 N493 1.279 . S
C496 C495 1.358 . S
C496 H499 0.930 . S
C497 C494 1.348 . S
C497 C495 1.356 . S
H498 C492 0.930 . S
H499 C496 0.930 . S
O500 Li440 1.956 . S
O500 Li441 1.970 . S
O500 Li442 1.961 1_554 S
O500 C444 1.325 . S
O501 Li440 1.970 1_556 S
O501 Li441 1.956 1_556 S
O501 Li443 1.961 . S
O501 C450 1.325 . S
O502 Li440 1.961 1_556 S
O502 Li442 1.956 . S
O502 Li443 1.970 . S
O502 C472 1.325 . S
O503 Li441 1.961 . S
O503 Li442 1.970 1_554 S
O503 Li443 1.956 1_554 S
O503 C478 1.325 . S
H504 C446 0.929 . S
H505 C447 0.930 . S
H506 C448 0.930 . S
H507 C449 0.930 . S
H508 C451 0.930 . S
H509 C453 0.929 . S
H510 C454 0.930 . S
H511 C455 0.930 . S
H512 C458 0.930 . S
H513 C461 0.929 . S
H514 C466 0.929 . S
H515 C467 0.930 . S
H516 C474 0.929 . S
H517 C475 0.930 . S
H518 C476 0.930 . S
H519 C477 0.930 . S
H520 C479 0.929 . S
H521 C480 0.930 . S
H522 C481 0.930 . S
H523 C482 0.922 1_455 S
H524 C486 0.929 . S
H525 C488 0.930 . S
H526 C494 0.929 . S
H527 C495 0.930 . S
Li528 N545 1.990 . S
Li528 O588 1.956 . S
Li528 O589 1.970 . S
Li528 O590 1.961 . S
Li529 N553 1.990 . S
Li529 O588 1.970 . S
Li529 O589 1.956 . S
Li529 O591 1.961 . S
Li530 N575 1.990 . S
Li530 O588 1.961 . S
Li530 O590 1.956 . S
Li530 O591 1.970 . S
Li531 N581 1.990 . S
Li531 O589 1.961 . S
Li531 O590 1.970 . S
Li531 O591 1.956 . S
C532 C534 1.348 . S
C532 C535 1.356 . S
C532 O588 1.325 . S
N533 C536 1.314 . S
N533 C537 1.279 . S
C534 C532 1.348 . S
C534 C536 1.353 . S
C534 H592 0.929 . S
C535 C532 1.356 . S
C535 C537 1.358 . S
C535 H593 0.930 . S
C536 N533 1.314 . S
C536 C534 1.353 . S
C536 H594 0.930 . S
C537 N533 1.279 . S
C537 C535 1.358 . S
C537 H595 0.930 . S
C538 C541 1.348 . S
C538 C542 1.356 . S
C538 O589 1.325 . S
C539 N540 1.247 1_455 S
C539 C542 1.399 . S
C539 H596 0.922 1_455 S
N540 C539 1.247 1_655 S
N540 C543 1.314 . S
C541 C538 1.348 . S
C541 C543 1.353 1_455 S
C541 H597 0.929 . S
C542 C538 1.356 . S
C542 C539 1.399 . S
C542 H598 0.930 . S
C543 N540 1.314 . S
C543 C541 1.353 1_655 S
C543 H599 0.930 . S
C544 N545 1.314 . S
C544 C549 1.353 . S
C544 H550 0.930 . S
N545 Li528 1.990 . S
N545 C544 1.314 . S
N545 C547 1.279 . S
C546 C547 1.358 . S
C546 C548 1.356 . S
C546 H600 0.930 . S
C547 N545 1.279 . S
C547 C546 1.358 . S
C547 H551 0.930 . S
C548 C546 1.356 . S
C548 C549 1.348 . S
C549 C544 1.353 . S
C549 C548 1.348 . S
C549 H601 0.929 . S
H550 C544 0.930 . S
H551 C547 0.930 . S
C552 N553 1.314 . S
C552 C554 1.353 . S
C552 H558 0.930 . S
N553 Li529 1.990 . S
N553 C552 1.314 . S
N553 C556 1.279 . S
C554 C552 1.353 . S
C554 C557 1.348 . S
C554 H602 0.929 . S
C555 C556 1.358 . S
C555 C557 1.356 . S
C555 H603 0.930 . S
C556 N553 1.279 . S
C556 C555 1.358 . S
C556 H559 0.930 . S
C557 C554 1.348 . S
C557 C555 1.356 . S
H558 C552 0.930 . S
H559 C556 0.930 . S
C560 C562 1.348 . S
C560 C563 1.356 . S
C560 O590 1.325 . S
N561 C564 1.314 . S
N561 C565 1.279 . S
C562 C560 1.348 . S
C562 C564 1.353 . S
C562 H604 0.929 . S
C563 C560 1.356 . S
C563 C565 1.358 . S
C563 H605 0.930 . S
C564 N561 1.314 . S
C564 C562 1.353 . S
C564 H606 0.930 . S
C565 N561 1.279 . S
C565 C563 1.358 . S
C565 H607 0.930 . S
C566 C567 1.348 . S
C566 C568 1.356 . S
C566 O591 1.325 . S
C567 C566 1.348 . S
C567 C569 1.353 . S
C567 H608 0.929 . S
C568 C566 1.356 . S
C568 C570 1.358 1_545 S
C568 H609 0.930 . S
C569 C567 1.353 . S
C569 N571 1.314 1_545 S
C569 H610 0.930 . S
C570 C568 1.358 1_565 S
C570 N571 1.279 . S
C570 H611 0.930 . S
N571 C569 1.314 1_565 S
N571 C570 1.279 . S
C572 C574 1.353 . S
C572 N575 1.314 . S
C572 H578 0.930 . S
C573 N575 1.279 . S
C573 C576 1.358 . S
C573 H579 0.930 . S
C574 C572 1.353 . S
C574 C577 1.348 . S
C574 H612 0.929 . S
N575 Li530 1.990 . S
N575 C572 1.314 . S
N575 C573 1.279 . S
C576 C573 1.358 . S
C576 C577 1.356 . S
C576 H613 0.930 . S
C577 C574 1.348 . S
C577 C576 1.356 . S
H578 C572 0.930 . S
H579 C573 0.930 . S
C580 N581 1.314 . S
C580 C582 1.353 . S
C580 H586 0.930 . S
N581 Li531 1.990 . S
N581 C580 1.314 . S
N581 C584 1.279 . S
C582 C580 1.353 . S
C582 C585 1.348 . S
C582 H614 0.929 . S
C583 C584 1.358 . S
C583 C585 1.356 . S
C583 H615 0.930 . S
C584 N581 1.279 . S
C584 C583 1.358 . S
C584 H587 0.930 . S
C585 C582 1.348 . S
C585 C583 1.356 . S
H586 C580 0.930 . S
H587 C584 0.930 . S
O588 Li528 1.956 . S
O588 Li529 1.970 . S
O588 Li530 1.961 . S
O588 C532 1.325 . S
O589 Li528 1.970 . S
O589 Li529 1.956 . S
O589 Li531 1.961 . S
O589 C538 1.325 . S
O590 Li528 1.961 . S
O590 Li530 1.956 . S
O590 Li531 1.970 . S
O590 C560 1.325 . S
O591 Li529 1.961 . S
O591 Li530 1.970 . S
O591 Li531 1.956 . S
O591 C566 1.325 . S
H592 C534 0.929 . S
H593 C535 0.930 . S
H594 C536 0.930 . S
H595 C537 0.930 . S
H596 C539 0.922 1_655 S
H597 C541 0.929 . S
H598 C542 0.930 . S
H599 C543 0.930 . S
H600 C546 0.930 . S
H601 C549 0.929 . S
H602 C554 0.929 . S
H603 C555 0.930 . S
H604 C562 0.929 . S
H605 C563 0.930 . S
H606 C564 0.930 . S
H607 C565 0.930 . S
H608 C567 0.929 . S
H609 C568 0.930 . S
H610 C569 0.930 . S
H611 C570 0.930 . S
H612 C574 0.929 . S
H613 C576 0.930 . S
H614 C582 0.929 . S
H615 C583 0.930 . S
Li616 N633 1.990 . S
Li616 O676 1.956 . S
Li616 O677 1.970 . S
Li616 O678 1.961 . S
Li617 N641 1.990 . S
Li617 O676 1.970 . S
Li617 O677 1.956 . S
Li617 O679 1.961 . S
Li618 N663 1.990 . S
Li618 O676 1.961 . S
Li618 O678 1.956 . S
Li618 O679 1.970 . S
Li619 N669 1.990 . S
Li619 O677 1.961 . S
Li619 O678 1.970 . S
Li619 O679 1.956 . S
C620 C622 1.348 . S
C620 C623 1.356 . S
C620 O676 1.325 . S
N621 C624 1.314 . S
N621 C625 1.247 1_455 S
C622 C620 1.348 . S
C622 C624 1.353 1_655 S
C622 H680 0.929 . S
C623 C620 1.356 . S
C623 C625 1.399 . S
C623 H681 0.930 . S
C624 N621 1.314 . S
C624 C622 1.353 1_455 S
C624 H682 0.930 . S
C625 N621 1.247 1_655 S
C625 C623 1.399 . S
C625 H683 0.922 1_655 S
C626 C629 1.348 . S
C626 C630 1.356 . S
C626 O677 1.325 . S
C627 N628 1.279 . S
C627 C630 1.358 . S
C627 H684 0.930 . S
N628 C627 1.279 . S
N628 C631 1.314 . S
C629 C626 1.348 . S
C629 C631 1.353 . S
C629 H685 0.929 . S
C630 C626 1.356 . S
C630 C627 1.358 . S
C630 H686 0.930 . S
C631 N628 1.314 . S
C631 C629 1.353 . S
C631 H687 0.930 . S
C632 N633 1.314 . S
C632 C637 1.353 . S
C632 H638 0.930 . S
N633 Li616 1.990 . S
N633 C632 1.314 . S
N633 C635 1.279 . S
C634 C635 1.358 . S
C634 C636 1.356 . S
C634 H688 0.930 . S
C635 N633 1.279 . S
C635 C634 1.358 . S
C635 H639 0.930 . S
C636 C634 1.356 . S
C636 C637 1.348 . S
C637 C632 1.353 . S
C637 C636 1.348 . S
C637 H689 0.929 . S
H638 C632 0.930 . S
H639 C635 0.930 . S
C640 N641 1.314 . S
C640 C642 1.353 . S
C640 H646 0.930 . S
N641 Li617 1.990 . S
N641 C640 1.314 . S
N641 C644 1.279 . S
C642 C640 1.353 . S
C642 C645 1.348 . S
C642 H690 0.929 . S
C643 C644 1.358 . S
C643 C645 1.356 . S
C643 H691 0.930 . S
C644 N641 1.279 . S
C644 C643 1.358 . S
C644 H647 0.930 . S
C645 C642 1.348 . S
C645 C643 1.356 . S
H646 C640 0.930 . S
H647 C644 0.930 . S
C648 C650 1.348 . S
C648 C651 1.356 . S
C648 O678 1.325 . S
N649 C652 1.314 1_545 S
N649 C653 1.279 . S
C650 C648 1.348 . S
C650 C652 1.353 . S
C650 H692 0.929 . S
C651 C648 1.356 . S
C651 C653 1.358 1_565 S
C651 H693 0.930 . S
C652 N649 1.314 1_565 S
C652 C650 1.353 . S
C652 H694 0.930 . S
C653 N649 1.279 . S
C653 C651 1.358 1_545 S
C653 H695 0.930 . S
C654 C655 1.348 . S
C654 C656 1.356 . S
C654 O679 1.325 . S
C655 C654 1.348 . S
C655 C657 1.353 . S
C655 H696 0.929 . S
C656 C654 1.356 . S
C656 C658 1.358 . S
C656 H697 0.930 . S
C657 C655 1.353 . S
C657 N659 1.314 . S
C657 H698 0.930 . S
C658 C656 1.358 . S
C658 N659 1.279 . S
C658 H699 0.930 . S
N659 C657 1.314 . S
N659 C658 1.279 . S
C660 C662 1.353 . S
C660 N663 1.314 . S
C660 H666 0.930 . S
C661 N663 1.279 . S
C661 C664 1.358 . S
C661 H667 0.930 . S
C662 C660 1.353 . S
C662 C665 1.348 . S
C662 H700 0.929 . S
N663 Li618 1.990 . S
N663 C660 1.314 . S
N663 C661 1.279 . S
C664 C661 1.358 . S
C664 C665 1.356 . S
C664 H701 0.930 . S
C665 C662 1.348 . S
C665 C664 1.356 . S
H666 C660 0.930 . S
H667 C661 0.930 . S
C668 N669 1.314 . S
C668 C670 1.353 . S
C668 H674 0.930 . S
N669 Li619 1.990 . S
N669 C668 1.314 . S
N669 C672 1.279 . S
C670 C668 1.353 . S
C670 C673 1.348 . S
C670 H702 0.929 . S
C671 C672 1.358 . S
C671 C673 1.356 . S
C671 H703 0.930 . S
C672 N669 1.279 . S
C672 C671 1.358 . S
C672 H675 0.930 . S
C673 C670 1.348 . S
C673 C671 1.356 . S
H674 C668 0.930 . S
H675 C672 0.930 . S
O676 Li616 1.956 . S
O676 Li617 1.970 . S
O676 Li618 1.961 . S
O676 C620 1.325 . S
O677 Li616 1.970 . S
O677 Li617 1.956 . S
O677 Li619 1.961 . S
O677 C626 1.325 . S
O678 Li616 1.961 . S
O678 Li618 1.956 . S
O678 Li619 1.970 . S
O678 C648 1.325 . S
O679 Li617 1.961 . S
O679 Li618 1.970 . S
O679 Li619 1.956 . S
O679 C654 1.325 . S
H680 C622 0.929 . S
H681 C623 0.930 . S
H682 C624 0.930 . S
H683 C625 0.922 1_455 S
H684 C627 0.930 . S
H685 C629 0.929 . S
H686 C630 0.930 . S
H687 C631 0.930 . S
H688 C634 0.930 . S
H689 C637 0.929 . S
H690 C642 0.929 . S
H691 C643 0.930 . S
H692 C650 0.929 . S
H693 C651 0.930 . S
H694 C652 0.930 . S
H695 C653 0.930 . S
H696 C655 0.929 . S
H697 C656 0.930 . S
H698 C657 0.930 . S
H699 C658 0.930 . S
H700 C662 0.929 . S
H701 C664 0.930 . S
H702 C670 0.929 . S
H703 C671 0.930 . S
C704 C705 1.362 1_554 S
C704 C710 1.379 . S
C704 N712 1.356 . S
C705 C704 1.362 1_556 S
C705 C711 1.364 . S
C706 C707 1.364 . S
C706 C711 1.379 . S
C706 N713 1.356 . S
C707 C706 1.364 . S
C707 C710 1.362 1_556 S
N708 C710 1.356 . S
N708 H720 0.984 . S
N708 H721 0.985 . S
N709 C711 1.356 . S
N709 H714 0.984 . S
N709 H715 0.985 . S
C710 C704 1.379 . S
C710 C707 1.362 1_554 S
C710 N708 1.356 . S
C711 C705 1.364 . S
C711 C706 1.379 . S
C711 N709 1.356 . S
N712 C704 1.356 . S
N712 H718 0.984 . S
N712 H719 0.984 . S
N713 C706 1.356 . S
N713 H716 0.984 . S
N713 H717 0.985 . S
H714 N709 0.984 . S
H715 N709 0.985 . S
H716 N713 0.984 . S
H717 N713 0.985 . S
H718 N712 0.984 . S
H719 N712 0.984 . S
H720 N708 0.984 . S
H721 N708 0.985 . S
C722 C723 1.362 1_554 S
C722 C728 1.379 . S
C722 N730 1.356 . S
C723 C722 1.362 1_556 S
C723 C729 1.364 . S
C724 C725 1.364 . S
C724 C729 1.379 . S
C724 N731 1.356 . S
C725 C724 1.364 . S
C725 C728 1.362 1_556 S
N726 C728 1.356 . S
N726 H738 0.984 . S
N726 H739 0.985 . S
N727 C729 1.356 . S
N727 H732 0.984 . S
N727 H733 0.985 . S
C728 C722 1.379 . S
C728 C725 1.362 1_554 S
C728 N726 1.356 . S
C729 C723 1.364 . S
C729 C724 1.379 . S
C729 N727 1.356 . S
N730 C722 1.356 . S
N730 H736 0.984 . S
N730 H737 0.984 . S
N731 C724 1.356 . S
N731 H734 0.984 . S
N731 H735 0.985 . S
H732 N727 0.984 . S
H733 N727 0.985 . S
H734 N731 0.984 . S
H735 N731 0.985 . S
H736 N730 0.984 . S
H737 N730 0.984 . S
H738 N726 0.984 . S
H739 N726 0.985 . S
C740 C741 1.363 . S
C740 C746 1.379 . S
C740 N748 1.356 . S
C741 C740 1.363 . S
C741 C747 1.363 . S
C742 C743 1.363 . S
C742 C747 1.379 . S
C742 N749 1.356 . S
C743 C742 1.363 . S
C743 C746 1.363 . S
N744 C746 1.356 . S
N744 H756 0.984 . S
N744 H757 0.985 . S
N745 C747 1.356 . S
N745 H750 0.984 . S
N745 H751 0.985 . S
C746 C740 1.379 . S
C746 C743 1.363 . S
C746 N744 1.356 . S
C747 C741 1.363 . S
C747 C742 1.379 . S
C747 N745 1.356 . S
N748 C740 1.356 . S
N748 H754 0.984 . S
N748 H755 0.984 . S
N749 C742 1.356 . S
N749 H752 0.984 . S
N749 H753 0.985 . S
H750 N745 0.984 . S
H751 N745 0.985 . S
H752 N749 0.984 . S
H753 N749 0.985 . S
H754 N748 0.984 . S
H755 N748 0.984 . S
H756 N744 0.984 . S
H757 N744 0.985 . S
C758 C759 1.363 . S
C758 C764 1.379 . S
C758 N766 1.356 . S
C759 C758 1.363 . S
C759 C765 1.363 . S
C760 C761 1.363 . S
C760 C765 1.379 . S
C760 N767 1.356 . S
C761 C760 1.363 . S
C761 C764 1.363 . S
N762 C764 1.356 . S
N762 H774 0.984 . S
N762 H775 0.985 . S
N763 C765 1.356 . S
N763 H768 0.984 . S
N763 H769 0.985 . S
C764 C758 1.379 . S
C764 C761 1.363 . S
C764 N762 1.356 . S
C765 C759 1.363 . S
C765 C760 1.379 . S
C765 N763 1.356 . S
N766 C758 1.356 . S
N766 H772 0.984 . S
N766 H773 0.984 . S
N767 C760 1.356 . S
N767 H770 0.984 . S
N767 H771 0.985 . S
H768 N763 0.984 . S
H769 N763 0.985 . S
H770 N767 0.984 . S
H771 N767 0.985 . S
H772 N766 0.984 . S
H773 N766 0.984 . S
H774 N762 0.984 . S
H775 N762 0.985 . S
C776 C777 1.363 . S
C776 C782 1.379 . S
C776 N784 1.356 . S
C777 C776 1.363 . S
C777 C783 1.363 . S
C778 C779 1.363 . S
C778 C783 1.379 . S
C778 N785 1.356 . S
C779 C778 1.363 . S
C779 C782 1.363 . S
N780 C782 1.356 . S
N780 H792 0.984 . S
N780 H793 0.985 . S
N781 C783 1.356 . S
N781 H786 0.984 . S
N781 H787 0.985 . S
C782 C776 1.379 . S
C782 C779 1.363 . S
C782 N780 1.356 . S
C783 C777 1.363 . S
C783 C778 1.379 . S
C783 N781 1.356 . S
N784 C776 1.356 . S
N784 H790 0.984 . S
N784 H791 0.984 . S
N785 C778 1.356 . S
N785 H788 0.984 . S
N785 H789 0.985 . S
H786 N781 0.984 . S
H787 N781 0.985 . S
H788 N785 0.984 . S
H789 N785 0.985 . S
H790 N784 0.984 . S
H791 N784 0.984 . S
H792 N780 0.984 . S
H793 N780 0.985 . S
C794 C795 1.363 . S
C794 C800 1.379 . S
C794 N802 1.356 . S
C795 C794 1.363 . S
C795 C801 1.363 . S
C796 C797 1.363 . S
C796 C801 1.379 . S
C796 N803 1.356 . S
C797 C796 1.363 . S
C797 C800 1.363 . S
N798 C800 1.356 . S
N798 H810 0.984 . S
N798 H811 0.985 . S
N799 C801 1.356 . S
N799 H804 0.984 . S
N799 H805 0.985 . S
C800 C794 1.379 . S
C800 C797 1.363 . S
C800 N798 1.356 . S
C801 C795 1.363 . S
C801 C796 1.379 . S
C801 N799 1.356 . S
N802 C794 1.356 . S
N802 H808 0.984 . S
N802 H809 0.984 . S
N803 C796 1.356 . S
N803 H806 0.984 . S
N803 H807 0.985 . S
H804 N799 0.984 . S
H805 N799 0.985 . S
H806 N803 0.984 . S
H807 N803 0.985 . S
H808 N802 0.984 . S
H809 N802 0.984 . S
H810 N798 0.984 . S
H811 N798 0.985 . S
C812 C813 1.363 . S
C812 C818 1.379 . S
C812 N820 1.356 . S
C813 C812 1.363 . S
C813 C819 1.363 . S
C814 C815 1.363 . S
C814 C819 1.379 . S
C814 N821 1.356 . S
C815 C814 1.363 . S
C815 C818 1.363 . S
N816 C818 1.356 . S
N816 H828 0.984 . S
N816 H829 0.985 . S
N817 C819 1.356 . S
N817 H822 0.984 . S
N817 H823 0.985 . S
C818 C812 1.379 . S
C818 C815 1.363 . S
C818 N816 1.356 . S
C819 C813 1.363 . S
C819 C814 1.379 . S
C819 N817 1.356 . S
N820 C812 1.356 . S
N820 H826 0.984 . S
N820 H827 0.984 . S
N821 C814 1.356 . S
N821 H824 0.984 . S
N821 H825 0.985 . S
H822 N817 0.984 . S
H823 N817 0.985 . S
H824 N821 0.984 . S
H825 N821 0.985 . S
H826 N820 0.984 . S
H827 N820 0.984 . S
H828 N816 0.984 . S
H829 N816 0.985 . S
C830 C831 1.363 . S
C830 C836 1.379 . S
C830 N838 1.356 . S
C831 C830 1.363 . S
C831 C837 1.363 . S
C832 C833 1.363 . S
C832 C837 1.379 . S
C832 N839 1.356 . S
C833 C832 1.363 . S
C833 C836 1.363 . S
N834 C836 1.356 . S
N834 H846 0.984 . S
N834 H847 0.985 . S
N835 C837 1.356 . S
N835 H840 0.984 . S
N835 H841 0.985 . S
C836 C830 1.379 . S
C836 C833 1.363 . S
C836 N834 1.356 . S
C837 C831 1.363 . S
C837 C832 1.379 . S
C837 N835 1.356 . S
N838 C830 1.356 . S
N838 H844 0.984 . S
N838 H845 0.984 . S
N839 C832 1.356 . S
N839 H842 0.984 . S
N839 H843 0.985 . S
H840 N835 0.984 . S
H841 N835 0.985 . S
H842 N839 0.984 . S
H843 N839 0.985 . S
H844 N838 0.984 . S
H845 N838 0.984 . S
H846 N834 0.984 . S
H847 N834 0.985 . S
C848 C849 1.363 1_545 S
C848 C854 1.379 . S
C848 N856 1.356 . S
C849 C848 1.363 1_565 S
C849 C855 1.363 . S
C850 C851 1.363 1_565 S
C850 C855 1.379 . S
C850 N857 1.356 . S
C851 C850 1.363 1_545 S
C851 C854 1.363 . S
N852 C854 1.356 . S
N852 H864 0.984 . S
N852 H865 0.985 . S
N853 C855 1.356 . S
N853 H858 0.984 . S
N853 H859 0.985 . S
C854 C848 1.379 . S
C854 C851 1.363 . S
C854 N852 1.356 . S
C855 C849 1.363 . S
C855 C850 1.379 . S
C855 N853 1.356 . S
N856 C848 1.356 . S
N856 H862 0.984 . S
N856 H863 0.984 . S
N857 C850 1.356 . S
N857 H860 0.984 . S
N857 H861 0.985 . S
H858 N853 0.984 . S
H859 N853 0.985 . S
H860 N857 0.984 . S
H861 N857 0.985 . S
H862 N856 0.984 . S
H863 N856 0.984 . S
H864 N852 0.984 . S
H865 N852 0.985 . S
C866 C867 1.363 . S
C866 C872 1.379 . S
C866 N874 1.356 . S
C867 C866 1.363 . S
C867 C873 1.363 1_565 S
C868 C869 1.363 . S
C868 C873 1.379 . S
C868 N875 1.356 . S
C869 C868 1.363 . S
C869 C872 1.363 1_545 S
N870 C872 1.356 . S
N870 H882 0.984 . S
N870 H883 0.985 . S
N871 C873 1.356 . S
N871 H876 0.984 . S
N871 H877 0.985 . S
C872 C866 1.379 . S
C872 C869 1.363 1_565 S
C872 N870 1.356 . S
C873 C867 1.363 1_545 S
C873 C868 1.379 . S
C873 N871 1.356 . S
N874 C866 1.356 . S
N874 H880 0.984 . S
N874 H881 0.984 . S
N875 C868 1.356 . S
N875 H878 0.984 . S
N875 H879 0.985 . S
H876 N871 0.984 . S
H877 N871 0.985 . S
H878 N875 0.984 . S
H879 N875 0.985 . S
H880 N874 0.984 . S
H881 N874 0.984 . S
H882 N870 0.984 . S
H883 N870 0.985 . S
C884 C885 1.363 . S
C884 C890 1.379 1_565 S
C884 N892 1.356 . S
C885 C884 1.363 . S
C885 C891 1.363 . S
C886 C887 1.363 . S
C886 C891 1.379 1_545 S
C886 N893 1.356 . S
C887 C886 1.363 . S
C887 C890 1.363 . S
N888 C890 1.356 . S
N888 H900 0.984 . S
N888 H901 0.985 . S
N889 C891 1.356 . S
N889 H894 0.984 . S
N889 H895 0.985 . S
C890 C884 1.379 1_545 S
C890 C887 1.363 . S
C890 N888 1.356 . S
C891 C885 1.363 . S
C891 C886 1.379 1_565 S
C891 N889 1.356 . S
N892 C884 1.356 . S
N892 H898 0.988 . S
N892 H899 0.984 . S
N893 C886 1.356 . S
N893 H896 0.984 . S
N893 H897 0.988 . S
H894 N889 0.984 . S
H895 N889 0.985 . S
H896 N893 0.984 . S
H897 N893 0.988 . S
H898 N892 0.988 . S
H899 N892 0.984 . S
H900 N888 0.984 . S
H901 N888 0.985 . S
C902 C903 1.363 1_545 S
C902 C908 1.379 . S
C902 N910 1.356 . S
C903 C902 1.363 1_565 S
C903 C909 1.363 . S
C904 C905 1.363 1_565 S
C904 C909 1.379 . S
C904 N911 1.356 . S
C905 C904 1.363 1_545 S
C905 C908 1.363 . S
N906 C908 1.356 . S
N906 H918 0.984 . S
N906 H919 0.985 . S
N907 C909 1.356 . S
N907 H912 0.984 . S
N907 H913 0.985 . S
C908 C902 1.379 . S
C908 C905 1.363 . S
C908 N906 1.356 . S
C909 C903 1.363 . S
C909 C904 1.379 . S
C909 N907 1.356 . S
N910 C902 1.356 . S
N910 H916 0.984 . S
N910 H917 0.984 . S
N911 C904 1.356 . S
N911 H914 0.984 . S
N911 H915 0.985 . S
H912 N907 0.984 . S
H913 N907 0.985 . S
H914 N911 0.984 . S
H915 N911 0.985 . S
H916 N910 0.984 . S
H917 N910 0.984 . S
H918 N906 0.984 . S
H919 N906 0.985 . S
C920 C921 1.368 . S
C920 C926 1.379 1_565 S
C920 N928 1.356 . S
C921 C920 1.368 . S
C921 C927 1.358 1_554 S
C922 C923 1.358 1_556 S
C922 C927 1.379 1_545 S
C922 N929 1.356 . S
C923 C922 1.358 1_554 S
C923 C926 1.368 . S
N924 C926 1.356 . S
N924 H936 0.984 . S
N924 H937 0.985 . S
N925 C927 1.356 . S
N925 H930 0.984 . S
N925 H931 0.985 . S
C926 C920 1.379 1_545 S
C926 C923 1.368 . S
C926 N924 1.356 . S
C927 C921 1.358 1_556 S
C927 C922 1.379 1_565 S
C927 N925 1.356 . S
N928 C920 1.356 . S
N928 H934 0.984 . S
N928 H935 0.984 . S
N929 C922 1.356 . S
N929 H932 0.984 . S
N929 H933 0.985 . S
H930 N925 0.984 . S
H931 N925 0.985 . S
H932 N929 0.984 . S
H933 N929 0.985 . S
H934 N928 0.984 . S
H935 N928 0.984 . S
H936 N924 0.984 . S
H937 N924 0.985 . S
C938 C939 1.363 . S
C938 C944 1.379 1_565 S
C938 N946 1.356 . S
C939 C938 1.363 . S
C939 C945 1.363 . S
C940 C941 1.363 . S
C940 C945 1.379 1_545 S
C940 N947 1.356 . S
C941 C940 1.363 . S
C941 C944 1.363 . S
N942 C944 1.356 . S
N942 H954 0.984 . S
N942 H955 0.985 . S
N943 C945 1.356 . S
N943 H948 0.984 . S
N943 H949 0.985 . S
C944 C938 1.379 1_545 S
C944 C941 1.363 . S
C944 N942 1.356 . S
C945 C939 1.363 . S
C945 C940 1.379 1_565 S
C945 N943 1.356 . S
N946 C938 1.356 . S
N946 H952 0.984 . S
N946 H953 0.984 . S
N947 C940 1.356 . S
N947 H950 0.984 . S
N947 H951 0.985 . S
H948 N943 0.984 . S
H949 N943 0.985 . S
H950 N947 0.984 . S
H951 N947 0.985 . S
H952 N946 0.984 . S
H953 N946 0.984 . S
H954 N942 0.984 . S
H955 N942 0.985 . S
C956 C957 1.368 . S
C956 C962 1.379 . S
C956 N964 1.356 . S
C957 C956 1.368 . S
C957 C963 1.358 1_454 S
C958 C959 1.358 1_556 S
C958 C963 1.379 . S
C958 N965 1.356 . S
C959 C958 1.358 1_554 S
C959 C962 1.368 1_655 S
N960 C962 1.356 . S
N960 H972 0.984 . S
N960 H973 0.985 . S
N961 C963 1.356 . S
N961 H966 0.984 . S
N961 H967 0.985 . S
C962 C956 1.379 . S
C962 C959 1.368 1_455 S
C962 N960 1.356 . S
C963 C957 1.358 1_656 S
C963 C958 1.379 . S
C963 N961 1.356 . S
N964 C956 1.356 . S
N964 H970 0.984 . S
N964 H971 0.984 . S
N965 C958 1.356 . S
N965 H968 0.984 . S
N965 H969 0.985 . S
H966 N961 0.984 . S
H967 N961 0.985 . S
H968 N965 0.984 . S
H969 N965 0.985 . S
H970 N964 0.984 . S
H971 N964 0.984 . S
H972 N960 0.984 . S
H973 N960 0.985 . S
C974 C975 1.363 1_655 S
C974 C980 1.379 . S
C974 N982 1.356 . S
C975 C974 1.363 1_455 S
C975 C981 1.363 . S
C976 C977 1.363 1_455 S
C976 C981 1.379 . S
C976 N983 1.356 . S
C977 C976 1.363 1_655 S
C977 C980 1.363 . S
N978 C980 1.356 . S
N978 H990 0.984 . S
N978 H991 0.985 . S
N979 C981 1.356 . S
N979 H984 0.984 . S
N979 H985 0.985 . S
C980 C974 1.379 . S
C980 C977 1.363 . S
C980 N978 1.356 . S
C981 C975 1.363 . S
C981 C976 1.379 . S
C981 N979 1.356 . S
N982 C974 1.356 . S
N982 H988 0.984 . S
N982 H989 0.984 . S
N983 C976 1.356 . S
N983 H986 0.984 . S
N983 H987 0.985 . S
H984 N979 0.984 . S
H985 N979 0.985 . S
H986 N983 0.984 . S
H987 N983 0.985 . S
H988 N982 0.984 . S
H989 N982 0.984 . S
H990 N978 0.984 . S
H991 N978 0.985 . S
C705 C460 1.600 1_556 S
C707 C29 1.600 1_556 S
C723 C381 1.600 1_556 S
C725 C108 1.600 1_556 S
C741 C673 1.600 . S
C743 C225 1.600 . S
C759 C577 1.600 . S
C761 C321 1.600 . S
C777 C20 1.403 . S
C779 C233 1.401 . S
C795 C117 1.403 . S
C797 C313 1.401 . S
C813 C145 1.403 . S
C815 C284 1.405 . S
C831 C49 1.403 . S
C833 C205 1.405 . S
C849 C372 1.403 . S
C851 C585 1.400 . S
C867 C665 1.403 . S
C869 C469 1.400 . S
C885 C636 1.403 . S
C887 C497 1.405 . S
C903 C401 1.403 . S
C905 C557 1.405 . S
C921 C137 1.624 1_554 S
C923 C57 1.624 1_554 S
C939 C196 1.624 . S
C941 C293 1.624 . S
C957 C409 1.624 1_554 S
C959 C489 1.624 1_554 S
C975 C548 1.624 . S
C977 C645 1.624 . S
