# Generated by pormake.
# Topology whm, (6)-cn, num edge types: 1
# Building blocks:
#     Node 0, Type 0, BuildingBlock: OJICUG_clean_sbu_0, # of connection points: 6
#     Node 1, Type 0, BuildingBlock: OJICUG_clean_sbu_0, # of connection points: 6
#     Node 2, Type 0, BuildingBlock: OJICUG_clean_sbu_0, # of connection points: 6
#     Node 3, Type 0, BuildingBlock: OJICUG_clean_sbu_0, # of connection points: 6
#     Node 4, Type 0, BuildingBlock: OJICUG_clean_sbu_0, # of connection points: 6
#     Node 5, Type 0, BuildingBlock: OJICUG_clean_sbu_0, # of connection points: 6
#     Node 6, Type 0, BuildingBlock: OJICUG_clean_sbu_0, # of connection points: 6
#     Node 7, Type 0, BuildingBlock: OJICUG_clean_sbu_0, # of connection points: 6
#     Node 8, Type 0, BuildingBlock: OJICUG_clean_sbu_0, # of connection points: 6
#     Node 9, Type 0, BuildingBlock: OJICUG_clean_sbu_0, # of connection points: 6
#     Node 10, Type 0, BuildingBlock: OJICUG_clean_sbu_0, # of connection points: 6
#     Node 11, Type 0, BuildingBlock: OJICUG_clean_sbu_0, # of connection points: 6
#     Node 12, Type 0, BuildingBlock: OJICUG_clean_sbu_0, # of connection points: 6
#     Node 13, Type 0, BuildingBlock: OJICUG_clean_sbu_0, # of connection points: 6
#     Node 14, Type 0, BuildingBlock: OJICUG_clean_sbu_0, # of connection points: 6
#     Node 15, Type 0, BuildingBlock: OJICUG_clean_sbu_0, # of connection points: 6
#     Edge 16, Type (0, 0), BuildingBlock: ZUJKAS_clean_linker_0, # of connection points: 2
#     Edge 17, Type (0, 0), BuildingBlock: ZUJKAS_clean_linker_0, # of connection points: 2
#     Edge 18, Type (0, 0), BuildingBlock: ZUJKAS_clean_linker_0, # of connection points: 2
#     Edge 19, Type (0, 0), BuildingBlock: ZUJKAS_clean_linker_0, # of connection points: 2
#     Edge 20, Type (0, 0), BuildingBlock: ZUJKAS_clean_linker_0, # of connection points: 2
#     Edge 21, Type (0, 0), BuildingBlock: ZUJKAS_clean_linker_0, # of connection points: 2
#     Edge 22, Type (0, 0), BuildingBlock: ZUJKAS_clean_linker_0, # of connection points: 2
#     Edge 23, Type (0, 0), BuildingBlock: ZUJKAS_clean_linker_0, # of connection points: 2
#     Edge 24, Type (0, 0), BuildingBlock: ZUJKAS_clean_linker_0, # of connection points: 2
#     Edge 25, Type (0, 0), BuildingBlock: ZUJKAS_clean_linker_0, # of connection points: 2
#     Edge 26, Type (0, 0), BuildingBlock: ZUJKAS_clean_linker_0, # of connection points: 2
#     Edge 27, Type (0, 0), BuildingBlock: ZUJKAS_clean_linker_0, # of connection points: 2
#     Edge 28, Type (0, 0), BuildingBlock: ZUJKAS_clean_linker_0, # of connection points: 2
#     Edge 29, Type (0, 0), BuildingBlock: ZUJKAS_clean_linker_0, # of connection points: 2
#     Edge 30, Type (0, 0), BuildingBlock: ZUJKAS_clean_linker_0, # of connection points: 2
#     Edge 31, Type (0, 0), BuildingBlock: ZUJKAS_clean_linker_0, # of connection points: 2
#     Edge 32, Type (0, 0), BuildingBlock: ZUJKAS_clean_linker_0, # of connection points: 2
#     Edge 33, Type (0, 0), BuildingBlock: ZUJKAS_clean_linker_0, # of connection points: 2
#     Edge 34, Type (0, 0), BuildingBlock: ZUJKAS_clean_linker_0, # of connection points: 2
#     Edge 35, Type (0, 0), BuildingBlock: ZUJKAS_clean_linker_0, # of connection points: 2
#     Edge 36, Type (0, 0), BuildingBlock: ZUJKAS_clean_linker_0, # of connection points: 2
#     Edge 37, Type (0, 0), BuildingBlock: ZUJKAS_clean_linker_0, # of connection points: 2
#     Edge 38, Type (0, 0), BuildingBlock: ZUJKAS_clean_linker_0, # of connection points: 2
#     Edge 39, Type (0, 0), BuildingBlock: ZUJKAS_clean_linker_0, # of connection points: 2
#     Edge 40, Type (0, 0), BuildingBlock: ZUJKAS_clean_linker_0, # of connection points: 2
#     Edge 41, Type (0, 0), BuildingBlock: ZUJKAS_clean_linker_0, # of connection points: 2
#     Edge 42, Type (0, 0), BuildingBlock: ZUJKAS_clean_linker_0, # of connection points: 2
#     Edge 43, Type (0, 0), BuildingBlock: ZUJKAS_clean_linker_0, # of connection points: 2
#     Edge 44, Type (0, 0), BuildingBlock: ZUJKAS_clean_linker_0, # of connection points: 2
#     Edge 45, Type (0, 0), BuildingBlock: ZUJKAS_clean_linker_0, # of connection points: 2
#     Edge 46, Type (0, 0), BuildingBlock: ZUJKAS_clean_linker_0, # of connection points: 2
#     Edge 47, Type (0, 0), BuildingBlock: ZUJKAS_clean_linker_0, # of connection points: 2
#     Edge 48, Type (0, 0), BuildingBlock: ZUJKAS_clean_linker_0, # of connection points: 2
#     Edge 49, Type (0, 0), BuildingBlock: ZUJKAS_clean_linker_0, # of connection points: 2
#     Edge 50, Type (0, 0), BuildingBlock: ZUJKAS_clean_linker_0, # of connection points: 2
#     Edge 51, Type (0, 0), BuildingBlock: ZUJKAS_clean_linker_0, # of connection points: 2
#     Edge 52, Type (0, 0), BuildingBlock: ZUJKAS_clean_linker_0, # of connection points: 2
#     Edge 53, Type (0, 0), BuildingBlock: ZUJKAS_clean_linker_0, # of connection points: 2
#     Edge 54, Type (0, 0), BuildingBlock: ZUJKAS_clean_linker_0, # of connection points: 2
#     Edge 55, Type (0, 0), BuildingBlock: ZUJKAS_clean_linker_0, # of connection points: 2
#     Edge 56, Type (0, 0), BuildingBlock: ZUJKAS_clean_linker_0, # of connection points: 2
#     Edge 57, Type (0, 0), BuildingBlock: ZUJKAS_clean_linker_0, # of connection points: 2
#     Edge 58, Type (0, 0), BuildingBlock: ZUJKAS_clean_linker_0, # of connection points: 2
#     Edge 59, Type (0, 0), BuildingBlock: ZUJKAS_clean_linker_0, # of connection points: 2
#     Edge 60, Type (0, 0), BuildingBlock: ZUJKAS_clean_linker_0, # of connection points: 2
#     Edge 61, Type (0, 0), BuildingBlock: ZUJKAS_clean_linker_0, # of connection points: 2
#     Edge 62, Type (0, 0), BuildingBlock: ZUJKAS_clean_linker_0, # of connection points: 2
#     Edge 63, Type (0, 0), BuildingBlock: ZUJKAS_clean_linker_0, # of connection points: 2
# Relax obj value: 0.342
# Max RMSD: 0.245
# Mean RMSD: 0.245
data_MOF--net-whm--node1-OJICUG_clean_sbu_0--edge1-ZUJKAS_clean_linker_0
_symmetry_space_group_name_H-M    P1
_symmetry_Int_Tables_number       1
_symmetry_cell_setting            triclinic
loop_
_symmetry_equiv_pos_as_xyz
'x, y, z'
_cell_length_a     65.263889
_cell_length_b     65.256662
_cell_length_c     37.231689
_cell_angle_alpha  89.973099
_cell_angle_beta   89.95725
_cell_angle_gamma 90.028789
loop_
_atom_site_label
_atom_site_type_symbol
_atom_site_fract_x
_atom_site_fract_y
_atom_site_fract_z
_atom_type_partial_charge
Sc0 Sc 0.56765 0.17034 0.13488 0.0
Sc1 Sc 0.52782 0.16825 0.19881 0.0
Sc2 Sc 0.55097 0.12278 0.16778 0.0
O3 O 0.54879 0.15379 0.16716 0.0
C4 C 0.55984 0.13084 0.08562 0.0
C5 C 0.52401 0.19118 0.12315 0.0
C6 C 0.50281 0.1287 0.1738 0.0
C7 C 0.56452 0.2001 0.20272 0.0
C8 C 0.59795 0.13735 0.1674 0.0
C9 C 0.54453 0.13345 0.25085 0.0
O10 O 0.56594 0.14908 0.09077 0.0
O11 O 0.51688 0.1864 0.15394 0.0
O12 O 0.51833 0.11826 0.16428 0.0
O13 O 0.57269 0.19423 0.17358 0.0
O14 O 0.5839 0.12406 0.17206 0.0
O15 O 0.53674 0.15114 0.24619 0.0
O16 O 0.5945 0.15523 0.15518 0.0
O17 O 0.54858 0.19183 0.21567 0.0
O18 O 0.54974 0.12189 0.22501 0.0
O19 O 0.54193 0.18627 0.11273 0.0
O20 O 0.55279 0.11971 0.11064 0.0
O21 O 0.50423 0.14657 0.18691 0.0
Sc22 Sc 0.32936 0.56775 0.62971 0.0
Sc23 Sc 0.32969 0.53332 0.70256 0.0
Sc24 Sc 0.37614 0.55278 0.66828 0.0
O25 O 0.34506 0.55129 0.66684 0.0
C26 C 0.36898 0.5553 0.58415 0.0
C27 C 0.30766 0.52388 0.62792 0.0
C28 C 0.36879 0.50575 0.68445 0.0
C29 C 0.29883 0.57085 0.69648 0.0
C30 C 0.36288 0.59955 0.65639 0.0
C31 C 0.36425 0.55282 0.75173 0.0
O32 O 0.35058 0.56137 0.587 0.0
O33 O 0.31223 0.51892 0.66005 0.0
O34 O 0.37961 0.52001 0.67091 0.0
O35 O 0.3057 0.57707 0.66652 0.0
O36 O 0.37555 0.5858 0.66619 0.0
O37 O 0.34605 0.54612 0.74792 0.0
O38 O 0.34541 0.59545 0.64303 0.0
O39 O 0.30604 0.55532 0.71249 0.0
O40 O 0.37659 0.55499 0.72563 0.0
O41 O 0.31258 0.54099 0.61391 0.0
O42 O 0.37999 0.55103 0.61117 0.0
O43 O 0.35117 0.50878 0.69781 0.0
Sc44 Sc 0.92207 0.32648 0.13232 0.0
Sc45 Sc 0.9588 0.32723 0.20171 0.0
Sc46 Sc 0.93639 0.37325 0.17126 0.0
O47 O 0.93913 0.34231 0.16842 0.0
C48 C 0.9323 0.36715 0.08753 0.0
C49 C 0.9664 0.30619 0.12541 0.0
C50 C 0.9842 0.36774 0.18404 0.0
C51 C 0.92218 0.29519 0.19823 0.0
C52 C 0.8898 0.35842 0.16214 0.0
C53 C 0.93862 0.36016 0.25383 0.0
O54 O 0.92617 0.34873 0.09024 0.0
O55 O 0.97216 0.31046 0.15725 0.0
O56 O 0.96899 0.37829 0.17348 0.0
O57 O 0.91501 0.30197 0.16889 0.0
O58 O 0.90338 0.37168 0.17008 0.0
O59 O 0.94729 0.34289 0.249 0.0
O60 O 0.89412 0.34094 0.14914 0.0
O61 O 0.93778 0.30292 0.21328 0.0
O62 O 0.93445 0.37235 0.22832 0.0
O63 O 0.94885 0.31102 0.11313 0.0
O64 O 0.93764 0.37777 0.11443 0.0
O65 O 0.98251 0.34945 0.1951 0.0
Sc66 Sc 0.16658 0.92268 0.6342 0.0
Sc67 Sc 0.16653 0.96292 0.69739 0.0
Sc68 Sc 0.12018 0.93967 0.6714 0.0
O69 O 0.15111 0.94175 0.66763 0.0
C70 C 0.126 0.93018 0.58838 0.0
C71 C 0.18694 0.96658 0.61986 0.0
C72 C 0.12596 0.98758 0.67588 0.0
C73 C 0.19833 0.92586 0.69889 0.0
C74 C 0.13422 0.89274 0.67067 0.0
C75 C 0.13368 0.94689 0.75318 0.0
O76 O 0.14476 0.92538 0.59136 0.0
O77 O 0.18215 0.97433 0.65014 0.0
O78 O 0.11571 0.97215 0.66532 0.0
O79 O 0.19063 0.91672 0.67206 0.0
O80 O 0.1217 0.90699 0.67859 0.0
O81 O 0.15174 0.95334 0.74677 0.0
O82 O 0.15111 0.8959 0.65444 0.0
O83 O 0.19147 0.94278 0.7105 0.0
O84 O 0.12097 0.94263 0.7285 0.0
O85 O 0.18284 0.94813 0.61128 0.0
O86 O 0.11523 0.93601 0.61483 0.0
O87 O 0.1438 0.98608 0.68914 0.0
Sc88 Sc 0.56923 0.32445 0.85733 0.0
Sc89 Sc 0.53356 0.32816 0.78671 0.0
Sc90 Sc 0.55243 0.37285 0.8276 0.0
O91 O 0.55175 0.3418 0.82397 0.0
C92 C 0.55629 0.36079 0.91017 0.0
C93 C 0.52587 0.30148 0.85679 0.0
C94 C 0.50552 0.36559 0.81212 0.0
C95 C 0.57185 0.29781 0.78599 0.0
C96 C 0.59962 0.36051 0.83534 0.0
C97 C 0.55178 0.36535 0.74249 0.0
O98 O 0.56248 0.34267 0.90407 0.0
O99 O 0.51973 0.30894 0.8271 0.0
O100 O 0.51961 0.37564 0.82771 0.0
O101 O 0.579 0.30382 0.81583 0.0
O102 O 0.58539 0.37308 0.82762 0.0
O103 O 0.54598 0.34673 0.74384 0.0
O104 O 0.59623 0.34238 0.84649 0.0
O105 O 0.55544 0.30494 0.77276 0.0
O106 O 0.5535 0.37657 0.77023 0.0
O107 O 0.54343 0.30515 0.8703 0.0
O108 O 0.55171 0.37322 0.88523 0.0
O109 O 0.50886 0.34914 0.795 0.0
Sc110 Sc 0.12201 0.55069 0.32162 0.0
Sc111 Sc 0.16812 0.52662 0.29701 0.0
Sc112 Sc 0.16853 0.56739 0.35885 0.0
O113 O 0.1529 0.54826 0.32587 0.0
C114 C 0.13711 0.59729 0.31964 0.0
C115 C 0.13579 0.54193 0.2404 0.0
C116 C 0.20085 0.56285 0.29529 0.0
C117 C 0.12704 0.50285 0.31927 0.0
C118 C 0.12754 0.5614 0.40432 0.0
C119 C 0.18771 0.52319 0.3751 0.0
O120 O 0.12426 0.58319 0.31229 0.0
O121 O 0.15406 0.53635 0.24726 0.0
O122 O 0.19306 0.57245 0.32152 0.0
O123 O 0.11719 0.51848 0.33008 0.0
O124 O 0.14642 0.56567 0.40146 0.0
O125 O 0.18297 0.51529 0.34491 0.0
O126 O 0.11678 0.55563 0.37785 0.0
O127 O 0.14472 0.50404 0.30519 0.0
O128 O 0.18404 0.54183 0.3831 0.0
O129 O 0.12274 0.54615 0.26462 0.0
O130 O 0.15373 0.59403 0.33662 0.0
O131 O 0.19371 0.54597 0.28404 0.0
Sc132 Sc 0.93964 0.1181 0.81908 0.0
Sc133 Sc 0.961 0.1648 0.79115 0.0
Sc134 Sc 0.92146 0.16434 0.85534 0.0
O135 O 0.94068 0.1491 0.82199 0.0
C136 C 0.89249 0.13084 0.81904 0.0
C137 C 0.9463 0.13112 0.7369 0.0
C138 C 0.92326 0.19587 0.79037 0.0
C139 C 0.98695 0.12507 0.81363 0.0
C140 C 0.9299 0.12449 0.90228 0.0
C141 C 0.96501 0.18607 0.86749 0.0
O142 O 0.90709 0.11891 0.81019 0.0
O143 O 0.95049 0.14988 0.74274 0.0
O144 O 0.9141 0.18762 0.8167 0.0
O145 O 0.97213 0.11495 0.82697 0.0
O146 O 0.92557 0.14335 0.89915 0.0
O147 O 0.97285 0.18052 0.83769 0.0
O148 O 0.93503 0.11346 0.87572 0.0
O149 O 0.98455 0.14224 0.79812 0.0
O150 O 0.94656 0.18207 0.87643 0.0
O151 O 0.94383 0.11809 0.76189 0.0
O152 O 0.89517 0.14744 0.83642 0.0
O153 O 0.94052 0.18966 0.77917 0.0
Sc154 Sc 0.37634 0.93986 0.32448 0.0
Sc155 Sc 0.32986 0.95903 0.28996 0.0
Sc156 Sc 0.32944 0.92405 0.3619 0.0
O157 O 0.34522 0.94099 0.32546 0.0
C158 C 0.36335 0.89278 0.33522 0.0
C159 C 0.36481 0.93989 0.24103 0.0
C160 C 0.29932 0.92122 0.29464 0.0
C161 C 0.36871 0.98694 0.30828 0.0
C162 C 0.36874 0.9368 0.40823 0.0
C163 C 0.30748 0.96768 0.36479 0.0
O164 O 0.37611 0.90678 0.32682 0.0
O165 O 0.3467 0.94684 0.24468 0.0
O166 O 0.30566 0.91513 0.32501 0.0
O167 O 0.3797 0.97269 0.32137 0.0
O168 O 0.35064 0.92998 0.40477 0.0
O169 O 0.31188 0.97281 0.33263 0.0
O170 O 0.37975 0.94191 0.38163 0.0
O171 O 0.35096 0.98384 0.29557 0.0
O172 O 0.31269 0.95059 0.37854 0.0
O173 O 0.37701 0.93742 0.26722 0.0
O174 O 0.34555 0.89655 0.34752 0.0
O175 O 0.30679 0.93667 0.27874 0.0
Sc176 Sc 0.4404 0.87006 0.82624 0.0
Sc177 Sc 0.46192 0.8263 0.78585 0.0
Sc178 Sc 0.42273 0.82102 0.85032 0.0
O179 O 0.44171 0.83912 0.82089 0.0
C180 C 0.43307 0.8562 0.90711 0.0
C181 C 0.4881 0.86387 0.81644 0.0
C182 C 0.466 0.79803 0.85484 0.0
C183 C 0.44522 0.8641 0.74123 0.0
C184 C 0.39306 0.85728 0.82679 0.0
C185 C 0.42384 0.79607 0.77709 0.0
O186 O 0.43883 0.86919 0.8838 0.0
O187 O 0.48588 0.84732 0.79906 0.0
O188 O 0.44782 0.80147 0.86578 0.0
O189 O 0.44144 0.87461 0.7692 0.0
O190 O 0.39614 0.83892 0.83691 0.0
O191 O 0.44094 0.80329 0.76698 0.0
O192 O 0.4075 0.87013 0.82217 0.0
O193 O 0.45186 0.84576 0.74244 0.0
O194 O 0.4152 0.80151 0.80604 0.0
O195 O 0.47312 0.87352 0.83019 0.0
O196 O 0.42712 0.83826 0.89892 0.0
O197 O 0.47369 0.80623 0.82689 0.0
Sc198 Sc 0.66653 0.42421 0.35433 0.0
Sc199 Sc 0.66398 0.46081 0.2852 0.0
Sc200 Sc 0.61872 0.44302 0.32556 0.0
O201 O 0.64975 0.44271 0.32189 0.0
C202 C 0.6293 0.3954 0.33162 0.0
C203 C 0.69299 0.42143 0.28312 0.0
C204 C 0.62644 0.44422 0.24053 0.0
C205 C 0.69131 0.46668 0.35458 0.0
C206 C 0.63098 0.43768 0.40806 0.0
C207 C 0.62704 0.48969 0.31068 0.0
O208 O 0.64724 0.39808 0.34415 0.0
O209 O 0.68697 0.43863 0.27134 0.0
O210 O 0.61501 0.44324 0.26815 0.0
O211 O 0.68735 0.44886 0.36681 0.0
O212 O 0.61836 0.44235 0.38341 0.0
O213 O 0.64324 0.48579 0.29313 0.0
O214 O 0.64913 0.43173 0.40151 0.0
O215 O 0.68334 0.47394 0.32609 0.0
O216 O 0.61698 0.47598 0.32738 0.0
O217 O 0.68612 0.41364 0.3119 0.0
O218 O 0.61744 0.4101 0.32315 0.0
O219 O 0.64538 0.44885 0.2421 0.0
Sc220 Sc 0.07184 0.66497 0.86211 0.0
Sc221 Sc 0.03361 0.66268 0.79579 0.0
Sc222 Sc 0.05775 0.61744 0.82578 0.0
O223 O 0.05436 0.64834 0.82786 0.0
C224 C 0.10403 0.63424 0.82898 0.0
C225 C 0.06879 0.69608 0.79607 0.0
C226 C 0.05248 0.62935 0.74294 0.0
C227 C 0.02725 0.68354 0.87281 0.0
C228 C 0.06508 0.62416 0.90859 0.0
C229 C 0.0095 0.62186 0.81705 0.0
O230 O 0.09957 0.65191 0.84112 0.0
O231 O 0.05398 0.68705 0.78081 0.0
O232 O 0.05802 0.61759 0.76832 0.0
O233 O 0.04491 0.67868 0.88464 0.0
O234 O 0.05816 0.61334 0.88303 0.0
O235 O 0.01056 0.64017 0.80576 0.0
O236 O 0.07101 0.6425 0.90421 0.0
O237 O 0.02141 0.67984 0.84079 0.0
O238 O 0.0252 0.61158 0.82626 0.0
O239 O 0.07604 0.69024 0.82593 0.0
O240 O 0.09073 0.6202 0.82413 0.0
O241 O 0.04369 0.6465 0.74828 0.0
Sc242 Sc 0.82356 0.06925 0.35944 0.0
Sc243 Sc 0.8242 0.03147 0.29192 0.0
Sc244 Sc 0.87042 0.05296 0.32327 0.0
O245 O 0.83939 0.0512 0.32489 0.0
C246 C 0.85667 0.10002 0.3284 0.0
C247 C 0.79256 0.06857 0.29344 0.0
C248 C 0.85809 0.04975 0.23997 0.0
C249 C 0.80287 0.02507 0.36826 0.0
C250 C 0.86331 0.05936 0.40665 0.0
C251 C 0.86424 0.00547 0.31108 0.0
O252 O 0.83903 0.09646 0.34156 0.0
O253 O 0.7997 0.05229 0.27978 0.0
O254 O 0.87045 0.05315 0.26567 0.0
O255 O 0.80727 0.04302 0.37934 0.0
O256 O 0.87429 0.05333 0.38059 0.0
O257 O 0.84646 0.00773 0.29798 0.0
O258 O 0.84502 0.0655 0.40258 0.0
O259 O 0.80763 0.01855 0.33705 0.0
O260 O 0.87452 0.02023 0.32414 0.0
O261 O 0.79976 0.0764 0.32188 0.0
O262 O 0.8696 0.08595 0.32151 0.0
O263 O 0.84005 0.04275 0.24477 0.0
Sc264 Sc 0.4432 0.62128 0.16712 0.0
Sc265 Sc 0.46375 0.66566 0.20706 0.0
Sc266 Sc 0.42424 0.66985 0.14313 0.0
O267 O 0.44375 0.65227 0.17234 0.0
C268 C 0.43484 0.63459 0.08637 0.0
C269 C 0.49074 0.62853 0.17687 0.0
C270 C 0.46714 0.69349 0.13734 0.0
C271 C 0.44781 0.62768 0.25213 0.0
C272 C 0.39554 0.63301 0.1674 0.0
C273 C 0.42539 0.69555 0.21563 0.0
O274 O 0.44148 0.6219 0.10946 0.0
O275 O 0.48811 0.64507 0.19411 0.0
O276 O 0.44899 0.68961 0.12664 0.0
O277 O 0.44436 0.61698 0.22424 0.0
O278 O 0.3981 0.65154 0.15775 0.0
O279 O 0.44252 0.68848 0.2258 0.0
O280 O 0.4103 0.62047 0.17125 0.0
O281 O 0.45402 0.64618 0.25076 0.0
O282 O 0.41672 0.68976 0.18694 0.0
O283 O 0.47602 0.61851 0.16311 0.0
O284 O 0.42838 0.65231 0.09479 0.0
O285 O 0.47502 0.68571 0.16548 0.0
Sc286 Sc 0.87145 0.44067 0.67165 0.0
Sc287 Sc 0.82636 0.46352 0.70435 0.0
Sc288 Sc 0.82352 0.42383 0.64034 0.0
O289 O 0.84043 0.4427 0.672 0.0
C290 C 0.8618 0.4327 0.58921 0.0
C291 C 0.86601 0.48854 0.67907 0.0
C292 C 0.80164 0.46748 0.63129 0.0
C293 C 0.8613 0.44665 0.75513 0.0
C294 C 0.85779 0.39362 0.67037 0.0
C295 C 0.79499 0.42609 0.70936 0.0
O296 O 0.87365 0.43808 0.61449 0.0
O297 O 0.84866 0.48685 0.69416 0.0
O298 O 0.80518 0.44908 0.62162 0.0
O299 O 0.87305 0.44259 0.72887 0.0
O300 O 0.84023 0.39698 0.6568 0.0
O301 O 0.802 0.4432 0.71986 0.0
O302 O 0.87054 0.40784 0.6772 0.0
O303 O 0.84314 0.45339 0.75113 0.0
O304 O 0.80175 0.41695 0.68176 0.0
O305 O 0.87579 0.47325 0.66673 0.0
O306 O 0.84321 0.42769 0.59438 0.0
O307 O 0.80876 0.47539 0.65993 0.0
Sc308 Sc 0.05693 0.87183 0.17143 0.0
Sc309 Sc 0.03527 0.82491 0.19796 0.0
Sc310 Sc 0.07265 0.82633 0.12953 0.0
O311 O 0.05496 0.841 0.16623 0.0
C312 C 0.06374 0.86786 0.08722 0.0
C313 C 0.00956 0.86561 0.18154 0.0
C314 C 0.02827 0.80611 0.11996 0.0
C315 C 0.05283 0.85688 0.25319 0.0
C316 C 0.10372 0.85782 0.16554 0.0
C317 C 0.07222 0.79318 0.19236 0.0
O318 O 0.05905 0.87804 0.11501 0.0
O319 O 0.01187 0.8478 0.19459 0.0
O320 O 0.04624 0.81051 0.10891 0.0
O321 O 0.05558 0.87016 0.22873 0.0
O322 O 0.10008 0.84147 0.14798 0.0
O323 O 0.0559 0.79981 0.20671 0.0
O324 O 0.08974 0.87012 0.17574 0.0
O325 O 0.04685 0.83869 0.24665 0.0
O326 O 0.08015 0.80144 0.16485 0.0
O327 O 0.02424 0.87595 0.16825 0.0
O328 O 0.06835 0.84899 0.08835 0.0
O329 O 0.02195 0.8102 0.15155 0.0
Sc330 Sc 0.61641 0.05516 0.66694 0.0
Sc331 Sc 0.66227 0.03206 0.69632 0.0
Sc332 Sc 0.66314 0.06872 0.62693 0.0
O333 O 0.64727 0.05193 0.66342 0.0
C334 C 0.62162 0.05997 0.5834 0.0
C335 C 0.62129 0.00721 0.67981 0.0
C336 C 0.68188 0.02396 0.6187 0.0
C337 C 0.62998 0.05269 0.74925 0.0
C338 C 0.63246 0.1015 0.65833 0.0
C339 C 0.69533 0.06755 0.69151 0.0
O340 O 0.61134 0.05379 0.61019 0.0
O341 O 0.63977 0.00866 0.68988 0.0
O342 O 0.67689 0.04142 0.60616 0.0
O343 O 0.61778 0.0573 0.72399 0.0
O344 O 0.65001 0.09689 0.64584 0.0
O345 O 0.68679 0.05283 0.70788 0.0
O346 O 0.61873 0.08816 0.66521 0.0
O347 O 0.64697 0.04356 0.74402 0.0
O348 O 0.68889 0.0743 0.66163 0.0
O349 O 0.61076 0.0226 0.66987 0.0
O350 O 0.63998 0.06623 0.58605 0.0
O351 O 0.67859 0.01866 0.6512 0.0
H352 H 0.55979 0.21091 0.27319 0.0
H353 H 0.5723 0.24201 0.3026 0.0
H354 H 0.60074 0.26119 0.20345 0.0
H355 H 0.58902 0.22983 0.17432 0.0
H356 H 0.6249 0.26913 0.25914 0.0
H357 H 0.54627 0.29709 0.2883 0.0
H358 H 0.55203 0.27276 0.30832 0.0
H359 H 0.55108 0.27513 0.26019 0.0
C360 C 0.56883 0.22172 0.25775 0.0
C361 C 0.57327 0.21804 0.22136 0.0
C362 C 0.57585 0.23952 0.27453 0.0
C363 C 0.58701 0.25414 0.25497 0.0
C364 C 0.59206 0.25015 0.219 0.0
H365 H 0.59902 0.38301 0.28617 0.0
H366 H 0.5893 0.34797 0.27115 0.0
C367 C 0.58535 0.23222 0.20239 0.0
C368 C 0.59301 0.27391 0.27136 0.0
H369 H 0.57365 0.31735 0.30942 0.0
C370 C 0.61372 0.27966 0.27029 0.0
C371 C 0.57833 0.2877 0.28547 0.0
C372 C 0.55567 0.28299 0.28538 0.0
C373 C 0.62014 0.29901 0.28219 0.0
C374 C 0.60549 0.31268 0.29672 0.0
C375 C 0.58485 0.30675 0.29855 0.0
C376 C 0.61093 0.33381 0.30757 0.0
C377 C 0.64236 0.30491 0.27751 0.0
C378 C 0.62603 0.33749 0.3336 0.0
C379 C 0.63185 0.35754 0.34188 0.0
C380 C 0.62233 0.37424 0.32481 0.0
C381 C 0.60661 0.37049 0.29988 0.0
C382 C 0.60104 0.35047 0.29124 0.0
H383 H 0.65025 0.29491 0.25772 0.0
H384 H 0.64384 0.32106 0.26847 0.0
H385 H 0.65039 0.3033 0.3036 0.0
H386 H 0.63345 0.32486 0.34726 0.0
H387 H 0.64384 0.35996 0.36153 0.0
H388 H 0.27836 0.5606 0.75799 0.0
H389 H 0.24707 0.5759 0.78151 0.0
H390 H 0.24775 0.62059 0.69614 0.0
H391 H 0.27897 0.60515 0.67182 0.0
H392 H 0.23699 0.61553 0.80434 0.0
H393 H 0.19233 0.59169 0.6841 0.0
H394 H 0.21775 0.58217 0.69314 0.0
H395 H 0.2143 0.6075 0.67523 0.0
C396 C 0.272 0.57377 0.74425 0.0
C397 C 0.28104 0.58145 0.71266 0.0
C398 C 0.25414 0.58254 0.75785 0.0
C399 C 0.24498 0.59914 0.74021 0.0
C400 C 0.25443 0.60752 0.70972 0.0
H401 H 0.13623 0.66123 0.82589 0.0
H402 H 0.17109 0.65433 0.80505 0.0
C403 C 0.27229 0.59871 0.69595 0.0
C404 C 0.22491 0.60675 0.7528 0.0
H405 H 0.17445 0.60919 0.72951 0.0
C406 C 0.22331 0.61433 0.78795 0.0
C407 C 0.20713 0.60488 0.73138 0.0
C408 C 0.20782 0.59597 0.69397 0.0
C409 C 0.20425 0.61981 0.80254 0.0
C410 C 0.18649 0.61788 0.78111 0.0
C411 C 0.18816 0.61069 0.74574 0.0
C412 C 0.16578 0.62208 0.79535 0.0
C413 C 0.20317 0.62684 0.84109 0.0
C414 C 0.15127 0.60625 0.79645 0.0
C415 C 0.13134 0.61013 0.80804 0.0
C416 C 0.12552 0.62996 0.81873 0.0
C417 C 0.14022 0.64575 0.81808 0.0
C418 C 0.16018 0.64185 0.80631 0.0
H419 H 0.21747 0.6233 0.85602 0.0
H420 H 0.20083 0.64367 0.84176 0.0
H421 H 0.19007 0.61952 0.8552 0.0
H422 H 0.15534 0.59089 0.78804 0.0
H423 H 0.12045 0.59759 0.80824 0.0
H424 H 0.89397 0.11452 0.30678 0.0
H425 H 0.90257 0.14933 0.28833 0.0
H426 H 0.84058 0.16862 0.30993 0.0
H427 H 0.83182 0.13387 0.32905 0.0
H428 H 0.88461 0.17029 0.23199 0.0
H429 H 0.87513 0.21238 0.3607 0.0
H430 H 0.87716 0.18481 0.35858 0.0
H431 H 0.85345 0.19722 0.34731 0.0
C432 C 0.88218 0.12617 0.30799 0.0
C433 C 0.86219 0.12139 0.3194 0.0
C434 C 0.88714 0.14605 0.29743 0.0
C435 C 0.87225 0.16152 0.2981 0.0
C436 C 0.85237 0.15694 0.30988 0.0
H437 H 0.8875 0.27496 0.17657 0.0
H438 H 0.87326 0.24339 0.20168 0.0
C439 C 0.84739 0.13705 0.32063 0.0
C440 C 0.87739 0.18213 0.28446 0.0
H441 H 0.88179 0.23233 0.30881 0.0
C442 C 0.88395 0.18388 0.24872 0.0
C443 C 0.87659 0.19973 0.30653 0.0
C444 C 0.87037 0.19852 0.34551 0.0
C445 C 0.88999 0.20279 0.23444 0.0
C446 C 0.889 0.22045 0.25636 0.0
C447 C 0.88229 0.21875 0.29205 0.0
C448 C 0.8962 0.24055 0.24331 0.0
C449 C 0.89802 0.20358 0.19642 0.0
C450 C 0.9133 0.24973 0.25935 0.0
C451 C 0.92141 0.2678 0.24528 0.0
C452 C 0.91253 0.277 0.21485 0.0
C453 C 0.89486 0.26816 0.19975 0.0
C454 C 0.88672 0.25011 0.21398 0.0
H455 H 0.90201 0.18811 0.18612 0.0
H456 H 0.88608 0.21013 0.1786 0.0
H457 H 0.91182 0.21349 0.19464 0.0
H458 H 0.92077 0.24257 0.28211 0.0
H459 H 0.93495 0.27423 0.25774 0.0
H460 H 0.35785 0.83443 0.83115 0.0
H461 H 0.32334 0.84461 0.81289 0.0
H462 H 0.34561 0.90485 0.78565 0.0
H463 H 0.38016 0.8949 0.80348 0.0
H464 H 0.29781 0.87822 0.83643 0.0
H465 H 0.31896 0.88281 0.69208 0.0
H466 H 0.33472 0.86996 0.72495 0.0
H467 H 0.33513 0.89743 0.72154 0.0
C468 C 0.35543 0.84989 0.82149 0.0
C469 C 0.37186 0.86378 0.81847 0.0
C470 C 0.33569 0.85567 0.81114 0.0
C471 C 0.33208 0.87535 0.79748 0.0
C472 C 0.34822 0.88947 0.79562 0.0
H473 H 0.22058 0.94145 0.75499 0.0
H474 H 0.25199 0.92755 0.78093 0.0
C475 C 0.36794 0.88375 0.80595 0.0
C476 C 0.31157 0.88098 0.78407 0.0
H477 H 0.28619 0.89555 0.70826 0.0
C478 C 0.29518 0.88192 0.8084 0.0
C479 C 0.30823 0.88546 0.7474 0.0
C480 C 0.32512 0.88371 0.71985 0.0
C481 C 0.27554 0.88783 0.79709 0.0
C482 C 0.27241 0.89309 0.76067 0.0
C483 C 0.2887 0.89162 0.73623 0.0
C484 C 0.25248 0.90056 0.7472 0.0
C485 C 0.2583 0.88826 0.8241 0.0
C486 C 0.24247 0.89006 0.71945 0.0
C487 C 0.22461 0.89802 0.70433 0.0
C488 C 0.21649 0.91674 0.71656 0.0
C489 C 0.22636 0.927 0.74494 0.0
C490 C 0.24425 0.91901 0.76 0.0
H491 H 0.2618 0.87866 0.84798 0.0
H492 H 0.25597 0.90424 0.8334 0.0
H493 H 0.24376 0.8828 0.81192 0.0
H494 H 0.24867 0.87584 0.70911 0.0
H495 H 0.2174 0.88967 0.68261 0.0
H496 H 0.55897 0.27753 0.72576 0.0
H497 H 0.57332 0.24623 0.70028 0.0
H498 H 0.62243 0.24795 0.77761 0.0
H499 H 0.60806 0.27913 0.80381 0.0
H500 H 0.61196 0.23502 0.67176 0.0
H501 H 0.59305 0.19334 0.79792 0.0
H502 H 0.58341 0.21866 0.78838 0.0
H503 H 0.60938 0.2153 0.80327 0.0
C504 C 0.57298 0.27145 0.73714 0.0
C505 C 0.58216 0.28066 0.76728 0.0
C506 C 0.58117 0.25358 0.72244 0.0
C507 C 0.59868 0.24464 0.73753 0.0
C508 C 0.60867 0.25447 0.76606 0.0
H509 H 0.65864 0.13436 0.65488 0.0
H510 H 0.65151 0.16977 0.67231 0.0
C511 C 0.60044 0.2723 0.78092 0.0
C512 C 0.60541 0.22422 0.72519 0.0
H513 H 0.60903 0.17439 0.75207 0.0
C514 C 0.61147 0.22174 0.68929 0.0
C515 C 0.60442 0.20696 0.74813 0.0
C516 C 0.59706 0.20856 0.78649 0.0
C517 C 0.61648 0.20234 0.67559 0.0
C518 C 0.6156 0.18514 0.69863 0.0
C519 C 0.60975 0.18767 0.73459 0.0
C520 C 0.61975 0.16413 0.68581 0.0
C521 C 0.62202 0.20029 0.63642 0.0
C522 C 0.60429 0.14926 0.68794 0.0
C523 C 0.60832 0.12902 0.67831 0.0
C524 C 0.62794 0.12323 0.66643 0.0
C525 C 0.64333 0.13829 0.66374 0.0
C526 C 0.63928 0.15856 0.67351 0.0
H527 H 0.61767 0.21412 0.62077 0.0
H528 H 0.63883 0.19817 0.6339 0.0
H529 H 0.61441 0.18671 0.62437 0.0
H530 H 0.58913 0.15329 0.69747 0.0
H531 H 0.59608 0.11788 0.68066 0.0
H532 H 0.38368 0.59454 0.18801 0.0
H533 H 0.34942 0.58313 0.20489 0.0
H534 H 0.32561 0.64352 0.18336 0.0
H535 H 0.35981 0.65514 0.16599 0.0
H536 H 0.32629 0.59965 0.26093 0.0
H537 H 0.28534 0.60533 0.13052 0.0
H538 H 0.31295 0.60511 0.13375 0.0
H539 H 0.2989 0.62808 0.14377 0.0
C540 C 0.37117 0.6054 0.18646 0.0
C541 C 0.37454 0.62579 0.17565 0.0
C542 C 0.35159 0.59882 0.19613 0.0
C543 C 0.335 0.61243 0.195 0.0
C544 C 0.33818 0.6327 0.18377 0.0
H545 H 0.22117 0.59827 0.31218 0.0
H546 H 0.25319 0.61093 0.28644 0.0
C547 C 0.35777 0.63932 0.17405 0.0
C548 C 0.31468 0.6057 0.20786 0.0
H549 H 0.265 0.59856 0.18216 0.0
C550 C 0.31289 0.59937 0.24372 0.0
C551 C 0.29733 0.60523 0.18517 0.0
C552 C 0.29866 0.61112 0.14606 0.0
C553 C 0.2941 0.59271 0.25769 0.0
C554 C 0.27663 0.59271 0.23527 0.0
C555 C 0.27844 0.59881 0.19928 0.0
C556 C 0.25646 0.58594 0.24875 0.0
C557 C 0.29316 0.58543 0.29615 0.0
C558 C 0.24744 0.56806 0.23516 0.0
C559 C 0.22912 0.56077 0.24972 0.0
C560 C 0.21948 0.57131 0.27805 0.0
C561 C 0.22824 0.58966 0.29063 0.0
C562 C 0.24656 0.59691 0.27604 0.0
H563 H 0.30864 0.58205 0.30706 0.0
H564 H 0.28614 0.59755 0.31303 0.0
H565 H 0.28356 0.57143 0.29849 0.0
H566 H 0.25488 0.55946 0.21396 0.0
H567 H 0.22275 0.54666 0.23923 0.0
H568 H 0.8942 0.37993 0.69772 0.0
H569 H 0.90334 0.34493 0.71413 0.0
H570 H 0.84369 0.32391 0.68063 0.0
H571 H 0.8344 0.35887 0.66361 0.0
H572 H 0.88354 0.32053 0.76474 0.0
H573 H 0.88309 0.28421 0.62973 0.0
H574 H 0.88376 0.31165 0.63592 0.0
H575 H 0.86013 0.29787 0.6414 0.0
C576 C 0.88303 0.36789 0.69353 0.0
C577 C 0.86356 0.37226 0.67925 0.0
C578 C 0.8883 0.34789 0.70296 0.0
C579 C 0.87427 0.33184 0.6982 0.0
C580 C 0.85487 0.33605 0.68386 0.0
H581 H 0.88641 0.21392 0.80609 0.0
H582 H 0.87292 0.24605 0.78213 0.0
C583 C 0.84956 0.35607 0.67434 0.0
C584 C 0.87976 0.3109 0.70985 0.0
H585 H 0.88783 0.26218 0.67967 0.0
C586 C 0.88444 0.30775 0.74619 0.0
C587 C 0.88104 0.29436 0.68545 0.0
C588 C 0.87692 0.29713 0.64587 0.0
C589 C 0.89049 0.28846 0.75885 0.0
C590 C 0.8915 0.27183 0.73457 0.0
C591 C 0.8868 0.27495 0.69821 0.0
C592 C 0.89847 0.25135 0.74627 0.0
C593 C 0.8963 0.28618 0.79789 0.0
C594 C 0.91687 0.24334 0.73289 0.0
C595 C 0.92461 0.22493 0.74635 0.0
C596 C 0.91403 0.21421 0.77343 0.0
C597 C 0.89508 0.22186 0.78553 0.0
C598 C 0.88735 0.24025 0.77198 0.0
H599 H 0.89904 0.30125 0.81092 0.0
H600 H 0.88365 0.27842 0.8125 0.0
H601 H 0.91031 0.27667 0.80079 0.0
H602 H 0.92561 0.25168 0.71289 0.0
H603 H 0.93917 0.21945 0.73623 0.0
H604 H 0.13904 0.84085 0.13876 0.0
H605 H 0.1743 0.84891 0.15621 0.0
H606 H 0.1519 0.89298 0.23309 0.0
H607 H 0.1168 0.88549 0.21531 0.0
H608 H 0.18266 0.90819 0.19303 0.0
H609 H 0.20405 0.83176 0.24706 0.0
H610 H 0.19521 0.83158 0.2014 0.0
H611 H 0.17792 0.83864 0.23687 0.0
C612 C 0.14164 0.85223 0.15943 0.0
C613 C 0.12511 0.86255 0.17561 0.0
C614 C 0.16178 0.8567 0.16952 0.0
C615 C 0.16567 0.87131 0.19631 0.0
C616 C 0.14921 0.88163 0.21239 0.0
H617 H 0.27037 0.89727 0.32718 0.0
H618 H 0.23905 0.88363 0.30017 0.0
C619 C 0.12915 0.87734 0.20212 0.0
C620 C 0.18684 0.87648 0.20716 0.0
H621 H 0.23012 0.85696 0.24557 0.0
C622 C 0.19308 0.89698 0.20439 0.0
C623 C 0.20028 0.86182 0.22227 0.0
C624 C 0.19402 0.83975 0.22744 0.0
C625 C 0.21226 0.90338 0.21695 0.0
C626 C 0.22584 0.8887 0.23163 0.0
C627 C 0.21973 0.86811 0.23395 0.0
C628 C 0.2459 0.89475 0.2467 0.0
C629 C 0.2174 0.92594 0.2157 0.0
C630 C 0.26042 0.90484 0.22528 0.0
C631 C 0.27814 0.91292 0.24072 0.0
C632 C 0.28182 0.91066 0.27772 0.0
C633 C 0.26791 0.89932 0.29863 0.0
C634 C 0.25004 0.8915 0.28324 0.0
H635 H 0.20348 0.93555 0.21235 0.0
H636 H 0.22541 0.93084 0.24055 0.0
H637 H 0.22765 0.92896 0.1925 0.0
H638 H 0.25776 0.90701 0.19682 0.0
H639 H 0.28876 0.92127 0.22379 0.0
H640 H 0.39854 0.61485 0.68419 0.0
H641 H 0.40649 0.65054 0.69794 0.0
H642 H 0.34787 0.66921 0.65585 0.0
H643 H 0.33973 0.63356 0.64161 0.0
H644 H 0.38236 0.69495 0.63559 0.0
H645 H 0.37704 0.68019 0.78226 0.0
H646 H 0.39405 0.66328 0.7586 0.0
H647 H 0.36706 0.66262 0.74916 0.0
C648 C 0.38736 0.62651 0.67757 0.0
C649 C 0.36839 0.62129 0.66215 0.0
C650 C 0.39193 0.64688 0.68551 0.0
C651 C 0.37762 0.66235 0.67834 0.0
C652 C 0.35904 0.65739 0.66167 0.0
H653 H 0.38546 0.77993 0.78505 0.0
H654 H 0.37172 0.7493 0.75625 0.0
C655 C 0.35443 0.63701 0.65367 0.0
C656 C 0.38172 0.68355 0.68987 0.0
H657 H 0.39053 0.71239 0.76448 0.0
C658 C 0.38402 0.69888 0.66374 0.0
C659 C 0.38348 0.68856 0.72664 0.0
C660 C 0.3801 0.67286 0.75586 0.0
C661 C 0.38879 0.7191 0.6735 0.0
C662 C 0.39148 0.72388 0.71022 0.0
C663 C 0.38852 0.70865 0.73632 0.0
C664 C 0.39826 0.74428 0.72255 0.0
C665 C 0.39087 0.73513 0.64454 0.0
C666 C 0.41754 0.75185 0.71246 0.0
C667 C 0.42545 0.7694 0.72881 0.0
C668 C 0.4143 0.77949 0.75586 0.0
C669 C 0.39454 0.77242 0.76456 0.0
C670 C 0.38662 0.75496 0.74808 0.0
H671 H 0.38254 0.73062 0.61975 0.0
H672 H 0.38498 0.75019 0.6538 0.0
H673 H 0.4073 0.73696 0.63756 0.0
H674 H 0.42694 0.7436 0.69334 0.0
H675 H 0.44072 0.77441 0.7215 0.0
H676 H 0.71009 0.38412 0.2989 0.0
H677 H 0.7413 0.36947 0.27325 0.0
H678 H 0.7458 0.42034 0.19971 0.0
H679 H 0.7145 0.43499 0.22463 0.0
H680 H 0.75669 0.38199 0.16918 0.0
H681 H 0.7961 0.39725 0.29895 0.0
H682 H 0.77367 0.38136 0.30184 0.0
H683 H 0.77123 0.4077 0.28846 0.0
C684 C 0.71752 0.39206 0.2769 0.0
C685 C 0.70997 0.41093 0.26425 0.0
C686 C 0.73537 0.38368 0.26236 0.0
C687 C 0.746 0.39407 0.23516 0.0
C688 C 0.73782 0.41217 0.22086 0.0
H689 H 0.87399 0.39475 0.18603 0.0
H690 H 0.83844 0.40232 0.20126 0.0
C691 C 0.71995 0.42053 0.23524 0.0
C692 C 0.76651 0.38715 0.22362 0.0
H693 H 0.81567 0.38191 0.25322 0.0
C694 C 0.7696 0.38181 0.18752 0.0
C695 C 0.7833 0.38729 0.24762 0.0
C696 C 0.78105 0.39386 0.28631 0.0
C697 C 0.78917 0.37669 0.17468 0.0
C698 C 0.8059 0.37671 0.19878 0.0
C699 C 0.80274 0.38185 0.23492 0.0
C700 C 0.82705 0.37226 0.18701 0.0
C701 C 0.79191 0.37193 0.13532 0.0
C702 C 0.83234 0.35286 0.17384 0.0
C703 C 0.85268 0.34846 0.16498 0.0
C704 C 0.86807 0.36337 0.16947 0.0
C705 C 0.86258 0.38288 0.18228 0.0
C706 C 0.84227 0.38726 0.191 0.0
H707 H 0.77855 0.377 0.11913 0.0
H708 H 0.80593 0.37942 0.12463 0.0
H709 H 0.79364 0.35514 0.13185 0.0
H710 H 0.82085 0.34097 0.17122 0.0
H711 H 0.85637 0.33324 0.15536 0.0
H712 H 0.10633 0.88059 0.72087 0.0
H713 H 0.09721 0.84565 0.73778 0.0
H714 H 0.14004 0.82201 0.65981 0.0
H715 H 0.14976 0.85701 0.64345 0.0
H716 H 0.08043 0.81592 0.69803 0.0
H717 H 0.15634 0.7906 0.74856 0.0
H718 H 0.15065 0.81708 0.73891 0.0
H719 H 0.15669 0.79964 0.70303 0.0
C720 C 0.11388 0.86797 0.70738 0.0
C721 C 0.12883 0.87155 0.68091 0.0
C722 C 0.10865 0.84801 0.71708 0.0
C723 C 0.11814 0.83125 0.70039 0.0
C724 C 0.13289 0.83473 0.67364 0.0
H725 H 0.06465 0.7088 0.72634 0.0
H726 H 0.07773 0.74048 0.69961 0.0
C727 C 0.13835 0.85473 0.66421 0.0
C728 C 0.11211 0.81019 0.71066 0.0
H729 H 0.13026 0.76547 0.74584 0.0
C730 C 0.09132 0.80485 0.70842 0.0
C731 C 0.12635 0.79589 0.72445 0.0
C732 C 0.14872 0.8011 0.72924 0.0
C733 C 0.08427 0.78572 0.72026 0.0
C734 C 0.09855 0.7713 0.73362 0.0
C735 C 0.1194 0.7765 0.73526 0.0
C736 C 0.09197 0.75134 0.74853 0.0
C737 C 0.06152 0.78152 0.71973 0.0
C738 C 0.09644 0.74654 0.7844 0.0
C739 C 0.08933 0.72833 0.79954 0.0
C740 C 0.07747 0.71463 0.77915 0.0
C741 C 0.07351 0.71919 0.74288 0.0
C742 C 0.08088 0.73731 0.72761 0.0
H743 H 0.05245 0.79587 0.71743 0.0
H744 H 0.0578 0.77177 0.69621 0.0
H745 H 0.05661 0.77331 0.74441 0.0
H746 H 0.10504 0.75714 0.80097 0.0
H747 H 0.09267 0.72529 0.82754 0.0
H748 H 0.61153 0.10104 0.1953 0.0
H749 H 0.64626 0.09238 0.21397 0.0
H750 H 0.66726 0.15223 0.18143 0.0
H751 H 0.63253 0.16111 0.16225 0.0
H752 H 0.69294 0.11891 0.15937 0.0
H753 H 0.67394 0.11631 0.30462 0.0
H754 H 0.65747 0.10085 0.27707 0.0
H755 H 0.65743 0.12823 0.2718 0.0
C756 C 0.62348 0.1124 0.19198 0.0
C757 C 0.61918 0.13184 0.17748 0.0
C758 C 0.64331 0.10743 0.20281 0.0
C759 C 0.65916 0.12179 0.19954 0.0
C760 C 0.65513 0.14101 0.1843 0.0
H761 H 0.77489 0.10522 0.31113 0.0
H762 H 0.74395 0.12035 0.28567 0.0
C763 C 0.63527 0.14604 0.17344 0.0
C764 C 0.67991 0.11669 0.21239 0.0
H765 H 0.70619 0.10242 0.28737 0.0
C766 C 0.69595 0.11547 0.18738 0.0
C767 C 0.68375 0.11256 0.24902 0.0
C768 C 0.6673 0.11473 0.27729 0.0
C769 C 0.71568 0.10944 0.19794 0.0
C770 C 0.71924 0.10428 0.23429 0.0
C771 C 0.70335 0.10623 0.25945 0.0
C772 C 0.73911 0.09617 0.24687 0.0
C773 C 0.7325 0.10867 0.17016 0.0
C774 C 0.74667 0.07761 0.23328 0.0
C775 C 0.76438 0.0689 0.24771 0.0
C776 C 0.7747 0.0785 0.27628 0.0
C777 C 0.76728 0.09734 0.28928 0.0
C778 C 0.74963 0.10606 0.27473 0.0
H779 H 0.72898 0.11864 0.14676 0.0
H780 H 0.74741 0.11346 0.18177 0.0
H781 H 0.73407 0.09272 0.16021 0.0
H782 H 0.73851 0.06951 0.21231 0.0
H783 H 0.76962 0.05436 0.23713 0.0
H784 H 0.39958 0.87814 0.30842 0.0
H785 H 0.40819 0.84267 0.29421 0.0
H786 H 0.34919 0.82291 0.33321 0.0
H787 H 0.34039 0.85833 0.34793 0.0
H788 H 0.38324 0.79756 0.35481 0.0
H789 H 0.38121 0.81284 0.20805 0.0
H790 H 0.39764 0.8297 0.23306 0.0
H791 H 0.37044 0.83026 0.24063 0.0
C792 C 0.38845 0.86629 0.31426 0.0
C793 C 0.3692 0.87115 0.32901 0.0
C794 C 0.39339 0.84603 0.30601 0.0
C795 C 0.37919 0.83031 0.3122 0.0
C796 C 0.36029 0.83491 0.32813 0.0
H797 H 0.38755 0.71265 0.20585 0.0
H798 H 0.37422 0.74378 0.2336 0.0
C799 C 0.3553 0.85518 0.33642 0.0
C800 C 0.38377 0.80917 0.30066 0.0
H801 H 0.39406 0.78051 0.22634 0.0
C802 C 0.38551 0.79374 0.32674 0.0
C803 C 0.38636 0.80427 0.26398 0.0
C804 C 0.38364 0.82007 0.23472 0.0
C805 C 0.3904 0.77353 0.31707 0.0
C806 C 0.39379 0.76883 0.28048 0.0
C807 C 0.39151 0.78419 0.25441 0.0
C808 C 0.40038 0.74831 0.26834 0.0
C809 C 0.39178 0.75739 0.34597 0.0
C810 C 0.41932 0.74032 0.27932 0.0
C811 C 0.427 0.72248 0.26357 0.0
C812 C 0.41596 0.71248 0.23625 0.0
C813 C 0.39653 0.72003 0.2266 0.0
C814 C 0.38886 0.7378 0.24246 0.0
H815 H 0.38321 0.76196 0.37049 0.0
H816 H 0.38573 0.74247 0.33633 0.0
H817 H 0.40808 0.75523 0.35354 0.0
H818 H 0.42863 0.74841 0.29876 0.0
H819 H 0.44201 0.71712 0.27161 0.0
H820 H 0.63449 0.33731 0.84123 0.0
H821 H 0.66948 0.34756 0.82617 0.0
H822 H 0.64838 0.40854 0.80127 0.0
H823 H 0.61336 0.39849 0.81579 0.0
H824 H 0.67111 0.39025 0.74682 0.0
H825 H 0.71096 0.38473 0.87834 0.0
H826 H 0.69654 0.36241 0.86564 0.0
H827 H 0.6834 0.38605 0.87449 0.0
C828 C 0.6373 0.353 0.83305 0.0
C829 C 0.62107 0.36705 0.82955 0.0
C830 C 0.65734 0.35883 0.82467 0.0
C831 C 0.66147 0.37883 0.81297 0.0
C832 C 0.64544 0.39304 0.8104 0.0
H833 H 0.7742 0.44213 0.76677 0.0
H834 H 0.74264 0.42913 0.79378 0.0
C835 C 0.62544 0.38724 0.81867 0.0
C836 C 0.68214 0.38455 0.80039 0.0
H837 H 0.73185 0.39031 0.82693 0.0
C838 C 0.6844 0.39028 0.76431 0.0
C839 C 0.69934 0.38465 0.82344 0.0
C840 C 0.69751 0.3793 0.86273 0.0
C841 C 0.70348 0.39612 0.75053 0.0
C842 C 0.72077 0.39585 0.77335 0.0
C843 C 0.71854 0.39024 0.80951 0.0
C844 C 0.74111 0.40217 0.76014 0.0
C845 C 0.70489 0.40294 0.71184 0.0
C846 C 0.75094 0.39091 0.73312 0.0
C847 C 0.76891 0.3983 0.71748 0.0
C848 C 0.77737 0.41707 0.72873 0.0
C849 C 0.76803 0.42771 0.75725 0.0
C850 C 0.75004 0.4203 0.77282 0.0
H851 H 0.68958 0.40649 0.70035 0.0
H852 H 0.71476 0.41673 0.70927 0.0
H853 H 0.71183 0.3905 0.69558 0.0
H854 H 0.74436 0.37671 0.72341 0.0
H855 H 0.7758 0.38958 0.69588 0.0
H856 H 0.05844 0.7693 0.24779 0.0
H857 H 0.07357 0.73773 0.27055 0.0
H858 H 0.12337 0.7436 0.19504 0.0
H859 H 0.1082 0.77509 0.17154 0.0
H860 H 0.10582 0.70564 0.19399 0.0
H861 H 0.1234 0.72829 0.33392 0.0
H862 H 0.09729 0.73342 0.32183 0.0
H863 H 0.1177 0.74676 0.2992 0.0
C864 C 0.07273 0.76405 0.23621 0.0
C865 C 0.08207 0.77474 0.20775 0.0
C866 C 0.08143 0.74606 0.24948 0.0
C867 C 0.09975 0.73853 0.23484 0.0
C868 C 0.10929 0.74927 0.20681 0.0
H869 H 0.16153 0.63136 0.32519 0.0
H870 H 0.15421 0.66593 0.30334 0.0
C871 C 0.10057 0.76725 0.19343 0.0
C872 C 0.10804 0.71864 0.24703 0.0
H873 H 0.12252 0.69215 0.32182 0.0
C874 C 0.10973 0.70274 0.22185 0.0
C875 C 0.11338 0.71501 0.28328 0.0
C876 C 0.11307 0.73184 0.31105 0.0
C877 C 0.11581 0.68303 0.23225 0.0
C878 C 0.11991 0.67909 0.26889 0.0
C879 C 0.11909 0.69519 0.29381 0.0
C880 C 0.12436 0.65821 0.28204 0.0
C881 C 0.11771 0.6666 0.20392 0.0
C882 C 0.10983 0.64257 0.27779 0.0
C883 C 0.11394 0.62282 0.29012 0.0
C884 C 0.13262 0.61837 0.30728 0.0
C885 C 0.14701 0.63422 0.31206 0.0
C886 C 0.14288 0.65398 0.2996 0.0
H887 H 0.12008 0.6733 0.1768 0.0
H888 H 0.13063 0.65607 0.20991 0.0
H889 H 0.10337 0.65747 0.2032 0.0
H890 H 0.09524 0.64567 0.26504 0.0
H891 H 0.10244 0.61107 0.28619 0.0
H892 H 0.88125 0.10326 0.76764 0.0
H893 H 0.84665 0.09457 0.74819 0.0
H894 H 0.82159 0.13658 0.82613 0.0
H895 H 0.85624 0.14585 0.84513 0.0
H896 H 0.81586 0.07759 0.78528 0.0
H897 H 0.79238 0.15427 0.73571 0.0
H898 H 0.81859 0.14816 0.74675 0.0
H899 H 0.80054 0.15419 0.78173 0.0
C900 C 0.8684 0.11069 0.78066 0.0
C901 C 0.87149 0.12531 0.80786 0.0
C902 C 0.84863 0.10572 0.76946 0.0
C903 C 0.83158 0.11516 0.78533 0.0
C904 C 0.83456 0.1295 0.8129 0.0
H905 H 0.70886 0.06432 0.7607 0.0
H906 H 0.7411 0.07706 0.78543 0.0
C907 C 0.85437 0.13468 0.82387 0.0
C908 C 0.81072 0.10948 0.77346 0.0
H909 H 0.76657 0.12866 0.73771 0.0
C910 C 0.80507 0.08875 0.77487 0.0
C911 C 0.79679 0.12406 0.75952 0.0
C912 C 0.80241 0.14638 0.75546 0.0
C913 C 0.78591 0.08214 0.76254 0.0
C914 C 0.77177 0.09678 0.74948 0.0
C915 C 0.77738 0.11753 0.74813 0.0
C916 C 0.75144 0.0907 0.7356 0.0
C917 C 0.78129 0.05946 0.76256 0.0
C918 C 0.74613 0.09505 0.69989 0.0
C919 C 0.72757 0.08809 0.68582 0.0
C920 C 0.71406 0.07655 0.70721 0.0
C921 C 0.71909 0.0729 0.74338 0.0
C922 C 0.73754 0.08008 0.75752 0.0
H923 H 0.79551 0.05013 0.76411 0.0
H924 H 0.77175 0.05568 0.78633 0.0
H925 H 0.77273 0.05493 0.73805 0.0
H926 H 0.75662 0.10333 0.6826 0.0
H927 H 0.72414 0.09119 0.65788 0.0
H928 H 0.57149 0.14985 0.02333 0.0
H929 H 0.58272 0.1335 0.96771 0.0
H930 H 0.56891 0.0741 0.01246 0.0
H931 H 0.55722 0.09025 0.06784 0.0
H932 H 0.61498 0.10638 0.96288 0.0
H933 H 0.54302 0.07065 0.91349 0.0
H934 H 0.54323 0.09008 0.94796 0.0
H935 H 0.54971 0.06404 0.95881 0.0
C936 C 0.57044 0.13334 0.02112 0.0
C937 C 0.56348 0.12138 0.0501 0.0
C938 C 0.57695 0.12402 0.98938 0.0
C939 C 0.57661 0.10261 0.98601 0.0
C940 C 0.569 0.09066 0.01432 0.0
H941 H 0.64681 0.04088 0.81406 0.0
H942 H 0.635 0.05073 0.87436 0.0
C943 C 0.56234 0.09996 0.046 0.0
C944 C 0.58534 0.09284 0.95365 0.0
H945 H 0.57341 0.06273 0.88185 0.0
C946 C 0.60594 0.09677 0.94516 0.0
C947 C 0.57347 0.08029 0.9308 0.0
C948 C 0.55109 0.07611 0.93796 0.0
C949 C 0.61488 0.08892 0.91379 0.0
C950 C 0.60295 0.07652 0.89079 0.0
C951 C 0.58253 0.07211 0.89982 0.0
C952 C 0.61044 0.07012 0.85508 0.0
C953 C 0.63667 0.09469 0.90472 0.0
C954 C 0.60042 0.07761 0.82458 0.0
C955 C 0.60697 0.07197 0.79049 0.0
C956 C 0.62374 0.05866 0.786 0.0
C957 C 0.63391 0.05121 0.81663 0.0
C958 C 0.62722 0.05684 0.85102 0.0
H959 H 0.64254 0.10717 0.9222 0.0
H960 H 0.6467 0.08111 0.90828 0.0
H961 H 0.63786 0.09969 0.87628 0.0
H962 H 0.58753 0.08797 0.82717 0.0
H963 H 0.59881 0.07818 0.76761 0.0
H964 H 0.40991 0.55337 0.56854 0.0
H965 H 0.42624 0.56275 0.51187 0.0
H966 H 0.36692 0.56858 0.46201 0.0
H967 H 0.35035 0.55962 0.51874 0.0
H968 H 0.42563 0.54903 0.44084 0.0
H969 H 0.39126 0.62638 0.45467 0.0
H970 H 0.39097 0.6078 0.49056 0.0
H971 H 0.37269 0.60609 0.45453 0.0
C972 C 0.4003 0.55621 0.54537 0.0
C973 C 0.37879 0.55616 0.54837 0.0
C974 C 0.40969 0.5616 0.51302 0.0
C975 C 0.39774 0.56691 0.48318 0.0
C976 C 0.37636 0.56505 0.48512 0.0
H977 H 0.43049 0.59032 0.26495 0.0
H978 H 0.42114 0.57546 0.3225 0.0
C979 C 0.36694 0.55982 0.5175 0.0
C980 C 0.4075 0.57596 0.45108 0.0
H981 H 0.40798 0.61914 0.39946 0.0
C982 C 0.42188 0.56438 0.43181 0.0
C983 C 0.40299 0.59622 0.44006 0.0
C984 C 0.3888 0.60995 0.46121 0.0
C985 C 0.4313 0.57228 0.40086 0.0
C986 C 0.42585 0.59209 0.38867 0.0
C987 C 0.41203 0.6039 0.40872 0.0
C988 C 0.43327 0.60048 0.35413 0.0
C989 C 0.44705 0.55938 0.38167 0.0
C990 C 0.44286 0.61973 0.35272 0.0
C991 C 0.44801 0.62851 0.31965 0.0
C992 C 0.44357 0.61816 0.28746 0.0
C993 C 0.43428 0.59871 0.28915 0.0
C994 C 0.42906 0.59005 0.32211 0.0
H995 H 0.45438 0.54825 0.40024 0.0
H996 H 0.43942 0.55052 0.36006 0.0
H997 H 0.45918 0.56903 0.36934 0.0
H998 H 0.44607 0.62811 0.3772 0.0
H999 H 0.45515 0.64349 0.31933 0.0
H1000 H 0.92664 0.34944 0.02173 0.0
H1001 H 0.91687 0.36676 0.96617 0.0
H1002 H 0.92252 0.42537 0.01882 0.0
H1003 H 0.93284 0.4083 0.07412 0.0
H1004 H 0.8823 0.38966 0.96102 0.0
H1005 H 0.95004 0.43653 0.92353 0.0
H1006 H 0.95139 0.416 0.95594 0.0
H1007 H 0.94127 0.44057 0.96868 0.0
C1008 C 0.92632 0.36604 0.02125 0.0
C1009 C 0.9304 0.37748 0.0524 0.0
C1010 C 0.92067 0.3759 0.98953 0.0
C1011 C 0.91899 0.39733 0.98843 0.0
C1012 C 0.92406 0.40885 0.01891 0.0
H1013 H 0.84301 0.45448 0.82046 0.0
H1014 H 0.85629 0.44552 0.8801 0.0
C1015 C 0.92992 0.39902 0.05056 0.0
C1016 C 0.91005 0.40736 0.95655 0.0
H1017 H 0.91943 0.44257 0.89089 0.0
C1018 C 0.8904 0.40123 0.94563 0.0
C1019 C 0.92065 0.42253 0.9368 0.0
C1020 C 0.94208 0.42919 0.94659 0.0
C1021 C 0.88124 0.40943 0.91482 0.0
C1022 C 0.89185 0.42458 0.89501 0.0
C1023 C 0.91128 0.43111 0.90647 0.0
C1024 C 0.88425 0.43186 0.85993 0.0
C1025 C 0.86074 0.40114 0.9029 0.0
C1026 C 0.8959 0.42778 0.8292 0.0
C1027 C 0.88854 0.43302 0.79543 0.0
C1028 C 0.86927 0.44243 0.79155 0.0
C1029 C 0.85781 0.44709 0.82251 0.0
C1030 C 0.86533 0.44192 0.85654 0.0
H1031 H 0.85663 0.38675 0.91717 0.0
H1032 H 0.84867 0.41265 0.90863 0.0
H1033 H 0.86073 0.39808 0.87356 0.0
H1034 H 0.91053 0.42001 0.83126 0.0
H1035 H 0.89787 0.42922 0.7723 0.0
H1036 H 0.04484 0.83606 0.3162 0.0
H1037 H 0.05184 0.84794 0.37764 0.0
H1038 H 0.07775 0.90378 0.33537 0.0
H1039 H 0.07072 0.89241 0.27473 0.0
H1040 H 0.08905 0.85795 0.40789 0.0
H1041 H 0.03805 0.92542 0.41006 0.0
H1042 H 0.03576 0.90542 0.37677 0.0
H1043 H 0.05425 0.92569 0.37115 0.0
C1044 C 0.05192 0.85091 0.3201 0.0
C1045 C 0.05704 0.86334 0.29054 0.0
C1046 C 0.05584 0.85768 0.35513 0.0
C1047 C 0.0648 0.87697 0.36095 0.0
C1048 C 0.07021 0.88915 0.3315 0.0
H1049 H 0.14379 0.92213 0.52338 0.0
H1050 H 0.12686 0.90909 0.4696 0.0
C1051 C 0.06629 0.8825 0.29676 0.0
C1052 C 0.06991 0.88415 0.39745 0.0
H1053 H 0.06676 0.92632 0.4513 0.0
C1054 C 0.08389 0.87271 0.41777 0.0
C1055 C 0.06289 0.90326 0.41052 0.0
C1056 C 0.04673 0.91554 0.39112 0.0
C1057 C 0.09206 0.88049 0.44977 0.0
C1058 C 0.08643 0.90041 0.4611 0.0
C1059 C 0.07142 0.91126 0.44205 0.0
C1060 C 0.09632 0.91037 0.49219 0.0
C1061 C 0.10684 0.8674 0.47086 0.0
C1062 C 0.08458 0.9167 0.5217 0.0
C1063 C 0.09417 0.9245 0.55229 0.0
C1064 C 0.11567 0.92601 0.55384 0.0
C1065 C 0.12724 0.92092 0.52325 0.0
C1066 C 0.11762 0.91328 0.49262 0.0
H1067 H 0.10461 0.85085 0.46504 0.0
H1068 H 0.12276 0.87148 0.46318 0.0
H1069 H 0.10506 0.86988 0.5002 0.0
H1070 H 0.06809 0.91485 0.52162 0.0
H1071 H 0.08478 0.92832 0.57533 0.0
H1072 H 0.57285 0.34213 0.96923 0.0
H1073 H 0.58022 0.35784 0.02712 0.0
H1074 H 0.54917 0.41299 0.99381 0.0
H1075 H 0.54208 0.39757 0.93537 0.0
H1076 H 0.58734 0.42077 0.01751 0.0
H1077 H 0.54737 0.37122 0.11576 0.0
H1078 H 0.56342 0.35674 0.08602 0.0
H1079 H 0.54175 0.3705 0.0683 0.0
C1080 C 0.56711 0.35741 0.97443 0.0
C1081 C 0.557 0.36864 0.94747 0.0
C1082 C 0.57128 0.36635 0.00769 0.0
C1083 C 0.56514 0.38655 0.01486 0.0
C1084 C 0.55404 0.39738 0.98879 0.0
H1085 H 0.58579 0.44189 0.22412 0.0
H1086 H 0.57031 0.42993 0.16838 0.0
C1087 C 0.54997 0.38851 0.95543 0.0
C1088 C 0.57223 0.39702 0.04787 0.0
H1089 H 0.57435 0.39246 0.13903 0.0
C1090 C 0.58427 0.41474 0.04414 0.0
C1091 C 0.56809 0.38924 0.08256 0.0
C1092 C 0.55427 0.371 0.08847 0.0
C1093 C 0.59282 0.42454 0.07411 0.0
C1094 C 0.58959 0.4161 0.10862 0.0
C1095 C 0.57702 0.39877 0.11247 0.0
C1096 C 0.59917 0.42489 0.1412 0.0
C1097 C 0.60511 0.44387 0.06849 0.0
C1098 C 0.62058 0.42622 0.14429 0.0
C1099 C 0.62954 0.43324 0.17611 0.0
C1100 C 0.61721 0.43873 0.20555 0.0
C1101 C 0.59576 0.43769 0.20205 0.0
C1102 C 0.58686 0.43085 0.17021 0.0
H1103 H 0.60102 0.45153 0.04281 0.0
H1104 H 0.60271 0.45488 0.09084 0.0
H1105 H 0.62163 0.43995 0.06737 0.0
H1106 H 0.63039 0.42128 0.12249 0.0
H1107 H 0.64609 0.43368 0.17805 0.0
H1108 H 0.08632 0.56192 0.41832 0.0
H1109 H 0.06949 0.57372 0.47321 0.0
H1110 H 0.1284 0.58169 0.52369 0.0
H1111 H 0.14543 0.57026 0.46888 0.0
H1112 H 0.0702 0.56034 0.54376 0.0
H1113 H 0.10249 0.63857 0.53183 0.0
H1114 H 0.10342 0.62023 0.49558 0.0
H1115 H 0.12186 0.61906 0.53144 0.0
C1116 C 0.09572 0.56595 0.44121 0.0
C1117 C 0.11725 0.56541 0.43902 0.0
C1118 C 0.08606 0.57274 0.47249 0.0
C1119 C 0.09775 0.57909 0.50203 0.0
C1120 C 0.11915 0.5774 0.50073 0.0
H1121 H 0.07223 0.59453 0.72212 0.0
H1122 H 0.07985 0.58316 0.66154 0.0
C1123 C 0.12884 0.57072 0.46947 0.0
C1124 C 0.08767 0.58781 0.53409 0.0
H1125 H 0.0878 0.62973 0.58877 0.0
C1126 C 0.07384 0.5756 0.55342 0.0
C1127 C 0.09203 0.60793 0.54605 0.0
C1128 C 0.10559 0.6223 0.52494 0.0
C1129 C 0.06515 0.58256 0.58563 0.0
C1130 C 0.07079 0.60205 0.59901 0.0
C1131 C 0.08369 0.61471 0.57862 0.0
C1132 C 0.06504 0.60882 0.63551 0.0
C1133 C 0.05023 0.56887 0.60523 0.0
C1134 C 0.05466 0.6274 0.64103 0.0
C1135 C 0.05041 0.63416 0.67592 0.0
C1136 C 0.05661 0.62247 0.70575 0.0
C1137 C 0.06706 0.6039 0.69989 0.0
C1138 C 0.0713 0.59723 0.66519 0.0
H1139 H 0.04236 0.55825 0.58643 0.0
H1140 H 0.05871 0.55943 0.62507 0.0
H1141 H 0.03849 0.57796 0.61979 0.0
H1142 H 0.04993 0.63667 0.61836 0.0
H1143 H 0.04238 0.64853 0.67947 0.0
H1144 H 0.92796 0.0834 0.91696 0.0
H1145 H 0.91586 0.06734 0.97239 0.0
H1146 H 0.91155 0.12672 0.02259 0.0
H1147 H 0.92324 0.14299 0.96719 0.0
H1148 H 0.92913 0.06701 0.04253 0.0
H1149 H 0.85329 0.10459 0.03162 0.0
H1150 H 0.87162 0.1045 0.99529 0.0
H1151 H 0.8741 0.12258 0.03152 0.0
C1152 C 0.92474 0.09305 0.93994 0.0
C1153 C 0.92629 0.11453 0.93745 0.0
C1154 C 0.91776 0.08383 0.97154 0.0
C1155 C 0.91225 0.09591 0.00115 0.0
C1156 C 0.91514 0.11719 -0.00039 0.0
H1157 H 0.89425 0.06761 0.22091 0.0
H1158 H 0.90644 0.07598 0.16112 0.0
C1159 C 0.92199 0.12644 0.96801 0.0
C1160 C 0.90295 0.08638 0.03333 0.0
H1161 H 0.86097 0.08868 0.08789 0.0
C1162 C 0.91415 0.07159 0.0523 0.0
C1163 C 0.88316 0.09196 0.04544 0.0
C1164 C 0.86974 0.10661 0.0247 0.0
C1165 C 0.90652 0.063 0.08416 0.0
C1166 C 0.88738 0.06971 0.09764 0.0
C1167 C 0.87573 0.08371 0.0777 0.0
C1168 C 0.87994 0.06369 0.13368 0.0
C1169 C 0.91909 0.04691 0.10316 0.0
C1170 C 0.86062 0.05454 0.13826 0.0
C1171 C 0.85339 0.04988 0.17275 0.0
C1172 C 0.86536 0.05441 0.20314 0.0
C1173 C 0.88464 0.06369 0.19823 0.0
C1174 C 0.89177 0.06837 0.16395 0.0
H1175 H 0.92924 0.03863 0.0841 0.0
H1176 H 0.92898 0.05443 0.12348 0.0
H1177 H 0.90916 0.03557 0.11707 0.0
H1178 H 0.85116 0.05104 0.11518 0.0
H1179 H 0.83847 0.04278 0.17556 0.0
H1180 H 0.45385 0.84898 0.67403 0.0
H1181 H 0.44513 0.86453 0.61615 0.0
H1182 H 0.41775 0.91589 0.671 0.0
H1183 H 0.42669 0.90086 0.72859 0.0
H1184 H 0.40707 0.8726 0.59243 0.0
H1185 H 0.45161 0.94471 0.59559 0.0
H1186 H 0.45651 0.92376 0.62609 0.0
H1187 H 0.43612 0.94162 0.63502 0.0
C1188 C 0.44621 0.86371 0.67375 0.0
C1189 C 0.44101 0.87366 0.70598 0.0
C1190 C 0.44129 0.87259 0.64069 0.0
C1191 C 0.43115 0.89154 0.63933 0.0
C1192 C 0.4261 0.90156 0.6714 0.0
H1193 H 0.34959 0.93181 0.473 0.0
H1194 H 0.36577 0.92287 0.53002 0.0
C1195 C 0.43109 0.8928 0.70436 0.0
C1196 C 0.42407 0.90001 0.60468 0.0
H1197 H 0.4236 0.94348 0.55357 0.0
C1198 C 0.41088 0.88801 0.58372 0.0
C1199 C 0.42922 0.92005 0.59323 0.0
C1200 C 0.44432 0.9332 0.61349 0.0
C1201 C 0.40214 0.89572 0.55218 0.0
C1202 C 0.40632 0.91617 0.54188 0.0
C1203 C 0.4201 0.92796 0.56205 0.0
C1204 C 0.39675 0.92525 0.5097 0.0
C1205 C 0.38859 0.88183 0.53009 0.0
C1206 C 0.40889 0.93094 0.48028 0.0
C1207 C 0.39972 0.93631 0.44776 0.0
C1208 C 0.37825 0.93595 0.44421 0.0
C1209 C 0.36616 0.93192 0.47469 0.0
C1210 C 0.37536 0.92671 0.50723 0.0
H1211 H 0.39133 0.86541 0.53636 0.0
H1212 H 0.3723 0.88526 0.53614 0.0
H1213 H 0.39115 0.88427 0.50091 0.0
H1214 H 0.42545 0.93008 0.48187 0.0
H1215 H 0.40949 0.93943 0.42487 0.0
H1216 H 0.41321 0.83645 0.96183 0.0
H1217 H 0.40293 0.85101 0.0194 0.0
H1218 H 0.43667 0.90618 0.9954 0.0
H1219 H 0.44668 0.89199 0.93727 0.0
H1220 H 0.42278 0.86606 0.07808 0.0
H1221 H 0.37864 0.92747 0.00996 0.0
H1222 H 0.3891 0.90579 0.98615 0.0
H1223 H 0.40528 0.92705 -0.00199 0.0
C1224 C 0.41876 0.85156 0.96895 0.0
C1225 C 0.43048 0.8632 0.94463 0.0
C1226 C 0.41281 0.85986 0.00186 0.0
C1227 C 0.41855 0.87988 0.0111 0.0
C1228 C 0.43158 0.89093 0.98822 0.0
H1229 H 0.40434 0.93538 0.21948 0.0
H1230 H 0.41677 0.92118 0.16305 0.0
C1231 C 0.43742 0.88271 0.95515 0.0
C1232 C 0.41012 0.88946 0.04391 0.0
H1233 H 0.38132 0.92976 0.07342 0.0
C1234 C 0.41371 0.87997 0.0771 0.0
C1235 C 0.39786 0.90734 0.04236 0.0
C1236 C 0.39228 0.91741 0.00719 0.0
C1237 C 0.40572 0.88814 0.10898 0.0
C1238 C 0.39428 0.90654 0.10759 0.0
C1239 C 0.39031 0.91579 0.07435 0.0
C1240 C 0.38659 0.91655 0.14052 0.0
C1241 C 0.40935 0.8768 0.14375 0.0
C1242 C 0.3655 0.91964 0.14572 0.0
C1243 C 0.35828 0.92805 0.1779 0.0
C1244 C 0.37211 0.93339 0.20527 0.0
C1245 C 0.39326 0.9311 0.19916 0.0
C1246 C 0.40042 0.92289 0.16701 0.0
H1247 H 0.413 0.86039 0.13898 0.0
H1248 H 0.42256 0.88379 0.15794 0.0
H1249 H 0.39575 0.87771 0.16163 0.0
H1250 H 0.35461 0.91502 0.12532 0.0
H1251 H 0.34192 0.92964 0.18185 0.0
H1252 H 0.65066 0.42124 0.46612 0.0
H1253 H 0.63566 0.41238 0.52396 0.0
H1254 H 0.57925 0.44205 0.49353 0.0
H1255 H 0.59392 0.45049 0.43489 0.0
H1256 H 0.619 0.43261 0.57963 0.0
H1257 H 0.56013 0.38416 0.51341 0.0
H1258 H 0.58144 0.39509 0.48924 0.0
H1259 H 0.5595 0.41058 0.50003 0.0
C1260 C 0.63516 0.42621 0.47179 0.0
C1261 C 0.62338 0.43627 0.44551 0.0
C1262 C 0.62659 0.42108 0.50495 0.0
C1263 C 0.60615 0.42603 0.51262 0.0
C1264 C 0.59486 0.43754 0.48768 0.0
H1265 H 0.55405 0.40591 0.72545 0.0
H1266 H 0.56606 0.42119 0.66947 0.0
C1267 C 0.60335 0.44251 0.4543 0.0
C1268 C 0.5965 0.4181 0.5459 0.0
H1269 H 0.55823 0.38692 0.57656 0.0
C1270 C 0.60566 0.42269 0.57901 0.0
C1271 C 0.57935 0.4048 0.54491 0.0
C1272 C 0.56962 0.39817 0.51 0.0
C1273 C 0.59819 0.41433 0.61118 0.0
C1274 C 0.5807 0.40149 0.61027 0.0
C1275 C 0.57151 0.39692 0.57719 0.0
C1276 C 0.57204 0.3922 0.64329 0.0
C1277 C 0.60956 0.41878 0.64561 0.0
C1278 C 0.5704 0.37081 0.64651 0.0
C1279 C 0.56317 0.36199 0.67833 0.0
C1280 C 0.55758 0.37444 0.70752 0.0
C1281 C 0.55855 0.39587 0.70367 0.0
C1282 C 0.56553 0.40465 0.67176 0.0
H1283 H 0.62555 0.42382 0.64036 0.0
H1284 H 0.60164 0.43131 0.66021 0.0
H1285 H 0.60999 0.40509 0.66331 0.0
H1286 H 0.5752 0.36093 0.6247 0.0
H1287 H 0.5626 0.34544 0.68046 0.0
H1288 H 0.08199 0.64162 0.96828 0.0
H1289 H 0.09295 0.62444 0.02298 0.0
H1290 H 0.06732 0.5676 0.98461 0.0
H1291 H 0.05669 0.58455 0.92904 0.0
H1292 H 0.0726 0.60419 0.07507 0.0
H1293 H 0.1265 0.55178 0.00511 0.0
H1294 H 0.11464 0.57335 0.98303 0.0
H1295 H 0.10045 0.55005 0.98992 0.0
C1296 C 0.07847 0.6255 0.97145 0.0
C1297 C 0.06866 0.61442 0.94397 0.0
C1298 C 0.0848 0.6157 0.00279 0.0
C1299 C 0.08141 0.59465 0.00741 0.0
C1300 C 0.07059 0.58374 0.98107 0.0
H1301 H 0.09767 0.53614 0.21376 0.0
H1302 H 0.08478 0.54672 0.15512 0.0
C1303 C 0.06433 0.59352 0.9495 0.0
C1304 C 0.08951 0.58429 0.03976 0.0
H1305 H 0.12271 0.54713 0.06792 0.0
C1306 C 0.0835 0.59167 0.07351 0.0
C1307 C 0.10405 0.56823 0.03756 0.0
C1308 C 0.11198 0.56048 0.00199 0.0
C1309 C 0.09158 0.58342 0.1052 0.0
C1310 C 0.10561 0.56694 0.10306 0.0
C1311 C 0.11175 0.5596 0.06935 0.0
C1312 C 0.11415 0.55743 0.13579 0.0
C1313 C 0.08539 0.59281 0.14067 0.0
C1314 C 0.1352 0.55873 0.14333 0.0
C1315 C 0.14271 0.55238 0.17675 0.0
C1316 C 0.12917 0.54483 0.20293 0.0
C1317 C 0.10838 0.54223 0.19423 0.0
C1318 C 0.10098 0.54831 0.16084 0.0
H1319 H 0.07901 0.60847 0.13718 0.0
H1320 H 0.07339 0.58316 0.15334 0.0
H1321 H 0.09863 0.59368 0.15932 0.0
H1322 H 0.14562 0.56561 0.12411 0.0
H1323 H 0.1588 0.55454 0.18284 0.0
H1324 H 0.84556 0.07419 0.46784 0.0
H1325 H 0.86275 0.08441 0.52298 0.0
H1326 H 0.91988 0.06059 0.4824 0.0
H1327 H 0.90292 0.0507 0.42646 0.0
H1328 H 0.88427 0.0642 0.57422 0.0
H1329 H 0.93398 0.12027 0.50316 0.0
H1330 H 0.9125 0.10787 0.48177 0.0
H1331 H 0.93628 0.09436 0.48744 0.0
C1332 C 0.86174 0.07086 0.47066 0.0
C1333 C 0.87291 0.0619 0.4424 0.0
C1334 C 0.87154 0.07675 0.50225 0.0
C1335 C 0.89268 0.07376 0.50633 0.0
C1336 C 0.90365 0.06355 0.47931 0.0
H1337 H 0.95261 0.09275 0.71133 0.0
H1338 H 0.94167 0.07891 0.65358 0.0
C1339 C 0.89387 0.05773 0.44751 0.0
C1340 C 0.90315 0.08199 0.53846 0.0
H1341 H 0.93924 0.11658 0.5657 0.0
C1342 C 0.89636 0.07558 0.57238 0.0
C1343 C 0.91862 0.09715 0.53588 0.0
C1344 C 0.92568 0.1055 0.50015 0.0
C1345 C 0.9046 0.0839 0.60389 0.0
C1346 C 0.92046 0.09864 0.60134 0.0
C1347 C 0.92724 0.10512 0.56745 0.0
C1348 C 0.92982 0.10772 0.63378 0.0
C1349 C 0.89582 0.07726 0.63959 0.0
C1350 C 0.92795 0.1288 0.64074 0.0
C1351 C 0.9345 0.13686 0.67362 0.0
C1352 C 0.94284 0.12387 0.6999 0.0
C1353 C 0.9459 0.10306 0.69177 0.0
C1354 C 0.9396 0.0951 0.65889 0.0
H1355 H 0.88042 0.07021 0.63654 0.0
H1356 H 0.90608 0.06567 0.65189 0.0
H1357 H 0.89456 0.09043 0.65835 0.0
H1358 H 0.92058 0.1388 0.62146 0.0
H1359 H 0.93197 0.15295 0.67922 0.0
H1360 H 0.34143 0.56328 0.81107 0.0
H1361 H 0.3543 0.57743 0.86786 0.0
H1362 H 0.41639 0.57055 0.83004 0.0
H1363 H 0.4038 0.55685 0.7734 0.0
H1364 H 0.38071 0.56208 0.91969 0.0
H1365 H 0.41372 0.63119 0.85523 0.0
H1366 H 0.39621 0.61428 0.83227 0.0
H1367 H 0.42292 0.60776 0.83586 0.0
C1368 C 0.35781 0.56464 0.81503 0.0
C1369 C 0.37158 0.55922 0.78757 0.0
C1370 C 0.36513 0.57276 0.84739 0.0
C1371 C 0.38627 0.57551 0.85268 0.0
C1372 C 0.40001 0.56912 0.82605 0.0
H1373 H 0.44709 0.5982 0.05633 0.0
H1374 H 0.43643 0.58415 -0.00156 0.0
C1375 C 0.39275 0.5612 0.79375 0.0
C1376 C 0.39412 0.58522 0.88582 0.0
H1377 H 0.42352 0.62494 0.91592 0.0
C1378 C 0.38999 0.57588 0.91895 0.0
C1379 C 0.40596 0.60339 0.88474 0.0
C1380 C 0.4098 0.61487 0.85016 0.0
C1381 C 0.39775 0.58399 0.95107 0.0
C1382 C 0.41039 0.60163 0.9498 0.0
C1383 C 0.41415 0.61121 0.91673 0.0
C1384 C 0.41904 0.61092 0.98275 0.0
C1385 C 0.39198 0.57384 0.98609 0.0
C1386 C 0.41392 0.63111 0.99197 0.0
C1387 C 0.42027 0.63933 0.02473 0.0
C1388 C 0.43179 0.62745 0.04897 0.0
C1389 C 0.43804 0.60769 0.03852 0.0
C1390 C 0.4318 0.59955 0.00559 0.0
H1391 H 0.37811 0.5641 0.98322 0.0
H1392 H 0.40476 0.56386 0.99502 0.0
H1393 H 0.38909 0.5854 0.00736 0.0
H1394 H 0.40428 0.64022 0.9745 0.0
H1395 H 0.41523 0.65462 0.03173 0.0
H1396 H 0.95023 0.34386 0.31915 0.0
H1397 H 0.94032 0.3563 0.37905 0.0
H1398 H 0.90334 0.40344 0.33018 0.0
H1399 H 0.91317 0.39152 0.27105 0.0
H1400 H 0.92877 0.41798 0.38429 0.0
H1401 H 0.88368 0.34968 0.42704 0.0
H1402 H 0.9097 0.34519 0.41321 0.0
H1403 H 0.8912 0.35381 0.38094 0.0
C1404 C 0.93994 0.35681 0.32129 0.0
C1405 C 0.93259 0.36672 0.29033 0.0
C1406 C 0.93428 0.36386 0.35543 0.0
C1407 C 0.92106 0.38074 0.35888 0.0
C1408 C 0.91365 0.39047 0.32805 0.0
H1409 H 0.84205 0.42175 0.52718 0.0
H1410 H 0.85786 0.41042 0.47113 0.0
C1411 C 0.91932 0.38358 0.29421 0.0
C1412 C 0.91469 0.38867 0.39428 0.0
H1413 H 0.88461 0.37771 0.46665 0.0
C1414 C 0.91927 0.40915 0.40255 0.0
C1415 C 0.90212 0.37712 0.41762 0.0
C1416 C 0.8962 0.35527 0.40933 0.0
C1417 C 0.91113 0.41863 0.43315 0.0
C1418 C 0.89843 0.40712 0.45637 0.0
C1419 C 0.89429 0.38647 0.44861 0.0
C1420 C 0.88894 0.41622 0.48864 0.0
C1421 C 0.91553 0.44104 0.43955 0.0
C1422 C 0.90118 0.42375 0.51657 0.0
C1423 C 0.89221 0.43045 0.54847 0.0
C1424 C 0.87082 0.42944 0.55321 0.0
C1425 C 0.85855 0.42271 0.5245 0.0
C1426 C 0.86756 0.41613 0.49252 0.0
H1427 H 0.92095 0.44882 0.41474 0.0
H1428 H 0.9017 0.44912 0.44956 0.0
H1429 H 0.92774 0.44249 0.46013 0.0
H1430 H 0.91772 0.42365 0.5143 0.0
H1431 H 0.90216 0.43544 0.57003 0.0
H1432 H 0.1553 0.95238 0.81626 0.0
H1433 H 0.14365 0.94408 0.87734 0.0
H1434 H 0.08528 0.92456 0.83515 0.0
H1435 H 0.09633 0.93317 0.77499 0.0
H1436 H 0.08095 0.94697 0.89611 0.0
H1437 H 0.13904 0.88528 0.91336 0.0
H1438 H 0.14894 0.91048 0.90458 0.0
H1439 H 0.13441 0.89741 0.87062 0.0
C1440 C 0.13994 0.94648 0.82011 0.0
C1441 C 0.12687 0.94327 0.79061 0.0
C1442 C 0.13335 0.94166 0.85496 0.0
C1443 C 0.1137 0.93344 0.86063 0.0
C1444 C 0.1005 0.93088 0.83139 0.0
H1445 H 0.06759 0.85165 0.01984 0.0
H1446 H 0.07862 0.86954 0.96552 0.0
C1447 C 0.10695 0.93576 0.79687 0.0
C1448 C 0.10678 0.92645 0.89642 0.0
H1449 H 0.11488 0.88941 0.95945 0.0
C1450 C 0.08846 0.93453 0.91025 0.0
C1451 C 0.11649 0.91002 0.91439 0.0
C1452 C 0.13572 0.90012 0.89997 0.0
C1453 C 0.07918 0.92617 0.94094 0.0
C1454 C 0.08882 0.90964 0.95872 0.0
C1455 C 0.1075 0.90203 0.94559 0.0
C1456 C 0.07964 0.8995 0.99042 0.0
C1457 C 0.05874 0.93449 0.95301 0.0
C1458 C 0.07598 0.91052 0.02209 0.0
C1459 C 0.06937 0.90039 0.05304 0.0
C1460 C 0.0667 0.87898 0.053 0.0
C1461 C 0.06956 0.86812 0.02079 0.0
C1462 C 0.07595 0.87831 0.98979 0.0
H1463 H 0.05095 0.94316 0.93125 0.0
H1464 H 0.04844 0.92196 0.96208 0.0
H1465 H 0.06114 0.94511 0.97589 0.0
H1466 H 0.07908 0.92681 0.02336 0.0
H1467 H 0.06749 0.90919 0.07747 0.0
H1468 H 0.58034 0.06015 0.57091 0.0
H1469 H 0.56301 0.0716 0.51643 0.0
H1470 H 0.62137 0.07778 0.46302 0.0
H1471 H 0.6389 0.0668 0.51763 0.0
H1472 H 0.5982 0.11273 0.46002 0.0
H1473 H 0.55186 0.04509 0.41972 0.0
H1474 H 0.5482 0.05327 0.46532 0.0
H1475 H 0.57265 0.04336 0.45152 0.0
C1476 C 0.58949 0.06344 0.54731 0.0
C1477 C 0.61103 0.06268 0.54867 0.0
C1478 C 0.57953 0.06997 0.51617 0.0
C1479 C 0.59092 0.07551 0.48574 0.0
C1480 C 0.61233 0.07365 0.48635 0.0
H1481 H 0.56278 0.09749 0.26937 0.0
H1482 H 0.57097 0.08504 0.32891 0.0
C1483 C 0.62231 0.0673 0.51753 0.0
C1484 C 0.58082 0.08487 0.45425 0.0
H1485 H 0.54666 0.07567 0.38692 0.0
C1486 C 0.58687 0.10468 0.44405 0.0
C1487 C 0.56597 0.07432 0.43375 0.0
C1488 C 0.55937 0.05277 0.44286 0.0
C1489 C 0.57901 0.11401 0.41309 0.0
C1490 C 0.56434 0.10337 0.39232 0.0
C1491 C 0.55776 0.08383 0.4032 0.0
C1492 C 0.55782 0.11097 0.35674 0.0
C1493 C 0.58724 0.13468 0.40193 0.0
C1494 C 0.54743 0.12968 0.35263 0.0
C1495 C 0.54281 0.13707 0.31825 0.0
C1496 C 0.54839 0.12574 0.28763 0.0
C1497 C 0.55826 0.10674 0.2922 0.0
C1498 C 0.56291 0.09948 0.32631 0.0
H1499 H 0.60112 0.13905 0.41741 0.0
H1500 H 0.59113 0.13477 0.37289 0.0
H1501 H 0.57535 0.14652 0.40662 0.0
H1502 H 0.5431 0.13861 0.37592 0.0
H1503 H 0.53508 0.15168 0.31567 0.0
H1504 H 0.40839 -0.00098 0.31988 0.0
H1505 H 0.42448 0.03029 0.29744 0.0
H1506 H 0.36577 0.05242 0.26127 0.0
H1507 H 0.34946 0.02135 0.28369 0.0
H1508 H 0.39617 0.04794 0.20676 0.0
H1509 H 0.42471 0.09216 0.32363 0.0
H1510 H 0.43035 0.06524 0.32587 0.0
H1511 H 0.40414 0.07369 0.32711 0.0
C1512 C 0.39878 0.01079 0.3082 0.0
C1513 C 0.3777 0.00751 0.30302 0.0
C1514 C 0.40799 0.02868 0.29549 0.0
C1515 C 0.39625 0.04356 0.2777 0.0
C1516 C 0.37502 0.04106 0.27494 0.0
H1517 H 0.46615 0.14597 0.19242 0.0
H1518 H 0.43542 0.12767 0.21132 0.0
C1519 C 0.36578 0.02325 0.28776 0.0
C1520 C 0.40656 0.06 0.25751 0.0
H1521 H 0.44102 0.09875 0.2669 0.0
C1522 C 0.40566 0.05937 0.21984 0.0
C1523 C 0.41869 0.07492 0.27473 0.0
C1524 C 0.41943 0.07673 0.31509 0.0
C1525 C 0.41772 0.07249 0.19885 0.0
C1526 C 0.43099 0.0864 0.21613 0.0
C1527 C 0.43084 0.08796 0.25376 0.0
C1528 C 0.44688 0.0978 0.19637 0.0
C1529 C 0.41672 0.07091 0.15849 0.0
C1530 C 0.46307 0.08707 0.18023 0.0
C1531 C 0.48075 0.09743 0.16955 0.0
C1532 C 0.48252 0.11865 0.17519 0.0
C1533 C 0.46543 0.12957 0.18813 0.0
C1534 C 0.4478 0.11918 0.19892 0.0
H1535 H 0.40191 0.06426 0.14951 0.0
H1536 H 0.41876 0.08616 0.14572 0.0
H1537 H 0.4292 0.06073 0.14894 0.0
H1538 H 0.46269 0.0705 0.17845 0.0
H1539 H 0.49356 0.08856 0.15951 0.0
H1540 H 0.47024 0.34644 0.79142 0.0
H1541 H 0.43857 0.36311 0.77225 0.0
H1542 H 0.46247 0.42151 0.80664 0.0
H1543 H 0.49407 0.40504 0.82628 0.0
H1544 H 0.41912 0.41629 0.81652 0.0
H1545 H 0.44626 0.3967 0.67863 0.0
H1546 H 0.44229 0.37588 0.7095 0.0
H1547 H 0.46247 0.394 0.71754 0.0
C1548 C 0.46856 0.36277 0.79574 0.0
C1549 C 0.48485 0.37454 0.80949 0.0
C1550 C 0.45046 0.37222 0.78476 0.0
C1551 C 0.44851 0.39352 0.78725 0.0
C1552 C 0.46384 0.40501 0.80433 0.0
H1553 H 0.40887 0.49456 0.67588 0.0
H1554 H 0.42464 0.46287 0.6969 0.0
C1555 C 0.48189 0.39558 0.81552 0.0
C1556 C 0.43216 0.40437 0.7678 0.0
H1557 H 0.41904 0.4198 0.68332 0.0
C1558 C 0.41869 0.41675 0.78741 0.0
C1559 C 0.43194 0.40494 0.72978 0.0
C1560 C 0.44655 0.3923 0.70745 0.0
C1561 C 0.40571 0.43064 0.77 0.0
C1562 C 0.40614 0.43185 0.73205 0.0
C1563 C 0.41876 0.41863 0.71238 0.0
C1564 C 0.39602 0.44878 0.71294 0.0
C1565 C 0.39271 0.44491 0.79237 0.0
C1566 C 0.37468 0.45075 0.71333 0.0
C1567 C 0.36562 0.46887 0.70146 0.0
C1568 C 0.37782 0.4852 0.68899 0.0
C1569 C 0.39906 0.48236 0.68556 0.0
C1570 C 0.40809 0.46426 0.69756 0.0
H1571 H 0.39629 0.44378 0.82148 0.0
H1572 H 0.39499 0.46104 0.78369 0.0
H1573 H 0.3763 0.44105 0.78859 0.0
H1574 H 0.36515 0.43874 0.72452 0.0
H1575 H 0.34915 0.47045 0.70386 0.0
H1576 H 0.02068 0.34981 0.20168 0.0
H1577 H 0.05116 0.3672 0.22432 0.0
H1578 H 0.02373 0.42574 0.2006 0.0
H1579 H 0.99312 0.4086 0.17787 0.0
H1580 H 0.06837 0.42168 0.1875 0.0
H1581 H 0.04203 0.39722 0.32347 0.0
H1582 H 0.04526 0.37768 0.28985 0.0
H1583 H 0.02543 0.39647 0.28473 0.0
C1584 C 0.02127 0.36638 0.20047 0.0
C1585 C 0.00426 0.37786 0.18875 0.0
C1586 C 0.0387 0.37624 0.21347 0.0
C1587 C 0.03936 0.39765 0.21478 0.0
C1588 C 0.02331 0.40914 0.19996 0.0
H1589 H 0.08646 0.49495 0.33178 0.0
H1590 H 0.06763 0.46491 0.3111 0.0
C1591 C 0.00585 0.39932 0.18695 0.0
C1592 C 0.05553 0.40819 0.23514 0.0
H1593 H 0.06997 0.41981 0.32083 0.0
C1594 C 0.06906 0.42103 0.21659 0.0
C1595 C 0.05606 0.40731 0.2731 0.0
C1596 C 0.04138 0.39405 0.29417 0.0
C1597 C 0.08276 0.43368 0.23518 0.0
C1598 C 0.08291 0.43322 0.27318 0.0
C1599 C 0.06986 0.41986 0.2917 0.0
C1600 C 0.09464 0.44844 0.29377 0.0
C1601 C 0.09615 0.44826 0.21415 0.0
C1602 C 0.11607 0.44838 0.29291 0.0
C1603 C 0.12691 0.46552 0.30468 0.0
C1604 C 0.11638 0.48293 0.3173 0.0
C1605 C 0.09502 0.48191 0.32185 0.0
C1606 C 0.08422 0.46476 0.31005 0.0
H1607 H 0.09217 0.44855 0.18514 0.0
H1608 H 0.09477 0.46405 0.225 0.0
H1609 H 0.1124 0.44351 0.21672 0.0
H1610 H 0.12431 0.43571 0.28089 0.0
H1611 H 0.1434 0.46566 0.30142 0.0
H1612 H 0.14327 0.02454 0.69259 0.0
H1613 H 0.12514 0.05482 0.71427 0.0
H1614 H 0.06736 0.02644 0.68829 0.0
H1615 H 0.08524 0.99608 0.66643 0.0
H1616 H 0.06985 0.07088 0.67731 0.0
H1617 H 0.09525 0.04414 0.8124 0.0
H1618 H 0.11478 0.04871 0.77923 0.0
H1619 H 0.09691 0.0281 0.77305 0.0
C1620 C 0.12672 0.02492 0.69054 0.0
C1621 C 0.11565 0.00767 0.67866 0.0
C1622 C 0.11643 0.04224 0.703 0.0
C1623 C 0.09499 0.04252 0.70365 0.0
C1624 C 0.08397 0.02632 0.68822 0.0
H1625 H -0.00336 0.08476 0.82478 0.0
H1626 H 0.02711 0.0673 0.80223 0.0
C1627 C 0.09423 0.009 0.6757 0.0
C1628 C 0.08393 0.05817 0.72449 0.0
H1629 H 0.07178 0.07132 0.81066 0.0
C1630 C 0.07051 0.07133 0.70641 0.0
C1631 C 0.08478 0.05837 0.76248 0.0
C1632 C 0.09858 0.04403 0.78314 0.0
C1633 C 0.0573 0.08429 0.72546 0.0
C1634 C 0.05778 0.08411 0.76348 0.0
C1635 C 0.0717 0.07147 0.78152 0.0
C1636 C 0.04218 0.09508 0.78457 0.0
C1637 C 0.04214 0.09723 0.70489 0.0
C1638 C 0.04133 0.1165 0.78409 0.0
C1639 C 0.02396 0.12654 0.79695 0.0
C1640 C 0.00723 0.11523 0.81037 0.0
C1641 C 0.00917 0.09391 0.81438 0.0
C1642 C 0.02655 0.0839 0.80145 0.0
H1643 H 0.04186 0.09338 0.67583 0.0
H1644 H 0.02646 0.09521 0.71597 0.0
H1645 H 0.04632 0.11364 0.70763 0.0
H1646 H 0.05347 0.12534 0.77167 0.0
H1647 H 0.02309 0.14304 0.79405 0.0
H1648 H 0.63921 0.97081 0.69765 0.0
H1649 H 0.62198 0.94024 0.72011 0.0
H1650 H 0.56331 0.96747 0.69674 0.0
H1651 H 0.58033 -0.00169 0.67441 0.0
H1652 H 0.59417 0.94519 0.78041 0.0
H1653 H 0.55845 0.90633 0.66345 0.0
H1654 H 0.58014 0.92342 0.65913 0.0
H1655 H 0.55479 0.93363 0.66489 0.0
C1656 C 0.62264 0.97018 0.69642 0.0
C1657 C 0.61111 0.98718 0.68479 0.0
C1658 C 0.61287 0.95266 0.70927 0.0
C1659 C 0.59147 0.95172 0.71013 0.0
C1660 C 0.5799 0.96792 0.69594 0.0
H1661 H 0.49804 0.90315 0.83572 0.0
H1662 H 0.5282 0.92203 0.81566 0.0
C1663 C 0.58965 0.98554 0.68322 0.0
C1664 C 0.5812 0.93519 0.73012 0.0
H1665 H 0.54544 0.89758 0.72149 0.0
C1666 C 0.58377 0.93449 0.76755 0.0
C1667 C 0.56786 0.92126 0.71311 0.0
C1668 C 0.56522 0.921 0.67288 0.0
C1669 C 0.57238 0.92086 0.78872 0.0
C1670 C 0.55813 0.90778 0.77189 0.0
C1671 C 0.55642 0.9077 0.73428 0.0
C1672 C 0.54322 0.89558 0.79252 0.0
C1673 C 0.57524 0.92093 0.8289 0.0
C1674 C 0.54221 0.87434 0.78755 0.0
C1675 C 0.52501 0.86349 0.79898 0.0
C1676 C 0.50842 0.87383 0.81501 0.0
C1677 C 0.51047 0.89475 0.82328 0.0
C1678 C 0.52774 0.90557 0.81192 0.0
H1679 H 0.59037 0.9274 0.83657 0.0
H1680 H 0.56315 0.93053 0.84137 0.0
H1681 H 0.57391 0.90519 0.84005 0.0
H1682 H 0.55408 0.86642 0.77266 0.0
H1683 H 0.52407 0.84732 0.79268 0.0
H1684 H 0.6461 0.52391 0.28497 0.0
H1685 H 0.62949 0.55498 0.26317 0.0
H1686 H 0.57153 0.5334 0.30409 0.0
H1687 H 0.58795 0.50223 0.32605 0.0
H1688 H 0.59919 0.55058 0.21091 0.0
H1689 H 0.57041 0.59496 0.32719 0.0
H1690 H 0.59073 0.57627 0.3311 0.0
H1691 H 0.56438 0.56816 0.33008 0.0
C1692 C 0.62991 0.526 0.2903 0.0
C1693 C 0.61825 0.51042 0.3067 0.0
C1694 C 0.62049 0.54379 0.27782 0.0
C1695 C 0.59933 0.54641 0.28196 0.0
C1696 C 0.58795 0.53175 0.30107 0.0
H1697 H 0.50145 0.58895 0.16131 0.0
H1698 H 0.53265 0.5717 0.18081 0.0
C1699 C 0.59737 0.51391 0.31355 0.0
C1700 C 0.58862 0.56258 0.26162 0.0
H1701 H 0.55326 0.60054 0.2707 0.0
C1702 C 0.58948 0.56183 0.22394 0.0
C1703 C 0.57616 0.5773 0.27869 0.0
C1704 C 0.57549 0.5794 0.31901 0.0
C1705 C 0.57711 0.57459 0.20284 0.0
C1706 C 0.56351 0.58824 0.21999 0.0
C1707 C 0.56366 0.58993 0.25761 0.0
C1708 C 0.5474 0.5993 0.2001 0.0
C1709 C 0.57825 0.57294 0.16249 0.0
C1710 C 0.54574 0.62062 0.20324 0.0
C1711 C 0.52791 0.63053 0.19219 0.0
C1712 C 0.51135 0.6192 0.17825 0.0
C1713 C 0.51388 0.59812 0.17197 0.0
C1714 C 0.53175 0.58822 0.18303 0.0
H1715 H 0.59337 0.56696 0.15365 0.0
H1716 H 0.5663 0.56212 0.15303 0.0
H1717 H 0.57555 0.58803 0.14952 0.0
H1718 H 0.5577 0.62939 0.2163 0.0
H1719 H 0.52657 0.64684 0.19696 0.0
H1720 H 0.85008 0.5247 0.70335 0.0
H1721 H 0.86961 0.55402 0.72504 0.0
H1722 H 0.92522 0.5271 0.68404 0.0
H1723 H 0.90592 0.49757 0.66237 0.0
H1724 H 0.90073 0.54429 0.77739 0.0
H1725 H 0.93105 0.58968 0.66288 0.0
H1726 H 0.90847 0.57372 0.65935 0.0
H1727 H 0.93353 0.56238 0.658 0.0
C1728 C 0.86638 0.52524 0.69788 0.0
C1729 C 0.87653 0.50854 0.68184 0.0
C1730 C 0.87748 0.54205 0.7103 0.0
C1731 C 0.89879 0.54258 0.70629 0.0
C1732 C 0.9087 0.52699 0.68708 0.0
H1733 H 0.00128 0.58083 0.82397 0.0
H1734 H 0.97055 0.56325 0.80272 0.0
C1735 C 0.89764 0.51009 0.67478 0.0
C1736 C 0.911 0.5573 0.72724 0.0
H1737 H 0.948 0.59381 0.71944 0.0
C1738 C 0.91081 0.55541 0.76483 0.0
C1739 C 0.92401 0.57173 0.71067 0.0
C1740 C 0.92422 0.57469 0.6705 0.0
C1741 C 0.92414 0.56694 0.78625 0.0
C1742 C 0.93792 0.58057 0.76951 0.0
C1743 C 0.93738 0.58323 0.73209 0.0
C1744 C 0.95417 0.59111 0.78975 0.0
C1745 C 0.92379 0.56415 0.82645 0.0
C1746 C 0.95468 0.61253 0.79071 0.0
C1747 C 0.97213 0.62262 0.80297 0.0
C1748 C 0.98949 0.61141 0.81385 0.0
C1749 C 0.98823 0.58993 0.81569 0.0
C1750 C 0.97068 0.57985 0.80358 0.0
H1751 H 0.9093 0.55691 0.83568 0.0
H1752 H 0.93671 0.55409 0.83449 0.0
H1753 H 0.92571 0.57909 0.84033 0.0
H1754 H 0.94201 0.62141 0.78017 0.0
H1755 H 0.97247 0.6392 0.80161 0.0
H1756 H 0.89937 0.9909 0.34259 0.0
H1757 H 0.92031 0.96237 0.32082 0.0
H1758 H 0.87418 0.94801 0.24177 0.0
H1759 H 0.85276 0.97546 0.26455 0.0
H1760 H 0.89223 0.91451 0.2613 0.0
H1761 H 0.95137 0.97284 0.23029 0.0
H1762 H 0.94619 0.97123 0.27748 0.0
H1763 H 0.92639 0.97958 0.24709 0.0
C1764 C 0.89347 0.98129 0.32125 0.0
C1765 C 0.87463 0.98572 0.30478 0.0
C1766 C 0.90552 0.96514 0.3086 0.0
C1767 C 0.89915 0.95368 0.27868 0.0
C1768 C 0.87952 0.95684 0.26455 0.0
H1769 H 0.99362 0.89867 0.14559 0.0
H1770 H 0.96331 0.91849 0.16281 0.0
C1771 C 0.86728 0.97261 0.27769 0.0
C1772 C 0.91347 0.9398 0.25985 0.0
H1773 H 0.96071 0.93818 0.22107 0.0
C1774 C 0.90718 0.91968 0.25234 0.0
C1775 C 0.93262 0.94682 0.24685 0.0
C1776 C 0.93945 0.96885 0.25045 0.0
C1777 C 0.91981 0.90619 0.23313 0.0
C1778 C 0.93958 0.91277 0.22256 0.0
C1779 C 0.9456 0.93306 0.22927 0.0
C1780 C 0.95503 0.89866 0.20723 0.0
C1781 C 0.91161 0.88521 0.22394 0.0
C1782 C 0.96 0.88059 0.22562 0.0
C1783 C 0.9769 0.86904 0.21526 0.0
C1784 C 0.9896 0.87567 0.18703 0.0
C1785 C 0.98414 0.89326 0.16753 0.0
C1786 C 0.96687 0.90457 0.17739 0.0
H1787 H 0.89472 0.88563 0.22025 0.0
H1788 H 0.91869 0.87903 0.19909 0.0
H1789 H 0.91484 0.87455 0.24647 0.0
H1790 H 0.95161 0.87602 0.2494 0.0
H1791 H 0.98079 0.85567 0.23112 0.0
H1792 H 0.53426 0.20335 0.05572 0.0
H1793 H 0.51327 0.22112 0.01226 0.0
H1794 H 0.46281 0.22246 0.08707 0.0
H1795 H 0.484 0.20436 0.13173 0.0
H1796 H 0.47079 0.20783 0.98569 0.0
H1797 H 0.47541 0.2842 0.0517 0.0
H1798 H 0.4945 0.26543 0.06371 0.0
H1799 H 0.46821 0.26129 0.07594 0.0
C1800 C 0.51873 0.2073 0.06328 0.0
C1801 C 0.51088 0.20243 0.09739 0.0
C1802 C 0.50668 0.21738 0.0382 0.0
C1803 C 0.48648 0.22289 0.0464 0.0
C1804 C 0.47838 0.21819 0.08031 0.0
H1805 H 0.48475 0.30678 0.86733 0.0
H1806 H 0.46285 0.28765 0.90968 0.0
C1807 C 0.49053 0.20795 0.10572 0.0
C1808 C 0.47506 0.23449 0.01896 0.0
H1809 H 0.47807 0.28339 0.98785 0.0
C1810 C 0.47116 0.22445 0.98634 0.0
C1811 C 0.47515 0.25612 0.01999 0.0
C1812 C 0.47841 0.26752 0.05471 0.0
C1813 C 0.47133 0.23534 0.95391 0.0
C1814 C 0.47539 0.25656 0.95458 0.0
C1815 C 0.47525 0.26701 0.9875 0.0
C1816 C 0.48662 0.26624 0.92471 0.0
C1817 C 0.47011 0.22375 0.919 0.0
C1818 C 0.5071 0.26043 0.91935 0.0
C1819 C 0.51963 0.27151 0.8962 0.0
C1820 C 0.51182 0.28841 0.8775 0.0
C1821 C 0.49101 0.29365 0.88134 0.0
C1822 C 0.47852 0.28279 0.90536 0.0
H1823 H 0.46058 0.20973 0.92194 0.0
H1824 H 0.46364 0.23351 0.89734 0.0
H1825 H 0.48576 0.21894 0.91087 0.0
H1826 H 0.51369 0.2479 0.93457 0.0
H1827 H 0.5356 0.2672 0.89361 0.0
H1828 H 0.19887 0.48248 0.37054 0.0
H1829 H 0.21503 0.46157 0.41752 0.0
H1830 H 0.21436 0.51367 0.48884 0.0
H1831 H 0.1982 0.53429 0.44305 0.0
H1832 H 0.25156 0.46703 0.44734 0.0
H1833 H 0.1963 0.46999 0.55725 0.0
H1834 H 0.18878 0.47478 0.51124 0.0
H1835 H 0.19777 0.49543 0.53949 0.0
C1836 C 0.20198 0.48936 0.39643 0.0
C1837 C 0.19728 0.51011 0.40294 0.0
C1838 C 0.21105 0.47734 0.42328 0.0
C1839 C 0.21529 0.48584 0.45711 0.0
C1840 C 0.2105 0.50647 0.46351 0.0
H1841 H 0.30337 0.52536 0.55556 0.0
H1842 H 0.28266 0.50367 0.51776 0.0
C1843 C 0.20153 0.51841 0.43693 0.0
C1844 C 0.22736 0.47469 0.48452 0.0
H1845 H 0.23304 0.47824 0.575 0.0
C1846 C 0.24727 0.46851 0.47537 0.0
C1847 C 0.22166 0.47536 0.52116 0.0
C1848 C 0.19983 0.479 0.53268 0.0
C1849 C 0.26252 0.46719 0.50177 0.0
C1850 C 0.25769 0.4729 0.53744 0.0
C1851 C 0.23703 0.47476 0.54739 0.0
C1852 C 0.27311 0.48314 0.56045 0.0
C1853 C 0.28408 0.46196 0.49055 0.0
C1854 C 0.27446 0.47922 0.59749 0.0
C1855 C 0.28619 0.49204 0.61965 0.0
C1856 C 0.29643 0.50913 0.60507 0.0
C1857 C 0.29555 0.51249 0.56785 0.0
C1858 C 0.28399 0.49975 0.54593 0.0
H1859 H 0.28392 0.44912 0.47098 0.0
H1860 H 0.29109 0.47535 0.47683 0.0
H1861 H 0.29373 0.45762 0.5139 0.0
H1862 H 0.26589 0.46671 0.60938 0.0
H1863 H 0.28664 0.48901 0.64824 0.0
H1864 H 0.96048 0.29812 0.05465 0.0
H1865 H 0.98139 0.27755 0.01519 0.0
H1866 H 0.02571 0.26875 0.09977 0.0
H1867 H 0.00427 0.28925 0.14051 0.0
H1868 H 0.0221 0.27943 0.9907 0.0
H1869 H 0.00826 0.21022 0.07538 0.0
H1870 H 0.99411 0.23336 0.08448 0.0
H1871 H 0.02112 0.23234 0.09348 0.0
C1872 C 0.97469 0.29198 0.06513 0.0
C1873 C 0.98045 0.29503 0.10107 0.0
C1874 C 0.9868 0.28036 0.04227 0.0
C1875 C 0.00508 0.27152 0.05453 0.0
C1876 C 0.01155 0.27528 0.08988 0.0
H1877 H 0.00672 0.19295 0.86534 0.0
H1878 H 0.02761 0.21067 0.91068 0.0
C1879 C -0.00072 0.28698 0.11307 0.0
C1880 C 0.01528 0.25656 0.03062 0.0
H1881 H 0.00871 0.20582 0.01303 0.0
C1882 C 0.02022 0.26316 0.99574 0.0
C1883 C 0.01335 0.23533 0.0375 0.0
C1884 C 0.00896 0.22723 0.07469 0.0
C1885 C 0.01913 0.24962 0.96655 0.0
C1886 C 0.01346 0.22906 0.97294 0.0
C1887 C 0.01264 0.22175 0.00836 0.0
C1888 C 0.00196 0.21744 0.94553 0.0
C1889 C 0.02104 0.25796 0.92892 0.0
C1890 C 0.98074 0.21545 0.95022 0.0
C1891 C 0.96886 0.20546 0.92472 0.0
C1892 C 0.97791 0.19722 0.8937 0.0
C1893 C -0.00074 0.19925 0.88886 0.0
C1894 C 0.01123 0.20929 0.91471 0.0
H1895 H 0.02653 0.27408 0.92863 0.0
H1896 H 0.03189 0.24844 0.9132 0.0
H1897 H 0.00591 0.25731 0.91534 0.0
H1898 H 0.97326 0.22188 0.97365 0.0
H1899 H 0.95252 0.20428 0.9294 0.0
H1900 H 0.28566 0.00225 0.34546 0.0
H1901 H 0.26483 0.02399 0.38522 0.0
H1902 H 0.28304 0.98697 0.47585 0.0
H1903 H 0.30383 0.96587 0.43721 0.0
H1904 H 0.23252 0.01185 0.42028 0.0
H1905 H 0.28371 0.04118 0.52354 0.0
H1906 H 0.29338 0.03293 0.48035 0.0
H1907 H 0.29114 0.01505 0.51729 0.0
C1908 C 0.28551 -0.0009 0.37403 0.0
C1909 C 0.29618 0.98216 0.38809 0.0
C1910 C 0.27372 0.0116 0.3967 0.0
C1911 C 0.27275 0.0075 0.43374 0.0
C1912 C 0.28406 0.99104 0.4477 0.0
H1913 H 0.1984 0.95535 0.55247 0.0
H1914 H 0.21485 0.97594 0.50694 0.0
C1915 C 0.29567 0.97863 0.42529 0.0
C1916 C 0.25734 0.01735 0.45736 0.0
H1917 H 0.25169 0.0228 0.54769 0.0
C1918 C 0.23665 0.01527 0.44785 0.0
C1919 C 0.26234 0.02294 0.49302 0.0
C1920 C 0.28391 0.0284 0.50384 0.0
C1921 C 0.22145 0.01443 0.4744 0.0
C1922 C 0.22734 0.01506 0.51094 0.0
C1923 C 0.24726 0.02137 0.51973 0.0
C1924 C 0.21543 0.00383 0.53851 0.0
C1925 C 0.19958 0.01058 0.46329 0.0
C1926 C 0.21097 0.01236 0.57223 0.0
C1927 C 0.20168 0.00037 0.59896 0.0
C1928 C 0.19701 0.97961 0.59242 0.0
C1929 C 0.20165 0.97124 0.55861 0.0
C1930 C 0.21081 0.98315 0.53217 0.0
H1931 H 0.19586 0.01948 0.4387 0.0
H1932 H 0.1976 0.99411 0.45669 0.0
H1933 H 0.18862 0.01478 0.4849 0.0
H1934 H 0.21482 0.02818 0.57793 0.0
H1935 H 0.1983 0.0073 0.62471 0.0
H1936 H 0.50805 0.69003 0.12282 0.0
H1937 H 0.52731 0.70895 0.07662 0.0
H1938 H 0.47381 0.74573 0.05493 0.0
H1939 H 0.45455 0.72674 0.10008 0.0
H1940 H 0.51236 0.70818 0.00385 0.0
H1941 H 0.52155 0.78766 0.05106 0.0
H1942 H 0.51945 0.76611 0.0815 0.0
H1943 H 0.49678 0.77783 0.06303 0.0
C1944 C 0.50066 0.70256 0.1088 0.0
C1945 C 0.47982 0.70693 0.1147 0.0
C1946 C 0.51166 0.71333 0.08256 0.0
C1947 C 0.50207 0.72893 0.06286 0.0
C1948 C 0.48164 0.73405 0.07042 0.0
H1949 H 0.45406 0.7643 0.89153 0.0
H1950 H 0.47374 0.7454 0.93616 0.0
C1951 C 0.47057 0.72308 0.09593 0.0
C1952 C 0.5115 0.73759 0.03019 0.0
H1953 H 0.51197 0.78356 0.98715 0.0
C1954 C 0.51328 0.72466 0.00026 0.0
C1955 C 0.51319 0.759 0.02558 0.0
C1956 C 0.51287 0.77342 0.05716 0.0
C1957 C 0.51323 0.73276 0.96539 0.0
C1958 C 0.51131 0.75415 0.9608 0.0
C1959 C 0.51306 0.7671 0.99072 0.0
C1960 C 0.5017 0.76272 0.92824 0.0
C1961 C 0.51297 0.71832 0.93382 0.0
C1962 C 0.511 0.77858 0.90868 0.0
C1963 C 0.49976 0.7893 0.88274 0.0
C1964 C 0.47897 0.78463 0.87701 0.0
C1965 C 0.47004 0.76821 0.89556 0.0
C1966 C 0.48134 0.75728 0.92077 0.0
H1967 H 0.52189 0.70423 0.93979 0.0
H1968 H 0.49693 0.71365 0.92824 0.0
H1969 H 0.51932 0.72573 0.90936 0.0
H1970 H 0.52659 0.7832 0.91455 0.0
H1971 H 0.50691 0.80204 0.86889 0.0
H1972 H 0.80606 0.50819 0.61508 0.0
H1973 H 0.7873 0.52741 0.56854 0.0
H1974 H 0.7499 0.47417 0.54798 0.0
H1975 H 0.76873 0.45496 0.59333 0.0
H1976 H 0.7864 0.51159 0.49434 0.0
H1977 H 0.70861 0.52324 0.5485 0.0
H1978 H 0.73103 0.52119 0.57689 0.0
H1979 H 0.71847 0.49848 0.56041 0.0
C1980 C 0.79351 0.50084 0.60108 0.0
C1981 C 0.78884 0.48011 0.60749 0.0
C1982 C 0.78284 0.5118 0.57466 0.0
C1983 C 0.76704 0.50228 0.55535 0.0
C1984 C 0.76178 0.48191 0.56313 0.0
H1985 H 0.72556 0.45424 0.38881 0.0
H1986 H 0.74618 0.47377 0.43121 0.0
C1987 C 0.77265 0.47089 0.58877 0.0
C1988 C 0.7578 0.51186 0.52333 0.0
H1989 H 0.71066 0.5135 0.48457 0.0
C1990 C 0.76989 0.51303 0.49222 0.0
C1991 C 0.73636 0.5142 0.52065 0.0
C1992 C 0.72289 0.51444 0.55353 0.0
C1993 C 0.76076 0.51303 0.45815 0.0
C1994 C 0.73921 0.51175 0.45555 0.0
C1995 C 0.72723 0.51412 0.48658 0.0
C1996 C 0.72939 0.50211 0.42409 0.0
C1997 C 0.77423 0.51213 0.4253 0.0
C1998 C 0.71322 0.51164 0.40573 0.0
C1999 C 0.7015 0.50047 0.38104 0.0
C2000 C 0.70549 0.47954 0.37543 0.0
C2001 C 0.72216 0.47034 0.39279 0.0
C2002 C 0.73407 0.48155 0.41671 0.0
H2003 H 0.78872 0.52071 0.42974 0.0
H2004 H 0.77829 0.49592 0.41972 0.0
H2005 H 0.7663 0.51849 0.40139 0.0
H2006 H 0.70918 0.52739 0.41159 0.0
H2007 H 0.68858 0.50781 0.36807 0.0
H2008 H 0.03281 0.69008 0.94424 0.0
H2009 H 0.01131 0.70924 0.98484 0.0
H2010 H 0.96737 0.71947 0.90011 0.0
H2011 H 0.98937 0.70039 0.85836 0.0
H2012 H 0.97651 0.75412 0.93046 0.0
H2013 H 0.96038 0.70241 0.04169 0.0
H2014 H 0.98686 0.69852 0.03138 0.0
H2015 H 0.96761 0.69276 -0.00206 0.0
C2016 C 0.01847 0.6961 0.9341 0.0
C2017 C 0.01297 0.69387 0.89785 0.0
C2018 C 0.0059 0.70677 0.95768 0.0
C2019 C 0.98736 0.71533 0.94591 0.0
C2020 C 0.98143 0.71268 0.90995 0.0
H2021 H 0.98943 0.79103 0.13257 0.0
H2022 H 0.96734 0.7727 0.08998 0.0
C2023 C 0.99409 0.7019 0.88611 0.0
C2024 C 0.97668 0.7299 0.97 0.0
H2025 H 0.97507 0.7373 0.06029 0.0
C2026 C 0.97518 0.75037 0.95875 0.0
C2027 C 0.97366 0.72521 0.00672 0.0
C2028 C 0.97196 0.70343 0.01987 0.0
C2029 C 0.97514 0.7663 0.98397 0.0
C2030 C 0.97733 0.76144 0.02079 0.0
C2031 C 0.97439 0.74111 0.03196 0.0
C2032 C 0.98844 0.7754 0.04536 0.0
C2033 C 0.97502 0.78813 0.97077 0.0
C2034 C 0.00768 0.78282 0.03456 0.0
C2035 C 0.02029 0.79307 0.05863 0.0
C2036 C 0.01414 0.79599 0.09441 0.0
C2037 C 0.99466 0.78898 0.10519 0.0
C2038 C 0.98195 0.77864 0.08087 0.0
H2039 H 0.96396 0.78986 0.94831 0.0
H2040 H 0.97091 0.79906 0.99248 0.0
H2041 H 0.99041 0.79213 0.96015 0.0
H2042 H 0.01347 0.77985 0.00779 0.0
H2043 H 0.03512 0.79826 0.04923 0.0
H2044 H 0.7936 0.03276 0.43811 0.0
H2045 H 0.77531 0.01126 0.47994 0.0
H2046 H 0.76967 0.96403 0.39945 0.0
H2047 H 0.788 0.98597 0.35636 0.0
H2048 H 0.73379 0.97113 0.43029 0.0
H2049 H 0.78813 0.96245 0.54032 0.0
H2050 H 0.78951 0.98879 0.52723 0.0
H2051 H 0.7965 0.96905 0.49544 0.0
C2052 C 0.78873 0.01775 0.42909 0.0
C2053 C 0.79222 0.01119 0.39367 0.0
C2054 C 0.77854 0.00524 0.45342 0.0
C2055 C 0.77169 0.98569 0.44331 0.0
C2056 C 0.77521 0.97889 0.40805 0.0
H2057 H 0.70011 0.98675 0.63403 0.0
H2058 H 0.7189 0.96459 0.59204 0.0
C2059 C 0.78555 0.9915 0.38344 0.0
C2060 C 0.75836 0.97433 0.46865 0.0
H2061 H 0.75235 0.97392 0.5593 0.0
C2062 C 0.73798 0.97075 0.45846 0.0
C2063 C 0.76378 0.97251 0.50529 0.0
C2064 C 0.78579 0.97316 0.51748 0.0
C2065 C 0.72247 0.96969 0.48446 0.0
C2066 C 0.72756 0.97311 0.52092 0.0
C2067 C 0.74822 0.97228 0.53124 0.0
C2068 C 0.71302 0.98357 0.54547 0.0
C2069 C 0.70059 0.96713 0.47232 0.0
C2070 C 0.70351 0.00158 0.53337 0.0
C2071 C 0.69298 0.01419 0.55705 0.0
C2072 C 0.69187 0.00936 0.59377 0.0
C2073 C 0.70076 0.99096 0.60591 0.0
C2074 C 0.71139 0.97822 0.58194 0.0
H2075 H 0.69966 0.95515 0.45119 0.0
H2076 H 0.69032 0.96284 0.4949 0.0
H2077 H 0.6951 0.98166 0.46018 0.0
H2078 H 0.70515 0.00662 0.50579 0.0
H2079 H 0.68624 0.02813 0.54655 0.0
loop_
_geom_bond_atom_site_label_1
_geom_bond_atom_site_label_2
_geom_bond_distance
_geom_bond_site_symmetry_2
_ccdc_geom_bond_type
Sc0 O3 2.025 . S
Sc0 O10 2.105 . S
Sc0 O13 2.105 . S
Sc0 O16 2.105 . S
Sc0 O19 2.105 . S
Sc1 O3 2.025 . S
Sc1 O11 2.105 . S
Sc1 O15 2.105 . S
Sc1 O17 2.105 . S
Sc1 O21 2.105 . S
Sc2 O3 2.025 . S
Sc2 O12 2.105 . S
Sc2 O14 2.105 . S
Sc2 O18 2.105 . S
Sc2 O20 2.105 . S
O3 Sc0 2.025 . S
O3 Sc1 2.025 . S
O3 Sc2 2.025 . S
C4 O10 1.268 . S
C4 O20 1.268 . S
C5 O11 1.268 . S
C5 O19 1.268 . S
C6 O12 1.268 . S
C6 O21 1.268 . S
C7 O13 1.268 . S
C7 O17 1.268 . S
C8 O14 1.268 . S
C8 O16 1.268 . S
C9 O15 1.268 . S
C9 O18 1.268 . S
O10 Sc0 2.105 . S
O10 C4 1.268 . S
O11 Sc1 2.105 . S
O11 C5 1.268 . S
O12 Sc2 2.105 . S
O12 C6 1.268 . S
O13 Sc0 2.105 . S
O13 C7 1.268 . S
O14 Sc2 2.105 . S
O14 C8 1.268 . S
O15 Sc1 2.105 . S
O15 C9 1.268 . S
O16 Sc0 2.105 . S
O16 C8 1.268 . S
O17 Sc1 2.105 . S
O17 C7 1.268 . S
O18 Sc2 2.105 . S
O18 C9 1.268 . S
O19 Sc0 2.105 . S
O19 C5 1.268 . S
O20 Sc2 2.105 . S
O20 C4 1.268 . S
O21 Sc1 2.105 . S
O21 C6 1.268 . S
Sc22 O25 2.025 . S
Sc22 O32 2.105 . S
Sc22 O35 2.105 . S
Sc22 O38 2.105 . S
Sc22 O41 2.105 . S
Sc23 O25 2.025 . S
Sc23 O33 2.105 . S
Sc23 O37 2.105 . S
Sc23 O39 2.105 . S
Sc23 O43 2.105 . S
Sc24 O25 2.025 . S
Sc24 O34 2.105 . S
Sc24 O36 2.105 . S
Sc24 O40 2.105 . S
Sc24 O42 2.105 . S
O25 Sc22 2.025 . S
O25 Sc23 2.025 . S
O25 Sc24 2.025 . S
C26 O32 1.268 . S
C26 O42 1.268 . S
C27 O33 1.268 . S
C27 O41 1.268 . S
C28 O34 1.268 . S
C28 O43 1.268 . S
C29 O35 1.268 . S
C29 O39 1.268 . S
C30 O36 1.268 . S
C30 O38 1.268 . S
C31 O37 1.268 . S
C31 O40 1.268 . S
O32 Sc22 2.105 . S
O32 C26 1.268 . S
O33 Sc23 2.105 . S
O33 C27 1.268 . S
O34 Sc24 2.105 . S
O34 C28 1.268 . S
O35 Sc22 2.105 . S
O35 C29 1.268 . S
O36 Sc24 2.105 . S
O36 C30 1.268 . S
O37 Sc23 2.105 . S
O37 C31 1.268 . S
O38 Sc22 2.105 . S
O38 C30 1.268 . S
O39 Sc23 2.105 . S
O39 C29 1.268 . S
O40 Sc24 2.105 . S
O40 C31 1.268 . S
O41 Sc22 2.105 . S
O41 C27 1.268 . S
O42 Sc24 2.105 . S
O42 C26 1.268 . S
O43 Sc23 2.105 . S
O43 C28 1.268 . S
Sc44 O47 2.025 . S
Sc44 O54 2.105 . S
Sc44 O57 2.105 . S
Sc44 O60 2.105 . S
Sc44 O63 2.105 . S
Sc45 O47 2.025 . S
Sc45 O55 2.105 . S
Sc45 O59 2.105 . S
Sc45 O61 2.105 . S
Sc45 O65 2.105 . S
Sc46 O47 2.025 . S
Sc46 O56 2.105 . S
Sc46 O58 2.105 . S
Sc46 O62 2.105 . S
Sc46 O64 2.105 . S
O47 Sc44 2.025 . S
O47 Sc45 2.025 . S
O47 Sc46 2.025 . S
C48 O54 1.268 . S
C48 O64 1.268 . S
C49 O55 1.268 . S
C49 O63 1.268 . S
C50 O56 1.268 . S
C50 O65 1.268 . S
C51 O57 1.268 . S
C51 O61 1.268 . S
C52 O58 1.268 . S
C52 O60 1.268 . S
C53 O59 1.268 . S
C53 O62 1.268 . S
O54 Sc44 2.105 . S
O54 C48 1.268 . S
O55 Sc45 2.105 . S
O55 C49 1.268 . S
O56 Sc46 2.105 . S
O56 C50 1.268 . S
O57 Sc44 2.105 . S
O57 C51 1.268 . S
O58 Sc46 2.105 . S
O58 C52 1.268 . S
O59 Sc45 2.105 . S
O59 C53 1.268 . S
O60 Sc44 2.105 . S
O60 C52 1.268 . S
O61 Sc45 2.105 . S
O61 C51 1.268 . S
O62 Sc46 2.105 . S
O62 C53 1.268 . S
O63 Sc44 2.105 . S
O63 C49 1.268 . S
O64 Sc46 2.105 . S
O64 C48 1.268 . S
O65 Sc45 2.105 . S
O65 C50 1.268 . S
Sc66 O69 2.025 . S
Sc66 O76 2.105 . S
Sc66 O79 2.105 . S
Sc66 O82 2.105 . S
Sc66 O85 2.105 . S
Sc67 O69 2.025 . S
Sc67 O77 2.105 . S
Sc67 O81 2.105 . S
Sc67 O83 2.105 . S
Sc67 O87 2.105 . S
Sc68 O69 2.025 . S
Sc68 O78 2.105 . S
Sc68 O80 2.105 . S
Sc68 O84 2.105 . S
Sc68 O86 2.105 . S
O69 Sc66 2.025 . S
O69 Sc67 2.025 . S
O69 Sc68 2.025 . S
C70 O76 1.268 . S
C70 O86 1.268 . S
C71 O77 1.268 . S
C71 O85 1.268 . S
C72 O78 1.268 . S
C72 O87 1.268 . S
C73 O79 1.268 . S
C73 O83 1.268 . S
C74 O80 1.268 . S
C74 O82 1.268 . S
C75 O81 1.268 . S
C75 O84 1.268 . S
O76 Sc66 2.105 . S
O76 C70 1.268 . S
O77 Sc67 2.105 . S
O77 C71 1.268 . S
O78 Sc68 2.105 . S
O78 C72 1.268 . S
O79 Sc66 2.105 . S
O79 C73 1.268 . S
O80 Sc68 2.105 . S
O80 C74 1.268 . S
O81 Sc67 2.105 . S
O81 C75 1.268 . S
O82 Sc66 2.105 . S
O82 C74 1.268 . S
O83 Sc67 2.105 . S
O83 C73 1.268 . S
O84 Sc68 2.105 . S
O84 C75 1.268 . S
O85 Sc66 2.105 . S
O85 C71 1.268 . S
O86 Sc68 2.105 . S
O86 C70 1.268 . S
O87 Sc67 2.105 . S
O87 C72 1.268 . S
Sc88 O91 2.025 . S
Sc88 O98 2.105 . S
Sc88 O101 2.105 . S
Sc88 O104 2.105 . S
Sc88 O107 2.105 . S
Sc89 O91 2.025 . S
Sc89 O99 2.105 . S
Sc89 O103 2.105 . S
Sc89 O105 2.105 . S
Sc89 O109 2.105 . S
Sc90 O91 2.025 . S
Sc90 O100 2.105 . S
Sc90 O102 2.105 . S
Sc90 O106 2.105 . S
Sc90 O108 2.105 . S
O91 Sc88 2.025 . S
O91 Sc89 2.025 . S
O91 Sc90 2.025 . S
C92 O98 1.268 . S
C92 O108 1.268 . S
C93 O99 1.268 . S
C93 O107 1.268 . S
C94 O100 1.268 . S
C94 O109 1.268 . S
C95 O101 1.268 . S
C95 O105 1.268 . S
C96 O102 1.268 . S
C96 O104 1.268 . S
C97 O103 1.268 . S
C97 O106 1.268 . S
O98 Sc88 2.105 . S
O98 C92 1.268 . S
O99 Sc89 2.105 . S
O99 C93 1.268 . S
O100 Sc90 2.105 . S
O100 C94 1.268 . S
O101 Sc88 2.105 . S
O101 C95 1.268 . S
O102 Sc90 2.105 . S
O102 C96 1.268 . S
O103 Sc89 2.105 . S
O103 C97 1.268 . S
O104 Sc88 2.105 . S
O104 C96 1.268 . S
O105 Sc89 2.105 . S
O105 C95 1.268 . S
O106 Sc90 2.105 . S
O106 C97 1.268 . S
O107 Sc88 2.105 . S
O107 C93 1.268 . S
O108 Sc90 2.105 . S
O108 C92 1.268 . S
O109 Sc89 2.105 . S
O109 C94 1.268 . S
Sc110 O113 2.025 . S
Sc110 O120 2.105 . S
Sc110 O123 2.105 . S
Sc110 O126 2.105 . S
Sc110 O129 2.105 . S
Sc111 O113 2.025 . S
Sc111 O121 2.105 . S
Sc111 O125 2.105 . S
Sc111 O127 2.105 . S
Sc111 O131 2.105 . S
Sc112 O113 2.025 . S
Sc112 O122 2.105 . S
Sc112 O124 2.105 . S
Sc112 O128 2.105 . S
Sc112 O130 2.105 . S
O113 Sc110 2.025 . S
O113 Sc111 2.025 . S
O113 Sc112 2.025 . S
C114 O120 1.268 . S
C114 O130 1.268 . S
C115 O121 1.268 . S
C115 O129 1.268 . S
C116 O122 1.268 . S
C116 O131 1.268 . S
C117 O123 1.268 . S
C117 O127 1.268 . S
C118 O124 1.268 . S
C118 O126 1.268 . S
C119 O125 1.268 . S
C119 O128 1.268 . S
O120 Sc110 2.105 . S
O120 C114 1.268 . S
O121 Sc111 2.105 . S
O121 C115 1.268 . S
O122 Sc112 2.105 . S
O122 C116 1.268 . S
O123 Sc110 2.105 . S
O123 C117 1.268 . S
O124 Sc112 2.105 . S
O124 C118 1.268 . S
O125 Sc111 2.105 . S
O125 C119 1.268 . S
O126 Sc110 2.105 . S
O126 C118 1.268 . S
O127 Sc111 2.105 . S
O127 C117 1.268 . S
O128 Sc112 2.105 . S
O128 C119 1.268 . S
O129 Sc110 2.105 . S
O129 C115 1.268 . S
O130 Sc112 2.105 . S
O130 C114 1.268 . S
O131 Sc111 2.105 . S
O131 C116 1.268 . S
Sc132 O135 2.025 . S
Sc132 O142 2.105 . S
Sc132 O145 2.105 . S
Sc132 O148 2.105 . S
Sc132 O151 2.105 . S
Sc133 O135 2.025 . S
Sc133 O143 2.105 . S
Sc133 O147 2.105 . S
Sc133 O149 2.105 . S
Sc133 O153 2.105 . S
Sc134 O135 2.025 . S
Sc134 O144 2.105 . S
Sc134 O146 2.105 . S
Sc134 O150 2.105 . S
Sc134 O152 2.105 . S
O135 Sc132 2.025 . S
O135 Sc133 2.025 . S
O135 Sc134 2.025 . S
C136 O142 1.268 . S
C136 O152 1.268 . S
C137 O143 1.268 . S
C137 O151 1.268 . S
C138 O144 1.268 . S
C138 O153 1.268 . S
C139 O145 1.268 . S
C139 O149 1.268 . S
C140 O146 1.268 . S
C140 O148 1.268 . S
C141 O147 1.268 . S
C141 O150 1.268 . S
O142 Sc132 2.105 . S
O142 C136 1.268 . S
O143 Sc133 2.105 . S
O143 C137 1.268 . S
O144 Sc134 2.105 . S
O144 C138 1.268 . S
O145 Sc132 2.105 . S
O145 C139 1.268 . S
O146 Sc134 2.105 . S
O146 C140 1.268 . S
O147 Sc133 2.105 . S
O147 C141 1.268 . S
O148 Sc132 2.105 . S
O148 C140 1.268 . S
O149 Sc133 2.105 . S
O149 C139 1.268 . S
O150 Sc134 2.105 . S
O150 C141 1.268 . S
O151 Sc132 2.105 . S
O151 C137 1.268 . S
O152 Sc134 2.105 . S
O152 C136 1.268 . S
O153 Sc133 2.105 . S
O153 C138 1.268 . S
Sc154 O157 2.025 . S
Sc154 O164 2.105 . S
Sc154 O167 2.105 . S
Sc154 O170 2.105 . S
Sc154 O173 2.105 . S
Sc155 O157 2.025 . S
Sc155 O165 2.105 . S
Sc155 O169 2.105 . S
Sc155 O171 2.105 . S
Sc155 O175 2.105 . S
Sc156 O157 2.025 . S
Sc156 O166 2.105 . S
Sc156 O168 2.105 . S
Sc156 O172 2.105 . S
Sc156 O174 2.105 . S
O157 Sc154 2.025 . S
O157 Sc155 2.025 . S
O157 Sc156 2.025 . S
C158 O164 1.268 . S
C158 O174 1.268 . S
C159 O165 1.268 . S
C159 O173 1.268 . S
C160 O166 1.268 . S
C160 O175 1.268 . S
C161 O167 1.268 . S
C161 O171 1.268 . S
C162 O168 1.268 . S
C162 O170 1.268 . S
C163 O169 1.268 . S
C163 O172 1.268 . S
O164 Sc154 2.105 . S
O164 C158 1.268 . S
O165 Sc155 2.105 . S
O165 C159 1.268 . S
O166 Sc156 2.105 . S
O166 C160 1.268 . S
O167 Sc154 2.105 . S
O167 C161 1.268 . S
O168 Sc156 2.105 . S
O168 C162 1.268 . S
O169 Sc155 2.105 . S
O169 C163 1.268 . S
O170 Sc154 2.105 . S
O170 C162 1.268 . S
O171 Sc155 2.105 . S
O171 C161 1.268 . S
O172 Sc156 2.105 . S
O172 C163 1.268 . S
O173 Sc154 2.105 . S
O173 C159 1.268 . S
O174 Sc156 2.105 . S
O174 C158 1.268 . S
O175 Sc155 2.105 . S
O175 C160 1.268 . S
Sc176 O179 2.025 . S
Sc176 O186 2.105 . S
Sc176 O189 2.105 . S
Sc176 O192 2.105 . S
Sc176 O195 2.105 . S
Sc177 O179 2.025 . S
Sc177 O187 2.105 . S
Sc177 O191 2.105 . S
Sc177 O193 2.105 . S
Sc177 O197 2.105 . S
Sc178 O179 2.025 . S
Sc178 O188 2.105 . S
Sc178 O190 2.105 . S
Sc178 O194 2.105 . S
Sc178 O196 2.105 . S
O179 Sc176 2.025 . S
O179 Sc177 2.025 . S
O179 Sc178 2.025 . S
C180 O186 1.268 . S
C180 O196 1.268 . S
C181 O187 1.268 . S
C181 O195 1.268 . S
C182 O188 1.268 . S
C182 O197 1.268 . S
C183 O189 1.268 . S
C183 O193 1.268 . S
C184 O190 1.268 . S
C184 O192 1.268 . S
C185 O191 1.268 . S
C185 O194 1.268 . S
O186 Sc176 2.105 . S
O186 C180 1.268 . S
O187 Sc177 2.105 . S
O187 C181 1.268 . S
O188 Sc178 2.105 . S
O188 C182 1.268 . S
O189 Sc176 2.105 . S
O189 C183 1.268 . S
O190 Sc178 2.105 . S
O190 C184 1.268 . S
O191 Sc177 2.105 . S
O191 C185 1.268 . S
O192 Sc176 2.105 . S
O192 C184 1.268 . S
O193 Sc177 2.105 . S
O193 C183 1.268 . S
O194 Sc178 2.105 . S
O194 C185 1.268 . S
O195 Sc176 2.105 . S
O195 C181 1.268 . S
O196 Sc178 2.105 . S
O196 C180 1.268 . S
O197 Sc177 2.105 . S
O197 C182 1.268 . S
Sc198 O201 2.025 . S
Sc198 O208 2.105 . S
Sc198 O211 2.105 . S
Sc198 O214 2.105 . S
Sc198 O217 2.105 . S
Sc199 O201 2.025 . S
Sc199 O209 2.105 . S
Sc199 O213 2.105 . S
Sc199 O215 2.105 . S
Sc199 O219 2.105 . S
Sc200 O201 2.025 . S
Sc200 O210 2.105 . S
Sc200 O212 2.105 . S
Sc200 O216 2.105 . S
Sc200 O218 2.105 . S
O201 Sc198 2.025 . S
O201 Sc199 2.025 . S
O201 Sc200 2.025 . S
C202 O208 1.268 . S
C202 O218 1.268 . S
C203 O209 1.268 . S
C203 O217 1.268 . S
C204 O210 1.268 . S
C204 O219 1.268 . S
C205 O211 1.268 . S
C205 O215 1.268 . S
C206 O212 1.268 . S
C206 O214 1.268 . S
C207 O213 1.268 . S
C207 O216 1.268 . S
O208 Sc198 2.105 . S
O208 C202 1.268 . S
O209 Sc199 2.105 . S
O209 C203 1.268 . S
O210 Sc200 2.105 . S
O210 C204 1.268 . S
O211 Sc198 2.105 . S
O211 C205 1.268 . S
O212 Sc200 2.105 . S
O212 C206 1.268 . S
O213 Sc199 2.105 . S
O213 C207 1.268 . S
O214 Sc198 2.105 . S
O214 C206 1.268 . S
O215 Sc199 2.105 . S
O215 C205 1.268 . S
O216 Sc200 2.105 . S
O216 C207 1.268 . S
O217 Sc198 2.105 . S
O217 C203 1.268 . S
O218 Sc200 2.105 . S
O218 C202 1.268 . S
O219 Sc199 2.105 . S
O219 C204 1.268 . S
Sc220 O223 2.025 . S
Sc220 O230 2.105 . S
Sc220 O233 2.105 . S
Sc220 O236 2.105 . S
Sc220 O239 2.105 . S
Sc221 O223 2.025 . S
Sc221 O231 2.105 . S
Sc221 O235 2.105 . S
Sc221 O237 2.105 . S
Sc221 O241 2.105 . S
Sc222 O223 2.025 . S
Sc222 O232 2.105 . S
Sc222 O234 2.105 . S
Sc222 O238 2.105 . S
Sc222 O240 2.105 . S
O223 Sc220 2.025 . S
O223 Sc221 2.025 . S
O223 Sc222 2.025 . S
C224 O230 1.268 . S
C224 O240 1.268 . S
C225 O231 1.268 . S
C225 O239 1.268 . S
C226 O232 1.268 . S
C226 O241 1.268 . S
C227 O233 1.268 . S
C227 O237 1.268 . S
C228 O234 1.268 . S
C228 O236 1.268 . S
C229 O235 1.268 . S
C229 O238 1.268 . S
O230 Sc220 2.105 . S
O230 C224 1.268 . S
O231 Sc221 2.105 . S
O231 C225 1.268 . S
O232 Sc222 2.105 . S
O232 C226 1.268 . S
O233 Sc220 2.105 . S
O233 C227 1.268 . S
O234 Sc222 2.105 . S
O234 C228 1.268 . S
O235 Sc221 2.105 . S
O235 C229 1.268 . S
O236 Sc220 2.105 . S
O236 C228 1.268 . S
O237 Sc221 2.105 . S
O237 C227 1.268 . S
O238 Sc222 2.105 . S
O238 C229 1.268 . S
O239 Sc220 2.105 . S
O239 C225 1.268 . S
O240 Sc222 2.105 . S
O240 C224 1.268 . S
O241 Sc221 2.105 . S
O241 C226 1.268 . S
Sc242 O245 2.025 . S
Sc242 O252 2.105 . S
Sc242 O255 2.105 . S
Sc242 O258 2.105 . S
Sc242 O261 2.105 . S
Sc243 O245 2.025 . S
Sc243 O253 2.105 . S
Sc243 O257 2.105 . S
Sc243 O259 2.105 . S
Sc243 O263 2.105 . S
Sc244 O245 2.025 . S
Sc244 O254 2.105 . S
Sc244 O256 2.105 . S
Sc244 O260 2.105 . S
Sc244 O262 2.105 . S
O245 Sc242 2.025 . S
O245 Sc243 2.025 . S
O245 Sc244 2.025 . S
C246 O252 1.268 . S
C246 O262 1.268 . S
C247 O253 1.268 . S
C247 O261 1.268 . S
C248 O254 1.268 . S
C248 O263 1.268 . S
C249 O255 1.268 . S
C249 O259 1.268 . S
C250 O256 1.268 . S
C250 O258 1.268 . S
C251 O257 1.268 . S
C251 O260 1.268 . S
O252 Sc242 2.105 . S
O252 C246 1.268 . S
O253 Sc243 2.105 . S
O253 C247 1.268 . S
O254 Sc244 2.105 . S
O254 C248 1.268 . S
O255 Sc242 2.105 . S
O255 C249 1.268 . S
O256 Sc244 2.105 . S
O256 C250 1.268 . S
O257 Sc243 2.105 . S
O257 C251 1.268 . S
O258 Sc242 2.105 . S
O258 C250 1.268 . S
O259 Sc243 2.105 . S
O259 C249 1.268 . S
O260 Sc244 2.105 . S
O260 C251 1.268 . S
O261 Sc242 2.105 . S
O261 C247 1.268 . S
O262 Sc244 2.105 . S
O262 C246 1.268 . S
O263 Sc243 2.105 . S
O263 C248 1.268 . S
Sc264 O267 2.025 . S
Sc264 O274 2.105 . S
Sc264 O277 2.105 . S
Sc264 O280 2.105 . S
Sc264 O283 2.105 . S
Sc265 O267 2.025 . S
Sc265 O275 2.105 . S
Sc265 O279 2.105 . S
Sc265 O281 2.105 . S
Sc265 O285 2.105 . S
Sc266 O267 2.025 . S
Sc266 O276 2.105 . S
Sc266 O278 2.105 . S
Sc266 O282 2.105 . S
Sc266 O284 2.105 . S
O267 Sc264 2.025 . S
O267 Sc265 2.025 . S
O267 Sc266 2.025 . S
C268 O274 1.268 . S
C268 O284 1.268 . S
C269 O275 1.268 . S
C269 O283 1.268 . S
C270 O276 1.268 . S
C270 O285 1.268 . S
C271 O277 1.268 . S
C271 O281 1.268 . S
C272 O278 1.268 . S
C272 O280 1.268 . S
C273 O279 1.268 . S
C273 O282 1.268 . S
O274 Sc264 2.105 . S
O274 C268 1.268 . S
O275 Sc265 2.105 . S
O275 C269 1.268 . S
O276 Sc266 2.105 . S
O276 C270 1.268 . S
O277 Sc264 2.105 . S
O277 C271 1.268 . S
O278 Sc266 2.105 . S
O278 C272 1.268 . S
O279 Sc265 2.105 . S
O279 C273 1.268 . S
O280 Sc264 2.105 . S
O280 C272 1.268 . S
O281 Sc265 2.105 . S
O281 C271 1.268 . S
O282 Sc266 2.105 . S
O282 C273 1.268 . S
O283 Sc264 2.105 . S
O283 C269 1.268 . S
O284 Sc266 2.105 . S
O284 C268 1.268 . S
O285 Sc265 2.105 . S
O285 C270 1.268 . S
Sc286 O289 2.025 . S
Sc286 O296 2.105 . S
Sc286 O299 2.105 . S
Sc286 O302 2.105 . S
Sc286 O305 2.105 . S
Sc287 O289 2.025 . S
Sc287 O297 2.105 . S
Sc287 O301 2.105 . S
Sc287 O303 2.105 . S
Sc287 O307 2.105 . S
Sc288 O289 2.025 . S
Sc288 O298 2.105 . S
Sc288 O300 2.105 . S
Sc288 O304 2.105 . S
Sc288 O306 2.105 . S
O289 Sc286 2.025 . S
O289 Sc287 2.025 . S
O289 Sc288 2.025 . S
C290 O296 1.268 . S
C290 O306 1.268 . S
C291 O297 1.268 . S
C291 O305 1.268 . S
C292 O298 1.268 . S
C292 O307 1.268 . S
C293 O299 1.268 . S
C293 O303 1.268 . S
C294 O300 1.268 . S
C294 O302 1.268 . S
C295 O301 1.268 . S
C295 O304 1.268 . S
O296 Sc286 2.105 . S
O296 C290 1.268 . S
O297 Sc287 2.105 . S
O297 C291 1.268 . S
O298 Sc288 2.105 . S
O298 C292 1.268 . S
O299 Sc286 2.105 . S
O299 C293 1.268 . S
O300 Sc288 2.105 . S
O300 C294 1.268 . S
O301 Sc287 2.105 . S
O301 C295 1.268 . S
O302 Sc286 2.105 . S
O302 C294 1.268 . S
O303 Sc287 2.105 . S
O303 C293 1.268 . S
O304 Sc288 2.105 . S
O304 C295 1.268 . S
O305 Sc286 2.105 . S
O305 C291 1.268 . S
O306 Sc288 2.105 . S
O306 C290 1.268 . S
O307 Sc287 2.105 . S
O307 C292 1.268 . S
Sc308 O311 2.025 . S
Sc308 O318 2.105 . S
Sc308 O321 2.105 . S
Sc308 O324 2.105 . S
Sc308 O327 2.105 . S
Sc309 O311 2.025 . S
Sc309 O319 2.105 . S
Sc309 O323 2.105 . S
Sc309 O325 2.105 . S
Sc309 O329 2.105 . S
Sc310 O311 2.025 . S
Sc310 O320 2.105 . S
Sc310 O322 2.105 . S
Sc310 O326 2.105 . S
Sc310 O328 2.105 . S
O311 Sc308 2.025 . S
O311 Sc309 2.025 . S
O311 Sc310 2.025 . S
C312 O318 1.268 . S
C312 O328 1.268 . S
C313 O319 1.268 . S
C313 O327 1.268 . S
C314 O320 1.268 . S
C314 O329 1.268 . S
C315 O321 1.268 . S
C315 O325 1.268 . S
C316 O322 1.268 . S
C316 O324 1.268 . S
C317 O323 1.268 . S
C317 O326 1.268 . S
O318 Sc308 2.105 . S
O318 C312 1.268 . S
O319 Sc309 2.105 . S
O319 C313 1.268 . S
O320 Sc310 2.105 . S
O320 C314 1.268 . S
O321 Sc308 2.105 . S
O321 C315 1.268 . S
O322 Sc310 2.105 . S
O322 C316 1.268 . S
O323 Sc309 2.105 . S
O323 C317 1.268 . S
O324 Sc308 2.105 . S
O324 C316 1.268 . S
O325 Sc309 2.105 . S
O325 C315 1.268 . S
O326 Sc310 2.105 . S
O326 C317 1.268 . S
O327 Sc308 2.105 . S
O327 C313 1.268 . S
O328 Sc310 2.105 . S
O328 C312 1.268 . S
O329 Sc309 2.105 . S
O329 C314 1.268 . S
Sc330 O333 2.025 . S
Sc330 O340 2.105 . S
Sc330 O343 2.105 . S
Sc330 O346 2.105 . S
Sc330 O349 2.105 . S
Sc331 O333 2.025 . S
Sc331 O341 2.105 . S
Sc331 O345 2.105 . S
Sc331 O347 2.105 . S
Sc331 O351 2.105 . S
Sc332 O333 2.025 . S
Sc332 O342 2.105 . S
Sc332 O344 2.105 . S
Sc332 O348 2.105 . S
Sc332 O350 2.105 . S
O333 Sc330 2.025 . S
O333 Sc331 2.025 . S
O333 Sc332 2.025 . S
C334 O340 1.268 . S
C334 O350 1.268 . S
C335 O341 1.268 . S
C335 O349 1.268 . S
C336 O342 1.268 . S
C336 O351 1.268 . S
C337 O343 1.268 . S
C337 O347 1.268 . S
C338 O344 1.268 . S
C338 O346 1.268 . S
C339 O345 1.268 . S
C339 O348 1.268 . S
O340 Sc330 2.105 . S
O340 C334 1.268 . S
O341 Sc331 2.105 . S
O341 C335 1.268 . S
O342 Sc332 2.105 . S
O342 C336 1.268 . S
O343 Sc330 2.105 . S
O343 C337 1.268 . S
O344 Sc332 2.105 . S
O344 C338 1.268 . S
O345 Sc331 2.105 . S
O345 C339 1.268 . S
O346 Sc330 2.105 . S
O346 C338 1.268 . S
O347 Sc331 2.105 . S
O347 C337 1.268 . S
O348 Sc332 2.105 . S
O348 C339 1.268 . S
O349 Sc330 2.105 . S
O349 C335 1.268 . S
O350 Sc332 2.105 . S
O350 C334 1.268 . S
O351 Sc331 2.105 . S
O351 C336 1.268 . S
H352 C360 0.929 . S
H353 C362 0.930 . S
H354 C364 0.930 . S
H355 C367 0.929 . S
H356 C370 0.930 . S
H357 C372 0.960 . S
H358 C372 0.960 . S
H359 C372 0.960 . S
C360 H352 0.929 . S
C360 C361 1.377 . S
C360 C362 1.384 . S
C361 C360 1.377 . S
C361 C367 1.390 . S
C362 H353 0.930 . S
C362 C360 1.384 . S
C362 C363 1.372 . S
C363 C362 1.372 . S
C363 C364 1.400 . S
C363 C368 1.490 . S
C364 H354 0.930 . S
C364 C363 1.400 . S
C364 C367 1.386 . S
H365 C381 0.930 . S
H366 C382 0.931 . S
C367 H355 0.929 . S
C367 C361 1.390 . S
C367 C364 1.386 . S
C368 C363 1.490 . S
C368 C370 1.395 . S
C368 C371 1.403 . S
H369 C375 0.930 . S
C370 H356 0.930 . S
C370 C368 1.395 . S
C370 C373 1.403 . S
C371 C368 1.403 . S
C371 C372 1.524 . S
C371 C375 1.400 . S
C372 H357 0.960 . S
C372 H358 0.960 . S
C372 H359 0.960 . S
C372 C371 1.524 . S
C373 C370 1.403 . S
C373 C374 1.392 . S
C373 C377 1.495 . S
C374 C373 1.392 . S
C374 C375 1.385 . S
C374 C376 1.478 . S
C375 H369 0.930 . S
C375 C371 1.400 . S
C375 C374 1.385 . S
C376 C374 1.478 . S
C376 C378 1.381 . S
C376 C382 1.383 . S
C377 C373 1.495 . S
C377 H383 0.959 . S
C377 H384 0.961 . S
C377 H385 0.960 . S
C378 C376 1.381 . S
C378 C379 1.394 . S
C378 H386 0.930 . S
C379 C378 1.394 . S
C379 C380 1.383 . S
C379 H387 0.929 . S
C380 C379 1.383 . S
C380 C381 1.377 . S
C381 H365 0.930 . S
C381 C380 1.377 . S
C381 C382 1.379 . S
C382 H366 0.931 . S
C382 C376 1.383 . S
C382 C381 1.379 . S
H383 C377 0.959 . S
H384 C377 0.961 . S
H385 C377 0.960 . S
H386 C378 0.930 . S
H387 C379 0.929 . S
H388 C396 0.929 . S
H389 C398 0.930 . S
H390 C400 0.930 . S
H391 C403 0.929 . S
H392 C406 0.930 . S
H393 C408 0.960 . S
H394 C408 0.960 . S
H395 C408 0.960 . S
C396 H388 0.929 . S
C396 C397 1.377 . S
C396 C398 1.384 . S
C397 C396 1.377 . S
C397 C403 1.390 . S
C398 H389 0.930 . S
C398 C396 1.384 . S
C398 C399 1.372 . S
C399 C398 1.372 . S
C399 C400 1.400 . S
C399 C404 1.490 . S
C400 H390 0.930 . S
C400 C399 1.400 . S
C400 C403 1.386 . S
H401 C417 0.930 . S
H402 C418 0.931 . S
C403 H391 0.929 . S
C403 C397 1.390 . S
C403 C400 1.386 . S
C404 C399 1.490 . S
C404 C406 1.395 . S
C404 C407 1.403 . S
H405 C411 0.930 . S
C406 H392 0.930 . S
C406 C404 1.395 . S
C406 C409 1.403 . S
C407 C404 1.403 . S
C407 C408 1.524 . S
C407 C411 1.400 . S
C408 H393 0.960 . S
C408 H394 0.960 . S
C408 H395 0.960 . S
C408 C407 1.524 . S
C409 C406 1.403 . S
C409 C410 1.392 . S
C409 C413 1.495 . S
C410 C409 1.392 . S
C410 C411 1.385 . S
C410 C412 1.478 . S
C411 H405 0.930 . S
C411 C407 1.400 . S
C411 C410 1.385 . S
C412 C410 1.478 . S
C412 C414 1.381 . S
C412 C418 1.383 . S
C413 C409 1.495 . S
C413 H419 0.959 . S
C413 H420 0.961 . S
C413 H421 0.960 . S
C414 C412 1.381 . S
C414 C415 1.394 . S
C414 H422 0.930 . S
C415 C414 1.394 . S
C415 C416 1.383 . S
C415 H423 0.929 . S
C416 C415 1.383 . S
C416 C417 1.377 . S
C417 H401 0.930 . S
C417 C416 1.377 . S
C417 C418 1.379 . S
C418 H402 0.931 . S
C418 C412 1.383 . S
C418 C417 1.379 . S
H419 C413 0.959 . S
H420 C413 0.961 . S
H421 C413 0.960 . S
H422 C414 0.930 . S
H423 C415 0.929 . S
H424 C432 0.929 . S
H425 C434 0.930 . S
H426 C436 0.930 . S
H427 C439 0.929 . S
H428 C442 0.930 . S
H429 C444 0.960 . S
H430 C444 0.960 . S
H431 C444 0.960 . S
C432 H424 0.929 . S
C432 C433 1.377 . S
C432 C434 1.384 . S
C433 C432 1.377 . S
C433 C439 1.390 . S
C434 H425 0.930 . S
C434 C432 1.384 . S
C434 C435 1.372 . S
C435 C434 1.372 . S
C435 C436 1.400 . S
C435 C440 1.490 . S
C436 H426 0.930 . S
C436 C435 1.400 . S
C436 C439 1.386 . S
H437 C453 0.930 . S
H438 C454 0.931 . S
C439 H427 0.929 . S
C439 C433 1.390 . S
C439 C436 1.386 . S
C440 C435 1.490 . S
C440 C442 1.395 . S
C440 C443 1.403 . S
H441 C447 0.930 . S
C442 H428 0.930 . S
C442 C440 1.395 . S
C442 C445 1.403 . S
C443 C440 1.403 . S
C443 C444 1.524 . S
C443 C447 1.400 . S
C444 H429 0.960 . S
C444 H430 0.960 . S
C444 H431 0.960 . S
C444 C443 1.524 . S
C445 C442 1.403 . S
C445 C446 1.392 . S
C445 C449 1.495 . S
C446 C445 1.392 . S
C446 C447 1.385 . S
C446 C448 1.478 . S
C447 H441 0.930 . S
C447 C443 1.400 . S
C447 C446 1.385 . S
C448 C446 1.478 . S
C448 C450 1.381 . S
C448 C454 1.383 . S
C449 C445 1.495 . S
C449 H455 0.959 . S
C449 H456 0.961 . S
C449 H457 0.960 . S
C450 C448 1.381 . S
C450 C451 1.394 . S
C450 H458 0.930 . S
C451 C450 1.394 . S
C451 C452 1.383 . S
C451 H459 0.929 . S
C452 C451 1.383 . S
C452 C453 1.377 . S
C453 H437 0.930 . S
C453 C452 1.377 . S
C453 C454 1.379 . S
C454 H438 0.931 . S
C454 C448 1.383 . S
C454 C453 1.379 . S
H455 C449 0.959 . S
H456 C449 0.961 . S
H457 C449 0.960 . S
H458 C450 0.930 . S
H459 C451 0.929 . S
H460 C468 0.929 . S
H461 C470 0.930 . S
H462 C472 0.930 . S
H463 C475 0.929 . S
H464 C478 0.930 . S
H465 C480 0.960 . S
H466 C480 0.960 . S
H467 C480 0.960 . S
C468 H460 0.929 . S
C468 C469 1.377 . S
C468 C470 1.384 . S
C469 C468 1.377 . S
C469 C475 1.390 . S
C470 H461 0.930 . S
C470 C468 1.384 . S
C470 C471 1.372 . S
C471 C470 1.372 . S
C471 C472 1.400 . S
C471 C476 1.490 . S
C472 H462 0.930 . S
C472 C471 1.400 . S
C472 C475 1.386 . S
H473 C489 0.930 . S
H474 C490 0.931 . S
C475 H463 0.929 . S
C475 C469 1.390 . S
C475 C472 1.386 . S
C476 C471 1.490 . S
C476 C478 1.395 . S
C476 C479 1.403 . S
H477 C483 0.930 . S
C478 H464 0.930 . S
C478 C476 1.395 . S
C478 C481 1.403 . S
C479 C476 1.403 . S
C479 C480 1.524 . S
C479 C483 1.400 . S
C480 H465 0.960 . S
C480 H466 0.960 . S
C480 H467 0.960 . S
C480 C479 1.524 . S
C481 C478 1.403 . S
C481 C482 1.392 . S
C481 C485 1.495 . S
C482 C481 1.392 . S
C482 C483 1.385 . S
C482 C484 1.478 . S
C483 H477 0.930 . S
C483 C479 1.400 . S
C483 C482 1.385 . S
C484 C482 1.478 . S
C484 C486 1.381 . S
C484 C490 1.383 . S
C485 C481 1.495 . S
C485 H491 0.959 . S
C485 H492 0.961 . S
C485 H493 0.960 . S
C486 C484 1.381 . S
C486 C487 1.394 . S
C486 H494 0.930 . S
C487 C486 1.394 . S
C487 C488 1.383 . S
C487 H495 0.929 . S
C488 C487 1.383 . S
C488 C489 1.377 . S
C489 H473 0.930 . S
C489 C488 1.377 . S
C489 C490 1.379 . S
C490 H474 0.931 . S
C490 C484 1.383 . S
C490 C489 1.379 . S
H491 C485 0.959 . S
H492 C485 0.961 . S
H493 C485 0.960 . S
H494 C486 0.930 . S
H495 C487 0.929 . S
H496 C504 0.929 . S
H497 C506 0.930 . S
H498 C508 0.930 . S
H499 C511 0.929 . S
H500 C514 0.930 . S
H501 C516 0.960 . S
H502 C516 0.960 . S
H503 C516 0.960 . S
C504 H496 0.929 . S
C504 C505 1.377 . S
C504 C506 1.384 . S
C505 C504 1.377 . S
C505 C511 1.390 . S
C506 H497 0.930 . S
C506 C504 1.384 . S
C506 C507 1.372 . S
C507 C506 1.372 . S
C507 C508 1.400 . S
C507 C512 1.490 . S
C508 H498 0.930 . S
C508 C507 1.400 . S
C508 C511 1.386 . S
H509 C525 0.930 . S
H510 C526 0.931 . S
C511 H499 0.929 . S
C511 C505 1.390 . S
C511 C508 1.386 . S
C512 C507 1.490 . S
C512 C514 1.395 . S
C512 C515 1.403 . S
H513 C519 0.930 . S
C514 H500 0.930 . S
C514 C512 1.395 . S
C514 C517 1.403 . S
C515 C512 1.403 . S
C515 C516 1.524 . S
C515 C519 1.400 . S
C516 H501 0.960 . S
C516 H502 0.960 . S
C516 H503 0.960 . S
C516 C515 1.524 . S
C517 C514 1.403 . S
C517 C518 1.392 . S
C517 C521 1.495 . S
C518 C517 1.392 . S
C518 C519 1.385 . S
C518 C520 1.478 . S
C519 H513 0.930 . S
C519 C515 1.400 . S
C519 C518 1.385 . S
C520 C518 1.478 . S
C520 C522 1.381 . S
C520 C526 1.383 . S
C521 C517 1.495 . S
C521 H527 0.959 . S
C521 H528 0.961 . S
C521 H529 0.960 . S
C522 C520 1.381 . S
C522 C523 1.394 . S
C522 H530 0.930 . S
C523 C522 1.394 . S
C523 C524 1.383 . S
C523 H531 0.929 . S
C524 C523 1.383 . S
C524 C525 1.377 . S
C525 H509 0.930 . S
C525 C524 1.377 . S
C525 C526 1.379 . S
C526 H510 0.931 . S
C526 C520 1.383 . S
C526 C525 1.379 . S
H527 C521 0.959 . S
H528 C521 0.961 . S
H529 C521 0.960 . S
H530 C522 0.930 . S
H531 C523 0.929 . S
H532 C540 0.929 . S
H533 C542 0.930 . S
H534 C544 0.930 . S
H535 C547 0.929 . S
H536 C550 0.930 . S
H537 C552 0.960 . S
H538 C552 0.960 . S
H539 C552 0.960 . S
C540 H532 0.929 . S
C540 C541 1.377 . S
C540 C542 1.384 . S
C541 C540 1.377 . S
C541 C547 1.390 . S
C542 H533 0.930 . S
C542 C540 1.384 . S
C542 C543 1.372 . S
C543 C542 1.372 . S
C543 C544 1.400 . S
C543 C548 1.490 . S
C544 H534 0.930 . S
C544 C543 1.400 . S
C544 C547 1.386 . S
H545 C561 0.930 . S
H546 C562 0.931 . S
C547 H535 0.929 . S
C547 C541 1.390 . S
C547 C544 1.386 . S
C548 C543 1.490 . S
C548 C550 1.395 . S
C548 C551 1.403 . S
H549 C555 0.930 . S
C550 H536 0.930 . S
C550 C548 1.395 . S
C550 C553 1.403 . S
C551 C548 1.403 . S
C551 C552 1.524 . S
C551 C555 1.400 . S
C552 H537 0.960 . S
C552 H538 0.960 . S
C552 H539 0.960 . S
C552 C551 1.524 . S
C553 C550 1.403 . S
C553 C554 1.392 . S
C553 C557 1.495 . S
C554 C553 1.392 . S
C554 C555 1.385 . S
C554 C556 1.478 . S
C555 H549 0.930 . S
C555 C551 1.400 . S
C555 C554 1.385 . S
C556 C554 1.478 . S
C556 C558 1.381 . S
C556 C562 1.383 . S
C557 C553 1.495 . S
C557 H563 0.959 . S
C557 H564 0.961 . S
C557 H565 0.960 . S
C558 C556 1.381 . S
C558 C559 1.394 . S
C558 H566 0.930 . S
C559 C558 1.394 . S
C559 C560 1.383 . S
C559 H567 0.929 . S
C560 C559 1.383 . S
C560 C561 1.377 . S
C561 H545 0.930 . S
C561 C560 1.377 . S
C561 C562 1.379 . S
C562 H546 0.931 . S
C562 C556 1.383 . S
C562 C561 1.379 . S
H563 C557 0.959 . S
H564 C557 0.961 . S
H565 C557 0.960 . S
H566 C558 0.930 . S
H567 C559 0.929 . S
H568 C576 0.929 . S
H569 C578 0.930 . S
H570 C580 0.930 . S
H571 C583 0.929 . S
H572 C586 0.930 . S
H573 C588 0.960 . S
H574 C588 0.960 . S
H575 C588 0.960 . S
C576 H568 0.929 . S
C576 C577 1.377 . S
C576 C578 1.384 . S
C577 C576 1.377 . S
C577 C583 1.390 . S
C578 H569 0.930 . S
C578 C576 1.384 . S
C578 C579 1.372 . S
C579 C578 1.372 . S
C579 C580 1.400 . S
C579 C584 1.490 . S
C580 H570 0.930 . S
C580 C579 1.400 . S
C580 C583 1.386 . S
H581 C597 0.930 . S
H582 C598 0.931 . S
C583 H571 0.929 . S
C583 C577 1.390 . S
C583 C580 1.386 . S
C584 C579 1.490 . S
C584 C586 1.395 . S
C584 C587 1.403 . S
H585 C591 0.930 . S
C586 H572 0.930 . S
C586 C584 1.395 . S
C586 C589 1.403 . S
C587 C584 1.403 . S
C587 C588 1.524 . S
C587 C591 1.400 . S
C588 H573 0.960 . S
C588 H574 0.960 . S
C588 H575 0.960 . S
C588 C587 1.524 . S
C589 C586 1.403 . S
C589 C590 1.392 . S
C589 C593 1.495 . S
C590 C589 1.392 . S
C590 C591 1.385 . S
C590 C592 1.478 . S
C591 H585 0.930 . S
C591 C587 1.400 . S
C591 C590 1.385 . S
C592 C590 1.478 . S
C592 C594 1.381 . S
C592 C598 1.383 . S
C593 C589 1.495 . S
C593 H599 0.959 . S
C593 H600 0.961 . S
C593 H601 0.960 . S
C594 C592 1.381 . S
C594 C595 1.394 . S
C594 H602 0.930 . S
C595 C594 1.394 . S
C595 C596 1.383 . S
C595 H603 0.929 . S
C596 C595 1.383 . S
C596 C597 1.377 . S
C597 H581 0.930 . S
C597 C596 1.377 . S
C597 C598 1.379 . S
C598 H582 0.931 . S
C598 C592 1.383 . S
C598 C597 1.379 . S
H599 C593 0.959 . S
H600 C593 0.961 . S
H601 C593 0.960 . S
H602 C594 0.930 . S
H603 C595 0.929 . S
H604 C612 0.929 . S
H605 C614 0.930 . S
H606 C616 0.930 . S
H607 C619 0.929 . S
H608 C622 0.930 . S
H609 C624 0.960 . S
H610 C624 0.960 . S
H611 C624 0.960 . S
C612 H604 0.929 . S
C612 C613 1.377 . S
C612 C614 1.384 . S
C613 C612 1.377 . S
C613 C619 1.390 . S
C614 H605 0.930 . S
C614 C612 1.384 . S
C614 C615 1.372 . S
C615 C614 1.372 . S
C615 C616 1.400 . S
C615 C620 1.490 . S
C616 H606 0.930 . S
C616 C615 1.400 . S
C616 C619 1.386 . S
H617 C633 0.930 . S
H618 C634 0.931 . S
C619 H607 0.929 . S
C619 C613 1.390 . S
C619 C616 1.386 . S
C620 C615 1.490 . S
C620 C622 1.395 . S
C620 C623 1.403 . S
H621 C627 0.930 . S
C622 H608 0.930 . S
C622 C620 1.395 . S
C622 C625 1.403 . S
C623 C620 1.403 . S
C623 C624 1.524 . S
C623 C627 1.400 . S
C624 H609 0.960 . S
C624 H610 0.960 . S
C624 H611 0.960 . S
C624 C623 1.524 . S
C625 C622 1.403 . S
C625 C626 1.392 . S
C625 C629 1.495 . S
C626 C625 1.392 . S
C626 C627 1.385 . S
C626 C628 1.478 . S
C627 H621 0.930 . S
C627 C623 1.400 . S
C627 C626 1.385 . S
C628 C626 1.478 . S
C628 C630 1.381 . S
C628 C634 1.383 . S
C629 C625 1.495 . S
C629 H635 0.959 . S
C629 H636 0.961 . S
C629 H637 0.960 . S
C630 C628 1.381 . S
C630 C631 1.394 . S
C630 H638 0.930 . S
C631 C630 1.394 . S
C631 C632 1.383 . S
C631 H639 0.929 . S
C632 C631 1.383 . S
C632 C633 1.377 . S
C633 H617 0.930 . S
C633 C632 1.377 . S
C633 C634 1.379 . S
C634 H618 0.931 . S
C634 C628 1.383 . S
C634 C633 1.379 . S
H635 C629 0.959 . S
H636 C629 0.961 . S
H637 C629 0.960 . S
H638 C630 0.930 . S
H639 C631 0.929 . S
H640 C648 0.929 . S
H641 C650 0.930 . S
H642 C652 0.930 . S
H643 C655 0.929 . S
H644 C658 0.930 . S
H645 C660 0.960 . S
H646 C660 0.960 . S
H647 C660 0.960 . S
C648 H640 0.929 . S
C648 C649 1.377 . S
C648 C650 1.384 . S
C649 C648 1.377 . S
C649 C655 1.390 . S
C650 H641 0.930 . S
C650 C648 1.384 . S
C650 C651 1.372 . S
C651 C650 1.372 . S
C651 C652 1.400 . S
C651 C656 1.490 . S
C652 H642 0.930 . S
C652 C651 1.400 . S
C652 C655 1.386 . S
H653 C669 0.930 . S
H654 C670 0.931 . S
C655 H643 0.929 . S
C655 C649 1.390 . S
C655 C652 1.386 . S
C656 C651 1.490 . S
C656 C658 1.395 . S
C656 C659 1.403 . S
H657 C663 0.930 . S
C658 H644 0.930 . S
C658 C656 1.395 . S
C658 C661 1.403 . S
C659 C656 1.403 . S
C659 C660 1.524 . S
C659 C663 1.400 . S
C660 H645 0.960 . S
C660 H646 0.960 . S
C660 H647 0.960 . S
C660 C659 1.524 . S
C661 C658 1.403 . S
C661 C662 1.392 . S
C661 C665 1.495 . S
C662 C661 1.392 . S
C662 C663 1.385 . S
C662 C664 1.478 . S
C663 H657 0.930 . S
C663 C659 1.400 . S
C663 C662 1.385 . S
C664 C662 1.478 . S
C664 C666 1.381 . S
C664 C670 1.383 . S
C665 C661 1.495 . S
C665 H671 0.959 . S
C665 H672 0.961 . S
C665 H673 0.960 . S
C666 C664 1.381 . S
C666 C667 1.394 . S
C666 H674 0.930 . S
C667 C666 1.394 . S
C667 C668 1.383 . S
C667 H675 0.929 . S
C668 C667 1.383 . S
C668 C669 1.377 . S
C669 H653 0.930 . S
C669 C668 1.377 . S
C669 C670 1.379 . S
C670 H654 0.931 . S
C670 C664 1.383 . S
C670 C669 1.379 . S
H671 C665 0.959 . S
H672 C665 0.961 . S
H673 C665 0.960 . S
H674 C666 0.930 . S
H675 C667 0.929 . S
H676 C684 0.929 . S
H677 C686 0.930 . S
H678 C688 0.930 . S
H679 C691 0.929 . S
H680 C694 0.930 . S
H681 C696 0.960 . S
H682 C696 0.960 . S
H683 C696 0.960 . S
C684 H676 0.929 . S
C684 C685 1.377 . S
C684 C686 1.384 . S
C685 C684 1.377 . S
C685 C691 1.390 . S
C686 H677 0.930 . S
C686 C684 1.384 . S
C686 C687 1.372 . S
C687 C686 1.372 . S
C687 C688 1.400 . S
C687 C692 1.490 . S
C688 H678 0.930 . S
C688 C687 1.400 . S
C688 C691 1.386 . S
H689 C705 0.930 . S
H690 C706 0.931 . S
C691 H679 0.929 . S
C691 C685 1.390 . S
C691 C688 1.386 . S
C692 C687 1.490 . S
C692 C694 1.395 . S
C692 C695 1.403 . S
H693 C699 0.930 . S
C694 H680 0.930 . S
C694 C692 1.395 . S
C694 C697 1.403 . S
C695 C692 1.403 . S
C695 C696 1.524 . S
C695 C699 1.400 . S
C696 H681 0.960 . S
C696 H682 0.960 . S
C696 H683 0.960 . S
C696 C695 1.524 . S
C697 C694 1.403 . S
C697 C698 1.392 . S
C697 C701 1.495 . S
C698 C697 1.392 . S
C698 C699 1.385 . S
C698 C700 1.478 . S
C699 H693 0.930 . S
C699 C695 1.400 . S
C699 C698 1.385 . S
C700 C698 1.478 . S
C700 C702 1.381 . S
C700 C706 1.383 . S
C701 C697 1.495 . S
C701 H707 0.959 . S
C701 H708 0.961 . S
C701 H709 0.960 . S
C702 C700 1.381 . S
C702 C703 1.394 . S
C702 H710 0.930 . S
C703 C702 1.394 . S
C703 C704 1.383 . S
C703 H711 0.929 . S
C704 C703 1.383 . S
C704 C705 1.377 . S
C705 H689 0.930 . S
C705 C704 1.377 . S
C705 C706 1.379 . S
C706 H690 0.931 . S
C706 C700 1.383 . S
C706 C705 1.379 . S
H707 C701 0.959 . S
H708 C701 0.961 . S
H709 C701 0.960 . S
H710 C702 0.930 . S
H711 C703 0.929 . S
H712 C720 0.929 . S
H713 C722 0.930 . S
H714 C724 0.930 . S
H715 C727 0.929 . S
H716 C730 0.930 . S
H717 C732 0.960 . S
H718 C732 0.960 . S
H719 C732 0.960 . S
C720 H712 0.929 . S
C720 C721 1.377 . S
C720 C722 1.384 . S
C721 C720 1.377 . S
C721 C727 1.390 . S
C722 H713 0.930 . S
C722 C720 1.384 . S
C722 C723 1.372 . S
C723 C722 1.372 . S
C723 C724 1.400 . S
C723 C728 1.490 . S
C724 H714 0.930 . S
C724 C723 1.400 . S
C724 C727 1.386 . S
H725 C741 0.930 . S
H726 C742 0.931 . S
C727 H715 0.929 . S
C727 C721 1.390 . S
C727 C724 1.386 . S
C728 C723 1.490 . S
C728 C730 1.395 . S
C728 C731 1.403 . S
H729 C735 0.930 . S
C730 H716 0.930 . S
C730 C728 1.395 . S
C730 C733 1.403 . S
C731 C728 1.403 . S
C731 C732 1.524 . S
C731 C735 1.400 . S
C732 H717 0.960 . S
C732 H718 0.960 . S
C732 H719 0.960 . S
C732 C731 1.524 . S
C733 C730 1.403 . S
C733 C734 1.392 . S
C733 C737 1.495 . S
C734 C733 1.392 . S
C734 C735 1.385 . S
C734 C736 1.478 . S
C735 H729 0.930 . S
C735 C731 1.400 . S
C735 C734 1.385 . S
C736 C734 1.478 . S
C736 C738 1.381 . S
C736 C742 1.383 . S
C737 C733 1.495 . S
C737 H743 0.959 . S
C737 H744 0.961 . S
C737 H745 0.960 . S
C738 C736 1.381 . S
C738 C739 1.394 . S
C738 H746 0.930 . S
C739 C738 1.394 . S
C739 C740 1.383 . S
C739 H747 0.929 . S
C740 C739 1.383 . S
C740 C741 1.377 . S
C741 H725 0.930 . S
C741 C740 1.377 . S
C741 C742 1.379 . S
C742 H726 0.931 . S
C742 C736 1.383 . S
C742 C741 1.379 . S
H743 C737 0.959 . S
H744 C737 0.961 . S
H745 C737 0.960 . S
H746 C738 0.930 . S
H747 C739 0.929 . S
H748 C756 0.929 . S
H749 C758 0.930 . S
H750 C760 0.930 . S
H751 C763 0.929 . S
H752 C766 0.930 . S
H753 C768 0.960 . S
H754 C768 0.960 . S
H755 C768 0.960 . S
C756 H748 0.929 . S
C756 C757 1.377 . S
C756 C758 1.384 . S
C757 C756 1.377 . S
C757 C763 1.390 . S
C758 H749 0.930 . S
C758 C756 1.384 . S
C758 C759 1.372 . S
C759 C758 1.372 . S
C759 C760 1.400 . S
C759 C764 1.490 . S
C760 H750 0.930 . S
C760 C759 1.400 . S
C760 C763 1.386 . S
H761 C777 0.930 . S
H762 C778 0.931 . S
C763 H751 0.929 . S
C763 C757 1.390 . S
C763 C760 1.386 . S
C764 C759 1.490 . S
C764 C766 1.395 . S
C764 C767 1.403 . S
H765 C771 0.930 . S
C766 H752 0.930 . S
C766 C764 1.395 . S
C766 C769 1.403 . S
C767 C764 1.403 . S
C767 C768 1.524 . S
C767 C771 1.400 . S
C768 H753 0.960 . S
C768 H754 0.960 . S
C768 H755 0.960 . S
C768 C767 1.524 . S
C769 C766 1.403 . S
C769 C770 1.392 . S
C769 C773 1.495 . S
C770 C769 1.392 . S
C770 C771 1.385 . S
C770 C772 1.478 . S
C771 H765 0.930 . S
C771 C767 1.400 . S
C771 C770 1.385 . S
C772 C770 1.478 . S
C772 C774 1.381 . S
C772 C778 1.383 . S
C773 C769 1.495 . S
C773 H779 0.959 . S
C773 H780 0.961 . S
C773 H781 0.960 . S
C774 C772 1.381 . S
C774 C775 1.394 . S
C774 H782 0.930 . S
C775 C774 1.394 . S
C775 C776 1.383 . S
C775 H783 0.929 . S
C776 C775 1.383 . S
C776 C777 1.377 . S
C777 H761 0.930 . S
C777 C776 1.377 . S
C777 C778 1.379 . S
C778 H762 0.931 . S
C778 C772 1.383 . S
C778 C777 1.379 . S
H779 C773 0.959 . S
H780 C773 0.961 . S
H781 C773 0.960 . S
H782 C774 0.930 . S
H783 C775 0.929 . S
H784 C792 0.929 . S
H785 C794 0.930 . S
H786 C796 0.930 . S
H787 C799 0.929 . S
H788 C802 0.930 . S
H789 C804 0.960 . S
H790 C804 0.960 . S
H791 C804 0.960 . S
C792 H784 0.929 . S
C792 C793 1.377 . S
C792 C794 1.384 . S
C793 C792 1.377 . S
C793 C799 1.390 . S
C794 H785 0.930 . S
C794 C792 1.384 . S
C794 C795 1.372 . S
C795 C794 1.372 . S
C795 C796 1.400 . S
C795 C800 1.490 . S
C796 H786 0.930 . S
C796 C795 1.400 . S
C796 C799 1.386 . S
H797 C813 0.930 . S
H798 C814 0.931 . S
C799 H787 0.929 . S
C799 C793 1.390 . S
C799 C796 1.386 . S
C800 C795 1.490 . S
C800 C802 1.395 . S
C800 C803 1.403 . S
H801 C807 0.930 . S
C802 H788 0.930 . S
C802 C800 1.395 . S
C802 C805 1.403 . S
C803 C800 1.403 . S
C803 C804 1.524 . S
C803 C807 1.400 . S
C804 H789 0.960 . S
C804 H790 0.960 . S
C804 H791 0.960 . S
C804 C803 1.524 . S
C805 C802 1.403 . S
C805 C806 1.392 . S
C805 C809 1.495 . S
C806 C805 1.392 . S
C806 C807 1.385 . S
C806 C808 1.478 . S
C807 H801 0.930 . S
C807 C803 1.400 . S
C807 C806 1.385 . S
C808 C806 1.478 . S
C808 C810 1.381 . S
C808 C814 1.383 . S
C809 C805 1.495 . S
C809 H815 0.959 . S
C809 H816 0.961 . S
C809 H817 0.960 . S
C810 C808 1.381 . S
C810 C811 1.394 . S
C810 H818 0.930 . S
C811 C810 1.394 . S
C811 C812 1.383 . S
C811 H819 0.929 . S
C812 C811 1.383 . S
C812 C813 1.377 . S
C813 H797 0.930 . S
C813 C812 1.377 . S
C813 C814 1.379 . S
C814 H798 0.931 . S
C814 C808 1.383 . S
C814 C813 1.379 . S
H815 C809 0.959 . S
H816 C809 0.961 . S
H817 C809 0.960 . S
H818 C810 0.930 . S
H819 C811 0.929 . S
H820 C828 0.929 . S
H821 C830 0.930 . S
H822 C832 0.930 . S
H823 C835 0.929 . S
H824 C838 0.930 . S
H825 C840 0.960 . S
H826 C840 0.960 . S
H827 C840 0.960 . S
C828 H820 0.929 . S
C828 C829 1.377 . S
C828 C830 1.384 . S
C829 C828 1.377 . S
C829 C835 1.390 . S
C830 H821 0.930 . S
C830 C828 1.384 . S
C830 C831 1.372 . S
C831 C830 1.372 . S
C831 C832 1.400 . S
C831 C836 1.490 . S
C832 H822 0.930 . S
C832 C831 1.400 . S
C832 C835 1.386 . S
H833 C849 0.930 . S
H834 C850 0.931 . S
C835 H823 0.929 . S
C835 C829 1.390 . S
C835 C832 1.386 . S
C836 C831 1.490 . S
C836 C838 1.395 . S
C836 C839 1.403 . S
H837 C843 0.930 . S
C838 H824 0.930 . S
C838 C836 1.395 . S
C838 C841 1.403 . S
C839 C836 1.403 . S
C839 C840 1.524 . S
C839 C843 1.400 . S
C840 H825 0.960 . S
C840 H826 0.960 . S
C840 H827 0.960 . S
C840 C839 1.524 . S
C841 C838 1.403 . S
C841 C842 1.392 . S
C841 C845 1.495 . S
C842 C841 1.392 . S
C842 C843 1.385 . S
C842 C844 1.478 . S
C843 H837 0.930 . S
C843 C839 1.400 . S
C843 C842 1.385 . S
C844 C842 1.478 . S
C844 C846 1.381 . S
C844 C850 1.383 . S
C845 C841 1.495 . S
C845 H851 0.959 . S
C845 H852 0.961 . S
C845 H853 0.960 . S
C846 C844 1.381 . S
C846 C847 1.394 . S
C846 H854 0.930 . S
C847 C846 1.394 . S
C847 C848 1.383 . S
C847 H855 0.929 . S
C848 C847 1.383 . S
C848 C849 1.377 . S
C849 H833 0.930 . S
C849 C848 1.377 . S
C849 C850 1.379 . S
C850 H834 0.931 . S
C850 C844 1.383 . S
C850 C849 1.379 . S
H851 C845 0.959 . S
H852 C845 0.961 . S
H853 C845 0.960 . S
H854 C846 0.930 . S
H855 C847 0.929 . S
H856 C864 0.929 . S
H857 C866 0.930 . S
H858 C868 0.930 . S
H859 C871 0.929 . S
H860 C874 0.930 . S
H861 C876 0.960 . S
H862 C876 0.960 . S
H863 C876 0.960 . S
C864 H856 0.929 . S
C864 C865 1.377 . S
C864 C866 1.384 . S
C865 C864 1.377 . S
C865 C871 1.390 . S
C866 H857 0.930 . S
C866 C864 1.384 . S
C866 C867 1.372 . S
C867 C866 1.372 . S
C867 C868 1.400 . S
C867 C872 1.490 . S
C868 H858 0.930 . S
C868 C867 1.400 . S
C868 C871 1.386 . S
H869 C885 0.930 . S
H870 C886 0.931 . S
C871 H859 0.929 . S
C871 C865 1.390 . S
C871 C868 1.386 . S
C872 C867 1.490 . S
C872 C874 1.395 . S
C872 C875 1.403 . S
H873 C879 0.930 . S
C874 H860 0.930 . S
C874 C872 1.395 . S
C874 C877 1.403 . S
C875 C872 1.403 . S
C875 C876 1.524 . S
C875 C879 1.400 . S
C876 H861 0.960 . S
C876 H862 0.960 . S
C876 H863 0.960 . S
C876 C875 1.524 . S
C877 C874 1.403 . S
C877 C878 1.392 . S
C877 C881 1.495 . S
C878 C877 1.392 . S
C878 C879 1.385 . S
C878 C880 1.478 . S
C879 H873 0.930 . S
C879 C875 1.400 . S
C879 C878 1.385 . S
C880 C878 1.478 . S
C880 C882 1.381 . S
C880 C886 1.383 . S
C881 C877 1.495 . S
C881 H887 0.959 . S
C881 H888 0.961 . S
C881 H889 0.960 . S
C882 C880 1.381 . S
C882 C883 1.394 . S
C882 H890 0.930 . S
C883 C882 1.394 . S
C883 C884 1.383 . S
C883 H891 0.929 . S
C884 C883 1.383 . S
C884 C885 1.377 . S
C885 H869 0.930 . S
C885 C884 1.377 . S
C885 C886 1.379 . S
C886 H870 0.931 . S
C886 C880 1.383 . S
C886 C885 1.379 . S
H887 C881 0.959 . S
H888 C881 0.961 . S
H889 C881 0.960 . S
H890 C882 0.930 . S
H891 C883 0.929 . S
H892 C900 0.929 . S
H893 C902 0.930 . S
H894 C904 0.930 . S
H895 C907 0.929 . S
H896 C910 0.930 . S
H897 C912 0.960 . S
H898 C912 0.960 . S
H899 C912 0.960 . S
C900 H892 0.929 . S
C900 C901 1.377 . S
C900 C902 1.384 . S
C901 C900 1.377 . S
C901 C907 1.390 . S
C902 H893 0.930 . S
C902 C900 1.384 . S
C902 C903 1.372 . S
C903 C902 1.372 . S
C903 C904 1.400 . S
C903 C908 1.490 . S
C904 H894 0.930 . S
C904 C903 1.400 . S
C904 C907 1.386 . S
H905 C921 0.930 . S
H906 C922 0.931 . S
C907 H895 0.929 . S
C907 C901 1.390 . S
C907 C904 1.386 . S
C908 C903 1.490 . S
C908 C910 1.395 . S
C908 C911 1.403 . S
H909 C915 0.930 . S
C910 H896 0.930 . S
C910 C908 1.395 . S
C910 C913 1.403 . S
C911 C908 1.403 . S
C911 C912 1.524 . S
C911 C915 1.400 . S
C912 H897 0.960 . S
C912 H898 0.960 . S
C912 H899 0.960 . S
C912 C911 1.524 . S
C913 C910 1.403 . S
C913 C914 1.392 . S
C913 C917 1.495 . S
C914 C913 1.392 . S
C914 C915 1.385 . S
C914 C916 1.478 . S
C915 H909 0.930 . S
C915 C911 1.400 . S
C915 C914 1.385 . S
C916 C914 1.478 . S
C916 C918 1.381 . S
C916 C922 1.383 . S
C917 C913 1.495 . S
C917 H923 0.959 . S
C917 H924 0.961 . S
C917 H925 0.960 . S
C918 C916 1.381 . S
C918 C919 1.394 . S
C918 H926 0.930 . S
C919 C918 1.394 . S
C919 C920 1.383 . S
C919 H927 0.929 . S
C920 C919 1.383 . S
C920 C921 1.377 . S
C921 H905 0.930 . S
C921 C920 1.377 . S
C921 C922 1.379 . S
C922 H906 0.931 . S
C922 C916 1.383 . S
C922 C921 1.379 . S
H923 C917 0.959 . S
H924 C917 0.961 . S
H925 C917 0.960 . S
H926 C918 0.930 . S
H927 C919 0.929 . S
H928 C936 0.929 . S
H929 C938 0.930 . S
H930 C940 0.930 . S
H931 C943 0.929 . S
H932 C946 0.930 . S
H933 C948 0.960 1_556 S
H934 C948 0.960 . S
H935 C948 0.960 . S
C936 H928 0.929 . S
C936 C937 1.377 . S
C936 C938 1.384 . S
C937 C936 1.377 . S
C937 C943 1.390 . S
C938 H929 0.930 . S
C938 C936 1.384 . S
C938 C939 1.372 . S
C939 C938 1.372 . S
C939 C940 1.400 . S
C939 C944 1.490 1_554 S
C940 H930 0.930 . S
C940 C939 1.400 . S
C940 C943 1.386 . S
H941 C957 0.930 . S
H942 C958 0.931 . S
C943 H931 0.929 . S
C943 C937 1.390 . S
C943 C940 1.386 . S
C944 C939 1.490 1_556 S
C944 C946 1.395 . S
C944 C947 1.403 . S
H945 C951 0.930 . S
C946 H932 0.930 . S
C946 C944 1.395 . S
C946 C949 1.403 . S
C947 C944 1.403 . S
C947 C948 1.524 1_556 S
C947 C951 1.400 . S
C948 H933 0.960 1_554 S
C948 H934 0.960 . S
C948 H935 0.960 . S
C948 C947 1.524 1_554 S
C949 C946 1.403 . S
C949 C950 1.392 . S
C949 C953 1.495 . S
C950 C949 1.392 . S
C950 C951 1.385 . S
C950 C952 1.478 . S
C951 H945 0.930 . S
C951 C947 1.400 . S
C951 C950 1.385 . S
C952 C950 1.478 . S
C952 C954 1.381 . S
C952 C958 1.383 . S
C953 C949 1.495 . S
C953 H959 0.959 . S
C953 H960 0.961 . S
C953 H961 0.960 . S
C954 C952 1.381 . S
C954 C955 1.394 . S
C954 H962 0.930 . S
C955 C954 1.394 . S
C955 C956 1.383 . S
C955 H963 0.929 . S
C956 C955 1.383 . S
C956 C957 1.377 . S
C957 H941 0.930 . S
C957 C956 1.377 . S
C957 C958 1.379 . S
C958 H942 0.931 . S
C958 C952 1.383 . S
C958 C957 1.379 . S
H959 C953 0.959 . S
H960 C953 0.961 . S
H961 C953 0.960 . S
H962 C954 0.930 . S
H963 C955 0.929 . S
H964 C972 0.929 . S
H965 C974 0.930 . S
H966 C976 0.930 . S
H967 C979 0.929 . S
H968 C982 0.930 . S
H969 C984 0.960 . S
H970 C984 0.960 . S
H971 C984 0.960 . S
C972 H964 0.929 . S
C972 C973 1.377 . S
C972 C974 1.384 . S
C973 C972 1.377 . S
C973 C979 1.390 . S
C974 H965 0.930 . S
C974 C972 1.384 . S
C974 C975 1.372 . S
C975 C974 1.372 . S
C975 C976 1.400 . S
C975 C980 1.490 . S
C976 H966 0.930 . S
C976 C975 1.400 . S
C976 C979 1.386 . S
H977 C993 0.930 . S
H978 C994 0.931 . S
C979 H967 0.929 . S
C979 C973 1.390 . S
C979 C976 1.386 . S
C980 C975 1.490 . S
C980 C982 1.395 . S
C980 C983 1.403 . S
H981 C987 0.930 . S
C982 H968 0.930 . S
C982 C980 1.395 . S
C982 C985 1.403 . S
C983 C980 1.403 . S
C983 C984 1.524 . S
C983 C987 1.400 . S
C984 H969 0.960 . S
C984 H970 0.960 . S
C984 H971 0.960 . S
C984 C983 1.524 . S
C985 C982 1.403 . S
C985 C986 1.392 . S
C985 C989 1.495 . S
C986 C985 1.392 . S
C986 C987 1.385 . S
C986 C988 1.478 . S
C987 H981 0.930 . S
C987 C983 1.400 . S
C987 C986 1.385 . S
C988 C986 1.478 . S
C988 C990 1.381 . S
C988 C994 1.383 . S
C989 C985 1.495 . S
C989 H995 0.959 . S
C989 H996 0.961 . S
C989 H997 0.960 . S
C990 C988 1.381 . S
C990 C991 1.394 . S
C990 H998 0.930 . S
C991 C990 1.394 . S
C991 C992 1.383 . S
C991 H999 0.929 . S
C992 C991 1.383 . S
C992 C993 1.377 . S
C993 H977 0.930 . S
C993 C992 1.377 . S
C993 C994 1.379 . S
C994 H978 0.931 . S
C994 C988 1.383 . S
C994 C993 1.379 . S
H995 C989 0.959 . S
H996 C989 0.961 . S
H997 C989 0.960 . S
H998 C990 0.930 . S
H999 C991 0.929 . S
H1000 C1008 0.929 . S
H1001 C1010 0.930 . S
H1002 C1012 0.930 . S
H1003 C1015 0.929 . S
H1004 C1018 0.930 . S
H1005 C1020 0.960 . S
H1006 C1020 0.960 . S
H1007 C1020 0.960 . S
C1008 H1000 0.929 . S
C1008 C1009 1.377 . S
C1008 C1010 1.384 . S
C1009 C1008 1.377 . S
C1009 C1015 1.390 . S
C1010 H1001 0.930 . S
C1010 C1008 1.384 . S
C1010 C1011 1.372 . S
C1011 C1010 1.372 . S
C1011 C1012 1.400 . S
C1011 C1016 1.490 1_554 S
C1012 H1002 0.930 . S
C1012 C1011 1.400 . S
C1012 C1015 1.386 . S
H1013 C1029 0.930 . S
H1014 C1030 0.931 . S
C1015 H1003 0.929 . S
C1015 C1009 1.390 . S
C1015 C1012 1.386 . S
C1016 C1011 1.490 1_556 S
C1016 C1018 1.395 . S
C1016 C1019 1.403 . S
H1017 C1023 0.930 . S
C1018 H1004 0.930 . S
C1018 C1016 1.395 . S
C1018 C1021 1.403 . S
C1019 C1016 1.403 . S
C1019 C1020 1.524 . S
C1019 C1023 1.400 . S
C1020 H1005 0.960 . S
C1020 H1006 0.960 . S
C1020 H1007 0.960 . S
C1020 C1019 1.524 . S
C1021 C1018 1.403 . S
C1021 C1022 1.392 . S
C1021 C1025 1.495 . S
C1022 C1021 1.392 . S
C1022 C1023 1.385 . S
C1022 C1024 1.478 . S
C1023 H1017 0.930 . S
C1023 C1019 1.400 . S
C1023 C1022 1.385 . S
C1024 C1022 1.478 . S
C1024 C1026 1.381 . S
C1024 C1030 1.383 . S
C1025 C1021 1.495 . S
C1025 H1031 0.959 . S
C1025 H1032 0.961 . S
C1025 H1033 0.960 . S
C1026 C1024 1.381 . S
C1026 C1027 1.394 . S
C1026 H1034 0.930 . S
C1027 C1026 1.394 . S
C1027 C1028 1.383 . S
C1027 H1035 0.929 . S
C1028 C1027 1.383 . S
C1028 C1029 1.377 . S
C1029 H1013 0.930 . S
C1029 C1028 1.377 . S
C1029 C1030 1.379 . S
C1030 H1014 0.931 . S
C1030 C1024 1.383 . S
C1030 C1029 1.379 . S
H1031 C1025 0.959 . S
H1032 C1025 0.961 . S
H1033 C1025 0.960 . S
H1034 C1026 0.930 . S
H1035 C1027 0.929 . S
H1036 C1044 0.929 . S
H1037 C1046 0.930 . S
H1038 C1048 0.930 . S
H1039 C1051 0.929 . S
H1040 C1054 0.930 . S
H1041 C1056 0.960 . S
H1042 C1056 0.960 . S
H1043 C1056 0.960 . S
C1044 H1036 0.929 . S
C1044 C1045 1.377 . S
C1044 C1046 1.384 . S
C1045 C1044 1.377 . S
C1045 C1051 1.390 . S
C1046 H1037 0.930 . S
C1046 C1044 1.384 . S
C1046 C1047 1.372 . S
C1047 C1046 1.372 . S
C1047 C1048 1.400 . S
C1047 C1052 1.490 . S
C1048 H1038 0.930 . S
C1048 C1047 1.400 . S
C1048 C1051 1.386 . S
H1049 C1065 0.930 . S
H1050 C1066 0.931 . S
C1051 H1039 0.929 . S
C1051 C1045 1.390 . S
C1051 C1048 1.386 . S
C1052 C1047 1.490 . S
C1052 C1054 1.395 . S
C1052 C1055 1.403 . S
H1053 C1059 0.930 . S
C1054 H1040 0.930 . S
C1054 C1052 1.395 . S
C1054 C1057 1.403 . S
C1055 C1052 1.403 . S
C1055 C1056 1.524 . S
C1055 C1059 1.400 . S
C1056 H1041 0.960 . S
C1056 H1042 0.960 . S
C1056 H1043 0.960 . S
C1056 C1055 1.524 . S
C1057 C1054 1.403 . S
C1057 C1058 1.392 . S
C1057 C1061 1.495 . S
C1058 C1057 1.392 . S
C1058 C1059 1.385 . S
C1058 C1060 1.478 . S
C1059 H1053 0.930 . S
C1059 C1055 1.400 . S
C1059 C1058 1.385 . S
C1060 C1058 1.478 . S
C1060 C1062 1.381 . S
C1060 C1066 1.383 . S
C1061 C1057 1.495 . S
C1061 H1067 0.959 . S
C1061 H1068 0.961 . S
C1061 H1069 0.960 . S
C1062 C1060 1.381 . S
C1062 C1063 1.394 . S
C1062 H1070 0.930 . S
C1063 C1062 1.394 . S
C1063 C1064 1.383 . S
C1063 H1071 0.929 . S
C1064 C1063 1.383 . S
C1064 C1065 1.377 . S
C1065 H1049 0.930 . S
C1065 C1064 1.377 . S
C1065 C1066 1.379 . S
C1066 H1050 0.931 . S
C1066 C1060 1.383 . S
C1066 C1065 1.379 . S
H1067 C1061 0.959 . S
H1068 C1061 0.961 . S
H1069 C1061 0.960 . S
H1070 C1062 0.930 . S
H1071 C1063 0.929 . S
H1072 C1080 0.929 . S
H1073 C1082 0.930 . S
H1074 C1084 0.930 . S
H1075 C1087 0.929 . S
H1076 C1090 0.930 1_556 S
H1077 C1092 0.960 . S
H1078 C1092 0.960 . S
H1079 C1092 0.960 . S
C1080 H1072 0.929 . S
C1080 C1081 1.377 . S
C1080 C1082 1.384 . S
C1081 C1080 1.377 . S
C1081 C1087 1.390 . S
C1082 H1073 0.930 . S
C1082 C1080 1.384 . S
C1082 C1083 1.372 . S
C1083 C1082 1.372 . S
C1083 C1084 1.400 . S
C1083 C1088 1.490 1_556 S
C1084 H1074 0.930 . S
C1084 C1083 1.400 . S
C1084 C1087 1.386 . S
H1085 C1101 0.930 . S
H1086 C1102 0.931 . S
C1087 H1075 0.929 . S
C1087 C1081 1.390 . S
C1087 C1084 1.386 . S
C1088 C1083 1.490 1_554 S
C1088 C1090 1.395 . S
C1088 C1091 1.403 . S
H1089 C1095 0.930 . S
C1090 H1076 0.930 1_554 S
C1090 C1088 1.395 . S
C1090 C1093 1.403 . S
C1091 C1088 1.403 . S
C1091 C1092 1.524 . S
C1091 C1095 1.400 . S
C1092 H1077 0.960 . S
C1092 H1078 0.960 . S
C1092 H1079 0.960 . S
C1092 C1091 1.524 . S
C1093 C1090 1.403 . S
C1093 C1094 1.392 . S
C1093 C1097 1.495 . S
C1094 C1093 1.392 . S
C1094 C1095 1.385 . S
C1094 C1096 1.478 . S
C1095 H1089 0.930 . S
C1095 C1091 1.400 . S
C1095 C1094 1.385 . S
C1096 C1094 1.478 . S
C1096 C1098 1.381 . S
C1096 C1102 1.383 . S
C1097 C1093 1.495 . S
C1097 H1103 0.959 . S
C1097 H1104 0.961 . S
C1097 H1105 0.960 . S
C1098 C1096 1.381 . S
C1098 C1099 1.394 . S
C1098 H1106 0.930 . S
C1099 C1098 1.394 . S
C1099 C1100 1.383 . S
C1099 H1107 0.929 . S
C1100 C1099 1.383 . S
C1100 C1101 1.377 . S
C1101 H1085 0.930 . S
C1101 C1100 1.377 . S
C1101 C1102 1.379 . S
C1102 H1086 0.931 . S
C1102 C1096 1.383 . S
C1102 C1101 1.379 . S
H1103 C1097 0.959 . S
H1104 C1097 0.961 . S
H1105 C1097 0.960 . S
H1106 C1098 0.930 . S
H1107 C1099 0.929 . S
H1108 C1116 0.929 . S
H1109 C1118 0.930 . S
H1110 C1120 0.930 . S
H1111 C1123 0.929 . S
H1112 C1126 0.930 . S
H1113 C1128 0.960 . S
H1114 C1128 0.960 . S
H1115 C1128 0.960 . S
C1116 H1108 0.929 . S
C1116 C1117 1.377 . S
C1116 C1118 1.384 . S
C1117 C1116 1.377 . S
C1117 C1123 1.390 . S
C1118 H1109 0.930 . S
C1118 C1116 1.384 . S
C1118 C1119 1.372 . S
C1119 C1118 1.372 . S
C1119 C1120 1.400 . S
C1119 C1124 1.490 . S
C1120 H1110 0.930 . S
C1120 C1119 1.400 . S
C1120 C1123 1.386 . S
H1121 C1137 0.930 . S
H1122 C1138 0.931 . S
C1123 H1111 0.929 . S
C1123 C1117 1.390 . S
C1123 C1120 1.386 . S
C1124 C1119 1.490 . S
C1124 C1126 1.395 . S
C1124 C1127 1.403 . S
H1125 C1131 0.930 . S
C1126 H1112 0.930 . S
C1126 C1124 1.395 . S
C1126 C1129 1.403 . S
C1127 C1124 1.403 . S
C1127 C1128 1.524 . S
C1127 C1131 1.400 . S
C1128 H1113 0.960 . S
C1128 H1114 0.960 . S
C1128 H1115 0.960 . S
C1128 C1127 1.524 . S
C1129 C1126 1.403 . S
C1129 C1130 1.392 . S
C1129 C1133 1.495 . S
C1130 C1129 1.392 . S
C1130 C1131 1.385 . S
C1130 C1132 1.478 . S
C1131 H1125 0.930 . S
C1131 C1127 1.400 . S
C1131 C1130 1.385 . S
C1132 C1130 1.478 . S
C1132 C1134 1.381 . S
C1132 C1138 1.383 . S
C1133 C1129 1.495 . S
C1133 H1139 0.959 . S
C1133 H1140 0.961 . S
C1133 H1141 0.960 . S
C1134 C1132 1.381 . S
C1134 C1135 1.394 . S
C1134 H1142 0.930 . S
C1135 C1134 1.394 . S
C1135 C1136 1.383 . S
C1135 H1143 0.929 . S
C1136 C1135 1.383 . S
C1136 C1137 1.377 . S
C1137 H1121 0.930 . S
C1137 C1136 1.377 . S
C1137 C1138 1.379 . S
C1138 H1122 0.931 . S
C1138 C1132 1.383 . S
C1138 C1137 1.379 . S
H1139 C1133 0.959 . S
H1140 C1133 0.961 . S
H1141 C1133 0.960 . S
H1142 C1134 0.930 . S
H1143 C1135 0.929 . S
H1144 C1152 0.929 . S
H1145 C1154 0.930 . S
H1146 C1156 0.930 . S
H1147 C1159 0.929 . S
H1148 C1162 0.930 1_556 S
H1149 C1164 0.960 . S
H1150 C1164 0.960 . S
H1151 C1164 0.960 . S
C1152 H1144 0.929 . S
C1152 C1153 1.377 . S
C1152 C1154 1.384 . S
C1153 C1152 1.377 . S
C1153 C1159 1.390 . S
C1154 H1145 0.930 . S
C1154 C1152 1.384 . S
C1154 C1155 1.372 . S
C1155 C1154 1.372 . S
C1155 C1156 1.400 . S
C1155 C1160 1.490 1_556 S
C1156 H1146 0.930 . S
C1156 C1155 1.400 . S
C1156 C1159 1.386 . S
H1157 C1173 0.930 . S
H1158 C1174 0.931 . S
C1159 H1147 0.929 . S
C1159 C1153 1.390 . S
C1159 C1156 1.386 . S
C1160 C1155 1.490 1_554 S
C1160 C1162 1.395 . S
C1160 C1163 1.403 . S
H1161 C1167 0.930 . S
C1162 H1148 0.930 1_554 S
C1162 C1160 1.395 . S
C1162 C1165 1.403 . S
C1163 C1160 1.403 . S
C1163 C1164 1.524 . S
C1163 C1167 1.400 . S
C1164 H1149 0.960 . S
C1164 H1150 0.960 . S
C1164 H1151 0.960 . S
C1164 C1163 1.524 . S
C1165 C1162 1.403 . S
C1165 C1166 1.392 . S
C1165 C1169 1.495 . S
C1166 C1165 1.392 . S
C1166 C1167 1.385 . S
C1166 C1168 1.478 . S
C1167 H1161 0.930 . S
C1167 C1163 1.400 . S
C1167 C1166 1.385 . S
C1168 C1166 1.478 . S
C1168 C1170 1.381 . S
C1168 C1174 1.383 . S
C1169 C1165 1.495 . S
C1169 H1175 0.959 . S
C1169 H1176 0.961 . S
C1169 H1177 0.960 . S
C1170 C1168 1.381 . S
C1170 C1171 1.394 . S
C1170 H1178 0.930 . S
C1171 C1170 1.394 . S
C1171 C1172 1.383 . S
C1171 H1179 0.929 . S
C1172 C1171 1.383 . S
C1172 C1173 1.377 . S
C1173 H1157 0.930 . S
C1173 C1172 1.377 . S
C1173 C1174 1.379 . S
C1174 H1158 0.931 . S
C1174 C1168 1.383 . S
C1174 C1173 1.379 . S
H1175 C1169 0.959 . S
H1176 C1169 0.961 . S
H1177 C1169 0.960 . S
H1178 C1170 0.930 . S
H1179 C1171 0.929 . S
H1180 C1188 0.929 . S
H1181 C1190 0.930 . S
H1182 C1192 0.930 . S
H1183 C1195 0.929 . S
H1184 C1198 0.930 . S
H1185 C1200 0.960 . S
H1186 C1200 0.960 . S
H1187 C1200 0.960 . S
C1188 H1180 0.929 . S
C1188 C1189 1.377 . S
C1188 C1190 1.384 . S
C1189 C1188 1.377 . S
C1189 C1195 1.390 . S
C1190 H1181 0.930 . S
C1190 C1188 1.384 . S
C1190 C1191 1.372 . S
C1191 C1190 1.372 . S
C1191 C1192 1.400 . S
C1191 C1196 1.490 . S
C1192 H1182 0.930 . S
C1192 C1191 1.400 . S
C1192 C1195 1.386 . S
H1193 C1209 0.930 . S
H1194 C1210 0.931 . S
C1195 H1183 0.929 . S
C1195 C1189 1.390 . S
C1195 C1192 1.386 . S
C1196 C1191 1.490 . S
C1196 C1198 1.395 . S
C1196 C1199 1.403 . S
H1197 C1203 0.930 . S
C1198 H1184 0.930 . S
C1198 C1196 1.395 . S
C1198 C1201 1.403 . S
C1199 C1196 1.403 . S
C1199 C1200 1.524 . S
C1199 C1203 1.400 . S
C1200 H1185 0.960 . S
C1200 H1186 0.960 . S
C1200 H1187 0.960 . S
C1200 C1199 1.524 . S
C1201 C1198 1.403 . S
C1201 C1202 1.392 . S
C1201 C1205 1.495 . S
C1202 C1201 1.392 . S
C1202 C1203 1.385 . S
C1202 C1204 1.478 . S
C1203 H1197 0.930 . S
C1203 C1199 1.400 . S
C1203 C1202 1.385 . S
C1204 C1202 1.478 . S
C1204 C1206 1.381 . S
C1204 C1210 1.383 . S
C1205 C1201 1.495 . S
C1205 H1211 0.959 . S
C1205 H1212 0.961 . S
C1205 H1213 0.960 . S
C1206 C1204 1.381 . S
C1206 C1207 1.394 . S
C1206 H1214 0.930 . S
C1207 C1206 1.394 . S
C1207 C1208 1.383 . S
C1207 H1215 0.929 . S
C1208 C1207 1.383 . S
C1208 C1209 1.377 . S
C1209 H1193 0.930 . S
C1209 C1208 1.377 . S
C1209 C1210 1.379 . S
C1210 H1194 0.931 . S
C1210 C1204 1.383 . S
C1210 C1209 1.379 . S
H1211 C1205 0.959 . S
H1212 C1205 0.961 . S
H1213 C1205 0.960 . S
H1214 C1206 0.930 . S
H1215 C1207 0.929 . S
H1216 C1224 0.929 . S
H1217 C1226 0.930 . S
H1218 C1228 0.930 . S
H1219 C1231 0.929 . S
H1220 C1234 0.930 . S
H1221 C1236 0.960 1_554 S
H1222 C1236 0.960 . S
H1223 C1236 0.960 . S
C1224 H1216 0.929 . S
C1224 C1225 1.377 . S
C1224 C1226 1.384 . S
C1225 C1224 1.377 . S
C1225 C1231 1.390 . S
C1226 H1217 0.930 . S
C1226 C1224 1.384 . S
C1226 C1227 1.372 . S
C1227 C1226 1.372 . S
C1227 C1228 1.400 . S
C1227 C1232 1.490 1_556 S
C1228 H1218 0.930 . S
C1228 C1227 1.400 . S
C1228 C1231 1.386 . S
H1229 C1245 0.930 . S
H1230 C1246 0.931 . S
C1231 H1219 0.929 . S
C1231 C1225 1.390 . S
C1231 C1228 1.386 . S
C1232 C1227 1.490 1_554 S
C1232 C1234 1.395 . S
C1232 C1235 1.403 . S
H1233 C1239 0.930 . S
C1234 H1220 0.930 . S
C1234 C1232 1.395 . S
C1234 C1237 1.403 . S
C1235 C1232 1.403 . S
C1235 C1236 1.524 1_554 S
C1235 C1239 1.400 . S
C1236 H1221 0.960 1_556 S
C1236 H1222 0.960 . S
C1236 H1223 0.960 . S
C1236 C1235 1.524 1_556 S
C1237 C1234 1.403 . S
C1237 C1238 1.392 . S
C1237 C1241 1.495 . S
C1238 C1237 1.392 . S
C1238 C1239 1.385 . S
C1238 C1240 1.478 . S
C1239 H1233 0.930 . S
C1239 C1235 1.400 . S
C1239 C1238 1.385 . S
C1240 C1238 1.478 . S
C1240 C1242 1.381 . S
C1240 C1246 1.383 . S
C1241 C1237 1.495 . S
C1241 H1247 0.959 . S
C1241 H1248 0.961 . S
C1241 H1249 0.960 . S
C1242 C1240 1.381 . S
C1242 C1243 1.394 . S
C1242 H1250 0.930 . S
C1243 C1242 1.394 . S
C1243 C1244 1.383 . S
C1243 H1251 0.929 . S
C1244 C1243 1.383 . S
C1244 C1245 1.377 . S
C1245 H1229 0.930 . S
C1245 C1244 1.377 . S
C1245 C1246 1.379 . S
C1246 H1230 0.931 . S
C1246 C1240 1.383 . S
C1246 C1245 1.379 . S
H1247 C1241 0.959 . S
H1248 C1241 0.961 . S
H1249 C1241 0.960 . S
H1250 C1242 0.930 . S
H1251 C1243 0.929 . S
H1252 C1260 0.929 . S
H1253 C1262 0.930 . S
H1254 C1264 0.930 . S
H1255 C1267 0.929 . S
H1256 C1270 0.930 . S
H1257 C1272 0.960 . S
H1258 C1272 0.960 . S
H1259 C1272 0.960 . S
C1260 H1252 0.929 . S
C1260 C1261 1.377 . S
C1260 C1262 1.384 . S
C1261 C1260 1.377 . S
C1261 C1267 1.390 . S
C1262 H1253 0.930 . S
C1262 C1260 1.384 . S
C1262 C1263 1.372 . S
C1263 C1262 1.372 . S
C1263 C1264 1.400 . S
C1263 C1268 1.490 . S
C1264 H1254 0.930 . S
C1264 C1263 1.400 . S
C1264 C1267 1.386 . S
H1265 C1281 0.930 . S
H1266 C1282 0.931 . S
C1267 H1255 0.929 . S
C1267 C1261 1.390 . S
C1267 C1264 1.386 . S
C1268 C1263 1.490 . S
C1268 C1270 1.395 . S
C1268 C1271 1.403 . S
H1269 C1275 0.930 . S
C1270 H1256 0.930 . S
C1270 C1268 1.395 . S
C1270 C1273 1.403 . S
C1271 C1268 1.403 . S
C1271 C1272 1.524 . S
C1271 C1275 1.400 . S
C1272 H1257 0.960 . S
C1272 H1258 0.960 . S
C1272 H1259 0.960 . S
C1272 C1271 1.524 . S
C1273 C1270 1.403 . S
C1273 C1274 1.392 . S
C1273 C1277 1.495 . S
C1274 C1273 1.392 . S
C1274 C1275 1.385 . S
C1274 C1276 1.478 . S
C1275 H1269 0.930 . S
C1275 C1271 1.400 . S
C1275 C1274 1.385 . S
C1276 C1274 1.478 . S
C1276 C1278 1.381 . S
C1276 C1282 1.383 . S
C1277 C1273 1.495 . S
C1277 H1283 0.959 . S
C1277 H1284 0.961 . S
C1277 H1285 0.960 . S
C1278 C1276 1.381 . S
C1278 C1279 1.394 . S
C1278 H1286 0.930 . S
C1279 C1278 1.394 . S
C1279 C1280 1.383 . S
C1279 H1287 0.929 . S
C1280 C1279 1.383 . S
C1280 C1281 1.377 . S
C1281 H1265 0.930 . S
C1281 C1280 1.377 . S
C1281 C1282 1.379 . S
C1282 H1266 0.931 . S
C1282 C1276 1.383 . S
C1282 C1281 1.379 . S
H1283 C1277 0.959 . S
H1284 C1277 0.961 . S
H1285 C1277 0.960 . S
H1286 C1278 0.930 . S
H1287 C1279 0.929 . S
H1288 C1296 0.929 . S
H1289 C1298 0.930 . S
H1290 C1300 0.930 . S
H1291 C1303 0.929 . S
H1292 C1306 0.930 . S
H1293 C1308 0.960 . S
H1294 C1308 0.960 . S
H1295 C1308 0.960 . S
C1296 H1288 0.929 . S
C1296 C1297 1.377 . S
C1296 C1298 1.384 . S
C1297 C1296 1.377 . S
C1297 C1303 1.390 . S
C1298 H1289 0.930 . S
C1298 C1296 1.384 . S
C1298 C1299 1.372 . S
C1299 C1298 1.372 . S
C1299 C1300 1.400 . S
C1299 C1304 1.490 1_556 S
C1300 H1290 0.930 . S
C1300 C1299 1.400 . S
C1300 C1303 1.386 . S
H1301 C1317 0.930 . S
H1302 C1318 0.931 . S
C1303 H1291 0.929 . S
C1303 C1297 1.390 . S
C1303 C1300 1.386 . S
C1304 C1299 1.490 1_554 S
C1304 C1306 1.395 . S
C1304 C1307 1.403 . S
H1305 C1311 0.930 . S
C1306 H1292 0.930 . S
C1306 C1304 1.395 . S
C1306 C1309 1.403 . S
C1307 C1304 1.403 . S
C1307 C1308 1.524 1_554 S
C1307 C1311 1.400 . S
C1308 H1293 0.960 . S
C1308 H1294 0.960 . S
C1308 H1295 0.960 . S
C1308 C1307 1.524 1_556 S
C1309 C1306 1.403 . S
C1309 C1310 1.392 . S
C1309 C1313 1.495 . S
C1310 C1309 1.392 . S
C1310 C1311 1.385 . S
C1310 C1312 1.478 . S
C1311 H1305 0.930 . S
C1311 C1307 1.400 . S
C1311 C1310 1.385 . S
C1312 C1310 1.478 . S
C1312 C1314 1.381 . S
C1312 C1318 1.383 . S
C1313 C1309 1.495 . S
C1313 H1319 0.959 . S
C1313 H1320 0.961 . S
C1313 H1321 0.960 . S
C1314 C1312 1.381 . S
C1314 C1315 1.394 . S
C1314 H1322 0.930 . S
C1315 C1314 1.394 . S
C1315 C1316 1.383 . S
C1315 H1323 0.929 . S
C1316 C1315 1.383 . S
C1316 C1317 1.377 . S
C1317 H1301 0.930 . S
C1317 C1316 1.377 . S
C1317 C1318 1.379 . S
C1318 H1302 0.931 . S
C1318 C1312 1.383 . S
C1318 C1317 1.379 . S
H1319 C1313 0.959 . S
H1320 C1313 0.961 . S
H1321 C1313 0.960 . S
H1322 C1314 0.930 . S
H1323 C1315 0.929 . S
H1324 C1332 0.929 . S
H1325 C1334 0.930 . S
H1326 C1336 0.930 . S
H1327 C1339 0.929 . S
H1328 C1342 0.930 . S
H1329 C1344 0.960 . S
H1330 C1344 0.960 . S
H1331 C1344 0.960 . S
C1332 H1324 0.929 . S
C1332 C1333 1.377 . S
C1332 C1334 1.384 . S
C1333 C1332 1.377 . S
C1333 C1339 1.390 . S
C1334 H1325 0.930 . S
C1334 C1332 1.384 . S
C1334 C1335 1.372 . S
C1335 C1334 1.372 . S
C1335 C1336 1.400 . S
C1335 C1340 1.490 . S
C1336 H1326 0.930 . S
C1336 C1335 1.400 . S
C1336 C1339 1.386 . S
H1337 C1353 0.930 . S
H1338 C1354 0.931 . S
C1339 H1327 0.929 . S
C1339 C1333 1.390 . S
C1339 C1336 1.386 . S
C1340 C1335 1.490 . S
C1340 C1342 1.395 . S
C1340 C1343 1.403 . S
H1341 C1347 0.930 . S
C1342 H1328 0.930 . S
C1342 C1340 1.395 . S
C1342 C1345 1.403 . S
C1343 C1340 1.403 . S
C1343 C1344 1.524 . S
C1343 C1347 1.400 . S
C1344 H1329 0.960 . S
C1344 H1330 0.960 . S
C1344 H1331 0.960 . S
C1344 C1343 1.524 . S
C1345 C1342 1.403 . S
C1345 C1346 1.392 . S
C1345 C1349 1.495 . S
C1346 C1345 1.392 . S
C1346 C1347 1.385 . S
C1346 C1348 1.478 . S
C1347 H1341 0.930 . S
C1347 C1343 1.400 . S
C1347 C1346 1.385 . S
C1348 C1346 1.478 . S
C1348 C1350 1.381 . S
C1348 C1354 1.383 . S
C1349 C1345 1.495 . S
C1349 H1355 0.959 . S
C1349 H1356 0.961 . S
C1349 H1357 0.960 . S
C1350 C1348 1.381 . S
C1350 C1351 1.394 . S
C1350 H1358 0.930 . S
C1351 C1350 1.394 . S
C1351 C1352 1.383 . S
C1351 H1359 0.929 . S
C1352 C1351 1.383 . S
C1352 C1353 1.377 . S
C1353 H1337 0.930 . S
C1353 C1352 1.377 . S
C1353 C1354 1.379 . S
C1354 H1338 0.931 . S
C1354 C1348 1.383 . S
C1354 C1353 1.379 . S
H1355 C1349 0.959 . S
H1356 C1349 0.961 . S
H1357 C1349 0.960 . S
H1358 C1350 0.930 . S
H1359 C1351 0.929 . S
H1360 C1368 0.929 . S
H1361 C1370 0.930 . S
H1362 C1372 0.930 . S
H1363 C1375 0.929 . S
H1364 C1378 0.930 . S
H1365 C1380 0.960 . S
H1366 C1380 0.960 . S
H1367 C1380 0.960 . S
C1368 H1360 0.929 . S
C1368 C1369 1.377 . S
C1368 C1370 1.384 . S
C1369 C1368 1.377 . S
C1369 C1375 1.390 . S
C1370 H1361 0.930 . S
C1370 C1368 1.384 . S
C1370 C1371 1.372 . S
C1371 C1370 1.372 . S
C1371 C1372 1.400 . S
C1371 C1376 1.490 . S
C1372 H1362 0.930 . S
C1372 C1371 1.400 . S
C1372 C1375 1.386 . S
H1373 C1389 0.930 . S
H1374 C1390 0.931 . S
C1375 H1363 0.929 . S
C1375 C1369 1.390 . S
C1375 C1372 1.386 . S
C1376 C1371 1.490 . S
C1376 C1378 1.395 . S
C1376 C1379 1.403 . S
H1377 C1383 0.930 . S
C1378 H1364 0.930 . S
C1378 C1376 1.395 . S
C1378 C1381 1.403 . S
C1379 C1376 1.403 . S
C1379 C1380 1.524 . S
C1379 C1383 1.400 . S
C1380 H1365 0.960 . S
C1380 H1366 0.960 . S
C1380 H1367 0.960 . S
C1380 C1379 1.524 . S
C1381 C1378 1.403 . S
C1381 C1382 1.392 . S
C1381 C1385 1.495 1_556 S
C1382 C1381 1.392 . S
C1382 C1383 1.385 . S
C1382 C1384 1.478 1_556 S
C1383 H1377 0.930 . S
C1383 C1379 1.400 . S
C1383 C1382 1.385 . S
C1384 C1382 1.478 1_554 S
C1384 C1386 1.381 . S
C1384 C1390 1.383 . S
C1385 C1381 1.495 1_554 S
C1385 H1391 0.959 . S
C1385 H1392 0.961 . S
C1385 H1393 0.960 . S
C1386 C1384 1.381 . S
C1386 C1387 1.394 . S
C1386 H1394 0.930 . S
C1387 C1386 1.394 . S
C1387 C1388 1.383 . S
C1387 H1395 0.929 . S
C1388 C1387 1.383 . S
C1388 C1389 1.377 . S
C1389 H1373 0.930 . S
C1389 C1388 1.377 . S
C1389 C1390 1.379 . S
C1390 H1374 0.931 . S
C1390 C1384 1.383 . S
C1390 C1389 1.379 . S
H1391 C1385 0.959 . S
H1392 C1385 0.961 . S
H1393 C1385 0.960 . S
H1394 C1386 0.930 . S
H1395 C1387 0.929 . S
H1396 C1404 0.929 . S
H1397 C1406 0.930 . S
H1398 C1408 0.930 . S
H1399 C1411 0.929 . S
H1400 C1414 0.930 . S
H1401 C1416 0.960 . S
H1402 C1416 0.960 . S
H1403 C1416 0.960 . S
C1404 H1396 0.929 . S
C1404 C1405 1.377 . S
C1404 C1406 1.384 . S
C1405 C1404 1.377 . S
C1405 C1411 1.390 . S
C1406 H1397 0.930 . S
C1406 C1404 1.384 . S
C1406 C1407 1.372 . S
C1407 C1406 1.372 . S
C1407 C1408 1.400 . S
C1407 C1412 1.490 . S
C1408 H1398 0.930 . S
C1408 C1407 1.400 . S
C1408 C1411 1.386 . S
H1409 C1425 0.930 . S
H1410 C1426 0.931 . S
C1411 H1399 0.929 . S
C1411 C1405 1.390 . S
C1411 C1408 1.386 . S
C1412 C1407 1.490 . S
C1412 C1414 1.395 . S
C1412 C1415 1.403 . S
H1413 C1419 0.930 . S
C1414 H1400 0.930 . S
C1414 C1412 1.395 . S
C1414 C1417 1.403 . S
C1415 C1412 1.403 . S
C1415 C1416 1.524 . S
C1415 C1419 1.400 . S
C1416 H1401 0.960 . S
C1416 H1402 0.960 . S
C1416 H1403 0.960 . S
C1416 C1415 1.524 . S
C1417 C1414 1.403 . S
C1417 C1418 1.392 . S
C1417 C1421 1.495 . S
C1418 C1417 1.392 . S
C1418 C1419 1.385 . S
C1418 C1420 1.478 . S
C1419 H1413 0.930 . S
C1419 C1415 1.400 . S
C1419 C1418 1.385 . S
C1420 C1418 1.478 . S
C1420 C1422 1.381 . S
C1420 C1426 1.383 . S
C1421 C1417 1.495 . S
C1421 H1427 0.959 . S
C1421 H1428 0.961 . S
C1421 H1429 0.960 . S
C1422 C1420 1.381 . S
C1422 C1423 1.394 . S
C1422 H1430 0.930 . S
C1423 C1422 1.394 . S
C1423 C1424 1.383 . S
C1423 H1431 0.929 . S
C1424 C1423 1.383 . S
C1424 C1425 1.377 . S
C1425 H1409 0.930 . S
C1425 C1424 1.377 . S
C1425 C1426 1.379 . S
C1426 H1410 0.931 . S
C1426 C1420 1.383 . S
C1426 C1425 1.379 . S
H1427 C1421 0.959 . S
H1428 C1421 0.961 . S
H1429 C1421 0.960 . S
H1430 C1422 0.930 . S
H1431 C1423 0.929 . S
H1432 C1440 0.929 . S
H1433 C1442 0.930 . S
H1434 C1444 0.930 . S
H1435 C1447 0.929 . S
H1436 C1450 0.930 . S
H1437 C1452 0.960 . S
H1438 C1452 0.960 . S
H1439 C1452 0.960 . S
C1440 H1432 0.929 . S
C1440 C1441 1.377 . S
C1440 C1442 1.384 . S
C1441 C1440 1.377 . S
C1441 C1447 1.390 . S
C1442 H1433 0.930 . S
C1442 C1440 1.384 . S
C1442 C1443 1.372 . S
C1443 C1442 1.372 . S
C1443 C1444 1.400 . S
C1443 C1448 1.490 . S
C1444 H1434 0.930 . S
C1444 C1443 1.400 . S
C1444 C1447 1.386 . S
H1445 C1461 0.930 . S
H1446 C1462 0.931 . S
C1447 H1435 0.929 . S
C1447 C1441 1.390 . S
C1447 C1444 1.386 . S
C1448 C1443 1.490 . S
C1448 C1450 1.395 . S
C1448 C1451 1.403 . S
H1449 C1455 0.930 . S
C1450 H1436 0.930 . S
C1450 C1448 1.395 . S
C1450 C1453 1.403 . S
C1451 C1448 1.403 . S
C1451 C1452 1.524 . S
C1451 C1455 1.400 . S
C1452 H1437 0.960 . S
C1452 H1438 0.960 . S
C1452 H1439 0.960 . S
C1452 C1451 1.524 . S
C1453 C1450 1.403 . S
C1453 C1454 1.392 . S
C1453 C1457 1.495 . S
C1454 C1453 1.392 . S
C1454 C1455 1.385 . S
C1454 C1456 1.478 1_556 S
C1455 H1449 0.930 . S
C1455 C1451 1.400 . S
C1455 C1454 1.385 . S
C1456 C1454 1.478 1_554 S
C1456 C1458 1.381 . S
C1456 C1462 1.383 . S
C1457 C1453 1.495 . S
C1457 H1463 0.959 . S
C1457 H1464 0.961 . S
C1457 H1465 0.960 . S
C1458 C1456 1.381 . S
C1458 C1459 1.394 . S
C1458 H1466 0.930 . S
C1459 C1458 1.394 . S
C1459 C1460 1.383 . S
C1459 H1467 0.929 . S
C1460 C1459 1.383 . S
C1460 C1461 1.377 . S
C1461 H1445 0.930 . S
C1461 C1460 1.377 . S
C1461 C1462 1.379 . S
C1462 H1446 0.931 . S
C1462 C1456 1.383 . S
C1462 C1461 1.379 . S
H1463 C1457 0.959 . S
H1464 C1457 0.961 . S
H1465 C1457 0.960 . S
H1466 C1458 0.930 . S
H1467 C1459 0.929 . S
H1468 C1476 0.929 . S
H1469 C1478 0.930 . S
H1470 C1480 0.930 . S
H1471 C1483 0.929 . S
H1472 C1486 0.930 . S
H1473 C1488 0.960 . S
H1474 C1488 0.960 . S
H1475 C1488 0.960 . S
C1476 H1468 0.929 . S
C1476 C1477 1.377 . S
C1476 C1478 1.384 . S
C1477 C1476 1.377 . S
C1477 C1483 1.390 . S
C1478 H1469 0.930 . S
C1478 C1476 1.384 . S
C1478 C1479 1.372 . S
C1479 C1478 1.372 . S
C1479 C1480 1.400 . S
C1479 C1484 1.490 . S
C1480 H1470 0.930 . S
C1480 C1479 1.400 . S
C1480 C1483 1.386 . S
H1481 C1497 0.930 . S
H1482 C1498 0.931 . S
C1483 H1471 0.929 . S
C1483 C1477 1.390 . S
C1483 C1480 1.386 . S
C1484 C1479 1.490 . S
C1484 C1486 1.395 . S
C1484 C1487 1.403 . S
H1485 C1491 0.930 . S
C1486 H1472 0.930 . S
C1486 C1484 1.395 . S
C1486 C1489 1.403 . S
C1487 C1484 1.403 . S
C1487 C1488 1.524 . S
C1487 C1491 1.400 . S
C1488 H1473 0.960 . S
C1488 H1474 0.960 . S
C1488 H1475 0.960 . S
C1488 C1487 1.524 . S
C1489 C1486 1.403 . S
C1489 C1490 1.392 . S
C1489 C1493 1.495 . S
C1490 C1489 1.392 . S
C1490 C1491 1.385 . S
C1490 C1492 1.478 . S
C1491 H1485 0.930 . S
C1491 C1487 1.400 . S
C1491 C1490 1.385 . S
C1492 C1490 1.478 . S
C1492 C1494 1.381 . S
C1492 C1498 1.383 . S
C1493 C1489 1.495 . S
C1493 H1499 0.959 . S
C1493 H1500 0.961 . S
C1493 H1501 0.960 . S
C1494 C1492 1.381 . S
C1494 C1495 1.394 . S
C1494 H1502 0.930 . S
C1495 C1494 1.394 . S
C1495 C1496 1.383 . S
C1495 H1503 0.929 . S
C1496 C1495 1.383 . S
C1496 C1497 1.377 . S
C1497 H1481 0.930 . S
C1497 C1496 1.377 . S
C1497 C1498 1.379 . S
C1498 H1482 0.931 . S
C1498 C1492 1.383 . S
C1498 C1497 1.379 . S
H1499 C1493 0.959 . S
H1500 C1493 0.961 . S
H1501 C1493 0.960 . S
H1502 C1494 0.930 . S
H1503 C1495 0.929 . S
H1504 C1512 0.929 . S
H1505 C1514 0.930 . S
H1506 C1516 0.930 . S
H1507 C1519 0.929 . S
H1508 C1522 0.930 . S
H1509 C1524 0.960 . S
H1510 C1524 0.960 . S
H1511 C1524 0.960 . S
C1512 H1504 0.929 . S
C1512 C1513 1.379 . S
C1512 C1514 1.384 1_565 S
C1513 C1512 1.379 . S
C1513 C1519 1.376 1_565 S
C1514 H1505 0.930 . S
C1514 C1512 1.384 1_545 S
C1514 C1515 1.372 . S
C1515 C1514 1.372 . S
C1515 C1516 1.400 . S
C1515 C1520 1.490 . S
C1516 H1506 0.930 . S
C1516 C1515 1.400 . S
C1516 C1519 1.386 . S
H1517 C1533 0.930 . S
H1518 C1534 0.931 . S
C1519 H1507 0.929 . S
C1519 C1513 1.376 1_545 S
C1519 C1516 1.386 . S
C1520 C1515 1.490 . S
C1520 C1522 1.395 . S
C1520 C1523 1.403 . S
H1521 C1527 0.930 . S
C1522 H1508 0.930 . S
C1522 C1520 1.395 . S
C1522 C1525 1.403 . S
C1523 C1520 1.403 . S
C1523 C1524 1.524 . S
C1523 C1527 1.400 . S
C1524 H1509 0.960 . S
C1524 H1510 0.960 . S
C1524 H1511 0.960 . S
C1524 C1523 1.524 . S
C1525 C1522 1.403 . S
C1525 C1526 1.392 . S
C1525 C1529 1.495 . S
C1526 C1525 1.392 . S
C1526 C1527 1.385 . S
C1526 C1528 1.478 . S
C1527 H1521 0.930 . S
C1527 C1523 1.400 . S
C1527 C1526 1.385 . S
C1528 C1526 1.478 . S
C1528 C1530 1.381 . S
C1528 C1534 1.383 . S
C1529 C1525 1.495 . S
C1529 H1535 0.959 . S
C1529 H1536 0.961 . S
C1529 H1537 0.960 . S
C1530 C1528 1.381 . S
C1530 C1531 1.394 . S
C1530 H1538 0.930 . S
C1531 C1530 1.394 . S
C1531 C1532 1.383 . S
C1531 H1539 0.929 . S
C1532 C1531 1.383 . S
C1532 C1533 1.377 . S
C1533 H1517 0.930 . S
C1533 C1532 1.377 . S
C1533 C1534 1.379 . S
C1534 H1518 0.931 . S
C1534 C1528 1.383 . S
C1534 C1533 1.379 . S
H1535 C1529 0.959 . S
H1536 C1529 0.961 . S
H1537 C1529 0.960 . S
H1538 C1530 0.930 . S
H1539 C1531 0.929 . S
H1540 C1548 0.929 . S
H1541 C1550 0.930 . S
H1542 C1552 0.930 . S
H1543 C1555 0.929 . S
H1544 C1558 0.930 . S
H1545 C1560 0.960 . S
H1546 C1560 0.960 . S
H1547 C1560 0.960 . S
C1548 H1540 0.929 . S
C1548 C1549 1.377 . S
C1548 C1550 1.384 . S
C1549 C1548 1.377 . S
C1549 C1555 1.390 . S
C1550 H1541 0.930 . S
C1550 C1548 1.384 . S
C1550 C1551 1.372 . S
C1551 C1550 1.372 . S
C1551 C1552 1.400 . S
C1551 C1556 1.490 . S
C1552 H1542 0.930 . S
C1552 C1551 1.400 . S
C1552 C1555 1.386 . S
H1553 C1569 0.930 . S
H1554 C1570 0.931 . S
C1555 H1543 0.929 . S
C1555 C1549 1.390 . S
C1555 C1552 1.386 . S
C1556 C1551 1.490 . S
C1556 C1558 1.395 . S
C1556 C1559 1.403 . S
H1557 C1563 0.930 . S
C1558 H1544 0.930 . S
C1558 C1556 1.395 . S
C1558 C1561 1.403 . S
C1559 C1556 1.403 . S
C1559 C1560 1.524 . S
C1559 C1563 1.400 . S
C1560 H1545 0.960 . S
C1560 H1546 0.960 . S
C1560 H1547 0.960 . S
C1560 C1559 1.524 . S
C1561 C1558 1.403 . S
C1561 C1562 1.392 . S
C1561 C1565 1.495 . S
C1562 C1561 1.392 . S
C1562 C1563 1.385 . S
C1562 C1564 1.478 . S
C1563 H1557 0.930 . S
C1563 C1559 1.400 . S
C1563 C1562 1.385 . S
C1564 C1562 1.478 . S
C1564 C1566 1.381 . S
C1564 C1570 1.383 . S
C1565 C1561 1.495 . S
C1565 H1571 0.959 . S
C1565 H1572 0.961 . S
C1565 H1573 0.960 . S
C1566 C1564 1.381 . S
C1566 C1567 1.394 . S
C1566 H1574 0.930 . S
C1567 C1566 1.394 . S
C1567 C1568 1.383 . S
C1567 H1575 0.929 . S
C1568 C1567 1.383 . S
C1568 C1569 1.377 . S
C1569 H1553 0.930 . S
C1569 C1568 1.377 . S
C1569 C1570 1.379 . S
C1570 H1554 0.931 . S
C1570 C1564 1.383 . S
C1570 C1569 1.379 . S
H1571 C1565 0.959 . S
H1572 C1565 0.961 . S
H1573 C1565 0.960 . S
H1574 C1566 0.930 . S
H1575 C1567 0.929 . S
H1576 C1584 0.929 . S
H1577 C1586 0.930 . S
H1578 C1588 0.930 . S
H1579 C1591 0.935 . S
H1580 C1594 0.930 . S
H1581 C1596 0.960 . S
H1582 C1596 0.960 . S
H1583 C1596 0.960 . S
C1584 H1576 0.929 . S
C1584 C1585 1.358 1_455 S
C1584 C1586 1.384 . S
C1585 C1584 1.358 1_655 S
C1585 C1591 1.390 . S
C1586 H1577 0.930 . S
C1586 C1584 1.384 . S
C1586 C1587 1.372 . S
C1587 C1586 1.372 . S
C1587 C1588 1.400 . S
C1587 C1592 1.490 . S
C1588 H1578 0.930 . S
C1588 C1587 1.400 . S
C1588 C1591 1.380 1_455 S
H1589 C1605 0.930 . S
H1590 C1606 0.931 . S
C1591 H1579 0.935 . S
C1591 C1585 1.390 . S
C1591 C1588 1.380 1_655 S
C1592 C1587 1.490 . S
C1592 C1594 1.395 . S
C1592 C1595 1.403 . S
H1593 C1599 0.930 . S
C1594 H1580 0.930 . S
C1594 C1592 1.395 . S
C1594 C1597 1.403 . S
C1595 C1592 1.403 . S
C1595 C1596 1.524 . S
C1595 C1599 1.400 . S
C1596 H1581 0.960 . S
C1596 H1582 0.960 . S
C1596 H1583 0.960 . S
C1596 C1595 1.524 . S
C1597 C1594 1.403 . S
C1597 C1598 1.392 . S
C1597 C1601 1.495 . S
C1598 C1597 1.392 . S
C1598 C1599 1.385 . S
C1598 C1600 1.478 . S
C1599 H1593 0.930 . S
C1599 C1595 1.400 . S
C1599 C1598 1.385 . S
C1600 C1598 1.478 . S
C1600 C1602 1.381 . S
C1600 C1606 1.383 . S
C1601 C1597 1.495 . S
C1601 H1607 0.959 . S
C1601 H1608 0.961 . S
C1601 H1609 0.960 . S
C1602 C1600 1.381 . S
C1602 C1603 1.394 . S
C1602 H1610 0.930 . S
C1603 C1602 1.394 . S
C1603 C1604 1.383 . S
C1603 H1611 0.929 . S
C1604 C1603 1.383 . S
C1604 C1605 1.377 . S
C1605 H1589 0.930 . S
C1605 C1604 1.377 . S
C1605 C1606 1.379 . S
C1606 H1590 0.931 . S
C1606 C1600 1.383 . S
C1606 C1605 1.379 . S
H1607 C1601 0.959 . S
H1608 C1601 0.961 . S
H1609 C1601 0.960 . S
H1610 C1602 0.930 . S
H1611 C1603 0.929 . S
H1612 C1620 0.929 . S
H1613 C1622 0.930 . S
H1614 C1624 0.930 . S
H1615 C1627 0.929 . S
H1616 C1630 0.930 . S
H1617 C1632 0.960 . S
H1618 C1632 0.960 . S
H1619 C1632 0.960 . S
C1620 H1612 0.929 . S
C1620 C1621 1.358 1_545 S
C1620 C1622 1.384 . S
C1621 C1620 1.358 1_565 S
C1621 C1627 1.394 . S
C1622 H1613 0.930 . S
C1622 C1620 1.384 . S
C1622 C1623 1.372 . S
C1623 C1622 1.372 . S
C1623 C1624 1.400 . S
C1623 C1628 1.490 . S
C1624 H1614 0.930 . S
C1624 C1623 1.400 . S
C1624 C1627 1.386 1_545 S
H1625 C1641 0.930 . S
H1626 C1642 0.931 . S
C1627 H1615 0.929 . S
C1627 C1621 1.394 . S
C1627 C1624 1.386 1_565 S
C1628 C1623 1.490 . S
C1628 C1630 1.395 . S
C1628 C1631 1.403 . S
H1629 C1635 0.930 . S
C1630 H1616 0.930 . S
C1630 C1628 1.395 . S
C1630 C1633 1.403 . S
C1631 C1628 1.403 . S
C1631 C1632 1.524 . S
C1631 C1635 1.400 . S
C1632 H1617 0.960 . S
C1632 H1618 0.960 . S
C1632 H1619 0.960 . S
C1632 C1631 1.524 . S
C1633 C1630 1.403 . S
C1633 C1634 1.392 . S
C1633 C1637 1.495 . S
C1634 C1633 1.392 . S
C1634 C1635 1.385 . S
C1634 C1636 1.478 . S
C1635 H1629 0.930 . S
C1635 C1631 1.400 . S
C1635 C1634 1.385 . S
C1636 C1634 1.478 . S
C1636 C1638 1.381 . S
C1636 C1642 1.383 . S
C1637 C1633 1.495 . S
C1637 H1643 0.959 . S
C1637 H1644 0.961 . S
C1637 H1645 0.960 . S
C1638 C1636 1.381 . S
C1638 C1639 1.394 . S
C1638 H1646 0.930 . S
C1639 C1638 1.394 . S
C1639 C1640 1.376 1_455 S
C1639 H1647 0.929 . S
C1640 C1639 1.376 1_655 S
C1640 C1641 1.379 . S
C1641 H1625 0.930 . S
C1641 C1640 1.379 . S
C1641 C1642 1.379 1_655 S
C1642 H1626 0.931 . S
C1642 C1636 1.383 . S
C1642 C1641 1.379 1_455 S
H1643 C1637 0.959 . S
H1644 C1637 0.961 . S
H1645 C1637 0.960 . S
H1646 C1638 0.930 . S
H1647 C1639 0.929 . S
H1648 C1656 0.929 . S
H1649 C1658 0.930 . S
H1650 C1660 0.930 . S
H1651 C1663 0.929 . S
H1652 C1666 0.930 . S
H1653 C1668 0.960 . S
H1654 C1668 0.960 . S
H1655 C1668 0.960 . S
C1656 H1648 0.929 . S
C1656 C1657 1.360 1_565 S
C1656 C1658 1.384 . S
C1657 C1656 1.360 1_545 S
C1657 C1663 1.395 . S
C1658 H1649 0.930 . S
C1658 C1656 1.384 . S
C1658 C1659 1.372 . S
C1659 C1658 1.372 . S
C1659 C1660 1.400 . S
C1659 C1664 1.490 . S
C1660 H1650 0.930 . S
C1660 C1659 1.400 . S
C1660 C1663 1.386 1_565 S
H1661 C1677 0.930 . S
H1662 C1678 0.931 . S
C1663 H1651 0.929 . S
C1663 C1657 1.395 . S
C1663 C1660 1.386 1_545 S
C1664 C1659 1.490 . S
C1664 C1666 1.395 . S
C1664 C1667 1.403 . S
H1665 C1671 0.930 . S
C1666 H1652 0.930 . S
C1666 C1664 1.395 . S
C1666 C1669 1.403 . S
C1667 C1664 1.403 . S
C1667 C1668 1.524 . S
C1667 C1671 1.400 . S
C1668 H1653 0.960 . S
C1668 H1654 0.960 . S
C1668 H1655 0.960 . S
C1668 C1667 1.524 . S
C1669 C1666 1.403 . S
C1669 C1670 1.392 . S
C1669 C1673 1.495 . S
C1670 C1669 1.392 . S
C1670 C1671 1.385 . S
C1670 C1672 1.478 . S
C1671 H1665 0.930 . S
C1671 C1667 1.400 . S
C1671 C1670 1.385 . S
C1672 C1670 1.478 . S
C1672 C1674 1.381 . S
C1672 C1678 1.383 . S
C1673 C1669 1.495 . S
C1673 H1679 0.959 . S
C1673 H1680 0.961 . S
C1673 H1681 0.960 . S
C1674 C1672 1.381 . S
C1674 C1675 1.394 . S
C1674 H1682 0.930 . S
C1675 C1674 1.394 . S
C1675 C1676 1.383 . S
C1675 H1683 0.929 . S
C1676 C1675 1.383 . S
C1676 C1677 1.377 . S
C1677 H1661 0.930 . S
C1677 C1676 1.377 . S
C1677 C1678 1.379 . S
C1678 H1662 0.931 . S
C1678 C1672 1.383 . S
C1678 C1677 1.379 . S
H1679 C1673 0.959 . S
H1680 C1673 0.961 . S
H1681 C1673 0.960 . S
H1682 C1674 0.930 . S
H1683 C1675 0.929 . S
H1684 C1692 0.929 . S
H1685 C1694 0.930 . S
H1686 C1696 0.930 . S
H1687 C1699 0.929 . S
H1688 C1702 0.930 . S
H1689 C1704 0.960 . S
H1690 C1704 0.960 . S
H1691 C1704 0.960 . S
C1692 H1684 0.929 . S
C1692 C1693 1.377 . S
C1692 C1694 1.384 . S
C1693 C1692 1.377 . S
C1693 C1699 1.390 . S
C1694 H1685 0.930 . S
C1694 C1692 1.384 . S
C1694 C1695 1.372 . S
C1695 C1694 1.372 . S
C1695 C1696 1.400 . S
C1695 C1700 1.490 . S
C1696 H1686 0.930 . S
C1696 C1695 1.400 . S
C1696 C1699 1.386 . S
H1697 C1713 0.930 . S
H1698 C1714 0.931 . S
C1699 H1687 0.929 . S
C1699 C1693 1.390 . S
C1699 C1696 1.386 . S
C1700 C1695 1.490 . S
C1700 C1702 1.395 . S
C1700 C1703 1.403 . S
H1701 C1707 0.930 . S
C1702 H1688 0.930 . S
C1702 C1700 1.395 . S
C1702 C1705 1.403 . S
C1703 C1700 1.403 . S
C1703 C1704 1.524 . S
C1703 C1707 1.400 . S
C1704 H1689 0.960 . S
C1704 H1690 0.960 . S
C1704 H1691 0.960 . S
C1704 C1703 1.524 . S
C1705 C1702 1.403 . S
C1705 C1706 1.392 . S
C1705 C1709 1.495 . S
C1706 C1705 1.392 . S
C1706 C1707 1.385 . S
C1706 C1708 1.478 . S
C1707 H1701 0.930 . S
C1707 C1703 1.400 . S
C1707 C1706 1.385 . S
C1708 C1706 1.478 . S
C1708 C1710 1.381 . S
C1708 C1714 1.383 . S
C1709 C1705 1.495 . S
C1709 H1715 0.959 . S
C1709 H1716 0.961 . S
C1709 H1717 0.960 . S
C1710 C1708 1.381 . S
C1710 C1711 1.394 . S
C1710 H1718 0.930 . S
C1711 C1710 1.394 . S
C1711 C1712 1.383 . S
C1711 H1719 0.929 . S
C1712 C1711 1.383 . S
C1712 C1713 1.377 . S
C1713 H1697 0.930 . S
C1713 C1712 1.377 . S
C1713 C1714 1.379 . S
C1714 H1698 0.931 . S
C1714 C1708 1.383 . S
C1714 C1713 1.379 . S
H1715 C1709 0.959 . S
H1716 C1709 0.961 . S
H1717 C1709 0.960 . S
H1718 C1710 0.930 . S
H1719 C1711 0.929 . S
H1720 C1728 0.929 . S
H1721 C1730 0.930 . S
H1722 C1732 0.930 . S
H1723 C1735 0.929 . S
H1724 C1738 0.930 . S
H1725 C1740 0.960 . S
H1726 C1740 0.960 . S
H1727 C1740 0.960 . S
C1728 H1720 0.929 . S
C1728 C1729 1.377 . S
C1728 C1730 1.384 . S
C1729 C1728 1.377 . S
C1729 C1735 1.390 . S
C1730 H1721 0.930 . S
C1730 C1728 1.384 . S
C1730 C1731 1.372 . S
C1731 C1730 1.372 . S
C1731 C1732 1.400 . S
C1731 C1736 1.490 . S
C1732 H1722 0.930 . S
C1732 C1731 1.400 . S
C1732 C1735 1.386 . S
H1733 C1749 0.930 . S
H1734 C1750 0.931 . S
C1735 H1723 0.929 . S
C1735 C1729 1.390 . S
C1735 C1732 1.386 . S
C1736 C1731 1.490 . S
C1736 C1738 1.395 . S
C1736 C1739 1.403 . S
H1737 C1743 0.930 . S
C1738 H1724 0.930 . S
C1738 C1736 1.395 . S
C1738 C1741 1.403 . S
C1739 C1736 1.403 . S
C1739 C1740 1.524 . S
C1739 C1743 1.400 . S
C1740 H1725 0.960 . S
C1740 H1726 0.960 . S
C1740 H1727 0.960 . S
C1740 C1739 1.524 . S
C1741 C1738 1.403 . S
C1741 C1742 1.392 . S
C1741 C1745 1.495 . S
C1742 C1741 1.392 . S
C1742 C1743 1.385 . S
C1742 C1744 1.478 . S
C1743 H1737 0.930 . S
C1743 C1739 1.400 . S
C1743 C1742 1.385 . S
C1744 C1742 1.478 . S
C1744 C1746 1.381 . S
C1744 C1750 1.383 . S
C1745 C1741 1.495 . S
C1745 H1751 0.959 . S
C1745 H1752 0.961 . S
C1745 H1753 0.960 . S
C1746 C1744 1.381 . S
C1746 C1747 1.394 . S
C1746 H1754 0.930 . S
C1747 C1746 1.394 . S
C1747 C1748 1.379 . S
C1747 H1755 0.929 . S
C1748 C1747 1.379 . S
C1748 C1749 1.378 1_655 S
C1749 H1733 0.930 . S
C1749 C1748 1.378 1_455 S
C1749 C1750 1.379 1_455 S
C1750 H1734 0.931 . S
C1750 C1744 1.383 . S
C1750 C1749 1.379 1_655 S
H1751 C1745 0.959 . S
H1752 C1745 0.961 . S
H1753 C1745 0.960 . S
H1754 C1746 0.930 . S
H1755 C1747 0.929 . S
H1756 C1764 0.929 . S
H1757 C1766 0.930 . S
H1758 C1768 0.930 . S
H1759 C1771 0.929 1_545 S
H1760 C1774 0.930 . S
H1761 C1776 0.960 . S
H1762 C1776 0.960 . S
H1763 C1776 0.960 . S
C1764 H1756 0.929 . S
C1764 C1765 1.360 1_565 S
C1764 C1766 1.384 . S
C1765 C1764 1.360 1_545 S
C1765 C1771 1.385 1_545 S
C1766 H1757 0.930 . S
C1766 C1764 1.384 . S
C1766 C1767 1.372 . S
C1767 C1766 1.372 . S
C1767 C1768 1.400 . S
C1767 C1772 1.490 . S
C1768 H1758 0.930 . S
C1768 C1767 1.400 . S
C1768 C1771 1.386 . S
H1769 C1785 0.930 . S
H1770 C1786 0.931 . S
C1771 H1759 0.929 1_565 S
C1771 C1765 1.385 1_565 S
C1771 C1768 1.386 . S
C1772 C1767 1.490 . S
C1772 C1774 1.395 . S
C1772 C1775 1.403 . S
H1773 C1779 0.930 . S
C1774 H1760 0.930 . S
C1774 C1772 1.395 . S
C1774 C1777 1.403 . S
C1775 C1772 1.403 . S
C1775 C1776 1.524 . S
C1775 C1779 1.400 . S
C1776 H1761 0.960 . S
C1776 H1762 0.960 . S
C1776 H1763 0.960 . S
C1776 C1775 1.524 . S
C1777 C1774 1.403 . S
C1777 C1778 1.392 . S
C1777 C1781 1.495 . S
C1778 C1777 1.392 . S
C1778 C1779 1.385 . S
C1778 C1780 1.478 . S
C1779 H1773 0.930 . S
C1779 C1775 1.400 . S
C1779 C1778 1.385 . S
C1780 C1778 1.478 . S
C1780 C1782 1.381 . S
C1780 C1786 1.383 . S
C1781 C1777 1.495 . S
C1781 H1787 0.959 . S
C1781 H1788 0.961 . S
C1781 H1789 0.960 . S
C1782 C1780 1.381 . S
C1782 C1783 1.394 . S
C1782 H1790 0.930 . S
C1783 C1782 1.394 . S
C1783 C1784 1.384 . S
C1783 H1791 0.929 1_655 S
C1784 C1783 1.384 . S
C1784 C1785 1.386 . S
C1785 H1769 0.930 . S
C1785 C1784 1.386 . S
C1785 C1786 1.379 . S
C1786 H1770 0.931 . S
C1786 C1780 1.383 . S
C1786 C1785 1.379 . S
H1787 C1781 0.959 . S
H1788 C1781 0.961 . S
H1789 C1781 0.960 . S
H1790 C1782 0.930 . S
H1791 C1783 0.929 1_455 S
H1792 C1800 0.929 . S
H1793 C1802 0.930 . S
H1794 C1804 0.930 . S
H1795 C1807 0.929 . S
H1796 C1810 0.930 . S
H1797 C1812 0.960 . S
H1798 C1812 0.960 . S
H1799 C1812 0.960 . S
C1800 H1792 0.929 . S
C1800 C1801 1.377 . S
C1800 C1802 1.384 . S
C1801 C1800 1.377 . S
C1801 C1807 1.390 . S
C1802 H1793 0.930 . S
C1802 C1800 1.384 . S
C1802 C1803 1.372 . S
C1803 C1802 1.372 . S
C1803 C1804 1.400 . S
C1803 C1808 1.490 . S
C1804 H1794 0.930 . S
C1804 C1803 1.400 . S
C1804 C1807 1.386 . S
H1805 C1821 0.930 . S
H1806 C1822 0.931 . S
C1807 H1795 0.929 . S
C1807 C1801 1.390 . S
C1807 C1804 1.386 . S
C1808 C1803 1.490 . S
C1808 C1810 1.395 1_554 S
C1808 C1811 1.403 . S
H1809 C1815 0.930 . S
C1810 H1796 0.930 . S
C1810 C1808 1.395 1_556 S
C1810 C1813 1.403 . S
C1811 C1808 1.403 . S
C1811 C1812 1.524 . S
C1811 C1815 1.402 . S
C1812 H1797 0.960 . S
C1812 H1798 0.960 . S
C1812 H1799 0.960 . S
C1812 C1811 1.524 . S
C1813 C1810 1.403 . S
C1813 C1814 1.392 . S
C1813 C1817 1.495 . S
C1814 C1813 1.392 . S
C1814 C1815 1.382 1_556 S
C1814 C1816 1.478 . S
C1815 H1809 0.930 . S
C1815 C1811 1.402 . S
C1815 C1814 1.382 1_554 S
C1816 C1814 1.478 . S
C1816 C1818 1.381 . S
C1816 C1822 1.383 . S
C1817 C1813 1.495 . S
C1817 H1823 0.959 . S
C1817 H1824 0.961 . S
C1817 H1825 0.960 . S
C1818 C1816 1.381 . S
C1818 C1819 1.394 . S
C1818 H1826 0.930 . S
C1819 C1818 1.394 . S
C1819 C1820 1.383 . S
C1819 H1827 0.929 . S
C1820 C1819 1.383 . S
C1820 C1821 1.377 . S
C1821 H1805 0.930 . S
C1821 C1820 1.377 . S
C1821 C1822 1.379 . S
C1822 H1806 0.931 . S
C1822 C1816 1.383 . S
C1822 C1821 1.379 . S
H1823 C1817 0.959 . S
H1824 C1817 0.961 . S
H1825 C1817 0.960 . S
H1826 C1818 0.930 . S
H1827 C1819 0.929 . S
H1828 C1836 0.929 . S
H1829 C1838 0.930 . S
H1830 C1840 0.930 . S
H1831 C1843 0.929 . S
H1832 C1846 0.930 . S
H1833 C1848 0.960 . S
H1834 C1848 0.960 . S
H1835 C1848 0.960 . S
C1836 H1828 0.929 . S
C1836 C1837 1.377 . S
C1836 C1838 1.384 . S
C1837 C1836 1.377 . S
C1837 C1843 1.390 . S
C1838 H1829 0.930 . S
C1838 C1836 1.384 . S
C1838 C1839 1.372 . S
C1839 C1838 1.372 . S
C1839 C1840 1.400 . S
C1839 C1844 1.490 . S
C1840 H1830 0.930 . S
C1840 C1839 1.400 . S
C1840 C1843 1.386 . S
H1841 C1857 0.930 . S
H1842 C1858 0.931 . S
C1843 H1831 0.929 . S
C1843 C1837 1.390 . S
C1843 C1840 1.386 . S
C1844 C1839 1.490 . S
C1844 C1846 1.395 . S
C1844 C1847 1.403 . S
H1845 C1851 0.930 . S
C1846 H1832 0.930 . S
C1846 C1844 1.395 . S
C1846 C1849 1.403 . S
C1847 C1844 1.403 . S
C1847 C1848 1.524 . S
C1847 C1851 1.400 . S
C1848 H1833 0.960 . S
C1848 H1834 0.960 . S
C1848 H1835 0.960 . S
C1848 C1847 1.524 . S
C1849 C1846 1.403 . S
C1849 C1850 1.392 . S
C1849 C1853 1.495 . S
C1850 C1849 1.392 . S
C1850 C1851 1.385 . S
C1850 C1852 1.478 . S
C1851 H1845 0.930 . S
C1851 C1847 1.400 . S
C1851 C1850 1.385 . S
C1852 C1850 1.478 . S
C1852 C1854 1.381 . S
C1852 C1858 1.383 . S
C1853 C1849 1.495 . S
C1853 H1859 0.959 . S
C1853 H1860 0.961 . S
C1853 H1861 0.960 . S
C1854 C1852 1.381 . S
C1854 C1855 1.394 . S
C1854 H1862 0.930 . S
C1855 C1854 1.394 . S
C1855 C1856 1.383 . S
C1855 H1863 0.929 . S
C1856 C1855 1.383 . S
C1856 C1857 1.377 . S
C1857 H1841 0.930 . S
C1857 C1856 1.377 . S
C1857 C1858 1.379 . S
C1858 H1842 0.931 . S
C1858 C1852 1.383 . S
C1858 C1857 1.379 . S
H1859 C1853 0.959 . S
H1860 C1853 0.961 . S
H1861 C1853 0.960 . S
H1862 C1854 0.930 . S
H1863 C1855 0.929 . S
H1864 C1872 0.929 . S
H1865 C1874 0.930 . S
H1866 C1876 0.930 . S
H1867 C1879 0.929 . S
H1868 C1882 0.930 1_455 S
H1869 C1884 0.960 . S
H1870 C1884 0.960 . S
H1871 C1884 0.960 . S
C1872 H1864 0.929 . S
C1872 C1873 1.377 . S
C1872 C1874 1.384 . S
C1873 C1872 1.377 . S
C1873 C1879 1.390 . S
C1874 H1865 0.930 . S
C1874 C1872 1.384 . S
C1874 C1875 1.372 . S
C1875 C1874 1.372 . S
C1875 C1876 1.400 . S
C1875 C1880 1.490 . S
C1876 H1866 0.930 . S
C1876 C1875 1.400 . S
C1876 C1879 1.386 . S
H1877 C1893 0.930 . S
H1878 C1894 0.931 . S
C1879 H1867 0.929 . S
C1879 C1873 1.390 . S
C1879 C1876 1.386 . S
C1880 C1875 1.490 . S
C1880 C1882 1.395 . S
C1880 C1883 1.403 . S
H1881 C1887 0.930 . S
C1882 H1868 0.930 1_655 S
C1882 C1880 1.395 . S
C1882 C1885 1.403 1_554 S
C1883 C1880 1.403 . S
C1883 C1884 1.524 . S
C1883 C1887 1.400 1_554 S
C1884 H1869 0.960 . S
C1884 H1870 0.960 . S
C1884 H1871 0.960 . S
C1884 C1883 1.524 . S
C1885 C1882 1.403 1_556 S
C1885 C1886 1.392 . S
C1885 C1889 1.495 1_655 S
C1886 C1885 1.392 . S
C1886 C1887 1.385 . S
C1886 C1888 1.478 . S
C1887 H1881 0.930 . S
C1887 C1883 1.400 1_556 S
C1887 C1886 1.385 . S
C1888 C1886 1.478 . S
C1888 C1890 1.381 . S
C1888 C1894 1.383 . S
C1889 C1885 1.495 1_455 S
C1889 H1895 0.959 . S
C1889 H1896 0.961 . S
C1889 H1897 0.960 . S
C1890 C1888 1.381 . S
C1890 C1891 1.394 . S
C1890 H1898 0.930 . S
C1891 C1890 1.394 . S
C1891 C1892 1.383 . S
C1891 H1899 0.929 . S
C1892 C1891 1.383 . S
C1892 C1893 1.377 . S
C1893 H1877 0.930 . S
C1893 C1892 1.377 . S
C1893 C1894 1.379 . S
C1894 H1878 0.931 . S
C1894 C1888 1.383 . S
C1894 C1893 1.379 . S
H1895 C1889 0.959 . S
H1896 C1889 0.961 . S
H1897 C1889 0.960 . S
H1898 C1890 0.930 . S
H1899 C1891 0.929 . S
H1900 C1908 0.929 . S
H1901 C1910 0.930 . S
H1902 C1912 0.930 . S
H1903 C1915 0.929 . S
H1904 C1918 0.930 . S
H1905 C1920 0.960 . S
H1906 C1920 0.960 . S
H1907 C1920 0.960 . S
C1908 H1900 0.929 . S
C1908 C1909 1.377 . S
C1908 C1910 1.384 . S
C1909 C1908 1.377 . S
C1909 C1915 1.390 . S
C1910 H1901 0.930 . S
C1910 C1908 1.384 . S
C1910 C1911 1.372 . S
C1911 C1910 1.372 . S
C1911 C1912 1.400 . S
C1911 C1916 1.490 . S
C1912 H1902 0.930 . S
C1912 C1911 1.400 . S
C1912 C1915 1.386 . S
H1913 C1929 0.930 . S
H1914 C1930 0.931 . S
C1915 H1903 0.929 . S
C1915 C1909 1.390 . S
C1915 C1912 1.386 . S
C1916 C1911 1.490 . S
C1916 C1918 1.395 . S
C1916 C1919 1.403 . S
H1917 C1923 0.930 . S
C1918 H1904 0.930 . S
C1918 C1916 1.395 . S
C1918 C1921 1.403 . S
C1919 C1916 1.403 . S
C1919 C1920 1.524 . S
C1919 C1923 1.400 . S
C1920 H1905 0.960 . S
C1920 H1906 0.960 . S
C1920 H1907 0.960 . S
C1920 C1919 1.524 . S
C1921 C1918 1.403 . S
C1921 C1922 1.392 . S
C1921 C1925 1.495 . S
C1922 C1921 1.392 . S
C1922 C1923 1.385 . S
C1922 C1924 1.478 . S
C1923 H1917 0.930 . S
C1923 C1919 1.400 . S
C1923 C1922 1.385 . S
C1924 C1922 1.478 . S
C1924 C1926 1.381 . S
C1924 C1930 1.383 . S
C1925 C1921 1.495 . S
C1925 H1931 0.959 . S
C1925 H1932 0.961 . S
C1925 H1933 0.960 . S
C1926 C1924 1.381 . S
C1926 C1927 1.394 . S
C1926 H1934 0.961 . S
C1927 C1926 1.394 . S
C1927 C1928 1.383 . S
C1927 H1935 0.948 . S
C1928 C1927 1.383 . S
C1928 C1929 1.377 . S
C1929 H1913 0.930 . S
C1929 C1928 1.377 . S
C1929 C1930 1.379 . S
C1930 H1914 0.931 . S
C1930 C1924 1.383 . S
C1930 C1929 1.379 . S
H1931 C1925 0.959 . S
H1932 C1925 0.961 . S
H1933 C1925 0.960 . S
H1934 C1926 0.961 . S
H1935 C1927 0.948 . S
H1936 C1944 0.929 . S
H1937 C1946 0.930 . S
H1938 C1948 0.930 . S
H1939 C1951 0.929 . S
H1940 C1954 0.930 . S
H1941 C1956 0.960 . S
H1942 C1956 0.960 . S
H1943 C1956 0.960 . S
C1944 H1936 0.929 . S
C1944 C1945 1.377 . S
C1944 C1946 1.384 . S
C1945 C1944 1.377 . S
C1945 C1951 1.390 . S
C1946 H1937 0.930 . S
C1946 C1944 1.384 . S
C1946 C1947 1.372 . S
C1947 C1946 1.372 . S
C1947 C1948 1.400 . S
C1947 C1952 1.490 . S
C1948 H1938 0.930 . S
C1948 C1947 1.400 . S
C1948 C1951 1.386 . S
H1949 C1965 0.930 . S
H1950 C1966 0.931 . S
C1951 H1939 0.929 . S
C1951 C1945 1.390 . S
C1951 C1948 1.386 . S
C1952 C1947 1.490 . S
C1952 C1954 1.395 1_554 S
C1952 C1955 1.403 . S
H1953 C1959 0.931 . S
C1954 H1940 0.930 . S
C1954 C1952 1.395 1_556 S
C1954 C1957 1.403 . S
C1955 C1952 1.403 . S
C1955 C1956 1.524 . S
C1955 C1959 1.403 . S
C1956 H1941 0.960 . S
C1956 H1942 0.960 . S
C1956 H1943 0.960 . S
C1956 C1955 1.524 . S
C1957 C1954 1.403 . S
C1957 C1958 1.392 . S
C1957 C1961 1.495 . S
C1958 C1957 1.392 . S
C1958 C1959 1.382 1_556 S
C1958 C1960 1.478 . S
C1959 H1953 0.931 . S
C1959 C1955 1.403 . S
C1959 C1958 1.382 1_554 S
C1960 C1958 1.478 . S
C1960 C1962 1.381 . S
C1960 C1966 1.383 . S
C1961 C1957 1.495 . S
C1961 H1967 0.959 . S
C1961 H1968 0.961 . S
C1961 H1969 0.960 . S
C1962 C1960 1.381 . S
C1962 C1963 1.394 . S
C1962 H1970 0.930 . S
C1963 C1962 1.394 . S
C1963 C1964 1.383 . S
C1963 H1971 0.929 . S
C1964 C1963 1.383 . S
C1964 C1965 1.377 . S
C1965 H1949 0.930 . S
C1965 C1964 1.377 . S
C1965 C1966 1.379 . S
C1966 H1950 0.931 . S
C1966 C1960 1.383 . S
C1966 C1965 1.379 . S
H1967 C1961 0.959 . S
H1968 C1961 0.961 . S
H1969 C1961 0.960 . S
H1970 C1962 0.930 . S
H1971 C1963 0.929 . S
H1972 C1980 0.929 . S
H1973 C1982 0.930 . S
H1974 C1984 0.930 . S
H1975 C1987 0.929 . S
H1976 C1990 0.930 . S
H1977 C1992 0.960 . S
H1978 C1992 0.960 . S
H1979 C1992 0.960 . S
C1980 H1972 0.929 . S
C1980 C1981 1.377 . S
C1980 C1982 1.384 . S
C1981 C1980 1.377 . S
C1981 C1987 1.390 . S
C1982 H1973 0.930 . S
C1982 C1980 1.384 . S
C1982 C1983 1.372 . S
C1983 C1982 1.372 . S
C1983 C1984 1.400 . S
C1983 C1988 1.490 . S
C1984 H1974 0.930 . S
C1984 C1983 1.400 . S
C1984 C1987 1.386 . S
H1985 C2001 0.930 . S
H1986 C2002 0.931 . S
C1987 H1975 0.929 . S
C1987 C1981 1.390 . S
C1987 C1984 1.386 . S
C1988 C1983 1.490 . S
C1988 C1990 1.395 . S
C1988 C1991 1.403 . S
H1989 C1995 0.930 . S
C1990 H1976 0.930 . S
C1990 C1988 1.395 . S
C1990 C1993 1.403 . S
C1991 C1988 1.403 . S
C1991 C1992 1.524 . S
C1991 C1995 1.400 . S
C1992 H1977 0.960 . S
C1992 H1978 0.960 . S
C1992 H1979 0.960 . S
C1992 C1991 1.524 . S
C1993 C1990 1.403 . S
C1993 C1994 1.392 . S
C1993 C1997 1.495 . S
C1994 C1993 1.392 . S
C1994 C1995 1.385 . S
C1994 C1996 1.478 . S
C1995 H1989 0.930 . S
C1995 C1991 1.400 . S
C1995 C1994 1.385 . S
C1996 C1994 1.478 . S
C1996 C1998 1.381 . S
C1996 C2002 1.383 . S
C1997 C1993 1.495 . S
C1997 H2003 0.959 . S
C1997 H2004 0.961 . S
C1997 H2005 0.960 . S
C1998 C1996 1.381 . S
C1998 C1999 1.394 . S
C1998 H2006 0.930 . S
C1999 C1998 1.394 . S
C1999 C2000 1.383 . S
C1999 H2007 0.929 . S
C2000 C1999 1.383 . S
C2000 C2001 1.377 . S
C2001 H1985 0.930 . S
C2001 C2000 1.377 . S
C2001 C2002 1.379 . S
C2002 H1986 0.931 . S
C2002 C1996 1.383 . S
C2002 C2001 1.379 . S
H2003 C1997 0.959 . S
H2004 C1997 0.961 . S
H2005 C1997 0.960 . S
H2006 C1998 0.930 . S
H2007 C1999 0.929 . S
H2008 C2016 0.929 . S
H2009 C2018 0.930 . S
H2010 C2020 0.930 . S
H2011 C2023 0.929 . S
H2012 C2026 0.930 . S
H2013 C2028 0.960 . S
H2014 C2028 0.960 . S
H2015 C2028 0.960 . S
C2016 H2008 0.929 . S
C2016 C2017 1.377 . S
C2016 C2018 1.384 . S
C2017 C2016 1.377 . S
C2017 C2023 1.390 . S
C2018 H2009 0.930 . S
C2018 C2016 1.384 . S
C2018 C2019 1.372 . S
C2019 C2018 1.372 . S
C2019 C2020 1.400 . S
C2019 C2024 1.490 . S
C2020 H2010 0.930 . S
C2020 C2019 1.400 . S
C2020 C2023 1.386 . S
H2021 C2037 0.930 . S
H2022 C2038 0.931 . S
C2023 H2011 0.929 . S
C2023 C2017 1.390 . S
C2023 C2020 1.386 . S
C2024 C2019 1.490 . S
C2024 C2026 1.395 . S
C2024 C2027 1.403 1_556 S
H2025 C2031 0.930 . S
C2026 H2012 0.930 . S
C2026 C2024 1.395 . S
C2026 C2029 1.403 . S
C2027 C2024 1.403 1_554 S
C2027 C2028 1.524 . S
C2027 C2031 1.400 . S
C2028 H2013 0.960 . S
C2028 H2014 0.960 . S
C2028 H2015 0.960 . S
C2028 C2027 1.524 . S
C2029 C2026 1.403 . S
C2029 C2030 1.392 1_556 S
C2029 C2033 1.495 . S
C2030 C2029 1.392 1_554 S
C2030 C2031 1.385 . S
C2030 C2032 1.478 . S
C2031 H2025 0.930 . S
C2031 C2027 1.400 . S
C2031 C2030 1.385 . S
C2032 C2030 1.478 . S
C2032 C2034 1.381 . S
C2032 C2038 1.383 . S
C2033 C2029 1.495 . S
C2033 H2039 0.959 . S
C2033 H2040 0.961 . S
C2033 H2041 0.960 . S
C2034 C2032 1.381 . S
C2034 C2035 1.394 . S
C2034 H2042 0.930 . S
C2035 C2034 1.394 . S
C2035 C2036 1.383 . S
C2035 H2043 0.929 . S
C2036 C2035 1.383 . S
C2036 C2037 1.377 . S
C2037 H2021 0.930 . S
C2037 C2036 1.377 . S
C2037 C2038 1.379 . S
C2038 H2022 0.931 . S
C2038 C2032 1.383 . S
C2038 C2037 1.379 . S
H2039 C2033 0.959 . S
H2040 C2033 0.961 . S
H2041 C2033 0.960 . S
H2042 C2034 0.930 . S
H2043 C2035 0.929 . S
H2044 C2052 0.929 . S
H2045 C2054 0.930 . S
H2046 C2056 0.930 . S
H2047 C2059 0.929 . S
H2048 C2062 0.930 . S
H2049 C2064 0.960 . S
H2050 C2064 0.960 . S
H2051 C2064 0.960 . S
C2052 H2044 0.929 . S
C2052 C2053 1.377 . S
C2052 C2054 1.384 . S
C2053 C2052 1.377 . S
C2053 C2059 1.390 . S
C2054 H2045 0.930 . S
C2054 C2052 1.384 . S
C2054 C2055 1.372 . S
C2055 C2054 1.372 . S
C2055 C2056 1.400 . S
C2055 C2060 1.490 . S
C2056 H2046 0.930 . S
C2056 C2055 1.400 . S
C2056 C2059 1.386 . S
H2057 C2073 0.930 . S
H2058 C2074 0.931 . S
C2059 H2047 0.929 . S
C2059 C2053 1.390 . S
C2059 C2056 1.386 . S
C2060 C2055 1.490 . S
C2060 C2062 1.395 . S
C2060 C2063 1.403 . S
H2061 C2067 0.930 . S
C2062 H2048 0.930 . S
C2062 C2060 1.395 . S
C2062 C2065 1.403 . S
C2063 C2060 1.403 . S
C2063 C2064 1.524 1_545 S
C2063 C2067 1.400 . S
C2064 H2049 0.960 . S
C2064 H2050 0.960 . S
C2064 H2051 0.960 . S
C2064 C2063 1.524 1_565 S
C2065 C2062 1.403 . S
C2065 C2066 1.392 . S
C2065 C2069 1.495 . S
C2066 C2065 1.392 . S
C2066 C2067 1.385 . S
C2066 C2068 1.478 . S
C2067 H2061 0.930 . S
C2067 C2063 1.400 . S
C2067 C2066 1.385 . S
C2068 C2066 1.478 . S
C2068 C2070 1.381 . S
C2068 C2074 1.383 . S
C2069 C2065 1.495 . S
C2069 H2075 0.959 . S
C2069 H2076 0.961 . S
C2069 H2077 0.960 . S
C2070 C2068 1.381 . S
C2070 C2071 1.394 . S
C2070 H2078 0.930 . S
C2071 C2070 1.394 . S
C2071 C2072 1.383 . S
C2071 H2079 0.929 . S
C2072 C2071 1.383 . S
C2072 C2073 1.377 . S
C2073 H2057 0.930 . S
C2073 C2072 1.377 . S
C2073 C2074 1.379 . S
C2074 H2058 0.931 . S
C2074 C2068 1.383 . S
C2074 C2073 1.379 . S
H2075 C2069 0.959 . S
H2076 C2069 0.961 . S
H2077 C2069 0.960 . S
H2078 C2070 0.930 . S
H2079 C2071 0.929 . S
C361 C7 1.039 . S
C380 C202 1.056 . S
C397 C29 1.030 . S
C416 C224 1.022 . S
C433 C246 1.044 . S
C452 C51 1.003 . S
C469 C184 1.053 . S
C488 C73 1.062 . S
C505 C95 1.029 . S
C524 C338 1.019 . S
C541 C272 1.045 . S
C560 C116 1.007 . S
C577 C294 1.045 . S
C596 C138 1.012 . S
C613 C316 1.048 . S
C632 C160 1.026 . S
C649 C30 1.046 . S
C668 C185 1.071 . S
C685 C203 1.033 . S
C704 C52 1.038 . S
C721 C74 1.054 . S
C740 C225 1.003 . S
C757 C8 1.052 . S
C776 C247 1.049 . S
C793 C158 1.054 . S
C812 C273 1.030 . S
C829 C96 1.044 . S
C848 C295 1.044 . S
C865 C317 1.033 . S
C884 C114 1.075 . S
C901 C136 1.054 . S
C920 C339 1.000 . S
C937 C4 1.422 . S
C956 C337 1.441 . S
C973 C26 1.410 . S
C992 C271 1.447 . S
C1009 C48 1.420 . S
C1028 C293 1.458 . S
C1045 C315 1.447 . S
C1064 C70 1.389 . S
C1081 C92 1.415 . S
C1100 C204 1.463 . S
C1117 C118 1.414 . S
C1136 C226 1.430 . S
C1153 C140 1.412 . S
C1172 C248 1.457 . S
C1189 C183 1.447 . S
C1208 C162 1.388 . S
C1225 C180 1.411 . S
C1244 C159 1.437 . S
C1261 C206 1.410 . S
C1280 C97 1.432 . S
C1297 C228 1.411 . S
C1316 C115 1.432 . S
C1333 C250 1.410 . S
C1352 C137 1.429 . S
C1369 C31 1.448 . S
C1388 C268 1.398 . S
C1405 C53 1.452 . S
C1424 C290 1.437 . S
C1441 C75 1.451 . S
C1460 C312 1.440 . S
C1477 C334 1.416 . S
C1496 C9 1.454 . S
C1513 C161 1.269 . S
C1532 C6 1.248 . S
C1549 C94 1.241 . S
C1568 C28 1.212 . S
C1585 C50 1.261 . S
C1604 C117 1.242 . S
C1621 C72 1.257 . S
C1640 C139 1.227 . S
C1657 C335 1.268 . S
C1676 C181 1.277 . S
C1693 C207 1.251 . S
C1712 C269 1.277 . S
C1729 C291 1.253 . S
C1748 C229 1.287 1_655 S
C1765 C251 1.273 . S
C1784 C313 1.231 1_655 S
C1801 C5 1.110 . S
C1820 C93 1.102 . S
C1837 C119 1.127 . S
C1856 C27 1.152 . S
C1873 C49 1.118 . S
C1892 C141 1.157 . S
C1909 C163 1.129 . S
C1928 C71 1.129 . S
C1945 C270 1.126 . S
C1964 C182 1.098 . S
C1981 C292 1.121 . S
C2000 C205 1.126 . S
C2017 C227 1.112 . S
C2036 C314 1.147 . S
C2053 C249 1.123 . S
C2072 C336 1.089 . S
