# Generated by pormake.
# Topology wje, (4)-cn, num edge types: 1
# Building blocks:
#     Node 0, Type 0, BuildingBlock: ICAMEG_clean_sbu_1, # of connection points: 4
#     Node 1, Type 0, BuildingBlock: ICAMEG_clean_sbu_1, # of connection points: 4
#     Node 2, Type 0, BuildingBlock: ICAMEG_clean_sbu_1, # of connection points: 4
#     Node 3, Type 0, BuildingBlock: ICAMEG_clean_sbu_1, # of connection points: 4
#     Node 4, Type 0, BuildingBlock: ICAMEG_clean_sbu_1, # of connection points: 4
#     Node 5, Type 0, BuildingBlock: ICAMEG_clean_sbu_1, # of connection points: 4
#     Node 6, Type 0, BuildingBlock: ICAMEG_clean_sbu_1, # of connection points: 4
#     Node 7, Type 0, BuildingBlock: ICAMEG_clean_sbu_1, # of connection points: 4
#     Node 8, Type 0, BuildingBlock: ICAMEG_clean_sbu_1, # of connection points: 4
#     Node 9, Type 0, BuildingBlock: ICAMEG_clean_sbu_1, # of connection points: 4
#     Node 10, Type 0, BuildingBlock: ICAMEG_clean_sbu_1, # of connection points: 4
#     Node 11, Type 0, BuildingBlock: ICAMEG_clean_sbu_1, # of connection points: 4
#     Edge 12, Type (0, 0), BuildingBlock: OJICUG_clean_linker_0, # of connection points: 2
#     Edge 13, Type (0, 0), BuildingBlock: OJICUG_clean_linker_0, # of connection points: 2
#     Edge 14, Type (0, 0), BuildingBlock: OJICUG_clean_linker_0, # of connection points: 2
#     Edge 15, Type (0, 0), BuildingBlock: OJICUG_clean_linker_0, # of connection points: 2
#     Edge 16, Type (0, 0), BuildingBlock: OJICUG_clean_linker_0, # of connection points: 2
#     Edge 17, Type (0, 0), BuildingBlock: OJICUG_clean_linker_0, # of connection points: 2
#     Edge 18, Type (0, 0), BuildingBlock: OJICUG_clean_linker_0, # of connection points: 2
#     Edge 19, Type (0, 0), BuildingBlock: OJICUG_clean_linker_0, # of connection points: 2
#     Edge 20, Type (0, 0), BuildingBlock: OJICUG_clean_linker_0, # of connection points: 2
#     Edge 21, Type (0, 0), BuildingBlock: OJICUG_clean_linker_0, # of connection points: 2
#     Edge 22, Type (0, 0), BuildingBlock: OJICUG_clean_linker_0, # of connection points: 2
#     Edge 23, Type (0, 0), BuildingBlock: OJICUG_clean_linker_0, # of connection points: 2
#     Edge 24, Type (0, 0), BuildingBlock: OJICUG_clean_linker_0, # of connection points: 2
#     Edge 25, Type (0, 0), BuildingBlock: OJICUG_clean_linker_0, # of connection points: 2
#     Edge 26, Type (0, 0), BuildingBlock: OJICUG_clean_linker_0, # of connection points: 2
#     Edge 27, Type (0, 0), BuildingBlock: OJICUG_clean_linker_0, # of connection points: 2
#     Edge 28, Type (0, 0), BuildingBlock: OJICUG_clean_linker_0, # of connection points: 2
#     Edge 29, Type (0, 0), BuildingBlock: OJICUG_clean_linker_0, # of connection points: 2
#     Edge 30, Type (0, 0), BuildingBlock: OJICUG_clean_linker_0, # of connection points: 2
#     Edge 31, Type (0, 0), BuildingBlock: OJICUG_clean_linker_0, # of connection points: 2
#     Edge 32, Type (0, 0), BuildingBlock: OJICUG_clean_linker_0, # of connection points: 2
#     Edge 33, Type (0, 0), BuildingBlock: OJICUG_clean_linker_0, # of connection points: 2
#     Edge 34, Type (0, 0), BuildingBlock: OJICUG_clean_linker_0, # of connection points: 2
#     Edge 35, Type (0, 0), BuildingBlock: OJICUG_clean_linker_0, # of connection points: 2
# Relax obj value: 0.117
# Max RMSD: 0.099
# Mean RMSD: 0.099
data_MOF--net-wje--node1-ICAMEG_clean_sbu_1--edge1-OJICUG_clean_linker_0
_symmetry_space_group_name_H-M    P1
_symmetry_Int_Tables_number       1
_symmetry_cell_setting            triclinic
loop_
_symmetry_equiv_pos_as_xyz
'x, y, z'
_cell_length_a     31.581765
_cell_length_b     31.581848
_cell_length_c     30.523884
_cell_angle_alpha  89.995328
_cell_angle_beta   90.007684
_cell_angle_gamma 120.02635
loop_
_atom_site_label
_atom_site_type_symbol
_atom_site_fract_x
_atom_site_fract_y
_atom_site_fract_z
_atom_type_partial_charge
Co0 Co 0.31461 0.96805 0.32943 0.0
Co1 Co 0.30427 0.07077 0.33724 0.0
O2 O 0.33245 0.03413 0.30917 0.0
C3 C 0.42321 0.0156 0.32808 0.0
O4 O 0.42566 0.05428 0.34663 0.0
C5 C 0.29186 0.08456 0.24239 0.0
O6 O 0.2765 0.03798 0.23591 0.0
O7 O 0.23687 0.01643 0.32422 0.0
O8 O 0.2464 0.9529 0.34287 0.0
H9 H 0.18801 0.09029 0.43636 0.0
H10 H 0.3592 1.0004 0.24175 0.0
O11 O 0.38202 0.97976 0.31681 0.0
H12 H 0.19786 0.85473 0.21511 0.0
H13 H 0.31855 0.81062 0.32796 0.0
H14 H 0.25749 0.90674 0.40483 0.0
H15 H 0.22563 0.88357 0.29039 0.0
H16 H 0.33497 0.89017 0.29864 0.0
O17 O 0.30561 0.10312 0.28032 0.0
H18 H 0.22403 0.04546 0.40093 0.0
H19 H 0.32402 0.17352 0.33146 0.0
H20 H 0.23893 0.82665 0.43444 0.0
H21 H 0.33326 0.9722 0.16585 0.0
H22 H 0.27038 0.77849 0.39645 0.0
H23 H 0.25192 0.899 0.15221 0.0
O24 O 0.33543 0.99303 0.3899 0.0
H25 H 0.47963 0.19017 0.30085 0.0
H26 H 0.35447 0.12908 0.41716 0.0
H27 H 0.4384 0.19443 0.43411 0.0
H28 H 0.50164 0.22549 0.37569 0.0
H29 H 0.39525 0.1245 0.28541 0.0
H30 H 0.28869 0.21956 0.36577 0.0
H31 H 0.22039 0.17802 0.41885 0.0
O32 O 0.30183 0.04064 0.3956 0.0
C33 C 0.21977 0.97168 0.33452 0.0
C34 C 0.21787 0.10885 0.41339 0.0
C35 C 0.27434 0.18138 0.37373 0.0
N36 N 0.27635 0.10689 0.36439 0.0
C37 C 0.23851 0.08368 0.3933 0.0
C38 C 0.2941 0.15506 0.35431 0.0
C39 C 0.23602 0.15805 0.40352 0.0
C40 C 0.32403 0.96818 0.23601 0.0
N41 N 0.29405 0.94366 0.2704 0.0
C42 C 0.30945 0.95249 0.193 0.0
C43 C 0.26378 0.91145 0.18536 0.0
C44 C 0.23344 0.88657 0.22065 0.0
C45 C 0.24931 0.9032 0.2632 0.0
C46 C 0.3048 0.83138 0.3449 0.0
C47 C 0.27045 0.88556 0.38754 0.0
C48 C 0.31405 0.8765 0.3285 0.0
N49 N 0.29736 0.90322 0.35005 0.0
C50 C 0.26003 0.84034 0.40462 0.0
C51 C 0.27772 0.81334 0.3833 0.0
C52 C 0.3203 0.01663 0.41253 0.0
C53 C 0.45236 0.17703 0.32655 0.0
C54 C 0.38182 0.14224 0.39159 0.0
C55 C 0.42926 0.17935 0.40137 0.0
C56 C 0.46471 0.19678 0.36857 0.0
N57 N 0.36997 0.12313 0.35026 0.0
C58 C 0.40452 0.14 0.31795 0.0
Co59 Co 0.35107 0.311 0.66262 0.0
Co60 Co 0.23767 0.29977 0.67045 0.0
O61 O 0.30257 0.32846 0.64235 0.0
C62 C 0.41195 0.41968 0.66121 0.0
O63 O 0.37572 0.42205 0.67986 0.0
C64 C 0.21168 0.28795 0.57553 0.0
O65 O 0.24324 0.27308 0.56884 0.0
O66 O 0.22504 0.23258 0.65717 0.0
O67 O 0.29824 0.2427 0.67619 0.0
H68 H 0.10214 0.18241 0.76929 0.0
H69 H 0.36297 0.35528 0.57484 0.0
O70 O 0.40659 0.37851 0.64988 0.0
H71 H 0.34844 0.19441 0.54861 0.0
H72 H 0.51296 0.31599 0.6614 0.0
H73 H 0.35552 0.25411 0.73809 0.0
H74 H 0.34711 0.22222 0.62381 0.0
H75 H 0.44954 0.33189 0.63193 0.0
O76 O 0.20654 0.30113 0.6136 0.0
H77 H 0.18311 0.21918 0.73395 0.0
H78 H 0.15414 0.31872 0.66485 0.0
H79 H 0.41727 0.23595 0.76777 0.0
H80 H 0.3654 0.32927 0.49901 0.0
H81 H 0.49705 0.26786 0.72989 0.0
H82 H 0.35782 0.24817 0.48557 0.0
O83 O 0.3468 0.33185 0.72302 0.0
H84 H 0.29259 0.47503 0.63477 0.0
H85 H 0.22898 0.34928 0.75057 0.0
H86 H 0.24687 0.43289 0.76786 0.0
H87 H 0.27884 0.49644 0.70969 0.0
H88 H 0.27454 0.39095 0.61899 0.0
H89 H 0.07263 0.28262 0.69907 0.0
H90 H 0.04626 0.21416 0.75192 0.0
O91 O 0.26548 0.29732 0.72878 0.0
C92 C 0.25289 0.21577 0.66765 0.0
C93 C 0.11327 0.21233 0.74642 0.0
C94 C 0.09668 0.26853 0.70697 0.0
N95 N 0.17356 0.27131 0.6976 0.0
C96 C 0.15915 0.23339 0.72638 0.0
C97 C 0.14285 0.28872 0.6876 0.0
C98 C 0.08191 0.23013 0.73663 0.0
C99 C 0.36026 0.32022 0.56919 0.0
N100 N 0.35499 0.29039 0.60364 0.0
C101 C 0.36145 0.30559 0.52622 0.0
C102 C 0.35715 0.26006 0.51869 0.0
C103 C 0.35191 0.22988 0.55405 0.0
C104 C 0.35101 0.24578 0.59656 0.0
C105 C 0.47839 0.30206 0.6783 0.0
C106 C 0.38971 0.26725 0.72083 0.0
C107 C 0.44237 0.31103 0.66182 0.0
N108 N 0.39889 0.29413 0.68332 0.0
C109 C 0.42465 0.25706 0.73797 0.0
C110 C 0.46942 0.275 0.7167 0.0
C111 C 0.30802 0.31625 0.74569 0.0
C112 C 0.27856 0.44763 0.66036 0.0
C113 C 0.24307 0.37675 0.72511 0.0
C114 C 0.25301 0.42402 0.73508 0.0
C115 C 0.2709 0.45964 0.70242 0.0
N116 N 0.25056 0.36524 0.68374 0.0
C117 C 0.26813 0.39996 0.65157 0.0
Co118 Co 0.04626 0.3486 0.9947 0.0
Co119 Co 0.94377 0.23539 0.00355 0.0
O120 O 0.98007 0.3 0.97496 0.0
C121 C 0.99849 0.40938 0.99361 0.0
O122 O 0.96011 0.37319 0.01258 0.0
C123 C 0.92932 0.20869 0.90885 0.0
O124 O 0.97582 0.2401 0.90213 0.0
O125 O 0.9981 0.22237 0.99046 0.0
O126 O 0.0617 0.29578 0.00831 0.0
H127 H 0.92527 0.10068 0.10365 0.0
H128 H 0.01309 0.3599 0.90707 0.0
O129 O 0.03421 0.40405 0.98191 0.0
H130 H 0.15922 0.34525 0.88004 0.0
H131 H 0.20312 0.51059 0.99231 0.0
H132 H 0.10829 0.35347 0.06972 0.0
H133 H 0.13068 0.34431 0.9554 0.0
H134 H 0.12363 0.44688 0.96332 0.0
O135 O 0.91102 0.20382 0.9469 0.0
H136 H 0.96971 0.1812 0.06754 0.0
H137 H 0.84108 0.15207 0.99852 0.0
H138 H 0.18841 0.41551 0.09891 0.0
H139 H 0.04089 0.36185 0.83107 0.0
H140 H 0.23585 0.49517 0.06073 0.0
H141 H 0.11432 0.35423 0.81723 0.0
O142 O 0.02177 0.34486 0.05526 0.0
H143 H 0.82375 0.2905 0.96726 0.0
H144 H 0.88603 0.22779 0.0837 0.0
H145 H 0.82063 0.24619 0.10077 0.0
H146 H 0.78898 0.27771 0.04229 0.0
H147 H 0.88948 0.27196 0.9517 0.0
H148 H 0.79541 0.071 0.03352 0.0
H149 H 0.83745 0.04495 0.08673 0.0
O150 O 0.97434 0.26367 0.06166 0.0
C151 C 0.04292 0.25026 1.00042 0.0
C152 C 0.9065 0.11167 0.08063 0.0
C153 C 0.83364 0.09499 0.04123 0.0
N154 N 0.90797 0.17155 0.03119 0.0
C155 C 0.93145 0.1573 0.06015 0.0
C156 C 0.85975 0.1409 0.02141 0.0
C157 C 0.85724 0.08041 0.07109 0.0
C158 C 0.04539 0.35714 0.90123 0.0
N159 N 0.07024 0.35209 0.93556 0.0
C160 C 0.06085 0.35807 0.85818 0.0
C161 C 0.10203 0.35375 0.85043 0.0
C162 C 0.12725 0.34872 0.88565 0.0
C163 C 0.1108 0.34805 0.92825 0.0
C164 C 0.18264 0.47609 0.00937 0.0
C165 C 0.1292 0.38759 0.05229 0.0
C166 C 0.13757 0.4399 0.99315 0.0
N167 N 0.11118 0.39653 0.01487 0.0
C168 C 0.17443 0.4227 0.06917 0.0
C169 C 0.20102 0.46739 0.04773 0.0
C170 C 0.99845 0.30634 0.07822 0.0
C171 C 0.83715 0.27667 0.99299 0.0
C172 C 0.87261 0.24168 0.0581 0.0
C173 C 0.83547 0.25191 0.06795 0.0
C174 C 0.81771 0.26955 0.03511 0.0
N175 N 0.89141 0.24864 0.01667 0.0
C176 C 0.87422 0.26596 0.98432 0.0
Co177 Co 0.70464 0.04394 0.32714 0.0
Co178 Co 0.71581 0.94177 0.33662 0.0
O179 O 0.68702 0.97758 0.30799 0.0
C180 C 0.596 0.99586 0.32711 0.0
O181 O 0.59407 0.95778 0.34642 0.0
C182 C 0.72717 0.92655 0.24193 0.0
O183 O 0.74206 0.97295 0.23494 0.0
O184 O 0.78296 0.99612 0.32291 0.0
O185 O 0.7732 0.05988 0.34015 0.0
H186 H 0.8334 0.92484 0.43611 0.0
H187 H 0.65917 0.00943 0.24004 0.0
O188 O 0.6369 0.03146 0.31487 0.0
H189 H 0.81922 0.15587 0.21093 0.0
H190 H 0.69891 0.20039 0.32344 0.0
H191 H 0.76228 0.10695 0.40153 0.0
H192 H 0.79263 0.1282 0.28667 0.0
H193 H 0.68322 0.1207 0.29514 0.0
O194 O 0.71418 0.90856 0.28014 0.0
H195 H 0.79658 0.96861 0.40009 0.0
H196 H 0.69678 0.8392 0.33217 0.0
H197 H 0.78003 0.18717 0.43017 0.0
H198 H 0.68401 0.0363 0.16368 0.0
H199 H 0.7473 0.2339 0.39164 0.0
H200 H 0.7647 0.10987 0.14879 0.0
O201 O 0.68468 0.02015 0.38802 0.0
H202 H 0.54035 0.82093 0.30191 0.0
H203 H 0.66658 0.88466 0.41731 0.0
H204 H 0.58301 0.8192 0.43518 0.0
H205 H 0.51922 0.78682 0.37722 0.0
H206 H 0.6244 0.88673 0.28555 0.0
H207 H 0.73291 0.79419 0.3671 0.0
H208 H 0.80153 0.83696 0.4197 0.0
O209 O 0.7185 0.9728 0.39455 0.0
C210 C 0.79992 0.04109 0.33227 0.0
C211 C 0.80341 0.90575 0.41336 0.0
C212 C 0.74705 0.83245 0.37458 0.0
N213 N 0.74432 0.90645 0.36429 0.0
C214 C 0.78232 0.93033 0.39293 0.0
C215 C 0.72684 0.85818 0.35481 0.0
C216 C 0.78554 0.85646 0.40411 0.0
C217 C 0.69407 0.04178 0.23374 0.0
N218 N 0.72434 0.0672 0.2677 0.0
C219 C 0.70803 0.05672 0.19048 0.0
C220 C 0.75333 0.09798 0.18215 0.0
C221 C 0.78394 0.12381 0.217 0.0
C222 C 0.76873 0.10785 0.25982 0.0
C223 C 0.71315 0.18021 0.34066 0.0
C224 C 0.74881 0.12754 0.38398 0.0
C225 C 0.70434 0.13503 0.32482 0.0
N226 N 0.72163 0.10904 0.34673 0.0
C227 C 0.75877 0.17284 0.40052 0.0
C228 C 0.74038 0.19904 0.37888 0.0
C229 C 0.69999 0.99697 0.41104 0.0
C230 C 0.56786 0.83465 0.32741 0.0
C231 C 0.639 0.87092 0.39194 0.0
C232 C 0.59176 0.83375 0.40223 0.0
C233 C 0.55601 0.81557 0.36969 0.0
N234 N 0.65037 0.88936 0.35035 0.0
C235 C 0.61552 0.87176 0.3183 0.0
Co236 Co 0.66555 0.70106 0.66121 0.0
Co237 Co 0.77883 0.71202 0.67013 0.0
O238 O 0.71414 0.68341 0.64167 0.0
C239 C 0.60468 0.59242 0.66065 0.0
O240 O 0.64084 0.5903 0.67975 0.0
C241 C 0.80551 0.72406 0.57542 0.0
O242 O 0.77413 0.73915 0.5686 0.0
O243 O 0.79171 0.77925 0.65672 0.0
O244 O 0.71833 0.76948 0.67451 0.0
H245 H 0.91373 0.82917 0.76961 0.0
H246 H 0.65413 0.65599 0.57387 0.0
O247 O 0.61008 0.63344 0.64871 0.0
H248 H 0.6691 0.81672 0.54571 0.0
H249 H 0.50383 0.69634 0.65783 0.0
H250 H 0.66043 0.75828 0.73607 0.0
H251 H 0.66985 0.78955 0.62128 0.0
H252 H 0.56746 0.68018 0.62942 0.0
O253 O 0.8103 0.71064 0.6135 0.0
H254 H 0.83303 0.79253 0.73377 0.0
H255 H 0.86229 0.69292 0.66521 0.0
H256 H 0.59831 0.77645 0.76484 0.0
H257 H 0.65226 0.68136 0.49768 0.0
H258 H 0.51899 0.74454 0.72618 0.0
H259 H 0.66006 0.76239 0.48326 0.0
O260 O 0.66942 0.68071 0.72194 0.0
H261 H 0.72386 0.5367 0.63463 0.0
H262 H 0.78682 0.6624 0.75049 0.0
H263 H 0.76861 0.57872 0.76794 0.0
H264 H 0.73697 0.5152 0.70975 0.0
H265 H 0.74221 0.62085 0.6187 0.0
H266 H 0.94355 0.72887 0.69993 0.0
H267 H 0.96963 0.7973 0.75277 0.0
O268 O 0.75064 0.71447 0.72821 0.0
C269 C 0.76383 0.79622 0.66649 0.0
C270 C 0.90273 0.79926 0.74675 0.0
C271 C 0.91948 0.74301 0.70761 0.0
N272 N 0.84274 0.74037 0.69766 0.0
C273 C 0.857 0.77827 0.72643 0.0
C274 C 0.87347 0.72289 0.68795 0.0
C275 C 0.93409 0.7814 0.73726 0.0
C276 C 0.65693 0.69102 0.56779 0.0
N277 N 0.66201 0.72116 0.60192 0.0
C278 C 0.65605 0.70529 0.52462 0.0
C279 C 0.66048 0.75078 0.51655 0.0
C280 C 0.66553 0.78128 0.55157 0.0
C281 C 0.66611 0.76574 0.5943 0.0
C282 C 0.5382 0.71026 0.67508 0.0
C283 C 0.6264 0.74511 0.71849 0.0
C284 C 0.57435 0.70117 0.65919 0.0
N285 N 0.6176 0.71811 0.68111 0.0
C286 C 0.59128 0.75532 0.7351 0.0
C287 C 0.54676 0.73737 0.71339 0.0
C288 C 0.70799 0.69589 0.74483 0.0
C289 C 0.73775 0.56409 0.66023 0.0
C290 C 0.77288 0.63493 0.72502 0.0
C291 C 0.76275 0.58763 0.73508 0.0
C292 C 0.74504 0.55203 0.7024 0.0
N293 N 0.76573 0.6465 0.68354 0.0
C294 C 0.74835 0.6118 0.65136 0.0
Co295 Co 0.9705 0.66274 0.99559 0.0
Co296 Co 0.0728 0.7761 0.00367 0.0
O297 O 0.03657 0.71127 0.97551 0.0
C298 C 0.01833 0.60196 0.99422 0.0
O299 O 0.05688 0.63819 0.01295 0.0
C300 C 0.08702 0.80229 0.9088 0.0
O301 O 0.04054 0.77079 0.90208 0.0
O302 O 0.01828 0.78877 0.99039 0.0
O303 O 0.95503 0.71555 0.00916 0.0
H304 H 0.09098 0.91148 0.10265 0.0
H305 H 1.00314 0.65094 0.90791 0.0
O306 O 0.98249 0.60726 0.98285 0.0
H307 H 0.85725 0.66608 0.88119 0.0
H308 H 0.81335 0.501 0.99348 0.0
H309 H 0.90893 0.65794 0.071 0.0
H310 H 0.88592 0.66697 0.95649 0.0
H311 H 0.89292 0.56449 0.96444 0.0
O312 O 0.10533 0.80731 0.94686 0.0
H313 H 0.04677 0.83055 0.06724 0.0
H314 H 0.17534 0.85964 0.99819 0.0
H315 H 0.82884 0.59602 0.10035 0.0
H316 H 0.97509 0.64883 0.83198 0.0
H317 H 0.78094 0.51655 0.06201 0.0
H318 H 0.90178 0.65672 0.81829 0.0
O319 O 0.99542 0.66688 0.05609 0.0
H320 H 0.1931 0.72123 0.96789 0.0
H321 H 0.13095 0.78463 0.0838 0.0
H322 H 0.19662 0.76667 0.10106 0.0
H323 H 0.22821 0.73481 0.04284 0.0
H324 H 0.12712 0.73933 0.95215 0.0
H325 H 0.22077 0.94113 0.03247 0.0
H326 H 0.17865 0.96742 0.08533 0.0
O327 O 0.04249 0.74818 0.06195 0.0
C328 C 0.97357 0.76093 1.00073 0.0
C329 C 0.10979 0.90039 0.07978 0.0
C330 C 0.18261 0.91705 0.04035 0.0
N331 N 0.10848 0.84017 0.03091 0.0
C332 C 0.08496 0.85453 0.0597 0.0
C333 C 0.15664 0.8709 0.02094 0.0
C334 C 0.15896 0.93177 0.07002 0.0
C335 C 0.97087 0.65375 0.90215 0.0
N336 N 0.9462 0.65899 0.93653 0.0
C337 C 0.95527 0.65275 0.85913 0.0
C338 C 0.91416 0.65723 0.85146 0.0
C339 C 0.88913 0.66244 0.88674 0.0
C340 C 0.90568 0.66312 0.92931 0.0
C341 C 0.834 0.53545 0.01057 0.0
C342 C 0.88788 0.62384 0.05357 0.0
C343 C 0.87912 0.57152 0.99432 0.0
N344 N 0.90569 0.61486 0.01604 0.0
C345 C 0.84264 0.58883 0.07051 0.0
C346 C 0.8158 0.54422 0.04899 0.0
C347 C 0.01876 0.70562 0.0788 0.0
C348 C 0.17973 0.73521 0.9935 0.0
C349 C 0.14434 0.77059 0.05832 0.0
C350 C 0.18163 0.76061 0.06827 0.0
C351 C 0.19937 0.74277 0.03558 0.0
N352 N 0.12536 0.76319 0.01693 0.0
C353 C 0.14252 0.74568 0.98473 0.0
Co354 Co 0.04736 0.70153 0.35086 0.0
Co355 Co 0.94508 0.71253 0.34085 0.0
O356 O 0.98085 0.6838 0.36963 0.0
C357 C 0.99929 0.59286 0.35062 0.0
O358 O 0.96127 0.59095 0.3312 0.0
C359 C 0.92982 0.72434 0.43538 0.0
O360 O 0.97629 0.73953 0.44232 0.0
O361 O 0.99933 0.77972 0.35458 0.0
O362 O 0.06338 0.77015 0.33805 0.0
H363 H 0.92822 0.82991 0.24103 0.0
H364 H 0.01212 0.65559 0.43769 0.0
O365 O 0.03483 0.63374 0.36297 0.0
H366 H 0.15817 0.81557 0.46794 0.0
H367 H 0.20394 0.69612 0.35586 0.0
H368 H 0.11091 0.75932 0.27679 0.0
H369 H 0.13124 0.78933 0.39199 0.0
H370 H 0.12393 0.68018 0.3835 0.0
O371 O 0.91174 0.71093 0.39725 0.0
H372 H 0.972 0.79326 0.27732 0.0
H373 H 0.84246 0.69336 0.345 0.0
H374 H 0.19136 0.77709 0.24869 0.0
H375 H 0.03826 0.68006 0.51425 0.0
H376 H 0.23791 0.74453 0.28775 0.0
H377 H 0.11164 0.76071 0.52972 0.0
O378 O 0.02408 0.68189 0.28978 0.0
H379 H 0.82427 0.53707 0.37555 0.0
H380 H 0.88829 0.66318 0.26006 0.0
H381 H 0.82297 0.57955 0.24215 0.0
H382 H 0.79044 0.51582 0.30015 0.0
H383 H 0.88993 0.62117 0.39195 0.0
H384 H 0.79743 0.72932 0.30981 0.0
H385 H 0.84026 0.7979 0.25719 0.0
O386 O 0.97631 0.71525 0.28305 0.0
C387 C 0.04441 0.79677 0.34562 0.0
C388 C 0.9091 0.79994 0.26379 0.0
C389 C 0.83572 0.74352 0.30243 0.0
N390 N 0.90977 0.74095 0.313 0.0
C391 C 0.93368 0.77894 0.28436 0.0
C392 C 0.86147 0.72341 0.32236 0.0
C393 C 0.85977 0.78199 0.2729 0.0
C394 C 0.04439 0.69047 0.44423 0.0
N395 N 0.07011 0.72092 0.41048 0.0
C396 C 0.05892 0.70422 0.48761 0.0
C397 C 0.10007 0.7495 0.49627 0.0
C398 C 0.12621 0.7803 0.46162 0.0
C399 C 0.11066 0.76529 0.41868 0.0
C400 C 0.18385 0.71031 0.33842 0.0
C401 C 0.1314 0.74586 0.29455 0.0
C402 C 0.1385 0.70136 0.35389 0.0
N403 N 0.11263 0.71863 0.33172 0.0
C404 C 0.17683 0.75587 0.27833 0.0
C405 C 0.20294 0.73755 0.30026 0.0
C406 C 1.00084 0.69707 0.26668 0.0
C407 C 0.83805 0.56455 0.35003 0.0
C408 C 0.87448 0.63563 0.28546 0.0
C409 C 0.83739 0.58836 0.27513 0.0
C410 C 0.81914 0.55263 0.3077 0.0
N411 N 0.89276 0.64706 0.32709 0.0
C412 C 0.87509 0.61224 0.35917 0.0
Co413 Co 0.35161 0.04413 0.68486 0.0
Co414 Co 0.23839 0.94158 0.67411 0.0
O415 O 0.30277 0.97744 0.70316 0.0
C416 C 0.41224 0.99617 0.6839 0.0
O417 O 0.37612 0.95834 0.66425 0.0
C418 C 0.21094 0.92626 0.7685 0.0
O419 O 0.24215 0.97278 0.77536 0.0
O420 O 0.22515 0.99564 0.68769 0.0
O421 O 0.29897 0.06015 0.67236 0.0
H422 H 0.10455 0.92432 0.5735 0.0
H423 H 0.36202 0.00801 0.77134 0.0
O424 O 0.40688 0.03155 0.69668 0.0
H425 H 0.34847 0.15395 0.80292 0.0
H426 H 0.5137 0.20068 0.6907 0.0
H427 H 0.35745 0.10837 0.6114 0.0
H428 H 0.34769 0.12761 0.72674 0.0
H429 H 0.44952 0.12043 0.71788 0.0
O430 O 0.20639 0.90811 0.73042 0.0
H431 H 0.18472 0.96833 0.61027 0.0
H432 H 0.15507 0.83883 0.67798 0.0
H433 H 0.42022 0.18906 0.58377 0.0
H434 H 0.36364 0.03347 0.84813 0.0
H435 H 0.49939 0.2352 0.6229 0.0
H436 H 0.35658 0.1068 0.86426 0.0
O437 O 0.34818 0.02151 0.62358 0.0
H438 H 0.29326 0.8211 0.70919 0.0
H439 H 0.23162 0.88509 0.59332 0.0
H440 H 0.25028 0.82002 0.57555 0.0
H441 H 0.28126 0.78751 0.63374 0.0
H442 H 0.27448 0.88651 0.72545 0.0
H443 H 0.07434 0.79356 0.6423 0.0
H444 H 0.04874 0.83626 0.58941 0.0
O445 O 0.26716 0.97299 0.61645 0.0
C446 C 0.25321 0.04087 0.67935 0.0
C447 C 0.11535 0.90527 0.59637 0.0
C448 C 0.09838 0.8319 0.63502 0.0
N449 N 0.17479 0.90614 0.64599 0.0
C450 C 0.16078 0.92998 0.61722 0.0
C451 C 0.14409 0.85778 0.65523 0.0
C452 C 0.08404 0.85587 0.60534 0.0
C453 C 0.35946 0.04024 0.77818 0.0
N454 N 0.35483 0.06628 0.74467 0.0
C455 C 0.36022 0.05438 0.82168 0.0
C456 C 0.3562 0.09551 0.83071 0.0
C457 C 0.35165 0.12199 0.79631 0.0
C458 C 0.35108 0.10679 0.75324 0.0
C459 C 0.47941 0.18074 0.67321 0.0
C460 C 0.3914 0.1287 0.62921 0.0
C461 C 0.44294 0.13526 0.68842 0.0
N462 N 0.39981 0.1096 0.66618 0.0
C463 C 0.42689 0.17427 0.61325 0.0
C464 C 0.47133 0.20014 0.63522 0.0
C465 C 0.30993 0.99805 0.6003 0.0
C466 C 0.27966 0.83487 0.68359 0.0
C467 C 0.24527 0.87129 0.6188 0.0
C468 C 0.25565 0.83434 0.60855 0.0
C469 C 0.27299 0.81609 0.64123 0.0
N470 N 0.2518 0.88944 0.66046 0.0
C471 C 0.26881 0.87177 0.69265 0.0
Co472 Co 0.31295 0.34784 0.01781 0.0
Co473 Co 0.30179 0.23447 0.00737 0.0
O474 O 0.33065 0.29896 0.03628 0.0
C475 C 0.42163 0.40838 0.01692 0.0
O476 O 0.42334 0.37225 0.99735 0.0
C477 C 0.2904 0.20751 0.10189 0.0
O478 O 0.27538 0.23892 0.10886 0.0
O479 O 0.23463 0.22148 0.02125 0.0
O480 O 0.24421 0.29527 0.00536 0.0
H481 H 0.18427 0.10037 0.90743 0.0
H482 H 0.35935 0.3583 0.10438 0.0
O483 O 0.38087 0.40305 0.02962 0.0
H484 H 0.20013 0.34559 0.13557 0.0
H485 H 0.31933 0.51029 0.02276 0.0
H486 H 0.25456 0.35351 0.94426 0.0
H487 H 0.22568 0.3444 0.05948 0.0
H488 H 0.33492 0.446 0.05042 0.0
O489 O 0.30351 0.20264 0.0637 0.0
H490 H 0.22094 0.18073 0.94391 0.0
H491 H 0.32091 0.15099 0.01127 0.0
H492 H 0.237 0.41633 0.91623 0.0
H493 H 0.3355 0.36026 0.1811 0.0
H494 H 0.27051 0.4958 0.95492 0.0
H495 H 0.25524 0.35361 0.19704 0.0
O496 O 0.33216 0.34419 0.95661 0.0
H497 H 0.47732 0.28907 0.04164 0.0
H498 H 0.35091 0.22719 0.9264 0.0
H499 H 0.43448 0.24552 0.90825 0.0
H500 H 0.49835 0.27662 0.96613 0.0
H501 H 0.39328 0.27061 0.05828 0.0
H502 H 0.28494 0.07008 0.97588 0.0
H503 H 0.21632 0.04442 0.92332 0.0
O504 O 0.29893 0.26308 0.94967 0.0
C505 C 0.21759 0.24959 0.01268 0.0
C506 C 0.21426 0.11119 0.93017 0.0
C507 C 0.27072 0.09417 0.96862 0.0
N508 N 0.27329 0.17076 0.97944 0.0
C509 C 0.23527 0.15673 0.95084 0.0
C510 C 0.29084 0.13999 0.98866 0.0
C511 C 0.23223 0.0798 0.93912 0.0
C512 C 0.32461 0.3559 0.11114 0.0
N513 N 0.29401 0.35129 0.07756 0.0
C514 C 0.31122 0.35686 0.15459 0.0
C515 C 0.26616 0.35308 0.16352 0.0
C516 C 0.23521 0.34856 0.12906 0.0
C517 C 0.24984 0.34777 0.08603 0.0
C518 C 0.30479 0.47588 0.00545 0.0
C519 C 0.26834 0.38757 0.96191 0.0
C520 C 0.31353 0.43935 0.02094 0.0
N521 N 0.29586 0.39608 0.9989 0.0
C522 C 0.25848 0.4231 0.94571 0.0
C523 C 0.27731 0.4677 0.96744 0.0
C524 C 0.31694 0.30583 0.93341 0.0
C525 C 0.44977 0.27542 0.01617 0.0
C526 C 0.37853 0.24089 0.95174 0.0
C527 C 0.42577 0.25109 0.94128 0.0
C528 C 0.46157 0.26849 0.97378 0.0
N529 N 0.36722 0.24767 0.99343 0.0
C530 C 0.40212 0.26475 0.02545 0.0
Co531 Co 0.97117 0.31136 0.34963 0.0
Co532 Co 0.07388 0.30105 0.34034 0.0
O533 O 0.03752 0.32921 0.36903 0.0
C534 C 0.01888 0.41998 0.3503 0.0
O535 O 0.05722 0.42218 0.33127 0.0
C536 C 0.08837 0.28849 0.43489 0.0
O537 O 0.04178 0.273 0.4415 0.0
O538 O 0.01973 0.2336 0.35349 0.0
O539 O 0.95571 0.24302 0.33639 0.0
H540 H 0.09265 0.18521 0.24001 0.0
H541 H 1.00508 0.35646 0.43695 0.0
O542 O 0.98321 0.37892 0.36212 0.0
H543 H 0.85918 0.19576 0.46524 0.0
H544 H 0.8142 0.31614 0.35285 0.0
H545 H 0.90862 0.25374 0.27502 0.0
H546 H 0.88707 0.22287 0.38965 0.0
H547 H 0.89393 0.3322 0.3814 0.0
O548 O 0.10679 0.30237 0.39693 0.0
H549 H 0.04803 0.22091 0.27638 0.0
H550 H 0.17671 0.3209 0.34511 0.0
H551 H 0.82835 0.23556 0.24616 0.0
H552 H 0.97796 0.33111 0.51317 0.0
H553 H 0.78112 0.2678 0.28457 0.0
H554 H 0.90466 0.25009 0.52765 0.0
O555 O 0.99514 0.33171 0.28886 0.0
H556 H 0.19362 0.4764 0.37648 0.0
H557 H 0.13124 0.35135 0.26006 0.0
H558 H 0.19636 0.43531 0.24287 0.0
H559 H 0.22806 0.4985 0.30135 0.0
H560 H 0.12817 0.39199 0.39215 0.0
H561 H 0.22257 0.2859 0.30984 0.0
H562 H 0.1806 0.21777 0.25664 0.0
O563 O 0.04309 0.29857 0.28234 0.0
C564 C 0.97475 0.21646 0.34402 0.0
C565 C 0.11139 0.215 0.26303 0.0
C566 C 0.18428 0.27146 0.30225 0.0
N567 N 0.10978 0.27322 0.31258 0.0
C568 C 0.08634 0.23545 0.28365 0.0
C569 C 0.15807 0.29103 0.32222 0.0
C570 C 0.16072 0.23325 0.2724 0.0
C571 C 0.97284 0.32142 0.44306 0.0
N572 N 0.94769 0.29127 0.40896 0.0
C573 C 0.95776 0.30717 0.48625 0.0
C574 C 0.91665 0.26169 0.49435 0.0
C575 C 0.89111 0.23118 0.45935 0.0
C576 C 0.90719 0.24669 0.41662 0.0
C577 C 0.8346 0.3021 0.33569 0.0
C578 C 0.88781 0.26698 0.29253 0.0
C579 C 0.8798 0.31113 0.35167 0.0
N580 N 0.90606 0.2941 0.32984 0.0
C581 C 0.84249 0.25679 0.27586 0.0
C582 C 0.81601 0.27491 0.29742 0.0
C583 C 0.01855 0.31668 0.26585 0.0
C584 C 0.1802 0.44916 0.35076 0.0
C585 C 0.14468 0.37867 0.28566 0.0
C586 C 0.18166 0.42613 0.27574 0.0
C587 C 0.19946 0.46155 0.30858 0.0
N588 N 0.12606 0.36678 0.32714 0.0
C589 C 0.14329 0.40129 0.35948 0.0
Co590 Co 0.66563 0.96805 0.68251 0.0
Co591 Co 0.77888 0.07062 0.67361 0.0
O592 O 0.71414 0.0344 0.70196 0.0
C593 C 0.60476 0.01582 0.68284 0.0
O594 O 0.64097 0.05422 0.66392 0.0
C595 C 0.80541 0.08519 0.76831 0.0
O596 O 0.77415 0.03864 0.77498 0.0
O597 O 0.79188 0.01637 0.68713 0.0
O598 O 0.7185 0.95247 0.66962 0.0
H599 H 0.91413 0.08886 0.57441 0.0
H600 H 0.65408 1.00207 0.76962 0.0
O601 O 0.6101 0.98014 0.69466 0.0
H602 H 0.66852 0.85615 0.79858 0.0
H603 H 0.50388 0.81096 0.68575 0.0
H604 H 0.66078 0.9055 0.60793 0.0
H605 H 0.66965 0.88392 0.72288 0.0
H606 H 0.56745 0.89084 0.71417 0.0
O607 O 0.81018 0.10353 0.73029 0.0
H608 H 0.83341 0.04451 0.61019 0.0
H609 H 0.86212 0.17334 0.67858 0.0
H610 H 0.59867 0.82517 0.57912 0.0
H611 H 0.65191 0.97504 0.84594 0.0
H612 H 0.51922 0.77783 0.61757 0.0
H613 H 0.65943 0.90172 0.86076 0.0
O614 O 0.66967 0.99206 0.62166 0.0
H615 H 0.72351 0.19068 0.70877 0.0
H616 H 0.78677 0.12803 0.59315 0.0
H617 H 0.76834 0.19331 0.57552 0.0
H618 H 0.73655 0.22514 0.63359 0.0
H619 H 0.74208 0.12508 0.72488 0.0
H620 H 0.94338 0.21892 0.64392 0.0
H621 H 0.96975 0.17674 0.59119 0.0
O622 O 0.75088 0.03984 0.61554 0.0
C623 C 0.76403 0.97141 0.67761 0.0
C624 C 0.903 0.1077 0.59722 0.0
C625 C 0.91944 0.18067 0.63627 0.0
N626 N 0.84285 0.10635 0.6462 0.0
C627 C 0.85726 0.0828 0.6175 0.0
C628 C 0.87342 0.15461 0.6559 0.0
C629 C 0.93421 0.15699 0.60668 0.0
C630 C 0.65679 0.96982 0.77588 0.0
N631 N 0.66191 0.94461 0.7419 0.0
C632 C 0.65573 0.95479 0.81911 0.0
C633 C 0.66 0.91367 0.82741 0.0
C634 C 0.66508 0.88807 0.79254 0.0
C635 C 0.66587 0.90409 0.74974 0.0
C636 C 0.53831 0.83139 0.66859 0.0
C637 C 0.62668 0.88468 0.62542 0.0
C638 C 0.57444 0.87667 0.68449 0.0
N639 N 0.61777 0.90295 0.66268 0.0
C640 C 0.59158 0.83931 0.60879 0.0
C641 C 0.54697 0.81277 0.63038 0.0
C642 C 0.7083 0.01546 0.59884 0.0
C643 C 0.73747 0.1772 0.68322 0.0
C644 C 0.77277 0.14154 0.61857 0.0
C645 C 0.76252 0.1786 0.60841 0.0
C646 C 0.74472 0.19647 0.64101 0.0
N647 N 0.76566 0.12291 0.66008 0.0
C648 C 0.7482 0.14021 0.6922 0.0
Co649 Co 0.70325 0.66185 0.01669 0.0
Co650 Co 0.71366 0.77496 0.00718 0.0
O651 O 0.68522 0.71032 0.03571 0.0
C652 C 0.5946 0.60091 0.01637 0.0
O653 O 0.59258 0.63709 0.99721 0.0
C654 C 0.72574 0.80181 0.10177 0.0
O655 O 0.74117 0.77069 0.10848 0.0
O656 O 0.78098 0.78822 0.02074 0.0
O657 O 0.7718 0.71477 0.00411 0.0
H658 H 0.83048 0.91 0.90765 0.0
H659 H 0.657 0.65042 0.10346 0.0
O660 O 0.63553 0.60629 0.02857 0.0
H661 H 0.81718 0.66501 0.13381 0.0
H662 H 0.6986 0.50019 0.02099 0.0
H663 H 0.76139 0.65681 0.9426 0.0
H664 H 0.79113 0.66604 0.05785 0.0
H665 H 0.68218 0.56384 0.04888 0.0
O666 O 0.71201 0.80639 0.06376 0.0
H667 H 0.79427 0.82943 0.94369 0.0
H668 H 0.69393 0.85801 0.01181 0.0
H669 H 0.77962 0.59456 0.91425 0.0
H670 H 0.68127 0.64838 0.18001 0.0
H671 H 0.74728 0.51526 0.95298 0.0
H672 H 0.76202 0.65597 0.19553 0.0
O673 O 0.68369 0.66569 0.95563 0.0
H674 H 0.53809 0.71925 0.04227 0.0
H675 H 0.66399 0.78233 0.9266 0.0
H676 H 0.58018 0.76356 0.90891 0.0
H677 H 0.51656 0.73186 0.967 0.0
H678 H 0.62236 0.73814 0.05846 0.0
H679 H 0.72944 0.93911 0.97686 0.0
H680 H 0.79801 0.96547 0.92415 0.0
O681 O 0.71648 0.7468 0.94925 0.0
C682 C 0.79824 0.7604 0.01173 0.0
C683 C 0.8005 0.89887 0.93045 0.0
C684 C 0.74383 0.91523 0.96934 0.0
N685 N 0.74177 0.83881 0.97958 0.0
C686 C 0.77976 0.85322 0.95089 0.0
C687 C 0.72398 0.86931 0.98912 0.0
C688 C 0.7823 0.92999 0.93975 0.0
C689 C 0.69193 0.65318 0.11002 0.0
N690 N 0.72253 0.65827 0.07629 0.0
C691 C 0.70557 0.65219 0.15339 0.0
C692 C 0.7509 0.6565 0.16208 0.0
C693 C 0.78187 0.66155 0.12746 0.0
C694 C 0.76696 0.66228 0.08452 0.0
C695 C 0.71269 0.53456 0.0037 0.0
C696 C 0.74802 0.62278 0.96021 0.0
C697 C 0.70349 0.57074 0.01931 0.0
N698 N 0.72065 0.61399 0.99734 0.0
C699 C 0.75829 0.5876 0.94385 0.0
C700 C 0.74009 0.54307 0.96559 0.0
C701 C 0.69864 0.70421 0.93269 0.0
C702 C 0.56552 0.73316 0.01672 0.0
C703 C 0.63648 0.76837 0.95204 0.0
C704 C 0.58911 0.75793 0.94184 0.0
C705 C 0.55345 0.74018 0.97445 0.0
N706 N 0.64806 0.76149 0.9936 0.0
C707 C 0.6133 0.74408 0.02573 0.0
C708 C 0.29094 0.10255 0.16228 0.0
C709 C 0.29168 0.11591 0.20626 0.0
H710 H 0.29066 0.12135 0.0949 0.0
C711 C 0.29194 0.15972 0.21567 0.0
H712 H 0.29075 0.06911 0.15396 0.0
C713 C 0.29108 0.18929 0.1819 0.0
C714 C 0.29094 0.17624 0.13792 0.0
H715 H 0.29218 0.17094 0.24924 0.0
H716 H 0.29103 0.2226 0.19025 0.0
C717 C 0.29107 0.13263 0.12849 0.0
C718 C 0.13653 0.28791 0.54876 0.0
C719 C 0.18035 0.28816 0.53938 0.0
H720 H 0.07282 0.28711 0.52325 0.0
C721 C 0.19351 0.28845 0.49542 0.0
H722 H 0.12513 0.28736 0.58232 0.0
C723 C 0.16386 0.28911 0.46161 0.0
C724 C 0.11987 0.28849 0.47098 0.0
H725 H 0.22698 0.28869 0.48712 0.0
H726 H 0.17516 0.28949 0.42804 0.0
C727 C 0.1064 0.28758 0.51494 0.0
C728 C 0.88045 0.16054 0.79499 0.0
C729 C 0.83688 0.11672 0.8044 0.0
H730 H 0.94416 0.22357 0.82045 0.0
C731 C 0.82414 0.10347 0.84837 0.0
H732 H 0.89151 0.17168 0.76141 0.0
C733 C 0.85397 0.13366 0.88217 0.0
C734 C 0.89773 0.1773 0.87275 0.0
H735 H 0.79088 0.07002 0.85671 0.0
H736 H 0.84299 0.12244 0.91574 0.0
C737 C 0.91077 0.19024 0.82878 0.0
C738 C 0.72677 0.82104 0.18177 0.0
C739 C 0.72584 0.83345 0.13777 0.0
H740 H 0.72725 0.84035 0.24908 0.0
C741 C 0.7254 0.87688 0.12823 0.0
H742 H 0.72711 0.78788 0.1902 0.0
C743 C 0.72629 0.90741 0.16192 0.0
C744 C 0.72664 0.89471 0.20594 0.0
H745 H 0.72501 0.8877 0.09462 0.0
H746 H 0.72621 0.94069 0.15349 0.0
C747 C 0.72668 0.85107 0.21548 0.0
C748 C 0.91106 0.72446 0.51535 0.0
C749 C 0.89806 0.72411 0.47132 0.0
H750 H 0.89172 0.72405 0.58264 0.0
C751 C 0.85427 0.72381 0.46173 0.0
H752 H 0.94448 0.72467 0.52382 0.0
C753 C 0.82436 0.72425 0.4954 0.0
C754 C 0.83707 0.72399 0.53943 0.0
H755 H 0.84332 0.72386 0.42811 0.0
H756 H 0.79106 0.72428 0.48694 0.0
C757 C 0.88067 0.72392 0.54902 0.0
C758 C 0.13598 0.85064 0.79498 0.0
C759 C 0.17942 0.89456 0.80448 0.0
H760 H 0.07236 0.78742 0.82033 0.0
C761 C 0.19202 0.90779 0.84848 0.0
H762 H 0.12504 0.83952 0.76137 0.0
C763 C 0.16219 0.8775 0.88221 0.0
C764 C 0.11857 0.83376 0.87272 0.0
H765 H 0.22518 0.94131 0.85688 0.0
H766 H 0.17308 0.88873 0.9158 0.0
C767 C 0.10565 0.82082 0.82872 0.0
C768 C 0.51436 0.05223 0.32372 0.0
C769 C 0.46746 0.01075 0.32457 0.0
H770 H 0.59162 0.07998 0.32286 0.0
C771 C 0.46309 0.96411 0.32428 0.0
H772 H 0.51891 0.08859 0.32393 0.0
C773 C 0.50473 0.9591 0.32457 0.0
C774 C 0.55164 1.00059 0.32405 0.0
H775 H 0.42745 0.93136 0.32528 0.0
H776 H 0.5002 0.92276 0.32548 0.0
C777 C 0.55598 0.0472 0.32291 0.0
C778 C 0.55004 0.50119 0.65769 0.0
C779 C 0.55554 0.54812 0.65744 0.0
H780 H 0.50043 0.42392 0.6581 0.0
C781 C 0.51328 0.55248 0.65646 0.0
H782 H 0.58183 0.49662 0.65847 0.0
C783 C 0.46658 0.51087 0.65716 0.0
C784 C 0.46109 0.46395 0.65775 0.0
H785 H 0.51621 0.58814 0.65661 0.0
H786 H 0.4348 0.51544 0.65751 0.0
C787 C 0.50335 0.45957 0.6573 0.0
C788 C 0.05499 0.54745 0.99027 0.0
C789 C 0.01351 0.55287 0.9907 0.0
H790 H 0.0827 0.49792 0.98986 0.0
C791 C 0.96687 0.51057 0.99002 0.0
H792 H 0.09134 0.57927 0.99079 0.0
C793 C 0.96183 0.46391 0.99039 0.0
C794 C 1.00331 0.45849 0.99034 0.0
H795 H 0.93411 0.51343 0.99068 0.0
H796 H 0.92548 0.43209 0.99102 0.0
C797 C 0.04994 0.50079 0.98955 0.0
C798 C 0.0506 0.55281 0.35477 0.0
C799 C 1.00399 0.5485 0.35378 0.0
H800 H 0.09193 0.51568 0.3538 0.0
C801 C 0.96248 0.5016 0.35356 0.0
H802 H 0.08338 0.58845 0.35459 0.0
C803 C 0.96746 0.45994 0.35404 0.0
C804 C 0.01408 0.46427 0.35363 0.0
H805 H 0.92615 0.49709 0.35277 0.0
H806 H 0.93469 0.4243 0.35329 0.0
C807 C 0.05559 0.51116 0.35414 0.0
C808 C 0.5503 0.05252 0.68702 0.0
C809 C 0.55567 0.01102 0.68622 0.0
H810 H 0.5008 0.08027 0.68794 0.0
C811 C 0.51335 0.96439 0.68651 0.0
H812 H 0.58215 0.08886 0.68679 0.0
C813 C 0.4667 0.95939 0.68623 0.0
C814 C 0.46133 1.00089 0.6868 0.0
H815 H 0.5162 0.93163 0.68553 0.0
H816 H 0.43486 0.92306 0.68536 0.0
C817 C 0.50365 0.0475 0.68788 0.0
C818 C 0.46174 0.49978 0.02075 0.0
C819 C 0.46601 0.45747 0.01987 0.0
H820 H 0.49892 0.57827 0.01966 0.0
C821 C 0.51289 0.46285 0.01961 0.0
H822 H 0.42611 0.49692 0.02057 0.0
C823 C 0.55457 0.5095 0.02003 0.0
C824 C 0.55028 0.55181 0.01956 0.0
H825 H 0.51737 0.43101 0.01889 0.0
H826 H 0.5902 0.51237 0.0193 0.0
C827 C 0.5034 0.54643 0.02003 0.0
C828 C 0.10216 0.8747 0.38164 0.0
C829 C 0.07791 0.84971 0.34344 0.0
H830 H 0.16724 0.93495 0.40842 0.0
C831 C 0.09616 0.87141 0.30245 0.0
H832 H 0.08946 0.85779 0.41345 0.0
C833 C 0.14031 0.91574 0.29956 0.0
C834 C 0.16684 0.93839 0.33764 0.0
H835 H 0.07868 0.85187 0.27259 0.0
H836 H 0.15611 0.92951 0.26757 0.0
C837 C 0.14656 0.9187 0.37874 0.0
C838 C 0.22882 0.13587 0.63326 0.0
C839 C 0.2335 0.16292 0.67119 0.0
H840 H 0.23061 0.07394 0.60649 0.0
C841 C 0.2339 0.14326 0.71235 0.0
H842 H 0.23008 0.1512 0.6012 0.0
C843 C 0.23371 0.099 0.71541 0.0
C844 C 0.23363 0.07422 0.6773 0.0
H845 H 0.23892 0.16433 0.74189 0.0
H846 H 0.23868 0.08681 0.7472 0.0
C847 C 0.22918 0.09182 0.6363 0.0
C848 C 0.14274 0.22575 0.96952 0.0
C849 C 0.16467 0.23016 0.01058 0.0
H850 H 0.08458 0.22699 0.9342 0.0
C851 C 0.13999 0.23052 0.0486 0.0
H852 H 0.16206 0.22697 0.93977 0.0
C853 C 0.09608 0.23103 0.04539 0.0
C854 C 0.07618 0.23066 0.00415 0.0
H855 H 0.15708 0.2355 0.08043 0.0
H856 H 0.08007 0.23626 0.07484 0.0
C857 C 0.09851 0.22571 0.96633 0.0
C858 C 0.92244 0.14293 0.29988 0.0
C859 C 0.94149 0.16353 0.34104 0.0
H860 H 0.86201 0.08558 0.26486 0.0
C861 C 0.91819 0.13734 0.37909 0.0
H862 H 0.93918 0.16337 0.27021 0.0
C863 C 0.8739 0.0932 0.37602 0.0
C864 C 0.85283 0.0746 0.33489 0.0
H865 H 0.93147 0.15341 0.41109 0.0
H866 H 0.8539 0.07599 0.40576 0.0
C867 C 0.87844 0.09851 0.29681 0.0
C868 C 0.7846 0.86972 0.71049 0.0
C869 C 0.78333 0.84913 0.66939 0.0
H870 H 0.7813 0.92704 0.74527 0.0
C871 C 0.78647 0.8753 0.63127 0.0
H872 H 0.78073 0.8493 0.74021 0.0
C873 C 0.78627 0.91942 0.63418 0.0
C874 C 0.78354 0.93801 0.67522 0.0
H875 H 0.78392 0.85925 0.59931 0.0
H876 H 0.78366 0.93661 0.60436 0.0
C877 C 0.78501 0.91412 0.7134 0.0
C878 C 0.87313 0.78399 0.96873 0.0
C879 C 0.85121 0.78009 0.0097 0.0
H880 H 0.93153 0.78275 0.93387 0.0
C881 C 0.87607 0.78061 0.04791 0.0
H882 H 0.85369 0.78212 0.93886 0.0
C883 C 0.92016 0.78043 0.04502 0.0
C884 C 0.94009 0.7803 0.00393 0.0
H885 H 0.85899 0.77603 0.07969 0.0
H886 H 0.93632 0.77583 0.07468 0.0
C887 C 0.91757 0.78442 0.96587 0.0
C888 C 0.27969 0.01047 0.48358 0.0
C889 C 0.31898 0.0122 0.46056 0.0
H890 H 0.24601 1.00403 0.54572 0.0
C891 C 0.35592 0.00942 0.4838 0.0
H892 H 0.25051 0.01213 0.46644 0.0
C893 C 0.35382 1.00575 0.52961 0.0
C894 C 0.31396 1.00325 0.55237 0.0
H895 H 0.3866 0.01078 0.46663 0.0
H896 H 0.38272 1.00397 0.54713 0.0
C897 C 0.27693 1.00549 0.52892 0.0
C898 C 0.27629 0.27269 0.8621 0.0
C899 C 0.31561 0.3098 0.88548 0.0
H900 H 0.243 0.24624 0.79969 0.0
C901 C 0.35279 0.34977 0.86266 0.0
H902 H 0.24695 0.24167 0.87894 0.0
C903 C 0.35101 0.35192 0.81687 0.0
C904 C 0.31125 0.31491 0.79371 0.0
H905 H 0.38349 0.37875 0.88012 0.0
H906 H 0.38021 0.38269 0.79968 0.0
C907 C 0.27386 0.27549 0.81678 0.0
C908 C 0.01047 0.35214 0.19487 0.0
C909 C 0.01336 0.31516 0.21791 0.0
H910 H 1.00462 0.37901 0.13172 0.0
C911 C 0.01105 0.27567 0.19477 0.0
H912 H 0.01223 0.38295 0.21214 0.0
C913 C 1.00557 0.27286 0.14947 0.0
C914 C 1.00339 0.31002 0.12619 0.0
H915 H 0.01275 0.24645 0.21178 0.0
H916 H 1.00384 0.24186 0.13257 0.0
C917 C 1.0063 0.34998 0.1491 0.0
C918 C 0.66374 1.0044 0.48182 0.0
C919 C 0.70098 1.00171 0.45903 0.0
H920 H 0.63616 0.00969 0.54479 0.0
C921 C 0.7401 1.0036 0.48249 0.0
H922 H 0.63318 1.0029 0.46431 0.0
C923 C 0.74234 0.00856 0.52783 0.0
C924 C 0.70497 0.01063 0.55085 0.0
H925 H 0.76948 1.00198 0.46569 0.0
H926 H 0.7731 0.01005 0.54498 0.0
C927 C 0.66533 0.00806 0.52763 0.0
C928 C 0.66284 0.66108 0.86158 0.0
C929 C 0.7 0.70075 0.88471 0.0
H930 H 0.63553 0.62893 0.79831 0.0
C931 C 0.73933 0.73816 0.86159 0.0
H932 H 0.63212 0.63188 0.87884 0.0
C933 C 0.74181 0.73595 0.81622 0.0
C934 C 0.70447 0.69681 0.79285 0.0
H935 H 0.76866 0.76896 0.87866 0.0
H936 H 0.77271 0.76538 0.79935 0.0
C937 C 0.66467 0.65951 0.81575 0.0
C938 C 1.00822 0.66096 0.19578 0.0
C939 C 1.00581 0.69828 0.2187 0.0
H940 H 0.01304 0.63333 0.13267 0.0
C941 C 1.00794 0.73758 0.19538 0.0
H942 H 1.00652 0.63025 0.21318 0.0
C943 C 0.01273 0.73987 0.15002 0.0
C944 C 0.0144 0.70237 0.12684 0.0
H945 H 1.00655 0.76702 0.21229 0.0
H946 H 0.01432 0.77075 0.133 0.0
C947 C 0.01172 0.66261 0.14995 0.0
loop_
_geom_bond_atom_site_label_1
_geom_bond_atom_site_label_2
_geom_bond_distance
_geom_bond_site_symmetry_2
_ccdc_geom_bond_type
Co0 O2 2.143 1_565 S
Co0 O8 2.074 . S
Co0 O11 2.093 . S
Co0 O24 2.097 . S
Co0 N41 2.151 . S
Co0 N49 2.214 . S
Co1 O2 2.160 . S
Co1 O7 2.058 1_545 S
Co1 O17 2.057 . S
Co1 O32 2.037 . S
Co1 N36 2.145 . S
Co1 N57 2.257 . S
O2 Co0 2.143 1_545 S
O2 Co1 2.160 . S
C3 O4 1.278 . S
C3 O11 1.224 1_545 S
O4 C3 1.278 . S
C5 O6 1.245 . S
C5 O17 1.232 . S
O6 C5 1.245 . S
O7 Co1 2.058 1_565 S
O7 C33 1.269 . S
O8 Co0 2.074 . S
O8 C33 1.257 . S
H9 C34 0.930 . S
H10 C40 0.930 . S
O11 Co0 2.093 . S
O11 C3 1.224 1_565 S
H12 C44 0.929 . S
H13 C46 0.930 . S
H14 C47 0.930 . S
H15 C45 0.929 . S
H16 C48 0.928 . S
O17 Co1 2.057 . S
O17 C5 1.232 . S
H18 C37 0.929 . S
H19 C38 0.929 . S
H20 C50 0.931 . S
H21 C42 0.929 . S
H22 C51 0.930 . S
H23 C43 0.931 . S
O24 Co0 2.097 . S
O24 C52 1.214 1_565 S
H25 C53 0.929 . S
H26 C54 0.929 . S
H27 C55 0.930 . S
H28 C56 0.929 . S
H29 C58 0.930 . S
H30 C35 0.930 . S
H31 C39 0.930 . S
O32 Co1 2.037 . S
O32 C52 1.234 . S
C33 O7 1.269 . S
C33 O8 1.257 . S
C34 H9 0.930 . S
C34 C37 1.388 . S
C34 C39 1.418 . S
C35 H30 0.930 . S
C35 C38 1.404 . S
C35 C39 1.353 . S
N36 Co1 2.145 . S
N36 C37 1.397 . S
N36 C38 1.334 . S
C37 H18 0.929 . S
C37 C34 1.388 . S
C37 N36 1.397 . S
C38 H19 0.929 . S
C38 C35 1.404 . S
C38 N36 1.334 . S
C39 H31 0.930 . S
C39 C34 1.418 . S
C39 C35 1.353 . S
C40 H10 0.930 . S
C40 N41 1.330 . S
C40 C42 1.446 . S
N41 Co0 2.151 . S
N41 C40 1.330 . S
N41 C45 1.418 . S
C42 H21 0.929 . S
C42 C40 1.446 . S
C42 C43 1.332 . S
C43 H23 0.931 . S
C43 C42 1.332 . S
C43 C44 1.267 . S
C44 H12 0.929 . S
C44 C43 1.267 . S
C44 C45 1.251 . S
C45 H15 0.929 . S
C45 N41 1.418 . S
C45 C44 1.251 . S
C46 H13 0.930 . S
C46 C48 1.406 . S
C46 C51 1.261 . S
C47 H14 0.930 . S
C47 N49 1.325 . S
C47 C50 1.357 . S
C48 H16 0.928 . S
C48 C46 1.406 . S
C48 N49 1.261 . S
N49 Co0 2.214 . S
N49 C47 1.325 . S
N49 C48 1.261 . S
C50 H20 0.931 . S
C50 C47 1.357 . S
C50 C51 1.312 . S
C51 H22 0.930 . S
C51 C46 1.261 . S
C51 C50 1.312 . S
C52 O24 1.214 1_545 S
C52 O32 1.234 . S
C53 H25 0.929 . S
C53 C56 1.391 . S
C53 C58 1.391 . S
C54 H26 0.929 . S
C54 C55 1.390 . S
C54 N57 1.391 . S
C55 H27 0.930 . S
C55 C54 1.390 . S
C55 C56 1.392 . S
C56 H28 0.929 . S
C56 C53 1.391 . S
C56 C55 1.392 . S
N57 Co1 2.257 . S
N57 C54 1.391 . S
N57 C58 1.388 . S
C58 H29 0.930 . S
C58 C53 1.391 . S
C58 N57 1.388 . S
Co59 O61 2.143 . S
Co59 O67 2.074 . S
Co59 O70 2.093 . S
Co59 O83 2.097 . S
Co59 N100 2.151 . S
Co59 N108 2.214 . S
Co60 O61 2.160 . S
Co60 O66 2.058 . S
Co60 O76 2.057 . S
Co60 O91 2.037 . S
Co60 N95 2.145 . S
Co60 N116 2.257 . S
O61 Co59 2.143 . S
O61 Co60 2.160 . S
C62 O63 1.278 . S
C62 O70 1.224 . S
O63 C62 1.278 . S
C64 O65 1.245 . S
C64 O76 1.232 . S
O65 C64 1.245 . S
O66 Co60 2.058 . S
O66 C92 1.269 . S
O67 Co59 2.074 . S
O67 C92 1.257 . S
H68 C93 0.930 . S
H69 C99 0.930 . S
O70 Co59 2.093 . S
O70 C62 1.224 . S
H71 C103 0.929 . S
H72 C105 0.930 . S
H73 C106 0.930 . S
H74 C104 0.929 . S
H75 C107 0.928 . S
O76 Co60 2.057 . S
O76 C64 1.232 . S
H77 C96 0.929 . S
H78 C97 0.929 . S
H79 C109 0.931 . S
H80 C101 0.929 . S
H81 C110 0.930 . S
H82 C102 0.931 . S
O83 Co59 2.097 . S
O83 C111 1.214 . S
H84 C112 0.929 . S
H85 C113 0.929 . S
H86 C114 0.930 . S
H87 C115 0.929 . S
H88 C117 0.930 . S
H89 C94 0.930 . S
H90 C98 0.930 . S
O91 Co60 2.037 . S
O91 C111 1.234 . S
C92 O66 1.269 . S
C92 O67 1.257 . S
C93 H68 0.930 . S
C93 C96 1.388 . S
C93 C98 1.418 . S
C94 H89 0.930 . S
C94 C97 1.404 . S
C94 C98 1.353 . S
N95 Co60 2.145 . S
N95 C96 1.397 . S
N95 C97 1.334 . S
C96 H77 0.929 . S
C96 C93 1.388 . S
C96 N95 1.397 . S
C97 H78 0.929 . S
C97 C94 1.404 . S
C97 N95 1.334 . S
C98 H90 0.930 . S
C98 C93 1.418 . S
C98 C94 1.353 . S
C99 H69 0.930 . S
C99 N100 1.330 . S
C99 C101 1.446 . S
N100 Co59 2.151 . S
N100 C99 1.330 . S
N100 C104 1.418 . S
C101 H80 0.929 . S
C101 C99 1.446 . S
C101 C102 1.332 . S
C102 H82 0.931 . S
C102 C101 1.332 . S
C102 C103 1.267 . S
C103 H71 0.929 . S
C103 C102 1.267 . S
C103 C104 1.251 . S
C104 H74 0.929 . S
C104 N100 1.418 . S
C104 C103 1.251 . S
C105 H72 0.930 . S
C105 C107 1.406 . S
C105 C110 1.261 . S
C106 H73 0.930 . S
C106 N108 1.325 . S
C106 C109 1.357 . S
C107 H75 0.928 . S
C107 C105 1.406 . S
C107 N108 1.261 . S
N108 Co59 2.214 . S
N108 C106 1.325 . S
N108 C107 1.261 . S
C109 H79 0.931 . S
C109 C106 1.357 . S
C109 C110 1.312 . S
C110 H81 0.930 . S
C110 C105 1.261 . S
C110 C109 1.312 . S
C111 O83 1.214 . S
C111 O91 1.234 . S
C112 H84 0.929 . S
C112 C115 1.391 . S
C112 C117 1.391 . S
C113 H85 0.929 . S
C113 C114 1.390 . S
C113 N116 1.391 . S
C114 H86 0.930 . S
C114 C113 1.390 . S
C114 C115 1.392 . S
C115 H87 0.929 . S
C115 C112 1.391 . S
C115 C114 1.392 . S
N116 Co60 2.257 . S
N116 C113 1.391 . S
N116 C117 1.388 . S
C117 H88 0.930 . S
C117 C112 1.391 . S
C117 N116 1.388 . S
Co118 O120 2.143 1_454 S
Co118 O126 2.074 . S
Co118 O129 2.093 . S
Co118 O142 2.097 . S
Co118 N159 2.151 1_554 S
Co118 N167 2.214 . S
Co119 O120 2.160 1_554 S
Co119 O125 2.058 1_654 S
Co119 O135 2.057 1_554 S
Co119 O150 2.037 . S
Co119 N154 2.145 . S
Co119 N175 2.257 . S
O120 Co118 2.143 1_656 S
O120 Co119 2.160 1_556 S
C121 O122 1.278 . S
C121 O129 1.224 1_656 S
O122 C121 1.278 . S
C123 O124 1.245 . S
C123 O135 1.232 . S
O124 C123 1.245 . S
O125 Co119 2.058 1_456 S
O125 C151 1.269 . S
O126 Co118 2.074 . S
O126 C151 1.257 1_554 S
H127 C152 0.930 . S
H128 C158 0.930 . S
O129 Co118 2.093 . S
O129 C121 1.224 1_454 S
H130 C162 0.929 . S
H131 C164 0.930 . S
H132 C165 0.930 . S
H133 C163 0.929 . S
H134 C166 0.928 . S
O135 Co119 2.057 1_556 S
O135 C123 1.232 . S
H136 C155 0.929 . S
H137 C156 0.929 1_556 S
H138 C168 0.931 . S
H139 C160 0.929 . S
H140 C169 0.930 . S
H141 C161 0.931 . S
O142 Co118 2.097 . S
O142 C170 1.214 1_455 S
H143 C171 0.929 1_556 S
H144 C172 0.929 . S
H145 C173 0.930 . S
H146 C174 0.929 . S
H147 C176 0.930 . S
H148 C153 0.930 1_556 S
H149 C157 0.930 . S
O150 Co119 2.037 . S
O150 C170 1.234 . S
C151 O125 1.269 . S
C151 O126 1.257 1_556 S
C152 H127 0.930 . S
C152 C155 1.388 . S
C152 C157 1.418 . S
C153 H148 0.930 1_554 S
C153 C156 1.404 . S
C153 C157 1.353 . S
N154 Co119 2.145 . S
N154 C155 1.397 . S
N154 C156 1.334 . S
C155 H136 0.929 . S
C155 C152 1.388 . S
C155 N154 1.397 . S
C156 H137 0.929 1_554 S
C156 C153 1.404 . S
C156 N154 1.334 . S
C157 H149 0.930 . S
C157 C152 1.418 . S
C157 C153 1.353 . S
C158 H128 0.930 . S
C158 N159 1.330 . S
C158 C160 1.446 . S
N159 Co118 2.151 1_556 S
N159 C158 1.330 . S
N159 C163 1.418 . S
C160 H139 0.929 . S
C160 C158 1.446 . S
C160 C161 1.332 . S
C161 H141 0.931 . S
C161 C160 1.332 . S
C161 C162 1.267 . S
C162 H130 0.929 . S
C162 C161 1.267 . S
C162 C163 1.251 . S
C163 H133 0.929 . S
C163 N159 1.418 . S
C163 C162 1.251 . S
C164 H131 0.930 . S
C164 C166 1.406 . S
C164 C169 1.261 . S
C165 H132 0.930 . S
C165 N167 1.325 . S
C165 C168 1.357 . S
C166 H134 0.928 . S
C166 C164 1.406 . S
C166 N167 1.261 . S
N167 Co118 2.214 . S
N167 C165 1.325 . S
N167 C166 1.261 . S
C168 H138 0.931 . S
C168 C165 1.357 . S
C168 C169 1.312 . S
C169 H140 0.930 . S
C169 C164 1.261 . S
C169 C168 1.312 . S
C170 O142 1.214 1_655 S
C170 O150 1.234 . S
C171 H143 0.929 1_554 S
C171 C174 1.391 . S
C171 C176 1.391 1_554 S
C172 H144 0.929 . S
C172 C173 1.390 . S
C172 N175 1.391 . S
C173 H145 0.930 . S
C173 C172 1.390 . S
C173 C174 1.392 . S
C174 H146 0.929 . S
C174 C171 1.391 . S
C174 C173 1.392 . S
N175 Co119 2.257 . S
N175 C172 1.391 . S
N175 C176 1.388 1_554 S
C176 H147 0.930 . S
C176 C171 1.391 1_556 S
C176 N175 1.388 1_556 S
Co177 O179 2.143 1_545 S
Co177 O185 2.074 . S
Co177 O188 2.093 . S
Co177 O201 2.097 . S
Co177 N218 2.151 . S
Co177 N226 2.214 . S
Co178 O179 2.160 . S
Co178 O184 2.058 1_565 S
Co178 O194 2.057 . S
Co178 O209 2.037 . S
Co178 N213 2.145 . S
Co178 N234 2.257 . S
O179 Co177 2.143 1_565 S
O179 Co178 2.160 . S
C180 O181 1.278 . S
C180 O188 1.224 1_565 S
O181 C180 1.278 . S
C182 O183 1.245 . S
C182 O194 1.232 . S
O183 C182 1.245 . S
O184 Co178 2.058 1_545 S
O184 C210 1.269 . S
O185 Co177 2.074 . S
O185 C210 1.257 . S
H186 C211 0.930 . S
H187 C217 0.930 . S
O188 Co177 2.093 . S
O188 C180 1.224 1_545 S
H189 C221 0.929 . S
H190 C223 0.930 . S
H191 C224 0.930 . S
H192 C222 0.929 . S
H193 C225 0.928 . S
O194 Co178 2.057 . S
O194 C182 1.232 . S
H195 C214 0.929 . S
H196 C215 0.929 . S
H197 C227 0.931 . S
H198 C219 0.929 . S
H199 C228 0.930 . S
H200 C220 0.931 . S
O201 Co177 2.097 . S
O201 C229 1.214 1_545 S
H202 C230 0.929 . S
H203 C231 0.929 . S
H204 C232 0.930 . S
H205 C233 0.929 . S
H206 C235 0.930 . S
H207 C212 0.930 . S
H208 C216 0.930 . S
O209 Co178 2.037 . S
O209 C229 1.234 . S
C210 O184 1.269 . S
C210 O185 1.257 . S
C211 H186 0.930 . S
C211 C214 1.388 . S
C211 C216 1.418 . S
C212 H207 0.930 . S
C212 C215 1.404 . S
C212 C216 1.353 . S
N213 Co178 2.145 . S
N213 C214 1.397 . S
N213 C215 1.334 . S
C214 H195 0.929 . S
C214 C211 1.388 . S
C214 N213 1.397 . S
C215 H196 0.929 . S
C215 C212 1.404 . S
C215 N213 1.334 . S
C216 H208 0.930 . S
C216 C211 1.418 . S
C216 C212 1.353 . S
C217 H187 0.930 . S
C217 N218 1.330 . S
C217 C219 1.446 . S
N218 Co177 2.151 . S
N218 C217 1.330 . S
N218 C222 1.418 . S
C219 H198 0.929 . S
C219 C217 1.446 . S
C219 C220 1.332 . S
C220 H200 0.931 . S
C220 C219 1.332 . S
C220 C221 1.267 . S
C221 H189 0.929 . S
C221 C220 1.267 . S
C221 C222 1.251 . S
C222 H192 0.929 . S
C222 N218 1.418 . S
C222 C221 1.251 . S
C223 H190 0.930 . S
C223 C225 1.406 . S
C223 C228 1.261 . S
C224 H191 0.930 . S
C224 N226 1.325 . S
C224 C227 1.357 . S
C225 H193 0.928 . S
C225 C223 1.406 . S
C225 N226 1.261 . S
N226 Co177 2.214 . S
N226 C224 1.325 . S
N226 C225 1.261 . S
C227 H197 0.931 . S
C227 C224 1.357 . S
C227 C228 1.312 . S
C228 H199 0.930 . S
C228 C223 1.261 . S
C228 C227 1.312 . S
C229 O201 1.214 1_565 S
C229 O209 1.234 . S
C230 H202 0.929 . S
C230 C233 1.391 . S
C230 C235 1.391 . S
C231 H203 0.929 . S
C231 C232 1.390 . S
C231 N234 1.391 . S
C232 H204 0.930 . S
C232 C231 1.390 . S
C232 C233 1.392 . S
C233 H205 0.929 . S
C233 C230 1.391 . S
C233 C232 1.392 . S
N234 Co178 2.257 . S
N234 C231 1.391 . S
N234 C235 1.388 . S
C235 H206 0.930 . S
C235 C230 1.391 . S
C235 N234 1.388 . S
Co236 O238 2.143 . S
Co236 O244 2.074 . S
Co236 O247 2.093 . S
Co236 O260 2.097 . S
Co236 N277 2.151 . S
Co236 N285 2.214 . S
Co237 O238 2.160 . S
Co237 O243 2.058 . S
Co237 O253 2.057 . S
Co237 O268 2.037 . S
Co237 N272 2.145 . S
Co237 N293 2.257 . S
O238 Co236 2.143 . S
O238 Co237 2.160 . S
C239 O240 1.278 . S
C239 O247 1.224 . S
O240 C239 1.278 . S
C241 O242 1.245 . S
C241 O253 1.232 . S
O242 C241 1.245 . S
O243 Co237 2.058 . S
O243 C269 1.269 . S
O244 Co236 2.074 . S
O244 C269 1.257 . S
H245 C270 0.930 . S
H246 C276 0.930 . S
O247 Co236 2.093 . S
O247 C239 1.224 . S
H248 C280 0.929 . S
H249 C282 0.930 . S
H250 C283 0.930 . S
H251 C281 0.929 . S
H252 C284 0.928 . S
O253 Co237 2.057 . S
O253 C241 1.232 . S
H254 C273 0.929 . S
H255 C274 0.929 . S
H256 C286 0.931 . S
H257 C278 0.929 . S
H258 C287 0.930 . S
H259 C279 0.931 . S
O260 Co236 2.097 . S
O260 C288 1.214 . S
H261 C289 0.929 . S
H262 C290 0.929 . S
H263 C291 0.930 . S
H264 C292 0.929 . S
H265 C294 0.930 . S
H266 C271 0.930 . S
H267 C275 0.930 . S
O268 Co237 2.037 . S
O268 C288 1.234 . S
C269 O243 1.269 . S
C269 O244 1.257 . S
C270 H245 0.930 . S
C270 C273 1.388 . S
C270 C275 1.418 . S
C271 H266 0.930 . S
C271 C274 1.404 . S
C271 C275 1.353 . S
N272 Co237 2.145 . S
N272 C273 1.397 . S
N272 C274 1.334 . S
C273 H254 0.929 . S
C273 C270 1.388 . S
C273 N272 1.397 . S
C274 H255 0.929 . S
C274 C271 1.404 . S
C274 N272 1.334 . S
C275 H267 0.930 . S
C275 C270 1.418 . S
C275 C271 1.353 . S
C276 H246 0.930 . S
C276 N277 1.330 . S
C276 C278 1.446 . S
N277 Co236 2.151 . S
N277 C276 1.330 . S
N277 C281 1.418 . S
C278 H257 0.929 . S
C278 C276 1.446 . S
C278 C279 1.332 . S
C279 H259 0.931 . S
C279 C278 1.332 . S
C279 C280 1.267 . S
C280 H248 0.929 . S
C280 C279 1.267 . S
C280 C281 1.251 . S
C281 H251 0.929 . S
C281 N277 1.418 . S
C281 C280 1.251 . S
C282 H249 0.930 . S
C282 C284 1.406 . S
C282 C287 1.261 . S
C283 H250 0.930 . S
C283 N285 1.325 . S
C283 C286 1.357 . S
C284 H252 0.928 . S
C284 C282 1.406 . S
C284 N285 1.261 . S
N285 Co236 2.214 . S
N285 C283 1.325 . S
N285 C284 1.261 . S
C286 H256 0.931 . S
C286 C283 1.357 . S
C286 C287 1.312 . S
C287 H258 0.930 . S
C287 C282 1.261 . S
C287 C286 1.312 . S
C288 O260 1.214 . S
C288 O268 1.234 . S
C289 H261 0.929 . S
C289 C292 1.391 . S
C289 C294 1.391 . S
C290 H262 0.929 . S
C290 C291 1.390 . S
C290 N293 1.391 . S
C291 H263 0.930 . S
C291 C290 1.390 . S
C291 C292 1.392 . S
C292 H264 0.929 . S
C292 C289 1.391 . S
C292 C291 1.392 . S
N293 Co237 2.257 . S
N293 C290 1.391 . S
N293 C294 1.388 . S
C294 H265 0.930 . S
C294 C289 1.391 . S
C294 N293 1.388 . S
Co295 O297 2.143 1_654 S
Co295 O303 2.074 . S
Co295 O306 2.093 . S
Co295 O319 2.097 . S
Co295 N336 2.151 1_554 S
Co295 N344 2.214 . S
Co296 O297 2.160 1_554 S
Co296 O302 2.058 1_454 S
Co296 O312 2.057 1_554 S
Co296 O327 2.037 . S
Co296 N331 2.145 . S
Co296 N352 2.257 . S
O297 Co295 2.143 1_456 S
O297 Co296 2.160 1_556 S
C298 O299 1.278 . S
C298 O306 1.224 1_456 S
O299 C298 1.278 . S
C300 O301 1.245 . S
C300 O312 1.232 . S
O301 C300 1.245 . S
O302 Co296 2.058 1_656 S
O302 C328 1.269 . S
O303 Co295 2.074 . S
O303 C328 1.257 1_554 S
H304 C329 0.930 . S
H305 C335 0.930 . S
O306 Co295 2.093 . S
O306 C298 1.224 1_654 S
H307 C339 0.929 . S
H308 C341 0.930 . S
H309 C342 0.930 . S
H310 C340 0.929 . S
H311 C343 0.928 . S
O312 Co296 2.057 1_556 S
O312 C300 1.232 . S
H313 C332 0.929 . S
H314 C333 0.929 1_556 S
H315 C345 0.931 . S
H316 C337 0.929 . S
H317 C346 0.930 . S
H318 C338 0.931 . S
O319 Co295 2.097 . S
O319 C347 1.214 1_655 S
H320 C348 0.929 1_556 S
H321 C349 0.929 . S
H322 C350 0.930 . S
H323 C351 0.929 . S
H324 C353 0.930 . S
H325 C330 0.930 1_556 S
H326 C334 0.930 . S
O327 Co296 2.037 . S
O327 C347 1.234 . S
C328 O302 1.269 . S
C328 O303 1.257 1_556 S
C329 H304 0.930 . S
C329 C332 1.388 . S
C329 C334 1.418 . S
C330 H325 0.930 1_554 S
C330 C333 1.404 . S
C330 C334 1.353 . S
N331 Co296 2.145 . S
N331 C332 1.397 . S
N331 C333 1.334 . S
C332 H313 0.929 . S
C332 C329 1.388 . S
C332 N331 1.397 . S
C333 H314 0.929 1_554 S
C333 C330 1.404 . S
C333 N331 1.334 . S
C334 H326 0.930 . S
C334 C329 1.418 . S
C334 C330 1.353 . S
C335 H305 0.930 . S
C335 N336 1.330 . S
C335 C337 1.446 . S
N336 Co295 2.151 1_556 S
N336 C335 1.330 . S
N336 C340 1.418 . S
C337 H316 0.929 . S
C337 C335 1.446 . S
C337 C338 1.332 . S
C338 H318 0.931 . S
C338 C337 1.332 . S
C338 C339 1.267 . S
C339 H307 0.929 . S
C339 C338 1.267 . S
C339 C340 1.251 . S
C340 H310 0.929 . S
C340 N336 1.418 . S
C340 C339 1.251 . S
C341 H308 0.930 . S
C341 C343 1.406 . S
C341 C346 1.261 . S
C342 H309 0.930 . S
C342 N344 1.325 . S
C342 C345 1.357 . S
C343 H311 0.928 . S
C343 C341 1.406 . S
C343 N344 1.261 . S
N344 Co295 2.214 . S
N344 C342 1.325 . S
N344 C343 1.261 . S
C345 H315 0.931 . S
C345 C342 1.357 . S
C345 C346 1.312 . S
C346 H317 0.930 . S
C346 C341 1.261 . S
C346 C345 1.312 . S
C347 O319 1.214 1_455 S
C347 O327 1.234 . S
C348 H320 0.929 1_554 S
C348 C351 1.391 . S
C348 C353 1.391 1_554 S
C349 H321 0.929 . S
C349 C350 1.390 . S
C349 N352 1.391 . S
C350 H322 0.930 . S
C350 C349 1.390 . S
C350 C351 1.392 . S
C351 H323 0.929 . S
C351 C348 1.391 . S
C351 C350 1.392 . S
N352 Co296 2.257 . S
N352 C349 1.391 . S
N352 C353 1.388 1_554 S
C353 H324 0.930 . S
C353 C348 1.391 1_556 S
C353 N352 1.388 1_556 S
Co354 O356 2.143 1_455 S
Co354 O362 2.074 . S
Co354 O365 2.093 . S
Co354 O378 2.097 . S
Co354 N395 2.151 . S
Co354 N403 2.214 . S
Co355 O356 2.160 . S
Co355 O361 2.058 1_655 S
Co355 O371 2.057 . S
Co355 O386 2.037 . S
Co355 N390 2.145 . S
Co355 N411 2.257 . S
O356 Co354 2.143 1_655 S
O356 Co355 2.160 . S
C357 O358 1.278 . S
C357 O365 1.224 1_655 S
O358 C357 1.278 . S
C359 O360 1.245 . S
C359 O371 1.232 . S
O360 C359 1.245 . S
O361 Co355 2.058 1_455 S
O361 C387 1.269 . S
O362 Co354 2.074 . S
O362 C387 1.257 . S
H363 C388 0.930 . S
H364 C394 0.930 . S
O365 Co354 2.093 . S
O365 C357 1.224 1_455 S
H366 C398 0.929 . S
H367 C400 0.930 . S
H368 C401 0.930 . S
H369 C399 0.929 . S
H370 C402 0.928 . S
O371 Co355 2.057 . S
O371 C359 1.232 . S
H372 C391 0.929 . S
H373 C392 0.929 . S
H374 C404 0.931 . S
H375 C396 0.929 . S
H376 C405 0.930 . S
H377 C397 0.931 . S
O378 Co354 2.097 . S
O378 C406 1.214 1_455 S
H379 C407 0.929 . S
H380 C408 0.929 . S
H381 C409 0.930 . S
H382 C410 0.929 . S
H383 C412 0.930 . S
H384 C389 0.930 . S
H385 C393 0.930 . S
O386 Co355 2.037 . S
O386 C406 1.234 . S
C387 O361 1.269 . S
C387 O362 1.257 . S
C388 H363 0.930 . S
C388 C391 1.388 . S
C388 C393 1.418 . S
C389 H384 0.930 . S
C389 C392 1.404 . S
C389 C393 1.353 . S
N390 Co355 2.145 . S
N390 C391 1.397 . S
N390 C392 1.334 . S
C391 H372 0.929 . S
C391 C388 1.388 . S
C391 N390 1.397 . S
C392 H373 0.929 . S
C392 C389 1.404 . S
C392 N390 1.334 . S
C393 H385 0.930 . S
C393 C388 1.418 . S
C393 C389 1.353 . S
C394 H364 0.930 . S
C394 N395 1.330 . S
C394 C396 1.446 . S
N395 Co354 2.151 . S
N395 C394 1.330 . S
N395 C399 1.418 . S
C396 H375 0.929 . S
C396 C394 1.446 . S
C396 C397 1.332 . S
C397 H377 0.931 . S
C397 C396 1.332 . S
C397 C398 1.267 . S
C398 H366 0.929 . S
C398 C397 1.267 . S
C398 C399 1.251 . S
C399 H369 0.929 . S
C399 N395 1.418 . S
C399 C398 1.251 . S
C400 H367 0.930 . S
C400 C402 1.406 . S
C400 C405 1.261 . S
C401 H368 0.930 . S
C401 N403 1.325 . S
C401 C404 1.357 . S
C402 H370 0.928 . S
C402 C400 1.406 . S
C402 N403 1.261 . S
N403 Co354 2.214 . S
N403 C401 1.325 . S
N403 C402 1.261 . S
C404 H374 0.931 . S
C404 C401 1.357 . S
C404 C405 1.312 . S
C405 H376 0.930 . S
C405 C400 1.261 . S
C405 C404 1.312 . S
C406 O378 1.214 1_655 S
C406 O386 1.234 . S
C407 H379 0.929 . S
C407 C410 1.391 . S
C407 C412 1.391 . S
C408 H380 0.929 . S
C408 C409 1.390 . S
C408 N411 1.391 . S
C409 H381 0.930 . S
C409 C408 1.390 . S
C409 C410 1.392 . S
C410 H382 0.929 . S
C410 C407 1.391 . S
C410 C409 1.392 . S
N411 Co355 2.257 . S
N411 C408 1.391 . S
N411 C412 1.388 . S
C412 H383 0.930 . S
C412 C407 1.391 . S
C412 N411 1.388 . S
Co413 O415 2.143 1_545 S
Co413 O421 2.074 . S
Co413 O424 2.093 . S
Co413 O437 2.097 . S
Co413 N454 2.151 . S
Co413 N462 2.214 . S
Co414 O415 2.160 . S
Co414 O420 2.058 1_565 S
Co414 O430 2.057 . S
Co414 O445 2.037 . S
Co414 N449 2.145 . S
Co414 N470 2.257 . S
O415 Co413 2.143 1_565 S
O415 Co414 2.160 . S
C416 O417 1.278 . S
C416 O424 1.224 1_565 S
O417 C416 1.278 . S
C418 O419 1.245 . S
C418 O430 1.232 . S
O419 C418 1.245 . S
O420 Co414 2.058 1_545 S
O420 C446 1.269 . S
O421 Co413 2.074 . S
O421 C446 1.257 . S
H422 C447 0.930 . S
H423 C453 0.930 . S
O424 Co413 2.093 . S
O424 C416 1.224 1_545 S
H425 C457 0.929 . S
H426 C459 0.930 . S
H427 C460 0.930 . S
H428 C458 0.929 . S
H429 C461 0.928 . S
O430 Co414 2.057 . S
O430 C418 1.232 . S
H431 C450 0.929 . S
H432 C451 0.929 . S
H433 C463 0.931 . S
H434 C455 0.929 . S
H435 C464 0.930 . S
H436 C456 0.931 . S
O437 Co413 2.097 . S
O437 C465 1.214 1_545 S
H438 C466 0.929 . S
H439 C467 0.929 . S
H440 C468 0.930 . S
H441 C469 0.929 . S
H442 C471 0.930 . S
H443 C448 0.930 . S
H444 C452 0.930 . S
O445 Co414 2.037 . S
O445 C465 1.234 . S
C446 O420 1.269 . S
C446 O421 1.257 . S
C447 H422 0.930 . S
C447 C450 1.388 . S
C447 C452 1.418 . S
C448 H443 0.930 . S
C448 C451 1.404 . S
C448 C452 1.353 . S
N449 Co414 2.145 . S
N449 C450 1.397 . S
N449 C451 1.334 . S
C450 H431 0.929 . S
C450 C447 1.388 . S
C450 N449 1.397 . S
C451 H432 0.929 . S
C451 C448 1.404 . S
C451 N449 1.334 . S
C452 H444 0.930 . S
C452 C447 1.418 . S
C452 C448 1.353 . S
C453 H423 0.930 . S
C453 N454 1.330 . S
C453 C455 1.446 . S
N454 Co413 2.151 . S
N454 C453 1.330 . S
N454 C458 1.418 . S
C455 H434 0.929 . S
C455 C453 1.446 . S
C455 C456 1.332 . S
C456 H436 0.931 . S
C456 C455 1.332 . S
C456 C457 1.267 . S
C457 H425 0.929 . S
C457 C456 1.267 . S
C457 C458 1.251 . S
C458 H428 0.929 . S
C458 N454 1.418 . S
C458 C457 1.251 . S
C459 H426 0.930 . S
C459 C461 1.406 . S
C459 C464 1.261 . S
C460 H427 0.930 . S
C460 N462 1.325 . S
C460 C463 1.357 . S
C461 H429 0.928 . S
C461 C459 1.406 . S
C461 N462 1.261 . S
N462 Co413 2.214 . S
N462 C460 1.325 . S
N462 C461 1.261 . S
C463 H433 0.931 . S
C463 C460 1.357 . S
C463 C464 1.312 . S
C464 H435 0.930 . S
C464 C459 1.261 . S
C464 C463 1.312 . S
C465 O437 1.214 1_565 S
C465 O445 1.234 . S
C466 H438 0.929 . S
C466 C469 1.391 . S
C466 C471 1.391 . S
C467 H439 0.929 . S
C467 C468 1.390 . S
C467 N470 1.391 . S
C468 H440 0.930 . S
C468 C467 1.390 . S
C468 C469 1.392 . S
C469 H441 0.929 . S
C469 C466 1.391 . S
C469 C468 1.392 . S
N470 Co414 2.257 . S
N470 C467 1.391 . S
N470 C471 1.388 . S
C471 H442 0.930 . S
C471 C466 1.391 . S
C471 N470 1.388 . S
Co472 O474 2.134 1_556 S
Co472 O480 2.074 . S
Co472 O483 2.092 1_556 S
Co472 O496 2.117 . S
Co472 N513 2.132 1_556 S
Co472 N521 2.224 . S
Co473 O474 2.160 . S
Co473 O479 2.058 . S
Co473 O489 2.057 . S
Co473 O504 2.037 1_554 S
Co473 N508 2.145 1_554 S
Co473 N529 2.257 1_554 S
O474 Co472 2.134 1_554 S
O474 Co473 2.160 . S
C475 O476 1.278 . S
C475 O483 1.224 . S
O476 C475 1.278 . S
C477 O478 1.245 . S
C477 O489 1.232 . S
O478 C477 1.245 . S
O479 Co473 2.058 . S
O479 C505 1.269 . S
O480 Co472 2.074 . S
O480 C505 1.257 1_556 S
H481 C506 0.930 . S
H482 C512 0.930 . S
O483 Co472 2.092 1_554 S
O483 C475 1.224 . S
H484 C516 0.929 . S
H485 C518 0.930 . S
H486 C519 0.930 . S
H487 C517 0.929 . S
H488 C520 0.928 . S
O489 Co473 2.057 . S
O489 C477 1.232 . S
H490 C509 0.929 . S
H491 C510 0.929 . S
H492 C522 0.931 . S
H493 C514 0.929 . S
H494 C523 0.930 . S
H495 C515 0.931 . S
O496 Co472 2.117 . S
O496 C524 1.214 . S
H497 C525 0.916 1_554 S
H498 C526 0.929 . S
H499 C527 0.930 . S
H500 C528 0.929 . S
H501 C530 0.930 . S
H502 C507 0.930 1_554 S
H503 C511 0.930 . S
O504 Co473 2.037 1_556 S
O504 C524 1.234 . S
C505 O479 1.269 . S
C505 O480 1.257 1_554 S
C506 H481 0.930 . S
C506 C509 1.388 . S
C506 C511 1.418 . S
C507 H502 0.930 1_556 S
C507 C510 1.404 1_556 S
C507 C511 1.353 . S
N508 Co473 2.145 1_556 S
N508 C509 1.397 . S
N508 C510 1.334 1_556 S
C509 H490 0.929 . S
C509 C506 1.388 . S
C509 N508 1.397 . S
C510 H491 0.929 . S
C510 C507 1.404 1_554 S
C510 N508 1.334 1_554 S
C511 H503 0.930 . S
C511 C506 1.418 . S
C511 C507 1.353 . S
C512 H482 0.930 . S
C512 N513 1.330 . S
C512 C514 1.446 . S
N513 Co472 2.132 1_554 S
N513 C512 1.330 . S
N513 C517 1.418 . S
C514 H493 0.929 . S
C514 C512 1.446 . S
C514 C515 1.332 . S
C515 H495 0.931 . S
C515 C514 1.332 . S
C515 C516 1.267 . S
C516 H484 0.929 . S
C516 C515 1.267 . S
C516 C517 1.251 . S
C517 H487 0.929 . S
C517 N513 1.418 . S
C517 C516 1.251 . S
C518 H485 0.930 . S
C518 C520 1.406 . S
C518 C523 1.261 . S
C519 H486 0.930 . S
C519 N521 1.325 . S
C519 C522 1.357 . S
C520 H488 0.928 . S
C520 C518 1.406 . S
C520 N521 1.261 . S
N521 Co472 2.224 . S
N521 C519 1.325 . S
N521 C520 1.261 . S
C522 H492 0.931 . S
C522 C519 1.357 . S
C522 C523 1.312 . S
C523 H494 0.930 . S
C523 C518 1.261 . S
C523 C522 1.312 . S
C524 O496 1.214 . S
C524 O504 1.234 . S
C525 H497 0.916 1_556 S
C525 C528 1.410 . S
C525 C530 1.385 1_556 S
C526 H498 0.929 . S
C526 C527 1.390 . S
C526 N529 1.391 . S
C527 H499 0.930 . S
C527 C526 1.390 . S
C527 C528 1.392 . S
C528 H500 0.929 . S
C528 C525 1.410 . S
C528 C527 1.392 . S
N529 Co473 2.257 1_556 S
N529 C526 1.391 . S
N529 C530 1.388 1_556 S
C530 H501 0.930 . S
C530 C525 1.385 1_554 S
C530 N529 1.388 1_554 S
Co531 O533 2.143 1_655 S
Co531 O539 2.074 . S
Co531 O542 2.093 . S
Co531 O555 2.097 . S
Co531 N572 2.151 . S
Co531 N580 2.214 . S
Co532 O533 2.160 . S
Co532 O538 2.058 1_455 S
Co532 O548 2.057 . S
Co532 O563 2.037 . S
Co532 N567 2.145 . S
Co532 N588 2.257 . S
O533 Co531 2.143 1_455 S
O533 Co532 2.160 . S
C534 O535 1.278 . S
C534 O542 1.224 1_455 S
O535 C534 1.278 . S
C536 O537 1.245 . S
C536 O548 1.232 . S
O537 C536 1.245 . S
O538 Co532 2.058 1_655 S
O538 C564 1.269 . S
O539 Co531 2.074 . S
O539 C564 1.257 . S
H540 C565 0.930 . S
H541 C571 0.930 . S
O542 Co531 2.093 . S
O542 C534 1.224 1_655 S
H543 C575 0.929 . S
H544 C577 0.930 . S
H545 C578 0.930 . S
H546 C576 0.929 . S
H547 C579 0.928 . S
O548 Co532 2.057 . S
O548 C536 1.232 . S
H549 C568 0.929 . S
H550 C569 0.929 . S
H551 C581 0.931 . S
H552 C573 0.929 . S
H553 C582 0.930 . S
H554 C574 0.931 . S
O555 Co531 2.097 . S
O555 C583 1.214 1_655 S
H556 C584 0.929 . S
H557 C585 0.929 . S
H558 C586 0.930 . S
H559 C587 0.929 . S
H560 C589 0.930 . S
H561 C566 0.930 . S
H562 C570 0.930 . S
O563 Co532 2.037 . S
O563 C583 1.234 . S
C564 O538 1.269 . S
C564 O539 1.257 . S
C565 H540 0.930 . S
C565 C568 1.388 . S
C565 C570 1.418 . S
C566 H561 0.930 . S
C566 C569 1.404 . S
C566 C570 1.353 . S
N567 Co532 2.145 . S
N567 C568 1.397 . S
N567 C569 1.334 . S
C568 H549 0.929 . S
C568 C565 1.388 . S
C568 N567 1.397 . S
C569 H550 0.929 . S
C569 C566 1.404 . S
C569 N567 1.334 . S
C570 H562 0.930 . S
C570 C565 1.418 . S
C570 C566 1.353 . S
C571 H541 0.930 . S
C571 N572 1.330 . S
C571 C573 1.446 . S
N572 Co531 2.151 . S
N572 C571 1.330 . S
N572 C576 1.418 . S
C573 H552 0.929 . S
C573 C571 1.446 . S
C573 C574 1.332 . S
C574 H554 0.931 . S
C574 C573 1.332 . S
C574 C575 1.267 . S
C575 H543 0.929 . S
C575 C574 1.267 . S
C575 C576 1.251 . S
C576 H546 0.929 . S
C576 N572 1.418 . S
C576 C575 1.251 . S
C577 H544 0.930 . S
C577 C579 1.406 . S
C577 C582 1.261 . S
C578 H545 0.930 . S
C578 N580 1.325 . S
C578 C581 1.357 . S
C579 H547 0.928 . S
C579 C577 1.406 . S
C579 N580 1.261 . S
N580 Co531 2.214 . S
N580 C578 1.325 . S
N580 C579 1.261 . S
C581 H551 0.931 . S
C581 C578 1.357 . S
C581 C582 1.312 . S
C582 H553 0.930 . S
C582 C577 1.261 . S
C582 C581 1.312 . S
C583 O555 1.214 1_455 S
C583 O563 1.234 . S
C584 H556 0.929 . S
C584 C587 1.391 . S
C584 C589 1.391 . S
C585 H557 0.929 . S
C585 C586 1.390 . S
C585 N588 1.391 . S
C586 H558 0.930 . S
C586 C585 1.390 . S
C586 C587 1.392 . S
C587 H559 0.929 . S
C587 C584 1.391 . S
C587 C586 1.392 . S
N588 Co532 2.257 . S
N588 C585 1.391 . S
N588 C589 1.388 . S
C589 H560 0.930 . S
C589 C584 1.391 . S
C589 N588 1.388 . S
Co590 O592 2.143 1_565 S
Co590 O598 2.074 . S
Co590 O601 2.093 . S
Co590 O614 2.097 . S
Co590 N631 2.151 . S
Co590 N639 2.214 . S
Co591 O592 2.160 . S
Co591 O597 2.058 1_545 S
Co591 O607 2.057 . S
Co591 O622 2.037 . S
Co591 N626 2.145 . S
Co591 N647 2.257 . S
O592 Co590 2.143 1_545 S
O592 Co591 2.160 . S
C593 O594 1.278 . S
C593 O601 1.224 1_545 S
O594 C593 1.278 . S
C595 O596 1.245 . S
C595 O607 1.232 . S
O596 C595 1.245 . S
O597 Co591 2.058 1_565 S
O597 C623 1.269 . S
O598 Co590 2.074 . S
O598 C623 1.257 . S
H599 C624 0.930 . S
H600 C630 0.930 . S
O601 Co590 2.093 . S
O601 C593 1.224 1_565 S
H602 C634 0.929 . S
H603 C636 0.930 . S
H604 C637 0.930 . S
H605 C635 0.929 . S
H606 C638 0.928 . S
O607 Co591 2.057 . S
O607 C595 1.232 . S
H608 C627 0.929 . S
H609 C628 0.929 . S
H610 C640 0.931 . S
H611 C632 0.929 . S
H612 C641 0.930 . S
H613 C633 0.931 . S
O614 Co590 2.097 . S
O614 C642 1.214 1_565 S
H615 C643 0.929 . S
H616 C644 0.929 . S
H617 C645 0.930 . S
H618 C646 0.929 . S
H619 C648 0.930 . S
H620 C625 0.930 . S
H621 C629 0.930 . S
O622 Co591 2.037 . S
O622 C642 1.234 . S
C623 O597 1.269 . S
C623 O598 1.257 . S
C624 H599 0.930 . S
C624 C627 1.388 . S
C624 C629 1.418 . S
C625 H620 0.930 . S
C625 C628 1.404 . S
C625 C629 1.353 . S
N626 Co591 2.145 . S
N626 C627 1.397 . S
N626 C628 1.334 . S
C627 H608 0.929 . S
C627 C624 1.388 . S
C627 N626 1.397 . S
C628 H609 0.929 . S
C628 C625 1.404 . S
C628 N626 1.334 . S
C629 H621 0.930 . S
C629 C624 1.418 . S
C629 C625 1.353 . S
C630 H600 0.930 . S
C630 N631 1.330 . S
C630 C632 1.446 . S
N631 Co590 2.151 . S
N631 C630 1.330 . S
N631 C635 1.418 . S
C632 H611 0.929 . S
C632 C630 1.446 . S
C632 C633 1.332 . S
C633 H613 0.931 . S
C633 C632 1.332 . S
C633 C634 1.267 . S
C634 H602 0.929 . S
C634 C633 1.267 . S
C634 C635 1.251 . S
C635 H605 0.929 . S
C635 N631 1.418 . S
C635 C634 1.251 . S
C636 H603 0.930 . S
C636 C638 1.406 . S
C636 C641 1.261 . S
C637 H604 0.930 . S
C637 N639 1.325 . S
C637 C640 1.357 . S
C638 H606 0.928 . S
C638 C636 1.406 . S
C638 N639 1.261 . S
N639 Co590 2.214 . S
N639 C637 1.325 . S
N639 C638 1.261 . S
C640 H610 0.931 . S
C640 C637 1.357 . S
C640 C641 1.312 . S
C641 H612 0.930 . S
C641 C636 1.261 . S
C641 C640 1.312 . S
C642 O614 1.214 1_545 S
C642 O622 1.234 . S
C643 H615 0.929 . S
C643 C646 1.391 . S
C643 C648 1.391 . S
C644 H616 0.929 . S
C644 C645 1.390 . S
C644 N647 1.391 . S
C645 H617 0.930 . S
C645 C644 1.390 . S
C645 C646 1.392 . S
C646 H618 0.929 . S
C646 C643 1.391 . S
C646 C645 1.392 . S
N647 Co591 2.257 . S
N647 C644 1.391 . S
N647 C648 1.388 . S
C648 H619 0.930 . S
C648 C643 1.391 . S
C648 N647 1.388 . S
Co649 O651 2.134 1_556 S
Co649 O657 2.074 . S
Co649 O660 2.092 1_556 S
Co649 O673 2.117 . S
Co649 N690 2.132 1_556 S
Co649 N698 2.224 . S
Co650 O651 2.160 . S
Co650 O656 2.058 . S
Co650 O666 2.057 . S
Co650 O681 2.037 1_554 S
Co650 N685 2.145 1_554 S
Co650 N706 2.257 1_554 S
O651 Co649 2.134 1_554 S
O651 Co650 2.160 . S
C652 O653 1.278 . S
C652 O660 1.224 . S
O653 C652 1.278 . S
C654 O655 1.245 . S
C654 O666 1.232 . S
O655 C654 1.245 . S
O656 Co650 2.058 . S
O656 C682 1.269 . S
O657 Co649 2.074 . S
O657 C682 1.257 1_556 S
H658 C683 0.930 . S
H659 C689 0.930 . S
O660 Co649 2.092 1_554 S
O660 C652 1.224 . S
H661 C693 0.929 . S
H662 C695 0.930 . S
H663 C696 0.930 . S
H664 C694 0.929 . S
H665 C697 0.928 . S
O666 Co650 2.057 . S
O666 C654 1.232 . S
H667 C686 0.929 . S
H668 C687 0.929 . S
H669 C699 0.931 . S
H670 C691 0.929 . S
H671 C700 0.930 . S
H672 C692 0.931 . S
O673 Co649 2.117 . S
O673 C701 1.214 . S
H674 C702 0.916 1_554 S
H675 C703 0.929 . S
H676 C704 0.930 . S
H677 C705 0.929 . S
H678 C707 0.930 . S
H679 C684 0.930 1_554 S
H680 C688 0.930 . S
O681 Co650 2.037 1_556 S
O681 C701 1.234 . S
C682 O656 1.269 . S
C682 O657 1.257 1_554 S
C683 H658 0.930 . S
C683 C686 1.388 . S
C683 C688 1.418 . S
C684 H679 0.930 1_556 S
C684 C687 1.404 1_556 S
C684 C688 1.353 . S
N685 Co650 2.145 1_556 S
N685 C686 1.397 . S
N685 C687 1.334 1_556 S
C686 H667 0.929 . S
C686 C683 1.388 . S
C686 N685 1.397 . S
C687 H668 0.929 . S
C687 C684 1.404 1_554 S
C687 N685 1.334 1_554 S
C688 H680 0.930 . S
C688 C683 1.418 . S
C688 C684 1.353 . S
C689 H659 0.930 . S
C689 N690 1.330 . S
C689 C691 1.446 . S
N690 Co649 2.132 1_554 S
N690 C689 1.330 . S
N690 C694 1.418 . S
C691 H670 0.929 . S
C691 C689 1.446 . S
C691 C692 1.332 . S
C692 H672 0.931 . S
C692 C691 1.332 . S
C692 C693 1.267 . S
C693 H661 0.929 . S
C693 C692 1.267 . S
C693 C694 1.251 . S
C694 H664 0.929 . S
C694 N690 1.418 . S
C694 C693 1.251 . S
C695 H662 0.930 . S
C695 C697 1.406 . S
C695 C700 1.261 . S
C696 H663 0.930 . S
C696 N698 1.325 . S
C696 C699 1.357 . S
C697 H665 0.928 . S
C697 C695 1.406 . S
C697 N698 1.261 . S
N698 Co649 2.224 . S
N698 C696 1.325 . S
N698 C697 1.261 . S
C699 H669 0.931 . S
C699 C696 1.357 . S
C699 C700 1.312 . S
C700 H671 0.930 . S
C700 C695 1.261 . S
C700 C699 1.312 . S
C701 O673 1.214 . S
C701 O681 1.234 . S
C702 H674 0.916 1_556 S
C702 C705 1.410 . S
C702 C707 1.385 1_556 S
C703 H675 0.929 . S
C703 C704 1.390 . S
C703 N706 1.391 . S
C704 H676 0.930 . S
C704 C703 1.390 . S
C704 C705 1.392 . S
C705 H677 0.929 . S
C705 C702 1.410 . S
C705 C704 1.392 . S
N706 Co650 2.257 1_556 S
N706 C703 1.391 . S
N706 C707 1.388 1_556 S
C707 H678 0.930 . S
C707 C702 1.385 1_554 S
C707 N706 1.388 1_554 S
C708 C709 1.387 . S
C708 H712 0.950 . S
C708 C717 1.390 . S
C709 C708 1.387 . S
C709 C711 1.387 . S
H710 C717 0.950 . S
C711 C709 1.387 . S
C711 C713 1.390 . S
C711 H715 0.950 . S
H712 C708 0.950 . S
C713 C711 1.390 . S
C713 C714 1.387 . S
C713 H716 0.950 . S
C714 C713 1.387 . S
C714 C717 1.387 . S
H715 C711 0.950 . S
H716 C713 0.950 . S
C717 C708 1.390 . S
C717 H710 0.950 . S
C717 C714 1.387 . S
C718 C719 1.387 . S
C718 H722 0.950 . S
C718 C727 1.390 . S
C719 C718 1.387 . S
C719 C721 1.387 . S
H720 C727 0.950 . S
C721 C719 1.387 . S
C721 C723 1.390 . S
C721 H725 0.950 . S
H722 C718 0.950 . S
C723 C721 1.390 . S
C723 C724 1.387 . S
C723 H726 0.950 . S
C724 C723 1.387 . S
C724 C727 1.387 . S
H725 C721 0.950 . S
H726 C723 0.950 . S
C727 C718 1.390 . S
C727 H720 0.950 . S
C727 C724 1.387 . S
C728 C729 1.387 . S
C728 H732 0.950 . S
C728 C737 1.390 . S
C729 C728 1.387 . S
C729 C731 1.387 . S
H730 C737 0.950 . S
C731 C729 1.387 . S
C731 C733 1.390 . S
C731 H735 0.950 . S
H732 C728 0.950 . S
C733 C731 1.390 . S
C733 C734 1.387 . S
C733 H736 0.950 . S
C734 C733 1.387 . S
C734 C737 1.387 . S
H735 C731 0.950 . S
H736 C733 0.950 . S
C737 C728 1.390 . S
C737 H730 0.950 . S
C737 C734 1.387 . S
C738 C739 1.387 . S
C738 H742 0.950 . S
C738 C747 1.390 . S
C739 C738 1.387 . S
C739 C741 1.387 . S
H740 C747 0.950 . S
C741 C739 1.387 . S
C741 C743 1.390 . S
C741 H745 0.950 . S
H742 C738 0.950 . S
C743 C741 1.390 . S
C743 C744 1.387 . S
C743 H746 0.950 . S
C744 C743 1.387 . S
C744 C747 1.387 . S
H745 C741 0.950 . S
H746 C743 0.950 . S
C747 C738 1.390 . S
C747 H740 0.950 . S
C747 C744 1.387 . S
C748 C749 1.387 . S
C748 H752 0.950 . S
C748 C757 1.390 . S
C749 C748 1.387 . S
C749 C751 1.387 . S
H750 C757 0.950 . S
C751 C749 1.387 . S
C751 C753 1.390 . S
C751 H755 0.950 . S
H752 C748 0.950 . S
C753 C751 1.390 . S
C753 C754 1.387 . S
C753 H756 0.950 . S
C754 C753 1.387 . S
C754 C757 1.387 . S
H755 C751 0.950 . S
H756 C753 0.950 . S
C757 C748 1.390 . S
C757 H750 0.950 . S
C757 C754 1.387 . S
C758 C759 1.387 . S
C758 H762 0.950 . S
C758 C767 1.390 . S
C759 C758 1.387 . S
C759 C761 1.387 . S
H760 C767 0.950 . S
C761 C759 1.387 . S
C761 C763 1.390 . S
C761 H765 0.950 . S
H762 C758 0.950 . S
C763 C761 1.390 . S
C763 C764 1.387 . S
C763 H766 0.950 . S
C764 C763 1.387 . S
C764 C767 1.387 . S
H765 C761 0.950 . S
H766 C763 0.950 . S
C767 C758 1.390 . S
C767 H760 0.950 . S
C767 C764 1.387 . S
C768 C769 1.387 . S
C768 H772 0.950 . S
C768 C777 1.390 1_545 S
C769 C768 1.387 . S
C769 C771 1.387 . S
H770 C777 0.950 . S
C771 C769 1.387 . S
C771 C773 1.390 1_545 S
C771 H775 0.950 . S
H772 C768 0.950 . S
C773 C771 1.390 1_565 S
C773 C774 1.387 . S
C773 H776 0.950 . S
C774 C773 1.387 . S
C774 C777 1.387 . S
H775 C771 0.950 . S
H776 C773 0.950 . S
C777 C768 1.390 1_565 S
C777 H770 0.950 . S
C777 C774 1.387 . S
C778 C779 1.387 . S
C778 H782 0.950 . S
C778 C787 1.390 . S
C779 C778 1.387 . S
C779 C781 1.387 . S
H780 C787 0.950 . S
C781 C779 1.387 . S
C781 C783 1.390 . S
C781 H785 0.950 . S
H782 C778 0.950 . S
C783 C781 1.390 . S
C783 C784 1.387 . S
C783 H786 0.950 . S
C784 C783 1.387 . S
C784 C787 1.387 . S
H785 C781 0.950 . S
H786 C783 0.950 . S
C787 C778 1.390 . S
C787 H780 0.950 . S
C787 C784 1.387 . S
C788 C789 1.387 . S
C788 H792 0.950 . S
C788 C797 1.390 1_455 S
C789 C788 1.387 . S
C789 C791 1.387 1_556 S
H790 C797 0.950 . S
C791 C789 1.387 1_554 S
C791 C793 1.390 1_455 S
C791 H795 0.950 . S
H792 C788 0.950 . S
C793 C791 1.390 1_655 S
C793 C794 1.387 1_554 S
C793 H796 0.950 . S
C794 C793 1.387 1_556 S
C794 C797 1.387 . S
H795 C791 0.950 . S
H796 C793 0.950 . S
C797 C788 1.390 1_655 S
C797 H790 0.950 . S
C797 C794 1.387 . S
C798 C799 1.387 . S
C798 H802 0.950 . S
C798 C807 1.390 1_655 S
C799 C798 1.387 . S
C799 C801 1.387 . S
H800 C807 0.950 . S
C801 C799 1.387 . S
C801 C803 1.390 1_655 S
C801 H805 0.950 . S
H802 C798 0.950 . S
C803 C801 1.390 1_455 S
C803 C804 1.387 . S
C803 H806 0.950 . S
C804 C803 1.387 . S
C804 C807 1.387 . S
H805 C801 0.950 . S
H806 C803 0.950 . S
C807 C798 1.390 1_455 S
C807 H800 0.950 . S
C807 C804 1.387 . S
C808 C809 1.387 . S
C808 H812 0.950 . S
C808 C817 1.390 1_545 S
C809 C808 1.387 . S
C809 C811 1.387 . S
H810 C817 0.950 . S
C811 C809 1.387 . S
C811 C813 1.390 1_545 S
C811 H815 0.950 . S
H812 C808 0.950 . S
C813 C811 1.390 1_565 S
C813 C814 1.387 . S
C813 H816 0.950 . S
C814 C813 1.387 . S
C814 C817 1.387 . S
H815 C811 0.950 . S
H816 C813 0.950 . S
C817 C808 1.390 1_565 S
C817 H810 0.950 . S
C817 C814 1.387 . S
C818 C819 1.387 . S
C818 H822 0.950 . S
C818 C827 1.390 . S
C819 C818 1.387 . S
C819 C821 1.387 1_554 S
H820 C827 0.950 . S
C821 C819 1.387 1_556 S
C821 C823 1.390 . S
C821 H825 0.950 . S
H822 C818 0.950 . S
C823 C821 1.390 . S
C823 C824 1.387 1_556 S
C823 H826 0.950 . S
C824 C823 1.387 1_554 S
C824 C827 1.387 . S
H825 C821 0.950 . S
H826 C823 0.950 . S
C827 C818 1.390 . S
C827 H820 0.950 . S
C827 C824 1.387 . S
C828 C829 1.387 . S
C828 H832 0.950 . S
C828 C837 1.390 . S
C829 C828 1.387 . S
C829 C831 1.387 . S
H830 C837 0.950 . S
C831 C829 1.387 . S
C831 C833 1.390 . S
C831 H835 0.950 . S
H832 C828 0.950 . S
C833 C831 1.390 . S
C833 C834 1.387 . S
C833 H836 0.950 . S
C834 C833 1.387 . S
C834 C837 1.387 . S
H835 C831 0.950 . S
H836 C833 0.950 . S
C837 C828 1.390 . S
C837 H830 0.950 . S
C837 C834 1.387 . S
C838 C839 1.387 . S
C838 H842 0.950 . S
C838 C847 1.390 . S
C839 C838 1.387 . S
C839 C841 1.387 . S
H840 C847 0.950 . S
C841 C839 1.387 . S
C841 C843 1.390 . S
C841 H845 0.950 . S
H842 C838 0.950 . S
C843 C841 1.390 . S
C843 C844 1.387 . S
C843 H846 0.950 . S
C844 C843 1.387 . S
C844 C847 1.387 . S
H845 C841 0.950 . S
H846 C843 0.950 . S
C847 C838 1.390 . S
C847 H840 0.950 . S
C847 C844 1.387 . S
C848 C849 1.387 . S
C848 H852 0.950 . S
C848 C857 1.388 1_554 S
C849 C848 1.387 . S
C849 C851 1.387 . S
H850 C857 0.951 . S
C851 C849 1.387 . S
C851 C853 1.388 1_554 S
C851 H855 0.950 . S
H852 C848 0.950 . S
C853 C851 1.388 1_556 S
C853 C854 1.388 . S
C853 H856 0.951 . S
C854 C853 1.388 . S
C854 C857 1.389 . S
H855 C851 0.950 . S
H856 C853 0.951 . S
C857 C848 1.388 1_556 S
C857 H850 0.951 . S
C857 C854 1.389 . S
C858 C859 1.387 . S
C858 H862 0.950 . S
C858 C867 1.390 . S
C859 C858 1.387 . S
C859 C861 1.387 . S
H860 C867 0.950 . S
C861 C859 1.387 . S
C861 C863 1.390 . S
C861 H865 0.950 . S
H862 C858 0.950 . S
C863 C861 1.390 . S
C863 C864 1.387 . S
C863 H866 0.950 . S
C864 C863 1.387 . S
C864 C867 1.387 . S
H865 C861 0.950 . S
H866 C863 0.950 . S
C867 C858 1.390 . S
C867 H860 0.950 . S
C867 C864 1.387 . S
C868 C869 1.387 . S
C868 H872 0.950 . S
C868 C877 1.390 . S
C869 C868 1.387 . S
C869 C871 1.387 . S
H870 C877 0.950 . S
C871 C869 1.387 . S
C871 C873 1.390 . S
C871 H875 0.950 . S
H872 C868 0.950 . S
C873 C871 1.390 . S
C873 C874 1.387 . S
C873 H876 0.950 . S
C874 C873 1.387 . S
C874 C877 1.387 . S
H875 C871 0.950 . S
H876 C873 0.950 . S
C877 C868 1.390 . S
C877 H870 0.950 . S
C877 C874 1.387 . S
C878 C879 1.387 . S
C878 H882 0.950 . S
C878 C887 1.388 1_554 S
C879 C878 1.387 . S
C879 C881 1.387 . S
H880 C887 0.951 . S
C881 C879 1.387 . S
C881 C883 1.388 1_554 S
C881 H885 0.950 . S
H882 C878 0.950 . S
C883 C881 1.388 1_556 S
C883 C884 1.388 . S
C883 H886 0.951 . S
C884 C883 1.388 . S
C884 C887 1.388 . S
H885 C881 0.950 . S
H886 C883 0.951 . S
C887 C878 1.388 1_556 S
C887 H880 0.951 . S
C887 C884 1.388 . S
C888 C889 1.387 . S
C888 H892 0.950 . S
C888 C897 1.390 1_545 S
C889 C888 1.387 . S
C889 C891 1.387 . S
H890 C897 0.950 . S
C891 C889 1.387 . S
C891 C893 1.390 1_545 S
C891 H895 0.950 . S
H892 C888 0.950 . S
C893 C891 1.390 1_565 S
C893 C894 1.387 . S
C893 H896 0.950 . S
C894 C893 1.387 . S
C894 C897 1.387 . S
H895 C891 0.950 . S
H896 C893 0.950 . S
C897 C888 1.390 1_565 S
C897 H890 0.950 . S
C897 C894 1.387 . S
C898 C899 1.387 . S
C898 H902 0.950 . S
C898 C907 1.390 . S
C899 C898 1.387 . S
C899 C901 1.387 . S
H900 C907 0.950 . S
C901 C899 1.387 . S
C901 C903 1.390 . S
C901 H905 0.950 . S
H902 C898 0.950 . S
C903 C901 1.390 . S
C903 C904 1.387 . S
C903 H906 0.950 . S
C904 C903 1.387 . S
C904 C907 1.387 . S
H905 C901 0.950 . S
H906 C903 0.950 . S
C907 C898 1.390 . S
C907 H900 0.950 . S
C907 C904 1.387 . S
C908 C909 1.387 . S
C908 H912 0.950 . S
C908 C917 1.390 . S
C909 C908 1.387 . S
C909 C911 1.387 1_455 S
H910 C917 0.950 . S
C911 C909 1.387 1_655 S
C911 C913 1.390 . S
C911 H915 0.950 . S
H912 C908 0.950 . S
C913 C911 1.390 . S
C913 C914 1.387 . S
C913 H916 0.950 . S
C914 C913 1.387 . S
C914 C917 1.387 1_655 S
H915 C911 0.950 . S
H916 C913 0.950 . S
C917 C908 1.390 . S
C917 H910 0.950 . S
C917 C914 1.387 1_455 S
C918 C919 1.387 . S
C918 H922 0.950 . S
C918 C927 1.390 1_565 S
C919 C918 1.387 . S
C919 C921 1.387 . S
H920 C927 0.950 . S
C921 C919 1.387 . S
C921 C923 1.390 1_565 S
C921 H925 0.950 . S
H922 C918 0.950 . S
C923 C921 1.390 1_545 S
C923 C924 1.387 . S
C923 H926 0.950 . S
C924 C923 1.387 . S
C924 C927 1.387 . S
H925 C921 0.950 . S
H926 C923 0.950 . S
C927 C918 1.390 1_545 S
C927 H920 0.950 . S
C927 C924 1.387 . S
C928 C929 1.387 . S
C928 H932 0.950 . S
C928 C937 1.390 . S
C929 C928 1.387 . S
C929 C931 1.387 . S
H930 C937 0.950 . S
C931 C929 1.387 . S
C931 C933 1.390 . S
C931 H935 0.950 . S
H932 C928 0.950 . S
C933 C931 1.390 . S
C933 C934 1.387 . S
C933 H936 0.950 . S
C934 C933 1.387 . S
C934 C937 1.387 . S
H935 C931 0.950 . S
H936 C933 0.950 . S
C937 C928 1.390 . S
C937 H930 0.950 . S
C937 C934 1.387 . S
C938 C939 1.387 . S
C938 H942 0.950 . S
C938 C947 1.390 . S
C939 C938 1.387 . S
C939 C941 1.387 1_655 S
H940 C947 0.950 . S
C941 C939 1.387 1_455 S
C941 C943 1.390 . S
C941 H945 0.950 . S
H942 C938 0.950 . S
C943 C941 1.390 . S
C943 C944 1.387 . S
C943 H946 0.950 . S
C944 C943 1.387 . S
C944 C947 1.387 1_455 S
H945 C941 0.950 . S
H946 C943 0.950 . S
C947 C938 1.390 . S
C947 H940 0.950 . S
C947 C944 1.387 1_655 S
C709 C5 1.622 . S
C714 C477 1.622 . S
C719 C64 1.622 . S
C724 C536 1.622 . S
C729 C595 1.622 . S
C734 C123 1.622 . S
C739 C654 1.622 . S
C744 C182 1.622 . S
C749 C359 1.622 . S
C754 C241 1.622 . S
C759 C418 1.622 . S
C764 C300 1.622 . S
C769 C3 1.759 . S
C774 C180 1.759 . S
C779 C239 1.762 . S
C784 C62 1.762 . S
C789 C298 1.760 . S
C794 C121 1.760 . S
C799 C357 1.759 . S
C804 C534 1.759 . S
C809 C593 1.759 . S
C814 C416 1.759 . S
C819 C475 1.759 . S
C824 C652 1.759 . S
C829 C387 1.277 . S
C834 C33 1.276 . S
C839 C92 1.277 . S
C844 C446 1.275 . S
C849 C505 1.275 . S
C854 C151 1.275 . S
C859 C564 1.275 . S
C864 C210 1.277 . S
C869 C269 1.276 . S
C874 C623 1.277 . S
C879 C682 1.275 . S
C884 C328 1.275 . S
C889 C52 1.304 . S
C894 C465 1.304 . S
C899 C524 1.303 . S
C904 C111 1.304 . S
C909 C583 1.303 . S
C914 C170 1.303 . S
C919 C229 1.303 . S
C924 C642 1.303 . S
C929 C701 1.303 . S
C934 C288 1.303 . S
C939 C406 1.303 . S
C944 C347 1.303 . S
