# Generated by pormake.
# Topology vbj, (5)-cn, num edge types: 1
# Building blocks:
#     Node 0, Type 0, BuildingBlock: XOMCOT_clean_sbu_1, # of connection points: 5
#     Node 1, Type 0, BuildingBlock: XOMCOT_clean_sbu_1, # of connection points: 5
#     Node 2, Type 0, BuildingBlock: XOMCOT_clean_sbu_1, # of connection points: 5
#     Node 3, Type 0, BuildingBlock: XOMCOT_clean_sbu_1, # of connection points: 5
#     Node 4, Type 0, BuildingBlock: XOMCOT_clean_sbu_1, # of connection points: 5
#     Node 5, Type 0, BuildingBlock: XOMCOT_clean_sbu_1, # of connection points: 5
#     Node 6, Type 0, BuildingBlock: XOMCOT_clean_sbu_1, # of connection points: 5
#     Node 7, Type 0, BuildingBlock: XOMCOT_clean_sbu_1, # of connection points: 5
#     Node 8, Type 0, BuildingBlock: XOMCOT_clean_sbu_1, # of connection points: 5
#     Node 9, Type 0, BuildingBlock: XOMCOT_clean_sbu_1, # of connection points: 5
#     Node 10, Type 0, BuildingBlock: XOMCOT_clean_sbu_1, # of connection points: 5
#     Node 11, Type 0, BuildingBlock: XOMCOT_clean_sbu_1, # of connection points: 5
#     Node 12, Type 0, BuildingBlock: XOMCOT_clean_sbu_1, # of connection points: 5
#     Node 13, Type 0, BuildingBlock: XOMCOT_clean_sbu_1, # of connection points: 5
#     Node 14, Type 0, BuildingBlock: XOMCOT_clean_sbu_1, # of connection points: 5
#     Node 15, Type 0, BuildingBlock: XOMCOT_clean_sbu_1, # of connection points: 5
#     Edge 16, Type (0, 0), BuildingBlock: EZIPEK_clean_linker_0, # of connection points: 2
#     Edge 17, Type (0, 0), BuildingBlock: EZIPEK_clean_linker_0, # of connection points: 2
#     Edge 18, Type (0, 0), BuildingBlock: EZIPEK_clean_linker_0, # of connection points: 2
#     Edge 19, Type (0, 0), BuildingBlock: EZIPEK_clean_linker_0, # of connection points: 2
#     Edge 20, Type (0, 0), BuildingBlock: EZIPEK_clean_linker_0, # of connection points: 2
#     Edge 21, Type (0, 0), BuildingBlock: EZIPEK_clean_linker_0, # of connection points: 2
#     Edge 22, Type (0, 0), BuildingBlock: EZIPEK_clean_linker_0, # of connection points: 2
#     Edge 23, Type (0, 0), BuildingBlock: EZIPEK_clean_linker_0, # of connection points: 2
#     Edge 24, Type (0, 0), BuildingBlock: EZIPEK_clean_linker_0, # of connection points: 2
#     Edge 25, Type (0, 0), BuildingBlock: EZIPEK_clean_linker_0, # of connection points: 2
#     Edge 26, Type (0, 0), BuildingBlock: EZIPEK_clean_linker_0, # of connection points: 2
#     Edge 27, Type (0, 0), BuildingBlock: EZIPEK_clean_linker_0, # of connection points: 2
#     Edge 28, Type (0, 0), BuildingBlock: EZIPEK_clean_linker_0, # of connection points: 2
#     Edge 29, Type (0, 0), BuildingBlock: EZIPEK_clean_linker_0, # of connection points: 2
#     Edge 30, Type (0, 0), BuildingBlock: EZIPEK_clean_linker_0, # of connection points: 2
#     Edge 31, Type (0, 0), BuildingBlock: EZIPEK_clean_linker_0, # of connection points: 2
#     Edge 32, Type (0, 0), BuildingBlock: EZIPEK_clean_linker_0, # of connection points: 2
#     Edge 33, Type (0, 0), BuildingBlock: EZIPEK_clean_linker_0, # of connection points: 2
#     Edge 34, Type (0, 0), BuildingBlock: EZIPEK_clean_linker_0, # of connection points: 2
#     Edge 35, Type (0, 0), BuildingBlock: EZIPEK_clean_linker_0, # of connection points: 2
#     Edge 36, Type (0, 0), BuildingBlock: EZIPEK_clean_linker_0, # of connection points: 2
#     Edge 37, Type (0, 0), BuildingBlock: EZIPEK_clean_linker_0, # of connection points: 2
#     Edge 38, Type (0, 0), BuildingBlock: EZIPEK_clean_linker_0, # of connection points: 2
#     Edge 39, Type (0, 0), BuildingBlock: EZIPEK_clean_linker_0, # of connection points: 2
#     Edge 40, Type (0, 0), BuildingBlock: EZIPEK_clean_linker_0, # of connection points: 2
#     Edge 41, Type (0, 0), BuildingBlock: EZIPEK_clean_linker_0, # of connection points: 2
#     Edge 42, Type (0, 0), BuildingBlock: EZIPEK_clean_linker_0, # of connection points: 2
#     Edge 43, Type (0, 0), BuildingBlock: EZIPEK_clean_linker_0, # of connection points: 2
#     Edge 44, Type (0, 0), BuildingBlock: EZIPEK_clean_linker_0, # of connection points: 2
#     Edge 45, Type (0, 0), BuildingBlock: EZIPEK_clean_linker_0, # of connection points: 2
#     Edge 46, Type (0, 0), BuildingBlock: EZIPEK_clean_linker_0, # of connection points: 2
#     Edge 47, Type (0, 0), BuildingBlock: EZIPEK_clean_linker_0, # of connection points: 2
#     Edge 48, Type (0, 0), BuildingBlock: EZIPEK_clean_linker_0, # of connection points: 2
#     Edge 49, Type (0, 0), BuildingBlock: EZIPEK_clean_linker_0, # of connection points: 2
#     Edge 50, Type (0, 0), BuildingBlock: EZIPEK_clean_linker_0, # of connection points: 2
#     Edge 51, Type (0, 0), BuildingBlock: EZIPEK_clean_linker_0, # of connection points: 2
#     Edge 52, Type (0, 0), BuildingBlock: EZIPEK_clean_linker_0, # of connection points: 2
#     Edge 53, Type (0, 0), BuildingBlock: EZIPEK_clean_linker_0, # of connection points: 2
#     Edge 54, Type (0, 0), BuildingBlock: EZIPEK_clean_linker_0, # of connection points: 2
#     Edge 55, Type (0, 0), BuildingBlock: EZIPEK_clean_linker_0, # of connection points: 2
# Relax obj value: 0.097
# Max RMSD: 0.142
# Mean RMSD: 0.142
data_MOF--net-vbj--node1-XOMCOT_clean_sbu_1--edge1-EZIPEK_clean_linker_0
_symmetry_space_group_name_H-M    P1
_symmetry_Int_Tables_number       1
_symmetry_cell_setting            triclinic
loop_
_symmetry_equiv_pos_as_xyz
'x, y, z'
_cell_length_a     20.928579
_cell_length_b     49.080322
_cell_length_c     34.705632
_cell_angle_alpha  90.095446
_cell_angle_beta   90.113245
_cell_angle_gamma 90.106604
loop_
_atom_site_label
_atom_site_type_symbol
_atom_site_fract_x
_atom_site_fract_y
_atom_site_fract_z
_atom_type_partial_charge
C0 C 0.0855 0.20271 0.07723 0.0
C1 C 0.07314 0.23016 0.07731 0.0
N2 N 0.04616 0.23655 0.1112 0.0
N3 N 0.06659 0.19175 0.11098 0.0
C4 C 0.04302 0.21303 0.13133 0.0
H5 H 0.10501 0.19121 0.05342 0.0
Co6 Co 0.06806 0.15408 0.11861 0.0
C7 C -0.00803 0.14348 0.18917 0.0
O8 O 0.95726 0.12633 0.16889 0.0
N9 N 0.07099 0.1151 0.12529 0.0
C10 C 0.06138 0.0702 0.11552 0.0
C11 C 0.03413 0.09535 0.10923 0.0
C12 C 0.11865 0.10094 0.14264 0.0
N13 N 0.11518 0.07389 0.13603 0.0
O14 O 0.15532 0.15732 0.13571 0.0
H15 H -0.00827 0.09873 0.09217 0.0
H16 H 0.15715 0.11028 0.15851 0.0
O17 O 0.03539 0.1576 0.17231 0.0
C18 C 0.18737 0.15182 0.10536 0.0
O19 O 0.15664 0.1436 0.07447 0.0
N20 N -0.01191 0.15241 0.09478 0.0
C21 C 0.89557 0.16131 0.03807 0.0
C22 C 0.88274 0.16723 0.07707 0.0
C23 C 0.93083 0.16359 0.10498 0.0
C24 C 0.00032 0.14629 0.05717 0.0
C25 C 0.95561 0.15105 0.02847 0.0
H26 H 0.92329 0.17119 0.13384 0.0
H27 H 0.04693 0.13904 0.04895 0.0
H28 H 0.02184 0.21134 0.15945 0.0
H29 H 0.0812 0.24424 0.05383 0.0
H30 H 0.04564 0.05096 0.10347 0.0
H31 H 0.83739 0.17602 0.08542 0.0
H32 H 0.96832 0.14705 0.99874 0.0
C33 C 0.47431 0.88384 0.08433 0.0
C34 C 0.48619 0.85648 0.08212 0.0
N35 N 0.45635 0.84432 0.11161 0.0
N36 N 0.43826 0.88932 0.11567 0.0
C37 C 0.42613 0.86443 0.13105 0.0
H38 H 0.49078 0.89889 0.06398 0.0
Co39 Co 0.41129 0.92542 0.12847 0.0
C40 C 0.44814 0.90408 0.20898 0.0
O41 O 0.48335 0.88352 0.1977 0.0
N42 N 0.3832 0.96147 0.14189 0.0
C43 C 0.38117 1.00462 0.16284 0.0
C44 C 0.41863 0.98187 0.15744 0.0
C45 C 0.32363 0.97233 0.13948 0.0
N46 N 0.32158 0.99849 0.15138 0.0
O47 O 0.32445 0.91422 0.12467 0.0
H48 H 0.46907 0.98068 0.16383 0.0
H49 H 0.28225 0.96172 0.12838 0.0
O50 O 0.41958 0.91933 0.1845 0.0
C51 C 0.31862 0.91554 0.08778 0.0
O52 O 0.37017 0.91831 0.06666 0.0
N53 N 0.49502 0.93757 0.12299 0.0
C54 C 0.60349 0.94021 0.07777 0.0
C55 C 0.60608 0.92774 0.11409 0.0
C56 C 0.55035 0.92618 0.13626 0.0
C57 C 0.49471 0.9526 0.08997 0.0
C58 C 0.54815 0.95385 0.06663 0.0
H59 H 0.55073 0.91361 0.16151 0.0
H60 H 0.45036 0.96073 0.07898 0.0
H61 H 0.39691 0.86111 0.15631 0.0
H62 H 0.51557 0.84624 0.06093 0.0
H63 H 0.39672 1.02434 0.1733 0.0
H64 H 0.64888 0.91728 0.12348 0.0
H65 H 0.54509 0.96392 0.03892 0.0
C66 C 0.51733 0.87717 0.4921 0.0
C67 C 0.50405 0.84985 0.48969 0.0
N68 N 0.50643 0.84254 0.45245 0.0
N69 N 0.52826 0.88722 0.45647 0.0
C70 C 0.52137 0.86542 0.43275 0.0
H71 H 0.51689 0.88914 0.51826 0.0
Co72 Co 0.54057 0.92468 0.44573 0.0
C73 C 0.47044 0.93008 0.37159 0.0
O74 O 0.43453 0.94946 0.38598 0.0
N75 N 0.55326 0.9628 0.43418 0.0
C76 C 0.54282 1.00806 0.42872 0.0
C77 C 0.51182 0.98393 0.43687 0.0
C78 C 0.60882 0.97497 0.42333 0.0
N79 N 0.60411 1.00228 0.42084 0.0
O80 O 0.62792 0.91823 0.43371 0.0
H81 H 0.46235 0.98231 0.44542 0.0
H82 H 0.65353 0.96447 0.41912 0.0
O83 O 0.51321 0.91863 0.39231 0.0
C84 C 0.65611 0.91742 0.46646 0.0
O85 O 0.6215 0.91405 0.49757 0.0
N86 N 0.45949 0.93105 0.46504 0.0
C87 C 0.36925 0.92327 0.52263 0.0
C88 C 0.35674 0.9147 0.48461 0.0
C89 C 0.40374 0.91795 0.45631 0.0
C90 C 0.46953 0.94161 0.5009 0.0
C91 C 0.42589 0.93736 0.53032 0.0
H92 H 0.39792 0.90759 0.42913 0.0
H93 H 0.51553 0.95033 0.50803 0.0
H94 H 0.52559 0.8663 0.40173 0.0
H95 H 0.49155 0.83648 0.51331 0.0
H96 H 0.52296 1.02837 0.43061 0.0
H97 H 0.31376 0.90331 0.47785 0.0
H98 H 0.43811 0.94363 0.55937 0.0
C99 C 0.89243 0.19735 0.4756 0.0
C100 C 0.91043 0.22419 0.47694 0.0
N101 N 0.92876 0.2316 0.44143 0.0
N102 N 0.89926 0.18775 0.43936 0.0
C103 C 0.92122 0.2093 0.41894 0.0
H104 H 0.8777 0.18523 0.5 0.0
Co105 Co 0.88778 0.1507 0.42862 0.0
C106 C 0.9617 0.14076 0.35679 0.0
O107 O -0.00542 0.12205 0.3751 0.0
N108 N 0.87524 0.11231 0.41902 0.0
C109 C 0.8797 0.06687 0.42423 0.0
C110 C 0.91317 0.0909 0.42833 0.0
C111 C 0.82017 0.10022 0.40748 0.0
N112 N 0.82092 0.07292 0.41144 0.0
O113 O 0.80162 0.1585 0.41234 0.0
H114 H 0.96115 0.09237 0.43967 0.0
H115 H 0.77851 0.11106 0.39856 0.0
O116 O 0.92027 0.15495 0.37515 0.0
C117 C 0.76979 0.15622 0.44359 0.0
O118 O 0.79951 0.14784 0.47471 0.0
N119 N 0.96696 0.1445 0.45132 0.0
C120 C 0.05927 0.14888 0.50894 0.0
C121 C 0.07258 0.15756 0.47112 0.0
C122 C 0.02468 0.156 0.44279 0.0
C123 C 0.95466 0.13518 0.48754 0.0
C124 C -0.00049 0.13752 0.51678 0.0
H125 H 0.0323 0.16577 0.4153 0.0
H126 H 0.90754 0.12771 0.49458 0.0
H127 H 0.93306 0.20862 0.38874 0.0
H128 H 0.91201 0.23712 0.50223 0.0
H129 H 0.89563 0.04677 0.43267 0.0
H130 H 0.11789 0.16708 0.46435 0.0
H131 H -0.01318 0.13126 0.5457 0.0
C132 C 0.94149 0.88612 0.98433 0.0
C133 C 0.95309 0.85859 0.98403 0.0
N134 N 0.93994 0.84904 0.9486 0.0
N135 N 0.92143 0.89412 0.9491 0.0
C136 C 0.92001 0.87081 0.92801 0.0
H137 H 0.95074 0.89973 1.00822 0.0
Co138 Co 0.9102 0.93111 0.93467 0.0
C139 C 0.95328 0.93042 0.85374 0.0
O140 O -0.00448 0.94921 0.86241 0.0
N141 N 0.89729 0.96878 0.91959 0.0
C142 C 0.90909 1.01313 0.90577 0.0
C143 C 0.94032 0.98898 0.91307 0.0
C144 C 0.8401 0.98151 0.91498 0.0
N145 N 0.84606 1.00834 0.90761 0.0
O146 O 0.82057 0.92624 0.93724 0.0
H147 H -0.00838 0.98682 0.91454 0.0
H148 H 0.7941 0.97186 0.91862 0.0
O149 O 0.91562 0.92105 0.87963 0.0
C150 C 0.81331 0.93127 0.97328 0.0
O151 O 0.8642 0.93545 0.99468 0.0
N152 N -0.00265 0.93617 0.94095 0.0
C153 C 0.104 0.92867 0.98676 0.0
C154 C 0.09785 0.91425 0.95211 0.0
C155 C 0.04353 0.91834 0.92933 0.0
C156 C 0.00549 0.95149 0.97342 0.0
C157 C 0.05882 0.94824 0.99658 0.0
H158 H 0.03551 0.90517 0.90502 0.0
H159 H 0.96727 0.96436 0.98369 0.0
H160 H 0.90707 0.86987 0.89789 0.0
H161 H 0.97288 0.84669 1.00741 0.0
H162 H 0.93084 1.03292 0.90146 0.0
H163 H 0.13293 0.89915 0.94383 0.0
H164 H 0.06304 0.95983 1.02308 0.0
C165 C 0.55685 0.20854 0.97644 0.0
C166 C 0.5389 0.23537 0.97636 0.0
N167 N 0.52341 0.24226 0.94012 0.0
N168 N 0.55306 0.19834 0.94034 0.0
C169 C 0.5323 0.21952 0.91861 0.0
H170 H 0.56989 0.19689 1.00164 0.0
Co171 Co 0.56817 0.16118 0.93084 0.0
C172 C 0.49277 0.14957 0.85948 0.0
O173 O 0.46051 0.13091 0.87824 0.0
N174 N 0.5841 0.12282 0.92227 0.0
C175 C 0.57838 0.07717 0.92306 0.0
C176 C 0.54519 0.10108 0.92843 0.0
C177 C 0.64034 0.11108 0.91236 0.0
N178 N 0.63835 0.08364 0.91312 0.0
O179 O 0.65366 0.17014 0.91442 0.0
H180 H 0.496 0.10216 0.93767 0.0
H181 H 0.68294 0.12215 0.90594 0.0
O182 O 0.53465 0.16406 0.87724 0.0
C183 C 0.68435 0.17002 0.94635 0.0
O184 O 0.65404 0.16259 0.9777 0.0
N185 N 0.49002 0.15378 0.95379 0.0
C186 C 0.3975 0.15449 1.01118 0.0
C187 C 0.38367 0.16469 0.97422 0.0
C188 C 0.43158 0.16482 0.94594 0.0
C189 C 0.50327 0.14356 0.98942 0.0
C190 C 0.45809 0.14388 1.0185 0.0
H191 H 0.4232 0.17526 0.91901 0.0
H192 H 0.55095 0.13658 0.99607 0.0
H193 H 0.52269 0.21828 0.88805 0.0
H194 H 0.53579 0.24873 1.00115 0.0
H195 H 0.56081 0.0567 0.92783 0.0
H196 H 0.33753 0.17365 0.96802 0.0
H197 H 0.47079 0.13638 0.04684 0.0
C198 C 0.37091 0.20212 0.57501 0.0
C199 C 0.3889 0.22898 0.57361 0.0
N200 N 0.42501 0.23423 0.60474 0.0
N201 N 0.3943 0.19054 0.60736 0.0
C202 C 0.42805 0.21071 0.62468 0.0
H203 H 0.34434 0.19156 0.55287 0.0
Co204 Co 0.38802 0.15316 0.61718 0.0
C205 C 0.46233 0.14795 0.69185 0.0
O206 O 0.50519 0.13268 0.67472 0.0
N207 N 0.38167 0.1145 0.62587 0.0
C208 C 0.40137 0.0696 0.62661 0.0
C209 C 0.42796 0.09524 0.62337 0.0
C210 C 0.32781 0.09967 0.63136 0.0
N211 N 0.33822 0.07262 0.63143 0.0
O212 O 0.30036 0.1584 0.63291 0.0
H213 H 0.4779 0.09926 0.61793 0.0
H214 H 0.28111 0.10811 0.63403 0.0
O215 O 0.41659 0.15804 0.67182 0.0
C216 C 0.2675 0.15547 0.6021 0.0
O217 O 0.29649 0.14697 0.57081 0.0
N218 N 0.46841 0.1492 0.59496 0.0
C219 C 0.5604 0.15339 0.53718 0.0
C220 C 0.57366 0.16247 0.57491 0.0
C221 C 0.52585 0.16113 0.60323 0.0
C222 C 0.45607 0.13958 0.55884 0.0
C223 C 0.50049 0.14204 0.52947 0.0
H224 H 0.53367 0.17119 0.63053 0.0
H225 H 0.40924 0.13165 0.55201 0.0
H226 H 0.4579 0.20793 0.64963 0.0
H227 H 0.37789 0.24342 0.55101 0.0
H228 H 0.42598 0.05029 0.6243 0.0
H229 H 0.61901 0.17203 0.58167 0.0
H230 H 0.48757 0.13553 0.50064 0.0
C231 C 0.00163 0.87849 0.57066 0.0
C232 C -0.01531 0.8515 0.56975 0.0
N233 N -0.00179 0.84071 0.60431 0.0
N234 N 0.02424 0.88505 0.606 0.0
C235 C 0.02386 0.86113 0.62545 0.0
H236 H -0.00261 0.89252 0.54692 0.0
Co237 Co 0.0505 0.92075 0.61987 0.0
C238 C 0.97249 0.90405 0.69202 0.0
O239 O 0.93879 0.88421 0.67676 0.0
N240 N 0.07714 0.95623 0.63283 0.0
C241 C 0.08543 0.99692 0.66094 0.0
C242 C 0.04885 0.97368 0.65764 0.0
C243 C 0.12994 0.96963 0.62069 0.0
N244 N 0.1366 0.99419 0.63791 0.0
O245 O 0.13009 0.90703 0.63816 0.0
H246 H 0.00488 0.96966 0.67289 0.0
H247 H 0.16315 0.96151 0.59986 0.0
O248 O 0.01278 0.91763 0.67198 0.0
C249 C 0.16266 0.90155 0.60815 0.0
O250 O 0.13515 0.90417 0.57429 0.0
N251 N 0.9771 0.93484 0.59719 0.0
C252 C 0.88546 0.94064 0.5402 0.0
C253 C 0.86875 0.93034 0.57643 0.0
C254 C 0.91555 0.92755 0.60477 0.0
C255 C -0.00742 0.9473 0.5633 0.0
C256 C 0.94724 0.95042 0.53417 0.0
H257 H 0.90297 0.91743 0.63096 0.0
H258 H 0.04192 0.95227 0.55727 0.0
H259 H 0.04081 0.85877 0.65466 0.0
H260 H 0.96316 0.84065 0.54582 0.0
H261 H 0.07614 1.01423 0.67947 0.0
H262 H 0.82074 0.92302 0.58193 0.0
H263 H 0.96108 0.95879 0.50655 0.0
C264 C 0.55299 0.70143 0.06756 0.0
C265 C 0.5362 0.72842 0.06888 0.0
N266 N 0.52304 0.73483 0.10565 0.0
N267 N 0.55034 0.69078 0.10337 0.0
C268 C 0.53208 0.71179 0.12616 0.0
H269 H 0.56418 0.69001 0.0418 0.0
Co270 Co 0.56103 0.65352 0.11292 0.0
C271 C 0.48416 0.64627 0.18556 0.0
O272 O 0.44847 0.62707 0.17034 0.0
N273 N 0.57177 0.6152 0.12174 0.0
C274 C 0.55721 0.56998 0.12393 0.0
C275 C 0.52803 0.59486 0.11874 0.0
C276 C 0.62703 0.60179 0.12883 0.0
N277 N 0.61953 0.57456 0.13021 0.0
O278 O 0.6465 0.66082 0.13076 0.0
H279 H 0.47811 0.59757 0.11177 0.0
H280 H 0.67266 0.6114 0.1314 0.0
O281 O 0.52754 0.65799 0.16559 0.0
C282 C 0.67911 0.66129 0.09969 0.0
O283 O 0.65047 0.65513 0.06713 0.0
N284 N 0.4826 0.64765 0.08945 0.0
C285 C 0.39372 0.65464 0.0306 0.0
C286 C 0.37873 0.66196 0.06878 0.0
C287 C 0.42502 0.65922 0.09774 0.0
C288 C 0.49578 0.63864 0.05318 0.0
C289 C 0.453 0.6427 1.02317 0.0
H290 H 0.41655 0.66844 0.12545 0.0
H291 H 0.54282 0.63086 0.04666 0.0
H292 H 0.52413 0.71023 0.15683 0.0
H293 H 0.53233 0.7422 0.04466 0.0
H294 H 0.53503 0.55009 0.12182 0.0
H295 H 0.33371 0.67173 0.07543 0.0
H296 H 0.46719 0.63748 0.99408 0.0
C297 C 0.95854 0.38222 0.07157 0.0
C298 C 0.97576 0.35524 0.07111 0.0
N299 N 0.96379 0.34477 0.10611 0.0
N300 N 0.93598 0.3888 0.10677 0.0
C301 C 0.93944 0.36539 0.12729 0.0
H302 H 0.96343 0.39641 0.04795 0.0
Co303 Co 0.91132 0.42429 0.12052 0.0
C304 C 0.95627 0.42564 0.20211 0.0
O305 O -0.00347 0.44522 0.19385 0.0
N306 N 0.88483 0.46074 0.13433 0.0
C307 C 0.88393 0.50495 0.15063 0.0
C308 C 0.92123 0.48213 0.14607 0.0
C309 C 0.82517 0.47154 0.13202 0.0
N310 N 0.82368 0.49815 0.14167 0.0
O311 O 0.82431 0.41245 0.11855 0.0
H312 H 0.97251 0.48195 0.14929 0.0
H313 H 0.78335 0.46063 0.12235 0.0
O314 O 0.92023 0.41533 0.17594 0.0
C315 C 0.81424 0.41645 0.08258 0.0
O316 O 0.85929 0.42865 0.06259 0.0
N317 N -0.00401 0.43528 0.11423 0.0
C318 C 0.10557 0.43622 0.0696 0.0
C319 C 0.10357 0.42044 0.10317 0.0
C320 C 0.04773 0.42015 0.12523 0.0
C321 C -0.00046 0.45205 0.08298 0.0
C322 C 0.05412 0.453 0.06045 0.0
H323 H 0.0436 0.40544 0.14811 0.0
H324 H 0.95746 0.46259 0.07288 0.0
H325 H 0.92567 0.36353 0.15719 0.0
H326 H -0.00314 0.34424 0.04727 0.0
H327 H 0.90009 0.52522 0.15824 0.0
H328 H 0.143 0.40721 0.11072 0.0
H329 H 0.0546 0.46538 0.03462 0.0
C330 C 0.03338 0.37429 0.48609 0.0
C331 C 0.02134 0.34682 0.48628 0.0
N332 N 0.02456 0.33781 0.44984 0.0
N333 N 0.0428 0.38291 0.44954 0.0
C334 C 0.03939 0.35978 0.42821 0.0
H335 H 0.03378 0.38723 0.51125 0.0
Co336 Co 0.05543 0.42023 0.43735 0.0
C337 C 0.97811 0.40233 0.36458 0.0
O338 O 0.94457 0.38246 0.3797 0.0
N339 N 0.06863 0.45727 0.42644 0.0
C340 C 0.06021 0.49885 0.4014 0.0
C341 C 0.03071 0.47388 0.40551 0.0
C342 C 0.1199 0.47282 0.43559 0.0
N343 N 0.1167 0.49794 0.41998 0.0
O344 O 0.1385 0.4121 0.41761 0.0
H345 H -0.01459 0.46797 0.39298 0.0
H346 H 0.15955 0.46582 0.45281 0.0
O347 O 0.01778 0.41614 0.38498 0.0
C348 C 0.17348 0.41029 0.44762 0.0
O349 O 0.14646 0.41288 0.48156 0.0
N350 N 0.97892 0.42883 0.46192 0.0
C351 C 0.88897 0.4261 0.52048 0.0
C352 C 0.87168 0.42014 0.48223 0.0
C353 C 0.91782 0.4214 0.4532 0.0
C354 C -0.006 0.43804 0.49791 0.0
C355 C 0.95023 0.43617 0.52795 0.0
H356 H 0.90497 0.41471 0.42489 0.0
H357 H 0.04281 0.44372 0.50441 0.0
H358 H 0.04589 0.35894 0.39743 0.0
H359 H 0.0084 0.33457 0.51099 0.0
H360 H 0.04304 0.51592 0.38462 0.0
H361 H 0.82432 0.41254 0.47548 0.0
H362 H 0.96535 0.44085 0.55709 0.0
C363 C 0.45767 0.69305 0.47475 0.0
C364 C 0.46998 0.72045 0.47676 0.0
N365 N 0.45043 0.73183 0.44369 0.0
N366 N 0.43198 0.68682 0.44009 0.0
C367 C 0.42603 0.71126 0.42222 0.0
H368 H 0.46611 0.67865 0.49763 0.0
Co369 Co 0.40453 0.65108 0.42739 0.0
C370 C 0.46163 0.66909 0.34932 0.0
O371 O 0.49765 0.68897 0.36234 0.0
N372 N 0.37599 0.61526 0.41554 0.0
C373 C 0.37607 0.57198 0.39586 0.0
C374 C 0.41115 0.59568 0.39826 0.0
C375 C 0.31923 0.60294 0.42295 0.0
N376 N 0.31827 0.57665 0.41135 0.0
O377 O 0.31995 0.66507 0.42019 0.0
H378 H 0.4597 0.59832 0.38841 0.0
H379 H 0.2792 0.61273 0.43683 0.0
O380 O 0.42692 0.65493 0.37218 0.0
C381 C 0.3032 0.66429 0.45565 0.0
O382 O 0.34275 0.65316 0.48053 0.0
N383 N 0.48468 0.63743 0.44186 0.0
C384 C 0.58365 0.6377 0.4954 0.0
C385 C 0.59469 0.6459 0.45714 0.0
C386 C 0.54367 0.64638 0.43089 0.0
C387 C 0.47674 0.62498 0.47662 0.0
C388 C 0.52467 0.62587 0.50435 0.0
H389 H 0.55057 0.6564 0.40377 0.0
H390 H 0.43 0.61789 0.48516 0.0
H391 H 0.4042 0.71403 0.39423 0.0
H392 H 0.49183 0.73127 0.50061 0.0
H393 H 0.39152 0.55282 0.38356 0.0
H394 H 0.64017 0.65471 0.44896 0.0
H395 H 0.5139 0.61924 0.53338 0.0
C396 C 0.4476 0.38891 0.97757 0.0
C397 C 0.45898 0.36135 0.97842 0.0
N398 N 0.44633 0.35113 0.94329 0.0
N399 N 0.42851 0.39627 0.9419 0.0
C400 C 0.42698 0.37254 0.92173 0.0
H401 H 0.45542 0.40294 1.00109 0.0
Co402 Co 0.41616 0.43303 0.92656 0.0
C403 C 0.45572 0.43165 0.84483 0.0
O404 O 0.49802 0.45052 0.85306 0.0
N405 N 0.40076 0.47052 0.91085 0.0
C406 C 0.40833 0.51492 0.89608 0.0
C407 C 0.44177 0.49115 0.90256 0.0
C408 C 0.34244 0.48259 0.90783 0.0
N409 N 0.34585 0.50944 0.89998 0.0
O410 O 0.32676 0.42744 0.93142 0.0
H411 H 0.49323 0.4896 0.90237 0.0
H412 H 0.29739 0.47246 0.91284 0.0
O413 O 0.41884 0.42229 0.87125 0.0
C414 C 0.321 0.43345 0.96727 0.0
O415 O 0.37229 0.44068 0.98671 0.0
N416 N 0.50475 0.4385 0.9305 0.0
C417 C 0.61115 0.42811 0.97648 0.0
C418 C 0.59846 0.41218 0.94369 0.0
C419 C 0.54668 0.41858 0.91995 0.0
C420 C 0.51916 0.4554 0.96061 0.0
C421 C 0.57374 0.4513 0.98287 0.0
H422 H 0.53469 0.40471 0.89707 0.0
H423 H 0.48449 0.4701 0.97055 0.0
H424 H 0.41396 0.37101 0.89168 0.0
H425 H 0.47752 0.34982 1.00252 0.0
H426 H 0.42839 0.53493 0.89094 0.0
H427 H 0.62603 0.39402 0.93771 0.0
H428 H 0.58242 0.46431 1.00758 0.0
C429 C 0.06459 0.70848 0.97535 0.0
C430 C 0.04675 0.73533 0.97557 0.0
N431 N 0.0251 0.74164 0.94028 0.0
N432 N 0.05448 0.69772 0.94002 0.0
C433 C 0.03033 0.71861 0.91903 0.0
H434 H 0.08167 0.6972 1.0 0.0
Co435 Co 0.06674 0.66035 0.93132 0.0
C436 C -0.01105 0.6475 0.86194 0.0
O437 O 0.95807 0.62899 0.88187 0.0
N438 N 0.08054 0.62172 0.92375 0.0
C439 C 0.07726 0.57621 0.92902 0.0
C440 C 0.04453 0.60019 0.93518 0.0
C441 C 0.13406 0.60977 0.90962 0.0
N442 N 0.13385 0.58242 0.91317 0.0
O443 O 0.15087 0.66818 0.91218 0.0
H444 H -0.00192 0.60152 0.94854 0.0
H445 H 0.17378 0.62072 0.89798 0.0
O446 O 0.03061 0.66266 0.87864 0.0
C447 C 0.18528 0.66748 0.94256 0.0
O448 O 0.15843 0.66034 0.97518 0.0
N449 N -0.01084 0.65425 0.95602 0.0
C450 C 0.89594 0.65803 1.01303 0.0
C451 C 0.88216 0.66552 0.97477 0.0
C452 C 0.93039 0.66441 0.94683 0.0
C453 C 0.00249 0.64639 0.99283 0.0
C454 C 0.9571 0.64849 1.02181 0.0
H455 H 0.92173 0.67334 0.91888 0.0
H456 H 0.0504 0.64013 1.00031 0.0
H457 H 0.01553 0.71694 0.88933 0.0
H458 H 0.0477 0.74904 1.00004 0.0
H459 H 0.06223 0.55597 0.93744 0.0
H460 H 0.83582 0.67375 0.96722 0.0
H461 H 0.97018 0.64332 0.05111 0.0
C462 C 0.92039 0.69499 0.57018 0.0
C463 C 0.93079 0.72255 0.57043 0.0
N464 N 0.9275 0.73128 0.60705 0.0
N465 N 0.91098 0.68615 0.60657 0.0
C466 C 0.91455 0.70897 0.62855 0.0
H467 H 0.92348 0.68186 0.54521 0.0
Co468 Co 0.90611 0.64847 0.61693 0.0
C469 C 0.96966 0.64572 0.69464 0.0
O470 O 0.01766 0.63236 0.67951 0.0
N471 N 0.89916 0.60986 0.62557 0.0
C472 C 0.91461 0.56521 0.63577 0.0
C473 C 0.94339 0.59054 0.63389 0.0
C474 C 0.84457 0.59526 0.62173 0.0
N475 N 0.85221 0.56851 0.62824 0.0
O476 O 0.81592 0.65272 0.62536 0.0
H477 H -0.00604 0.59415 0.63718 0.0
H478 H 0.79985 0.6035 0.61287 0.0
O479 O 0.92372 0.6541 0.67311 0.0
C480 C 0.79159 0.65321 0.59162 0.0
O481 O 0.8291 0.64878 0.56196 0.0
N482 N -0.00718 0.64545 0.60332 0.0
C483 C 0.09509 0.65743 0.5547 0.0
C484 C 0.08341 0.67314 0.58778 0.0
C485 C 0.03461 0.66574 0.61296 0.0
C486 C 0.00451 0.62937 0.572 0.0
C487 C 0.05745 0.63412 0.54856 0.0
H488 H 0.02507 0.67867 0.63745 0.0
H489 H 0.96985 0.61429 0.56299 0.0
H490 H 0.9108 0.70913 0.65955 0.0
H491 H 0.94296 0.73511 0.54588 0.0
H492 H 0.93759 0.54594 0.64178 0.0
H493 H 0.11042 0.69154 0.59357 0.0
H494 H 0.06523 0.62116 0.52373 0.0
C495 C 0.52579 0.37721 0.56117 0.0
C496 C 0.51368 0.34977 0.56062 0.0
N497 N 0.52034 0.3404 0.59665 0.0
N498 N 0.53852 0.38543 0.59759 0.0
C499 C 0.53719 0.3621 0.61839 0.0
H500 H 0.52511 0.39032 0.53625 0.0
Co501 Co 0.55768 0.4221 0.60977 0.0
C502 C 0.47976 0.40602 0.68277 0.0
O503 O 0.44691 0.38579 0.66793 0.0
N504 N 0.57844 0.45848 0.62042 0.0
C505 C 0.58413 0.49981 0.64671 0.0
C506 C 0.54749 0.47654 0.64305 0.0
C507 C 0.63259 0.47148 0.60983 0.0
N508 N 0.63794 0.49634 0.62611 0.0
O509 O 0.63909 0.41126 0.62954 0.0
H510 H 0.50248 0.47267 0.65724 0.0
H511 H 0.66856 0.46266 0.5914 0.0
O512 O 0.51967 0.41955 0.6623 0.0
C513 C 0.67387 0.40686 0.60008 0.0
O514 O 0.64787 0.40912 0.56575 0.0
N515 N 0.48206 0.43312 0.58553 0.0
C516 C 0.39046 0.43124 0.52743 0.0
C517 C 0.37392 0.42528 0.56571 0.0
C518 C 0.4208 0.42611 0.59447 0.0
C519 C 0.49664 0.44242 0.54957 0.0
C520 C 0.45189 0.44106 0.51976 0.0
H521 H 0.40846 0.41903 0.62264 0.0
H522 H 0.54565 0.4475 0.54274 0.0
H523 H 0.5474 0.36094 0.64881 0.0
H524 H 0.49903 0.33772 0.53597 0.0
H525 H 0.57364 0.51737 0.66452 0.0
H526 H 0.32657 0.41782 0.57264 0.0
H527 H 0.46646 0.44573 0.49057 0.0
C528 C 0.33191 0.13083 0.06166 0.0
C529 C 0.35026 0.15542 0.04312 0.0
C530 C 0.27682 0.1809 0.08471 0.0
C531 C 0.25672 0.15603 0.10125 0.0
N532 N 0.28621 0.11083 0.11909 0.0
N533 N 0.35527 0.20463 0.04563 0.0
C534 C 0.29214 0.13222 0.09446 0.0
C535 C 0.32764 0.18083 0.05745 0.0
N536 N 0.34904 0.10612 0.04676 0.0
N537 N 0.24474 0.20422 0.09371 0.0
H538 H 0.39352 0.20522 0.02642 0.0
H539 H 0.34405 0.22356 0.05738 0.0
H540 H 0.21021 0.20458 0.11539 0.0
H541 H 0.251 0.2226 0.07924 0.0
H542 H 0.33229 0.08773 0.05778 0.0
H543 H 0.37465 0.10398 1.02121 0.0
H544 H 0.31408 0.0933 0.11721 0.0
H545 H 0.25933 0.11259 0.14421 0.0
C546 C 0.15585 0.90371 0.04171 0.0
C547 C 0.15839 0.9243 1.01299 0.0
C548 C 0.25533 0.94283 0.04144 0.0
C549 C 0.25753 0.92042 0.06758 0.0
N550 N 0.21372 0.87792 0.09014 0.0
N551 N 0.21479 0.96069 0.98134 0.0
C552 C 0.20844 0.90051 0.06741 0.0
C553 C 0.20928 0.94309 1.01174 0.0
N554 N 0.10297 0.88749 0.0446 0.0
N555 N 0.29705 0.96417 0.04514 0.0
H556 H 0.18159 0.96164 0.95892 0.0
H557 H 0.2552 0.97258 0.97636 0.0
H558 H 0.33357 0.9648 0.06542 0.0
H559 H 0.29218 0.98242 0.03018 0.0
H560 H 0.09505 0.87417 0.06742 0.0
H561 H 0.06495 0.88859 1.02524 0.0
H562 H 0.18337 0.86115 0.088 0.0
H563 H 0.25106 0.87517 0.10968 0.0
C564 C 0.77483 0.91264 0.46336 0.0
C565 C 0.72087 0.9287 0.47242 0.0
C566 C 0.78861 0.95965 0.51009 0.0
C567 C 0.83756 0.94014 0.50887 0.0
N568 N 0.88193 0.899 0.48223 0.0
N569 N 0.67556 0.9673 0.50664 0.0
C570 C 0.83272 0.91717 0.48407 0.0
C571 C 0.72777 0.95259 0.49557 0.0
N572 N 0.76977 0.89255 0.43625 0.0
N573 N 0.79999 0.98458 0.52627 0.0
H574 H 0.62958 0.96348 0.49664 0.0
H575 H 0.67724 0.98207 0.52822 0.0
H576 H 0.84463 0.98994 0.53746 0.0
H577 H 0.76759 1.00066 0.52484 0.0
H578 H 0.80846 0.88128 0.42628 0.0
H579 H 0.72728 0.88874 0.42139 0.0
H580 H 0.87884 0.88016 0.46853 0.0
H581 H 0.92572 0.90255 0.49567 0.0
C582 C 0.66088 0.13931 0.44785 0.0
C583 C 0.7011 0.16221 0.4475 0.0
C584 C 0.63264 0.18315 0.49636 0.0
C585 C 0.60692 0.15695 0.50496 0.0
N586 N 0.60376 0.10865 0.48944 0.0
N587 N 0.7217 0.20794 0.46826 0.0
C588 C 0.62236 0.13456 0.48055 0.0
C589 C 0.68486 0.18505 0.47028 0.0
N590 N 0.65997 0.12224 0.41697 0.0
N591 N 0.60632 0.20605 0.51201 0.0
H592 H 0.75817 0.20981 0.44791 0.0
H593 H 0.71747 0.22423 0.48738 0.0
H594 H 0.56546 0.20545 0.52911 0.0
H595 H 0.62073 0.22567 0.50457 0.0
H596 H 0.62942 0.10548 0.41498 0.0
H597 H 0.68336 0.12761 0.39154 0.0
H598 H 0.61738 0.09179 0.47313 0.0
H599 H 0.58081 0.10366 0.51511 0.0
C600 C 0.70972 0.9131 0.99748 0.0
C601 C 0.751 0.9356 0.99212 0.0
C602 C 0.69228 0.96178 0.04096 0.0
C603 C 0.65652 0.93812 0.04978 0.0
N604 N 0.63383 0.89038 0.0391 0.0
N605 N 0.7844 0.98123 1.00975 0.0
C606 C 0.66565 0.91354 0.02862 0.0
C607 C 0.74236 0.96006 1.01373 0.0
N608 N 0.71327 0.89119 0.97319 0.0
N609 N 0.67861 0.98596 0.05885 0.0
H610 H 0.8201 0.98161 0.98902 0.0
H611 H 0.78666 0.99782 0.02843 0.0
H612 H 0.64689 0.98762 0.08187 0.0
H613 H 0.69606 1.00472 0.04962 0.0
H614 H 0.68038 0.87527 0.97305 0.0
H615 H 0.7459 0.89001 0.95064 0.0
H616 H 0.64324 0.87119 0.0277 0.0
H617 H 0.60142 0.88975 0.06171 0.0
C618 C 0.76939 0.19716 0.97669 0.0
C619 C 0.75312 0.17608 0.95063 0.0
C620 C 0.83332 0.14663 0.97882 0.0
C621 C 0.84851 0.16706 1.00663 0.0
N622 N 0.84806 0.2153 1.02125 0.0
N623 N 0.79529 0.13922 0.91371 0.0
C624 C 0.82206 0.19359 1.00219 0.0
C625 C 0.79417 0.15367 0.94714 0.0
N626 N 0.73207 0.21988 0.97824 0.0
N627 N 0.85242 0.12027 0.98357 0.0
H628 H 0.76955 0.14586 0.88967 0.0
H629 H 0.82689 0.12316 0.90892 0.0
H630 H 0.87606 0.11344 1.00817 0.0
H631 H 0.83832 0.10473 0.96485 0.0
H632 H 0.73633 0.23468 0.99966 0.0
H633 H 0.6952 0.22305 0.9584 0.0
H634 H 0.83314 0.2353 1.0169 0.0
H635 H 0.88913 0.21361 0.03811 0.0
C636 C 0.12753 0.1799 0.55047 0.0
C637 C 0.10519 0.1532 0.5413 0.0
C638 C 0.16082 0.13628 0.59829 0.0
C639 C 0.19805 0.16004 0.59927 0.0
N640 N 0.21085 0.20676 0.58158 0.0
N641 N 0.10675 0.10484 0.55611 0.0
C642 C 0.17843 0.18282 0.57748 0.0
C643 C 0.12274 0.13102 0.56546 0.0
N644 N 0.09938 0.20224 0.53432 0.0
N645 N 0.16266 0.11881 0.62865 0.0
H646 H 0.08317 0.09965 0.53064 0.0
H647 H 0.12311 0.08815 0.57181 0.0
H648 H 0.18751 0.12396 0.65378 0.0
H649 H 0.13391 0.10147 0.63037 0.0
H650 H 0.11098 0.22215 0.54207 0.0
H651 H 0.06002 0.20087 0.51593 0.0
H652 H 0.20488 0.22341 0.56336 0.0
H653 H 0.24526 0.20925 0.60316 0.0
C654 C 0.25996 0.87971 0.58449 0.0
C655 C 0.23287 0.89991 0.60827 0.0
C656 C 0.30381 0.93417 0.58215 0.0
C657 C 0.32721 0.91477 0.55509 0.0
N658 N 0.34696 0.86697 0.54227 0.0
N659 N 0.25487 0.94011 0.64487 0.0
C660 C 0.31185 0.8867 0.56014 0.0
C661 C 0.26482 0.92487 0.61269 0.0
N662 N 0.23269 0.85448 0.58351 0.0
N663 N 0.31373 0.96145 0.57721 0.0
H664 H 0.22538 0.93319 0.66706 0.0
H665 H 0.28065 0.95786 0.65062 0.0
H666 H 0.33691 0.96956 0.55329 0.0
H667 H 0.29289 0.9761 0.59495 0.0
H668 H 0.24469 0.83953 0.56346 0.0
H669 H 0.19607 0.84928 0.60255 0.0
H670 H 0.34018 0.84623 0.54706 0.0
H671 H 0.38718 0.87144 0.52578 0.0
C672 C 0.76594 0.69003 0.07492 0.0
C673 C 0.74801 0.66747 0.09773 0.0
C674 C 0.83195 0.64001 0.06945 0.0
C675 C 0.84837 0.66193 0.04451 0.0
N676 N 0.84709 0.71075 0.03466 0.0
N677 N 0.78659 0.62847 0.13149 0.0
C678 C 0.82068 0.68805 0.05087 0.0
C679 C 0.78914 0.645 0.10012 0.0
N680 N 0.72821 0.71266 0.07483 0.0
N681 N 0.85312 0.61415 0.0626 0.0
H682 H 0.75778 0.63346 0.15502 0.0
H683 H 0.81799 0.61226 0.13569 0.0
H684 H 0.88049 0.60894 0.03865 0.0
H685 H 0.83753 0.59745 0.07861 0.0
H686 H 0.73379 0.72866 0.05543 0.0
H687 H 0.6897 0.71461 0.09375 0.0
H688 H 0.83122 0.73042 0.04055 0.0
H689 H 0.88905 0.71011 1.01851 0.0
C690 C 0.76455 0.40171 1.02208 0.0
C691 C 0.75528 0.40887 0.06116 0.0
C692 C 0.64364 0.41836 0.04568 0.0
C693 C 0.65969 0.4195 1.00569 0.0
N694 N 0.74275 0.41604 0.95727 0.0
N695 N 0.68224 0.42271 0.11127 0.0
C696 C 0.72196 0.4118 0.99405 0.0
C697 C 0.69345 0.41648 0.07359 0.0
N698 N 0.81569 0.38618 1.0118 0.0
N699 N 0.58121 0.41803 0.05698 0.0
H700 H 0.71568 0.41948 0.133 0.0
H701 H 0.64011 0.43189 0.12057 0.0
H702 H 0.54349 0.41754 0.03739 0.0
H703 H 0.56725 0.41501 0.08546 0.0
H704 H 0.82269 0.37916 0.98374 0.0
H705 H 0.84596 0.37779 0.03251 0.0
H706 H 0.78983 0.41246 0.94891 0.0
H707 H 0.71575 0.42617 0.93651 0.0
C708 C 0.27493 0.435 0.44206 0.0
C709 C 0.24387 0.40977 0.44691 0.0
C710 C 0.32836 0.39563 0.49111 0.0
C711 C 0.34652 0.42346 0.49537 0.0
N712 N 0.33704 0.47015 0.47365 0.0
N713 N 0.24546 0.36403 0.47051 0.0
C714 C 0.32111 0.44329 0.46977 0.0
C715 C 0.27337 0.38916 0.46889 0.0
N716 N 0.25835 0.4512 0.41183 0.0
N717 N 0.36347 0.37563 0.50835 0.0
H718 H 0.20632 0.35904 0.4531 0.0
H719 H 0.25932 0.34882 0.48965 0.0
H720 H 0.40472 0.3798 0.52414 0.0
H721 H 0.35526 0.35491 0.50403 0.0
H722 H 0.28196 0.46932 0.40524 0.0
H723 H 0.22449 0.44487 0.39154 0.0
H724 H 0.31463 0.48561 0.45815 0.0
H725 H 0.36893 0.47724 0.49448 0.0
C726 C 0.18235 0.66534 0.45876 0.0
C727 C 0.24252 0.67475 0.47176 0.0
C728 C 0.20523 0.67545 0.53777 0.0
C729 C 0.14423 0.66592 0.52574 0.0
N730 N 0.06901 0.66406 0.4725 0.0
N731 N 0.29762 0.7018 0.51904 0.0
C732 C 0.13063 0.66477 0.48538 0.0
C733 C 0.24789 0.68511 0.50957 0.0
N734 N 0.17485 0.65598 0.42204 0.0
N735 N 0.22575 0.67268 0.57493 0.0
H736 H 0.32962 0.70869 0.49816 0.0
H737 H 0.30221 0.7107 0.54623 0.0
H738 H 0.20037 0.66187 0.5957 0.0
H739 H 0.27194 0.67791 0.58356 0.0
H740 H 0.13362 0.64593 0.41281 0.0
H741 H 0.21075 0.65754 0.4014 0.0
H742 H 0.05717 0.66496 0.44333 0.0
H743 H 0.03007 0.66597 0.49102 0.0
C744 C 0.22026 0.4114 0.99189 0.0
C745 C 0.25929 0.43488 0.98785 0.0
C746 C 0.20179 0.45744 0.04047 0.0
C747 C 0.16014 0.43486 0.04273 0.0
N748 N 0.12137 0.39239 1.01632 0.0
N749 N 0.27803 0.48245 1.00255 0.0
C750 C 0.16675 0.41243 1.01709 0.0
C751 C 0.24698 0.45859 1.01033 0.0
N752 N 0.23622 0.38769 0.9736 0.0
N753 N 0.19976 0.47737 0.06807 0.0
H754 H 0.31255 0.48421 0.98124 0.0
H755 H 0.26544 0.50107 1.01481 0.0
H756 H 0.16744 0.47714 0.09091 0.0
H757 H 0.23389 0.49276 0.07045 0.0
H758 H 0.21402 0.36911 0.97922 0.0
H759 H 0.27479 0.38604 0.95481 0.0
H760 H 0.1198 0.37717 0.99539 0.0
H761 H 0.08235 0.39213 0.03492 0.0
C762 C 0.27511 0.69357 0.96846 0.0
C763 C 0.2546 0.67262 0.94341 0.0
C764 C 0.33268 0.64158 0.97004 0.0
C765 C 0.35019 0.66156 0.99798 0.0
N766 N 0.3572 0.70983 1.01222 0.0
N767 N 0.29025 0.63501 0.90562 0.0
C768 C 0.32778 0.68878 0.99344 0.0
C769 C 0.29302 0.64948 0.93901 0.0
N770 N 0.24107 0.71721 0.97 0.0
N771 N 0.34968 0.61492 0.9742 0.0
H772 H 0.26371 0.6422 0.88223 0.0
H773 H 0.31962 0.61833 0.90001 0.0
H774 H 0.37268 0.60741 0.99861 0.0
H775 H 0.33488 0.59984 0.955 0.0
H776 H 0.24838 0.73219 0.99087 0.0
H777 H 0.20369 0.72097 0.95072 0.0
H778 H 0.34507 0.73017 1.00789 0.0
H779 H 0.3982 0.70713 0.02893 0.0
C780 C 0.64753 0.62423 0.55456 0.0
C781 C 0.62988 0.64434 0.52699 0.0
C782 C 0.70428 0.67645 0.55766 0.0
C783 C 0.72268 0.65583 0.58367 0.0
N784 N 0.68689 0.6171 0.61943 0.0
N785 N 0.62445 0.69278 0.51307 0.0
C786 C 0.68551 0.63208 0.58648 0.0
C787 C 0.65274 0.67158 0.53189 0.0
N788 N 0.63224 0.59744 0.54921 0.0
N789 N 0.7382 0.70022 0.55663 0.0
H790 H 0.5848 0.69034 0.49533 0.0
H791 H 0.63609 0.7131 0.51828 0.0
H792 H 0.77374 0.70458 0.57692 0.0
H793 H 0.73273 0.71481 0.53509 0.0
H794 H 0.64843 0.58216 0.56761 0.0
H795 H 0.60975 0.5902 0.52439 0.0
H796 H 0.65758 0.60018 0.62381 0.0
H797 H 0.71296 0.62365 0.64344 0.0
C798 C 0.82229 0.43814 0.57906 0.0
C799 C 0.84588 0.41836 0.55272 0.0
C800 C 0.77225 0.38445 0.57908 0.0
C801 C 0.74412 0.40516 0.60155 0.0
N802 N 0.76305 0.44565 0.63823 0.0
N803 N 0.86115 0.3705 0.53897 0.0
C804 C 0.77706 0.42986 0.60711 0.0
C805 C 0.827 0.39064 0.55666 0.0
N806 N 0.83872 0.46496 0.57561 0.0
N807 N 0.74318 0.35958 0.57723 0.0
H808 H 0.90252 0.37448 0.52322 0.0
H809 H 0.85209 0.34983 0.54292 0.0
H810 H 0.70412 0.35491 0.59474 0.0
H811 H 0.75611 0.34432 0.55788 0.0
H812 H 0.8177 0.4803 0.59203 0.0
H813 H 0.86929 0.47219 0.55427 0.0
H814 H 0.78906 0.46308 0.64536 0.0
H815 H 0.72954 0.43943 0.65868 0.0
C816 C 0.2092 0.05036 0.10846 0.0
C817 C 0.167 0.05464 0.1399 0.0
C818 C 0.22564 1.02082 0.1783 0.0
C819 C 0.26887 1.01721 0.14738 0.0
N820 N 0.30556 1.02854 0.084 0.0
N821 N 0.13584 0.04601 0.20512 0.0
C822 C 0.26145 1.03195 0.1126 0.0
C823 C 0.17551 0.04037 0.17498 0.0
N824 N 0.19916 0.06422 0.07485 0.0
N825 N 0.2324 1.00504 0.21043 0.0
H826 H 0.09806 0.05971 0.20266 0.0
H827 H 0.14139 1.03821 0.23276 0.0
H828 H 0.26941 0.99097 0.21342 0.0
H829 H 0.20039 1.00481 0.23329 0.0
H830 H 0.22443 0.061 0.04952 0.0
H831 H 0.16386 0.07902 0.07184 0.0
H832 H 0.30568 1.03903 0.05804 0.0
H833 H 0.34421 1.01528 0.08661 0.0
C834 C 0.68915 1.02433 0.38234 0.0
C835 C 0.6569 1.0212 0.41796 0.0
C836 C 0.73085 0.05369 0.44846 0.0
C837 C 0.76541 0.05551 0.41346 0.0
N838 N 0.78185 0.04199 0.34792 0.0
N839 N 0.65032 1.03012 0.48604 0.0
C840 C 0.74565 0.04064 0.38055 0.0
C841 C 0.67844 1.03529 0.45131 0.0
N842 N 0.66439 1.01213 0.35021 0.0
N843 N 0.74803 0.06992 0.47884 0.0
H844 H 0.61195 1.0168 0.48923 0.0
H845 H 0.66759 1.03736 0.51228 0.0
H846 H 0.7876 0.08282 0.4782 0.0
H847 H 0.72124 0.07198 0.50387 0.0
H848 H 0.68207 1.01494 0.32253 0.0
H849 H 0.62295 1.0003 0.35106 0.0
H850 H 0.77398 1.03008 0.32351 0.0
H851 H 0.82242 0.05431 0.34604 0.0
C852 C 0.70507 0.05108 0.87662 0.0
C853 C 0.69213 0.06532 0.91123 0.0
C854 C 0.78458 0.04375 0.94233 0.0
C855 C 0.79536 1.02827 0.90837 0.0
N856 N 0.76542 1.01546 0.84411 0.0
N857 N 0.71417 0.07397 0.97806 0.0
C858 C 0.75534 1.03149 0.87572 0.0
C859 C 0.73075 0.06142 0.94434 0.0
N860 N 0.66974 0.05687 0.84457 0.0
N861 N 0.82615 0.0415 0.97256 0.0
H862 H 0.67544 0.08722 0.98017 0.0
H863 H 0.73596 0.0702 1.00445 0.0
H864 H 0.86388 1.02769 0.97282 0.0
H865 H 0.82555 0.0541 0.9967 0.0
H866 H 0.67914 0.04909 0.81726 0.0
H867 H 0.63248 0.07094 0.84501 0.0
H868 H 0.73508 1.01468 0.82038 0.0
H869 H 0.80349 1.00183 0.84242 0.0
C870 C 0.23216 1.01578 0.66702 0.0
C871 C 0.18998 1.01279 0.63523 0.0
C872 C 0.25132 0.04695 0.59922 0.0
C873 C 0.29001 0.05156 0.6322 0.0
N874 N 0.31422 0.04298 0.69864 0.0
N875 N 0.15425 1.02696 0.57267 0.0
C876 C 0.27977 1.03656 0.66641 0.0
C877 C 0.19841 1.02869 0.6016 0.0
N878 N 0.22745 0.99818 0.69733 0.0
N879 N 0.26627 0.05976 0.5655 0.0
H880 H 0.11505 1.01383 0.57395 0.0
H881 H 0.15377 0.03965 0.54869 0.0
H882 H 0.30493 0.07311 0.56312 0.0
H883 H 0.24375 0.05576 0.53936 0.0
H884 H 0.26019 0.99743 0.7199 0.0
H885 H 0.19351 0.9826 0.69823 0.0
H886 H 0.30507 1.03488 0.72577 0.0
H887 H 0.34956 0.05801 0.69871 0.0
C888 C 0.76116 0.53116 0.10353 0.0
C889 C 0.77038 0.51655 0.13826 0.0
C890 C 0.68048 0.54072 0.16797 0.0
C891 C 0.66963 0.55451 0.13275 0.0
N892 N 0.69292 0.56097 0.06567 0.0
N893 N 0.737 0.50474 0.20212 0.0
C894 C 0.70829 0.54922 0.10012 0.0
C895 C 0.72926 0.52053 0.1701 0.0
N896 N 0.80394 0.52801 0.07419 0.0
N897 N 0.64529 0.54775 0.19955 0.0
H898 H 0.77342 0.49033 0.20442 0.0
H899 H 0.70571 0.50469 0.22536 0.0
H900 H 0.60926 0.56238 0.19841 0.0
H901 H 0.65391 0.54042 0.22719 0.0
H902 H 0.80459 0.54004 0.04953 0.0
H903 H 0.8415 0.5141 0.07546 0.0
H904 H 0.7153 0.55635 0.03974 0.0
H905 H 0.65427 0.57417 0.06248 0.0
C906 C 0.2394 0.5464 0.37969 0.0
C907 C 0.266 0.55745 0.41388 0.0
C908 C 0.18967 0.5308 0.4522 0.0
C909 C 0.16752 0.51788 0.41815 0.0
N910 N 0.18224 0.50869 0.35059 0.0
N911 N 0.27463 0.55666 0.483 0.0
C912 C 0.19543 0.52439 0.38213 0.0
C913 C 0.24327 0.54872 0.45033 0.0
N914 N 0.25466 0.55759 0.34492 0.0
N915 N 0.15826 0.52648 0.48607 0.0
H916 H 0.31489 0.5692 0.48241 0.0
H917 H 0.26431 0.54891 0.5102 0.0
H918 H 0.1185 0.51371 0.48804 0.0
H919 H 0.16813 0.53726 0.51128 0.0
H920 H 0.23222 0.55206 0.31923 0.0
H921 H 0.28506 0.57435 0.34235 0.0
H922 H 0.2058 0.5109 0.32437 0.0
H923 H 0.15279 0.49156 0.35182 0.0
C924 C 0.25142 0.53204 0.87114 0.0
C925 C 0.29393 0.52878 0.90263 0.0
C926 C 0.22977 0.56066 0.94127 0.0
C927 C 0.18833 0.56452 0.90937 0.0
N928 N 0.16134 0.55656 0.84322 0.0
N929 N 0.32815 0.54117 0.96646 0.0
C930 C 0.19973 0.55092 0.87403 0.0
C931 C 0.28439 0.54351 0.93738 0.0
N932 N 0.26047 0.51669 0.83876 0.0
N933 N 0.21575 0.57309 0.97549 0.0
H934 H 0.36702 0.52797 0.96507 0.0
H935 H 0.32803 0.55293 0.99141 0.0
H936 H 0.17754 0.5865 0.97869 0.0
H937 H 0.23972 0.56941 1.00121 0.0
H938 H 0.22878 0.51598 0.81568 0.0
H939 H 0.29928 0.50355 0.83571 0.0
H940 H 0.16903 0.54924 0.81547 0.0
H941 H 0.12286 0.56995 0.84519 0.0
C942 C 0.78017 0.53641 0.66193 0.0
C943 C 0.80208 0.54827 0.6272 0.0
C944 C 0.7136 0.52664 0.59189 0.0
C945 C 0.69396 0.51357 0.62625 0.0
N946 N 0.7164 0.50107 0.6919 0.0
N947 N 0.79704 0.55155 0.55827 0.0
C948 C 0.72956 0.51705 0.66073 0.0
C949 C 0.77087 0.54239 0.59185 0.0
N950 N 0.80582 0.54465 0.69625 0.0
N951 N 0.67605 0.52472 0.55978 0.0
H952 H 0.83948 0.56273 0.55765 0.0
H953 H 0.78007 0.54621 0.53108 0.0
H954 H 0.63349 0.51363 0.55936 0.0
H955 H 0.6842 0.53571 0.53463 0.0
H956 H 0.7873 0.53898 0.7229 0.0
H957 H 0.84246 0.55901 0.69812 0.0
H958 H 0.74462 0.50071 0.71664 0.0
H959 H 0.68099 0.4861 0.6915 0.0
C960 C 0.04348 0.31163 0.12903 0.0
C961 C 0.9798 0.31754 0.11805 0.0
C962 C 0.95564 0.26877 0.1129 0.0
C963 C 0.02068 0.26296 0.12082 0.0
N964 N 0.12341 0.27708 0.14373 0.0
N965 N 0.87214 0.30309 0.10657 0.0
C966 C 0.06347 0.28396 0.13162 0.0
C967 C 0.93464 0.29639 0.11271 0.0
N968 N 0.08502 0.33271 0.13517 0.0
N969 N 0.91529 0.24787 0.10358 0.0
H970 H 0.85671 0.3233 0.10585 0.0
H971 H 0.83509 0.28903 0.10436 0.0
H972 H 0.92966 0.22754 0.10419 0.0
H973 H 0.86836 0.25037 0.09447 0.0
H974 H 0.13366 0.33038 0.14018 0.0
H975 H 0.07041 0.35303 0.13442 0.0
H976 H 0.15706 0.29093 0.15402 0.0
H977 H 0.13815 0.25681 0.14563 0.0
C978 C 0.52468 0.8079 0.13693 0.0
C979 C 0.46483 0.81614 0.12186 0.0
C980 C 0.4364 0.76846 0.10971 0.0
C981 C 0.5 0.76089 0.11853 0.0
N982 N 0.60475 0.77221 0.14166 0.0
N983 N 0.36201 0.80521 0.09554 0.0
C984 C 0.54379 0.78021 0.13341 0.0
C985 C 0.41949 0.79657 0.10952 0.0
N986 N 0.56345 0.82697 0.15362 0.0
N987 N 0.3931 0.74856 0.10087 0.0
H988 H 0.34876 0.82572 0.09596 0.0
H989 H 0.32853 0.7925 0.08251 0.0
H990 H 0.40537 0.72793 0.101 0.0
H991 H 0.34474 0.7521 0.09619 0.0
H992 H 0.60593 0.82243 0.16778 0.0
H993 H 0.55031 0.84743 0.15563 0.0
H994 H 0.64156 0.78554 0.14887 0.0
H995 H 0.61923 0.75191 0.13972 0.0
C996 C 0.53883 0.797 0.42957 0.0
C997 C 0.48987 0.8159 0.43801 0.0
C998 C 0.41056 0.77906 0.43957 0.0
C999 C 0.46021 0.76 0.43366 0.0
N1000 N 0.56741 0.75019 0.41407 0.0
N1001 N 0.37853 0.82673 0.44183 0.0
C1002 C 0.52302 0.76892 0.42528 0.0
C1003 C 0.42524 0.80742 0.43959 0.0
N1004 N 0.6007 0.80579 0.42823 0.0
N1005 N 0.35047 0.76981 0.44749 0.0
H1006 H 0.38911 0.84755 0.44189 0.0
H1007 H 0.3299 0.82242 0.44064 0.0
H1008 H 0.33888 0.74912 0.44689 0.0
H1009 H 0.31293 0.78229 0.45601 0.0
H1010 H 0.63992 0.79289 0.42617 0.0
H1011 H 0.61294 0.82635 0.43077 0.0
H1012 H 0.61322 0.75516 0.40487 0.0
H1013 H 0.55624 0.72953 0.41123 0.0
C1014 C 0.93668 0.30694 0.43104 0.0
C1015 C 0.00289 0.3114 0.43718 0.0
C1016 C 0.0221 0.26217 0.43653 0.0
C1017 C 0.95558 0.25776 0.43195 0.0
N1018 N 0.85157 0.27464 0.41641 0.0
N1019 N 0.11022 0.29467 0.43846 0.0
C1020 C 0.91368 0.27987 0.426 0.0
C1021 C 0.04623 0.28934 0.43712 0.0
N1022 N 0.89563 0.32852 0.43258 0.0
N1023 N 0.06117 0.24033 0.44254 0.0
H1024 H 0.12804 0.31456 0.43944 0.0
H1025 H 0.14539 0.27983 0.43592 0.0
H1026 H 0.04442 0.2203 0.44134 0.0
H1027 H 0.10915 0.24189 0.45008 0.0
H1028 H 0.84614 0.32662 0.43232 0.0
H1029 H 0.91134 0.34853 0.43629 0.0
H1030 H 0.81881 0.28962 0.40874 0.0
H1031 H 0.83428 0.25479 0.41321 0.0
C1032 C 0.91151 0.80056 0.94145 0.0
C1033 C 0.95552 0.822 0.93523 0.0
C1034 C 0.03849 0.7888 0.91813 0.0
C1035 C -0.00245 0.76757 0.9302 0.0
N1036 N 0.89473 0.75188 0.95086 0.0
N1037 N 0.05968 0.83751 0.91637 0.0
C1038 C 0.93332 0.77306 0.94037 0.0
C1039 C 0.0184 0.81637 0.9223 0.0
N1040 N 0.84934 0.80687 0.94918 0.0
N1041 N 0.09715 0.7823 0.9037 0.0
H1042 H 0.04548 0.85777 0.91879 0.0
H1043 H 0.10805 0.83523 0.91049 0.0
H1044 H 0.11236 0.76212 0.90113 0.0
H1045 H 0.12872 0.79636 0.89188 0.0
H1046 H 0.81303 0.79253 0.95207 0.0
H1047 H 0.8334 0.82702 0.95031 0.0
H1048 H 0.84907 0.75413 0.96212 0.0
H1049 H 0.90969 0.73163 0.94898 0.0
C1050 C 0.54157 0.28898 0.91682 0.0
C1051 C 0.49857 0.26851 0.92907 0.0
C1052 C 0.41463 0.30285 0.93825 0.0
C1053 C 0.46021 0.32357 0.9313 0.0
N1054 N 0.56488 0.33743 0.91124 0.0
N1055 N 0.39371 0.25447 0.94825 0.0
C1056 C 0.52283 0.31687 0.91894 0.0
C1057 C 0.43438 0.27503 0.93811 0.0
N1058 N 0.60084 0.28147 0.90435 0.0
N1059 N 0.35297 0.31016 0.94571 0.0
H1060 H 0.40726 0.23401 0.947 0.0
H1061 H 0.34747 0.25735 0.95825 0.0
H1062 H 0.33851 0.33052 0.94599 0.0
H1063 H 0.31562 0.29644 0.94955 0.0
H1064 H 0.63456 0.29484 0.89314 0.0
H1065 H 0.61517 0.26112 0.90334 0.0
H1066 H 0.61298 0.33468 0.90507 0.0
H1067 H 0.5512 0.35781 0.91171 0.0
C1068 C 0.41399 0.28201 0.62373 0.0
C1069 C 0.45412 0.2601 0.61339 0.0
C1070 C 0.54378 0.29174 0.60524 0.0
C1071 C 0.50082 0.31376 0.60909 0.0
N1072 N 0.39459 0.33059 0.6201 0.0
N1073 N 0.55717 0.24309 0.59488 0.0
C1074 C 0.43594 0.30913 0.61864 0.0
C1075 C 0.51956 0.2646 0.60509 0.0
N1076 N 0.35449 0.27656 0.63783 0.0
N1077 N 0.60734 0.29712 0.60089 0.0
H1078 H 0.54051 0.22307 0.59506 0.0
H1079 H 0.60364 0.24503 0.58469 0.0
H1080 H 0.62505 0.31701 0.60048 0.0
H1081 H 0.64263 0.28221 0.60057 0.0
H1082 H 0.32416 0.29141 0.64894 0.0
H1083 H 0.33794 0.25665 0.64152 0.0
H1084 H 0.34534 0.32845 0.62285 0.0
H1085 H 0.40928 0.35067 0.6159 0.0
C1086 C 0.8973 0.77882 0.62012 0.0
C1087 C 0.94471 0.75837 0.61927 0.0
C1088 C 0.02899 0.79311 0.61765 0.0
C1089 C 0.9815 0.81352 0.61623 0.0
N1090 N 0.8725 0.8271 0.62513 0.0
N1091 N 0.05416 0.74528 0.62706 0.0
C1092 C 0.91613 0.8067 0.62076 0.0
C1093 C 0.01024 0.7654 0.62167 0.0
N1094 N 0.83453 0.77133 0.61813 0.0
N1095 N 0.0915 0.80019 0.61261 0.0
H1096 H 0.04053 0.725 0.63022 0.0
H1097 H 0.10259 0.74876 0.63175 0.0
H1098 H 0.10602 0.82042 0.60988 0.0
H1099 H 0.12839 0.78622 0.6092 0.0
H1100 H 0.79704 0.78499 0.61457 0.0
H1101 H 0.82031 0.75093 0.61872 0.0
H1102 H 0.82448 0.82384 0.63129 0.0
H1103 H 0.88583 0.84762 0.6254 0.0
C1104 C 0.98181 0.11832 0.25233 0.0
C1105 C -0.01513 0.14354 0.23226 0.0
C1106 C 0.97934 0.16738 0.29464 0.0
C1107 C 0.96742 0.14234 0.3138 0.0
N1108 N 0.93984 0.09466 0.30777 0.0
N1109 N 0.96893 0.19216 0.2347 0.0
C1110 C 0.96347 0.118 0.29172 0.0
C1111 C 0.97879 0.16818 0.25352 0.0
N1112 N -0.00095 0.09463 0.23448 0.0
N1113 N -0.00593 0.19015 0.31542 0.0
H1114 H 0.96198 0.19292 0.20502 0.0
H1115 H 0.9594 0.21041 0.24896 0.0
H1116 H -0.00037 0.18969 0.34524 0.0
H1117 H 0.00809 0.20841 0.30267 0.0
H1118 H 0.00311 0.07618 0.24911 0.0
H1119 H 0.01659 0.09394 0.20643 0.0
H1120 H 0.93068 0.0771 0.29172 0.0
H1121 H 0.92226 0.09378 0.33584 0.0
C1122 C 0.48203 0.93584 0.26238 0.0
C1123 C 0.44975 0.91172 0.25047 0.0
C1124 C 0.43597 0.89835 0.31821 0.0
C1125 C 0.46444 0.92332 0.33001 0.0
N1126 N 0.50821 0.96737 0.31392 0.0
N1127 N 0.38785 0.87194 0.26638 0.0
C1128 C 0.48517 0.94258 0.30223 0.0
C1129 C 0.42461 0.89346 0.27826 0.0
N1130 N 0.51321 0.95151 0.23585 0.0
N1131 N 0.42017 0.87924 0.34516 0.0
H1132 H 0.3782 0.86794 0.23741 0.0
H1133 H 0.36251 0.85937 0.28505 0.0
H1134 H 0.42473 0.88262 0.37465 0.0
H1135 H 0.40641 0.8594 0.33843 0.0
H1136 H 0.54423 0.96734 0.24301 0.0
H1137 H 0.51238 0.9474 0.20649 0.0
H1138 H 0.51598 0.98363 0.29526 0.0
H1139 H 0.5162 0.97241 0.34273 0.0
C1140 C 0.97883 0.89696 0.8012 0.0
C1141 C 0.94889 0.92152 0.81293 0.0
C1142 C 0.9283 0.93324 0.74519 0.0
C1143 C 0.96434 0.9102 0.73356 0.0
N1144 N 0.03008 0.87162 0.74984 0.0
N1145 N 0.89762 0.96394 0.79687 0.0
C1146 C -0.00917 0.89232 0.7614 0.0
C1147 C 0.92407 0.93987 0.78508 0.0
N1148 N -0.00421 0.87804 0.82812 0.0
N1149 N 0.89669 0.94835 0.71816 0.0
H1150 H 0.89 0.96865 0.82582 0.0
H1151 H 0.88594 0.97978 0.77827 0.0
H1152 H 0.89971 0.9444 0.68871 0.0
H1153 H 0.86397 0.96357 0.72484 0.0
H1154 H 0.01133 0.85847 0.82143 0.0
H1155 H -0.01083 0.88111 0.85745 0.0
H1156 H 0.05693 0.85978 0.76871 0.0
H1157 H 0.0401 0.8676 0.72101 0.0
C1158 C 0.46145 0.17394 0.79767 0.0
C1159 C 0.48591 0.15056 0.81658 0.0
C1160 C 0.47748 0.12498 0.75593 0.0
C1161 C 0.46308 0.14925 0.73537 0.0
N1162 N 0.44365 0.19781 0.73763 0.0
N1163 N 0.52904 0.10515 0.8115 0.0
C1164 C 0.45541 0.17403 0.75652 0.0
C1165 C 0.4974 0.1265 0.79501 0.0
N1166 N 0.44111 0.19563 0.81909 0.0
N1167 N 0.46849 0.10014 0.73885 0.0
H1168 H 0.54614 0.10566 0.83974 0.0
H1169 H 0.5442 0.08821 0.79586 0.0
H1170 H 0.44848 0.09792 0.71146 0.0
H1171 H 0.47286 0.08179 0.75368 0.0
H1172 H 0.41634 0.21209 0.80754 0.0
H1173 H 0.44397 0.19602 0.84908 0.0
H1174 H 0.44642 0.21689 0.75071 0.0
H1175 H 0.43391 0.19859 0.70841 0.0
C1176 C 0.49959 0.63934 0.29476 0.0
C1177 C 0.46429 0.66234 0.3075 0.0
C1178 C 0.44568 0.67596 0.24019 0.0
C1179 C 0.47813 0.6522 0.22747 0.0
N1180 N 0.53003 0.60958 0.24195 0.0
N1181 N 0.39614 0.70047 0.29322 0.0
C1182 C 0.50313 0.63335 0.25461 0.0
C1183 C 0.43538 0.68014 0.28041 0.0
N1184 N 0.53224 0.62391 0.32097 0.0
N1185 N 0.42509 0.69463 0.21378 0.0
H1186 H 0.38749 0.70402 0.32239 0.0
H1187 H 0.36818 0.7125 0.27521 0.0
H1188 H 0.42856 0.69152 0.18417 0.0
H1189 H 0.40804 0.71387 0.22097 0.0
H1190 H 0.56508 0.60892 0.31352 0.0
H1191 H 0.52994 0.62731 0.35054 0.0
H1192 H 0.5419 0.59344 0.25998 0.0
H1193 H 0.53728 0.60518 0.21287 0.0
C1194 C 0.00765 0.39315 0.29571 0.0
C1195 C 0.97074 0.40805 0.32276 0.0
C1196 C 0.9178 0.43242 0.26974 0.0
C1197 C 0.95282 0.41661 0.24282 0.0
N1198 N 0.02068 0.37827 0.22948 0.0
N1199 N 0.88455 0.43916 0.33607 0.0
C1200 C -0.0056 0.39576 0.25565 0.0
C1201 C 0.92382 0.42686 0.30991 0.0
N1202 N 0.05715 0.37732 0.30824 0.0
N1203 N 0.88019 0.45327 0.25684 0.0
H1204 H 0.88954 0.43656 0.36571 0.0
H1205 H 0.84474 0.45066 0.32851 0.0
H1206 H 0.87191 0.45686 0.22762 0.0
H1207 H 0.85953 0.46777 0.2748 0.0
H1208 H 0.09002 0.36815 0.28989 0.0
H1209 H 0.06911 0.37539 0.33725 0.0
H1210 H 0.04652 0.36098 0.23705 0.0
H1211 H 0.01117 0.37956 0.20008 0.0
C1212 C 0.42568 0.44068 0.77604 0.0
C1213 C 0.45125 0.42256 0.80396 0.0
C1214 C 0.49893 0.39496 0.75244 0.0
C1215 C 0.47134 0.4124 0.72441 0.0
N1216 N 0.40014 0.44932 0.70885 0.0
N1217 N 0.50104 0.37966 0.81876 0.0
C1218 C 0.43223 0.43455 0.73603 0.0
C1219 C 0.48415 0.39875 0.7921 0.0
N1220 N 0.39629 0.46409 0.7879 0.0
N1221 N 0.54181 0.37551 0.74129 0.0
H1222 H 0.49092 0.38189 0.84786 0.0
H1223 H 0.51925 0.36056 0.81177 0.0
H1224 H 0.55474 0.37247 0.71265 0.0
H1225 H 0.56906 0.36412 0.7605 0.0
H1226 H 0.3837 0.47989 0.76942 0.0
H1227 H 0.38696 0.4683 0.81683 0.0
H1228 H 0.36538 0.46373 0.71537 0.0
H1229 H 0.4052 0.4459 0.67938 0.0
C1230 C -0.01377 0.62298 0.79824 0.0
C1231 C 0.98118 0.64781 0.81909 0.0
C1232 C 0.96812 0.67228 0.75775 0.0
C1233 C 0.96627 0.64709 0.73759 0.0
N1234 N 0.9556 0.59821 0.74092 0.0
N1235 N 0.95097 0.6952 0.81882 0.0
C1236 C 0.96963 0.62237 0.75861 0.0
C1237 C 0.96736 0.67228 0.7989 0.0
N1238 N 0.0102 0.60017 0.81553 0.0
N1239 N 0.97373 0.69611 0.73787 0.0
H1240 H 0.94589 0.69527 0.84868 0.0
H1241 H 0.93542 0.713 0.80545 0.0
H1242 H 0.97742 0.69665 0.70796 0.0
H1243 H 0.98116 0.71488 0.75126 0.0
H1244 H 0.02047 0.58236 0.80037 0.0
H1245 H 0.02686 0.59992 0.84384 0.0
H1246 H 0.95173 0.57985 0.75581 0.0
H1247 H 0.94043 0.5971 0.71236 0.0
loop_
_geom_bond_atom_site_label_1
_geom_bond_atom_site_label_2
_geom_bond_distance
_geom_bond_site_symmetry_2
_ccdc_geom_bond_type
C0 C1 1.351 . S
C0 N3 1.368 . S
C0 H5 0.931 . S
C1 C0 1.351 . S
C1 N2 1.373 . S
C1 H29 0.930 . S
N2 C1 1.373 . S
N2 C4 1.340 . S
N3 C0 1.368 . S
N3 C4 1.321 . S
N3 Co6 2.135 . S
C4 N2 1.340 . S
C4 N3 1.321 . S
C4 H28 0.930 . S
H5 C0 0.931 . S
Co6 N3 2.135 . S
Co6 N9 2.121 . S
Co6 O14 2.055 . S
Co6 O17 2.039 . S
Co6 N20 2.140 . S
C7 O8 1.227 1_455 S
C7 O17 1.265 . S
O8 C7 1.227 1_655 S
N9 Co6 2.121 . S
N9 C11 1.375 . S
N9 C12 1.313 . S
C10 C11 1.338 . S
C10 N13 1.377 . S
C10 H30 0.930 . S
C11 N9 1.375 . S
C11 C10 1.338 . S
C11 H15 0.931 . S
C12 N9 1.313 . S
C12 N13 1.344 . S
C12 H16 0.930 . S
N13 C10 1.377 . S
N13 C12 1.344 . S
O14 Co6 2.055 . S
O14 C18 1.253 . S
H15 C11 0.931 . S
H16 C12 0.930 . S
O17 Co6 2.039 . S
O17 C7 1.265 . S
C18 O14 1.253 . S
C18 O19 1.227 . S
O19 C18 1.227 . S
N20 Co6 2.140 . S
N20 C23 1.346 1_455 S
N20 C24 1.345 . S
C21 C22 1.387 . S
C21 C25 1.391 . S
C22 C21 1.387 . S
C22 C23 1.369 . S
C22 H31 0.929 . S
C23 N20 1.346 1_655 S
C23 C22 1.369 . S
C23 H26 0.928 . S
C24 N20 1.345 . S
C24 C25 1.371 1_455 S
C24 H27 0.931 . S
C25 C21 1.391 . S
C25 C24 1.371 1_655 S
C25 H32 0.930 . S
H26 C23 0.928 . S
H27 C24 0.931 . S
H28 C4 0.930 . S
H29 C1 0.930 . S
H30 C10 0.930 . S
H31 C22 0.929 . S
H32 C25 0.930 . S
C33 C34 1.351 . S
C33 N36 1.368 . S
C33 H38 0.931 . S
C34 C33 1.351 . S
C34 N35 1.373 . S
C34 H62 0.930 . S
N35 C34 1.373 . S
N35 C37 1.340 . S
N36 C33 1.368 . S
N36 C37 1.321 . S
N36 Co39 2.135 . S
C37 N35 1.340 . S
C37 N36 1.321 . S
C37 H61 0.930 . S
H38 C33 0.931 . S
Co39 N36 2.135 . S
Co39 N42 2.121 . S
Co39 O47 2.055 . S
Co39 O50 2.039 . S
Co39 N53 2.140 . S
C40 O41 1.227 . S
C40 O50 1.265 . S
O41 C40 1.227 . S
N42 Co39 2.121 . S
N42 C44 1.375 . S
N42 C45 1.313 . S
C43 C44 1.338 . S
C43 N46 1.377 . S
C43 H63 0.930 . S
C44 N42 1.375 . S
C44 C43 1.338 . S
C44 H48 0.931 . S
C45 N42 1.313 . S
C45 N46 1.344 . S
C45 H49 0.930 . S
N46 C43 1.377 . S
N46 C45 1.344 . S
O47 Co39 2.055 . S
O47 C51 1.253 . S
H48 C44 0.931 . S
H49 C45 0.930 . S
O50 Co39 2.039 . S
O50 C40 1.265 . S
C51 O47 1.253 . S
C51 O52 1.227 . S
O52 C51 1.227 . S
N53 Co39 2.140 . S
N53 C56 1.346 . S
N53 C57 1.345 . S
C54 C55 1.387 . S
C54 C58 1.391 . S
C55 C54 1.387 . S
C55 C56 1.369 . S
C55 H64 0.929 . S
C56 N53 1.346 . S
C56 C55 1.369 . S
C56 H59 0.928 . S
C57 N53 1.345 . S
C57 C58 1.371 . S
C57 H60 0.931 . S
C58 C54 1.391 . S
C58 C57 1.371 . S
C58 H65 0.930 . S
H59 C56 0.928 . S
H60 C57 0.931 . S
H61 C37 0.930 . S
H62 C34 0.930 . S
H63 C43 0.930 . S
H64 C55 0.929 . S
H65 C58 0.930 . S
C66 C67 1.351 . S
C66 N69 1.368 . S
C66 H71 0.931 . S
C67 C66 1.351 . S
C67 N68 1.373 . S
C67 H95 0.930 . S
N68 C67 1.373 . S
N68 C70 1.340 . S
N69 C66 1.368 . S
N69 C70 1.321 . S
N69 Co72 2.135 . S
C70 N68 1.340 . S
C70 N69 1.321 . S
C70 H94 0.930 . S
H71 C66 0.931 . S
Co72 N69 2.135 . S
Co72 N75 2.121 . S
Co72 O80 2.055 . S
Co72 O83 2.039 . S
Co72 N86 2.140 . S
C73 O74 1.227 . S
C73 O83 1.265 . S
O74 C73 1.227 . S
N75 Co72 2.121 . S
N75 C77 1.375 . S
N75 C78 1.313 . S
C76 C77 1.338 . S
C76 N79 1.377 . S
C76 H96 0.930 . S
C77 N75 1.375 . S
C77 C76 1.338 . S
C77 H81 0.931 . S
C78 N75 1.313 . S
C78 N79 1.344 . S
C78 H82 0.930 . S
N79 C76 1.377 . S
N79 C78 1.344 . S
O80 Co72 2.055 . S
O80 C84 1.253 . S
H81 C77 0.931 . S
H82 C78 0.930 . S
O83 Co72 2.039 . S
O83 C73 1.265 . S
C84 O80 1.253 . S
C84 O85 1.227 . S
O85 C84 1.227 . S
N86 Co72 2.140 . S
N86 C89 1.346 . S
N86 C90 1.345 . S
C87 C88 1.387 . S
C87 C91 1.391 . S
C88 C87 1.387 . S
C88 C89 1.369 . S
C88 H97 0.929 . S
C89 N86 1.346 . S
C89 C88 1.369 . S
C89 H92 0.928 . S
C90 N86 1.345 . S
C90 C91 1.371 . S
C90 H93 0.931 . S
C91 C87 1.391 . S
C91 C90 1.371 . S
C91 H98 0.930 . S
H92 C89 0.928 . S
H93 C90 0.931 . S
H94 C70 0.930 . S
H95 C67 0.930 . S
H96 C76 0.930 . S
H97 C88 0.929 . S
H98 C91 0.930 . S
C99 C100 1.351 . S
C99 N102 1.368 . S
C99 H104 0.931 . S
C100 C99 1.351 . S
C100 N101 1.373 . S
C100 H128 0.930 . S
N101 C100 1.373 . S
N101 C103 1.340 . S
N102 C99 1.368 . S
N102 C103 1.321 . S
N102 Co105 2.135 . S
C103 N101 1.340 . S
C103 N102 1.321 . S
C103 H127 0.930 . S
H104 C99 0.931 . S
Co105 N102 2.135 . S
Co105 N108 2.121 . S
Co105 O113 2.055 . S
Co105 O116 2.039 . S
Co105 N119 2.140 . S
C106 O107 1.227 1_655 S
C106 O116 1.265 . S
O107 C106 1.227 1_455 S
N108 Co105 2.121 . S
N108 C110 1.375 . S
N108 C111 1.313 . S
C109 C110 1.338 . S
C109 N112 1.377 . S
C109 H129 0.930 . S
C110 N108 1.375 . S
C110 C109 1.338 . S
C110 H114 0.931 . S
C111 N108 1.313 . S
C111 N112 1.344 . S
C111 H115 0.930 . S
N112 C109 1.377 . S
N112 C111 1.344 . S
O113 Co105 2.055 . S
O113 C117 1.253 . S
H114 C110 0.931 . S
H115 C111 0.930 . S
O116 Co105 2.039 . S
O116 C106 1.265 . S
C117 O113 1.253 . S
C117 O118 1.227 . S
O118 C117 1.227 . S
N119 Co105 2.140 . S
N119 C122 1.346 1_655 S
N119 C123 1.345 . S
C120 C121 1.387 . S
C120 C124 1.391 . S
C121 C120 1.387 . S
C121 C122 1.369 . S
C121 H130 0.929 . S
C122 N119 1.346 1_455 S
C122 C121 1.369 . S
C122 H125 0.928 . S
C123 N119 1.345 . S
C123 C124 1.371 1_655 S
C123 H126 0.931 . S
C124 C120 1.391 . S
C124 C123 1.371 1_455 S
C124 H131 0.930 . S
H125 C122 0.928 . S
H126 C123 0.931 . S
H127 C103 0.930 . S
H128 C100 0.930 . S
H129 C109 0.930 . S
H130 C121 0.929 . S
H131 C124 0.930 . S
C132 C133 1.351 . S
C132 N135 1.368 . S
C132 H137 0.931 . S
C133 C132 1.351 . S
C133 N134 1.373 . S
C133 H161 0.930 . S
N134 C133 1.373 . S
N134 C136 1.340 . S
N135 C132 1.368 . S
N135 C136 1.321 . S
N135 Co138 2.135 . S
C136 N134 1.340 . S
C136 N135 1.321 . S
C136 H160 0.930 . S
H137 C132 0.931 . S
Co138 N135 2.135 . S
Co138 N141 2.121 . S
Co138 O146 2.055 . S
Co138 O149 2.039 . S
Co138 N152 2.140 . S
C139 O140 1.227 1_655 S
C139 O149 1.265 . S
O140 C139 1.227 1_455 S
N141 Co138 2.121 . S
N141 C143 1.375 . S
N141 C144 1.313 . S
C142 C143 1.338 . S
C142 N145 1.377 . S
C142 H162 0.930 . S
C143 N141 1.375 . S
C143 C142 1.338 . S
C143 H147 0.931 . S
C144 N141 1.313 . S
C144 N145 1.344 . S
C144 H148 0.930 . S
N145 C142 1.377 . S
N145 C144 1.344 . S
O146 Co138 2.055 . S
O146 C150 1.253 . S
H147 C143 0.931 . S
H148 C144 0.930 . S
O149 Co138 2.039 . S
O149 C139 1.265 . S
C150 O146 1.253 . S
C150 O151 1.227 . S
O151 C150 1.227 . S
N152 Co138 2.140 . S
N152 C155 1.346 1_655 S
N152 C156 1.345 . S
C153 C154 1.387 . S
C153 C157 1.391 . S
C154 C153 1.387 . S
C154 C155 1.369 . S
C154 H163 0.929 . S
C155 N152 1.346 1_455 S
C155 C154 1.369 . S
C155 H158 0.928 . S
C156 N152 1.345 . S
C156 C157 1.371 1_655 S
C156 H159 0.931 . S
C157 C153 1.391 . S
C157 C156 1.371 1_455 S
C157 H164 0.930 . S
H158 C155 0.928 . S
H159 C156 0.931 . S
H160 C136 0.930 . S
H161 C133 0.930 . S
H162 C142 0.930 . S
H163 C154 0.929 . S
H164 C157 0.930 . S
C165 C166 1.351 . S
C165 N168 1.368 . S
C165 H170 0.931 . S
C166 C165 1.351 . S
C166 N167 1.373 . S
C166 H194 0.930 . S
N167 C166 1.373 . S
N167 C169 1.340 . S
N168 C165 1.368 . S
N168 C169 1.321 . S
N168 Co171 2.135 . S
C169 N167 1.340 . S
C169 N168 1.321 . S
C169 H193 0.930 . S
H170 C165 0.931 . S
Co171 N168 2.135 . S
Co171 N174 2.121 . S
Co171 O179 2.055 . S
Co171 O182 2.039 . S
Co171 N185 2.140 . S
C172 O173 1.227 . S
C172 O182 1.265 . S
O173 C172 1.227 . S
N174 Co171 2.121 . S
N174 C176 1.375 . S
N174 C177 1.313 . S
C175 C176 1.338 . S
C175 N178 1.377 . S
C175 H195 0.930 . S
C176 N174 1.375 . S
C176 C175 1.338 . S
C176 H180 0.931 . S
C177 N174 1.313 . S
C177 N178 1.344 . S
C177 H181 0.930 . S
N178 C175 1.377 . S
N178 C177 1.344 . S
O179 Co171 2.055 . S
O179 C183 1.253 . S
H180 C176 0.931 . S
H181 C177 0.930 . S
O182 Co171 2.039 . S
O182 C172 1.265 . S
C183 O179 1.253 . S
C183 O184 1.227 . S
O184 C183 1.227 . S
N185 Co171 2.140 . S
N185 C188 1.346 . S
N185 C189 1.345 . S
C186 C187 1.387 . S
C186 C190 1.391 . S
C187 C186 1.387 . S
C187 C188 1.369 . S
C187 H196 0.929 . S
C188 N185 1.346 . S
C188 C187 1.369 . S
C188 H191 0.928 . S
C189 N185 1.345 . S
C189 C190 1.371 . S
C189 H192 0.931 . S
C190 C186 1.391 . S
C190 C189 1.371 . S
C190 H197 0.930 . S
H191 C188 0.928 . S
H192 C189 0.931 . S
H193 C169 0.930 . S
H194 C166 0.930 . S
H195 C175 0.930 . S
H196 C187 0.929 . S
H197 C190 0.930 . S
C198 C199 1.351 . S
C198 N201 1.368 . S
C198 H203 0.931 . S
C199 C198 1.351 . S
C199 N200 1.373 . S
C199 H227 0.930 . S
N200 C199 1.373 . S
N200 C202 1.340 . S
N201 C198 1.368 . S
N201 C202 1.321 . S
N201 Co204 2.135 . S
C202 N200 1.340 . S
C202 N201 1.321 . S
C202 H226 0.930 . S
H203 C198 0.931 . S
Co204 N201 2.135 . S
Co204 N207 2.121 . S
Co204 O212 2.055 . S
Co204 O215 2.039 . S
Co204 N218 2.140 . S
C205 O206 1.227 . S
C205 O215 1.265 . S
O206 C205 1.227 . S
N207 Co204 2.121 . S
N207 C209 1.375 . S
N207 C210 1.313 . S
C208 C209 1.338 . S
C208 N211 1.377 . S
C208 H228 0.930 . S
C209 N207 1.375 . S
C209 C208 1.338 . S
C209 H213 0.931 . S
C210 N207 1.313 . S
C210 N211 1.344 . S
C210 H214 0.930 . S
N211 C208 1.377 . S
N211 C210 1.344 . S
O212 Co204 2.055 . S
O212 C216 1.253 . S
H213 C209 0.931 . S
H214 C210 0.930 . S
O215 Co204 2.039 . S
O215 C205 1.265 . S
C216 O212 1.253 . S
C216 O217 1.227 . S
O217 C216 1.227 . S
N218 Co204 2.140 . S
N218 C221 1.346 . S
N218 C222 1.345 . S
C219 C220 1.387 . S
C219 C223 1.391 . S
C220 C219 1.387 . S
C220 C221 1.369 . S
C220 H229 0.929 . S
C221 N218 1.346 . S
C221 C220 1.369 . S
C221 H224 0.928 . S
C222 N218 1.345 . S
C222 C223 1.371 . S
C222 H225 0.931 . S
C223 C219 1.391 . S
C223 C222 1.371 . S
C223 H230 0.930 . S
H224 C221 0.928 . S
H225 C222 0.931 . S
H226 C202 0.930 . S
H227 C199 0.930 . S
H228 C208 0.930 . S
H229 C220 0.929 . S
H230 C223 0.930 . S
C231 C232 1.351 . S
C231 N234 1.368 . S
C231 H236 0.931 . S
C232 C231 1.351 . S
C232 N233 1.373 . S
C232 H260 0.930 . S
N233 C232 1.373 . S
N233 C235 1.340 . S
N234 C231 1.368 . S
N234 C235 1.321 . S
N234 Co237 2.135 . S
C235 N233 1.340 . S
C235 N234 1.321 . S
C235 H259 0.930 . S
H236 C231 0.931 . S
Co237 N234 2.135 . S
Co237 N240 2.121 . S
Co237 O245 2.055 . S
Co237 O248 2.039 . S
Co237 N251 2.140 . S
C238 O239 1.227 1_455 S
C238 O248 1.265 . S
O239 C238 1.227 1_655 S
N240 Co237 2.121 . S
N240 C242 1.375 . S
N240 C243 1.313 . S
C241 C242 1.338 . S
C241 N244 1.377 . S
C241 H261 0.930 . S
C242 N240 1.375 . S
C242 C241 1.338 . S
C242 H246 0.931 . S
C243 N240 1.313 . S
C243 N244 1.344 . S
C243 H247 0.930 . S
N244 C241 1.377 . S
N244 C243 1.344 . S
O245 Co237 2.055 . S
O245 C249 1.253 . S
H246 C242 0.931 . S
H247 C243 0.930 . S
O248 Co237 2.039 . S
O248 C238 1.265 . S
C249 O245 1.253 . S
C249 O250 1.227 . S
O250 C249 1.227 . S
N251 Co237 2.140 . S
N251 C254 1.346 1_455 S
N251 C255 1.345 . S
C252 C253 1.387 . S
C252 C256 1.391 . S
C253 C252 1.387 . S
C253 C254 1.369 . S
C253 H262 0.929 . S
C254 N251 1.346 1_655 S
C254 C253 1.369 . S
C254 H257 0.928 . S
C255 N251 1.345 . S
C255 C256 1.371 1_455 S
C255 H258 0.931 . S
C256 C252 1.391 . S
C256 C255 1.371 1_655 S
C256 H263 0.930 . S
H257 C254 0.928 . S
H258 C255 0.931 . S
H259 C235 0.930 . S
H260 C232 0.930 . S
H261 C241 0.930 . S
H262 C253 0.929 . S
H263 C256 0.930 . S
C264 C265 1.351 . S
C264 N267 1.368 . S
C264 H269 0.931 . S
C265 C264 1.351 . S
C265 N266 1.373 . S
C265 H293 0.930 . S
N266 C265 1.373 . S
N266 C268 1.340 . S
N267 C264 1.368 . S
N267 C268 1.321 . S
N267 Co270 2.135 . S
C268 N266 1.340 . S
C268 N267 1.321 . S
C268 H292 0.930 . S
H269 C264 0.931 . S
Co270 N267 2.135 . S
Co270 N273 2.121 . S
Co270 O278 2.055 . S
Co270 O281 2.039 . S
Co270 N284 2.140 . S
C271 O272 1.227 . S
C271 O281 1.265 . S
O272 C271 1.227 . S
N273 Co270 2.121 . S
N273 C275 1.375 . S
N273 C276 1.313 . S
C274 C275 1.338 . S
C274 N277 1.377 . S
C274 H294 0.930 . S
C275 N273 1.375 . S
C275 C274 1.338 . S
C275 H279 0.931 . S
C276 N273 1.313 . S
C276 N277 1.344 . S
C276 H280 0.930 . S
N277 C274 1.377 . S
N277 C276 1.344 . S
O278 Co270 2.055 . S
O278 C282 1.253 . S
H279 C275 0.931 . S
H280 C276 0.930 . S
O281 Co270 2.039 . S
O281 C271 1.265 . S
C282 O278 1.253 . S
C282 O283 1.227 . S
O283 C282 1.227 . S
N284 Co270 2.140 . S
N284 C287 1.346 . S
N284 C288 1.345 . S
C285 C286 1.387 . S
C285 C289 1.391 . S
C286 C285 1.387 . S
C286 C287 1.369 . S
C286 H295 0.929 . S
C287 N284 1.346 . S
C287 C286 1.369 . S
C287 H290 0.928 . S
C288 N284 1.345 . S
C288 C289 1.371 . S
C288 H291 0.931 . S
C289 C285 1.391 . S
C289 C288 1.371 . S
C289 H296 0.930 . S
H290 C287 0.928 . S
H291 C288 0.931 . S
H292 C268 0.930 . S
H293 C265 0.930 . S
H294 C274 0.930 . S
H295 C286 0.929 . S
H296 C289 0.930 . S
C297 C298 1.351 . S
C297 N300 1.368 . S
C297 H302 0.931 . S
C298 C297 1.351 . S
C298 N299 1.373 . S
C298 H326 0.930 . S
N299 C298 1.373 . S
N299 C301 1.340 . S
N300 C297 1.368 . S
N300 C301 1.321 . S
N300 Co303 2.135 . S
C301 N299 1.340 . S
C301 N300 1.321 . S
C301 H325 0.930 . S
H302 C297 0.931 . S
Co303 N300 2.135 . S
Co303 N306 2.121 . S
Co303 O311 2.055 . S
Co303 O314 2.039 . S
Co303 N317 2.140 . S
C304 O305 1.227 1_655 S
C304 O314 1.265 . S
O305 C304 1.227 1_455 S
N306 Co303 2.121 . S
N306 C308 1.375 . S
N306 C309 1.313 . S
C307 C308 1.338 . S
C307 N310 1.377 . S
C307 H327 0.930 . S
C308 N306 1.375 . S
C308 C307 1.338 . S
C308 H312 0.931 . S
C309 N306 1.313 . S
C309 N310 1.344 . S
C309 H313 0.930 . S
N310 C307 1.377 . S
N310 C309 1.344 . S
O311 Co303 2.055 . S
O311 C315 1.253 . S
H312 C308 0.931 . S
H313 C309 0.930 . S
O314 Co303 2.039 . S
O314 C304 1.265 . S
C315 O311 1.253 . S
C315 O316 1.227 . S
O316 C315 1.227 . S
N317 Co303 2.140 . S
N317 C320 1.346 1_655 S
N317 C321 1.345 . S
C318 C319 1.387 . S
C318 C322 1.391 . S
C319 C318 1.387 . S
C319 C320 1.369 . S
C319 H328 0.929 . S
C320 N317 1.346 1_455 S
C320 C319 1.369 . S
C320 H323 0.928 . S
C321 N317 1.345 . S
C321 C322 1.371 1_655 S
C321 H324 0.931 . S
C322 C318 1.391 . S
C322 C321 1.371 1_455 S
C322 H329 0.930 . S
H323 C320 0.928 . S
H324 C321 0.931 . S
H325 C301 0.930 . S
H326 C298 0.930 . S
H327 C307 0.930 . S
H328 C319 0.929 . S
H329 C322 0.930 . S
C330 C331 1.351 . S
C330 N333 1.368 . S
C330 H335 0.931 . S
C331 C330 1.351 . S
C331 N332 1.373 . S
C331 H359 0.930 . S
N332 C331 1.373 . S
N332 C334 1.340 . S
N333 C330 1.368 . S
N333 C334 1.321 . S
N333 Co336 2.135 . S
C334 N332 1.340 . S
C334 N333 1.321 . S
C334 H358 0.930 . S
H335 C330 0.931 . S
Co336 N333 2.135 . S
Co336 N339 2.121 . S
Co336 O344 2.055 . S
Co336 O347 2.039 . S
Co336 N350 2.140 . S
C337 O338 1.227 1_455 S
C337 O347 1.265 . S
O338 C337 1.227 1_655 S
N339 Co336 2.121 . S
N339 C341 1.375 . S
N339 C342 1.313 . S
C340 C341 1.338 . S
C340 N343 1.377 . S
C340 H360 0.930 . S
C341 N339 1.375 . S
C341 C340 1.338 . S
C341 H345 0.931 . S
C342 N339 1.313 . S
C342 N343 1.344 . S
C342 H346 0.930 . S
N343 C340 1.377 . S
N343 C342 1.344 . S
O344 Co336 2.055 . S
O344 C348 1.253 . S
H345 C341 0.931 . S
H346 C342 0.930 . S
O347 Co336 2.039 . S
O347 C337 1.265 . S
C348 O344 1.253 . S
C348 O349 1.227 . S
O349 C348 1.227 . S
N350 Co336 2.140 . S
N350 C353 1.346 1_455 S
N350 C354 1.345 . S
C351 C352 1.387 . S
C351 C355 1.391 . S
C352 C351 1.387 . S
C352 C353 1.369 . S
C352 H361 0.929 . S
C353 N350 1.346 1_655 S
C353 C352 1.369 . S
C353 H356 0.928 . S
C354 N350 1.345 . S
C354 C355 1.371 1_455 S
C354 H357 0.931 . S
C355 C351 1.391 . S
C355 C354 1.371 1_655 S
C355 H362 0.930 . S
H356 C353 0.928 . S
H357 C354 0.931 . S
H358 C334 0.930 . S
H359 C331 0.930 . S
H360 C340 0.930 . S
H361 C352 0.929 . S
H362 C355 0.930 . S
C363 C364 1.351 . S
C363 N366 1.368 . S
C363 H368 0.931 . S
C364 C363 1.351 . S
C364 N365 1.373 . S
C364 H392 0.930 . S
N365 C364 1.373 . S
N365 C367 1.340 . S
N366 C363 1.368 . S
N366 C367 1.321 . S
N366 Co369 2.135 . S
C367 N365 1.340 . S
C367 N366 1.321 . S
C367 H391 0.930 . S
H368 C363 0.931 . S
Co369 N366 2.135 . S
Co369 N372 2.121 . S
Co369 O377 2.055 . S
Co369 O380 2.039 . S
Co369 N383 2.140 . S
C370 O371 1.227 . S
C370 O380 1.265 . S
O371 C370 1.227 . S
N372 Co369 2.121 . S
N372 C374 1.375 . S
N372 C375 1.313 . S
C373 C374 1.338 . S
C373 N376 1.377 . S
C373 H393 0.930 . S
C374 N372 1.375 . S
C374 C373 1.338 . S
C374 H378 0.931 . S
C375 N372 1.313 . S
C375 N376 1.344 . S
C375 H379 0.930 . S
N376 C373 1.377 . S
N376 C375 1.344 . S
O377 Co369 2.055 . S
O377 C381 1.253 . S
H378 C374 0.931 . S
H379 C375 0.930 . S
O380 Co369 2.039 . S
O380 C370 1.265 . S
C381 O377 1.253 . S
C381 O382 1.227 . S
O382 C381 1.227 . S
N383 Co369 2.140 . S
N383 C386 1.346 . S
N383 C387 1.345 . S
C384 C385 1.387 . S
C384 C388 1.391 . S
C385 C384 1.387 . S
C385 C386 1.369 . S
C385 H394 0.929 . S
C386 N383 1.346 . S
C386 C385 1.369 . S
C386 H389 0.928 . S
C387 N383 1.345 . S
C387 C388 1.371 . S
C387 H390 0.931 . S
C388 C384 1.391 . S
C388 C387 1.371 . S
C388 H395 0.930 . S
H389 C386 0.928 . S
H390 C387 0.931 . S
H391 C367 0.930 . S
H392 C364 0.930 . S
H393 C373 0.930 . S
H394 C385 0.929 . S
H395 C388 0.930 . S
C396 C397 1.351 . S
C396 N399 1.368 . S
C396 H401 0.931 . S
C397 C396 1.351 . S
C397 N398 1.373 . S
C397 H425 0.930 . S
N398 C397 1.373 . S
N398 C400 1.340 . S
N399 C396 1.368 . S
N399 C400 1.321 . S
N399 Co402 2.135 . S
C400 N398 1.340 . S
C400 N399 1.321 . S
C400 H424 0.930 . S
H401 C396 0.931 . S
Co402 N399 2.135 . S
Co402 N405 2.121 . S
Co402 O410 2.055 . S
Co402 O413 2.039 . S
Co402 N416 2.140 . S
C403 O404 1.227 . S
C403 O413 1.265 . S
O404 C403 1.227 . S
N405 Co402 2.121 . S
N405 C407 1.375 . S
N405 C408 1.313 . S
C406 C407 1.338 . S
C406 N409 1.377 . S
C406 H426 0.930 . S
C407 N405 1.375 . S
C407 C406 1.338 . S
C407 H411 0.931 . S
C408 N405 1.313 . S
C408 N409 1.344 . S
C408 H412 0.930 . S
N409 C406 1.377 . S
N409 C408 1.344 . S
O410 Co402 2.055 . S
O410 C414 1.253 . S
H411 C407 0.931 . S
H412 C408 0.930 . S
O413 Co402 2.039 . S
O413 C403 1.265 . S
C414 O410 1.253 . S
C414 O415 1.227 . S
O415 C414 1.227 . S
N416 Co402 2.140 . S
N416 C419 1.346 . S
N416 C420 1.345 . S
C417 C418 1.387 . S
C417 C421 1.391 . S
C418 C417 1.387 . S
C418 C419 1.369 . S
C418 H427 0.929 . S
C419 N416 1.346 . S
C419 C418 1.369 . S
C419 H422 0.928 . S
C420 N416 1.345 . S
C420 C421 1.371 . S
C420 H423 0.931 . S
C421 C417 1.391 . S
C421 C420 1.371 . S
C421 H428 0.930 . S
H422 C419 0.928 . S
H423 C420 0.931 . S
H424 C400 0.930 . S
H425 C397 0.930 . S
H426 C406 0.930 . S
H427 C418 0.929 . S
H428 C421 0.930 . S
C429 C430 1.351 . S
C429 N432 1.368 . S
C429 H434 0.931 . S
C430 C429 1.351 . S
C430 N431 1.373 . S
C430 H458 0.930 . S
N431 C430 1.373 . S
N431 C433 1.340 . S
N432 C429 1.368 . S
N432 C433 1.321 . S
N432 Co435 2.135 . S
C433 N431 1.340 . S
C433 N432 1.321 . S
C433 H457 0.930 . S
H434 C429 0.931 . S
Co435 N432 2.135 . S
Co435 N438 2.121 . S
Co435 O443 2.055 . S
Co435 O446 2.039 . S
Co435 N449 2.140 . S
C436 O437 1.227 1_455 S
C436 O446 1.265 . S
O437 C436 1.227 1_655 S
N438 Co435 2.121 . S
N438 C440 1.375 . S
N438 C441 1.313 . S
C439 C440 1.338 . S
C439 N442 1.377 . S
C439 H459 0.930 . S
C440 N438 1.375 . S
C440 C439 1.338 . S
C440 H444 0.931 . S
C441 N438 1.313 . S
C441 N442 1.344 . S
C441 H445 0.930 . S
N442 C439 1.377 . S
N442 C441 1.344 . S
O443 Co435 2.055 . S
O443 C447 1.253 . S
H444 C440 0.931 . S
H445 C441 0.930 . S
O446 Co435 2.039 . S
O446 C436 1.265 . S
C447 O443 1.253 . S
C447 O448 1.227 . S
O448 C447 1.227 . S
N449 Co435 2.140 . S
N449 C452 1.346 1_455 S
N449 C453 1.345 . S
C450 C451 1.387 . S
C450 C454 1.391 . S
C451 C450 1.387 . S
C451 C452 1.369 . S
C451 H460 0.929 . S
C452 N449 1.346 1_655 S
C452 C451 1.369 . S
C452 H455 0.928 . S
C453 N449 1.345 . S
C453 C454 1.371 1_455 S
C453 H456 0.931 . S
C454 C450 1.391 . S
C454 C453 1.371 1_655 S
C454 H461 0.930 . S
H455 C452 0.928 . S
H456 C453 0.931 . S
H457 C433 0.930 . S
H458 C430 0.930 . S
H459 C439 0.930 . S
H460 C451 0.929 . S
H461 C454 0.930 . S
C462 C463 1.351 . S
C462 N465 1.368 . S
C462 H467 0.931 . S
C463 C462 1.351 . S
C463 N464 1.373 . S
C463 H491 0.930 . S
N464 C463 1.373 . S
N464 C466 1.340 . S
N465 C462 1.368 . S
N465 C466 1.321 . S
N465 Co468 2.135 . S
C466 N464 1.340 . S
C466 N465 1.321 . S
C466 H490 0.930 . S
H467 C462 0.931 . S
Co468 N465 2.135 . S
Co468 N471 2.121 . S
Co468 O476 2.055 . S
Co468 O479 2.039 . S
Co468 N482 2.140 . S
C469 O470 1.227 1_655 S
C469 O479 1.265 . S
O470 C469 1.227 1_455 S
N471 Co468 2.121 . S
N471 C473 1.375 . S
N471 C474 1.313 . S
C472 C473 1.338 . S
C472 N475 1.377 . S
C472 H492 0.930 . S
C473 N471 1.375 . S
C473 C472 1.338 . S
C473 H477 0.931 . S
C474 N471 1.313 . S
C474 N475 1.344 . S
C474 H478 0.930 . S
N475 C472 1.377 . S
N475 C474 1.344 . S
O476 Co468 2.055 . S
O476 C480 1.253 . S
H477 C473 0.931 . S
H478 C474 0.930 . S
O479 Co468 2.039 . S
O479 C469 1.265 . S
C480 O476 1.253 . S
C480 O481 1.227 . S
O481 C480 1.227 . S
N482 Co468 2.140 . S
N482 C485 1.346 1_655 S
N482 C486 1.345 . S
C483 C484 1.387 . S
C483 C487 1.391 . S
C484 C483 1.387 . S
C484 C485 1.369 . S
C484 H493 0.929 . S
C485 N482 1.346 1_455 S
C485 C484 1.369 . S
C485 H488 0.928 . S
C486 N482 1.345 . S
C486 C487 1.371 1_655 S
C486 H489 0.931 . S
C487 C483 1.391 . S
C487 C486 1.371 1_455 S
C487 H494 0.930 . S
H488 C485 0.928 . S
H489 C486 0.931 . S
H490 C466 0.930 . S
H491 C463 0.930 . S
H492 C472 0.930 . S
H493 C484 0.929 . S
H494 C487 0.930 . S
C495 C496 1.351 . S
C495 N498 1.368 . S
C495 H500 0.931 . S
C496 C495 1.351 . S
C496 N497 1.373 . S
C496 H524 0.930 . S
N497 C496 1.373 . S
N497 C499 1.340 . S
N498 C495 1.368 . S
N498 C499 1.321 . S
N498 Co501 2.135 . S
C499 N497 1.340 . S
C499 N498 1.321 . S
C499 H523 0.930 . S
H500 C495 0.931 . S
Co501 N498 2.135 . S
Co501 N504 2.121 . S
Co501 O509 2.055 . S
Co501 O512 2.039 . S
Co501 N515 2.140 . S
C502 O503 1.227 . S
C502 O512 1.265 . S
O503 C502 1.227 . S
N504 Co501 2.121 . S
N504 C506 1.375 . S
N504 C507 1.313 . S
C505 C506 1.338 . S
C505 N508 1.377 . S
C505 H525 0.930 . S
C506 N504 1.375 . S
C506 C505 1.338 . S
C506 H510 0.931 . S
C507 N504 1.313 . S
C507 N508 1.344 . S
C507 H511 0.930 . S
N508 C505 1.377 . S
N508 C507 1.344 . S
O509 Co501 2.055 . S
O509 C513 1.253 . S
H510 C506 0.931 . S
H511 C507 0.930 . S
O512 Co501 2.039 . S
O512 C502 1.265 . S
C513 O509 1.253 . S
C513 O514 1.227 . S
O514 C513 1.227 . S
N515 Co501 2.140 . S
N515 C518 1.346 . S
N515 C519 1.345 . S
C516 C517 1.387 . S
C516 C520 1.391 . S
C517 C516 1.387 . S
C517 C518 1.369 . S
C517 H526 0.929 . S
C518 N515 1.346 . S
C518 C517 1.369 . S
C518 H521 0.928 . S
C519 N515 1.345 . S
C519 C520 1.371 . S
C519 H522 0.931 . S
C520 C516 1.391 . S
C520 C519 1.371 . S
C520 H527 0.930 . S
H521 C518 0.928 . S
H522 C519 0.931 . S
H523 C499 0.930 . S
H524 C496 0.930 . S
H525 C505 0.930 . S
H526 C517 0.929 . S
H527 C520 0.930 . S
C528 C529 1.363 . S
C528 C534 1.379 1_556 S
C528 N536 1.356 . S
C529 C528 1.363 . S
C529 C535 1.363 1_556 S
C530 C531 1.363 . S
C530 C535 1.379 . S
C530 N537 1.356 . S
C531 C530 1.363 . S
C531 C534 1.363 . S
N532 C534 1.356 . S
N532 H544 0.984 1_554 S
N532 H545 0.985 . S
N533 C535 1.356 . S
N533 H538 0.984 1_554 S
N533 H539 0.985 . S
C534 C528 1.379 1_554 S
C534 C531 1.363 . S
C534 N532 1.356 . S
C535 C529 1.363 1_554 S
C535 C530 1.379 . S
C535 N533 1.356 . S
N536 C528 1.356 . S
N536 H542 0.984 . S
N536 H543 0.984 . S
N537 C530 1.356 . S
N537 H540 0.984 . S
N537 H541 0.985 . S
H538 N533 0.984 1_556 S
H539 N533 0.985 . S
H540 N537 0.984 . S
H541 N537 0.985 . S
H542 N536 0.984 . S
H543 N536 0.984 . S
H544 N532 0.984 1_556 S
H545 N532 0.985 . S
C546 C547 1.363 . S
C546 C552 1.379 1_556 S
C546 N554 1.356 . S
C547 C546 1.363 . S
C547 C553 1.363 1_556 S
C548 C549 1.363 . S
C548 C553 1.379 . S
C548 N555 1.356 . S
C549 C548 1.363 . S
C549 C552 1.363 . S
N550 C552 1.356 . S
N550 H562 0.984 . S
N550 H563 0.985 . S
N551 C553 1.356 1_556 S
N551 H556 0.984 . S
N551 H557 0.985 1_556 S
C552 C546 1.379 1_554 S
C552 C549 1.363 . S
C552 N550 1.356 . S
C553 C547 1.363 1_554 S
C553 C548 1.379 . S
C553 N551 1.356 1_554 S
N554 C546 1.356 . S
N554 H560 0.984 . S
N554 H561 0.984 . S
N555 C548 1.356 . S
N555 H558 0.984 . S
N555 H559 0.985 . S
H556 N551 0.984 . S
H557 N551 0.985 1_554 S
H558 N555 0.984 . S
H559 N555 0.985 . S
H560 N554 0.984 . S
H561 N554 0.984 . S
H562 N550 0.984 . S
H563 N550 0.985 . S
C564 C565 1.363 . S
C564 C570 1.379 . S
C564 N572 1.356 . S
C565 C564 1.363 . S
C565 C571 1.363 . S
C566 C567 1.363 . S
C566 C571 1.379 . S
C566 N573 1.356 . S
C567 C566 1.363 . S
C567 C570 1.363 . S
N568 C570 1.356 . S
N568 H580 0.984 . S
N568 H581 0.985 . S
N569 C571 1.356 . S
N569 H574 0.984 . S
N569 H575 0.985 . S
C570 C564 1.379 . S
C570 C567 1.363 . S
C570 N568 1.356 . S
C571 C565 1.363 . S
C571 C566 1.379 . S
C571 N569 1.356 . S
N572 C564 1.356 . S
N572 H578 0.984 . S
N572 H579 0.984 . S
N573 C566 1.356 . S
N573 H576 0.984 . S
N573 H577 0.985 . S
H574 N569 0.984 . S
H575 N569 0.985 . S
H576 N573 0.984 . S
H577 N573 0.985 . S
H578 N572 0.984 . S
H579 N572 0.984 . S
H580 N568 0.984 . S
H581 N568 0.985 . S
C582 C583 1.363 . S
C582 C588 1.379 . S
C582 N590 1.356 . S
C583 C582 1.363 . S
C583 C589 1.363 . S
C584 C585 1.363 . S
C584 C589 1.379 . S
C584 N591 1.356 . S
C585 C584 1.363 . S
C585 C588 1.363 . S
N586 C588 1.356 . S
N586 H598 0.984 . S
N586 H599 0.985 . S
N587 C589 1.356 . S
N587 H592 0.984 . S
N587 H593 0.985 . S
C588 C582 1.379 . S
C588 C585 1.363 . S
C588 N586 1.356 . S
C589 C583 1.363 . S
C589 C584 1.379 . S
C589 N587 1.356 . S
N590 C582 1.356 . S
N590 H596 0.984 . S
N590 H597 0.984 . S
N591 C584 1.356 . S
N591 H594 0.984 . S
N591 H595 0.985 . S
H592 N587 0.984 . S
H593 N587 0.985 . S
H594 N591 0.984 . S
H595 N591 0.985 . S
H596 N590 0.984 . S
H597 N590 0.984 . S
H598 N586 0.984 . S
H599 N586 0.985 . S
C600 C601 1.363 . S
C600 C606 1.379 . S
C600 N608 1.356 . S
C601 C600 1.363 . S
C601 C607 1.363 . S
C602 C603 1.363 . S
C602 C607 1.379 1_554 S
C602 N609 1.356 . S
C603 C602 1.363 . S
C603 C606 1.363 1_554 S
N604 C606 1.356 1_554 S
N604 H616 0.984 1_554 S
N604 H617 0.985 . S
N605 C607 1.356 . S
N605 H610 0.984 . S
N605 H611 0.985 . S
C606 C600 1.379 . S
C606 C603 1.363 1_556 S
C606 N604 1.356 1_556 S
C607 C601 1.363 . S
C607 C602 1.379 1_556 S
C607 N605 1.356 . S
N608 C600 1.356 . S
N608 H614 0.984 . S
N608 H615 0.984 . S
N609 C602 1.356 . S
N609 H612 0.984 . S
N609 H613 0.985 . S
H610 N605 0.984 . S
H611 N605 0.985 . S
H612 N609 0.984 . S
H613 N609 0.985 . S
H614 N608 0.984 . S
H615 N608 0.984 . S
H616 N604 0.984 1_556 S
H617 N604 0.985 . S
C618 C619 1.363 . S
C618 C624 1.379 1_556 S
C618 N626 1.356 . S
C619 C618 1.363 . S
C619 C625 1.363 . S
C620 C621 1.363 1_556 S
C620 C625 1.379 . S
C620 N627 1.356 . S
C621 C620 1.363 1_554 S
C621 C624 1.363 . S
N622 C624 1.356 . S
N622 H634 0.984 . S
N622 H635 0.985 . S
N623 C625 1.356 . S
N623 H628 0.984 . S
N623 H629 0.985 . S
C624 C618 1.379 1_554 S
C624 C621 1.363 . S
C624 N622 1.356 . S
C625 C619 1.363 . S
C625 C620 1.379 . S
C625 N623 1.356 . S
N626 C618 1.356 . S
N626 H632 0.984 . S
N626 H633 0.984 . S
N627 C620 1.356 . S
N627 H630 0.984 1_556 S
N627 H631 0.985 . S
H628 N623 0.984 . S
H629 N623 0.985 . S
H630 N627 0.984 1_554 S
H631 N627 0.985 . S
H632 N626 0.984 . S
H633 N626 0.984 . S
H634 N622 0.984 . S
H635 N622 0.985 . S
C636 C637 1.363 . S
C636 C642 1.379 . S
C636 N644 1.356 . S
C637 C636 1.363 . S
C637 C643 1.363 . S
C638 C639 1.363 . S
C638 C643 1.379 . S
C638 N645 1.356 . S
C639 C638 1.363 . S
C639 C642 1.363 . S
N640 C642 1.356 . S
N640 H652 0.984 . S
N640 H653 0.985 . S
N641 C643 1.356 . S
N641 H646 0.984 . S
N641 H647 0.985 . S
C642 C636 1.379 . S
C642 C639 1.363 . S
C642 N640 1.356 . S
C643 C637 1.363 . S
C643 C638 1.379 . S
C643 N641 1.356 . S
N644 C636 1.356 . S
N644 H650 0.984 . S
N644 H651 0.984 . S
N645 C638 1.356 . S
N645 H648 0.984 . S
N645 H649 0.985 . S
H646 N641 0.984 . S
H647 N641 0.985 . S
H648 N645 0.984 . S
H649 N645 0.985 . S
H650 N644 0.984 . S
H651 N644 0.984 . S
H652 N640 0.984 . S
H653 N640 0.985 . S
C654 C655 1.363 . S
C654 C660 1.379 . S
C654 N662 1.356 . S
C655 C654 1.363 . S
C655 C661 1.363 . S
C656 C657 1.363 . S
C656 C661 1.379 . S
C656 N663 1.356 . S
C657 C656 1.363 . S
C657 C660 1.363 . S
N658 C660 1.356 . S
N658 H670 0.984 . S
N658 H671 0.985 . S
N659 C661 1.356 . S
N659 H664 0.984 . S
N659 H665 0.985 . S
C660 C654 1.379 . S
C660 C657 1.363 . S
C660 N658 1.356 . S
C661 C655 1.363 . S
C661 C656 1.379 . S
C661 N659 1.356 . S
N662 C654 1.356 . S
N662 H668 0.984 . S
N662 H669 0.984 . S
N663 C656 1.356 . S
N663 H666 0.984 . S
N663 H667 0.985 . S
H664 N659 0.984 . S
H665 N659 0.985 . S
H666 N663 0.984 . S
H667 N663 0.985 . S
H668 N662 0.984 . S
H669 N662 0.984 . S
H670 N658 0.984 . S
H671 N658 0.985 . S
C672 C673 1.363 . S
C672 C678 1.379 1_554 S
C672 N680 1.356 . S
C673 C672 1.363 . S
C673 C679 1.363 . S
C674 C675 1.363 1_554 S
C674 C679 1.379 . S
C674 N681 1.356 . S
C675 C674 1.363 1_556 S
C675 C678 1.363 . S
N676 C678 1.356 . S
N676 H688 0.984 . S
N676 H689 0.985 . S
N677 C679 1.356 . S
N677 H682 0.984 . S
N677 H683 0.985 . S
C678 C672 1.379 1_556 S
C678 C675 1.363 . S
C678 N676 1.356 . S
C679 C673 1.363 . S
C679 C674 1.379 . S
C679 N677 1.356 . S
N680 C672 1.356 . S
N680 H686 0.984 1_554 S
N680 H687 0.984 . S
N681 C674 1.356 . S
N681 H684 0.984 1_554 S
N681 H685 0.985 . S
H682 N677 0.984 . S
H683 N677 0.985 . S
H684 N681 0.984 1_556 S
H685 N681 0.985 . S
H686 N680 0.984 1_556 S
H687 N680 0.984 . S
H688 N676 0.984 . S
H689 N676 0.985 . S
C690 C691 1.363 . S
C690 C696 1.379 1_554 S
C690 N698 1.356 . S
C691 C690 1.363 . S
C691 C697 1.363 . S
C692 C693 1.363 1_554 S
C692 C697 1.379 . S
C692 N699 1.356 . S
C693 C692 1.363 1_556 S
C693 C696 1.363 . S
N694 C696 1.356 . S
N694 H706 0.984 . S
N694 H707 0.985 . S
N695 C697 1.356 . S
N695 H700 0.984 . S
N695 H701 0.985 . S
C696 C690 1.379 1_556 S
C696 C693 1.363 . S
C696 N694 1.356 . S
C697 C691 1.363 . S
C697 C692 1.379 . S
C697 N695 1.356 . S
N698 C690 1.356 . S
N698 H704 0.984 1_554 S
N698 H705 0.984 . S
N699 C692 1.356 . S
N699 H702 0.984 1_554 S
N699 H703 0.985 . S
H700 N695 0.984 . S
H701 N695 0.985 . S
H702 N699 0.984 1_556 S
H703 N699 0.985 . S
H704 N698 0.984 1_556 S
H705 N698 0.984 . S
H706 N694 0.984 . S
H707 N694 0.985 . S
C708 C709 1.363 . S
C708 C714 1.379 . S
C708 N716 1.356 . S
C709 C708 1.363 . S
C709 C715 1.363 . S
C710 C711 1.363 . S
C710 C715 1.379 . S
C710 N717 1.356 . S
C711 C710 1.363 . S
C711 C714 1.363 . S
N712 C714 1.356 . S
N712 H724 0.984 . S
N712 H725 0.985 . S
N713 C715 1.356 . S
N713 H718 0.984 . S
N713 H719 0.985 . S
C714 C708 1.379 . S
C714 C711 1.363 . S
C714 N712 1.356 . S
C715 C709 1.363 . S
C715 C710 1.379 . S
C715 N713 1.356 . S
N716 C708 1.356 . S
N716 H722 0.984 . S
N716 H723 0.984 . S
N717 C710 1.356 . S
N717 H720 0.984 . S
N717 H721 0.985 . S
H718 N713 0.984 . S
H719 N713 0.985 . S
H720 N717 0.984 . S
H721 N717 0.985 . S
H722 N716 0.984 . S
H723 N716 0.984 . S
H724 N712 0.984 . S
H725 N712 0.985 . S
C726 C727 1.363 . S
C726 C732 1.379 . S
C726 N734 1.356 . S
C727 C726 1.363 . S
C727 C733 1.363 . S
C728 C729 1.363 . S
C728 C733 1.379 . S
C728 N735 1.356 . S
C729 C728 1.363 . S
C729 C732 1.363 . S
N730 C732 1.356 . S
N730 H742 0.984 . S
N730 H743 0.985 . S
N731 C733 1.356 . S
N731 H736 0.984 . S
N731 H737 0.985 . S
C732 C726 1.379 . S
C732 C729 1.363 . S
C732 N730 1.356 . S
C733 C727 1.363 . S
C733 C728 1.379 . S
C733 N731 1.356 . S
N734 C726 1.356 . S
N734 H740 0.984 . S
N734 H741 0.984 . S
N735 C728 1.356 . S
N735 H738 0.984 . S
N735 H739 0.985 . S
H736 N731 0.984 . S
H737 N731 0.985 . S
H738 N735 0.984 . S
H739 N735 0.985 . S
H740 N734 0.984 . S
H741 N734 0.984 . S
H742 N730 0.984 . S
H743 N730 0.985 . S
C744 C745 1.363 . S
C744 C750 1.379 1_556 S
C744 N752 1.356 . S
C745 C744 1.363 . S
C745 C751 1.363 . S
C746 C747 1.363 1_556 S
C746 C751 1.379 . S
C746 N753 1.356 1_556 S
C747 C746 1.363 1_554 S
C747 C750 1.363 . S
N748 C750 1.356 . S
N748 H760 0.984 . S
N748 H761 0.985 . S
N749 C751 1.356 . S
N749 H754 0.984 . S
N749 H755 0.985 . S
C750 C744 1.379 1_554 S
C750 C747 1.363 . S
C750 N748 1.356 . S
C751 C745 1.363 . S
C751 C746 1.379 . S
C751 N749 1.356 . S
N752 C744 1.356 . S
N752 H758 0.984 . S
N752 H759 0.984 . S
N753 C746 1.356 1_554 S
N753 H756 0.984 . S
N753 H757 0.984 1_554 S
H754 N749 0.984 . S
H755 N749 0.985 . S
H756 N753 0.984 . S
H757 N753 0.984 1_556 S
H758 N752 0.984 . S
H759 N752 0.984 . S
H760 N748 0.984 . S
H761 N748 0.985 . S
C762 C763 1.363 . S
C762 C768 1.379 1_556 S
C762 N770 1.356 . S
C763 C762 1.363 . S
C763 C769 1.363 . S
C764 C765 1.363 1_556 S
C764 C769 1.379 . S
C764 N771 1.356 1_556 S
C765 C764 1.363 1_554 S
C765 C768 1.363 . S
N766 C768 1.356 . S
N766 H778 0.984 . S
N766 H779 0.985 . S
N767 C769 1.356 . S
N767 H772 0.984 . S
N767 H773 0.985 . S
C768 C762 1.379 1_554 S
C768 C765 1.363 . S
C768 N766 1.356 . S
C769 C763 1.363 . S
C769 C764 1.379 . S
C769 N767 1.356 . S
N770 C762 1.356 . S
N770 H776 0.984 . S
N770 H777 0.984 . S
N771 C764 1.356 1_554 S
N771 H774 0.984 . S
N771 H775 0.985 1_554 S
H772 N767 0.984 . S
H773 N767 0.985 . S
H774 N771 0.984 . S
H775 N771 0.985 1_556 S
H776 N770 0.984 . S
H777 N770 0.984 . S
H778 N766 0.984 . S
H779 N766 0.985 . S
C780 C781 1.363 . S
C780 C786 1.379 . S
C780 N788 1.356 . S
C781 C780 1.363 . S
C781 C787 1.363 . S
C782 C783 1.363 . S
C782 C787 1.379 . S
C782 N789 1.356 . S
C783 C782 1.363 . S
C783 C786 1.363 . S
N784 C786 1.356 . S
N784 H796 0.984 . S
N784 H797 0.985 . S
N785 C787 1.356 . S
N785 H790 0.984 . S
N785 H791 0.985 . S
C786 C780 1.379 . S
C786 C783 1.363 . S
C786 N784 1.356 . S
C787 C781 1.363 . S
C787 C782 1.379 . S
C787 N785 1.356 . S
N788 C780 1.356 . S
N788 H794 0.984 . S
N788 H795 0.984 . S
N789 C782 1.356 . S
N789 H792 0.984 . S
N789 H793 0.985 . S
H790 N785 0.984 . S
H791 N785 0.985 . S
H792 N789 0.984 . S
H793 N789 0.985 . S
H794 N788 0.984 . S
H795 N788 0.984 . S
H796 N784 0.984 . S
H797 N784 0.985 . S
C798 C799 1.363 . S
C798 C804 1.379 . S
C798 N806 1.356 . S
C799 C798 1.363 . S
C799 C805 1.363 . S
C800 C801 1.363 . S
C800 C805 1.379 . S
C800 N807 1.356 . S
C801 C800 1.363 . S
C801 C804 1.363 . S
N802 C804 1.356 . S
N802 H814 0.984 . S
N802 H815 0.985 . S
N803 C805 1.356 . S
N803 H808 0.984 . S
N803 H809 0.985 . S
C804 C798 1.379 . S
C804 C801 1.363 . S
C804 N802 1.356 . S
C805 C799 1.363 . S
C805 C800 1.379 . S
C805 N803 1.356 . S
N806 C798 1.356 . S
N806 H812 0.984 . S
N806 H813 0.984 . S
N807 C800 1.356 . S
N807 H810 0.984 . S
N807 H811 0.985 . S
H808 N803 0.984 . S
H809 N803 0.985 . S
H810 N807 0.984 . S
H811 N807 0.985 . S
H812 N806 0.984 . S
H813 N806 0.984 . S
H814 N802 0.984 . S
H815 N802 0.985 . S
C816 C817 1.363 1_565 S
C816 C822 1.379 . S
C816 N824 1.356 1_565 S
C817 C816 1.363 1_545 S
C817 C823 1.363 . S
C818 C819 1.363 1_545 S
C818 C823 1.379 . S
C818 N825 1.356 1_545 S
C819 C818 1.363 1_565 S
C819 C822 1.363 . S
N820 C822 1.356 . S
N820 H832 0.984 . S
N820 H833 0.985 . S
N821 C823 1.356 . S
N821 H826 0.984 . S
N821 H827 0.985 . S
C822 C816 1.379 . S
C822 C819 1.363 . S
C822 N820 1.356 . S
C823 C817 1.363 . S
C823 C818 1.379 . S
C823 N821 1.356 . S
N824 C816 1.356 1_545 S
N824 H830 0.984 1_545 S
N824 H831 0.984 . S
N825 C818 1.356 1_565 S
N825 H828 0.984 . S
N825 H829 0.985 1_565 S
H826 N821 0.984 . S
H827 N821 0.985 . S
H828 N825 0.984 . S
H829 N825 0.985 1_545 S
H830 N824 0.984 1_565 S
H831 N824 0.984 . S
H832 N820 0.984 . S
H833 N820 0.985 . S
C834 C835 1.363 . S
C834 C840 1.379 . S
C834 N842 1.356 . S
C835 C834 1.363 . S
C835 C841 1.363 1_565 S
C836 C837 1.363 . S
C836 C841 1.379 . S
C836 N843 1.356 . S
C837 C836 1.363 . S
C837 C840 1.363 1_545 S
N838 C840 1.356 1_545 S
N838 H850 0.984 1_545 S
N838 H851 0.985 . S
N839 C841 1.356 1_565 S
N839 H844 0.984 . S
N839 H845 0.985 1_565 S
C840 C834 1.379 . S
C840 C837 1.363 1_565 S
C840 N838 1.356 1_565 S
C841 C835 1.363 1_545 S
C841 C836 1.379 . S
C841 N839 1.356 1_545 S
N842 C834 1.356 . S
N842 H848 0.984 . S
N842 H849 0.984 . S
N843 C836 1.356 . S
N843 H846 0.984 . S
N843 H847 0.985 . S
H844 N839 0.984 . S
H845 N839 0.985 1_545 S
H846 N843 0.984 . S
H847 N843 0.985 . S
H848 N842 0.984 . S
H849 N842 0.984 . S
H850 N838 0.984 1_565 S
H851 N838 0.985 . S
C852 C853 1.363 1_565 S
C852 C858 1.379 . S
C852 N860 1.356 1_565 S
C853 C852 1.363 1_545 S
C853 C859 1.363 . S
C854 C855 1.363 1_545 S
C854 C859 1.379 . S
C854 N861 1.356 1_545 S
C855 C854 1.363 1_565 S
C855 C858 1.363 . S
N856 C858 1.356 . S
N856 H868 0.984 . S
N856 H869 0.985 . S
N857 C859 1.356 . S
N857 H862 0.984 . S
N857 H863 0.985 . S
C858 C852 1.379 . S
C858 C855 1.363 . S
C858 N856 1.356 . S
C859 C853 1.363 . S
C859 C854 1.379 . S
C859 N857 1.356 . S
N860 C852 1.356 1_545 S
N860 H866 0.984 1_545 S
N860 H867 0.984 . S
N861 C854 1.356 1_565 S
N861 H864 0.984 . S
N861 H865 0.985 1_565 S
H862 N857 0.984 . S
H863 N857 0.985 . S
H864 N861 0.984 . S
H865 N861 0.985 1_545 S
H866 N860 0.984 1_565 S
H867 N860 0.984 . S
H868 N856 0.984 . S
H869 N856 0.985 . S
C870 C871 1.363 1_545 S
C870 C876 1.379 . S
C870 N878 1.356 1_545 S
C871 C870 1.363 1_565 S
C871 C877 1.363 . S
C872 C873 1.363 1_565 S
C872 C877 1.379 . S
C872 N879 1.356 1_565 S
C873 C872 1.363 1_545 S
C873 C876 1.363 . S
N874 C876 1.356 . S
N874 H886 0.984 . S
N874 H887 0.985 . S
N875 C877 1.356 . S
N875 H880 0.984 . S
N875 H881 0.985 . S
C876 C870 1.379 . S
C876 C873 1.363 . S
C876 N874 1.356 . S
C877 C871 1.363 . S
C877 C872 1.379 . S
C877 N875 1.356 . S
N878 C870 1.356 1_565 S
N878 H884 0.984 1_565 S
N878 H885 0.984 . S
N879 C872 1.356 1_545 S
N879 H882 0.984 . S
N879 H883 0.985 1_545 S
H880 N875 0.984 . S
H881 N875 0.985 . S
H882 N879 0.984 . S
H883 N879 0.985 1_565 S
H884 N878 0.984 1_545 S
H885 N878 0.984 . S
H886 N874 0.984 . S
H887 N874 0.985 . S
C888 C889 1.363 . S
C888 C894 1.379 . S
C888 N896 1.356 . S
C889 C888 1.363 . S
C889 C895 1.363 . S
C890 C891 1.363 . S
C890 C895 1.379 . S
C890 N897 1.356 . S
C891 C890 1.363 . S
C891 C894 1.363 . S
N892 C894 1.356 . S
N892 H904 0.984 . S
N892 H905 0.985 . S
N893 C895 1.356 . S
N893 H898 0.984 . S
N893 H899 0.985 . S
C894 C888 1.379 . S
C894 C891 1.363 . S
C894 N892 1.356 . S
C895 C889 1.363 . S
C895 C890 1.379 . S
C895 N893 1.356 . S
N896 C888 1.356 . S
N896 H902 0.984 . S
N896 H903 0.984 . S
N897 C890 1.356 . S
N897 H900 0.984 . S
N897 H901 0.985 . S
H898 N893 0.984 . S
H899 N893 0.985 . S
H900 N897 0.984 . S
H901 N897 0.985 . S
H902 N896 0.984 . S
H903 N896 0.984 . S
H904 N892 0.984 . S
H905 N892 0.985 . S
C906 C907 1.363 . S
C906 C912 1.379 . S
C906 N914 1.356 . S
C907 C906 1.363 . S
C907 C913 1.363 . S
C908 C909 1.363 . S
C908 C913 1.379 . S
C908 N915 1.356 . S
C909 C908 1.363 . S
C909 C912 1.363 . S
N910 C912 1.356 . S
N910 H922 0.984 . S
N910 H923 0.985 . S
N911 C913 1.356 . S
N911 H916 0.984 . S
N911 H917 0.985 . S
C912 C906 1.379 . S
C912 C909 1.363 . S
C912 N910 1.356 . S
C913 C907 1.363 . S
C913 C908 1.379 . S
C913 N911 1.356 . S
N914 C906 1.356 . S
N914 H920 0.984 . S
N914 H921 0.984 . S
N915 C908 1.356 . S
N915 H918 0.984 . S
N915 H919 0.985 . S
H916 N911 0.984 . S
H917 N911 0.985 . S
H918 N915 0.984 . S
H919 N915 0.985 . S
H920 N914 0.984 . S
H921 N914 0.984 . S
H922 N910 0.984 . S
H923 N910 0.985 . S
C924 C925 1.363 . S
C924 C930 1.379 . S
C924 N932 1.356 . S
C925 C924 1.363 . S
C925 C931 1.363 . S
C926 C927 1.363 . S
C926 C931 1.379 . S
C926 N933 1.356 . S
C927 C926 1.363 . S
C927 C930 1.363 . S
N928 C930 1.356 . S
N928 H940 0.984 . S
N928 H941 0.985 . S
N929 C931 1.356 . S
N929 H934 0.984 . S
N929 H935 0.985 . S
C930 C924 1.379 . S
C930 C927 1.363 . S
C930 N928 1.356 . S
C931 C925 1.363 . S
C931 C926 1.379 . S
C931 N929 1.356 . S
N932 C924 1.356 . S
N932 H938 0.984 . S
N932 H939 0.984 . S
N933 C926 1.356 . S
N933 H936 0.984 . S
N933 H937 0.985 . S
H934 N929 0.984 . S
H935 N929 0.985 . S
H936 N933 0.984 . S
H937 N933 0.985 . S
H938 N932 0.984 . S
H939 N932 0.984 . S
H940 N928 0.984 . S
H941 N928 0.985 . S
C942 C943 1.363 . S
C942 C948 1.379 . S
C942 N950 1.356 . S
C943 C942 1.363 . S
C943 C949 1.363 . S
C944 C945 1.363 . S
C944 C949 1.379 . S
C944 N951 1.356 . S
C945 C944 1.363 . S
C945 C948 1.363 . S
N946 C948 1.356 . S
N946 H958 0.984 . S
N946 H959 0.985 . S
N947 C949 1.356 . S
N947 H952 0.984 . S
N947 H953 0.985 . S
C948 C942 1.379 . S
C948 C945 1.363 . S
C948 N946 1.356 . S
C949 C943 1.363 . S
C949 C944 1.379 . S
C949 N947 1.356 . S
N950 C942 1.356 . S
N950 H956 0.984 . S
N950 H957 0.984 . S
N951 C944 1.356 . S
N951 H954 0.984 . S
N951 H955 0.985 . S
H952 N947 0.984 . S
H953 N947 0.985 . S
H954 N951 0.984 . S
H955 N951 0.985 . S
H956 N950 0.984 . S
H957 N950 0.984 . S
H958 N946 0.984 . S
H959 N946 0.985 . S
C960 C961 1.363 1_455 S
C960 C966 1.379 . S
C960 N968 1.356 . S
C961 C960 1.363 1_655 S
C961 C967 1.363 . S
C962 C963 1.363 1_655 S
C962 C967 1.379 . S
C962 N969 1.356 . S
C963 C962 1.363 1_455 S
C963 C966 1.363 . S
N964 C966 1.356 . S
N964 H976 0.984 . S
N964 H977 0.985 . S
N965 C967 1.356 . S
N965 H970 0.984 . S
N965 H971 0.985 . S
C966 C960 1.379 . S
C966 C963 1.363 . S
C966 N964 1.356 . S
C967 C961 1.363 . S
C967 C962 1.379 . S
C967 N965 1.356 . S
N968 C960 1.356 . S
N968 H974 0.984 . S
N968 H975 0.984 . S
N969 C962 1.356 . S
N969 H972 0.984 . S
N969 H973 0.985 . S
H970 N965 0.984 . S
H971 N965 0.985 . S
H972 N969 0.984 . S
H973 N969 0.985 . S
H974 N968 0.984 . S
H975 N968 0.984 . S
H976 N964 0.984 . S
H977 N964 0.985 . S
C978 C979 1.363 . S
C978 C984 1.379 . S
C978 N986 1.356 . S
C979 C978 1.363 . S
C979 C985 1.363 . S
C980 C981 1.363 . S
C980 C985 1.379 . S
C980 N987 1.356 . S
C981 C980 1.363 . S
C981 C984 1.363 . S
N982 C984 1.356 . S
N982 H994 0.984 . S
N982 H995 0.985 . S
N983 C985 1.356 . S
N983 H988 0.984 . S
N983 H989 0.985 . S
C984 C978 1.379 . S
C984 C981 1.363 . S
C984 N982 1.356 . S
C985 C979 1.363 . S
C985 C980 1.379 . S
C985 N983 1.356 . S
N986 C978 1.356 . S
N986 H992 0.984 . S
N986 H993 0.984 . S
N987 C980 1.356 . S
N987 H990 0.984 . S
N987 H991 0.985 . S
H988 N983 0.984 . S
H989 N983 0.985 . S
H990 N987 0.984 . S
H991 N987 0.985 . S
H992 N986 0.984 . S
H993 N986 0.984 . S
H994 N982 0.984 . S
H995 N982 0.985 . S
C996 C997 1.363 . S
C996 C1002 1.379 . S
C996 N1004 1.356 . S
C997 C996 1.363 . S
C997 C1003 1.363 . S
C998 C999 1.363 . S
C998 C1003 1.379 . S
C998 N1005 1.356 . S
C999 C998 1.363 . S
C999 C1002 1.363 . S
N1000 C1002 1.356 . S
N1000 H1012 0.984 . S
N1000 H1013 0.985 . S
N1001 C1003 1.356 . S
N1001 H1006 0.984 . S
N1001 H1007 0.985 . S
C1002 C996 1.379 . S
C1002 C999 1.363 . S
C1002 N1000 1.356 . S
C1003 C997 1.363 . S
C1003 C998 1.379 . S
C1003 N1001 1.356 . S
N1004 C996 1.356 . S
N1004 H1010 0.984 . S
N1004 H1011 0.984 . S
N1005 C998 1.356 . S
N1005 H1008 0.984 . S
N1005 H1009 0.985 . S
H1006 N1001 0.984 . S
H1007 N1001 0.985 . S
H1008 N1005 0.984 . S
H1009 N1005 0.985 . S
H1010 N1004 0.984 . S
H1011 N1004 0.984 . S
H1012 N1000 0.984 . S
H1013 N1000 0.985 . S
C1014 C1015 1.363 1_655 S
C1014 C1020 1.379 . S
C1014 N1022 1.356 . S
C1015 C1014 1.363 1_455 S
C1015 C1021 1.363 . S
C1016 C1017 1.363 1_455 S
C1016 C1021 1.379 . S
C1016 N1023 1.356 . S
C1017 C1016 1.363 1_655 S
C1017 C1020 1.363 . S
N1018 C1020 1.356 . S
N1018 H1030 0.984 . S
N1018 H1031 0.985 . S
N1019 C1021 1.356 . S
N1019 H1024 0.984 . S
N1019 H1025 0.985 . S
C1020 C1014 1.379 . S
C1020 C1017 1.363 . S
C1020 N1018 1.356 . S
C1021 C1015 1.363 . S
C1021 C1016 1.379 . S
C1021 N1019 1.356 . S
N1022 C1014 1.356 . S
N1022 H1028 0.984 . S
N1022 H1029 0.984 . S
N1023 C1016 1.356 . S
N1023 H1026 0.984 . S
N1023 H1027 0.985 . S
H1024 N1019 0.984 . S
H1025 N1019 0.985 . S
H1026 N1023 0.984 . S
H1027 N1023 0.985 . S
H1028 N1022 0.984 . S
H1029 N1022 0.984 . S
H1030 N1018 0.984 . S
H1031 N1018 0.985 . S
C1032 C1033 1.363 . S
C1032 C1038 1.379 . S
C1032 N1040 1.356 . S
C1033 C1032 1.363 . S
C1033 C1039 1.363 1_655 S
C1034 C1035 1.363 . S
C1034 C1039 1.379 . S
C1034 N1041 1.356 . S
C1035 C1034 1.363 . S
C1035 C1038 1.363 1_455 S
N1036 C1038 1.356 . S
N1036 H1048 0.984 . S
N1036 H1049 0.985 . S
N1037 C1039 1.356 . S
N1037 H1042 0.984 . S
N1037 H1043 0.985 . S
C1038 C1032 1.379 . S
C1038 C1035 1.363 1_655 S
C1038 N1036 1.356 . S
C1039 C1033 1.363 1_455 S
C1039 C1034 1.379 . S
C1039 N1037 1.356 . S
N1040 C1032 1.356 . S
N1040 H1046 0.984 . S
N1040 H1047 0.984 . S
N1041 C1034 1.356 . S
N1041 H1044 0.984 . S
N1041 H1045 0.985 . S
H1042 N1037 0.984 . S
H1043 N1037 0.985 . S
H1044 N1041 0.984 . S
H1045 N1041 0.985 . S
H1046 N1040 0.984 . S
H1047 N1040 0.984 . S
H1048 N1036 0.984 . S
H1049 N1036 0.985 . S
C1050 C1051 1.363 . S
C1050 C1056 1.379 . S
C1050 N1058 1.356 . S
C1051 C1050 1.363 . S
C1051 C1057 1.363 . S
C1052 C1053 1.363 . S
C1052 C1057 1.379 . S
C1052 N1059 1.356 . S
C1053 C1052 1.363 . S
C1053 C1056 1.363 . S
N1054 C1056 1.356 . S
N1054 H1066 0.984 . S
N1054 H1067 0.985 . S
N1055 C1057 1.356 . S
N1055 H1060 0.984 . S
N1055 H1061 0.985 . S
C1056 C1050 1.379 . S
C1056 C1053 1.363 . S
C1056 N1054 1.356 . S
C1057 C1051 1.363 . S
C1057 C1052 1.379 . S
C1057 N1055 1.356 . S
N1058 C1050 1.356 . S
N1058 H1064 0.984 . S
N1058 H1065 0.984 . S
N1059 C1052 1.356 . S
N1059 H1062 0.984 . S
N1059 H1063 0.985 . S
H1060 N1055 0.984 . S
H1061 N1055 0.985 . S
H1062 N1059 0.984 . S
H1063 N1059 0.985 . S
H1064 N1058 0.984 . S
H1065 N1058 0.984 . S
H1066 N1054 0.984 . S
H1067 N1054 0.985 . S
C1068 C1069 1.363 . S
C1068 C1074 1.379 . S
C1068 N1076 1.356 . S
C1069 C1068 1.363 . S
C1069 C1075 1.363 . S
C1070 C1071 1.363 . S
C1070 C1075 1.379 . S
C1070 N1077 1.356 . S
C1071 C1070 1.363 . S
C1071 C1074 1.363 . S
N1072 C1074 1.356 . S
N1072 H1084 0.984 . S
N1072 H1085 0.985 . S
N1073 C1075 1.356 . S
N1073 H1078 0.984 . S
N1073 H1079 0.985 . S
C1074 C1068 1.379 . S
C1074 C1071 1.363 . S
C1074 N1072 1.356 . S
C1075 C1069 1.363 . S
C1075 C1070 1.379 . S
C1075 N1073 1.356 . S
N1076 C1068 1.356 . S
N1076 H1082 0.984 . S
N1076 H1083 0.984 . S
N1077 C1070 1.356 . S
N1077 H1080 0.984 . S
N1077 H1081 0.985 . S
H1078 N1073 0.984 . S
H1079 N1073 0.985 . S
H1080 N1077 0.984 . S
H1081 N1077 0.985 . S
H1082 N1076 0.984 . S
H1083 N1076 0.984 . S
H1084 N1072 0.984 . S
H1085 N1072 0.985 . S
C1086 C1087 1.363 . S
C1086 C1092 1.379 . S
C1086 N1094 1.356 . S
C1087 C1086 1.363 . S
C1087 C1093 1.363 1_655 S
C1088 C1089 1.363 . S
C1088 C1093 1.379 . S
C1088 N1095 1.356 . S
C1089 C1088 1.363 . S
C1089 C1092 1.363 1_455 S
N1090 C1092 1.356 . S
N1090 H1102 0.984 . S
N1090 H1103 0.985 . S
N1091 C1093 1.356 . S
N1091 H1096 0.984 . S
N1091 H1097 0.985 . S
C1092 C1086 1.379 . S
C1092 C1089 1.363 1_655 S
C1092 N1090 1.356 . S
C1093 C1087 1.363 1_455 S
C1093 C1088 1.379 . S
C1093 N1091 1.356 . S
N1094 C1086 1.356 . S
N1094 H1100 0.984 . S
N1094 H1101 0.984 . S
N1095 C1088 1.356 . S
N1095 H1098 0.984 . S
N1095 H1099 0.985 . S
H1096 N1091 0.984 . S
H1097 N1091 0.985 . S
H1098 N1095 0.984 . S
H1099 N1095 0.985 . S
H1100 N1094 0.984 . S
H1101 N1094 0.984 . S
H1102 N1090 0.984 . S
H1103 N1090 0.985 . S
C1104 C1105 1.363 1_655 S
C1104 C1110 1.379 . S
C1104 N1112 1.356 . S
C1105 C1104 1.363 1_455 S
C1105 C1111 1.363 . S
C1106 C1107 1.363 1_455 S
C1106 C1111 1.379 . S
C1106 N1113 1.356 . S
C1107 C1106 1.363 1_655 S
C1107 C1110 1.363 . S
N1108 C1110 1.356 . S
N1108 H1120 0.984 . S
N1108 H1121 0.985 . S
N1109 C1111 1.356 . S
N1109 H1114 0.984 . S
N1109 H1115 0.985 . S
C1110 C1104 1.379 . S
C1110 C1107 1.363 . S
C1110 N1108 1.356 . S
C1111 C1105 1.363 . S
C1111 C1106 1.379 . S
C1111 N1109 1.356 . S
N1112 C1104 1.356 . S
N1112 H1118 0.984 . S
N1112 H1119 0.984 1_655 S
N1113 C1106 1.356 . S
N1113 H1116 0.984 1_455 S
N1113 H1117 0.985 . S
H1114 N1109 0.984 . S
H1115 N1109 0.985 . S
H1116 N1113 0.984 1_655 S
H1117 N1113 0.985 . S
H1118 N1112 0.984 . S
H1119 N1112 0.984 1_455 S
H1120 N1108 0.984 . S
H1121 N1108 0.985 . S
C1122 C1123 1.363 . S
C1122 C1128 1.379 . S
C1122 N1130 1.356 . S
C1123 C1122 1.363 . S
C1123 C1129 1.363 . S
C1124 C1125 1.363 . S
C1124 C1129 1.379 . S
C1124 N1131 1.356 . S
C1125 C1124 1.363 . S
C1125 C1128 1.363 . S
N1126 C1128 1.356 . S
N1126 H1138 0.984 . S
N1126 H1139 0.985 . S
N1127 C1129 1.356 . S
N1127 H1132 0.984 . S
N1127 H1133 0.985 . S
C1128 C1122 1.379 . S
C1128 C1125 1.363 . S
C1128 N1126 1.356 . S
C1129 C1123 1.363 . S
C1129 C1124 1.379 . S
C1129 N1127 1.356 . S
N1130 C1122 1.356 . S
N1130 H1136 0.984 . S
N1130 H1137 0.984 . S
N1131 C1124 1.356 . S
N1131 H1134 0.984 . S
N1131 H1135 0.985 . S
H1132 N1127 0.984 . S
H1133 N1127 0.985 . S
H1134 N1131 0.984 . S
H1135 N1131 0.985 . S
H1136 N1130 0.984 . S
H1137 N1130 0.984 . S
H1138 N1126 0.984 . S
H1139 N1126 0.985 . S
C1140 C1141 1.363 1_455 S
C1140 C1146 1.379 . S
C1140 N1148 1.356 . S
C1141 C1140 1.363 1_655 S
C1141 C1147 1.363 . S
C1142 C1143 1.363 1_655 S
C1142 C1147 1.379 . S
C1142 N1149 1.356 . S
C1143 C1142 1.363 1_455 S
C1143 C1146 1.363 . S
N1144 C1146 1.356 . S
N1144 H1156 0.984 . S
N1144 H1157 0.985 . S
N1145 C1147 1.356 . S
N1145 H1150 0.984 . S
N1145 H1151 0.985 . S
C1146 C1140 1.379 . S
C1146 C1143 1.363 . S
C1146 N1144 1.356 . S
C1147 C1141 1.363 . S
C1147 C1142 1.379 . S
C1147 N1145 1.356 . S
N1148 C1140 1.356 . S
N1148 H1154 0.984 . S
N1148 H1155 0.984 1_455 S
N1149 C1142 1.356 . S
N1149 H1152 0.984 1_655 S
N1149 H1153 0.985 . S
H1150 N1145 0.984 . S
H1151 N1145 0.985 . S
H1152 N1149 0.984 1_455 S
H1153 N1149 0.985 . S
H1154 N1148 0.984 . S
H1155 N1148 0.984 1_655 S
H1156 N1144 0.984 . S
H1157 N1144 0.985 . S
C1158 C1159 1.363 . S
C1158 C1164 1.379 . S
C1158 N1166 1.356 . S
C1159 C1158 1.363 . S
C1159 C1165 1.363 . S
C1160 C1161 1.363 . S
C1160 C1165 1.379 . S
C1160 N1167 1.356 . S
C1161 C1160 1.363 . S
C1161 C1164 1.363 . S
N1162 C1164 1.356 . S
N1162 H1174 0.984 . S
N1162 H1175 0.985 . S
N1163 C1165 1.356 . S
N1163 H1168 0.984 . S
N1163 H1169 0.985 . S
C1164 C1158 1.379 . S
C1164 C1161 1.363 . S
C1164 N1162 1.356 . S
C1165 C1159 1.363 . S
C1165 C1160 1.379 . S
C1165 N1163 1.356 . S
N1166 C1158 1.356 . S
N1166 H1172 0.984 . S
N1166 H1173 0.984 . S
N1167 C1160 1.356 . S
N1167 H1170 0.984 . S
N1167 H1171 0.985 . S
H1168 N1163 0.984 . S
H1169 N1163 0.985 . S
H1170 N1167 0.984 . S
H1171 N1167 0.985 . S
H1172 N1166 0.984 . S
H1173 N1166 0.984 . S
H1174 N1162 0.984 . S
H1175 N1162 0.985 . S
C1176 C1177 1.363 . S
C1176 C1182 1.379 . S
C1176 N1184 1.356 . S
C1177 C1176 1.363 . S
C1177 C1183 1.363 . S
C1178 C1179 1.363 . S
C1178 C1183 1.379 . S
C1178 N1185 1.356 . S
C1179 C1178 1.363 . S
C1179 C1182 1.363 . S
N1180 C1182 1.356 . S
N1180 H1192 0.984 . S
N1180 H1193 0.985 . S
N1181 C1183 1.356 . S
N1181 H1186 0.984 . S
N1181 H1187 0.985 . S
C1182 C1176 1.379 . S
C1182 C1179 1.363 . S
C1182 N1180 1.356 . S
C1183 C1177 1.363 . S
C1183 C1178 1.379 . S
C1183 N1181 1.356 . S
N1184 C1176 1.356 . S
N1184 H1190 0.984 . S
N1184 H1191 0.984 . S
N1185 C1178 1.356 . S
N1185 H1188 0.984 . S
N1185 H1189 0.985 . S
H1186 N1181 0.984 . S
H1187 N1181 0.985 . S
H1188 N1185 0.984 . S
H1189 N1185 0.985 . S
H1190 N1184 0.984 . S
H1191 N1184 0.984 . S
H1192 N1180 0.984 . S
H1193 N1180 0.985 . S
C1194 C1195 1.363 . S
C1194 C1200 1.379 . S
C1194 N1202 1.356 . S
C1195 C1194 1.363 . S
C1195 C1201 1.363 1_455 S
C1196 C1197 1.363 . S
C1196 C1201 1.379 . S
C1196 N1203 1.356 . S
C1197 C1196 1.363 . S
C1197 C1200 1.363 1_655 S
N1198 C1200 1.356 . S
N1198 H1210 0.984 . S
N1198 H1211 0.985 1_455 S
N1199 C1201 1.356 . S
N1199 H1204 0.984 1_655 S
N1199 H1205 0.985 . S
C1200 C1194 1.379 . S
C1200 C1197 1.363 1_455 S
C1200 N1198 1.356 . S
C1201 C1195 1.363 1_655 S
C1201 C1196 1.379 . S
C1201 N1199 1.356 . S
N1202 C1194 1.356 . S
N1202 H1208 0.984 . S
N1202 H1209 0.984 . S
N1203 C1196 1.356 . S
N1203 H1206 0.984 . S
N1203 H1207 0.985 . S
H1204 N1199 0.984 1_455 S
H1205 N1199 0.985 . S
H1206 N1203 0.984 . S
H1207 N1203 0.985 . S
H1208 N1202 0.984 . S
H1209 N1202 0.984 . S
H1210 N1198 0.984 . S
H1211 N1198 0.985 1_655 S
C1212 C1213 1.363 . S
C1212 C1218 1.379 . S
C1212 N1220 1.356 . S
C1213 C1212 1.363 . S
C1213 C1219 1.363 . S
C1214 C1215 1.363 . S
C1214 C1219 1.379 . S
C1214 N1221 1.356 . S
C1215 C1214 1.363 . S
C1215 C1218 1.363 . S
N1216 C1218 1.356 . S
N1216 H1228 0.984 . S
N1216 H1229 0.985 . S
N1217 C1219 1.356 . S
N1217 H1222 0.984 . S
N1217 H1223 0.985 . S
C1218 C1212 1.379 . S
C1218 C1215 1.363 . S
C1218 N1216 1.356 . S
C1219 C1213 1.363 . S
C1219 C1214 1.379 . S
C1219 N1217 1.356 . S
N1220 C1212 1.356 . S
N1220 H1226 0.984 . S
N1220 H1227 0.984 . S
N1221 C1214 1.356 . S
N1221 H1224 0.984 . S
N1221 H1225 0.985 . S
H1222 N1217 0.984 . S
H1223 N1217 0.985 . S
H1224 N1221 0.984 . S
H1225 N1221 0.985 . S
H1226 N1220 0.984 . S
H1227 N1220 0.984 . S
H1228 N1216 0.984 . S
H1229 N1216 0.985 . S
C1230 C1231 1.363 . S
C1230 C1236 1.379 . S
C1230 N1238 1.356 . S
C1231 C1230 1.363 . S
C1231 C1237 1.363 1_455 S
C1232 C1233 1.363 . S
C1232 C1237 1.379 . S
C1232 N1239 1.356 . S
C1233 C1232 1.363 . S
C1233 C1236 1.363 1_655 S
N1234 C1236 1.356 . S
N1234 H1246 0.984 . S
N1234 H1247 0.985 1_455 S
N1235 C1237 1.356 . S
N1235 H1240 0.984 1_655 S
N1235 H1241 0.985 . S
C1236 C1230 1.379 . S
C1236 C1233 1.363 1_455 S
C1236 N1234 1.356 . S
C1237 C1231 1.363 1_655 S
C1237 C1232 1.379 . S
C1237 N1235 1.356 . S
N1238 C1230 1.356 . S
N1238 H1244 0.984 . S
N1238 H1245 0.984 . S
N1239 C1232 1.356 . S
N1239 H1242 0.984 . S
N1239 H1243 0.985 . S
H1240 N1235 0.984 1_455 S
H1241 N1235 0.985 . S
H1242 N1239 0.984 . S
H1243 N1239 0.985 . S
H1244 N1238 0.984 . S
H1245 N1238 0.984 . S
H1246 N1234 0.984 . S
H1247 N1234 0.985 1_655 S
C529 C186 1.225 . S
C531 C18 1.219 . S
C547 C153 1.225 . S
C549 C51 1.219 . S
C565 C84 1.219 . S
C567 C252 1.225 . S
C583 C117 1.219 . S
C585 C219 1.225 . S
C601 C150 1.219 . S
C603 C54 1.225 . S
C619 C183 1.219 . S
C621 C21 1.225 . S
C637 C120 1.225 . S
C639 C216 1.219 . S
C655 C249 1.219 . S
C657 C87 1.225 . S
C673 C282 1.219 . S
C675 C450 1.225 . S
C691 C315 1.219 . S
C693 C417 1.225 . S
C709 C348 1.219 . S
C711 C516 1.225 . S
C727 C381 1.219 . S
C729 C483 1.225 . S
C745 C414 1.219 . S
C747 C318 1.225 . S
C763 C447 1.219 . S
C765 C285 1.225 . S
C781 C384 1.225 . S
C783 C480 1.219 . S
C799 C351 1.225 . S
C801 C513 1.219 . S
C817 N13 1.706 . S
C819 N46 1.706 . S
C835 N79 1.706 . S
C837 N112 1.706 . S
C853 N178 1.706 . S
C855 N145 1.706 . S
C871 N244 1.706 . S
C873 N211 1.706 . S
C889 N310 1.706 . S
C891 N277 1.706 . S
C907 N376 1.706 . S
C909 N343 1.706 . S
C925 N409 1.706 . S
C927 N442 1.706 . S
C943 N475 1.706 . S
C945 N508 1.706 . S
C961 N299 1.530 . S
C963 N2 1.530 . S
C979 N35 1.530 . S
C981 N266 1.530 . S
C997 N68 1.530 . S
C999 N365 1.530 . S
C1015 N332 1.530 . S
C1017 N101 1.530 . S
C1033 N134 1.530 . S
C1035 N431 1.530 . S
C1051 N167 1.530 . S
C1053 N398 1.530 . S
C1069 N200 1.530 . S
C1071 N497 1.530 . S
C1087 N464 1.530 . S
C1089 N233 1.530 . S
C1105 C7 1.478 . S
C1107 C106 1.478 . S
C1123 C40 1.478 . S
C1125 C73 1.478 . S
C1141 C139 1.478 . S
C1143 C238 1.478 . S
C1159 C172 1.478 . S
C1161 C205 1.478 . S
C1177 C370 1.478 . S
C1179 C271 1.478 . S
C1195 C337 1.478 . S
C1197 C304 1.478 . S
C1213 C403 1.478 . S
C1215 C502 1.478 . S
C1231 C436 1.478 . S
C1233 C469 1.478 . S
