# Generated by pormake.
# Topology bcg, (8)-cn, num edge types: 1
# Building blocks:
#     Node 0, Type 0, BuildingBlock: TAGTUT_clean_sbu_3, # of connection points: 8
#     Node 1, Type 0, BuildingBlock: TAGTUT_clean_sbu_3, # of connection points: 8
#     Node 2, Type 0, BuildingBlock: TAGTUT_clean_sbu_3, # of connection points: 8
#     Node 3, Type 0, BuildingBlock: TAGTUT_clean_sbu_3, # of connection points: 8
#     Edge 4, Type (0, 0), BuildingBlock: FUNLAD_clean_linker_1, # of connection points: 2
#     Edge 5, Type (0, 0), BuildingBlock: FUNLAD_clean_linker_1, # of connection points: 2
#     Edge 6, Type (0, 0), BuildingBlock: FUNLAD_clean_linker_1, # of connection points: 2
#     Edge 7, Type (0, 0), BuildingBlock: FUNLAD_clean_linker_1, # of connection points: 2
#     Edge 8, Type (0, 0), BuildingBlock: FUNLAD_clean_linker_1, # of connection points: 2
#     Edge 9, Type (0, 0), BuildingBlock: FUNLAD_clean_linker_1, # of connection points: 2
#     Edge 10, Type (0, 0), BuildingBlock: FUNLAD_clean_linker_1, # of connection points: 2
#     Edge 11, Type (0, 0), BuildingBlock: FUNLAD_clean_linker_1, # of connection points: 2
#     Edge 12, Type (0, 0), BuildingBlock: FUNLAD_clean_linker_1, # of connection points: 2
#     Edge 13, Type (0, 0), BuildingBlock: FUNLAD_clean_linker_1, # of connection points: 2
#     Edge 14, Type (0, 0), BuildingBlock: FUNLAD_clean_linker_1, # of connection points: 2
#     Edge 15, Type (0, 0), BuildingBlock: FUNLAD_clean_linker_1, # of connection points: 2
#     Edge 16, Type (0, 0), BuildingBlock: FUNLAD_clean_linker_1, # of connection points: 2
#     Edge 17, Type (0, 0), BuildingBlock: FUNLAD_clean_linker_1, # of connection points: 2
#     Edge 18, Type (0, 0), BuildingBlock: FUNLAD_clean_linker_1, # of connection points: 2
#     Edge 19, Type (0, 0), BuildingBlock: FUNLAD_clean_linker_1, # of connection points: 2
# Relax obj value: 0.117
# Max RMSD: 0.248
# Mean RMSD: 0.248
data_MOF--net-bcg--node1-TAGTUT_clean_sbu_3--edge1-FUNLAD_clean_linker_1
_symmetry_space_group_name_H-M    P1
_symmetry_Int_Tables_number       1
_symmetry_cell_setting            triclinic
loop_
_symmetry_equiv_pos_as_xyz
'x, y, z'
_cell_length_a     15.456426
_cell_length_b     28.463966
_cell_length_c     34.167287
_cell_angle_alpha  90.135316
_cell_angle_beta   89.912094
_cell_angle_gamma 90.122474
loop_
_atom_site_label
_atom_site_type_symbol
_atom_site_fract_x
_atom_site_fract_y
_atom_site_fract_z
_atom_type_partial_charge
C0 C 0.43971 0.1815 0.00069 0.0
C1 C 0.30754 0.22575 0.14045 0.0
C2 C 0.07264 0.22058 0.07799 0.0
Mg3 Mg 0.35275 0.19136 0.91491 0.0
Mg4 Mg 0.20121 0.27109 0.89362 0.0
O5 O 0.24201 0.22483 0.92739 0.0
Mg6 Mg 0.26207 0.23546 0.98452 0.0
O7 O 0.28646 0.23974 0.04201 0.0
Mg8 Mg 0.26568 0.17183 0.05486 0.0
Mg9 Mg 0.22948 0.28493 0.07217 0.0
C10 C 0.06932 0.28126 0.96458 0.0
O11 O 0.30919 0.31269 0.98032 0.0
O12 O 0.29853 0.17695 0.85244 0.0
O13 O 0.27895 0.34524 0.03915 0.0
O14 O 0.41349 0.26102 0.89268 0.0
O15 O 0.18957 0.22772 0.84208 0.0
O16 O 0.31126 0.31614 0.88505 0.0
O17 O 0.21967 0.15998 0.99156 0.0
O18 O 0.28285 0.12622 0.93971 0.0
C19 C 0.23462 0.12376 0.97022 0.0
C20 C 0.23702 0.19313 0.83122 0.0
O21 O 0.12363 0.26276 0.98823 0.0
O22 O 0.30763 0.18944 0.11812 0.0
O23 O 0.08643 0.2893 0.92833 0.0
O24 O 0.12526 0.18601 0.07504 0.0
O25 O 0.28249 0.26634 0.12883 0.0
O26 O 0.0963 0.26304 0.07234 0.0
O27 O 0.39578 0.20776 0.97794 0.0
O28 O 0.40739 0.16491 0.0325 0.0
C29 C 0.39031 0.3031 0.88435 0.0
C30 C 0.31024 0.34764 0.00426 0.0
C31 C 0.92314 0.70171 0.0247 0.0
C32 C 0.77923 0.7521 0.16285 0.0
C33 C 0.54781 0.73134 0.09978 0.0
Mg34 Mg 0.83357 0.70574 0.93825 0.0
Mg35 Mg 0.68676 0.78722 0.91643 0.0
O36 O 0.72304 0.73977 0.95015 0.0
Mg37 Mg 0.74218 0.75215 0.00734 0.0
O38 O 0.7644 0.75911 0.06476 0.0
Mg39 Mg 0.75051 0.69122 0.07991 0.0
Mg40 Mg 0.69281 0.80155 0.09125 0.0
C41 C 0.55059 0.79644 0.98589 0.0
O42 O 0.78312 0.83064 0.00211 0.0
O43 O 0.78076 0.69078 0.87581 0.0
O44 O 0.72809 0.8633 0.05715 0.0
O45 O 0.89606 0.77362 0.91381 0.0
O46 O 0.67673 0.7443 0.86438 0.0
O47 O 0.79909 0.83173 0.90905 0.0
O48 O 0.70551 0.67622 0.0169 0.0
O49 O 0.76152 0.64113 0.96416 0.0
C50 C 0.71749 0.63942 0.99605 0.0
C51 C 0.72191 0.7086 0.85397 0.0
O52 O 0.60335 0.77767 0.01005 0.0
O53 O 0.79081 0.71458 0.14249 0.0
O54 O 0.56983 0.80508 0.94994 0.0
O55 O 0.60675 0.6998 0.09929 0.0
O56 O 0.74347 0.78917 0.14905 0.0
O57 O 0.56433 0.77403 0.09129 0.0
O58 O 0.87604 0.72508 0.00112 0.0
O59 O 0.89351 0.68693 0.05767 0.0
C60 C 0.87642 0.8163 0.90584 0.0
C61 C 0.76834 0.86643 0.02433 0.0
C62 C 0.41635 0.80891 0.50205 0.0
C63 C 0.28334 0.76144 0.36267 0.0
C64 C 0.04907 0.76329 0.4266 0.0
Mg65 Mg 0.32556 0.79815 0.58893 0.0
Mg66 Mg 0.19415 0.7077 0.60653 0.0
O67 O 0.2197 0.76066 0.57609 0.0
Mg68 Mg 0.23988 0.7521 0.51896 0.0
O69 O 0.26411 0.74818 0.46129 0.0
Mg70 Mg 0.24031 0.81558 0.44825 0.0
Mg71 Mg 0.20876 0.7017 0.43171 0.0
C72 C 0.05197 0.70074 0.5404 0.0
O73 O 0.29059 0.67662 0.52286 0.0
O74 O 0.26531 0.808 0.65165 0.0
O75 O 0.26123 0.64237 0.46469 0.0
O76 O 0.39748 0.73183 0.61 0.0
O77 O 0.17692 0.74565 0.66022 0.0
O78 O 0.31208 0.66831 0.61225 0.0
O79 O 0.19527 0.82601 0.51159 0.0
O80 O 0.2476 0.86129 0.56492 0.0
C81 C 0.20384 0.86245 0.53305 0.0
C82 C 0.21082 0.78416 0.67217 0.0
O83 O 0.10043 0.72403 0.51673 0.0
O84 O 0.28224 0.79813 0.38464 0.0
O85 O 0.0783 0.68647 0.57399 0.0
O86 O 0.10016 0.79872 0.42883 0.0
O87 O 0.26015 0.72068 0.37481 0.0
O88 O 0.07473 0.72124 0.43211 0.0
O89 O 0.37297 0.78264 0.52537 0.0
O90 O 0.38196 0.82557 0.47074 0.0
C91 C 0.38634 0.68767 0.6153 0.0
C92 C 0.29334 0.64138 0.49942 0.0
C93 C 0.9415 0.30853 0.48484 0.0
C94 C 0.82797 0.23831 0.34939 0.0
C95 C 0.58344 0.25923 0.40239 0.0
Mg96 Mg 0.84336 0.31073 0.56853 0.0
Mg97 Mg 0.69027 0.23317 0.59257 0.0
O98 O 0.73099 0.27823 0.55708 0.0
Mg99 Mg 0.75898 0.25922 0.50205 0.0
O100 O 0.79145 0.24451 0.44677 0.0
Mg101 Mg 0.7777 0.30933 0.42501 0.0
Mg102 Mg 0.73387 0.195 0.42169 0.0
C103 C 0.56342 0.21767 0.52091 0.0
O104 O 0.79958 0.18405 0.5169 0.0
O105 O 0.78518 0.33105 0.62927 0.0
O106 O 0.7711 0.14032 0.4633 0.0
O107 O 0.90083 0.24321 0.59566 0.0
O108 O 0.67874 0.27925 0.64241 0.0
O109 O 0.79869 0.18804 0.60401 0.0
O110 O 0.72355 0.33288 0.48524 0.0
O111 O 0.77648 0.37253 0.53672 0.0
C112 C 0.73541 0.37145 0.50396 0.0
C113 C 0.72472 0.31523 0.6515 0.0
O114 O 0.62082 0.23343 0.49733 0.0
O115 O 0.82984 0.27866 0.36633 0.0
O116 O 0.57697 0.21236 0.55781 0.0
O117 O 0.63787 0.29328 0.40306 0.0
O118 O 0.79523 0.20159 0.36532 0.0
O119 O 0.6036 0.21788 0.41353 0.0
O120 O 0.89175 0.28686 0.50855 0.0
O121 O 0.91609 0.31982 0.4503 0.0
C122 C 0.87753 0.20147 0.60509 0.0
C123 C 0.79869 0.14465 0.49865 0.0
H124 H 0.56348 0.16582 0.97142 0.0
C125 C 0.5337 0.18367 0.99613 0.0
H126 H 0.54438 0.23793 0.03793 0.0
H127 H 0.95333 0.19345 0.98565 0.0
H128 H 0.93579 0.12059 0.02138 0.0
H129 H 0.79513 0.0984 0.0496 0.0
H130 H 0.66996 0.14889 0.04203 0.0
C131 C 0.57746 0.21692 0.01588 0.0
C132 C 0.66453 0.23255 0.00294 0.0
C133 C 0.73733 0.20324 0.00837 0.0
C134 C 0.81919 0.21693 0.99317 0.0
C135 C 0.89007 0.18583 0.99759 0.0
C136 C 0.88097 0.14365 0.01783 0.0
C137 C 0.80158 0.13108 0.0337 0.0
C138 C 0.73027 0.16029 0.029 0.0
H139 H 0.97049 0.28874 0.01051 0.0
C140 C 0.98017 0.28595 0.97905 0.0
H141 H 0.92153 0.26867 0.92504 0.0
H142 H 0.5382 0.29815 0.98925 0.0
H143 H 0.55701 0.37349 0.95737 0.0
H144 H 0.7003 0.39871 0.93346 0.0
H145 H 0.82575 0.34808 0.94054 0.0
C146 C 0.91287 0.27423 0.95628 0.0
C147 C 0.82836 0.26084 0.97378 0.0
C148 C 0.7563 0.29106 0.96995 0.0
C149 C 0.67407 0.27685 0.98441 0.0
C150 C 0.60256 0.30732 0.97934 0.0
C151 C 0.61242 0.35075 0.96112 0.0
C152 C 0.69308 0.36489 0.94753 0.0
C153 C 0.76443 0.33551 0.95176 0.0
H154 H 0.0352 0.70277 0.98547 0.0
C155 C 0.01616 0.70054 0.01608 0.0
H156 H 0.05711 0.7113 0.07451 0.0
H157 H 0.44862 0.69621 0.00423 0.0
H158 H 0.43814 0.61838 0.03275 0.0
H159 H 0.30015 0.58959 0.06015 0.0
H160 H 0.17209 0.63924 0.0603 0.0
C161 C 0.07523 0.70987 0.04378 0.0
C162 C 0.16116 0.7286 0.032 0.0
C163 C 0.23462 0.69911 0.03185 0.0
C164 C 0.31368 0.71552 0.01551 0.0
C165 C 0.38664 0.68546 0.01599 0.0
C166 C 0.38152 0.64069 0.03226 0.0
C167 C 0.30383 0.62452 0.04777 0.0
C168 C 0.23088 0.65321 0.04755 0.0
H169 H 0.44816 0.81067 0.02901 0.0
C170 C 0.46052 0.7998 0.99898 0.0
H171 H 0.41373 0.76071 0.95102 0.0
H172 H 0.03724 0.79727 0.03533 0.0
H173 H 0.05097 0.87702 0.01123 0.0
H174 H 0.18557 0.90427 0.97986 0.0
H175 H 0.3094 0.85223 0.97393 0.0
C176 C 0.39897 0.77656 0.97924 0.0
C177 C 0.31852 0.76131 0.99923 0.0
C178 C 0.24671 0.79184 0.00171 0.0
C179 C 0.16815 0.77568 0.01864 0.0
C180 C 0.09784 0.8073 0.02179 0.0
C181 C 0.10477 0.85321 0.0081 0.0
C182 C 0.18087 0.86861 0.99064 0.0
C183 C 0.25132 0.83842 0.9874 0.0
H184 H 0.54842 0.83129 0.48504 0.0
C185 C 0.51182 0.81 0.50563 0.0
H186 H 0.51827 0.75611 0.54811 0.0
H187 H 0.85617 0.67864 0.46082 0.0
H188 H 0.74899 0.64227 0.41838 0.0
H189 H 0.59458 0.66337 0.42394 0.0
H190 H 0.54611 0.72007 0.47209 0.0
C191 C 0.55395 0.77919 0.5286 0.0
C192 C 0.64784 0.76927 0.52349 0.0
C193 C 0.67487 0.73489 0.49588 0.0
C194 C 0.7639 0.72268 0.49271 0.0
C195 C 0.78928 0.68894 0.46447 0.0
C196 C 0.7285 0.66783 0.43997 0.0
C197 C 0.64155 0.67956 0.44316 0.0
C198 C 0.61458 0.71238 0.47088 0.0
H199 H 0.91831 0.67462 0.54941 0.0
C200 C 0.95785 0.69906 0.53272 0.0
H201 H 0.95846 0.76144 0.49946 0.0
H202 H 0.61807 0.83728 0.57837 0.0
H203 H 0.72593 0.87508 0.61969 0.0
H204 H 0.87969 0.8527 0.61521 0.0
H205 H 0.92734 0.79368 0.56881 0.0
C206 C 0.91937 0.73421 0.51301 0.0
C207 C 0.82553 0.74454 0.51737 0.0
C208 C 0.79861 0.77921 0.54474 0.0
C209 C 0.7097 0.7916 0.54776 0.0
C210 C 0.68479 0.82645 0.57513 0.0
C211 C 0.7459 0.84836 0.59899 0.0
C212 C 0.83257 0.83593 0.59638 0.0
C213 C 0.85904 0.80191 0.56959 0.0
H214 H 0.04915 0.30285 0.52582 0.0
C215 C 0.03333 0.31065 0.49549 0.0
H216 H 0.08113 0.31456 0.4378 0.0
H217 H 0.40954 0.29526 0.56816 0.0
H218 H 0.37022 0.37294 0.59004 0.0
H219 H 0.24651 0.41479 0.56081 0.0
H220 H 0.16058 0.37814 0.50969 0.0
C221 C 0.09652 0.30977 0.46853 0.0
C222 C 0.18216 0.29003 0.47955 0.0
C223 C 0.23249 0.31198 0.509 0.0
C224 C 0.30433 0.28808 0.52543 0.0
C225 C 0.35367 0.31122 0.55468 0.0
C226 C 0.33232 0.35625 0.56735 0.0
C227 C 0.26244 0.37965 0.55106 0.0
C228 C 0.21313 0.35803 0.52208 0.0
H229 H 0.46848 0.22046 0.47373 0.0
C230 C 0.47523 0.2149 0.50508 0.0
H231 H 0.41164 0.21656 0.55952 0.0
H232 H 0.10689 0.24072 0.41925 0.0
H233 H 0.15059 0.16473 0.39462 0.0
H234 H 0.27252 0.12206 0.42447 0.0
H235 H 0.35133 0.15545 0.47915 0.0
C236 C 0.40518 0.21931 0.52795 0.0
C237 C 0.32652 0.2424 0.51192 0.0
C238 C 0.2788 0.22146 0.48099 0.0
C239 C 0.20741 0.24567 0.46434 0.0
C240 C 0.16145 0.2241 0.43323 0.0
C241 C 0.18576 0.18029 0.41878 0.0
C242 C 0.25446 0.15633 0.43552 0.0
C243 C 0.29986 0.17619 0.46661 0.0
H244 H 0.64275 0.59396 0.03609 0.0
C245 C 0.66947 0.5963 0.00669 0.0
H246 H 0.66779 0.56745 0.94967 0.0
H247 H 0.52302 0.38412 0.04953 0.0
H248 H 0.6729 0.37416 0.06857 0.0
H249 H 0.78286 0.43353 0.05123 0.0
H250 H 0.74335 0.50355 0.01497 0.0
C251 C 0.64709 0.56376 0.97991 0.0
C252 C 0.58184 0.52669 0.98913 0.0
C253 C 0.60573 0.48614 0.01047 0.0
C254 C 0.54231 0.4517 0.02014 0.0
C255 C 0.56822 0.41156 0.04156 0.0
C256 C 0.65417 0.40531 0.05259 0.0
C257 C 0.7161 0.43872 0.04279 0.0
C258 C 0.69253 0.47877 0.02204 0.0
H259 H 0.37787 0.39344 0.96178 0.0
C260 C 0.3585 0.39027 0.99227 0.0
H261 H 0.37564 0.41651 0.04959 0.0
H262 H 0.51482 0.59957 0.94686 0.0
H263 H 0.36509 0.60945 0.92742 0.0
H264 H 0.25482 0.55033 0.94496 0.0
H265 H 0.29372 0.48069 0.98175 0.0
C266 C 0.38943 0.42123 0.01865 0.0
C267 C 0.45525 0.4574 0.00783 0.0
C268 C 0.43151 0.4978 0.98619 0.0
C269 C 0.49499 0.53226 0.97656 0.0
C270 C 0.46937 0.5723 0.95497 0.0
C271 C 0.3836 0.57845 0.94366 0.0
C272 C 0.3215 0.54516 0.95354 0.0
C273 C 0.34477 0.50526 0.97456 0.0
H274 H 0.64417 0.40867 0.46573 0.0
C275 C 0.68364 0.41238 0.4919 0.0
H276 H 0.70827 0.45302 0.5424 0.0
H277 H 0.45734 0.58531 0.42528 0.0
H278 H 0.57794 0.58582 0.38013 0.0
H279 H 0.71019 0.54064 0.394 0.0
H280 H 0.72175 0.49384 0.45296 0.0
C281 C 0.67197 0.44989 0.51531 0.0
C282 C 0.5973 0.48208 0.50905 0.0
C283 C 0.59158 0.50963 0.47467 0.0
C284 C 0.51567 0.53629 0.46709 0.0
C285 C 0.51251 0.56378 0.43254 0.0
C286 C 0.58165 0.56463 0.40634 0.0
C287 C 0.65608 0.53916 0.41412 0.0
C288 C 0.66154 0.51213 0.44792 0.0
H289 H 0.38322 0.60508 0.53873 0.0
C290 C 0.34866 0.60168 0.51115 0.0
H291 H 0.33699 0.56354 0.45853 0.0
H292 H 0.59056 0.43677 0.5799 0.0
H293 H 0.47186 0.43761 0.62606 0.0
H294 H 0.33691 0.47996 0.61119 0.0
H295 H 0.32113 0.52285 0.55051 0.0
C296 C 0.36877 0.56618 0.48679 0.0
C297 C 0.4458 0.53588 0.49423 0.0
C298 C 0.45217 0.50876 0.52895 0.0
C299 C 0.5288 0.4828 0.53679 0.0
C300 C 0.53416 0.45713 0.57222 0.0
C301 C 0.46626 0.45715 0.59904 0.0
C302 C 0.39042 0.48111 0.59073 0.0
C303 C 0.38263 0.50609 0.55593 0.0
H304 H 0.20472 0.04856 0.9612 0.0
C305 C 0.1845 0.0802 0.97655 0.0
H306 H 0.08676 0.11223 0.01043 0.0
H307 H 0.8721 0.9385 0.92392 0.0
H308 H 0.90196 0.97971 0.86328 0.0
H309 H 0.99619 0.04977 0.86265 0.0
H310 H 0.06156 0.07867 0.9224 0.0
C311 C 0.10798 0.08064 0.99537 0.0
C312 C 0.04873 0.03914 0.99545 0.0
C313 C 0.00987 0.0231 0.96017 0.0
C314 C 0.95463 0.98299 0.96053 0.0
C315 C 0.91594 0.96813 0.92506 0.0
C316 C 0.93187 0.99174 0.89013 0.0
C317 C 0.98499 0.03113 0.88979 0.0
C318 C 0.02296 0.04706 0.92432 0.0
H319 H 0.78469 0.94302 0.03087 0.0
C320 C 0.80855 0.91228 0.01532 0.0
H321 H 0.90904 0.88492 0.98024 0.0
H322 H 0.10365 0.06419 0.06866 0.0
H323 H 0.07355 0.02309 0.12923 0.0
H324 H 0.98646 0.9504 0.12934 0.0
H325 H 0.92708 0.91915 0.06925 0.0
C326 C 0.88364 0.9154 0.99559 0.0
C327 C 0.93761 0.95907 0.99604 0.0
C328 C 0.97551 0.9756 0.03146 0.0
C329 C 0.02902 0.01641 0.03122 0.0
C330 C 0.06345 0.03307 0.06709 0.0
C331 C 0.04695 0.00975 0.10208 0.0
C332 C 0.99768 0.96892 0.10216 0.0
C333 C 0.96299 0.95165 0.06736 0.0
H334 H 0.87163 0.11134 0.5463 0.0
C335 C 0.84363 0.10511 0.51755 0.0
H336 H 0.84022 0.06006 0.46856 0.0
H337 H 0.21794 0.98531 0.4914 0.0
H338 H 0.23133 0.03136 0.43207 0.0
H339 H 0.10972 0.07961 0.40863 0.0
H340 H 0.97516 0.08308 0.44475 0.0
C341 C 0.86416 0.06564 0.49811 0.0
C342 C 0.93557 0.03495 0.51211 0.0
C343 C 0.0139 0.03327 0.4904 0.0
C344 C 0.0833 0.00458 0.50331 0.0
C345 C 0.162 0.00505 0.482 0.0
C346 C 0.1709 0.03172 0.44813 0.0
C347 C 0.10257 0.05901 0.43502 0.0
C348 C 0.02527 0.06035 0.45597 0.0
H349 H 0.1204 0.90365 0.4943 0.0
C350 C 0.15382 0.90438 0.5223 0.0
H351 H 0.16865 0.94044 0.57597 0.0
H352 H 0.79417 0.02964 0.56039 0.0
H353 H 0.78276 0.98514 0.62062 0.0
H354 H 0.90427 0.93662 0.64365 0.0
H355 H 0.03721 0.93143 0.6063 0.0
C356 C 0.13955 0.94031 0.54704 0.0
C357 C 0.07354 0.97653 0.53728 0.0
C358 C 0.99686 0.97988 0.56003 0.0
C359 C 0.92736 0.00872 0.54719 0.0
C360 C 0.84994 0.00954 0.5694 0.0
C361 C 0.84225 0.98388 0.60389 0.0
C362 C 0.91057 0.95642 0.6168 0.0
C363 C 0.98674 0.95389 0.59507 0.0
H364 H 0.49518 0.29955 0.36537 0.0
C365 C 0.50302 0.26588 0.37992 0.0
H366 H 0.46479 0.19472 0.38096 0.0
H367 H 0.21698 0.2935 0.24271 0.0
H368 H 0.12958 0.3224 0.29666 0.0
H369 H 0.1748 0.31005 0.36513 0.0
H370 H 0.30761 0.26803 0.38002 0.0
C371 C 0.456 0.22894 0.36753 0.0
C372 C 0.41985 0.23016 0.32728 0.0
C373 C 0.34383 0.25572 0.31896 0.0
C374 C 0.31859 0.26321 0.27942 0.0
C375 C 0.2403 0.28742 0.2721 0.0
C376 C 0.18932 0.30409 0.30283 0.0
C377 C 0.21477 0.29716 0.34139 0.0
C378 C 0.29117 0.27327 0.34954 0.0
H379 H 0.34464 0.18321 0.19127 0.0
C380 C 0.3337 0.21904 0.18149 0.0
H381 H 0.33186 0.2906 0.19775 0.0
H382 H 0.55853 0.17051 0.33333 0.0
H383 H 0.64442 0.13965 0.27988 0.0
H384 H 0.61697 0.16443 0.21196 0.0
H385 H 0.49699 0.21563 0.19674 0.0
C386 C 0.34491 0.25475 0.20683 0.0
C387 C 0.37115 0.24622 0.24826 0.0
C388 C 0.44747 0.22042 0.25686 0.0
C389 C 0.46879 0.21014 0.29634 0.0
C390 C 0.54082 0.1808 0.30398 0.0
C391 C 0.59139 0.16319 0.2736 0.0
C392 C 0.57515 0.17658 0.23532 0.0
C393 C 0.5049 0.20538 0.22694 0.0
H394 H 0.46315 0.68638 0.13483 0.0
C395 C 0.46631 0.72036 0.12038 0.0
H396 H 0.41699 0.78919 0.11892 0.0
H397 H 0.19958 0.68342 0.26463 0.0
H398 H 0.115 0.64594 0.21358 0.0
H399 H 0.1524 0.65674 0.1439 0.0
H400 H 0.27432 0.70581 0.12491 0.0
C401 C 0.41382 0.75494 0.13282 0.0
C402 C 0.38227 0.75333 0.17394 0.0
C403 C 0.3125 0.72391 0.1847 0.0
C404 C 0.29194 0.71732 0.22496 0.0
C405 C 0.21951 0.68904 0.23465 0.0
C406 C 0.17011 0.66743 0.20559 0.0
C407 C 0.19114 0.67348 0.16635 0.0
C408 C 0.26141 0.70145 0.15584 0.0
H409 H 0.31312 0.80354 0.31045 0.0
C410 C 0.3074 0.76776 0.32123 0.0
H411 H 0.3143 0.69573 0.30702 0.0
H412 H 0.51025 0.81927 0.16314 0.0
H413 H 0.5962 0.85634 0.21351 0.0
H414 H 0.57787 0.8344 0.28282 0.0
H415 H 0.46772 0.77862 0.30222 0.0
C416 C 0.32176 0.73157 0.29666 0.0
C417 C 0.34325 0.73911 0.25445 0.0
C418 C 0.41399 0.76827 0.2434 0.0
C419 C 0.43013 0.77745 0.20318 0.0
C420 C 0.49646 0.80976 0.19311 0.0
C421 C 0.54679 0.83123 0.22177 0.0
C422 C 0.53591 0.81922 0.26079 0.0
C423 C 0.47123 0.78767 0.27158 0.0
H424 H 0.43626 0.63841 0.65821 0.0
C425 C 0.45627 0.66143 0.6345 0.0
H426 H 0.55725 0.69865 0.60818 0.0
H427 H 0.66712 0.78386 0.77003 0.0
H428 H 0.64743 0.85224 0.72886 0.0
H429 H 0.5993 0.84366 0.66051 0.0
H430 H 0.57368 0.76724 0.63247 0.0
C431 C 0.53822 0.6772 0.63297 0.0
C432 C 0.58802 0.68158 0.67014 0.0
C433 C 0.60472 0.72714 0.68555 0.0
C434 C 0.62947 0.73232 0.72535 0.0
C435 C 0.64575 0.77804 0.74025 0.0
C436 C 0.63524 0.81761 0.71691 0.0
C437 C 0.60849 0.81275 0.6784 0.0
C438 C 0.5936 0.76828 0.6627 0.0
H439 H 0.76293 0.66936 0.80109 0.0
C440 C 0.71062 0.68959 0.81407 0.0
H441 H 0.58898 0.72095 0.80586 0.0
H442 H 0.58594 0.5902 0.64637 0.0
H443 H 0.60925 0.52146 0.68738 0.0
H444 H 0.64167 0.53049 0.75779 0.0
H445 H 0.6516 0.60769 0.78747 0.0
C446 C 0.64024 0.69994 0.79284 0.0
C447 C 0.63548 0.69234 0.74983 0.0
C448 C 0.6274 0.64671 0.73347 0.0
C449 C 0.60561 0.64143 0.69324 0.0
C450 C 0.59993 0.59574 0.67709 0.0
C451 C 0.61344 0.5562 0.70022 0.0
C452 C 0.63176 0.56127 0.73984 0.0
C453 C 0.63792 0.60589 0.75651 0.0
H454 H 0.42723 0.35712 0.84302 0.0
C455 C 0.45353 0.33448 0.86548 0.0
H456 H 0.55988 0.30382 0.8916 0.0
H457 H 0.77327 0.26324 0.7464 0.0
H458 H 0.83532 0.21255 0.7963 0.0
H459 H 0.79464 0.22195 0.86581 0.0
H460 H 0.69128 0.2814 0.88568 0.0
C461 C 0.53951 0.32808 0.8691 0.0
C462 C 0.60177 0.34069 0.83696 0.0
C463 C 0.66672 0.3078 0.82667 0.0
C464 C 0.69196 0.30325 0.78686 0.0
C465 C 0.75225 0.26804 0.77638 0.0
C466 C 0.78848 0.23896 0.80471 0.0
C467 C 0.76541 0.24416 0.84382 0.0
C468 C 0.70501 0.27801 0.85482 0.0
H469 H 0.753 0.36675 0.69867 0.0
C470 C 0.71239 0.33714 0.69038 0.0
H471 H 0.61974 0.28749 0.70913 0.0
H472 H 0.52604 0.42453 0.85347 0.0
H473 H 0.48088 0.48356 0.80557 0.0
H474 H 0.51083 0.47203 0.73516 0.0
H475 H 0.59187 0.40387 0.7124 0.0
C476 C 0.65763 0.31841 0.71664 0.0
C477 C 0.65524 0.33309 0.75829 0.0
C478 C 0.60669 0.37263 0.77036 0.0
C479 C 0.58353 0.37755 0.81041 0.0
C480 C 0.5405 0.41864 0.8228 0.0
C481 C 0.51493 0.45248 0.79577 0.0
C482 C 0.53218 0.44608 0.7561 0.0
C483 C 0.57815 0.40677 0.74336 0.0
H484 H 0.90737 0.75423 0.41942 0.0
C485 C 0.96564 0.76958 0.40706 0.0
H486 H 0.02736 0.79961 0.35837 0.0
H487 H 0.72437 0.69624 0.25765 0.0
H488 H 0.75198 0.6239 0.29322 0.0
H489 H 0.84968 0.62352 0.35024 0.0
H490 H 0.91736 0.6949 0.37279 0.0
C491 C 0.96721 0.78548 0.37015 0.0
C492 C 0.89301 0.78433 0.34263 0.0
C493 C 0.85813 0.74102 0.32898 0.0
C494 C 0.80692 0.74042 0.29445 0.0
C495 C 0.76761 0.69779 0.28251 0.0
C496 C 0.78238 0.65623 0.30279 0.0
C497 C 0.83708 0.65608 0.33498 0.0
C498 C 0.8752 0.69773 0.34786 0.0
H499 H 0.8578 0.72835 0.21288 0.0
C500 C 0.80641 0.75208 0.20409 0.0
H501 H 0.71527 0.80247 0.2217 0.0
H502 H 0.93033 0.87346 0.36692 0.0
H503 H 0.89672 0.94584 0.3325 0.0
H504 H 0.81763 0.94395 0.26984 0.0
H505 H 0.77094 0.87015 0.24148 0.0
C506 C 0.76711 0.77954 0.23081 0.0
C507 C 0.79719 0.78197 0.27212 0.0
C508 C 0.82288 0.82573 0.28822 0.0
C509 C 0.87001 0.82682 0.32384 0.0
C510 C 0.89584 0.8708 0.33944 0.0
C511 C 0.87663 0.91252 0.32012 0.0
C512 C 0.832 0.91145 0.28487 0.0
C513 C 0.80553 0.86869 0.26889 0.0
H514 H 0.9141 0.25697 0.30024 0.0
C515 C 0.86012 0.23481 0.30897 0.0
H516 H 0.76414 0.18699 0.29171 0.0
H517 H 0.98065 0.2871 0.14051 0.0
H518 H 0.93108 0.36136 0.16568 0.0
H519 H 0.83471 0.36499 0.22323 0.0
H520 H 0.79165 0.29368 0.257 0.0
C521 C 0.81909 0.2078 0.28242 0.0
C522 C 0.84784 0.20459 0.24078 0.0
C523 C 0.86365 0.2459 0.21875 0.0
C524 C 0.91144 0.2433 0.18323 0.0
C525 C 0.93829 0.28595 0.16552 0.0
C526 C 0.911 0.32925 0.18002 0.0
C527 C 0.85729 0.33134 0.21255 0.0
C528 C 0.83383 0.29025 0.23186 0.0
H529 H 0.93445 0.23286 0.09177 0.0
C530 C 0.99203 0.21337 0.0999 0.0
H531 H 0.05815 0.17601 0.14364 0.0
H532 H 0.81218 0.11747 0.27176 0.0
H533 H 0.83974 0.04223 0.24114 0.0
H534 H 0.90728 0.03751 0.17576 0.0
H535 H 0.94882 0.10836 0.14092 0.0
C536 C -0.00131 0.19399 0.1356 0.0
C537 C 0.93333 0.19859 0.16734 0.0
C538 C 0.90505 0.15716 0.18646 0.0
C539 C 0.86384 0.16001 0.22362 0.0
C540 C 0.84191 0.11773 0.24313 0.0
C541 C 0.85753 0.07413 0.22589 0.0
C542 C 0.8957 0.07145 0.18913 0.0
C543 C 0.91955 0.11234 0.16955 0.0
H544 H 0.2714 0.14825 0.78036 0.0
C545 C 0.22387 0.17279 0.79183 0.0
H546 H 0.11124 0.21198 0.78018 0.0
H547 H 0.14633 0.24198 0.60321 0.0
H548 H 0.22891 0.3093 0.62471 0.0
H549 H 0.28069 0.31554 0.69275 0.0
H550 H 0.24803 0.2543 0.74003 0.0
C551 C 0.15782 0.18661 0.7692 0.0
C552 C 0.15231 0.17514 0.72692 0.0
C553 C 0.17406 0.21034 0.69941 0.0
C554 C 0.14397 0.20673 0.66025 0.0
C555 C 0.16508 0.24309 0.6336 0.0
C556 C 0.21373 0.28184 0.64543 0.0
C557 C 0.24274 0.28539 0.68377 0.0
C558 C 0.22328 0.25016 0.7106 0.0
H559 H 0.91828 0.15278 0.6505 0.0
C560 C 0.94099 0.17123 0.62464 0.0
H561 H 0.04544 0.19331 0.59072 0.0
H562 H 0.11974 0.09627 0.77005 0.0
H563 H 0.05195 0.02418 0.74645 0.0
H564 H 0.00536 0.01678 0.67759 0.0
H565 H 0.02445 0.08209 0.63201 0.0
C566 C 0.02618 0.17511 0.61717 0.0
C567 C 0.09012 0.16839 0.64943 0.0
C568 C 0.08348 0.1292 0.6748 0.0
C569 C 0.11293 0.13295 0.71406 0.0
C570 C 0.09952 0.09479 0.73977 0.0
C571 C 0.06097 0.05333 0.72655 0.0
C572 C 0.03459 0.04916 0.68775 0.0
C573 C 0.0454 0.08668 0.66203 0.0
H574 H 0.13771 0.77766 0.72653 0.0
C575 C 0.18094 0.80109 0.7106 0.0
H576 H 0.23957 0.86871 0.71116 0.0
H577 H 0.87655 0.84341 0.81695 0.0
H578 H 0.80723 0.85596 0.7549 0.0
H579 H 0.89295 0.87234 0.69555 0.0
H580 H 0.05034 0.87515 0.69841 0.0
C581 C 0.19679 0.8439 0.72565 0.0
C582 C 0.15002 0.85746 0.76214 0.0
C583 C 0.05869 0.86083 0.76112 0.0
C584 C 0.00957 0.85377 0.79584 0.0
C585 C 0.9182 0.85103 0.7925 0.0
C586 C 0.87706 0.85785 0.75669 0.0
C587 C 0.92529 0.86696 0.72325 0.0
C588 C 0.01517 0.86829 0.72525 0.0
H589 H 0.92261 0.88141 0.87732 0.0
C590 C 0.94011 0.84558 0.88464 0.0
H591 H 0.02485 0.78934 0.87282 0.0
H592 H 0.3237 0.86092 0.77448 0.0
H593 H 0.39665 0.85568 0.83758 0.0
H594 H 0.31255 0.84784 0.8987 0.0
H595 H 0.15501 0.84489 0.89726 0.0
C596 C 0.00697 0.82529 0.86596 0.0
C597 C 0.05308 0.84684 0.83212 0.0
C598 C 0.14449 0.85089 0.83366 0.0
C599 C 0.19309 0.8559 0.79853 0.0
C600 C 0.28436 0.85718 0.80054 0.0
C601 C 0.32669 0.85437 0.83646 0.0
C602 C 0.27929 0.84996 0.87091 0.0
C603 C 0.18918 0.84813 0.8697 0.0
loop_
_geom_bond_atom_site_label_1
_geom_bond_atom_site_label_2
_geom_bond_distance
_geom_bond_site_symmetry_2
_ccdc_geom_bond_type
C0 O27 1.312 1_554 S
C0 O28 1.208 . S
C1 O22 1.331 . S
C1 O25 1.244 . S
C2 O24 1.264 . S
C2 O26 1.273 . S
Mg3 O5 1.936 . S
Mg3 O12 2.081 . S
Mg3 O14 2.023 . S
Mg3 O18 2.031 . S
Mg3 O27 2.291 . S
Mg4 O5 1.963 . S
Mg4 O15 1.942 . S
Mg4 O16 1.955 . S
Mg4 O23 1.986 . S
O5 Mg3 1.936 . S
O5 Mg4 1.963 . S
O5 Mg6 1.915 1_556 S
Mg6 O5 1.915 1_554 S
Mg6 O7 1.915 . S
Mg6 O11 2.013 1_554 S
Mg6 O17 2.114 . S
Mg6 O21 2.013 . S
Mg6 O27 2.114 1_554 S
O7 Mg6 1.915 . S
O7 Mg8 1.936 . S
O7 Mg9 1.963 . S
Mg8 O7 1.936 . S
Mg8 O17 2.291 . S
Mg8 O22 2.081 . S
Mg8 O24 2.023 . S
Mg8 O28 2.031 . S
Mg9 O7 1.963 . S
Mg9 O13 1.986 . S
Mg9 O25 1.942 . S
Mg9 O26 1.955 . S
C10 O21 1.191 1_556 S
C10 O23 1.307 . S
O11 Mg6 2.013 1_556 S
O11 C30 1.191 1_556 S
O12 Mg3 2.081 . S
O12 C20 1.331 . S
O13 Mg9 1.986 . S
O13 C30 1.307 . S
O14 Mg3 2.023 . S
O14 C29 1.264 . S
O15 Mg4 1.942 . S
O15 C20 1.244 . S
O16 Mg4 1.955 . S
O16 C29 1.273 . S
O17 Mg6 2.114 . S
O17 Mg8 2.291 . S
O17 C19 1.312 1_554 S
O18 Mg3 2.031 . S
O18 C19 1.208 . S
C19 O17 1.312 1_556 S
C19 O18 1.208 . S
C20 O12 1.331 . S
C20 O15 1.244 . S
O21 Mg6 2.013 . S
O21 C10 1.191 1_554 S
O22 C1 1.331 . S
O22 Mg8 2.081 . S
O23 Mg4 1.986 . S
O23 C10 1.307 . S
O24 C2 1.264 . S
O24 Mg8 2.023 . S
O25 C1 1.244 . S
O25 Mg9 1.942 . S
O26 C2 1.273 . S
O26 Mg9 1.955 . S
O27 C0 1.312 1_556 S
O27 Mg3 2.291 . S
O27 Mg6 2.114 1_556 S
O28 C0 1.208 . S
O28 Mg8 2.031 . S
C29 O14 1.264 . S
C29 O16 1.273 . S
C30 O11 1.191 1_554 S
C30 O13 1.307 . S
C31 O58 1.312 1_554 S
C31 O59 1.208 . S
C32 O53 1.331 . S
C32 O56 1.244 . S
C33 O55 1.264 . S
C33 O57 1.273 . S
Mg34 O36 1.936 . S
Mg34 O43 2.081 . S
Mg34 O45 2.023 . S
Mg34 O49 2.031 . S
Mg34 O58 2.291 . S
Mg35 O36 1.963 . S
Mg35 O46 1.942 . S
Mg35 O47 1.955 . S
Mg35 O54 1.986 . S
O36 Mg34 1.936 . S
O36 Mg35 1.963 . S
O36 Mg37 1.915 1_556 S
Mg37 O36 1.915 1_554 S
Mg37 O38 1.915 . S
Mg37 O42 2.013 1_554 S
Mg37 O48 2.114 . S
Mg37 O52 2.013 . S
Mg37 O58 2.114 1_554 S
O38 Mg37 1.915 . S
O38 Mg39 1.936 . S
O38 Mg40 1.963 . S
Mg39 O38 1.936 . S
Mg39 O48 2.291 . S
Mg39 O53 2.081 . S
Mg39 O55 2.023 . S
Mg39 O59 2.031 . S
Mg40 O38 1.963 . S
Mg40 O44 1.986 . S
Mg40 O56 1.942 . S
Mg40 O57 1.955 . S
C41 O52 1.191 1_556 S
C41 O54 1.307 . S
O42 Mg37 2.013 1_556 S
O42 C61 1.191 1_556 S
O43 Mg34 2.081 . S
O43 C51 1.331 . S
O44 Mg40 1.986 . S
O44 C61 1.307 . S
O45 Mg34 2.023 . S
O45 C60 1.264 . S
O46 Mg35 1.942 . S
O46 C51 1.244 . S
O47 Mg35 1.955 . S
O47 C60 1.273 . S
O48 Mg37 2.114 . S
O48 Mg39 2.291 . S
O48 C50 1.312 1_554 S
O49 Mg34 2.031 . S
O49 C50 1.208 . S
C50 O48 1.312 1_556 S
C50 O49 1.208 . S
C51 O43 1.331 . S
C51 O46 1.244 . S
O52 Mg37 2.013 . S
O52 C41 1.191 1_554 S
O53 C32 1.331 . S
O53 Mg39 2.081 . S
O54 Mg35 1.986 . S
O54 C41 1.307 . S
O55 C33 1.264 . S
O55 Mg39 2.023 . S
O56 C32 1.244 . S
O56 Mg40 1.942 . S
O57 C33 1.273 . S
O57 Mg40 1.955 . S
O58 C31 1.312 1_556 S
O58 Mg34 2.291 . S
O58 Mg37 2.114 1_556 S
O59 C31 1.208 . S
O59 Mg39 2.031 . S
C60 O45 1.264 . S
C60 O47 1.273 . S
C61 O42 1.191 1_554 S
C61 O44 1.307 . S
C62 O89 1.312 . S
C62 O90 1.208 . S
C63 O84 1.331 . S
C63 O87 1.244 . S
C64 O86 1.264 . S
C64 O88 1.273 . S
Mg65 O67 1.936 . S
Mg65 O74 2.081 . S
Mg65 O76 2.023 . S
Mg65 O80 2.031 . S
Mg65 O89 2.291 . S
Mg66 O67 1.963 . S
Mg66 O77 1.942 . S
Mg66 O78 1.955 . S
Mg66 O85 1.986 . S
O67 Mg65 1.936 . S
O67 Mg66 1.963 . S
O67 Mg68 1.915 . S
Mg68 O67 1.915 . S
Mg68 O69 1.915 . S
Mg68 O73 2.013 . S
Mg68 O79 2.114 . S
Mg68 O83 2.013 . S
Mg68 O89 2.114 . S
O69 Mg68 1.915 . S
O69 Mg70 1.936 . S
O69 Mg71 1.963 . S
Mg70 O69 1.936 . S
Mg70 O79 2.291 . S
Mg70 O84 2.081 . S
Mg70 O86 2.023 . S
Mg70 O90 2.031 . S
Mg71 O69 1.963 . S
Mg71 O75 1.986 . S
Mg71 O87 1.942 . S
Mg71 O88 1.955 . S
C72 O83 1.191 . S
C72 O85 1.307 . S
O73 Mg68 2.013 . S
O73 C92 1.191 . S
O74 Mg65 2.081 . S
O74 C82 1.331 . S
O75 Mg71 1.986 . S
O75 C92 1.307 . S
O76 Mg65 2.023 . S
O76 C91 1.264 . S
O77 Mg66 1.942 . S
O77 C82 1.244 . S
O78 Mg66 1.955 . S
O78 C91 1.273 . S
O79 Mg68 2.114 . S
O79 Mg70 2.291 . S
O79 C81 1.312 . S
O80 Mg65 2.031 . S
O80 C81 1.208 . S
C81 O79 1.312 . S
C81 O80 1.208 . S
C82 O74 1.331 . S
C82 O77 1.244 . S
O83 Mg68 2.013 . S
O83 C72 1.191 . S
O84 C63 1.331 . S
O84 Mg70 2.081 . S
O85 Mg66 1.986 . S
O85 C72 1.307 . S
O86 C64 1.264 . S
O86 Mg70 2.023 . S
O87 C63 1.244 . S
O87 Mg71 1.942 . S
O88 C64 1.273 . S
O88 Mg71 1.955 . S
O89 C62 1.312 . S
O89 Mg65 2.291 . S
O89 Mg68 2.114 . S
O90 C62 1.208 . S
O90 Mg70 2.031 . S
C91 O76 1.264 . S
C91 O78 1.273 . S
C92 O73 1.191 . S
C92 O75 1.307 . S
C93 O120 1.312 . S
C93 O121 1.208 . S
C94 O115 1.331 . S
C94 O118 1.244 . S
C95 O117 1.264 . S
C95 O119 1.273 . S
Mg96 O98 1.936 . S
Mg96 O105 2.081 . S
Mg96 O107 2.023 . S
Mg96 O111 2.031 . S
Mg96 O120 2.291 . S
Mg97 O98 1.963 . S
Mg97 O108 1.942 . S
Mg97 O109 1.955 . S
Mg97 O116 1.986 . S
O98 Mg96 1.936 . S
O98 Mg97 1.963 . S
O98 Mg99 1.915 . S
Mg99 O98 1.915 . S
Mg99 O100 1.915 . S
Mg99 O104 2.013 . S
Mg99 O110 2.114 . S
Mg99 O114 2.013 . S
Mg99 O120 2.114 . S
O100 Mg99 1.915 . S
O100 Mg101 1.936 . S
O100 Mg102 1.963 . S
Mg101 O100 1.936 . S
Mg101 O110 2.291 . S
Mg101 O115 2.081 . S
Mg101 O117 2.023 . S
Mg101 O121 2.031 . S
Mg102 O100 1.963 . S
Mg102 O106 1.986 . S
Mg102 O118 1.942 . S
Mg102 O119 1.955 . S
C103 O114 1.191 . S
C103 O116 1.307 . S
O104 Mg99 2.013 . S
O104 C123 1.191 . S
O105 Mg96 2.081 . S
O105 C113 1.331 . S
O106 Mg102 1.986 . S
O106 C123 1.307 . S
O107 Mg96 2.023 . S
O107 C122 1.264 . S
O108 Mg97 1.942 . S
O108 C113 1.244 . S
O109 Mg97 1.955 . S
O109 C122 1.273 . S
O110 Mg99 2.114 . S
O110 Mg101 2.291 . S
O110 C112 1.312 . S
O111 Mg96 2.031 . S
O111 C112 1.208 . S
C112 O110 1.312 . S
C112 O111 1.208 . S
C113 O105 1.331 . S
C113 O108 1.244 . S
O114 Mg99 2.013 . S
O114 C103 1.191 . S
O115 C94 1.331 . S
O115 Mg101 2.081 . S
O116 Mg97 1.986 . S
O116 C103 1.307 . S
O117 C95 1.264 . S
O117 Mg101 2.023 . S
O118 C94 1.244 . S
O118 Mg102 1.942 . S
O119 C95 1.273 . S
O119 Mg102 1.955 . S
O120 C93 1.312 . S
O120 Mg96 2.291 . S
O120 Mg99 2.114 . S
O121 C93 1.208 . S
O121 Mg101 2.031 . S
C122 O107 1.264 . S
C122 O109 1.273 . S
C123 O104 1.191 . S
C123 O106 1.307 . S
H124 C125 0.951 . S
C125 H124 0.951 . S
C125 C131 1.265 1_556 S
H126 C131 0.950 . S
H127 C135 0.949 . S
H128 C136 0.950 . S
H129 C137 0.951 . S
H130 C138 0.951 . S
C131 C125 1.265 1_554 S
C131 H126 0.950 . S
C131 C132 1.478 . S
C132 C131 1.478 . S
C132 C133 1.397 . S
C132 C149 1.394 1_554 S
C133 C132 1.397 . S
C133 C134 1.438 . S
C133 C138 1.429 . S
C134 C133 1.438 . S
C134 C135 1.428 . S
C134 C147 1.394 1_554 S
C135 H127 0.949 . S
C135 C134 1.428 . S
C135 C136 1.345 . S
C136 H128 0.950 . S
C136 C135 1.345 . S
C136 C137 1.424 . S
C137 H129 0.951 . S
C137 C136 1.424 . S
C137 C138 1.347 . S
C138 H130 0.951 . S
C138 C133 1.429 . S
C138 C137 1.347 . S
H139 C140 0.951 . S
C140 H139 0.951 . S
C140 C146 1.265 1_554 S
H141 C146 0.950 . S
H142 C150 0.949 . S
H143 C151 0.950 . S
H144 C152 0.951 . S
H145 C153 0.951 . S
C146 C140 1.265 1_556 S
C146 H141 0.950 . S
C146 C147 1.478 . S
C147 C134 1.394 1_556 S
C147 C146 1.478 . S
C147 C148 1.397 . S
C148 C147 1.397 . S
C148 C149 1.438 . S
C148 C153 1.429 . S
C149 C132 1.394 1_556 S
C149 C148 1.438 . S
C149 C150 1.428 . S
C150 H142 0.949 . S
C150 C149 1.428 . S
C150 C151 1.345 . S
C151 H143 0.950 . S
C151 C150 1.345 . S
C151 C152 1.424 . S
C152 H144 0.951 . S
C152 C151 1.424 . S
C152 C153 1.347 . S
C153 H145 0.951 . S
C153 C148 1.429 . S
C153 C152 1.347 . S
H154 C155 0.954 . S
C155 H154 0.954 . S
C155 C161 1.263 1_556 S
H156 C161 0.950 . S
H157 C165 0.949 . S
H158 C166 0.950 . S
H159 C167 0.951 . S
H160 C168 0.951 . S
C161 C155 1.263 1_554 S
C161 H156 0.950 . S
C161 C162 1.478 . S
C162 C161 1.478 . S
C162 C163 1.397 1_554 S
C162 C179 1.394 . S
C163 C162 1.397 1_556 S
C163 C164 1.438 . S
C163 C168 1.429 . S
C164 C163 1.438 . S
C164 C165 1.428 . S
C164 C177 1.394 . S
C165 H157 0.949 . S
C165 C164 1.428 . S
C165 C166 1.345 . S
C166 H158 0.950 . S
C166 C165 1.345 . S
C166 C167 1.424 . S
C167 H159 0.951 . S
C167 C166 1.424 . S
C167 C168 1.347 . S
C168 H160 0.951 . S
C168 C163 1.429 . S
C168 C167 1.347 . S
H169 C170 0.951 . S
C170 H169 0.951 . S
C170 C176 1.265 1_554 S
H171 C176 0.950 . S
H172 C180 0.949 . S
H173 C181 0.950 . S
H174 C182 0.951 . S
H175 C183 0.951 . S
C176 C170 1.265 1_556 S
C176 H171 0.950 . S
C176 C177 1.478 . S
C177 C164 1.394 . S
C177 C176 1.478 . S
C177 C178 1.397 1_556 S
C178 C177 1.397 1_554 S
C178 C179 1.438 . S
C178 C183 1.429 . S
C179 C162 1.394 . S
C179 C178 1.438 . S
C179 C180 1.428 . S
C180 H172 0.949 . S
C180 C179 1.428 . S
C180 C181 1.345 . S
C181 H173 0.950 . S
C181 C180 1.345 . S
C181 C182 1.424 . S
C182 H174 0.951 . S
C182 C181 1.424 . S
C182 C183 1.347 . S
C183 H175 0.951 . S
C183 C178 1.429 . S
C183 C182 1.347 . S
H184 C185 0.951 . S
C185 H184 0.951 . S
C185 C191 1.265 . S
H186 C191 0.950 . S
H187 C195 0.949 . S
H188 C196 0.950 . S
H189 C197 0.951 . S
H190 C198 0.951 . S
C191 C185 1.265 . S
C191 H186 0.950 . S
C191 C192 1.478 . S
C192 C191 1.478 . S
C192 C193 1.397 . S
C192 C209 1.394 . S
C193 C192 1.397 . S
C193 C194 1.438 . S
C193 C198 1.429 . S
C194 C193 1.438 . S
C194 C195 1.428 . S
C194 C207 1.394 . S
C195 H187 0.949 . S
C195 C194 1.428 . S
C195 C196 1.345 . S
C196 H188 0.950 . S
C196 C195 1.345 . S
C196 C197 1.424 . S
C197 H189 0.951 . S
C197 C196 1.424 . S
C197 C198 1.347 . S
C198 H190 0.951 . S
C198 C193 1.429 . S
C198 C197 1.347 . S
H199 C200 0.951 . S
C200 H199 0.951 . S
C200 C206 1.265 . S
H201 C206 0.950 . S
H202 C210 0.949 . S
H203 C211 0.950 . S
H204 C212 0.951 . S
H205 C213 0.951 . S
C206 C200 1.265 . S
C206 H201 0.950 . S
C206 C207 1.478 . S
C207 C194 1.394 . S
C207 C206 1.478 . S
C207 C208 1.397 . S
C208 C207 1.397 . S
C208 C209 1.438 . S
C208 C213 1.429 . S
C209 C192 1.394 . S
C209 C208 1.438 . S
C209 C210 1.428 . S
C210 H202 0.949 . S
C210 C209 1.428 . S
C210 C211 1.345 . S
C211 H203 0.950 . S
C211 C210 1.345 . S
C211 C212 1.424 . S
C212 H204 0.951 . S
C212 C211 1.424 . S
C212 C213 1.347 . S
C213 H205 0.951 . S
C213 C208 1.429 . S
C213 C212 1.347 . S
H214 C215 0.951 . S
C215 H214 0.951 . S
C215 C221 1.265 . S
H216 C221 0.950 . S
H217 C225 0.949 . S
H218 C226 0.950 . S
H219 C227 0.951 . S
H220 C228 0.951 . S
C221 C215 1.265 . S
C221 H216 0.950 . S
C221 C222 1.478 . S
C222 C221 1.478 . S
C222 C223 1.397 . S
C222 C239 1.394 . S
C223 C222 1.397 . S
C223 C224 1.438 . S
C223 C228 1.429 . S
C224 C223 1.438 . S
C224 C225 1.428 . S
C224 C237 1.394 . S
C225 H217 0.949 . S
C225 C224 1.428 . S
C225 C226 1.345 . S
C226 H218 0.950 . S
C226 C225 1.345 . S
C226 C227 1.424 . S
C227 H219 0.951 . S
C227 C226 1.424 . S
C227 C228 1.347 . S
C228 H220 0.951 . S
C228 C223 1.429 . S
C228 C227 1.347 . S
H229 C230 0.951 . S
C230 H229 0.951 . S
C230 C236 1.265 . S
H231 C236 0.950 . S
H232 C240 0.949 . S
H233 C241 0.950 . S
H234 C242 0.951 . S
H235 C243 0.951 . S
C236 C230 1.265 . S
C236 H231 0.950 . S
C236 C237 1.478 . S
C237 C224 1.394 . S
C237 C236 1.478 . S
C237 C238 1.397 . S
C238 C237 1.397 . S
C238 C239 1.438 . S
C238 C243 1.429 . S
C239 C222 1.394 . S
C239 C238 1.438 . S
C239 C240 1.428 . S
C240 H232 0.949 . S
C240 C239 1.428 . S
C240 C241 1.345 . S
C241 H233 0.950 . S
C241 C240 1.345 . S
C241 C242 1.424 . S
C242 H234 0.951 . S
C242 C241 1.424 . S
C242 C243 1.347 . S
C243 H235 0.951 . S
C243 C238 1.429 . S
C243 C242 1.347 . S
H244 C245 0.951 . S
C245 H244 0.951 . S
C245 C251 1.265 . S
H246 C251 0.950 . S
H247 C255 0.949 . S
H248 C256 0.950 . S
H249 C257 0.951 . S
H250 C258 0.951 . S
C251 C245 1.265 . S
C251 H246 0.950 . S
C251 C252 1.478 . S
C252 C251 1.478 . S
C252 C253 1.397 . S
C252 C269 1.394 1_554 S
C253 C252 1.397 . S
C253 C254 1.438 . S
C253 C258 1.429 . S
C254 C253 1.438 . S
C254 C255 1.428 . S
C254 C267 1.394 . S
C255 H247 0.949 . S
C255 C254 1.428 . S
C255 C256 1.345 . S
C256 H248 0.950 . S
C256 C255 1.345 . S
C256 C257 1.424 . S
C257 H249 0.951 . S
C257 C256 1.424 . S
C257 C258 1.347 . S
C258 H250 0.951 . S
C258 C253 1.429 . S
C258 C257 1.347 . S
H259 C260 0.951 . S
C260 H259 0.951 . S
C260 C266 1.265 . S
H261 C266 0.950 . S
H262 C270 0.949 . S
H263 C271 0.950 . S
H264 C272 0.951 . S
H265 C273 0.951 . S
C266 C260 1.265 . S
C266 H261 0.950 . S
C266 C267 1.478 . S
C267 C254 1.394 . S
C267 C266 1.478 . S
C267 C268 1.397 1_554 S
C268 C267 1.397 1_556 S
C268 C269 1.438 . S
C268 C273 1.429 . S
C269 C252 1.394 1_556 S
C269 C268 1.438 . S
C269 C270 1.428 . S
C270 H262 0.949 . S
C270 C269 1.428 . S
C270 C271 1.345 . S
C271 H263 0.950 . S
C271 C270 1.345 . S
C271 C272 1.424 . S
C272 H264 0.951 . S
C272 C271 1.424 . S
C272 C273 1.347 . S
C273 H265 0.951 . S
C273 C268 1.429 . S
C273 C272 1.347 . S
H274 C275 0.951 . S
C275 H274 0.951 . S
C275 C281 1.265 . S
H276 C281 0.950 . S
H277 C285 0.949 . S
H278 C286 0.950 . S
H279 C287 0.951 . S
H280 C288 0.951 . S
C281 C275 1.265 . S
C281 H276 0.950 . S
C281 C282 1.478 . S
C282 C281 1.478 . S
C282 C283 1.397 . S
C282 C299 1.394 . S
C283 C282 1.397 . S
C283 C284 1.438 . S
C283 C288 1.429 . S
C284 C283 1.438 . S
C284 C285 1.428 . S
C284 C297 1.394 . S
C285 H277 0.949 . S
C285 C284 1.428 . S
C285 C286 1.345 . S
C286 H278 0.950 . S
C286 C285 1.345 . S
C286 C287 1.424 . S
C287 H279 0.951 . S
C287 C286 1.424 . S
C287 C288 1.347 . S
C288 H280 0.951 . S
C288 C283 1.429 . S
C288 C287 1.347 . S
H289 C290 0.951 . S
C290 H289 0.951 . S
C290 C296 1.265 . S
H291 C296 0.950 . S
H292 C300 0.949 . S
H293 C301 0.950 . S
H294 C302 0.951 . S
H295 C303 0.951 . S
C296 C290 1.265 . S
C296 H291 0.950 . S
C296 C297 1.478 . S
C297 C284 1.394 . S
C297 C296 1.478 . S
C297 C298 1.397 . S
C298 C297 1.397 . S
C298 C299 1.438 . S
C298 C303 1.429 . S
C299 C282 1.394 . S
C299 C298 1.438 . S
C299 C300 1.428 . S
C300 H292 0.949 . S
C300 C299 1.428 . S
C300 C301 1.345 . S
C301 H293 0.950 . S
C301 C300 1.345 . S
C301 C302 1.424 . S
C302 H294 0.951 . S
C302 C301 1.424 . S
C302 C303 1.347 . S
C303 H295 0.951 . S
C303 C298 1.429 . S
C303 C302 1.347 . S
H304 C305 0.951 . S
C305 H304 0.951 . S
C305 C311 1.265 . S
H306 C311 0.950 . S
H307 C315 0.949 . S
H308 C316 0.950 1_565 S
H309 C317 0.951 . S
H310 C318 0.951 1_455 S
C311 C305 1.265 . S
C311 H306 0.950 . S
C311 C312 1.478 . S
C312 C311 1.478 . S
C312 C313 1.397 1_454 S
C312 C329 1.394 . S
C313 C312 1.397 1_656 S
C313 C314 1.438 1_545 S
C313 C318 1.429 . S
C314 C313 1.438 1_565 S
C314 C315 1.428 . S
C314 C327 1.394 1_556 S
C315 H307 0.949 . S
C315 C314 1.428 . S
C315 C316 1.345 1_565 S
C316 H308 0.950 1_545 S
C316 C315 1.345 1_545 S
C316 C317 1.424 . S
C317 H309 0.951 . S
C317 C316 1.424 . S
C317 C318 1.347 . S
C318 H310 0.951 1_655 S
C318 C313 1.429 . S
C318 C317 1.347 . S
H319 C320 0.951 . S
C320 H319 0.951 . S
C320 C326 1.265 . S
H321 C326 0.950 . S
H322 C330 0.949 . S
H323 C331 0.950 . S
H324 C332 0.951 . S
H325 C333 0.951 1_655 S
C326 C320 1.265 . S
C326 H321 0.950 . S
C326 C327 1.478 . S
C327 C314 1.394 1_554 S
C327 C326 1.478 . S
C327 C328 1.397 1_655 S
C328 C327 1.397 1_455 S
C328 C329 1.438 1_565 S
C328 C333 1.429 . S
C329 C312 1.394 . S
C329 C328 1.438 1_545 S
C329 C330 1.428 . S
C330 H322 0.949 . S
C330 C329 1.428 . S
C330 C331 1.345 . S
C331 H323 0.950 . S
C331 C330 1.345 . S
C331 C332 1.424 1_545 S
C332 H324 0.951 . S
C332 C331 1.424 1_565 S
C332 C333 1.347 . S
C333 H325 0.951 1_455 S
C333 C328 1.429 . S
C333 C332 1.347 . S
H334 C335 0.951 . S
C335 H334 0.951 . S
C335 C341 1.265 . S
H336 C341 0.950 . S
H337 C345 0.949 . S
H338 C346 0.950 . S
H339 C347 0.951 . S
H340 C348 0.951 . S
C341 C335 1.265 . S
C341 H336 0.950 . S
C341 C342 1.478 . S
C342 C341 1.478 . S
C342 C343 1.397 . S
C342 C359 1.394 . S
C343 C342 1.397 . S
C343 C344 1.438 1_645 S
C343 C348 1.429 . S
C344 C343 1.438 1_465 S
C344 C345 1.428 . S
C344 C357 1.394 . S
C345 H337 0.949 . S
C345 C344 1.428 . S
C345 C346 1.345 1_455 S
C346 H338 0.950 . S
C346 C345 1.345 1_655 S
C346 C347 1.424 . S
C347 H339 0.951 . S
C347 C346 1.424 . S
C347 C348 1.347 1_565 S
C348 H340 0.951 . S
C348 C343 1.429 . S
C348 C347 1.347 1_545 S
H349 C350 0.951 . S
C350 H349 0.951 . S
C350 C356 1.265 . S
H351 C356 0.950 . S
H352 C360 0.949 . S
H353 C361 0.950 . S
H354 C362 0.951 . S
H355 C363 0.951 . S
C356 C350 1.265 . S
C356 H351 0.950 . S
C356 C357 1.478 . S
C357 C344 1.394 . S
C357 C356 1.478 . S
C357 C358 1.397 . S
C358 C357 1.397 . S
C358 C359 1.438 1_465 S
C358 C363 1.429 . S
C359 C342 1.394 . S
C359 C358 1.438 1_645 S
C359 C360 1.428 . S
C360 H352 0.949 . S
C360 C359 1.428 . S
C360 C361 1.345 1_655 S
C361 H353 0.950 . S
C361 C360 1.345 1_455 S
C361 C362 1.424 . S
C362 H354 0.951 . S
C362 C361 1.424 . S
C362 C363 1.347 1_545 S
C363 H355 0.951 . S
C363 C358 1.429 . S
C363 C362 1.347 1_565 S
H364 C365 0.951 . S
C365 H364 0.951 . S
C365 C371 1.265 . S
H366 C371 0.950 . S
H367 C375 0.949 . S
H368 C376 0.950 . S
H369 C377 0.951 . S
H370 C378 0.951 . S
C371 C365 1.265 . S
C371 H366 0.950 . S
C371 C372 1.478 . S
C372 C371 1.478 . S
C372 C373 1.397 . S
C372 C389 1.394 . S
C373 C372 1.397 . S
C373 C374 1.438 . S
C373 C378 1.429 . S
C374 C373 1.438 . S
C374 C375 1.428 . S
C374 C387 1.394 . S
C375 H367 0.949 . S
C375 C374 1.428 . S
C375 C376 1.345 . S
C376 H368 0.950 . S
C376 C375 1.345 . S
C376 C377 1.424 . S
C377 H369 0.951 . S
C377 C376 1.424 . S
C377 C378 1.347 . S
C378 H370 0.951 . S
C378 C373 1.429 . S
C378 C377 1.347 . S
H379 C380 0.951 . S
C380 H379 0.951 . S
C380 C386 1.265 . S
H381 C386 0.950 . S
H382 C390 0.949 . S
H383 C391 0.950 . S
H384 C392 0.951 . S
H385 C393 0.951 . S
C386 C380 1.265 . S
C386 H381 0.950 . S
C386 C387 1.478 . S
C387 C374 1.394 . S
C387 C386 1.478 . S
C387 C388 1.397 . S
C388 C387 1.397 . S
C388 C389 1.438 . S
C388 C393 1.429 . S
C389 C372 1.394 . S
C389 C388 1.438 . S
C389 C390 1.428 . S
C390 H382 0.949 . S
C390 C389 1.428 . S
C390 C391 1.345 . S
C391 H383 0.950 . S
C391 C390 1.345 . S
C391 C392 1.424 . S
C392 H384 0.951 . S
C392 C391 1.424 . S
C392 C393 1.347 . S
C393 H385 0.951 . S
C393 C388 1.429 . S
C393 C392 1.347 . S
H394 C395 0.951 . S
C395 H394 0.951 . S
C395 C401 1.265 . S
H396 C401 0.950 . S
H397 C405 0.949 . S
H398 C406 0.950 . S
H399 C407 0.951 . S
H400 C408 0.951 . S
C401 C395 1.265 . S
C401 H396 0.950 . S
C401 C402 1.478 . S
C402 C401 1.478 . S
C402 C403 1.397 . S
C402 C419 1.394 . S
C403 C402 1.397 . S
C403 C404 1.438 . S
C403 C408 1.429 . S
C404 C403 1.438 . S
C404 C405 1.428 . S
C404 C417 1.394 . S
C405 H397 0.949 . S
C405 C404 1.428 . S
C405 C406 1.345 . S
C406 H398 0.950 . S
C406 C405 1.345 . S
C406 C407 1.424 . S
C407 H399 0.951 . S
C407 C406 1.424 . S
C407 C408 1.347 . S
C408 H400 0.951 . S
C408 C403 1.429 . S
C408 C407 1.347 . S
H409 C410 0.951 . S
C410 H409 0.951 . S
C410 C416 1.265 . S
H411 C416 0.950 . S
H412 C420 0.949 . S
H413 C421 0.950 . S
H414 C422 0.951 . S
H415 C423 0.951 . S
C416 C410 1.265 . S
C416 H411 0.950 . S
C416 C417 1.478 . S
C417 C404 1.394 . S
C417 C416 1.478 . S
C417 C418 1.397 . S
C418 C417 1.397 . S
C418 C419 1.438 . S
C418 C423 1.429 . S
C419 C402 1.394 . S
C419 C418 1.438 . S
C419 C420 1.428 . S
C420 H412 0.949 . S
C420 C419 1.428 . S
C420 C421 1.345 . S
C421 H413 0.950 . S
C421 C420 1.345 . S
C421 C422 1.424 . S
C422 H414 0.951 . S
C422 C421 1.424 . S
C422 C423 1.347 . S
C423 H415 0.951 . S
C423 C418 1.429 . S
C423 C422 1.347 . S
H424 C425 0.951 . S
C425 H424 0.951 . S
C425 C431 1.265 . S
H426 C431 0.950 . S
H427 C435 0.949 . S
H428 C436 0.950 . S
H429 C437 0.951 . S
H430 C438 0.951 . S
C431 C425 1.265 . S
C431 H426 0.950 . S
C431 C432 1.478 . S
C432 C431 1.478 . S
C432 C433 1.397 . S
C432 C449 1.394 . S
C433 C432 1.397 . S
C433 C434 1.438 . S
C433 C438 1.429 . S
C434 C433 1.438 . S
C434 C435 1.428 . S
C434 C447 1.394 . S
C435 H427 0.949 . S
C435 C434 1.428 . S
C435 C436 1.345 . S
C436 H428 0.950 . S
C436 C435 1.345 . S
C436 C437 1.424 . S
C437 H429 0.951 . S
C437 C436 1.424 . S
C437 C438 1.347 . S
C438 H430 0.951 . S
C438 C433 1.429 . S
C438 C437 1.347 . S
H439 C440 0.951 . S
C440 H439 0.951 . S
C440 C446 1.265 . S
H441 C446 0.950 . S
H442 C450 0.949 . S
H443 C451 0.950 . S
H444 C452 0.951 . S
H445 C453 0.951 . S
C446 C440 1.265 . S
C446 H441 0.950 . S
C446 C447 1.478 . S
C447 C434 1.394 . S
C447 C446 1.478 . S
C447 C448 1.397 . S
C448 C447 1.397 . S
C448 C449 1.438 . S
C448 C453 1.429 . S
C449 C432 1.394 . S
C449 C448 1.438 . S
C449 C450 1.428 . S
C450 H442 0.949 . S
C450 C449 1.428 . S
C450 C451 1.345 . S
C451 H443 0.950 . S
C451 C450 1.345 . S
C451 C452 1.424 . S
C452 H444 0.951 . S
C452 C451 1.424 . S
C452 C453 1.347 . S
C453 H445 0.951 . S
C453 C448 1.429 . S
C453 C452 1.347 . S
H454 C455 0.951 . S
C455 H454 0.951 . S
C455 C461 1.265 . S
H456 C461 0.950 . S
H457 C465 0.949 . S
H458 C466 0.950 . S
H459 C467 0.951 . S
H460 C468 0.951 . S
C461 C455 1.265 . S
C461 H456 0.950 . S
C461 C462 1.478 . S
C462 C461 1.478 . S
C462 C463 1.397 . S
C462 C479 1.394 . S
C463 C462 1.397 . S
C463 C464 1.438 . S
C463 C468 1.429 . S
C464 C463 1.438 . S
C464 C465 1.428 . S
C464 C477 1.394 . S
C465 H457 0.949 . S
C465 C464 1.428 . S
C465 C466 1.345 . S
C466 H458 0.950 . S
C466 C465 1.345 . S
C466 C467 1.424 . S
C467 H459 0.951 . S
C467 C466 1.424 . S
C467 C468 1.347 . S
C468 H460 0.951 . S
C468 C463 1.429 . S
C468 C467 1.347 . S
H469 C470 0.951 . S
C470 H469 0.951 . S
C470 C476 1.265 . S
H471 C476 0.950 . S
H472 C480 0.949 . S
H473 C481 0.950 . S
H474 C482 0.951 . S
H475 C483 0.951 . S
C476 C470 1.265 . S
C476 H471 0.950 . S
C476 C477 1.478 . S
C477 C464 1.394 . S
C477 C476 1.478 . S
C477 C478 1.397 . S
C478 C477 1.397 . S
C478 C479 1.438 . S
C478 C483 1.429 . S
C479 C462 1.394 . S
C479 C478 1.438 . S
C479 C480 1.428 . S
C480 H472 0.949 . S
C480 C479 1.428 . S
C480 C481 1.345 . S
C481 H473 0.950 . S
C481 C480 1.345 . S
C481 C482 1.424 . S
C482 H474 0.951 . S
C482 C481 1.424 . S
C482 C483 1.347 . S
C483 H475 0.951 . S
C483 C478 1.429 . S
C483 C482 1.347 . S
H484 C485 0.951 . S
C485 H484 0.951 . S
C485 C491 1.265 . S
H486 C491 0.950 . S
H487 C495 0.949 1_655 S
H488 C496 0.950 . S
H489 C497 0.951 . S
H490 C498 0.951 . S
C491 C485 1.265 . S
C491 H486 0.950 . S
C491 C492 1.478 . S
C492 C491 1.478 . S
C492 C493 1.397 . S
C492 C509 1.394 . S
C493 C492 1.397 . S
C493 C494 1.438 . S
C493 C498 1.429 . S
C494 C493 1.438 . S
C494 C495 1.428 . S
C494 C507 1.394 1_455 S
C495 H487 0.949 1_455 S
C495 C494 1.428 . S
C495 C496 1.345 . S
C496 H488 0.950 . S
C496 C495 1.345 . S
C496 C497 1.424 . S
C497 H489 0.951 . S
C497 C496 1.424 . S
C497 C498 1.347 . S
C498 H490 0.951 . S
C498 C493 1.429 . S
C498 C497 1.347 . S
H499 C500 0.951 1_455 S
C500 H499 0.951 1_655 S
C500 C506 1.265 . S
H501 C506 0.950 . S
H502 C510 0.949 1_455 S
H503 C511 0.950 . S
H504 C512 0.951 . S
H505 C513 0.951 . S
C506 C500 1.265 . S
C506 H501 0.950 . S
C506 C507 1.478 . S
C507 C494 1.394 1_655 S
C507 C506 1.478 . S
C507 C508 1.397 . S
C508 C507 1.397 . S
C508 C509 1.438 1_655 S
C508 C513 1.429 . S
C509 C492 1.394 . S
C509 C508 1.438 1_455 S
C509 C510 1.428 1_455 S
C510 H502 0.949 1_655 S
C510 C509 1.428 1_655 S
C510 C511 1.345 . S
C511 H503 0.950 . S
C511 C510 1.345 . S
C511 C512 1.424 . S
C512 H504 0.951 . S
C512 C511 1.424 . S
C512 C513 1.347 . S
C513 H505 0.951 . S
C513 C508 1.429 . S
C513 C512 1.347 . S
H514 C515 0.951 1_455 S
C515 H514 0.951 1_655 S
C515 C521 1.265 . S
H516 C521 0.950 . S
H517 C525 0.949 . S
H518 C526 0.950 . S
H519 C527 0.951 . S
H520 C528 0.951 . S
C521 C515 1.265 . S
C521 H516 0.950 . S
C521 C522 1.478 . S
C522 C521 1.478 . S
C522 C523 1.397 . S
C522 C539 1.394 1_655 S
C523 C522 1.397 . S
C523 C524 1.438 1_655 S
C523 C528 1.429 . S
C524 C523 1.438 1_455 S
C524 C525 1.428 . S
C524 C537 1.394 . S
C525 H517 0.949 . S
C525 C524 1.428 . S
C525 C526 1.345 1_455 S
C526 H518 0.950 . S
C526 C525 1.345 1_655 S
C526 C527 1.424 . S
C527 H519 0.951 . S
C527 C526 1.424 . S
C527 C528 1.347 . S
C528 H520 0.951 . S
C528 C523 1.429 . S
C528 C527 1.347 . S
H529 C530 0.951 . S
C530 H529 0.951 . S
C530 C536 1.265 . S
H531 C536 0.950 . S
H532 C540 0.949 1_655 S
H533 C541 0.950 . S
H534 C542 0.951 . S
H535 C543 0.951 . S
C536 C530 1.265 . S
C536 H531 0.950 . S
C536 C537 1.478 . S
C537 C524 1.394 . S
C537 C536 1.478 . S
C537 C538 1.397 . S
C538 C537 1.397 . S
C538 C539 1.438 . S
C538 C543 1.429 . S
C539 C522 1.394 1_455 S
C539 C538 1.438 . S
C539 C540 1.428 . S
C540 H532 0.949 1_455 S
C540 C539 1.428 . S
C540 C541 1.345 . S
C541 H533 0.950 . S
C541 C540 1.345 . S
C541 C542 1.424 . S
C542 H534 0.951 . S
C542 C541 1.424 . S
C542 C543 1.347 . S
C543 H535 0.951 . S
C543 C538 1.429 . S
C543 C542 1.347 . S
H544 C545 0.951 . S
C545 H544 0.951 . S
C545 C551 1.265 . S
H546 C551 0.950 1_655 S
H547 C555 0.949 . S
H548 C556 0.950 . S
H549 C557 0.951 . S
H550 C558 0.951 1_455 S
C551 C545 1.265 . S
C551 H546 0.950 1_455 S
C551 C552 1.478 . S
C552 C551 1.478 . S
C552 C553 1.397 1_455 S
C552 C569 1.394 . S
C553 C552 1.397 1_655 S
C553 C554 1.438 . S
C553 C558 1.429 . S
C554 C553 1.438 . S
C554 C555 1.428 . S
C554 C567 1.394 . S
C555 H547 0.949 . S
C555 C554 1.428 . S
C555 C556 1.345 . S
C556 H548 0.950 . S
C556 C555 1.345 . S
C556 C557 1.424 . S
C557 H549 0.951 . S
C557 C556 1.424 . S
C557 C558 1.347 . S
C558 H550 0.951 1_655 S
C558 C553 1.429 . S
C558 C557 1.347 . S
H559 C560 0.951 . S
C560 H559 0.951 . S
C560 C566 1.265 . S
H561 C566 0.950 1_455 S
H562 C570 0.949 . S
H563 C571 0.950 . S
H564 C572 0.951 . S
H565 C573 0.951 . S
C566 C560 1.265 . S
C566 H561 0.950 1_655 S
C566 C567 1.478 . S
C567 C554 1.394 . S
C567 C566 1.478 . S
C567 C568 1.397 . S
C568 C567 1.397 . S
C568 C569 1.438 1_655 S
C568 C573 1.429 . S
C569 C552 1.394 . S
C569 C568 1.438 1_455 S
C569 C570 1.428 . S
C570 H562 0.949 . S
C570 C569 1.428 . S
C570 C571 1.345 . S
C571 H563 0.950 . S
C571 C570 1.345 . S
C571 C572 1.424 . S
C572 H564 0.951 . S
C572 C571 1.424 . S
C572 C573 1.347 1_455 S
C573 H565 0.951 . S
C573 C568 1.429 . S
C573 C572 1.347 1_655 S
H574 C575 0.951 . S
C575 H574 0.951 . S
C575 C581 1.265 . S
H576 C581 0.950 1_655 S
H577 C585 0.949 . S
H578 C586 0.950 . S
H579 C587 0.951 . S
H580 C588 0.951 . S
C581 C575 1.265 . S
C581 H576 0.950 1_455 S
C581 C582 1.478 . S
C582 C581 1.478 . S
C582 C583 1.397 1_455 S
C582 C599 1.394 . S
C583 C582 1.397 1_655 S
C583 C584 1.438 . S
C583 C588 1.429 . S
C584 C583 1.438 . S
C584 C585 1.428 . S
C584 C597 1.394 . S
C585 H577 0.949 . S
C585 C584 1.428 . S
C585 C586 1.345 . S
C586 H578 0.950 . S
C586 C585 1.345 . S
C586 C587 1.424 . S
C587 H579 0.951 . S
C587 C586 1.424 . S
C587 C588 1.347 . S
C588 H580 0.951 . S
C588 C583 1.429 . S
C588 C587 1.347 . S
H589 C590 0.951 . S
C590 H589 0.951 . S
C590 C596 1.265 . S
H591 C596 0.950 1_455 S
H592 C600 0.949 . S
H593 C601 0.950 . S
H594 C602 0.951 . S
H595 C603 0.951 . S
C596 C590 1.265 . S
C596 H591 0.950 1_655 S
C596 C597 1.478 . S
C597 C584 1.394 . S
C597 C596 1.478 . S
C597 C598 1.397 1_655 S
C598 C597 1.397 1_455 S
C598 C599 1.438 . S
C598 C603 1.429 . S
C599 C582 1.394 . S
C599 C598 1.438 . S
C599 C600 1.428 . S
C600 H592 0.949 . S
C600 C599 1.428 . S
C600 C601 1.345 . S
C601 H593 0.950 . S
C601 C600 1.345 . S
C601 C602 1.424 . S
C602 H594 0.951 . S
C602 C601 1.424 . S
C602 C603 1.347 . S
C603 H595 0.951 . S
C603 C598 1.429 . S
C603 C602 1.347 . S
C125 C0 1.455 1_556 S
C140 C10 1.438 1_654 S
C155 C31 1.414 1_456 S
C170 C41 1.387 1_554 S
C185 C62 1.445 . S
C200 C72 1.442 1_655 S
C215 C93 1.407 1_455 S
C230 C103 1.377 . S
C245 C50 1.553 1_554 S
C260 C30 1.542 . S
C275 C112 1.552 . S
C290 C92 1.541 . S
C305 C19 1.535 1_554 S
C320 C61 1.550 . S
C335 C123 1.542 . S
C350 C81 1.553 . S
C365 C95 1.068 . S
C380 C1 1.072 . S
C395 C33 1.064 . S
C410 C63 1.077 . S
C425 C91 1.175 . S
C440 C51 1.173 . S
C455 C29 1.171 . S
C470 C113 1.178 . S
C485 C64 1.207 . S
C500 C32 1.212 . S
C515 C94 1.214 . S
C530 C2 1.205 . S
C545 C20 1.192 . S
C560 C122 1.163 . S
C575 C82 1.171 . S
C590 C60 1.177 . S
