# Generated by pormake.
# Topology snl, (6)-cn, num edge types: 1
# Building blocks:
#     Node 0, Type 0, BuildingBlock: KUMJIN_clean_sbu_1, # of connection points: 6
#     Node 1, Type 0, BuildingBlock: KUMJIN_clean_sbu_1, # of connection points: 6
#     Node 2, Type 0, BuildingBlock: KUMJIN_clean_sbu_1, # of connection points: 6
#     Node 3, Type 0, BuildingBlock: KUMJIN_clean_sbu_1, # of connection points: 6
#     Node 4, Type 0, BuildingBlock: KUMJIN_clean_sbu_1, # of connection points: 6
#     Node 5, Type 0, BuildingBlock: KUMJIN_clean_sbu_1, # of connection points: 6
#     Node 6, Type 0, BuildingBlock: KUMJIN_clean_sbu_1, # of connection points: 6
#     Node 7, Type 0, BuildingBlock: KUMJIN_clean_sbu_1, # of connection points: 6
#     Node 8, Type 0, BuildingBlock: KUMJIN_clean_sbu_1, # of connection points: 6
#     Node 9, Type 0, BuildingBlock: KUMJIN_clean_sbu_1, # of connection points: 6
#     Node 10, Type 0, BuildingBlock: KUMJIN_clean_sbu_1, # of connection points: 6
#     Node 11, Type 0, BuildingBlock: KUMJIN_clean_sbu_1, # of connection points: 6
#     Node 12, Type 0, BuildingBlock: KUMJIN_clean_sbu_1, # of connection points: 6
#     Node 13, Type 0, BuildingBlock: KUMJIN_clean_sbu_1, # of connection points: 6
#     Node 14, Type 0, BuildingBlock: KUMJIN_clean_sbu_1, # of connection points: 6
#     Node 15, Type 0, BuildingBlock: KUMJIN_clean_sbu_1, # of connection points: 6
#     Edge 16, Type (0, 0), BuildingBlock: OJICUG_clean_linker_0, # of connection points: 2
#     Edge 17, Type (0, 0), BuildingBlock: OJICUG_clean_linker_0, # of connection points: 2
#     Edge 18, Type (0, 0), BuildingBlock: OJICUG_clean_linker_0, # of connection points: 2
#     Edge 19, Type (0, 0), BuildingBlock: OJICUG_clean_linker_0, # of connection points: 2
#     Edge 20, Type (0, 0), BuildingBlock: OJICUG_clean_linker_0, # of connection points: 2
#     Edge 21, Type (0, 0), BuildingBlock: OJICUG_clean_linker_0, # of connection points: 2
#     Edge 22, Type (0, 0), BuildingBlock: OJICUG_clean_linker_0, # of connection points: 2
#     Edge 23, Type (0, 0), BuildingBlock: OJICUG_clean_linker_0, # of connection points: 2
#     Edge 24, Type (0, 0), BuildingBlock: OJICUG_clean_linker_0, # of connection points: 2
#     Edge 25, Type (0, 0), BuildingBlock: OJICUG_clean_linker_0, # of connection points: 2
#     Edge 26, Type (0, 0), BuildingBlock: OJICUG_clean_linker_0, # of connection points: 2
#     Edge 27, Type (0, 0), BuildingBlock: OJICUG_clean_linker_0, # of connection points: 2
#     Edge 28, Type (0, 0), BuildingBlock: OJICUG_clean_linker_0, # of connection points: 2
#     Edge 29, Type (0, 0), BuildingBlock: OJICUG_clean_linker_0, # of connection points: 2
#     Edge 30, Type (0, 0), BuildingBlock: OJICUG_clean_linker_0, # of connection points: 2
#     Edge 31, Type (0, 0), BuildingBlock: OJICUG_clean_linker_0, # of connection points: 2
#     Edge 32, Type (0, 0), BuildingBlock: OJICUG_clean_linker_0, # of connection points: 2
#     Edge 33, Type (0, 0), BuildingBlock: OJICUG_clean_linker_0, # of connection points: 2
#     Edge 34, Type (0, 0), BuildingBlock: OJICUG_clean_linker_0, # of connection points: 2
#     Edge 35, Type (0, 0), BuildingBlock: OJICUG_clean_linker_0, # of connection points: 2
#     Edge 36, Type (0, 0), BuildingBlock: OJICUG_clean_linker_0, # of connection points: 2
#     Edge 37, Type (0, 0), BuildingBlock: OJICUG_clean_linker_0, # of connection points: 2
#     Edge 38, Type (0, 0), BuildingBlock: OJICUG_clean_linker_0, # of connection points: 2
#     Edge 39, Type (0, 0), BuildingBlock: OJICUG_clean_linker_0, # of connection points: 2
#     Edge 40, Type (0, 0), BuildingBlock: OJICUG_clean_linker_0, # of connection points: 2
#     Edge 41, Type (0, 0), BuildingBlock: OJICUG_clean_linker_0, # of connection points: 2
#     Edge 42, Type (0, 0), BuildingBlock: OJICUG_clean_linker_0, # of connection points: 2
#     Edge 43, Type (0, 0), BuildingBlock: OJICUG_clean_linker_0, # of connection points: 2
#     Edge 44, Type (0, 0), BuildingBlock: OJICUG_clean_linker_0, # of connection points: 2
#     Edge 45, Type (0, 0), BuildingBlock: OJICUG_clean_linker_0, # of connection points: 2
#     Edge 46, Type (0, 0), BuildingBlock: OJICUG_clean_linker_0, # of connection points: 2
#     Edge 47, Type (0, 0), BuildingBlock: OJICUG_clean_linker_0, # of connection points: 2
#     Edge 48, Type (0, 0), BuildingBlock: OJICUG_clean_linker_0, # of connection points: 2
#     Edge 49, Type (0, 0), BuildingBlock: OJICUG_clean_linker_0, # of connection points: 2
#     Edge 50, Type (0, 0), BuildingBlock: OJICUG_clean_linker_0, # of connection points: 2
#     Edge 51, Type (0, 0), BuildingBlock: OJICUG_clean_linker_0, # of connection points: 2
#     Edge 52, Type (0, 0), BuildingBlock: OJICUG_clean_linker_0, # of connection points: 2
#     Edge 53, Type (0, 0), BuildingBlock: OJICUG_clean_linker_0, # of connection points: 2
#     Edge 54, Type (0, 0), BuildingBlock: OJICUG_clean_linker_0, # of connection points: 2
#     Edge 55, Type (0, 0), BuildingBlock: OJICUG_clean_linker_0, # of connection points: 2
#     Edge 56, Type (0, 0), BuildingBlock: OJICUG_clean_linker_0, # of connection points: 2
#     Edge 57, Type (0, 0), BuildingBlock: OJICUG_clean_linker_0, # of connection points: 2
#     Edge 58, Type (0, 0), BuildingBlock: OJICUG_clean_linker_0, # of connection points: 2
#     Edge 59, Type (0, 0), BuildingBlock: OJICUG_clean_linker_0, # of connection points: 2
#     Edge 60, Type (0, 0), BuildingBlock: OJICUG_clean_linker_0, # of connection points: 2
#     Edge 61, Type (0, 0), BuildingBlock: OJICUG_clean_linker_0, # of connection points: 2
#     Edge 62, Type (0, 0), BuildingBlock: OJICUG_clean_linker_0, # of connection points: 2
#     Edge 63, Type (0, 0), BuildingBlock: OJICUG_clean_linker_0, # of connection points: 2
# Relax obj value: 0.157
# Max RMSD: 0.240
# Mean RMSD: 0.237
data_MOF--net-snl--node1-KUMJIN_clean_sbu_1--edge1-OJICUG_clean_linker_0
_symmetry_space_group_name_H-M    P1
_symmetry_Int_Tables_number       1
_symmetry_cell_setting            triclinic
loop_
_symmetry_equiv_pos_as_xyz
'x, y, z'
_cell_length_a     41.571477
_cell_length_b     41.560499
_cell_length_c     20.790067
_cell_angle_alpha  90.21547
_cell_angle_beta   90.182627
_cell_angle_gamma 89.959534
loop_
_atom_site_label
_atom_site_type_symbol
_atom_site_fract_x
_atom_site_fract_y
_atom_site_fract_z
_atom_type_partial_charge
Eu0 Eu 0.12159 0.61009 0.21476 0.0
C1 C 0.22562 0.66832 0.05057 0.0
N2 N 0.19549 0.67992 0.06163 0.0
C3 C 0.21683 0.73257 0.08065 0.0
C4 C 0.25265 0.68872 0.0541 0.0
C5 C 0.19067 0.71184 0.07291 0.0
C6 C 0.24797 0.72107 0.07061 0.0
C7 C 0.26008 0.62351 0.02098 0.0
C8 C 0.22934 0.63584 0.03592 0.0
C9 C 0.28706 0.64379 0.02432 0.0
C10 C 0.28337 0.67625 0.04122 0.0
Eu11 Eu 0.15302 0.6426 0.05162 0.0
N12 N 0.20277 0.61669 0.03317 0.0
C13 C 0.2626 0.59149 1.00049 0.0
C14 C 0.20484 0.58677 1.00689 0.0
C15 C 0.23473 0.57325 0.99207 0.0
H16 H 0.16665 0.7215 0.07463 0.0
H17 H 0.23613 0.54921 0.97205 0.0
H18 H 0.1256 0.52924 0.21751 0.0
H19 H 0.02893 0.70074 0.25281 0.0
H20 H 0.18332 0.57431 0.99315 0.0
H21 H 0.28572 0.58119 0.98798 0.0
H22 H 0.08003 0.67995 0.22465 0.0
H23 H 0.21285 0.75762 0.09246 0.0
H24 H 0.31084 0.63472 1.01298 0.0
H25 H 0.30439 0.69161 0.04333 0.0
H26 H 0.09695 0.48354 0.25948 0.0
H27 H 0.26813 0.73746 0.07464 0.0
H28 H 0.98664 0.66952 0.29214 0.0
N29 N 0.08943 0.56396 0.23683 0.0
C30 C 0.05971 0.5702 0.2609 0.0
C31 C 0.08549 0.50693 0.26173 0.0
C32 C 0.04062 0.53905 0.29879 0.0
C33 C 0.10163 0.53339 0.23548 0.0
C34 C 0.05622 0.50965 0.2938 0.0
N35 N 0.06894 0.6306 0.23332 0.0
C36 C 0.06232 0.66263 0.2367 0.0
C37 C 0.01241 0.62217 0.28949 0.0
C38 C 0.04756 0.60884 0.25567 0.0
C39 C 1.00792 0.65605 0.27935 0.0
C40 C 0.03258 0.67496 0.25536 0.0
H41 H 0.04564 0.4884 0.31501 0.0
H42 H 0.99641 0.51823 0.3616 0.0
H43 H 0.9616 0.5731 0.37627 0.0
O44 O 0.13699 0.63481 0.30375 0.0
O45 O 0.08226 0.61054 0.13802 0.0
O46 O 0.09779 0.64895 0.06378 0.0
O47 O 0.12094 0.58557 0.30668 0.0
O48 O 0.13577 0.66484 0.20771 0.0
O49 O 0.12435 0.68005 0.10393 0.0
O50 O 0.15382 0.62724 0.95123 0.0
O51 O 0.18701 0.64391 0.14251 0.0
O52 O 0.17398 0.59828 0.19581 0.0
O53 O 0.15114 0.67787 0.97399 0.0
O54 O 0.13171 0.59195 0.04772 0.0
O55 O 0.14336 0.57107 0.14725 0.0
C56 C 0.07551 0.63078 0.09136 0.0
C57 C 0.15237 0.60259 0.39393 0.0
C58 C 0.16262 0.60567 0.50911 0.0
C59 C 0.18883 0.58468 0.50177 0.0
C60 C 0.17745 0.58025 0.38777 0.0
C61 C 0.19607 0.57191 0.44124 0.0
C62 C 0.14479 0.61493 0.45479 0.0
C63 C 0.12988 0.68752 0.16407 0.0
C64 C 0.13093 0.60996 0.33988 0.0
C65 C 1.00548 0.54006 0.34008 0.0
C66 C 0.98387 0.57462 0.34848 0.0
C67 C 0.19473 0.62134 0.18485 0.0
C68 C 0.13084 0.66056 0.87266 0.0
C69 C 0.12171 0.65172 0.75807 0.0
C70 C 0.09191 0.66752 0.76343 0.0
C71 C 0.10104 0.67618 0.87739 0.0
C72 C 0.14106 0.6484 0.8131 0.0
C73 C 0.08174 0.67972 0.82275 0.0
C74 C 0.13668 0.56706 0.08526 0.0
C75 C 0.15191 0.65626 0.9286 0.0
H76 H 0.20283 0.57722 0.54315 0.0
H77 H 0.18177 0.56851 0.34225 0.0
H78 H 0.21554 0.55479 0.43609 0.0
H79 H 0.12442 0.63105 0.46022 0.0
H80 H 0.07668 0.6708 0.72159 0.0
H81 H 0.09272 0.68557 0.92309 0.0
H82 H 0.16396 0.63598 0.80983 0.0
H83 H 0.05883 0.69197 0.82633 0.0
Eu84 Eu 0.62445 0.9017 0.30524 0.0
C85 C 0.73043 0.85116 0.47098 0.0
N86 N 0.70124 0.83839 0.45587 0.0
C87 C 0.72595 0.78815 0.42808 0.0
C88 C 0.75862 0.83245 0.46543 0.0
C89 C 0.69851 0.8069 0.43786 0.0
C90 C 0.75612 0.8008 0.44279 0.0
C91 C 0.76213 0.8967 0.50729 0.0
C92 C 0.73214 0.88335 0.49004 0.0
C93 C 0.79002 0.87775 0.50356 0.0
C94 C 0.78837 0.84588 0.48217 0.0
Eu95 Eu 0.65655 0.87242 0.47184 0.0
N96 N 0.70461 0.90123 0.49357 0.0
C97 C 0.76315 0.92848 0.52944 0.0
C98 C 0.70549 0.93158 0.51904 0.0
C99 C 0.73472 0.94591 0.53573 0.0
H100 H 0.67528 0.79604 0.43163 0.0
H101 H 0.73518 0.97005 0.55545 0.0
H102 H 0.58331 0.95329 0.40603 0.0
H103 H 0.59296 0.82533 0.10399 0.0
H104 H 0.68383 0.9444 0.53039 0.0
H105 H 0.78556 0.93947 0.54388 0.0
H106 H 0.6222 0.84167 0.19908 0.0
H107 H 0.72373 0.76365 0.41088 0.0
H108 H 0.81302 0.88737 0.51747 0.0
H109 H 0.81025 0.83177 0.47913 0.0
H110 H 0.53307 0.97963 0.41608 0.0
H111 H 0.77729 0.78585 0.43702 0.0
H112 H 0.54352 0.85154 0.06904 0.0
N113 N 0.57315 0.9269 0.32146 0.0
C114 C 0.55053 0.91916 0.2771 0.0
C115 C 0.53658 0.96371 0.3753 0.0
C116 C 0.51461 0.93946 0.27631 0.0
C117 C 0.5663 0.94838 0.36906 0.0
C118 C 0.51135 0.95977 0.33201 0.0
N119 N 0.58966 0.87813 0.22826 0.0
C120 C 0.59965 0.85363 0.18924 0.0
C121 C 0.5408 0.88359 0.1498 0.0
C122 C 0.56135 0.89347 0.21833 0.0
C123 C 0.55503 0.85964 0.11299 0.0
C124 C 0.58311 0.84449 0.13337 0.0
H125 H 0.49018 0.97367 0.34378 0.0
H126 H 0.45586 0.93638 0.15494 0.0
H127 H 0.48971 0.91145 0.14187 0.0
O128 O 0.6518 0.89515 0.21535 0.0
O129 O 0.5862 0.87552 0.36366 0.0
O130 O 0.60209 0.88626 0.46807 0.0
O131 O 0.62005 0.93712 0.22808 0.0
O132 O 0.63827 0.84705 0.31295 0.0
O133 O 0.62815 0.83442 0.41908 0.0
O134 O 0.66326 0.88019 0.57581 0.0
O135 O 0.68884 0.86746 0.37942 0.0
O136 O 0.67599 0.91395 0.33256 0.0
O137 O 0.64832 0.83378 0.54075 0.0
O138 O 0.63773 0.92375 0.47598 0.0
O139 O 0.63915 0.94479 0.37273 0.0
C140 C 0.57942 0.87899 0.42517 0.0
C141 C 0.64749 0.93263 0.12518 0.0
C142 C 0.65087 0.92614 1.00773 0.0
C143 C 0.66465 0.95699 1.00429 0.0
C144 C 0.66115 0.96326 0.11985 0.0
C145 C 0.66982 0.97524 0.05984 0.0
C146 C 0.64234 0.91397 0.06899 0.0
C147 C 0.6312 0.82573 0.35848 0.0
C148 C 0.63885 0.92074 0.18972 0.0
C149 C 0.48203 0.92512 0.17002 0.0
C150 C 0.5046 0.89664 0.1238 0.0
C151 C 0.69673 0.8906 0.33921 0.0
C152 C 0.6355 0.84628 0.65068 0.0
C153 C 0.62619 0.85701 0.76625 0.0
C154 C 0.60575 0.82996 0.76742 0.0
C155 C 0.61429 0.82008 0.65407 0.0
C156 C 0.64107 0.86497 0.70691 0.0
C157 C 0.5996 0.8121 0.71188 0.0
C158 C 0.63994 0.94839 0.43666 0.0
C159 C 0.65487 0.85117 0.59136 0.0
H160 H 0.67113 0.96727 0.95832 0.0
H161 H 0.66534 0.97787 0.16236 0.0
H162 H 0.68046 0.99893 0.05631 0.0
H163 H 0.63179 0.89023 0.07295 0.0
H164 H 0.59488 0.82185 0.81168 0.0
H165 H 0.60974 0.80499 0.61244 0.0
H166 H 0.6573 0.88528 0.70433 0.0
H167 H 0.58387 0.7914 0.71402 0.0
Eu168 Eu 0.38788 0.40564 0.71879 0.0
C169 C 0.29394 0.34619 0.52393 0.0
N170 N 0.32365 0.33558 0.54168 0.0
C171 C 0.30909 0.28148 0.51542 0.0
C172 C 0.27015 0.3242 0.50336 0.0
C173 C 0.33126 0.30363 0.53949 0.0
C174 C 0.2781 0.29153 0.49927 0.0
C175 C 0.25788 0.39062 0.49972 0.0
C176 C 0.28781 0.3793 0.52229 0.0
C177 C 0.23395 0.36867 0.48128 0.0
C178 C 0.23996 0.33558 0.48338 0.0
Eu179 Eu 0.36227 0.37633 0.55352 0.0
N180 N 0.31161 0.40041 0.5387 0.0
C181 C 0.25342 0.42376 0.49296 0.0
C182 C 0.30706 0.43268 0.53229 0.0
C183 C 0.27787 0.4449 0.51027 0.0
H184 H 0.35546 0.29568 0.54971 0.0
H185 H 0.27477 0.47056 0.50387 0.0
H186 H 0.39238 0.48752 0.71288 0.0
H187 H 0.47616 0.31778 0.80334 0.0
H188 H 0.32618 0.44911 0.54007 0.0
H189 H 0.23187 0.43325 0.47141 0.0
H190 H 0.42556 0.33526 0.75586 0.0
H191 H 0.31629 0.25683 0.50739 0.0
H192 H 0.211 0.37713 0.46351 0.0
H193 H 0.22146 0.31902 0.46732 0.0
H194 H 0.43021 0.52977 0.74547 0.0
H195 H 0.26091 0.27407 0.48126 0.0
H196 H 0.516 0.35795 0.8384 0.0
N197 N 0.4237 0.44881 0.73831 0.0
C198 C 0.45226 0.44029 0.76583 0.0
C199 C 0.43678 0.50473 0.75103 0.0
C200 C 0.47364 0.46403 0.78912 0.0
C201 C 0.41567 0.48053 0.73103 0.0
C202 C 0.46578 0.49647 0.78053 0.0
N203 N 0.43793 0.38503 0.75372 0.0
C204 C 0.44335 0.35319 0.7658 0.0
C205 C 0.48822 0.39856 0.80519 0.0
C206 C 0.45947 0.4077 0.77388 0.0
C207 C 0.49446 0.36586 0.81421 0.0
C208 C 0.47196 0.34309 0.79451 0.0
H209 H 0.48176 0.51533 0.7973 0.0
H210 H 0.51843 0.47273 0.83984 0.0
H211 H 0.53086 0.41558 0.8547 0.0
O212 O 0.36701 0.38416 0.80657 0.0
O213 O 0.43034 0.40354 0.64982 0.0
O214 O 0.41618 0.36648 0.57164 0.0
O215 O 0.38713 0.43237 0.80761 0.0
O216 O 0.37589 0.35047 0.70822 0.0
O217 O 0.38966 0.33802 0.60436 0.0
O218 O 0.36922 0.39802 0.45788 0.0
O219 O 0.32479 0.3726 0.63839 0.0
O220 O 0.33679 0.41832 0.69198 0.0
O221 O 0.36292 0.3467 0.46809 0.0
O222 O 0.38588 0.42572 0.55535 0.0
O223 O 0.36877 0.44569 0.65124 0.0
C224 C 0.43797 0.38374 0.60294 0.0
C225 C 0.35664 0.41875 0.89773 0.0
C226 C 0.35587 0.41934 0.01475 0.0
C227 C 0.33608 0.44678 1.01269 0.0
C228 C 0.33611 0.44549 0.89636 0.0
C229 C 0.32552 0.45916 0.95389 0.0
C230 C 0.3657 0.40524 0.95661 0.0
C231 C 0.38435 0.32909 0.66353 0.0
C232 C 0.37487 0.40926 0.84107 0.0
C233 C 0.50192 0.4548 0.82115 0.0
C234 C 0.50918 0.42222 0.82904 0.0
C235 C 0.31648 0.39494 0.68099 0.0
C236 C 0.38977 0.36342 0.37531 0.0
C237 C 0.39732 0.36675 0.25938 0.0
C238 C 0.41953 0.34119 0.263 0.0
C239 C 0.41242 0.33839 0.37838 0.0
C240 C 0.38339 0.37828 0.31655 0.0
C241 C 0.42739 0.32755 0.32235 0.0
C242 C 0.37966 0.45049 0.59227 0.0
C243 C 0.36794 0.37019 0.42883 0.0
H244 H 0.32874 0.45874 0.05663 0.0
H245 H 0.3296 0.45664 0.85112 0.0
H246 H 0.31007 0.48012 0.95297 0.0
H247 H 0.38162 0.38455 0.95695 0.0
H248 H 0.43017 0.33104 0.22002 0.0
H249 H 0.41749 0.32636 0.42343 0.0
H250 H 0.36624 0.39792 0.31544 0.0
H251 H 0.44421 0.30769 0.32458 0.0
Eu252 Eu 0.86655 0.14192 0.96875 0.0
C253 C 0.91524 0.03463 0.79679 0.0
N254 N 0.92793 0.06327 0.81636 0.0
C255 C 0.97646 0.03667 0.84938 0.0
C256 C 0.93318 1.00588 0.80214 0.0
C257 C 0.95871 0.06476 0.83936 0.0
C258 C 0.96394 0.00716 0.82953 0.0
C259 C 0.87069 1.00463 0.75069 0.0
C260 C 0.88395 0.034 0.77271 0.0
C261 C 0.88868 0.97612 0.75532 0.0
C262 C 0.91975 0.97671 0.78121 0.0
Eu263 Eu 0.89547 0.10938 0.79885 0.0
N264 N 0.86705 0.06206 0.76814 0.0
C265 C 0.84009 1.00484 0.72266 0.0
C266 C 0.83829 0.0625 0.73618 0.0
C267 C 0.82401 0.03398 0.71464 0.0
H268 H 0.96988 0.08749 0.84922 0.0
H269 H 0.80103 0.03464 0.69004 0.0
H270 H 0.81792 0.18397 0.8675 0.0
H271 H 0.94286 0.17301 0.17044 0.0
H272 H 0.82704 0.08493 0.72357 0.0
H273 H 0.82922 0.98284 0.70484 0.0
H274 H 0.92718 0.1447 0.07363 0.0
H275 H 1.00032 0.03796 0.87022 0.0
H276 H 0.87885 0.95348 0.73856 0.0
H277 H 0.93326 0.95447 0.78465 0.0
H278 H 0.789 0.23334 0.85968 0.0
H279 H 0.97824 0.98556 0.83545 0.0
H280 H 0.91581 0.22159 0.20782 0.0
N281 N 0.84122 0.19312 0.9548 0.0
C282 C 0.84819 0.21532 1.00016 0.0
C283 C 0.80442 0.22962 0.90109 0.0
C284 C 0.82758 0.251 1.00162 0.0
C285 C 0.82064 0.20031 0.90622 0.0
C286 C 0.80731 0.25433 0.94589 0.0
N287 N 0.88979 0.17662 0.04676 0.0
C288 C 0.91468 0.16678 0.08491 0.0
C289 C 0.88363 0.22464 0.12737 0.0
C290 C 0.87389 0.20442 0.05838 0.0
C291 C 0.90782 0.21039 0.16348 0.0
C292 C 0.92347 0.18281 0.14167 0.0
H293 H 0.79297 0.27531 0.93477 0.0
H294 H 0.83024 0.3093 0.12392 0.0
H295 H 0.85541 0.27556 0.13651 0.0
O296 O 0.87514 0.11313 0.05554 0.0
O297 O 0.89343 0.17909 0.90925 0.0
O298 O 0.88019 0.16351 0.80567 0.0
O299 O 0.83315 0.14514 0.05002 0.0
O300 O 0.92045 0.12681 0.95973 0.0
O301 O 0.93375 0.13667 0.85362 0.0
O302 O 0.89 0.10199 0.69515 0.0
O303 O 0.89824 0.07671 0.88961 0.0
O304 O 0.8527 0.09145 0.93909 0.0
O305 O 0.93446 0.12101 0.73176 0.0
O306 O 0.84355 0.12603 0.79639 0.0
O307 O 0.82309 0.12885 0.90096 0.0
C308 C 0.88877 0.18605 0.84811 0.0
C309 C 0.8389 0.11304 0.14666 0.0
C310 C 0.84472 0.10672 0.26352 0.0
C311 C 0.81873 0.08508 0.26241 0.0
C312 C 0.81282 0.0918 0.14703 0.0
C313 C 0.80287 0.07786 0.20468 0.0
C314 C 0.85468 0.12066 0.20498 0.0
C315 C 0.94191 0.13375 0.91461 0.0
C316 C 0.85095 0.12629 0.08575 0.0
C317 C 0.84166 0.28327 0.10844 0.0
C318 C 0.87032 0.26066 0.1542 0.0
C319 C 0.8754 0.07013 0.93134 0.0
C320 C 0.92113 0.13204 0.62088 0.0
C321 C 0.90855 0.13979 0.50588 0.0
C322 C 0.93168 0.16451 0.50443 0.0
C323 C 0.9437 0.15705 0.61743 0.0
C324 C 0.90356 0.12349 0.56475 0.0
C325 C 0.94887 0.17308 0.55964 0.0
C326 C 0.81933 0.12646 0.83702 0.0
C327 C 0.91826 0.11267 0.68054 0.0
H328 H 0.81027 0.07415 0.30643 0.0
H329 H 0.80038 0.08579 0.10274 0.0
H330 H 0.78274 0.06135 0.20464 0.0
H331 H 0.87498 0.13701 0.20459 0.0
H332 H 0.93708 0.17696 0.46012 0.0
H333 H 0.9579 0.16385 0.65906 0.0
H334 H 0.88622 0.10407 0.56691 0.0
H335 H 0.96671 0.19199 0.55734 0.0
Eu336 Eu 0.12632 0.40355 0.80512 0.0
C337 C 0.22463 0.34283 0.97442 0.0
N338 N 0.19465 0.3317 0.96048 0.0
C339 C 0.2157 0.27897 0.94123 0.0
C340 C 0.25147 0.32213 0.97237 0.0
C341 C 0.18964 0.29993 0.94801 0.0
C342 C 0.2468 0.29006 0.9538 0.0
C343 C 0.25845 0.38645 1.01229 0.0
C344 C 0.22831 0.37505 0.99153 0.0
C345 C 0.28523 0.36583 1.01074 0.0
C346 C 0.28187 0.33394 0.98984 0.0
Eu347 Eu 0.15286 0.36976 0.96859 0.0
N348 N 0.20204 0.39464 0.99218 0.0
C349 C 0.26028 0.41768 0.03732 0.0
C350 C 0.20351 0.42411 0.02046 0.0
C351 C 0.23273 0.43656 0.04177 0.0
H352 H 0.16556 0.29055 0.94494 0.0
H353 H 0.23371 0.46001 0.06452 0.0
H354 H 0.12505 0.4853 0.81199 0.0
H355 H 0.03023 0.31916 0.7403 0.0
H356 H 0.1818 0.43672 0.03189 0.0
H357 H 0.28219 0.42684 0.0573 0.0
H358 H 0.08228 0.3347 0.78459 0.0
H359 H 0.21167 0.25401 0.92869 0.0
H360 H 0.30854 0.37402 0.02669 0.0
H361 H 0.30278 0.31836 0.98911 0.0
H362 H 0.08952 0.52909 0.77639 0.0
H363 H 0.26685 0.27347 0.95084 0.0
H364 H 0.99354 0.36064 0.69774 0.0
N365 N 0.09238 0.44801 0.78514 0.0
C366 C 0.06355 0.44057 0.75763 0.0
C367 C 0.08192 0.50432 0.77099 0.0
C368 C 0.04354 0.46498 0.73266 0.0
C369 C 0.10171 0.47936 0.79251 0.0
C370 C 0.05291 0.49711 0.74025 0.0
N371 N 0.0744 0.3851 0.77579 0.0
C372 C 0.0662 0.3534 0.77024 0.0
C373 C 0.0249 0.4002 0.72306 0.0
C374 C 0.05438 0.40838 0.75272 0.0
C375 C 0.01599 0.36782 0.71979 0.0
C376 C 0.03665 0.34435 0.74379 0.0
H377 H 0.03797 0.5165 0.72236 0.0
H378 H 0.99948 0.47506 0.68044 0.0
H379 H 0.98338 0.41841 0.67154 0.0
O380 O 0.14376 0.38032 0.71515 0.0
O381 O 0.0852 0.40342 0.87706 0.0
O382 O 0.09824 0.36405 0.95108 0.0
O383 O 0.12912 0.43048 0.71701 0.0
O384 O 0.13877 0.3485 0.81176 0.0
O385 O 0.12395 0.33363 0.9136 0.0
O386 O 0.15058 0.38518 0.06908 0.0
O387 O 0.18879 0.36894 0.88017 0.0
O388 O 0.1773 0.41621 0.83247 0.0
O389 O 0.15 0.33453 0.04619 0.0
O390 O 0.13216 0.42075 0.97228 0.0
O391 O 0.14673 0.44219 0.8752 0.0
C392 C 0.0771 0.38311 0.92243 0.0
C393 C 0.15473 0.41375 0.62176 0.0
C394 C 0.15224 0.41234 0.50448 0.0
C395 C 0.17145 0.44008 0.50284 0.0
C396 C 0.17551 0.44028 0.61891 0.0
C397 C 0.18374 0.45338 0.55959 0.0
C398 C 0.14401 0.39913 0.56442 0.0
C399 C 0.13057 0.32607 0.8541 0.0
C400 C 0.13807 0.40629 0.68189 0.0
C401 C 0.01491 0.45665 0.70072 0.0
C402 C 1.0056 0.42439 0.6961 0.0
C403 C 0.19772 0.39282 0.84192 0.0
C404 C 0.12658 0.35111 0.14541 0.0
C405 C 0.11459 0.35845 0.25926 0.0
C406 C 0.08692 0.33954 0.25178 0.0
C407 C 0.0984 0.33288 0.13818 0.0
C408 C 0.13432 0.36426 0.2059 0.0
C409 C 0.07877 0.32703 0.19135 0.0
C410 C 0.13841 0.44589 0.93634 0.0
C411 C 0.14887 0.35614 0.09161 0.0
H412 H 0.17769 0.45102 0.45734 0.0
H413 H 0.18383 0.45194 0.66258 0.0
H414 H 0.19911 0.47435 0.55758 0.0
H415 H 0.12753 0.37895 0.56647 0.0
H416 H 0.07153 0.3347 0.29257 0.0
H417 H 0.0917 0.32304 0.09174 0.0
H418 H 0.15595 0.37859 0.21173 0.0
H419 H 0.05723 0.31267 0.18575 0.0
Eu420 Eu 0.88715 0.90744 0.21904 0.0
C421 C 0.79648 0.84332 0.01794 0.0
N422 N 0.8266 0.83345 0.0343 0.0
C423 C 0.81337 0.77917 1.00635 0.0
C424 C 0.77302 0.8208 0.99824 0.0
C425 C 0.83501 0.80175 0.03088 0.0
C426 C 0.78199 0.78851 0.99148 0.0
C427 C 0.75733 0.8864 1.00725 0.0
C428 C 0.789 0.87604 0.02068 0.0
C429 C 0.73373 0.86383 0.98982 0.0
C430 C 0.74165 0.83121 0.98446 0.0
Eu431 Eu 0.86423 0.87465 0.05269 0.0
N432 N 0.81238 0.89757 0.03736 0.0
C433 C 0.75024 0.91921 1.01154 0.0
C434 C 0.80552 0.92965 0.04018 0.0
C435 C 0.77444 0.94091 0.02797 0.0
H436 H 0.85917 0.7942 0.0428 0.0
H437 H 0.76925 0.9664 0.03076 0.0
H438 H 0.89384 0.98866 0.21096 0.0
H439 H 0.97886 0.81821 0.28836 0.0
H440 H 0.82353 0.94693 0.05152 0.0
H441 H 0.72626 0.92806 1.00179 0.0
H442 H 0.92816 0.83592 0.24309 0.0
H443 H 0.82098 0.7546 0.99867 0.0
H444 H 0.7093 0.87135 0.97991 0.0
H445 H 0.72329 0.8142 0.96973 0.0
H446 H 0.93047 0.03058 0.25062 0.0
H447 H 0.76499 0.77068 0.97423 0.0
H448 H 0.01672 0.85785 0.33364 0.0
N449 N 0.9235 0.94969 0.24181 0.0
C450 C 0.95096 0.94089 0.27272 0.0
C451 C 0.9366 1.00547 0.2569 0.0
C452 C 0.9719 0.96434 0.29872 0.0
C453 C 0.91618 0.98149 0.23322 0.0
C454 C 0.9644 0.99688 0.29038 0.0
N455 N 0.93741 0.88608 0.2541 0.0
C456 C 0.94453 0.85404 0.2585 0.0
C457 C 0.98733 0.8988 0.30825 0.0
C458 C 0.95834 0.90834 0.27818 0.0
C459 C 0.99481 0.86609 0.31104 0.0
C460 C 0.97346 0.84366 0.28559 0.0
H461 H 0.98001 0.01554 0.30928 0.0
H462 H 0.01612 0.97237 0.35188 0.0
H463 H 0.02983 0.91504 0.35947 0.0
O464 O 0.87849 0.89226 0.32043 0.0
O465 O 0.92936 0.91109 0.14907 0.0
O466 O 0.91809 0.86905 0.08074 0.0
O467 O 0.86994 0.94158 0.28903 0.0
O468 O 0.87409 0.85187 0.21403 0.0
O469 O 0.89087 0.8393 0.11269 0.0
O470 O 0.86713 0.88983 0.94951 0.0
O471 O 0.82529 0.86809 0.135 0.0
O472 O 0.8355 0.91441 0.18742 0.0
O473 O 0.87993 0.84139 0.9804 0.0
O474 O 0.88418 0.92553 0.0481 0.0
O475 O 0.8707 0.94667 0.14634 0.0
C476 C 0.93875 0.88971 0.10635 0.0
C477 C 0.86012 0.93224 0.40094 0.0
C478 C 0.86238 0.92865 0.5182 0.0
C479 C 0.84715 0.95878 0.52237 0.0
C480 C 0.84392 0.96181 0.40678 0.0
C481 C 0.83759 0.97495 0.46705 0.0
C482 C 0.86904 0.91546 0.4569 0.0
C483 C 0.88184 0.82994 0.16955 0.0
C484 C 0.87056 0.92158 0.33656 0.0
C485 C 0.99989 0.95469 0.33133 0.0
C486 C 1.00777 0.92205 0.33542 0.0
C487 C 0.81633 0.88996 0.17825 0.0
C488 C 0.88621 0.85035 0.86777 0.0
C489 C 0.89023 0.85839 0.75174 0.0
C490 C 0.90421 0.82771 0.74571 0.0
C491 C 0.90033 0.81977 0.86017 0.0
C492 C 0.8813 0.8697 0.81333 0.0
C493 C 0.90926 0.80865 0.79963 0.0
C494 C 0.87999 0.95053 0.08585 0.0
C495 C 0.87717 0.8612 0.93297 0.0
H496 H 0.84228 0.96979 0.56864 0.0
H497 H 0.83675 0.97529 0.3646 0.0
H498 H 0.82549 0.99793 0.4709 0.0
H499 H 0.88119 0.89247 0.45274 0.0
H500 H 0.91067 0.81809 0.69903 0.0
H501 H 0.90454 0.80425 0.9011 0.0
H502 H 0.87073 0.8934 0.81887 0.0
H503 H 0.91993 0.78502 0.79444 0.0
Eu504 Eu 0.3601 0.63835 0.4737 0.0
C505 C 0.41539 0.53799 0.30289 0.0
N506 N 0.42708 0.56769 0.31785 0.0
C507 C 0.4787 0.54521 0.34215 0.0
C508 C 0.43543 0.51063 0.30638 0.0
C509 C 0.45864 0.57178 0.33363 0.0
C510 C 0.46724 0.5145 0.32749 0.0
C511 C 0.37057 0.50426 0.26991 0.0
C512 C 0.38292 0.53482 0.28652 0.0
C513 C 0.39078 0.47715 0.27154 0.0
C514 C 0.42301 0.48028 0.29022 0.0
Eu515 Eu 0.39067 0.61066 0.3053 0.0
N516 N 0.36363 0.56147 0.28592 0.0
C517 C 0.33835 0.50186 0.25094 0.0
C518 C 0.33276 0.55937 0.26401 0.0
C519 C 0.31947 0.52957 0.24747 0.0
H520 H 0.46867 0.59546 0.33774 0.0
H521 H 0.29489 0.52813 0.23035 0.0
H522 H 0.27811 0.64068 0.46726 0.0
H523 H 0.44527 0.72802 0.56327 0.0
H524 H 0.31884 0.58066 0.2556 0.0
H525 H 0.32807 0.47886 0.23728 0.0
H526 H 0.42893 0.67684 0.51471 0.0
H527 H 0.50338 0.54859 0.35746 0.0
H528 H 0.38167 0.45358 0.25856 0.0
H529 H 0.43814 0.45906 0.29205 0.0
H530 H 0.23484 0.67766 0.49785 0.0
H531 H 0.4832 0.49401 0.33205 0.0
H532 H 0.40412 0.76755 0.59563 0.0
N533 N 0.31595 0.67338 0.49136 0.0
C534 C 0.32361 0.70219 0.51914 0.0
C535 C 0.25968 0.68497 0.50346 0.0
C536 C 0.29927 0.72307 0.54161 0.0
C537 C 0.28447 0.66436 0.48442 0.0
C538 C 0.26708 0.7144 0.53228 0.0
N539 N 0.37907 0.6887 0.51073 0.0
C540 C 0.41072 0.69447 0.52468 0.0
C541 C 0.36427 0.73894 0.56075 0.0
C542 C 0.35589 0.70998 0.52924 0.0
C543 C 0.3968 0.7457 0.57146 0.0
C544 C 0.42011 0.72338 0.5534 0.0
H545 H 0.24777 0.72996 0.54839 0.0
H546 H 0.28926 0.76778 0.59179 0.0
H547 H 0.34606 0.78157 0.60849 0.0
O548 O 0.38138 0.61469 0.55922 0.0
O549 O 0.37355 0.68115 0.41276 0.0
O550 O 0.38625 0.66632 0.30791 0.0
O551 O 0.33485 0.63812 0.56438 0.0
O552 O 0.41531 0.62651 0.46335 0.0
O553 O 0.42714 0.64036 0.35914 0.0
O554 O 0.37989 0.60539 0.20277 0.0
O555 O 0.39396 0.57745 0.39584 0.0
O556 O 0.3468 0.58826 0.44309 0.0
O557 O 0.42854 0.6153 0.23406 0.0
O558 O 0.34046 0.63246 0.30111 0.0
O559 O 0.31986 0.62156 0.40133 0.0
C560 C 0.38069 0.68829 0.35309 0.0
C561 C 0.3479 0.60513 0.65222 0.0
C562 C 0.35069 0.59973 0.76883 0.0
C563 C 0.32397 0.57904 0.76662 0.0
C564 C 0.3205 0.58547 0.65106 0.0
C565 C 0.30906 0.57192 0.70793 0.0
C566 C 0.36291 0.61212 0.71107 0.0
C567 C 0.43642 0.63529 0.41857 0.0
C568 C 0.35755 0.62373 0.59584 0.0
C569 C 0.30767 0.75161 0.57391 0.0
C570 C 0.34003 0.7596 0.58306 0.0
C571 C 0.37065 0.56836 0.43476 0.0
C572 C 0.41384 0.63184 0.12863 0.0
C573 C 0.40613 0.63949 1.01302 0.0
C574 C 0.42821 0.66519 0.01547 0.0
C575 C 0.43478 0.65826 0.13029 0.0
C576 C 0.39901 0.6231 0.07041 0.0
C577 C 0.44206 0.67467 0.07382 0.0
C578 C 0.3157 0.62863 0.33934 0.0
C579 C 0.4093 0.61122 0.1852 0.0
H580 H 0.31387 0.56937 0.81044 0.0
H581 H 0.30726 0.58162 0.60685 0.0
H582 H 0.28788 0.55681 0.70683 0.0
H583 H 0.38334 0.62835 0.71214 0.0
H584 H 0.43525 0.67776 0.97226 0.0
H585 H 0.44595 0.66585 0.17493 0.0
H586 H 0.38216 0.60322 0.07011 0.0
H587 H 0.45891 0.69451 0.07509 0.0
Eu588 Eu 0.6551 0.14318 0.56241 0.0
C589 C 0.59504 0.03817 0.72233 0.0
N590 N 0.58424 0.06848 0.71007 0.0
C591 C 0.53184 0.04789 0.68523 0.0
C592 C 0.57423 0.01148 0.71721 0.0
C593 C 0.55274 0.07373 0.69507 0.0
C594 C 0.54249 0.01662 0.69708 0.0
C595 C 0.63844 1.00291 0.75623 0.0
C596 C 0.62712 0.03383 0.73959 0.0
C597 C 0.61765 0.97637 0.75203 0.0
C598 C 0.58573 0.9806 0.73202 0.0
Eu599 Eu 0.62235 0.11026 0.72308 0.0
N600 N 0.64686 0.05995 0.74286 0.0
C601 C 0.67001 0.99977 0.77894 0.0
C602 C 0.67652 0.05729 0.77016 0.0
C603 C 0.68894 0.0272 0.787 0.0
H604 H 0.54329 0.09776 0.69266 0.0
H605 H 0.7127 0.02533 0.80815 0.0
H606 H 0.73589 0.13949 0.55409 0.0
H607 H 0.56572 0.23957 0.55239 0.0
H608 H 0.6897 0.07853 0.78304 0.0
H609 H 0.67947 0.97651 0.79298 0.0
H610 H 0.58706 0.18899 0.58126 0.0
H611 H 0.50714 0.05224 0.67111 0.0
H612 H 0.62594 0.95248 0.76473 0.0
H613 H 0.57 0.95987 0.7289 0.0
H614 H 0.78013 0.16739 0.5039 0.0
H615 H 0.52586 0.99672 0.69169 0.0
H616 H 0.5946 0.27936 0.49842 0.0
N617 N 0.70068 0.1753 0.53629 0.0
C618 C 0.69384 0.20498 0.51274 0.0
C619 C 0.75671 0.17879 0.504 0.0
C620 C 0.72336 0.22326 0.46888 0.0
C621 C 0.73124 0.16314 0.53494 0.0
C622 C 0.75278 0.20746 0.47014 0.0
N623 N 0.63487 0.19669 0.55156 0.0
C624 C 0.60341 0.20494 0.55907 0.0
C625 C 0.64138 0.25272 0.49307 0.0
C626 C 0.65579 0.21764 0.52497 0.0
C627 C 0.60834 0.25808 0.51002 0.0
C628 C 0.59078 0.23476 0.54187 0.0
H629 H 0.77321 0.21764 0.44527 0.0
H630 H 0.74215 0.26687 0.40189 0.0
H631 H 0.68731 0.30264 0.39621 0.0
O632 O 0.63005 0.12585 0.47486 0.0
O633 O 0.65775 0.18001 0.64384 0.0
O634 O 0.61642 0.16569 0.71175 0.0
O635 O 0.6774 0.14643 0.46891 0.0
O636 O 0.60017 0.12997 0.56654 0.0
O637 O 0.58529 0.13941 0.67107 0.0
O638 O 0.63855 0.11142 0.82314 0.0
O639 O 0.62196 0.07674 0.63187 0.0
O640 O 0.66754 0.09077 0.57935 0.0
O641 O 0.58771 0.11033 0.80153 0.0
O642 O 0.67357 0.12955 0.72726 0.0
O643 O 0.69459 0.12018 0.62664 0.0
C644 C 0.6368 0.18738 0.68884 0.0
C645 C 0.66288 0.11332 0.38338 0.0
C646 C 0.66214 0.1046 0.2674 0.0
C647 C 0.68689 0.08177 0.27421 0.0
C648 C 0.68832 0.09135 0.38913 0.0
C649 C 0.69982 0.07518 0.33489 0.0
C650 C 0.64987 0.11982 0.32263 0.0
C651 C 0.57755 0.13409 0.61086 0.0
C652 C 0.65369 0.13413 0.43724 0.0
C653 C 0.72118 0.25826 0.42721 0.0
C654 C 0.68675 0.28045 0.42442 0.0
C655 C 0.6447 0.06967 0.58954 0.0
C656 C 0.60381 0.13197 0.90264 0.0
C657 C 0.61048 0.14063 0.01825 0.0
C658 C 0.58925 0.167 0.01401 0.0
C659 C 0.5841 0.15922 0.89898 0.0
C660 C 0.61749 0.12318 0.96183 0.0
C661 C 0.57649 0.17636 0.9547 0.0
C662 C 0.69832 0.12452 0.68951 0.0
C663 C 0.60959 0.11137 0.84641 0.0
H664 H 0.69702 0.06988 0.23247 0.0
H665 H 0.70014 0.08781 0.43495 0.0
H666 H 0.71954 0.05832 0.33958 0.0
H667 H 0.63093 0.13765 0.31818 0.0
H668 H 0.58228 0.18038 0.05652 0.0
H669 H 0.57448 0.16706 0.85324 0.0
H670 H 0.63369 0.10276 0.9635 0.0
H671 H 0.56051 0.19688 0.952 0.0
Eu672 Eu 0.89339 0.40321 0.80298 0.0
C673 C 0.82234 0.30905 1.01252 0.0
N674 N 0.81563 0.33863 0.98834 0.0
C675 C 0.75876 0.33395 0.01388 0.0
C676 C 0.79162 0.28964 0.05112 0.0
C677 C 0.7849 0.35037 0.98707 0.0
C678 C 0.762 0.30485 0.04644 0.0
C679 C 0.8749 0.26223 0.03935 0.0
C680 C 0.86105 0.29728 1.00622 0.0
C681 C 0.82801 0.2331 0.09937 0.0
C682 C 0.7932 0.25442 0.09212 0.0
Eu683 Eu 0.86129 0.37126 0.96569 0.0
N684 N 0.88249 0.3188 0.98323 0.0
C685 C 0.90868 0.25786 0.02782 0.0
C686 C 0.91454 0.31222 0.98531 0.0
C687 C 0.92719 0.28253 1.003 0.0
H688 H 0.78035 0.37417 0.96859 0.0
H689 H 0.95295 0.27898 0.9993 0.0
H690 H 0.97232 0.41618 0.82997 0.0
H691 H 0.80207 0.48695 0.71775 0.0
H692 H 0.93174 0.32992 0.97334 0.0
H693 H 0.92241 0.23667 0.03997 0.0
H694 H 0.82587 0.43397 0.74274 0.0
H695 H 0.7352 0.34501 1.0116 0.0
H696 H 0.82688 0.21071 0.12686 0.0
H697 H 0.77159 0.2451 0.11406 0.0
H698 H 0.00848 0.46203 0.8502 0.0
H699 H 0.74098 0.29402 0.06799 0.0
H700 H 0.83473 0.53618 0.73271 0.0
N701 N 0.93114 0.44528 0.81457 0.0
C702 C 0.92003 0.47549 0.80241 0.0
C703 C 0.98364 0.46621 0.83698 0.0
C704 C 0.94067 0.50233 0.80671 0.0
C705 C 0.96281 0.44022 0.82801 0.0
C706 C 0.97264 0.49742 0.82566 0.0
N707 N 0.86835 0.45318 0.78295 0.0
C708 C 0.83868 0.45545 0.75563 0.0
C709 C 0.87615 0.51028 0.76913 0.0
C710 C 0.88782 0.47951 0.78582 0.0
C711 C 0.84449 0.51305 0.74676 0.0
C712 C 0.82587 0.48538 0.73881 0.0
H713 H 0.98917 0.51743 0.8304 0.0
H714 H 0.94439 0.55395 0.79462 0.0
H715 H 0.88816 0.56081 0.7601 0.0
O716 O 0.87726 0.40215 0.70294 0.0
O717 O 0.89416 0.43729 0.89373 0.0
O718 O 0.8488 0.42353 0.94717 0.0
O719 O 0.92812 0.40279 0.72461 0.0
O720 O 0.8426 0.38268 0.80005 0.0
O721 O 0.8222 0.39377 0.90028 0.0
O722 O 0.88565 0.38825 0.05403 0.0
O723 O 0.86105 0.33234 0.88776 0.0
O724 O 0.90002 0.34795 0.81489 0.0
O725 O 0.83746 0.36931 0.05797 0.0
O726 O 0.91574 0.38554 0.9582 0.0
O727 O 0.93044 0.37387 0.85431 0.0
C728 C 0.87159 0.44459 0.93635 0.0
C729 C 0.91183 0.38152 0.62336 0.0
C730 C 0.90446 0.37308 0.50799 0.0
C731 C 0.92477 0.346 0.51176 0.0
C732 C 0.93111 0.35392 0.62658 0.0
C733 C 0.93777 0.33643 0.57075 0.0
C734 C 0.89818 0.39069 0.56444 0.0
C735 C 0.81803 0.38784 0.83818 0.0
C736 C 0.90624 0.40201 0.67974 0.0
C737 C 0.92881 0.53309 0.79208 0.0
C738 C 0.89673 0.53702 0.77281 0.0
C739 C 0.88147 0.32561 0.84133 0.0
C740 C 0.85255 0.40206 0.14416 0.0
C741 C 0.85379 0.41128 0.25989 0.0
C742 C 0.83022 0.43529 0.25279 0.0
C743 C 0.82814 0.42513 0.13806 0.0
C744 C 0.86527 0.39524 0.20496 0.0
C745 C 0.81751 0.44216 0.19203 0.0
C746 C 0.93813 0.3794 0.91429 0.0
C747 C 0.86129 0.38093 0.09054 0.0
H748 H 0.9309 0.33234 0.46909 0.0
H749 H 0.94108 0.34602 0.67199 0.0
H750 H 0.9532 0.31548 0.5731 0.0
H751 H 0.88254 0.41157 0.5629 0.0
H752 H 0.82081 0.44789 0.29438 0.0
H753 H 0.81649 0.42898 0.09221 0.0
H754 H 0.88338 0.37658 0.20975 0.0
H755 H 0.79865 0.45994 0.18707 0.0
Eu756 Eu 0.36131 0.14361 0.55311 0.0
C757 C 0.45278 0.07538 0.76794 0.0
N758 N 0.42326 0.0686 0.74255 0.0
C759 C 0.43243 0.01209 0.75813 0.0
C760 C 0.47284 0.0505 0.79103 0.0
C761 C 0.41261 0.03749 0.73896 0.0
C762 C 0.46265 0.0186 0.78434 0.0
C763 C 0.49146 0.11503 0.80605 0.0
C764 C 0.46196 0.10742 0.77591 0.0
C765 C 0.51124 0.09028 0.82921 0.0
C766 C 0.50193 0.05815 0.82196 0.0
Eu767 Eu 0.38986 0.11383 0.72387 0.0
N768 N 0.44125 0.13116 0.75801 0.0
C769 C 0.49951 0.1474 0.81511 0.0
C770 C 0.44808 0.16271 0.77142 0.0
C771 C 0.47775 0.17135 0.79771 0.0
H772 H 0.38832 0.03203 0.72414 0.0
H773 H 0.48341 0.19641 0.8064 0.0
H774 H 0.33982 0.21795 0.60403 0.0
H775 H 0.28688 0.04799 0.44975 0.0
H776 H 0.43078 0.18133 0.76173 0.0
H777 H 0.52189 0.15413 0.8378 0.0
H778 H 0.33733 0.07487 0.48143 0.0
H779 H 0.4239 0.98753 0.75481 0.0
H780 H 0.53345 0.09574 0.8542 0.0
H781 H 0.51741 0.03935 0.84058 0.0
H782 H 0.29017 0.2484 0.62574 0.0
H783 H 0.47755 0.99888 0.80091 0.0
H784 H 0.23499 0.07611 0.46456 0.0
N785 N 0.31546 0.176 0.57201 0.0
C786 C 0.28678 0.16309 0.55314 0.0
C787 C 0.2889 0.22453 0.6049 0.0
C788 C 0.25802 0.18098 0.55862 0.0
C789 C 0.31702 0.20684 0.59455 0.0
C790 C 0.25935 0.21188 0.58548 0.0
N791 N 0.31422 0.11469 0.52523 0.0
C792 C 0.31476 0.08578 0.49414 0.0
C793 C 0.25676 0.11809 0.50865 0.0
C794 C 0.28614 0.1316 0.5298 0.0
C795 C 0.25702 0.08722 0.48166 0.0
C796 C 0.28621 0.07116 0.47364 0.0
H797 H 0.23774 0.22615 0.59152 0.0
H798 H 0.20659 0.18085 0.54164 0.0
H799 H 0.20554 0.1261 0.49679 0.0
O800 O 0.35235 0.1386 0.45032 0.0
O801 O 0.32899 0.14591 0.64478 0.0
O802 O 0.3404 0.09884 0.69195 0.0
O803 O 0.37105 0.18339 0.48694 0.0
O804 O 0.38228 0.09331 0.54935 0.0
O805 O 0.37416 0.07332 0.65182 0.0
O806 O 0.3645 0.13627 0.80586 0.0
O807 O 0.43069 0.13171 0.66213 0.0
O808 O 0.41594 0.13052 0.55442 0.0
O809 O 0.39087 0.09186 0.81838 0.0
O810 O 0.37817 0.16857 0.71194 0.0
O811 O 0.39107 0.18 0.60674 0.0
C812 C 0.31982 0.12195 0.68197 0.0
C813 C 0.38413 0.16816 0.37895 0.0
C814 C 0.39231 0.15598 0.26486 0.0
C815 C 0.42309 0.16988 0.26909 0.0
C816 C 0.41496 0.18179 0.38206 0.0
C817 C 0.43424 0.18267 0.32726 0.0
C818 C 0.37294 0.15531 0.32023 0.0
C819 C 0.37995 0.06908 0.58936 0.0
C820 C 0.36312 0.1669 0.43583 0.0
C821 C 0.22884 0.16735 0.53827 0.0
C822 C 0.22823 0.13608 0.51311 0.0
C823 C 0.43804 0.13143 0.60086 0.0
C824 C 0.35547 0.10552 0.90213 0.0
C825 C 0.34831 0.10787 0.01833 0.0
C826 C 0.32378 0.08481 0.01345 0.0
C827 C 0.33226 0.08118 0.89835 0.0
C828 C 0.36376 0.11847 0.96235 0.0
C829 C 0.31595 0.07141 0.95363 0.0
C830 C 0.38736 0.18912 0.66672 0.0
C831 C 0.37483 0.11464 0.84632 0.0
H832 H 0.43841 0.17129 0.22717 0.0
H833 H 0.42417 0.19174 0.42668 0.0
H834 H 0.45792 0.19341 0.32981 0.0
H835 H 0.34925 0.14443 0.31797 0.0
H836 H 0.31162 0.07631 0.05614 0.0
H837 H 0.32759 0.06904 0.85335 0.0
H838 H 0.38291 0.13612 0.96595 0.0
H839 H 0.29787 0.05275 0.95037 0.0
Eu840 Eu 0.65068 0.63687 0.47201 0.0
C841 C 0.56189 0.57566 0.26149 0.0
N842 N 0.591 0.56676 0.28654 0.0
C843 C 0.57673 0.51098 0.27462 0.0
C844 C 0.53932 0.55217 0.24172 0.0
C845 C 0.59906 0.53484 0.29025 0.0
C846 C 0.54667 0.51966 0.25061 0.0
C847 C 0.52735 0.61744 0.21679 0.0
C848 C 0.556 0.60811 0.24835 0.0
C849 C 0.50468 0.59409 0.19901 0.0
C850 C 0.51076 0.5616 0.21087 0.0
Eu851 Eu 0.62825 0.60959 0.30152 0.0
N852 N 0.57932 0.63021 0.26131 0.0
C853 C 0.5232 0.64976 0.20004 0.0
C854 C 0.57633 0.66126 0.24032 0.0
C855 C 0.54788 0.6717 0.21142 0.0
H856 H 0.62317 0.52727 0.30216 0.0
H857 H 0.54537 0.69647 0.19628 0.0
H858 H 0.65324 0.71695 0.48911 0.0
H859 H 0.74637 0.54645 0.49792 0.0
H860 H 0.59586 0.67808 0.24554 0.0
H861 H 0.50171 0.65774 0.17546 0.0
H862 H 0.69145 0.56508 0.47798 0.0
H863 H 0.58322 0.48584 0.27859 0.0
H864 H 0.48293 0.60079 0.17363 0.0
H865 H 0.49335 0.54381 0.1951 0.0
H866 H 0.69143 0.7574 0.52926 0.0
H867 H 0.52982 0.50102 0.23648 0.0
H868 H 0.78914 0.58568 0.52333 0.0
N869 N 0.68725 0.67867 0.49138 0.0
C870 C 0.71775 0.66937 0.50604 0.0
C871 C 0.69946 0.73301 0.52078 0.0
C872 C 0.74095 0.69232 0.52497 0.0
C873 C 0.67785 0.70995 0.49809 0.0
C874 C 0.73136 0.72439 0.53273 0.0
N875 N 0.70245 0.61466 0.48932 0.0
C876 C 0.70956 0.58263 0.48784 0.0
C877 C 0.75758 0.6269 0.51676 0.0
C878 C 0.72571 0.63672 0.50385 0.0
C879 C 0.76499 0.59411 0.51388 0.0
C880 C 0.74089 0.57191 0.49952 0.0
H881 H 0.74823 0.74256 0.54904 0.0
H882 H 0.79081 0.69985 0.55153 0.0
H883 H 0.8056 0.64283 0.54223 0.0
O884 O 0.65608 0.62881 0.57654 0.0
O885 O 0.68893 0.64231 0.38801 0.0
O886 O 0.6785 0.59638 0.33393 0.0
O887 O 0.62681 0.66867 0.53931 0.0
O888 O 0.63358 0.58561 0.47616 0.0
O889 O 0.64051 0.56687 0.37237 0.0
O890 O 0.65818 0.62597 0.21951 0.0
O891 O 0.5884 0.6343 0.35757 0.0
O892 O 0.59797 0.61868 0.46029 0.0
O893 O 0.62333 0.5878 0.20793 0.0
O894 O 0.64187 0.66427 0.31214 0.0
O895 O 0.62617 0.67559 0.41544 0.0
C896 C 0.69858 0.61981 0.34653 0.0
C897 C 0.63032 0.66495 0.65482 0.0
C898 C 0.62739 0.65604 0.77062 0.0
C899 C 0.61423 0.68705 0.77808 0.0
C900 C 0.61707 0.69576 0.66352 0.0
C901 C 0.60911 0.70667 0.72482 0.0
C902 C 0.63549 0.64515 0.70849 0.0
C903 C 0.63485 0.56183 0.43479 0.0
C904 C 0.63806 0.65374 0.58949 0.0
C905 C 0.77263 0.68248 0.53756 0.0
C906 C 0.781 0.64995 0.53267 0.0
C907 C 0.5775 0.62704 0.41462 0.0
C908 C 0.65922 0.59305 0.12313 0.0
C909 C 0.65658 0.58838 1.00618 0.0
C910 C 0.67338 0.55907 1.01018 0.0
C911 C 0.67641 0.56412 0.12636 0.0
C912 C 0.64993 0.60532 0.06327 0.0
C913 C 0.68369 0.54737 0.06984 0.0
C914 C 0.63316 0.68526 0.35737 0.0
C915 C 0.6435 0.60658 0.1797 0.0
H916 H 0.60838 0.69643 0.82528 0.0
H917 H 0.61294 0.71152 0.62293 0.0
H918 H 0.59906 0.7305 0.73113 0.0
H919 H 0.64526 0.62118 0.70179 0.0
H920 H 0.67871 0.54529 0.96722 0.0
H921 H 0.68285 0.55388 0.17249 0.0
H922 H 0.63672 0.62782 0.06154 0.0
H923 H 0.69665 0.52481 0.07234 0.0
Eu924 Eu 0.12348 0.90326 0.2183 0.0
C925 C 0.19247 0.81387 1.00384 0.0
N926 N 0.20052 0.84151 0.0351 0.0
C927 C 0.25662 0.82936 0.02242 0.0
C928 C 0.21646 0.79347 0.97836 0.0
C929 C 0.2321 0.84928 0.04546 0.0
C930 C 0.24879 0.80156 0.98802 0.0
C931 C 0.15134 0.7766 0.96708 0.0
C932 C 0.16014 0.80578 0.99748 0.0
C933 C 0.17512 0.75688 0.93983 0.0
C934 C 0.20755 0.76545 0.94486 0.0
Eu935 Eu 0.15738 0.87724 0.05517 0.0
N936 N 0.1374 0.82619 0.02126 0.0
C937 C 0.11884 0.76816 0.96428 0.0
C938 C 0.10556 0.81824 0.0168 0.0
C939 C 0.0959 0.78897 0.98975 0.0
H940 H 0.23867 0.87169 0.06826 0.0
H941 H 0.07062 0.78286 0.98716 0.0
H942 H 0.04419 0.91502 0.19855 0.0
H943 H 0.21763 0.98892 0.28637 0.0
H944 H 0.08709 0.83418 0.03253 0.0
H945 H 0.1112 0.7458 0.94207 0.0
H946 H 0.19477 0.93576 0.2647 0.0
H947 H 0.28156 0.8359 0.02981 0.0
H948 H 0.16868 0.7348 0.91513 0.0
H949 H 0.22565 0.74971 0.92443 0.0
H950 H 1.00694 0.96063 0.18377 0.0
H951 H 0.26786 0.78638 0.96951 0.0
H952 H 0.18282 0.03679 0.28121 0.0
N953 N 0.08503 0.9447 0.21322 0.0
C954 C 0.09607 0.97491 0.22554 0.0
C955 C 0.0319 0.96501 0.19573 0.0
C956 C 0.07502 1.00149 0.22367 0.0
C957 C 0.05322 0.93925 0.20186 0.0
C958 C 0.04272 0.99627 0.20742 0.0
N959 N 0.14897 0.95334 0.23638 0.0
C960 C 0.18011 0.95645 0.25622 0.0
C961 C 0.14055 0.01026 0.25244 0.0
C962 C 0.1288 0.97929 0.2378 0.0
C963 C 0.17304 0.01367 0.26842 0.0
C964 C 0.19283 0.98664 0.27102 0.0
H965 H 0.0259 0.01613 0.20443 0.0
H966 H 0.07102 0.05306 0.23659 0.0
H967 H 0.12805 0.06059 0.26337 0.0
O968 O 0.13905 0.90145 0.31905 0.0
O969 O 0.11921 0.93879 0.12993 0.0
O970 O 0.16681 0.92873 0.08434 0.0
O971 O 0.0884 0.90049 0.29565 0.0
O972 O 0.17431 0.88216 0.22401 0.0
O973 O 0.19583 0.89668 0.12737 0.0
O974 O 0.13872 0.88995 0.95725 0.0
O975 O 0.15887 0.83593 0.12696 0.0
O976 O 0.11812 0.84843 0.19837 0.0
O977 O 0.1901 0.88898 0.97914 0.0
O978 O 0.10166 0.88919 0.06079 0.0
O979 O 0.08732 0.87425 0.16307 0.0
C980 C 0.14237 0.94807 0.09069 0.0
C981 C 0.10405 0.87839 0.39637 0.0
C982 C 0.11025 0.86928 0.51218 0.0
C983 C 0.08643 0.84523 0.50795 0.0
C984 C 0.08153 0.85339 0.39304 0.0
C985 C 0.07265 0.83708 0.44871 0.0
C986 C 0.11906 0.88549 0.45532 0.0
C987 C 0.19963 0.88794 0.18824 0.0
C988 C 0.10989 0.89966 0.34118 0.0
C989 C 0.08688 0.03237 0.23721 0.0
C990 C 0.11946 0.03668 0.25212 0.0
C991 C 0.13758 0.8273 0.17025 0.0
C992 C 0.17755 0.90406 0.87131 0.0
C993 C 0.17235 0.90266 0.75422 0.0
C994 C 0.20239 0.91793 0.74926 0.0
C995 C 0.20686 0.92057 0.86478 0.0
C996 C 0.16004 0.89542 0.81576 0.0
C997 C 0.2192 0.92729 0.8042 0.0
C998 C 0.07923 0.88135 0.10397 0.0
C999 C 0.16806 0.89313 0.93593 0.0
H1000 H 0.07795 0.83289 0.55036 0.0
H1001 H 0.07042 0.84693 0.3477 0.0
H1002 H 0.05454 0.81841 0.44616 0.0
H1003 H 0.13731 0.90405 0.45639 0.0
H1004 H 0.21269 0.92315 0.70264 0.0
H1005 H 0.22075 0.92762 0.90671 0.0
H1006 H 0.13739 0.88273 0.8203 0.0
H1007 H 0.24203 0.93958 0.79981 0.0
Eu1008 Eu 0.85943 0.64197 0.05565 0.0
C1009 C 0.9656 0.59525 0.25004 0.0
N1010 N 0.94303 0.58775 0.2054 0.0
C1011 C 0.97986 0.55153 0.15061 0.0
C1012 C 1.00156 0.57499 0.25056 0.0
C1013 C 0.95009 0.56675 0.15706 0.0
C1014 C 1.00496 0.5551 0.19433 0.0
C1015 C 0.97502 0.62997 0.37828 0.0
C1016 C 0.95464 0.62052 0.30932 0.0
C1017 C 0.0112 0.61681 0.40425 0.0
C1018 C 0.03393 0.58868 0.35746 0.0
Eu1019 Eu 0.89148 0.61263 0.22198 0.0
N1020 N 0.92629 0.6358 0.29958 0.0
C1021 C 0.96061 0.65357 0.41568 0.0
C1022 C 0.91617 0.66003 0.33911 0.0
C1023 C 0.93253 0.6688 0.39544 0.0
H1024 H 0.93324 0.56224 0.11961 0.0
H1025 H 0.92255 0.6877 0.42528 0.0
H1026 H 0.84004 0.7181 0.0987 0.0
H1027 H 0.78203 0.54527 0.96468 0.0
H1028 H 0.89364 0.67202 0.32928 0.0
H1029 H 0.97196 0.66136 0.46002 0.0
H1030 H 0.83286 0.57012 0.99573 0.0
H1031 H 0.98351 0.53599 0.10929 0.0
H1032 H 0.02616 0.60216 0.38592 0.0
H1033 H 0.06009 0.57739 0.37241 0.0
H1034 H 0.79137 0.74991 0.11984 0.0
H1035 H 0.02617 0.54129 0.18236 0.0
H1036 H 0.73194 0.57647 0.97103 0.0
N1037 N 0.81458 0.67576 0.07224 0.0
C1038 C 0.78562 0.66318 0.05494 0.0
C1039 C 0.78939 0.72557 0.10153 0.0
C1040 C 0.75738 0.68191 0.0594 0.0
C1041 C 0.81698 0.70706 0.09179 0.0
C1042 C 0.75947 0.71316 0.08426 0.0
N1043 N 0.81165 0.61325 0.03182 0.0
C1044 C 0.81109 0.58306 1.00558 0.0
C1045 C 0.75459 0.61843 1.01295 0.0
C1046 C 0.78418 0.63126 0.03404 0.0
C1047 C 0.7539 0.58697 0.98898 0.0
C1048 C 0.78222 0.56921 0.9854 0.0
H1049 H 0.73824 0.72808 0.08933 0.0
H1050 H 0.70622 0.68327 0.04014 0.0
H1051 H 0.70441 0.62882 0.99588 0.0
O1052 O 0.85263 0.63438 0.95169 0.0
O1053 O 0.82649 0.64571 0.14744 0.0
O1054 O 0.84018 0.59941 0.19424 0.0
O1055 O 0.86797 0.68063 0.98674 0.0
O1056 O 0.87847 0.59066 0.05094 0.0
O1057 O 0.87732 0.56942 0.15404 0.0
O1058 O 0.86368 0.619 0.31139 0.0
O1059 O 0.92931 0.63962 0.16407 0.0
O1060 O 0.91378 0.6281 0.05992 0.0
O1061 O 0.89596 0.57737 0.29943 0.0
O1062 O 0.87713 0.66732 0.21493 0.0
O1063 O 0.88717 0.68043 0.10898 0.0
C1064 C 0.81892 0.62227 0.18722 0.0
C1065 C 0.88009 0.66817 0.87622 0.0
C1066 C 0.88909 0.65699 0.76066 0.0
C1067 C 0.90922 0.68424 0.75865 0.0
C1068 C 0.90092 0.69464 0.87192 0.0
C1069 C 0.9153 0.70249 0.81372 0.0
C1070 C 0.87447 0.64917 0.82034 0.0
C1071 C 0.87645 0.5659 0.09004 0.0
C1072 C 0.86111 0.66334 0.93612 0.0
C1073 C 0.72805 0.66902 0.03862 0.0
C1074 C 0.72686 0.63768 0.01432 0.0
C1075 C 0.93626 0.63601 0.10269 0.0
C1076 C 0.86794 0.58158 0.40174 0.0
C1077 C 0.86439 0.58782 0.51925 0.0
C1078 C 0.85021 0.55715 0.52228 0.0
C1079 C 0.85384 0.55113 0.40664 0.0
C1080 C 0.87322 0.60002 0.45818 0.0
C1081 C 0.8449 0.5391 0.46648 0.0
C1082 C 0.88398 0.68893 0.16971 0.0
C1083 C 0.87681 0.59359 0.33739 0.0
H1084 H 0.91988 0.69219 0.71405 0.0
H1085 H 0.90542 0.71 0.91316 0.0
H1086 H 0.93075 0.72339 0.8109 0.0
H1087 H 0.85842 0.62873 0.82338 0.0
H1088 H 0.84347 0.54687 0.56809 0.0
H1089 H 0.84952 0.5367 0.36395 0.0
H1090 H 0.88408 0.62363 0.45457 0.0
H1091 H 0.83392 0.51557 0.46968 0.0
Eu1092 Eu 0.12514 0.11292 0.80121 0.0
C1093 C 0.19242 0.2001 0.02206 0.0
N1094 N 0.20098 0.17245 0.99151 0.0
C1095 C 0.25685 0.18504 1.00649 0.0
C1096 C 0.21604 0.22091 0.04782 0.0
C1097 C 0.23269 0.16483 0.98284 0.0
C1098 C 0.24851 0.21303 0.03971 0.0
C1099 C 0.15067 0.23705 0.05688 0.0
C1100 C 0.15995 0.20783 0.02732 0.0
C1101 C 0.17409 0.25729 0.08404 0.0
C1102 C 0.20665 0.2491 0.0801 0.0
Eu1103 Eu 0.1585 0.1364 0.96893 0.0
N1104 N 0.13754 0.18698 1.00352 0.0
C1105 C 0.11804 0.24499 0.05914 0.0
C1106 C 0.10557 0.19439 1.0079 0.0
C1107 C 0.09544 0.22364 0.03419 0.0
H1108 H 0.23959 0.14239 0.96054 0.0
H1109 H 0.07005 0.22931 0.03664 0.0
H1110 H 0.04461 0.10882 0.79298 0.0
H1111 H 0.21604 0.01823 0.77273 0.0
H1112 H 0.08733 0.17803 0.99292 0.0
H1113 H 0.11004 0.26729 0.08085 0.0
H1114 H 0.19672 0.07265 0.79456 0.0
H1115 H 0.2819 0.17864 1.00033 0.0
H1116 H 0.16727 0.27943 0.10806 0.0
H1117 H 0.22446 0.26521 0.10057 0.0
H1118 H 1.00469 0.07107 0.74855 0.0
H1119 H 0.26731 0.2285 0.05856 0.0
H1120 H 0.17708 0.97544 0.7465 0.0
N1121 N 0.08341 0.0757 0.78502 0.0
C1122 C 0.09288 0.04541 0.76901 0.0
C1123 C 0.02905 0.06307 0.75707 0.0
C1124 C 0.07008 0.02208 0.7501 0.0
C1125 C 0.05183 0.08448 0.78158 0.0
C1126 C 0.03795 0.03144 0.74306 0.0
N1127 N 0.14737 0.06109 0.78553 0.0
C1128 C 0.17944 0.05437 0.78562 0.0
C1129 C 0.13561 1.00609 0.75664 0.0
C1130 C 0.12554 0.03774 0.77053 0.0
C1131 C 0.16847 0.99916 0.75799 0.0
C1132 C 0.1905 0.02334 0.77255 0.0
H1133 H 0.01993 0.0146 0.72594 0.0
H1134 H 0.06289 0.97221 0.72304 0.0
H1135 H 0.11999 0.95793 0.7316 0.0
O1136 O 0.13994 0.1158 0.69784 0.0
O1137 O 0.11854 0.07462 0.88418 0.0
O1138 O 0.16527 0.08533 0.93412 0.0
O1139 O 0.09162 0.12862 0.7295 0.0
O1140 O 0.17619 0.13243 0.79715 0.0
O1141 O 0.19701 0.11913 0.89598 0.0
O1142 O 0.14271 0.1264 0.06934 0.0
O1143 O 0.16194 0.17812 0.89816 0.0
O1144 O 0.11997 0.16645 0.82963 0.0
O1145 O 0.19248 0.11932 0.03928 0.0
O1146 O 0.10319 0.1237 0.96381 0.0
O1147 O 0.09138 0.14074 0.86237 0.0
C1148 C 0.14065 0.06619 0.92711 0.0
C1149 C 0.10013 0.13468 0.61672 0.0
C1150 C 0.10754 0.13785 0.50049 0.0
C1151 C 0.07694 0.15204 0.49478 0.0
C1152 C 0.06963 0.149 0.60952 0.0
C1153 C 0.05822 0.1576 0.54902 0.0
C1154 C 0.11913 0.12926 0.56199 0.0
C1155 C 0.20095 0.12853 0.83564 0.0
C1156 C 0.11122 0.12575 0.68175 0.0
C1157 C 0.08013 0.99054 0.73684 0.0
C1158 C 0.11273 0.98247 0.74109 0.0
C1159 C 0.14078 0.18704 0.85465 0.0
C1160 C 0.18234 0.10798 0.15028 0.0
C1161 C 0.17751 0.10908 0.26729 0.0
C1162 C 0.20811 0.09487 0.27221 0.0
C1163 C 0.21231 0.0926 0.15668 0.0
C1164 C 0.16472 0.11581 0.2058 0.0
C1165 C 0.22506 0.08618 0.21724 0.0
C1166 C 0.0817 0.1316 0.91888 0.0
C1167 C 0.17204 0.11886 0.08605 0.0
H1168 H 0.06714 0.15827 0.44815 0.0
H1169 H 0.05438 0.15357 0.65072 0.0
H1170 H 0.03464 0.1684 0.54412 0.0
H1171 H 0.14275 0.1185 0.56724 0.0
H1172 H 0.21883 0.09008 0.31877 0.0
H1173 H 0.2264 0.08622 0.11478 0.0
H1174 H 0.14148 0.12743 0.20121 0.0
H1175 H 0.24837 0.07477 0.22158 0.0
Eu1176 Eu 0.62052 0.4039 0.72632 0.0
C1177 C 0.67028 0.29945 0.52539 0.0
N1178 N 0.68003 0.32237 0.56731 0.0
C1179 C 0.72089 0.28703 0.61198 0.0
C1180 C 0.69026 0.26336 0.52251 0.0
C1181 C 0.70567 0.3169 0.60656 0.0
C1182 C 0.71319 0.26055 0.57388 0.0
C1183 C 0.63045 0.28855 0.40357 0.0
C1184 C 0.64263 0.30999 0.46978 0.0
C1185 C 0.6431 0.25178 0.37882 0.0
C1186 C 0.67147 0.23083 0.42004 0.0
Eu1187 Eu 0.65262 0.37258 0.55725 0.0
N1188 N 0.6278 0.33848 0.48049 0.0
C1189 C 0.60585 0.30273 0.36856 0.0
C1190 C 0.60298 0.34876 0.4426 0.0
C1191 C 0.59216 0.33168 0.38849 0.0
H1192 H 0.71518 0.33568 0.63559 0.0
H1193 H 0.57268 0.3417 0.36028 0.0
H1194 H 0.54284 0.41726 0.68953 0.0
H1195 H 0.71169 0.48861 0.81334 0.0
H1196 H 0.59179 0.37171 0.45231 0.0
H1197 H 0.59638 0.29082 0.32616 0.0
H1198 H 0.68858 0.43549 0.78894 0.0
H1199 H 0.74 0.28453 0.64717 0.0
H1200 H 0.63279 0.24115 0.33589 0.0
H1201 H 0.67852 0.20745 0.4001 0.0
H1202 H 0.50711 0.4632 0.66776 0.0
H1203 H 0.72713 0.23922 0.58425 0.0
H1204 H 0.6788 0.53754 0.79749 0.0
N1205 N 0.58349 0.44625 0.71075 0.0
C1206 C 0.59429 0.47639 0.72493 0.0
C1207 C 0.5316 0.4673 0.68356 0.0
C1208 C 0.5738 0.50328 0.71895 0.0
C1209 C 0.5522 0.44126 0.69377 0.0
C1210 C 0.54231 0.49845 0.69684 0.0
N1211 N 0.64566 0.45396 0.74827 0.0
C1212 C 0.67536 0.45663 0.7757 0.0
C1213 C 0.6377 0.51126 0.76054 0.0
C1214 C 0.62623 0.48034 0.74386 0.0
C1215 C 0.66919 0.51428 0.78369 0.0
C1216 C 0.68793 0.48676 0.79217 0.0
H1217 H 0.52596 0.51853 0.69074 0.0
H1218 H 0.56993 0.55496 0.73061 0.0
H1219 H 0.62561 0.56187 0.76829 0.0
O1220 O 0.62931 0.41106 0.82958 0.0
O1221 O 0.617 0.43646 0.6348 0.0
O1222 O 0.66376 0.42336 0.58872 0.0
O1223 O 0.58307 0.39427 0.79703 0.0
O1224 O 0.67231 0.38759 0.73183 0.0
O1225 O 0.69385 0.38713 0.62831 0.0
O1226 O 0.64563 0.40059 0.46884 0.0
O1227 O 0.62907 0.33292 0.6162 0.0
O1228 O 0.63568 0.34983 0.72203 0.0
O1229 O 0.68893 0.37061 0.48095 0.0
O1230 O 0.59828 0.38589 0.5668 0.0
O1231 O 0.58456 0.37356 0.67151 0.0
C1232 C 0.64 0.44365 0.59369 0.0
C1233 C 0.59838 0.38149 0.90548 0.0
C1234 C 0.60793 0.37431 0.02184 0.0
C1235 C 0.58522 0.34911 0.02068 0.0
C1236 C 0.57802 0.35466 0.9059 0.0
C1237 C 0.57098 0.3391 0.96324 0.0
C1238 C 0.6139 0.39085 0.96341 0.0
C1239 C 0.69687 0.38735 0.69232 0.0
C1240 C 0.60093 0.4015 0.8467 0.0
C1241 C 0.58541 0.53406 0.73442 0.0
C1242 C 0.61719 0.53801 0.75553 0.0
C1243 C 0.63161 0.32676 0.67818 0.0
C1244 C 0.68319 0.39907 0.3791 0.0
C1245 C 0.67487 0.40417 0.26267 0.0
C1246 C 0.70502 0.4193 0.25816 0.0
C1247 C 0.71336 0.41366 0.37292 0.0
C1248 C 0.66394 0.39421 0.32383 0.0
C1249 C 0.7241 0.42386 0.31285 0.0
C1250 C 0.57684 0.37678 0.61046 0.0
C1251 C 0.67211 0.38948 0.44354 0.0
H1252 H 0.57817 0.33689 0.06424 0.0
H1253 H 0.56701 0.34602 0.86198 0.0
H1254 H 0.55414 0.31925 0.96327 0.0
H1255 H 0.63048 0.41091 0.9625 0.0
H1256 H 0.71424 0.42688 0.21196 0.0
H1257 H 0.72847 0.41751 0.41481 0.0
H1258 H 0.6407 0.38263 0.32833 0.0
H1259 H 0.74743 0.4352 0.30858 0.0
Eu1260 Eu 0.36233 0.87202 0.47487 0.0
C1261 C 0.45646 0.94428 0.26628 0.0
N1262 N 0.42668 0.95069 0.28989 0.0
C1263 C 0.43075 0.00757 0.26382 0.0
C1264 C 0.47554 0.97514 0.22743 0.0
C1265 C 0.41452 0.98128 0.29052 0.0
C1266 C 0.46001 1.0046 0.23178 0.0
C1267 C 0.50364 0.89205 0.23871 0.0
C1268 C 0.46855 0.90563 0.27241 0.0
C1269 C 0.53212 0.93915 0.17825 0.0
C1270 C 0.5106 0.9738 0.18589 0.0
Eu1271 Eu 0.39437 0.9048 0.31277 0.0
N1272 N 0.44707 0.88398 0.2949 0.0
C1273 C 0.50822 0.85827 0.24988 0.0
C1274 C 0.45382 0.85195 0.29226 0.0
C1275 C 0.48361 0.83953 0.27435 0.0
H1276 H 0.39054 0.98555 0.3083 0.0
H1277 H 0.4873 0.81378 0.27764 0.0
H1278 H 0.35024 0.79288 0.44469 0.0
H1279 H 0.2771 0.96194 0.55992 0.0
H1280 H 0.43624 0.83457 0.30417 0.0
H1281 H 0.52951 0.84473 0.23752 0.0
H1282 H 0.33047 0.93891 0.53527 0.0
H1283 H 0.41936 0.03099 0.26563 0.0
H1284 H 0.55435 0.94045 0.15029 0.0
H1285 H 0.51966 0.99547 0.16372 0.0
H1286 H 0.30493 0.75664 0.4216 0.0
H1287 H 0.47063 0.0257 0.21007 0.0
H1288 H 0.22836 0.92868 0.54377 0.0
N1289 N 0.32077 0.83372 0.46147 0.0
C1290 C 0.2904 0.84437 0.47372 0.0
C1291 C 0.30044 0.78129 0.43594 0.0
C1292 C 0.26379 0.8235 0.46802 0.0
C1293 C 0.32618 0.80224 0.44648 0.0
C1294 C 0.26909 0.79184 0.44738 0.0
N1295 N 0.31196 0.89627 0.49451 0.0
C1296 C 0.30921 0.92585 0.52204 0.0
C1297 C 0.25494 0.88769 0.50725 0.0
C1298 C 0.28592 0.87644 0.49104 0.0
C1299 C 0.25167 0.91925 0.53003 0.0
C1300 C 0.27906 0.93822 0.53862 0.0
H1301 H 0.24925 0.77521 0.44133 0.0
H1302 H 0.21215 0.81918 0.47865 0.0
H1303 H 0.20449 0.87509 0.51474 0.0
O1304 O 0.36328 0.88774 0.57524 0.0
O1305 O 0.32846 0.87182 0.384 0.0
O1306 O 0.34208 0.91735 0.33097 0.0
O1307 O 0.36205 0.83696 0.55256 0.0
O1308 O 0.3824 0.92299 0.48003 0.0
O1309 O 0.37284 0.94419 0.37968 0.0
O1310 O 0.37642 0.8806 0.22486 0.0
O1311 O 0.43318 0.90482 0.39055 0.0
O1312 O 0.41771 0.86571 0.46323 0.0
O1313 O 0.39685 0.92815 0.22007 0.0
O1314 O 0.38055 0.85002 0.31926 0.0
O1315 O 0.39221 0.83562 0.42311 0.0
C1316 C 0.32105 0.89452 0.3418 0.0
C1317 C 0.38305 0.85241 0.65455 0.0
C1318 C 0.39111 0.8591 0.77026 0.0
C1319 C 0.41699 0.83726 0.76689 0.0
C1320 C 0.40963 0.83175 0.6518 0.0
C1321 C 0.42629 0.82396 0.70798 0.0
C1322 C 0.37426 0.86647 0.7134 0.0
C1323 C 0.3782 0.94789 0.44227 0.0
C1324 C 0.36296 0.85864 0.59787 0.0
C1325 C 0.23283 0.83493 0.48234 0.0
C1326 C 0.22845 0.86684 0.50246 0.0
C1327 C 0.43999 0.88433 0.43673 0.0
C1328 C 0.36368 0.91372 0.13396 0.0
C1329 C 0.35448 0.9118 0.01816 0.0
C1330 C 0.3318 0.93674 0.02432 0.0
C1331 C 0.34201 0.93946 0.13898 0.0
C1332 C 0.36974 0.89995 0.07367 0.0
C1333 C 0.3256 0.9504 0.08456 0.0
C1334 C 0.3867 0.82765 0.36322 0.0
C1335 C 0.38445 0.90458 0.18792 0.0
H1336 H 0.42994 0.83016 0.80981 0.0
H1337 H 0.41728 0.82147 0.60646 0.0
H1338 H 0.44634 0.80737 0.70598 0.0
H1339 H 0.35423 0.88319 0.71454 0.0
H1340 H 0.31984 0.9465 0.98236 0.0
H1341 H 0.3388 0.95186 0.18431 0.0
H1342 H 0.38735 0.88077 0.0697 0.0
H1343 H 0.30889 0.97028 0.08871 0.0
C1344 C 0.1643 0.64442 0.6739 0.0
C1345 C 0.13267 0.63895 0.69516 0.0
H1346 H 0.19851 0.63824 0.59761 0.0
C1347 C 0.1114 0.6216 0.65552 0.0
H1348 H 0.18113 0.65793 0.70328 0.0
C1349 C 0.12127 0.61065 0.59517 0.0
C1350 C 0.15267 0.61663 0.57361 0.0
H1351 H 0.08713 0.61645 0.67127 0.0
H1352 H 0.10443 0.59737 0.56535 0.0
C1353 C 0.17423 0.63327 0.61362 0.0
C1354 C 0.66803 0.90715 0.89732 0.0
C1355 C 0.64495 0.90765 0.94685 0.0
H1356 H 0.681 0.8905 0.80345 0.0
C1357 C 0.61545 0.89215 0.93586 0.0
H1358 H 0.69108 0.91882 0.90399 0.0
C1359 C 0.60912 0.87683 0.87694 0.0
C1360 C 0.63245 0.87556 0.8276 0.0
H1361 H 0.59682 0.89266 0.97217 0.0
H1362 H 0.58557 0.86627 0.87017 0.0
C1363 C 0.66205 0.8911 0.83898 0.0
C1364 C 0.35525 0.39112 0.1877 0.0
C1365 C 0.38697 0.38008 0.19632 0.0
H1366 H 0.32091 0.4124 0.12523 0.0
C1367 C 0.40835 0.38174 0.14416 0.0
H1368 H 0.33759 0.38938 0.22564 0.0
C1369 C 0.39825 0.39424 0.08515 0.0
C1370 C 0.36669 0.40579 0.0772 0.0
H1371 H 0.43307 0.37388 0.149 0.0
H1372 H 0.41544 0.39548 0.04622 0.0
C1373 C 0.34544 0.40417 0.12937 0.0
C1374 C 0.88372 0.09879 0.42951 0.0
C1375 C 0.89071 0.13104 0.44529 0.0
H1376 H 0.86429 0.06581 0.35968 0.0
C1377 C 0.88195 0.15507 0.40077 0.0
H1378 H 0.89038 0.07952 0.46184 0.0
C1379 C 0.86756 0.14714 0.34178 0.0
C1380 C 0.86089 0.11496 0.32582 0.0
H1381 H 0.88616 0.18023 0.41149 0.0
H1382 H 0.86116 0.16632 0.30899 0.0
C1383 C 0.86892 0.09088 0.37066 0.0
C1384 C 0.11767 0.40453 0.33622 0.0
C1385 C 0.12305 0.37188 0.32287 0.0
H1386 H 0.12207 0.44278 0.40517 0.0
C1387 C 0.13663 0.35215 0.37037 0.0
H1388 H 0.1069 0.42003 0.30029 0.0
C1389 C 0.14512 0.36502 0.43039 0.0
C1390 C 0.14048 0.39791 0.44341 0.0
H1391 H 0.14112 0.32692 0.36061 0.0
H1392 H 0.15624 0.34952 0.46586 0.0
C1393 C 0.1263 0.41745 0.39602 0.0
C1394 C 0.90627 0.87817 0.6424 0.0
C1395 C 0.88393 0.87766 0.69315 0.0
H1396 H 0.91701 0.89449 0.5472 0.0
C1397 C 0.8547 0.89414 0.68593 0.0
H1398 H 0.92921 0.86598 0.64681 0.0
C1399 C 0.84788 0.91062 0.62925 0.0
C1400 C 0.87003 0.91089 0.57817 0.0
H1401 H 0.83673 0.89376 0.72353 0.0
H1402 H 0.82488 0.92264 0.62505 0.0
C1403 C 0.89931 0.89443 0.58531 0.0
C1404 C 0.3707 0.58715 0.87974 0.0
C1405 C 0.36469 0.60983 0.83138 0.0
H1406 H 0.38935 0.57827 0.97364 0.0
C1407 C 0.37175 0.64237 0.84335 0.0
H1408 H 0.36565 0.56189 0.87163 0.0
C1409 C 0.38466 0.65201 0.90243 0.0
C1410 C 0.39133 0.62928 0.95071 0.0
H1411 H 0.3668 0.6605 0.80734 0.0
H1412 H 0.38907 0.67739 0.9103 0.0
C1413 C 0.3841 0.59669 0.93848 0.0
C1414 C 0.63254 0.15487 0.12753 0.0
C1415 C 0.62488 0.13126 0.08129 0.0
H1416 H 0.65034 0.16502 0.22205 0.0
C1417 C 0.6308 0.09873 0.09624 0.0
H1418 H 0.62929 0.18019 0.11736 0.0
C1419 C 0.64339 0.09009 0.15618 0.0
C1420 C 0.65 0.11369 0.20282 0.0
H1421 H 0.62497 0.07974 0.06241 0.0
H1422 H 0.64714 0.06484 0.16664 0.0
C1423 C 0.64475 0.14619 0.18762 0.0
C1424 C 0.86833 0.36904 0.34031 0.0
C1425 C 0.86548 0.40175 0.32443 0.0
H1426 H 0.88193 0.3344 0.41098 0.0
C1427 C 0.87428 0.42509 0.37012 0.0
H1428 H 0.86105 0.35051 0.30649 0.0
C1429 C 0.88667 0.41587 0.42986 0.0
C1430 C 0.89022 0.38308 0.44537 0.0
H1431 H 0.87241 0.45047 0.35901 0.0
H1432 H 0.89423 0.43451 0.46313 0.0
C1433 C 0.88041 0.35982 0.40015 0.0
C1434 C 0.34876 0.14837 0.18166 0.0
C1435 C 0.38048 0.14259 0.20263 0.0
H1436 H 0.31378 0.14192 0.10632 0.0
C1437 C 0.40115 0.1246 0.16287 0.0
H1438 H 0.33234 0.16243 0.21077 0.0
C1439 C 0.39063 0.11337 0.10296 0.0
C1440 C 0.35912 0.11955 0.08197 0.0
H1441 H 0.42548 0.11914 0.17815 0.0
H1442 H 0.40704 0.09966 0.07311 0.0
C1443 C 0.33815 0.13683 0.12193 0.0
C1444 C 0.66866 0.60113 0.89056 0.0
C1445 C 0.64734 0.60235 0.94294 0.0
H1446 H 0.67942 0.61751 0.79564 0.0
C1447 C 0.61817 0.61913 0.93587 0.0
H1448 H 0.6914 0.58863 0.89424 0.0
C1449 C 0.6112 0.63552 0.87905 0.0
C1450 C 0.63329 0.6357 0.82802 0.0
H1451 H 0.60084 0.61998 0.97462 0.0
H1452 H 0.58864 0.64846 0.87548 0.0
C1453 C 0.66178 0.61772 0.83385 0.0
C1454 C 0.12825 0.8551 0.62522 0.0
C1455 C 0.1252 0.87799 0.57556 0.0
H1456 H 0.14474 0.84513 0.72109 0.0
C1457 C 0.1367 0.90936 0.5871 0.0
H1458 H 0.12045 0.8305 0.61834 0.0
C1459 C 0.15169 0.91722 0.64513 0.0
C1460 C 0.1546 0.89439 0.69443 0.0
H1461 H 0.13413 0.92817 0.55165 0.0
H1462 H 0.16089 0.9414 0.65155 0.0
C1463 C 0.14234 0.86336 0.68428 0.0
C1464 C 0.90642 0.63639 0.65082 0.0
C1465 C 0.88287 0.63816 0.69967 0.0
H1466 H 0.9189 0.62019 0.55592 0.0
C1467 C 0.85307 0.62308 0.68789 0.0
H1468 H 0.93008 0.64664 0.65801 0.0
C1469 C 0.84706 0.60712 0.62942 0.0
C1470 C 0.87037 0.60615 0.58033 0.0
H1471 H 0.83402 0.62407 0.72318 0.0
H1472 H 0.82382 0.59588 0.62229 0.0
C1473 C 0.90011 0.62107 0.59188 0.0
C1474 C 0.14273 0.1017 0.4347 0.0
C1475 C 0.12651 0.13111 0.44173 0.0
H1476 H 0.1709 0.07148 0.37374 0.0
C1477 C 0.12707 0.15331 0.39079 0.0
H1478 H 0.14229 0.08386 0.47253 0.0
C1479 C 0.14319 0.14606 0.33371 0.0
C1480 C 0.15938 0.11662 0.32673 0.0
H1481 H 0.11513 0.17638 0.39512 0.0
H1482 H 0.14346 0.16373 0.29554 0.0
C1483 C 0.15899 0.09455 0.37788 0.0
C1484 C 0.64466 0.36631 0.19029 0.0
C1485 C 0.65611 0.39742 0.20281 0.0
H1486 H 0.6228 0.3342 0.12341 0.0
C1487 C 0.65173 0.42122 0.15554 0.0
H1488 H 0.64825 0.34728 0.22506 0.0
C1489 C 0.63606 0.41406 0.09721 0.0
C1490 C 0.62485 0.38269 0.084 0.0
H1491 H 0.66034 0.44549 0.16384 0.0
H1492 H 0.63258 0.4333 0.06298 0.0
C1493 C 0.62978 0.35894 0.13158 0.0
C1494 C 0.34016 0.89245 0.90715 0.0
C1495 C 0.36365 0.89926 0.9539 0.0
H1496 H 0.33014 0.87377 0.81335 0.0
C1497 C 0.39619 0.89398 0.93904 0.0
H1498 H 0.3149 0.89622 0.91735 0.0
C1499 C 0.40503 0.88154 0.87925 0.0
C1500 C 0.38155 0.87375 0.83291 0.0
H1501 H 0.41493 0.89975 0.97353 0.0
H1502 H 0.43037 0.8782 0.86931 0.0
C1503 C 0.34898 0.87969 0.84741 0.0
C1504 C 0.10299 0.74212 0.1635 0.0
C1505 C 0.12951 0.72281 0.18109 0.0
H1506 H 0.08415 0.78994 0.14951 0.0
C1507 C 0.15764 0.7386 0.20212 0.0
H1508 H 0.08112 0.7309 0.146 0.0
C1509 C 0.15997 0.77255 0.20051 0.0
C1510 C 0.13362 0.79178 0.18164 0.0
H1511 H 0.1788 0.72466 0.21438 0.0
H1512 H 0.18277 0.78377 0.2122 0.0
C1513 C 0.10475 0.77604 0.16524 0.0
C1514 C 0.52521 0.85102 0.42314 0.0
C1515 C 0.54433 0.87719 0.44356 0.0
H1516 H 0.47756 0.83132 0.41167 0.0
C1517 C 0.52845 0.90346 0.47246 0.0
H1518 H 0.53643 0.83032 0.40068 0.0
C1519 C 0.49444 0.90517 0.47353 0.0
C1520 C 0.4753 0.87952 0.45067 0.0
H1521 H 0.54223 0.92389 0.48947 0.0
H1522 H 0.48308 0.92712 0.49014 0.0
C1523 C 0.49134 0.85169 0.42898 0.0
C1524 C 0.40962 0.27615 0.63641 0.0
C1525 C 0.3888 0.2937 0.67677 0.0
H1526 H 0.42594 0.23035 0.60303 0.0
C1527 C 0.37057 0.27625 0.72199 0.0
H1528 H 0.42441 0.28844 0.60139 0.0
C1529 C 0.37162 0.24205 0.72315 0.0
C1530 C 0.39088 0.22472 0.67906 0.0
H1531 H 0.35418 0.28883 0.75371 0.0
H1532 H 0.35585 0.22922 0.7555 0.0
C1533 C 0.41061 0.24253 0.63746 0.0
C1534 C 0.99396 0.11716 0.97291 0.0
C1535 C 0.97719 0.1372 0.92937 0.0
H1536 H 0.0404 0.09926 1.00456 0.0
C1537 C 0.99538 0.15782 0.89047 0.0
H1538 H 0.98073 0.1007 1.00317 0.0
C1539 C 0.02896 0.15718 0.89159 0.0
C1540 C 0.04613 0.13557 0.9311 0.0
H1541 H 0.98356 0.1737 0.85653 0.0
H1542 H 0.04152 0.17286 0.85858 0.0
C1543 C 0.02818 0.11627 0.97363 0.0
C1544 C 0.10498 0.27144 0.85969 0.0
C1545 C 0.13053 0.29084 0.83803 0.0
H1546 H 0.08773 0.22369 0.87939 0.0
C1547 C 0.15847 0.27533 0.81547 0.0
H1548 H 0.08334 0.28255 0.8784 0.0
C1549 C 0.16169 0.24154 0.81971 0.0
C1550 C 0.13642 0.22235 0.84329 0.0
H1551 H 0.17893 0.28948 0.80021 0.0
H1552 H 0.18428 0.23046 0.80616 0.0
C1553 C 0.10761 0.23769 0.8609 0.0
C1554 C 0.02739 0.90899 0.06783 0.0
C1555 C 0.04356 0.8811 0.08907 0.0
H1556 H 0.98204 0.93414 0.05933 0.0
C1557 C 0.02439 0.85523 0.11049 0.0
H1558 H 0.04115 0.92978 0.05298 0.0
C1559 C 0.99046 0.85731 0.11202 0.0
C1560 C 0.97445 0.8859 0.09497 0.0
H1561 H 0.03581 0.83361 0.12852 0.0
H1562 H 0.97685 0.8371 0.13019 0.0
C1563 C 0.99343 0.91161 0.07226 0.0
C1564 C 0.3653 0.74245 0.30382 0.0
C1565 C 0.38644 0.72343 0.34097 0.0
H1566 H 0.34904 0.79048 0.28023 0.0
C1567 C 0.40994 0.7394 0.3779 0.0
H1568 H 0.34634 0.73103 0.27617 0.0
C1569 C 0.41125 0.77312 0.38088 0.0
C1570 C 0.38924 0.79236 0.34654 0.0
H1571 H 0.42655 0.72566 0.40717 0.0
H1572 H 0.42874 0.7842 0.41273 0.0
C1573 C 0.36685 0.77657 0.30616 0.0
C1574 C 0.52607 0.11365 0.55616 0.0
C1575 C 0.54241 0.1371 0.59323 0.0
H1576 H 0.48008 0.09315 0.52899 0.0
C1577 C 0.52369 0.16082 0.62391 0.0
H1578 H 0.53957 0.09447 0.53338 0.0
C1579 C 0.48996 0.16037 0.62049 0.0
C1580 C 0.47333 0.13591 0.58711 0.0
H1581 H 0.53518 0.1791 0.65334 0.0
H1582 H 0.47666 0.1784 0.64718 0.0
C1583 C 0.4919 0.11292 0.55353 0.0
C1584 C 0.86349 0.23709 0.80229 0.0
C1585 C 0.88997 0.22131 0.83064 0.0
H1586 H 0.83909 0.28231 0.78674 0.0
C1587 C 0.91577 0.24064 0.85202 0.0
H1588 H 0.8433 0.22318 0.78451 0.0
C1589 C 0.91455 0.27454 0.84781 0.0
C1590 C 0.8865 0.29037 0.82685 0.0
H1591 H 0.93664 0.22953 0.87402 0.0
H1592 H 0.93472 0.28843 0.86562 0.0
C1593 C 0.86118 0.27109 0.80297 0.0
C1594 C 0.60801 0.77211 0.38645 0.0
C1595 C 0.62774 0.79015 0.34522 0.0
H1596 H 0.5938 0.72611 0.42117 0.0
C1597 C 0.64699 0.77296 0.30086 0.0
H1598 H 0.59277 0.78415 0.42125 0.0
C1599 C 0.6478 0.73868 0.30105 0.0
C1600 C 0.62936 0.72096 0.3456 0.0
H1601 H 0.66284 0.78592 0.26889 0.0
H1602 H 0.6641 0.72623 0.26894 0.0
C1603 C 0.60873 0.73846 0.38652 0.0
C1604 C 0.9075 0.74272 0.14336 0.0
C1605 C 0.88721 0.72465 0.1834 0.0
H1606 H 0.92223 0.78865 0.10925 0.0
C1607 C 0.86716 0.74198 0.22625 0.0
H1608 H 0.9233 0.73067 0.1096 0.0
C1609 C 0.86623 0.77634 0.2257 0.0
C1610 C 0.88539 0.7941 0.18236 0.0
H1611 H 0.85079 0.72905 0.25719 0.0
H1612 H 0.84935 0.7888 0.25653 0.0
C1613 C 0.90671 0.77641 0.14302 0.0
C1614 C 0.66133 0.24175 0.71301 0.0
C1615 C 0.63353 0.22282 0.70378 0.0
H1616 H 0.68182 0.28926 0.71916 0.0
C1617 C 0.604 0.23913 0.6964 0.0
H1618 H 0.68455 0.23023 0.7186 0.0
C1619 C 0.60299 0.27309 0.69095 0.0
C1620 C 0.63112 0.29184 0.6974 0.0
H1621 H 0.58208 0.22555 0.68879 0.0
H1622 H 0.58035 0.28462 0.67924 0.0
C1623 C 0.6599 0.27568 0.71217 0.0
C1624 C 0.98947 0.40422 0.95757 0.0
C1625 C 0.97317 0.37748 0.93157 0.0
H1626 H 0.03524 0.42748 0.97264 0.0
C1627 C 0.99171 0.35109 0.91037 0.0
H1628 H 0.97604 0.42525 0.9727 0.0
C1629 C 0.02554 0.35173 0.91335 0.0
C1630 C 0.04186 0.37941 0.93465 0.0
H1631 H 0.98 0.33034 0.88908 0.0
H1632 H 0.03896 0.33142 0.89466 0.0
C1633 C 0.02341 0.40553 0.95733 0.0
C1634 C 0.48924 0.61577 0.47195 0.0
C1635 C 0.47246 0.63692 0.43047 0.0
H1636 H 0.53538 0.59574 0.50021 0.0
C1637 C 0.49117 0.65654 0.39002 0.0
H1638 H 0.47589 0.5998 0.50303 0.0
C1639 C 0.52483 0.65404 0.38807 0.0
C1640 C 0.54175 0.63177 0.42636 0.0
H1641 H 0.47958 0.67317 0.35727 0.0
H1642 H 0.53765 0.66931 0.35482 0.0
C1643 C 0.52346 0.61327 0.46999 0.0
C1644 C 0.4888 0.35288 0.62385 0.0
C1645 C 0.47305 0.37815 0.592 0.0
H1646 H 0.53385 0.33278 0.6548 0.0
C1647 C 0.49196 0.40077 0.55886 0.0
H1648 H 0.475 0.3352 0.65007 0.0
C1649 C 0.52588 0.39862 0.55914 0.0
C1650 C 0.54167 0.37453 0.5948 0.0
H1651 H 0.48054 0.4209 0.53495 0.0
H1652 H 0.53974 0.41729 0.53585 0.0
C1653 C 0.52258 0.35139 0.62613 0.0
C1654 C 0.02118 0.61044 0.05295 0.0
C1655 C 0.04027 0.63573 0.07746 0.0
H1656 H 0.9734 0.59195 0.0359 0.0
C1657 C 0.02426 0.66324 0.10069 0.0
H1658 H 0.03257 0.58875 0.03506 0.0
C1659 C 0.99042 0.66383 0.10652 0.0
C1660 C 0.97133 0.63797 0.08457 0.0
H1661 H 0.03803 0.68339 0.119 0.0
H1662 H 0.97919 0.68422 0.13012 0.0
C1663 C 0.98718 0.61214 0.05407 0.0
C1664 C 0.16574 0.51903 0.03573 0.0
C1665 C 0.13671 0.53422 0.05312 0.0
H1666 H 0.18942 0.48406 0.97588 0.0
C1667 C 0.10804 0.52062 0.02856 0.0
H1668 H 0.18834 0.528 0.05436 0.0
C1669 C 0.10852 0.49248 0.98962 0.0
C1670 C 0.13778 0.47853 0.96929 0.0
H1671 H 0.08512 0.53164 0.03995 0.0
H1672 H 0.08592 0.48179 0.97476 0.0
C1673 C 0.16634 0.49326 0.99119 0.0
C1674 C 0.74267 0.86032 0.27922 0.0
C1675 C 0.72716 0.88942 0.29722 0.0
H1676 H 0.78143 0.83714 0.22663 0.0
C1677 C 0.74087 0.918 0.27297 0.0
H1678 H 0.73316 0.83763 0.29609 0.0
C1679 C 0.769 0.91773 0.23435 0.0
C1680 C 0.78447 0.88882 0.21574 0.0
H1681 H 0.73013 0.94099 0.28496 0.0
H1682 H 0.77872 0.94058 0.21879 0.0
C1683 C 0.77042 0.86 0.23857 0.0
C1684 C 0.40214 0.48955 0.51039 0.0
C1685 C 0.37969 0.48312 0.55961 0.0
H1686 H 0.41795 0.52124 0.43542 0.0
C1687 C 0.35502 0.50592 0.56907 0.0
H1688 H 0.42146 0.47267 0.50108 0.0
C1689 C 0.35193 0.53299 0.52818 0.0
C1690 C 0.37421 0.53927 0.47852 0.0
H1691 H 0.33687 0.50179 0.60537 0.0
H1692 H 0.33155 0.54874 0.53457 0.0
C1693 C 0.39984 0.51734 0.47165 0.0
C1694 C 0.77224 0.15512 0.78176 0.0
C1695 C 0.78634 0.12654 0.8057 0.0
H1696 H 0.73342 0.17693 0.72819 0.0
C1697 C 0.77225 0.09731 0.78573 0.0
H1698 H 0.78269 0.1783 0.79205 0.0
C1699 C 0.74613 0.09659 0.74202 0.0
C1700 C 0.73102 0.12511 0.72129 0.0
H1701 H 0.78229 0.07473 0.80201 0.0
H1702 H 0.73717 0.07349 0.72597 0.0
C1703 C 0.7444 0.1544 0.74253 0.0
C1704 C 0.85106 0.51129 0.06192 0.0
C1705 C 0.87725 0.53275 0.05797 0.0
H1706 H 0.82754 0.46906 0.02414 0.0
C1707 C 0.90155 0.5248 1.01301 0.0
H1708 H 0.83114 0.51689 0.0935 0.0
C1709 C 0.9001 0.49642 0.97477 0.0
C1710 C 0.8736 0.4752 0.97774 0.0
H1711 H 0.92177 0.5409 1.00676 0.0
H1712 H 0.9197 0.49138 0.94214 0.0
C1713 C 0.84903 0.48355 0.02184 0.0
C1714 C 0.24144 0.15315 0.75959 0.0
C1715 C 0.23353 0.12865 0.80361 0.0
H1716 H 0.27507 0.17133 0.69053 0.0
C1717 C 0.25483 0.10239 0.80835 0.0
H1718 H 0.22559 0.17366 0.75395 0.0
C1719 C 0.28196 0.09991 0.7677 0.0
C1720 C 0.29015 0.12454 0.72411 0.0
H1721 H 0.24948 0.08274 0.84066 0.0
H1722 H 0.29618 0.07818 0.76923 0.0
C1723 C 0.26963 0.15152 0.72194 0.0
C1724 C 0.65839 0.50558 0.45821 0.0
C1725 C 0.63364 0.52858 0.46544 0.0
H1726 H 0.68043 0.46185 0.49294 0.0
C1727 C 0.61042 0.52232 0.51339 0.0
H1728 H 0.67726 0.50963 0.42339 0.0
C1729 C 0.61196 0.49471 0.55297 0.0
C1730 C 0.63741 0.4724 0.54809 0.0
H1731 H 0.59118 0.53945 0.52152 0.0
H1732 H 0.5934 0.4913 0.58856 0.0
C1733 C 0.66038 0.47821 0.49909 0.0
C1734 C 0.28276 0.91565 0.25346 0.0
C1735 C 0.29032 0.89239 0.30084 0.0
H1736 H 0.25005 0.932 0.17922 0.0
C1737 C 0.26817 0.86686 0.30749 0.0
H1738 H 0.29817 0.93629 0.24772 0.0
C1739 C 0.23959 0.86518 0.27008 0.0
C1740 C 0.23234 0.88818 0.22214 0.0
H1741 H 0.27271 0.84809 0.34212 0.0
H1742 H 0.22296 0.84564 0.27886 0.0
C1743 C 0.25485 0.91324 0.21396 0.0
C1744 C 0.61517 0.98919 0.51421 0.0
C1745 C 0.63912 0.98155 0.46839 0.0
H1746 H 0.59726 0.0224 0.58549 0.0
C1747 C 0.66491 1.0034 0.46299 0.0
H1748 H 0.59525 0.97281 0.52137 0.0
C1749 C 0.66695 0.03123 0.50277 0.0
C1750 C 0.64276 0.03917 0.548 0.0
H1751 H 0.68452 0.99805 0.43048 0.0
H1752 H 0.68811 0.04613 0.49926 0.0
C1753 C 0.61661 0.01761 0.55214 0.0
C1754 C 0.24276 0.42132 0.78143 0.0
C1755 C 0.22875 0.39222 0.80235 0.0
H1756 H 0.28055 0.44496 0.72906 0.0
C1757 C 0.24382 0.36346 0.78142 0.0
H1758 H 0.23221 0.44406 0.79576 0.0
C1759 C 0.27136 0.364 0.74049 0.0
C1760 C 0.2855 0.3933 0.7205 0.0
H1761 H 0.23395 0.34046 0.79562 0.0
H1762 H 0.282 0.34138 0.72561 0.0
C1763 C 0.27067 0.42185 0.74254 0.0
C1764 C 0.90279 0.98897 1.00335 0.0
C1765 C 0.88052 0.98317 0.05308 0.0
H1766 H 0.91968 0.02059 0.92969 0.0
C1767 C 0.85714 0.00719 0.06439 0.0
H1768 H 0.92124 0.97132 0.99282 0.0
C1769 C 0.85534 0.03513 0.02525 0.0
C1770 C 0.87739 0.04059 0.97461 0.0
H1771 H 0.83929 1.00372 0.10154 0.0
H1772 H 0.83634 0.05234 0.03426 0.0
C1773 C 0.90161 0.01726 0.966 0.0
C1774 C 0.23411 0.59935 0.27018 0.0
C1775 C 0.22537 0.62376 0.22604 0.0
H1776 H 0.26735 0.58229 0.34277 0.0
C1777 C 0.24622 0.65054 0.22291 0.0
H1778 H 0.22016 0.5775 0.27198 0.0
C1779 C 0.27452 0.65249 0.26126 0.0
C1780 C 0.2827 0.62847 0.30661 0.0
H1781 H 0.24094 0.67 0.19012 0.0
H1782 H 0.29032 0.67294 0.25499 0.0
C1783 C 0.26157 0.60201 0.31084 0.0
C1784 C 0.35025 0.99509 0.49695 0.0
C1785 C 0.37878 0.98063 0.47448 0.0
H1786 H 0.32838 0.0304 0.55899 0.0
C1787 C 0.40808 0.99476 0.49422 0.0
H1788 H 0.32714 0.98591 0.48163 0.0
C1789 C 0.40863 0.02274 0.53349 0.0
C1790 C 0.38003 0.03609 0.55849 0.0
H1791 H 0.43065 0.98425 0.47886 0.0
H1792 H 0.43152 0.03396 0.54445 0.0
C1793 C 0.35093 0.02103 0.54107 0.0
C1794 C 0.77489 0.5936 0.25201 0.0
C1795 C 0.78812 0.62256 0.22835 0.0
H1796 H 0.73724 0.57002 0.30527 0.0
C1797 C 0.77179 0.65122 0.24621 0.0
H1798 H 0.78627 0.5709 0.24012 0.0
C1799 C 0.74385 0.65078 0.2863 0.0
C1800 C 0.73033 0.62159 0.30865 0.0
H1801 H 0.78086 0.67418 0.22979 0.0
H1802 H 0.7323 0.67337 0.29833 0.0
C1803 C 0.74652 0.59309 0.29 0.0
C1804 C 0.11087 0.02072 0.98883 0.0
C1805 C 0.13964 0.03501 0.96636 0.0
H1806 H 0.08875 0.9834 0.04663 0.0
C1807 C 0.16868 0.02038 0.98644 0.0
H1808 H 0.08792 0.03118 0.97565 0.0
C1809 C 0.16914 0.99272 0.026 0.0
C1810 C 0.14063 0.97861 0.04955 0.0
H1811 H 0.19146 0.03033 0.97112 0.0
H1812 H 0.19224 0.9825 0.0389 0.0
C1813 C 0.11136 0.99333 0.03035 0.0
C1814 C 0.74272 0.35815 0.7492 0.0
C1815 C 0.72949 0.38693 0.72456 0.0
H1816 H 0.78151 0.33571 0.80195 0.0
C1817 C 0.74431 0.41594 0.74341 0.0
H1818 H 0.73123 0.3353 0.73949 0.0
C1819 C 0.77042 0.41628 0.78692 0.0
C1820 C 0.78517 0.38754 0.8073 0.0
H1821 H 0.73496 0.43866 0.72629 0.0
H1822 H 0.77977 0.43924 0.80282 0.0
C1823 C 0.77095 0.3584 0.78737 0.0
loop_
_geom_bond_atom_site_label_1
_geom_bond_atom_site_label_2
_geom_bond_distance
_geom_bond_site_symmetry_2
_ccdc_geom_bond_type
Eu0 N29 2.600 . S
Eu0 N35 2.562 . S
Eu0 O44 2.462 . S
Eu0 O45 2.373 . S
Eu0 O47 2.432 . S
Eu0 O48 2.291 . S
Eu0 O52 2.335 . S
Eu0 O55 2.372 . S
Eu0 C64 2.787 . S
C1 N2 1.365 1_556 S
C1 C4 1.405 . S
C1 C8 1.448 . S
N2 C1 1.365 1_554 S
N2 C5 1.319 . S
N2 Eu11 2.600 . S
C3 C5 1.397 . S
C3 C6 1.367 . S
C3 H23 0.931 . S
C4 C1 1.405 . S
C4 C6 1.403 1_556 S
C4 C10 1.439 . S
C5 N2 1.319 . S
C5 C3 1.397 . S
C5 H16 0.930 . S
C6 C3 1.367 . S
C6 C4 1.403 1_554 S
C6 H27 0.931 . S
C7 C8 1.430 . S
C7 C9 1.387 . S
C7 C13 1.404 . S
C8 C1 1.448 . S
C8 C7 1.430 . S
C8 N12 1.351 . S
C9 C7 1.387 . S
C9 C10 1.374 . S
C9 H24 0.931 . S
C10 C4 1.439 . S
C10 C9 1.374 . S
C10 H25 0.931 . S
Eu11 N2 2.600 . S
Eu11 N12 2.562 1_554 S
Eu11 O46 2.335 . S
Eu11 O49 2.372 . S
Eu11 O50 2.462 1_554 S
Eu11 O51 2.373 . S
Eu11 O53 2.432 1_554 S
Eu11 O54 2.291 . S
Eu11 C75 2.787 1_554 S
N12 C8 1.351 . S
N12 Eu11 2.562 1_556 S
N12 C14 1.325 . S
C13 C7 1.404 . S
C13 C15 1.366 . S
C13 H21 0.930 . S
C14 N12 1.325 . S
C14 C15 1.416 . S
C14 H20 0.929 . S
C15 C13 1.366 . S
C15 C14 1.416 . S
C15 H17 0.930 . S
H16 C5 0.930 . S
H17 C15 0.930 . S
H18 C33 0.930 . S
H19 C40 0.930 . S
H20 C14 0.929 . S
H21 C13 0.930 . S
H22 C36 0.929 . S
H23 C3 0.931 . S
H24 C9 0.931 . S
H25 C10 0.931 . S
H26 C31 0.931 . S
H27 C6 0.931 . S
H28 C39 0.930 1_655 S
N29 Eu0 2.600 . S
N29 C30 1.365 . S
N29 C33 1.319 . S
C30 N29 1.365 . S
C30 C32 1.405 . S
C30 C38 1.448 . S
C31 H26 0.931 . S
C31 C33 1.397 . S
C31 C34 1.367 . S
C32 C30 1.405 . S
C32 C34 1.403 . S
C32 C65 1.439 1_455 S
C33 H18 0.930 . S
C33 N29 1.319 . S
C33 C31 1.397 . S
C34 C31 1.367 . S
C34 C32 1.403 . S
C34 H41 0.929 . S
N35 Eu0 2.562 . S
N35 C36 1.325 . S
N35 C38 1.351 . S
C36 H22 0.929 . S
C36 N35 1.325 . S
C36 C40 1.416 . S
C37 C38 1.430 . S
C37 C39 1.404 . S
C37 C66 1.387 1_455 S
C38 C30 1.448 . S
C38 N35 1.351 . S
C38 C37 1.430 . S
C39 H28 0.930 1_455 S
C39 C37 1.404 . S
C39 C40 1.366 . S
C40 H19 0.930 . S
C40 C36 1.416 . S
C40 C39 1.366 . S
H41 C34 0.929 . S
H42 C65 0.931 . S
H43 C66 0.931 . S
O44 Eu0 2.462 . S
O44 C64 1.252 . S
O45 Eu0 2.373 . S
O45 C56 1.249 . S
O46 Eu11 2.335 . S
O46 C56 1.264 . S
O47 Eu0 2.432 . S
O47 C64 1.268 . S
O48 Eu0 2.291 . S
O48 C63 1.255 . S
O49 Eu11 2.372 . S
O49 C63 1.257 . S
O50 Eu11 2.462 1_556 S
O50 C75 1.252 . S
O51 Eu11 2.373 . S
O51 C67 1.249 . S
O52 Eu0 2.335 . S
O52 C67 1.264 . S
O53 Eu11 2.432 1_556 S
O53 C75 1.268 . S
O54 Eu11 2.291 . S
O54 C74 1.255 . S
O55 Eu0 2.372 . S
O55 C74 1.257 . S
C56 O45 1.249 . S
C56 O46 1.264 . S
C57 C60 1.382 . S
C57 C62 1.390 . S
C57 C64 1.506 . S
C58 C59 1.398 . S
C58 C62 1.392 . S
C59 C58 1.398 . S
C59 C61 1.372 . S
C59 H76 0.931 . S
C60 C57 1.382 . S
C60 C61 1.390 . S
C60 H77 0.931 . S
C61 C59 1.372 . S
C61 C60 1.390 . S
C61 H78 0.929 . S
C62 C57 1.390 . S
C62 C58 1.392 . S
C62 H79 0.930 . S
C63 O48 1.255 . S
C63 O49 1.257 . S
C64 Eu0 2.787 . S
C64 O44 1.252 . S
C64 O47 1.268 . S
C64 C57 1.506 . S
C65 C32 1.439 1_655 S
C65 H42 0.931 . S
C65 C66 1.374 . S
C66 C37 1.387 1_655 S
C66 H43 0.931 . S
C66 C65 1.374 . S
C67 O51 1.249 . S
C67 O52 1.264 . S
C68 C71 1.382 . S
C68 C72 1.390 . S
C68 C75 1.506 . S
C69 C70 1.398 . S
C69 C72 1.392 . S
C70 C69 1.398 . S
C70 C73 1.372 . S
C70 H80 0.931 . S
C71 C68 1.382 . S
C71 C73 1.390 . S
C71 H81 0.931 . S
C72 C68 1.390 . S
C72 C69 1.392 . S
C72 H82 0.930 . S
C73 C70 1.372 . S
C73 C71 1.390 . S
C73 H83 0.929 . S
C74 O54 1.255 . S
C74 O55 1.257 . S
C75 Eu11 2.787 1_556 S
C75 O50 1.252 . S
C75 O53 1.268 . S
C75 C68 1.506 . S
H76 C59 0.931 . S
H77 C60 0.931 . S
H78 C61 0.929 . S
H79 C62 0.930 . S
H80 C70 0.931 . S
H81 C71 0.931 . S
H82 C72 0.930 . S
H83 C73 0.929 . S
Eu84 N113 2.600 . S
Eu84 N119 2.562 . S
Eu84 O128 2.462 . S
Eu84 O129 2.373 . S
Eu84 O131 2.432 . S
Eu84 O132 2.291 . S
Eu84 O136 2.335 . S
Eu84 O139 2.372 . S
Eu84 C148 2.787 . S
C85 N86 1.365 . S
C85 C88 1.405 . S
C85 C92 1.448 . S
N86 C85 1.365 . S
N86 C89 1.319 . S
N86 Eu95 2.600 . S
C87 C89 1.397 . S
C87 C90 1.367 . S
C87 H107 0.931 . S
C88 C85 1.405 . S
C88 C90 1.403 . S
C88 C94 1.439 . S
C89 N86 1.319 . S
C89 C87 1.397 . S
C89 H100 0.930 . S
C90 C87 1.367 . S
C90 C88 1.403 . S
C90 H111 0.929 . S
C91 C92 1.430 . S
C91 C93 1.387 . S
C91 C97 1.404 . S
C92 C85 1.448 . S
C92 C91 1.430 . S
C92 N96 1.351 . S
C93 C91 1.387 . S
C93 C94 1.374 . S
C93 H108 0.931 . S
C94 C88 1.439 . S
C94 C93 1.374 . S
C94 H109 0.931 . S
Eu95 N86 2.600 . S
Eu95 N96 2.562 . S
Eu95 O130 2.335 . S
Eu95 O133 2.372 . S
Eu95 O134 2.462 . S
Eu95 O135 2.373 . S
Eu95 O137 2.432 . S
Eu95 O138 2.291 . S
Eu95 C159 2.787 . S
N96 C92 1.351 . S
N96 Eu95 2.562 . S
N96 C98 1.325 . S
C97 C91 1.404 . S
C97 C99 1.366 . S
C97 H105 0.930 . S
C98 N96 1.325 . S
C98 C99 1.416 . S
C98 H104 0.929 . S
C99 C97 1.366 . S
C99 C98 1.416 . S
C99 H101 0.930 . S
H100 C89 0.930 . S
H101 C99 0.930 . S
H102 C117 0.930 . S
H103 C124 0.930 . S
H104 C98 0.929 . S
H105 C97 0.930 . S
H106 C120 0.929 . S
H107 C87 0.931 . S
H108 C93 0.931 . S
H109 C94 0.931 . S
H110 C115 0.931 1_545 S
H111 C90 0.929 . S
H112 C123 0.930 . S
N113 Eu84 2.600 . S
N113 C114 1.365 . S
N113 C117 1.319 . S
C114 N113 1.365 . S
C114 C116 1.405 . S
C114 C122 1.448 . S
C115 H110 0.931 1_565 S
C115 C117 1.397 . S
C115 C118 1.367 . S
C116 C114 1.405 . S
C116 C118 1.403 . S
C116 C149 1.439 . S
C117 H102 0.930 . S
C117 N113 1.319 . S
C117 C115 1.397 . S
C118 C115 1.367 . S
C118 C116 1.403 . S
C118 H125 0.929 1_565 S
N119 Eu84 2.562 . S
N119 C120 1.325 . S
N119 C122 1.351 . S
C120 H106 0.929 . S
C120 N119 1.325 . S
C120 C124 1.416 . S
C121 C122 1.430 . S
C121 C123 1.404 . S
C121 C150 1.387 . S
C122 C114 1.448 . S
C122 N119 1.351 . S
C122 C121 1.430 . S
C123 H112 0.930 . S
C123 C121 1.404 . S
C123 C124 1.366 . S
C124 H103 0.930 . S
C124 C120 1.416 . S
C124 C123 1.366 . S
H125 C118 0.929 1_545 S
H126 C149 0.931 . S
H127 C150 0.931 . S
O128 Eu84 2.462 . S
O128 C148 1.252 . S
O129 Eu84 2.373 . S
O129 C140 1.249 . S
O130 Eu95 2.335 . S
O130 C140 1.264 . S
O131 Eu84 2.432 . S
O131 C148 1.268 . S
O132 Eu84 2.291 . S
O132 C147 1.255 . S
O133 Eu95 2.372 . S
O133 C147 1.257 . S
O134 Eu95 2.462 . S
O134 C159 1.252 . S
O135 Eu95 2.373 . S
O135 C151 1.249 . S
O136 Eu84 2.335 . S
O136 C151 1.264 . S
O137 Eu95 2.432 . S
O137 C159 1.268 . S
O138 Eu95 2.291 . S
O138 C158 1.255 . S
O139 Eu84 2.372 . S
O139 C158 1.257 . S
C140 O129 1.249 . S
C140 O130 1.264 . S
C141 C144 1.382 . S
C141 C146 1.390 . S
C141 C148 1.506 . S
C142 C143 1.399 . S
C142 C146 1.389 1_556 S
C143 C142 1.399 . S
C143 C145 1.372 1_556 S
C143 H160 0.931 . S
C144 C141 1.382 . S
C144 C145 1.390 . S
C144 H161 0.931 . S
C145 C143 1.372 1_554 S
C145 C144 1.390 . S
C145 H162 0.929 1_554 S
C146 C141 1.390 . S
C146 C142 1.389 1_554 S
C146 H163 0.930 . S
C147 O132 1.255 . S
C147 O133 1.257 . S
C148 Eu84 2.787 . S
C148 O128 1.252 . S
C148 O131 1.268 . S
C148 C141 1.506 . S
C149 C116 1.439 . S
C149 H126 0.931 . S
C149 C150 1.374 . S
C150 C121 1.387 . S
C150 H127 0.931 . S
C150 C149 1.374 . S
C151 O135 1.249 . S
C151 O136 1.264 . S
C152 C155 1.382 . S
C152 C156 1.390 . S
C152 C159 1.506 . S
C153 C154 1.398 . S
C153 C156 1.392 . S
C154 C153 1.398 . S
C154 C157 1.372 . S
C154 H164 0.931 . S
C155 C152 1.382 . S
C155 C157 1.390 . S
C155 H165 0.931 . S
C156 C152 1.390 . S
C156 C153 1.392 . S
C156 H166 0.930 . S
C157 C154 1.372 . S
C157 C155 1.390 . S
C157 H167 0.929 . S
C158 O138 1.255 . S
C158 O139 1.257 . S
C159 Eu95 2.787 . S
C159 O134 1.252 . S
C159 O137 1.268 . S
C159 C152 1.506 . S
H160 C143 0.931 . S
H161 C144 0.931 . S
H162 C145 0.929 1_556 S
H163 C146 0.930 . S
H164 C154 0.931 . S
H165 C155 0.931 . S
H166 C156 0.930 . S
H167 C157 0.929 . S
Eu168 N197 2.600 . S
Eu168 N203 2.562 . S
Eu168 O212 2.462 . S
Eu168 O213 2.373 . S
Eu168 O215 2.432 . S
Eu168 O216 2.291 . S
Eu168 O220 2.335 . S
Eu168 O223 2.372 . S
Eu168 C232 2.787 . S
C169 N170 1.365 . S
C169 C172 1.405 . S
C169 C176 1.448 . S
N170 C169 1.365 . S
N170 C173 1.319 . S
N170 Eu179 2.600 . S
C171 C173 1.397 . S
C171 C174 1.367 . S
C171 H191 0.931 . S
C172 C169 1.405 . S
C172 C174 1.403 . S
C172 C178 1.439 . S
C173 N170 1.319 . S
C173 C171 1.397 . S
C173 H184 0.930 . S
C174 C171 1.367 . S
C174 C172 1.403 . S
C174 H195 0.929 . S
C175 C176 1.430 . S
C175 C177 1.387 . S
C175 C181 1.404 . S
C176 C169 1.448 . S
C176 C175 1.430 . S
C176 N180 1.351 . S
C177 C175 1.387 . S
C177 C178 1.374 . S
C177 H192 0.931 . S
C178 C172 1.439 . S
C178 C177 1.374 . S
C178 H193 0.931 . S
Eu179 N170 2.600 . S
Eu179 N180 2.562 . S
Eu179 O214 2.335 . S
Eu179 O217 2.372 . S
Eu179 O218 2.462 . S
Eu179 O219 2.373 . S
Eu179 O221 2.432 . S
Eu179 O222 2.291 . S
Eu179 C243 2.787 . S
N180 C176 1.351 . S
N180 Eu179 2.562 . S
N180 C182 1.325 . S
C181 C175 1.404 . S
C181 C183 1.366 . S
C181 H189 0.930 . S
C182 N180 1.325 . S
C182 C183 1.416 . S
C182 H188 0.929 . S
C183 C181 1.366 . S
C183 C182 1.416 . S
C183 H185 0.930 . S
H184 C173 0.930 . S
H185 C183 0.930 . S
H186 C201 0.930 . S
H187 C208 0.930 . S
H188 C182 0.929 . S
H189 C181 0.930 . S
H190 C204 0.929 . S
H191 C171 0.931 . S
H192 C177 0.931 . S
H193 C178 0.931 . S
H194 C199 0.931 . S
H195 C174 0.929 . S
H196 C207 0.930 . S
N197 Eu168 2.600 . S
N197 C198 1.365 . S
N197 C201 1.319 . S
C198 N197 1.365 . S
C198 C200 1.405 . S
C198 C206 1.448 . S
C199 H194 0.931 . S
C199 C201 1.397 . S
C199 C202 1.367 . S
C200 C198 1.405 . S
C200 C202 1.403 . S
C200 C233 1.439 . S
C201 H186 0.930 . S
C201 N197 1.319 . S
C201 C199 1.397 . S
C202 C199 1.367 . S
C202 C200 1.403 . S
C202 H209 0.929 . S
N203 Eu168 2.562 . S
N203 C204 1.325 . S
N203 C206 1.351 . S
C204 H190 0.929 . S
C204 N203 1.325 . S
C204 C208 1.416 . S
C205 C206 1.430 . S
C205 C207 1.404 . S
C205 C234 1.387 . S
C206 C198 1.448 . S
C206 N203 1.351 . S
C206 C205 1.430 . S
C207 H196 0.930 . S
C207 C205 1.404 . S
C207 C208 1.366 . S
C208 H187 0.930 . S
C208 C204 1.416 . S
C208 C207 1.366 . S
H209 C202 0.929 . S
H210 C233 0.931 . S
H211 C234 0.931 . S
O212 Eu168 2.462 . S
O212 C232 1.252 . S
O213 Eu168 2.373 . S
O213 C224 1.249 . S
O214 Eu179 2.335 . S
O214 C224 1.264 . S
O215 Eu168 2.432 . S
O215 C232 1.268 . S
O216 Eu168 2.291 . S
O216 C231 1.255 . S
O217 Eu179 2.372 . S
O217 C231 1.257 . S
O218 Eu179 2.462 . S
O218 C243 1.252 . S
O219 Eu179 2.373 . S
O219 C235 1.249 . S
O220 Eu168 2.335 . S
O220 C235 1.264 . S
O221 Eu179 2.432 . S
O221 C243 1.268 . S
O222 Eu179 2.291 . S
O222 C242 1.255 . S
O223 Eu168 2.372 . S
O223 C242 1.257 . S
C224 O213 1.249 . S
C224 O214 1.264 . S
C225 C228 1.382 . S
C225 C230 1.390 . S
C225 C232 1.506 . S
C226 C227 1.398 . S
C226 C230 1.392 1_554 S
C227 C226 1.398 . S
C227 C229 1.363 1_554 S
C227 H244 0.931 . S
C228 C225 1.382 . S
C228 C229 1.406 . S
C228 H245 0.931 . S
C229 C227 1.363 1_556 S
C229 C228 1.406 . S
C229 H246 0.922 1_556 S
C230 C225 1.390 . S
C230 C226 1.392 1_556 S
C230 H247 0.930 . S
C231 O216 1.255 . S
C231 O217 1.257 . S
C232 Eu168 2.787 . S
C232 O212 1.252 . S
C232 O215 1.268 . S
C232 C225 1.506 . S
C233 C200 1.439 . S
C233 H210 0.931 . S
C233 C234 1.374 . S
C234 C205 1.387 . S
C234 H211 0.931 . S
C234 C233 1.374 . S
C235 O219 1.249 . S
C235 O220 1.264 . S
C236 C239 1.382 . S
C236 C240 1.390 . S
C236 C243 1.506 . S
C237 C238 1.398 . S
C237 C240 1.392 . S
C238 C237 1.398 . S
C238 C241 1.372 . S
C238 H248 0.931 . S
C239 C236 1.382 . S
C239 C241 1.390 . S
C239 H249 0.931 . S
C240 C236 1.390 . S
C240 C237 1.392 . S
C240 H250 0.930 . S
C241 C238 1.372 . S
C241 C239 1.390 . S
C241 H251 0.929 . S
C242 O222 1.255 . S
C242 O223 1.257 . S
C243 Eu179 2.787 . S
C243 O218 1.252 . S
C243 O221 1.268 . S
C243 C236 1.506 . S
H244 C227 0.931 . S
H245 C228 0.931 . S
H246 C229 0.922 1_554 S
H247 C230 0.930 . S
H248 C238 0.931 . S
H249 C239 0.931 . S
H250 C240 0.930 . S
H251 C241 0.929 . S
Eu252 N281 2.600 . S
Eu252 N287 2.562 1_556 S
Eu252 O296 2.462 1_556 S
Eu252 O297 2.373 . S
Eu252 O299 2.432 1_556 S
Eu252 O300 2.291 . S
Eu252 O304 2.335 . S
Eu252 O307 2.372 . S
Eu252 C316 2.787 1_556 S
C253 N254 1.365 . S
C253 C256 1.405 . S
C253 C260 1.448 . S
N254 C253 1.365 . S
N254 C257 1.319 . S
N254 Eu263 2.600 . S
C255 C257 1.397 . S
C255 C258 1.367 . S
C255 H275 0.931 1_655 S
C256 C253 1.405 . S
C256 C258 1.403 . S
C256 C262 1.439 1_545 S
C257 N254 1.319 . S
C257 C255 1.397 . S
C257 H268 0.930 . S
C258 C255 1.367 . S
C258 C256 1.403 . S
C258 H279 0.929 1_545 S
C259 C260 1.430 1_565 S
C259 C261 1.387 . S
C259 C265 1.404 . S
C260 C253 1.448 . S
C260 C259 1.430 1_545 S
C260 N264 1.351 . S
C261 C259 1.387 . S
C261 C262 1.374 . S
C261 H276 0.931 . S
C262 C256 1.439 1_565 S
C262 C261 1.374 . S
C262 H277 0.931 . S
Eu263 N254 2.600 . S
Eu263 N264 2.562 . S
Eu263 O298 2.335 . S
Eu263 O301 2.372 . S
Eu263 O302 2.462 . S
Eu263 O303 2.373 . S
Eu263 O305 2.432 . S
Eu263 O306 2.291 . S
Eu263 C327 2.787 . S
N264 C260 1.351 . S
N264 Eu263 2.562 . S
N264 C266 1.325 . S
C265 C259 1.404 . S
C265 C267 1.366 1_565 S
C265 H273 0.930 . S
C266 N264 1.325 . S
C266 C267 1.416 . S
C266 H272 0.929 . S
C267 C265 1.366 1_545 S
C267 C266 1.416 . S
C267 H269 0.930 . S
H268 C257 0.930 . S
H269 C267 0.930 . S
H270 C285 0.930 . S
H271 C292 0.930 . S
H272 C266 0.929 . S
H273 C265 0.930 . S
H274 C288 0.929 . S
H275 C255 0.931 1_455 S
H276 C261 0.931 . S
H277 C262 0.931 . S
H278 C283 0.931 . S
H279 C258 0.929 1_565 S
H280 C291 0.930 . S
N281 Eu252 2.600 . S
N281 C282 1.370 . S
N281 C285 1.319 . S
C282 N281 1.370 . S
C282 C284 1.404 1_556 S
C282 C290 1.445 1_556 S
C283 H278 0.931 . S
C283 C285 1.397 . S
C283 C286 1.367 . S
C284 C282 1.404 1_554 S
C284 C286 1.403 1_554 S
C284 C317 1.439 . S
C285 H270 0.930 . S
C285 N281 1.319 . S
C285 C283 1.397 . S
C286 C283 1.367 . S
C286 C284 1.403 1_556 S
C286 H293 0.929 . S
N287 Eu252 2.562 1_554 S
N287 C288 1.325 . S
N287 C290 1.351 . S
C288 H274 0.929 . S
C288 N287 1.325 . S
C288 C292 1.416 . S
C289 C290 1.430 . S
C289 C291 1.404 . S
C289 C318 1.387 . S
C290 C282 1.445 1_554 S
C290 N287 1.351 . S
C290 C289 1.430 . S
C291 H280 0.930 . S
C291 C289 1.404 . S
C291 C292 1.366 . S
C292 H271 0.930 . S
C292 C288 1.416 . S
C292 C291 1.366 . S
H293 C286 0.929 . S
H294 C317 0.931 . S
H295 C318 0.931 . S
O296 Eu252 2.462 1_554 S
O296 C316 1.252 . S
O297 Eu252 2.373 . S
O297 C308 1.249 . S
O298 Eu263 2.335 . S
O298 C308 1.264 . S
O299 Eu252 2.432 1_554 S
O299 C316 1.268 . S
O300 Eu252 2.291 . S
O300 C315 1.255 . S
O301 Eu263 2.372 . S
O301 C315 1.257 . S
O302 Eu263 2.462 . S
O302 C327 1.252 . S
O303 Eu263 2.373 . S
O303 C319 1.249 . S
O304 Eu252 2.335 . S
O304 C319 1.264 . S
O305 Eu263 2.432 . S
O305 C327 1.268 . S
O306 Eu263 2.291 . S
O306 C326 1.255 . S
O307 Eu252 2.372 . S
O307 C326 1.257 . S
C308 O297 1.249 . S
C308 O298 1.264 . S
C309 C312 1.382 . S
C309 C314 1.390 . S
C309 C316 1.506 . S
C310 C311 1.398 . S
C310 C314 1.392 . S
C311 C310 1.398 . S
C311 C313 1.372 . S
C311 H328 0.931 . S
C312 C309 1.382 . S
C312 C313 1.390 . S
C312 H329 0.931 . S
C313 C311 1.372 . S
C313 C312 1.390 . S
C313 H330 0.929 . S
C314 C309 1.390 . S
C314 C310 1.392 . S
C314 H331 0.930 . S
C315 O300 1.255 . S
C315 O301 1.257 . S
C316 Eu252 2.787 1_554 S
C316 O296 1.252 . S
C316 O299 1.268 . S
C316 C309 1.506 . S
C317 C284 1.439 . S
C317 H294 0.931 . S
C317 C318 1.374 . S
C318 C289 1.387 . S
C318 H295 0.931 . S
C318 C317 1.374 . S
C319 O303 1.249 . S
C319 O304 1.264 . S
C320 C323 1.382 . S
C320 C324 1.390 . S
C320 C327 1.506 . S
C321 C322 1.398 . S
C321 C324 1.392 . S
C322 C321 1.398 . S
C322 C325 1.372 . S
C322 H332 0.931 . S
C323 C320 1.382 . S
C323 C325 1.390 . S
C323 H333 0.931 . S
C324 C320 1.390 . S
C324 C321 1.392 . S
C324 H334 0.930 . S
C325 C322 1.372 . S
C325 C323 1.390 . S
C325 H335 0.929 . S
C326 O306 1.255 . S
C326 O307 1.257 . S
C327 Eu263 2.787 . S
C327 O302 1.252 . S
C327 O305 1.268 . S
C327 C320 1.506 . S
H328 C311 0.931 . S
H329 C312 0.931 . S
H330 C313 0.929 . S
H331 C314 0.930 . S
H332 C322 0.931 . S
H333 C323 0.931 . S
H334 C324 0.930 . S
H335 C325 0.929 . S
Eu336 N365 2.600 . S
Eu336 N371 2.562 . S
Eu336 O380 2.462 . S
Eu336 O381 2.373 . S
Eu336 O383 2.432 . S
Eu336 O384 2.291 . S
Eu336 O388 2.335 . S
Eu336 O391 2.372 . S
Eu336 C400 2.787 . S
C337 N338 1.365 1_554 S
C337 C340 1.405 . S
C337 C344 1.448 . S
N338 C337 1.365 1_556 S
N338 C341 1.319 . S
N338 Eu347 2.600 . S
C339 C341 1.397 . S
C339 C342 1.367 . S
C339 H359 0.931 . S
C340 C337 1.405 . S
C340 C342 1.403 1_554 S
C340 C346 1.439 . S
C341 N338 1.319 . S
C341 C339 1.397 . S
C341 H352 0.930 . S
C342 C339 1.367 . S
C342 C340 1.403 1_556 S
C342 H363 0.929 1_556 S
C343 C344 1.430 . S
C343 C345 1.387 . S
C343 C349 1.404 . S
C344 C337 1.448 . S
C344 C343 1.430 . S
C344 N348 1.351 . S
C345 C343 1.387 . S
C345 C346 1.374 . S
C345 H360 0.931 . S
C346 C340 1.439 . S
C346 C345 1.374 . S
C346 H361 0.931 . S
Eu347 N338 2.600 . S
Eu347 N348 2.562 1_556 S
Eu347 O382 2.335 . S
Eu347 O385 2.372 . S
Eu347 O386 2.462 1_556 S
Eu347 O387 2.373 . S
Eu347 O389 2.432 1_556 S
Eu347 O390 2.291 . S
Eu347 C411 2.787 1_556 S
N348 C344 1.351 . S
N348 Eu347 2.562 1_554 S
N348 C350 1.325 . S
C349 C343 1.404 . S
C349 C351 1.366 . S
C349 H357 0.930 . S
C350 N348 1.325 . S
C350 C351 1.416 . S
C350 H356 0.929 . S
C351 C349 1.366 . S
C351 C350 1.416 . S
C351 H353 0.930 . S
H352 C341 0.930 . S
H353 C351 0.930 . S
H354 C369 0.930 . S
H355 C376 0.930 . S
H356 C350 0.929 . S
H357 C349 0.930 . S
H358 C372 0.929 . S
H359 C339 0.931 . S
H360 C345 0.931 . S
H361 C346 0.931 . S
H362 C367 0.931 . S
H363 C342 0.929 1_554 S
H364 C375 0.924 1_655 S
N365 Eu336 2.600 . S
N365 C366 1.365 . S
N365 C369 1.319 . S
C366 N365 1.365 . S
C366 C368 1.405 . S
C366 C374 1.448 . S
C367 H362 0.931 . S
C367 C369 1.397 . S
C367 C370 1.367 . S
C368 C366 1.405 . S
C368 C370 1.403 . S
C368 C401 1.439 1_455 S
C369 H354 0.930 . S
C369 N365 1.319 . S
C369 C367 1.397 . S
C370 C367 1.367 . S
C370 C368 1.403 . S
C370 H377 0.929 . S
N371 Eu336 2.562 . S
N371 C372 1.325 . S
N371 C374 1.351 . S
C372 H358 0.929 . S
C372 N371 1.325 . S
C372 C376 1.416 . S
C373 C374 1.430 . S
C373 C375 1.406 . S
C373 C402 1.387 1_455 S
C374 C366 1.448 . S
C374 N371 1.351 . S
C374 C373 1.430 . S
C375 H364 0.924 1_455 S
C375 C373 1.406 . S
C375 C376 1.370 . S
C376 H355 0.930 . S
C376 C372 1.416 . S
C376 C375 1.370 . S
H377 C370 0.929 . S
H378 C401 0.931 . S
H379 C402 0.931 . S
O380 Eu336 2.462 . S
O380 C400 1.252 . S
O381 Eu336 2.373 . S
O381 C392 1.249 . S
O382 Eu347 2.335 . S
O382 C392 1.264 . S
O383 Eu336 2.432 . S
O383 C400 1.268 . S
O384 Eu336 2.291 . S
O384 C399 1.255 . S
O385 Eu347 2.372 . S
O385 C399 1.257 . S
O386 Eu347 2.462 1_554 S
O386 C411 1.252 . S
O387 Eu347 2.373 . S
O387 C403 1.249 . S
O388 Eu336 2.335 . S
O388 C403 1.264 . S
O389 Eu347 2.432 1_554 S
O389 C411 1.268 . S
O390 Eu347 2.291 . S
O390 C410 1.255 . S
O391 Eu336 2.372 . S
O391 C410 1.257 . S
C392 O381 1.249 . S
C392 O382 1.264 . S
C393 C396 1.382 . S
C393 C398 1.390 . S
C393 C400 1.506 . S
C394 C395 1.398 . S
C394 C398 1.392 . S
C395 C394 1.398 . S
C395 C397 1.372 . S
C395 H412 0.931 . S
C396 C393 1.382 . S
C396 C397 1.390 . S
C396 H413 0.931 . S
C397 C395 1.372 . S
C397 C396 1.390 . S
C397 H414 0.929 . S
C398 C393 1.390 . S
C398 C394 1.392 . S
C398 H415 0.930 . S
C399 O384 1.255 . S
C399 O385 1.257 . S
C400 Eu336 2.787 . S
C400 O380 1.252 . S
C400 O383 1.268 . S
C400 C393 1.506 . S
C401 C368 1.439 1_655 S
C401 H378 0.931 . S
C401 C402 1.374 . S
C402 C373 1.387 1_655 S
C402 H379 0.931 . S
C402 C401 1.374 . S
C403 O387 1.249 . S
C403 O388 1.264 . S
C404 C407 1.382 . S
C404 C408 1.390 . S
C404 C411 1.506 . S
C405 C406 1.398 . S
C405 C408 1.392 . S
C406 C405 1.398 . S
C406 C409 1.372 . S
C406 H416 0.931 . S
C407 C404 1.382 . S
C407 C409 1.390 . S
C407 H417 0.931 . S
C408 C404 1.390 . S
C408 C405 1.392 . S
C408 H418 0.930 . S
C409 C406 1.372 . S
C409 C407 1.390 . S
C409 H419 0.929 . S
C410 O390 1.255 . S
C410 O391 1.257 . S
C411 Eu347 2.787 1_554 S
C411 O386 1.252 . S
C411 O389 1.268 . S
C411 C404 1.506 . S
H412 C395 0.931 . S
H413 C396 0.931 . S
H414 C397 0.929 . S
H415 C398 0.930 . S
H416 C406 0.931 . S
H417 C407 0.931 . S
H418 C408 0.930 . S
H419 C409 0.929 . S
Eu420 N449 2.600 . S
Eu420 N455 2.562 . S
Eu420 O464 2.462 . S
Eu420 O465 2.373 . S
Eu420 O467 2.432 . S
Eu420 O468 2.291 . S
Eu420 O472 2.335 . S
Eu420 O475 2.372 . S
Eu420 C484 2.787 . S
C421 N422 1.365 1_556 S
C421 C424 1.405 . S
C421 C428 1.448 . S
N422 C421 1.365 1_554 S
N422 C425 1.319 . S
N422 Eu431 2.600 . S
C423 C425 1.397 . S
C423 C426 1.369 . S
C423 H443 0.931 . S
C424 C421 1.405 . S
C424 C426 1.402 1_556 S
C424 C430 1.439 . S
C425 N422 1.319 . S
C425 C423 1.397 . S
C425 H436 0.930 . S
C426 C423 1.369 . S
C426 C424 1.402 1_554 S
C426 H447 0.929 1_554 S
C427 C428 1.430 . S
C427 C429 1.387 . S
C427 C433 1.404 . S
C428 C421 1.448 . S
C428 C427 1.430 . S
C428 N432 1.351 . S
C429 C427 1.387 . S
C429 C430 1.374 . S
C429 H444 0.931 . S
C430 C424 1.439 . S
C430 C429 1.374 . S
C430 H445 0.931 . S
Eu431 N422 2.600 . S
Eu431 N432 2.562 1_554 S
Eu431 O466 2.335 . S
Eu431 O469 2.372 . S
Eu431 O470 2.462 1_554 S
Eu431 O471 2.373 . S
Eu431 O473 2.432 1_554 S
Eu431 O474 2.291 . S
Eu431 C495 2.787 1_554 S
N432 C428 1.351 . S
N432 Eu431 2.562 1_556 S
N432 C434 1.325 . S
C433 C427 1.404 . S
C433 C435 1.366 . S
C433 H441 0.930 . S
C434 N432 1.325 . S
C434 C435 1.416 . S
C434 H440 0.929 . S
C435 C433 1.366 . S
C435 C434 1.416 . S
C435 H437 0.930 . S
H436 C425 0.930 . S
H437 C435 0.930 . S
H438 C453 0.930 . S
H439 C460 0.930 . S
H440 C434 0.929 . S
H441 C433 0.930 . S
H442 C456 0.929 . S
H443 C423 0.931 . S
H444 C429 0.931 . S
H445 C430 0.931 . S
H446 C451 0.931 1_545 S
H447 C426 0.929 1_556 S
H448 C459 0.924 1_455 S
N449 Eu420 2.600 . S
N449 C450 1.365 . S
N449 C453 1.319 . S
C450 N449 1.365 . S
C450 C452 1.405 . S
C450 C458 1.448 . S
C451 H446 0.931 1_565 S
C451 C453 1.397 . S
C451 C454 1.367 . S
C452 C450 1.405 . S
C452 C454 1.403 . S
C452 C485 1.439 1_655 S
C453 H438 0.930 . S
C453 N449 1.319 . S
C453 C451 1.397 . S
C454 C451 1.367 . S
C454 C452 1.403 . S
C454 H461 0.929 1_565 S
N455 Eu420 2.562 . S
N455 C456 1.325 . S
N455 C458 1.351 . S
C456 H442 0.929 . S
C456 N455 1.325 . S
C456 C460 1.416 . S
C457 C458 1.430 . S
C457 C459 1.406 . S
C457 C486 1.387 1_655 S
C458 C450 1.448 . S
C458 N455 1.351 . S
C458 C457 1.430 . S
C459 H448 0.924 1_655 S
C459 C457 1.406 . S
C459 C460 1.371 . S
C460 H439 0.930 . S
C460 C456 1.416 . S
C460 C459 1.371 . S
H461 C454 0.929 1_545 S
H462 C485 0.931 . S
H463 C486 0.931 . S
O464 Eu420 2.462 . S
O464 C484 1.252 . S
O465 Eu420 2.373 . S
O465 C476 1.249 . S
O466 Eu431 2.335 . S
O466 C476 1.264 . S
O467 Eu420 2.432 . S
O467 C484 1.268 . S
O468 Eu420 2.291 . S
O468 C483 1.255 . S
O469 Eu431 2.372 . S
O469 C483 1.257 . S
O470 Eu431 2.462 1_556 S
O470 C495 1.252 . S
O471 Eu431 2.373 . S
O471 C487 1.249 . S
O472 Eu420 2.335 . S
O472 C487 1.264 . S
O473 Eu431 2.432 1_556 S
O473 C495 1.268 . S
O474 Eu431 2.291 . S
O474 C494 1.255 . S
O475 Eu420 2.372 . S
O475 C494 1.257 . S
C476 O465 1.249 . S
C476 O466 1.264 . S
C477 C480 1.382 . S
C477 C482 1.390 . S
C477 C484 1.506 . S
C478 C479 1.398 . S
C478 C482 1.392 . S
C479 C478 1.398 . S
C479 C481 1.372 . S
C479 H496 0.931 . S
C480 C477 1.382 . S
C480 C481 1.390 . S
C480 H497 0.931 . S
C481 C479 1.372 . S
C481 C480 1.390 . S
C481 H498 0.929 . S
C482 C477 1.390 . S
C482 C478 1.392 . S
C482 H499 0.930 . S
C483 O468 1.255 . S
C483 O469 1.257 . S
C484 Eu420 2.787 . S
C484 O464 1.252 . S
C484 O467 1.268 . S
C484 C477 1.506 . S
C485 C452 1.439 1_455 S
C485 H462 0.931 . S
C485 C486 1.374 . S
C486 C457 1.387 1_455 S
C486 H463 0.931 . S
C486 C485 1.374 . S
C487 O471 1.249 . S
C487 O472 1.264 . S
C488 C491 1.382 . S
C488 C492 1.390 . S
C488 C495 1.506 . S
C489 C490 1.398 . S
C489 C492 1.392 . S
C490 C489 1.398 . S
C490 C493 1.372 . S
C490 H500 0.931 . S
C491 C488 1.382 . S
C491 C493 1.390 . S
C491 H501 0.931 . S
C492 C488 1.390 . S
C492 C489 1.392 . S
C492 H502 0.930 . S
C493 C490 1.372 . S
C493 C491 1.390 . S
C493 H503 0.929 . S
C494 O474 1.255 . S
C494 O475 1.257 . S
C495 Eu431 2.787 1_556 S
C495 O470 1.252 . S
C495 O473 1.268 . S
C495 C488 1.506 . S
H496 C479 0.931 . S
H497 C480 0.931 . S
H498 C481 0.929 . S
H499 C482 0.930 . S
H500 C490 0.931 . S
H501 C491 0.931 . S
H502 C492 0.930 . S
H503 C493 0.929 . S
Eu504 N533 2.600 . S
Eu504 N539 2.562 . S
Eu504 O548 2.462 . S
Eu504 O549 2.373 . S
Eu504 O551 2.432 . S
Eu504 O552 2.291 . S
Eu504 O556 2.335 . S
Eu504 O559 2.372 . S
Eu504 C568 2.787 . S
C505 N506 1.365 . S
C505 C508 1.405 . S
C505 C512 1.448 . S
N506 C505 1.365 . S
N506 C509 1.319 . S
N506 Eu515 2.600 . S
C507 C509 1.397 . S
C507 C510 1.367 . S
C507 H527 0.931 . S
C508 C505 1.405 . S
C508 C510 1.403 . S
C508 C514 1.439 . S
C509 N506 1.319 . S
C509 C507 1.397 . S
C509 H520 0.930 . S
C510 C507 1.367 . S
C510 C508 1.403 . S
C510 H531 0.929 . S
C511 C512 1.430 . S
C511 C513 1.387 . S
C511 C517 1.404 . S
C512 C505 1.448 . S
C512 C511 1.430 . S
C512 N516 1.351 . S
C513 C511 1.387 . S
C513 C514 1.374 . S
C513 H528 0.931 . S
C514 C508 1.439 . S
C514 C513 1.374 . S
C514 H529 0.931 . S
Eu515 N506 2.600 . S
Eu515 N516 2.562 . S
Eu515 O550 2.335 . S
Eu515 O553 2.372 . S
Eu515 O554 2.462 . S
Eu515 O555 2.373 . S
Eu515 O557 2.432 . S
Eu515 O558 2.291 . S
Eu515 C579 2.787 . S
N516 C512 1.351 . S
N516 Eu515 2.562 . S
N516 C518 1.325 . S
C517 C511 1.404 . S
C517 C519 1.366 . S
C517 H525 0.930 . S
C518 N516 1.325 . S
C518 C519 1.416 . S
C518 H524 0.929 . S
C519 C517 1.366 . S
C519 C518 1.416 . S
C519 H521 0.930 . S
H520 C509 0.930 . S
H521 C519 0.930 . S
H522 C537 0.930 . S
H523 C544 0.930 . S
H524 C518 0.929 . S
H525 C517 0.930 . S
H526 C540 0.929 . S
H527 C507 0.931 . S
H528 C513 0.931 . S
H529 C514 0.931 . S
H530 C535 0.931 . S
H531 C510 0.929 . S
H532 C543 0.930 . S
N533 Eu504 2.600 . S
N533 C534 1.365 . S
N533 C537 1.319 . S
C534 N533 1.365 . S
C534 C536 1.405 . S
C534 C542 1.448 . S
C535 H530 0.931 . S
C535 C537 1.397 . S
C535 C538 1.367 . S
C536 C534 1.405 . S
C536 C538 1.403 . S
C536 C569 1.439 . S
C537 H522 0.930 . S
C537 N533 1.319 . S
C537 C535 1.397 . S
C538 C535 1.367 . S
C538 C536 1.403 . S
C538 H545 0.929 . S
N539 Eu504 2.562 . S
N539 C540 1.325 . S
N539 C542 1.351 . S
C540 H526 0.929 . S
C540 N539 1.325 . S
C540 C544 1.416 . S
C541 C542 1.430 . S
C541 C543 1.404 . S
C541 C570 1.387 . S
C542 C534 1.448 . S
C542 N539 1.351 . S
C542 C541 1.430 . S
C543 H532 0.930 . S
C543 C541 1.404 . S
C543 C544 1.366 . S
C544 H523 0.930 . S
C544 C540 1.416 . S
C544 C543 1.366 . S
H545 C538 0.929 . S
H546 C569 0.931 . S
H547 C570 0.931 . S
O548 Eu504 2.462 . S
O548 C568 1.252 . S
O549 Eu504 2.373 . S
O549 C560 1.249 . S
O550 Eu515 2.335 . S
O550 C560 1.264 . S
O551 Eu504 2.432 . S
O551 C568 1.268 . S
O552 Eu504 2.291 . S
O552 C567 1.255 . S
O553 Eu515 2.372 . S
O553 C567 1.257 . S
O554 Eu515 2.462 . S
O554 C579 1.252 . S
O555 Eu515 2.373 . S
O555 C571 1.249 . S
O556 Eu504 2.335 . S
O556 C571 1.264 . S
O557 Eu515 2.432 . S
O557 C579 1.268 . S
O558 Eu515 2.291 . S
O558 C578 1.255 . S
O559 Eu504 2.372 . S
O559 C578 1.257 . S
C560 O549 1.249 . S
C560 O550 1.264 . S
C561 C564 1.382 . S
C561 C566 1.390 . S
C561 C568 1.506 . S
C562 C563 1.398 . S
C562 C566 1.392 . S
C563 C562 1.398 . S
C563 C565 1.372 . S
C563 H580 0.931 . S
C564 C561 1.382 . S
C564 C565 1.390 . S
C564 H581 0.931 . S
C565 C563 1.372 . S
C565 C564 1.390 . S
C565 H582 0.929 . S
C566 C561 1.390 . S
C566 C562 1.392 . S
C566 H583 0.930 . S
C567 O552 1.255 . S
C567 O553 1.257 . S
C568 Eu504 2.787 . S
C568 O548 1.252 . S
C568 O551 1.268 . S
C568 C561 1.506 . S
C569 C536 1.439 . S
C569 H546 0.931 . S
C569 C570 1.374 . S
C570 C541 1.387 . S
C570 H547 0.931 . S
C570 C569 1.374 . S
C571 O555 1.249 . S
C571 O556 1.264 . S
C572 C575 1.382 . S
C572 C576 1.390 . S
C572 C579 1.506 . S
C573 C574 1.394 1_554 S
C573 C576 1.401 . S
C574 C573 1.394 1_556 S
C574 C577 1.372 1_556 S
C574 H584 0.931 . S
C575 C572 1.382 . S
C575 C577 1.390 . S
C575 H585 0.931 . S
C576 C572 1.390 . S
C576 C573 1.401 . S
C576 H586 0.930 . S
C577 C574 1.372 1_554 S
C577 C575 1.390 . S
C577 H587 0.929 1_554 S
C578 O558 1.255 . S
C578 O559 1.257 . S
C579 Eu515 2.787 . S
C579 O554 1.252 . S
C579 O557 1.268 . S
C579 C572 1.506 . S
H580 C563 0.931 . S
H581 C564 0.931 . S
H582 C565 0.929 . S
H583 C566 0.930 . S
H584 C574 0.931 . S
H585 C575 0.931 . S
H586 C576 0.930 . S
H587 C577 0.929 1_556 S
Eu588 N617 2.600 . S
Eu588 N623 2.562 . S
Eu588 O632 2.462 . S
Eu588 O633 2.373 . S
Eu588 O635 2.432 . S
Eu588 O636 2.291 . S
Eu588 O640 2.335 . S
Eu588 O643 2.372 . S
Eu588 C652 2.787 . S
C589 N590 1.365 . S
C589 C592 1.405 . S
C589 C596 1.448 . S
N590 C589 1.365 . S
N590 C593 1.319 . S
N590 Eu599 2.600 . S
C591 C593 1.397 . S
C591 C594 1.367 . S
C591 H611 0.931 . S
C592 C589 1.405 . S
C592 C594 1.403 . S
C592 C598 1.439 1_545 S
C593 N590 1.319 . S
C593 C591 1.397 . S
C593 H604 0.930 . S
C594 C591 1.367 . S
C594 C592 1.403 . S
C594 H615 0.929 1_545 S
C595 C596 1.430 1_565 S
C595 C597 1.387 . S
C595 C601 1.404 . S
C596 C589 1.448 . S
C596 C595 1.430 1_545 S
C596 N600 1.351 . S
C597 C595 1.387 . S
C597 C598 1.374 . S
C597 H612 0.931 . S
C598 C592 1.439 1_565 S
C598 C597 1.374 . S
C598 H613 0.931 . S
Eu599 N590 2.600 . S
Eu599 N600 2.562 . S
Eu599 O634 2.335 . S
Eu599 O637 2.372 . S
Eu599 O638 2.462 . S
Eu599 O639 2.373 . S
Eu599 O641 2.432 . S
Eu599 O642 2.291 . S
Eu599 C663 2.787 . S
N600 C596 1.351 . S
N600 Eu599 2.562 . S
N600 C602 1.325 . S
C601 C595 1.404 . S
C601 C603 1.366 1_565 S
C601 H609 0.930 . S
C602 N600 1.325 . S
C602 C603 1.416 . S
C602 H608 0.929 . S
C603 C601 1.366 1_545 S
C603 C602 1.416 . S
C603 H605 0.930 . S
H604 C593 0.930 . S
H605 C603 0.930 . S
H606 C621 0.930 . S
H607 C628 0.930 . S
H608 C602 0.929 . S
H609 C601 0.930 . S
H610 C624 0.929 . S
H611 C591 0.931 . S
H612 C597 0.931 . S
H613 C598 0.931 . S
H614 C619 0.931 . S
H615 C594 0.929 1_565 S
H616 C627 0.930 . S
N617 Eu588 2.600 . S
N617 C618 1.365 . S
N617 C621 1.319 . S
C618 N617 1.365 . S
C618 C620 1.405 . S
C618 C626 1.448 . S
C619 H614 0.931 . S
C619 C621 1.397 . S
C619 C622 1.367 . S
C620 C618 1.405 . S
C620 C622 1.403 . S
C620 C653 1.439 . S
C621 H606 0.930 . S
C621 N617 1.319 . S
C621 C619 1.397 . S
C622 C619 1.367 . S
C622 C620 1.403 . S
C622 H629 0.929 . S
N623 Eu588 2.562 . S
N623 C624 1.325 . S
N623 C626 1.351 . S
C624 H610 0.929 . S
C624 N623 1.325 . S
C624 C628 1.416 . S
C625 C626 1.430 . S
C625 C627 1.404 . S
C625 C654 1.387 . S
C626 C618 1.448 . S
C626 N623 1.351 . S
C626 C625 1.430 . S
C627 H616 0.930 . S
C627 C625 1.404 . S
C627 C628 1.366 . S
C628 H607 0.930 . S
C628 C624 1.416 . S
C628 C627 1.366 . S
H629 C622 0.929 . S
H630 C653 0.931 . S
H631 C654 0.931 . S
O632 Eu588 2.462 . S
O632 C652 1.252 . S
O633 Eu588 2.373 . S
O633 C644 1.249 . S
O634 Eu599 2.335 . S
O634 C644 1.264 . S
O635 Eu588 2.432 . S
O635 C652 1.268 . S
O636 Eu588 2.291 . S
O636 C651 1.255 . S
O637 Eu599 2.372 . S
O637 C651 1.257 . S
O638 Eu599 2.462 . S
O638 C663 1.252 . S
O639 Eu599 2.373 . S
O639 C655 1.249 . S
O640 Eu588 2.335 . S
O640 C655 1.264 . S
O641 Eu599 2.432 . S
O641 C663 1.268 . S
O642 Eu599 2.291 . S
O642 C662 1.255 . S
O643 Eu588 2.372 . S
O643 C662 1.257 . S
C644 O633 1.249 . S
C644 O634 1.264 . S
C645 C648 1.382 . S
C645 C650 1.390 . S
C645 C652 1.506 . S
C646 C647 1.398 . S
C646 C650 1.392 . S
C647 C646 1.398 . S
C647 C649 1.372 . S
C647 H664 0.931 . S
C648 C645 1.382 . S
C648 C649 1.390 . S
C648 H665 0.931 . S
C649 C647 1.372 . S
C649 C648 1.390 . S
C649 H666 0.929 . S
C650 C645 1.390 . S
C650 C646 1.392 . S
C650 H667 0.930 . S
C651 O636 1.255 . S
C651 O637 1.257 . S
C652 Eu588 2.787 . S
C652 O632 1.252 . S
C652 O635 1.268 . S
C652 C645 1.506 . S
C653 C620 1.439 . S
C653 H630 0.931 . S
C653 C654 1.374 . S
C654 C625 1.387 . S
C654 H631 0.931 . S
C654 C653 1.374 . S
C655 O639 1.249 . S
C655 O640 1.264 . S
C656 C659 1.382 . S
C656 C660 1.390 . S
C656 C663 1.506 . S
C657 C658 1.398 . S
C657 C660 1.392 1_554 S
C658 C657 1.398 . S
C658 C661 1.372 1_554 S
C658 H668 0.931 . S
C659 C656 1.382 . S
C659 C661 1.390 . S
C659 H669 0.931 . S
C660 C656 1.390 . S
C660 C657 1.392 1_556 S
C660 H670 0.930 . S
C661 C658 1.372 1_556 S
C661 C659 1.390 . S
C661 H671 0.929 1_556 S
C662 O642 1.255 . S
C662 O643 1.257 . S
C663 Eu599 2.787 . S
C663 O638 1.252 . S
C663 O641 1.268 . S
C663 C656 1.506 . S
H664 C647 0.931 . S
H665 C648 0.931 . S
H666 C649 0.929 . S
H667 C650 0.930 . S
H668 C658 0.931 . S
H669 C659 0.931 . S
H670 C660 0.930 . S
H671 C661 0.929 1_554 S
Eu672 N701 2.600 . S
Eu672 N707 2.562 . S
Eu672 O716 2.462 . S
Eu672 O717 2.373 . S
Eu672 O719 2.432 . S
Eu672 O720 2.291 . S
Eu672 O724 2.335 . S
Eu672 O727 2.372 . S
Eu672 C736 2.787 . S
C673 N674 1.368 . S
C673 C676 1.404 1_556 S
C673 C680 1.446 1_556 S
N674 C673 1.368 . S
N674 C677 1.319 . S
N674 Eu683 2.600 . S
C675 C677 1.397 . S
C675 C678 1.367 . S
C675 H695 0.931 . S
C676 C673 1.404 1_554 S
C676 C678 1.403 1_554 S
C676 C682 1.439 . S
C677 N674 1.319 . S
C677 C675 1.397 . S
C677 H688 0.930 . S
C678 C675 1.367 . S
C678 C676 1.403 1_556 S
C678 H699 0.929 . S
C679 C680 1.430 . S
C679 C681 1.387 . S
C679 C685 1.404 . S
C680 C673 1.446 1_554 S
C680 C679 1.430 . S
C680 N684 1.351 . S
C681 C679 1.387 . S
C681 C682 1.374 . S
C681 H696 0.931 . S
C682 C676 1.439 . S
C682 C681 1.374 . S
C682 H697 0.931 . S
Eu683 N674 2.600 . S
Eu683 N684 2.562 1_556 S
Eu683 O718 2.335 . S
Eu683 O721 2.372 . S
Eu683 O722 2.462 1_556 S
Eu683 O723 2.373 . S
Eu683 O725 2.432 1_556 S
Eu683 O726 2.291 . S
Eu683 C747 2.787 1_556 S
N684 C680 1.351 . S
N684 Eu683 2.562 1_554 S
N684 C686 1.325 . S
C685 C679 1.404 . S
C685 C687 1.366 . S
C685 H693 0.930 . S
C686 N684 1.325 . S
C686 C687 1.416 . S
C686 H692 0.929 . S
C687 C685 1.366 . S
C687 C686 1.416 . S
C687 H689 0.930 . S
H688 C677 0.930 . S
H689 C687 0.930 . S
H690 C705 0.930 . S
H691 C712 0.930 . S
H692 C686 0.929 . S
H693 C685 0.930 . S
H694 C708 0.929 . S
H695 C675 0.931 . S
H696 C681 0.931 . S
H697 C682 0.931 . S
H698 C703 0.931 1_455 S
H699 C678 0.929 . S
H700 C711 0.930 . S
N701 Eu672 2.600 . S
N701 C702 1.365 . S
N701 C705 1.319 . S
C702 N701 1.365 . S
C702 C704 1.405 . S
C702 C710 1.448 . S
C703 H698 0.931 1_655 S
C703 C705 1.397 . S
C703 C706 1.367 . S
C704 C702 1.405 . S
C704 C706 1.403 . S
C704 C737 1.439 . S
C705 H690 0.930 . S
C705 N701 1.319 . S
C705 C703 1.397 . S
C706 C703 1.367 . S
C706 C704 1.403 . S
C706 H713 0.929 . S
N707 Eu672 2.562 . S
N707 C708 1.325 . S
N707 C710 1.351 . S
C708 H694 0.929 . S
C708 N707 1.325 . S
C708 C712 1.416 . S
C709 C710 1.430 . S
C709 C711 1.404 . S
C709 C738 1.387 . S
C710 C702 1.448 . S
C710 N707 1.351 . S
C710 C709 1.430 . S
C711 H700 0.930 . S
C711 C709 1.404 . S
C711 C712 1.366 . S
C712 H691 0.930 . S
C712 C708 1.416 . S
C712 C711 1.366 . S
H713 C706 0.929 . S
H714 C737 0.931 . S
H715 C738 0.931 . S
O716 Eu672 2.462 . S
O716 C736 1.252 . S
O717 Eu672 2.373 . S
O717 C728 1.249 . S
O718 Eu683 2.335 . S
O718 C728 1.264 . S
O719 Eu672 2.432 . S
O719 C736 1.268 . S
O720 Eu672 2.291 . S
O720 C735 1.255 . S
O721 Eu683 2.372 . S
O721 C735 1.257 . S
O722 Eu683 2.462 1_554 S
O722 C747 1.252 . S
O723 Eu683 2.373 . S
O723 C739 1.249 . S
O724 Eu672 2.335 . S
O724 C739 1.264 . S
O725 Eu683 2.432 1_554 S
O725 C747 1.268 . S
O726 Eu683 2.291 . S
O726 C746 1.255 . S
O727 Eu672 2.372 . S
O727 C746 1.257 . S
C728 O717 1.249 . S
C728 O718 1.264 . S
C729 C732 1.382 . S
C729 C734 1.390 . S
C729 C736 1.506 . S
C730 C731 1.398 . S
C730 C734 1.392 . S
C731 C730 1.398 . S
C731 C733 1.372 . S
C731 H748 0.931 . S
C732 C729 1.382 . S
C732 C733 1.390 . S
C732 H749 0.931 . S
C733 C731 1.372 . S
C733 C732 1.390 . S
C733 H750 0.929 . S
C734 C729 1.390 . S
C734 C730 1.392 . S
C734 H751 0.930 . S
C735 O720 1.255 . S
C735 O721 1.257 . S
C736 Eu672 2.787 . S
C736 O716 1.252 . S
C736 O719 1.268 . S
C736 C729 1.506 . S
C737 C704 1.439 . S
C737 H714 0.931 . S
C737 C738 1.374 . S
C738 C709 1.387 . S
C738 H715 0.931 . S
C738 C737 1.374 . S
C739 O723 1.249 . S
C739 O724 1.264 . S
C740 C743 1.382 . S
C740 C744 1.390 . S
C740 C747 1.506 . S
C741 C742 1.398 . S
C741 C744 1.392 . S
C742 C741 1.398 . S
C742 C745 1.372 . S
C742 H752 0.931 . S
C743 C740 1.382 . S
C743 C745 1.390 . S
C743 H753 0.931 . S
C744 C740 1.390 . S
C744 C741 1.392 . S
C744 H754 0.930 . S
C745 C742 1.372 . S
C745 C743 1.390 . S
C745 H755 0.929 . S
C746 O726 1.255 . S
C746 O727 1.257 . S
C747 Eu683 2.787 1_554 S
C747 O722 1.252 . S
C747 O725 1.268 . S
C747 C740 1.506 . S
H748 C731 0.931 . S
H749 C732 0.931 . S
H750 C733 0.929 . S
H751 C734 0.930 . S
H752 C742 0.931 . S
H753 C743 0.931 . S
H754 C744 0.930 . S
H755 C745 0.929 . S
Eu756 N785 2.600 . S
Eu756 N791 2.562 . S
Eu756 O800 2.462 . S
Eu756 O801 2.373 . S
Eu756 O803 2.432 . S
Eu756 O804 2.291 . S
Eu756 O808 2.335 . S
Eu756 O811 2.372 . S
Eu756 C820 2.787 . S
C757 N758 1.365 . S
C757 C760 1.405 . S
C757 C764 1.448 . S
N758 C757 1.365 . S
N758 C761 1.319 . S
N758 Eu767 2.600 . S
C759 C761 1.403 . S
C759 C762 1.369 . S
C759 H779 0.924 1_545 S
C760 C757 1.405 . S
C760 C762 1.403 . S
C760 C766 1.439 . S
C761 N758 1.319 . S
C761 C759 1.403 . S
C761 H772 0.930 . S
C762 C759 1.369 . S
C762 C760 1.403 . S
C762 H783 0.929 1_545 S
C763 C764 1.430 . S
C763 C765 1.387 . S
C763 C769 1.404 . S
C764 C757 1.448 . S
C764 C763 1.430 . S
C764 N768 1.351 . S
C765 C763 1.387 . S
C765 C766 1.374 . S
C765 H780 0.931 . S
C766 C760 1.439 . S
C766 C765 1.374 . S
C766 H781 0.931 . S
Eu767 N758 2.600 . S
Eu767 N768 2.562 . S
Eu767 O802 2.335 . S
Eu767 O805 2.372 . S
Eu767 O806 2.462 . S
Eu767 O807 2.373 . S
Eu767 O809 2.432 . S
Eu767 O810 2.291 . S
Eu767 C831 2.787 . S
N768 C764 1.351 . S
N768 Eu767 2.562 . S
N768 C770 1.325 . S
C769 C763 1.404 . S
C769 C771 1.366 . S
C769 H777 0.930 . S
C770 N768 1.325 . S
C770 C771 1.416 . S
C770 H776 0.929 . S
C771 C769 1.366 . S
C771 C770 1.416 . S
C771 H773 0.930 . S
H772 C761 0.930 . S
H773 C771 0.930 . S
H774 C789 0.930 . S
H775 C796 0.930 . S
H776 C770 0.929 . S
H777 C769 0.930 . S
H778 C792 0.929 . S
H779 C759 0.924 1_565 S
H780 C765 0.931 . S
H781 C766 0.931 . S
H782 C787 0.931 . S
H783 C762 0.929 1_565 S
H784 C795 0.930 . S
N785 Eu756 2.600 . S
N785 C786 1.365 . S
N785 C789 1.319 . S
C786 N785 1.365 . S
C786 C788 1.405 . S
C786 C794 1.448 . S
C787 H782 0.931 . S
C787 C789 1.397 . S
C787 C790 1.367 . S
C788 C786 1.405 . S
C788 C790 1.403 . S
C788 C821 1.439 . S
C789 H774 0.930 . S
C789 N785 1.319 . S
C789 C787 1.397 . S
C790 C787 1.367 . S
C790 C788 1.403 . S
C790 H797 0.929 . S
N791 Eu756 2.562 . S
N791 C792 1.325 . S
N791 C794 1.351 . S
C792 H778 0.929 . S
C792 N791 1.325 . S
C792 C796 1.416 . S
C793 C794 1.430 . S
C793 C795 1.404 . S
C793 C822 1.387 . S
C794 C786 1.448 . S
C794 N791 1.351 . S
C794 C793 1.430 . S
C795 H784 0.930 . S
C795 C793 1.404 . S
C795 C796 1.366 . S
C796 H775 0.930 . S
C796 C792 1.416 . S
C796 C795 1.366 . S
H797 C790 0.929 . S
H798 C821 0.931 . S
H799 C822 0.931 . S
O800 Eu756 2.462 . S
O800 C820 1.252 . S
O801 Eu756 2.373 . S
O801 C812 1.249 . S
O802 Eu767 2.335 . S
O802 C812 1.264 . S
O803 Eu756 2.432 . S
O803 C820 1.268 . S
O804 Eu756 2.291 . S
O804 C819 1.255 . S
O805 Eu767 2.372 . S
O805 C819 1.257 . S
O806 Eu767 2.462 . S
O806 C831 1.252 . S
O807 Eu767 2.373 . S
O807 C823 1.249 . S
O808 Eu756 2.335 . S
O808 C823 1.264 . S
O809 Eu767 2.432 . S
O809 C831 1.268 . S
O810 Eu767 2.291 . S
O810 C830 1.255 . S
O811 Eu756 2.372 . S
O811 C830 1.257 . S
C812 O801 1.249 . S
C812 O802 1.264 . S
C813 C816 1.382 . S
C813 C818 1.390 . S
C813 C820 1.506 . S
C814 C815 1.398 . S
C814 C818 1.392 . S
C815 C814 1.398 . S
C815 C817 1.372 . S
C815 H832 0.931 . S
C816 C813 1.382 . S
C816 C817 1.390 . S
C816 H833 0.931 . S
C817 C815 1.372 . S
C817 C816 1.390 . S
C817 H834 0.929 . S
C818 C813 1.390 . S
C818 C814 1.392 . S
C818 H835 0.930 . S
C819 O804 1.255 . S
C819 O805 1.257 . S
C820 Eu756 2.787 . S
C820 O800 1.252 . S
C820 O803 1.268 . S
C820 C813 1.506 . S
C821 C788 1.439 . S
C821 H798 0.931 . S
C821 C822 1.374 . S
C822 C793 1.387 . S
C822 H799 0.931 . S
C822 C821 1.374 . S
C823 O807 1.249 . S
C823 O808 1.264 . S
C824 C827 1.382 . S
C824 C828 1.390 . S
C824 C831 1.506 . S
C825 C826 1.398 . S
C825 C828 1.392 1_554 S
C826 C825 1.398 . S
C826 C829 1.372 1_554 S
C826 H836 0.931 . S
C827 C824 1.382 . S
C827 C829 1.390 . S
C827 H837 0.931 . S
C828 C824 1.390 . S
C828 C825 1.392 1_556 S
C828 H838 0.930 . S
C829 C826 1.372 1_556 S
C829 C827 1.390 . S
C829 H839 0.929 1_556 S
C830 O810 1.255 . S
C830 O811 1.257 . S
C831 Eu767 2.787 . S
C831 O806 1.252 . S
C831 O809 1.268 . S
C831 C824 1.506 . S
H832 C815 0.931 . S
H833 C816 0.931 . S
H834 C817 0.929 . S
H835 C818 0.930 . S
H836 C826 0.931 . S
H837 C827 0.931 . S
H838 C828 0.930 . S
H839 C829 0.929 1_554 S
Eu840 N869 2.600 . S
Eu840 N875 2.562 . S
Eu840 O884 2.462 . S
Eu840 O885 2.373 . S
Eu840 O887 2.432 . S
Eu840 O888 2.291 . S
Eu840 O892 2.335 . S
Eu840 O895 2.372 . S
Eu840 C904 2.787 . S
C841 N842 1.365 . S
C841 C844 1.405 . S
C841 C848 1.448 . S
N842 C841 1.365 . S
N842 C845 1.319 . S
N842 Eu851 2.600 . S
C843 C845 1.397 . S
C843 C846 1.367 . S
C843 H863 0.931 . S
C844 C841 1.405 . S
C844 C846 1.403 . S
C844 C850 1.439 . S
C845 N842 1.319 . S
C845 C843 1.397 . S
C845 H856 0.930 . S
C846 C843 1.367 . S
C846 C844 1.403 . S
C846 H867 0.929 . S
C847 C848 1.430 . S
C847 C849 1.387 . S
C847 C853 1.404 . S
C848 C841 1.448 . S
C848 C847 1.430 . S
C848 N852 1.351 . S
C849 C847 1.387 . S
C849 C850 1.374 . S
C849 H864 0.931 . S
C850 C844 1.439 . S
C850 C849 1.374 . S
C850 H865 0.931 . S
Eu851 N842 2.600 . S
Eu851 N852 2.562 . S
Eu851 O886 2.335 . S
Eu851 O889 2.372 . S
Eu851 O890 2.462 . S
Eu851 O891 2.373 . S
Eu851 O893 2.432 . S
Eu851 O894 2.291 . S
Eu851 C915 2.787 . S
N852 C848 1.351 . S
N852 Eu851 2.562 . S
N852 C854 1.325 . S
C853 C847 1.404 . S
C853 C855 1.366 . S
C853 H861 0.930 . S
C854 N852 1.325 . S
C854 C855 1.416 . S
C854 H860 0.929 . S
C855 C853 1.366 . S
C855 C854 1.416 . S
C855 H857 0.930 . S
H856 C845 0.930 . S
H857 C855 0.930 . S
H858 C873 0.930 . S
H859 C880 0.930 . S
H860 C854 0.929 . S
H861 C853 0.930 . S
H862 C876 0.929 . S
H863 C843 0.931 . S
H864 C849 0.931 . S
H865 C850 0.931 . S
H866 C871 0.931 . S
H867 C846 0.929 . S
H868 C879 0.930 . S
N869 Eu840 2.600 . S
N869 C870 1.365 . S
N869 C873 1.319 . S
C870 N869 1.365 . S
C870 C872 1.405 . S
C870 C878 1.448 . S
C871 H866 0.931 . S
C871 C873 1.397 . S
C871 C874 1.367 . S
C872 C870 1.405 . S
C872 C874 1.403 . S
C872 C905 1.439 . S
C873 H858 0.930 . S
C873 N869 1.319 . S
C873 C871 1.397 . S
C874 C871 1.367 . S
C874 C872 1.403 . S
C874 H881 0.929 . S
N875 Eu840 2.562 . S
N875 C876 1.325 . S
N875 C878 1.351 . S
C876 H862 0.929 . S
C876 N875 1.325 . S
C876 C880 1.416 . S
C877 C878 1.430 . S
C877 C879 1.404 . S
C877 C906 1.387 . S
C878 C870 1.448 . S
C878 N875 1.351 . S
C878 C877 1.430 . S
C879 H868 0.930 . S
C879 C877 1.404 . S
C879 C880 1.366 . S
C880 H859 0.930 . S
C880 C876 1.416 . S
C880 C879 1.366 . S
H881 C874 0.929 . S
H882 C905 0.931 . S
H883 C906 0.931 . S
O884 Eu840 2.462 . S
O884 C904 1.252 . S
O885 Eu840 2.373 . S
O885 C896 1.249 . S
O886 Eu851 2.335 . S
O886 C896 1.264 . S
O887 Eu840 2.432 . S
O887 C904 1.268 . S
O888 Eu840 2.291 . S
O888 C903 1.255 . S
O889 Eu851 2.372 . S
O889 C903 1.257 . S
O890 Eu851 2.462 . S
O890 C915 1.252 . S
O891 Eu851 2.373 . S
O891 C907 1.249 . S
O892 Eu840 2.335 . S
O892 C907 1.264 . S
O893 Eu851 2.432 . S
O893 C915 1.268 . S
O894 Eu851 2.291 . S
O894 C914 1.255 . S
O895 Eu840 2.372 . S
O895 C914 1.257 . S
C896 O885 1.249 . S
C896 O886 1.264 . S
C897 C900 1.382 . S
C897 C902 1.390 . S
C897 C904 1.506 . S
C898 C899 1.398 . S
C898 C902 1.392 . S
C899 C898 1.398 . S
C899 C901 1.372 . S
C899 H916 0.931 . S
C900 C897 1.382 . S
C900 C901 1.390 . S
C900 H917 0.931 . S
C901 C899 1.372 . S
C901 C900 1.390 . S
C901 H918 0.929 . S
C902 C897 1.390 . S
C902 C898 1.392 . S
C902 H919 0.930 . S
C903 O888 1.255 . S
C903 O889 1.257 . S
C904 Eu840 2.787 . S
C904 O884 1.252 . S
C904 O887 1.268 . S
C904 C897 1.506 . S
C905 C872 1.439 . S
C905 H882 0.931 . S
C905 C906 1.374 . S
C906 C877 1.387 . S
C906 H883 0.931 . S
C906 C905 1.374 . S
C907 O891 1.249 . S
C907 O892 1.264 . S
C908 C911 1.382 . S
C908 C912 1.390 . S
C908 C915 1.506 . S
C909 C910 1.398 . S
C909 C912 1.392 1_556 S
C910 C909 1.398 . S
C910 C913 1.372 1_556 S
C910 H920 0.931 . S
C911 C908 1.382 . S
C911 C913 1.390 . S
C911 H921 0.931 . S
C912 C908 1.390 . S
C912 C909 1.392 1_554 S
C912 H922 0.930 . S
C913 C910 1.372 1_554 S
C913 C911 1.390 . S
C913 H923 0.929 1_554 S
C914 O894 1.255 . S
C914 O895 1.257 . S
C915 Eu851 2.787 . S
C915 O890 1.252 . S
C915 O893 1.268 . S
C915 C908 1.506 . S
H916 C899 0.931 . S
H917 C900 0.931 . S
H918 C901 0.929 . S
H919 C902 0.930 . S
H920 C910 0.931 . S
H921 C911 0.931 . S
H922 C912 0.930 . S
H923 C913 0.929 1_556 S
Eu924 N953 2.600 . S
Eu924 N959 2.562 . S
Eu924 O968 2.462 . S
Eu924 O969 2.373 . S
Eu924 O971 2.432 . S
Eu924 O972 2.291 . S
Eu924 O976 2.335 . S
Eu924 O979 2.372 . S
Eu924 C988 2.787 . S
C925 N926 1.365 1_556 S
C925 C928 1.405 . S
C925 C932 1.448 . S
N926 C925 1.365 1_554 S
N926 C929 1.319 . S
N926 Eu935 2.600 . S
C927 C929 1.397 . S
C927 C930 1.367 . S
C927 H947 0.931 . S
C928 C925 1.405 . S
C928 C930 1.403 1_556 S
C928 C934 1.439 . S
C929 N926 1.319 . S
C929 C927 1.397 . S
C929 H940 0.930 . S
C930 C927 1.367 . S
C930 C928 1.403 1_554 S
C930 H951 0.929 1_554 S
C931 C932 1.430 . S
C931 C933 1.387 . S
C931 C937 1.404 . S
C932 C925 1.448 . S
C932 C931 1.430 . S
C932 N936 1.351 . S
C933 C931 1.387 . S
C933 C934 1.374 . S
C933 H948 0.931 . S
C934 C928 1.439 . S
C934 C933 1.374 . S
C934 H949 0.931 . S
Eu935 N926 2.600 . S
Eu935 N936 2.562 1_554 S
Eu935 O970 2.335 . S
Eu935 O973 2.372 . S
Eu935 O974 2.462 1_554 S
Eu935 O975 2.373 . S
Eu935 O977 2.432 1_554 S
Eu935 O978 2.291 . S
Eu935 C999 2.787 1_554 S
N936 C932 1.351 . S
N936 Eu935 2.562 1_556 S
N936 C938 1.325 . S
C937 C931 1.404 . S
C937 C939 1.366 . S
C937 H945 0.930 . S
C938 N936 1.325 . S
C938 C939 1.416 . S
C938 H944 0.929 . S
C939 C937 1.366 . S
C939 C938 1.416 . S
C939 H941 0.930 . S
H940 C929 0.930 . S
H941 C939 0.930 . S
H942 C957 0.930 . S
H943 C964 0.930 . S
H944 C938 0.929 . S
H945 C937 0.930 . S
H946 C960 0.929 . S
H947 C927 0.931 . S
H948 C933 0.931 . S
H949 C934 0.931 . S
H950 C955 0.931 1_655 S
H951 C930 0.929 1_556 S
H952 C963 0.930 . S
N953 Eu924 2.600 . S
N953 C954 1.365 . S
N953 C957 1.319 . S
C954 N953 1.365 . S
C954 C956 1.405 . S
C954 C962 1.448 . S
C955 H950 0.931 1_455 S
C955 C957 1.397 . S
C955 C958 1.367 . S
C956 C954 1.405 . S
C956 C958 1.403 . S
C956 C989 1.439 1_565 S
C957 H942 0.930 . S
C957 N953 1.319 . S
C957 C955 1.397 . S
C958 C955 1.367 . S
C958 C956 1.403 . S
C958 H965 0.929 1_565 S
N959 Eu924 2.562 . S
N959 C960 1.325 . S
N959 C962 1.351 . S
C960 H946 0.929 . S
C960 N959 1.325 . S
C960 C964 1.416 . S
C961 C962 1.430 1_545 S
C961 C963 1.404 . S
C961 C990 1.387 . S
C962 C954 1.448 . S
C962 N959 1.351 . S
C962 C961 1.430 1_565 S
C963 H952 0.930 . S
C963 C961 1.404 . S
C963 C964 1.366 1_545 S
C964 H943 0.930 . S
C964 C960 1.416 . S
C964 C963 1.366 1_565 S
H965 C958 0.929 1_545 S
H966 C989 0.931 . S
H967 C990 0.931 . S
O968 Eu924 2.462 . S
O968 C988 1.252 . S
O969 Eu924 2.373 . S
O969 C980 1.249 . S
O970 Eu935 2.335 . S
O970 C980 1.264 . S
O971 Eu924 2.432 . S
O971 C988 1.268 . S
O972 Eu924 2.291 . S
O972 C987 1.255 . S
O973 Eu935 2.372 . S
O973 C987 1.257 . S
O974 Eu935 2.462 1_556 S
O974 C999 1.252 . S
O975 Eu935 2.373 . S
O975 C991 1.249 . S
O976 Eu924 2.335 . S
O976 C991 1.264 . S
O977 Eu935 2.432 1_556 S
O977 C999 1.268 . S
O978 Eu935 2.291 . S
O978 C998 1.255 . S
O979 Eu924 2.372 . S
O979 C998 1.257 . S
C980 O969 1.249 . S
C980 O970 1.264 . S
C981 C984 1.382 . S
C981 C986 1.390 . S
C981 C988 1.506 . S
C982 C983 1.398 . S
C982 C986 1.392 . S
C983 C982 1.398 . S
C983 C985 1.372 . S
C983 H1000 0.931 . S
C984 C981 1.382 . S
C984 C985 1.390 . S
C984 H1001 0.931 . S
C985 C983 1.372 . S
C985 C984 1.390 . S
C985 H1002 0.929 . S
C986 C981 1.390 . S
C986 C982 1.392 . S
C986 H1003 0.930 . S
C987 O972 1.255 . S
C987 O973 1.257 . S
C988 Eu924 2.787 . S
C988 O968 1.252 . S
C988 O971 1.268 . S
C988 C981 1.506 . S
C989 C956 1.439 1_545 S
C989 H966 0.931 . S
C989 C990 1.374 . S
C990 C961 1.387 . S
C990 H967 0.931 . S
C990 C989 1.374 . S
C991 O975 1.249 . S
C991 O976 1.264 . S
C992 C995 1.382 . S
C992 C996 1.390 . S
C992 C999 1.506 . S
C993 C994 1.398 . S
C993 C996 1.392 . S
C994 C993 1.398 . S
C994 C997 1.372 . S
C994 H1004 0.931 . S
C995 C992 1.382 . S
C995 C997 1.390 . S
C995 H1005 0.931 . S
C996 C992 1.390 . S
C996 C993 1.392 . S
C996 H1006 0.930 . S
C997 C994 1.372 . S
C997 C995 1.390 . S
C997 H1007 0.929 . S
C998 O978 1.255 . S
C998 O979 1.257 . S
C999 Eu935 2.787 1_556 S
C999 O974 1.252 . S
C999 O977 1.268 . S
C999 C992 1.506 . S
H1000 C983 0.931 . S
H1001 C984 0.931 . S
H1002 C985 0.929 . S
H1003 C986 0.930 . S
H1004 C994 0.931 . S
H1005 C995 0.931 . S
H1006 C996 0.930 . S
H1007 C997 0.929 . S
Eu1008 N1037 2.600 . S
Eu1008 N1043 2.562 1_554 S
Eu1008 O1052 2.462 1_554 S
Eu1008 O1053 2.373 . S
Eu1008 O1055 2.432 1_554 S
Eu1008 O1056 2.291 . S
Eu1008 O1060 2.335 . S
Eu1008 O1063 2.372 . S
Eu1008 C1072 2.787 1_554 S
C1009 N1010 1.365 . S
C1009 C1012 1.405 . S
C1009 C1016 1.448 . S
N1010 C1009 1.365 . S
N1010 C1013 1.319 . S
N1010 Eu1019 2.600 . S
C1011 C1013 1.397 . S
C1011 C1014 1.367 . S
C1011 H1031 0.931 . S
C1012 C1009 1.405 . S
C1012 C1014 1.403 . S
C1012 C1018 1.439 1_655 S
C1013 N1010 1.319 . S
C1013 C1011 1.397 . S
C1013 H1024 0.930 . S
C1014 C1011 1.367 . S
C1014 C1012 1.403 . S
C1014 H1035 0.929 . S
C1015 C1016 1.430 . S
C1015 C1017 1.387 1_655 S
C1015 C1021 1.404 . S
C1016 C1009 1.448 . S
C1016 C1015 1.430 . S
C1016 N1020 1.351 . S
C1017 C1015 1.387 1_455 S
C1017 C1018 1.374 . S
C1017 H1032 0.931 . S
C1018 C1012 1.439 1_455 S
C1018 C1017 1.374 . S
C1018 H1033 0.931 . S
Eu1019 N1010 2.600 . S
Eu1019 N1020 2.562 . S
Eu1019 O1054 2.335 . S
Eu1019 O1057 2.372 . S
Eu1019 O1058 2.462 . S
Eu1019 O1059 2.373 . S
Eu1019 O1061 2.432 . S
Eu1019 O1062 2.291 . S
Eu1019 C1083 2.787 . S
N1020 C1016 1.351 . S
N1020 Eu1019 2.562 . S
N1020 C1022 1.325 . S
C1021 C1015 1.404 . S
C1021 C1023 1.366 . S
C1021 H1029 0.930 1_655 S
C1022 N1020 1.325 . S
C1022 C1023 1.416 . S
C1022 H1028 0.929 . S
C1023 C1021 1.366 . S
C1023 C1022 1.416 . S
C1023 H1025 0.930 . S
H1024 C1013 0.930 . S
H1025 C1023 0.930 . S
H1026 C1041 0.930 . S
H1027 C1048 0.930 . S
H1028 C1022 0.929 . S
H1029 C1021 0.930 1_455 S
H1030 C1044 0.929 . S
H1031 C1011 0.931 . S
H1032 C1017 0.931 . S
H1033 C1018 0.931 . S
H1034 C1039 0.931 . S
H1035 C1014 0.929 . S
H1036 C1047 0.930 . S
N1037 Eu1008 2.600 . S
N1037 C1038 1.365 1_554 S
N1037 C1041 1.319 . S
C1038 N1037 1.365 1_556 S
C1038 C1040 1.405 . S
C1038 C1046 1.448 . S
C1039 H1034 0.931 . S
C1039 C1041 1.397 . S
C1039 C1042 1.370 . S
C1040 C1038 1.405 . S
C1040 C1042 1.402 1_556 S
C1040 C1073 1.439 . S
C1041 H1026 0.930 . S
C1041 N1037 1.319 . S
C1041 C1039 1.397 . S
C1042 C1039 1.370 . S
C1042 C1040 1.402 1_554 S
C1042 H1049 0.928 1_554 S
N1043 Eu1008 2.562 1_556 S
N1043 C1044 1.325 . S
N1043 C1046 1.351 . S
C1044 H1030 0.929 . S
C1044 N1043 1.325 . S
C1044 C1048 1.416 . S
C1045 C1046 1.430 . S
C1045 C1047 1.404 . S
C1045 C1074 1.387 . S
C1046 C1038 1.448 . S
C1046 N1043 1.351 . S
C1046 C1045 1.430 . S
C1047 H1036 0.930 . S
C1047 C1045 1.404 . S
C1047 C1048 1.366 . S
C1048 H1027 0.930 . S
C1048 C1044 1.416 . S
C1048 C1047 1.366 . S
H1049 C1042 0.928 1_556 S
H1050 C1073 0.931 . S
H1051 C1074 0.931 . S
O1052 Eu1008 2.462 1_556 S
O1052 C1072 1.252 . S
O1053 Eu1008 2.373 . S
O1053 C1064 1.249 . S
O1054 Eu1019 2.335 . S
O1054 C1064 1.264 . S
O1055 Eu1008 2.432 1_556 S
O1055 C1072 1.268 . S
O1056 Eu1008 2.291 . S
O1056 C1071 1.255 . S
O1057 Eu1019 2.372 . S
O1057 C1071 1.257 . S
O1058 Eu1019 2.462 . S
O1058 C1083 1.252 . S
O1059 Eu1019 2.373 . S
O1059 C1075 1.249 . S
O1060 Eu1008 2.335 . S
O1060 C1075 1.264 . S
O1061 Eu1019 2.432 . S
O1061 C1083 1.268 . S
O1062 Eu1019 2.291 . S
O1062 C1082 1.255 . S
O1063 Eu1008 2.372 . S
O1063 C1082 1.257 . S
C1064 O1053 1.249 . S
C1064 O1054 1.264 . S
C1065 C1068 1.382 . S
C1065 C1070 1.390 . S
C1065 C1072 1.506 . S
C1066 C1067 1.398 . S
C1066 C1070 1.392 . S
C1067 C1066 1.398 . S
C1067 C1069 1.372 . S
C1067 H1084 0.931 . S
C1068 C1065 1.382 . S
C1068 C1069 1.390 . S
C1068 H1085 0.931 . S
C1069 C1067 1.372 . S
C1069 C1068 1.390 . S
C1069 H1086 0.929 . S
C1070 C1065 1.390 . S
C1070 C1066 1.392 . S
C1070 H1087 0.930 . S
C1071 O1056 1.255 . S
C1071 O1057 1.257 . S
C1072 Eu1008 2.787 1_556 S
C1072 O1052 1.252 . S
C1072 O1055 1.268 . S
C1072 C1065 1.506 . S
C1073 C1040 1.439 . S
C1073 H1050 0.931 . S
C1073 C1074 1.374 . S
C1074 C1045 1.387 . S
C1074 H1051 0.931 . S
C1074 C1073 1.374 . S
C1075 O1059 1.249 . S
C1075 O1060 1.264 . S
C1076 C1079 1.382 . S
C1076 C1080 1.390 . S
C1076 C1083 1.506 . S
C1077 C1078 1.398 . S
C1077 C1080 1.392 . S
C1078 C1077 1.398 . S
C1078 C1081 1.372 . S
C1078 H1088 0.931 . S
C1079 C1076 1.382 . S
C1079 C1081 1.390 . S
C1079 H1089 0.931 . S
C1080 C1076 1.390 . S
C1080 C1077 1.392 . S
C1080 H1090 0.930 . S
C1081 C1078 1.372 . S
C1081 C1079 1.390 . S
C1081 H1091 0.929 . S
C1082 O1062 1.255 . S
C1082 O1063 1.257 . S
C1083 Eu1019 2.787 . S
C1083 O1058 1.252 . S
C1083 O1061 1.268 . S
C1083 C1076 1.506 . S
H1084 C1067 0.931 . S
H1085 C1068 0.931 . S
H1086 C1069 0.929 . S
H1087 C1070 0.930 . S
H1088 C1078 0.931 . S
H1089 C1079 0.931 . S
H1090 C1080 0.930 . S
H1091 C1081 0.929 . S
Eu1092 N1121 2.600 . S
Eu1092 N1127 2.562 . S
Eu1092 O1136 2.462 . S
Eu1092 O1137 2.373 . S
Eu1092 O1139 2.432 . S
Eu1092 O1140 2.291 . S
Eu1092 O1144 2.335 . S
Eu1092 O1147 2.372 . S
Eu1092 C1156 2.787 . S
C1093 N1094 1.365 1_554 S
C1093 C1096 1.405 . S
C1093 C1100 1.448 . S
N1094 C1093 1.365 1_556 S
N1094 C1097 1.319 . S
N1094 Eu1103 2.600 . S
C1095 C1097 1.397 . S
C1095 C1098 1.367 . S
C1095 H1115 0.931 . S
C1096 C1093 1.405 . S
C1096 C1098 1.403 1_554 S
C1096 C1102 1.439 . S
C1097 N1094 1.319 . S
C1097 C1095 1.397 . S
C1097 H1108 0.930 . S
C1098 C1095 1.367 . S
C1098 C1096 1.403 1_556 S
C1098 H1119 0.929 1_556 S
C1099 C1100 1.430 . S
C1099 C1101 1.387 . S
C1099 C1105 1.404 . S
C1100 C1093 1.448 . S
C1100 C1099 1.430 . S
C1100 N1104 1.351 . S
C1101 C1099 1.387 . S
C1101 C1102 1.374 . S
C1101 H1116 0.931 . S
C1102 C1096 1.439 . S
C1102 C1101 1.374 . S
C1102 H1117 0.931 . S
Eu1103 N1094 2.600 . S
Eu1103 N1104 2.562 1_556 S
Eu1103 O1138 2.335 . S
Eu1103 O1141 2.372 . S
Eu1103 O1142 2.462 1_556 S
Eu1103 O1143 2.373 . S
Eu1103 O1145 2.432 1_556 S
Eu1103 O1146 2.291 . S
Eu1103 C1167 2.787 1_556 S
N1104 C1100 1.351 . S
N1104 Eu1103 2.562 1_554 S
N1104 C1106 1.325 . S
C1105 C1099 1.404 . S
C1105 C1107 1.366 . S
C1105 H1113 0.930 . S
C1106 N1104 1.325 . S
C1106 C1107 1.416 . S
C1106 H1112 0.929 . S
C1107 C1105 1.366 . S
C1107 C1106 1.416 . S
C1107 H1109 0.930 . S
H1108 C1097 0.930 . S
H1109 C1107 0.930 . S
H1110 C1125 0.930 . S
H1111 C1132 0.930 . S
H1112 C1106 0.929 . S
H1113 C1105 0.930 . S
H1114 C1128 0.929 . S
H1115 C1095 0.931 . S
H1116 C1101 0.931 . S
H1117 C1102 0.931 . S
H1118 C1123 0.931 1_655 S
H1119 C1098 0.929 1_554 S
H1120 C1131 0.930 . S
N1121 Eu1092 2.600 . S
N1121 C1122 1.365 . S
N1121 C1125 1.319 . S
C1122 N1121 1.365 . S
C1122 C1124 1.405 . S
C1122 C1130 1.448 . S
C1123 H1118 0.931 1_455 S
C1123 C1125 1.397 . S
C1123 C1126 1.367 . S
C1124 C1122 1.405 . S
C1124 C1126 1.403 . S
C1124 C1157 1.439 1_545 S
C1125 H1110 0.930 . S
C1125 N1121 1.319 . S
C1125 C1123 1.397 . S
C1126 C1123 1.367 . S
C1126 C1124 1.403 . S
C1126 H1133 0.929 1_545 S
N1127 Eu1092 2.562 . S
N1127 C1128 1.325 . S
N1127 C1130 1.351 . S
C1128 H1114 0.929 . S
C1128 N1127 1.325 . S
C1128 C1132 1.416 . S
C1129 C1130 1.430 1_565 S
C1129 C1131 1.404 . S
C1129 C1158 1.387 . S
C1130 C1122 1.448 . S
C1130 N1127 1.351 . S
C1130 C1129 1.430 1_545 S
C1131 H1120 0.930 . S
C1131 C1129 1.404 . S
C1131 C1132 1.366 1_565 S
C1132 H1111 0.930 . S
C1132 C1128 1.416 . S
C1132 C1131 1.366 1_545 S
H1133 C1126 0.929 1_565 S
H1134 C1157 0.931 . S
H1135 C1158 0.931 . S
O1136 Eu1092 2.462 . S
O1136 C1156 1.252 . S
O1137 Eu1092 2.373 . S
O1137 C1148 1.249 . S
O1138 Eu1103 2.335 . S
O1138 C1148 1.264 . S
O1139 Eu1092 2.432 . S
O1139 C1156 1.268 . S
O1140 Eu1092 2.291 . S
O1140 C1155 1.255 . S
O1141 Eu1103 2.372 . S
O1141 C1155 1.257 . S
O1142 Eu1103 2.462 1_554 S
O1142 C1167 1.252 . S
O1143 Eu1103 2.373 . S
O1143 C1159 1.249 . S
O1144 Eu1092 2.335 . S
O1144 C1159 1.264 . S
O1145 Eu1103 2.432 1_554 S
O1145 C1167 1.268 . S
O1146 Eu1103 2.291 . S
O1146 C1166 1.255 . S
O1147 Eu1092 2.372 . S
O1147 C1166 1.257 . S
C1148 O1137 1.249 . S
C1148 O1138 1.264 . S
C1149 C1152 1.382 . S
C1149 C1154 1.390 . S
C1149 C1156 1.506 . S
C1150 C1151 1.398 . S
C1150 C1154 1.392 . S
C1151 C1150 1.398 . S
C1151 C1153 1.372 . S
C1151 H1168 0.931 . S
C1152 C1149 1.382 . S
C1152 C1153 1.390 . S
C1152 H1169 0.931 . S
C1153 C1151 1.372 . S
C1153 C1152 1.390 . S
C1153 H1170 0.929 . S
C1154 C1149 1.390 . S
C1154 C1150 1.392 . S
C1154 H1171 0.930 . S
C1155 O1140 1.255 . S
C1155 O1141 1.257 . S
C1156 Eu1092 2.787 . S
C1156 O1136 1.252 . S
C1156 O1139 1.268 . S
C1156 C1149 1.506 . S
C1157 C1124 1.439 1_565 S
C1157 H1134 0.931 . S
C1157 C1158 1.374 . S
C1158 C1129 1.387 . S
C1158 H1135 0.931 . S
C1158 C1157 1.374 . S
C1159 O1143 1.249 . S
C1159 O1144 1.264 . S
C1160 C1163 1.382 . S
C1160 C1164 1.390 . S
C1160 C1167 1.506 . S
C1161 C1162 1.398 . S
C1161 C1164 1.392 . S
C1162 C1161 1.398 . S
C1162 C1165 1.372 . S
C1162 H1172 0.931 . S
C1163 C1160 1.382 . S
C1163 C1165 1.390 . S
C1163 H1173 0.931 . S
C1164 C1160 1.390 . S
C1164 C1161 1.392 . S
C1164 H1174 0.930 . S
C1165 C1162 1.372 . S
C1165 C1163 1.390 . S
C1165 H1175 0.929 . S
C1166 O1146 1.255 . S
C1166 O1147 1.257 . S
C1167 Eu1103 2.787 1_554 S
C1167 O1142 1.252 . S
C1167 O1145 1.268 . S
C1167 C1160 1.506 . S
H1168 C1151 0.931 . S
H1169 C1152 0.931 . S
H1170 C1153 0.929 . S
H1171 C1154 0.930 . S
H1172 C1162 0.931 . S
H1173 C1163 0.931 . S
H1174 C1164 0.930 . S
H1175 C1165 0.929 . S
Eu1176 N1205 2.600 . S
Eu1176 N1211 2.562 . S
Eu1176 O1220 2.462 . S
Eu1176 O1221 2.373 . S
Eu1176 O1223 2.432 . S
Eu1176 O1224 2.291 . S
Eu1176 O1228 2.335 . S
Eu1176 O1231 2.372 . S
Eu1176 C1240 2.787 . S
C1177 N1178 1.365 . S
C1177 C1180 1.405 . S
C1177 C1184 1.448 . S
N1178 C1177 1.365 . S
N1178 C1181 1.319 . S
N1178 Eu1187 2.600 . S
C1179 C1181 1.397 . S
C1179 C1182 1.367 . S
C1179 H1199 0.931 . S
C1180 C1177 1.405 . S
C1180 C1182 1.403 . S
C1180 C1186 1.439 . S
C1181 N1178 1.319 . S
C1181 C1179 1.397 . S
C1181 H1192 0.930 . S
C1182 C1179 1.367 . S
C1182 C1180 1.403 . S
C1182 H1203 0.929 . S
C1183 C1184 1.430 . S
C1183 C1185 1.387 . S
C1183 C1189 1.404 . S
C1184 C1177 1.448 . S
C1184 C1183 1.430 . S
C1184 N1188 1.351 . S
C1185 C1183 1.387 . S
C1185 C1186 1.374 . S
C1185 H1200 0.931 . S
C1186 C1180 1.439 . S
C1186 C1185 1.374 . S
C1186 H1201 0.931 . S
Eu1187 N1178 2.600 . S
Eu1187 N1188 2.562 . S
Eu1187 O1222 2.335 . S
Eu1187 O1225 2.372 . S
Eu1187 O1226 2.462 . S
Eu1187 O1227 2.373 . S
Eu1187 O1229 2.432 . S
Eu1187 O1230 2.291 . S
Eu1187 C1251 2.787 . S
N1188 C1184 1.351 . S
N1188 Eu1187 2.562 . S
N1188 C1190 1.325 . S
C1189 C1183 1.404 . S
C1189 C1191 1.366 . S
C1189 H1197 0.930 . S
C1190 N1188 1.325 . S
C1190 C1191 1.416 . S
C1190 H1196 0.929 . S
C1191 C1189 1.366 . S
C1191 C1190 1.416 . S
C1191 H1193 0.930 . S
H1192 C1181 0.930 . S
H1193 C1191 0.930 . S
H1194 C1209 0.930 . S
H1195 C1216 0.930 . S
H1196 C1190 0.929 . S
H1197 C1189 0.930 . S
H1198 C1212 0.929 . S
H1199 C1179 0.931 . S
H1200 C1185 0.931 . S
H1201 C1186 0.931 . S
H1202 C1207 0.931 . S
H1203 C1182 0.929 . S
H1204 C1215 0.930 . S
N1205 Eu1176 2.600 . S
N1205 C1206 1.365 . S
N1205 C1209 1.319 . S
C1206 N1205 1.365 . S
C1206 C1208 1.405 . S
C1206 C1214 1.448 . S
C1207 H1202 0.931 . S
C1207 C1209 1.397 . S
C1207 C1210 1.367 . S
C1208 C1206 1.405 . S
C1208 C1210 1.403 . S
C1208 C1241 1.439 . S
C1209 H1194 0.930 . S
C1209 N1205 1.319 . S
C1209 C1207 1.397 . S
C1210 C1207 1.367 . S
C1210 C1208 1.403 . S
C1210 H1217 0.929 . S
N1211 Eu1176 2.562 . S
N1211 C1212 1.325 . S
N1211 C1214 1.351 . S
C1212 H1198 0.929 . S
C1212 N1211 1.325 . S
C1212 C1216 1.416 . S
C1213 C1214 1.430 . S
C1213 C1215 1.404 . S
C1213 C1242 1.387 . S
C1214 C1206 1.448 . S
C1214 N1211 1.351 . S
C1214 C1213 1.430 . S
C1215 H1204 0.930 . S
C1215 C1213 1.404 . S
C1215 C1216 1.366 . S
C1216 H1195 0.930 . S
C1216 C1212 1.416 . S
C1216 C1215 1.366 . S
H1217 C1210 0.929 . S
H1218 C1241 0.931 . S
H1219 C1242 0.931 . S
O1220 Eu1176 2.462 . S
O1220 C1240 1.252 . S
O1221 Eu1176 2.373 . S
O1221 C1232 1.249 . S
O1222 Eu1187 2.335 . S
O1222 C1232 1.264 . S
O1223 Eu1176 2.432 . S
O1223 C1240 1.268 . S
O1224 Eu1176 2.291 . S
O1224 C1239 1.255 . S
O1225 Eu1187 2.372 . S
O1225 C1239 1.257 . S
O1226 Eu1187 2.462 . S
O1226 C1251 1.252 . S
O1227 Eu1187 2.373 . S
O1227 C1243 1.249 . S
O1228 Eu1176 2.335 . S
O1228 C1243 1.264 . S
O1229 Eu1187 2.432 . S
O1229 C1251 1.268 . S
O1230 Eu1187 2.291 . S
O1230 C1250 1.255 . S
O1231 Eu1176 2.372 . S
O1231 C1250 1.257 . S
C1232 O1221 1.249 . S
C1232 O1222 1.264 . S
C1233 C1236 1.382 . S
C1233 C1238 1.390 . S
C1233 C1240 1.506 . S
C1234 C1235 1.398 . S
C1234 C1238 1.392 1_554 S
C1235 C1234 1.398 . S
C1235 C1237 1.372 1_554 S
C1235 H1252 0.931 . S
C1236 C1233 1.382 . S
C1236 C1237 1.390 . S
C1236 H1253 0.931 . S
C1237 C1235 1.372 1_556 S
C1237 C1236 1.390 . S
C1237 H1254 0.929 1_556 S
C1238 C1233 1.390 . S
C1238 C1234 1.392 1_556 S
C1238 H1255 0.930 . S
C1239 O1224 1.255 . S
C1239 O1225 1.257 . S
C1240 Eu1176 2.787 . S
C1240 O1220 1.252 . S
C1240 O1223 1.268 . S
C1240 C1233 1.506 . S
C1241 C1208 1.439 . S
C1241 H1218 0.931 . S
C1241 C1242 1.374 . S
C1242 C1213 1.387 . S
C1242 H1219 0.931 . S
C1242 C1241 1.374 . S
C1243 O1227 1.249 . S
C1243 O1228 1.264 . S
C1244 C1247 1.382 . S
C1244 C1248 1.390 . S
C1244 C1251 1.506 . S
C1245 C1246 1.398 . S
C1245 C1248 1.392 . S
C1246 C1245 1.398 . S
C1246 C1249 1.372 . S
C1246 H1256 0.931 . S
C1247 C1244 1.382 . S
C1247 C1249 1.390 . S
C1247 H1257 0.931 . S
C1248 C1244 1.390 . S
C1248 C1245 1.392 . S
C1248 H1258 0.930 . S
C1249 C1246 1.372 . S
C1249 C1247 1.390 . S
C1249 H1259 0.929 . S
C1250 O1230 1.255 . S
C1250 O1231 1.257 . S
C1251 Eu1187 2.787 . S
C1251 O1226 1.252 . S
C1251 O1229 1.268 . S
C1251 C1244 1.506 . S
H1252 C1235 0.931 . S
H1253 C1236 0.931 . S
H1254 C1237 0.929 1_554 S
H1255 C1238 0.930 . S
H1256 C1246 0.931 . S
H1257 C1247 0.931 . S
H1258 C1248 0.930 . S
H1259 C1249 0.929 . S
Eu1260 N1289 2.600 . S
Eu1260 N1295 2.562 . S
Eu1260 O1304 2.462 . S
Eu1260 O1305 2.373 . S
Eu1260 O1307 2.432 . S
Eu1260 O1308 2.291 . S
Eu1260 O1312 2.335 . S
Eu1260 O1315 2.372 . S
Eu1260 C1324 2.787 . S
C1261 N1262 1.365 . S
C1261 C1264 1.405 . S
C1261 C1268 1.448 . S
N1262 C1261 1.365 . S
N1262 C1265 1.319 . S
N1262 Eu1271 2.600 . S
C1263 C1265 1.393 1_545 S
C1263 C1266 1.366 1_545 S
C1263 H1283 0.936 . S
C1264 C1261 1.405 . S
C1264 C1266 1.403 . S
C1264 C1270 1.439 . S
C1265 N1262 1.319 . S
C1265 C1263 1.393 1_565 S
C1265 H1276 0.930 . S
C1266 C1263 1.366 1_565 S
C1266 C1264 1.403 . S
C1266 H1287 0.929 1_565 S
C1267 C1268 1.430 . S
C1267 C1269 1.387 . S
C1267 C1273 1.404 . S
C1268 C1261 1.448 . S
C1268 C1267 1.430 . S
C1268 N1272 1.351 . S
C1269 C1267 1.387 . S
C1269 C1270 1.374 . S
C1269 H1284 0.931 . S
C1270 C1264 1.439 . S
C1270 C1269 1.374 . S
C1270 H1285 0.931 . S
Eu1271 N1262 2.600 . S
Eu1271 N1272 2.562 . S
Eu1271 O1306 2.335 . S
Eu1271 O1309 2.372 . S
Eu1271 O1310 2.462 . S
Eu1271 O1311 2.373 . S
Eu1271 O1313 2.432 . S
Eu1271 O1314 2.291 . S
Eu1271 C1335 2.787 . S
N1272 C1268 1.351 . S
N1272 Eu1271 2.562 . S
N1272 C1274 1.325 . S
C1273 C1267 1.404 . S
C1273 C1275 1.366 . S
C1273 H1281 0.930 . S
C1274 N1272 1.325 . S
C1274 C1275 1.416 . S
C1274 H1280 0.929 . S
C1275 C1273 1.366 . S
C1275 C1274 1.416 . S
C1275 H1277 0.930 . S
H1276 C1265 0.930 . S
H1277 C1275 0.930 . S
H1278 C1293 0.930 . S
H1279 C1300 0.930 . S
H1280 C1274 0.929 . S
H1281 C1273 0.930 . S
H1282 C1296 0.929 . S
H1283 C1263 0.936 . S
H1284 C1269 0.931 . S
H1285 C1270 0.931 . S
H1286 C1291 0.931 . S
H1287 C1266 0.929 1_545 S
H1288 C1299 0.930 . S
N1289 Eu1260 2.600 . S
N1289 C1290 1.365 . S
N1289 C1293 1.319 . S
C1290 N1289 1.365 . S
C1290 C1292 1.405 . S
C1290 C1298 1.448 . S
C1291 H1286 0.931 . S
C1291 C1293 1.397 . S
C1291 C1294 1.367 . S
C1292 C1290 1.405 . S
C1292 C1294 1.403 . S
C1292 C1325 1.439 . S
C1293 H1278 0.930 . S
C1293 N1289 1.319 . S
C1293 C1291 1.397 . S
C1294 C1291 1.367 . S
C1294 C1292 1.403 . S
C1294 H1301 0.929 . S
N1295 Eu1260 2.562 . S
N1295 C1296 1.325 . S
N1295 C1298 1.351 . S
C1296 H1282 0.929 . S
C1296 N1295 1.325 . S
C1296 C1300 1.416 . S
C1297 C1298 1.430 . S
C1297 C1299 1.404 . S
C1297 C1326 1.387 . S
C1298 C1290 1.448 . S
C1298 N1295 1.351 . S
C1298 C1297 1.430 . S
C1299 H1288 0.930 . S
C1299 C1297 1.404 . S
C1299 C1300 1.366 . S
C1300 H1279 0.930 . S
C1300 C1296 1.416 . S
C1300 C1299 1.366 . S
H1301 C1294 0.929 . S
H1302 C1325 0.931 . S
H1303 C1326 0.931 . S
O1304 Eu1260 2.462 . S
O1304 C1324 1.252 . S
O1305 Eu1260 2.373 . S
O1305 C1316 1.249 . S
O1306 Eu1271 2.335 . S
O1306 C1316 1.264 . S
O1307 Eu1260 2.432 . S
O1307 C1324 1.268 . S
O1308 Eu1260 2.291 . S
O1308 C1323 1.255 . S
O1309 Eu1271 2.372 . S
O1309 C1323 1.257 . S
O1310 Eu1271 2.462 . S
O1310 C1335 1.252 . S
O1311 Eu1271 2.373 . S
O1311 C1327 1.249 . S
O1312 Eu1260 2.335 . S
O1312 C1327 1.264 . S
O1313 Eu1271 2.432 . S
O1313 C1335 1.268 . S
O1314 Eu1271 2.291 . S
O1314 C1334 1.255 . S
O1315 Eu1260 2.372 . S
O1315 C1334 1.257 . S
C1316 O1305 1.249 . S
C1316 O1306 1.264 . S
C1317 C1320 1.382 . S
C1317 C1322 1.390 . S
C1317 C1324 1.506 . S
C1318 C1319 1.398 . S
C1318 C1322 1.392 . S
C1319 C1318 1.398 . S
C1319 C1321 1.372 . S
C1319 H1336 0.931 . S
C1320 C1317 1.382 . S
C1320 C1321 1.390 . S
C1320 H1337 0.931 . S
C1321 C1319 1.372 . S
C1321 C1320 1.390 . S
C1321 H1338 0.929 . S
C1322 C1317 1.390 . S
C1322 C1318 1.392 . S
C1322 H1339 0.930 . S
C1323 O1308 1.255 . S
C1323 O1309 1.257 . S
C1324 Eu1260 2.787 . S
C1324 O1304 1.252 . S
C1324 O1307 1.268 . S
C1324 C1317 1.506 . S
C1325 C1292 1.439 . S
C1325 H1302 0.931 . S
C1325 C1326 1.374 . S
C1326 C1297 1.387 . S
C1326 H1303 0.931 . S
C1326 C1325 1.374 . S
C1327 O1311 1.249 . S
C1327 O1312 1.264 . S
C1328 C1331 1.382 . S
C1328 C1332 1.390 . S
C1328 C1335 1.506 . S
C1329 C1330 1.398 . S
C1329 C1332 1.392 1_556 S
C1330 C1329 1.398 . S
C1330 C1333 1.372 1_556 S
C1330 H1340 0.931 . S
C1331 C1328 1.382 . S
C1331 C1333 1.390 . S
C1331 H1341 0.931 . S
C1332 C1328 1.390 . S
C1332 C1329 1.392 1_554 S
C1332 H1342 0.930 . S
C1333 C1330 1.372 1_554 S
C1333 C1331 1.390 . S
C1333 H1343 0.929 1_554 S
C1334 O1314 1.255 . S
C1334 O1315 1.257 . S
C1335 Eu1271 2.787 . S
C1335 O1310 1.252 . S
C1335 O1313 1.268 . S
C1335 C1328 1.506 . S
H1336 C1319 0.931 . S
H1337 C1320 0.931 . S
H1338 C1321 0.929 . S
H1339 C1322 0.930 . S
H1340 C1330 0.931 . S
H1341 C1331 0.931 . S
H1342 C1332 0.930 . S
H1343 C1333 0.929 1_556 S
C1344 C1345 1.387 . S
C1344 H1348 0.950 . S
C1344 C1353 1.390 . S
C1345 C1344 1.387 . S
C1345 C1347 1.387 . S
H1346 C1353 0.950 . S
C1347 C1345 1.387 . S
C1347 C1349 1.390 . S
C1347 H1351 0.950 . S
H1348 C1344 0.950 . S
C1349 C1347 1.390 . S
C1349 C1350 1.387 . S
C1349 H1352 0.950 . S
C1350 C1349 1.387 . S
C1350 C1353 1.387 . S
H1351 C1347 0.950 . S
H1352 C1349 0.950 . S
C1353 C1344 1.390 . S
C1353 H1346 0.950 . S
C1353 C1350 1.387 . S
C1354 C1355 1.387 . S
C1354 H1358 0.950 . S
C1354 C1363 1.390 . S
C1355 C1354 1.387 . S
C1355 C1357 1.387 . S
H1356 C1363 0.950 . S
C1357 C1355 1.387 . S
C1357 C1359 1.390 . S
C1357 H1361 0.950 . S
H1358 C1354 0.950 . S
C1359 C1357 1.390 . S
C1359 C1360 1.387 . S
C1359 H1362 0.950 . S
C1360 C1359 1.387 . S
C1360 C1363 1.387 . S
H1361 C1357 0.950 . S
H1362 C1359 0.950 . S
C1363 C1354 1.390 . S
C1363 H1356 0.950 . S
C1363 C1360 1.387 . S
C1364 C1365 1.387 . S
C1364 H1368 0.950 . S
C1364 C1373 1.390 . S
C1365 C1364 1.387 . S
C1365 C1367 1.387 . S
H1366 C1373 0.950 . S
C1367 C1365 1.387 . S
C1367 C1369 1.390 . S
C1367 H1371 0.950 . S
H1368 C1364 0.950 . S
C1369 C1367 1.390 . S
C1369 C1370 1.387 . S
C1369 H1372 0.950 . S
C1370 C1369 1.387 . S
C1370 C1373 1.387 . S
H1371 C1367 0.950 . S
H1372 C1369 0.950 . S
C1373 C1364 1.390 . S
C1373 H1366 0.950 . S
C1373 C1370 1.387 . S
C1374 C1375 1.387 . S
C1374 H1378 0.950 . S
C1374 C1383 1.390 . S
C1375 C1374 1.387 . S
C1375 C1377 1.387 . S
H1376 C1383 0.950 . S
C1377 C1375 1.387 . S
C1377 C1379 1.390 . S
C1377 H1381 0.950 . S
H1378 C1374 0.950 . S
C1379 C1377 1.390 . S
C1379 C1380 1.387 . S
C1379 H1382 0.950 . S
C1380 C1379 1.387 . S
C1380 C1383 1.387 . S
H1381 C1377 0.950 . S
H1382 C1379 0.950 . S
C1383 C1374 1.390 . S
C1383 H1376 0.950 . S
C1383 C1380 1.387 . S
C1384 C1385 1.387 . S
C1384 H1388 0.950 . S
C1384 C1393 1.390 . S
C1385 C1384 1.387 . S
C1385 C1387 1.387 . S
H1386 C1393 0.950 . S
C1387 C1385 1.387 . S
C1387 C1389 1.390 . S
C1387 H1391 0.950 . S
H1388 C1384 0.950 . S
C1389 C1387 1.390 . S
C1389 C1390 1.387 . S
C1389 H1392 0.950 . S
C1390 C1389 1.387 . S
C1390 C1393 1.387 . S
H1391 C1387 0.950 . S
H1392 C1389 0.950 . S
C1393 C1384 1.390 . S
C1393 H1386 0.950 . S
C1393 C1390 1.387 . S
C1394 C1395 1.387 . S
C1394 H1398 0.950 . S
C1394 C1403 1.390 . S
C1395 C1394 1.387 . S
C1395 C1397 1.387 . S
H1396 C1403 0.950 . S
C1397 C1395 1.387 . S
C1397 C1399 1.390 . S
C1397 H1401 0.950 . S
H1398 C1394 0.950 . S
C1399 C1397 1.390 . S
C1399 C1400 1.387 . S
C1399 H1402 0.950 . S
C1400 C1399 1.387 . S
C1400 C1403 1.387 . S
H1401 C1397 0.950 . S
H1402 C1399 0.950 . S
C1403 C1394 1.390 . S
C1403 H1396 0.950 . S
C1403 C1400 1.387 . S
C1404 C1405 1.387 . S
C1404 H1408 0.950 . S
C1404 C1413 1.390 . S
C1405 C1404 1.387 . S
C1405 C1407 1.387 . S
H1406 C1413 0.950 . S
C1407 C1405 1.387 . S
C1407 C1409 1.390 . S
C1407 H1411 0.950 . S
H1408 C1404 0.950 . S
C1409 C1407 1.390 . S
C1409 C1410 1.387 . S
C1409 H1412 0.950 . S
C1410 C1409 1.387 . S
C1410 C1413 1.387 . S
H1411 C1407 0.950 . S
H1412 C1409 0.950 . S
C1413 C1404 1.390 . S
C1413 H1406 0.950 . S
C1413 C1410 1.387 . S
C1414 C1415 1.387 . S
C1414 H1418 0.950 . S
C1414 C1423 1.390 . S
C1415 C1414 1.387 . S
C1415 C1417 1.387 . S
H1416 C1423 0.950 . S
C1417 C1415 1.387 . S
C1417 C1419 1.390 . S
C1417 H1421 0.950 . S
H1418 C1414 0.950 . S
C1419 C1417 1.390 . S
C1419 C1420 1.387 . S
C1419 H1422 0.950 . S
C1420 C1419 1.387 . S
C1420 C1423 1.387 . S
H1421 C1417 0.950 . S
H1422 C1419 0.950 . S
C1423 C1414 1.390 . S
C1423 H1416 0.950 . S
C1423 C1420 1.387 . S
C1424 C1425 1.387 . S
C1424 H1428 0.950 . S
C1424 C1433 1.390 . S
C1425 C1424 1.387 . S
C1425 C1427 1.387 . S
H1426 C1433 0.950 . S
C1427 C1425 1.387 . S
C1427 C1429 1.390 . S
C1427 H1431 0.950 . S
H1428 C1424 0.950 . S
C1429 C1427 1.390 . S
C1429 C1430 1.387 . S
C1429 H1432 0.950 . S
C1430 C1429 1.387 . S
C1430 C1433 1.387 . S
H1431 C1427 0.950 . S
H1432 C1429 0.950 . S
C1433 C1424 1.390 . S
C1433 H1426 0.950 . S
C1433 C1430 1.387 . S
C1434 C1435 1.387 . S
C1434 H1438 0.950 . S
C1434 C1443 1.390 . S
C1435 C1434 1.387 . S
C1435 C1437 1.387 . S
H1436 C1443 0.950 . S
C1437 C1435 1.387 . S
C1437 C1439 1.390 . S
C1437 H1441 0.950 . S
H1438 C1434 0.950 . S
C1439 C1437 1.390 . S
C1439 C1440 1.387 . S
C1439 H1442 0.950 . S
C1440 C1439 1.387 . S
C1440 C1443 1.387 . S
H1441 C1437 0.950 . S
H1442 C1439 0.950 . S
C1443 C1434 1.390 . S
C1443 H1436 0.950 . S
C1443 C1440 1.387 . S
C1444 C1445 1.387 . S
C1444 H1448 0.950 . S
C1444 C1453 1.390 . S
C1445 C1444 1.387 . S
C1445 C1447 1.387 . S
H1446 C1453 0.950 . S
C1447 C1445 1.387 . S
C1447 C1449 1.390 . S
C1447 H1451 0.950 . S
H1448 C1444 0.950 . S
C1449 C1447 1.390 . S
C1449 C1450 1.387 . S
C1449 H1452 0.950 . S
C1450 C1449 1.387 . S
C1450 C1453 1.387 . S
H1451 C1447 0.950 . S
H1452 C1449 0.950 . S
C1453 C1444 1.390 . S
C1453 H1446 0.950 . S
C1453 C1450 1.387 . S
C1454 C1455 1.387 . S
C1454 H1458 0.950 . S
C1454 C1463 1.390 . S
C1455 C1454 1.387 . S
C1455 C1457 1.387 . S
H1456 C1463 0.950 . S
C1457 C1455 1.387 . S
C1457 C1459 1.390 . S
C1457 H1461 0.950 . S
H1458 C1454 0.950 . S
C1459 C1457 1.390 . S
C1459 C1460 1.387 . S
C1459 H1462 0.950 . S
C1460 C1459 1.387 . S
C1460 C1463 1.387 . S
H1461 C1457 0.950 . S
H1462 C1459 0.950 . S
C1463 C1454 1.390 . S
C1463 H1456 0.950 . S
C1463 C1460 1.387 . S
C1464 C1465 1.387 . S
C1464 H1468 0.950 . S
C1464 C1473 1.390 . S
C1465 C1464 1.387 . S
C1465 C1467 1.387 . S
H1466 C1473 0.950 . S
C1467 C1465 1.387 . S
C1467 C1469 1.390 . S
C1467 H1471 0.950 . S
H1468 C1464 0.950 . S
C1469 C1467 1.390 . S
C1469 C1470 1.387 . S
C1469 H1472 0.950 . S
C1470 C1469 1.387 . S
C1470 C1473 1.387 . S
H1471 C1467 0.950 . S
H1472 C1469 0.950 . S
C1473 C1464 1.390 . S
C1473 H1466 0.950 . S
C1473 C1470 1.387 . S
C1474 C1475 1.387 . S
C1474 H1478 0.950 . S
C1474 C1483 1.390 . S
C1475 C1474 1.387 . S
C1475 C1477 1.387 . S
H1476 C1483 0.950 . S
C1477 C1475 1.387 . S
C1477 C1479 1.390 . S
C1477 H1481 0.950 . S
H1478 C1474 0.950 . S
C1479 C1477 1.390 . S
C1479 C1480 1.387 . S
C1479 H1482 0.950 . S
C1480 C1479 1.387 . S
C1480 C1483 1.387 . S
H1481 C1477 0.950 . S
H1482 C1479 0.950 . S
C1483 C1474 1.390 . S
C1483 H1476 0.950 . S
C1483 C1480 1.387 . S
C1484 C1485 1.387 . S
C1484 H1488 0.950 . S
C1484 C1493 1.390 . S
C1485 C1484 1.387 . S
C1485 C1487 1.387 . S
H1486 C1493 0.950 . S
C1487 C1485 1.387 . S
C1487 C1489 1.390 . S
C1487 H1491 0.950 . S
H1488 C1484 0.950 . S
C1489 C1487 1.390 . S
C1489 C1490 1.387 . S
C1489 H1492 0.950 . S
C1490 C1489 1.387 . S
C1490 C1493 1.387 . S
H1491 C1487 0.950 . S
H1492 C1489 0.950 . S
C1493 C1484 1.390 . S
C1493 H1486 0.950 . S
C1493 C1490 1.387 . S
C1494 C1495 1.387 . S
C1494 H1498 0.950 . S
C1494 C1503 1.390 . S
C1495 C1494 1.387 . S
C1495 C1497 1.387 . S
H1496 C1503 0.950 . S
C1497 C1495 1.387 . S
C1497 C1499 1.390 . S
C1497 H1501 0.950 . S
H1498 C1494 0.950 . S
C1499 C1497 1.390 . S
C1499 C1500 1.387 . S
C1499 H1502 0.950 . S
C1500 C1499 1.387 . S
C1500 C1503 1.387 . S
H1501 C1497 0.950 . S
H1502 C1499 0.950 . S
C1503 C1494 1.390 . S
C1503 H1496 0.950 . S
C1503 C1500 1.387 . S
C1504 C1505 1.387 . S
C1504 H1508 0.950 . S
C1504 C1513 1.390 . S
C1505 C1504 1.387 . S
C1505 C1507 1.387 . S
H1506 C1513 0.950 . S
C1507 C1505 1.387 . S
C1507 C1509 1.390 . S
C1507 H1511 0.950 . S
H1508 C1504 0.950 . S
C1509 C1507 1.390 . S
C1509 C1510 1.387 . S
C1509 H1512 0.950 . S
C1510 C1509 1.387 . S
C1510 C1513 1.387 . S
H1511 C1507 0.950 . S
H1512 C1509 0.950 . S
C1513 C1504 1.390 . S
C1513 H1506 0.950 . S
C1513 C1510 1.387 . S
C1514 C1515 1.387 . S
C1514 H1518 0.950 . S
C1514 C1523 1.390 . S
C1515 C1514 1.387 . S
C1515 C1517 1.387 . S
H1516 C1523 0.950 . S
C1517 C1515 1.387 . S
C1517 C1519 1.390 . S
C1517 H1521 0.950 . S
H1518 C1514 0.950 . S
C1519 C1517 1.390 . S
C1519 C1520 1.387 . S
C1519 H1522 0.950 . S
C1520 C1519 1.387 . S
C1520 C1523 1.387 . S
H1521 C1517 0.950 . S
H1522 C1519 0.950 . S
C1523 C1514 1.390 . S
C1523 H1516 0.950 . S
C1523 C1520 1.387 . S
C1524 C1525 1.387 . S
C1524 H1528 0.950 . S
C1524 C1533 1.390 . S
C1525 C1524 1.387 . S
C1525 C1527 1.387 . S
H1526 C1533 0.950 . S
C1527 C1525 1.387 . S
C1527 C1529 1.390 . S
C1527 H1531 0.950 . S
H1528 C1524 0.950 . S
C1529 C1527 1.390 . S
C1529 C1530 1.387 . S
C1529 H1532 0.950 . S
C1530 C1529 1.387 . S
C1530 C1533 1.387 . S
H1531 C1527 0.950 . S
H1532 C1529 0.950 . S
C1533 C1524 1.390 . S
C1533 H1526 0.950 . S
C1533 C1530 1.387 . S
C1534 C1535 1.387 . S
C1534 H1538 0.950 1_556 S
C1534 C1543 1.390 1_655 S
C1535 C1534 1.387 . S
C1535 C1537 1.387 . S
H1536 C1543 0.950 1_554 S
C1537 C1535 1.387 . S
C1537 C1539 1.390 1_655 S
C1537 H1541 0.950 . S
H1538 C1534 0.950 1_554 S
C1539 C1537 1.390 1_455 S
C1539 C1540 1.387 . S
C1539 H1542 0.950 . S
C1540 C1539 1.387 . S
C1540 C1543 1.387 . S
H1541 C1537 0.950 . S
H1542 C1539 0.950 . S
C1543 C1534 1.390 1_455 S
C1543 H1536 0.950 1_556 S
C1543 C1540 1.387 . S
C1544 C1545 1.387 . S
C1544 H1548 0.950 . S
C1544 C1553 1.390 . S
C1545 C1544 1.387 . S
C1545 C1547 1.387 . S
H1546 C1553 0.950 . S
C1547 C1545 1.387 . S
C1547 C1549 1.390 . S
C1547 H1551 0.950 . S
H1548 C1544 0.950 . S
C1549 C1547 1.390 . S
C1549 C1550 1.387 . S
C1549 H1552 0.950 . S
C1550 C1549 1.387 . S
C1550 C1553 1.387 . S
H1551 C1547 0.950 . S
H1552 C1549 0.950 . S
C1553 C1544 1.390 . S
C1553 H1546 0.950 . S
C1553 C1550 1.387 . S
C1554 C1555 1.387 . S
C1554 H1558 0.950 . S
C1554 C1563 1.390 1_455 S
C1555 C1554 1.387 . S
C1555 C1557 1.387 . S
H1556 C1563 0.950 . S
C1557 C1555 1.387 . S
C1557 C1559 1.390 1_455 S
C1557 H1561 0.950 . S
H1558 C1554 0.950 . S
C1559 C1557 1.390 1_655 S
C1559 C1560 1.387 . S
C1559 H1562 0.950 . S
C1560 C1559 1.387 . S
C1560 C1563 1.387 . S
H1561 C1557 0.950 . S
H1562 C1559 0.950 . S
C1563 C1554 1.390 1_655 S
C1563 H1556 0.950 . S
C1563 C1560 1.387 . S
C1564 C1565 1.387 . S
C1564 H1568 0.950 . S
C1564 C1573 1.390 . S
C1565 C1564 1.387 . S
C1565 C1567 1.387 . S
H1566 C1573 0.950 . S
C1567 C1565 1.387 . S
C1567 C1569 1.390 . S
C1567 H1571 0.950 . S
H1568 C1564 0.950 . S
C1569 C1567 1.390 . S
C1569 C1570 1.387 . S
C1569 H1572 0.950 . S
C1570 C1569 1.387 . S
C1570 C1573 1.387 . S
H1571 C1567 0.950 . S
H1572 C1569 0.950 . S
C1573 C1564 1.390 . S
C1573 H1566 0.950 . S
C1573 C1570 1.387 . S
C1574 C1575 1.387 . S
C1574 H1578 0.950 . S
C1574 C1583 1.390 . S
C1575 C1574 1.387 . S
C1575 C1577 1.387 . S
H1576 C1583 0.950 . S
C1577 C1575 1.387 . S
C1577 C1579 1.390 . S
C1577 H1581 0.950 . S
H1578 C1574 0.950 . S
C1579 C1577 1.390 . S
C1579 C1580 1.387 . S
C1579 H1582 0.950 . S
C1580 C1579 1.387 . S
C1580 C1583 1.387 . S
H1581 C1577 0.950 . S
H1582 C1579 0.950 . S
C1583 C1574 1.390 . S
C1583 H1576 0.950 . S
C1583 C1580 1.387 . S
C1584 C1585 1.387 . S
C1584 H1588 0.950 . S
C1584 C1593 1.390 . S
C1585 C1584 1.387 . S
C1585 C1587 1.387 . S
H1586 C1593 0.950 . S
C1587 C1585 1.387 . S
C1587 C1589 1.390 . S
C1587 H1591 0.950 . S
H1588 C1584 0.950 . S
C1589 C1587 1.390 . S
C1589 C1590 1.387 . S
C1589 H1592 0.950 . S
C1590 C1589 1.387 . S
C1590 C1593 1.387 . S
H1591 C1587 0.950 . S
H1592 C1589 0.950 . S
C1593 C1584 1.390 . S
C1593 H1586 0.950 . S
C1593 C1590 1.387 . S
C1594 C1595 1.387 . S
C1594 H1598 0.950 . S
C1594 C1603 1.390 . S
C1595 C1594 1.387 . S
C1595 C1597 1.387 . S
H1596 C1603 0.950 . S
C1597 C1595 1.387 . S
C1597 C1599 1.390 . S
C1597 H1601 0.950 . S
H1598 C1594 0.950 . S
C1599 C1597 1.390 . S
C1599 C1600 1.387 . S
C1599 H1602 0.950 . S
C1600 C1599 1.387 . S
C1600 C1603 1.387 . S
H1601 C1597 0.950 . S
H1602 C1599 0.950 . S
C1603 C1594 1.390 . S
C1603 H1596 0.950 . S
C1603 C1600 1.387 . S
C1604 C1605 1.387 . S
C1604 H1608 0.950 . S
C1604 C1613 1.390 . S
C1605 C1604 1.387 . S
C1605 C1607 1.387 . S
H1606 C1613 0.950 . S
C1607 C1605 1.387 . S
C1607 C1609 1.390 . S
C1607 H1611 0.950 . S
H1608 C1604 0.950 . S
C1609 C1607 1.390 . S
C1609 C1610 1.387 . S
C1609 H1612 0.950 . S
C1610 C1609 1.387 . S
C1610 C1613 1.387 . S
H1611 C1607 0.950 . S
H1612 C1609 0.950 . S
C1613 C1604 1.390 . S
C1613 H1606 0.950 . S
C1613 C1610 1.387 . S
C1614 C1615 1.387 . S
C1614 H1618 0.950 . S
C1614 C1623 1.390 . S
C1615 C1614 1.387 . S
C1615 C1617 1.387 . S
H1616 C1623 0.950 . S
C1617 C1615 1.387 . S
C1617 C1619 1.390 . S
C1617 H1621 0.950 . S
H1618 C1614 0.950 . S
C1619 C1617 1.390 . S
C1619 C1620 1.387 . S
C1619 H1622 0.950 . S
C1620 C1619 1.387 . S
C1620 C1623 1.387 . S
H1621 C1617 0.950 . S
H1622 C1619 0.950 . S
C1623 C1614 1.390 . S
C1623 H1616 0.950 . S
C1623 C1620 1.387 . S
C1624 C1625 1.387 . S
C1624 H1628 0.950 . S
C1624 C1633 1.390 1_655 S
C1625 C1624 1.387 . S
C1625 C1627 1.387 . S
H1626 C1633 0.950 . S
C1627 C1625 1.387 . S
C1627 C1629 1.390 1_655 S
C1627 H1631 0.950 . S
H1628 C1624 0.950 . S
C1629 C1627 1.390 1_455 S
C1629 C1630 1.387 . S
C1629 H1632 0.950 . S
C1630 C1629 1.387 . S
C1630 C1633 1.387 . S
H1631 C1627 0.950 . S
H1632 C1629 0.950 . S
C1633 C1624 1.390 1_455 S
C1633 H1626 0.950 . S
C1633 C1630 1.387 . S
C1634 C1635 1.387 . S
C1634 H1638 0.950 . S
C1634 C1643 1.390 . S
C1635 C1634 1.387 . S
C1635 C1637 1.387 . S
H1636 C1643 0.950 . S
C1637 C1635 1.387 . S
C1637 C1639 1.390 . S
C1637 H1641 0.950 . S
H1638 C1634 0.950 . S
C1639 C1637 1.390 . S
C1639 C1640 1.387 . S
C1639 H1642 0.950 . S
C1640 C1639 1.387 . S
C1640 C1643 1.387 . S
H1641 C1637 0.950 . S
H1642 C1639 0.950 . S
C1643 C1634 1.390 . S
C1643 H1636 0.950 . S
C1643 C1640 1.387 . S
C1644 C1645 1.387 . S
C1644 H1648 0.950 . S
C1644 C1653 1.390 . S
C1645 C1644 1.387 . S
C1645 C1647 1.387 . S
H1646 C1653 0.950 . S
C1647 C1645 1.387 . S
C1647 C1649 1.390 . S
C1647 H1651 0.950 . S
H1648 C1644 0.950 . S
C1649 C1647 1.390 . S
C1649 C1650 1.387 . S
C1649 H1652 0.950 . S
C1650 C1649 1.387 . S
C1650 C1653 1.387 . S
H1651 C1647 0.950 . S
H1652 C1649 0.950 . S
C1653 C1644 1.390 . S
C1653 H1646 0.950 . S
C1653 C1650 1.387 . S
C1654 C1655 1.387 . S
C1654 H1658 0.950 1_554 S
C1654 C1663 1.390 1_455 S
C1655 C1654 1.387 . S
C1655 C1657 1.387 . S
H1656 C1663 0.950 1_556 S
C1657 C1655 1.387 . S
C1657 C1659 1.390 1_455 S
C1657 H1661 0.950 . S
H1658 C1654 0.950 1_556 S
C1659 C1657 1.390 1_655 S
C1659 C1660 1.387 . S
C1659 H1662 0.950 . S
C1660 C1659 1.387 . S
C1660 C1663 1.387 . S
H1661 C1657 0.950 . S
H1662 C1659 0.950 . S
C1663 C1654 1.390 1_655 S
C1663 H1656 0.950 1_554 S
C1663 C1660 1.387 . S
C1664 C1665 1.387 . S
C1664 H1668 0.950 . S
C1664 C1673 1.390 1_554 S
C1665 C1664 1.387 . S
C1665 C1667 1.387 . S
H1666 C1673 0.950 . S
C1667 C1665 1.387 . S
C1667 C1669 1.390 1_554 S
C1667 H1671 0.950 . S
H1668 C1664 0.950 . S
C1669 C1667 1.390 1_556 S
C1669 C1670 1.387 . S
C1669 H1672 0.950 . S
C1670 C1669 1.387 . S
C1670 C1673 1.387 . S
H1671 C1667 0.950 . S
H1672 C1669 0.950 . S
C1673 C1664 1.390 1_556 S
C1673 H1666 0.950 . S
C1673 C1670 1.387 . S
C1674 C1675 1.387 . S
C1674 H1678 0.950 . S
C1674 C1683 1.390 . S
C1675 C1674 1.387 . S
C1675 C1677 1.387 . S
H1676 C1683 0.950 . S
C1677 C1675 1.387 . S
C1677 C1679 1.390 . S
C1677 H1681 0.950 . S
H1678 C1674 0.950 . S
C1679 C1677 1.390 . S
C1679 C1680 1.387 . S
C1679 H1682 0.950 . S
C1680 C1679 1.387 . S
C1680 C1683 1.387 . S
H1681 C1677 0.950 . S
H1682 C1679 0.950 . S
C1683 C1674 1.390 . S
C1683 H1676 0.950 . S
C1683 C1680 1.387 . S
C1684 C1685 1.387 . S
C1684 H1688 0.950 . S
C1684 C1693 1.390 . S
C1685 C1684 1.387 . S
C1685 C1687 1.387 . S
H1686 C1693 0.950 . S
C1687 C1685 1.387 . S
C1687 C1689 1.390 . S
C1687 H1691 0.950 . S
H1688 C1684 0.950 . S
C1689 C1687 1.390 . S
C1689 C1690 1.387 . S
C1689 H1692 0.950 . S
C1690 C1689 1.387 . S
C1690 C1693 1.387 . S
H1691 C1687 0.950 . S
H1692 C1689 0.950 . S
C1693 C1684 1.390 . S
C1693 H1686 0.950 . S
C1693 C1690 1.387 . S
C1694 C1695 1.387 . S
C1694 H1698 0.950 . S
C1694 C1703 1.390 . S
C1695 C1694 1.387 . S
C1695 C1697 1.387 . S
H1696 C1703 0.950 . S
C1697 C1695 1.387 . S
C1697 C1699 1.390 . S
C1697 H1701 0.950 . S
H1698 C1694 0.950 . S
C1699 C1697 1.390 . S
C1699 C1700 1.387 . S
C1699 H1702 0.950 . S
C1700 C1699 1.387 . S
C1700 C1703 1.387 . S
H1701 C1697 0.950 . S
H1702 C1699 0.950 . S
C1703 C1694 1.390 . S
C1703 H1696 0.950 . S
C1703 C1700 1.387 . S
C1704 C1705 1.387 . S
C1704 H1708 0.950 . S
C1704 C1713 1.390 1_554 S
C1705 C1704 1.387 . S
C1705 C1707 1.387 . S
H1706 C1713 0.950 . S
C1707 C1705 1.387 . S
C1707 C1709 1.390 1_554 S
C1707 H1711 0.950 . S
H1708 C1704 0.950 . S
C1709 C1707 1.390 1_556 S
C1709 C1710 1.387 . S
C1709 H1712 0.950 . S
C1710 C1709 1.387 . S
C1710 C1713 1.387 . S
H1711 C1707 0.950 . S
H1712 C1709 0.950 . S
C1713 C1704 1.390 1_556 S
C1713 H1706 0.950 . S
C1713 C1710 1.387 . S
C1714 C1715 1.387 . S
C1714 H1718 0.950 . S
C1714 C1723 1.390 . S
C1715 C1714 1.387 . S
C1715 C1717 1.387 . S
H1716 C1723 0.950 . S
C1717 C1715 1.387 . S
C1717 C1719 1.390 . S
C1717 H1721 0.950 . S
H1718 C1714 0.950 . S
C1719 C1717 1.390 . S
C1719 C1720 1.387 . S
C1719 H1722 0.950 . S
C1720 C1719 1.387 . S
C1720 C1723 1.387 . S
H1721 C1717 0.950 . S
H1722 C1719 0.950 . S
C1723 C1714 1.390 . S
C1723 H1716 0.950 . S
C1723 C1720 1.387 . S
C1724 C1725 1.387 . S
C1724 H1728 0.950 . S
C1724 C1733 1.390 . S
C1725 C1724 1.387 . S
C1725 C1727 1.387 . S
H1726 C1733 0.950 . S
C1727 C1725 1.387 . S
C1727 C1729 1.390 . S
C1727 H1731 0.950 . S
H1728 C1724 0.950 . S
C1729 C1727 1.390 . S
C1729 C1730 1.387 . S
C1729 H1732 0.950 . S
C1730 C1729 1.387 . S
C1730 C1733 1.387 . S
H1731 C1727 0.950 . S
H1732 C1729 0.950 . S
C1733 C1724 1.390 . S
C1733 H1726 0.950 . S
C1733 C1730 1.387 . S
C1734 C1735 1.387 . S
C1734 H1738 0.950 . S
C1734 C1743 1.390 . S
C1735 C1734 1.387 . S
C1735 C1737 1.387 . S
H1736 C1743 0.950 . S
C1737 C1735 1.387 . S
C1737 C1739 1.390 . S
C1737 H1741 0.950 . S
H1738 C1734 0.950 . S
C1739 C1737 1.390 . S
C1739 C1740 1.387 . S
C1739 H1742 0.950 . S
C1740 C1739 1.387 . S
C1740 C1743 1.387 . S
H1741 C1737 0.950 . S
H1742 C1739 0.950 . S
C1743 C1734 1.390 . S
C1743 H1736 0.950 . S
C1743 C1740 1.387 . S
C1744 C1745 1.387 . S
C1744 H1748 0.950 . S
C1744 C1753 1.390 1_565 S
C1745 C1744 1.387 . S
C1745 C1747 1.387 . S
H1746 C1753 0.950 . S
C1747 C1745 1.387 . S
C1747 C1749 1.390 1_565 S
C1747 H1751 0.950 . S
H1748 C1744 0.950 . S
C1749 C1747 1.390 1_545 S
C1749 C1750 1.387 . S
C1749 H1752 0.950 . S
C1750 C1749 1.387 . S
C1750 C1753 1.387 . S
H1751 C1747 0.950 . S
H1752 C1749 0.950 . S
C1753 C1744 1.390 1_545 S
C1753 H1746 0.950 . S
C1753 C1750 1.387 . S
C1754 C1755 1.387 . S
C1754 H1758 0.950 . S
C1754 C1763 1.390 . S
C1755 C1754 1.387 . S
C1755 C1757 1.387 . S
H1756 C1763 0.950 . S
C1757 C1755 1.387 . S
C1757 C1759 1.390 . S
C1757 H1761 0.950 . S
H1758 C1754 0.950 . S
C1759 C1757 1.390 . S
C1759 C1760 1.387 . S
C1759 H1762 0.950 . S
C1760 C1759 1.387 . S
C1760 C1763 1.387 . S
H1761 C1757 0.950 . S
H1762 C1759 0.950 . S
C1763 C1754 1.390 . S
C1763 H1756 0.950 . S
C1763 C1760 1.387 . S
C1764 C1765 1.387 . S
C1764 H1768 0.950 . S
C1764 C1773 1.390 1_564 S
C1765 C1764 1.387 . S
C1765 C1767 1.387 . S
H1766 C1773 0.950 . S
C1767 C1765 1.387 . S
C1767 C1769 1.390 1_564 S
C1767 H1771 0.950 . S
H1768 C1764 0.950 . S
C1769 C1767 1.390 1_546 S
C1769 C1770 1.387 . S
C1769 H1772 0.950 . S
C1770 C1769 1.387 . S
C1770 C1773 1.387 . S
H1771 C1767 0.950 . S
H1772 C1769 0.950 . S
C1773 C1764 1.390 1_546 S
C1773 H1766 0.950 . S
C1773 C1770 1.387 . S
C1774 C1775 1.387 . S
C1774 H1778 0.950 . S
C1774 C1783 1.390 . S
C1775 C1774 1.387 . S
C1775 C1777 1.387 . S
H1776 C1783 0.950 . S
C1777 C1775 1.387 . S
C1777 C1779 1.390 . S
C1777 H1781 0.950 . S
H1778 C1774 0.950 . S
C1779 C1777 1.390 . S
C1779 C1780 1.387 . S
C1779 H1782 0.950 . S
C1780 C1779 1.387 . S
C1780 C1783 1.387 . S
H1781 C1777 0.950 . S
H1782 C1779 0.950 . S
C1783 C1774 1.390 . S
C1783 H1776 0.950 . S
C1783 C1780 1.387 . S
C1784 C1785 1.387 . S
C1784 H1788 0.950 . S
C1784 C1793 1.390 1_565 S
C1785 C1784 1.387 . S
C1785 C1787 1.387 . S
H1786 C1793 0.950 . S
C1787 C1785 1.387 . S
C1787 C1789 1.390 1_565 S
C1787 H1791 0.950 . S
H1788 C1784 0.950 . S
C1789 C1787 1.390 1_545 S
C1789 C1790 1.387 . S
C1789 H1792 0.950 . S
C1790 C1789 1.387 . S
C1790 C1793 1.387 . S
H1791 C1787 0.950 . S
H1792 C1789 0.950 . S
C1793 C1784 1.390 1_545 S
C1793 H1786 0.950 . S
C1793 C1790 1.387 . S
C1794 C1795 1.387 . S
C1794 H1798 0.950 . S
C1794 C1803 1.390 . S
C1795 C1794 1.387 . S
C1795 C1797 1.387 . S
H1796 C1803 0.950 . S
C1797 C1795 1.387 . S
C1797 C1799 1.390 . S
C1797 H1801 0.950 . S
H1798 C1794 0.950 . S
C1799 C1797 1.390 . S
C1799 C1800 1.387 . S
C1799 H1802 0.950 . S
C1800 C1799 1.387 . S
C1800 C1803 1.387 . S
H1801 C1797 0.950 . S
H1802 C1799 0.950 . S
C1803 C1794 1.390 . S
C1803 H1796 0.950 . S
C1803 C1800 1.387 . S
C1804 C1805 1.387 . S
C1804 H1808 0.950 . S
C1804 C1813 1.390 1_546 S
C1805 C1804 1.387 . S
C1805 C1807 1.387 . S
H1806 C1813 0.950 . S
C1807 C1805 1.387 . S
C1807 C1809 1.390 1_546 S
C1807 H1811 0.950 . S
H1808 C1804 0.950 . S
C1809 C1807 1.390 1_564 S
C1809 C1810 1.387 . S
C1809 H1812 0.950 . S
C1810 C1809 1.387 . S
C1810 C1813 1.387 . S
H1811 C1807 0.950 . S
H1812 C1809 0.950 . S
C1813 C1804 1.390 1_564 S
C1813 H1806 0.950 . S
C1813 C1810 1.387 . S
C1814 C1815 1.387 . S
C1814 H1818 0.950 . S
C1814 C1823 1.390 . S
C1815 C1814 1.387 . S
C1815 C1817 1.387 . S
H1816 C1823 0.950 . S
C1817 C1815 1.387 . S
C1817 C1819 1.390 . S
C1817 H1821 0.950 . S
H1818 C1814 0.950 . S
C1819 C1817 1.390 . S
C1819 C1820 1.387 . S
C1819 H1822 0.950 . S
C1820 C1819 1.387 . S
C1820 C1823 1.387 . S
H1821 C1817 0.950 . S
H1822 C1819 0.950 . S
C1823 C1814 1.390 . S
C1823 H1816 0.950 . S
C1823 C1820 1.387 . S
C1345 C69 1.490 . S
C1350 C58 1.490 . S
C1355 C142 1.473 . S
C1360 C153 1.470 . S
C1365 C237 1.474 . S
C1370 C226 1.474 . S
C1375 C321 1.481 . S
C1380 C310 1.481 . S
C1385 C405 1.480 . S
C1390 C394 1.480 . S
C1395 C489 1.471 . S
C1400 C478 1.471 . S
C1405 C562 1.480 . S
C1410 C573 1.471 1_556 S
C1415 C657 1.501 . S
C1420 C646 1.501 . S
C1425 C741 1.491 . S
C1430 C730 1.491 . S
C1435 C814 1.481 . S
C1440 C825 1.481 . S
C1445 C909 1.468 . S
C1450 C898 1.468 . S
C1455 C982 1.477 . S
C1460 C993 1.477 . S
C1465 C1066 1.471 . S
C1470 C1077 1.471 . S
C1475 C1150 1.483 . S
C1480 C1161 1.483 . S
C1485 C1245 1.481 . S
C1490 C1234 1.481 . S
C1495 C1329 1.497 . S
C1500 C1318 1.497 . S
C1505 C63 1.706 . S
C1510 C991 1.762 . S
C1515 C140 1.762 . S
C1520 C1327 1.764 . S
C1525 C231 1.737 . S
C1530 C830 1.734 . S
C1535 C315 1.733 . S
C1540 C1166 1.738 . S
C1545 C399 1.718 . S
C1550 C1159 1.772 . S
C1555 C998 1.711 . S
C1560 C476 1.768 . S
C1565 C560 1.775 . S
C1570 C1334 1.717 . S
C1575 C651 1.741 . S
C1580 C823 1.793 . S
C1585 C308 1.772 . S
C1590 C739 1.772 . S
C1595 C147 1.710 . S
C1600 C914 1.712 . S
C1605 C1082 1.709 . S
C1610 C483 1.711 . S
C1615 C644 1.764 . S
C1620 C1243 1.765 . S
C1625 C746 1.720 . S
C1630 C392 1.775 . S
C1635 C567 1.714 . S
C1640 C907 1.771 . S
C1645 C224 1.775 . S
C1650 C1250 1.723 . S
C1655 C56 1.763 . S
C1660 C1075 1.761 . S
C1665 C74 1.724 . S
C1670 C410 1.724 . S
C1675 C151 1.680 . S
C1680 C487 1.679 . S
C1685 C242 1.721 . S
C1690 C571 1.683 . S
C1695 C326 1.723 . S
C1700 C662 1.723 . S
C1705 C1071 1.695 . S
C1710 C728 1.657 . S
C1715 C1155 1.749 . S
C1720 C812 1.708 . S
C1725 C903 1.722 . S
C1730 C1232 1.683 . S
C1735 C1316 1.662 . S
C1740 C987 1.702 . S
C1745 C158 1.691 . S
C1750 C655 1.654 . S
C1755 C403 1.673 . S
C1760 C235 1.675 . S
C1765 C494 1.735 . S
C1770 C319 1.695 . S
C1775 C67 1.667 . S
C1780 C578 1.709 . S
C1785 C1323 1.738 . S
C1790 C819 1.738 . S
C1795 C1064 1.677 . S
C1800 C896 1.676 . S
C1805 C1148 1.662 . S
C1810 C980 1.662 . S
C1815 C1239 1.713 . S
C1820 C735 1.712 . S
