# Generated by pormake.
# Topology unm, (4)-cn, num edge types: 1
# Building blocks:
#     Node 0, Type 0, BuildingBlock: ICAMEG_clean_sbu_1, # of connection points: 4
#     Node 1, Type 0, BuildingBlock: ICAMEG_clean_sbu_1, # of connection points: 4
#     Node 2, Type 0, BuildingBlock: ICAMEG_clean_sbu_1, # of connection points: 4
#     Node 3, Type 0, BuildingBlock: ICAMEG_clean_sbu_1, # of connection points: 4
#     Node 4, Type 0, BuildingBlock: ICAMEG_clean_sbu_1, # of connection points: 4
#     Node 5, Type 0, BuildingBlock: ICAMEG_clean_sbu_1, # of connection points: 4
#     Node 6, Type 0, BuildingBlock: ICAMEG_clean_sbu_1, # of connection points: 4
#     Node 7, Type 0, BuildingBlock: ICAMEG_clean_sbu_1, # of connection points: 4
#     Edge 8, Type (0, 0), BuildingBlock: ZUJKAS_clean_linker_0, # of connection points: 2
#     Edge 9, Type (0, 0), BuildingBlock: ZUJKAS_clean_linker_0, # of connection points: 2
#     Edge 10, Type (0, 0), BuildingBlock: ZUJKAS_clean_linker_0, # of connection points: 2
#     Edge 11, Type (0, 0), BuildingBlock: ZUJKAS_clean_linker_0, # of connection points: 2
#     Edge 12, Type (0, 0), BuildingBlock: ZUJKAS_clean_linker_0, # of connection points: 2
#     Edge 13, Type (0, 0), BuildingBlock: ZUJKAS_clean_linker_0, # of connection points: 2
#     Edge 14, Type (0, 0), BuildingBlock: ZUJKAS_clean_linker_0, # of connection points: 2
#     Edge 15, Type (0, 0), BuildingBlock: ZUJKAS_clean_linker_0, # of connection points: 2
#     Edge 16, Type (0, 0), BuildingBlock: ZUJKAS_clean_linker_0, # of connection points: 2
#     Edge 17, Type (0, 0), BuildingBlock: ZUJKAS_clean_linker_0, # of connection points: 2
#     Edge 18, Type (0, 0), BuildingBlock: ZUJKAS_clean_linker_0, # of connection points: 2
#     Edge 19, Type (0, 0), BuildingBlock: ZUJKAS_clean_linker_0, # of connection points: 2
#     Edge 20, Type (0, 0), BuildingBlock: ZUJKAS_clean_linker_0, # of connection points: 2
#     Edge 21, Type (0, 0), BuildingBlock: ZUJKAS_clean_linker_0, # of connection points: 2
#     Edge 22, Type (0, 0), BuildingBlock: ZUJKAS_clean_linker_0, # of connection points: 2
#     Edge 23, Type (0, 0), BuildingBlock: ZUJKAS_clean_linker_0, # of connection points: 2
# Relax obj value: 0.087
# Max RMSD: 0.086
# Mean RMSD: 0.086
data_MOF--net-unm--node1-ICAMEG_clean_sbu_1--edge1-ZUJKAS_clean_linker_0
_symmetry_space_group_name_H-M    P1
_symmetry_Int_Tables_number       1
_symmetry_cell_setting            triclinic
loop_
_symmetry_equiv_pos_as_xyz
'x, y, z'
_cell_length_a     32.531155
_cell_length_b     32.524699
_cell_length_c     64.346647
_cell_angle_alpha  89.987651
_cell_angle_beta   89.999734
_cell_angle_gamma 90.016731
loop_
_atom_site_label
_atom_site_type_symbol
_atom_site_fract_x
_atom_site_fract_y
_atom_site_fract_z
_atom_type_partial_charge
Co0 Co 0.19804 0.27479 0.14819 0.0
Co1 Co 0.23816 0.3461 0.18224 0.0
O2 O 0.24423 0.30354 0.16101 0.0
C3 C 0.24264 0.30786 0.11183 0.0
O4 O 0.2438 0.3433 0.12159 0.0
C5 C 0.29695 0.28687 0.20096 0.0
O6 O 0.27136 0.25725 0.19596 0.0
O7 O 0.20124 0.31033 0.19927 0.0
O8 O 0.16818 0.27264 0.17526 0.0
H9 H 0.16034 0.43575 0.2322 0.0
H10 H 0.28247 0.24263 0.14248 0.0
O11 O 0.22648 0.27664 0.12058 0.0
H12 H 0.20591 0.13127 0.17726 0.0
H13 H 0.13349 0.17109 0.10013 0.0
H14 H 0.10726 0.28117 0.15113 0.0
H15 H 0.17142 0.19632 0.16809 0.0
H16 H 0.19115 0.20725 0.11705 0.0
O17 O 0.28779 0.32412 0.197 0.0
H18 H 0.16795 0.38263 0.20513 0.0
H19 H 0.29739 0.39975 0.20497 0.0
H20 H 0.04871 0.24559 0.13471 0.0
H21 H 0.31813 0.17794 0.15122 0.0
H22 H 0.06166 0.19012 0.109 0.0
H23 H 0.27979 0.12176 0.16879 0.0
O24 O 0.17014 0.3277 0.14164 0.0
H25 H 0.36307 0.37848 0.13927 0.0
H26 H 0.23314 0.43295 0.16754 0.0
H27 H 0.27673 0.47747 0.1457 0.0
H28 H 0.34226 0.4503 0.13143 0.0
H29 H 0.31837 0.33488 0.16101 0.0
H30 H 0.29122 0.45287 0.23215 0.0
H31 H 0.22228 0.47127 0.24589 0.0
O32 O 0.18896 0.36929 0.16783 0.0
C33 C 0.17257 0.28573 0.19382 0.0
C34 C 0.19054 0.42808 0.2263 0.0
C35 C 0.26399 0.43764 0.22629 0.0
N36 N 0.23304 0.38826 0.2034 0.0
C37 C 0.19503 0.39809 0.21094 0.0
C38 C 0.26731 0.40747 0.21094 0.0
C39 C 0.2253 0.44797 0.23399 0.0
C40 C 0.26552 0.21816 0.14996 0.0
N41 N 0.2249 0.22316 0.1547 0.0
C42 C 0.2859 0.18167 0.15494 0.0
C43 C 0.26439 0.15019 0.16483 0.0
C44 C 0.22294 0.15552 0.1696 0.0
C45 C 0.20359 0.19245 0.16442 0.0
C46 C 0.12746 0.19515 0.11134 0.0
C47 C 0.11315 0.25688 0.14005 0.0
C48 C 0.15998 0.21578 0.12094 0.0
N49 N 0.15257 0.24606 0.13518 0.0
C50 C 0.07987 0.23693 0.13077 0.0
C51 C 0.08716 0.20583 0.11633 0.0
C52 C 0.16711 0.36113 0.15189 0.0
C53 C 0.33465 0.39071 0.14545 0.0
C54 C 0.26155 0.42085 0.16134 0.0
C55 C 0.28615 0.44624 0.14902 0.0
C56 C 0.32293 0.43099 0.14103 0.0
N57 N 0.2733 0.3814 0.16564 0.0
C58 C 0.30929 0.36622 0.15784 0.0
Co59 Co 0.2299 0.69987 0.6484 0.0
Co60 Co 0.15805 0.74066 0.68192 0.0
O61 O 0.20076 0.74631 0.66074 0.0
C62 C 0.19698 0.74314 0.61163 0.0
O63 O 0.16145 0.74428 0.6213 0.0
C64 C 0.21665 0.80044 0.70031 0.0
O65 O 0.24644 0.77485 0.69559 0.0
O66 O 0.19394 0.70468 0.69936 0.0
O67 O 0.23184 0.67087 0.67573 0.0
H68 H 0.06865 0.66387 0.73243 0.0
H69 H 0.26172 0.7843 0.64205 0.0
O70 O 0.22822 0.72742 0.62055 0.0
H71 H 0.37292 0.70955 0.6779 0.0
H72 H 0.33455 0.63438 0.60122 0.0
H73 H 0.22397 0.60913 0.65208 0.0
H74 H 0.30819 0.67438 0.66882 0.0
H75 H 0.29786 0.69238 0.61754 0.0
O76 O 0.1795 0.79099 0.69627 0.0
H77 H 0.12194 0.67096 0.70542 0.0
H78 H 0.10369 0.80024 0.70396 0.0
H79 H 0.26006 0.55026 0.63627 0.0
H80 H 0.3261 0.82062 0.65069 0.0
H81 H 0.31579 0.56272 0.61063 0.0
H82 H 0.3822 0.7832 0.6688 0.0
O83 O 0.17727 0.67138 0.64196 0.0
H84 H 0.12505 0.86372 0.63772 0.0
H85 H 0.07143 0.7343 0.66705 0.0
H86 H 0.02677 0.77669 0.64471 0.0
H87 H 0.05352 0.84196 0.6299 0.0
H88 H 0.16881 0.8202 0.65999 0.0
H89 H 0.05038 0.79458 0.73107 0.0
H90 H 0.03246 0.72599 0.74545 0.0
O91 O 0.13544 0.69069 0.66795 0.0
C92 C 0.21858 0.67585 0.69421 0.0
C93 C 0.07611 0.69392 0.72626 0.0
C94 C 0.0659 0.76728 0.72551 0.0
N95 N 0.11575 0.73593 0.70303 0.0
C96 C 0.10619 0.69811 0.71092 0.0
C97 C 0.09618 0.77031 0.7102 0.0
C98 C 0.05584 0.72878 0.73356 0.0
C99 C 0.28616 0.76774 0.64976 0.0
N100 N 0.2813 0.72725 0.65484 0.0
C101 C 0.32247 0.78849 0.65469 0.0
C102 C 0.35391 0.7675 0.66487 0.0
C103 C 0.34871 0.72618 0.67 0.0
C104 C 0.31195 0.70645 0.66486 0.0
C105 C 0.31038 0.62856 0.6124 0.0
C106 C 0.24836 0.61481 0.64103 0.0
C107 C 0.28945 0.66127 0.62166 0.0
N108 N 0.25903 0.65414 0.63587 0.0
C109 C 0.26861 0.58135 0.63209 0.0
C110 C 0.29984 0.58836 0.61769 0.0
C111 C 0.14388 0.66831 0.65223 0.0
C112 C 0.11301 0.83541 0.64413 0.0
C113 C 0.08334 0.7626 0.66063 0.0
C114 C 0.05787 0.78653 0.64802 0.0
C115 C 0.07289 0.82315 0.63972 0.0
N116 N 0.12263 0.77487 0.66491 0.0
C117 C 0.13758 0.81073 0.65682 0.0
Co118 Co 0.80697 0.72796 0.14856 0.0
Co119 Co 0.76608 0.65583 0.18195 0.0
O120 O 0.7605 0.69898 0.16098 0.0
C121 C 0.76307 0.69599 0.11175 0.0
O122 O 0.76184 0.66022 0.12121 0.0
C123 C 0.70726 0.71484 0.20077 0.0
O124 O 0.73302 0.74444 0.19596 0.0
O125 O 0.80288 0.69097 0.19936 0.0
O126 O 0.83638 0.72928 0.17577 0.0
H127 H 0.8428 0.5645 0.23158 0.0
H128 H 0.72272 0.7605 0.14269 0.0
O129 O 0.77899 0.72696 0.12082 0.0
H130 H 0.79889 0.87065 0.17862 0.0
H131 H 0.87257 0.83285 0.10151 0.0
H132 H 0.89769 0.7213 0.15185 0.0
H133 H 0.83341 0.80579 0.16915 0.0
H134 H 0.81454 0.79634 0.11792 0.0
O135 O 0.71632 0.67762 0.19667 0.0
H136 H 0.8358 0.61839 0.20485 0.0
H137 H 0.7063 0.6018 0.20409 0.0
H138 H 0.95659 0.75721 0.13596 0.0
H139 H 0.68705 0.82501 0.15172 0.0
H140 H 0.94421 0.81343 0.11058 0.0
H141 H 0.72519 0.88058 0.16987 0.0
O142 O 0.83487 0.67517 0.14179 0.0
H143 H 0.6417 0.6251 0.13828 0.0
H144 H 0.77099 0.56937 0.16669 0.0
H145 H 0.72755 0.5256 0.14439 0.0
H146 H 0.66235 0.55341 0.13005 0.0
H147 H 0.68625 0.66795 0.16048 0.0
H148 H 0.71186 0.54792 0.23093 0.0
H149 H 0.78052 0.52885 0.2448 0.0
O150 O 0.81541 0.63285 0.16757 0.0
C151 C 0.8317 0.71564 0.1942 0.0
C152 C 0.81272 0.57245 0.22562 0.0
C153 C 0.73923 0.56319 0.22527 0.0
N154 N 0.77072 0.61308 0.20284 0.0
C155 C 0.80858 0.60288 0.21045 0.0
C156 C 0.73626 0.5938 0.21012 0.0
C157 C 0.77776 0.55249 0.23304 0.0
C158 C 0.73959 0.78471 0.15041 0.0
N159 N 0.78012 0.77947 0.15531 0.0
C160 C 0.7192 0.82109 0.15556 0.0
C161 C 0.7406 0.85223 0.16578 0.0
C162 C 0.78195 0.84667 0.1707 0.0
C163 C 0.80131 0.80984 0.16535 0.0
C164 C 0.87836 0.80846 0.11258 0.0
C165 C 0.89204 0.7459 0.14093 0.0
C166 C 0.84563 0.78763 0.12189 0.0
N167 N 0.85273 0.75694 0.13595 0.0
C168 C 0.92552 0.76605 0.13193 0.0
C169 C 0.91855 0.79756 0.11768 0.0
C170 C 0.8376 0.64143 0.1518 0.0
C171 C 0.66998 0.6126 0.14449 0.0
C172 C 0.74272 0.58174 0.16046 0.0
C173 C 0.7182 0.55678 0.14788 0.0
C174 C 0.68161 0.57239 0.13985 0.0
N175 N 0.73106 0.62112 0.16497 0.0
C176 C 0.69525 0.63666 0.15714 0.0
Co177 Co 0.77789 0.30481 0.64578 0.0
Co178 Co 0.84387 0.26545 0.6824 0.0
O179 O 0.80404 0.25854 0.6599 0.0
C180 C 0.81156 0.25733 0.61045 0.0
O181 O 0.84682 0.25644 0.62038 0.0
C182 C 0.78354 0.20546 0.69932 0.0
O183 O 0.75403 0.23018 0.69319 0.0
O184 O 0.80533 0.30184 0.69808 0.0
O185 O 0.77501 0.33683 0.67224 0.0
H186 H 0.92515 0.34528 0.73514 0.0
H187 H 0.74263 0.22139 0.64085 0.0
O188 O 0.78036 0.27433 0.61877 0.0
H189 H 0.63234 0.30456 0.67239 0.0
H190 H 0.67996 0.36974 0.59485 0.0
H191 H 0.78824 0.39541 0.64689 0.0
H192 H 0.69936 0.33581 0.6639 0.0
H193 H 0.7125 0.31202 0.6135 0.0
O194 O 0.82099 0.21554 0.6966 0.0
H195 H 0.87582 0.33646 0.7064 0.0
H196 H 0.89581 0.20741 0.7069 0.0
H197 H 0.75633 0.45403 0.62871 0.0
H198 H 0.67593 0.18896 0.64892 0.0
H199 H 0.70175 0.44137 0.60248 0.0
H200 H 0.62027 0.23063 0.66486 0.0
O201 O 0.83229 0.33009 0.63983 0.0
H202 H 0.88354 0.14076 0.64088 0.0
H203 H 0.93236 0.27172 0.6706 0.0
H204 H 0.98024 0.22862 0.65041 0.0
H205 H 0.95592 0.16257 0.63543 0.0
H206 H 0.83657 0.18499 0.661 0.0
H207 H 0.94517 0.2148 0.73576 0.0
H208 H 0.96023 0.28415 0.75002 0.0
O209 O 0.86818 0.31499 0.66864 0.0
C210 C 0.78407 0.33208 0.69138 0.0
C211 C 0.91895 0.31491 0.72902 0.0
C212 C 0.93013 0.24167 0.72938 0.0
N213 N 0.88315 0.2715 0.70488 0.0
C214 C 0.89111 0.30973 0.71271 0.0
C215 C 0.90209 0.23767 0.71307 0.0
C216 C 0.93858 0.2806 0.73738 0.0
C217 C 0.7184 0.23979 0.6476 0.0
N218 N 0.7248 0.28045 0.65181 0.0
C219 C 0.68077 0.22123 0.65221 0.0
C220 C 0.64958 0.24462 0.66119 0.0
C221 C 0.65634 0.28609 0.66544 0.0
C222 C 0.69439 0.30359 0.66065 0.0
C223 C 0.70362 0.37566 0.60629 0.0
C224 C 0.76432 0.38966 0.6356 0.0
C225 C 0.72219 0.3431 0.61688 0.0
N226 N 0.75195 0.35037 0.63142 0.0
C227 C 0.74645 0.42297 0.62531 0.0
C228 C 0.71586 0.41584 0.61058 0.0
C229 C 0.86336 0.3348 0.65168 0.0
C230 C 0.89453 0.16941 0.64738 0.0
C231 C 0.92149 0.24308 0.66408 0.0
C232 C 0.94878 0.21876 0.6527 0.0
C233 C 0.93512 0.1817 0.64431 0.0
N234 N 0.88175 0.23077 0.66707 0.0
C235 C 0.86812 0.1945 0.65887 0.0
Co236 Co 0.698 0.22792 0.35798 0.0
Co237 Co 0.73791 0.15688 0.32374 0.0
O238 O 0.74408 0.19922 0.34506 0.0
C239 C 0.74272 0.19404 0.39406 0.0
O240 O 0.74338 0.1588 0.38411 0.0
C241 C 0.7968 0.21621 0.30514 0.0
O242 O 0.77135 0.24585 0.31028 0.0
O243 O 0.70104 0.19287 0.30684 0.0
O244 O 0.66809 0.23049 0.33091 0.0
H245 H 0.65982 0.06784 0.27359 0.0
H246 H 0.78256 0.25979 0.3638 0.0
O247 O 0.72658 0.22555 0.38557 0.0
H248 H 0.70636 0.37175 0.32935 0.0
H249 H 0.63398 0.3312 0.40643 0.0
H250 H 0.60718 0.22199 0.35502 0.0
H251 H 0.67166 0.30668 0.33831 0.0
H252 H 0.69146 0.29498 0.38939 0.0
O253 O 0.78754 0.17894 0.309 0.0
H254 H 0.66758 0.12067 0.30079 0.0
H255 H 0.797 0.10337 0.30084 0.0
H256 H 0.54882 0.25764 0.37154 0.0
H257 H 0.81842 0.3245 0.35527 0.0
H258 H 0.56205 0.31268 0.39745 0.0
H259 H 0.78027 0.38098 0.33787 0.0
O260 O 0.66984 0.17505 0.36435 0.0
H261 H 0.8628 0.12394 0.3666 0.0
H262 H 0.73275 0.06989 0.33822 0.0
H263 H 0.77628 0.02512 0.35995 0.0
H264 H 0.84186 0.05208 0.37428 0.0
H265 H 0.81817 0.1678 0.34496 0.0
H266 H 0.79066 0.05054 0.27353 0.0
H267 H 0.72167 0.03236 0.25977 0.0
O268 O 0.68868 0.13362 0.3381 0.0
C269 C 0.67242 0.21748 0.31233 0.0
C270 C 0.69004 0.07541 0.2795 0.0
C271 C 0.76348 0.06574 0.27944 0.0
N272 N 0.73267 0.11494 0.30248 0.0
C273 C 0.69462 0.10524 0.29493 0.0
C274 C 0.76689 0.09576 0.29487 0.0
C275 C 0.72476 0.05555 0.27174 0.0
C276 C 0.76568 0.28439 0.3564 0.0
N277 N 0.72505 0.27955 0.35164 0.0
C278 C 0.78618 0.32089 0.35154 0.0
C279 C 0.76477 0.35254 0.34174 0.0
C280 C 0.72331 0.34737 0.33694 0.0
C281 C 0.70385 0.31042 0.342 0.0
C282 C 0.62782 0.30733 0.39513 0.0
C283 C 0.6132 0.24609 0.36618 0.0
C284 C 0.66024 0.28666 0.38547 0.0
N285 N 0.65267 0.25663 0.37111 0.0
C286 C 0.58002 0.26608 0.37553 0.0
C287 C 0.58747 0.29693 0.39008 0.0
C288 C 0.66675 0.14172 0.35402 0.0
C289 C 0.83436 0.1118 0.3604 0.0
C290 C 0.76119 0.0819 0.34444 0.0
C291 C 0.78575 0.05636 0.3567 0.0
C292 C 0.82256 0.0715 0.36472 0.0
N293 N 0.77301 0.12137 0.34023 0.0
C294 C 0.80904 0.13644 0.34806 0.0
Co295 Co 0.27347 0.20025 0.85779 0.0
Co296 Co 0.34433 0.24092 0.82369 0.0
O297 O 0.30214 0.24669 0.84513 0.0
C298 C 0.30687 0.24409 0.89429 0.0
O299 O 0.34227 0.24526 0.8845 0.0
C300 C 0.28525 0.30068 0.80568 0.0
O301 O 0.25551 0.27531 0.81079 0.0
O302 O 0.30804 0.20474 0.80657 0.0
O303 O 0.27108 0.17087 0.83057 0.0
H304 H 0.43252 0.16382 0.77279 0.0
H305 H 0.24136 0.28458 0.86401 0.0
O306 O 0.27555 0.22818 0.88552 0.0
H307 H 0.12977 0.20877 0.82904 0.0
H308 H 0.17012 0.1348 0.90574 0.0
H309 H 0.27978 0.1095 0.8544 0.0
H310 H 0.19487 0.17406 0.83789 0.0
H311 H 0.20619 0.19278 0.88903 0.0
O312 O 0.3225 0.29109 0.80934 0.0
H313 H 0.37991 0.17108 0.80013 0.0
H314 H 0.39811 0.30038 0.80117 0.0
H315 H 0.2443 0.05064 0.87059 0.0
H316 H 0.17663 0.32043 0.8556 0.0
H317 H 0.18903 0.06312 0.89648 0.0
H318 H 0.12033 0.28248 0.83793 0.0
O319 O 0.3264 0.17218 0.86407 0.0
H320 H 0.37831 0.36444 0.86736 0.0
H321 H 0.43133 0.23484 0.838 0.0
H322 H 0.47652 0.27753 0.85994 0.0
H323 H 0.45008 0.34289 0.87475 0.0
H324 H 0.33403 0.32063 0.84551 0.0
H325 H 0.45072 0.29456 0.77372 0.0
H326 H 0.46833 0.22587 0.7594 0.0
O327 O 0.36735 0.19114 0.83764 0.0
C328 C 0.28374 0.17578 0.81197 0.0
C329 C 0.4252 0.19391 0.77895 0.0
C330 C 0.43537 0.26729 0.77945 0.0
N331 N 0.38611 0.23608 0.80232 0.0
C332 C 0.3955 0.1982 0.79446 0.0
C333 C 0.40548 0.27041 0.79495 0.0
C334 C 0.44525 0.22874 0.77142 0.0
C335 C 0.21684 0.26778 0.8565 0.0
N336 N 0.2218 0.22726 0.85152 0.0
C337 C 0.18033 0.28828 0.8517 0.0
C338 C 0.14878 0.26698 0.84175 0.0
C339 C 0.15407 0.22563 0.83674 0.0
C340 C 0.19103 0.20616 0.84175 0.0
C341 C 0.19409 0.12897 0.89446 0.0
C342 C 0.25559 0.11519 0.86555 0.0
C343 C 0.21467 0.16167 0.88498 0.0
N344 N 0.24483 0.15453 0.87064 0.0
C345 C 0.23568 0.08173 0.87471 0.0
C346 C 0.20471 0.08876 0.88925 0.0
C347 C 0.3595 0.16908 0.85355 0.0
C348 C 0.39022 0.3361 0.86094 0.0
C349 C 0.41955 0.26318 0.84444 0.0
C350 C 0.44532 0.28727 0.85681 0.0
C351 C 0.43047 0.32395 0.86511 0.0
N352 N 0.38013 0.27534 0.84038 0.0
C353 C 0.36535 0.31125 0.84848 0.0
Co354 Co 0.30687 0.77382 0.35773 0.0
Co355 Co 0.26597 0.8443 0.3235 0.0
O356 O 0.26035 0.80202 0.34492 0.0
C357 C 0.26229 0.80683 0.39409 0.0
O358 O 0.26088 0.84221 0.38429 0.0
C359 C 0.20718 0.7845 0.30523 0.0
O360 O 0.23299 0.75508 0.31023 0.0
O361 O 0.3028 0.80844 0.3065 0.0
O362 O 0.33658 0.77167 0.33061 0.0
H363 H 0.34273 0.93348 0.27287 0.0
H364 H 0.22277 0.74091 0.36367 0.0
O365 O 0.27858 0.77566 0.38538 0.0
H366 H 0.3001 0.62993 0.32908 0.0
H367 H 0.37269 0.67125 0.40597 0.0
H368 H 0.39757 0.78103 0.35461 0.0
H369 H 0.33406 0.69541 0.33798 0.0
H370 H 0.31458 0.70666 0.38904 0.0
O371 O 0.21623 0.82186 0.30901 0.0
H372 H 0.33571 0.88079 0.30021 0.0
H373 H 0.2062 0.89731 0.30075 0.0
H374 H 0.45655 0.74619 0.37102 0.0
H375 H 0.18764 0.67578 0.35519 0.0
H376 H 0.44428 0.69088 0.39691 0.0
H377 H 0.22637 0.61979 0.33772 0.0
O378 O 0.33433 0.82705 0.36407 0.0
H379 H 0.14148 0.87679 0.36675 0.0
H380 H 0.27082 0.9314 0.33781 0.0
H381 H 0.22731 0.97609 0.35959 0.0
H382 H 0.16208 0.94884 0.37419 0.0
H383 H 0.1861 0.83303 0.34506 0.0
H384 H 0.21178 0.94999 0.27331 0.0
H385 H 0.28045 0.96848 0.25923 0.0
O386 O 0.31528 0.86796 0.33764 0.0
C387 C 0.33183 0.78433 0.31199 0.0
C388 C 0.31264 0.92577 0.27892 0.0
C389 C 0.23915 0.93499 0.27914 0.0
N390 N 0.27062 0.88615 0.30215 0.0
C391 C 0.30849 0.89603 0.29443 0.0
C392 C 0.23617 0.90507 0.29464 0.0
C393 C 0.27769 0.94536 0.27126 0.0
C394 C 0.23989 0.71652 0.35624 0.0
N395 N 0.28043 0.72187 0.3514 0.0
C396 C 0.21981 0.67979 0.3514 0.0
C397 C 0.24154 0.64841 0.34157 0.0
C398 C 0.2829 0.65409 0.3367 0.0
C399 C 0.30194 0.69127 0.34173 0.0
C400 C 0.37843 0.69525 0.39468 0.0
C401 C 0.39197 0.75681 0.36576 0.0
C402 C 0.34565 0.71546 0.38508 0.0
N403 N 0.35269 0.74566 0.37073 0.0
C404 C 0.4255 0.73727 0.37504 0.0
C405 C 0.41859 0.70627 0.38959 0.0
C406 C 0.3372 0.86026 0.35362 0.0
C407 C 0.16977 0.88905 0.36043 0.0
C408 C 0.24254 0.91927 0.34415 0.0
C409 C 0.21798 0.94476 0.35644 0.0
C410 C 0.18138 0.92946 0.36462 0.0
N411 N 0.2309 0.8797 0.34008 0.0
C412 C 0.19507 0.86447 0.34806 0.0
Co413 Co 0.72867 0.8087 0.85746 0.0
Co414 Co 0.6573 0.76576 0.82448 0.0
O415 O 0.70054 0.76141 0.84541 0.0
C416 C 0.69759 0.76488 0.89442 0.0
O417 O 0.66196 0.76291 0.88489 0.0
C418 C 0.71559 0.70722 0.8045 0.0
O419 O 0.74472 0.73498 0.80617 0.0
O420 O 0.69227 0.80194 0.80661 0.0
O421 O 0.72921 0.83742 0.83004 0.0
H422 H 0.56576 0.83917 0.77368 0.0
H423 H 0.7627 0.72509 0.86355 0.0
O424 O 0.72833 0.78131 0.88537 0.0
H425 H 0.87135 0.80285 0.8273 0.0
H426 H 0.8325 0.87744 0.90392 0.0
H427 H 0.72029 0.8992 0.85358 0.0
H428 H 0.80587 0.83627 0.83668 0.0
H429 H 0.79702 0.81831 0.88794 0.0
O430 O 0.67923 0.7151 0.81065 0.0
H431 H 0.61965 0.83398 0.8005 0.0
H432 H 0.60358 0.70448 0.80324 0.0
H433 H 0.75515 0.95918 0.86905 0.0
H434 H 0.82785 0.6905 0.85459 0.0
H435 H 0.8117 0.94848 0.89442 0.0
H436 H 0.88268 0.72946 0.83631 0.0
O437 O 0.67544 0.83578 0.86417 0.0
H438 H 0.62704 0.64373 0.86994 0.0
H439 H 0.57084 0.77119 0.83968 0.0
H440 H 0.52724 0.72884 0.8626 0.0
H441 H 0.55529 0.66456 0.87787 0.0
H442 H 0.66973 0.68719 0.84711 0.0
H443 H 0.54969 0.70824 0.77634 0.0
H444 H 0.53036 0.77598 0.76142 0.0
O445 O 0.6341 0.81582 0.8381 0.0
C446 C 0.71607 0.83165 0.81158 0.0
C447 C 0.57382 0.80949 0.7801 0.0
C448 C 0.56484 0.736 0.78157 0.0
N449 N 0.61455 0.76901 0.80353 0.0
C450 C 0.60424 0.80636 0.79533 0.0
C451 C 0.59544 0.73405 0.79677 0.0
C452 C 0.554 0.77402 0.77322 0.0
C453 C 0.78656 0.7423 0.85573 0.0
N454 N 0.78061 0.78268 0.85074 0.0
C455 C 0.82332 0.72253 0.85064 0.0
C456 C 0.85405 0.74439 0.84035 0.0
C457 C 0.84771 0.78557 0.83529 0.0
C458 C 0.81054 0.8043 0.8406 0.0
C459 C 0.80797 0.8825 0.89285 0.0
C460 C 0.74504 0.89429 0.86451 0.0
C461 C 0.78772 0.84914 0.88379 0.0
N462 N 0.75684 0.85531 0.86972 0.0
C463 C 0.76459 0.92837 0.87326 0.0
C464 C 0.79629 0.92235 0.88751 0.0
C465 C 0.64205 0.83828 0.85385 0.0
C466 C 0.61443 0.6716 0.86332 0.0
C467 C 0.58332 0.74332 0.84631 0.0
C468 C 0.55845 0.71942 0.85924 0.0
C469 C 0.57419 0.68334 0.86779 0.0
N470 N 0.62274 0.73156 0.84197 0.0
C471 C 0.63839 0.69624 0.85031 0.0
H472 H 0.27633 0.36827 0.08737 0.0
H473 H 0.29425 0.3637 0.05045 0.0
H474 H 0.25791 0.23619 0.04989 0.0
H475 H 0.24059 0.24019 0.08672 0.0
H476 H 0.33059 0.25041 0.02854 0.0
H477 H 0.20816 0.35941 0.00404 0.0
H478 H 0.24384 0.37899 0.02292 0.0
H479 H 0.21004 0.33745 0.02978 0.0
C480 C 0.27242 0.33918 0.07943 0.0
C481 C 0.25668 0.3047 0.08998 0.0
C482 C 0.28246 0.3367 0.0583 0.0
C483 C 0.27672 0.29981 0.04734 0.0
C484 C 0.26241 0.26502 0.05802 0.0
H485 H 0.23912 0.24259 0.91936 0.0
H486 H 0.23519 0.25967 0.95621 0.0
C487 C 0.25246 0.26742 0.07909 0.0
C488 C 0.28453 0.29726 0.02466 0.0
H489 H 0.25034 0.33218 0.97766 0.0
C490 C 0.31334 0.26853 0.01739 0.0
C491 C 0.26157 0.32061 0.01017 0.0
C492 C 0.2289 0.35063 0.01702 0.0
C493 C 0.31937 0.262 0.99603 0.0
C494 C 0.29645 0.28539 0.98154 0.0
C495 C 0.26812 0.3146 0.98881 0.0
C496 C 0.299 0.27767 0.95885 0.0
C497 C 0.34892 0.22892 0.98917 0.0
C498 C 0.33601 0.28303 0.94794 0.0
C499 C 0.33844 0.27314 0.9268 0.0
C500 C 0.30382 0.25792 0.91618 0.0
C501 C 0.26645 0.25405 0.92703 0.0
C502 C 0.2641 0.26386 0.94812 0.0
H503 H 0.35736 0.208 1.00213 0.0
H504 H 0.3355 0.2103 0.97639 0.0
H505 H 0.37751 0.24346 0.98329 0.0
H506 H 0.36312 0.29442 0.95584 0.0
H507 H 0.36761 0.27676 0.91888 0.0
H508 H 0.13662 0.77601 0.58689 0.0
H509 H 0.14147 0.79357 0.54994 0.0
H510 H 0.26919 0.7581 0.54982 0.0
H511 H 0.26489 0.74112 0.58668 0.0
H512 H 0.25464 0.83069 0.52831 0.0
H513 H 0.14699 0.70712 0.50368 0.0
H514 H 0.12692 0.74269 0.52248 0.0
H515 H 0.16868 0.70931 0.52947 0.0
C516 C 0.16581 0.7722 0.57903 0.0
C517 C 0.20027 0.75683 0.58972 0.0
C518 C 0.16845 0.78203 0.55789 0.0
C519 C 0.2055 0.77645 0.54705 0.0
C520 C 0.24025 0.76247 0.55785 0.0
H521 H 0.2642 0.7391 0.41918 0.0
H522 H 0.24687 0.73504 0.45601 0.0
C523 C 0.23769 0.75272 0.57895 0.0
C524 C 0.20825 0.78416 0.52436 0.0
H525 H 0.17406 0.74949 0.47732 0.0
C526 C 0.23679 0.81322 0.51714 0.0
C527 C 0.18525 0.76093 0.50984 0.0
C528 C 0.15546 0.728 0.51666 0.0
C529 C 0.24344 0.81926 0.49578 0.0
C530 C 0.22038 0.79608 0.48127 0.0
C531 C 0.19139 0.76748 0.48849 0.0
C532 C 0.22825 0.79869 0.45858 0.0
C533 C 0.27629 0.84914 0.48897 0.0
C534 C 0.22263 0.83563 0.44765 0.0
C535 C 0.23265 0.83814 0.42652 0.0
C536 C 0.24828 0.80365 0.41596 0.0
C537 C 0.25241 0.76633 0.42682 0.0
C538 C 0.24247 0.76391 0.44789 0.0
H539 H 0.29703 0.8578 0.50197 0.0
H540 H 0.29513 0.83589 0.47623 0.0
H541 H 0.26153 0.87758 0.48306 0.0
H542 H 0.21092 0.86264 0.45551 0.0
H543 H 0.22883 0.86727 0.41859 0.0
H544 H 0.73164 0.63589 0.08636 0.0
H545 H 0.71442 0.64179 0.0494 0.0
H546 H 0.747 0.77029 0.05064 0.0
H547 H 0.7637 0.76493 0.0875 0.0
H548 H 0.67472 0.75457 0.02878 0.0
H549 H 0.80162 0.65156 0.0035 0.0
H550 H 0.76652 0.62982 0.02207 0.0
H551 H 0.79859 0.67235 0.02946 0.0
C552 C 0.73486 0.66548 0.0788 0.0
C553 C 0.74938 0.69985 0.08987 0.0
C554 C 0.72523 0.66872 0.05766 0.0
C555 C 0.73012 0.70631 0.0472 0.0
C556 C 0.7432 0.74094 0.05838 0.0
H557 H 0.76546 0.76923 0.91936 0.0
H558 H 0.77048 0.75181 0.95617 0.0
C559 C 0.75278 0.73777 0.07947 0.0
C560 C 0.72262 0.70975 0.02452 0.0
H561 H 0.75861 0.67818 0.97727 0.0
C562 C 0.6928 0.73765 0.01749 0.0
C563 C 0.74667 0.68799 0.00986 0.0
C564 C 0.78041 0.65898 0.01651 0.0
C565 C 0.68668 0.74479 0.99618 0.0
C566 C 0.71059 0.72289 0.98152 0.0
C567 C 0.74007 0.69462 0.98855 0.0
C568 C 0.70752 0.73104 0.95888 0.0
C569 C 0.65582 0.77688 0.98959 0.0
C570 C 0.67067 0.72427 0.94804 0.0
C571 C 0.66762 0.73434 0.92694 0.0
C572 C 0.70147 0.75114 0.9163 0.0
C573 C 0.73873 0.7565 0.92706 0.0
C574 C 0.74169 0.74652 0.94812 0.0
H575 H 0.64668 0.79711 0.00271 0.0
H576 H 0.6684 0.79634 0.97691 0.0
H577 H 0.62776 0.76139 0.98368 0.0
H578 H 0.64416 0.71158 0.95595 0.0
H579 H 0.63857 0.72952 0.91908 0.0
H580 H 0.74312 0.26142 0.41942 0.0
H581 H 0.76301 0.26477 0.45592 0.0
H582 H 0.79631 0.13647 0.45456 0.0
H583 H 0.77591 0.13261 0.41796 0.0
H584 H 0.74672 0.15596 0.48775 0.0
H585 H 0.8761 0.26604 0.48283 0.0
H586 H 0.83042 0.28507 0.47053 0.0
H587 H 0.85556 0.24014 0.46029 0.0
C588 C 0.75512 0.23396 0.42676 0.0
C589 C 0.75791 0.19672 0.41574 0.0
C590 C 0.76674 0.23602 0.44764 0.0
C591 C 0.78173 0.20103 0.4579 0.0
C592 C 0.78506 0.16391 0.4469 0.0
H593 H 0.87296 0.22579 0.5859 0.0
H594 H 0.86829 0.20618 0.54918 0.0
C595 C 0.77343 0.16179 0.42598 0.0
C596 C 0.79127 0.2028 0.48044 0.0
H597 H 0.84602 0.25667 0.51662 0.0
C598 C 0.76886 0.17756 0.49405 0.0
C599 C 0.82058 0.23055 0.48866 0.0
C600 C 0.84735 0.25669 0.4748 0.0
C601 C 0.77353 0.18076 0.51569 0.0
C602 C 0.80086 0.21042 0.52393 0.0
C603 C 0.82476 0.23422 0.5103 0.0
C604 C 0.80326 0.2191 0.54654 0.0
C605 C 0.74884 0.15259 0.52952 0.0
C606 C 0.76827 0.2328 0.55723 0.0
C607 C 0.77079 0.24395 0.57815 0.0
C608 C 0.8085 0.24197 0.58881 0.0
C609 C 0.84343 0.22757 0.57817 0.0
C610 C 0.84085 0.21643 0.55719 0.0
H611 H 0.74001 0.12392 0.52126 0.0
H612 H 0.76625 0.14426 0.54376 0.0
H613 H 0.72015 0.16845 0.53429 0.0
H614 H 0.73914 0.23599 0.54924 0.0
H615 H 0.74329 0.25504 0.5858 0.0
H616 H 0.35716 0.34114 0.21209 0.0
H617 H 0.42373 0.32617 0.22778 0.0
H618 H 0.3956 0.19663 0.22728 0.0
H619 H 0.3284 0.21133 0.21165 0.0
H620 H 0.4264 0.22419 0.26516 0.0
H621 H 0.5259 0.27657 0.20048 0.0
H622 H 0.48882 0.31436 0.20835 0.0
H623 H 0.47165 0.2666 0.19723 0.0
C624 C 0.36504 0.30938 0.21523 0.0
C625 C 0.33733 0.27741 0.21059 0.0
C626 C 0.40335 0.30088 0.22405 0.0
C627 C 0.415 0.26024 0.22835 0.0
C628 C 0.38736 0.22821 0.22392 0.0
H629 H 0.65903 0.18521 0.2733 0.0
H630 H 0.59778 0.19445 0.25157 0.0
C631 C 0.34895 0.23667 0.21503 0.0
C632 C 0.45521 0.25163 0.23842 0.0
H633 H 0.55875 0.26717 0.23349 0.0
C634 C 0.45535 0.2332 0.25813 0.0
C635 C 0.49305 0.26295 0.22915 0.0
C636 C 0.49503 0.28085 0.20754 0.0
C637 C 0.49212 0.22728 0.26917 0.0
C638 C 0.52972 0.2406 0.26037 0.0
C639 C 0.52984 0.25748 0.24031 0.0
C640 C 0.56884 0.23827 0.27218 0.0
C641 C 0.49042 0.207 0.29025 0.0
C642 C 0.5736 0.26115 0.29048 0.0
C643 C 0.60846 0.25611 0.30287 0.0
C644 C 0.63951 0.22807 0.29721 0.0
C645 C 0.6358 0.20701 0.27818 0.0
C646 C 0.60074 0.21213 0.26575 0.0
H647 H 0.46149 0.18937 0.29244 0.0
H648 H 0.51689 0.1859 0.29248 0.0
H649 H 0.49187 0.231 0.30249 0.0
H650 H 0.5497 0.2821 0.2955 0.0
H651 H 0.61026 0.27318 0.31729 0.0
H652 H 0.16197 0.86047 0.71114 0.0
H653 H 0.17645 0.92722 0.72677 0.0
H654 H 0.30612 0.89986 0.72656 0.0
H655 H 0.29191 0.83249 0.711 0.0
H656 H 0.27835 0.9304 0.76429 0.0
H657 H 0.22542 0.02982 0.69971 0.0
H658 H 0.18778 0.99255 0.70755 0.0
H659 H 0.23559 0.97562 0.69642 0.0
C660 C 0.19365 0.86858 0.71431 0.0
C661 C 0.22581 0.84102 0.7098 0.0
C662 C 0.20188 0.90699 0.72311 0.0
C663 C 0.24241 0.91889 0.72748 0.0
C664 C 0.27462 0.89143 0.72314 0.0
H665 H 0.31594 0.16317 0.77285 0.0
H666 H 0.307 0.10209 0.75094 0.0
C667 C 0.26643 0.85292 0.71428 0.0
C668 C 0.25072 0.95913 0.73758 0.0
H669 H 0.23449 0.06261 0.73277 0.0
C670 C 0.26916 0.95932 0.75729 0.0
C671 C 0.23915 0.99695 0.72835 0.0
C672 C 0.22126 0.9989 0.70675 0.0
C673 C 0.27484 0.99608 0.76837 0.0
C674 C 0.26126 0.03363 0.75961 0.0
C675 C 0.24438 0.03373 0.73955 0.0
C676 C 0.26331 0.0727 0.77147 0.0
C677 C 0.29514 0.99444 0.78944 0.0
C678 C 0.24037 0.07714 0.78977 0.0
C679 C 0.24525 0.11188 0.80226 0.0
C680 C 0.27318 0.14313 0.79671 0.0
C681 C 0.29424 0.13977 0.77766 0.0
C682 C 0.28928 0.10482 0.76513 0.0
H683 H 0.31298 0.96562 0.79159 0.0
H684 H 0.31605 0.02106 0.7917 0.0
H685 H 0.27114 0.99563 0.80169 0.0
H686 H 0.21954 0.05306 0.79473 0.0
H687 H 0.22819 0.11341 0.81669 0.0
H688 H 0.39446 0.72921 0.31697 0.0
H689 H 0.45485 0.72044 0.29507 0.0
H690 H 0.40569 0.80711 0.25093 0.0
H691 H 0.34458 0.81624 0.27281 0.0
H692 H 0.44527 0.73375 0.23317 0.0
H693 H 0.54208 0.8144 0.29132 0.0
H694 H 0.51198 0.77291 0.30175 0.0
H695 H 0.48664 0.81748 0.29134 0.0
C696 C 0.39597 0.74609 0.30249 0.0
C697 C 0.36466 0.77383 0.29681 0.0
C698 C 0.43074 0.74113 0.29003 0.0
C699 C 0.43513 0.76378 0.27163 0.0
C700 C 0.40299 0.78961 0.26519 0.0
H701 H 0.67546 0.79046 0.21099 0.0
H702 H 0.60814 0.80524 0.22645 0.0
C703 C 0.36802 0.79467 0.27769 0.0
C704 C 0.47418 0.76153 0.25976 0.0
H705 H 0.57736 0.77892 0.26433 0.0
C706 C 0.47413 0.74393 0.23986 0.0
C707 C 0.51168 0.77548 0.2684 0.0
C708 C 0.51326 0.79649 0.2893 0.0
C709 C 0.51093 0.73834 0.22873 0.0
C710 C 0.54872 0.75026 0.23787 0.0
C711 C 0.54847 0.76944 0.2574 0.0
C712 C 0.58898 0.74158 0.22788 0.0
C713 C 0.50902 0.71965 0.2073 0.0
C714 C 0.60082 0.70089 0.22384 0.0
C715 C 0.6392 0.69234 0.2151 0.0
C716 C 0.6668 0.72432 0.21031 0.0
C717 C 0.65501 0.7651 0.2145 0.0
C718 C 0.61652 0.77361 0.22329 0.0
H719 H 0.47815 0.72362 0.20019 0.0
H720 H 0.53238 0.73355 0.19686 0.0
H721 H 0.51526 0.68619 0.20843 0.0
H722 H 0.58055 0.67559 0.2277 0.0
H723 H 0.64723 0.66055 0.21216 0.0
H724 H 0.8376 0.14906 0.71486 0.0
H725 H 0.82244 0.08205 0.73 0.0
H726 H 0.69288 0.10209 0.72018 0.0
H727 H 0.70774 0.16983 0.70515 0.0
H728 H 0.71048 0.07318 0.75949 0.0
H729 H 0.78853 0.97659 0.70065 0.0
H730 H 0.82137 0.01584 0.71106 0.0
H731 H 0.77671 0.03014 0.69623 0.0
C732 C 0.80582 0.1393 0.71582 0.0
C733 C 0.77387 0.16491 0.70874 0.0
C734 C 0.79725 0.10072 0.72434 0.0
C735 C 0.7566 0.08661 0.72583 0.0
C736 C 0.72452 0.1122 0.719 0.0
H737 H 0.68415 0.8414 0.77214 0.0
H738 H 0.69222 0.90143 0.74932 0.0
C739 C 0.73306 0.15095 0.71046 0.0
C740 C 0.74776 0.04602 0.73549 0.0
H741 H 0.77272 0.94391 0.73321 0.0
C742 C 0.72362 0.04487 0.75356 0.0
C743 C 0.76457 0.00892 0.72766 0.0
C744 C 0.7889 0.00776 0.70771 0.0
C745 C 0.71749 0.00804 0.76453 0.0
C746 C 0.73616 0.97147 0.75732 0.0
C747 C 0.75875 0.97212 0.73877 0.0
C748 C 0.73451 0.93309 0.76972 0.0
C749 C 0.69175 0.00851 0.78403 0.0
C750 C 0.75675 0.9305 0.7883 0.0
C751 C 0.7525 0.89636 0.80125 0.0
C752 C 0.72571 0.86396 0.79596 0.0
C753 C 0.70505 0.86567 0.77673 0.0
C754 C 0.70949 0.9 0.76369 0.0
H755 H 0.6729 0.0369 0.78525 0.0
H756 H 0.67104 0.98138 0.78452 0.0
H757 H 0.71226 0.00696 0.7978 0.0
H758 H 0.77655 0.95557 0.79309 0.0
H759 H 0.76917 0.89619 0.81583 0.0
H760 H 0.82834 0.29177 0.29449 0.0
H761 H 0.89509 0.30636 0.27835 0.0
H762 H 0.92303 0.1768 0.27771 0.0
H763 H 0.85686 0.16193 0.2939 0.0
H764 H 0.9888 0.22696 0.29186 0.0
H765 H 0.9234 0.28206 0.21698 0.0
H766 H 0.90461 0.30727 0.23995 0.0
H767 H 0.89332 0.25387 0.23576 0.0
C768 C 0.84865 0.26638 0.29087 0.0
C769 C 0.83703 0.22565 0.29534 0.0
C770 C 0.88676 0.27477 0.28162 0.0
C771 C 0.91386 0.24262 0.27665 0.0
C772 C 0.90259 0.20207 0.28139 0.0
H773 H 0.11107 0.22929 0.18903 0.0
H774 H 0.05086 0.21949 0.21093 0.0
C775 C 0.8646 0.19365 0.29058 0.0
C776 C 0.95372 0.25076 0.26616 0.0
H777 H 0.99545 0.28381 0.22041 0.0
C778 C 0.99035 0.23965 0.27629 0.0
C779 C 0.95558 0.26693 0.24577 0.0
C780 C 0.9172 0.27797 0.23384 0.0
C781 C 0.02878 0.24399 0.26649 0.0
C782 C 0.03057 0.2601 0.24611 0.0
C783 C 0.99398 0.27161 0.23609 0.0
C784 C 0.0697 0.26332 0.23432 0.0
C785 C 0.06703 0.23012 0.27772 0.0
C786 C 0.10092 0.29058 0.24045 0.0
C787 C 0.13578 0.29626 0.22794 0.0
C788 C 0.1398 0.27495 0.20899 0.0
C789 C 0.10915 0.24638 0.20344 0.0
C790 C 0.07452 0.24077 0.21592 0.0
H791 H 0.05973 0.21135 0.29167 0.0
H792 H 0.08701 0.21182 0.26722 0.0
H793 H 0.08472 0.25749 0.28282 0.0
H794 H 0.09761 0.30865 0.25449 0.0
H795 H 0.15856 0.31867 0.23266 0.0
H796 H 0.27345 0.61284 0.68973 0.0
H797 H 0.28147 0.55277 0.71195 0.0
H798 H 0.19492 0.60351 0.75566 0.0
H799 H 0.18636 0.66423 0.73342 0.0
H800 H 0.27062 0.56286 0.77315 0.0
H801 H 0.18362 0.46768 0.71656 0.0
H802 H 0.22464 0.49772 0.70558 0.0
H803 H 0.18104 0.52317 0.71687 0.0
C804 C 0.25645 0.61177 0.7042 0.0
C805 C 0.22886 0.64338 0.70963 0.0
C806 C 0.26102 0.57721 0.71684 0.0
C807 C 0.23823 0.57339 0.73521 0.0
C808 C 0.21256 0.60582 0.74143 0.0
H809 H 0.20964 0.33418 0.79691 0.0
H810 H 0.19525 0.40181 0.78166 0.0
C811 C 0.20784 0.64056 0.72872 0.0
C812 C 0.23997 0.53451 0.74722 0.0
H813 H 0.21923 0.43186 0.74327 0.0
C814 C 0.25906 0.53425 0.76676 0.0
C815 C 0.2243 0.49738 0.73895 0.0
C816 C 0.2019 0.49631 0.71842 0.0
C817 C 0.26441 0.49739 0.77787 0.0
C818 C 0.2507 0.45988 0.76908 0.0
C819 C 0.23003 0.46053 0.74994 0.0
C820 C 0.25917 0.41945 0.77895 0.0
C821 C 0.28484 0.49894 0.7989 0.0
C822 C 0.29985 0.40666 0.78218 0.0
C823 C 0.30816 0.36813 0.79081 0.0
C824 C 0.27595 0.3413 0.79627 0.0
C825 C 0.23517 0.35402 0.79287 0.0
C826 C 0.22688 0.39269 0.7842 0.0
H827 H 0.28217 0.52993 0.80603 0.0
H828 H 0.27125 0.47595 0.80966 0.0
H829 H 0.31803 0.49191 0.79711 0.0
H830 H 0.32529 0.4263 0.77778 0.0
H831 H 0.33996 0.35936 0.79311 0.0
H832 H 0.14641 0.83827 0.2943 0.0
H833 H 0.07968 0.82275 0.27894 0.0
H834 H 0.10863 0.6934 0.27954 0.0
H835 H 0.176 0.70866 0.29485 0.0
H836 H 0.07723 0.7206 0.24172 0.0
H837 H 0.97809 0.77261 0.30657 0.0
H838 H 0.01488 0.81062 0.29861 0.0
H839 H 0.03243 0.76298 0.3097 0.0
C840 C 0.13868 0.80644 0.29126 0.0
C841 C 0.16667 0.77469 0.29583 0.0
C842 C 0.10027 0.79762 0.28263 0.0
C843 C 0.08881 0.75687 0.27845 0.0
C844 C 0.11672 0.72506 0.28281 0.0
H845 H 0.84479 0.68171 0.23293 0.0
H846 H 0.90589 0.6902 0.25489 0.0
C847 C 0.15523 0.73384 0.29153 0.0
C848 C 0.04855 0.74797 0.2685 0.0
H849 H 0.94501 0.76337 0.27357 0.0
C850 C 0.04831 0.72952 0.24879 0.0
C851 C 0.01074 0.75918 0.27784 0.0
C852 C 0.00887 0.77708 0.29944 0.0
C853 C 0.01149 0.7236 0.2378 0.0
C854 C 0.97395 0.73689 0.24665 0.0
C855 C 0.9739 0.75368 0.26673 0.0
C856 C 0.93488 0.73494 0.2348 0.0
C857 C 0.01308 0.7035 0.21668 0.0
C858 C 0.93023 0.75857 0.21674 0.0
C859 C 0.89547 0.75399 0.20423 0.0
C860 C 0.86443 0.72564 0.20952 0.0
C861 C 0.86802 0.70378 0.22834 0.0
C862 C 0.90298 0.70846 0.24089 0.0
H863 H 0.04204 0.68596 0.2144 0.0
H864 H 0.98663 0.68235 0.21447 0.0
H865 H 0.01146 0.72759 0.20449 0.0
H866 H 0.95416 0.77975 0.21197 0.0
H867 H 0.89378 0.77165 0.18999 0.0
H868 H 0.74511 0.4039 0.68178 0.0
H869 H 0.73456 0.4634 0.70379 0.0
H870 H 0.78482 0.39735 0.75609 0.0
H871 H 0.79767 0.33772 0.73369 0.0
H872 H 0.69036 0.4782 0.73605 0.0
H873 H 0.85375 0.49871 0.75845 0.0
H874 H 0.83787 0.46243 0.73886 0.0
H875 H 0.83288 0.44988 0.76598 0.0
C876 C 0.75397 0.40168 0.69796 0.0
C877 C 0.77272 0.3659 0.70585 0.0
C878 C 0.74781 0.43595 0.71059 0.0
C879 C 0.7597 0.43542 0.73154 0.0
C880 C 0.77653 0.39908 0.73982 0.0
H881 H 0.67345 0.63612 0.81105 0.0
H882 H 0.68537 0.56901 0.79522 0.0
C883 C 0.78337 0.36476 0.72705 0.0
C884 C 0.75429 0.47325 0.74434 0.0
H885 H 0.80569 0.54385 0.77395 0.0
C886 C 0.71562 0.49247 0.74436 0.0
C887 C 0.78737 0.4924 0.75493 0.0
C888 C 0.83039 0.47507 0.75443 0.0
C889 C 0.70918 0.53036 0.75429 0.0
C890 C 0.74189 0.5489 0.76542 0.0
C891 C 0.7805 0.52953 0.76561 0.0
C892 C 0.73688 0.58891 0.77642 0.0
C893 C 0.66777 0.55081 0.75193 0.0
C894 C 0.76335 0.62207 0.77214 0.0
C895 C 0.75728 0.66036 0.78166 0.0
C896 C 0.7243 0.66628 0.79544 0.0
C897 C 0.69869 0.63274 0.8002 0.0
C898 C 0.70529 0.59436 0.79104 0.0
H899 H 0.65125 0.53954 0.73792 0.0
H900 H 0.64848 0.5435 0.76566 0.0
H901 H 0.67082 0.58473 0.75073 0.0
H902 H 0.78817 0.61862 0.76105 0.0
H903 H 0.7776 0.68559 0.77776 0.0
H904 H 0.88996 0.64462 0.11825 0.0
H905 H 0.94464 0.59586 0.10945 0.0
H906 H 0.91255 0.52217 0.16278 0.0
H907 H 0.85744 0.56954 0.17129 0.0
H908 H 0.01089 0.57736 0.13126 0.0
H909 H 0.923 0.43439 0.11973 0.0
H910 H 0.89844 0.48412 0.12072 0.0
H911 H 0.9101 0.45663 0.14435 0.0
C912 C 0.89411 0.61765 0.1279 0.0
C913 C 0.86913 0.61101 0.14545 0.0
C914 C 0.9254 0.58983 0.12285 0.0
C915 C 0.9322 0.55487 0.1352 0.0
C916 C 0.90713 0.54814 0.15261 0.0
H917 H 0.14647 0.43223 0.17188 0.0
H918 H 0.09156 0.47982 0.16336 0.0
C919 C 0.87576 0.57562 0.15758 0.0
C920 C 0.96757 0.52718 0.1312 0.0
H921 H 0.99428 0.42576 0.13051 0.0
C922 C 0.00721 0.54423 0.13064 0.0
C923 C 0.96291 0.48399 0.12986 0.0
C924 C 0.92123 0.46382 0.12845 0.0
C925 C 0.04229 0.51916 0.13036 0.0
C926 C 0.03759 0.47592 0.13128 0.0
C927 C 0.99799 0.4589 0.13022 0.0
C928 C 0.07284 0.44809 0.13533 0.0
C929 C 0.08401 0.53937 0.12949 0.0
C930 C 0.08007 0.41358 0.12273 0.0
C931 C 0.11123 0.38562 0.12779 0.0
C932 C 0.13566 0.39168 0.14559 0.0
C933 C 0.12859 0.42661 0.15798 0.0
C934 C 0.09734 0.45422 0.15301 0.0
H935 H 0.08253 0.56911 0.12102 0.0
H936 H 0.09459 0.54601 0.14554 0.0
H937 H 0.10706 0.51935 0.12178 0.0
H938 H 0.06126 0.40801 0.10913 0.0
H939 H 0.11574 0.35902 0.11793 0.0
H940 H 0.9293 0.35911 0.67488 0.0
H941 H 0.97699 0.41487 0.66773 0.0
H942 H 0.91719 0.43743 0.60899 0.0
H943 H 0.86806 0.3822 0.61632 0.0
H944 H 0.03214 0.42866 0.63729 0.0
H945 H 0.91099 0.54931 0.63612 0.0
H946 H 0.9009 0.49748 0.64464 0.0
H947 H 0.90472 0.50891 0.61738 0.0
C948 C 0.92618 0.37571 0.66037 0.0
C949 C 0.89444 0.36638 0.64628 0.0
C950 C 0.95365 0.40759 0.65628 0.0
C951 C 0.95027 0.43079 0.63799 0.0
C952 C 0.91978 0.42054 0.62343 0.0
H953 H 0.14731 0.61457 0.61924 0.0
H954 H 0.10002 0.5579 0.61166 0.0
C955 C 0.89189 0.38878 0.6276 0.0
C956 C 0.97805 0.46643 0.63484 0.0
H957 H 0.97924 0.57125 0.63202 0.0
C958 C 0.02066 0.45985 0.63588 0.0
C959 C 0.96288 0.50708 0.63318 0.0
C960 C 0.91741 0.51636 0.63293 0.0
C961 C 0.04848 0.49284 0.63624 0.0
C962 C 0.03327 0.53352 0.63488 0.0
C963 C 0.99078 0.54001 0.63291 0.0
C964 C 0.06027 0.56977 0.63797 0.0
C965 C 0.09361 0.48386 0.63931 0.0
C966 C 0.05265 0.59628 0.65471 0.0
C967 C 0.07912 0.62894 0.6589 0.0
C968 C 0.11405 0.63579 0.64646 0.0
C969 C 0.12091 0.61001 0.62923 0.0
C970 C 0.09407 0.57742 0.62495 0.0
H971 H 0.09902 0.4517 0.64446 0.0
H972 H 0.11008 0.48847 0.6244 0.0
H973 H 0.10718 0.50497 0.65101 0.0
H974 H 0.02671 0.59103 0.66494 0.0
H975 H 0.07264 0.64815 0.67224 0.0
H976 H 0.61375 0.14469 0.38731 0.0
H977 H 0.5588 0.09594 0.39574 0.0
H978 H 0.59185 0.02259 0.34246 0.0
H979 H 0.64718 0.06999 0.3343 0.0
H980 H 0.49287 0.07745 0.37333 0.0
H981 H 0.58085 0.93473 0.38561 0.0
H982 H 0.60525 0.98457 0.3848 0.0
H983 H 0.59423 0.95712 0.36109 0.0
C984 C 0.60975 0.1178 0.37759 0.0
C985 C 0.63506 0.11127 0.36016 0.0
C986 C 0.5783 0.08999 0.38243 0.0
C987 C 0.5717 0.05514 0.36999 0.0
C988 C 0.5971 0.0485 0.35269 0.0
H989 H 0.35787 0.9308 0.33309 0.0
H990 H 0.41265 0.97878 0.34136 0.0
C991 C 0.62859 0.07599 0.34793 0.0
C992 C 0.53628 0.02739 0.3738 0.0
H993 H 0.50976 0.92591 0.37474 0.0
C994 C 0.4966 0.04434 0.37409 0.0
C995 C 0.54101 0.98423 0.37528 0.0
C996 C 0.58271 0.9642 0.37693 0.0
C997 C 0.46156 0.01918 0.37428 0.0
C998 C 0.46636 0.97594 0.3736 0.0
C999 C 0.50599 0.95905 0.37488 0.0
C1000 C 0.43121 0.94791 0.36966 0.0
C1001 C 0.41978 0.03929 0.37486 0.0
C1002 C 0.42394 0.91376 0.38251 0.0
C1003 C 0.39286 0.88559 0.37761 0.0
C1004 C 0.36855 0.89107 0.35973 0.0
C1005 C 0.37566 0.92564 0.34708 0.0
C1006 C 0.40684 0.95347 0.35189 0.0
H1007 H 0.42106 0.06927 0.38311 0.0
H1008 H 0.4094 0.04542 0.35872 0.0
H1009 H 0.39668 0.01941 0.38263 0.0
H1010 H 0.44264 0.90864 0.3962 0.0
H1011 H 0.38832 0.85928 0.38768 0.0
H1012 H 0.42861 0.14694 0.83229 0.0
H1013 H 0.47556 0.09092 0.83994 0.0
H1014 H 0.40778 0.06303 0.89581 0.0
H1015 H 0.35932 0.11852 0.88787 0.0
H1016 H 0.5264 0.07527 0.87173 0.0
H1017 H 0.40688 0.95331 0.8666 0.0
H1018 H 0.39717 0.00566 0.85883 0.0
H1019 H 0.39784 0.99211 0.88591 0.0
C1020 C 0.42353 0.12909 0.84626 0.0
C1021 C 0.3898 0.13704 0.85935 0.0
C1022 C 0.4506 0.09706 0.85065 0.0
C1023 C 0.44486 0.07233 0.86826 0.0
C1024 C 0.41225 0.08112 0.88187 0.0
H1025 H 0.64243 0.88938 0.88795 0.0
H1026 H 0.59379 0.94474 0.89581 0.0
C1027 C 0.38474 0.11302 0.87737 0.0
C1028 C 0.47259 0.03676 0.87168 0.0
H1029 H 0.47478 0.93182 0.87225 0.0
C1030 C 0.51516 0.04387 0.8721 0.0
C1031 C 0.45777 0.99584 0.87201 0.0
C1032 C 0.41248 0.98605 0.87065 0.0
C1033 C 0.5434 0.01126 0.8718 0.0
C1034 C 0.52858 0.97033 0.87177 0.0
C1035 C 0.48602 0.96323 0.87239 0.0
C1036 C 0.5563 0.9347 0.86848 0.0
C1037 C 0.58867 0.02104 0.8702 0.0
C1038 C 0.55035 0.90955 0.85103 0.0
C1039 C 0.57752 0.87758 0.8467 0.0
C1040 C 0.61156 0.87012 0.85965 0.0
C1041 C 0.61678 0.89452 0.87753 0.0
C1042 C 0.58917 0.92634 0.88199 0.0
H1043 H 0.59418 0.05367 0.86591 0.0
H1044 H 0.60354 0.01539 0.88545 0.0
H1045 H 0.60381 1.00113 0.85845 0.0
H1046 H 0.52518 0.91535 0.8404 0.0
H1047 H 0.57231 0.85942 0.83284 0.0
loop_
_geom_bond_atom_site_label_1
_geom_bond_atom_site_label_2
_geom_bond_distance
_geom_bond_site_symmetry_2
_ccdc_geom_bond_type
Co0 O2 2.143 . S
Co0 O8 2.074 . S
Co0 O11 2.093 . S
Co0 O24 2.097 . S
Co0 N41 2.151 . S
Co0 N49 2.214 . S
Co1 O2 2.160 . S
Co1 O7 2.058 . S
Co1 O17 2.057 . S
Co1 O32 2.037 . S
Co1 N36 2.145 . S
Co1 N57 2.257 . S
O2 Co0 2.143 . S
O2 Co1 2.160 . S
C3 O4 1.278 . S
C3 O11 1.224 . S
O4 C3 1.278 . S
C5 O6 1.245 . S
C5 O17 1.232 . S
O6 C5 1.245 . S
O7 Co1 2.058 . S
O7 C33 1.269 . S
O8 Co0 2.074 . S
O8 C33 1.257 . S
H9 C34 0.930 . S
H10 C40 0.930 . S
O11 Co0 2.093 . S
O11 C3 1.224 . S
H12 C44 0.929 . S
H13 C46 0.930 . S
H14 C47 0.930 . S
H15 C45 0.929 . S
H16 C48 0.928 . S
O17 Co1 2.057 . S
O17 C5 1.232 . S
H18 C37 0.929 . S
H19 C38 0.929 . S
H20 C50 0.931 . S
H21 C42 0.929 . S
H22 C51 0.930 . S
H23 C43 0.931 . S
O24 Co0 2.097 . S
O24 C52 1.214 . S
H25 C53 0.929 . S
H26 C54 0.929 . S
H27 C55 0.930 . S
H28 C56 0.929 . S
H29 C58 0.930 . S
H30 C35 0.930 . S
H31 C39 0.930 . S
O32 Co1 2.037 . S
O32 C52 1.234 . S
C33 O7 1.269 . S
C33 O8 1.257 . S
C34 H9 0.930 . S
C34 C37 1.388 . S
C34 C39 1.418 . S
C35 H30 0.930 . S
C35 C38 1.404 . S
C35 C39 1.353 . S
N36 Co1 2.145 . S
N36 C37 1.397 . S
N36 C38 1.334 . S
C37 H18 0.929 . S
C37 C34 1.388 . S
C37 N36 1.397 . S
C38 H19 0.929 . S
C38 C35 1.404 . S
C38 N36 1.334 . S
C39 H31 0.930 . S
C39 C34 1.418 . S
C39 C35 1.353 . S
C40 H10 0.930 . S
C40 N41 1.330 . S
C40 C42 1.446 . S
N41 Co0 2.151 . S
N41 C40 1.330 . S
N41 C45 1.418 . S
C42 H21 0.929 . S
C42 C40 1.446 . S
C42 C43 1.332 . S
C43 H23 0.931 . S
C43 C42 1.332 . S
C43 C44 1.267 . S
C44 H12 0.929 . S
C44 C43 1.267 . S
C44 C45 1.251 . S
C45 H15 0.929 . S
C45 N41 1.418 . S
C45 C44 1.251 . S
C46 H13 0.930 . S
C46 C48 1.406 . S
C46 C51 1.261 . S
C47 H14 0.930 . S
C47 N49 1.325 . S
C47 C50 1.357 . S
C48 H16 0.928 . S
C48 C46 1.406 . S
C48 N49 1.261 . S
N49 Co0 2.214 . S
N49 C47 1.325 . S
N49 C48 1.261 . S
C50 H20 0.931 . S
C50 C47 1.357 . S
C50 C51 1.312 . S
C51 H22 0.930 . S
C51 C46 1.261 . S
C51 C50 1.312 . S
C52 O24 1.214 . S
C52 O32 1.234 . S
C53 H25 0.929 . S
C53 C56 1.391 . S
C53 C58 1.391 . S
C54 H26 0.929 . S
C54 C55 1.390 . S
C54 N57 1.391 . S
C55 H27 0.930 . S
C55 C54 1.390 . S
C55 C56 1.392 . S
C56 H28 0.929 . S
C56 C53 1.391 . S
C56 C55 1.392 . S
N57 Co1 2.257 . S
N57 C54 1.391 . S
N57 C58 1.388 . S
C58 H29 0.930 . S
C58 C53 1.391 . S
C58 N57 1.388 . S
Co59 O61 2.143 . S
Co59 O67 2.074 . S
Co59 O70 2.093 . S
Co59 O83 2.097 . S
Co59 N100 2.151 . S
Co59 N108 2.214 . S
Co60 O61 2.160 . S
Co60 O66 2.058 . S
Co60 O76 2.057 . S
Co60 O91 2.037 . S
Co60 N95 2.145 . S
Co60 N116 2.257 . S
O61 Co59 2.143 . S
O61 Co60 2.160 . S
C62 O63 1.278 . S
C62 O70 1.224 . S
O63 C62 1.278 . S
C64 O65 1.245 . S
C64 O76 1.232 . S
O65 C64 1.245 . S
O66 Co60 2.058 . S
O66 C92 1.269 . S
O67 Co59 2.074 . S
O67 C92 1.257 . S
H68 C93 0.930 . S
H69 C99 0.930 . S
O70 Co59 2.093 . S
O70 C62 1.224 . S
H71 C103 0.929 . S
H72 C105 0.930 . S
H73 C106 0.930 . S
H74 C104 0.929 . S
H75 C107 0.928 . S
O76 Co60 2.057 . S
O76 C64 1.232 . S
H77 C96 0.929 . S
H78 C97 0.929 . S
H79 C109 0.931 . S
H80 C101 0.929 . S
H81 C110 0.930 . S
H82 C102 0.931 . S
O83 Co59 2.097 . S
O83 C111 1.214 . S
H84 C112 0.929 . S
H85 C113 0.929 . S
H86 C114 0.930 . S
H87 C115 0.929 . S
H88 C117 0.930 . S
H89 C94 0.930 . S
H90 C98 0.930 . S
O91 Co60 2.037 . S
O91 C111 1.234 . S
C92 O66 1.269 . S
C92 O67 1.257 . S
C93 H68 0.930 . S
C93 C96 1.388 . S
C93 C98 1.418 . S
C94 H89 0.930 . S
C94 C97 1.404 . S
C94 C98 1.353 . S
N95 Co60 2.145 . S
N95 C96 1.397 . S
N95 C97 1.334 . S
C96 H77 0.929 . S
C96 C93 1.388 . S
C96 N95 1.397 . S
C97 H78 0.929 . S
C97 C94 1.404 . S
C97 N95 1.334 . S
C98 H90 0.930 . S
C98 C93 1.418 . S
C98 C94 1.353 . S
C99 H69 0.930 . S
C99 N100 1.330 . S
C99 C101 1.446 . S
N100 Co59 2.151 . S
N100 C99 1.330 . S
N100 C104 1.418 . S
C101 H80 0.929 . S
C101 C99 1.446 . S
C101 C102 1.332 . S
C102 H82 0.931 . S
C102 C101 1.332 . S
C102 C103 1.267 . S
C103 H71 0.929 . S
C103 C102 1.267 . S
C103 C104 1.251 . S
C104 H74 0.929 . S
C104 N100 1.418 . S
C104 C103 1.251 . S
C105 H72 0.930 . S
C105 C107 1.406 . S
C105 C110 1.261 . S
C106 H73 0.930 . S
C106 N108 1.325 . S
C106 C109 1.357 . S
C107 H75 0.928 . S
C107 C105 1.406 . S
C107 N108 1.261 . S
N108 Co59 2.214 . S
N108 C106 1.325 . S
N108 C107 1.261 . S
C109 H79 0.931 . S
C109 C106 1.357 . S
C109 C110 1.312 . S
C110 H81 0.930 . S
C110 C105 1.261 . S
C110 C109 1.312 . S
C111 O83 1.214 . S
C111 O91 1.234 . S
C112 H84 0.929 . S
C112 C115 1.391 . S
C112 C117 1.391 . S
C113 H85 0.929 . S
C113 C114 1.390 . S
C113 N116 1.391 . S
C114 H86 0.930 . S
C114 C113 1.390 . S
C114 C115 1.392 . S
C115 H87 0.929 . S
C115 C112 1.391 . S
C115 C114 1.392 . S
N116 Co60 2.257 . S
N116 C113 1.391 . S
N116 C117 1.388 . S
C117 H88 0.930 . S
C117 C112 1.391 . S
C117 N116 1.388 . S
Co118 O120 2.143 . S
Co118 O126 2.074 . S
Co118 O129 2.093 . S
Co118 O142 2.097 . S
Co118 N159 2.151 . S
Co118 N167 2.214 . S
Co119 O120 2.160 . S
Co119 O125 2.058 . S
Co119 O135 2.057 . S
Co119 O150 2.037 . S
Co119 N154 2.145 . S
Co119 N175 2.257 . S
O120 Co118 2.143 . S
O120 Co119 2.160 . S
C121 O122 1.278 . S
C121 O129 1.224 . S
O122 C121 1.278 . S
C123 O124 1.245 . S
C123 O135 1.232 . S
O124 C123 1.245 . S
O125 Co119 2.058 . S
O125 C151 1.269 . S
O126 Co118 2.074 . S
O126 C151 1.257 . S
H127 C152 0.930 . S
H128 C158 0.930 . S
O129 Co118 2.093 . S
O129 C121 1.224 . S
H130 C162 0.929 . S
H131 C164 0.930 . S
H132 C165 0.930 . S
H133 C163 0.929 . S
H134 C166 0.928 . S
O135 Co119 2.057 . S
O135 C123 1.232 . S
H136 C155 0.929 . S
H137 C156 0.929 . S
H138 C168 0.931 . S
H139 C160 0.929 . S
H140 C169 0.930 . S
H141 C161 0.931 . S
O142 Co118 2.097 . S
O142 C170 1.214 . S
H143 C171 0.929 . S
H144 C172 0.929 . S
H145 C173 0.930 . S
H146 C174 0.929 . S
H147 C176 0.930 . S
H148 C153 0.930 . S
H149 C157 0.930 . S
O150 Co119 2.037 . S
O150 C170 1.234 . S
C151 O125 1.269 . S
C151 O126 1.257 . S
C152 H127 0.930 . S
C152 C155 1.388 . S
C152 C157 1.418 . S
C153 H148 0.930 . S
C153 C156 1.404 . S
C153 C157 1.353 . S
N154 Co119 2.145 . S
N154 C155 1.397 . S
N154 C156 1.334 . S
C155 H136 0.929 . S
C155 C152 1.388 . S
C155 N154 1.397 . S
C156 H137 0.929 . S
C156 C153 1.404 . S
C156 N154 1.334 . S
C157 H149 0.930 . S
C157 C152 1.418 . S
C157 C153 1.353 . S
C158 H128 0.930 . S
C158 N159 1.330 . S
C158 C160 1.446 . S
N159 Co118 2.151 . S
N159 C158 1.330 . S
N159 C163 1.418 . S
C160 H139 0.929 . S
C160 C158 1.446 . S
C160 C161 1.332 . S
C161 H141 0.931 . S
C161 C160 1.332 . S
C161 C162 1.267 . S
C162 H130 0.929 . S
C162 C161 1.267 . S
C162 C163 1.251 . S
C163 H133 0.929 . S
C163 N159 1.418 . S
C163 C162 1.251 . S
C164 H131 0.930 . S
C164 C166 1.406 . S
C164 C169 1.261 . S
C165 H132 0.930 . S
C165 N167 1.325 . S
C165 C168 1.357 . S
C166 H134 0.928 . S
C166 C164 1.406 . S
C166 N167 1.261 . S
N167 Co118 2.214 . S
N167 C165 1.325 . S
N167 C166 1.261 . S
C168 H138 0.931 . S
C168 C165 1.357 . S
C168 C169 1.312 . S
C169 H140 0.930 . S
C169 C164 1.261 . S
C169 C168 1.312 . S
C170 O142 1.214 . S
C170 O150 1.234 . S
C171 H143 0.929 . S
C171 C174 1.391 . S
C171 C176 1.391 . S
C172 H144 0.929 . S
C172 C173 1.390 . S
C172 N175 1.391 . S
C173 H145 0.930 . S
C173 C172 1.390 . S
C173 C174 1.392 . S
C174 H146 0.929 . S
C174 C171 1.391 . S
C174 C173 1.392 . S
N175 Co119 2.257 . S
N175 C172 1.391 . S
N175 C176 1.388 . S
C176 H147 0.930 . S
C176 C171 1.391 . S
C176 N175 1.388 . S
Co177 O179 2.143 . S
Co177 O185 2.074 . S
Co177 O188 2.093 . S
Co177 O201 2.097 . S
Co177 N218 2.151 . S
Co177 N226 2.214 . S
Co178 O179 2.160 . S
Co178 O184 2.058 . S
Co178 O194 2.057 . S
Co178 O209 2.037 . S
Co178 N213 2.145 . S
Co178 N234 2.257 . S
O179 Co177 2.143 . S
O179 Co178 2.160 . S
C180 O181 1.278 . S
C180 O188 1.224 . S
O181 C180 1.278 . S
C182 O183 1.245 . S
C182 O194 1.232 . S
O183 C182 1.245 . S
O184 Co178 2.058 . S
O184 C210 1.269 . S
O185 Co177 2.074 . S
O185 C210 1.257 . S
H186 C211 0.930 . S
H187 C217 0.930 . S
O188 Co177 2.093 . S
O188 C180 1.224 . S
H189 C221 0.929 . S
H190 C223 0.930 . S
H191 C224 0.930 . S
H192 C222 0.929 . S
H193 C225 0.928 . S
O194 Co178 2.057 . S
O194 C182 1.232 . S
H195 C214 0.929 . S
H196 C215 0.929 . S
H197 C227 0.931 . S
H198 C219 0.929 . S
H199 C228 0.930 . S
H200 C220 0.931 . S
O201 Co177 2.097 . S
O201 C229 1.214 . S
H202 C230 0.929 . S
H203 C231 0.929 . S
H204 C232 0.930 . S
H205 C233 0.929 . S
H206 C235 0.930 . S
H207 C212 0.930 . S
H208 C216 0.930 . S
O209 Co178 2.037 . S
O209 C229 1.234 . S
C210 O184 1.269 . S
C210 O185 1.257 . S
C211 H186 0.930 . S
C211 C214 1.388 . S
C211 C216 1.418 . S
C212 H207 0.930 . S
C212 C215 1.404 . S
C212 C216 1.353 . S
N213 Co178 2.145 . S
N213 C214 1.397 . S
N213 C215 1.334 . S
C214 H195 0.929 . S
C214 C211 1.388 . S
C214 N213 1.397 . S
C215 H196 0.929 . S
C215 C212 1.404 . S
C215 N213 1.334 . S
C216 H208 0.930 . S
C216 C211 1.418 . S
C216 C212 1.353 . S
C217 H187 0.930 . S
C217 N218 1.330 . S
C217 C219 1.446 . S
N218 Co177 2.151 . S
N218 C217 1.330 . S
N218 C222 1.418 . S
C219 H198 0.929 . S
C219 C217 1.446 . S
C219 C220 1.332 . S
C220 H200 0.931 . S
C220 C219 1.332 . S
C220 C221 1.267 . S
C221 H189 0.929 . S
C221 C220 1.267 . S
C221 C222 1.251 . S
C222 H192 0.929 . S
C222 N218 1.418 . S
C222 C221 1.251 . S
C223 H190 0.930 . S
C223 C225 1.406 . S
C223 C228 1.261 . S
C224 H191 0.930 . S
C224 N226 1.325 . S
C224 C227 1.357 . S
C225 H193 0.928 . S
C225 C223 1.406 . S
C225 N226 1.261 . S
N226 Co177 2.214 . S
N226 C224 1.325 . S
N226 C225 1.261 . S
C227 H197 0.931 . S
C227 C224 1.357 . S
C227 C228 1.312 . S
C228 H199 0.930 . S
C228 C223 1.261 . S
C228 C227 1.312 . S
C229 O201 1.214 . S
C229 O209 1.234 . S
C230 H202 0.929 . S
C230 C233 1.391 . S
C230 C235 1.391 . S
C231 H203 0.929 . S
C231 C232 1.390 . S
C231 N234 1.391 . S
C232 H204 0.930 . S
C232 C231 1.390 . S
C232 C233 1.392 . S
C233 H205 0.929 . S
C233 C230 1.391 . S
C233 C232 1.392 . S
N234 Co178 2.257 . S
N234 C231 1.391 . S
N234 C235 1.388 . S
C235 H206 0.930 . S
C235 C230 1.391 . S
C235 N234 1.388 . S
Co236 O238 2.143 . S
Co236 O244 2.074 . S
Co236 O247 2.093 . S
Co236 O260 2.097 . S
Co236 N277 2.151 . S
Co236 N285 2.214 . S
Co237 O238 2.160 . S
Co237 O243 2.058 . S
Co237 O253 2.057 . S
Co237 O268 2.037 . S
Co237 N272 2.145 . S
Co237 N293 2.257 . S
O238 Co236 2.143 . S
O238 Co237 2.160 . S
C239 O240 1.278 . S
C239 O247 1.224 . S
O240 C239 1.278 . S
C241 O242 1.245 . S
C241 O253 1.232 . S
O242 C241 1.245 . S
O243 Co237 2.058 . S
O243 C269 1.269 . S
O244 Co236 2.074 . S
O244 C269 1.257 . S
H245 C270 0.930 . S
H246 C276 0.930 . S
O247 Co236 2.093 . S
O247 C239 1.224 . S
H248 C280 0.929 . S
H249 C282 0.930 . S
H250 C283 0.930 . S
H251 C281 0.929 . S
H252 C284 0.928 . S
O253 Co237 2.057 . S
O253 C241 1.232 . S
H254 C273 0.929 . S
H255 C274 0.929 . S
H256 C286 0.931 . S
H257 C278 0.929 . S
H258 C287 0.930 . S
H259 C279 0.931 . S
O260 Co236 2.097 . S
O260 C288 1.214 . S
H261 C289 0.929 . S
H262 C290 0.929 . S
H263 C291 0.930 . S
H264 C292 0.929 . S
H265 C294 0.930 . S
H266 C271 0.930 . S
H267 C275 0.930 . S
O268 Co237 2.037 . S
O268 C288 1.234 . S
C269 O243 1.269 . S
C269 O244 1.257 . S
C270 H245 0.930 . S
C270 C273 1.388 . S
C270 C275 1.418 . S
C271 H266 0.930 . S
C271 C274 1.404 . S
C271 C275 1.353 . S
N272 Co237 2.145 . S
N272 C273 1.397 . S
N272 C274 1.334 . S
C273 H254 0.929 . S
C273 C270 1.388 . S
C273 N272 1.397 . S
C274 H255 0.929 . S
C274 C271 1.404 . S
C274 N272 1.334 . S
C275 H267 0.930 . S
C275 C270 1.418 . S
C275 C271 1.353 . S
C276 H246 0.930 . S
C276 N277 1.330 . S
C276 C278 1.446 . S
N277 Co236 2.151 . S
N277 C276 1.330 . S
N277 C281 1.418 . S
C278 H257 0.929 . S
C278 C276 1.446 . S
C278 C279 1.332 . S
C279 H259 0.931 . S
C279 C278 1.332 . S
C279 C280 1.267 . S
C280 H248 0.929 . S
C280 C279 1.267 . S
C280 C281 1.251 . S
C281 H251 0.929 . S
C281 N277 1.418 . S
C281 C280 1.251 . S
C282 H249 0.930 . S
C282 C284 1.406 . S
C282 C287 1.261 . S
C283 H250 0.930 . S
C283 N285 1.325 . S
C283 C286 1.357 . S
C284 H252 0.928 . S
C284 C282 1.406 . S
C284 N285 1.261 . S
N285 Co236 2.214 . S
N285 C283 1.325 . S
N285 C284 1.261 . S
C286 H256 0.931 . S
C286 C283 1.357 . S
C286 C287 1.312 . S
C287 H258 0.930 . S
C287 C282 1.261 . S
C287 C286 1.312 . S
C288 O260 1.214 . S
C288 O268 1.234 . S
C289 H261 0.929 . S
C289 C292 1.391 . S
C289 C294 1.391 . S
C290 H262 0.929 . S
C290 C291 1.390 . S
C290 N293 1.391 . S
C291 H263 0.930 . S
C291 C290 1.390 . S
C291 C292 1.392 . S
C292 H264 0.929 . S
C292 C289 1.391 . S
C292 C291 1.392 . S
N293 Co237 2.257 . S
N293 C290 1.391 . S
N293 C294 1.388 . S
C294 H265 0.930 . S
C294 C289 1.391 . S
C294 N293 1.388 . S
Co295 O297 2.143 . S
Co295 O303 2.074 . S
Co295 O306 2.093 . S
Co295 O319 2.097 . S
Co295 N336 2.151 . S
Co295 N344 2.214 . S
Co296 O297 2.160 . S
Co296 O302 2.058 . S
Co296 O312 2.057 . S
Co296 O327 2.037 . S
Co296 N331 2.145 . S
Co296 N352 2.257 . S
O297 Co295 2.143 . S
O297 Co296 2.160 . S
C298 O299 1.278 . S
C298 O306 1.224 . S
O299 C298 1.278 . S
C300 O301 1.245 . S
C300 O312 1.232 . S
O301 C300 1.245 . S
O302 Co296 2.058 . S
O302 C328 1.269 . S
O303 Co295 2.074 . S
O303 C328 1.257 . S
H304 C329 0.930 . S
H305 C335 0.930 . S
O306 Co295 2.093 . S
O306 C298 1.224 . S
H307 C339 0.929 . S
H308 C341 0.930 . S
H309 C342 0.930 . S
H310 C340 0.929 . S
H311 C343 0.928 . S
O312 Co296 2.057 . S
O312 C300 1.232 . S
H313 C332 0.929 . S
H314 C333 0.929 . S
H315 C345 0.931 . S
H316 C337 0.929 . S
H317 C346 0.930 . S
H318 C338 0.931 . S
O319 Co295 2.097 . S
O319 C347 1.214 . S
H320 C348 0.929 . S
H321 C349 0.929 . S
H322 C350 0.930 . S
H323 C351 0.929 . S
H324 C353 0.930 . S
H325 C330 0.930 . S
H326 C334 0.930 . S
O327 Co296 2.037 . S
O327 C347 1.234 . S
C328 O302 1.269 . S
C328 O303 1.257 . S
C329 H304 0.930 . S
C329 C332 1.388 . S
C329 C334 1.418 . S
C330 H325 0.930 . S
C330 C333 1.404 . S
C330 C334 1.353 . S
N331 Co296 2.145 . S
N331 C332 1.397 . S
N331 C333 1.334 . S
C332 H313 0.929 . S
C332 C329 1.388 . S
C332 N331 1.397 . S
C333 H314 0.929 . S
C333 C330 1.404 . S
C333 N331 1.334 . S
C334 H326 0.930 . S
C334 C329 1.418 . S
C334 C330 1.353 . S
C335 H305 0.930 . S
C335 N336 1.330 . S
C335 C337 1.446 . S
N336 Co295 2.151 . S
N336 C335 1.330 . S
N336 C340 1.418 . S
C337 H316 0.929 . S
C337 C335 1.446 . S
C337 C338 1.332 . S
C338 H318 0.931 . S
C338 C337 1.332 . S
C338 C339 1.267 . S
C339 H307 0.929 . S
C339 C338 1.267 . S
C339 C340 1.251 . S
C340 H310 0.929 . S
C340 N336 1.418 . S
C340 C339 1.251 . S
C341 H308 0.930 . S
C341 C343 1.406 . S
C341 C346 1.261 . S
C342 H309 0.930 . S
C342 N344 1.325 . S
C342 C345 1.357 . S
C343 H311 0.928 . S
C343 C341 1.406 . S
C343 N344 1.261 . S
N344 Co295 2.214 . S
N344 C342 1.325 . S
N344 C343 1.261 . S
C345 H315 0.931 . S
C345 C342 1.357 . S
C345 C346 1.312 . S
C346 H317 0.930 . S
C346 C341 1.261 . S
C346 C345 1.312 . S
C347 O319 1.214 . S
C347 O327 1.234 . S
C348 H320 0.929 . S
C348 C351 1.391 . S
C348 C353 1.391 . S
C349 H321 0.929 . S
C349 C350 1.390 . S
C349 N352 1.391 . S
C350 H322 0.930 . S
C350 C349 1.390 . S
C350 C351 1.392 . S
C351 H323 0.929 . S
C351 C348 1.391 . S
C351 C350 1.392 . S
N352 Co296 2.257 . S
N352 C349 1.391 . S
N352 C353 1.388 . S
C353 H324 0.930 . S
C353 C348 1.391 . S
C353 N352 1.388 . S
Co354 O356 2.143 . S
Co354 O362 2.074 . S
Co354 O365 2.093 . S
Co354 O378 2.097 . S
Co354 N395 2.151 . S
Co354 N403 2.214 . S
Co355 O356 2.160 . S
Co355 O361 2.058 . S
Co355 O371 2.057 . S
Co355 O386 2.037 . S
Co355 N390 2.145 . S
Co355 N411 2.257 . S
O356 Co354 2.143 . S
O356 Co355 2.160 . S
C357 O358 1.278 . S
C357 O365 1.224 . S
O358 C357 1.278 . S
C359 O360 1.245 . S
C359 O371 1.232 . S
O360 C359 1.245 . S
O361 Co355 2.058 . S
O361 C387 1.269 . S
O362 Co354 2.074 . S
O362 C387 1.257 . S
H363 C388 0.930 . S
H364 C394 0.930 . S
O365 Co354 2.093 . S
O365 C357 1.224 . S
H366 C398 0.929 . S
H367 C400 0.930 . S
H368 C401 0.930 . S
H369 C399 0.929 . S
H370 C402 0.928 . S
O371 Co355 2.057 . S
O371 C359 1.232 . S
H372 C391 0.929 . S
H373 C392 0.929 . S
H374 C404 0.931 . S
H375 C396 0.929 . S
H376 C405 0.930 . S
H377 C397 0.931 . S
O378 Co354 2.097 . S
O378 C406 1.214 . S
H379 C407 0.929 . S
H380 C408 0.929 . S
H381 C409 0.930 . S
H382 C410 0.929 . S
H383 C412 0.930 . S
H384 C389 0.930 . S
H385 C393 0.930 . S
O386 Co355 2.037 . S
O386 C406 1.234 . S
C387 O361 1.269 . S
C387 O362 1.257 . S
C388 H363 0.930 . S
C388 C391 1.388 . S
C388 C393 1.418 . S
C389 H384 0.930 . S
C389 C392 1.404 . S
C389 C393 1.353 . S
N390 Co355 2.145 . S
N390 C391 1.397 . S
N390 C392 1.334 . S
C391 H372 0.929 . S
C391 C388 1.388 . S
C391 N390 1.397 . S
C392 H373 0.929 . S
C392 C389 1.404 . S
C392 N390 1.334 . S
C393 H385 0.930 . S
C393 C388 1.418 . S
C393 C389 1.353 . S
C394 H364 0.930 . S
C394 N395 1.330 . S
C394 C396 1.446 . S
N395 Co354 2.151 . S
N395 C394 1.330 . S
N395 C399 1.418 . S
C396 H375 0.929 . S
C396 C394 1.446 . S
C396 C397 1.332 . S
C397 H377 0.931 . S
C397 C396 1.332 . S
C397 C398 1.267 . S
C398 H366 0.929 . S
C398 C397 1.267 . S
C398 C399 1.251 . S
C399 H369 0.929 . S
C399 N395 1.418 . S
C399 C398 1.251 . S
C400 H367 0.930 . S
C400 C402 1.406 . S
C400 C405 1.261 . S
C401 H368 0.930 . S
C401 N403 1.325 . S
C401 C404 1.357 . S
C402 H370 0.928 . S
C402 C400 1.406 . S
C402 N403 1.261 . S
N403 Co354 2.214 . S
N403 C401 1.325 . S
N403 C402 1.261 . S
C404 H374 0.931 . S
C404 C401 1.357 . S
C404 C405 1.312 . S
C405 H376 0.930 . S
C405 C400 1.261 . S
C405 C404 1.312 . S
C406 O378 1.214 . S
C406 O386 1.234 . S
C407 H379 0.929 . S
C407 C410 1.391 . S
C407 C412 1.391 . S
C408 H380 0.929 . S
C408 C409 1.390 . S
C408 N411 1.391 . S
C409 H381 0.930 . S
C409 C408 1.390 . S
C409 C410 1.392 . S
C410 H382 0.929 . S
C410 C407 1.391 . S
C410 C409 1.392 . S
N411 Co355 2.257 . S
N411 C408 1.391 . S
N411 C412 1.388 . S
C412 H383 0.930 . S
C412 C407 1.391 . S
C412 N411 1.388 . S
Co413 O415 2.143 . S
Co413 O421 2.074 . S
Co413 O424 2.093 . S
Co413 O437 2.097 . S
Co413 N454 2.151 . S
Co413 N462 2.214 . S
Co414 O415 2.160 . S
Co414 O420 2.058 . S
Co414 O430 2.057 . S
Co414 O445 2.037 . S
Co414 N449 2.145 . S
Co414 N470 2.257 . S
O415 Co413 2.143 . S
O415 Co414 2.160 . S
C416 O417 1.278 . S
C416 O424 1.224 . S
O417 C416 1.278 . S
C418 O419 1.245 . S
C418 O430 1.232 . S
O419 C418 1.245 . S
O420 Co414 2.058 . S
O420 C446 1.269 . S
O421 Co413 2.074 . S
O421 C446 1.257 . S
H422 C447 0.930 . S
H423 C453 0.930 . S
O424 Co413 2.093 . S
O424 C416 1.224 . S
H425 C457 0.929 . S
H426 C459 0.930 . S
H427 C460 0.930 . S
H428 C458 0.929 . S
H429 C461 0.928 . S
O430 Co414 2.057 . S
O430 C418 1.232 . S
H431 C450 0.929 . S
H432 C451 0.929 . S
H433 C463 0.931 . S
H434 C455 0.929 . S
H435 C464 0.930 . S
H436 C456 0.931 . S
O437 Co413 2.097 . S
O437 C465 1.214 . S
H438 C466 0.929 . S
H439 C467 0.929 . S
H440 C468 0.930 . S
H441 C469 0.929 . S
H442 C471 0.930 . S
H443 C448 0.930 . S
H444 C452 0.930 . S
O445 Co414 2.037 . S
O445 C465 1.234 . S
C446 O420 1.269 . S
C446 O421 1.257 . S
C447 H422 0.930 . S
C447 C450 1.388 . S
C447 C452 1.418 . S
C448 H443 0.930 . S
C448 C451 1.404 . S
C448 C452 1.353 . S
N449 Co414 2.145 . S
N449 C450 1.397 . S
N449 C451 1.334 . S
C450 H431 0.929 . S
C450 C447 1.388 . S
C450 N449 1.397 . S
C451 H432 0.929 . S
C451 C448 1.404 . S
C451 N449 1.334 . S
C452 H444 0.930 . S
C452 C447 1.418 . S
C452 C448 1.353 . S
C453 H423 0.930 . S
C453 N454 1.330 . S
C453 C455 1.446 . S
N454 Co413 2.151 . S
N454 C453 1.330 . S
N454 C458 1.418 . S
C455 H434 0.929 . S
C455 C453 1.446 . S
C455 C456 1.332 . S
C456 H436 0.931 . S
C456 C455 1.332 . S
C456 C457 1.267 . S
C457 H425 0.929 . S
C457 C456 1.267 . S
C457 C458 1.251 . S
C458 H428 0.929 . S
C458 N454 1.418 . S
C458 C457 1.251 . S
C459 H426 0.930 . S
C459 C461 1.406 . S
C459 C464 1.261 . S
C460 H427 0.930 . S
C460 N462 1.325 . S
C460 C463 1.357 . S
C461 H429 0.928 . S
C461 C459 1.406 . S
C461 N462 1.261 . S
N462 Co413 2.214 . S
N462 C460 1.325 . S
N462 C461 1.261 . S
C463 H433 0.931 . S
C463 C460 1.357 . S
C463 C464 1.312 . S
C464 H435 0.930 . S
C464 C459 1.261 . S
C464 C463 1.312 . S
C465 O437 1.214 . S
C465 O445 1.234 . S
C466 H438 0.929 . S
C466 C469 1.391 . S
C466 C471 1.391 . S
C467 H439 0.929 . S
C467 C468 1.390 . S
C467 N470 1.391 . S
C468 H440 0.930 . S
C468 C467 1.390 . S
C468 C469 1.392 . S
C469 H441 0.929 . S
C469 C466 1.391 . S
C469 C468 1.392 . S
N470 Co414 2.257 . S
N470 C467 1.391 . S
N470 C471 1.388 . S
C471 H442 0.930 . S
C471 C466 1.391 . S
C471 N470 1.388 . S
H472 C480 0.929 . S
H473 C482 0.930 . S
H474 C484 0.930 . S
H475 C487 0.929 . S
H476 C490 0.930 . S
H477 C492 0.916 1_556 S
H478 C492 0.960 . S
H479 C492 0.960 . S
C480 H472 0.929 . S
C480 C481 1.377 . S
C480 C482 1.384 . S
C481 C480 1.377 . S
C481 C487 1.390 . S
C482 H473 0.930 . S
C482 C480 1.384 . S
C482 C483 1.372 . S
C483 C482 1.372 . S
C483 C484 1.400 . S
C483 C488 1.490 . S
C484 H474 0.930 . S
C484 C483 1.400 . S
C484 C487 1.386 . S
H485 C501 0.930 . S
H486 C502 0.931 . S
C487 H475 0.929 . S
C487 C481 1.390 . S
C487 C484 1.386 . S
C488 C483 1.490 . S
C488 C490 1.395 . S
C488 C491 1.403 . S
H489 C495 0.930 . S
C490 H476 0.930 . S
C490 C488 1.395 . S
C490 C493 1.403 1_554 S
C491 C488 1.403 . S
C491 C492 1.524 . S
C491 C495 1.400 1_554 S
C492 H477 0.916 1_554 S
C492 H478 0.960 . S
C492 H479 0.960 . S
C492 C491 1.524 . S
C493 C490 1.403 1_556 S
C493 C494 1.392 . S
C493 C497 1.495 . S
C494 C493 1.392 . S
C494 C495 1.385 . S
C494 C496 1.478 . S
C495 H489 0.930 . S
C495 C491 1.400 1_556 S
C495 C494 1.385 . S
C496 C494 1.478 . S
C496 C498 1.381 . S
C496 C502 1.383 . S
C497 C493 1.495 . S
C497 H503 0.959 1_556 S
C497 H504 0.961 . S
C497 H505 0.960 . S
C498 C496 1.381 . S
C498 C499 1.394 . S
C498 H506 0.930 . S
C499 C498 1.394 . S
C499 C500 1.383 . S
C499 H507 0.929 . S
C500 C499 1.383 . S
C500 C501 1.377 . S
C501 H485 0.930 . S
C501 C500 1.377 . S
C501 C502 1.379 . S
C502 H486 0.931 . S
C502 C496 1.383 . S
C502 C501 1.379 . S
H503 C497 0.959 1_554 S
H504 C497 0.961 . S
H505 C497 0.960 . S
H506 C498 0.930 . S
H507 C499 0.929 . S
H508 C516 0.929 . S
H509 C518 0.930 . S
H510 C520 0.930 . S
H511 C523 0.929 . S
H512 C526 0.930 . S
H513 C528 0.960 . S
H514 C528 0.960 . S
H515 C528 0.960 . S
C516 H508 0.929 . S
C516 C517 1.377 . S
C516 C518 1.384 . S
C517 C516 1.377 . S
C517 C523 1.390 . S
C518 H509 0.930 . S
C518 C516 1.384 . S
C518 C519 1.372 . S
C519 C518 1.372 . S
C519 C520 1.400 . S
C519 C524 1.490 . S
C520 H510 0.930 . S
C520 C519 1.400 . S
C520 C523 1.386 . S
H521 C537 0.930 . S
H522 C538 0.931 . S
C523 H511 0.929 . S
C523 C517 1.390 . S
C523 C520 1.386 . S
C524 C519 1.490 . S
C524 C526 1.395 . S
C524 C527 1.403 . S
H525 C531 0.930 . S
C526 H512 0.930 . S
C526 C524 1.395 . S
C526 C529 1.403 . S
C527 C524 1.403 . S
C527 C528 1.524 . S
C527 C531 1.400 . S
C528 H513 0.960 . S
C528 H514 0.960 . S
C528 H515 0.960 . S
C528 C527 1.524 . S
C529 C526 1.403 . S
C529 C530 1.392 . S
C529 C533 1.495 . S
C530 C529 1.392 . S
C530 C531 1.385 . S
C530 C532 1.478 . S
C531 H525 0.930 . S
C531 C527 1.400 . S
C531 C530 1.385 . S
C532 C530 1.478 . S
C532 C534 1.381 . S
C532 C538 1.383 . S
C533 C529 1.495 . S
C533 H539 0.959 . S
C533 H540 0.961 . S
C533 H541 0.960 . S
C534 C532 1.381 . S
C534 C535 1.394 . S
C534 H542 0.930 . S
C535 C534 1.394 . S
C535 C536 1.383 . S
C535 H543 0.929 . S
C536 C535 1.383 . S
C536 C537 1.377 . S
C537 H521 0.930 . S
C537 C536 1.377 . S
C537 C538 1.379 . S
C538 H522 0.931 . S
C538 C532 1.383 . S
C538 C537 1.379 . S
H539 C533 0.959 . S
H540 C533 0.961 . S
H541 C533 0.960 . S
H542 C534 0.930 . S
H543 C535 0.929 . S
H544 C552 0.929 . S
H545 C554 0.930 . S
H546 C556 0.930 . S
H547 C559 0.929 . S
H548 C562 0.930 . S
H549 C564 0.960 . S
H550 C564 0.960 . S
H551 C564 0.960 . S
C552 H544 0.929 . S
C552 C553 1.377 . S
C552 C554 1.384 . S
C553 C552 1.377 . S
C553 C559 1.390 . S
C554 H545 0.930 . S
C554 C552 1.384 . S
C554 C555 1.372 . S
C555 C554 1.372 . S
C555 C556 1.400 . S
C555 C560 1.490 . S
C556 H546 0.930 . S
C556 C555 1.400 . S
C556 C559 1.386 . S
H557 C573 0.930 . S
H558 C574 0.931 . S
C559 H547 0.929 . S
C559 C553 1.390 . S
C559 C556 1.386 . S
C560 C555 1.490 . S
C560 C562 1.395 . S
C560 C563 1.403 . S
H561 C567 0.930 . S
C562 H548 0.930 . S
C562 C560 1.395 . S
C562 C565 1.403 1_554 S
C563 C560 1.403 . S
C563 C564 1.524 . S
C563 C567 1.400 1_554 S
C564 H549 0.960 . S
C564 H550 0.960 . S
C564 H551 0.960 . S
C564 C563 1.524 . S
C565 C562 1.403 1_556 S
C565 C566 1.392 . S
C565 C569 1.495 . S
C566 C565 1.392 . S
C566 C567 1.385 . S
C566 C568 1.478 . S
C567 H561 0.930 . S
C567 C563 1.400 1_556 S
C567 C566 1.385 . S
C568 C566 1.478 . S
C568 C570 1.381 . S
C568 C574 1.383 . S
C569 C565 1.495 . S
C569 H575 0.959 . S
C569 H576 0.961 . S
C569 H577 0.960 . S
C570 C568 1.381 . S
C570 C571 1.394 . S
C570 H578 0.930 . S
C571 C570 1.394 . S
C571 C572 1.383 . S
C571 H579 0.929 . S
C572 C571 1.383 . S
C572 C573 1.377 . S
C573 H557 0.930 . S
C573 C572 1.377 . S
C573 C574 1.379 . S
C574 H558 0.931 . S
C574 C568 1.383 . S
C574 C573 1.379 . S
H575 C569 0.959 . S
H576 C569 0.961 . S
H577 C569 0.960 . S
H578 C570 0.930 . S
H579 C571 0.929 . S
H580 C588 0.929 . S
H581 C590 0.930 . S
H582 C592 0.930 . S
H583 C595 0.929 . S
H584 C598 0.930 . S
H585 C600 0.960 . S
H586 C600 0.960 . S
H587 C600 0.960 . S
C588 H580 0.929 . S
C588 C589 1.377 . S
C588 C590 1.384 . S
C589 C588 1.377 . S
C589 C595 1.390 . S
C590 H581 0.930 . S
C590 C588 1.384 . S
C590 C591 1.372 . S
C591 C590 1.372 . S
C591 C592 1.400 . S
C591 C596 1.490 . S
C592 H582 0.930 . S
C592 C591 1.400 . S
C592 C595 1.386 . S
H593 C609 0.930 . S
H594 C610 0.931 . S
C595 H583 0.929 . S
C595 C589 1.390 . S
C595 C592 1.386 . S
C596 C591 1.490 . S
C596 C598 1.395 . S
C596 C599 1.403 . S
H597 C603 0.930 . S
C598 H584 0.930 . S
C598 C596 1.395 . S
C598 C601 1.403 . S
C599 C596 1.403 . S
C599 C600 1.524 . S
C599 C603 1.400 . S
C600 H585 0.960 . S
C600 H586 0.960 . S
C600 H587 0.960 . S
C600 C599 1.524 . S
C601 C598 1.403 . S
C601 C602 1.392 . S
C601 C605 1.495 . S
C602 C601 1.392 . S
C602 C603 1.385 . S
C602 C604 1.478 . S
C603 H597 0.930 . S
C603 C599 1.400 . S
C603 C602 1.385 . S
C604 C602 1.478 . S
C604 C606 1.381 . S
C604 C610 1.383 . S
C605 C601 1.495 . S
C605 H611 0.959 . S
C605 H612 0.961 . S
C605 H613 0.960 . S
C606 C604 1.381 . S
C606 C607 1.394 . S
C606 H614 0.930 . S
C607 C606 1.394 . S
C607 C608 1.383 . S
C607 H615 0.929 . S
C608 C607 1.383 . S
C608 C609 1.377 . S
C609 H593 0.930 . S
C609 C608 1.377 . S
C609 C610 1.379 . S
C610 H594 0.931 . S
C610 C604 1.383 . S
C610 C609 1.379 . S
H611 C605 0.959 . S
H612 C605 0.961 . S
H613 C605 0.960 . S
H614 C606 0.930 . S
H615 C607 0.929 . S
H616 C624 0.929 . S
H617 C626 0.930 . S
H618 C628 0.930 . S
H619 C631 0.929 . S
H620 C634 0.930 . S
H621 C636 0.960 . S
H622 C636 0.960 . S
H623 C636 0.960 . S
C624 H616 0.929 . S
C624 C625 1.377 . S
C624 C626 1.384 . S
C625 C624 1.377 . S
C625 C631 1.390 . S
C626 H617 0.930 . S
C626 C624 1.384 . S
C626 C627 1.372 . S
C627 C626 1.372 . S
C627 C628 1.400 . S
C627 C632 1.490 . S
C628 H618 0.930 . S
C628 C627 1.400 . S
C628 C631 1.386 . S
H629 C645 0.930 . S
H630 C646 0.931 . S
C631 H619 0.929 . S
C631 C625 1.390 . S
C631 C628 1.386 . S
C632 C627 1.490 . S
C632 C634 1.395 . S
C632 C635 1.403 . S
H633 C639 0.930 . S
C634 H620 0.930 . S
C634 C632 1.395 . S
C634 C637 1.403 . S
C635 C632 1.403 . S
C635 C636 1.524 . S
C635 C639 1.400 . S
C636 H621 0.960 . S
C636 H622 0.960 . S
C636 H623 0.960 . S
C636 C635 1.524 . S
C637 C634 1.403 . S
C637 C638 1.392 . S
C637 C641 1.495 . S
C638 C637 1.392 . S
C638 C639 1.385 . S
C638 C640 1.478 . S
C639 H633 0.930 . S
C639 C635 1.400 . S
C639 C638 1.385 . S
C640 C638 1.478 . S
C640 C642 1.381 . S
C640 C646 1.383 . S
C641 C637 1.495 . S
C641 H647 0.959 . S
C641 H648 0.961 . S
C641 H649 0.960 . S
C642 C640 1.381 . S
C642 C643 1.394 . S
C642 H650 0.930 . S
C643 C642 1.394 . S
C643 C644 1.383 . S
C643 H651 0.929 . S
C644 C643 1.383 . S
C644 C645 1.377 . S
C645 H629 0.930 . S
C645 C644 1.377 . S
C645 C646 1.379 . S
C646 H630 0.931 . S
C646 C640 1.383 . S
C646 C645 1.379 . S
H647 C641 0.959 . S
H648 C641 0.961 . S
H649 C641 0.960 . S
H650 C642 0.930 . S
H651 C643 0.929 . S
H652 C660 0.929 . S
H653 C662 0.930 . S
H654 C664 0.930 . S
H655 C667 0.929 . S
H656 C670 0.930 . S
H657 C672 0.960 1_545 S
H658 C672 0.960 . S
H659 C672 0.960 . S
C660 H652 0.929 . S
C660 C661 1.377 . S
C660 C662 1.384 . S
C661 C660 1.377 . S
C661 C667 1.390 . S
C662 H653 0.930 . S
C662 C660 1.384 . S
C662 C663 1.372 . S
C663 C662 1.372 . S
C663 C664 1.400 . S
C663 C668 1.490 . S
C664 H654 0.930 . S
C664 C663 1.400 . S
C664 C667 1.386 . S
H665 C681 0.930 . S
H666 C682 0.931 . S
C667 H655 0.929 . S
C667 C661 1.390 . S
C667 C664 1.386 . S
C668 C663 1.490 . S
C668 C670 1.395 . S
C668 C671 1.403 . S
H669 C675 0.930 . S
C670 H656 0.930 . S
C670 C668 1.395 . S
C670 C673 1.403 . S
C671 C668 1.403 . S
C671 C672 1.524 . S
C671 C675 1.400 1_565 S
C672 H657 0.960 1_565 S
C672 H658 0.960 . S
C672 H659 0.960 . S
C672 C671 1.524 . S
C673 C670 1.403 . S
C673 C674 1.392 1_565 S
C673 C677 1.495 . S
C674 C673 1.392 1_545 S
C674 C675 1.385 . S
C674 C676 1.478 . S
C675 H669 0.930 . S
C675 C671 1.400 1_545 S
C675 C674 1.385 . S
C676 C674 1.478 . S
C676 C678 1.381 . S
C676 C682 1.383 . S
C677 C673 1.495 . S
C677 H683 0.959 . S
C677 H684 0.961 . S
C677 H685 0.960 . S
C678 C676 1.381 . S
C678 C679 1.394 . S
C678 H686 0.930 . S
C679 C678 1.394 . S
C679 C680 1.383 . S
C679 H687 0.929 . S
C680 C679 1.383 . S
C680 C681 1.377 . S
C681 H665 0.930 . S
C681 C680 1.377 . S
C681 C682 1.379 . S
C682 H666 0.931 . S
C682 C676 1.383 . S
C682 C681 1.379 . S
H683 C677 0.959 . S
H684 C677 0.961 . S
H685 C677 0.960 . S
H686 C678 0.930 . S
H687 C679 0.929 . S
H688 C696 0.929 . S
H689 C698 0.930 . S
H690 C700 0.930 . S
H691 C703 0.929 . S
H692 C706 0.930 . S
H693 C708 0.960 . S
H694 C708 0.960 . S
H695 C708 0.960 . S
C696 H688 0.929 . S
C696 C697 1.377 . S
C696 C698 1.384 . S
C697 C696 1.377 . S
C697 C703 1.390 . S
C698 H689 0.930 . S
C698 C696 1.384 . S
C698 C699 1.372 . S
C699 C698 1.372 . S
C699 C700 1.400 . S
C699 C704 1.490 . S
C700 H690 0.930 . S
C700 C699 1.400 . S
C700 C703 1.386 . S
H701 C717 0.930 . S
H702 C718 0.931 . S
C703 H691 0.929 . S
C703 C697 1.390 . S
C703 C700 1.386 . S
C704 C699 1.490 . S
C704 C706 1.395 . S
C704 C707 1.403 . S
H705 C711 0.930 . S
C706 H692 0.930 . S
C706 C704 1.395 . S
C706 C709 1.403 . S
C707 C704 1.403 . S
C707 C708 1.524 . S
C707 C711 1.400 . S
C708 H693 0.960 . S
C708 H694 0.960 . S
C708 H695 0.960 . S
C708 C707 1.524 . S
C709 C706 1.403 . S
C709 C710 1.392 . S
C709 C713 1.495 . S
C710 C709 1.392 . S
C710 C711 1.385 . S
C710 C712 1.478 . S
C711 H705 0.930 . S
C711 C707 1.400 . S
C711 C710 1.385 . S
C712 C710 1.478 . S
C712 C714 1.381 . S
C712 C718 1.383 . S
C713 C709 1.495 . S
C713 H719 0.959 . S
C713 H720 0.961 . S
C713 H721 0.960 . S
C714 C712 1.381 . S
C714 C715 1.394 . S
C714 H722 0.930 . S
C715 C714 1.394 . S
C715 C716 1.383 . S
C715 H723 0.929 . S
C716 C715 1.383 . S
C716 C717 1.377 . S
C717 H701 0.930 . S
C717 C716 1.377 . S
C717 C718 1.379 . S
C718 H702 0.931 . S
C718 C712 1.383 . S
C718 C717 1.379 . S
H719 C713 0.959 . S
H720 C713 0.961 . S
H721 C713 0.960 . S
H722 C714 0.930 . S
H723 C715 0.929 . S
H724 C732 0.929 . S
H725 C734 0.930 . S
H726 C736 0.930 . S
H727 C739 0.929 . S
H728 C742 0.930 . S
H729 C744 0.960 . S
H730 C744 0.960 . S
H731 C744 0.960 . S
C732 H724 0.929 . S
C732 C733 1.377 . S
C732 C734 1.384 . S
C733 C732 1.377 . S
C733 C739 1.390 . S
C734 H725 0.930 . S
C734 C732 1.384 . S
C734 C735 1.372 . S
C735 C734 1.372 . S
C735 C736 1.400 . S
C735 C740 1.490 . S
C736 H726 0.930 . S
C736 C735 1.400 . S
C736 C739 1.386 . S
H737 C753 0.930 . S
H738 C754 0.931 . S
C739 H727 0.929 . S
C739 C733 1.390 . S
C739 C736 1.386 . S
C740 C735 1.490 . S
C740 C742 1.395 . S
C740 C743 1.403 . S
H741 C747 0.930 1_565 S
C742 H728 0.930 . S
C742 C740 1.395 . S
C742 C745 1.403 . S
C743 C740 1.403 . S
C743 C744 1.524 . S
C743 C747 1.400 . S
C744 H729 0.960 . S
C744 H730 0.960 . S
C744 H731 0.960 . S
C744 C743 1.524 . S
C745 C742 1.403 . S
C745 C746 1.392 1_545 S
C745 C749 1.495 . S
C746 C745 1.392 1_565 S
C746 C747 1.385 1_565 S
C746 C748 1.478 . S
C747 H741 0.930 1_545 S
C747 C743 1.400 . S
C747 C746 1.385 1_545 S
C748 C746 1.478 . S
C748 C750 1.381 . S
C748 C754 1.383 . S
C749 C745 1.495 . S
C749 H755 0.959 . S
C749 H756 0.961 1_545 S
C749 H757 0.960 . S
C750 C748 1.381 . S
C750 C751 1.394 . S
C750 H758 0.930 . S
C751 C750 1.394 . S
C751 C752 1.383 . S
C751 H759 0.929 . S
C752 C751 1.383 . S
C752 C753 1.377 . S
C753 H737 0.930 . S
C753 C752 1.377 . S
C753 C754 1.379 . S
C754 H738 0.931 . S
C754 C748 1.383 . S
C754 C753 1.379 . S
H755 C749 0.959 . S
H756 C749 0.961 1_565 S
H757 C749 0.960 . S
H758 C750 0.930 . S
H759 C751 0.929 . S
H760 C768 0.929 . S
H761 C770 0.930 . S
H762 C772 0.930 . S
H763 C775 0.929 . S
H764 C778 0.930 . S
H765 C780 0.960 . S
H766 C780 0.960 . S
H767 C780 0.960 . S
C768 H760 0.929 . S
C768 C769 1.377 . S
C768 C770 1.384 . S
C769 C768 1.377 . S
C769 C775 1.390 . S
C770 H761 0.930 . S
C770 C768 1.384 . S
C770 C771 1.372 . S
C771 C770 1.372 . S
C771 C772 1.400 . S
C771 C776 1.490 . S
C772 H762 0.930 . S
C772 C771 1.400 . S
C772 C775 1.386 . S
H773 C789 0.930 . S
H774 C790 0.931 . S
C775 H763 0.929 . S
C775 C769 1.390 . S
C775 C772 1.386 . S
C776 C771 1.490 . S
C776 C778 1.395 . S
C776 C779 1.403 . S
H777 C783 0.930 . S
C778 H764 0.930 . S
C778 C776 1.395 . S
C778 C781 1.403 1_655 S
C779 C776 1.403 . S
C779 C780 1.524 . S
C779 C783 1.400 . S
C780 H765 0.960 . S
C780 H766 0.960 . S
C780 H767 0.960 . S
C780 C779 1.524 . S
C781 C778 1.403 1_455 S
C781 C782 1.392 . S
C781 C785 1.495 . S
C782 C781 1.392 . S
C782 C783 1.385 1_455 S
C782 C784 1.478 . S
C783 H777 0.930 . S
C783 C779 1.400 . S
C783 C782 1.385 1_655 S
C784 C782 1.478 . S
C784 C786 1.381 . S
C784 C790 1.383 . S
C785 C781 1.495 . S
C785 H791 0.959 . S
C785 H792 0.961 . S
C785 H793 0.960 . S
C786 C784 1.381 . S
C786 C787 1.394 . S
C786 H794 0.930 . S
C787 C786 1.394 . S
C787 C788 1.383 . S
C787 H795 0.929 . S
C788 C787 1.383 . S
C788 C789 1.377 . S
C789 H773 0.930 . S
C789 C788 1.377 . S
C789 C790 1.379 . S
C790 H774 0.931 . S
C790 C784 1.383 . S
C790 C789 1.379 . S
H791 C785 0.959 . S
H792 C785 0.961 . S
H793 C785 0.960 . S
H794 C786 0.930 . S
H795 C787 0.929 . S
H796 C804 0.929 . S
H797 C806 0.930 . S
H798 C808 0.930 . S
H799 C811 0.929 . S
H800 C814 0.930 . S
H801 C816 0.960 . S
H802 C816 0.960 . S
H803 C816 0.960 . S
C804 H796 0.929 . S
C804 C805 1.377 . S
C804 C806 1.384 . S
C805 C804 1.377 . S
C805 C811 1.390 . S
C806 H797 0.930 . S
C806 C804 1.384 . S
C806 C807 1.372 . S
C807 C806 1.372 . S
C807 C808 1.400 . S
C807 C812 1.490 . S
C808 H798 0.930 . S
C808 C807 1.400 . S
C808 C811 1.386 . S
H809 C825 0.930 . S
H810 C826 0.931 . S
C811 H799 0.929 . S
C811 C805 1.390 . S
C811 C808 1.386 . S
C812 C807 1.490 . S
C812 C814 1.395 . S
C812 C815 1.403 . S
H813 C819 0.930 . S
C814 H800 0.930 . S
C814 C812 1.395 . S
C814 C817 1.403 . S
C815 C812 1.403 . S
C815 C816 1.524 . S
C815 C819 1.400 . S
C816 H801 0.960 . S
C816 H802 0.960 . S
C816 H803 0.960 . S
C816 C815 1.524 . S
C817 C814 1.403 . S
C817 C818 1.392 . S
C817 C821 1.495 . S
C818 C817 1.392 . S
C818 C819 1.385 . S
C818 C820 1.478 . S
C819 H813 0.930 . S
C819 C815 1.400 . S
C819 C818 1.385 . S
C820 C818 1.478 . S
C820 C822 1.381 . S
C820 C826 1.383 . S
C821 C817 1.495 . S
C821 H827 0.959 . S
C821 H828 0.961 . S
C821 H829 0.960 . S
C822 C820 1.381 . S
C822 C823 1.394 . S
C822 H830 0.930 . S
C823 C822 1.394 . S
C823 C824 1.383 . S
C823 H831 0.929 . S
C824 C823 1.383 . S
C824 C825 1.377 . S
C825 H809 0.930 . S
C825 C824 1.377 . S
C825 C826 1.379 . S
C826 H810 0.931 . S
C826 C820 1.383 . S
C826 C825 1.379 . S
H827 C821 0.959 . S
H828 C821 0.961 . S
H829 C821 0.960 . S
H830 C822 0.930 . S
H831 C823 0.929 . S
H832 C840 0.929 . S
H833 C842 0.930 . S
H834 C844 0.930 . S
H835 C847 0.929 . S
H836 C850 0.930 . S
H837 C852 0.960 1_655 S
H838 C852 0.960 . S
H839 C852 0.960 . S
C840 H832 0.929 . S
C840 C841 1.377 . S
C840 C842 1.384 . S
C841 C840 1.377 . S
C841 C847 1.390 . S
C842 H833 0.930 . S
C842 C840 1.384 . S
C842 C843 1.372 . S
C843 C842 1.372 . S
C843 C844 1.400 . S
C843 C848 1.490 . S
C844 H834 0.930 . S
C844 C843 1.400 . S
C844 C847 1.386 . S
H845 C861 0.930 . S
H846 C862 0.931 . S
C847 H835 0.929 . S
C847 C841 1.390 . S
C847 C844 1.386 . S
C848 C843 1.490 . S
C848 C850 1.395 . S
C848 C851 1.403 . S
H849 C855 0.930 . S
C850 H836 0.930 . S
C850 C848 1.395 . S
C850 C853 1.403 . S
C851 C848 1.403 . S
C851 C852 1.524 . S
C851 C855 1.400 1_455 S
C852 H837 0.960 1_455 S
C852 H838 0.960 . S
C852 H839 0.960 . S
C852 C851 1.524 . S
C853 C850 1.403 . S
C853 C854 1.392 1_455 S
C853 C857 1.495 . S
C854 C853 1.392 1_655 S
C854 C855 1.385 . S
C854 C856 1.478 . S
C855 H849 0.930 . S
C855 C851 1.400 1_655 S
C855 C854 1.385 . S
C856 C854 1.478 . S
C856 C858 1.381 . S
C856 C862 1.383 . S
C857 C853 1.495 . S
C857 H863 0.959 . S
C857 H864 0.961 . S
C857 H865 0.960 . S
C858 C856 1.381 . S
C858 C859 1.394 . S
C858 H866 0.930 . S
C859 C858 1.394 . S
C859 C860 1.383 . S
C859 H867 0.929 . S
C860 C859 1.383 . S
C860 C861 1.377 . S
C861 H845 0.930 . S
C861 C860 1.377 . S
C861 C862 1.379 . S
C862 H846 0.931 . S
C862 C856 1.383 . S
C862 C861 1.379 . S
H863 C857 0.959 . S
H864 C857 0.961 . S
H865 C857 0.960 . S
H866 C858 0.930 . S
H867 C859 0.929 . S
H868 C876 0.929 . S
H869 C878 0.930 . S
H870 C880 0.930 . S
H871 C883 0.929 . S
H872 C886 0.930 . S
H873 C888 0.960 . S
H874 C888 0.960 . S
H875 C888 0.960 . S
C876 H868 0.929 . S
C876 C877 1.377 . S
C876 C878 1.384 . S
C877 C876 1.377 . S
C877 C883 1.390 . S
C878 H869 0.930 . S
C878 C876 1.384 . S
C878 C879 1.372 . S
C879 C878 1.372 . S
C879 C880 1.400 . S
C879 C884 1.490 . S
C880 H870 0.930 . S
C880 C879 1.400 . S
C880 C883 1.386 . S
H881 C897 0.930 . S
H882 C898 0.931 . S
C883 H871 0.929 . S
C883 C877 1.390 . S
C883 C880 1.386 . S
C884 C879 1.490 . S
C884 C886 1.395 . S
C884 C887 1.403 . S
H885 C891 0.930 . S
C886 H872 0.930 . S
C886 C884 1.395 . S
C886 C889 1.403 . S
C887 C884 1.403 . S
C887 C888 1.524 . S
C887 C891 1.400 . S
C888 H873 0.960 . S
C888 H874 0.960 . S
C888 H875 0.960 . S
C888 C887 1.524 . S
C889 C886 1.403 . S
C889 C890 1.392 . S
C889 C893 1.495 . S
C890 C889 1.392 . S
C890 C891 1.385 . S
C890 C892 1.478 . S
C891 H885 0.930 . S
C891 C887 1.400 . S
C891 C890 1.385 . S
C892 C890 1.478 . S
C892 C894 1.381 . S
C892 C898 1.383 . S
C893 C889 1.495 . S
C893 H899 0.959 . S
C893 H900 0.961 . S
C893 H901 0.960 . S
C894 C892 1.381 . S
C894 C895 1.394 . S
C894 H902 0.930 . S
C895 C894 1.394 . S
C895 C896 1.383 . S
C895 H903 0.929 . S
C896 C895 1.383 . S
C896 C897 1.377 . S
C897 H881 0.930 . S
C897 C896 1.377 . S
C897 C898 1.379 . S
C898 H882 0.931 . S
C898 C892 1.383 . S
C898 C897 1.379 . S
H899 C893 0.959 . S
H900 C893 0.961 . S
H901 C893 0.960 . S
H902 C894 0.930 . S
H903 C895 0.929 . S
H904 C912 0.929 . S
H905 C914 0.930 . S
H906 C916 0.930 . S
H907 C919 0.929 . S
H908 C922 0.931 . S
H909 C924 0.960 . S
H910 C924 0.960 . S
H911 C924 0.960 . S
C912 H904 0.929 . S
C912 C913 1.377 . S
C912 C914 1.384 . S
C913 C912 1.377 . S
C913 C919 1.390 . S
C914 H905 0.930 . S
C914 C912 1.384 . S
C914 C915 1.372 . S
C915 C914 1.372 . S
C915 C916 1.400 . S
C915 C920 1.490 . S
C916 H906 0.930 . S
C916 C915 1.400 . S
C916 C919 1.386 . S
H917 C933 0.930 . S
H918 C934 0.931 . S
C919 H907 0.929 . S
C919 C913 1.390 . S
C919 C916 1.386 . S
C920 C915 1.490 . S
C920 C922 1.395 1_655 S
C920 C923 1.403 . S
H921 C927 0.930 . S
C922 H908 0.931 . S
C922 C920 1.395 1_455 S
C922 C925 1.403 . S
C923 C920 1.403 . S
C923 C924 1.524 . S
C923 C927 1.400 1_655 S
C924 H909 0.960 . S
C924 H910 0.960 . S
C924 H911 0.960 . S
C924 C923 1.524 . S
C925 C922 1.403 . S
C925 C926 1.392 . S
C925 C929 1.495 . S
C926 C925 1.392 . S
C926 C927 1.385 . S
C926 C928 1.478 . S
C927 H921 0.930 . S
C927 C923 1.400 1_455 S
C927 C926 1.385 . S
C928 C926 1.478 . S
C928 C930 1.381 . S
C928 C934 1.383 . S
C929 C925 1.495 . S
C929 H935 0.959 . S
C929 H936 0.961 . S
C929 H937 0.960 . S
C930 C928 1.381 . S
C930 C931 1.394 . S
C930 H938 0.930 . S
C931 C930 1.394 . S
C931 C932 1.383 . S
C931 H939 0.929 . S
C932 C931 1.383 . S
C932 C933 1.377 . S
C933 H917 0.930 . S
C933 C932 1.377 . S
C933 C934 1.379 . S
C934 H918 0.931 . S
C934 C928 1.383 . S
C934 C933 1.379 . S
H935 C929 0.959 . S
H936 C929 0.961 . S
H937 C929 0.960 . S
H938 C930 0.930 . S
H939 C931 0.929 . S
H940 C948 0.929 . S
H941 C950 0.930 . S
H942 C952 0.930 . S
H943 C955 0.929 . S
H944 C958 0.930 . S
H945 C960 0.960 . S
H946 C960 0.960 . S
H947 C960 0.960 . S
C948 H940 0.929 . S
C948 C949 1.377 . S
C948 C950 1.384 . S
C949 C948 1.377 . S
C949 C955 1.390 . S
C950 H941 0.930 . S
C950 C948 1.384 . S
C950 C951 1.372 . S
C951 C950 1.372 . S
C951 C952 1.400 . S
C951 C956 1.490 . S
C952 H942 0.930 . S
C952 C951 1.400 . S
C952 C955 1.386 . S
H953 C969 0.930 . S
H954 C970 0.931 . S
C955 H943 0.929 . S
C955 C949 1.390 . S
C955 C952 1.386 . S
C956 C951 1.490 . S
C956 C958 1.395 1_655 S
C956 C959 1.403 . S
H957 C963 0.930 . S
C958 H944 0.930 . S
C958 C956 1.395 1_455 S
C958 C961 1.403 . S
C959 C956 1.403 . S
C959 C960 1.524 . S
C959 C963 1.400 . S
C960 H945 0.960 . S
C960 H946 0.960 . S
C960 H947 0.960 . S
C960 C959 1.524 . S
C961 C958 1.403 . S
C961 C962 1.392 . S
C961 C965 1.495 . S
C962 C961 1.392 . S
C962 C963 1.385 1_455 S
C962 C964 1.478 . S
C963 H957 0.930 . S
C963 C959 1.400 . S
C963 C962 1.385 1_655 S
C964 C962 1.478 . S
C964 C966 1.381 . S
C964 C970 1.383 . S
C965 C961 1.495 . S
C965 H971 0.959 . S
C965 H972 0.961 . S
C965 H973 0.960 . S
C966 C964 1.381 . S
C966 C967 1.394 . S
C966 H974 0.930 . S
C967 C966 1.394 . S
C967 C968 1.383 . S
C967 H975 0.929 . S
C968 C967 1.383 . S
C968 C969 1.377 . S
C969 H953 0.930 . S
C969 C968 1.377 . S
C969 C970 1.379 . S
C970 H954 0.931 . S
C970 C964 1.383 . S
C970 C969 1.379 . S
H971 C965 0.959 . S
H972 C965 0.961 . S
H973 C965 0.960 . S
H974 C966 0.930 . S
H975 C967 0.929 . S
H976 C984 0.929 . S
H977 C986 0.930 . S
H978 C988 0.930 . S
H979 C991 0.929 . S
H980 C994 0.930 . S
H981 C996 0.960 . S
H982 C996 0.960 1_545 S
H983 C996 0.960 . S
C984 H976 0.929 . S
C984 C985 1.377 . S
C984 C986 1.384 . S
C985 C984 1.377 . S
C985 C991 1.390 . S
C986 H977 0.930 . S
C986 C984 1.384 . S
C986 C987 1.372 . S
C987 C986 1.372 . S
C987 C988 1.400 . S
C987 C992 1.490 . S
C988 H978 0.930 . S
C988 C987 1.400 . S
C988 C991 1.386 . S
H989 C1005 0.930 . S
H990 C1006 0.931 . S
C991 H979 0.929 . S
C991 C985 1.390 . S
C991 C988 1.386 . S
C992 C987 1.490 . S
C992 C994 1.395 . S
C992 C995 1.403 1_545 S
H993 C999 0.930 . S
C994 H980 0.930 . S
C994 C992 1.395 . S
C994 C997 1.403 . S
C995 C992 1.403 1_565 S
C995 C996 1.524 . S
C995 C999 1.400 . S
C996 H981 0.960 . S
C996 H982 0.960 1_565 S
C996 H983 0.960 . S
C996 C995 1.524 . S
C997 C994 1.403 . S
C997 C998 1.392 1_545 S
C997 C1001 1.495 . S
C998 C997 1.392 1_565 S
C998 C999 1.385 . S
C998 C1000 1.478 . S
C999 H993 0.930 . S
C999 C995 1.400 . S
C999 C998 1.385 . S
C1000 C998 1.478 . S
C1000 C1002 1.381 . S
C1000 C1006 1.383 . S
C1001 C997 1.495 . S
C1001 H1007 0.959 . S
C1001 H1008 0.961 1_545 S
C1001 H1009 0.960 . S
C1002 C1000 1.381 . S
C1002 C1003 1.394 . S
C1002 H1010 0.930 1_565 S
C1003 C1002 1.394 . S
C1003 C1004 1.383 . S
C1003 H1011 0.929 . S
C1004 C1003 1.383 . S
C1004 C1005 1.377 . S
C1005 H989 0.930 . S
C1005 C1004 1.377 . S
C1005 C1006 1.379 . S
C1006 H990 0.931 . S
C1006 C1000 1.383 . S
C1006 C1005 1.379 . S
H1007 C1001 0.959 . S
H1008 C1001 0.961 1_565 S
H1009 C1001 0.960 . S
H1010 C1002 0.930 1_545 S
H1011 C1003 0.929 . S
H1012 C1020 0.929 . S
H1013 C1022 0.930 . S
H1014 C1024 0.930 . S
H1015 C1027 0.929 . S
H1016 C1030 0.930 . S
H1017 C1032 0.960 1_565 S
H1018 C1032 0.960 . S
H1019 C1032 0.960 . S
C1020 H1012 0.929 . S
C1020 C1021 1.377 . S
C1020 C1022 1.384 . S
C1021 C1020 1.377 . S
C1021 C1027 1.390 . S
C1022 H1013 0.930 . S
C1022 C1020 1.384 . S
C1022 C1023 1.372 . S
C1023 C1022 1.372 . S
C1023 C1024 1.400 . S
C1023 C1028 1.490 . S
C1024 H1014 0.930 . S
C1024 C1023 1.400 . S
C1024 C1027 1.386 . S
H1025 C1041 0.930 . S
H1026 C1042 0.931 . S
C1027 H1015 0.929 . S
C1027 C1021 1.390 . S
C1027 C1024 1.386 . S
C1028 C1023 1.490 . S
C1028 C1030 1.395 . S
C1028 C1031 1.403 . S
H1029 C1035 0.930 . S
C1030 H1016 0.930 . S
C1030 C1028 1.395 . S
C1030 C1033 1.417 . S
C1031 C1028 1.403 . S
C1031 C1032 1.524 . S
C1031 C1035 1.400 1_545 S
C1032 H1017 0.960 1_545 S
C1032 H1018 0.960 . S
C1032 H1019 0.960 . S
C1032 C1031 1.524 . S
C1033 C1030 1.417 . S
C1033 C1034 1.379 1_545 S
C1033 C1037 1.495 . S
C1034 C1033 1.379 1_565 S
C1034 C1035 1.385 . S
C1034 C1036 1.478 . S
C1035 H1029 0.930 . S
C1035 C1031 1.400 1_565 S
C1035 C1034 1.385 . S
C1036 C1034 1.478 . S
C1036 C1038 1.381 . S
C1036 C1042 1.383 . S
C1037 C1033 1.495 . S
C1037 H1043 0.963 . S
C1037 H1044 0.958 1_545 S
C1037 H1045 0.959 1_545 S
C1038 C1036 1.381 . S
C1038 C1039 1.394 . S
C1038 H1046 0.930 . S
C1039 C1038 1.394 . S
C1039 C1040 1.383 . S
C1039 H1047 0.929 . S
C1040 C1039 1.383 . S
C1040 C1041 1.377 . S
C1041 H1025 0.930 . S
C1041 C1040 1.377 . S
C1041 C1042 1.379 . S
C1042 H1026 0.931 . S
C1042 C1036 1.383 . S
C1042 C1041 1.379 . S
H1043 C1037 0.963 . S
H1044 C1037 0.958 1_565 S
H1045 C1037 0.959 1_565 S
H1046 C1038 0.930 . S
H1047 C1039 0.929 . S
C481 C3 1.464 . S
C500 C298 1.444 . S
C517 C62 1.461 . S
C536 C357 1.445 . S
C553 C121 1.459 . S
C572 C416 1.459 . S
C589 C239 1.462 . S
C608 C180 1.474 . S
C625 C5 1.683 . S
C644 C269 1.664 . S
C661 C64 1.683 . S
C680 C328 1.665 . S
C697 C387 1.674 . S
C716 C123 1.683 . S
C733 C182 1.682 . S
C752 C446 1.664 . S
C769 C241 1.682 . S
C788 C33 1.678 . S
C805 C92 1.674 . S
C824 C300 1.682 . S
C841 C359 1.683 . S
C860 C151 1.664 . S
C877 C210 1.674 . S
C896 C418 1.675 . S
C913 C170 0.581 . S
C932 C52 0.607 . S
C949 C229 0.576 . S
C968 C111 0.555 . S
C985 C288 0.576 . S
C1004 C406 0.586 . S
C1021 C347 0.579 . S
C1040 C465 0.567 . S
