# Generated by pormake.
# Topology sxg, (6)-cn, num edge types: 1
# Building blocks:
#     Node 0, Type 0, BuildingBlock: PAMTUU_clean_sbu_0, # of connection points: 6
#     Node 1, Type 0, BuildingBlock: PAMTUU_clean_sbu_0, # of connection points: 6
#     Node 2, Type 0, BuildingBlock: PAMTUU_clean_sbu_0, # of connection points: 6
#     Node 3, Type 0, BuildingBlock: PAMTUU_clean_sbu_0, # of connection points: 6
#     Node 4, Type 0, BuildingBlock: PAMTUU_clean_sbu_0, # of connection points: 6
#     Node 5, Type 0, BuildingBlock: PAMTUU_clean_sbu_0, # of connection points: 6
#     Node 6, Type 0, BuildingBlock: PAMTUU_clean_sbu_0, # of connection points: 6
#     Node 7, Type 0, BuildingBlock: PAMTUU_clean_sbu_0, # of connection points: 6
#     Node 8, Type 0, BuildingBlock: PAMTUU_clean_sbu_0, # of connection points: 6
#     Node 9, Type 0, BuildingBlock: PAMTUU_clean_sbu_0, # of connection points: 6
#     Node 10, Type 0, BuildingBlock: PAMTUU_clean_sbu_0, # of connection points: 6
#     Node 11, Type 0, BuildingBlock: PAMTUU_clean_sbu_0, # of connection points: 6
#     Node 12, Type 0, BuildingBlock: PAMTUU_clean_sbu_0, # of connection points: 6
#     Node 13, Type 0, BuildingBlock: PAMTUU_clean_sbu_0, # of connection points: 6
#     Node 14, Type 0, BuildingBlock: PAMTUU_clean_sbu_0, # of connection points: 6
#     Node 15, Type 0, BuildingBlock: PAMTUU_clean_sbu_0, # of connection points: 6
#     Node 16, Type 0, BuildingBlock: PAMTUU_clean_sbu_0, # of connection points: 6
#     Node 17, Type 0, BuildingBlock: PAMTUU_clean_sbu_0, # of connection points: 6
#     Node 18, Type 0, BuildingBlock: PAMTUU_clean_sbu_0, # of connection points: 6
#     Node 19, Type 0, BuildingBlock: PAMTUU_clean_sbu_0, # of connection points: 6
#     Node 20, Type 0, BuildingBlock: PAMTUU_clean_sbu_0, # of connection points: 6
#     Node 21, Type 0, BuildingBlock: PAMTUU_clean_sbu_0, # of connection points: 6
#     Node 22, Type 0, BuildingBlock: PAMTUU_clean_sbu_0, # of connection points: 6
#     Node 23, Type 0, BuildingBlock: PAMTUU_clean_sbu_0, # of connection points: 6
#     Edge 24, Type (0, 0), BuildingBlock: UVAHIK_clean_linker_0, # of connection points: 2
#     Edge 25, Type (0, 0), BuildingBlock: UVAHIK_clean_linker_0, # of connection points: 2
#     Edge 26, Type (0, 0), BuildingBlock: UVAHIK_clean_linker_0, # of connection points: 2
#     Edge 27, Type (0, 0), BuildingBlock: UVAHIK_clean_linker_0, # of connection points: 2
#     Edge 28, Type (0, 0), BuildingBlock: UVAHIK_clean_linker_0, # of connection points: 2
#     Edge 29, Type (0, 0), BuildingBlock: UVAHIK_clean_linker_0, # of connection points: 2
#     Edge 30, Type (0, 0), BuildingBlock: UVAHIK_clean_linker_0, # of connection points: 2
#     Edge 31, Type (0, 0), BuildingBlock: UVAHIK_clean_linker_0, # of connection points: 2
#     Edge 32, Type (0, 0), BuildingBlock: UVAHIK_clean_linker_0, # of connection points: 2
#     Edge 33, Type (0, 0), BuildingBlock: UVAHIK_clean_linker_0, # of connection points: 2
#     Edge 34, Type (0, 0), BuildingBlock: UVAHIK_clean_linker_0, # of connection points: 2
#     Edge 35, Type (0, 0), BuildingBlock: UVAHIK_clean_linker_0, # of connection points: 2
#     Edge 36, Type (0, 0), BuildingBlock: UVAHIK_clean_linker_0, # of connection points: 2
#     Edge 37, Type (0, 0), BuildingBlock: UVAHIK_clean_linker_0, # of connection points: 2
#     Edge 38, Type (0, 0), BuildingBlock: UVAHIK_clean_linker_0, # of connection points: 2
#     Edge 39, Type (0, 0), BuildingBlock: UVAHIK_clean_linker_0, # of connection points: 2
#     Edge 40, Type (0, 0), BuildingBlock: UVAHIK_clean_linker_0, # of connection points: 2
#     Edge 41, Type (0, 0), BuildingBlock: UVAHIK_clean_linker_0, # of connection points: 2
#     Edge 42, Type (0, 0), BuildingBlock: UVAHIK_clean_linker_0, # of connection points: 2
#     Edge 43, Type (0, 0), BuildingBlock: UVAHIK_clean_linker_0, # of connection points: 2
#     Edge 44, Type (0, 0), BuildingBlock: UVAHIK_clean_linker_0, # of connection points: 2
#     Edge 45, Type (0, 0), BuildingBlock: UVAHIK_clean_linker_0, # of connection points: 2
#     Edge 46, Type (0, 0), BuildingBlock: UVAHIK_clean_linker_0, # of connection points: 2
#     Edge 47, Type (0, 0), BuildingBlock: UVAHIK_clean_linker_0, # of connection points: 2
#     Edge 48, Type (0, 0), BuildingBlock: UVAHIK_clean_linker_0, # of connection points: 2
#     Edge 49, Type (0, 0), BuildingBlock: UVAHIK_clean_linker_0, # of connection points: 2
#     Edge 50, Type (0, 0), BuildingBlock: UVAHIK_clean_linker_0, # of connection points: 2
#     Edge 51, Type (0, 0), BuildingBlock: UVAHIK_clean_linker_0, # of connection points: 2
#     Edge 52, Type (0, 0), BuildingBlock: UVAHIK_clean_linker_0, # of connection points: 2
#     Edge 53, Type (0, 0), BuildingBlock: UVAHIK_clean_linker_0, # of connection points: 2
#     Edge 54, Type (0, 0), BuildingBlock: UVAHIK_clean_linker_0, # of connection points: 2
#     Edge 55, Type (0, 0), BuildingBlock: UVAHIK_clean_linker_0, # of connection points: 2
#     Edge 56, Type (0, 0), BuildingBlock: UVAHIK_clean_linker_0, # of connection points: 2
#     Edge 57, Type (0, 0), BuildingBlock: UVAHIK_clean_linker_0, # of connection points: 2
#     Edge 58, Type (0, 0), BuildingBlock: UVAHIK_clean_linker_0, # of connection points: 2
#     Edge 59, Type (0, 0), BuildingBlock: UVAHIK_clean_linker_0, # of connection points: 2
#     Edge 60, Type (0, 0), BuildingBlock: UVAHIK_clean_linker_0, # of connection points: 2
#     Edge 61, Type (0, 0), BuildingBlock: UVAHIK_clean_linker_0, # of connection points: 2
#     Edge 62, Type (0, 0), BuildingBlock: UVAHIK_clean_linker_0, # of connection points: 2
#     Edge 63, Type (0, 0), BuildingBlock: UVAHIK_clean_linker_0, # of connection points: 2
#     Edge 64, Type (0, 0), BuildingBlock: UVAHIK_clean_linker_0, # of connection points: 2
#     Edge 65, Type (0, 0), BuildingBlock: UVAHIK_clean_linker_0, # of connection points: 2
#     Edge 66, Type (0, 0), BuildingBlock: UVAHIK_clean_linker_0, # of connection points: 2
#     Edge 67, Type (0, 0), BuildingBlock: UVAHIK_clean_linker_0, # of connection points: 2
#     Edge 68, Type (0, 0), BuildingBlock: UVAHIK_clean_linker_0, # of connection points: 2
#     Edge 69, Type (0, 0), BuildingBlock: UVAHIK_clean_linker_0, # of connection points: 2
#     Edge 70, Type (0, 0), BuildingBlock: UVAHIK_clean_linker_0, # of connection points: 2
#     Edge 71, Type (0, 0), BuildingBlock: UVAHIK_clean_linker_0, # of connection points: 2
#     Edge 72, Type (0, 0), BuildingBlock: UVAHIK_clean_linker_0, # of connection points: 2
#     Edge 73, Type (0, 0), BuildingBlock: UVAHIK_clean_linker_0, # of connection points: 2
#     Edge 74, Type (0, 0), BuildingBlock: UVAHIK_clean_linker_0, # of connection points: 2
#     Edge 75, Type (0, 0), BuildingBlock: UVAHIK_clean_linker_0, # of connection points: 2
#     Edge 76, Type (0, 0), BuildingBlock: UVAHIK_clean_linker_0, # of connection points: 2
#     Edge 77, Type (0, 0), BuildingBlock: UVAHIK_clean_linker_0, # of connection points: 2
#     Edge 78, Type (0, 0), BuildingBlock: UVAHIK_clean_linker_0, # of connection points: 2
#     Edge 79, Type (0, 0), BuildingBlock: UVAHIK_clean_linker_0, # of connection points: 2
#     Edge 80, Type (0, 0), BuildingBlock: UVAHIK_clean_linker_0, # of connection points: 2
#     Edge 81, Type (0, 0), BuildingBlock: UVAHIK_clean_linker_0, # of connection points: 2
#     Edge 82, Type (0, 0), BuildingBlock: UVAHIK_clean_linker_0, # of connection points: 2
#     Edge 83, Type (0, 0), BuildingBlock: UVAHIK_clean_linker_0, # of connection points: 2
#     Edge 84, Type (0, 0), BuildingBlock: UVAHIK_clean_linker_0, # of connection points: 2
#     Edge 85, Type (0, 0), BuildingBlock: UVAHIK_clean_linker_0, # of connection points: 2
#     Edge 86, Type (0, 0), BuildingBlock: UVAHIK_clean_linker_0, # of connection points: 2
#     Edge 87, Type (0, 0), BuildingBlock: UVAHIK_clean_linker_0, # of connection points: 2
#     Edge 88, Type (0, 0), BuildingBlock: UVAHIK_clean_linker_0, # of connection points: 2
#     Edge 89, Type (0, 0), BuildingBlock: UVAHIK_clean_linker_0, # of connection points: 2
#     Edge 90, Type (0, 0), BuildingBlock: UVAHIK_clean_linker_0, # of connection points: 2
#     Edge 91, Type (0, 0), BuildingBlock: UVAHIK_clean_linker_0, # of connection points: 2
#     Edge 92, Type (0, 0), BuildingBlock: UVAHIK_clean_linker_0, # of connection points: 2
#     Edge 93, Type (0, 0), BuildingBlock: UVAHIK_clean_linker_0, # of connection points: 2
#     Edge 94, Type (0, 0), BuildingBlock: UVAHIK_clean_linker_0, # of connection points: 2
#     Edge 95, Type (0, 0), BuildingBlock: UVAHIK_clean_linker_0, # of connection points: 2
# Relax obj value: 0.184
# Max RMSD: 0.263
# Mean RMSD: 0.244
data_MOF--net-sxg--node1-PAMTUU_clean_sbu_0--edge1-UVAHIK_clean_linker_0
_symmetry_space_group_name_H-M    P1
_symmetry_Int_Tables_number       1
_symmetry_cell_setting            triclinic
loop_
_symmetry_equiv_pos_as_xyz
'x, y, z'
_cell_length_a     63.06724
_cell_length_b     68.511213
_cell_length_c     63.408375
_cell_angle_alpha  86.952068
_cell_angle_beta   96.374775
_cell_angle_gamma 86.685266
loop_
_atom_site_label
_atom_site_type_symbol
_atom_site_fract_x
_atom_site_fract_y
_atom_site_fract_z
_atom_type_partial_charge
Tb0 Tb 1.00986 0.25974 0.22853 0.0
Tb1 Tb 1.00186 0.30774 0.22794 0.0
C2 C 0.98191 0.2834 0.19134 0.0
C3 C 0.03304 0.20954 0.24401 0.0
C4 C 0.06601 0.18492 0.26717 0.0
C5 C 0.05583 0.17945 0.24768 0.0
C6 C 0.03947 0.19164 0.23624 0.0
C7 C 0.04296 0.21498 0.26359 0.0
C8 C 0.05921 0.20272 0.27513 0.0
C9 C 0.01691 0.22287 0.23103 0.0
O10 O 0.03136 0.27144 0.20693 0.0
O11 O 0.03297 0.30341 0.21646 0.0
O12 O 0.01897 0.29829 0.25887 0.0
O13 O 0.03554 0.26956 0.25014 0.0
O14 O 0.98318 0.33258 0.21466 0.0
O15 O 1.00948 0.33528 0.23886 0.0
O16 O 0.97518 0.29552 0.24199 0.0
O17 O 0.99239 0.26654 0.25536 0.0
O18 O 0.98277 0.26793 0.20465 0.0
O19 O 0.993 0.29851 0.19606 0.0
C20 C 0.04054 0.28825 0.20704 0.0
O21 O 1.00296 0.23212 0.24117 0.0
O22 O 0.02425 0.23452 0.21712 0.0
C23 C 0.03426 0.28423 0.26254 0.0
C24 C 0.97919 0.35735 0.23821 0.0
C25 C 0.94899 0.3824 0.25485 0.0
C26 C 0.96372 0.39006 0.24202 0.0
C27 C 0.97864 0.37762 0.23372 0.0
C28 C 0.9652 0.34968 0.25177 0.0
C29 C 0.95016 0.36209 0.25998 0.0
C30 C 0.99311 0.34432 0.2273 0.0
C31 C 0.97716 0.28038 0.25578 0.0
H32 H 0.0606 0.16576 0.24122 0.0
H33 H 0.03207 0.18723 0.22113 0.0
H34 H 0.03842 0.22887 0.26977 0.0
H35 H 0.06692 0.20745 0.28995 0.0
H36 H 0.96308 0.40559 0.23758 0.0
H37 H 0.98928 0.38377 0.22321 0.0
H38 H 0.96551 0.33405 0.25546 0.0
H39 H 0.93918 0.35577 0.26999 0.0
Tb40 Tb 0.4316 0.72611 0.76845 0.0
Tb41 Tb 0.44494 0.68827 0.74222 0.0
C42 C 0.4587 0.7291 0.73005 0.0
C43 C 0.4087 0.7715 0.79491 0.0
C44 C 0.38578 0.80497 0.80748 0.0
C45 C 0.38243 0.79914 0.78644 0.0
C46 C 0.39384 0.78263 0.78019 0.0
C47 C 0.41127 0.77677 0.81609 0.0
C48 C 0.39997 0.79328 0.82232 0.0
C49 C 0.42406 0.75649 0.78826 0.0
O50 O 0.40774 0.72664 0.74081 0.0
O51 O 0.41081 0.6944 0.73199 0.0
O52 O 0.43211 0.67677 0.77025 0.0
O53 O 0.41028 0.70318 0.77697 0.0
O54 O 0.4501 0.67627 0.71325 0.0
O55 O 0.45659 0.65887 0.74274 0.0
O56 O 0.47398 0.69577 0.76162 0.0
O57 O 0.45741 0.70929 0.78807 0.0
O58 O 0.45806 0.73351 0.74992 0.0
O59 O 0.44848 0.71442 0.72283 0.0
C60 C 0.40033 0.71178 0.73055 0.0
O61 O 0.42506 0.73873 0.79697 0.0
O62 O 0.42727 0.75669 0.76829 0.0
C63 C 0.41584 0.68421 0.779 0.0
C64 C 0.48138 0.65551 0.71828 0.0
C65 C 0.52469 0.64572 0.71422 0.0
C66 C 0.50922 0.63185 0.7107 0.0
C67 C 0.48772 0.63672 0.71278 0.0
C68 C 0.49665 0.66953 0.72128 0.0
C69 C 0.51809 0.66469 0.71927 0.0
C70 C 0.45937 0.66017 0.7227 0.0
C71 C 0.47446 0.70102 0.78131 0.0
H72 H 0.37171 0.80785 0.77456 0.0
H73 H 0.39165 0.77904 0.76369 0.0
H74 H 0.42275 0.76856 0.82772 0.0
H75 H 0.40269 0.79711 0.83871 0.0
H76 H 0.51375 0.61719 0.70653 0.0
H77 H 0.47615 0.62571 0.71052 0.0
H78 H 0.49205 0.6841 0.72573 0.0
H79 H 0.52958 0.67563 0.72238 0.0
Tb80 Tb 0.56995 0.20885 0.76761 0.0
Tb81 Tb 0.56268 0.17126 0.79967 0.0
C82 C 0.54057 0.21128 0.80336 0.0
C83 C 0.5804 0.25891 0.74533 0.0
C84 C 0.59259 0.29773 0.74648 0.0
C85 C 0.57762 0.29225 0.7301 0.0
C86 C 0.5716 0.27303 0.72956 0.0
C87 C 0.59513 0.26425 0.76196 0.0
C88 C 0.60126 0.28355 0.76248 0.0
C89 C 0.57393 0.23879 0.74381 0.0
O90 O 0.59905 0.20544 0.78905 0.0
O91 O 0.58755 0.18774 0.81702 0.0
O92 O 0.58942 0.16239 0.78299 0.0
O93 O 0.58139 0.1827 0.75281 0.0
O94 O 0.55533 0.1617 0.82987 0.0
O95 O 0.56081 0.14104 0.80614 0.0
O96 O 0.54035 0.16738 0.77142 0.0
O97 O 0.54117 0.19722 0.75291 0.0
O98 O 0.55704 0.21915 0.79616 0.0
O99 O 0.53678 0.19331 0.79926 0.0
C100 C 0.6016 0.19878 0.80898 0.0
O101 O 0.58882 0.22473 0.7485 0.0
O102 O 0.5563 0.23498 0.7517 0.0
C103 C 0.59108 0.16675 0.76286 0.0
C104 C 0.53241 0.13573 0.82624 0.0
C105 C 0.49211 0.11978 0.82628 0.0
C106 C 0.51107 0.1077 0.83088 0.0
C107 C 0.53106 0.11563 0.83089 0.0
C108 C 0.51351 0.14782 0.82175 0.0
C109 C 0.49359 0.13995 0.82188 0.0
C110 C 0.55331 0.14379 0.82419 0.0
C111 C 0.53325 0.18011 0.75557 0.0
H112 H 0.57094 0.30271 0.71734 0.0
H113 H 0.56021 0.26911 0.71662 0.0
H114 H 0.60197 0.25351 0.77438 0.0
H115 H 0.61275 0.28739 0.77534 0.0
H116 H 0.51044 0.09212 0.83446 0.0
H117 H 0.54545 0.10603 0.83415 0.0
H118 H 0.51411 0.16333 0.8177 0.0
H119 H 0.47932 0.1496 0.81794 0.0
Tb120 Tb 0.99419 0.77785 0.27203 0.0
Tb121 Tb 1.00793 0.82359 0.27959 0.0
C122 C 0.02896 0.78768 0.30985 0.0
C123 C 0.96525 0.73155 0.25816 0.0
C124 C 0.93287 0.70507 0.24861 0.0
C125 C 0.93373 0.71534 0.26737 0.0
C126 C 0.94978 0.72838 0.27213 0.0
C127 C 0.96408 0.72168 0.23926 0.0
C128 C 0.94813 0.70868 0.23451 0.0
C129 C 0.98376 0.74364 0.26339 0.0
O130 O 0.97625 0.78762 0.29712 0.0
O131 O 0.97768 0.82133 0.29363 0.0
O132 O 0.98727 0.82312 0.24988 0.0
O133 O 0.96734 0.79746 0.25736 0.0
O134 O 1.01511 0.84716 0.29861 0.0
O135 O 1.01496 0.8502 0.26461 0.0
O136 O 0.03491 0.80872 0.26703 0.0
O137 O 0.0161 0.78592 0.24919 0.0
O138 O 0.02223 0.77475 0.29626 0.0
O139 O 0.02295 0.8064 0.30725 0.0
C140 C 0.9695 0.8054 0.30124 0.0
O141 O 0.98717 0.75723 0.24923 0.0
O142 O 0.98759 0.74937 0.28266 0.0
C143 C 0.96919 0.81456 0.24755 0.0
C144 C 0.03956 0.86853 0.28484 0.0
C145 C 0.07722 0.88944 0.28874 0.0
C146 C 0.0593 0.89631 0.27447 0.0
C147 C 0.04073 0.88601 0.27261 0.0
C148 C 0.0575 0.86132 0.29884 0.0
C149 C 0.07613 0.87169 0.30079 0.0
C150 C 0.01945 0.8583 0.28253 0.0
C151 C 0.03316 0.79599 0.25227 0.0
H152 H 0.92238 0.71287 0.2787 0.0
H153 H 0.95029 0.73567 0.28691 0.0
H154 H 0.97583 0.72374 0.22823 0.0
H155 H 0.94782 0.7014 0.21975 0.0
H156 H 0.05961 0.90965 0.26459 0.0
H157 H 0.02718 0.89177 0.26158 0.0
H158 H 0.05708 0.84778 0.30838 0.0
H159 H 0.08949 0.866 0.31206 0.0
Tb160 Tb 0.29032 0.03924 0.33258 0.0
Tb161 Tb 0.27167 0.02066 0.37569 0.0
C162 C 0.25548 1.00784 0.33038 0.0
C163 C 0.30936 0.07017 0.28664 0.0
C164 C 0.31629 0.10086 0.25678 0.0
C165 C 0.29561 0.09798 0.26234 0.0
C166 C 0.29216 0.08276 0.27706 0.0
C167 C 0.33003 0.07344 0.28162 0.0
C168 C 0.33348 0.08858 0.26693 0.0
C169 C 0.30619 0.05235 0.29999 0.0
O170 O 0.25926 0.05417 0.33305 0.0
O171 O 0.2528 0.04857 0.36804 0.0
O172 O 0.2959 0.04058 0.38631 0.0
O173 O 0.29489 0.06115 0.35639 0.0
O174 O 0.24688 0.01283 0.39345 0.0
O175 O 0.27986 1.00617 0.40581 0.0
O176 O 0.29148 0.99761 0.36338 0.0
O177 O 0.31403 0.0177 0.34876 0.0
O178 O 0.27297 0.01356 0.3229 0.0
O179 O 0.25049 0.01221 0.34913 0.0
C180 C 0.24823 0.05772 0.34903 0.0
O181 O 0.31663 0.05018 0.31898 0.0
O182 O 0.28697 0.04623 0.29964 0.0
C183 C 0.29929 0.0576 0.3771 0.0
C184 C 0.25542 0.98293 0.41382 0.0
C185 C 0.24827 0.9435 0.42502 0.0
C186 C 0.25087 0.95729 0.44065 0.0
C187 C 0.2544 0.9768 0.43509 0.0
C188 C 0.25274 0.9693 0.39809 0.0
C189 C 0.24911 0.94979 0.40363 0.0
C190 C 0.26002 1.00334 0.40833 0.0
C191 C 0.30965 1.00023 0.35571 0.0
H192 H 0.28196 0.10705 0.25476 0.0
H193 H 0.276 0.08055 0.28049 0.0
H194 H 0.34356 0.0639 0.28868 0.0
H195 H 0.34965 0.09054 0.26339 0.0
H196 H 0.25003 0.95305 0.45722 0.0
H197 H 0.25646 0.98708 0.44745 0.0
H198 H 0.25366 0.97372 0.38157 0.0
H199 H 0.2474 0.93954 0.39122 0.0
Tb200 Tb 0.24645 0.01812 0.82548 0.0
Tb201 Tb 0.26592 0.02719 0.87374 0.0
C202 C 0.28624 0.04264 0.83465 0.0
C203 C 0.21926 0.9923 0.78312 0.0
C204 C 0.20213 0.95624 0.77413 0.0
C205 C 0.21531 0.9651 0.76038 0.0
C206 C 0.22382 0.98299 0.76487 0.0
C207 C 0.20568 0.9837 0.79659 0.0
C208 C 0.19712 0.96587 0.79209 0.0
C209 C 0.2305 0.00967 0.7893 0.0
O210 O 0.26091 0.99057 0.83959 0.0
O211 O 0.28563 1.00191 0.86459 0.0
O212 O 0.246 1.0031 0.87822 0.0
O213 O 0.22431 1.00627 0.84635 0.0
O214 O 0.29195 0.03554 0.89434 0.0
O215 O 0.26181 0.02995 0.90579 0.0
O216 O 0.23705 0.04668 0.86537 0.0
O217 O 0.23763 0.04857 0.82936 0.0
O218 O 0.27837 0.02842 0.82377 0.0
O219 O 0.27818 0.04783 0.85181 0.0
C220 C 0.27874 0.98797 0.8524 0.0
O221 O 0.2208 0.02138 0.80125 0.0
O222 O 0.25069 1.00624 0.79624 0.0
C223 C 0.22868 0.99919 0.86618 0.0
C224 C 0.28049 0.05595 0.92065 0.0
C225 C 0.2807 0.09205 0.94034 0.0
C226 C 0.29923 0.08416 0.93262 0.0
C227 C 0.29915 0.06626 0.92296 0.0
C228 C 0.26202 0.06377 0.92855 0.0
C229 C 0.26213 0.0816 0.93826 0.0
C230 C 0.28037 0.03716 0.91006 0.0
C231 C 0.23062 0.05521 0.84647 0.0
H232 H 0.21918 0.95811 0.74624 0.0
H233 H 0.23439 0.98931 0.7544 0.0
H234 H 0.20211 0.9905 0.81093 0.0
H235 H 0.18716 0.95931 0.80302 0.0
H236 H 0.31389 0.09171 0.93426 0.0
H237 H 0.31368 0.06052 0.91725 0.0
H238 H 0.24736 0.05621 0.92715 0.0
H239 H 0.24754 0.08737 0.94385 0.0
Tb240 Tb 0.78035 0.55897 0.68424 0.0
Tb241 Tb 0.74068 0.53693 0.66077 0.0
C242 C 0.78647 0.52723 0.65221 0.0
C243 C 0.82127 0.59495 0.69659 0.0
C244 C 0.84036 0.63019 0.68792 0.0
C245 C 0.85264 0.61227 0.69043 0.0
C246 C 0.84319 0.59486 0.69479 0.0
C247 C 0.8088 0.61279 0.69389 0.0
C248 C 0.81835 0.63034 0.68976 0.0
C249 C 0.81191 0.57612 0.70048 0.0
O250 O 0.7737 0.57401 0.65292 0.0
O251 O 0.7393 0.56545 0.64346 0.0
O252 O 0.73072 0.54993 0.6887 0.0
O253 O 0.75087 0.57629 0.68734 0.0
O254 O 0.72981 0.51273 0.64482 0.0
O255 O 0.70771 0.53625 0.65151 0.0
O256 O 0.7557 0.51635 0.68634 0.0
O257 O 0.77247 0.5377 0.70838 0.0
O258 O 0.79229 0.53202 0.67163 0.0
O259 O 0.76759 0.53323 0.64268 0.0
C260 C 0.75522 0.57669 0.64097 0.0
O261 O 0.79348 0.57641 0.70805 0.0
O262 O 0.81286 0.56407 0.68536 0.0
C263 C 0.73369 0.56819 0.69254 0.0
C264 C 0.69756 0.50411 0.65629 0.0
C265 C 0.67644 0.47487 0.67685 0.0
C266 C 0.67064 0.48019 0.65514 0.0
C267 C 0.68124 0.49468 0.64489 0.0
C268 C 0.70291 0.49923 0.67808 0.0
C269 C 0.69252 0.48468 0.68826 0.0
C270 C 0.70981 0.51837 0.64557 0.0
C271 C 0.76496 0.52047 0.70506 0.0
H272 H 0.86972 0.61176 0.68952 0.0
H273 H 0.85305 0.58125 0.69675 0.0
H274 H 0.79176 0.61319 0.69496 0.0
H275 H 0.80857 0.64398 0.68793 0.0
H276 H 0.65839 0.47274 0.64597 0.0
H277 H 0.67697 0.49828 0.62805 0.0
H278 H 0.71538 0.50649 0.68717 0.0
H279 H 0.69713 0.48103 0.70504 0.0
Tb280 Tb 0.73386 0.54668 0.22425 0.0
Tb281 Tb 0.75433 0.52575 0.18338 0.0
C282 C 0.76898 0.51155 0.22977 0.0
C283 C 0.71485 0.57883 0.26807 0.0
C284 C 0.7061 0.60848 0.29641 0.0
C285 C 0.72632 0.60611 0.28899 0.0
C286 C 0.73065 0.59148 0.27506 0.0
C287 C 0.69445 0.58166 0.27479 0.0
C288 C 0.69011 0.59629 0.28869 0.0
C289 C 0.72007 0.56092 0.25678 0.0
O290 O 0.75474 0.56764 0.21243 0.0
O291 O 0.77695 0.54689 0.19593 0.0
O292 O 0.73734 0.55256 0.16971 0.0
O293 O 0.71616 0.56176 0.19558 0.0
O294 O 0.7801 0.51025 0.17192 0.0
O295 O 0.75127 0.51917 0.1512 0.0
O296 O 0.72492 0.51128 0.18709 0.0
O297 O 0.72006 0.51818 0.22151 0.0
O298 O 0.76339 0.52899 0.23583 0.0
O299 O 0.76181 0.5059 0.21109 0.0
C300 C 0.77289 0.56362 0.20469 0.0
O301 O 0.70768 0.55685 0.2399 0.0
O302 O 0.7401 0.55624 0.25507 0.0
C303 C 0.72153 0.56321 0.17602 0.0
C304 C 0.77074 0.49063 0.14257 0.0
C305 C 0.77251 0.45537 0.12103 0.0
C306 C 0.77274 0.47371 0.10997 0.0
C307 C 0.77186 0.49106 0.1206 0.0
C308 C 0.77053 0.4724 0.15384 0.0
C309 C 0.7715 0.45493 0.14317 0.0
C310 C 0.76984 0.50948 0.15296 0.0
C311 C 0.71634 0.50768 0.2048 0.0
H312 H 0.73916 0.61501 0.29464 0.0
H313 H 0.74663 0.58962 0.27044 0.0
H314 H 0.68201 0.57205 0.26989 0.0
H315 H 0.67424 0.59781 0.29365 0.0
H316 H 0.77388 0.4747 0.09303 0.0
H317 H 0.77212 0.50492 0.11159 0.0
H318 H 0.76957 0.47169 0.17081 0.0
H319 H 0.77113 0.4411 0.15219 0.0
Tb320 Tb 0.33217 0.2957 0.07891 0.0
Tb321 Tb 0.37135 0.27119 0.05848 0.0
C322 C 0.32418 0.2658 0.04398 0.0
C323 C 0.2814 0.31051 0.10262 0.0
C324 C 0.24254 0.30497 0.12007 0.0
C325 C 0.24638 0.32313 0.11023 0.0
C326 C 0.26556 0.32585 0.10165 0.0
C327 C 0.2777 0.29225 0.11219 0.0
C328 C 0.25843 0.2895 0.12084 0.0
C329 C 0.30143 0.31414 0.0934 0.0
O330 O 0.33965 0.26992 0.10033 0.0
O331 O 0.36002 0.24978 0.08109 0.0
O332 O 0.38353 0.28007 0.08942 0.0
O333 O 0.36239 0.30815 0.09043 0.0
O334 O 0.38229 0.24736 0.04218 0.0
O335 O 0.40366 0.26924 0.05305 0.0
O336 O 0.36938 0.3005 0.04267 0.0
O337 O 0.33552 0.31133 0.04881 0.0
O338 O 0.31908 0.27099 0.06252 0.0
O339 O 0.34211 0.2708 0.03728 0.0
C340 C 0.34906 0.25279 0.09738 0.0
O341 O 0.3194 0.30824 0.10474 0.0
O342 O 0.30177 0.31057 0.07346 0.0
C343 C 0.38035 0.29751 0.09645 0.0
C344 C 0.41076 0.25411 0.02173 0.0
C345 C 0.42981 0.25384 0.98335 0.0
C346 C 0.44225 0.24975 1.00309 0.0
C347 C 0.43281 0.24986 0.02203 0.0
C348 C 0.39824 0.2585 1.00212 0.0
C349 C 0.40768 0.25828 0.9831 0.0
C350 C 0.40138 0.25378 0.04208 0.0
C351 C 0.35228 0.3126 0.0383 0.0
H352 H 0.23443 0.33527 0.1089 0.0
H353 H 0.26802 0.34001 0.09419 0.0
H354 H 0.2897 0.28017 0.11303 0.0
H355 H 0.25614 0.27536 0.12841 0.0
H356 H 0.45925 0.24601 1.0039 0.0
H357 H 0.44275 0.24644 0.03698 0.0
H358 H 0.38121 0.262 1.00151 0.0
H359 H 0.39766 0.26171 0.9682 0.0
Tb360 Tb 0.81798 0.25447 0.97024 0.0
Tb361 Tb 0.82341 0.29714 0.94662 0.0
C362 C 0.84646 0.25992 0.93379 0.0
C363 C 0.81912 0.20751 1.00563 0.0
C364 C 0.83044 0.18051 0.0408 0.0
C365 C 0.81775 0.17515 0.02264 0.0
C366 C 0.81218 0.1885 1.00528 0.0
C367 C 0.83159 0.21319 0.02375 0.0
C368 C 0.83715 0.19977 0.0413 0.0
C369 C 0.81331 0.22069 0.98657 0.0
O370 O 0.84854 0.26263 0.98476 0.0
O371 O 0.84563 0.29593 0.9762 0.0
O372 O 0.79796 0.30068 0.9667 0.0
O373 O 0.81095 0.27706 0.99236 0.0
O374 O 0.8322 0.31223 0.91967 0.0
O375 O 0.82245 0.32801 0.94597 0.0
O376 O 0.79837 0.28334 0.92635 0.0
O377 O 0.78757 0.26263 0.95202 0.0
O378 O 0.83027 0.25041 0.93945 0.0
O379 O 0.84964 0.27714 0.94098 0.0
C380 C 0.8548 0.28035 0.98766 0.0
O381 O 0.80041 0.23595 0.98821 0.0
O382 O 0.82863 0.22481 0.97521 0.0
C383 C 0.80031 0.29401 0.98667 0.0
C384 C 0.8177 0.34474 0.9117 0.0
C385 C 0.80125 0.37372 0.87966 0.0
C386 C 0.81835 0.37736 0.89488 0.0
C387 C 0.82642 0.36306 0.9107 0.0
C388 C 0.80028 0.34107 0.89696 0.0
C389 C 0.79211 0.35545 0.88108 0.0
C390 C 0.8285 0.32937 0.92696 0.0
C391 C 0.78429 0.27168 0.93316 0.0
H392 H 0.81194 0.1606 0.02188 0.0
H393 H 0.80248 0.1839 0.99145 0.0
H394 H 0.83712 0.22786 0.02423 0.0
H395 H 0.84697 0.20432 0.05506 0.0
H396 H 0.8261 0.39104 0.89415 0.0
H397 H 0.84001 0.3661 0.92179 0.0
H398 H 0.79335 0.32697 0.89744 0.0
H399 H 0.77877 0.35219 0.86982 0.0
Tb400 Tb 0.70299 0.78812 0.474 0.0
Tb401 Tb 0.66064 0.77117 0.49454 0.0
C402 C 0.70626 0.75495 0.50991 0.0
C403 C 0.75429 0.79906 0.44836 0.0
C404 C 0.78985 0.79942 0.42463 0.0
C405 C 0.79106 0.80673 0.44502 0.0
C406 C 0.77351 0.80654 0.4567 0.0
C407 C 0.75321 0.79104 0.42833 0.0
C408 C 0.77086 0.79115 0.41663 0.0
C409 C 0.7352 0.80229 0.4597 0.0
O410 O 0.69278 0.76612 0.4526 0.0
O411 O 0.66933 0.74953 0.47162 0.0
O412 O 0.6491 0.78472 0.46354 0.0
O413 O 0.67473 0.80687 0.46085 0.0
O414 O 0.64758 0.74823 0.51137 0.0
O415 O 0.62874 0.77503 0.50086 0.0
O416 O 0.66538 0.79939 0.50873 0.0
O417 O 0.7003 0.80331 0.50285 0.0
O418 O 0.71239 0.75978 0.49126 0.0
O419 O 0.68941 0.76403 0.51607 0.0
C420 C 0.68084 0.75128 0.45538 0.0
O421 O 0.71635 0.80227 0.44892 0.0
O422 O 0.73552 0.79436 0.4789 0.0
C423 C 0.65565 0.80078 0.45494 0.0
C424 C 0.61925 0.75763 0.53148 0.0
C425 C 0.59652 0.75773 0.56771 0.0
C426 C 0.5927 0.74402 0.55216 0.0
C427 C 0.60392 0.744 0.53432 0.0
C428 C 0.62363 0.77105 0.54716 0.0
C429 C 0.61242 0.77105 0.56516 0.0
C430 C 0.62927 0.75811 0.51143 0.0
C431 C 0.68344 0.80811 0.51236 0.0
H432 H 0.80551 0.81288 0.45185 0.0
H433 H 0.77472 0.81292 0.47203 0.0
H434 H 0.73855 0.78529 0.42142 0.0
H435 H 0.76932 0.78547 0.40095 0.0
H436 H 0.58091 0.73332 0.55372 0.0
H437 H 0.60029 0.73349 0.52246 0.0
H438 H 0.63537 0.78176 0.54528 0.0
H439 H 0.61573 0.78187 0.57673 0.0
Tb440 Tb 0.1784 0.73134 0.54735 0.0
Tb441 Tb 0.16922 0.77591 0.56047 0.0
C442 C 0.15146 0.74137 0.58436 0.0
C443 C 0.18077 0.68364 0.51981 0.0
C444 C 0.1776 0.65702 0.48734 0.0
C445 C 0.17204 0.65178 0.50766 0.0
C446 C 0.17363 0.66495 0.5237 0.0
C447 C 0.18567 0.68927 0.49937 0.0
C448 C 0.18414 0.67603 0.48327 0.0
C449 C 0.18412 0.69627 0.53778 0.0
O450 O 0.14821 0.74227 0.52939 0.0
O451 O 0.15399 0.77493 0.52785 0.0
O452 O 0.19636 0.7765 0.5425 0.0
O453 O 0.18958 0.75033 0.52225 0.0
O454 O 0.14653 0.79879 0.56409 0.0
O455 O 0.18028 0.80226 0.57149 0.0
O456 O 0.19152 0.76182 0.58663 0.0
O457 O 0.20657 0.73802 0.56786 0.0
O458 O 0.16699 0.72975 0.57891 0.0
O459 O 0.14614 0.75797 0.57349 0.0
C460 C 0.14444 0.75988 0.52 0.0
O461 O 0.19842 0.70922 0.53693 0.0
O462 O 0.16703 0.70319 0.5454 0.0
C463 C 0.19874 0.7669 0.52552 0.0
C464 C 0.15767 0.81547 0.59459 0.0
C465 C 0.15654 0.82457 0.63715 0.0
C466 C 0.16712 0.83633 0.62336 0.0
C467 C 0.16762 0.83184 0.60222 0.0
C468 C 0.14664 0.80393 0.60822 0.0
C469 C 0.14591 0.80857 0.62933 0.0
C470 C 0.161 0.80934 0.57329 0.0
C471 C 0.20711 0.74866 0.5845 0.0
H472 H 0.16728 0.63719 0.51147 0.0
H473 H 0.16985 0.66031 0.53938 0.0
H474 H 0.1911 0.7037 0.49598 0.0
H475 H 0.18835 0.68056 0.46772 0.0
H476 H 0.17523 0.84889 0.62903 0.0
H477 H 0.17635 0.84079 0.59201 0.0
H478 H 0.13912 0.79103 0.60275 0.0
H479 H 0.13773 0.79927 0.63972 0.0
Tb480 Tb 0.02929 0.70894 0.80754 0.0
Tb481 Tb 0.02126 0.75703 0.80667 0.0
C482 C 0.99799 0.73247 0.77251 0.0
C483 C 0.05101 0.65906 0.79708 0.0
C484 C 0.08057 0.6336 0.78009 0.0
C485 C 0.0661 0.62619 0.79339 0.0
C486 C 0.0515 0.63884 0.80186 0.0
C487 C 0.0647 0.66648 0.78305 0.0
C488 C 0.07942 0.65386 0.77467 0.0
C489 C 0.03757 0.67232 0.80823 0.0
O490 O 0.05651 0.72056 0.79384 0.0
O491 O 0.04074 0.75044 0.78128 0.0
O492 O 0.04823 0.74889 0.83073 0.0
O493 O 0.03781 0.71838 0.83934 0.0
O494 O 0.02395 0.78401 0.7902 0.0
O495 O 1.01135 0.7829 0.82033 0.0
O496 O 0.99794 0.74585 0.82648 0.0
O497 O 0.99805 0.71321 0.8189 0.0
O498 O 1.01383 0.71898 0.77614 0.0
O499 O 0.99559 0.74653 0.78545 0.0
C500 C 0.0554 0.73613 0.78067 0.0
O501 O 0.04796 0.68402 0.82057 0.0
O502 O 0.02105 0.68145 0.79695 0.0
C503 C 0.04896 0.73344 0.84407 0.0
C504 C 0.99572 0.8067 0.79397 0.0
C505 C 0.96149 0.83072 0.77208 0.0
C506 C 0.98111 0.83858 0.77868 0.0
C507 C 0.99807 0.82665 0.78951 0.0
C508 C 0.97613 0.79881 0.78767 0.0
C509 C 0.95916 0.81071 0.77687 0.0
C510 C 1.01418 0.79389 0.8036 0.0
C511 C 0.98961 0.72865 0.82724 0.0
H512 H 0.06673 0.61071 0.79807 0.0
H513 H 0.04109 0.6329 0.81274 0.0
H514 H 0.06443 0.68207 0.77913 0.0
H515 H 0.0902 0.65998 0.7643 0.0
H516 H 0.98336 0.85396 0.77548 0.0
H517 H 1.01314 0.83295 0.79413 0.0
H518 H 0.97409 0.78336 0.79075 0.0
H519 H 0.9444 0.8041 0.77179 0.0
Tb520 Tb 0.58694 0.32806 0.29177 0.0
Tb521 Tb 0.60007 0.2883 0.26829 0.0
C522 C 0.61994 0.32948 0.25909 0.0
C523 C 0.55139 0.36447 0.31145 0.0
C524 C 0.50869 0.37726 0.31476 0.0
C525 C 0.52574 0.38713 0.32466 0.0
C526 C 0.54695 0.38074 0.32304 0.0
C527 C 0.53448 0.35471 0.30138 0.0
C528 C 0.51334 0.361 0.30305 0.0
C529 C 0.5735 0.35718 0.31015 0.0
O530 O 0.56755 0.32999 0.26069 0.0
O531 O 0.56757 0.2972 0.25516 0.0
O532 O 0.58408 0.27994 0.29654 0.0
O533 O 0.56274 0.30783 0.29614 0.0
O534 O 0.60123 0.2733 0.24014 0.0
O535 O 0.61033 0.25848 0.27107 0.0
O536 O 0.62875 0.29396 0.28834 0.0
O537 O 0.61278 0.31156 0.31282 0.0
O538 O 0.61506 0.33519 0.2774 0.0
O539 O 0.61289 0.31328 0.25102 0.0
C540 C 0.55961 0.31523 0.25065 0.0
O541 O 0.57885 0.34001 0.3198 0.0
O542 O 0.57966 0.3584 0.29117 0.0
C543 C 0.56711 0.28946 0.30231 0.0
C544 C 0.62339 0.24337 0.24128 0.0
C545 C 0.64639 0.2119 0.22479 0.0
C546 C 0.65182 0.21726 0.24576 0.0
C547 C 0.6404 0.23276 0.25395 0.0
C548 C 0.61869 0.23864 0.22005 0.0
C549 C 0.63004 0.22315 0.21189 0.0
C550 C 0.60812 0.25681 0.25057 0.0
C551 C 0.62926 0.30105 0.3072 0.0
H552 H 0.52271 0.39986 0.33355 0.0
H553 H 0.55984 0.38844 0.33087 0.0
H554 H 0.53765 0.34208 0.29237 0.0
H555 H 0.50066 0.3529 0.29548 0.0
H556 H 0.6642 0.20886 0.25621 0.0
H557 H 0.64429 0.23585 0.27045 0.0
H558 H 0.60552 0.24639 0.20998 0.0
H559 H 0.62564 0.21968 0.19558 0.0
Tb560 Tb 0.4659 0.84707 0.23893 0.0
Tb561 Tb 0.46098 0.80761 0.26839 0.0
C562 C 0.43862 0.84843 0.27615 0.0
C563 C 0.49439 0.88631 0.2158 0.0
C564 C 0.53457 0.90198 0.2132 0.0
C565 C 0.5291 0.89424 0.23272 0.0
C566 C 0.5093 0.8864 0.23398 0.0
C567 C 0.49958 0.89428 0.19636 0.0
C568 C 0.51948 0.90207 0.19505 0.0
C569 C 0.47413 0.87676 0.21687 0.0
O570 O 0.48721 0.84964 0.26844 0.0
O571 O 0.49227 0.81707 0.27902 0.0
O572 O 0.47172 0.79901 0.23821 0.0
O573 O 0.49132 0.82543 0.23523 0.0
O574 O 0.44422 0.7915 0.28937 0.0
O575 O 0.47484 0.78035 0.28126 0.0
O576 O 0.43162 0.81028 0.24725 0.0
O577 O 0.44047 0.83176 0.22083 0.0
O578 O 0.4387 0.85317 0.25588 0.0
O579 O 0.45004 0.83289 0.28525 0.0
C580 C 0.49801 0.83507 0.28003 0.0
O581 O 0.47372 0.85923 0.20982 0.0
O582 O 0.46587 0.87766 0.2348 0.0
C583 C 0.48739 0.80764 0.23028 0.0
C584 C 0.45012 0.75719 0.28834 0.0
C585 C 0.43432 0.71975 0.28554 0.0
C586 C 0.45349 0.72242 0.29831 0.0
C587 C 0.46127 0.74099 0.29972 0.0
C588 C 0.43133 0.75456 0.27498 0.0
C589 C 0.42342 0.73595 0.27368 0.0
C590 C 0.45829 0.77663 0.29101 0.0
C591 C 0.42769 0.81895 0.22816 0.0
H592 H 0.54013 0.8942 0.24708 0.0
H593 H 0.50578 0.88021 0.24917 0.0
H594 H 0.4884 0.89416 0.18211 0.0
H595 H 0.52325 0.90769 0.17971 0.0
H596 H 0.46207 0.71027 0.30786 0.0
H597 H 0.47584 0.74278 0.31004 0.0
H598 H 0.42261 0.76688 0.26585 0.0
H599 H 0.40869 0.73427 0.26361 0.0
Tb600 Tb 0.02203 0.19238 0.75507 0.0
Tb601 Tb 0.0367 0.2373 0.76484 0.0
C602 C 0.05785 0.19958 0.7909 0.0
C603 C 0.98955 0.14793 0.75125 0.0
C604 C 0.95244 0.12675 0.75309 0.0
C605 C 0.97219 0.11711 0.75031 0.0
C606 C 0.99051 0.12762 0.74936 0.0
C607 C 0.9701 0.15755 0.75481 0.0
C608 C 0.95173 0.14707 0.75569 0.0
C609 C 1.00839 0.15899 0.74759 0.0
O610 O 0.99522 0.20701 0.76831 0.0
O611 O 1.01386 0.22962 0.78678 0.0
O612 O 1.00952 0.24016 0.73966 0.0
O613 O 0.01677 0.21069 0.72604 0.0
O614 O 0.04329 0.25797 0.7877 0.0
O615 O 0.04372 0.26564 0.75429 0.0
O616 O 0.05827 0.2266 0.74297 0.0
O617 O 0.05369 0.19317 0.74373 0.0
O618 O 0.03952 0.19166 0.78662 0.0
O619 O 0.06133 0.21661 0.78175 0.0
C620 C 0.99691 0.21944 0.78343 0.0
O621 O 1.00468 0.17448 0.73463 0.0
O622 O 0.02166 0.16224 0.76409 0.0
C623 C 1.0072 0.22824 0.72404 0.0
C624 C 0.06557 0.2835 0.7791 0.0
C625 C 0.09774 0.31008 0.78892 0.0
C626 C 0.09727 0.29963 0.77031 0.0
C627 C 0.08133 0.28653 0.76542 0.0
C628 C 0.06637 0.29354 0.79788 0.0
C629 C 0.08222 0.3066 0.80276 0.0
C630 C 0.0471 0.27145 0.77357 0.0
C631 C 0.06409 0.20863 0.73845 0.0
H632 H 0.97334 0.10156 0.74801 0.0
H633 H 1.00531 0.11993 0.74647 0.0
H634 H 0.96898 0.17324 0.75632 0.0
H635 H 0.9369 0.15494 0.75814 0.0
H636 H 0.10882 0.30201 0.75917 0.0
H637 H 0.08111 0.27911 0.75074 0.0
H638 H 0.05438 0.29158 0.80868 0.0
H639 H 0.08224 0.31404 0.81741 0.0
Tb640 Tb 0.75773 0.9957 0.66058 0.0
Tb641 Tb 0.7415 0.97567 0.70466 0.0
C642 C 0.73002 0.95876 0.6599 0.0
C643 C 0.77241 0.03318 0.621 0.0
C644 C 0.78158 0.07184 0.60866 0.0
C645 C 0.77646 0.05817 0.59334 0.0
C646 C 0.77197 0.03907 0.59946 0.0
C647 C 0.77729 0.04672 0.63642 0.0
C648 C 0.78186 0.06587 0.63031 0.0
C649 C 0.76736 0.01303 0.62705 0.0
O650 O 0.73847 0.0182 0.6742 0.0
O651 O 0.71724 0.99743 0.68988 0.0
O652 O 0.75969 1.00071 0.71476 0.0
O653 O 0.77865 1.00633 0.68605 0.0
O654 O 0.71546 0.96527 0.71905 0.0
O655 O 0.74623 0.96715 0.73728 0.0
O656 O 0.77165 0.95996 0.70198 0.0
O657 O 0.7777 0.96836 0.66729 0.0
O658 O 0.73275 0.97612 0.65111 0.0
O659 O 0.73566 0.95449 0.68032 0.0
C660 C 0.72102 0.0151 0.68298 0.0
O661 O 0.78118 1.00314 0.641 0.0
O662 O 0.7478 0.01085 0.6311 0.0
C663 C 0.77525 0.00874 0.70579 0.0
C664 C 0.72309 0.94378 0.75019 0.0
C665 C 0.7152 0.91269 0.77909 0.0
C666 C 0.73612 0.91564 0.7743 0.0
C667 C 0.74004 0.93107 0.76006 0.0
C668 C 0.70218 0.94041 0.75442 0.0
C669 C 0.69826 0.92507 0.76862 0.0
C670 C 0.72671 0.96187 0.73753 0.0
C671 C 0.7823 0.95782 0.68547 0.0
H672 H 0.77564 0.06229 0.57653 0.0
H673 H 0.76803 0.02889 0.58733 0.0
H674 H 0.7776 0.04247 0.65316 0.0
H675 H 0.7859 0.07589 0.64256 0.0
H676 H 0.74957 0.90649 0.78215 0.0
H677 H 0.75638 0.93335 0.75728 0.0
H678 H 0.68882 0.95005 0.74716 0.0
H679 H 0.68193 0.92305 0.7716 0.0
Tb680 Tb 0.76673 0.99067 0.15864 0.0
Tb681 Tb 0.78172 0.99861 0.20848 0.0
C682 C 0.80321 0.01882 0.17051 0.0
C683 C 0.75258 0.96283 0.1111 0.0
C684 C 0.7502 0.9262 0.09269 0.0
C685 C 0.76455 0.93974 0.08636 0.0
C686 C 0.76566 0.95787 0.09541 0.0
C687 C 0.73804 0.94944 0.11729 0.0
C688 C 0.73682 0.93137 0.10813 0.0
C689 C 0.7549 0.98163 0.12129 0.0
O690 O 0.79454 0.97044 0.16913 0.0
O691 O 0.79133 0.96826 0.20472 0.0
O692 O 0.74931 0.98879 0.20647 0.0
O693 O 0.75164 0.96999 0.17819 0.0
O694 O 0.80556 0.99643 0.23451 0.0
O695 O 0.77348 1.00779 0.2377 0.0
O696 O 0.76854 0.02663 0.19451 0.0
O697 O 0.7468 0.01641 0.16624 0.0
O698 O 0.78755 0.01439 0.15656 0.0
O699 O 0.80545 0.01192 0.19049 0.0
C700 C 0.79932 0.96155 0.18811 0.0
O701 O 0.74171 0.986 0.13507 0.0
O702 O 0.77441 0.98557 0.12792 0.0
C703 C 0.7421 0.97497 0.19457 0.0
C704 C 0.80167 0.02413 0.25497 0.0
C705 C 0.81545 0.06067 0.26747 0.0
C706 C 0.79485 0.05516 0.27062 0.0
C707 C 0.78809 0.03704 0.26457 0.0
C708 C 0.82246 0.02941 0.25228 0.0
C709 C 0.82928 0.04748 0.25849 0.0
C710 C 0.79336 1.00616 0.24619 0.0
C711 C 0.75246 0.02988 0.17957 0.0
H712 H 0.77527 0.93619 0.07471 0.0
H713 H 0.77702 0.96793 0.09038 0.0
H714 H 0.72768 0.9528 0.12931 0.0
H715 H 0.72527 0.92149 0.11311 0.0
H716 H 0.78371 0.06503 0.27732 0.0
H717 H 0.77198 0.03336 0.26683 0.0
H718 H 0.83339 0.01978 0.24501 0.0
H719 H 0.84541 0.05109 0.25627 0.0
Tb720 Tb 0.28837 0.48274 0.3786 0.0
Tb721 Tb 0.25169 0.45856 0.35293 0.0
C722 C 0.29938 0.45381 0.34556 0.0
C723 C 0.32639 0.52004 0.38721 0.0
C724 C 0.34624 0.55029 0.36659 0.0
C725 C 0.35834 0.53678 0.38135 0.0
C726 C 0.34847 0.52173 0.39156 0.0
C727 C 0.3143 0.53367 0.37269 0.0
C728 C 0.32411 0.54856 0.36245 0.0
C729 C 0.31618 0.50325 0.39626 0.0
O730 O 0.274 0.50283 0.3522 0.0
O731 O 0.25813 0.4812 0.32965 0.0
O732 O 0.23695 0.48496 0.36433 0.0
O733 O 0.25978 0.48436 0.39451 0.0
O734 O 0.24177 0.4399 0.32889 0.0
O735 O 0.21988 0.45107 0.34997 0.0
O736 O 0.25803 0.44395 0.38445 0.0
O737 O 0.29194 0.45338 0.39415 0.0
O738 O 0.30077 0.47194 0.35075 0.0
O739 O 0.28287 0.44408 0.3498 0.0
C740 C 0.265 0.49861 0.33334 0.0
O741 O 0.29576 0.50601 0.39769 0.0
O742 O 0.32078 0.48645 0.38855 0.0
C743 C 0.24144 0.49025 0.38379 0.0
C744 C 0.21586 0.41885 0.33936 0.0
C745 C 0.19851 0.38225 0.34501 0.0
C746 C 0.20163 0.39434 0.36213 0.0
C747 C 0.21039 0.41243 0.35938 0.0
C748 C 0.21352 0.40643 0.32249 0.0
C749 C 0.20502 0.38823 0.32532 0.0
C750 C 0.22302 0.43869 0.33554 0.0
C751 C 0.2766 0.44142 0.39621 0.0
H752 H 0.37541 0.53783 0.38502 0.0
H753 H 0.3581 0.51126 0.40259 0.0
H754 H 0.29726 0.53262 0.36892 0.0
H755 H 0.31435 0.55845 0.3509 0.0
H756 H 0.19681 0.38999 0.37748 0.0
H757 H 0.21228 0.42159 0.37279 0.0
H758 H 0.21769 0.41107 0.30696 0.0
H759 H 0.20255 0.37926 0.3118 0.0
Tb760 Tb 0.27531 0.49075 0.85228 0.0
Tb761 Tb 0.29527 0.46912 0.81154 0.0
C762 C 0.30822 0.45354 0.85998 0.0
C763 C 0.25955 0.52673 0.89264 0.0
C764 C 0.25761 0.5625 0.9133 0.0
C765 C 0.25756 0.54436 0.92481 0.0
C766 C 0.25851 0.52676 0.91461 0.0
C767 C 0.2596 0.54475 0.88093 0.0
C768 C 0.25856 0.56247 0.89116 0.0
C769 C 0.26045 0.50764 0.88269 0.0
O770 O 0.30482 0.50479 0.8477 0.0
O771 O 0.30816 0.49807 0.81298 0.0
O772 O 0.26547 0.48643 0.79997 0.0
O773 O 0.26704 0.51002 0.8242 0.0
O774 O 0.32126 0.45874 0.79573 0.0
O775 O 0.2887 0.45873 0.78113 0.0
O776 O 0.27474 0.44834 0.82427 0.0
O777 O 0.2526 0.46936 0.84051 0.0
O778 O 0.29214 0.46395 0.86612 0.0
O779 O 0.31363 0.45495 0.84042 0.0
C780 C 0.31242 0.50867 0.82951 0.0
O781 O 0.2498 0.50641 0.864 0.0
O782 O 0.27909 0.49811 0.88422 0.0
C783 C 0.25976 0.50396 0.80573 0.0
C784 C 0.31391 0.43589 0.76837 0.0
C785 C 0.32326 0.40581 0.74069 0.0
C786 C 0.30233 0.40961 0.74594 0.0
C787 C 0.29772 0.42443 0.75954 0.0
C788 C 0.33493 0.43164 0.76377 0.0
C789 C 0.33957 0.41676 0.75022 0.0
C790 C 0.30869 0.45411 0.77922 0.0
C791 C 0.25665 0.45247 0.83205 0.0
H792 H 0.25648 0.54372 0.94175 0.0
H793 H 0.25837 0.51307 0.92396 0.0
H794 H 0.26048 0.54512 0.86395 0.0
H795 H 0.25882 0.57611 0.88179 0.0
H796 H 0.28938 0.40133 0.73924 0.0
H797 H 0.28128 0.42733 0.76252 0.0
H798 H 0.34772 0.44039 0.76994 0.0
H799 H 0.35584 0.41446 0.74648 0.0
Tb800 Tb 0.65772 0.74272 0.9762 0.0
Tb801 Tb 0.69891 0.71901 0.95778 0.0
C802 C 0.65137 0.71535 0.93858 0.0
C803 C 0.61628 0.76082 1.01084 0.0
C804 C 0.59546 0.76381 0.048 0.0
C805 C 0.58454 0.76935 0.02779 0.0
C806 C 0.59485 0.76789 1.00948 0.0
C807 C 0.62723 0.75484 0.03086 0.0
C808 C 0.6169 0.75632 0.04929 0.0
C809 C 0.62663 0.76009 0.9911 0.0
O810 O 0.66019 0.71357 0.99231 0.0
O811 O 0.69502 0.70409 0.98821 0.0
O812 O 0.71003 0.74481 0.97334 0.0
O813 O 0.68639 0.74447 0.99802 0.0
O814 O 0.71296 0.70561 0.93317 0.0
O815 O 0.73009 0.70584 0.96454 0.0
O816 O 0.69112 0.74406 0.93545 0.0
O817 O 0.66863 0.76381 0.95301 0.0
O818 O 0.6464 0.73246 0.94562 0.0
O819 O 0.66976 0.70559 0.94509 0.0
C820 C 0.67776 0.70233 0.99787 0.0
O821 O 0.64559 0.76684 0.99132 0.0
O822 O 0.62526 0.74398 0.98112 0.0
C823 C 0.70425 0.75001 0.99162 0.0
C824 C 0.75093 0.70496 0.93568 0.0
C825 C 0.78935 0.71064 0.91745 0.0
C826 C 0.7865 0.69303 0.92897 0.0
C827 C 0.76754 0.69024 0.93793 0.0
C828 C 0.75366 0.72272 0.92449 0.0
C829 C 0.77272 0.72554 0.91546 0.0
C830 C 0.73101 0.70111 0.94502 0.0
C831 C 0.68046 0.76084 0.93736 0.0
H832 H 0.56794 0.7748 0.02608 0.0
H833 H 0.58606 0.77242 0.99417 0.0
H834 H 0.64378 0.74925 0.03225 0.0
H835 H 0.62585 0.75204 0.06456 0.0
H836 H 0.79904 0.68137 0.93124 0.0
H837 H 0.76582 0.67648 0.94661 0.0
H838 H 0.74105 0.73431 0.9226 0.0
H839 H 0.77425 0.73924 0.9066 0.0
Tb840 Tb 0.2083 0.71904 0.08808 0.0
Tb841 Tb 0.21237 0.76218 0.06532 0.0
C842 C 0.23044 0.72353 0.04738 0.0
C843 C 0.21638 0.67255 0.12445 0.0
C844 C 0.23183 0.6442 0.15756 0.0
C845 C 0.22815 0.63892 0.13637 0.0
C846 C 0.22042 0.65292 0.12004 0.0
C847 C 0.22102 0.67807 0.14544 0.0
C848 C 0.22863 0.66406 0.1618 0.0
C849 C 0.205 0.68634 0.10761 0.0
O850 O 0.23242 0.73341 0.10888 0.0
O851 O 0.24301 0.75409 0.08319 0.0
O852 O 0.19998 0.76542 0.0962 0.0
O853 O 0.18151 0.73819 0.09408 0.0
O854 O 0.23019 0.78177 0.04894 0.0
O855 O 0.20038 0.79143 0.06008 0.0
O856 O 0.18224 0.75332 0.05042 0.0
O857 O 0.18591 0.71995 0.05863 0.0
O858 O 0.23323 0.71646 0.06721 0.0
O859 O 0.21962 0.74051 0.04229 0.0
C860 C 0.24632 0.7453 0.10217 0.0
O861 O 0.1976 0.70311 0.11344 0.0
O862 O 0.21292 0.68817 0.08951 0.0
C863 C 0.18419 0.75529 0.10176 0.0
C864 C 0.21116 0.80971 0.03084 0.0
C865 C 0.20032 0.83798 0.99684 0.0
C866 C 0.21722 0.84055 1.01266 0.0
C867 C 0.22255 0.82657 0.02946 0.0
C868 C 0.19465 0.80665 1.01482 0.0
C869 C 0.18933 0.8207 0.99782 0.0
C870 C 0.21626 0.79641 0.04989 0.0
C871 C 0.17635 0.73549 0.04739 0.0
H872 H 0.23082 0.62386 0.13242 0.0
H873 H 0.21692 0.64826 0.10403 0.0
H874 H 0.21801 0.69309 0.14941 0.0
H875 H 0.23108 0.66869 0.1779 0.0
H876 H 0.22627 0.85351 1.01213 0.0
H877 H 0.23537 0.82912 0.04166 0.0
H878 H 0.18568 0.79368 1.01567 0.0
H879 H 0.17624 0.81835 0.98584 0.0
Tb880 Tb 0.37211 0.24222 0.54465 0.0
Tb881 Tb 0.32664 0.22995 0.56256 0.0
C882 C 0.37231 0.21412 0.58588 0.0
C883 C 0.4173 0.25143 0.51069 0.0
C884 C 0.43994 0.25203 0.47435 0.0
C885 C 0.4509 0.25084 0.49502 0.0
C886 C 0.43972 0.25054 0.51291 0.0
C887 C 0.40617 0.25239 0.49016 0.0
C888 C 0.41738 0.25272 0.47218 0.0
C889 C 0.40625 0.25178 0.53013 0.0
O890 O 0.36443 0.21442 0.53085 0.0
O891 O 0.3282 0.21628 0.53246 0.0
O892 O 0.3212 0.25766 0.54325 0.0
O893 O 0.34619 0.2521 0.52061 0.0
O894 O 0.30605 0.2085 0.57147 0.0
O895 O 0.2959 0.23923 0.56909 0.0
O896 O 0.3412 0.24752 0.58684 0.0
O897 O 0.36326 0.26456 0.56679 0.0
O898 O 0.38165 0.22767 0.57554 0.0
O899 O 0.35185 0.21098 0.58154 0.0
C900 C 0.3452 0.20868 0.52489 0.0
O901 O 0.38913 0.26351 0.52973 0.0
O902 O 0.40408 0.23494 0.53995 0.0
C903 C 0.32902 0.26176 0.52527 0.0
C904 C 0.2781 0.21872 0.59229 0.0
C905 C 0.24786 0.2126 0.6217 0.0
C906 C 0.25096 0.23157 0.61342 0.0
C907 C 0.26582 0.23457 0.59891 0.0
C908 C 0.27552 0.19982 0.60103 0.0
C909 C 0.26067 0.1968 0.61561 0.0
C910 C 0.29077 0.22154 0.57403 0.0
C911 C 0.35292 0.26246 0.58382 0.0
H912 H 0.46818 0.25061 0.49744 0.0
H913 H 0.44865 0.24986 0.52858 0.0
H914 H 0.38886 0.25301 0.48803 0.0
H915 H 0.40836 0.25343 0.45657 0.0
H916 H 0.24124 0.24409 0.61739 0.0
H917 H 0.26701 0.24929 0.59222 0.0
H918 H 0.28446 0.18723 0.59606 0.0
H919 H 0.25898 0.18202 0.62184 0.0
Tb920 Tb 0.86415 0.24179 0.47547 0.0
Tb921 Tb 0.85205 0.28603 0.48767 0.0
C922 C 0.83439 0.2495 0.511 0.0
C923 C 0.88026 0.20432 0.44114 0.0
C924 C 0.88483 0.19514 0.39912 0.0
C925 C 0.88523 0.18019 0.41535 0.0
C926 C 0.88298 0.18477 0.43621 0.0
C927 C 0.88063 0.21932 0.42524 0.0
C928 C 0.88302 0.21478 0.40441 0.0
C929 C 0.87558 0.20919 0.4624 0.0
O930 O 0.83972 0.25425 0.45008 0.0
O931 O 0.82369 0.27696 0.4694 0.0
O932 O 0.86222 0.28711 0.45553 0.0
O933 O 0.88599 0.26131 0.46299 0.0
O934 O 0.83187 0.30784 0.49854 0.0
O935 O 0.86141 0.31491 0.48637 0.0
O936 O 0.88235 0.27686 0.50651 0.0
O937 O 0.87932 0.24366 0.50792 0.0
O938 O 0.8387 0.23879 0.4953 0.0
O939 O 0.84138 0.26718 0.51317 0.0
C940 C 0.82313 0.266 0.45304 0.0
O941 O 0.88875 0.22061 0.47212 0.0
O942 O 0.85573 0.2149 0.46369 0.0
C943 C 0.879 0.27675 0.45083 0.0
C944 C 0.84879 0.33591 0.51125 0.0
C945 C 0.85186 0.36646 0.53926 0.0
C946 C 0.85868 0.3687 0.51897 0.0
C947 C 0.8571 0.3536 0.50512 0.0
C948 C 0.84291 0.33319 0.5319 0.0
C949 C 0.84449 0.34837 0.54583 0.0
C950 C 0.84487 0.3215 0.49508 0.0
C951 C 0.88752 0.25934 0.51578 0.0
H952 H 0.88619 0.16491 0.41177 0.0
H953 H 0.88259 0.17305 0.44831 0.0
H954 H 0.87838 0.23452 0.42883 0.0
H955 H 0.88281 0.22662 0.39234 0.0
H956 H 0.86474 0.38235 0.51359 0.0
H957 H 0.86176 0.35599 0.48928 0.0
H958 H 0.83648 0.31964 0.53702 0.0
H959 H 0.83902 0.34628 0.56134 0.0
C960 C 0.05067 0.30118 0.29376 0.0
C961 C 0.05156 0.28583 0.27998 0.0
C962 C 0.06847 0.30459 0.30791 0.0
C963 C 0.12546 0.30095 0.3084 0.0
H964 H 0.12539 0.32178 0.36405 0.0
C965 C 0.19327 0.34694 0.33885 0.0
C966 C 0.18625 0.36461 0.34682 0.0
C967 C 0.17983 0.33145 0.33717 0.0
C968 C 0.12571 0.31599 0.34852 0.0
H969 H 0.07122 0.26099 0.27154 0.0
H970 H 0.10237 0.2672 0.29603 0.0
H971 H 0.09464 0.30489 0.34903 0.0
H972 H 0.1603 0.37963 0.36036 0.0
H973 H 0.13657 0.35311 0.3567 0.0
H974 H 0.15547 0.3133 0.30683 0.0
C975 C 0.08792 0.27661 0.29578 0.0
C976 C 0.10815 0.30624 0.34001 0.0
C977 C 0.07007 0.27309 0.28176 0.0
C978 C 0.16615 0.36609 0.35431 0.0
C979 C 0.15258 0.35077 0.3523 0.0
C980 C 0.14283 0.31092 0.31673 0.0
C981 C 0.08753 0.29279 0.30845 0.0
C982 C 0.10758 0.29923 0.31956 0.0
C983 C 0.15893 0.3335 0.34297 0.0
C984 C 0.14283 0.31925 0.33654 0.0
H985 H 0.03659 0.31115 0.29294 0.0
H986 H 0.06777 0.31726 0.31738 0.0
H987 H 0.12536 0.2959 0.29249 0.0
H988 H 0.20885 0.34539 0.33322 0.0
H989 H 0.18548 0.31819 0.33042 0.0
C990 C 0.32934 0.53325 0.80662 0.0
C991 C 0.32386 0.52701 0.82672 0.0
C992 C 0.33815 0.55138 0.80343 0.0
C993 C 0.36644 0.59021 0.83166 0.0
H994 H 0.34821 0.62162 0.77941 0.0
C995 C 0.41419 0.65326 0.80106 0.0
C996 C 0.40333 0.66994 0.79009 0.0
C997 C 0.40306 0.63749 0.80795 0.0
C998 C 0.3533 0.61319 0.79422 0.0
H999 H 0.3238 0.53512 0.85933 0.0
H1000 H 0.33931 0.56657 0.8538 0.0
H1001 H 0.33211 0.59065 0.78618 0.0
H1002 H 0.37207 0.68335 0.77828 0.0
H1003 H 0.3524 0.65564 0.79035 0.0
H1004 H 0.38774 0.61267 0.83962 0.0
C1005 C 0.33684 0.55738 0.84048 0.0
C1006 C 0.34427 0.59525 0.79799 0.0
C1007 C 0.32791 0.53929 0.84365 0.0
C1008 C 0.38087 0.67083 0.78697 0.0
C1009 C 0.36966 0.65483 0.79363 0.0
C1010 C 0.37557 0.60808 0.82783 0.0
C1011 C 0.34186 0.56381 0.82025 0.0
C1012 C 0.35088 0.58336 0.81665 0.0
C1013 C 0.38067 0.63776 0.80384 0.0
C1014 C 0.36933 0.61974 0.80893 0.0
H1015 H 0.32646 0.5243 0.79315 0.0
H1016 H 0.34211 0.55562 0.78772 0.0
H1017 H 0.37204 0.58149 0.84617 0.0
H1018 H 0.43151 0.65206 0.8036 0.0
H1019 H 0.41217 0.62462 0.81553 0.0
C1020 C 0.61244 0.15857 0.73273 0.0
C1021 C 0.60356 0.15269 0.75127 0.0
C1022 C 0.62443 0.14499 0.72225 0.0
C1023 C 0.63109 0.0927 0.71402 0.0
H1024 H 0.68977 0.10113 0.7051 0.0
C1025 C 0.68937 0.02874 0.69927 0.0
C1026 C 0.70601 0.03178 0.68667 0.0
C1027 C 0.67606 0.04444 0.70423 0.0
C1028 C 0.67328 0.09864 0.70702 0.0
H1029 H 0.59994 0.1279 0.77305 0.0
H1030 H 0.62025 0.10431 0.75452 0.0
H1031 H 0.66784 0.12718 0.7187 0.0
H1032 H 0.72134 0.05383 0.669 0.0
H1033 H 0.69764 0.08125 0.67713 0.0
H1034 H 0.63616 0.06437 0.70225 0.0
C1035 C 0.61818 0.1194 0.74821 0.0
C1036 C 0.66076 0.11358 0.71489 0.0
C1037 C 0.60665 0.13297 0.75889 0.0
C1038 C 0.70869 0.05095 0.67876 0.0
C1039 C 0.69518 0.06671 0.68358 0.0
C1040 C 0.64343 0.07791 0.70586 0.0
C1041 C 0.62725 0.12524 0.72984 0.0
C1042 C 0.63972 0.11054 0.71897 0.0
C1043 C 0.67876 0.06369 0.69655 0.0
C1044 C 0.66492 0.08042 0.70281 0.0
H1045 H 0.61037 0.17367 0.7265 0.0
H1046 H 0.63125 0.14985 0.70808 0.0
H1047 H 0.61481 0.09007 0.71674 0.0
H1048 H 0.68691 0.01424 0.70584 0.0
H1049 H 0.664 0.04145 0.71465 0.0
C1050 C 0.92941 0.81958 0.23663 0.0
C1051 C 0.95017 0.82583 0.23586 0.0
C1052 C 0.91146 0.83179 0.22825 0.0
C1053 C 0.87743 0.8657 0.22405 0.0
H1054 H 0.87929 0.90321 0.1764 0.0
C1055 C 0.82154 0.93591 0.21193 0.0
C1056 C 0.81444 0.94384 0.19126 0.0
C1057 C 0.8364 0.91979 0.2153 0.0
C1058 C 0.87826 0.89269 0.18955 0.0
H1059 H 0.96823 0.84959 0.22475 0.0
H1060 H 0.9373 0.87077 0.21063 0.0
H1061 H 0.9078 0.87757 0.18462 0.0
H1062 H 0.81722 0.94062 0.15783 0.0
H1063 H 0.84291 0.91218 0.16367 0.0
H1064 H 0.84774 0.88062 0.22879 0.0
C1065 C 0.93467 0.85639 0.21738 0.0
C1066 C 0.89484 0.87808 0.19447 0.0
C1067 C 0.95253 0.8442 0.22566 0.0
C1068 C 0.82239 0.93497 0.17398 0.0
C1069 C 0.83723 0.9187 0.17735 0.0
C1070 C 0.86079 0.88022 0.21904 0.0
C1071 C 0.91384 0.85057 0.21892 0.0
C1072 C 0.89493 0.86464 0.21209 0.0
C1073 C 0.84456 0.91094 0.19809 0.0
C1074 C 0.86119 0.89423 0.20203 0.0
H1075 H 0.92696 0.80555 0.24438 0.0
H1076 H 0.89571 0.82664 0.22945 0.0
H1077 H 0.8769 0.85578 0.23782 0.0
H1078 H 0.81594 0.94237 0.22568 0.0
H1079 H 0.8419 0.91459 0.23152 0.0
C1080 C 0.3215 0.18901 0.50062 0.0
C1081 C 0.34222 0.19362 0.5087 0.0
C1082 C 0.31837 0.17493 0.48551 0.0
C1083 C 0.34496 0.13185 0.46381 0.0
H1084 H 0.29838 0.14037 0.4183 0.0
C1085 C 0.31378 0.06924 0.41265 0.0
C1086 C 0.30707 0.07343 0.39085 0.0
C1087 C 0.31964 0.08417 0.42604 0.0
C1088 C 0.3116 0.13777 0.43076 0.0
H1089 H 0.37594 0.18674 0.50695 0.0
H1090 H 0.37048 0.16208 0.48061 0.0
H1091 H 0.30563 0.16587 0.44306 0.0
H1092 H 0.30165 0.09686 0.36614 0.0
H1093 H 0.31189 0.12289 0.38948 0.0
H1094 H 0.35089 0.10371 0.4515 0.0
C1095 C 0.35661 0.16938 0.4861 0.0
C1096 C 0.31563 0.15236 0.44516 0.0
C1097 C 0.35975 0.18363 0.50116 0.0
C1098 C 0.30676 0.09301 0.38279 0.0
C1099 C 0.31248 0.10799 0.39625 0.0
C1100 C 0.34084 0.11719 0.44948 0.0
C1101 C 0.33585 0.16485 0.47801 0.0
C1102 C 0.33226 0.14958 0.46203 0.0
C1103 C 0.31886 0.10382 0.41813 0.0
C1104 C 0.32399 0.11986 0.43281 0.0
H1105 H 0.30754 0.1963 0.50597 0.0
H1106 H 0.30216 0.1717 0.47997 0.0
H1107 H 0.35781 0.12906 0.47662 0.0
H1108 H 0.31423 0.05439 0.41953 0.0
H1109 H 0.3242 0.08033 0.44278 0.0
C1110 C 0.21295 0.9836 0.89658 0.0
C1111 C 0.21523 0.9845 0.8748 0.0
C1112 C 0.20362 0.96781 0.90585 0.0
C1113 C 0.20005 0.91594 0.90063 0.0
H1114 H 0.1648 0.92026 0.94673 0.0
C1115 C 0.19073 0.84949 0.95835 0.0
C1116 C 0.19415 0.85371 0.97987 0.0
C1117 C 0.18717 0.86471 0.94243 0.0
C1118 C 0.17463 0.91877 0.93388 0.0
H1119 H 0.20903 0.96995 0.84545 0.0
H1120 H 0.19293 0.94199 0.86181 0.0
H1121 H 0.16921 0.94918 0.92385 0.0
H1122 H 0.19514 0.87706 1.00164 0.0
H1123 H 0.18936 0.90343 0.97414 0.0
H1124 H 0.20661 0.88585 0.91143 0.0
C1125 C 0.19814 0.95368 0.87161 0.0
C1126 C 0.17706 0.93532 0.92073 0.0
C1127 C 0.20715 0.96974 0.86222 0.0
C1128 C 0.19287 0.87335 0.98518 0.0
C1129 C 0.18926 0.88848 0.96937 0.0
C1130 C 0.19775 0.89939 0.9139 0.0
C1131 C 0.19671 0.95238 0.89362 0.0
C1132 C 0.19041 0.93423 0.90446 0.0
C1133 C 0.18677 0.88441 0.94777 0.0
C1134 C 0.18567 0.90079 0.93119 0.0
H1135 H 0.21913 0.99478 0.90662 0.0
H1136 H 0.20299 0.96713 0.92288 0.0
H1137 H 0.21058 0.91469 0.88833 0.0
H1138 H 0.19164 0.83447 0.95379 0.0
H1139 H 0.18513 0.86107 0.92595 0.0
C1140 C 0.84254 0.40185 0.5434 0.0
C1141 C 0.85082 0.38351 0.55265 0.0
C1142 C 0.8406 0.4179 0.5558 0.0
C1143 C 0.83586 0.43054 0.61082 0.0
H1144 H 0.84153 0.483 0.58681 0.0
C1145 C 0.81503 0.50003 0.65433 0.0
C1146 C 0.7998 0.51293 0.64201 0.0
C1147 C 0.82577 0.48497 0.64489 0.0
C1148 C 0.84001 0.46843 0.59375 0.0
H1149 H 0.86389 0.36768 0.58215 0.0
H1150 H 0.86074 0.39593 0.60396 0.0
H1151 H 0.8526 0.45476 0.56788 0.0
H1152 H 0.78465 0.52087 0.61009 0.0
H1153 H 0.80368 0.49484 0.59357 0.0
H1154 H 0.82301 0.44436 0.63659 0.0
C1155 C 0.8555 0.39779 0.58708 0.0
C1156 C 0.84623 0.45225 0.58289 0.0
C1157 C 0.85733 0.38162 0.57463 0.0
C1158 C 0.79625 0.5111 0.61998 0.0
C1159 C 0.80723 0.49628 0.61051 0.0
C1160 C 0.82986 0.44675 0.62181 0.0
C1161 C 0.84699 0.4161 0.5778 0.0
C1162 C 0.84356 0.43311 0.59094 0.0
C1163 C 0.82175 0.48283 0.62293 0.0
C1164 C 0.83129 0.46583 0.61305 0.0
H1165 H 0.83695 0.40368 0.52659 0.0
H1166 H 0.83345 0.4316 0.54816 0.0
H1167 H 0.83339 0.41605 0.61741 0.0
H1168 H 0.81802 0.50106 0.67138 0.0
H1169 H 0.83695 0.47481 0.65478 0.0
C1170 C 0.7054 0.5973 0.16503 0.0
C1171 C 0.71023 0.57793 0.16001 0.0
C1172 C 0.69827 0.61177 0.14881 0.0
C1173 C 0.67475 0.61962 0.09242 0.0
H1174 H 0.70832 0.66523 0.09105 0.0
C1175 C 0.66038 0.68289 0.02556 0.0
C1176 C 0.67891 0.68821 1.01676 0.0
C1177 C 0.66186 0.67019 0.0439 0.0
C1178 C 0.69873 0.65262 0.09125 0.0
H1179 H 0.71035 0.55833 0.13431 0.0
H1180 H 0.69733 0.58327 0.10628 0.0
H1181 H 0.71378 0.64186 0.12202 0.0
H1182 H 0.71356 0.68436 0.02063 0.0
H1183 H 0.71607 0.6626 0.05258 0.0
H1184 H 0.65995 0.63025 0.06147 0.0
C1185 C 0.69917 0.58742 0.1226 0.0
C1186 C 0.70171 0.63933 0.10908 0.0
C1187 C 0.7067 0.57313 0.13867 0.0
C1188 C 0.69891 0.68054 0.02681 0.0
C1189 C 0.7004 0.66817 0.04527 0.0
C1190 C 0.67151 0.63309 0.07473 0.0
C1191 C 0.69539 0.60702 0.12735 0.0
C1192 C 0.69009 0.62245 0.1097 0.0
C1193 C 0.68192 0.66285 0.05409 0.0
C1194 C 0.6838 0.64953 0.07373 0.0
H1195 H 0.70821 0.60145 0.1813 0.0
H1196 H 0.69543 0.62675 0.15298 0.0
H1197 H 0.6655 0.60678 0.09243 0.0
H1198 H 0.64472 0.68854 0.0183 0.0
H1199 H 0.64733 0.66639 0.05033 0.0
C1200 C 0.39477 0.32084 0.12371 0.0
C1201 C 0.39778 0.30462 0.11138 0.0
C1202 C 0.41161 0.32645 0.13822 0.0
C1203 C 0.47096 0.32028 0.15 0.0
H1204 H 0.4623 0.32926 0.20837 0.0
C1205 C 0.53769 0.30482 0.21846 0.0
C1206 C 0.54097 0.31851 0.23405 0.0
C1207 C 0.51998 0.30707 0.20305 0.0
C1208 C 0.46491 0.32712 0.19204 0.0
H1209 H 0.42108 0.28188 0.10453 0.0
H1210 H 0.4498 0.29148 0.12939 0.0
H1211 H 0.4313 0.32633 0.18189 0.0
H1212 H 0.52799 0.34532 0.24574 0.0
H1213 H 0.49649 0.34905 0.21878 0.0
H1214 H 0.50448 0.32016 0.16021 0.0
C1215 C 0.43467 0.30006 0.12791 0.0
C1216 C 0.44716 0.32547 0.17686 0.0
C1217 C 0.418 0.29442 0.1137 0.0
C1218 C 0.52599 0.3346 0.23383 0.0
C1219 C 0.50792 0.33667 0.21852 0.0
C1220 C 0.48859 0.32179 0.16511 0.0
C1221 C 0.43182 0.31613 0.14039 0.0
C1222 C 0.45004 0.32135 0.15579 0.0
C1223 C 0.50481 0.32294 0.20289 0.0
C1224 C 0.48584 0.32461 0.18645 0.0
H1225 H 0.3794 0.32898 0.12238 0.0
H1226 H 0.40888 0.33892 0.14759 0.0
H1227 H 0.47379 0.31761 0.13383 0.0
H1228 H 0.54889 0.29227 0.21812 0.0
H1229 H 0.51794 0.29611 0.19141 0.0
C1230 C 0.8806 0.26085 0.91726 0.0
C1231 C 0.86122 0.25202 0.91901 0.0
C1232 C 0.8944 0.25462 0.90285 0.0
C1233 C 0.89682 0.2301 0.85277 0.0
H1234 H 0.95783 0.22839 0.87022 0.0
C1235 C 0.96195 0.21022 0.79645 0.0
C1236 C 0.97991 0.22161 0.79794 0.0
C1237 C 0.94668 0.21194 0.81097 0.0
C1238 C 0.94086 0.22894 0.86497 0.0
H1239 H 0.84128 0.22951 0.90683 0.0
H1240 H 0.86558 0.21856 0.88134 0.0
H1241 H 0.93292 0.23426 0.89618 0.0
H1242 H 0.99539 0.2441 0.81574 0.0
H1243 H 0.969 0.24713 0.8406 0.0
H1244 H 0.90495 0.22508 0.82136 0.0
C1245 C 0.86996 0.2304 0.89127 0.0
C1246 C 0.92653 0.23226 0.87992 0.0
C1247 C 0.85611 0.23657 0.90597 0.0
C1248 C 0.98194 0.23494 0.81408 0.0
C1249 C 0.96681 0.2366 0.82852 0.0
C1250 C 0.91124 0.22676 0.83772 0.0
C1251 C 0.88933 0.23937 0.88957 0.0
C1252 C 0.90431 0.23338 0.87397 0.0
C1253 C 0.94908 0.22499 0.82739 0.0
C1254 C 0.93348 0.22662 0.84353 0.0
H1255 H 0.88515 0.27279 0.92698 0.0
H1256 H 0.90895 0.26211 0.90183 0.0
H1257 H 0.87983 0.23094 0.84759 0.0
H1258 H 0.95982 0.19979 0.78427 0.0
H1259 H 0.93327 0.20272 0.80962 0.0
C1260 C 0.53346 0.82325 0.29906 0.0
C1261 C 0.51724 0.83835 0.29482 0.0
C1262 C 0.55045 0.82467 0.31488 0.0
C1263 C 0.56272 0.84578 0.36584 0.0
H1264 H 0.62023 0.8247 0.36069 0.0
C1265 C 0.61898 0.80915 0.43625 0.0
C1266 C 0.64107 0.81158 0.43762 0.0
C1267 C 0.60515 0.81731 0.41887 0.0
C1268 C 0.60437 0.83094 0.36238 0.0
H1269 H 0.5065 0.86713 0.30342 0.0
H1270 H 0.53622 0.86949 0.33165 0.0
H1271 H 0.59437 0.83045 0.32898 0.0
H1272 H 0.66588 0.82502 0.42199 0.0
H1273 H 0.64163 0.83914 0.39126 0.0
H1274 H 0.57247 0.84552 0.39936 0.0
C1275 C 0.53574 0.85658 0.3225 0.0
C1276 C 0.5895 0.8341 0.34422 0.0
C1277 C 0.51882 0.85531 0.30628 0.0
C1278 C 0.64893 0.82296 0.42145 0.0
C1279 C 0.63507 0.83092 0.4038 0.0
C1280 C 0.57754 0.84245 0.38404 0.0
C1281 C 0.55159 0.84111 0.32718 0.0
C1282 C 0.56832 0.84105 0.34579 0.0
C1283 C 0.61303 0.82796 0.40218 0.0
C1284 C 0.59839 0.83448 0.38261 0.0
H1285 H 0.53275 0.81002 0.29044 0.0
H1286 H 0.56219 0.81239 0.31816 0.0
H1287 H 0.54653 0.85104 0.36766 0.0
H1288 H 0.61236 0.80052 0.44845 0.0
H1289 H 0.58836 0.81452 0.41807 0.0
C1290 C 0.12475 0.75025 0.60923 0.0
C1291 C 0.14175 0.73762 0.60447 0.0
C1292 C 0.11729 0.74894 0.62915 0.0
C1293 C 0.1144 0.71706 0.67713 0.0
H1294 H 0.10555 0.76643 0.70308 0.0
C1295 C 0.08426 0.7212 0.76062 0.0
C1296 C 0.06899 0.73655 0.76284 0.0
C1297 C 0.09526 0.7208 0.74253 0.0
C1298 C 0.10769 0.7525 0.69604 0.0
H1299 H 0.16353 0.71301 0.61686 0.0
H1300 H 0.15004 0.71041 0.65175 0.0
H1301 H 0.11984 0.76598 0.669 0.0
H1302 H 0.05377 0.76376 0.74775 0.0
H1303 H 0.07256 0.76298 0.71646 0.0
H1304 H 0.10166 0.70363 0.70394 0.0
C1305 C 0.1427 0.72148 0.63994 0.0
C1306 C 0.11596 0.75225 0.67647 0.0
C1307 C 0.15038 0.72294 0.61993 0.0
C1308 C 0.06548 0.75173 0.74677 0.0
C1309 C 0.0764 0.75132 0.72875 0.0
C1310 C 0.10592 0.71732 0.69671 0.0
C1311 C 0.1264 0.73481 0.64493 0.0
C1312 C 0.11909 0.73458 0.66657 0.0
C1313 C 0.09132 0.73577 0.7262 0.0
C1314 C 0.10208 0.73511 0.70628 0.0
H1315 H 0.11745 0.76158 0.59769 0.0
H1316 H 0.10442 0.75917 0.63228 0.0
H1317 H 0.11656 0.70322 0.6699 0.0
H1318 H 0.08751 0.7093 0.77269 0.0
H1319 H 0.10684 0.70872 0.74134 0.0
C1320 C 0.96011 0.73664 0.75615 0.0
C1321 C 0.98147 0.73057 0.75457 0.0
C1322 C 0.94388 0.73173 0.74091 0.0
C1323 C 0.93496 0.69289 0.70366 0.0
H1324 H 0.87785 0.71828 0.69463 0.0
C1325 C 0.86669 0.64973 0.67075 0.0
C1326 C 0.85115 0.64858 0.68493 0.0
C1327 C 0.88049 0.66493 0.67147 0.0
C1328 C 0.89379 0.71114 0.69681 0.0
H1329 H 1.00301 0.71657 0.73482 0.0
H1330 H 0.97486 0.70888 0.70757 0.0
H1331 H 0.90764 0.73622 0.71006 0.0
H1332 H 0.83638 0.66337 0.70946 0.0
H1333 H 0.86065 0.68985 0.71092 0.0
H1334 H 0.92117 0.66769 0.69111 0.0
C1335 C 0.97041 0.71659 0.72105 0.0
C1336 C 0.91084 0.72134 0.70576 0.0
C1337 C 0.98657 0.72107 0.73658 0.0
C1338 C 0.84823 0.66393 0.69834 0.0
C1339 C 0.8621 0.67913 0.69912 0.0
C1340 C 0.91805 0.68286 0.69451 0.0
C1341 C 0.94877 0.72099 0.72355 0.0
C1342 C 0.9315 0.71205 0.71006 0.0
C1343 C 0.87904 0.6792 0.68645 0.0
C1344 C 0.89716 0.69159 0.69169 0.0
H1345 H 0.95578 0.74401 0.76991 0.0
H1346 H 0.92748 0.73525 0.74358 0.0
H1347 H 0.95045 0.68501 0.70702 0.0
H1348 H 0.86898 0.63824 0.65997 0.0
H1349 H 0.89317 0.66482 0.66126 0.0
C1350 C 0.62415 0.35373 0.22902 0.0
C1351 C 0.63306 0.34275 0.24756 0.0
C1352 C 0.63376 0.37056 0.22195 0.0
C1353 C 0.67005 0.40747 0.24423 0.0
H1354 H 0.66663 0.42802 0.18577 0.0
C1355 C 0.69308 0.48624 0.22471 0.0
C1356 C 0.70423 0.48968 0.20699 0.0
C1357 C 0.68371 0.46842 0.22807 0.0
C1358 C 0.66791 0.42247 0.2022 0.0
H1359 H 0.65949 0.3401 0.27255 0.0
H1360 H 0.6769 0.36851 0.25969 0.0
H1361 H 0.65356 0.39586 0.19374 0.0
H1362 H 0.71376 0.47693 0.17862 0.0
H1363 H 0.6978 0.44583 0.18464 0.0
H1364 H 0.68487 0.43364 0.25276 0.0
C1365 C 0.66217 0.36472 0.25086 0.0
C1366 C 0.66017 0.40403 0.2068 0.0
C1367 C 0.65243 0.34815 0.25805 0.0
C1368 C 0.70517 0.47495 0.19237 0.0
C1369 C 0.69594 0.45703 0.19582 0.0
C1370 C 0.67784 0.42577 0.23965 0.0
C1371 C 0.65253 0.37672 0.23326 0.0
C1372 C 0.66116 0.3962 0.22792 0.0
C1373 C 0.68536 0.45333 0.21393 0.0
C1374 C 0.67684 0.43367 0.21858 0.0
H1375 H 0.60891 0.35021 0.22097 0.0
H1376 H 0.62571 0.37937 0.20841 0.0
H1377 H 0.67078 0.40231 0.26075 0.0
H1378 H 0.69186 0.49723 0.23626 0.0
H1379 H 0.67529 0.46646 0.24192 0.0
C1380 C 0.41795 0.85563 0.30718 0.0
C1381 C 0.42677 0.86206 0.2888 0.0
C1382 C 0.40609 0.8689 0.31822 0.0
C1383 C 0.39987 0.92075 0.32865 0.0
H1384 H 0.34014 0.91368 0.33405 0.0
C1385 C 0.34229 0.98587 0.34155 0.0
C1386 C 0.32459 0.98319 0.35281 0.0
C1387 C 0.35556 0.9699 0.33716 0.0
C1388 C 0.3569 0.91578 0.33314 0.0
H1389 H 0.43063 0.8875 0.26804 0.0
H1390 H 0.41071 0.91051 0.28757 0.0
H1391 H 0.36216 0.88747 0.3208 0.0
H1392 H 0.30732 0.96143 0.36873 0.0
H1393 H 0.33088 0.9335 0.3616 0.0
H1394 H 0.39497 0.94886 0.34099 0.0
C1395 C 0.41262 0.89525 0.29328 0.0
C1396 C 0.36949 0.90072 0.32549 0.0
C1397 C 0.42394 0.88201 0.28204 0.0
C1398 C 0.32081 0.96405 0.36001 0.0
C1399 C 0.33425 0.948 0.35576 0.0
C1400 C 0.38745 0.93563 0.3366 0.0
C1401 C 0.40344 0.88888 0.3114 0.0
C1402 C 0.39094 0.90331 0.32261 0.0
C1403 C 0.35175 0.95067 0.34409 0.0
C1404 C 0.36558 0.93367 0.33833 0.0
H1405 H 0.41983 0.84033 0.31273 0.0
H1406 H 0.39917 0.86363 0.33217 0.0
H1407 H 0.41644 0.92304 0.32681 0.0
H1408 H 0.34567 1.00033 0.33555 0.0
H1409 H 0.36847 0.97267 0.32772 0.0
C1410 C 0.20797 0.08165 0.86144 0.0
C1411 C 0.21431 0.072 0.84389 0.0
C1412 C 0.19167 0.09676 0.85859 0.0
C1413 C 0.14397 0.11299 0.82241 0.0
H1414 H 0.14854 0.16418 0.84524 0.0
C1415 C 0.07201 0.16892 0.81242 0.0
C1416 C 0.07572 0.18746 0.80343 0.0
C1417 C 0.08906 0.15581 0.82074 0.0
C1418 C 0.14705 0.14993 0.83883 0.0
H1419 H 0.20863 0.07099 0.80955 0.0
H1420 H 0.18027 0.09689 0.80476 0.0
H1421 H 0.17847 0.13925 0.85295 0.0
H1422 H 0.1004 0.20716 0.79744 0.0
H1423 H 0.13023 0.18422 0.81217 0.0
H1424 H 0.11281 0.12347 0.80813 0.0
C1425 C 0.18786 0.09284 0.82069 0.0
C1426 C 0.16409 0.13565 0.84335 0.0
C1427 C 0.20424 0.07802 0.82347 0.0
C1428 C 0.09692 0.19303 0.80427 0.0
C1429 C 0.11404 0.17989 0.81273 0.0
C1430 C 0.12691 0.12708 0.81816 0.0
C1431 C 0.1812 0.10224 0.83819 0.0
C1432 C 0.16281 0.11712 0.8349 0.0
C1433 C 0.11029 0.16089 0.82039 0.0
C1434 C 0.12827 0.14578 0.82614 0.0
H1435 H 0.21543 0.07741 0.87737 0.0
H1436 H 0.18682 0.10375 0.87237 0.0
H1437 H 0.14245 0.09881 0.81579 0.0
H1438 H 0.05592 0.16414 0.81223 0.0
H1439 H 0.08563 0.14141 0.82685 0.0
C1440 C 0.72179 0.92367 0.65323 0.0
C1441 C 0.7213 0.94349 0.64592 0.0
C1442 C 0.71534 0.90923 0.63932 0.0
C1443 C 0.70871 0.90067 0.58151 0.0
H1444 H 0.68047 0.85464 0.59876 0.0
C1445 C 0.70443 0.83387 0.53027 0.0
C1446 C 0.68558 0.82373 0.52796 0.0
C1447 C 0.70712 0.84841 0.54482 0.0
C1448 C 0.68818 0.86749 0.59361 0.0
H1449 H 0.71268 0.96359 0.61828 0.0
H1450 H 0.70118 0.9387 0.59438 0.0
H1451 H 0.68763 0.88007 0.6239 0.0
H1452 H 0.65478 0.82108 0.53963 0.0
H1453 H 0.65947 0.8467 0.56513 0.0
H1454 H 0.70917 0.88834 0.55126 0.0
C1455 C 0.70701 0.93414 0.61071 0.0
C1456 C 0.69252 0.882 0.60813 0.0
C1457 C 0.71351 0.94851 0.62453 0.0
C1458 C 0.66947 0.82859 0.54086 0.0
C1459 C 0.67223 0.8432 0.55559 0.0
C1460 C 0.70444 0.88622 0.56709 0.0
C1461 C 0.7082 0.91422 0.61773 0.0
C1462 C 0.70295 0.89879 0.60231 0.0
C1463 C 0.69108 0.85342 0.55766 0.0
C1464 C 0.69431 0.8693 0.57293 0.0
H1465 H 0.72775 0.91921 0.66955 0.0
H1466 H 0.71666 0.89408 0.64535 0.0
H1467 H 0.717 0.91318 0.57639 0.0
H1468 H 0.71731 0.83062 0.52079 0.0
H1469 H 0.72202 0.85559 0.54615 0.0
C1470 C 0.83478 0.17061 0.08002 0.0
C1471 C 0.8364 0.16582 0.05895 0.0
C1472 C 0.83793 0.15602 0.09665 0.0
C1473 C 0.85757 0.10354 0.10948 0.0
H1474 H 0.81366 0.10403 0.14769 0.0
C1475 C 0.82245 0.03495 0.14295 0.0
C1476 C 0.81681 0.03425 0.16375 0.0
C1477 C 0.83118 0.05154 0.13461 0.0
C1478 C 0.82635 0.10385 0.13749 0.0
H1479 H 0.84408 0.14224 0.03903 0.0
H1480 H 0.84898 0.11692 0.06764 0.0
H1481 H 0.81707 0.13293 0.12451 0.0
H1482 H 0.81654 0.04994 0.1925 0.0
H1483 H 0.83146 0.07933 0.17767 0.0
H1484 H 0.86581 0.07392 0.12153 0.0
C1485 C 0.84547 0.13186 0.07156 0.0
C1486 C 0.82834 0.12044 0.12417 0.0
C1487 C 0.84235 0.14638 0.05504 0.0
C1488 C 0.82105 0.05004 0.1765 0.0
C1489 C 0.82939 0.06688 0.16797 0.0
C1490 C 0.85542 0.0869 0.12262 0.0
C1491 C 0.84287 0.13637 0.09254 0.0
C1492 C 0.84347 0.12026 0.10944 0.0
C1493 C 0.83404 0.06795 0.14676 0.0
C1494 C 0.83933 0.08666 0.13625 0.0
H1495 H 0.83019 0.18546 0.08355 0.0
H1496 H 0.83604 0.16008 0.11264 0.0
H1497 H 0.86977 0.10303 0.09874 0.0
H1498 H 0.81918 0.023 0.13278 0.0
H1499 H 0.83437 0.05199 0.11816 0.0
C1500 C 0.16217 0.62851 0.46908 0.0
C1501 C 0.17805 0.64209 0.47119 0.0
C1502 C 0.1643 0.61266 0.45634 0.0
C1503 C 0.19446 0.59231 0.41467 0.0
H1504 H 0.18738 0.54234 0.44396 0.0
C1505 C 0.2308 0.50886 0.41412 0.0
C1506 C 0.22798 0.50561 0.39234 0.0
C1507 C 0.2204 0.52501 0.42194 0.0
C1508 C 0.18928 0.55619 0.43552 0.0
H1509 H 0.2081 0.65018 0.46067 0.0
H1510 H 0.21172 0.62261 0.43831 0.0
H1511 H 0.17717 0.57266 0.45979 0.0
H1512 H 0.21148 0.51637 0.36172 0.0
H1513 H 0.1934 0.54481 0.37543 0.0
H1514 H 0.20735 0.57574 0.39079 0.0
C1515 C 0.19755 0.62429 0.44643 0.0
C1516 C 0.18327 0.57355 0.44448 0.0
C1517 C 0.19546 0.64012 0.45924 0.0
C1518 C 0.21388 0.51844 0.37862 0.0
C1519 C 0.20367 0.53478 0.38641 0.0
C1520 C 0.20032 0.57491 0.40562 0.0
C1521 C 0.18231 0.61008 0.44533 0.0
C1522 C 0.18623 0.59181 0.43439 0.0
C1523 C 0.20712 0.53839 0.4081 0.0
C1524 C 0.19824 0.55668 0.41621 0.0
H1525 H 0.14835 0.62984 0.47777 0.0
H1526 H 0.15211 0.60213 0.45551 0.0
H1527 H 0.19679 0.60616 0.40647 0.0
H1528 H 0.24157 0.49922 0.42508 0.0
H1529 H 0.22353 0.5275 0.43869 0.0
C1530 C 0.36791 0.32945 1.0075 0.0
C1531 C 0.35099 0.32753 0.02006 0.0
C1532 C 0.36594 0.34302 0.98982 0.0
C1533 C 0.33308 0.38774 0.96644 0.0
H1534 H 0.35654 0.37557 0.91435 0.0
C1535 C 0.32515 0.44548 0.89691 0.0
C1536 C 0.3199 0.43936 0.87631 0.0
C1537 C 0.33221 0.43191 0.91383 0.0
C1538 C 0.34977 0.37918 0.92872 0.0
H1539 H 0.3186 0.33841 0.02348 0.0
H1540 H 0.31509 0.36149 0.99287 0.0
H1541 H 0.36184 0.3518 0.94497 0.0
H1542 H 0.31859 0.41424 0.85707 0.0
H1543 H 0.3304 0.39023 0.8868 0.0
H1544 H 0.3202 0.4146 0.95022 0.0
C1545 C 0.33012 0.35293 0.99681 0.0
C1546 C 0.35304 0.36562 0.94642 0.0
C1547 C 0.33211 0.33952 1.01443 0.0
C1548 C 0.32282 0.41937 0.87276 0.0
C1549 C 0.32956 0.40564 0.88986 0.0
C1550 C 0.32972 0.40117 0.94882 0.0
C1551 C 0.34699 0.35499 0.98422 0.0
C1552 C 0.34457 0.36964 0.96551 0.0
C1553 C 0.3337 0.41168 0.91079 0.0
C1554 C 0.33798 0.39718 0.92964 0.0
H1555 H 0.38266 0.32043 1.01125 0.0
H1556 H 0.37936 0.34425 0.98067 0.0
H1557 H 0.32656 0.39162 0.98086 0.0
H1558 H 0.32311 0.46082 0.9001 0.0
H1559 H 0.33589 0.43731 0.92946 0.0
C1560 C 0.51396 0.69103 0.78992 0.0
C1561 C 0.49442 0.69809 0.79637 0.0
C1562 C 0.53261 0.68881 0.80448 0.0
C1563 C 0.55025 0.68497 0.86279 0.0
H1564 H 0.60346 0.70425 0.84759 0.0
C1565 C 0.61354 0.71212 0.92405 0.0
C1566 C 0.63535 0.70747 0.92286 0.0
C1567 C 0.598 0.70688 0.90832 0.0
C1568 C 0.58884 0.69846 0.85198 0.0
H1569 H 0.47934 0.70825 0.82331 0.0
H1570 H 0.51144 0.70456 0.84825 0.0
H1571 H 0.57304 0.70296 0.82014 0.0
H1572 H 0.65799 0.69342 0.90428 0.0
H1573 H 0.63056 0.6845 0.87623 0.0
H1574 H 0.56565 0.68125 0.89471 0.0
C1575 C 0.51247 0.70044 0.83212 0.0
C1576 C 0.57139 0.69773 0.83626 0.0
C1577 C 0.494 0.70272 0.81767 0.0
C1578 C 0.64127 0.69703 0.9057 0.0
C1579 C 0.62562 0.69208 0.8896 0.0
C1580 C 0.56757 0.6858 0.87844 0.0
C1581 C 0.53205 0.69343 0.82582 0.0
C1582 C 0.55164 0.69155 0.84161 0.0
C1583 C 0.6038 0.69708 0.89071 0.0
C1584 C 0.58687 0.6931 0.87338 0.0
H1585 H 0.51489 0.68734 0.77363 0.0
H1586 H 0.5474 0.68332 0.79908 0.0
H1587 H 0.53551 0.67963 0.86744 0.0
H1588 H 0.60844 0.72015 0.93707 0.0
H1589 H 0.5814 0.71116 0.90958 0.0
C1590 C 0.06758 0.8054 0.23836 0.0
C1591 C 0.05041 0.79311 0.23817 0.0
C1592 C 0.08345 0.80263 0.22466 0.0
C1593 C 0.10705 0.76473 0.19283 0.0
H1594 H 0.12742 0.80822 0.16078 0.0
C1595 C 0.1518 0.75145 0.12068 0.0
C1596 C 0.16967 0.76211 0.11732 0.0
C1597 C 0.1386 0.75646 0.13609 0.0
C1598 C 0.12213 0.79593 0.16982 0.0
H1599 H 0.03667 0.76822 0.22328 0.0
H1600 H 0.06409 0.76342 0.19969 0.0
H1601 H 0.10214 0.81452 0.18675 0.0
H1602 H 0.18721 0.78692 0.12735 0.0
H1603 H 0.164 0.79573 0.15458 0.0
H1604 H 0.12678 0.7461 0.17603 0.0
C1605 C 0.06548 0.77513 0.21049 0.0
C1606 C 0.10762 0.79954 0.18471 0.0
C1607 C 0.04961 0.77798 0.224 0.0
C1608 C 0.17361 0.77838 0.12951 0.0
C1609 C 0.16027 0.78344 0.14509 0.0
C1610 C 0.12151 0.76114 0.17807 0.0
C1611 C 0.08266 0.78736 0.21061 0.0
C1612 C 0.09953 0.78393 0.19609 0.0
C1613 C 0.14278 0.77229 0.14882 0.0
C1614 C 0.12892 0.77662 0.16597 0.0
H1615 H 0.06872 0.81725 0.249 0.0
H1616 H 0.0965 0.81226 0.22528 0.0
H1617 H 0.10163 0.75235 0.20164 0.0
H1618 H 0.148 0.73897 0.11149 0.0
H1619 H 0.12502 0.74783 0.13801 0.0
C1620 C 0.49705 0.16729 0.74543 0.0
C1621 C 0.51564 0.17546 0.73957 0.0
C1622 C 0.47939 0.16569 0.73012 0.0
C1623 C 0.46394 0.16442 0.67238 0.0
H1624 H 0.41108 0.1931 0.68098 0.0
C1625 C 0.40805 0.20105 0.60312 0.0
C1626 C 0.3858 0.20282 0.60362 0.0
C1627 C 0.42161 0.19263 0.62048 0.0
C1628 C 0.42549 0.18461 0.67844 0.0
H1629 H 0.53076 0.18751 0.71318 0.0
H1630 H 0.50049 0.18409 0.68655 0.0
H1631 H 0.4395 0.18697 0.71063 0.0
H1632 H 0.36028 0.19653 0.62266 0.0
H1633 H 0.38421 0.18168 0.65337 0.0
H1634 H 0.45041 0.16247 0.64017 0.0
C1635 C 0.49932 0.17911 0.70286 0.0
C1636 C 0.44179 0.18112 0.69544 0.0
C1637 C 0.51664 0.18114 0.71812 0.0
C1638 C 0.37735 0.19528 0.62176 0.0
C1639 C 0.39106 0.18693 0.63938 0.0
C1640 C 0.44766 0.16773 0.6555 0.0
C1641 C 0.48034 0.17173 0.70868 0.0
C1642 C 0.46149 0.17167 0.69233 0.0
C1643 C 0.41342 0.18571 0.639 0.0
C1644 C 0.42858 0.17862 0.65804 0.0
H1645 H 0.49583 0.16298 0.76192 0.0
H1646 H 0.46494 0.15996 0.73504 0.0
H1647 H 0.47885 0.15686 0.66958 0.0
H1648 H 0.41514 0.20663 0.58939 0.0
H1649 H 0.43869 0.19229 0.61963 0.0
C1650 C 0.90576 0.2678 0.42609 0.0
C1651 C 0.88825 0.28005 0.43039 0.0
C1652 C 0.9132 0.26878 0.40616 0.0
C1653 C 0.91522 0.29971 0.35743 0.0
H1654 H 0.92745 0.24993 0.33347 0.0
C1655 C 0.94741 0.29467 0.27504 0.0
C1656 C 0.96366 0.27996 0.27366 0.0
C1657 C 0.93607 0.29506 0.29288 0.0
C1658 C 0.92434 0.26398 0.33996 0.0
H1659 H 0.86539 0.30354 0.41711 0.0
H1660 H 0.87885 0.30558 0.38215 0.0
H1661 H 0.91213 0.25061 0.36702 0.0
H1662 H 0.98034 0.25392 0.28999 0.0
H1663 H 0.96088 0.25468 0.32091 0.0
H1664 H 0.92797 0.31305 0.3306 0.0
C1665 C 0.88661 0.29507 0.39435 0.0
C1666 C 0.91548 0.26436 0.35921 0.0
C1667 C 0.87894 0.29394 0.41438 0.0
C1668 C 0.96789 0.26542 0.29036 0.0
C1669 C 0.9566 0.26582 0.30814 0.0
C1670 C 0.92425 0.29933 0.33816 0.0
C1671 C 0.90355 0.28218 0.3899 0.0
C1672 C 0.91117 0.28219 0.36842 0.0
C1673 C 0.94063 0.28072 0.30979 0.0
C1674 C 0.92931 0.28141 0.32935 0.0
H1675 H 0.91348 0.25697 0.43798 0.0
H1676 H 0.92653 0.25889 0.40344 0.0
H1677 H 0.91217 0.31368 0.36413 0.0
H1678 H 0.94358 0.30604 0.26245 0.0
H1679 H 0.92371 0.30662 0.29339 0.0
C1680 C 0.21585 0.07676 0.35986 0.0
C1681 C 0.22989 0.07259 0.34468 0.0
C1682 C 0.19821 0.09036 0.35473 0.0
C1683 C 0.1776 0.131 0.31491 0.0
H1684 H 0.12151 0.11871 0.32925 0.0
C1685 C 0.10064 0.16504 0.26731 0.0
C1686 C 0.08435 0.17257 0.27858 0.0
C1687 C 0.11831 0.15398 0.27792 0.0
C1688 C 0.13713 0.12244 0.32536 0.0
H1689 H 0.23624 0.07964 0.31219 0.0
H1690 H 0.20585 0.10266 0.30341 0.0
H1691 H 0.15298 0.09757 0.34387 0.0
H1692 H 0.07362 0.17406 0.3098 0.0
H1693 H 0.10455 0.15438 0.32839 0.0
H1694 H 0.16175 0.15534 0.29575 0.0
C1695 C 0.2085 0.09586 0.31938 0.0
C1696 C 0.15516 0.11039 0.33379 0.0
C1697 C 0.22596 0.08243 0.32444 0.0
C1698 C 0.086 0.16854 0.30072 0.0
C1699 C 0.1036 0.1572 0.31133 0.0
C1700 C 0.15965 0.14286 0.30636 0.0
C1701 C 0.19438 0.10009 0.33439 0.0
C1702 C 0.17556 0.11424 0.32817 0.0
C1703 C 0.12004 0.14999 0.30004 0.0
C1704 C 0.13916 0.13846 0.31106 0.0
H1705 H 0.21837 0.06943 0.37557 0.0
H1706 H 0.18766 0.09334 0.36669 0.0
H1707 H 0.19311 0.13472 0.31068 0.0
H1708 H 0.09995 0.16803 0.25029 0.0
H1709 H 0.13062 0.14844 0.26876 0.0
C1710 C 0.3129 0.9659 0.85926 0.0
C1711 C 0.29095 0.96872 0.85212 0.0
C1712 C 0.32432 0.9482 0.85608 0.0
C1713 C 0.32149 0.90755 0.82002 0.0
H1714 H 0.36198 0.8785 0.86235 0.0
C1715 C 0.35392 0.82926 0.8064 0.0
C1716 C 0.37537 0.82364 0.81373 0.0
C1717 C 0.34442 0.847 0.81192 0.0
C1718 C 0.35093 0.88654 0.85022 0.0
H1719 H 0.2636 0.95456 0.83733 0.0
H1720 H 0.28329 0.92421 0.83194 0.0
H1721 H 0.34467 0.90954 0.87093 0.0
H1722 H 0.4037 0.83254 0.83245 0.0
H1723 H 0.38726 0.86347 0.84186 0.0
H1724 H 0.32773 0.8849 0.7992 0.0
C1725 C 0.29188 0.93568 0.83952 0.0
C1726 C 0.341 0.90434 0.85519 0.0
C1727 C 0.28056 0.95315 0.84273 0.0
C1728 C 0.38703 0.83622 0.82679 0.0
C1729 C 0.37757 0.854 0.83222 0.0
C1730 C 0.33146 0.8899 0.81502 0.0
C1731 C 0.31398 0.9331 0.84563 0.0
C1732 C 0.3259 0.9149 0.84023 0.0
C1733 C 0.35614 0.85972 0.82479 0.0
C1734 C 0.34611 0.87895 0.83011 0.0
H1735 H 0.32138 0.97758 0.86653 0.0
H1736 H 0.34136 0.94663 0.86103 0.0
H1737 H 0.31027 0.9155 0.80796 0.0
H1738 H 0.34437 0.81985 0.79655 0.0
H1739 H 0.32776 0.85063 0.80621 0.0
C1740 C 0.67917 0.44405 0.70018 0.0
C1741 C 0.6664 0.45861 0.68745 0.0
C1742 C 0.66992 0.42832 0.70967 0.0
C1743 C 0.62107 0.40102 0.70403 0.0
H1744 H 0.64488 0.37675 0.75888 0.0
C1745 C 0.58499 0.33396 0.73992 0.0
C1746 C 0.59978 0.31796 0.74598 0.0
C1747 C 0.59199 0.35264 0.73621 0.0
C1748 C 0.63808 0.38341 0.74356 0.0
H1749 H 0.63393 0.46852 0.67518 0.0
H1750 H 0.61761 0.44123 0.69212 0.0
H1751 H 0.65896 0.40694 0.74557 0.0
H1752 H 0.63342 0.30923 0.75412 0.0
H1753 H 0.64565 0.34197 0.74777 0.0
H1754 H 0.60033 0.37745 0.70195 0.0
C1755 C 0.63484 0.4417 0.69439 0.0
C1756 C 0.64618 0.40064 0.73588 0.0
C1757 C 0.64414 0.45735 0.68471 0.0
C1758 C 0.62163 0.32128 0.7496 0.0
C1759 C 0.62863 0.34002 0.74595 0.0
C1760 C 0.61288 0.38394 0.71178 0.0
C1761 C 0.64764 0.42687 0.7068 0.0
C1762 C 0.63798 0.40949 0.71586 0.0
C1763 C 0.61391 0.35574 0.73857 0.0
C1764 C 0.62148 0.37481 0.73148 0.0
H1765 H 0.69641 0.44454 0.70234 0.0
H1766 H 0.68031 0.417 0.71876 0.0
H1767 H 0.61462 0.40718 0.68839 0.0
H1768 H 0.56801 0.33192 0.73744 0.0
H1769 H 0.58027 0.36458 0.73091 0.0
C1770 C 0.81033 0.57434 0.20172 0.0
C1771 C 0.78949 0.57832 0.20702 0.0
C1772 C 0.82603 0.58796 0.20523 0.0
C1773 C 0.83275 0.6407 0.21534 0.0
H1774 H 0.89047 0.62225 0.2379 0.0
C1775 C 0.89529 0.69373 0.24828 0.0
C1776 C 0.91653 0.69037 0.24383 0.0
C1777 C 0.88001 0.68005 0.24338 0.0
C1778 C 0.8745 0.6277 0.23137 0.0
H1779 H 0.76894 0.60009 0.21996 0.0
H1780 H 0.79606 0.62346 0.22613 0.0
H1781 H 0.86376 0.59865 0.22934 0.0
H1782 H 0.93828 0.66952 0.23115 0.0
H1783 H 0.91169 0.64598 0.22232 0.0
H1784 H 0.84343 0.66973 0.21747 0.0
C1785 C 0.80034 0.60997 0.21903 0.0
C1786 C 0.85914 0.61411 0.22641 0.0
C1787 C 0.78474 0.59641 0.21559 0.0
C1788 C 0.92205 0.67282 0.23456 0.0
C1789 C 0.90681 0.65914 0.22971 0.0
C1790 C 0.84809 0.65428 0.22031 0.0
C1791 C 0.82127 0.60596 0.21404 0.0
C1792 C 0.83799 0.6204 0.21844 0.0
C1793 C 0.88552 0.66256 0.23396 0.0
C1794 C 0.86918 0.648 0.22851 0.0
H1795 H 0.81463 0.56059 0.19513 0.0
H1796 H 0.84188 0.5844 0.20094 0.0
H1797 H 0.81677 0.64617 0.20888 0.0
H1798 H 0.89035 0.70709 0.25528 0.0
H1799 H 0.86387 0.68313 0.24715 0.0
C1800 C 0.30907 0.13479 0.23874 0.0
C1801 C 0.31994 0.11617 0.24006 0.0
C1802 C 0.31275 0.14911 0.22316 0.0
C1803 C 0.3339 0.15581 0.17093 0.0
H1804 H 0.33784 0.20954 0.1864 0.0
C1805 C 0.35748 0.2179 0.1128 0.0
C1806 C 0.34657 0.23637 0.11317 0.0
C1807 C 0.35493 0.2028 0.12806 0.0
C1808 C 0.33656 0.19466 0.18168 0.0
H1809 H 0.34287 0.09798 0.22548 0.0
H1810 H 0.34947 0.12297 0.19859 0.0
H1811 H 0.33161 0.18434 0.21312 0.0
H1812 H 0.32396 0.25309 0.12977 0.0
H1813 H 0.31938 0.22701 0.15578 0.0
H1814 H 0.3387 0.16621 0.1394 0.0
C1815 C 0.33802 0.12651 0.20956 0.0
C1816 C 0.33296 0.18017 0.19707 0.0
C1817 C 0.33442 0.11222 0.22519 0.0
C1818 C 0.33289 0.23921 0.129 0.0
C1819 C 0.33032 0.2242 0.14412 0.0
C1820 C 0.33744 0.17034 0.15548 0.0
C1821 C 0.32732 0.14519 0.20837 0.0
C1822 C 0.33144 0.16056 0.19191 0.0
C1823 C 0.34139 0.20581 0.14403 0.0
C1824 C 0.33864 0.19002 0.1606 0.0
H1825 H 0.29791 0.13841 0.24996 0.0
H1826 H 0.30401 0.16324 0.22259 0.0
H1827 H 0.33262 0.1409 0.16629 0.0
H1828 H 0.36812 0.21514 0.10086 0.0
H1829 H 0.36383 0.18887 0.12755 0.0
C1830 C 0.20773 0.9219 0.76356 0.0
C1831 C 0.19404 0.93682 0.76988 0.0
C1832 C 0.19988 0.90409 0.75791 0.0
C1833 C 0.15098 0.88598 0.73352 0.0
H1834 H 0.18664 0.8376 0.73733 0.0
C1835 C 0.1384 0.83138 0.66943 0.0
C1836 C 0.15726 0.82888 0.65976 0.0
C1837 C 0.1391 0.83836 0.68982 0.0
C1838 C 0.17629 0.85088 0.73638 0.0
H1839 H 0.16166 0.94444 0.77641 0.0
H1840 H 0.14786 0.91317 0.76641 0.0
H1841 H 0.19513 0.86283 0.76217 0.0
H1842 H 0.19172 0.82979 0.66427 0.0
H1843 H 0.19302 0.84203 0.69963 0.0
H1844 H 0.13307 0.87471 0.7068 0.0
C1845 C 0.16465 0.91535 0.76577 0.0
C1846 C 0.18117 0.86532 0.75054 0.0
C1847 C 0.17256 0.9332 0.77153 0.0
C1848 C 0.17694 0.83191 0.67133 0.0
C1849 C 0.17767 0.83865 0.6917 0.0
C1850 C 0.14608 0.87153 0.7194 0.0
C1851 C 0.17814 0.90078 0.75842 0.0
C1852 C 0.16934 0.88349 0.74836 0.0
C1853 C 0.15871 0.84266 0.70086 0.0
C1854 C 0.15949 0.85437 0.71986 0.0
H1855 H 0.22446 0.92417 0.76255 0.0
H1856 H 0.21067 0.89332 0.75203 0.0
H1857 H 0.14155 0.89981 0.73138 0.0
H1858 H 0.12305 0.82901 0.66079 0.0
H1859 H 0.12426 0.84126 0.69655 0.0
C1860 C 0.77404 0.51008 0.74373 0.0
C1861 C 0.76708 0.50528 0.72292 0.0
C1862 C 0.77623 0.49581 0.76058 0.0
C1863 C 0.76097 0.44561 0.77614 0.0
H1864 H 0.80799 0.44834 0.82058 0.0
C1865 C 0.78837 0.38301 0.84108 0.0
C1866 C 0.79388 0.38865 0.86192 0.0
C1867 C 0.78349 0.39712 0.82414 0.0
C1868 C 0.79465 0.44748 0.80841 0.0
H1869 H 0.75678 0.48162 0.7036 0.0
H1870 H 0.7612 0.45663 0.73284 0.0
H1871 H 0.80312 0.47284 0.79097 0.0
H1872 H 0.79728 0.41371 0.88128 0.0
H1873 H 0.78917 0.43819 0.85175 0.0
H1874 H 0.75295 0.41984 0.79354 0.0
C1875 C 0.76458 0.47152 0.73627 0.0
C1876 C 0.79178 0.46158 0.79141 0.0
C1877 C 0.7622 0.48585 0.71942 0.0
C1878 C 0.79362 0.40877 0.86543 0.0
C1879 C 0.78893 0.42284 0.8485 0.0
C1880 C 0.76399 0.43135 0.79308 0.0
C1881 C 0.77174 0.47627 0.75709 0.0
C1882 C 0.77483 0.46096 0.77508 0.0
C1883 C 0.78415 0.41719 0.8276 0.0
C1884 C 0.78079 0.4322 0.80948 0.0
H1885 H 0.77772 0.52492 0.74709 0.0
H1886 H 0.78131 0.5002 0.7764 0.0
H1887 H 0.74756 0.44475 0.76407 0.0
H1888 H 0.78863 0.36768 0.83768 0.0
H1889 H 0.77999 0.3923 0.8082 0.0
C1890 C 0.71119 0.64126 0.31248 0.0
C1891 C 0.70202 0.623 0.31272 0.0
C1892 C 0.70802 0.65448 0.3282 0.0
C1893 C 0.67323 0.66654 0.37047 0.0
H1894 H 0.72102 0.69606 0.39119 0.0
C1895 C 0.67131 0.71815 0.44169 0.0
C1896 C 0.68135 0.73587 0.43948 0.0
C1897 C 0.67302 0.7037 0.4268 0.0
C1898 C 0.70738 0.68812 0.38549 0.0
H1899 H 0.68227 0.60453 0.33014 0.0
H1900 H 0.67671 0.62753 0.35736 0.0
H1901 H 0.7254 0.67276 0.36417 0.0
H1902 H 0.70059 0.75223 0.41921 0.0
H1903 H 0.7033 0.72753 0.39369 0.0
H1904 H 0.65523 0.68206 0.39192 0.0
C1905 C 0.68616 0.63176 0.34481 0.0
C1906 C 0.70991 0.67471 0.36987 0.0
C1907 C 0.68934 0.61853 0.3291 0.0
C1908 C 0.69275 0.73879 0.42178 0.0
C1909 C 0.69447 0.72447 0.40707 0.0
C1910 C 0.67069 0.68002 0.38615 0.0
C1911 C 0.69559 0.64989 0.34473 0.0
C1912 C 0.69283 0.66384 0.3619 0.0
C1913 C 0.68489 0.70658 0.4094 0.0
C1914 C 0.68767 0.69121 0.3937 0.0
H1915 H 0.72073 0.64547 0.30001 0.0
H1916 H 0.71523 0.66842 0.32726 0.0
H1917 H 0.65963 0.6586 0.36469 0.0
H1918 H 0.66239 0.71532 0.45506 0.0
H1919 H 0.66544 0.69009 0.42919 0.0
C1920 C 0.21137 0.28495 0.12751 0.0
C1921 C 0.22202 0.30239 0.12942 0.0
C1922 C 0.1917 0.283 0.13556 0.0
C1923 C 0.1456 0.31271 0.15157 0.0
H1924 H 0.13278 0.26417 0.18029 0.0
C1925 C 0.07152 0.30725 0.19749 0.0
C1926 C 0.06056 0.28994 0.19674 0.0
C1927 C 0.09087 0.30854 0.18873 0.0
C1928 C 0.13595 0.27777 0.17206 0.0
H1929 H 0.22049 0.33114 0.14219 0.0
H1930 H 0.18636 0.32776 0.15607 0.0
H1931 H 0.16714 0.2666 0.16635 0.0
H1932 H 0.06146 0.26044 0.18583 0.0
H1933 H 0.09496 0.2628 0.17032 0.0
H1934 H 0.11446 0.32389 0.15721 0.0
C1935 C 0.19297 0.31572 0.14795 0.0
C1936 C 0.15571 0.27916 0.16408 0.0
C1937 C 0.21261 0.31765 0.13996 0.0
C1938 C 0.0694 0.27402 0.18676 0.0
C1939 C 0.08876 0.27532 0.17798 0.0
C1940 C 0.12585 0.31131 0.15951 0.0
C1941 C 0.18212 0.29844 0.14572 0.0
C1942 C 0.16088 0.2967 0.15384 0.0
C1943 C 0.09985 0.29256 0.17893 0.0
C1944 C 0.12076 0.29386 0.16998 0.0
H1945 H 0.21796 0.27296 0.1193 0.0
H1946 H 0.18374 0.26954 0.13337 0.0
H1947 H 0.14881 0.32634 0.14343 0.0
H1948 H 0.06534 0.31979 0.20514 0.0
H1949 H 0.09903 0.32197 0.19007 0.0
C1950 C 0.76243 0.26944 0.8973 0.0
C1951 C 0.76437 0.26748 0.91963 0.0
C1952 C 0.74455 0.26267 0.88513 0.0
C1953 C 0.7019 0.22758 0.88979 0.0
H1954 H 0.67483 0.25452 0.83765 0.0
C1955 C 0.62269 0.20328 0.84477 0.0
C1956 C 0.62074 0.20497 0.82242 0.0
C1957 C 0.64015 0.21084 0.85683 0.0
C1958 C 0.68232 0.24664 0.85207 0.0
H1959 H 0.74826 0.25798 0.94657 0.0
H1960 H 0.71738 0.2467 0.92562 0.0
H1961 H 0.7052 0.26836 0.85747 0.0
H1962 H 0.63627 0.21532 0.79538 0.0
H1963 H 0.6664 0.22796 0.81616 0.0
H1964 H 0.67912 0.20582 0.88438 0.0
C1965 C 0.72982 0.25284 0.91736 0.0
C1966 C 0.6998 0.25463 0.86344 0.0
C1967 C 0.74756 0.25949 0.92941 0.0
C1968 C 0.63697 0.21389 0.81255 0.0
C1969 C 0.6543 0.22134 0.82451 0.0
C1970 C 0.68445 0.21958 0.87841 0.0
C1971 C 0.72822 0.25385 0.89506 0.0
C1972 C 0.70982 0.24525 0.88252 0.0
C1973 C 0.65606 0.22022 0.84682 0.0
C1974 C 0.67439 0.22896 0.85935 0.0
H1975 H 0.7751 0.27543 0.88925 0.0
H1976 H 0.7439 0.26371 0.86797 0.0
H1977 H 0.7094 0.2197 0.90421 0.0
H1978 H 0.61049 0.19661 0.85292 0.0
H1979 H 0.64086 0.20976 0.87399 0.0
C1980 C 0.81441 0.78584 0.39933 0.0
C1981 C 0.80804 0.8012 0.41155 0.0
C1982 C 0.83146 0.78765 0.38708 0.0
C1983 C 0.87884 0.81682 0.38059 0.0
H1984 H 0.87647 0.79296 0.32639 0.0
C1985 C 0.94406 0.82462 0.32202 0.0
C1986 C 0.95087 0.80696 0.31376 0.0
C1987 C 0.92628 0.82545 0.33364 0.0
C1988 C 0.87743 0.79966 0.34153 0.0
H1989 H 0.81441 0.83074 0.41998 0.0
H1990 H 0.84388 0.83397 0.39853 0.0
H1991 H 0.84631 0.79124 0.34714 0.0
H1992 H 0.94398 0.77637 0.31119 0.0
H1993 H 0.91341 0.77793 0.33107 0.0
H1994 H 0.91005 0.82527 0.37477 0.0
C1995 C 0.83607 0.82031 0.39875 0.0
C1996 C 0.86015 0.79858 0.35352 0.0
C1997 C 0.81911 0.81846 0.41108 0.0
C1998 C 0.9394 0.79027 0.31731 0.0
C1999 C 0.92165 0.79116 0.32861 0.0
C2000 C 0.89611 0.81801 0.36849 0.0
C2001 C 0.84253 0.80493 0.38657 0.0
C2002 C 0.86069 0.80688 0.37339 0.0
C2003 C 0.91478 0.80872 0.3369 0.0
C2004 C 0.89575 0.80917 0.34896 0.0
H2005 H 0.80642 0.77226 0.39949 0.0
H2006 H 0.83616 0.77532 0.37826 0.0
H2007 H 0.88001 0.82324 0.39588 0.0
H2008 H 0.95248 0.83775 0.3196 0.0
H2009 H 0.92134 0.83923 0.33978 0.0
C2010 C 0.36661 0.73238 0.71796 0.0
C2011 C 0.37945 0.71502 0.71696 0.0
C2012 C 0.34721 0.73591 0.70491 0.0
C2013 C 0.30626 0.71122 0.67053 0.0
H2014 H 0.29028 0.76413 0.647 0.0
C2015 C 0.23989 0.72853 0.60069 0.0
C2016 C 0.22565 0.74506 0.60124 0.0
C2017 C 0.25764 0.72496 0.61594 0.0
C2018 C 0.29435 0.74932 0.65366 0.0
H2019 H 0.38172 0.68769 0.7014 0.0
H2020 H 0.34812 0.694 0.6783 0.0
H2021 H 0.32327 0.75754 0.67088 0.0
H2022 H 0.21902 0.77075 0.61853 0.0
H2023 H 0.25032 0.76457 0.64522 0.0
H2024 H 0.27753 0.70298 0.65285 0.0
C2025 C 0.35286 0.70478 0.68948 0.0
C2026 C 0.31331 0.74551 0.6674 0.0
C2027 C 0.37224 0.70118 0.70268 0.0
C2028 C 0.22963 0.7579 0.61761 0.0
C2029 C 0.24762 0.7544 0.63283 0.0
C2030 C 0.28739 0.71502 0.65668 0.0
C2031 C 0.3401 0.72225 0.69033 0.0
C2032 C 0.31963 0.72637 0.67597 0.0
C2033 C 0.26184 0.73786 0.63217 0.0
C2034 C 0.28126 0.73409 0.64794 0.0
H2035 H 0.37148 0.74334 0.72889 0.0
H2036 H 0.33772 0.74934 0.70642 0.0
H2037 H 0.31027 0.69638 0.67709 0.0
H2038 H 0.23738 0.71825 0.58839 0.0
H2039 H 0.26836 0.71223 0.61475 0.0
C2040 C 0.81858 0.94477 0.67761 0.0
C2041 C 0.80026 0.94269 0.68808 0.0
C2042 C 0.83656 0.93161 0.68268 0.0
C2043 C 0.85415 0.88273 0.70906 0.0
H2044 H 0.90813 0.90565 0.72419 0.0
C2045 C 0.92241 0.84118 0.76419 0.0
C2046 C 0.94361 0.84322 0.75998 0.0
C2047 C 0.90556 0.85268 0.75266 0.0
C2048 C 0.89329 0.89894 0.71971 0.0
H2049 H 0.78594 0.92462 0.71109 0.0
H2050 H 0.81693 0.90176 0.71966 0.0
H2051 H 0.8774 0.9264 0.7075 0.0
H2052 H 0.96364 0.85886 0.74006 0.0
H2053 H 0.93421 0.87898 0.71995 0.0
H2054 H 0.86982 0.85537 0.72161 0.0
C2055 C 0.8176 0.91348 0.70764 0.0
C2056 C 0.87568 0.91084 0.7101 0.0
C2057 C 0.79986 0.9267 0.70283 0.0
C2058 C 0.94753 0.85711 0.74394 0.0
C2059 C 0.93066 0.86862 0.73238 0.0
C2060 C 0.87173 0.87084 0.71861 0.0
C2061 C 0.83633 0.91597 0.69799 0.0
C2062 C 0.85578 0.90295 0.70515 0.0
C2063 C 0.90944 0.86652 0.73656 0.0
C2064 C 0.89138 0.87887 0.72454 0.0
H2065 H 0.81936 0.95701 0.66625 0.0
H2066 H 0.85074 0.93382 0.67488 0.0
H2067 H 0.83912 0.87615 0.70513 0.0
H2068 H 0.91883 0.83087 0.77665 0.0
H2069 H 0.88949 0.85094 0.75664 0.0
C2070 C 0.7193 0.05266 0.16985 0.0
C2071 C 0.74083 0.04949 0.17842 0.0
C2072 C 0.70816 0.07083 0.17146 0.0
C2073 C 0.71659 0.123 0.18311 0.0
H2074 H 0.66033 0.1227 0.20221 0.0
C2075 C 0.67887 0.18927 0.22174 0.0
C2076 C 0.65682 0.19403 0.21677 0.0
C2077 C 0.6884 0.17217 0.21472 0.0
C2078 C 0.67592 0.12311 0.1966 0.0
H2079 H 0.76778 0.06326 0.19446 0.0
H2080 H 0.7486 0.09446 0.19727 0.0
H2081 H 0.6779 0.09213 0.19297 0.0
H2082 H 0.62753 0.18423 0.20063 0.0
H2083 H 0.64418 0.15462 0.1882 0.0
H2084 H 0.71483 0.15387 0.18715 0.0
C2085 C 0.74016 0.08314 0.18924 0.0
C2086 C 0.68598 0.10555 0.19123 0.0
C2087 C 0.75115 0.06509 0.18778 0.0
C2088 C 0.6446 0.18122 0.20453 0.0
C2089 C 0.65411 0.16408 0.1976 0.0
C2090 C 0.70657 0.14051 0.18852 0.0
C2091 C 0.71843 0.08624 0.18143 0.0
C2092 C 0.70662 0.1052 0.18477 0.0
C2093 C 0.67613 0.15928 0.20264 0.0
C2094 C 0.68624 0.14078 0.19567 0.0
H2095 H 0.71088 0.04093 0.16261 0.0
H2096 H 0.69147 0.07277 0.16509 0.0
H2097 H 0.73231 0.12339 0.17781 0.0
H2098 H 0.68881 0.19881 0.23102 0.0
H2099 H 0.70537 0.16886 0.21912 0.0
C2100 C 0.4034 0.69907 0.28901 0.0
C2101 C 0.42502 0.7004 0.28609 0.0
C2102 C 0.3953 0.68086 0.29287 0.0
C2103 C 0.41387 0.63185 0.31587 0.0
H2104 H 0.35482 0.62082 0.29989 0.0
C2105 C 0.37627 0.56234 0.34744 0.0
C2106 C 0.35647 0.56603 0.3552 0.0
C2107 C 0.38531 0.57705 0.33591 0.0
C2108 C 0.37136 0.62371 0.30445 0.0
H2109 H 0.45473 0.68371 0.28331 0.0
H2110 H 0.44051 0.6518 0.2898 0.0
H2111 H 0.36926 0.64943 0.28347 0.0
H2112 H 0.33099 0.58824 0.35747 0.0
H2113 H 0.34663 0.61375 0.33725 0.0
H2114 H 0.41578 0.60633 0.33716 0.0
C2115 C 0.42994 0.66486 0.2896 0.0
C2116 C 0.37962 0.64008 0.29507 0.0
C2117 C 0.43807 0.6831 0.28584 0.0
C2118 C 0.34604 0.58478 0.35136 0.0
C2119 C 0.35497 0.59939 0.33974 0.0
C2120 C 0.40563 0.61541 0.32514 0.0
C2121 C 0.40863 0.66358 0.29379 0.0
C2122 C 0.40079 0.64465 0.30112 0.0
C2123 C 0.37463 0.59567 0.33181 0.0
C2124 C 0.38413 0.61151 0.31996 0.0
H2125 H 0.39302 0.71216 0.28953 0.0
H2126 H 0.37888 0.68046 0.29631 0.0
H2127 H 0.43016 0.63506 0.32111 0.0
H2128 H 0.38458 0.54797 0.34988 0.0
H2129 H 0.40047 0.5738 0.32992 0.0
C2130 C 0.10818 0.34256 0.80265 0.0
C2131 C 0.11395 0.32488 0.79374 0.0
C2132 C 0.12325 0.35643 0.80729 0.0
C2133 C 0.1763 0.3716 0.79435 0.0
H2134 H 0.17552 0.40026 0.84541 0.0
C2135 C 0.24511 0.41938 0.82212 0.0
C2136 C 0.2401 0.43774 0.82997 0.0
C2137 C 0.22951 0.40589 0.81842 0.0
C2138 C 0.17583 0.39256 0.83096 0.0
H2139 H 0.14041 0.30804 0.78296 0.0
H2140 H 0.16667 0.33214 0.79108 0.0
H2141 H 0.14905 0.37624 0.83748 0.0
H2142 H 0.21455 0.45594 0.84054 0.0
H2143 H 0.18718 0.4323 0.83402 0.0
H2144 H 0.20305 0.38785 0.78782 0.0
C2145 C 0.15036 0.33543 0.79421 0.0
C2146 C 0.16062 0.37875 0.82638 0.0
C2147 C 0.13526 0.32155 0.78954 0.0
C2148 C 0.21904 0.44197 0.83455 0.0
C2149 C 0.20335 0.42837 0.83084 0.0
C2150 C 0.19149 0.38537 0.79893 0.0
C2151 C 0.14459 0.35309 0.80316 0.0
C2152 C 0.16069 0.36798 0.80804 0.0
C2153 C 0.20832 0.41025 0.8224 0.0
C2154 C 0.19159 0.39597 0.81737 0.0
H2155 H 0.09186 0.34587 0.80575 0.0
H2156 H 0.11805 0.36995 0.8138 0.0
H2157 H 0.17665 0.36397 0.77985 0.0
H2158 H 0.26114 0.41542 0.81853 0.0
H2159 H 0.23412 0.39196 0.81238 0.0
C2160 C 0.67146 0.79541 0.92133 0.0
C2161 C 0.68267 0.77705 0.92126 0.0
C2162 C 0.67399 0.81044 0.90601 0.0
C2163 C 0.69303 0.81865 0.85277 0.0
H2164 H 0.69696 0.87233 0.86847 0.0
C2165 C 0.72185 0.87863 0.7968 0.0
C2166 C 0.71104 0.89727 0.79543 0.0
C2167 C 0.71777 0.86423 0.81212 0.0
C2168 C 0.69567 0.85744 0.86375 0.0
H2169 H 0.70561 0.76037 0.90499 0.0
H2170 H 0.71013 0.78635 0.87885 0.0
H2171 H 0.69043 0.84697 0.89511 0.0
H2172 H 0.68776 0.91543 0.80959 0.0
H2173 H 0.68047 0.89031 0.83602 0.0
H2174 H 0.69845 0.82905 0.82149 0.0
C2175 C 0.69903 0.78913 0.89037 0.0
C2176 C 0.69188 0.84289 0.87904 0.0
C2177 C 0.6965 0.77419 0.90556 0.0
C2178 C 0.69618 0.90117 0.80994 0.0
C2179 C 0.69218 0.88682 0.8253 0.0
C2180 C 0.69688 0.83316 0.83753 0.0
C2181 C 0.68778 0.80745 0.89026 0.0
C2182 C 0.69069 0.82325 0.87381 0.0
C2183 C 0.70286 0.86813 0.82657 0.0
C2184 C 0.6984 0.85274 0.84282 0.0
H2185 H 0.66069 0.79817 0.93315 0.0
H2186 H 0.66493 0.82432 0.90634 0.0
H2187 H 0.69178 0.80378 0.84798 0.0
H2188 H 0.7333 0.87506 0.78584 0.0
H2189 H 0.72649 0.85008 0.81277 0.0
C2190 C 0.83533 0.09086 0.26116 0.0
C2191 C 0.82254 0.08003 0.27371 0.0
C2192 C 0.84256 0.10878 0.26755 0.0
C2193 C 0.83272 0.14792 0.30376 0.0
H2194 H 0.89416 0.15183 0.30977 0.0
C2195 C 0.89532 0.17344 0.37091 0.0
C2196 C 0.88367 0.19006 0.37659 0.0
C2197 C 0.89032 0.16581 0.35114 0.0
C2198 C 0.87695 0.15112 0.30793 0.0
H2199 H 0.8073 0.07962 0.30277 0.0
H2200 H 0.81961 0.11084 0.3137 0.0
H2201 H 0.87833 0.12638 0.28874 0.0
H2202 H 0.85936 0.21305 0.36502 0.0
H2203 H 0.85106 0.19998 0.33035 0.0
H2204 H 0.8313 0.17149 0.32424 0.0
C2205 C 0.82382 0.10564 0.29878 0.0
C2206 C 0.86788 0.13665 0.29577 0.0
C2207 C 0.81678 0.08771 0.29252 0.0
C2208 C 0.86861 0.20016 0.36121 0.0
C2209 C 0.8637 0.19259 0.34137 0.0
C2210 C 0.84175 0.16234 0.31589 0.0
C2211 C 0.83691 0.11628 0.28647 0.0
C2212 C 0.8458 0.13432 0.29453 0.0
C2213 C 0.87364 0.17471 0.33662 0.0
C2214 C 0.86407 0.16346 0.31901 0.0
H2215 H 0.83975 0.08551 0.24638 0.0
H2216 H 0.85259 0.11673 0.25777 0.0
H2217 H 0.8156 0.14662 0.30273 0.0
H2218 H 0.90736 0.16561 0.38226 0.0
H2219 H 0.89831 0.152 0.34807 0.0
C2220 C 0.25177 0.63265 0.19323 0.0
C2221 C 0.23765 0.62895 0.17529 0.0
C2222 C 0.25619 0.61865 0.21031 0.0
C2223 C 0.25394 0.56584 0.22486 0.0
H2224 H 0.25302 0.58258 0.28222 0.0
C2225 C 0.25088 0.51055 0.29604 0.0
C2226 C 0.26263 0.51388 0.31555 0.0
C2227 C 0.24884 0.52471 0.27911 0.0
C2228 C 0.25365 0.57766 0.26635 0.0
H2229 H 0.21701 0.60753 0.16152 0.0
H2230 H 0.22497 0.58315 0.19106 0.0
H2231 H 0.24825 0.60692 0.25228 0.0
H2232 H 0.28152 0.53484 0.3324 0.0
H2233 H 0.27825 0.55941 0.30281 0.0
H2234 H 0.25937 0.53661 0.23882 0.0
C2235 C 0.23283 0.59678 0.19181 0.0
C2236 C 0.2509 0.59163 0.24917 0.0
C2237 C 0.22832 0.61079 0.17481 0.0
C2238 C 0.27225 0.53179 0.31769 0.0
C2239 C 0.2703 0.54595 0.30071 0.0
C2240 C 0.2568 0.55189 0.24201 0.0
C2241 C 0.2467 0.60059 0.20984 0.0
C2242 C 0.25078 0.58586 0.2282 0.0
C2243 C 0.2586 0.54257 0.28116 0.0
C2244 C 0.25645 0.55757 0.26298 0.0
H2245 H 0.25948 0.64635 0.19406 0.0
H2246 H 0.26716 0.62194 0.22386 0.0
H2247 H 0.2543 0.56093 0.20893 0.0
H2248 H 0.24312 0.49699 0.2938 0.0
H2249 H 0.23937 0.52172 0.26447 0.0
C2250 C 0.31347 0.38959 0.70626 0.0
C2251 C 0.32785 0.39116 0.72468 0.0
C2252 C 0.31792 0.37629 0.69099 0.0
C2253 C 0.35052 0.33063 0.68369 0.0
H2254 H 0.33541 0.34489 0.62367 0.0
C2255 C 0.34674 0.27296 0.62014 0.0
C2256 C 0.35354 0.2775 0.60012 0.0
C2257 C 0.34556 0.28711 0.63517 0.0
C2258 C 0.33995 0.34069 0.64034 0.0
H2259 H 0.35824 0.37956 0.74129 0.0
H2260 H 0.36602 0.35648 0.71468 0.0
H2261 H 0.32952 0.36892 0.64991 0.0
H2262 H 0.36473 0.30074 0.58052 0.0
H2263 H 0.36263 0.3256 0.60686 0.0
H2264 H 0.36093 0.30243 0.67417 0.0
C2265 C 0.35119 0.36552 0.71209 0.0
C2266 C 0.33632 0.35444 0.65545 0.0
C2267 C 0.34681 0.37893 0.72732 0.0
C2268 C 0.35951 0.29666 0.59575 0.0
C2269 C 0.35812 0.31096 0.61082 0.0
C2270 C 0.35402 0.31687 0.6686 0.0
C2271 C 0.33684 0.36402 0.69364 0.0
C2272 C 0.34139 0.34958 0.6774 0.0
C2273 C 0.351 0.3064 0.63073 0.0
C2274 C 0.34861 0.32161 0.64669 0.0
H2275 H 0.29885 0.3989 0.70344 0.0
H2276 H 0.30632 0.37547 0.67717 0.0
H2277 H 0.35453 0.32622 0.70038 0.0
H2278 H 0.34203 0.2584 0.6242 0.0
H2279 H 0.33976 0.28301 0.65013 0.0
C2280 C 0.95975 0.74307 0.84607 0.0
C2281 C 0.96945 0.72685 0.83729 0.0
C2282 C 0.94044 0.7416 0.85488 0.0
C2283 C 0.90531 0.70528 0.87619 0.0
H2284 H 0.86208 0.7484 0.86675 0.0
C2285 C 0.81955 0.69747 0.89822 0.0
C2286 C 0.80957 0.71321 0.90755 0.0
C2287 C 0.8389 0.69947 0.88967 0.0
C2288 C 0.87405 0.7363 0.86976 0.0
H2289 H 0.96622 0.69627 0.83103 0.0
H2290 H 0.93257 0.69376 0.84619 0.0
H2291 H 0.89603 0.7511 0.85208 0.0
H2292 H 0.8123 0.74357 0.91494 0.0
H2293 H 0.84603 0.7471 0.89996 0.0
H2294 H 0.88332 0.69046 0.89379 0.0
C2295 C 0.94003 0.7076 0.84653 0.0
C2296 C 0.89358 0.73784 0.86134 0.0
C2297 C 0.95935 0.70907 0.83771 0.0
C2298 C 0.81935 0.73118 0.90771 0.0
C2299 C 0.83874 0.73319 0.89911 0.0
C2300 C 0.88579 0.70373 0.88457 0.0
C2301 C 0.93025 0.72385 0.85519 0.0
C2302 C 0.90948 0.72233 0.86438 0.0
C2303 C 0.84888 0.71731 0.89013 0.0
C2304 C 0.86983 0.71918 0.88142 0.0
H2305 H 0.967 0.75702 0.84608 0.0
H2306 H 0.9336 0.75436 0.86165 0.0
H2307 H 0.91725 0.69316 0.87923 0.0
H2308 H 0.81232 0.68353 0.89735 0.0
H2309 H 0.84594 0.68703 0.8825 0.0
C2310 C 0.28217 0.75936 0.10639 0.0
C2311 C 0.26593 0.75009 0.11588 0.0
C2312 C 0.29958 0.7663 0.11869 0.0
C2313 C 0.3303 0.76301 0.17226 0.0
H2314 H 0.34848 0.81368 0.15383 0.0
C2315 C 0.3929 0.80286 0.22451 0.0
C2316 C 0.40835 0.81308 0.21477 0.0
C2317 C 0.37553 0.79556 0.21246 0.0
C2318 C 0.34385 0.79941 0.15909 0.0
H2319 H 0.25589 0.74027 0.14603 0.0
H2320 H 0.28655 0.75245 0.16775 0.0
H2321 H 0.3185 0.79969 0.13362 0.0
H2322 H 0.41712 0.82395 0.18445 0.0
H2323 H 0.38672 0.81102 0.16321 0.0
H2324 H 0.35572 0.76266 0.19767 0.0
C2325 C 0.28569 0.75428 0.1506 0.0
C2326 C 0.32657 0.79135 0.14749 0.0
C2327 C 0.26811 0.74725 0.13817 0.0
C2328 C 0.40553 0.81625 0.19251 0.0
C2329 C 0.38805 0.80882 0.18035 0.0
C2330 C 0.34763 0.77104 0.18384 0.0
C2331 C 0.30143 0.76429 0.14099 0.0
C2332 C 0.31956 0.773 0.15385 0.0
C2333 C 0.37295 0.7981 0.19017 0.0
C2334 C 0.35468 0.7894 0.17746 0.0
H2335 H 0.2813 0.76162 0.08927 0.0
H2336 H 0.31158 0.77341 0.11064 0.0
H2337 H 0.3256 0.74875 0.17751 0.0
H2338 H 0.39427 0.80027 0.24162 0.0
H2339 H 0.36406 0.7879 0.22073 0.0
C2340 C 0.2181 0.19301 0.63368 0.0
C2341 C 0.23061 0.20933 0.63572 0.0
C2342 C 0.20109 0.19061 0.64588 0.0
C2343 C 0.17822 0.20835 0.69389 0.0
H2344 H 0.12548 0.18975 0.66707 0.0
C2345 C 0.09785 0.22134 0.72736 0.0
C2346 C 0.0838 0.20611 0.72765 0.0
C2347 C 0.11634 0.21958 0.71718 0.0
C2348 C 0.14019 0.1947 0.67489 0.0
H2349 H 0.2352 0.23561 0.65287 0.0
H2350 H 0.20534 0.23176 0.67357 0.0
H2351 H 0.15667 0.19087 0.64747 0.0
H2352 H 0.0784 0.17696 0.71737 0.0
H2353 H 0.11079 0.17398 0.6992 0.0
H2354 H 0.16151 0.21273 0.72105 0.0
C2355 C 0.20879 0.22061 0.66274 0.0
C2356 C 0.15813 0.19534 0.66367 0.0
C2357 C 0.22583 0.22297 0.65061 0.0
C2358 C 0.08885 0.18896 0.71747 0.0
C2359 C 0.10734 0.18729 0.70699 0.0
C2360 C 0.16027 0.20784 0.70502 0.0
C2361 C 0.19605 0.20447 0.66047 0.0
C2362 C 0.17733 0.20247 0.67289 0.0
C2363 C 0.12133 0.20259 0.70679 0.0
C2364 C 0.14092 0.20131 0.69556 0.0
H2365 H 0.22107 0.18228 0.62224 0.0
H2366 H 0.19187 0.17786 0.64383 0.0
H2367 H 0.1928 0.21348 0.70177 0.0
H2368 H 0.09465 0.23475 0.73509 0.0
H2369 H 0.12656 0.23175 0.71713 0.0
C2370 C 0.66645 0.28553 0.3162 0.0
C2371 C 0.64907 0.29691 0.32228 0.0
C2372 C 0.68518 0.28143 0.33011 0.0
C2373 C 0.7064 0.27981 0.38719 0.0
H2374 H 0.76149 0.28021 0.3654 0.0
C2375 C 0.78523 0.27879 0.44265 0.0
C2376 C 0.80336 0.26776 0.43767 0.0
C2377 C 0.76659 0.28119 0.42844 0.0
C2378 C 0.74624 0.27974 0.37171 0.0
H2379 H 0.638 0.31294 0.34796 0.0
H2380 H 0.67081 0.30594 0.37222 0.0
H2381 H 0.72877 0.2873 0.34116 0.0
H2382 H 0.81587 0.25048 0.41364 0.0
H2383 H 0.78306 0.25464 0.38865 0.0
H2384 H 0.72385 0.2724 0.41775 0.0
C2385 C 0.66979 0.29997 0.35669 0.0
C2386 C 0.72743 0.28386 0.35781 0.0
C2387 C 0.65099 0.3041 0.34273 0.0
C2388 C 0.80223 0.25905 0.41801 0.0
C2389 C 0.78347 0.26154 0.40365 0.0
C2390 C 0.72518 0.27571 0.40108 0.0
C2391 C 0.68716 0.28858 0.35056 0.0
C2392 C 0.70724 0.28407 0.36537 0.0
C2393 C 0.76539 0.27266 0.40872 0.0
C2394 C 0.74538 0.27579 0.39358 0.0
H2395 H 0.66563 0.27965 0.30063 0.0
H2396 H 0.69802 0.27238 0.3249 0.0
H2397 H 0.69118 0.27943 0.39356 0.0
H2398 H 0.78538 0.28575 0.4576 0.0
H2399 H 0.7532 0.2901 0.4328 0.0
C2400 C 0.96425 0.30153 0.15795 0.0
C2401 C 0.96886 0.28379 0.17028 0.0
C2402 C 0.95227 0.30205 0.13796 0.0
C2403 C 0.91548 0.27266 0.10402 0.0
H2404 H 0.9286 0.30864 0.05863 0.0
C2405 C 0.88104 0.26554 1.01749 0.0
C2406 C 0.87094 0.28248 1.00627 0.0
C2407 C 0.89361 0.26674 0.03686 0.0
C2408 C 0.92465 0.29865 0.07121 0.0
H2409 H 0.96455 0.25263 0.17107 0.0
H2410 H 0.94423 0.25337 0.13599 0.0
H2411 H 0.94918 0.30823 0.09369 0.0
H2412 H 0.86714 0.31413 1.00633 0.0
H2413 H 0.88965 0.31624 0.04025 0.0
H2414 H 0.89136 0.26273 0.08133 0.0
C2415 C 0.94938 0.26704 0.14196 0.0
C2416 C 0.93639 0.29842 0.09138 0.0
C2417 C 0.96116 0.26656 0.16209 0.0
C2418 C 0.87474 0.30081 1.01446 0.0
C2419 C 0.88757 0.30201 0.03391 0.0
C2420 C 0.90397 0.27273 0.08385 0.0
C2421 C 0.94471 0.28481 0.12957 0.0
C2422 C 0.93204 0.28533 0.10808 0.0
C2423 C 0.89664 0.28491 0.04557 0.0
C2424 C 0.90849 0.28562 0.06717 0.0
H2425 H 0.96978 0.31513 0.16382 0.0
H2426 H 0.94873 0.31607 0.1292 0.0
H2427 H 0.91121 0.26272 0.11649 0.0
H2428 H 0.87872 0.25114 1.01169 0.0
H2429 H 0.90071 0.25334 0.04524 0.0
C2430 C 0.59261 0.76111 0.60678 0.0
C2431 C 0.58337 0.75836 0.58598 0.0
C2432 C 0.5801 0.76111 0.62383 0.0
C2433 C 0.52352 0.76705 0.63565 0.0
H2434 H 0.54401 0.73785 0.68876 0.0
C2435 C 0.46659 0.73944 0.69367 0.0
C2436 C 0.47259 0.73875 0.71573 0.0
C2437 C 0.48071 0.74517 0.67938 0.0
C2438 C 0.53816 0.74638 0.67419 0.0
H2439 H 0.55348 0.75405 0.56687 0.0
H2440 H 0.53191 0.75383 0.59634 0.0
H2441 H 0.56769 0.74116 0.66088 0.0
H2442 H 0.49813 0.74395 0.74012 0.0
H2443 H 0.52308 0.75407 0.71497 0.0
H2444 H 0.4939 0.77193 0.64867 0.0
C2445 C 0.54879 0.75607 0.5996 0.0
C2446 C 0.55175 0.74826 0.65816 0.0
C2447 C 0.56126 0.75595 0.58267 0.0
C2448 C 0.49293 0.74461 0.72321 0.0
C2449 C 0.50729 0.75016 0.7088 0.0
C2450 C 0.50999 0.76519 0.65162 0.0
C2451 C 0.55799 0.75859 0.62046 0.0
C2452 C 0.54444 0.75823 0.63845 0.0
C2453 C 0.50143 0.75024 0.68665 0.0
C2454 C 0.51691 0.75444 0.67094 0.0
H2455 H 0.60959 0.76292 0.60997 0.0
H2456 H 0.58774 0.76322 0.63963 0.0
H2457 H 0.51745 0.77525 0.62093 0.0
H2458 H 0.45108 0.73489 0.68737 0.0
H2459 H 0.47565 0.74477 0.66252 0.0
C2460 C 0.42985 0.24377 0.94572 0.0
C2461 C 0.4399 0.25284 0.96318 0.0
C2462 C 0.43996 0.24158 0.92734 0.0
C2463 C 0.48339 0.25944 0.89775 0.0
H2464 H 0.48147 0.2085 0.87409 0.0
C2465 C 0.53633 0.23402 0.83283 0.0
C2466 C 0.52756 0.22103 0.81833 0.0
C2467 C 0.52499 0.24003 0.8495 0.0
C2468 C 0.48191 0.22295 0.88019 0.0
H2469 H 0.46818 0.26747 0.97455 0.0
H2470 H 0.48589 0.26353 0.94253 0.0
H2471 H 0.4628 0.21494 0.9047 0.0
H2472 H 0.49951 0.20532 0.80895 0.0
H2473 H 0.47957 0.21629 0.8372 0.0
H2474 H 0.50259 0.26739 0.87311 0.0
C2475 C 0.47015 0.25812 0.94306 0.0
C2476 C 0.47119 0.22662 0.89784 0.0
C2477 C 0.46008 0.2602 0.96151 0.0
C2478 C 0.50679 0.21519 0.82 0.0
C2479 C 0.49543 0.22133 0.83638 0.0
C2480 C 0.49407 0.25579 0.87993 0.0
C2481 C 0.46037 0.2485 0.92586 0.0
C2482 C 0.47171 0.24491 0.90684 0.0
C2483 C 0.50462 0.23326 0.85184 0.0
C2484 C 0.49338 0.2375 0.87083 0.0
H2485 H 0.41439 0.23781 0.94648 0.0
H2486 H 0.43184 0.23432 0.9143 0.0
H2487 H 0.48402 0.27374 0.90422 0.0
H2488 H 0.55238 0.23862 0.83204 0.0
H2489 H 0.53263 0.24918 0.86111 0.0
C2490 C 0.12051 0.74626 0.49061 0.0
C2491 C 0.13128 0.76212 0.49887 0.0
C2492 C 0.10986 0.74765 0.46992 0.0
C2493 C 0.10909 0.77552 0.41807 0.0
H2494 H 0.05428 0.75353 0.40452 0.0
C2495 C 0.05628 0.79561 0.33917 0.0
C2496 C 0.04366 0.78159 0.3294 0.0
C2497 C 0.06812 0.79139 0.35898 0.0
C2498 C 0.06975 0.75946 0.40793 0.0
H2499 H 0.13887 0.79206 0.49176 0.0
H2500 H 0.12014 0.79455 0.45582 0.0
H2501 H 0.07165 0.75052 0.44107 0.0
H2502 H 0.03421 0.7518 0.33268 0.0
H2503 H 0.05517 0.74426 0.36755 0.0
H2504 H 0.10722 0.78456 0.38505 0.0
C2505 C 0.12013 0.78092 0.46529 0.0
C2506 C 0.0797 0.7578 0.42895 0.0
C2507 C 0.1307 0.77957 0.48602 0.0
C2508 C 0.04384 0.76288 0.3397 0.0
C2509 C 0.05567 0.75866 0.35978 0.0
C2510 C 0.0992 0.77713 0.3971 0.0
C2511 C 0.10978 0.7649 0.45684 0.0
C2512 C 0.09937 0.76607 0.43436 0.0
C2513 C 0.06775 0.77299 0.36979 0.0
C2514 C 0.07923 0.7694 0.39176 0.0
H2515 H 0.12066 0.73255 0.49998 0.0
H2516 H 0.10223 0.73496 0.46396 0.0
H2517 H 0.12446 0.78165 0.42149 0.0
H2518 H 0.05662 0.81017 0.3317 0.0
H2519 H 0.07695 0.8029 0.36618 0.0
C2520 C 0.24441 0.97571 0.31752 0.0
C2521 C 0.24034 0.99603 0.31803 0.0
C2522 C 0.22767 0.96369 0.31165 0.0
C2523 C 0.16925 0.96405 0.31262 0.0
H2524 H 0.17254 0.91744 0.28079 0.0
C2525 C 0.09459 0.92163 0.29047 0.0
C2526 C 0.09668 0.90103 0.29124 0.0
C2527 C 0.11262 0.93265 0.29267 0.0
C2528 C 0.17143 0.9303 0.28993 0.0
H2529 H 0.21605 0.01986 0.31214 0.0
H2530 H 0.18708 0.99917 0.30115 0.0
H2531 H 0.20326 0.93776 0.28512 0.0
H2532 H 0.11971 0.87597 0.2948 0.0
H2533 H 0.15119 0.89522 0.2992 0.0
H2534 H 0.13773 0.95662 0.31779 0.0
C2535 C 0.203 0.99234 0.30553 0.0
C2536 C 0.18904 0.94198 0.29235 0.0
C2537 C 0.21963 1.00426 0.31148 0.0
C2538 C 0.11742 0.89178 0.29433 0.0
C2539 C 0.13551 0.90284 0.29658 0.0
C2540 C 0.15177 0.9524 0.31028 0.0
C2541 C 0.20658 0.97183 0.30636 0.0
C2542 C 0.18808 0.95914 0.30356 0.0
C2543 C 0.13336 0.92345 0.29587 0.0
C2544 C 0.15247 0.93544 0.29875 0.0
H2545 H 0.26015 0.969 0.32312 0.0
H2546 H 0.23101 0.94796 0.3126 0.0
H2547 H 0.16809 0.97683 0.32188 0.0
H2548 H 0.07896 0.92934 0.28842 0.0
H2549 H 0.11023 0.94846 0.29172 0.0
C2550 C 0.45406 0.12115 0.83454 0.0
C2551 C 0.47081 0.11145 0.82555 0.0
C2552 C 0.43378 0.1138 0.83316 0.0
C2553 C 0.40526 0.06875 0.82328 0.0
H2554 H 0.35536 0.10534 0.81534 0.0
C2555 C 0.31899 0.04296 0.81541 0.0
C2556 C 0.30556 0.05197 0.82883 0.0
C2557 C 0.33861 0.05058 0.81223 0.0
C2558 C 0.36915 0.09495 0.8176 0.0
H2559 H 0.47934 0.08642 0.80799 0.0
H2560 H 0.44385 0.07365 0.80541 0.0
H2561 H 0.39091 0.11759 0.81556 0.0
H2562 H 0.30177 0.07652 0.84864 0.0
H2563 H 0.33574 0.08984 0.84292 0.0
H2564 H 0.38338 0.04612 0.82539 0.0
C2565 C 0.44648 0.08679 0.81383 0.0
C2566 C 0.38954 0.10196 0.81783 0.0
C2567 C 0.46684 0.0941 0.81532 0.0
C2568 C 0.31173 0.0692 0.83823 0.0
C2569 C 0.33118 0.0769 0.83487 0.0
C2570 C 0.38483 0.06173 0.82291 0.0
C2571 C 0.42965 0.09661 0.82264 0.0
C2572 C 0.4079 0.08899 0.82105 0.0
C2573 C 0.34504 0.06748 0.82218 0.0
C2574 C 0.36656 0.07478 0.82042 0.0
H2575 H 0.45669 0.13439 0.8428 0.0
H2576 H 0.42137 0.12153 0.84056 0.0
H2577 H 0.419 0.05834 0.82602 0.0
H2578 H 0.31473 0.02963 0.80801 0.0
H2579 H 0.34888 0.0431 0.80221 0.0
C2580 C 0.70092 0.57028 0.711 0.0
C2581 C 0.71623 0.57986 0.70055 0.0
C2582 C 0.6825 0.58056 0.71573 0.0
C2583 C 0.64659 0.62209 0.69502 0.0
H2584 H 0.61931 0.61084 0.74579 0.0
C2585 C 0.56114 0.6534 0.70477 0.0
C2586 C 0.54775 0.64023 0.7136 0.0
C2587 C 0.58298 0.64844 0.70494 0.0
C2588 C 0.62667 0.61406 0.73146 0.0
H2589 H 0.7248 0.60791 0.68771 0.0
H2590 H 0.69228 0.62598 0.69587 0.0
H2591 H 0.65613 0.59851 0.74418 0.0
H2592 H 0.54693 0.61159 0.7297 0.0
H2593 H 0.58479 0.60272 0.72941 0.0
H2594 H 0.6169 0.63698 0.68195 0.0
C2595 C 0.69463 0.61047 0.70036 0.0
C2596 C 0.64778 0.60709 0.7306 0.0
C2597 C 0.71328 0.60018 0.69585 0.0
C2598 C 0.5567 0.62198 0.72251 0.0
C2599 C 0.5785 0.61702 0.72266 0.0
C2600 C 0.62542 0.629 0.69584 0.0
C2601 C 0.67886 0.60065 0.70994 0.0
C2602 C 0.6578 0.61063 0.71218 0.0
C2603 C 0.59193 0.63021 0.71396 0.0
C2604 C 0.61505 0.62465 0.71388 0.0
H2605 H 0.70281 0.55463 0.71487 0.0
H2606 H 0.67057 0.57253 0.72292 0.0
H2607 H 0.65379 0.62485 0.6805 0.0
H2608 H 0.55472 0.66752 0.69763 0.0
H2609 H 0.59289 0.65898 0.6982 0.0
C2610 C 0.91031 0.38956 0.25896 0.0
C2611 C 0.93141 0.39536 0.26129 0.0
C2612 C 0.89334 0.40251 0.26256 0.0
C2613 C 0.87935 0.45556 0.26212 0.0
H2614 H 0.8266 0.43762 0.28006 0.0
C2615 C 0.80264 0.50663 0.25499 0.0
C2616 C 0.7857 0.49872 0.24265 0.0
C2617 C 0.82057 0.49458 0.26361 0.0
C2618 C 0.84129 0.44288 0.27518 0.0
H2619 H 0.95136 0.41892 0.27041 0.0
H2620 H 0.92174 0.44148 0.27707 0.0
H2621 H 0.85856 0.41528 0.28375 0.0
H2622 H 0.77342 0.47193 0.23098 0.0
H2623 H 0.80435 0.45094 0.24631 0.0
H2624 H 0.86189 0.48301 0.2531 0.0
C2625 C 0.91825 0.42706 0.27197 0.0
C2626 C 0.85957 0.43006 0.27717 0.0
C2627 C 0.93524 0.41413 0.26821 0.0
C2628 C 0.78629 0.47842 0.24038 0.0
C2629 C 0.80397 0.46638 0.24927 0.0
C2630 C 0.86112 0.46842 0.26033 0.0
C2631 C 0.89702 0.42157 0.26873 0.0
C2632 C 0.87865 0.43602 0.26997 0.0
C2633 C 0.82161 0.4744 0.26036 0.0
C2634 C 0.84172 0.46202 0.2662 0.0
H2635 H 0.90678 0.37532 0.25335 0.0
H2636 H 0.87724 0.39783 0.2595 0.0
H2637 H 0.89363 0.46066 0.25617 0.0
H2638 H 0.80264 0.52225 0.25686 0.0
H2639 H 0.83392 0.50113 0.27218 0.0
C2640 C 0.31583 0.24828 1.01089 0.0
C2641 C 0.31172 0.25165 0.03177 0.0
C2642 C 0.30721 0.23265 1.00042 0.0
C2643 C 0.28977 0.18375 1.01264 0.0
H2644 H 0.27522 0.1846 0.95154 0.0
C2645 C 0.2707 0.11364 0.969 0.0
C2646 C 0.28071 0.11111 0.9505 0.0
C2647 C 0.27088 0.13153 0.97865 0.0
C2648 C 0.27931 0.18412 0.96861 0.0
H2649 H 0.29429 0.24195 0.0576 0.0
H2650 H 0.27902 0.21461 0.03917 0.0
H2651 H 0.28041 0.21529 0.9687 0.0
H2652 H 0.29836 0.12554 0.92738 0.0
H2653 H 0.29897 0.15664 0.94438 0.0
H2654 H 0.28919 0.15255 1.01249 0.0
C2655 C 0.28916 0.22398 0.03102 0.0
C2656 C 0.28223 0.2017 0.97845 0.0
C2657 C 0.29773 0.23974 0.0415 0.0
C2658 C 0.29071 0.12695 0.94175 0.0
C2659 C 0.29081 0.14485 0.95134 0.0
C2660 C 0.28679 0.16617 1.0028 0.0
C2661 C 0.29429 0.21995 1.01058 0.0
C2662 C 0.288 0.20169 1.00053 0.0
C2663 C 0.28099 0.14733 0.96996 0.0
C2664 C 0.28202 0.16612 0.98062 0.0
H2665 H 0.32648 0.25723 1.0029 0.0
H2666 H 0.31169 0.22992 0.98479 0.0
H2667 H 0.2945 0.18316 0.02963 0.0
H2668 H 0.26299 0.10169 0.97623 0.0
H2669 H 0.26307 0.13301 0.99291 0.0
C2670 C 0.77978 0.32391 0.99661 0.0
C2671 C 0.79394 0.3075 1.00288 0.0
C2672 C 0.77622 0.33846 1.01071 0.0
C2673 C 0.78369 0.35078 0.06764 0.0
H2674 H 0.7809 0.40386 0.0426 0.0
C2675 C 0.78612 0.42022 0.11771 0.0
C2676 C 0.77337 0.43698 0.10927 0.0
C2677 C 0.78798 0.40356 0.10584 0.0
C2678 C 0.78135 0.38916 0.04988 0.0
H2679 H 0.81494 0.29326 0.02931 0.0
H2680 H 0.80884 0.31879 0.05398 0.0
H2681 H 0.78495 0.37647 0.02032 0.0
H2682 H 0.75161 0.44875 0.08209 0.0
H2683 H 0.75475 0.41994 0.06158 0.0
H2684 H 0.78026 0.36369 0.09732 0.0
C2685 C 0.80027 0.32029 0.03814 0.0
C2686 C 0.78366 0.37336 0.03704 0.0
C2687 C 0.80375 0.3056 0.024 0.0
C2688 C 0.76198 0.43635 0.08896 0.0
C2689 C 0.76381 0.41976 0.07714 0.0
C2690 C 0.78138 0.36666 0.08055 0.0
C2691 C 0.78687 0.33719 0.03151 0.0
C2692 C 0.78467 0.35391 0.04563 0.0
C2693 C 0.7771 0.40323 0.08522 0.0
C2694 C 0.77999 0.3861 0.0718 0.0
H2695 H 0.77182 0.32581 0.98052 0.0
H2696 H 0.76536 0.35094 1.00512 0.0
H2697 H 0.78429 0.33604 0.07484 0.0
H2698 H 0.79525 0.42019 0.13323 0.0
H2699 H 0.79847 0.39119 0.11256 0.0
C2700 C 0.72807 0.72264 0.51449 0.0
C2701 C 0.71614 0.73758 0.52316 0.0
C2702 C 0.73417 0.7049 0.52634 0.0
C2703 C 0.717 0.67473 0.57069 0.0
H2704 H 0.77153 0.64548 0.57113 0.0
C2705 C 0.73231 0.59749 0.61225 0.0
C2706 C 0.752 0.59356 0.62493 0.0
C2707 C 0.72882 0.61419 0.5983 0.0
C2708 C 0.75624 0.65351 0.57122 0.0
H2709 H 0.70254 0.74608 0.55153 0.0
H2710 H 0.71343 0.71555 0.57212 0.0
H2711 H 0.76475 0.6769 0.55052 0.0
H2712 H 0.78367 0.60402 0.63238 0.0
H2713 H 0.77748 0.63315 0.60826 0.0
H2714 H 0.70856 0.65173 0.59167 0.0
C2715 C 0.71761 0.71721 0.55603 0.0
C2716 C 0.7523 0.67143 0.55926 0.0
C2717 C 0.71151 0.73481 0.54425 0.0
C2718 C 0.7683 0.6065 0.62286 0.0
C2719 C 0.7648 0.6232 0.6089 0.0
C2720 C 0.7209 0.65686 0.58255 0.0
C2721 C 0.72845 0.70179 0.54706 0.0
C2722 C 0.7327 0.68238 0.55906 0.0
C2723 C 0.74491 0.62743 0.59667 0.0
C2724 C 0.74061 0.64604 0.58312 0.0
H2725 H 0.73179 0.72427 0.49824 0.0
H2726 H 0.74251 0.69331 0.51894 0.0
H2727 H 0.70159 0.68258 0.57064 0.0
H2728 H 0.71942 0.58783 0.61332 0.0
H2729 H 0.71342 0.61681 0.58888 0.0
C2730 C 0.22687 0.78798 0.51498 0.0
C2731 C 0.20904 0.77738 0.50884 0.0
C2732 C 0.2332 0.80266 0.50133 0.0
C2733 C 0.20912 0.83834 0.45911 0.0
H2734 H 0.26746 0.85347 0.45961 0.0
C2735 C 0.22997 0.91208 0.41902 0.0
C2736 C 0.24496 0.92262 0.43112 0.0
C2737 C 0.22656 0.89265 0.42518 0.0
C2738 C 0.25106 0.8495 0.45935 0.0
H2739 H 0.1844 0.77315 0.48321 0.0
H2740 H 0.19558 0.79882 0.45906 0.0
H2741 H 0.26058 0.82141 0.47508 0.0
H2742 H 0.26855 0.92068 0.4589 0.0
H2743 H 0.26243 0.88704 0.46976 0.0
H2744 H 0.19958 0.86666 0.4439 0.0
C2745 C 0.20467 0.79576 0.47451 0.0
C2746 C 0.24711 0.83108 0.46818 0.0
C2747 C 0.19847 0.78084 0.48817 0.0
C2748 C 0.25669 0.91312 0.44933 0.0
C2749 C 0.25337 0.8937 0.45541 0.0
C2750 C 0.21307 0.85678 0.45024 0.0
C2751 C 0.22167 0.80731 0.48124 0.0
C2752 C 0.22606 0.82544 0.46869 0.0
C2753 C 0.23818 0.88321 0.44351 0.0
C2754 C 0.23407 0.8628 0.45074 0.0
H2755 H 0.2351 0.78577 0.53094 0.0
H2756 H 0.24619 0.81129 0.50723 0.0
H2757 H 0.19269 0.83466 0.45945 0.0
H2758 H 0.22056 0.91897 0.40498 0.0
H2759 H 0.21483 0.88499 0.41556 0.0
C2760 C 0.06708 0.715 0.877 0.0
C2761 C 0.06191 0.73295 0.86518 0.0
C2762 C 0.07871 0.71431 0.89718 0.0
C2763 C 0.09087 0.74392 0.94291 0.0
H2764 H 0.13927 0.70639 0.95827 0.0
C2765 C 0.1493 0.75016 0.01819 0.0
C2766 C 0.15996 0.73329 0.02901 0.0
C2767 C 0.13605 0.74895 0.99923 0.0
C2768 C 0.12555 0.71672 0.95446 0.0
H2769 H 0.065 0.76428 0.86538 0.0
H2770 H 0.08505 0.76311 0.90087 0.0
H2771 H 0.11936 0.70686 0.92292 0.0
H2772 H 0.16429 0.70172 0.02855 0.0
H2773 H 0.14049 0.69948 0.9956 0.0
H2774 H 0.09661 0.75358 0.97441 0.0
C2775 C 0.08011 0.74956 0.89439 0.0
C2776 C 0.11423 0.71707 0.9341 0.0
C2777 C 0.06875 0.75022 0.87402 0.0
C2778 C 0.15628 0.715 0.02071 0.0
C2779 C 0.14283 0.71377 1.00166 0.0
C2780 C 0.10197 0.7434 0.96333 0.0
C2781 C 0.08519 0.73159 0.90621 0.0
C2782 C 0.09694 0.73086 0.928 0.0
C2783 C 0.13278 0.7308 0.99047 0.0
C2784 C 0.11972 0.73002 0.96933 0.0
H2785 H 0.06215 0.70139 0.87066 0.0
H2786 H 0.08224 0.70027 0.90592 0.0
H2787 H 0.07736 0.75445 0.93884 0.0
H2788 H 0.15168 0.76456 0.02398 0.0
H2789 H 0.12902 0.76246 0.99106 0.0
C2790 C 0.53217 0.28887 0.31716 0.0
C2791 C 0.55314 0.28065 0.3172 0.0
C2792 C 0.51972 0.2836 0.33317 0.0
C2793 C 0.51443 0.24759 0.37811 0.0
H2794 H 0.48249 0.29153 0.39833 0.0
C2795 C 0.47177 0.24226 0.45522 0.0
C2796 C 0.4521 0.25312 0.45532 0.0
C2797 C 0.48381 0.24421 0.43798 0.0
C2798 C 0.49101 0.27899 0.39274 0.0
H2799 H 0.57708 0.25964 0.33372 0.0
H2800 H 0.55523 0.25038 0.36203 0.0
H2801 H 0.50392 0.29687 0.36929 0.0
H2802 H 0.42968 0.27437 0.43686 0.0
H2803 H 0.45034 0.27746 0.40673 0.0
H2804 H 0.50152 0.22976 0.40185 0.0
C2805 C 0.54841 0.26089 0.34939 0.0
C2806 C 0.50339 0.28207 0.37601 0.0
C2807 C 0.56094 0.26614 0.33314 0.0
C2808 C 0.44462 0.26564 0.43739 0.0
C2809 C 0.45666 0.2676 0.42017 0.0
C2810 C 0.502 0.2445 0.39494 0.0
C2811 C 0.52784 0.27003 0.34994 0.0
C2812 C 0.51514 0.26642 0.36827 0.0
C2813 C 0.47658 0.25712 0.4203 0.0
C2814 C 0.48997 0.26016 0.4024 0.0
H2815 H 0.52553 0.29995 0.30501 0.0
H2816 H 0.50378 0.29054 0.33262 0.0
H2817 H 0.52314 0.23517 0.37254 0.0
H2818 H 0.47797 0.23225 0.46856 0.0
H2819 H 0.49908 0.23596 0.43879 0.0
C2820 C 0.57089 0.78316 0.06897 0.0
C2821 C 0.58455 0.76642 0.06753 0.0
C2822 C 0.56055 0.78581 0.0871 0.0
C2823 C 0.5441 0.75995 0.13507 0.0
H2824 H 0.54059 0.81244 0.15492 0.0
C2825 C 0.49171 0.78445 0.2011 0.0
C2826 C 0.50001 0.79853 0.21454 0.0
C2827 C 0.50261 0.77855 0.18408 0.0
C2828 C 0.54156 0.79762 0.14978 0.0
H2829 H 0.59779 0.73921 0.08419 0.0
H2830 H 0.57999 0.74403 0.11609 0.0
H2831 H 0.55852 0.80622 0.12381 0.0
H2832 H 0.52698 0.8163 0.22163 0.0
H2833 H 0.54603 0.80574 0.19262 0.0
H2834 H 0.5273 0.75141 0.16143 0.0
C2835 C 0.57713 0.75501 0.103 0.0
C2836 C 0.55164 0.7941 0.13169 0.0
C2837 C 0.58754 0.75236 0.0848 0.0
C2838 C 0.51996 0.80564 0.2114 0.0
C2839 C 0.53085 0.79968 0.19462 0.0
C2840 C 0.53392 0.7635 0.15324 0.0
C2841 C 0.56359 0.77185 0.10443 0.0
C2842 C 0.55303 0.77525 0.12401 0.0
C2843 C 0.52204 0.78656 0.18028 0.0
C2844 C 0.53261 0.78239 0.16088 0.0
H2845 H 0.56836 0.79443 0.05616 0.0
H2846 H 0.55005 0.79884 0.08747 0.0
H2847 H 0.54471 0.74527 0.12951 0.0
H2848 H 0.47632 0.77878 0.20306 0.0
H2849 H 0.49534 0.76842 0.17334 0.0
C2850 C 0.90768 0.23908 0.54671 0.0
C2851 C 0.90143 0.25755 0.53647 0.0
C2852 C 0.91973 0.23748 0.56675 0.0
C2853 C 0.9333 0.26473 0.61484 0.0
H2854 H 0.97911 0.22415 0.62673 0.0
C2855 C 0.98852 0.25352 0.69623 0.0
C2856 C 0.99393 0.23391 0.70348 0.0
C2857 C 0.97743 0.25803 0.67583 0.0
C2858 C 0.96623 0.23546 0.6238 0.0
H2859 H 0.90309 0.28887 0.53945 0.0
H2860 H 0.92411 0.28601 0.57432 0.0
H2861 H 0.95975 0.22859 0.59127 0.0
H2862 H 0.99072 0.20372 0.69539 0.0
H2863 H 0.9714 0.21148 0.66064 0.0
H2864 H 0.93966 0.27135 0.6476 0.0
C2865 C 0.91959 0.27277 0.56688 0.0
C2866 C 0.95512 0.238 0.6034 0.0
C2867 C 0.90767 0.27438 0.54677 0.0
C2868 C 0.98727 0.21902 0.69027 0.0
C2869 C 0.97623 0.22347 0.67016 0.0
C2870 C 0.9444 0.26212 0.63537 0.0
C2871 C 0.92575 0.25429 0.57716 0.0
C2872 C 0.93829 0.25246 0.59869 0.0
C2873 C 0.97153 0.243 0.66239 0.0
C2874 C 0.96077 0.24719 0.64022 0.0
H2875 H 0.90307 0.22581 0.53938 0.0
H2876 H 0.92395 0.22301 0.57429 0.0
H2877 H 0.92035 0.27596 0.6118 0.0
H2878 H 0.99338 0.26533 0.70602 0.0
H2879 H 0.97403 0.27325 0.67038 0.0
C2880 C 0.80541 0.01568 0.73289 0.0
C2881 C 0.78886 0.02251 0.71714 0.0
C2882 C 0.82164 0.02794 0.7396 0.0
C2883 C 0.84694 0.07179 0.71918 0.0
H2884 H 0.87821 0.0693 0.77554 0.0
C2885 C 0.9134 0.12411 0.74072 0.0
C2886 C 0.93254 0.11582 0.75204 0.0
C2887 C 0.89511 0.11342 0.73834 0.0
C2888 C 0.8697 0.07008 0.75968 0.0
H2889 H 0.77561 0.04753 0.69671 0.0
H2890 H 0.8031 0.0692 0.70906 0.0
H2891 H 0.84714 0.0498 0.7687 0.0
H2892 H 0.94707 0.0899 0.7704 0.0
H2893 H 0.91517 0.07119 0.76611 0.0
H2894 H 0.86943 0.09196 0.71012 0.0
C2895 C 0.8041 0.05432 0.71592 0.0
C2896 C 0.85188 0.05887 0.75574 0.0
C2897 C 0.78812 0.04203 0.70906 0.0
C2898 C 0.93269 0.09669 0.7614 0.0
C2899 C 0.91432 0.08602 0.75912 0.0
C2900 C 0.8646 0.08303 0.72315 0.0
C2901 C 0.82156 0.04727 0.73068 0.0
C2902 C 0.84022 0.05957 0.7354 0.0
C2903 C 0.89538 0.09414 0.74728 0.0
C2904 C 0.87626 0.08234 0.74343 0.0
H2905 H 0.80656 1.00053 0.73896 0.0
H2906 H 0.83485 0.02189 0.75086 0.0
H2907 H 0.83886 0.07238 0.70316 0.0
H2908 H 0.91269 0.1387 0.73311 0.0
H2909 H 0.88074 0.12023 0.72933 0.0
C2910 C 0.7132 0.95251 0.18446 0.0
C2911 C 0.72198 0.96594 0.19847 0.0
C2912 C 0.69329 0.94527 0.18683 0.0
C2913 C 0.65371 0.93837 0.22482 0.0
H2914 H 0.61404 0.93667 0.1737 0.0
C2915 C 0.57436 0.89991 0.22349 0.0
C2916 C 0.5561 0.90954 0.21181 0.0
C2917 C 0.59458 0.90697 0.22233 0.0
C2918 C 0.62487 0.93718 0.18814 0.0
H2919 H 0.71692 0.98182 0.22637 0.0
H2920 H 0.68212 0.9691 0.23053 0.0
H2921 H 0.64951 0.94839 0.17121 0.0
H2922 H 0.54489 0.9343 0.18987 0.0
H2923 H 0.58024 0.94648 0.18766 0.0
H2924 H 0.62895 0.92729 0.24176 0.0
C2925 C 0.69073 0.96416 0.21774 0.0
C2926 C 0.64528 0.94368 0.18669 0.0
C2927 C 0.71065 0.97149 0.21532 0.0
C2928 C 0.55861 0.92636 0.19885 0.0
C2929 C 0.57887 0.93337 0.19761 0.0
C2930 C 0.63332 0.93174 0.22626 0.0
C2931 C 0.68168 0.95122 0.20331 0.0
C2932 C 0.65997 0.94432 0.205 0.0
C2933 C 0.59708 0.92376 0.20937 0.0
C2934 C 0.61867 0.93106 0.20793 0.0
H2935 H 0.72148 0.94784 0.17134 0.0
H2936 H 0.68693 0.93507 0.17566 0.0
H2937 H 0.66469 0.93859 0.2392 0.0
H2938 H 0.57312 0.8867 0.23331 0.0
H2939 H 0.60832 0.89905 0.23131 0.0
C2940 C 0.48031 0.38995 0.33624 0.0
C2941 C 0.48615 0.38372 0.3168 0.0
C2942 C 0.45917 0.39613 0.33814 0.0
C2943 C 0.40349 0.39386 0.31397 0.0
H2944 H 0.39458 0.4419 0.34236 0.0
C2945 C 0.32198 0.42372 0.33931 0.0
C2946 C 0.31789 0.44414 0.33708 0.0
C2947 C 0.34153 0.41521 0.33462 0.0
C2948 C 0.39678 0.42853 0.33426 0.0
H2949 H 0.47423 0.37906 0.28412 0.0
H2950 H 0.43725 0.38976 0.28755 0.0
H2951 H 0.43079 0.42912 0.33922 0.0
H2952 H 0.33013 0.47149 0.32644 0.0
H2953 H 0.36388 0.45669 0.31806 0.0
H2954 H 0.36927 0.39346 0.30895 0.0
C2955 C 0.44905 0.38965 0.30134 0.0
C2956 C 0.41753 0.42109 0.33268 0.0
C2957 C 0.47024 0.38355 0.29939 0.0
C2958 C 0.33297 0.45573 0.32867 0.0
C2959 C 0.35235 0.44727 0.32394 0.0
C2960 C 0.38262 0.40126 0.31569 0.0
C2961 C 0.44334 0.39616 0.32069 0.0
C2962 C 0.42114 0.40371 0.3225 0.0
C2963 C 0.35717 0.42703 0.32759 0.0
C2964 C 0.37909 0.41877 0.32571 0.0
H2965 H 0.49205 0.38988 0.35007 0.0
H2966 H 0.45517 0.40081 0.35335 0.0
H2967 H 0.40582 0.38035 0.30616 0.0
H2968 H 0.31064 0.41444 0.34578 0.0
H2969 H 0.34484 0.39955 0.33757 0.0
C2970 C 0.22588 0.50843 0.78078 0.0
C2971 C 0.24297 0.51656 0.79266 0.0
C2972 C 0.20794 0.52038 0.77201 0.0
C2973 C 0.18733 0.57199 0.75921 0.0
H2974 H 0.13522 0.55498 0.77944 0.0
C2975 C 0.11903 0.62614 0.77533 0.0
C2976 C 0.09789 0.62044 0.77351 0.0
C2977 C 0.13583 0.61301 0.77169 0.0
C2978 C 0.14942 0.55986 0.77315 0.0
H2979 H 0.2555 0.54359 0.80335 0.0
H2980 H 0.22452 0.5644 0.78776 0.0
H2981 H 0.16683 0.53247 0.78264 0.0
H2982 H 0.07766 0.59685 0.76522 0.0
H2983 H 0.10697 0.57396 0.75848 0.0
H2984 H 0.17013 0.59955 0.75019 0.0
C2985 C 0.22481 0.54887 0.78527 0.0
C2986 C 0.16758 0.5469 0.77501 0.0
C2987 C 0.2425 0.53694 0.79431 0.0
C2988 C 0.09382 0.60158 0.76702 0.0
C2989 C 0.11063 0.58846 0.76321 0.0
C2990 C 0.16912 0.5849 0.75716 0.0
C2991 C 0.20702 0.54066 0.77465 0.0
C2992 C 0.18691 0.55304 0.76871 0.0
C2993 C 0.13192 0.59385 0.76598 0.0
C2994 C 0.15014 0.57923 0.76479 0.0
H2995 H 0.2258 0.49274 0.7794 0.0
H2996 H 0.19447 0.51369 0.76381 0.0
H2997 H 0.20197 0.57704 0.75399 0.0
H2998 H 0.12275 0.64046 0.7806 0.0
H2999 H 0.15198 0.61763 0.77437 0.0
C3000 C 0.72632 0.7792 0.99332 0.0
C3001 C 0.71583 0.76467 1.00376 0.0
C3002 C 0.73356 0.79526 1.00418 0.0
C3003 C 0.72184 0.82248 0.0509 0.0
H3004 H 0.77006 0.85173 0.03789 0.0
C3005 C 0.74595 0.88993 0.09603 0.0
C3006 C 0.74921 0.90674 0.08335 0.0
C3007 C 0.74426 0.87178 0.08716 0.0
C3008 C 0.75651 0.84371 0.04161 0.0
H3009 H 0.70623 0.75458 0.03402 0.0
H3010 H 0.71971 0.78197 0.0532 0.0
H3011 H 0.76392 0.82075 0.02143 0.0
H3012 H 0.75353 0.91743 0.05136 0.0
H3013 H 0.75091 0.88562 0.03601 0.0
H3014 H 0.71447 0.84537 0.07108 0.0
C3015 C 0.72161 0.78153 0.03646 0.0
C3016 C 0.75295 0.82599 0.03216 0.0
C3017 C 0.71407 0.76571 0.02554 0.0
C3018 C 0.75128 0.90479 0.06167 0.0
C3019 C 0.74977 0.88657 0.05285 0.0
C3020 C 0.72553 0.84003 0.06047 0.0
C3021 C 0.73068 0.79692 0.02575 0.0
C3022 C 0.73547 0.8152 0.03659 0.0
C3023 C 0.74598 0.86993 0.06545 0.0
C3024 C 0.7428 0.8509 0.05583 0.0
H3025 H 0.72772 0.77883 0.97647 0.0
H3026 H 0.74033 0.80685 0.99534 0.0
H3027 H 0.70788 0.81493 0.05431 0.0
H3028 H 0.74477 0.89076 0.11287 0.0
H3029 H 0.74162 0.85914 0.09732 0.0
C3030 C 0.268 0.58237 0.94481 0.0
C3031 C 0.25667 0.58121 0.92454 0.0
C3032 C 0.26643 0.59943 0.95593 0.0
C3033 C 0.23145 0.64447 0.95936 0.0
H3034 H 0.28072 0.66032 0.99498 0.0
C3035 C 0.22686 0.71314 1.00956 0.0
C3036 C 0.23667 0.71054 0.03066 0.0
C3037 C 0.23042 0.69906 0.99477 0.0
C3038 C 0.26674 0.65607 0.98523 0.0
H3039 H 0.2349 0.59747 0.90007 0.0
H3040 H 0.23238 0.62737 0.91935 0.0
H3041 H 0.28464 0.63271 0.97275 0.0
H3042 H 0.25849 0.69135 0.05241 0.0
H3043 H 0.26475 0.66708 0.0268 0.0
H3044 H 0.2135 0.66772 0.9721 0.0
C3045 C 0.24235 0.61492 0.92675 0.0
C3046 C 0.26899 0.64016 0.97246 0.0
C3047 C 0.24398 0.59782 0.91557 0.0
C3048 C 0.25072 0.69392 0.03631 0.0
C3049 C 0.25439 0.67998 0.02153 0.0
C3050 C 0.22921 0.66043 0.97214 0.0
C3051 C 0.25347 0.61595 0.94716 0.0
C3052 C 0.25132 0.63389 0.95958 0.0
C3053 C 0.24401 0.68212 1.00064 0.0
C3054 C 0.24675 0.66627 0.98554 0.0
H3055 H 0.27816 0.57003 0.95218 0.0
H3056 H 0.27507 0.59948 0.97167 0.0
H3057 H 0.21741 0.64001 0.94987 0.0
H3058 H 0.21577 0.72565 1.0047 0.0
H3059 H 0.2223 0.70134 0.97878 0.0
C3060 C 0.30607 0.29322 0.51847 0.0
C3061 C 0.32033 0.27915 0.51137 0.0
C3062 C 0.30009 0.31078 0.50636 0.0
C3063 C 0.31907 0.34288 0.46434 0.0
H3064 H 0.26222 0.36843 0.46076 0.0
C3065 C 0.30003 0.42063 0.42453 0.0
C3066 C 0.28056 0.42396 0.41137 0.0
C3067 C 0.30422 0.40347 0.43771 0.0
C3068 C 0.27815 0.36144 0.46148 0.0
H3069 H 0.33863 0.2721 0.48544 0.0
H3070 H 0.32784 0.30236 0.46419 0.0
H3071 H 0.27003 0.3369 0.48069 0.0
H3072 H 0.25006 0.41187 0.40208 0.0
H3073 H 0.25748 0.38197 0.42474 0.0
H3074 H 0.32707 0.36706 0.44468 0.0
C3075 C 0.3217 0.30014 0.47937 0.0
C3076 C 0.28269 0.34344 0.47311 0.0
C3077 C 0.32775 0.28268 0.49149 0.0
C3078 C 0.26521 0.40989 0.41206 0.0
C3079 C 0.26942 0.39272 0.42517 0.0
C3080 C 0.31453 0.36082 0.4527 0.0
C3081 C 0.30817 0.31463 0.48683 0.0
C3082 C 0.30319 0.33386 0.4746 0.0
C3083 C 0.28907 0.38917 0.43801 0.0
C3084 C 0.294 0.37034 0.45104 0.0
H3085 H 0.30014 0.29102 0.53375 0.0
H3086 H 0.28976 0.32163 0.51269 0.0
H3087 H 0.33514 0.33614 0.4654 0.0
H3088 H 0.31219 0.43116 0.42448 0.0
H3089 H 0.31938 0.40139 0.44764 0.0
C3090 C 0.83518 0.23262 0.54682 0.0
C3091 C 0.82348 0.23957 0.52748 0.0
C3092 C 0.82809 0.21702 0.55889 0.0
C3093 C 0.80714 0.18454 0.58355 0.0
H3094 H 0.7888 0.14443 0.54588 0.0
C3095 C 0.77935 0.1085 0.61238 0.0
C3096 C 0.78653 0.09217 0.6019 0.0
C3097 C 0.78319 0.12758 0.60524 0.0
C3098 C 0.79396 0.15542 0.55666 0.0
H3099 H 0.7946 0.23686 0.50635 0.0
H3100 H 0.78169 0.21039 0.52776 0.0
H3101 H 0.79529 0.17663 0.53103 0.0
H3102 H 0.80441 0.08326 0.57631 0.0
H3103 H 0.8108 0.11634 0.56378 0.0
H3104 H 0.80624 0.16288 0.60918 0.0
C3105 C 0.79654 0.21655 0.53348 0.0
C3106 C 0.79739 0.17404 0.54815 0.0
C3107 C 0.80372 0.23194 0.52138 0.0
C3108 C 0.79813 0.09543 0.58447 0.0
C3109 C 0.80186 0.11444 0.57729 0.0
C3110 C 0.80354 0.16585 0.59211 0.0
C3111 C 0.8092 0.20815 0.55175 0.0
C3112 C 0.80416 0.18885 0.56142 0.0
C3113 C 0.7942 0.13078 0.58738 0.0
C3114 C 0.79717 0.15099 0.57871 0.0
H3115 H 0.85076 0.23793 0.55153 0.0
H3116 H 0.83829 0.2109 0.57282 0.0
H3117 H 0.81232 0.1956 0.59422 0.0
H3118 H 0.77021 0.1066 0.62574 0.0
H3119 H 0.77696 0.13984 0.61329 0.0
loop_
_geom_bond_atom_site_label_1
_geom_bond_atom_site_label_2
_geom_bond_distance
_geom_bond_site_symmetry_2
_ccdc_geom_bond_type
Tb0 C9 2.764 . S
Tb0 O10 2.325 . S
Tb0 O13 2.303 . S
Tb0 O17 2.322 1_455 S
Tb0 O18 2.349 1_455 S
Tb0 O21 2.415 . S
Tb0 O22 2.399 . S
Tb1 O11 2.322 1_655 S
Tb1 O12 2.349 1_655 S
Tb1 O14 2.415 . S
Tb1 O15 2.399 . S
Tb1 O16 2.325 . S
Tb1 O19 2.303 . S
Tb1 C30 2.764 . S
C2 O18 1.261 . S
C2 O19 1.257 . S
C3 C6 1.358 . S
C3 C7 1.332 . S
C3 C9 1.504 . S
C4 C5 1.373 . S
C4 C8 1.308 . S
C5 C4 1.373 . S
C5 C6 1.429 . S
C5 H32 0.932 . S
C6 C3 1.358 . S
C6 C5 1.429 . S
C6 H33 0.930 . S
C7 C3 1.332 . S
C7 C8 1.394 . S
C7 H34 0.932 . S
C8 C4 1.308 . S
C8 C7 1.394 . S
C8 H35 0.929 . S
C9 Tb0 2.764 . S
C9 C3 1.504 . S
C9 O21 1.239 . S
C9 O22 1.263 . S
O10 Tb0 2.325 . S
O10 C20 1.236 . S
O11 Tb1 2.322 1_455 S
O11 C20 1.257 . S
O12 Tb1 2.349 1_455 S
O12 C23 1.261 . S
O13 Tb0 2.303 . S
O13 C23 1.257 . S
O14 Tb1 2.415 . S
O14 C30 1.239 . S
O15 Tb1 2.399 . S
O15 C30 1.263 . S
O16 Tb1 2.325 . S
O16 C31 1.236 . S
O17 Tb0 2.322 1_655 S
O17 C31 1.257 . S
O18 Tb0 2.349 1_655 S
O18 C2 1.261 . S
O19 Tb1 2.303 . S
O19 C2 1.257 . S
C20 O10 1.236 . S
C20 O11 1.257 . S
O21 Tb0 2.415 . S
O21 C9 1.239 . S
O22 Tb0 2.399 . S
O22 C9 1.263 . S
C23 O12 1.261 . S
C23 O13 1.257 . S
C24 C27 1.358 . S
C24 C28 1.332 . S
C24 C30 1.504 . S
C25 C26 1.373 . S
C25 C29 1.308 . S
C26 C25 1.373 . S
C26 C27 1.429 . S
C26 H36 0.932 . S
C27 C24 1.358 . S
C27 C26 1.429 . S
C27 H37 0.930 . S
C28 C24 1.332 . S
C28 C29 1.394 . S
C28 H38 0.932 . S
C29 C25 1.308 . S
C29 C28 1.394 . S
C29 H39 0.929 . S
C30 Tb1 2.764 . S
C30 O14 1.239 . S
C30 O15 1.263 . S
C30 C24 1.504 . S
C31 O16 1.236 . S
C31 O17 1.257 . S
H32 C5 0.932 . S
H33 C6 0.930 . S
H34 C7 0.932 . S
H35 C8 0.929 . S
H36 C26 0.932 . S
H37 C27 0.930 . S
H38 C28 0.932 . S
H39 C29 0.929 . S
Tb40 C49 2.764 . S
Tb40 O50 2.325 . S
Tb40 O53 2.303 . S
Tb40 O57 2.322 . S
Tb40 O58 2.349 . S
Tb40 O61 2.415 . S
Tb40 O62 2.399 . S
Tb41 O51 2.322 . S
Tb41 O52 2.349 . S
Tb41 O54 2.415 . S
Tb41 O55 2.399 . S
Tb41 O56 2.325 . S
Tb41 O59 2.303 . S
Tb41 C70 2.764 . S
C42 O58 1.261 . S
C42 O59 1.257 . S
C43 C46 1.358 . S
C43 C47 1.332 . S
C43 C49 1.504 . S
C44 C45 1.373 . S
C44 C48 1.308 . S
C45 C44 1.373 . S
C45 C46 1.429 . S
C45 H72 0.932 . S
C46 C43 1.358 . S
C46 C45 1.429 . S
C46 H73 0.930 . S
C47 C43 1.332 . S
C47 C48 1.394 . S
C47 H74 0.932 . S
C48 C44 1.308 . S
C48 C47 1.394 . S
C48 H75 0.929 . S
C49 Tb40 2.764 . S
C49 C43 1.504 . S
C49 O61 1.239 . S
C49 O62 1.263 . S
O50 Tb40 2.325 . S
O50 C60 1.236 . S
O51 Tb41 2.322 . S
O51 C60 1.257 . S
O52 Tb41 2.349 . S
O52 C63 1.261 . S
O53 Tb40 2.303 . S
O53 C63 1.257 . S
O54 Tb41 2.415 . S
O54 C70 1.239 . S
O55 Tb41 2.399 . S
O55 C70 1.263 . S
O56 Tb41 2.325 . S
O56 C71 1.236 . S
O57 Tb40 2.322 . S
O57 C71 1.257 . S
O58 Tb40 2.349 . S
O58 C42 1.261 . S
O59 Tb41 2.303 . S
O59 C42 1.257 . S
C60 O50 1.236 . S
C60 O51 1.257 . S
O61 Tb40 2.415 . S
O61 C49 1.239 . S
O62 Tb40 2.399 . S
O62 C49 1.263 . S
C63 O52 1.261 . S
C63 O53 1.257 . S
C64 C67 1.358 . S
C64 C68 1.332 . S
C64 C70 1.504 . S
C65 C66 1.373 . S
C65 C69 1.308 . S
C66 C65 1.373 . S
C66 C67 1.429 . S
C66 H76 0.932 . S
C67 C64 1.358 . S
C67 C66 1.429 . S
C67 H77 0.930 . S
C68 C64 1.332 . S
C68 C69 1.394 . S
C68 H78 0.932 . S
C69 C65 1.308 . S
C69 C68 1.394 . S
C69 H79 0.929 . S
C70 Tb41 2.764 . S
C70 O54 1.239 . S
C70 O55 1.263 . S
C70 C64 1.504 . S
C71 O56 1.236 . S
C71 O57 1.257 . S
H72 C45 0.932 . S
H73 C46 0.930 . S
H74 C47 0.932 . S
H75 C48 0.929 . S
H76 C66 0.932 . S
H77 C67 0.930 . S
H78 C68 0.932 . S
H79 C69 0.929 . S
Tb80 C89 2.764 . S
Tb80 O90 2.325 . S
Tb80 O93 2.303 . S
Tb80 O97 2.322 . S
Tb80 O98 2.349 . S
Tb80 O101 2.415 . S
Tb80 O102 2.399 . S
Tb81 O91 2.322 . S
Tb81 O92 2.349 . S
Tb81 O94 2.415 . S
Tb81 O95 2.399 . S
Tb81 O96 2.325 . S
Tb81 O99 2.303 . S
Tb81 C110 2.764 . S
C82 O98 1.261 . S
C82 O99 1.257 . S
C83 C86 1.358 . S
C83 C87 1.332 . S
C83 C89 1.504 . S
C84 C85 1.373 . S
C84 C88 1.308 . S
C85 C84 1.373 . S
C85 C86 1.429 . S
C85 H112 0.932 . S
C86 C83 1.358 . S
C86 C85 1.429 . S
C86 H113 0.930 . S
C87 C83 1.332 . S
C87 C88 1.394 . S
C87 H114 0.932 . S
C88 C84 1.308 . S
C88 C87 1.394 . S
C88 H115 0.929 . S
C89 Tb80 2.764 . S
C89 C83 1.504 . S
C89 O101 1.239 . S
C89 O102 1.263 . S
O90 Tb80 2.325 . S
O90 C100 1.236 . S
O91 Tb81 2.322 . S
O91 C100 1.257 . S
O92 Tb81 2.349 . S
O92 C103 1.261 . S
O93 Tb80 2.303 . S
O93 C103 1.257 . S
O94 Tb81 2.415 . S
O94 C110 1.239 . S
O95 Tb81 2.399 . S
O95 C110 1.263 . S
O96 Tb81 2.325 . S
O96 C111 1.236 . S
O97 Tb80 2.322 . S
O97 C111 1.257 . S
O98 Tb80 2.349 . S
O98 C82 1.261 . S
O99 Tb81 2.303 . S
O99 C82 1.257 . S
C100 O90 1.236 . S
C100 O91 1.257 . S
O101 Tb80 2.415 . S
O101 C89 1.239 . S
O102 Tb80 2.399 . S
O102 C89 1.263 . S
C103 O92 1.261 . S
C103 O93 1.257 . S
C104 C107 1.358 . S
C104 C108 1.332 . S
C104 C110 1.504 . S
C105 C106 1.373 . S
C105 C109 1.308 . S
C106 C105 1.373 . S
C106 C107 1.429 . S
C106 H116 0.932 . S
C107 C104 1.358 . S
C107 C106 1.429 . S
C107 H117 0.930 . S
C108 C104 1.332 . S
C108 C109 1.394 . S
C108 H118 0.932 . S
C109 C105 1.308 . S
C109 C108 1.394 . S
C109 H119 0.929 . S
C110 Tb81 2.764 . S
C110 O94 1.239 . S
C110 O95 1.263 . S
C110 C104 1.504 . S
C111 O96 1.236 . S
C111 O97 1.257 . S
H112 C85 0.932 . S
H113 C86 0.930 . S
H114 C87 0.932 . S
H115 C88 0.929 . S
H116 C106 0.932 . S
H117 C107 0.930 . S
H118 C108 0.932 . S
H119 C109 0.929 . S
Tb120 C129 2.764 . S
Tb120 O130 2.325 . S
Tb120 O133 2.303 . S
Tb120 O137 2.322 1_655 S
Tb120 O138 2.349 1_655 S
Tb120 O141 2.415 . S
Tb120 O142 2.399 . S
Tb121 O131 2.322 . S
Tb121 O132 2.349 . S
Tb121 O134 2.415 1_655 S
Tb121 O135 2.399 1_655 S
Tb121 O136 2.325 1_655 S
Tb121 O139 2.303 1_655 S
Tb121 C150 2.764 1_655 S
C122 O138 1.261 . S
C122 O139 1.257 . S
C123 C126 1.358 . S
C123 C127 1.332 . S
C123 C129 1.504 . S
C124 C125 1.373 . S
C124 C128 1.308 . S
C125 C124 1.373 . S
C125 C126 1.429 . S
C125 H152 0.932 . S
C126 C123 1.358 . S
C126 C125 1.429 . S
C126 H153 0.930 . S
C127 C123 1.332 . S
C127 C128 1.394 . S
C127 H154 0.932 . S
C128 C124 1.308 . S
C128 C127 1.394 . S
C128 H155 0.929 . S
C129 Tb120 2.764 . S
C129 C123 1.504 . S
C129 O141 1.239 . S
C129 O142 1.263 . S
O130 Tb120 2.325 . S
O130 C140 1.236 . S
O131 Tb121 2.322 . S
O131 C140 1.257 . S
O132 Tb121 2.349 . S
O132 C143 1.261 . S
O133 Tb120 2.303 . S
O133 C143 1.257 . S
O134 Tb121 2.415 1_455 S
O134 C150 1.239 . S
O135 Tb121 2.399 1_455 S
O135 C150 1.263 . S
O136 Tb121 2.325 1_455 S
O136 C151 1.236 . S
O137 Tb120 2.322 1_455 S
O137 C151 1.257 . S
O138 Tb120 2.349 1_455 S
O138 C122 1.261 . S
O139 Tb121 2.303 1_455 S
O139 C122 1.257 . S
C140 O130 1.236 . S
C140 O131 1.257 . S
O141 Tb120 2.415 . S
O141 C129 1.239 . S
O142 Tb120 2.399 . S
O142 C129 1.263 . S
C143 O132 1.261 . S
C143 O133 1.257 . S
C144 C147 1.358 . S
C144 C148 1.332 . S
C144 C150 1.504 . S
C145 C146 1.373 . S
C145 C149 1.308 . S
C146 C145 1.373 . S
C146 C147 1.429 . S
C146 H156 0.932 . S
C147 C144 1.358 . S
C147 C146 1.429 . S
C147 H157 0.930 . S
C148 C144 1.332 . S
C148 C149 1.394 . S
C148 H158 0.932 . S
C149 C145 1.308 . S
C149 C148 1.394 . S
C149 H159 0.929 . S
C150 Tb121 2.764 1_455 S
C150 O134 1.239 . S
C150 O135 1.263 . S
C150 C144 1.504 . S
C151 O136 1.236 . S
C151 O137 1.257 . S
H152 C125 0.932 . S
H153 C126 0.930 . S
H154 C127 0.932 . S
H155 C128 0.929 . S
H156 C146 0.932 . S
H157 C147 0.930 . S
H158 C148 0.932 . S
H159 C149 0.929 . S
Tb160 C169 2.764 . S
Tb160 O170 2.325 . S
Tb160 O173 2.303 . S
Tb160 O177 2.322 1_545 S
Tb160 O178 2.349 1_545 S
Tb160 O181 2.415 . S
Tb160 O182 2.399 . S
Tb161 O171 2.322 1_565 S
Tb161 O172 2.349 1_565 S
Tb161 O174 2.415 . S
Tb161 O175 2.399 . S
Tb161 O176 2.325 . S
Tb161 O179 2.303 . S
Tb161 C190 2.764 . S
C162 O178 1.261 . S
C162 O179 1.257 . S
C163 C166 1.358 . S
C163 C167 1.332 . S
C163 C169 1.504 . S
C164 C165 1.373 . S
C164 C168 1.308 . S
C165 C164 1.373 . S
C165 C166 1.429 . S
C165 H192 0.932 . S
C166 C163 1.358 . S
C166 C165 1.429 . S
C166 H193 0.930 . S
C167 C163 1.332 . S
C167 C168 1.394 . S
C167 H194 0.932 . S
C168 C164 1.308 . S
C168 C167 1.394 . S
C168 H195 0.929 . S
C169 Tb160 2.764 . S
C169 C163 1.504 . S
C169 O181 1.239 . S
C169 O182 1.263 . S
O170 Tb160 2.325 . S
O170 C180 1.236 . S
O171 Tb161 2.322 1_545 S
O171 C180 1.257 . S
O172 Tb161 2.349 1_545 S
O172 C183 1.261 . S
O173 Tb160 2.303 . S
O173 C183 1.257 . S
O174 Tb161 2.415 . S
O174 C190 1.239 . S
O175 Tb161 2.399 . S
O175 C190 1.263 . S
O176 Tb161 2.325 . S
O176 C191 1.236 . S
O177 Tb160 2.322 1_565 S
O177 C191 1.257 . S
O178 Tb160 2.349 1_565 S
O178 C162 1.261 . S
O179 Tb161 2.303 . S
O179 C162 1.257 . S
C180 O170 1.236 . S
C180 O171 1.257 . S
O181 Tb160 2.415 . S
O181 C169 1.239 . S
O182 Tb160 2.399 . S
O182 C169 1.263 . S
C183 O172 1.261 . S
C183 O173 1.257 . S
C184 C187 1.358 . S
C184 C188 1.332 . S
C184 C190 1.504 . S
C185 C186 1.373 . S
C185 C189 1.308 . S
C186 C185 1.373 . S
C186 C187 1.429 . S
C186 H196 0.932 . S
C187 C184 1.358 . S
C187 C186 1.429 . S
C187 H197 0.930 . S
C188 C184 1.332 . S
C188 C189 1.394 . S
C188 H198 0.932 . S
C189 C185 1.308 . S
C189 C188 1.394 . S
C189 H199 0.929 . S
C190 Tb161 2.764 . S
C190 O174 1.239 . S
C190 O175 1.263 . S
C190 C184 1.504 . S
C191 O176 1.236 . S
C191 O177 1.257 . S
H192 C165 0.932 . S
H193 C166 0.930 . S
H194 C167 0.932 . S
H195 C168 0.929 . S
H196 C186 0.932 . S
H197 C187 0.930 . S
H198 C188 0.932 . S
H199 C189 0.929 . S
Tb200 C209 2.764 . S
Tb200 O210 2.325 . S
Tb200 O213 2.303 . S
Tb200 O217 2.322 1_565 S
Tb200 O218 2.349 1_565 S
Tb200 O221 2.415 . S
Tb200 O222 2.399 . S
Tb201 O211 2.322 1_545 S
Tb201 O212 2.349 1_545 S
Tb201 O214 2.415 . S
Tb201 O215 2.399 . S
Tb201 O216 2.325 . S
Tb201 O219 2.303 . S
Tb201 C230 2.764 . S
C202 O218 1.261 . S
C202 O219 1.257 . S
C203 C206 1.358 . S
C203 C207 1.332 . S
C203 C209 1.504 . S
C204 C205 1.373 . S
C204 C208 1.308 . S
C205 C204 1.373 . S
C205 C206 1.429 . S
C205 H232 0.932 . S
C206 C203 1.358 . S
C206 C205 1.429 . S
C206 H233 0.930 . S
C207 C203 1.332 . S
C207 C208 1.394 . S
C207 H234 0.932 . S
C208 C204 1.308 . S
C208 C207 1.394 . S
C208 H235 0.929 . S
C209 Tb200 2.764 . S
C209 C203 1.504 . S
C209 O221 1.239 . S
C209 O222 1.263 . S
O210 Tb200 2.325 . S
O210 C220 1.236 . S
O211 Tb201 2.322 1_565 S
O211 C220 1.257 . S
O212 Tb201 2.349 1_565 S
O212 C223 1.261 . S
O213 Tb200 2.303 . S
O213 C223 1.257 . S
O214 Tb201 2.415 . S
O214 C230 1.239 . S
O215 Tb201 2.399 . S
O215 C230 1.263 . S
O216 Tb201 2.325 . S
O216 C231 1.236 . S
O217 Tb200 2.322 1_545 S
O217 C231 1.257 . S
O218 Tb200 2.349 1_545 S
O218 C202 1.261 . S
O219 Tb201 2.303 . S
O219 C202 1.257 . S
C220 O210 1.236 . S
C220 O211 1.257 . S
O221 Tb200 2.415 . S
O221 C209 1.239 . S
O222 Tb200 2.399 . S
O222 C209 1.263 . S
C223 O212 1.261 . S
C223 O213 1.257 . S
C224 C227 1.358 . S
C224 C228 1.332 . S
C224 C230 1.504 . S
C225 C226 1.373 . S
C225 C229 1.308 . S
C226 C225 1.373 . S
C226 C227 1.429 . S
C226 H236 0.932 . S
C227 C224 1.358 . S
C227 C226 1.429 . S
C227 H237 0.930 . S
C228 C224 1.332 . S
C228 C229 1.394 . S
C228 H238 0.932 . S
C229 C225 1.308 . S
C229 C228 1.394 . S
C229 H239 0.929 . S
C230 Tb201 2.764 . S
C230 O214 1.239 . S
C230 O215 1.263 . S
C230 C224 1.504 . S
C231 O216 1.236 . S
C231 O217 1.257 . S
H232 C205 0.932 . S
H233 C206 0.930 . S
H234 C207 0.932 . S
H235 C208 0.929 . S
H236 C226 0.932 . S
H237 C227 0.930 . S
H238 C228 0.932 . S
H239 C229 0.929 . S
Tb240 C249 2.764 . S
Tb240 O250 2.325 . S
Tb240 O253 2.303 . S
Tb240 O257 2.322 . S
Tb240 O258 2.349 . S
Tb240 O261 2.415 . S
Tb240 O262 2.399 . S
Tb241 O251 2.322 . S
Tb241 O252 2.349 . S
Tb241 O254 2.415 . S
Tb241 O255 2.399 . S
Tb241 O256 2.325 . S
Tb241 O259 2.303 . S
Tb241 C270 2.764 . S
C242 O258 1.261 . S
C242 O259 1.257 . S
C243 C246 1.358 . S
C243 C247 1.332 . S
C243 C249 1.504 . S
C244 C245 1.373 . S
C244 C248 1.308 . S
C245 C244 1.373 . S
C245 C246 1.429 . S
C245 H272 0.932 . S
C246 C243 1.358 . S
C246 C245 1.429 . S
C246 H273 0.930 . S
C247 C243 1.332 . S
C247 C248 1.394 . S
C247 H274 0.932 . S
C248 C244 1.308 . S
C248 C247 1.394 . S
C248 H275 0.929 . S
C249 Tb240 2.764 . S
C249 C243 1.504 . S
C249 O261 1.239 . S
C249 O262 1.263 . S
O250 Tb240 2.325 . S
O250 C260 1.236 . S
O251 Tb241 2.322 . S
O251 C260 1.257 . S
O252 Tb241 2.349 . S
O252 C263 1.261 . S
O253 Tb240 2.303 . S
O253 C263 1.257 . S
O254 Tb241 2.415 . S
O254 C270 1.239 . S
O255 Tb241 2.399 . S
O255 C270 1.263 . S
O256 Tb241 2.325 . S
O256 C271 1.236 . S
O257 Tb240 2.322 . S
O257 C271 1.257 . S
O258 Tb240 2.349 . S
O258 C242 1.261 . S
O259 Tb241 2.303 . S
O259 C242 1.257 . S
C260 O250 1.236 . S
C260 O251 1.257 . S
O261 Tb240 2.415 . S
O261 C249 1.239 . S
O262 Tb240 2.399 . S
O262 C249 1.263 . S
C263 O252 1.261 . S
C263 O253 1.257 . S
C264 C267 1.358 . S
C264 C268 1.332 . S
C264 C270 1.504 . S
C265 C266 1.373 . S
C265 C269 1.308 . S
C266 C265 1.373 . S
C266 C267 1.429 . S
C266 H276 0.932 . S
C267 C264 1.358 . S
C267 C266 1.429 . S
C267 H277 0.930 . S
C268 C264 1.332 . S
C268 C269 1.394 . S
C268 H278 0.932 . S
C269 C265 1.308 . S
C269 C268 1.394 . S
C269 H279 0.929 . S
C270 Tb241 2.764 . S
C270 O254 1.239 . S
C270 O255 1.263 . S
C270 C264 1.504 . S
C271 O256 1.236 . S
C271 O257 1.257 . S
H272 C245 0.932 . S
H273 C246 0.930 . S
H274 C247 0.932 . S
H275 C248 0.929 . S
H276 C266 0.932 . S
H277 C267 0.930 . S
H278 C268 0.932 . S
H279 C269 0.929 . S
Tb280 C289 2.764 . S
Tb280 O290 2.325 . S
Tb280 O293 2.303 . S
Tb280 O297 2.322 . S
Tb280 O298 2.349 . S
Tb280 O301 2.415 . S
Tb280 O302 2.399 . S
Tb281 O291 2.322 . S
Tb281 O292 2.349 . S
Tb281 O294 2.415 . S
Tb281 O295 2.399 . S
Tb281 O296 2.325 . S
Tb281 O299 2.303 . S
Tb281 C310 2.764 . S
C282 O298 1.261 . S
C282 O299 1.257 . S
C283 C286 1.358 . S
C283 C287 1.332 . S
C283 C289 1.504 . S
C284 C285 1.373 . S
C284 C288 1.308 . S
C285 C284 1.373 . S
C285 C286 1.429 . S
C285 H312 0.932 . S
C286 C283 1.358 . S
C286 C285 1.429 . S
C286 H313 0.930 . S
C287 C283 1.332 . S
C287 C288 1.394 . S
C287 H314 0.932 . S
C288 C284 1.308 . S
C288 C287 1.394 . S
C288 H315 0.929 . S
C289 Tb280 2.764 . S
C289 C283 1.504 . S
C289 O301 1.239 . S
C289 O302 1.263 . S
O290 Tb280 2.325 . S
O290 C300 1.236 . S
O291 Tb281 2.322 . S
O291 C300 1.257 . S
O292 Tb281 2.349 . S
O292 C303 1.261 . S
O293 Tb280 2.303 . S
O293 C303 1.257 . S
O294 Tb281 2.415 . S
O294 C310 1.239 . S
O295 Tb281 2.399 . S
O295 C310 1.263 . S
O296 Tb281 2.325 . S
O296 C311 1.236 . S
O297 Tb280 2.322 . S
O297 C311 1.257 . S
O298 Tb280 2.349 . S
O298 C282 1.261 . S
O299 Tb281 2.303 . S
O299 C282 1.257 . S
C300 O290 1.236 . S
C300 O291 1.257 . S
O301 Tb280 2.415 . S
O301 C289 1.239 . S
O302 Tb280 2.399 . S
O302 C289 1.263 . S
C303 O292 1.261 . S
C303 O293 1.257 . S
C304 C307 1.358 . S
C304 C308 1.332 . S
C304 C310 1.504 . S
C305 C306 1.373 . S
C305 C309 1.308 . S
C306 C305 1.373 . S
C306 C307 1.429 . S
C306 H316 0.932 . S
C307 C304 1.358 . S
C307 C306 1.429 . S
C307 H317 0.930 . S
C308 C304 1.332 . S
C308 C309 1.394 . S
C308 H318 0.932 . S
C309 C305 1.308 . S
C309 C308 1.394 . S
C309 H319 0.929 . S
C310 Tb281 2.764 . S
C310 O294 1.239 . S
C310 O295 1.263 . S
C310 C304 1.504 . S
C311 O296 1.236 . S
C311 O297 1.257 . S
H312 C285 0.932 . S
H313 C286 0.930 . S
H314 C287 0.932 . S
H315 C288 0.929 . S
H316 C306 0.932 . S
H317 C307 0.930 . S
H318 C308 0.932 . S
H319 C309 0.929 . S
Tb320 C329 2.764 . S
Tb320 O330 2.325 . S
Tb320 O333 2.303 . S
Tb320 O337 2.322 . S
Tb320 O338 2.349 . S
Tb320 O341 2.415 . S
Tb320 O342 2.399 . S
Tb321 O331 2.322 . S
Tb321 O332 2.349 . S
Tb321 O334 2.415 1_554 S
Tb321 O335 2.399 . S
Tb321 O336 2.325 . S
Tb321 O339 2.303 . S
Tb321 C350 2.764 1_554 S
C322 O338 1.261 . S
C322 O339 1.257 . S
C323 C326 1.358 . S
C323 C327 1.332 . S
C323 C329 1.504 . S
C324 C325 1.373 . S
C324 C328 1.308 . S
C325 C324 1.373 . S
C325 C326 1.429 . S
C325 H352 0.932 . S
C326 C323 1.358 . S
C326 C325 1.429 . S
C326 H353 0.930 . S
C327 C323 1.332 . S
C327 C328 1.394 . S
C327 H354 0.932 . S
C328 C324 1.308 . S
C328 C327 1.394 . S
C328 H355 0.929 . S
C329 Tb320 2.764 . S
C329 C323 1.504 . S
C329 O341 1.239 . S
C329 O342 1.263 . S
O330 Tb320 2.325 . S
O330 C340 1.236 . S
O331 Tb321 2.322 . S
O331 C340 1.257 . S
O332 Tb321 2.349 . S
O332 C343 1.261 . S
O333 Tb320 2.303 . S
O333 C343 1.257 . S
O334 Tb321 2.415 1_556 S
O334 C350 1.239 . S
O335 Tb321 2.399 . S
O335 C350 1.263 1_554 S
O336 Tb321 2.325 . S
O336 C351 1.236 . S
O337 Tb320 2.322 . S
O337 C351 1.257 . S
O338 Tb320 2.349 . S
O338 C322 1.261 . S
O339 Tb321 2.303 . S
O339 C322 1.257 . S
C340 O330 1.236 . S
C340 O331 1.257 . S
O341 Tb320 2.415 . S
O341 C329 1.239 . S
O342 Tb320 2.399 . S
O342 C329 1.263 . S
C343 O332 1.261 . S
C343 O333 1.257 . S
C344 C347 1.358 . S
C344 C348 1.332 . S
C344 C350 1.504 . S
C345 C346 1.373 . S
C345 C349 1.308 . S
C346 C345 1.373 . S
C346 C347 1.429 . S
C346 H356 0.932 . S
C347 C344 1.358 . S
C347 C346 1.429 . S
C347 H357 0.930 . S
C348 C344 1.332 . S
C348 C349 1.394 . S
C348 H358 0.932 . S
C349 C345 1.308 . S
C349 C348 1.394 . S
C349 H359 0.929 . S
C350 Tb321 2.764 1_556 S
C350 O334 1.239 . S
C350 O335 1.263 1_556 S
C350 C344 1.504 . S
C351 O336 1.236 . S
C351 O337 1.257 . S
H352 C325 0.932 . S
H353 C326 0.930 . S
H354 C327 0.932 . S
H355 C328 0.929 . S
H356 C346 0.932 . S
H357 C347 0.930 . S
H358 C348 0.932 . S
H359 C349 0.929 . S
Tb360 C369 2.764 . S
Tb360 O370 2.325 . S
Tb360 O373 2.303 . S
Tb360 O377 2.322 . S
Tb360 O378 2.349 . S
Tb360 O381 2.415 . S
Tb360 O382 2.399 . S
Tb361 O371 2.322 . S
Tb361 O372 2.349 . S
Tb361 O374 2.415 . S
Tb361 O375 2.399 . S
Tb361 O376 2.325 . S
Tb361 O379 2.303 . S
Tb361 C390 2.764 . S
C362 O378 1.261 . S
C362 O379 1.257 . S
C363 C366 1.358 . S
C363 C367 1.332 . S
C363 C369 1.504 1_554 S
C364 C365 1.373 . S
C364 C368 1.308 . S
C365 C364 1.373 . S
C365 C366 1.429 . S
C365 H392 0.932 . S
C366 C363 1.358 . S
C366 C365 1.429 . S
C366 H393 0.930 1_554 S
C367 C363 1.332 . S
C367 C368 1.394 . S
C367 H394 0.932 . S
C368 C364 1.308 . S
C368 C367 1.394 . S
C368 H395 0.929 . S
C369 Tb360 2.764 . S
C369 C363 1.504 1_556 S
C369 O381 1.239 . S
C369 O382 1.263 . S
O370 Tb360 2.325 . S
O370 C380 1.236 . S
O371 Tb361 2.322 . S
O371 C380 1.257 . S
O372 Tb361 2.349 . S
O372 C383 1.261 . S
O373 Tb360 2.303 . S
O373 C383 1.257 . S
O374 Tb361 2.415 . S
O374 C390 1.239 . S
O375 Tb361 2.399 . S
O375 C390 1.263 . S
O376 Tb361 2.325 . S
O376 C391 1.236 . S
O377 Tb360 2.322 . S
O377 C391 1.257 . S
O378 Tb360 2.349 . S
O378 C362 1.261 . S
O379 Tb361 2.303 . S
O379 C362 1.257 . S
C380 O370 1.236 . S
C380 O371 1.257 . S
O381 Tb360 2.415 . S
O381 C369 1.239 . S
O382 Tb360 2.399 . S
O382 C369 1.263 . S
C383 O372 1.261 . S
C383 O373 1.257 . S
C384 C387 1.358 . S
C384 C388 1.332 . S
C384 C390 1.504 . S
C385 C386 1.373 . S
C385 C389 1.308 . S
C386 C385 1.373 . S
C386 C387 1.429 . S
C386 H396 0.932 . S
C387 C384 1.358 . S
C387 C386 1.429 . S
C387 H397 0.930 . S
C388 C384 1.332 . S
C388 C389 1.394 . S
C388 H398 0.932 . S
C389 C385 1.308 . S
C389 C388 1.394 . S
C389 H399 0.929 . S
C390 Tb361 2.764 . S
C390 O374 1.239 . S
C390 O375 1.263 . S
C390 C384 1.504 . S
C391 O376 1.236 . S
C391 O377 1.257 . S
H392 C365 0.932 . S
H393 C366 0.930 1_556 S
H394 C367 0.932 . S
H395 C368 0.929 . S
H396 C386 0.932 . S
H397 C387 0.930 . S
H398 C388 0.932 . S
H399 C389 0.929 . S
Tb400 C409 2.764 . S
Tb400 O410 2.325 . S
Tb400 O413 2.303 . S
Tb400 O417 2.322 . S
Tb400 O418 2.349 . S
Tb400 O421 2.415 . S
Tb400 O422 2.399 . S
Tb401 O411 2.322 . S
Tb401 O412 2.349 . S
Tb401 O414 2.415 . S
Tb401 O415 2.399 . S
Tb401 O416 2.325 . S
Tb401 O419 2.303 . S
Tb401 C430 2.764 . S
C402 O418 1.261 . S
C402 O419 1.257 . S
C403 C406 1.358 . S
C403 C407 1.332 . S
C403 C409 1.504 . S
C404 C405 1.373 . S
C404 C408 1.308 . S
C405 C404 1.373 . S
C405 C406 1.429 . S
C405 H432 0.932 . S
C406 C403 1.358 . S
C406 C405 1.429 . S
C406 H433 0.930 . S
C407 C403 1.332 . S
C407 C408 1.394 . S
C407 H434 0.932 . S
C408 C404 1.308 . S
C408 C407 1.394 . S
C408 H435 0.929 . S
C409 Tb400 2.764 . S
C409 C403 1.504 . S
C409 O421 1.239 . S
C409 O422 1.263 . S
O410 Tb400 2.325 . S
O410 C420 1.236 . S
O411 Tb401 2.322 . S
O411 C420 1.257 . S
O412 Tb401 2.349 . S
O412 C423 1.261 . S
O413 Tb400 2.303 . S
O413 C423 1.257 . S
O414 Tb401 2.415 . S
O414 C430 1.239 . S
O415 Tb401 2.399 . S
O415 C430 1.263 . S
O416 Tb401 2.325 . S
O416 C431 1.236 . S
O417 Tb400 2.322 . S
O417 C431 1.257 . S
O418 Tb400 2.349 . S
O418 C402 1.261 . S
O419 Tb401 2.303 . S
O419 C402 1.257 . S
C420 O410 1.236 . S
C420 O411 1.257 . S
O421 Tb400 2.415 . S
O421 C409 1.239 . S
O422 Tb400 2.399 . S
O422 C409 1.263 . S
C423 O412 1.261 . S
C423 O413 1.257 . S
C424 C427 1.358 . S
C424 C428 1.332 . S
C424 C430 1.504 . S
C425 C426 1.373 . S
C425 C429 1.308 . S
C426 C425 1.373 . S
C426 C427 1.429 . S
C426 H436 0.932 . S
C427 C424 1.358 . S
C427 C426 1.429 . S
C427 H437 0.930 . S
C428 C424 1.332 . S
C428 C429 1.394 . S
C428 H438 0.932 . S
C429 C425 1.308 . S
C429 C428 1.394 . S
C429 H439 0.929 . S
C430 Tb401 2.764 . S
C430 O414 1.239 . S
C430 O415 1.263 . S
C430 C424 1.504 . S
C431 O416 1.236 . S
C431 O417 1.257 . S
H432 C405 0.932 . S
H433 C406 0.930 . S
H434 C407 0.932 . S
H435 C408 0.929 . S
H436 C426 0.932 . S
H437 C427 0.930 . S
H438 C428 0.932 . S
H439 C429 0.929 . S
Tb440 C449 2.764 . S
Tb440 O450 2.325 . S
Tb440 O453 2.303 . S
Tb440 O457 2.322 . S
Tb440 O458 2.349 . S
Tb440 O461 2.415 . S
Tb440 O462 2.399 . S
Tb441 O451 2.322 . S
Tb441 O452 2.349 . S
Tb441 O454 2.415 . S
Tb441 O455 2.399 . S
Tb441 O456 2.325 . S
Tb441 O459 2.303 . S
Tb441 C470 2.764 . S
C442 O458 1.261 . S
C442 O459 1.257 . S
C443 C446 1.358 . S
C443 C447 1.332 . S
C443 C449 1.504 . S
C444 C445 1.373 . S
C444 C448 1.308 . S
C445 C444 1.373 . S
C445 C446 1.429 . S
C445 H472 0.932 . S
C446 C443 1.358 . S
C446 C445 1.429 . S
C446 H473 0.930 . S
C447 C443 1.332 . S
C447 C448 1.394 . S
C447 H474 0.932 . S
C448 C444 1.308 . S
C448 C447 1.394 . S
C448 H475 0.929 . S
C449 Tb440 2.764 . S
C449 C443 1.504 . S
C449 O461 1.239 . S
C449 O462 1.263 . S
O450 Tb440 2.325 . S
O450 C460 1.236 . S
O451 Tb441 2.322 . S
O451 C460 1.257 . S
O452 Tb441 2.349 . S
O452 C463 1.261 . S
O453 Tb440 2.303 . S
O453 C463 1.257 . S
O454 Tb441 2.415 . S
O454 C470 1.239 . S
O455 Tb441 2.399 . S
O455 C470 1.263 . S
O456 Tb441 2.325 . S
O456 C471 1.236 . S
O457 Tb440 2.322 . S
O457 C471 1.257 . S
O458 Tb440 2.349 . S
O458 C442 1.261 . S
O459 Tb441 2.303 . S
O459 C442 1.257 . S
C460 O450 1.236 . S
C460 O451 1.257 . S
O461 Tb440 2.415 . S
O461 C449 1.239 . S
O462 Tb440 2.399 . S
O462 C449 1.263 . S
C463 O452 1.261 . S
C463 O453 1.257 . S
C464 C467 1.358 . S
C464 C468 1.332 . S
C464 C470 1.504 . S
C465 C466 1.373 . S
C465 C469 1.308 . S
C466 C465 1.373 . S
C466 C467 1.429 . S
C466 H476 0.932 . S
C467 C464 1.358 . S
C467 C466 1.429 . S
C467 H477 0.930 . S
C468 C464 1.332 . S
C468 C469 1.394 . S
C468 H478 0.932 . S
C469 C465 1.308 . S
C469 C468 1.394 . S
C469 H479 0.929 . S
C470 Tb441 2.764 . S
C470 O454 1.239 . S
C470 O455 1.263 . S
C470 C464 1.504 . S
C471 O456 1.236 . S
C471 O457 1.257 . S
H472 C445 0.932 . S
H473 C446 0.930 . S
H474 C447 0.932 . S
H475 C448 0.929 . S
H476 C466 0.932 . S
H477 C467 0.930 . S
H478 C468 0.932 . S
H479 C469 0.929 . S
Tb480 C489 2.764 . S
Tb480 O490 2.325 . S
Tb480 O493 2.303 . S
Tb480 O497 2.322 1_455 S
Tb480 O498 2.349 1_455 S
Tb480 O501 2.415 . S
Tb480 O502 2.399 . S
Tb481 O491 2.322 1_655 S
Tb481 O492 2.349 1_655 S
Tb481 O494 2.415 . S
Tb481 O495 2.399 . S
Tb481 O496 2.325 . S
Tb481 O499 2.303 . S
Tb481 C510 2.764 . S
C482 O498 1.261 . S
C482 O499 1.257 . S
C483 C486 1.358 . S
C483 C487 1.332 . S
C483 C489 1.504 . S
C484 C485 1.373 . S
C484 C488 1.308 . S
C485 C484 1.373 . S
C485 C486 1.429 . S
C485 H512 0.932 . S
C486 C483 1.358 . S
C486 C485 1.429 . S
C486 H513 0.930 . S
C487 C483 1.332 . S
C487 C488 1.394 . S
C487 H514 0.932 . S
C488 C484 1.308 . S
C488 C487 1.394 . S
C488 H515 0.929 . S
C489 Tb480 2.764 . S
C489 C483 1.504 . S
C489 O501 1.239 . S
C489 O502 1.263 . S
O490 Tb480 2.325 . S
O490 C500 1.236 . S
O491 Tb481 2.322 1_455 S
O491 C500 1.257 . S
O492 Tb481 2.349 1_455 S
O492 C503 1.261 . S
O493 Tb480 2.303 . S
O493 C503 1.257 . S
O494 Tb481 2.415 . S
O494 C510 1.239 . S
O495 Tb481 2.399 . S
O495 C510 1.263 . S
O496 Tb481 2.325 . S
O496 C511 1.236 . S
O497 Tb480 2.322 1_655 S
O497 C511 1.257 . S
O498 Tb480 2.349 1_655 S
O498 C482 1.261 . S
O499 Tb481 2.303 . S
O499 C482 1.257 . S
C500 O490 1.236 . S
C500 O491 1.257 . S
O501 Tb480 2.415 . S
O501 C489 1.239 . S
O502 Tb480 2.399 . S
O502 C489 1.263 . S
C503 O492 1.261 . S
C503 O493 1.257 . S
C504 C507 1.358 . S
C504 C508 1.332 . S
C504 C510 1.504 . S
C505 C506 1.373 . S
C505 C509 1.308 . S
C506 C505 1.373 . S
C506 C507 1.429 . S
C506 H516 0.932 . S
C507 C504 1.358 . S
C507 C506 1.429 . S
C507 H517 0.930 . S
C508 C504 1.332 . S
C508 C509 1.394 . S
C508 H518 0.932 . S
C509 C505 1.308 . S
C509 C508 1.394 . S
C509 H519 0.929 . S
C510 Tb481 2.764 . S
C510 O494 1.239 . S
C510 O495 1.263 . S
C510 C504 1.504 . S
C511 O496 1.236 . S
C511 O497 1.257 . S
H512 C485 0.932 . S
H513 C486 0.930 . S
H514 C487 0.932 . S
H515 C488 0.929 . S
H516 C506 0.932 . S
H517 C507 0.930 . S
H518 C508 0.932 . S
H519 C509 0.929 . S
Tb520 C529 2.764 . S
Tb520 O530 2.325 . S
Tb520 O533 2.303 . S
Tb520 O537 2.322 . S
Tb520 O538 2.349 . S
Tb520 O541 2.415 . S
Tb520 O542 2.399 . S
Tb521 O531 2.322 . S
Tb521 O532 2.349 . S
Tb521 O534 2.415 . S
Tb521 O535 2.399 . S
Tb521 O536 2.325 . S
Tb521 O539 2.303 . S
Tb521 C550 2.764 . S
C522 O538 1.261 . S
C522 O539 1.257 . S
C523 C526 1.358 . S
C523 C527 1.332 . S
C523 C529 1.504 . S
C524 C525 1.373 . S
C524 C528 1.308 . S
C525 C524 1.373 . S
C525 C526 1.429 . S
C525 H552 0.932 . S
C526 C523 1.358 . S
C526 C525 1.429 . S
C526 H553 0.930 . S
C527 C523 1.332 . S
C527 C528 1.394 . S
C527 H554 0.932 . S
C528 C524 1.308 . S
C528 C527 1.394 . S
C528 H555 0.929 . S
C529 Tb520 2.764 . S
C529 C523 1.504 . S
C529 O541 1.239 . S
C529 O542 1.263 . S
O530 Tb520 2.325 . S
O530 C540 1.236 . S
O531 Tb521 2.322 . S
O531 C540 1.257 . S
O532 Tb521 2.349 . S
O532 C543 1.261 . S
O533 Tb520 2.303 . S
O533 C543 1.257 . S
O534 Tb521 2.415 . S
O534 C550 1.239 . S
O535 Tb521 2.399 . S
O535 C550 1.263 . S
O536 Tb521 2.325 . S
O536 C551 1.236 . S
O537 Tb520 2.322 . S
O537 C551 1.257 . S
O538 Tb520 2.349 . S
O538 C522 1.261 . S
O539 Tb521 2.303 . S
O539 C522 1.257 . S
C540 O530 1.236 . S
C540 O531 1.257 . S
O541 Tb520 2.415 . S
O541 C529 1.239 . S
O542 Tb520 2.399 . S
O542 C529 1.263 . S
C543 O532 1.261 . S
C543 O533 1.257 . S
C544 C547 1.358 . S
C544 C548 1.332 . S
C544 C550 1.504 . S
C545 C546 1.373 . S
C545 C549 1.308 . S
C546 C545 1.373 . S
C546 C547 1.429 . S
C546 H556 0.932 . S
C547 C544 1.358 . S
C547 C546 1.429 . S
C547 H557 0.930 . S
C548 C544 1.332 . S
C548 C549 1.394 . S
C548 H558 0.932 . S
C549 C545 1.308 . S
C549 C548 1.394 . S
C549 H559 0.929 . S
C550 Tb521 2.764 . S
C550 O534 1.239 . S
C550 O535 1.263 . S
C550 C544 1.504 . S
C551 O536 1.236 . S
C551 O537 1.257 . S
H552 C525 0.932 . S
H553 C526 0.930 . S
H554 C527 0.932 . S
H555 C528 0.929 . S
H556 C546 0.932 . S
H557 C547 0.930 . S
H558 C548 0.932 . S
H559 C549 0.929 . S
Tb560 C569 2.764 . S
Tb560 O570 2.325 . S
Tb560 O573 2.303 . S
Tb560 O577 2.322 . S
Tb560 O578 2.349 . S
Tb560 O581 2.415 . S
Tb560 O582 2.399 . S
Tb561 O571 2.322 . S
Tb561 O572 2.349 . S
Tb561 O574 2.415 . S
Tb561 O575 2.399 . S
Tb561 O576 2.325 . S
Tb561 O579 2.303 . S
Tb561 C590 2.764 . S
C562 O578 1.261 . S
C562 O579 1.257 . S
C563 C566 1.358 . S
C563 C567 1.332 . S
C563 C569 1.504 . S
C564 C565 1.373 . S
C564 C568 1.308 . S
C565 C564 1.373 . S
C565 C566 1.429 . S
C565 H592 0.932 . S
C566 C563 1.358 . S
C566 C565 1.429 . S
C566 H593 0.930 . S
C567 C563 1.332 . S
C567 C568 1.394 . S
C567 H594 0.932 . S
C568 C564 1.308 . S
C568 C567 1.394 . S
C568 H595 0.929 . S
C569 Tb560 2.764 . S
C569 C563 1.504 . S
C569 O581 1.239 . S
C569 O582 1.263 . S
O570 Tb560 2.325 . S
O570 C580 1.236 . S
O571 Tb561 2.322 . S
O571 C580 1.257 . S
O572 Tb561 2.349 . S
O572 C583 1.261 . S
O573 Tb560 2.303 . S
O573 C583 1.257 . S
O574 Tb561 2.415 . S
O574 C590 1.239 . S
O575 Tb561 2.399 . S
O575 C590 1.263 . S
O576 Tb561 2.325 . S
O576 C591 1.236 . S
O577 Tb560 2.322 . S
O577 C591 1.257 . S
O578 Tb560 2.349 . S
O578 C562 1.261 . S
O579 Tb561 2.303 . S
O579 C562 1.257 . S
C580 O570 1.236 . S
C580 O571 1.257 . S
O581 Tb560 2.415 . S
O581 C569 1.239 . S
O582 Tb560 2.399 . S
O582 C569 1.263 . S
C583 O572 1.261 . S
C583 O573 1.257 . S
C584 C587 1.358 . S
C584 C588 1.332 . S
C584 C590 1.504 . S
C585 C586 1.373 . S
C585 C589 1.308 . S
C586 C585 1.373 . S
C586 C587 1.429 . S
C586 H596 0.932 . S
C587 C584 1.358 . S
C587 C586 1.429 . S
C587 H597 0.930 . S
C588 C584 1.332 . S
C588 C589 1.394 . S
C588 H598 0.932 . S
C589 C585 1.308 . S
C589 C588 1.394 . S
C589 H599 0.929 . S
C590 Tb561 2.764 . S
C590 O574 1.239 . S
C590 O575 1.263 . S
C590 C584 1.504 . S
C591 O576 1.236 . S
C591 O577 1.257 . S
H592 C565 0.932 . S
H593 C566 0.930 . S
H594 C567 0.932 . S
H595 C568 0.929 . S
H596 C586 0.932 . S
H597 C587 0.930 . S
H598 C588 0.932 . S
H599 C589 0.929 . S
Tb600 C609 2.764 1_455 S
Tb600 O610 2.325 1_455 S
Tb600 O613 2.303 1_455 S
Tb600 O617 2.322 . S
Tb600 O618 2.349 . S
Tb600 O621 2.415 1_455 S
Tb600 O622 2.399 1_455 S
Tb601 O611 2.322 1_455 S
Tb601 O612 2.349 1_455 S
Tb601 O614 2.415 . S
Tb601 O615 2.399 . S
Tb601 O616 2.325 . S
Tb601 O619 2.303 . S
Tb601 C630 2.764 . S
C602 O618 1.261 . S
C602 O619 1.257 . S
C603 C606 1.358 . S
C603 C607 1.332 . S
C603 C609 1.504 . S
C604 C605 1.373 . S
C604 C608 1.308 . S
C605 C604 1.373 . S
C605 C606 1.429 . S
C605 H632 0.932 . S
C606 C603 1.358 . S
C606 C605 1.429 . S
C606 H633 0.930 . S
C607 C603 1.332 . S
C607 C608 1.394 . S
C607 H634 0.932 . S
C608 C604 1.308 . S
C608 C607 1.394 . S
C608 H635 0.929 . S
C609 Tb600 2.764 1_655 S
C609 C603 1.504 . S
C609 O621 1.239 . S
C609 O622 1.263 . S
O610 Tb600 2.325 1_655 S
O610 C620 1.236 . S
O611 Tb601 2.322 1_655 S
O611 C620 1.257 . S
O612 Tb601 2.349 1_655 S
O612 C623 1.261 . S
O613 Tb600 2.303 1_655 S
O613 C623 1.257 . S
O614 Tb601 2.415 . S
O614 C630 1.239 . S
O615 Tb601 2.399 . S
O615 C630 1.263 . S
O616 Tb601 2.325 . S
O616 C631 1.236 . S
O617 Tb600 2.322 . S
O617 C631 1.257 . S
O618 Tb600 2.349 . S
O618 C602 1.261 . S
O619 Tb601 2.303 . S
O619 C602 1.257 . S
C620 O610 1.236 . S
C620 O611 1.257 . S
O621 Tb600 2.415 1_655 S
O621 C609 1.239 . S
O622 Tb600 2.399 1_655 S
O622 C609 1.263 . S
C623 O612 1.261 . S
C623 O613 1.257 . S
C624 C627 1.358 . S
C624 C628 1.332 . S
C624 C630 1.504 . S
C625 C626 1.373 . S
C625 C629 1.308 . S
C626 C625 1.373 . S
C626 C627 1.429 . S
C626 H636 0.932 . S
C627 C624 1.358 . S
C627 C626 1.429 . S
C627 H637 0.930 . S
C628 C624 1.332 . S
C628 C629 1.394 . S
C628 H638 0.932 . S
C629 C625 1.308 . S
C629 C628 1.394 . S
C629 H639 0.929 . S
C630 Tb601 2.764 . S
C630 O614 1.239 . S
C630 O615 1.263 . S
C630 C624 1.504 . S
C631 O616 1.236 . S
C631 O617 1.257 . S
H632 C605 0.932 . S
H633 C606 0.930 . S
H634 C607 0.932 . S
H635 C608 0.929 . S
H636 C626 0.932 . S
H637 C627 0.930 . S
H638 C628 0.932 . S
H639 C629 0.929 . S
Tb640 C649 2.764 . S
Tb640 O650 2.325 . S
Tb640 O653 2.303 . S
Tb640 O657 2.322 1_545 S
Tb640 O658 2.349 1_545 S
Tb640 O661 2.415 . S
Tb640 O662 2.399 . S
Tb641 O651 2.322 1_565 S
Tb641 O652 2.349 1_565 S
Tb641 O654 2.415 . S
Tb641 O655 2.399 . S
Tb641 O656 2.325 . S
Tb641 O659 2.303 . S
Tb641 C670 2.764 . S
C642 O658 1.261 . S
C642 O659 1.257 . S
C643 C646 1.358 . S
C643 C647 1.332 . S
C643 C649 1.504 . S
C644 C645 1.373 . S
C644 C648 1.308 . S
C645 C644 1.373 . S
C645 C646 1.429 . S
C645 H672 0.932 . S
C646 C643 1.358 . S
C646 C645 1.429 . S
C646 H673 0.930 . S
C647 C643 1.332 . S
C647 C648 1.394 . S
C647 H674 0.932 . S
C648 C644 1.308 . S
C648 C647 1.394 . S
C648 H675 0.929 . S
C649 Tb640 2.764 . S
C649 C643 1.504 . S
C649 O661 1.239 . S
C649 O662 1.263 . S
O650 Tb640 2.325 . S
O650 C660 1.236 . S
O651 Tb641 2.322 1_545 S
O651 C660 1.257 . S
O652 Tb641 2.349 1_545 S
O652 C663 1.261 . S
O653 Tb640 2.303 . S
O653 C663 1.257 . S
O654 Tb641 2.415 . S
O654 C670 1.239 . S
O655 Tb641 2.399 . S
O655 C670 1.263 . S
O656 Tb641 2.325 . S
O656 C671 1.236 . S
O657 Tb640 2.322 1_565 S
O657 C671 1.257 . S
O658 Tb640 2.349 1_565 S
O658 C642 1.261 . S
O659 Tb641 2.303 . S
O659 C642 1.257 . S
C660 O650 1.236 . S
C660 O651 1.257 . S
O661 Tb640 2.415 . S
O661 C649 1.239 . S
O662 Tb640 2.399 . S
O662 C649 1.263 . S
C663 O652 1.261 . S
C663 O653 1.257 . S
C664 C667 1.358 . S
C664 C668 1.332 . S
C664 C670 1.504 . S
C665 C666 1.373 . S
C665 C669 1.308 . S
C666 C665 1.373 . S
C666 C667 1.429 . S
C666 H676 0.932 . S
C667 C664 1.358 . S
C667 C666 1.429 . S
C667 H677 0.930 . S
C668 C664 1.332 . S
C668 C669 1.394 . S
C668 H678 0.932 . S
C669 C665 1.308 . S
C669 C668 1.394 . S
C669 H679 0.929 . S
C670 Tb641 2.764 . S
C670 O654 1.239 . S
C670 O655 1.263 . S
C670 C664 1.504 . S
C671 O656 1.236 . S
C671 O657 1.257 . S
H672 C645 0.932 . S
H673 C646 0.930 . S
H674 C647 0.932 . S
H675 C648 0.929 . S
H676 C666 0.932 . S
H677 C667 0.930 . S
H678 C668 0.932 . S
H679 C669 0.929 . S
Tb680 C689 2.764 . S
Tb680 O690 2.325 . S
Tb680 O693 2.303 . S
Tb680 O697 2.322 1_565 S
Tb680 O698 2.349 1_565 S
Tb680 O701 2.415 . S
Tb680 O702 2.399 . S
Tb681 O691 2.322 1_545 S
Tb681 O692 2.349 1_545 S
Tb681 O694 2.415 . S
Tb681 O695 2.399 . S
Tb681 O696 2.325 . S
Tb681 O699 2.303 . S
Tb681 C710 2.764 . S
C682 O698 1.261 . S
C682 O699 1.257 . S
C683 C686 1.358 . S
C683 C687 1.332 . S
C683 C689 1.504 . S
C684 C685 1.373 . S
C684 C688 1.308 . S
C685 C684 1.373 . S
C685 C686 1.429 . S
C685 H712 0.932 . S
C686 C683 1.358 . S
C686 C685 1.429 . S
C686 H713 0.930 . S
C687 C683 1.332 . S
C687 C688 1.394 . S
C687 H714 0.932 . S
C688 C684 1.308 . S
C688 C687 1.394 . S
C688 H715 0.929 . S
C689 Tb680 2.764 . S
C689 C683 1.504 . S
C689 O701 1.239 . S
C689 O702 1.263 . S
O690 Tb680 2.325 . S
O690 C700 1.236 . S
O691 Tb681 2.322 1_565 S
O691 C700 1.257 . S
O692 Tb681 2.349 1_565 S
O692 C703 1.261 . S
O693 Tb680 2.303 . S
O693 C703 1.257 . S
O694 Tb681 2.415 . S
O694 C710 1.239 . S
O695 Tb681 2.399 . S
O695 C710 1.263 . S
O696 Tb681 2.325 . S
O696 C711 1.236 . S
O697 Tb680 2.322 1_545 S
O697 C711 1.257 . S
O698 Tb680 2.349 1_545 S
O698 C682 1.261 . S
O699 Tb681 2.303 . S
O699 C682 1.257 . S
C700 O690 1.236 . S
C700 O691 1.257 . S
O701 Tb680 2.415 . S
O701 C689 1.239 . S
O702 Tb680 2.399 . S
O702 C689 1.263 . S
C703 O692 1.261 . S
C703 O693 1.257 . S
C704 C707 1.358 . S
C704 C708 1.332 . S
C704 C710 1.504 . S
C705 C706 1.373 . S
C705 C709 1.308 . S
C706 C705 1.373 . S
C706 C707 1.429 . S
C706 H716 0.932 . S
C707 C704 1.358 . S
C707 C706 1.429 . S
C707 H717 0.930 . S
C708 C704 1.332 . S
C708 C709 1.394 . S
C708 H718 0.932 . S
C709 C705 1.308 . S
C709 C708 1.394 . S
C709 H719 0.929 . S
C710 Tb681 2.764 . S
C710 O694 1.239 . S
C710 O695 1.263 . S
C710 C704 1.504 . S
C711 O696 1.236 . S
C711 O697 1.257 . S
H712 C685 0.932 . S
H713 C686 0.930 . S
H714 C687 0.932 . S
H715 C688 0.929 . S
H716 C706 0.932 . S
H717 C707 0.930 . S
H718 C708 0.932 . S
H719 C709 0.929 . S
Tb720 C729 2.764 . S
Tb720 O730 2.325 . S
Tb720 O733 2.303 . S
Tb720 O737 2.322 . S
Tb720 O738 2.349 . S
Tb720 O741 2.415 . S
Tb720 O742 2.399 . S
Tb721 O731 2.322 . S
Tb721 O732 2.349 . S
Tb721 O734 2.415 . S
Tb721 O735 2.399 . S
Tb721 O736 2.325 . S
Tb721 O739 2.303 . S
Tb721 C750 2.764 . S
C722 O738 1.261 . S
C722 O739 1.257 . S
C723 C726 1.358 . S
C723 C727 1.332 . S
C723 C729 1.504 . S
C724 C725 1.373 . S
C724 C728 1.308 . S
C725 C724 1.373 . S
C725 C726 1.429 . S
C725 H752 0.932 . S
C726 C723 1.358 . S
C726 C725 1.429 . S
C726 H753 0.930 . S
C727 C723 1.332 . S
C727 C728 1.394 . S
C727 H754 0.932 . S
C728 C724 1.308 . S
C728 C727 1.394 . S
C728 H755 0.929 . S
C729 Tb720 2.764 . S
C729 C723 1.504 . S
C729 O741 1.239 . S
C729 O742 1.263 . S
O730 Tb720 2.325 . S
O730 C740 1.236 . S
O731 Tb721 2.322 . S
O731 C740 1.257 . S
O732 Tb721 2.349 . S
O732 C743 1.261 . S
O733 Tb720 2.303 . S
O733 C743 1.257 . S
O734 Tb721 2.415 . S
O734 C750 1.239 . S
O735 Tb721 2.399 . S
O735 C750 1.263 . S
O736 Tb721 2.325 . S
O736 C751 1.236 . S
O737 Tb720 2.322 . S
O737 C751 1.257 . S
O738 Tb720 2.349 . S
O738 C722 1.261 . S
O739 Tb721 2.303 . S
O739 C722 1.257 . S
C740 O730 1.236 . S
C740 O731 1.257 . S
O741 Tb720 2.415 . S
O741 C729 1.239 . S
O742 Tb720 2.399 . S
O742 C729 1.263 . S
C743 O732 1.261 . S
C743 O733 1.257 . S
C744 C747 1.358 . S
C744 C748 1.332 . S
C744 C750 1.504 . S
C745 C746 1.373 . S
C745 C749 1.308 . S
C746 C745 1.373 . S
C746 C747 1.429 . S
C746 H756 0.932 . S
C747 C744 1.358 . S
C747 C746 1.429 . S
C747 H757 0.930 . S
C748 C744 1.332 . S
C748 C749 1.394 . S
C748 H758 0.932 . S
C749 C745 1.308 . S
C749 C748 1.394 . S
C749 H759 0.929 . S
C750 Tb721 2.764 . S
C750 O734 1.239 . S
C750 O735 1.263 . S
C750 C744 1.504 . S
C751 O736 1.236 . S
C751 O737 1.257 . S
H752 C725 0.932 . S
H753 C726 0.930 . S
H754 C727 0.932 . S
H755 C728 0.929 . S
H756 C746 0.932 . S
H757 C747 0.930 . S
H758 C748 0.932 . S
H759 C749 0.929 . S
Tb760 C769 2.764 . S
Tb760 O770 2.325 . S
Tb760 O773 2.303 . S
Tb760 O777 2.322 . S
Tb760 O778 2.349 . S
Tb760 O781 2.415 . S
Tb760 O782 2.399 . S
Tb761 O771 2.322 . S
Tb761 O772 2.349 . S
Tb761 O774 2.415 . S
Tb761 O775 2.399 . S
Tb761 O776 2.325 . S
Tb761 O779 2.303 . S
Tb761 C790 2.764 . S
C762 O778 1.261 . S
C762 O779 1.257 . S
C763 C766 1.358 . S
C763 C767 1.332 . S
C763 C769 1.504 . S
C764 C765 1.373 . S
C764 C768 1.308 . S
C765 C764 1.373 . S
C765 C766 1.429 . S
C765 H792 0.932 . S
C766 C763 1.358 . S
C766 C765 1.429 . S
C766 H793 0.930 . S
C767 C763 1.332 . S
C767 C768 1.394 . S
C767 H794 0.932 . S
C768 C764 1.308 . S
C768 C767 1.394 . S
C768 H795 0.929 . S
C769 Tb760 2.764 . S
C769 C763 1.504 . S
C769 O781 1.239 . S
C769 O782 1.263 . S
O770 Tb760 2.325 . S
O770 C780 1.236 . S
O771 Tb761 2.322 . S
O771 C780 1.257 . S
O772 Tb761 2.349 . S
O772 C783 1.261 . S
O773 Tb760 2.303 . S
O773 C783 1.257 . S
O774 Tb761 2.415 . S
O774 C790 1.239 . S
O775 Tb761 2.399 . S
O775 C790 1.263 . S
O776 Tb761 2.325 . S
O776 C791 1.236 . S
O777 Tb760 2.322 . S
O777 C791 1.257 . S
O778 Tb760 2.349 . S
O778 C762 1.261 . S
O779 Tb761 2.303 . S
O779 C762 1.257 . S
C780 O770 1.236 . S
C780 O771 1.257 . S
O781 Tb760 2.415 . S
O781 C769 1.239 . S
O782 Tb760 2.399 . S
O782 C769 1.263 . S
C783 O772 1.261 . S
C783 O773 1.257 . S
C784 C787 1.358 . S
C784 C788 1.332 . S
C784 C790 1.504 . S
C785 C786 1.373 . S
C785 C789 1.308 . S
C786 C785 1.373 . S
C786 C787 1.429 . S
C786 H796 0.932 . S
C787 C784 1.358 . S
C787 C786 1.429 . S
C787 H797 0.930 . S
C788 C784 1.332 . S
C788 C789 1.394 . S
C788 H798 0.932 . S
C789 C785 1.308 . S
C789 C788 1.394 . S
C789 H799 0.929 . S
C790 Tb761 2.764 . S
C790 O774 1.239 . S
C790 O775 1.263 . S
C790 C784 1.504 . S
C791 O776 1.236 . S
C791 O777 1.257 . S
H792 C765 0.932 . S
H793 C766 0.930 . S
H794 C767 0.932 . S
H795 C768 0.929 . S
H796 C786 0.932 . S
H797 C787 0.930 . S
H798 C788 0.932 . S
H799 C789 0.929 . S
Tb800 C809 2.764 1_556 S
Tb800 O810 2.325 . S
Tb800 O813 2.303 . S
Tb800 O817 2.322 . S
Tb800 O818 2.349 . S
Tb800 O821 2.415 1_556 S
Tb800 O822 2.399 . S
Tb801 O811 2.322 . S
Tb801 O812 2.349 . S
Tb801 O814 2.415 . S
Tb801 O815 2.399 . S
Tb801 O816 2.325 . S
Tb801 O819 2.303 . S
Tb801 C830 2.764 . S
C802 O818 1.261 . S
C802 O819 1.257 . S
C803 C806 1.358 . S
C803 C807 1.332 . S
C803 C809 1.504 . S
C804 C805 1.373 . S
C804 C808 1.308 . S
C805 C804 1.373 . S
C805 C806 1.429 . S
C805 H832 0.932 . S
C806 C803 1.358 . S
C806 C805 1.429 . S
C806 H833 0.930 . S
C807 C803 1.332 . S
C807 C808 1.394 . S
C807 H834 0.932 . S
C808 C804 1.308 . S
C808 C807 1.394 . S
C808 H835 0.929 . S
C809 Tb800 2.764 1_554 S
C809 C803 1.504 . S
C809 O821 1.239 . S
C809 O822 1.263 1_554 S
O810 Tb800 2.325 . S
O810 C820 1.236 . S
O811 Tb801 2.322 . S
O811 C820 1.257 . S
O812 Tb801 2.349 . S
O812 C823 1.261 . S
O813 Tb800 2.303 . S
O813 C823 1.257 . S
O814 Tb801 2.415 . S
O814 C830 1.239 . S
O815 Tb801 2.399 . S
O815 C830 1.263 . S
O816 Tb801 2.325 . S
O816 C831 1.236 . S
O817 Tb800 2.322 . S
O817 C831 1.257 . S
O818 Tb800 2.349 . S
O818 C802 1.261 . S
O819 Tb801 2.303 . S
O819 C802 1.257 . S
C820 O810 1.236 . S
C820 O811 1.257 . S
O821 Tb800 2.415 1_554 S
O821 C809 1.239 . S
O822 Tb800 2.399 . S
O822 C809 1.263 1_556 S
C823 O812 1.261 . S
C823 O813 1.257 . S
C824 C827 1.358 . S
C824 C828 1.332 . S
C824 C830 1.504 . S
C825 C826 1.373 . S
C825 C829 1.308 . S
C826 C825 1.373 . S
C826 C827 1.429 . S
C826 H836 0.932 . S
C827 C824 1.358 . S
C827 C826 1.429 . S
C827 H837 0.930 . S
C828 C824 1.332 . S
C828 C829 1.394 . S
C828 H838 0.932 . S
C829 C825 1.308 . S
C829 C828 1.394 . S
C829 H839 0.929 . S
C830 Tb801 2.764 . S
C830 O814 1.239 . S
C830 O815 1.263 . S
C830 C824 1.504 . S
C831 O816 1.236 . S
C831 O817 1.257 . S
H832 C805 0.932 . S
H833 C806 0.930 . S
H834 C807 0.932 . S
H835 C808 0.929 . S
H836 C826 0.932 . S
H837 C827 0.930 . S
H838 C828 0.932 . S
H839 C829 0.929 . S
Tb840 C849 2.764 . S
Tb840 O850 2.325 . S
Tb840 O853 2.303 . S
Tb840 O857 2.322 . S
Tb840 O858 2.349 . S
Tb840 O861 2.415 . S
Tb840 O862 2.399 . S
Tb841 O851 2.322 . S
Tb841 O852 2.349 . S
Tb841 O854 2.415 . S
Tb841 O855 2.399 . S
Tb841 O856 2.325 . S
Tb841 O859 2.303 . S
Tb841 C870 2.764 . S
C842 O858 1.261 . S
C842 O859 1.257 . S
C843 C846 1.358 . S
C843 C847 1.332 . S
C843 C849 1.504 . S
C844 C845 1.373 . S
C844 C848 1.308 . S
C845 C844 1.373 . S
C845 C846 1.429 . S
C845 H872 0.932 . S
C846 C843 1.358 . S
C846 C845 1.429 . S
C846 H873 0.930 . S
C847 C843 1.332 . S
C847 C848 1.394 . S
C847 H874 0.932 . S
C848 C844 1.308 . S
C848 C847 1.394 . S
C848 H875 0.929 . S
C849 Tb840 2.764 . S
C849 C843 1.504 . S
C849 O861 1.239 . S
C849 O862 1.263 . S
O850 Tb840 2.325 . S
O850 C860 1.236 . S
O851 Tb841 2.322 . S
O851 C860 1.257 . S
O852 Tb841 2.349 . S
O852 C863 1.261 . S
O853 Tb840 2.303 . S
O853 C863 1.257 . S
O854 Tb841 2.415 . S
O854 C870 1.239 . S
O855 Tb841 2.399 . S
O855 C870 1.263 . S
O856 Tb841 2.325 . S
O856 C871 1.236 . S
O857 Tb840 2.322 . S
O857 C871 1.257 . S
O858 Tb840 2.349 . S
O858 C842 1.261 . S
O859 Tb841 2.303 . S
O859 C842 1.257 . S
C860 O850 1.236 . S
C860 O851 1.257 . S
O861 Tb840 2.415 . S
O861 C849 1.239 . S
O862 Tb840 2.399 . S
O862 C849 1.263 . S
C863 O852 1.261 . S
C863 O853 1.257 . S
C864 C867 1.358 . S
C864 C868 1.332 . S
C864 C870 1.504 1_556 S
C865 C866 1.373 . S
C865 C869 1.308 . S
C866 C865 1.373 . S
C866 C867 1.429 . S
C866 H876 0.932 . S
C867 C864 1.358 . S
C867 C866 1.429 . S
C867 H877 0.930 1_556 S
C868 C864 1.332 . S
C868 C869 1.394 . S
C868 H878 0.932 . S
C869 C865 1.308 . S
C869 C868 1.394 . S
C869 H879 0.929 . S
C870 Tb841 2.764 . S
C870 O854 1.239 . S
C870 O855 1.263 . S
C870 C864 1.504 1_554 S
C871 O856 1.236 . S
C871 O857 1.257 . S
H872 C845 0.932 . S
H873 C846 0.930 . S
H874 C847 0.932 . S
H875 C848 0.929 . S
H876 C866 0.932 . S
H877 C867 0.930 1_554 S
H878 C868 0.932 . S
H879 C869 0.929 . S
Tb880 C889 2.764 . S
Tb880 O890 2.325 . S
Tb880 O893 2.303 . S
Tb880 O897 2.322 . S
Tb880 O898 2.349 . S
Tb880 O901 2.415 . S
Tb880 O902 2.399 . S
Tb881 O891 2.322 . S
Tb881 O892 2.349 . S
Tb881 O894 2.415 . S
Tb881 O895 2.399 . S
Tb881 O896 2.325 . S
Tb881 O899 2.303 . S
Tb881 C910 2.764 . S
C882 O898 1.261 . S
C882 O899 1.257 . S
C883 C886 1.358 . S
C883 C887 1.332 . S
C883 C889 1.504 . S
C884 C885 1.373 . S
C884 C888 1.308 . S
C885 C884 1.373 . S
C885 C886 1.429 . S
C885 H912 0.932 . S
C886 C883 1.358 . S
C886 C885 1.429 . S
C886 H913 0.930 . S
C887 C883 1.332 . S
C887 C888 1.394 . S
C887 H914 0.932 . S
C888 C884 1.308 . S
C888 C887 1.394 . S
C888 H915 0.929 . S
C889 Tb880 2.764 . S
C889 C883 1.504 . S
C889 O901 1.239 . S
C889 O902 1.263 . S
O890 Tb880 2.325 . S
O890 C900 1.236 . S
O891 Tb881 2.322 . S
O891 C900 1.257 . S
O892 Tb881 2.349 . S
O892 C903 1.261 . S
O893 Tb880 2.303 . S
O893 C903 1.257 . S
O894 Tb881 2.415 . S
O894 C910 1.239 . S
O895 Tb881 2.399 . S
O895 C910 1.263 . S
O896 Tb881 2.325 . S
O896 C911 1.236 . S
O897 Tb880 2.322 . S
O897 C911 1.257 . S
O898 Tb880 2.349 . S
O898 C882 1.261 . S
O899 Tb881 2.303 . S
O899 C882 1.257 . S
C900 O890 1.236 . S
C900 O891 1.257 . S
O901 Tb880 2.415 . S
O901 C889 1.239 . S
O902 Tb880 2.399 . S
O902 C889 1.263 . S
C903 O892 1.261 . S
C903 O893 1.257 . S
C904 C907 1.358 . S
C904 C908 1.332 . S
C904 C910 1.504 . S
C905 C906 1.373 . S
C905 C909 1.308 . S
C906 C905 1.373 . S
C906 C907 1.429 . S
C906 H916 0.932 . S
C907 C904 1.358 . S
C907 C906 1.429 . S
C907 H917 0.930 . S
C908 C904 1.332 . S
C908 C909 1.394 . S
C908 H918 0.932 . S
C909 C905 1.308 . S
C909 C908 1.394 . S
C909 H919 0.929 . S
C910 Tb881 2.764 . S
C910 O894 1.239 . S
C910 O895 1.263 . S
C910 C904 1.504 . S
C911 O896 1.236 . S
C911 O897 1.257 . S
H912 C885 0.932 . S
H913 C886 0.930 . S
H914 C887 0.932 . S
H915 C888 0.929 . S
H916 C906 0.932 . S
H917 C907 0.930 . S
H918 C908 0.932 . S
H919 C909 0.929 . S
Tb920 C929 2.764 . S
Tb920 O930 2.325 . S
Tb920 O933 2.303 . S
Tb920 O937 2.322 . S
Tb920 O938 2.349 . S
Tb920 O941 2.415 . S
Tb920 O942 2.399 . S
Tb921 O931 2.322 . S
Tb921 O932 2.349 . S
Tb921 O934 2.415 . S
Tb921 O935 2.399 . S
Tb921 O936 2.325 . S
Tb921 O939 2.303 . S
Tb921 C950 2.764 . S
C922 O938 1.261 . S
C922 O939 1.257 . S
C923 C926 1.358 . S
C923 C927 1.332 . S
C923 C929 1.504 . S
C924 C925 1.373 . S
C924 C928 1.308 . S
C925 C924 1.373 . S
C925 C926 1.429 . S
C925 H952 0.932 . S
C926 C923 1.358 . S
C926 C925 1.429 . S
C926 H953 0.930 . S
C927 C923 1.332 . S
C927 C928 1.394 . S
C927 H954 0.932 . S
C928 C924 1.308 . S
C928 C927 1.394 . S
C928 H955 0.929 . S
C929 Tb920 2.764 . S
C929 C923 1.504 . S
C929 O941 1.239 . S
C929 O942 1.263 . S
O930 Tb920 2.325 . S
O930 C940 1.236 . S
O931 Tb921 2.322 . S
O931 C940 1.257 . S
O932 Tb921 2.349 . S
O932 C943 1.261 . S
O933 Tb920 2.303 . S
O933 C943 1.257 . S
O934 Tb921 2.415 . S
O934 C950 1.239 . S
O935 Tb921 2.399 . S
O935 C950 1.263 . S
O936 Tb921 2.325 . S
O936 C951 1.236 . S
O937 Tb920 2.322 . S
O937 C951 1.257 . S
O938 Tb920 2.349 . S
O938 C922 1.261 . S
O939 Tb921 2.303 . S
O939 C922 1.257 . S
C940 O930 1.236 . S
C940 O931 1.257 . S
O941 Tb920 2.415 . S
O941 C929 1.239 . S
O942 Tb920 2.399 . S
O942 C929 1.263 . S
C943 O932 1.261 . S
C943 O933 1.257 . S
C944 C947 1.358 . S
C944 C948 1.332 . S
C944 C950 1.504 . S
C945 C946 1.373 . S
C945 C949 1.308 . S
C946 C945 1.373 . S
C946 C947 1.429 . S
C946 H956 0.932 . S
C947 C944 1.358 . S
C947 C946 1.429 . S
C947 H957 0.930 . S
C948 C944 1.332 . S
C948 C949 1.394 . S
C948 H958 0.932 . S
C949 C945 1.308 . S
C949 C948 1.394 . S
C949 H959 0.929 . S
C950 Tb921 2.764 . S
C950 O934 1.239 . S
C950 O935 1.263 . S
C950 C944 1.504 . S
C951 O936 1.236 . S
C951 O937 1.257 . S
H952 C925 0.932 . S
H953 C926 0.930 . S
H954 C927 0.932 . S
H955 C928 0.929 . S
H956 C946 0.932 . S
H957 C947 0.930 . S
H958 C948 0.932 . S
H959 C949 0.929 . S
C960 C961 1.349 . S
C960 C962 1.327 . S
C960 H985 0.950 . S
C961 C960 1.349 . S
C961 C977 1.349 . S
C962 C960 1.327 . S
C962 C981 1.429 . S
C962 H986 0.950 . S
C963 C980 1.574 . S
C963 C982 1.368 . S
C963 H987 0.949 . S
H964 C968 0.949 . S
C965 C966 1.349 . S
C965 C967 1.327 . S
C965 H988 0.950 . S
C966 C965 1.349 . S
C966 C978 1.349 . S
C967 C965 1.327 . S
C967 C983 1.429 . S
C967 H989 0.950 . S
C968 H964 0.949 . S
C968 C976 1.574 . S
C968 C984 1.368 . S
H969 C977 0.950 . S
H970 C975 0.950 . S
H971 C976 0.949 . S
H972 C978 0.950 . S
H973 C979 0.950 . S
H974 C980 0.949 . S
C975 H970 0.950 . S
C975 C977 1.327 . S
C975 C981 1.429 . S
C976 C968 1.574 . S
C976 H971 0.949 . S
C976 C982 1.368 . S
C977 C961 1.349 . S
C977 H969 0.950 . S
C977 C975 1.327 . S
C978 C966 1.349 . S
C978 H972 0.950 . S
C978 C979 1.327 . S
C979 H973 0.950 . S
C979 C978 1.327 . S
C979 C983 1.429 . S
C980 C963 1.574 . S
C980 H974 0.949 . S
C980 C984 1.368 . S
C981 C962 1.429 . S
C981 C975 1.429 . S
C981 C982 1.523 . S
C982 C963 1.368 . S
C982 C976 1.368 . S
C982 C981 1.523 . S
C983 C967 1.429 . S
C983 C979 1.429 . S
C983 C984 1.523 . S
C984 C968 1.368 . S
C984 C980 1.368 . S
C984 C983 1.523 . S
H985 C960 0.950 . S
H986 C962 0.950 . S
H987 C963 0.949 . S
H988 C965 0.950 . S
H989 C967 0.950 . S
C990 C991 1.349 . S
C990 C992 1.327 . S
C990 H1015 0.950 . S
C991 C990 1.349 . S
C991 C1007 1.349 . S
C992 C990 1.327 . S
C992 C1011 1.429 . S
C992 H1016 0.950 . S
C993 C1010 1.574 . S
C993 C1012 1.368 . S
C993 H1017 0.949 . S
H994 C998 0.949 . S
C995 C996 1.349 . S
C995 C997 1.327 . S
C995 H1018 0.950 . S
C996 C995 1.349 . S
C996 C1008 1.349 . S
C997 C995 1.327 . S
C997 C1013 1.429 . S
C997 H1019 0.950 . S
C998 H994 0.949 . S
C998 C1006 1.574 . S
C998 C1014 1.368 . S
H999 C1007 0.950 . S
H1000 C1005 0.950 . S
H1001 C1006 0.949 . S
H1002 C1008 0.950 . S
H1003 C1009 0.950 . S
H1004 C1010 0.949 . S
C1005 H1000 0.950 . S
C1005 C1007 1.327 . S
C1005 C1011 1.429 . S
C1006 C998 1.574 . S
C1006 H1001 0.949 . S
C1006 C1012 1.368 . S
C1007 C991 1.349 . S
C1007 H999 0.950 . S
C1007 C1005 1.327 . S
C1008 C996 1.349 . S
C1008 H1002 0.950 . S
C1008 C1009 1.327 . S
C1009 H1003 0.950 . S
C1009 C1008 1.327 . S
C1009 C1013 1.429 . S
C1010 C993 1.574 . S
C1010 H1004 0.949 . S
C1010 C1014 1.368 . S
C1011 C992 1.429 . S
C1011 C1005 1.429 . S
C1011 C1012 1.523 . S
C1012 C993 1.368 . S
C1012 C1006 1.368 . S
C1012 C1011 1.523 . S
C1013 C997 1.429 . S
C1013 C1009 1.429 . S
C1013 C1014 1.523 . S
C1014 C998 1.368 . S
C1014 C1010 1.368 . S
C1014 C1013 1.523 . S
H1015 C990 0.950 . S
H1016 C992 0.950 . S
H1017 C993 0.949 . S
H1018 C995 0.950 . S
H1019 C997 0.950 . S
C1020 C1021 1.349 . S
C1020 C1022 1.327 . S
C1020 H1045 0.950 . S
C1021 C1020 1.349 . S
C1021 C1037 1.349 . S
C1022 C1020 1.327 . S
C1022 C1041 1.429 . S
C1022 H1046 0.950 . S
C1023 C1040 1.574 . S
C1023 C1042 1.368 . S
C1023 H1047 0.949 . S
H1024 C1028 0.949 . S
C1025 C1026 1.349 . S
C1025 C1027 1.327 . S
C1025 H1048 0.950 . S
C1026 C1025 1.349 . S
C1026 C1038 1.349 . S
C1027 C1025 1.327 . S
C1027 C1043 1.429 . S
C1027 H1049 0.950 . S
C1028 H1024 0.949 . S
C1028 C1036 1.574 . S
C1028 C1044 1.368 . S
H1029 C1037 0.950 . S
H1030 C1035 0.950 . S
H1031 C1036 0.949 . S
H1032 C1038 0.950 . S
H1033 C1039 0.950 . S
H1034 C1040 0.949 . S
C1035 H1030 0.950 . S
C1035 C1037 1.327 . S
C1035 C1041 1.429 . S
C1036 C1028 1.574 . S
C1036 H1031 0.949 . S
C1036 C1042 1.368 . S
C1037 C1021 1.349 . S
C1037 H1029 0.950 . S
C1037 C1035 1.327 . S
C1038 C1026 1.349 . S
C1038 H1032 0.950 . S
C1038 C1039 1.327 . S
C1039 H1033 0.950 . S
C1039 C1038 1.327 . S
C1039 C1043 1.429 . S
C1040 C1023 1.574 . S
C1040 H1034 0.949 . S
C1040 C1044 1.368 . S
C1041 C1022 1.429 . S
C1041 C1035 1.429 . S
C1041 C1042 1.523 . S
C1042 C1023 1.368 . S
C1042 C1036 1.368 . S
C1042 C1041 1.523 . S
C1043 C1027 1.429 . S
C1043 C1039 1.429 . S
C1043 C1044 1.523 . S
C1044 C1028 1.368 . S
C1044 C1040 1.368 . S
C1044 C1043 1.523 . S
H1045 C1020 0.950 . S
H1046 C1022 0.950 . S
H1047 C1023 0.949 . S
H1048 C1025 0.950 . S
H1049 C1027 0.950 . S
C1050 C1051 1.349 . S
C1050 C1052 1.327 . S
C1050 H1075 0.950 . S
C1051 C1050 1.349 . S
C1051 C1067 1.349 . S
C1052 C1050 1.327 . S
C1052 C1071 1.429 . S
C1052 H1076 0.950 . S
C1053 C1070 1.574 . S
C1053 C1072 1.368 . S
C1053 H1077 0.949 . S
H1054 C1058 0.949 . S
C1055 C1056 1.349 . S
C1055 C1057 1.327 . S
C1055 H1078 0.950 . S
C1056 C1055 1.349 . S
C1056 C1068 1.349 . S
C1057 C1055 1.327 . S
C1057 C1073 1.429 . S
C1057 H1079 0.950 . S
C1058 H1054 0.949 . S
C1058 C1066 1.574 . S
C1058 C1074 1.368 . S
H1059 C1067 0.950 . S
H1060 C1065 0.950 . S
H1061 C1066 0.949 . S
H1062 C1068 0.950 . S
H1063 C1069 0.950 . S
H1064 C1070 0.949 . S
C1065 H1060 0.950 . S
C1065 C1067 1.327 . S
C1065 C1071 1.429 . S
C1066 C1058 1.574 . S
C1066 H1061 0.949 . S
C1066 C1072 1.368 . S
C1067 C1051 1.349 . S
C1067 H1059 0.950 . S
C1067 C1065 1.327 . S
C1068 C1056 1.349 . S
C1068 H1062 0.950 . S
C1068 C1069 1.327 . S
C1069 H1063 0.950 . S
C1069 C1068 1.327 . S
C1069 C1073 1.429 . S
C1070 C1053 1.574 . S
C1070 H1064 0.949 . S
C1070 C1074 1.368 . S
C1071 C1052 1.429 . S
C1071 C1065 1.429 . S
C1071 C1072 1.523 . S
C1072 C1053 1.368 . S
C1072 C1066 1.368 . S
C1072 C1071 1.523 . S
C1073 C1057 1.429 . S
C1073 C1069 1.429 . S
C1073 C1074 1.523 . S
C1074 C1058 1.368 . S
C1074 C1070 1.368 . S
C1074 C1073 1.523 . S
H1075 C1050 0.950 . S
H1076 C1052 0.950 . S
H1077 C1053 0.949 . S
H1078 C1055 0.950 . S
H1079 C1057 0.950 . S
C1080 C1081 1.349 . S
C1080 C1082 1.327 . S
C1080 H1105 0.950 . S
C1081 C1080 1.349 . S
C1081 C1097 1.349 . S
C1082 C1080 1.327 . S
C1082 C1101 1.429 . S
C1082 H1106 0.950 . S
C1083 C1100 1.574 . S
C1083 C1102 1.368 . S
C1083 H1107 0.949 . S
H1084 C1088 0.949 . S
C1085 C1086 1.349 . S
C1085 C1087 1.327 . S
C1085 H1108 0.950 . S
C1086 C1085 1.349 . S
C1086 C1098 1.349 . S
C1087 C1085 1.327 . S
C1087 C1103 1.429 . S
C1087 H1109 0.950 . S
C1088 H1084 0.949 . S
C1088 C1096 1.574 . S
C1088 C1104 1.368 . S
H1089 C1097 0.950 . S
H1090 C1095 0.950 . S
H1091 C1096 0.949 . S
H1092 C1098 0.950 . S
H1093 C1099 0.950 . S
H1094 C1100 0.949 . S
C1095 H1090 0.950 . S
C1095 C1097 1.327 . S
C1095 C1101 1.429 . S
C1096 C1088 1.574 . S
C1096 H1091 0.949 . S
C1096 C1102 1.368 . S
C1097 C1081 1.349 . S
C1097 H1089 0.950 . S
C1097 C1095 1.327 . S
C1098 C1086 1.349 . S
C1098 H1092 0.950 . S
C1098 C1099 1.327 . S
C1099 H1093 0.950 . S
C1099 C1098 1.327 . S
C1099 C1103 1.429 . S
C1100 C1083 1.574 . S
C1100 H1094 0.949 . S
C1100 C1104 1.368 . S
C1101 C1082 1.429 . S
C1101 C1095 1.429 . S
C1101 C1102 1.523 . S
C1102 C1083 1.368 . S
C1102 C1096 1.368 . S
C1102 C1101 1.523 . S
C1103 C1087 1.429 . S
C1103 C1099 1.429 . S
C1103 C1104 1.523 . S
C1104 C1088 1.368 . S
C1104 C1100 1.368 . S
C1104 C1103 1.523 . S
H1105 C1080 0.950 . S
H1106 C1082 0.950 . S
H1107 C1083 0.949 . S
H1108 C1085 0.950 . S
H1109 C1087 0.950 . S
C1110 C1111 1.349 . S
C1110 C1112 1.327 . S
C1110 H1135 0.950 . S
C1111 C1110 1.349 . S
C1111 C1127 1.349 . S
C1112 C1110 1.327 . S
C1112 C1131 1.429 . S
C1112 H1136 0.950 . S
C1113 C1130 1.574 . S
C1113 C1132 1.368 . S
C1113 H1137 0.949 . S
H1114 C1118 0.949 . S
C1115 C1116 1.349 . S
C1115 C1117 1.327 . S
C1115 H1138 0.950 . S
C1116 C1115 1.349 . S
C1116 C1128 1.349 . S
C1117 C1115 1.327 . S
C1117 C1133 1.429 . S
C1117 H1139 0.950 . S
C1118 H1114 0.949 . S
C1118 C1126 1.574 . S
C1118 C1134 1.368 . S
H1119 C1127 0.950 . S
H1120 C1125 0.950 . S
H1121 C1126 0.949 . S
H1122 C1128 0.950 . S
H1123 C1129 0.950 . S
H1124 C1130 0.949 . S
C1125 H1120 0.950 . S
C1125 C1127 1.327 . S
C1125 C1131 1.429 . S
C1126 C1118 1.574 . S
C1126 H1121 0.949 . S
C1126 C1132 1.368 . S
C1127 C1111 1.349 . S
C1127 H1119 0.950 . S
C1127 C1125 1.327 . S
C1128 C1116 1.349 . S
C1128 H1122 0.950 . S
C1128 C1129 1.327 . S
C1129 H1123 0.950 . S
C1129 C1128 1.327 . S
C1129 C1133 1.429 . S
C1130 C1113 1.574 . S
C1130 H1124 0.949 . S
C1130 C1134 1.368 . S
C1131 C1112 1.429 . S
C1131 C1125 1.429 . S
C1131 C1132 1.523 . S
C1132 C1113 1.368 . S
C1132 C1126 1.368 . S
C1132 C1131 1.523 . S
C1133 C1117 1.429 . S
C1133 C1129 1.429 . S
C1133 C1134 1.523 . S
C1134 C1118 1.368 . S
C1134 C1130 1.368 . S
C1134 C1133 1.523 . S
H1135 C1110 0.950 . S
H1136 C1112 0.950 . S
H1137 C1113 0.949 . S
H1138 C1115 0.950 . S
H1139 C1117 0.950 . S
C1140 C1141 1.349 . S
C1140 C1142 1.327 . S
C1140 H1165 0.950 . S
C1141 C1140 1.349 . S
C1141 C1157 1.349 . S
C1142 C1140 1.327 . S
C1142 C1161 1.429 . S
C1142 H1166 0.950 . S
C1143 C1160 1.574 . S
C1143 C1162 1.368 . S
C1143 H1167 0.949 . S
H1144 C1148 0.949 . S
C1145 C1146 1.349 . S
C1145 C1147 1.327 . S
C1145 H1168 0.950 . S
C1146 C1145 1.349 . S
C1146 C1158 1.349 . S
C1147 C1145 1.327 . S
C1147 C1163 1.429 . S
C1147 H1169 0.950 . S
C1148 H1144 0.949 . S
C1148 C1156 1.574 . S
C1148 C1164 1.368 . S
H1149 C1157 0.950 . S
H1150 C1155 0.950 . S
H1151 C1156 0.949 . S
H1152 C1158 0.950 . S
H1153 C1159 0.950 . S
H1154 C1160 0.949 . S
C1155 H1150 0.950 . S
C1155 C1157 1.327 . S
C1155 C1161 1.429 . S
C1156 C1148 1.574 . S
C1156 H1151 0.949 . S
C1156 C1162 1.368 . S
C1157 C1141 1.349 . S
C1157 H1149 0.950 . S
C1157 C1155 1.327 . S
C1158 C1146 1.349 . S
C1158 H1152 0.950 . S
C1158 C1159 1.327 . S
C1159 H1153 0.950 . S
C1159 C1158 1.327 . S
C1159 C1163 1.429 . S
C1160 C1143 1.574 . S
C1160 H1154 0.949 . S
C1160 C1164 1.368 . S
C1161 C1142 1.429 . S
C1161 C1155 1.429 . S
C1161 C1162 1.523 . S
C1162 C1143 1.368 . S
C1162 C1156 1.368 . S
C1162 C1161 1.523 . S
C1163 C1147 1.429 . S
C1163 C1159 1.429 . S
C1163 C1164 1.523 . S
C1164 C1148 1.368 . S
C1164 C1160 1.368 . S
C1164 C1163 1.523 . S
H1165 C1140 0.950 . S
H1166 C1142 0.950 . S
H1167 C1143 0.949 . S
H1168 C1145 0.950 . S
H1169 C1147 0.950 . S
C1170 C1171 1.349 . S
C1170 C1172 1.327 . S
C1170 H1195 0.950 . S
C1171 C1170 1.349 . S
C1171 C1187 1.349 . S
C1172 C1170 1.327 . S
C1172 C1191 1.429 . S
C1172 H1196 0.950 . S
C1173 C1190 1.574 . S
C1173 C1192 1.368 . S
C1173 H1197 0.949 . S
H1174 C1178 0.949 . S
C1175 C1176 1.349 . S
C1175 C1177 1.327 . S
C1175 H1198 0.950 . S
C1176 C1175 1.349 . S
C1176 C1188 1.349 . S
C1177 C1175 1.327 . S
C1177 C1193 1.429 . S
C1177 H1199 0.950 . S
C1178 H1174 0.949 . S
C1178 C1186 1.574 . S
C1178 C1194 1.368 . S
H1179 C1187 0.950 . S
H1180 C1185 0.950 . S
H1181 C1186 0.949 . S
H1182 C1188 0.950 . S
H1183 C1189 0.950 . S
H1184 C1190 0.949 . S
C1185 H1180 0.950 . S
C1185 C1187 1.327 . S
C1185 C1191 1.429 . S
C1186 C1178 1.574 . S
C1186 H1181 0.949 . S
C1186 C1192 1.368 . S
C1187 C1171 1.349 . S
C1187 H1179 0.950 . S
C1187 C1185 1.327 . S
C1188 C1176 1.349 . S
C1188 H1182 0.950 . S
C1188 C1189 1.327 . S
C1189 H1183 0.950 . S
C1189 C1188 1.327 . S
C1189 C1193 1.429 . S
C1190 C1173 1.574 . S
C1190 H1184 0.949 . S
C1190 C1194 1.368 . S
C1191 C1172 1.429 . S
C1191 C1185 1.429 . S
C1191 C1192 1.523 . S
C1192 C1173 1.368 . S
C1192 C1186 1.368 . S
C1192 C1191 1.523 . S
C1193 C1177 1.429 . S
C1193 C1189 1.429 . S
C1193 C1194 1.523 . S
C1194 C1178 1.368 . S
C1194 C1190 1.368 . S
C1194 C1193 1.523 . S
H1195 C1170 0.950 . S
H1196 C1172 0.950 . S
H1197 C1173 0.949 . S
H1198 C1175 0.950 . S
H1199 C1177 0.950 . S
C1200 C1201 1.349 . S
C1200 C1202 1.327 . S
C1200 H1225 0.950 . S
C1201 C1200 1.349 . S
C1201 C1217 1.349 . S
C1202 C1200 1.327 . S
C1202 C1221 1.429 . S
C1202 H1226 0.950 . S
C1203 C1220 1.574 . S
C1203 C1222 1.368 . S
C1203 H1227 0.949 . S
H1204 C1208 0.949 . S
C1205 C1206 1.349 . S
C1205 C1207 1.327 . S
C1205 H1228 0.950 . S
C1206 C1205 1.349 . S
C1206 C1218 1.349 . S
C1207 C1205 1.327 . S
C1207 C1223 1.429 . S
C1207 H1229 0.950 . S
C1208 H1204 0.949 . S
C1208 C1216 1.574 . S
C1208 C1224 1.368 . S
H1209 C1217 0.950 . S
H1210 C1215 0.950 . S
H1211 C1216 0.949 . S
H1212 C1218 0.950 . S
H1213 C1219 0.950 . S
H1214 C1220 0.949 . S
C1215 H1210 0.950 . S
C1215 C1217 1.327 . S
C1215 C1221 1.429 . S
C1216 C1208 1.574 . S
C1216 H1211 0.949 . S
C1216 C1222 1.368 . S
C1217 C1201 1.349 . S
C1217 H1209 0.950 . S
C1217 C1215 1.327 . S
C1218 C1206 1.349 . S
C1218 H1212 0.950 . S
C1218 C1219 1.327 . S
C1219 H1213 0.950 . S
C1219 C1218 1.327 . S
C1219 C1223 1.429 . S
C1220 C1203 1.574 . S
C1220 H1214 0.949 . S
C1220 C1224 1.368 . S
C1221 C1202 1.429 . S
C1221 C1215 1.429 . S
C1221 C1222 1.523 . S
C1222 C1203 1.368 . S
C1222 C1216 1.368 . S
C1222 C1221 1.523 . S
C1223 C1207 1.429 . S
C1223 C1219 1.429 . S
C1223 C1224 1.523 . S
C1224 C1208 1.368 . S
C1224 C1220 1.368 . S
C1224 C1223 1.523 . S
H1225 C1200 0.950 . S
H1226 C1202 0.950 . S
H1227 C1203 0.949 . S
H1228 C1205 0.950 . S
H1229 C1207 0.950 . S
C1230 C1231 1.349 . S
C1230 C1232 1.327 . S
C1230 H1255 0.950 . S
C1231 C1230 1.349 . S
C1231 C1247 1.349 . S
C1232 C1230 1.327 . S
C1232 C1251 1.429 . S
C1232 H1256 0.950 . S
C1233 C1250 1.574 . S
C1233 C1252 1.368 . S
C1233 H1257 0.949 . S
H1234 C1238 0.949 . S
C1235 C1236 1.349 . S
C1235 C1237 1.327 . S
C1235 H1258 0.950 . S
C1236 C1235 1.349 . S
C1236 C1248 1.349 . S
C1237 C1235 1.327 . S
C1237 C1253 1.429 . S
C1237 H1259 0.950 . S
C1238 H1234 0.949 . S
C1238 C1246 1.574 . S
C1238 C1254 1.368 . S
H1239 C1247 0.950 . S
H1240 C1245 0.950 . S
H1241 C1246 0.949 . S
H1242 C1248 0.950 . S
H1243 C1249 0.950 . S
H1244 C1250 0.949 . S
C1245 H1240 0.950 . S
C1245 C1247 1.327 . S
C1245 C1251 1.429 . S
C1246 C1238 1.574 . S
C1246 H1241 0.949 . S
C1246 C1252 1.368 . S
C1247 C1231 1.349 . S
C1247 H1239 0.950 . S
C1247 C1245 1.327 . S
C1248 C1236 1.349 . S
C1248 H1242 0.950 . S
C1248 C1249 1.327 . S
C1249 H1243 0.950 . S
C1249 C1248 1.327 . S
C1249 C1253 1.429 . S
C1250 C1233 1.574 . S
C1250 H1244 0.949 . S
C1250 C1254 1.368 . S
C1251 C1232 1.429 . S
C1251 C1245 1.429 . S
C1251 C1252 1.523 . S
C1252 C1233 1.368 . S
C1252 C1246 1.368 . S
C1252 C1251 1.523 . S
C1253 C1237 1.429 . S
C1253 C1249 1.429 . S
C1253 C1254 1.523 . S
C1254 C1238 1.368 . S
C1254 C1250 1.368 . S
C1254 C1253 1.523 . S
H1255 C1230 0.950 . S
H1256 C1232 0.950 . S
H1257 C1233 0.949 . S
H1258 C1235 0.950 . S
H1259 C1237 0.950 . S
C1260 C1261 1.349 . S
C1260 C1262 1.327 . S
C1260 H1285 0.950 . S
C1261 C1260 1.349 . S
C1261 C1277 1.349 . S
C1262 C1260 1.327 . S
C1262 C1281 1.429 . S
C1262 H1286 0.950 . S
C1263 C1280 1.574 . S
C1263 C1282 1.368 . S
C1263 H1287 0.949 . S
H1264 C1268 0.949 . S
C1265 C1266 1.349 . S
C1265 C1267 1.327 . S
C1265 H1288 0.950 . S
C1266 C1265 1.349 . S
C1266 C1278 1.349 . S
C1267 C1265 1.327 . S
C1267 C1283 1.429 . S
C1267 H1289 0.950 . S
C1268 H1264 0.949 . S
C1268 C1276 1.574 . S
C1268 C1284 1.368 . S
H1269 C1277 0.950 . S
H1270 C1275 0.950 . S
H1271 C1276 0.949 . S
H1272 C1278 0.950 . S
H1273 C1279 0.950 . S
H1274 C1280 0.949 . S
C1275 H1270 0.950 . S
C1275 C1277 1.327 . S
C1275 C1281 1.429 . S
C1276 C1268 1.574 . S
C1276 H1271 0.949 . S
C1276 C1282 1.368 . S
C1277 C1261 1.349 . S
C1277 H1269 0.950 . S
C1277 C1275 1.327 . S
C1278 C1266 1.349 . S
C1278 H1272 0.950 . S
C1278 C1279 1.327 . S
C1279 H1273 0.950 . S
C1279 C1278 1.327 . S
C1279 C1283 1.429 . S
C1280 C1263 1.574 . S
C1280 H1274 0.949 . S
C1280 C1284 1.368 . S
C1281 C1262 1.429 . S
C1281 C1275 1.429 . S
C1281 C1282 1.523 . S
C1282 C1263 1.368 . S
C1282 C1276 1.368 . S
C1282 C1281 1.523 . S
C1283 C1267 1.429 . S
C1283 C1279 1.429 . S
C1283 C1284 1.523 . S
C1284 C1268 1.368 . S
C1284 C1280 1.368 . S
C1284 C1283 1.523 . S
H1285 C1260 0.950 . S
H1286 C1262 0.950 . S
H1287 C1263 0.949 . S
H1288 C1265 0.950 . S
H1289 C1267 0.950 . S
C1290 C1291 1.349 . S
C1290 C1292 1.327 . S
C1290 H1315 0.950 . S
C1291 C1290 1.349 . S
C1291 C1307 1.349 . S
C1292 C1290 1.327 . S
C1292 C1311 1.429 . S
C1292 H1316 0.950 . S
C1293 C1310 1.574 . S
C1293 C1312 1.368 . S
C1293 H1317 0.949 . S
H1294 C1298 0.949 . S
C1295 C1296 1.349 . S
C1295 C1297 1.327 . S
C1295 H1318 0.950 . S
C1296 C1295 1.349 . S
C1296 C1308 1.349 . S
C1297 C1295 1.327 . S
C1297 C1313 1.429 . S
C1297 H1319 0.950 . S
C1298 H1294 0.949 . S
C1298 C1306 1.574 . S
C1298 C1314 1.368 . S
H1299 C1307 0.950 . S
H1300 C1305 0.950 . S
H1301 C1306 0.949 . S
H1302 C1308 0.950 . S
H1303 C1309 0.950 . S
H1304 C1310 0.949 . S
C1305 H1300 0.950 . S
C1305 C1307 1.327 . S
C1305 C1311 1.429 . S
C1306 C1298 1.574 . S
C1306 H1301 0.949 . S
C1306 C1312 1.368 . S
C1307 C1291 1.349 . S
C1307 H1299 0.950 . S
C1307 C1305 1.327 . S
C1308 C1296 1.349 . S
C1308 H1302 0.950 . S
C1308 C1309 1.327 . S
C1309 H1303 0.950 . S
C1309 C1308 1.327 . S
C1309 C1313 1.429 . S
C1310 C1293 1.574 . S
C1310 H1304 0.949 . S
C1310 C1314 1.368 . S
C1311 C1292 1.429 . S
C1311 C1305 1.429 . S
C1311 C1312 1.523 . S
C1312 C1293 1.368 . S
C1312 C1306 1.368 . S
C1312 C1311 1.523 . S
C1313 C1297 1.429 . S
C1313 C1309 1.429 . S
C1313 C1314 1.523 . S
C1314 C1298 1.368 . S
C1314 C1310 1.368 . S
C1314 C1313 1.523 . S
H1315 C1290 0.950 . S
H1316 C1292 0.950 . S
H1317 C1293 0.949 . S
H1318 C1295 0.950 . S
H1319 C1297 0.950 . S
C1320 C1321 1.349 . S
C1320 C1322 1.327 . S
C1320 H1345 0.950 . S
C1321 C1320 1.349 . S
C1321 C1337 1.349 . S
C1322 C1320 1.327 . S
C1322 C1341 1.429 . S
C1322 H1346 0.950 . S
C1323 C1340 1.574 . S
C1323 C1342 1.368 . S
C1323 H1347 0.949 . S
H1324 C1328 0.949 . S
C1325 C1326 1.349 . S
C1325 C1327 1.327 . S
C1325 H1348 0.950 . S
C1326 C1325 1.349 . S
C1326 C1338 1.349 . S
C1327 C1325 1.327 . S
C1327 C1343 1.429 . S
C1327 H1349 0.950 . S
C1328 H1324 0.949 . S
C1328 C1336 1.574 . S
C1328 C1344 1.368 . S
H1329 C1337 0.950 . S
H1330 C1335 0.950 . S
H1331 C1336 0.949 . S
H1332 C1338 0.950 . S
H1333 C1339 0.950 . S
H1334 C1340 0.949 . S
C1335 H1330 0.950 . S
C1335 C1337 1.327 . S
C1335 C1341 1.429 . S
C1336 C1328 1.574 . S
C1336 H1331 0.949 . S
C1336 C1342 1.368 . S
C1337 C1321 1.349 . S
C1337 H1329 0.950 . S
C1337 C1335 1.327 . S
C1338 C1326 1.349 . S
C1338 H1332 0.950 . S
C1338 C1339 1.327 . S
C1339 H1333 0.950 . S
C1339 C1338 1.327 . S
C1339 C1343 1.429 . S
C1340 C1323 1.574 . S
C1340 H1334 0.949 . S
C1340 C1344 1.368 . S
C1341 C1322 1.429 . S
C1341 C1335 1.429 . S
C1341 C1342 1.523 . S
C1342 C1323 1.368 . S
C1342 C1336 1.368 . S
C1342 C1341 1.523 . S
C1343 C1327 1.429 . S
C1343 C1339 1.429 . S
C1343 C1344 1.523 . S
C1344 C1328 1.368 . S
C1344 C1340 1.368 . S
C1344 C1343 1.523 . S
H1345 C1320 0.950 . S
H1346 C1322 0.950 . S
H1347 C1323 0.949 . S
H1348 C1325 0.950 . S
H1349 C1327 0.950 . S
C1350 C1351 1.349 . S
C1350 C1352 1.327 . S
C1350 H1375 0.950 . S
C1351 C1350 1.349 . S
C1351 C1367 1.349 . S
C1352 C1350 1.327 . S
C1352 C1371 1.429 . S
C1352 H1376 0.950 . S
C1353 C1370 1.574 . S
C1353 C1372 1.368 . S
C1353 H1377 0.949 . S
H1354 C1358 0.949 . S
C1355 C1356 1.349 . S
C1355 C1357 1.327 . S
C1355 H1378 0.950 . S
C1356 C1355 1.349 . S
C1356 C1368 1.349 . S
C1357 C1355 1.327 . S
C1357 C1373 1.429 . S
C1357 H1379 0.950 . S
C1358 H1354 0.949 . S
C1358 C1366 1.574 . S
C1358 C1374 1.368 . S
H1359 C1367 0.950 . S
H1360 C1365 0.950 . S
H1361 C1366 0.949 . S
H1362 C1368 0.950 . S
H1363 C1369 0.950 . S
H1364 C1370 0.949 . S
C1365 H1360 0.950 . S
C1365 C1367 1.327 . S
C1365 C1371 1.429 . S
C1366 C1358 1.574 . S
C1366 H1361 0.949 . S
C1366 C1372 1.368 . S
C1367 C1351 1.349 . S
C1367 H1359 0.950 . S
C1367 C1365 1.327 . S
C1368 C1356 1.349 . S
C1368 H1362 0.950 . S
C1368 C1369 1.327 . S
C1369 H1363 0.950 . S
C1369 C1368 1.327 . S
C1369 C1373 1.429 . S
C1370 C1353 1.574 . S
C1370 H1364 0.949 . S
C1370 C1374 1.368 . S
C1371 C1352 1.429 . S
C1371 C1365 1.429 . S
C1371 C1372 1.523 . S
C1372 C1353 1.368 . S
C1372 C1366 1.368 . S
C1372 C1371 1.523 . S
C1373 C1357 1.429 . S
C1373 C1369 1.429 . S
C1373 C1374 1.523 . S
C1374 C1358 1.368 . S
C1374 C1370 1.368 . S
C1374 C1373 1.523 . S
H1375 C1350 0.950 . S
H1376 C1352 0.950 . S
H1377 C1353 0.949 . S
H1378 C1355 0.950 . S
H1379 C1357 0.950 . S
C1380 C1381 1.349 . S
C1380 C1382 1.327 . S
C1380 H1405 0.950 . S
C1381 C1380 1.349 . S
C1381 C1397 1.349 . S
C1382 C1380 1.327 . S
C1382 C1401 1.429 . S
C1382 H1406 0.950 . S
C1383 C1400 1.574 . S
C1383 C1402 1.368 . S
C1383 H1407 0.949 . S
H1384 C1388 0.949 . S
C1385 C1386 1.349 . S
C1385 C1387 1.327 . S
C1385 H1408 0.950 . S
C1386 C1385 1.349 . S
C1386 C1398 1.349 . S
C1387 C1385 1.327 . S
C1387 C1403 1.429 . S
C1387 H1409 0.950 . S
C1388 H1384 0.949 . S
C1388 C1396 1.574 . S
C1388 C1404 1.368 . S
H1389 C1397 0.950 . S
H1390 C1395 0.950 . S
H1391 C1396 0.949 . S
H1392 C1398 0.950 . S
H1393 C1399 0.950 . S
H1394 C1400 0.949 . S
C1395 H1390 0.950 . S
C1395 C1397 1.327 . S
C1395 C1401 1.429 . S
C1396 C1388 1.574 . S
C1396 H1391 0.949 . S
C1396 C1402 1.368 . S
C1397 C1381 1.349 . S
C1397 H1389 0.950 . S
C1397 C1395 1.327 . S
C1398 C1386 1.349 . S
C1398 H1392 0.950 . S
C1398 C1399 1.327 . S
C1399 H1393 0.950 . S
C1399 C1398 1.327 . S
C1399 C1403 1.429 . S
C1400 C1383 1.574 . S
C1400 H1394 0.949 . S
C1400 C1404 1.368 . S
C1401 C1382 1.429 . S
C1401 C1395 1.429 . S
C1401 C1402 1.523 . S
C1402 C1383 1.368 . S
C1402 C1396 1.368 . S
C1402 C1401 1.523 . S
C1403 C1387 1.429 . S
C1403 C1399 1.429 . S
C1403 C1404 1.523 . S
C1404 C1388 1.368 . S
C1404 C1400 1.368 . S
C1404 C1403 1.523 . S
H1405 C1380 0.950 . S
H1406 C1382 0.950 . S
H1407 C1383 0.949 . S
H1408 C1385 0.950 . S
H1409 C1387 0.950 . S
C1410 C1411 1.349 . S
C1410 C1412 1.327 . S
C1410 H1435 0.950 . S
C1411 C1410 1.349 . S
C1411 C1427 1.349 . S
C1412 C1410 1.327 . S
C1412 C1431 1.429 . S
C1412 H1436 0.950 . S
C1413 C1430 1.574 . S
C1413 C1432 1.368 . S
C1413 H1437 0.949 . S
H1414 C1418 0.949 . S
C1415 C1416 1.349 . S
C1415 C1417 1.327 . S
C1415 H1438 0.950 . S
C1416 C1415 1.349 . S
C1416 C1428 1.349 . S
C1417 C1415 1.327 . S
C1417 C1433 1.429 . S
C1417 H1439 0.950 . S
C1418 H1414 0.949 . S
C1418 C1426 1.574 . S
C1418 C1434 1.368 . S
H1419 C1427 0.950 . S
H1420 C1425 0.950 . S
H1421 C1426 0.949 . S
H1422 C1428 0.950 . S
H1423 C1429 0.950 . S
H1424 C1430 0.949 . S
C1425 H1420 0.950 . S
C1425 C1427 1.327 . S
C1425 C1431 1.429 . S
C1426 C1418 1.574 . S
C1426 H1421 0.949 . S
C1426 C1432 1.368 . S
C1427 C1411 1.349 . S
C1427 H1419 0.950 . S
C1427 C1425 1.327 . S
C1428 C1416 1.349 . S
C1428 H1422 0.950 . S
C1428 C1429 1.327 . S
C1429 H1423 0.950 . S
C1429 C1428 1.327 . S
C1429 C1433 1.429 . S
C1430 C1413 1.574 . S
C1430 H1424 0.949 . S
C1430 C1434 1.368 . S
C1431 C1412 1.429 . S
C1431 C1425 1.429 . S
C1431 C1432 1.523 . S
C1432 C1413 1.368 . S
C1432 C1426 1.368 . S
C1432 C1431 1.523 . S
C1433 C1417 1.429 . S
C1433 C1429 1.429 . S
C1433 C1434 1.523 . S
C1434 C1418 1.368 . S
C1434 C1430 1.368 . S
C1434 C1433 1.523 . S
H1435 C1410 0.950 . S
H1436 C1412 0.950 . S
H1437 C1413 0.949 . S
H1438 C1415 0.950 . S
H1439 C1417 0.950 . S
C1440 C1441 1.349 . S
C1440 C1442 1.327 . S
C1440 H1465 0.950 . S
C1441 C1440 1.349 . S
C1441 C1457 1.349 . S
C1442 C1440 1.327 . S
C1442 C1461 1.429 . S
C1442 H1466 0.950 . S
C1443 C1460 1.574 . S
C1443 C1462 1.368 . S
C1443 H1467 0.949 . S
H1444 C1448 0.949 . S
C1445 C1446 1.349 . S
C1445 C1447 1.327 . S
C1445 H1468 0.950 . S
C1446 C1445 1.349 . S
C1446 C1458 1.349 . S
C1447 C1445 1.327 . S
C1447 C1463 1.429 . S
C1447 H1469 0.950 . S
C1448 H1444 0.949 . S
C1448 C1456 1.574 . S
C1448 C1464 1.368 . S
H1449 C1457 0.950 . S
H1450 C1455 0.950 . S
H1451 C1456 0.949 . S
H1452 C1458 0.950 . S
H1453 C1459 0.950 . S
H1454 C1460 0.949 . S
C1455 H1450 0.950 . S
C1455 C1457 1.327 . S
C1455 C1461 1.429 . S
C1456 C1448 1.574 . S
C1456 H1451 0.949 . S
C1456 C1462 1.368 . S
C1457 C1441 1.349 . S
C1457 H1449 0.950 . S
C1457 C1455 1.327 . S
C1458 C1446 1.349 . S
C1458 H1452 0.950 . S
C1458 C1459 1.327 . S
C1459 H1453 0.950 . S
C1459 C1458 1.327 . S
C1459 C1463 1.429 . S
C1460 C1443 1.574 . S
C1460 H1454 0.949 . S
C1460 C1464 1.368 . S
C1461 C1442 1.429 . S
C1461 C1455 1.429 . S
C1461 C1462 1.523 . S
C1462 C1443 1.368 . S
C1462 C1456 1.368 . S
C1462 C1461 1.523 . S
C1463 C1447 1.429 . S
C1463 C1459 1.429 . S
C1463 C1464 1.523 . S
C1464 C1448 1.368 . S
C1464 C1460 1.368 . S
C1464 C1463 1.523 . S
H1465 C1440 0.950 . S
H1466 C1442 0.950 . S
H1467 C1443 0.949 . S
H1468 C1445 0.950 . S
H1469 C1447 0.950 . S
C1470 C1471 1.349 . S
C1470 C1472 1.327 . S
C1470 H1495 0.950 . S
C1471 C1470 1.349 . S
C1471 C1487 1.349 . S
C1472 C1470 1.327 . S
C1472 C1491 1.429 . S
C1472 H1496 0.950 . S
C1473 C1490 1.574 . S
C1473 C1492 1.368 . S
C1473 H1497 0.949 . S
H1474 C1478 0.949 . S
C1475 C1476 1.349 . S
C1475 C1477 1.327 . S
C1475 H1498 0.950 . S
C1476 C1475 1.349 . S
C1476 C1488 1.349 . S
C1477 C1475 1.327 . S
C1477 C1493 1.429 . S
C1477 H1499 0.950 . S
C1478 H1474 0.949 . S
C1478 C1486 1.574 . S
C1478 C1494 1.368 . S
H1479 C1487 0.950 . S
H1480 C1485 0.950 . S
H1481 C1486 0.949 . S
H1482 C1488 0.950 . S
H1483 C1489 0.950 . S
H1484 C1490 0.949 . S
C1485 H1480 0.950 . S
C1485 C1487 1.327 . S
C1485 C1491 1.429 . S
C1486 C1478 1.574 . S
C1486 H1481 0.949 . S
C1486 C1492 1.368 . S
C1487 C1471 1.349 . S
C1487 H1479 0.950 . S
C1487 C1485 1.327 . S
C1488 C1476 1.349 . S
C1488 H1482 0.950 . S
C1488 C1489 1.327 . S
C1489 H1483 0.950 . S
C1489 C1488 1.327 . S
C1489 C1493 1.429 . S
C1490 C1473 1.574 . S
C1490 H1484 0.949 . S
C1490 C1494 1.368 . S
C1491 C1472 1.429 . S
C1491 C1485 1.429 . S
C1491 C1492 1.523 . S
C1492 C1473 1.368 . S
C1492 C1486 1.368 . S
C1492 C1491 1.523 . S
C1493 C1477 1.429 . S
C1493 C1489 1.429 . S
C1493 C1494 1.523 . S
C1494 C1478 1.368 . S
C1494 C1490 1.368 . S
C1494 C1493 1.523 . S
H1495 C1470 0.950 . S
H1496 C1472 0.950 . S
H1497 C1473 0.949 . S
H1498 C1475 0.950 . S
H1499 C1477 0.950 . S
C1500 C1501 1.349 . S
C1500 C1502 1.327 . S
C1500 H1525 0.950 . S
C1501 C1500 1.349 . S
C1501 C1517 1.349 . S
C1502 C1500 1.327 . S
C1502 C1521 1.429 . S
C1502 H1526 0.950 . S
C1503 C1520 1.574 . S
C1503 C1522 1.368 . S
C1503 H1527 0.949 . S
H1504 C1508 0.949 . S
C1505 C1506 1.349 . S
C1505 C1507 1.327 . S
C1505 H1528 0.950 . S
C1506 C1505 1.349 . S
C1506 C1518 1.349 . S
C1507 C1505 1.327 . S
C1507 C1523 1.429 . S
C1507 H1529 0.950 . S
C1508 H1504 0.949 . S
C1508 C1516 1.574 . S
C1508 C1524 1.368 . S
H1509 C1517 0.950 . S
H1510 C1515 0.950 . S
H1511 C1516 0.949 . S
H1512 C1518 0.950 . S
H1513 C1519 0.950 . S
H1514 C1520 0.949 . S
C1515 H1510 0.950 . S
C1515 C1517 1.327 . S
C1515 C1521 1.429 . S
C1516 C1508 1.574 . S
C1516 H1511 0.949 . S
C1516 C1522 1.368 . S
C1517 C1501 1.349 . S
C1517 H1509 0.950 . S
C1517 C1515 1.327 . S
C1518 C1506 1.349 . S
C1518 H1512 0.950 . S
C1518 C1519 1.327 . S
C1519 H1513 0.950 . S
C1519 C1518 1.327 . S
C1519 C1523 1.429 . S
C1520 C1503 1.574 . S
C1520 H1514 0.949 . S
C1520 C1524 1.368 . S
C1521 C1502 1.429 . S
C1521 C1515 1.429 . S
C1521 C1522 1.523 . S
C1522 C1503 1.368 . S
C1522 C1516 1.368 . S
C1522 C1521 1.523 . S
C1523 C1507 1.429 . S
C1523 C1519 1.429 . S
C1523 C1524 1.523 . S
C1524 C1508 1.368 . S
C1524 C1520 1.368 . S
C1524 C1523 1.523 . S
H1525 C1500 0.950 . S
H1526 C1502 0.950 . S
H1527 C1503 0.949 . S
H1528 C1505 0.950 . S
H1529 C1507 0.950 . S
C1530 C1531 1.349 . S
C1530 C1532 1.327 . S
C1530 H1555 0.950 . S
C1531 C1530 1.349 . S
C1531 C1547 1.349 . S
C1532 C1530 1.327 . S
C1532 C1551 1.429 . S
C1532 H1556 0.950 . S
C1533 C1550 1.574 . S
C1533 C1552 1.368 . S
C1533 H1557 0.949 . S
H1534 C1538 0.949 . S
C1535 C1536 1.349 . S
C1535 C1537 1.327 . S
C1535 H1558 0.950 . S
C1536 C1535 1.349 . S
C1536 C1548 1.349 . S
C1537 C1535 1.327 . S
C1537 C1553 1.429 . S
C1537 H1559 0.950 . S
C1538 H1534 0.949 . S
C1538 C1546 1.574 . S
C1538 C1554 1.368 . S
H1539 C1547 0.950 . S
H1540 C1545 0.950 . S
H1541 C1546 0.949 . S
H1542 C1548 0.950 . S
H1543 C1549 0.950 . S
H1544 C1550 0.949 . S
C1545 H1540 0.950 . S
C1545 C1547 1.327 . S
C1545 C1551 1.429 . S
C1546 C1538 1.574 . S
C1546 H1541 0.949 . S
C1546 C1552 1.368 . S
C1547 C1531 1.349 . S
C1547 H1539 0.950 . S
C1547 C1545 1.327 . S
C1548 C1536 1.349 . S
C1548 H1542 0.950 . S
C1548 C1549 1.327 . S
C1549 H1543 0.950 . S
C1549 C1548 1.327 . S
C1549 C1553 1.429 . S
C1550 C1533 1.574 . S
C1550 H1544 0.949 . S
C1550 C1554 1.368 . S
C1551 C1532 1.429 . S
C1551 C1545 1.429 . S
C1551 C1552 1.523 . S
C1552 C1533 1.368 . S
C1552 C1546 1.368 . S
C1552 C1551 1.523 . S
C1553 C1537 1.429 . S
C1553 C1549 1.429 . S
C1553 C1554 1.523 . S
C1554 C1538 1.368 . S
C1554 C1550 1.368 . S
C1554 C1553 1.523 . S
H1555 C1530 0.950 . S
H1556 C1532 0.950 . S
H1557 C1533 0.949 . S
H1558 C1535 0.950 . S
H1559 C1537 0.950 . S
C1560 C1561 1.349 . S
C1560 C1562 1.327 . S
C1560 H1585 0.950 . S
C1561 C1560 1.349 . S
C1561 C1577 1.349 . S
C1562 C1560 1.327 . S
C1562 C1581 1.429 . S
C1562 H1586 0.950 . S
C1563 C1580 1.574 . S
C1563 C1582 1.368 . S
C1563 H1587 0.949 . S
H1564 C1568 0.949 . S
C1565 C1566 1.349 . S
C1565 C1567 1.327 . S
C1565 H1588 0.950 . S
C1566 C1565 1.349 . S
C1566 C1578 1.349 . S
C1567 C1565 1.327 . S
C1567 C1583 1.429 . S
C1567 H1589 0.950 . S
C1568 H1564 0.949 . S
C1568 C1576 1.574 . S
C1568 C1584 1.368 . S
H1569 C1577 0.950 . S
H1570 C1575 0.950 . S
H1571 C1576 0.949 . S
H1572 C1578 0.950 . S
H1573 C1579 0.950 . S
H1574 C1580 0.949 . S
C1575 H1570 0.950 . S
C1575 C1577 1.327 . S
C1575 C1581 1.429 . S
C1576 C1568 1.574 . S
C1576 H1571 0.949 . S
C1576 C1582 1.368 . S
C1577 C1561 1.349 . S
C1577 H1569 0.950 . S
C1577 C1575 1.327 . S
C1578 C1566 1.349 . S
C1578 H1572 0.950 . S
C1578 C1579 1.327 . S
C1579 H1573 0.950 . S
C1579 C1578 1.327 . S
C1579 C1583 1.429 . S
C1580 C1563 1.574 . S
C1580 H1574 0.949 . S
C1580 C1584 1.368 . S
C1581 C1562 1.429 . S
C1581 C1575 1.429 . S
C1581 C1582 1.523 . S
C1582 C1563 1.368 . S
C1582 C1576 1.368 . S
C1582 C1581 1.523 . S
C1583 C1567 1.429 . S
C1583 C1579 1.429 . S
C1583 C1584 1.523 . S
C1584 C1568 1.368 . S
C1584 C1580 1.368 . S
C1584 C1583 1.523 . S
H1585 C1560 0.950 . S
H1586 C1562 0.950 . S
H1587 C1563 0.949 . S
H1588 C1565 0.950 . S
H1589 C1567 0.950 . S
C1590 C1591 1.349 . S
C1590 C1592 1.327 . S
C1590 H1615 0.950 . S
C1591 C1590 1.349 . S
C1591 C1607 1.349 . S
C1592 C1590 1.327 . S
C1592 C1611 1.429 . S
C1592 H1616 0.950 . S
C1593 C1610 1.574 . S
C1593 C1612 1.368 . S
C1593 H1617 0.949 . S
H1594 C1598 0.949 . S
C1595 C1596 1.349 . S
C1595 C1597 1.327 . S
C1595 H1618 0.950 . S
C1596 C1595 1.349 . S
C1596 C1608 1.349 . S
C1597 C1595 1.327 . S
C1597 C1613 1.429 . S
C1597 H1619 0.950 . S
C1598 H1594 0.949 . S
C1598 C1606 1.574 . S
C1598 C1614 1.368 . S
H1599 C1607 0.950 . S
H1600 C1605 0.950 . S
H1601 C1606 0.949 . S
H1602 C1608 0.950 . S
H1603 C1609 0.950 . S
H1604 C1610 0.949 . S
C1605 H1600 0.950 . S
C1605 C1607 1.327 . S
C1605 C1611 1.429 . S
C1606 C1598 1.574 . S
C1606 H1601 0.949 . S
C1606 C1612 1.368 . S
C1607 C1591 1.349 . S
C1607 H1599 0.950 . S
C1607 C1605 1.327 . S
C1608 C1596 1.349 . S
C1608 H1602 0.950 . S
C1608 C1609 1.327 . S
C1609 H1603 0.950 . S
C1609 C1608 1.327 . S
C1609 C1613 1.429 . S
C1610 C1593 1.574 . S
C1610 H1604 0.949 . S
C1610 C1614 1.368 . S
C1611 C1592 1.429 . S
C1611 C1605 1.429 . S
C1611 C1612 1.523 . S
C1612 C1593 1.368 . S
C1612 C1606 1.368 . S
C1612 C1611 1.523 . S
C1613 C1597 1.429 . S
C1613 C1609 1.429 . S
C1613 C1614 1.523 . S
C1614 C1598 1.368 . S
C1614 C1610 1.368 . S
C1614 C1613 1.523 . S
H1615 C1590 0.950 . S
H1616 C1592 0.950 . S
H1617 C1593 0.949 . S
H1618 C1595 0.950 . S
H1619 C1597 0.950 . S
C1620 C1621 1.349 . S
C1620 C1622 1.327 . S
C1620 H1645 0.950 . S
C1621 C1620 1.349 . S
C1621 C1637 1.349 . S
C1622 C1620 1.327 . S
C1622 C1641 1.429 . S
C1622 H1646 0.950 . S
C1623 C1640 1.574 . S
C1623 C1642 1.368 . S
C1623 H1647 0.949 . S
H1624 C1628 0.949 . S
C1625 C1626 1.349 . S
C1625 C1627 1.327 . S
C1625 H1648 0.950 . S
C1626 C1625 1.349 . S
C1626 C1638 1.349 . S
C1627 C1625 1.327 . S
C1627 C1643 1.429 . S
C1627 H1649 0.950 . S
C1628 H1624 0.949 . S
C1628 C1636 1.574 . S
C1628 C1644 1.368 . S
H1629 C1637 0.950 . S
H1630 C1635 0.950 . S
H1631 C1636 0.949 . S
H1632 C1638 0.950 . S
H1633 C1639 0.950 . S
H1634 C1640 0.949 . S
C1635 H1630 0.950 . S
C1635 C1637 1.327 . S
C1635 C1641 1.429 . S
C1636 C1628 1.574 . S
C1636 H1631 0.949 . S
C1636 C1642 1.368 . S
C1637 C1621 1.349 . S
C1637 H1629 0.950 . S
C1637 C1635 1.327 . S
C1638 C1626 1.349 . S
C1638 H1632 0.950 . S
C1638 C1639 1.327 . S
C1639 H1633 0.950 . S
C1639 C1638 1.327 . S
C1639 C1643 1.429 . S
C1640 C1623 1.574 . S
C1640 H1634 0.949 . S
C1640 C1644 1.368 . S
C1641 C1622 1.429 . S
C1641 C1635 1.429 . S
C1641 C1642 1.523 . S
C1642 C1623 1.368 . S
C1642 C1636 1.368 . S
C1642 C1641 1.523 . S
C1643 C1627 1.429 . S
C1643 C1639 1.429 . S
C1643 C1644 1.523 . S
C1644 C1628 1.368 . S
C1644 C1640 1.368 . S
C1644 C1643 1.523 . S
H1645 C1620 0.950 . S
H1646 C1622 0.950 . S
H1647 C1623 0.949 . S
H1648 C1625 0.950 . S
H1649 C1627 0.950 . S
C1650 C1651 1.349 . S
C1650 C1652 1.327 . S
C1650 H1675 0.950 . S
C1651 C1650 1.349 . S
C1651 C1667 1.349 . S
C1652 C1650 1.327 . S
C1652 C1671 1.429 . S
C1652 H1676 0.950 . S
C1653 C1670 1.574 . S
C1653 C1672 1.368 . S
C1653 H1677 0.949 . S
H1654 C1658 0.949 . S
C1655 C1656 1.349 . S
C1655 C1657 1.327 . S
C1655 H1678 0.950 . S
C1656 C1655 1.349 . S
C1656 C1668 1.349 . S
C1657 C1655 1.327 . S
C1657 C1673 1.429 . S
C1657 H1679 0.950 . S
C1658 H1654 0.949 . S
C1658 C1666 1.574 . S
C1658 C1674 1.368 . S
H1659 C1667 0.950 . S
H1660 C1665 0.950 . S
H1661 C1666 0.949 . S
H1662 C1668 0.950 . S
H1663 C1669 0.950 . S
H1664 C1670 0.949 . S
C1665 H1660 0.950 . S
C1665 C1667 1.327 . S
C1665 C1671 1.429 . S
C1666 C1658 1.574 . S
C1666 H1661 0.949 . S
C1666 C1672 1.368 . S
C1667 C1651 1.349 . S
C1667 H1659 0.950 . S
C1667 C1665 1.327 . S
C1668 C1656 1.349 . S
C1668 H1662 0.950 . S
C1668 C1669 1.327 . S
C1669 H1663 0.950 . S
C1669 C1668 1.327 . S
C1669 C1673 1.429 . S
C1670 C1653 1.574 . S
C1670 H1664 0.949 . S
C1670 C1674 1.368 . S
C1671 C1652 1.429 . S
C1671 C1665 1.429 . S
C1671 C1672 1.523 . S
C1672 C1653 1.368 . S
C1672 C1666 1.368 . S
C1672 C1671 1.523 . S
C1673 C1657 1.429 . S
C1673 C1669 1.429 . S
C1673 C1674 1.523 . S
C1674 C1658 1.368 . S
C1674 C1670 1.368 . S
C1674 C1673 1.523 . S
H1675 C1650 0.950 . S
H1676 C1652 0.950 . S
H1677 C1653 0.949 . S
H1678 C1655 0.950 . S
H1679 C1657 0.950 . S
C1680 C1681 1.349 . S
C1680 C1682 1.327 . S
C1680 H1705 0.950 . S
C1681 C1680 1.349 . S
C1681 C1697 1.349 . S
C1682 C1680 1.327 . S
C1682 C1701 1.429 . S
C1682 H1706 0.950 . S
C1683 C1700 1.574 . S
C1683 C1702 1.368 . S
C1683 H1707 0.949 . S
H1684 C1688 0.949 . S
C1685 C1686 1.349 . S
C1685 C1687 1.327 . S
C1685 H1708 0.950 . S
C1686 C1685 1.349 . S
C1686 C1698 1.349 . S
C1687 C1685 1.327 . S
C1687 C1703 1.429 . S
C1687 H1709 0.950 . S
C1688 H1684 0.949 . S
C1688 C1696 1.574 . S
C1688 C1704 1.368 . S
H1689 C1697 0.950 . S
H1690 C1695 0.950 . S
H1691 C1696 0.949 . S
H1692 C1698 0.950 . S
H1693 C1699 0.950 . S
H1694 C1700 0.949 . S
C1695 H1690 0.950 . S
C1695 C1697 1.327 . S
C1695 C1701 1.429 . S
C1696 C1688 1.574 . S
C1696 H1691 0.949 . S
C1696 C1702 1.368 . S
C1697 C1681 1.349 . S
C1697 H1689 0.950 . S
C1697 C1695 1.327 . S
C1698 C1686 1.349 . S
C1698 H1692 0.950 . S
C1698 C1699 1.327 . S
C1699 H1693 0.950 . S
C1699 C1698 1.327 . S
C1699 C1703 1.429 . S
C1700 C1683 1.574 . S
C1700 H1694 0.949 . S
C1700 C1704 1.368 . S
C1701 C1682 1.429 . S
C1701 C1695 1.429 . S
C1701 C1702 1.523 . S
C1702 C1683 1.368 . S
C1702 C1696 1.368 . S
C1702 C1701 1.523 . S
C1703 C1687 1.429 . S
C1703 C1699 1.429 . S
C1703 C1704 1.523 . S
C1704 C1688 1.368 . S
C1704 C1700 1.368 . S
C1704 C1703 1.523 . S
H1705 C1680 0.950 . S
H1706 C1682 0.950 . S
H1707 C1683 0.949 . S
H1708 C1685 0.950 . S
H1709 C1687 0.950 . S
C1710 C1711 1.349 . S
C1710 C1712 1.327 . S
C1710 H1735 0.950 . S
C1711 C1710 1.349 . S
C1711 C1727 1.349 . S
C1712 C1710 1.327 . S
C1712 C1731 1.429 . S
C1712 H1736 0.950 . S
C1713 C1730 1.574 . S
C1713 C1732 1.368 . S
C1713 H1737 0.949 . S
H1714 C1718 0.949 . S
C1715 C1716 1.349 . S
C1715 C1717 1.327 . S
C1715 H1738 0.950 . S
C1716 C1715 1.349 . S
C1716 C1728 1.349 . S
C1717 C1715 1.327 . S
C1717 C1733 1.429 . S
C1717 H1739 0.950 . S
C1718 H1714 0.949 . S
C1718 C1726 1.574 . S
C1718 C1734 1.368 . S
H1719 C1727 0.950 . S
H1720 C1725 0.950 . S
H1721 C1726 0.949 . S
H1722 C1728 0.950 . S
H1723 C1729 0.950 . S
H1724 C1730 0.949 . S
C1725 H1720 0.950 . S
C1725 C1727 1.327 . S
C1725 C1731 1.429 . S
C1726 C1718 1.574 . S
C1726 H1721 0.949 . S
C1726 C1732 1.368 . S
C1727 C1711 1.349 . S
C1727 H1719 0.950 . S
C1727 C1725 1.327 . S
C1728 C1716 1.349 . S
C1728 H1722 0.950 . S
C1728 C1729 1.327 . S
C1729 H1723 0.950 . S
C1729 C1728 1.327 . S
C1729 C1733 1.429 . S
C1730 C1713 1.574 . S
C1730 H1724 0.949 . S
C1730 C1734 1.368 . S
C1731 C1712 1.429 . S
C1731 C1725 1.429 . S
C1731 C1732 1.523 . S
C1732 C1713 1.368 . S
C1732 C1726 1.368 . S
C1732 C1731 1.523 . S
C1733 C1717 1.429 . S
C1733 C1729 1.429 . S
C1733 C1734 1.523 . S
C1734 C1718 1.368 . S
C1734 C1730 1.368 . S
C1734 C1733 1.523 . S
H1735 C1710 0.950 . S
H1736 C1712 0.950 . S
H1737 C1713 0.949 . S
H1738 C1715 0.950 . S
H1739 C1717 0.950 . S
C1740 C1741 1.349 . S
C1740 C1742 1.327 . S
C1740 H1765 0.950 . S
C1741 C1740 1.349 . S
C1741 C1757 1.349 . S
C1742 C1740 1.327 . S
C1742 C1761 1.429 . S
C1742 H1766 0.950 . S
C1743 C1760 1.574 . S
C1743 C1762 1.368 . S
C1743 H1767 0.949 . S
H1744 C1748 0.949 . S
C1745 C1746 1.349 . S
C1745 C1747 1.327 . S
C1745 H1768 0.950 . S
C1746 C1745 1.349 . S
C1746 C1758 1.349 . S
C1747 C1745 1.327 . S
C1747 C1763 1.429 . S
C1747 H1769 0.950 . S
C1748 H1744 0.949 . S
C1748 C1756 1.574 . S
C1748 C1764 1.368 . S
H1749 C1757 0.950 . S
H1750 C1755 0.950 . S
H1751 C1756 0.949 . S
H1752 C1758 0.950 . S
H1753 C1759 0.950 . S
H1754 C1760 0.949 . S
C1755 H1750 0.950 . S
C1755 C1757 1.327 . S
C1755 C1761 1.429 . S
C1756 C1748 1.574 . S
C1756 H1751 0.949 . S
C1756 C1762 1.368 . S
C1757 C1741 1.349 . S
C1757 H1749 0.950 . S
C1757 C1755 1.327 . S
C1758 C1746 1.349 . S
C1758 H1752 0.950 . S
C1758 C1759 1.327 . S
C1759 H1753 0.950 . S
C1759 C1758 1.327 . S
C1759 C1763 1.429 . S
C1760 C1743 1.574 . S
C1760 H1754 0.949 . S
C1760 C1764 1.368 . S
C1761 C1742 1.429 . S
C1761 C1755 1.429 . S
C1761 C1762 1.523 . S
C1762 C1743 1.368 . S
C1762 C1756 1.368 . S
C1762 C1761 1.523 . S
C1763 C1747 1.429 . S
C1763 C1759 1.429 . S
C1763 C1764 1.523 . S
C1764 C1748 1.368 . S
C1764 C1760 1.368 . S
C1764 C1763 1.523 . S
H1765 C1740 0.950 . S
H1766 C1742 0.950 . S
H1767 C1743 0.949 . S
H1768 C1745 0.950 . S
H1769 C1747 0.950 . S
C1770 C1771 1.349 . S
C1770 C1772 1.327 . S
C1770 H1795 0.950 . S
C1771 C1770 1.349 . S
C1771 C1787 1.349 . S
C1772 C1770 1.327 . S
C1772 C1791 1.429 . S
C1772 H1796 0.950 . S
C1773 C1790 1.574 . S
C1773 C1792 1.368 . S
C1773 H1797 0.949 . S
H1774 C1778 0.949 . S
C1775 C1776 1.349 . S
C1775 C1777 1.327 . S
C1775 H1798 0.950 . S
C1776 C1775 1.349 . S
C1776 C1788 1.349 . S
C1777 C1775 1.327 . S
C1777 C1793 1.429 . S
C1777 H1799 0.950 . S
C1778 H1774 0.949 . S
C1778 C1786 1.574 . S
C1778 C1794 1.368 . S
H1779 C1787 0.950 . S
H1780 C1785 0.950 . S
H1781 C1786 0.949 . S
H1782 C1788 0.950 . S
H1783 C1789 0.950 . S
H1784 C1790 0.949 . S
C1785 H1780 0.950 . S
C1785 C1787 1.327 . S
C1785 C1791 1.429 . S
C1786 C1778 1.574 . S
C1786 H1781 0.949 . S
C1786 C1792 1.368 . S
C1787 C1771 1.349 . S
C1787 H1779 0.950 . S
C1787 C1785 1.327 . S
C1788 C1776 1.349 . S
C1788 H1782 0.950 . S
C1788 C1789 1.327 . S
C1789 H1783 0.950 . S
C1789 C1788 1.327 . S
C1789 C1793 1.429 . S
C1790 C1773 1.574 . S
C1790 H1784 0.949 . S
C1790 C1794 1.368 . S
C1791 C1772 1.429 . S
C1791 C1785 1.429 . S
C1791 C1792 1.523 . S
C1792 C1773 1.368 . S
C1792 C1786 1.368 . S
C1792 C1791 1.523 . S
C1793 C1777 1.429 . S
C1793 C1789 1.429 . S
C1793 C1794 1.523 . S
C1794 C1778 1.368 . S
C1794 C1790 1.368 . S
C1794 C1793 1.523 . S
H1795 C1770 0.950 . S
H1796 C1772 0.950 . S
H1797 C1773 0.949 . S
H1798 C1775 0.950 . S
H1799 C1777 0.950 . S
C1800 C1801 1.349 . S
C1800 C1802 1.327 . S
C1800 H1825 0.950 . S
C1801 C1800 1.349 . S
C1801 C1817 1.349 . S
C1802 C1800 1.327 . S
C1802 C1821 1.429 . S
C1802 H1826 0.950 . S
C1803 C1820 1.574 . S
C1803 C1822 1.368 . S
C1803 H1827 0.949 . S
H1804 C1808 0.949 . S
C1805 C1806 1.349 . S
C1805 C1807 1.327 . S
C1805 H1828 0.950 . S
C1806 C1805 1.349 . S
C1806 C1818 1.349 . S
C1807 C1805 1.327 . S
C1807 C1823 1.429 . S
C1807 H1829 0.950 . S
C1808 H1804 0.949 . S
C1808 C1816 1.574 . S
C1808 C1824 1.368 . S
H1809 C1817 0.950 . S
H1810 C1815 0.950 . S
H1811 C1816 0.949 . S
H1812 C1818 0.950 . S
H1813 C1819 0.950 . S
H1814 C1820 0.949 . S
C1815 H1810 0.950 . S
C1815 C1817 1.327 . S
C1815 C1821 1.429 . S
C1816 C1808 1.574 . S
C1816 H1811 0.949 . S
C1816 C1822 1.368 . S
C1817 C1801 1.349 . S
C1817 H1809 0.950 . S
C1817 C1815 1.327 . S
C1818 C1806 1.349 . S
C1818 H1812 0.950 . S
C1818 C1819 1.327 . S
C1819 H1813 0.950 . S
C1819 C1818 1.327 . S
C1819 C1823 1.429 . S
C1820 C1803 1.574 . S
C1820 H1814 0.949 . S
C1820 C1824 1.368 . S
C1821 C1802 1.429 . S
C1821 C1815 1.429 . S
C1821 C1822 1.523 . S
C1822 C1803 1.368 . S
C1822 C1816 1.368 . S
C1822 C1821 1.523 . S
C1823 C1807 1.429 . S
C1823 C1819 1.429 . S
C1823 C1824 1.523 . S
C1824 C1808 1.368 . S
C1824 C1820 1.368 . S
C1824 C1823 1.523 . S
H1825 C1800 0.950 . S
H1826 C1802 0.950 . S
H1827 C1803 0.949 . S
H1828 C1805 0.950 . S
H1829 C1807 0.950 . S
C1830 C1831 1.349 . S
C1830 C1832 1.327 . S
C1830 H1855 0.950 . S
C1831 C1830 1.349 . S
C1831 C1847 1.349 . S
C1832 C1830 1.327 . S
C1832 C1851 1.429 . S
C1832 H1856 0.950 . S
C1833 C1850 1.574 . S
C1833 C1852 1.368 . S
C1833 H1857 0.949 . S
H1834 C1838 0.949 . S
C1835 C1836 1.349 . S
C1835 C1837 1.327 . S
C1835 H1858 0.950 . S
C1836 C1835 1.349 . S
C1836 C1848 1.349 . S
C1837 C1835 1.327 . S
C1837 C1853 1.429 . S
C1837 H1859 0.950 . S
C1838 H1834 0.949 . S
C1838 C1846 1.574 . S
C1838 C1854 1.368 . S
H1839 C1847 0.950 . S
H1840 C1845 0.950 . S
H1841 C1846 0.949 . S
H1842 C1848 0.950 . S
H1843 C1849 0.950 . S
H1844 C1850 0.949 . S
C1845 H1840 0.950 . S
C1845 C1847 1.327 . S
C1845 C1851 1.429 . S
C1846 C1838 1.574 . S
C1846 H1841 0.949 . S
C1846 C1852 1.368 . S
C1847 C1831 1.349 . S
C1847 H1839 0.950 . S
C1847 C1845 1.327 . S
C1848 C1836 1.349 . S
C1848 H1842 0.950 . S
C1848 C1849 1.327 . S
C1849 H1843 0.950 . S
C1849 C1848 1.327 . S
C1849 C1853 1.429 . S
C1850 C1833 1.574 . S
C1850 H1844 0.949 . S
C1850 C1854 1.368 . S
C1851 C1832 1.429 . S
C1851 C1845 1.429 . S
C1851 C1852 1.523 . S
C1852 C1833 1.368 . S
C1852 C1846 1.368 . S
C1852 C1851 1.523 . S
C1853 C1837 1.429 . S
C1853 C1849 1.429 . S
C1853 C1854 1.523 . S
C1854 C1838 1.368 . S
C1854 C1850 1.368 . S
C1854 C1853 1.523 . S
H1855 C1830 0.950 . S
H1856 C1832 0.950 . S
H1857 C1833 0.949 . S
H1858 C1835 0.950 . S
H1859 C1837 0.950 . S
C1860 C1861 1.349 . S
C1860 C1862 1.327 . S
C1860 H1885 0.950 . S
C1861 C1860 1.349 . S
C1861 C1877 1.349 . S
C1862 C1860 1.327 . S
C1862 C1881 1.429 . S
C1862 H1886 0.950 . S
C1863 C1880 1.574 . S
C1863 C1882 1.368 . S
C1863 H1887 0.949 . S
H1864 C1868 0.949 . S
C1865 C1866 1.349 . S
C1865 C1867 1.327 . S
C1865 H1888 0.950 . S
C1866 C1865 1.349 . S
C1866 C1878 1.349 . S
C1867 C1865 1.327 . S
C1867 C1883 1.429 . S
C1867 H1889 0.950 . S
C1868 H1864 0.949 . S
C1868 C1876 1.574 . S
C1868 C1884 1.368 . S
H1869 C1877 0.950 . S
H1870 C1875 0.950 . S
H1871 C1876 0.949 . S
H1872 C1878 0.950 . S
H1873 C1879 0.950 . S
H1874 C1880 0.949 . S
C1875 H1870 0.950 . S
C1875 C1877 1.327 . S
C1875 C1881 1.429 . S
C1876 C1868 1.574 . S
C1876 H1871 0.949 . S
C1876 C1882 1.368 . S
C1877 C1861 1.349 . S
C1877 H1869 0.950 . S
C1877 C1875 1.327 . S
C1878 C1866 1.349 . S
C1878 H1872 0.950 . S
C1878 C1879 1.327 . S
C1879 H1873 0.950 . S
C1879 C1878 1.327 . S
C1879 C1883 1.429 . S
C1880 C1863 1.574 . S
C1880 H1874 0.949 . S
C1880 C1884 1.368 . S
C1881 C1862 1.429 . S
C1881 C1875 1.429 . S
C1881 C1882 1.523 . S
C1882 C1863 1.368 . S
C1882 C1876 1.368 . S
C1882 C1881 1.523 . S
C1883 C1867 1.429 . S
C1883 C1879 1.429 . S
C1883 C1884 1.523 . S
C1884 C1868 1.368 . S
C1884 C1880 1.368 . S
C1884 C1883 1.523 . S
H1885 C1860 0.950 . S
H1886 C1862 0.950 . S
H1887 C1863 0.949 . S
H1888 C1865 0.950 . S
H1889 C1867 0.950 . S
C1890 C1891 1.349 . S
C1890 C1892 1.327 . S
C1890 H1915 0.950 . S
C1891 C1890 1.349 . S
C1891 C1907 1.349 . S
C1892 C1890 1.327 . S
C1892 C1911 1.429 . S
C1892 H1916 0.950 . S
C1893 C1910 1.574 . S
C1893 C1912 1.368 . S
C1893 H1917 0.949 . S
H1894 C1898 0.949 . S
C1895 C1896 1.349 . S
C1895 C1897 1.327 . S
C1895 H1918 0.950 . S
C1896 C1895 1.349 . S
C1896 C1908 1.349 . S
C1897 C1895 1.327 . S
C1897 C1913 1.429 . S
C1897 H1919 0.950 . S
C1898 H1894 0.949 . S
C1898 C1906 1.574 . S
C1898 C1914 1.368 . S
H1899 C1907 0.950 . S
H1900 C1905 0.950 . S
H1901 C1906 0.949 . S
H1902 C1908 0.950 . S
H1903 C1909 0.950 . S
H1904 C1910 0.949 . S
C1905 H1900 0.950 . S
C1905 C1907 1.327 . S
C1905 C1911 1.429 . S
C1906 C1898 1.574 . S
C1906 H1901 0.949 . S
C1906 C1912 1.368 . S
C1907 C1891 1.349 . S
C1907 H1899 0.950 . S
C1907 C1905 1.327 . S
C1908 C1896 1.349 . S
C1908 H1902 0.950 . S
C1908 C1909 1.327 . S
C1909 H1903 0.950 . S
C1909 C1908 1.327 . S
C1909 C1913 1.429 . S
C1910 C1893 1.574 . S
C1910 H1904 0.949 . S
C1910 C1914 1.368 . S
C1911 C1892 1.429 . S
C1911 C1905 1.429 . S
C1911 C1912 1.523 . S
C1912 C1893 1.368 . S
C1912 C1906 1.368 . S
C1912 C1911 1.523 . S
C1913 C1897 1.429 . S
C1913 C1909 1.429 . S
C1913 C1914 1.523 . S
C1914 C1898 1.368 . S
C1914 C1910 1.368 . S
C1914 C1913 1.523 . S
H1915 C1890 0.950 . S
H1916 C1892 0.950 . S
H1917 C1893 0.949 . S
H1918 C1895 0.950 . S
H1919 C1897 0.950 . S
C1920 C1921 1.349 . S
C1920 C1922 1.327 . S
C1920 H1945 0.950 . S
C1921 C1920 1.349 . S
C1921 C1937 1.349 . S
C1922 C1920 1.327 . S
C1922 C1941 1.429 . S
C1922 H1946 0.950 . S
C1923 C1940 1.574 . S
C1923 C1942 1.368 . S
C1923 H1947 0.949 . S
H1924 C1928 0.949 . S
C1925 C1926 1.349 . S
C1925 C1927 1.327 . S
C1925 H1948 0.950 . S
C1926 C1925 1.349 . S
C1926 C1938 1.349 . S
C1927 C1925 1.327 . S
C1927 C1943 1.429 . S
C1927 H1949 0.950 . S
C1928 H1924 0.949 . S
C1928 C1936 1.574 . S
C1928 C1944 1.368 . S
H1929 C1937 0.950 . S
H1930 C1935 0.950 . S
H1931 C1936 0.949 . S
H1932 C1938 0.950 . S
H1933 C1939 0.950 . S
H1934 C1940 0.949 . S
C1935 H1930 0.950 . S
C1935 C1937 1.327 . S
C1935 C1941 1.429 . S
C1936 C1928 1.574 . S
C1936 H1931 0.949 . S
C1936 C1942 1.368 . S
C1937 C1921 1.349 . S
C1937 H1929 0.950 . S
C1937 C1935 1.327 . S
C1938 C1926 1.349 . S
C1938 H1932 0.950 . S
C1938 C1939 1.327 . S
C1939 H1933 0.950 . S
C1939 C1938 1.327 . S
C1939 C1943 1.429 . S
C1940 C1923 1.574 . S
C1940 H1934 0.949 . S
C1940 C1944 1.368 . S
C1941 C1922 1.429 . S
C1941 C1935 1.429 . S
C1941 C1942 1.523 . S
C1942 C1923 1.368 . S
C1942 C1936 1.368 . S
C1942 C1941 1.523 . S
C1943 C1927 1.429 . S
C1943 C1939 1.429 . S
C1943 C1944 1.523 . S
C1944 C1928 1.368 . S
C1944 C1940 1.368 . S
C1944 C1943 1.523 . S
H1945 C1920 0.950 . S
H1946 C1922 0.950 . S
H1947 C1923 0.949 . S
H1948 C1925 0.950 . S
H1949 C1927 0.950 . S
C1950 C1951 1.349 . S
C1950 C1952 1.327 . S
C1950 H1975 0.950 . S
C1951 C1950 1.349 . S
C1951 C1967 1.349 . S
C1952 C1950 1.327 . S
C1952 C1971 1.429 . S
C1952 H1976 0.950 . S
C1953 C1970 1.574 . S
C1953 C1972 1.368 . S
C1953 H1977 0.949 . S
H1954 C1958 0.949 . S
C1955 C1956 1.349 . S
C1955 C1957 1.327 . S
C1955 H1978 0.950 . S
C1956 C1955 1.349 . S
C1956 C1968 1.349 . S
C1957 C1955 1.327 . S
C1957 C1973 1.429 . S
C1957 H1979 0.950 . S
C1958 H1954 0.949 . S
C1958 C1966 1.574 . S
C1958 C1974 1.368 . S
H1959 C1967 0.950 . S
H1960 C1965 0.950 . S
H1961 C1966 0.949 . S
H1962 C1968 0.950 . S
H1963 C1969 0.950 . S
H1964 C1970 0.949 . S
C1965 H1960 0.950 . S
C1965 C1967 1.327 . S
C1965 C1971 1.429 . S
C1966 C1958 1.574 . S
C1966 H1961 0.949 . S
C1966 C1972 1.368 . S
C1967 C1951 1.349 . S
C1967 H1959 0.950 . S
C1967 C1965 1.327 . S
C1968 C1956 1.349 . S
C1968 H1962 0.950 . S
C1968 C1969 1.327 . S
C1969 H1963 0.950 . S
C1969 C1968 1.327 . S
C1969 C1973 1.429 . S
C1970 C1953 1.574 . S
C1970 H1964 0.949 . S
C1970 C1974 1.368 . S
C1971 C1952 1.429 . S
C1971 C1965 1.429 . S
C1971 C1972 1.523 . S
C1972 C1953 1.368 . S
C1972 C1966 1.368 . S
C1972 C1971 1.523 . S
C1973 C1957 1.429 . S
C1973 C1969 1.429 . S
C1973 C1974 1.523 . S
C1974 C1958 1.368 . S
C1974 C1970 1.368 . S
C1974 C1973 1.523 . S
H1975 C1950 0.950 . S
H1976 C1952 0.950 . S
H1977 C1953 0.949 . S
H1978 C1955 0.950 . S
H1979 C1957 0.950 . S
C1980 C1981 1.349 . S
C1980 C1982 1.327 . S
C1980 H2005 0.950 . S
C1981 C1980 1.349 . S
C1981 C1997 1.349 . S
C1982 C1980 1.327 . S
C1982 C2001 1.429 . S
C1982 H2006 0.950 . S
C1983 C2000 1.574 . S
C1983 C2002 1.368 . S
C1983 H2007 0.949 . S
H1984 C1988 0.949 . S
C1985 C1986 1.349 . S
C1985 C1987 1.327 . S
C1985 H2008 0.950 . S
C1986 C1985 1.349 . S
C1986 C1998 1.349 . S
C1987 C1985 1.327 . S
C1987 C2003 1.429 . S
C1987 H2009 0.950 . S
C1988 H1984 0.949 . S
C1988 C1996 1.574 . S
C1988 C2004 1.368 . S
H1989 C1997 0.950 . S
H1990 C1995 0.950 . S
H1991 C1996 0.949 . S
H1992 C1998 0.950 . S
H1993 C1999 0.950 . S
H1994 C2000 0.949 . S
C1995 H1990 0.950 . S
C1995 C1997 1.327 . S
C1995 C2001 1.429 . S
C1996 C1988 1.574 . S
C1996 H1991 0.949 . S
C1996 C2002 1.368 . S
C1997 C1981 1.349 . S
C1997 H1989 0.950 . S
C1997 C1995 1.327 . S
C1998 C1986 1.349 . S
C1998 H1992 0.950 . S
C1998 C1999 1.327 . S
C1999 H1993 0.950 . S
C1999 C1998 1.327 . S
C1999 C2003 1.429 . S
C2000 C1983 1.574 . S
C2000 H1994 0.949 . S
C2000 C2004 1.368 . S
C2001 C1982 1.429 . S
C2001 C1995 1.429 . S
C2001 C2002 1.523 . S
C2002 C1983 1.368 . S
C2002 C1996 1.368 . S
C2002 C2001 1.523 . S
C2003 C1987 1.429 . S
C2003 C1999 1.429 . S
C2003 C2004 1.523 . S
C2004 C1988 1.368 . S
C2004 C2000 1.368 . S
C2004 C2003 1.523 . S
H2005 C1980 0.950 . S
H2006 C1982 0.950 . S
H2007 C1983 0.949 . S
H2008 C1985 0.950 . S
H2009 C1987 0.950 . S
C2010 C2011 1.349 . S
C2010 C2012 1.327 . S
C2010 H2035 0.950 . S
C2011 C2010 1.349 . S
C2011 C2027 1.349 . S
C2012 C2010 1.327 . S
C2012 C2031 1.429 . S
C2012 H2036 0.950 . S
C2013 C2030 1.574 . S
C2013 C2032 1.368 . S
C2013 H2037 0.949 . S
H2014 C2018 0.949 . S
C2015 C2016 1.349 . S
C2015 C2017 1.327 . S
C2015 H2038 0.950 . S
C2016 C2015 1.349 . S
C2016 C2028 1.349 . S
C2017 C2015 1.327 . S
C2017 C2033 1.429 . S
C2017 H2039 0.950 . S
C2018 H2014 0.949 . S
C2018 C2026 1.574 . S
C2018 C2034 1.368 . S
H2019 C2027 0.950 . S
H2020 C2025 0.950 . S
H2021 C2026 0.949 . S
H2022 C2028 0.950 . S
H2023 C2029 0.950 . S
H2024 C2030 0.949 . S
C2025 H2020 0.950 . S
C2025 C2027 1.327 . S
C2025 C2031 1.429 . S
C2026 C2018 1.574 . S
C2026 H2021 0.949 . S
C2026 C2032 1.368 . S
C2027 C2011 1.349 . S
C2027 H2019 0.950 . S
C2027 C2025 1.327 . S
C2028 C2016 1.349 . S
C2028 H2022 0.950 . S
C2028 C2029 1.327 . S
C2029 H2023 0.950 . S
C2029 C2028 1.327 . S
C2029 C2033 1.429 . S
C2030 C2013 1.574 . S
C2030 H2024 0.949 . S
C2030 C2034 1.368 . S
C2031 C2012 1.429 . S
C2031 C2025 1.429 . S
C2031 C2032 1.523 . S
C2032 C2013 1.368 . S
C2032 C2026 1.368 . S
C2032 C2031 1.523 . S
C2033 C2017 1.429 . S
C2033 C2029 1.429 . S
C2033 C2034 1.523 . S
C2034 C2018 1.368 . S
C2034 C2030 1.368 . S
C2034 C2033 1.523 . S
H2035 C2010 0.950 . S
H2036 C2012 0.950 . S
H2037 C2013 0.949 . S
H2038 C2015 0.950 . S
H2039 C2017 0.950 . S
C2040 C2041 1.349 . S
C2040 C2042 1.327 . S
C2040 H2065 0.950 . S
C2041 C2040 1.349 . S
C2041 C2057 1.349 . S
C2042 C2040 1.327 . S
C2042 C2061 1.429 . S
C2042 H2066 0.950 . S
C2043 C2060 1.574 . S
C2043 C2062 1.368 . S
C2043 H2067 0.949 . S
H2044 C2048 0.949 . S
C2045 C2046 1.349 . S
C2045 C2047 1.327 . S
C2045 H2068 0.950 . S
C2046 C2045 1.349 . S
C2046 C2058 1.349 . S
C2047 C2045 1.327 . S
C2047 C2063 1.429 . S
C2047 H2069 0.950 . S
C2048 H2044 0.949 . S
C2048 C2056 1.574 . S
C2048 C2064 1.368 . S
H2049 C2057 0.950 . S
H2050 C2055 0.950 . S
H2051 C2056 0.949 . S
H2052 C2058 0.950 . S
H2053 C2059 0.950 . S
H2054 C2060 0.949 . S
C2055 H2050 0.950 . S
C2055 C2057 1.327 . S
C2055 C2061 1.429 . S
C2056 C2048 1.574 . S
C2056 H2051 0.949 . S
C2056 C2062 1.368 . S
C2057 C2041 1.349 . S
C2057 H2049 0.950 . S
C2057 C2055 1.327 . S
C2058 C2046 1.349 . S
C2058 H2052 0.950 . S
C2058 C2059 1.327 . S
C2059 H2053 0.950 . S
C2059 C2058 1.327 . S
C2059 C2063 1.429 . S
C2060 C2043 1.574 . S
C2060 H2054 0.949 . S
C2060 C2064 1.368 . S
C2061 C2042 1.429 . S
C2061 C2055 1.429 . S
C2061 C2062 1.523 . S
C2062 C2043 1.368 . S
C2062 C2056 1.368 . S
C2062 C2061 1.523 . S
C2063 C2047 1.429 . S
C2063 C2059 1.429 . S
C2063 C2064 1.523 . S
C2064 C2048 1.368 . S
C2064 C2060 1.368 . S
C2064 C2063 1.523 . S
H2065 C2040 0.950 . S
H2066 C2042 0.950 . S
H2067 C2043 0.949 . S
H2068 C2045 0.950 . S
H2069 C2047 0.950 . S
C2070 C2071 1.349 . S
C2070 C2072 1.327 . S
C2070 H2095 0.950 . S
C2071 C2070 1.349 . S
C2071 C2087 1.349 . S
C2072 C2070 1.327 . S
C2072 C2091 1.429 . S
C2072 H2096 0.950 . S
C2073 C2090 1.574 . S
C2073 C2092 1.368 . S
C2073 H2097 0.949 . S
H2074 C2078 0.949 . S
C2075 C2076 1.349 . S
C2075 C2077 1.327 . S
C2075 H2098 0.950 . S
C2076 C2075 1.349 . S
C2076 C2088 1.349 . S
C2077 C2075 1.327 . S
C2077 C2093 1.429 . S
C2077 H2099 0.950 . S
C2078 H2074 0.949 . S
C2078 C2086 1.574 . S
C2078 C2094 1.368 . S
H2079 C2087 0.950 . S
H2080 C2085 0.950 . S
H2081 C2086 0.949 . S
H2082 C2088 0.950 . S
H2083 C2089 0.950 . S
H2084 C2090 0.949 . S
C2085 H2080 0.950 . S
C2085 C2087 1.327 . S
C2085 C2091 1.429 . S
C2086 C2078 1.574 . S
C2086 H2081 0.949 . S
C2086 C2092 1.368 . S
C2087 C2071 1.349 . S
C2087 H2079 0.950 . S
C2087 C2085 1.327 . S
C2088 C2076 1.349 . S
C2088 H2082 0.950 . S
C2088 C2089 1.327 . S
C2089 H2083 0.950 . S
C2089 C2088 1.327 . S
C2089 C2093 1.429 . S
C2090 C2073 1.574 . S
C2090 H2084 0.949 . S
C2090 C2094 1.368 . S
C2091 C2072 1.429 . S
C2091 C2085 1.429 . S
C2091 C2092 1.523 . S
C2092 C2073 1.368 . S
C2092 C2086 1.368 . S
C2092 C2091 1.523 . S
C2093 C2077 1.429 . S
C2093 C2089 1.429 . S
C2093 C2094 1.523 . S
C2094 C2078 1.368 . S
C2094 C2090 1.368 . S
C2094 C2093 1.523 . S
H2095 C2070 0.950 . S
H2096 C2072 0.950 . S
H2097 C2073 0.949 . S
H2098 C2075 0.950 . S
H2099 C2077 0.950 . S
C2100 C2101 1.349 . S
C2100 C2102 1.327 . S
C2100 H2125 0.950 . S
C2101 C2100 1.349 . S
C2101 C2117 1.349 . S
C2102 C2100 1.327 . S
C2102 C2121 1.429 . S
C2102 H2126 0.950 . S
C2103 C2120 1.574 . S
C2103 C2122 1.368 . S
C2103 H2127 0.949 . S
H2104 C2108 0.949 . S
C2105 C2106 1.349 . S
C2105 C2107 1.327 . S
C2105 H2128 0.950 . S
C2106 C2105 1.349 . S
C2106 C2118 1.349 . S
C2107 C2105 1.327 . S
C2107 C2123 1.429 . S
C2107 H2129 0.950 . S
C2108 H2104 0.949 . S
C2108 C2116 1.574 . S
C2108 C2124 1.368 . S
H2109 C2117 0.950 . S
H2110 C2115 0.950 . S
H2111 C2116 0.949 . S
H2112 C2118 0.950 . S
H2113 C2119 0.950 . S
H2114 C2120 0.949 . S
C2115 H2110 0.950 . S
C2115 C2117 1.327 . S
C2115 C2121 1.429 . S
C2116 C2108 1.574 . S
C2116 H2111 0.949 . S
C2116 C2122 1.368 . S
C2117 C2101 1.349 . S
C2117 H2109 0.950 . S
C2117 C2115 1.327 . S
C2118 C2106 1.349 . S
C2118 H2112 0.950 . S
C2118 C2119 1.327 . S
C2119 H2113 0.950 . S
C2119 C2118 1.327 . S
C2119 C2123 1.429 . S
C2120 C2103 1.574 . S
C2120 H2114 0.949 . S
C2120 C2124 1.368 . S
C2121 C2102 1.429 . S
C2121 C2115 1.429 . S
C2121 C2122 1.523 . S
C2122 C2103 1.368 . S
C2122 C2116 1.368 . S
C2122 C2121 1.523 . S
C2123 C2107 1.429 . S
C2123 C2119 1.429 . S
C2123 C2124 1.523 . S
C2124 C2108 1.368 . S
C2124 C2120 1.368 . S
C2124 C2123 1.523 . S
H2125 C2100 0.950 . S
H2126 C2102 0.950 . S
H2127 C2103 0.949 . S
H2128 C2105 0.950 . S
H2129 C2107 0.950 . S
C2130 C2131 1.349 . S
C2130 C2132 1.327 . S
C2130 H2155 0.950 . S
C2131 C2130 1.349 . S
C2131 C2147 1.349 . S
C2132 C2130 1.327 . S
C2132 C2151 1.429 . S
C2132 H2156 0.950 . S
C2133 C2150 1.574 . S
C2133 C2152 1.368 . S
C2133 H2157 0.949 . S
H2134 C2138 0.949 . S
C2135 C2136 1.349 . S
C2135 C2137 1.327 . S
C2135 H2158 0.950 . S
C2136 C2135 1.349 . S
C2136 C2148 1.349 . S
C2137 C2135 1.327 . S
C2137 C2153 1.429 . S
C2137 H2159 0.950 . S
C2138 H2134 0.949 . S
C2138 C2146 1.574 . S
C2138 C2154 1.368 . S
H2139 C2147 0.950 . S
H2140 C2145 0.950 . S
H2141 C2146 0.949 . S
H2142 C2148 0.950 . S
H2143 C2149 0.950 . S
H2144 C2150 0.949 . S
C2145 H2140 0.950 . S
C2145 C2147 1.327 . S
C2145 C2151 1.429 . S
C2146 C2138 1.574 . S
C2146 H2141 0.949 . S
C2146 C2152 1.368 . S
C2147 C2131 1.349 . S
C2147 H2139 0.950 . S
C2147 C2145 1.327 . S
C2148 C2136 1.349 . S
C2148 H2142 0.950 . S
C2148 C2149 1.327 . S
C2149 H2143 0.950 . S
C2149 C2148 1.327 . S
C2149 C2153 1.429 . S
C2150 C2133 1.574 . S
C2150 H2144 0.949 . S
C2150 C2154 1.368 . S
C2151 C2132 1.429 . S
C2151 C2145 1.429 . S
C2151 C2152 1.523 . S
C2152 C2133 1.368 . S
C2152 C2146 1.368 . S
C2152 C2151 1.523 . S
C2153 C2137 1.429 . S
C2153 C2149 1.429 . S
C2153 C2154 1.523 . S
C2154 C2138 1.368 . S
C2154 C2150 1.368 . S
C2154 C2153 1.523 . S
H2155 C2130 0.950 . S
H2156 C2132 0.950 . S
H2157 C2133 0.949 . S
H2158 C2135 0.950 . S
H2159 C2137 0.950 . S
C2160 C2161 1.349 . S
C2160 C2162 1.327 . S
C2160 H2185 0.950 . S
C2161 C2160 1.349 . S
C2161 C2177 1.349 . S
C2162 C2160 1.327 . S
C2162 C2181 1.429 . S
C2162 H2186 0.950 . S
C2163 C2180 1.574 . S
C2163 C2182 1.368 . S
C2163 H2187 0.949 . S
H2164 C2168 0.949 . S
C2165 C2166 1.349 . S
C2165 C2167 1.327 . S
C2165 H2188 0.950 . S
C2166 C2165 1.349 . S
C2166 C2178 1.349 . S
C2167 C2165 1.327 . S
C2167 C2183 1.429 . S
C2167 H2189 0.950 . S
C2168 H2164 0.949 . S
C2168 C2176 1.574 . S
C2168 C2184 1.368 . S
H2169 C2177 0.950 . S
H2170 C2175 0.950 . S
H2171 C2176 0.949 . S
H2172 C2178 0.950 . S
H2173 C2179 0.950 . S
H2174 C2180 0.949 . S
C2175 H2170 0.950 . S
C2175 C2177 1.327 . S
C2175 C2181 1.429 . S
C2176 C2168 1.574 . S
C2176 H2171 0.949 . S
C2176 C2182 1.368 . S
C2177 C2161 1.349 . S
C2177 H2169 0.950 . S
C2177 C2175 1.327 . S
C2178 C2166 1.349 . S
C2178 H2172 0.950 . S
C2178 C2179 1.327 . S
C2179 H2173 0.950 . S
C2179 C2178 1.327 . S
C2179 C2183 1.429 . S
C2180 C2163 1.574 . S
C2180 H2174 0.949 . S
C2180 C2184 1.368 . S
C2181 C2162 1.429 . S
C2181 C2175 1.429 . S
C2181 C2182 1.523 . S
C2182 C2163 1.368 . S
C2182 C2176 1.368 . S
C2182 C2181 1.523 . S
C2183 C2167 1.429 . S
C2183 C2179 1.429 . S
C2183 C2184 1.523 . S
C2184 C2168 1.368 . S
C2184 C2180 1.368 . S
C2184 C2183 1.523 . S
H2185 C2160 0.950 . S
H2186 C2162 0.950 . S
H2187 C2163 0.949 . S
H2188 C2165 0.950 . S
H2189 C2167 0.950 . S
C2190 C2191 1.349 . S
C2190 C2192 1.327 . S
C2190 H2215 0.950 . S
C2191 C2190 1.349 . S
C2191 C2207 1.349 . S
C2192 C2190 1.327 . S
C2192 C2211 1.429 . S
C2192 H2216 0.950 . S
C2193 C2210 1.574 . S
C2193 C2212 1.368 . S
C2193 H2217 0.949 . S
H2194 C2198 0.949 . S
C2195 C2196 1.349 . S
C2195 C2197 1.327 . S
C2195 H2218 0.950 . S
C2196 C2195 1.349 . S
C2196 C2208 1.349 . S
C2197 C2195 1.327 . S
C2197 C2213 1.429 . S
C2197 H2219 0.950 . S
C2198 H2194 0.949 . S
C2198 C2206 1.574 . S
C2198 C2214 1.368 . S
H2199 C2207 0.950 . S
H2200 C2205 0.950 . S
H2201 C2206 0.949 . S
H2202 C2208 0.950 . S
H2203 C2209 0.950 . S
H2204 C2210 0.949 . S
C2205 H2200 0.950 . S
C2205 C2207 1.327 . S
C2205 C2211 1.429 . S
C2206 C2198 1.574 . S
C2206 H2201 0.949 . S
C2206 C2212 1.368 . S
C2207 C2191 1.349 . S
C2207 H2199 0.950 . S
C2207 C2205 1.327 . S
C2208 C2196 1.349 . S
C2208 H2202 0.950 . S
C2208 C2209 1.327 . S
C2209 H2203 0.950 . S
C2209 C2208 1.327 . S
C2209 C2213 1.429 . S
C2210 C2193 1.574 . S
C2210 H2204 0.949 . S
C2210 C2214 1.368 . S
C2211 C2192 1.429 . S
C2211 C2205 1.429 . S
C2211 C2212 1.523 . S
C2212 C2193 1.368 . S
C2212 C2206 1.368 . S
C2212 C2211 1.523 . S
C2213 C2197 1.429 . S
C2213 C2209 1.429 . S
C2213 C2214 1.523 . S
C2214 C2198 1.368 . S
C2214 C2210 1.368 . S
C2214 C2213 1.523 . S
H2215 C2190 0.950 . S
H2216 C2192 0.950 . S
H2217 C2193 0.949 . S
H2218 C2195 0.950 . S
H2219 C2197 0.950 . S
C2220 C2221 1.349 . S
C2220 C2222 1.327 . S
C2220 H2245 0.950 . S
C2221 C2220 1.349 . S
C2221 C2237 1.349 . S
C2222 C2220 1.327 . S
C2222 C2241 1.429 . S
C2222 H2246 0.950 . S
C2223 C2240 1.574 . S
C2223 C2242 1.368 . S
C2223 H2247 0.949 . S
H2224 C2228 0.949 . S
C2225 C2226 1.349 . S
C2225 C2227 1.327 . S
C2225 H2248 0.950 . S
C2226 C2225 1.349 . S
C2226 C2238 1.349 . S
C2227 C2225 1.327 . S
C2227 C2243 1.429 . S
C2227 H2249 0.950 . S
C2228 H2224 0.949 . S
C2228 C2236 1.574 . S
C2228 C2244 1.368 . S
H2229 C2237 0.950 . S
H2230 C2235 0.950 . S
H2231 C2236 0.949 . S
H2232 C2238 0.950 . S
H2233 C2239 0.950 . S
H2234 C2240 0.949 . S
C2235 H2230 0.950 . S
C2235 C2237 1.327 . S
C2235 C2241 1.429 . S
C2236 C2228 1.574 . S
C2236 H2231 0.949 . S
C2236 C2242 1.368 . S
C2237 C2221 1.349 . S
C2237 H2229 0.950 . S
C2237 C2235 1.327 . S
C2238 C2226 1.349 . S
C2238 H2232 0.950 . S
C2238 C2239 1.327 . S
C2239 H2233 0.950 . S
C2239 C2238 1.327 . S
C2239 C2243 1.429 . S
C2240 C2223 1.574 . S
C2240 H2234 0.949 . S
C2240 C2244 1.368 . S
C2241 C2222 1.429 . S
C2241 C2235 1.429 . S
C2241 C2242 1.523 . S
C2242 C2223 1.368 . S
C2242 C2236 1.368 . S
C2242 C2241 1.523 . S
C2243 C2227 1.429 . S
C2243 C2239 1.429 . S
C2243 C2244 1.523 . S
C2244 C2228 1.368 . S
C2244 C2240 1.368 . S
C2244 C2243 1.523 . S
H2245 C2220 0.950 . S
H2246 C2222 0.950 . S
H2247 C2223 0.949 . S
H2248 C2225 0.950 . S
H2249 C2227 0.950 . S
C2250 C2251 1.349 . S
C2250 C2252 1.327 . S
C2250 H2275 0.950 . S
C2251 C2250 1.349 . S
C2251 C2267 1.349 . S
C2252 C2250 1.327 . S
C2252 C2271 1.429 . S
C2252 H2276 0.950 . S
C2253 C2270 1.574 . S
C2253 C2272 1.368 . S
C2253 H2277 0.949 . S
H2254 C2258 0.949 . S
C2255 C2256 1.349 . S
C2255 C2257 1.327 . S
C2255 H2278 0.950 . S
C2256 C2255 1.349 . S
C2256 C2268 1.349 . S
C2257 C2255 1.327 . S
C2257 C2273 1.429 . S
C2257 H2279 0.950 . S
C2258 H2254 0.949 . S
C2258 C2266 1.574 . S
C2258 C2274 1.368 . S
H2259 C2267 0.950 . S
H2260 C2265 0.950 . S
H2261 C2266 0.949 . S
H2262 C2268 0.950 . S
H2263 C2269 0.950 . S
H2264 C2270 0.949 . S
C2265 H2260 0.950 . S
C2265 C2267 1.327 . S
C2265 C2271 1.429 . S
C2266 C2258 1.574 . S
C2266 H2261 0.949 . S
C2266 C2272 1.368 . S
C2267 C2251 1.349 . S
C2267 H2259 0.950 . S
C2267 C2265 1.327 . S
C2268 C2256 1.349 . S
C2268 H2262 0.950 . S
C2268 C2269 1.327 . S
C2269 H2263 0.950 . S
C2269 C2268 1.327 . S
C2269 C2273 1.429 . S
C2270 C2253 1.574 . S
C2270 H2264 0.949 . S
C2270 C2274 1.368 . S
C2271 C2252 1.429 . S
C2271 C2265 1.429 . S
C2271 C2272 1.523 . S
C2272 C2253 1.368 . S
C2272 C2266 1.368 . S
C2272 C2271 1.523 . S
C2273 C2257 1.429 . S
C2273 C2269 1.429 . S
C2273 C2274 1.523 . S
C2274 C2258 1.368 . S
C2274 C2270 1.368 . S
C2274 C2273 1.523 . S
H2275 C2250 0.950 . S
H2276 C2252 0.950 . S
H2277 C2253 0.949 . S
H2278 C2255 0.950 . S
H2279 C2257 0.950 . S
C2280 C2281 1.349 . S
C2280 C2282 1.327 . S
C2280 H2305 0.950 . S
C2281 C2280 1.349 . S
C2281 C2297 1.349 . S
C2282 C2280 1.327 . S
C2282 C2301 1.429 . S
C2282 H2306 0.950 . S
C2283 C2300 1.574 . S
C2283 C2302 1.368 . S
C2283 H2307 0.949 . S
H2284 C2288 0.949 . S
C2285 C2286 1.349 . S
C2285 C2287 1.327 . S
C2285 H2308 0.950 . S
C2286 C2285 1.349 . S
C2286 C2298 1.349 . S
C2287 C2285 1.327 . S
C2287 C2303 1.429 . S
C2287 H2309 0.950 . S
C2288 H2284 0.949 . S
C2288 C2296 1.574 . S
C2288 C2304 1.368 . S
H2289 C2297 0.950 . S
H2290 C2295 0.950 . S
H2291 C2296 0.949 . S
H2292 C2298 0.950 . S
H2293 C2299 0.950 . S
H2294 C2300 0.949 . S
C2295 H2290 0.950 . S
C2295 C2297 1.327 . S
C2295 C2301 1.429 . S
C2296 C2288 1.574 . S
C2296 H2291 0.949 . S
C2296 C2302 1.368 . S
C2297 C2281 1.349 . S
C2297 H2289 0.950 . S
C2297 C2295 1.327 . S
C2298 C2286 1.349 . S
C2298 H2292 0.950 . S
C2298 C2299 1.327 . S
C2299 H2293 0.950 . S
C2299 C2298 1.327 . S
C2299 C2303 1.429 . S
C2300 C2283 1.574 . S
C2300 H2294 0.949 . S
C2300 C2304 1.368 . S
C2301 C2282 1.429 . S
C2301 C2295 1.429 . S
C2301 C2302 1.523 . S
C2302 C2283 1.368 . S
C2302 C2296 1.368 . S
C2302 C2301 1.523 . S
C2303 C2287 1.429 . S
C2303 C2299 1.429 . S
C2303 C2304 1.523 . S
C2304 C2288 1.368 . S
C2304 C2300 1.368 . S
C2304 C2303 1.523 . S
H2305 C2280 0.950 . S
H2306 C2282 0.950 . S
H2307 C2283 0.949 . S
H2308 C2285 0.950 . S
H2309 C2287 0.950 . S
C2310 C2311 1.349 . S
C2310 C2312 1.327 . S
C2310 H2335 0.950 . S
C2311 C2310 1.349 . S
C2311 C2327 1.349 . S
C2312 C2310 1.327 . S
C2312 C2331 1.429 . S
C2312 H2336 0.950 . S
C2313 C2330 1.574 . S
C2313 C2332 1.368 . S
C2313 H2337 0.949 . S
H2314 C2318 0.949 . S
C2315 C2316 1.349 . S
C2315 C2317 1.327 . S
C2315 H2338 0.950 . S
C2316 C2315 1.349 . S
C2316 C2328 1.349 . S
C2317 C2315 1.327 . S
C2317 C2333 1.429 . S
C2317 H2339 0.950 . S
C2318 H2314 0.949 . S
C2318 C2326 1.574 . S
C2318 C2334 1.368 . S
H2319 C2327 0.950 . S
H2320 C2325 0.950 . S
H2321 C2326 0.949 . S
H2322 C2328 0.950 . S
H2323 C2329 0.950 . S
H2324 C2330 0.949 . S
C2325 H2320 0.950 . S
C2325 C2327 1.327 . S
C2325 C2331 1.429 . S
C2326 C2318 1.574 . S
C2326 H2321 0.949 . S
C2326 C2332 1.368 . S
C2327 C2311 1.349 . S
C2327 H2319 0.950 . S
C2327 C2325 1.327 . S
C2328 C2316 1.349 . S
C2328 H2322 0.950 . S
C2328 C2329 1.327 . S
C2329 H2323 0.950 . S
C2329 C2328 1.327 . S
C2329 C2333 1.429 . S
C2330 C2313 1.574 . S
C2330 H2324 0.949 . S
C2330 C2334 1.368 . S
C2331 C2312 1.429 . S
C2331 C2325 1.429 . S
C2331 C2332 1.523 . S
C2332 C2313 1.368 . S
C2332 C2326 1.368 . S
C2332 C2331 1.523 . S
C2333 C2317 1.429 . S
C2333 C2329 1.429 . S
C2333 C2334 1.523 . S
C2334 C2318 1.368 . S
C2334 C2330 1.368 . S
C2334 C2333 1.523 . S
H2335 C2310 0.950 . S
H2336 C2312 0.950 . S
H2337 C2313 0.949 . S
H2338 C2315 0.950 . S
H2339 C2317 0.950 . S
C2340 C2341 1.349 . S
C2340 C2342 1.327 . S
C2340 H2365 0.950 . S
C2341 C2340 1.349 . S
C2341 C2357 1.349 . S
C2342 C2340 1.327 . S
C2342 C2361 1.429 . S
C2342 H2366 0.950 . S
C2343 C2360 1.574 . S
C2343 C2362 1.368 . S
C2343 H2367 0.949 . S
H2344 C2348 0.949 . S
C2345 C2346 1.349 . S
C2345 C2347 1.327 . S
C2345 H2368 0.950 . S
C2346 C2345 1.349 . S
C2346 C2358 1.349 . S
C2347 C2345 1.327 . S
C2347 C2363 1.429 . S
C2347 H2369 0.950 . S
C2348 H2344 0.949 . S
C2348 C2356 1.574 . S
C2348 C2364 1.368 . S
H2349 C2357 0.950 . S
H2350 C2355 0.950 . S
H2351 C2356 0.949 . S
H2352 C2358 0.950 . S
H2353 C2359 0.950 . S
H2354 C2360 0.949 . S
C2355 H2350 0.950 . S
C2355 C2357 1.327 . S
C2355 C2361 1.429 . S
C2356 C2348 1.574 . S
C2356 H2351 0.949 . S
C2356 C2362 1.368 . S
C2357 C2341 1.349 . S
C2357 H2349 0.950 . S
C2357 C2355 1.327 . S
C2358 C2346 1.349 . S
C2358 H2352 0.950 . S
C2358 C2359 1.327 . S
C2359 H2353 0.950 . S
C2359 C2358 1.327 . S
C2359 C2363 1.429 . S
C2360 C2343 1.574 . S
C2360 H2354 0.949 . S
C2360 C2364 1.368 . S
C2361 C2342 1.429 . S
C2361 C2355 1.429 . S
C2361 C2362 1.523 . S
C2362 C2343 1.368 . S
C2362 C2356 1.368 . S
C2362 C2361 1.523 . S
C2363 C2347 1.429 . S
C2363 C2359 1.429 . S
C2363 C2364 1.523 . S
C2364 C2348 1.368 . S
C2364 C2360 1.368 . S
C2364 C2363 1.523 . S
H2365 C2340 0.950 . S
H2366 C2342 0.950 . S
H2367 C2343 0.949 . S
H2368 C2345 0.950 . S
H2369 C2347 0.950 . S
C2370 C2371 1.349 . S
C2370 C2372 1.327 . S
C2370 H2395 0.950 . S
C2371 C2370 1.349 . S
C2371 C2387 1.349 . S
C2372 C2370 1.327 . S
C2372 C2391 1.429 . S
C2372 H2396 0.950 . S
C2373 C2390 1.574 . S
C2373 C2392 1.368 . S
C2373 H2397 0.949 . S
H2374 C2378 0.949 . S
C2375 C2376 1.349 . S
C2375 C2377 1.327 . S
C2375 H2398 0.950 . S
C2376 C2375 1.349 . S
C2376 C2388 1.349 . S
C2377 C2375 1.327 . S
C2377 C2393 1.429 . S
C2377 H2399 0.950 . S
C2378 H2374 0.949 . S
C2378 C2386 1.574 . S
C2378 C2394 1.368 . S
H2379 C2387 0.950 . S
H2380 C2385 0.950 . S
H2381 C2386 0.949 . S
H2382 C2388 0.950 . S
H2383 C2389 0.950 . S
H2384 C2390 0.949 . S
C2385 H2380 0.950 . S
C2385 C2387 1.327 . S
C2385 C2391 1.429 . S
C2386 C2378 1.574 . S
C2386 H2381 0.949 . S
C2386 C2392 1.368 . S
C2387 C2371 1.349 . S
C2387 H2379 0.950 . S
C2387 C2385 1.327 . S
C2388 C2376 1.349 . S
C2388 H2382 0.950 . S
C2388 C2389 1.327 . S
C2389 H2383 0.950 . S
C2389 C2388 1.327 . S
C2389 C2393 1.429 . S
C2390 C2373 1.574 . S
C2390 H2384 0.949 . S
C2390 C2394 1.368 . S
C2391 C2372 1.429 . S
C2391 C2385 1.429 . S
C2391 C2392 1.523 . S
C2392 C2373 1.368 . S
C2392 C2386 1.368 . S
C2392 C2391 1.523 . S
C2393 C2377 1.429 . S
C2393 C2389 1.429 . S
C2393 C2394 1.523 . S
C2394 C2378 1.368 . S
C2394 C2390 1.368 . S
C2394 C2393 1.523 . S
H2395 C2370 0.950 . S
H2396 C2372 0.950 . S
H2397 C2373 0.949 . S
H2398 C2375 0.950 . S
H2399 C2377 0.950 . S
C2400 C2401 1.349 . S
C2400 C2402 1.327 . S
C2400 H2425 0.950 . S
C2401 C2400 1.349 . S
C2401 C2417 1.349 . S
C2402 C2400 1.327 . S
C2402 C2421 1.429 . S
C2402 H2426 0.950 . S
C2403 C2420 1.574 . S
C2403 C2422 1.368 . S
C2403 H2427 0.949 . S
H2404 C2408 0.949 . S
C2405 C2406 1.349 . S
C2405 C2407 1.327 . S
C2405 H2428 0.950 . S
C2406 C2405 1.349 . S
C2406 C2418 1.349 . S
C2407 C2405 1.327 . S
C2407 C2423 1.429 . S
C2407 H2429 0.950 . S
C2408 H2404 0.949 . S
C2408 C2416 1.574 . S
C2408 C2424 1.368 . S
H2409 C2417 0.950 . S
H2410 C2415 0.950 . S
H2411 C2416 0.949 . S
H2412 C2418 0.950 . S
H2413 C2419 0.950 . S
H2414 C2420 0.949 . S
C2415 H2410 0.950 . S
C2415 C2417 1.327 . S
C2415 C2421 1.429 . S
C2416 C2408 1.574 . S
C2416 H2411 0.949 . S
C2416 C2422 1.368 . S
C2417 C2401 1.349 . S
C2417 H2409 0.950 . S
C2417 C2415 1.327 . S
C2418 C2406 1.349 . S
C2418 H2412 0.950 . S
C2418 C2419 1.327 . S
C2419 H2413 0.950 . S
C2419 C2418 1.327 . S
C2419 C2423 1.429 . S
C2420 C2403 1.574 . S
C2420 H2414 0.949 . S
C2420 C2424 1.368 . S
C2421 C2402 1.429 . S
C2421 C2415 1.429 . S
C2421 C2422 1.523 . S
C2422 C2403 1.368 . S
C2422 C2416 1.368 . S
C2422 C2421 1.523 . S
C2423 C2407 1.429 . S
C2423 C2419 1.429 . S
C2423 C2424 1.523 . S
C2424 C2408 1.368 . S
C2424 C2420 1.368 . S
C2424 C2423 1.523 . S
H2425 C2400 0.950 . S
H2426 C2402 0.950 . S
H2427 C2403 0.949 . S
H2428 C2405 0.950 . S
H2429 C2407 0.950 . S
C2430 C2431 1.349 . S
C2430 C2432 1.327 . S
C2430 H2455 0.950 . S
C2431 C2430 1.349 . S
C2431 C2447 1.349 . S
C2432 C2430 1.327 . S
C2432 C2451 1.429 . S
C2432 H2456 0.950 . S
C2433 C2450 1.574 . S
C2433 C2452 1.368 . S
C2433 H2457 0.949 . S
H2434 C2438 0.949 . S
C2435 C2436 1.349 . S
C2435 C2437 1.327 . S
C2435 H2458 0.950 . S
C2436 C2435 1.349 . S
C2436 C2448 1.349 . S
C2437 C2435 1.327 . S
C2437 C2453 1.429 . S
C2437 H2459 0.950 . S
C2438 H2434 0.949 . S
C2438 C2446 1.574 . S
C2438 C2454 1.368 . S
H2439 C2447 0.950 . S
H2440 C2445 0.950 . S
H2441 C2446 0.949 . S
H2442 C2448 0.950 . S
H2443 C2449 0.950 . S
H2444 C2450 0.949 . S
C2445 H2440 0.950 . S
C2445 C2447 1.327 . S
C2445 C2451 1.429 . S
C2446 C2438 1.574 . S
C2446 H2441 0.949 . S
C2446 C2452 1.368 . S
C2447 C2431 1.349 . S
C2447 H2439 0.950 . S
C2447 C2445 1.327 . S
C2448 C2436 1.349 . S
C2448 H2442 0.950 . S
C2448 C2449 1.327 . S
C2449 H2443 0.950 . S
C2449 C2448 1.327 . S
C2449 C2453 1.429 . S
C2450 C2433 1.574 . S
C2450 H2444 0.949 . S
C2450 C2454 1.368 . S
C2451 C2432 1.429 . S
C2451 C2445 1.429 . S
C2451 C2452 1.523 . S
C2452 C2433 1.368 . S
C2452 C2446 1.368 . S
C2452 C2451 1.523 . S
C2453 C2437 1.429 . S
C2453 C2449 1.429 . S
C2453 C2454 1.523 . S
C2454 C2438 1.368 . S
C2454 C2450 1.368 . S
C2454 C2453 1.523 . S
H2455 C2430 0.950 . S
H2456 C2432 0.950 . S
H2457 C2433 0.949 . S
H2458 C2435 0.950 . S
H2459 C2437 0.950 . S
C2460 C2461 1.349 . S
C2460 C2462 1.327 . S
C2460 H2485 0.950 . S
C2461 C2460 1.349 . S
C2461 C2477 1.349 . S
C2462 C2460 1.327 . S
C2462 C2481 1.429 . S
C2462 H2486 0.950 . S
C2463 C2480 1.574 . S
C2463 C2482 1.368 . S
C2463 H2487 0.949 . S
H2464 C2468 0.949 . S
C2465 C2466 1.349 . S
C2465 C2467 1.327 . S
C2465 H2488 0.950 . S
C2466 C2465 1.349 . S
C2466 C2478 1.349 . S
C2467 C2465 1.327 . S
C2467 C2483 1.429 . S
C2467 H2489 0.950 . S
C2468 H2464 0.949 . S
C2468 C2476 1.574 . S
C2468 C2484 1.368 . S
H2469 C2477 0.950 . S
H2470 C2475 0.950 . S
H2471 C2476 0.949 . S
H2472 C2478 0.950 . S
H2473 C2479 0.950 . S
H2474 C2480 0.949 . S
C2475 H2470 0.950 . S
C2475 C2477 1.327 . S
C2475 C2481 1.429 . S
C2476 C2468 1.574 . S
C2476 H2471 0.949 . S
C2476 C2482 1.368 . S
C2477 C2461 1.349 . S
C2477 H2469 0.950 . S
C2477 C2475 1.327 . S
C2478 C2466 1.349 . S
C2478 H2472 0.950 . S
C2478 C2479 1.327 . S
C2479 H2473 0.950 . S
C2479 C2478 1.327 . S
C2479 C2483 1.429 . S
C2480 C2463 1.574 . S
C2480 H2474 0.949 . S
C2480 C2484 1.368 . S
C2481 C2462 1.429 . S
C2481 C2475 1.429 . S
C2481 C2482 1.523 . S
C2482 C2463 1.368 . S
C2482 C2476 1.368 . S
C2482 C2481 1.523 . S
C2483 C2467 1.429 . S
C2483 C2479 1.429 . S
C2483 C2484 1.523 . S
C2484 C2468 1.368 . S
C2484 C2480 1.368 . S
C2484 C2483 1.523 . S
H2485 C2460 0.950 . S
H2486 C2462 0.950 . S
H2487 C2463 0.949 . S
H2488 C2465 0.950 . S
H2489 C2467 0.950 . S
C2490 C2491 1.349 . S
C2490 C2492 1.327 . S
C2490 H2515 0.950 . S
C2491 C2490 1.349 . S
C2491 C2507 1.349 . S
C2492 C2490 1.327 . S
C2492 C2511 1.429 . S
C2492 H2516 0.950 . S
C2493 C2510 1.574 . S
C2493 C2512 1.368 . S
C2493 H2517 0.949 . S
H2494 C2498 0.949 . S
C2495 C2496 1.349 . S
C2495 C2497 1.327 . S
C2495 H2518 0.950 . S
C2496 C2495 1.349 . S
C2496 C2508 1.349 . S
C2497 C2495 1.327 . S
C2497 C2513 1.429 . S
C2497 H2519 0.950 . S
C2498 H2494 0.949 . S
C2498 C2506 1.574 . S
C2498 C2514 1.368 . S
H2499 C2507 0.950 . S
H2500 C2505 0.950 . S
H2501 C2506 0.949 . S
H2502 C2508 0.950 . S
H2503 C2509 0.950 . S
H2504 C2510 0.949 . S
C2505 H2500 0.950 . S
C2505 C2507 1.327 . S
C2505 C2511 1.429 . S
C2506 C2498 1.574 . S
C2506 H2501 0.949 . S
C2506 C2512 1.368 . S
C2507 C2491 1.349 . S
C2507 H2499 0.950 . S
C2507 C2505 1.327 . S
C2508 C2496 1.349 . S
C2508 H2502 0.950 . S
C2508 C2509 1.327 . S
C2509 H2503 0.950 . S
C2509 C2508 1.327 . S
C2509 C2513 1.429 . S
C2510 C2493 1.574 . S
C2510 H2504 0.949 . S
C2510 C2514 1.368 . S
C2511 C2492 1.429 . S
C2511 C2505 1.429 . S
C2511 C2512 1.523 . S
C2512 C2493 1.368 . S
C2512 C2506 1.368 . S
C2512 C2511 1.523 . S
C2513 C2497 1.429 . S
C2513 C2509 1.429 . S
C2513 C2514 1.523 . S
C2514 C2498 1.368 . S
C2514 C2510 1.368 . S
C2514 C2513 1.523 . S
H2515 C2490 0.950 . S
H2516 C2492 0.950 . S
H2517 C2493 0.949 . S
H2518 C2495 0.950 . S
H2519 C2497 0.950 . S
C2520 C2521 1.349 . S
C2520 C2522 1.327 . S
C2520 H2545 0.950 . S
C2521 C2520 1.349 . S
C2521 C2537 1.349 . S
C2522 C2520 1.327 . S
C2522 C2541 1.429 . S
C2522 H2546 0.950 . S
C2523 C2540 1.574 . S
C2523 C2542 1.368 . S
C2523 H2547 0.949 . S
H2524 C2528 0.949 . S
C2525 C2526 1.349 . S
C2525 C2527 1.327 . S
C2525 H2548 0.950 . S
C2526 C2525 1.349 . S
C2526 C2538 1.349 . S
C2527 C2525 1.327 . S
C2527 C2543 1.429 . S
C2527 H2549 0.950 . S
C2528 H2524 0.949 . S
C2528 C2536 1.574 . S
C2528 C2544 1.368 . S
H2529 C2537 0.950 . S
H2530 C2535 0.950 . S
H2531 C2536 0.949 . S
H2532 C2538 0.950 . S
H2533 C2539 0.950 . S
H2534 C2540 0.949 . S
C2535 H2530 0.950 . S
C2535 C2537 1.327 . S
C2535 C2541 1.429 . S
C2536 C2528 1.574 . S
C2536 H2531 0.949 . S
C2536 C2542 1.368 . S
C2537 C2521 1.349 . S
C2537 H2529 0.950 . S
C2537 C2535 1.327 . S
C2538 C2526 1.349 . S
C2538 H2532 0.950 . S
C2538 C2539 1.327 . S
C2539 H2533 0.950 . S
C2539 C2538 1.327 . S
C2539 C2543 1.429 . S
C2540 C2523 1.574 . S
C2540 H2534 0.949 . S
C2540 C2544 1.368 . S
C2541 C2522 1.429 . S
C2541 C2535 1.429 . S
C2541 C2542 1.523 . S
C2542 C2523 1.368 . S
C2542 C2536 1.368 . S
C2542 C2541 1.523 . S
C2543 C2527 1.429 . S
C2543 C2539 1.429 . S
C2543 C2544 1.523 . S
C2544 C2528 1.368 . S
C2544 C2540 1.368 . S
C2544 C2543 1.523 . S
H2545 C2520 0.950 . S
H2546 C2522 0.950 . S
H2547 C2523 0.949 . S
H2548 C2525 0.950 . S
H2549 C2527 0.950 . S
C2550 C2551 1.349 . S
C2550 C2552 1.327 . S
C2550 H2575 0.950 . S
C2551 C2550 1.349 . S
C2551 C2567 1.349 . S
C2552 C2550 1.327 . S
C2552 C2571 1.429 . S
C2552 H2576 0.950 . S
C2553 C2570 1.574 . S
C2553 C2572 1.368 . S
C2553 H2577 0.949 . S
H2554 C2558 0.949 . S
C2555 C2556 1.349 . S
C2555 C2557 1.327 . S
C2555 H2578 0.950 . S
C2556 C2555 1.349 . S
C2556 C2568 1.349 . S
C2557 C2555 1.327 . S
C2557 C2573 1.429 . S
C2557 H2579 0.950 . S
C2558 H2554 0.949 . S
C2558 C2566 1.574 . S
C2558 C2574 1.368 . S
H2559 C2567 0.950 . S
H2560 C2565 0.950 . S
H2561 C2566 0.949 . S
H2562 C2568 0.950 . S
H2563 C2569 0.950 . S
H2564 C2570 0.949 . S
C2565 H2560 0.950 . S
C2565 C2567 1.327 . S
C2565 C2571 1.429 . S
C2566 C2558 1.574 . S
C2566 H2561 0.949 . S
C2566 C2572 1.368 . S
C2567 C2551 1.349 . S
C2567 H2559 0.950 . S
C2567 C2565 1.327 . S
C2568 C2556 1.349 . S
C2568 H2562 0.950 . S
C2568 C2569 1.327 . S
C2569 H2563 0.950 . S
C2569 C2568 1.327 . S
C2569 C2573 1.429 . S
C2570 C2553 1.574 . S
C2570 H2564 0.949 . S
C2570 C2574 1.368 . S
C2571 C2552 1.429 . S
C2571 C2565 1.429 . S
C2571 C2572 1.523 . S
C2572 C2553 1.368 . S
C2572 C2566 1.368 . S
C2572 C2571 1.523 . S
C2573 C2557 1.429 . S
C2573 C2569 1.429 . S
C2573 C2574 1.523 . S
C2574 C2558 1.368 . S
C2574 C2570 1.368 . S
C2574 C2573 1.523 . S
H2575 C2550 0.950 . S
H2576 C2552 0.950 . S
H2577 C2553 0.949 . S
H2578 C2555 0.950 . S
H2579 C2557 0.950 . S
C2580 C2581 1.349 . S
C2580 C2582 1.327 . S
C2580 H2605 0.950 . S
C2581 C2580 1.349 . S
C2581 C2597 1.349 . S
C2582 C2580 1.327 . S
C2582 C2601 1.429 . S
C2582 H2606 0.950 . S
C2583 C2600 1.574 . S
C2583 C2602 1.368 . S
C2583 H2607 0.949 . S
H2584 C2588 0.949 . S
C2585 C2586 1.349 . S
C2585 C2587 1.327 . S
C2585 H2608 0.950 . S
C2586 C2585 1.349 . S
C2586 C2598 1.349 . S
C2587 C2585 1.327 . S
C2587 C2603 1.429 . S
C2587 H2609 0.950 . S
C2588 H2584 0.949 . S
C2588 C2596 1.574 . S
C2588 C2604 1.368 . S
H2589 C2597 0.950 . S
H2590 C2595 0.950 . S
H2591 C2596 0.949 . S
H2592 C2598 0.950 . S
H2593 C2599 0.950 . S
H2594 C2600 0.949 . S
C2595 H2590 0.950 . S
C2595 C2597 1.327 . S
C2595 C2601 1.429 . S
C2596 C2588 1.574 . S
C2596 H2591 0.949 . S
C2596 C2602 1.368 . S
C2597 C2581 1.349 . S
C2597 H2589 0.950 . S
C2597 C2595 1.327 . S
C2598 C2586 1.349 . S
C2598 H2592 0.950 . S
C2598 C2599 1.327 . S
C2599 H2593 0.950 . S
C2599 C2598 1.327 . S
C2599 C2603 1.429 . S
C2600 C2583 1.574 . S
C2600 H2594 0.949 . S
C2600 C2604 1.368 . S
C2601 C2582 1.429 . S
C2601 C2595 1.429 . S
C2601 C2602 1.523 . S
C2602 C2583 1.368 . S
C2602 C2596 1.368 . S
C2602 C2601 1.523 . S
C2603 C2587 1.429 . S
C2603 C2599 1.429 . S
C2603 C2604 1.523 . S
C2604 C2588 1.368 . S
C2604 C2600 1.368 . S
C2604 C2603 1.523 . S
H2605 C2580 0.950 . S
H2606 C2582 0.950 . S
H2607 C2583 0.949 . S
H2608 C2585 0.950 . S
H2609 C2587 0.950 . S
C2610 C2611 1.349 . S
C2610 C2612 1.327 . S
C2610 H2635 0.950 . S
C2611 C2610 1.349 . S
C2611 C2627 1.349 . S
C2612 C2610 1.327 . S
C2612 C2631 1.429 . S
C2612 H2636 0.950 . S
C2613 C2630 1.574 . S
C2613 C2632 1.368 . S
C2613 H2637 0.949 . S
H2614 C2618 0.949 . S
C2615 C2616 1.349 . S
C2615 C2617 1.327 . S
C2615 H2638 0.950 . S
C2616 C2615 1.349 . S
C2616 C2628 1.349 . S
C2617 C2615 1.327 . S
C2617 C2633 1.429 . S
C2617 H2639 0.950 . S
C2618 H2614 0.949 . S
C2618 C2626 1.574 . S
C2618 C2634 1.368 . S
H2619 C2627 0.950 . S
H2620 C2625 0.950 . S
H2621 C2626 0.949 . S
H2622 C2628 0.950 . S
H2623 C2629 0.950 . S
H2624 C2630 0.949 . S
C2625 H2620 0.950 . S
C2625 C2627 1.327 . S
C2625 C2631 1.429 . S
C2626 C2618 1.574 . S
C2626 H2621 0.949 . S
C2626 C2632 1.368 . S
C2627 C2611 1.349 . S
C2627 H2619 0.950 . S
C2627 C2625 1.327 . S
C2628 C2616 1.349 . S
C2628 H2622 0.950 . S
C2628 C2629 1.327 . S
C2629 H2623 0.950 . S
C2629 C2628 1.327 . S
C2629 C2633 1.429 . S
C2630 C2613 1.574 . S
C2630 H2624 0.949 . S
C2630 C2634 1.368 . S
C2631 C2612 1.429 . S
C2631 C2625 1.429 . S
C2631 C2632 1.523 . S
C2632 C2613 1.368 . S
C2632 C2626 1.368 . S
C2632 C2631 1.523 . S
C2633 C2617 1.429 . S
C2633 C2629 1.429 . S
C2633 C2634 1.523 . S
C2634 C2618 1.368 . S
C2634 C2630 1.368 . S
C2634 C2633 1.523 . S
H2635 C2610 0.950 . S
H2636 C2612 0.950 . S
H2637 C2613 0.949 . S
H2638 C2615 0.950 . S
H2639 C2617 0.950 . S
C2640 C2641 1.349 . S
C2640 C2642 1.327 . S
C2640 H2665 0.950 . S
C2641 C2640 1.349 . S
C2641 C2657 1.349 . S
C2642 C2640 1.327 . S
C2642 C2661 1.429 . S
C2642 H2666 0.950 . S
C2643 C2660 1.574 . S
C2643 C2662 1.368 . S
C2643 H2667 0.949 . S
H2644 C2648 0.949 . S
C2645 C2646 1.349 . S
C2645 C2647 1.327 . S
C2645 H2668 0.950 . S
C2646 C2645 1.349 . S
C2646 C2658 1.349 . S
C2647 C2645 1.327 . S
C2647 C2663 1.429 . S
C2647 H2669 0.950 . S
C2648 H2644 0.949 . S
C2648 C2656 1.574 . S
C2648 C2664 1.368 . S
H2649 C2657 0.950 . S
H2650 C2655 0.950 . S
H2651 C2656 0.949 . S
H2652 C2658 0.950 . S
H2653 C2659 0.950 . S
H2654 C2660 0.949 . S
C2655 H2650 0.950 . S
C2655 C2657 1.327 . S
C2655 C2661 1.429 . S
C2656 C2648 1.574 . S
C2656 H2651 0.949 . S
C2656 C2662 1.368 . S
C2657 C2641 1.349 . S
C2657 H2649 0.950 . S
C2657 C2655 1.327 . S
C2658 C2646 1.349 . S
C2658 H2652 0.950 . S
C2658 C2659 1.327 . S
C2659 H2653 0.950 . S
C2659 C2658 1.327 . S
C2659 C2663 1.429 . S
C2660 C2643 1.574 . S
C2660 H2654 0.949 . S
C2660 C2664 1.368 . S
C2661 C2642 1.429 . S
C2661 C2655 1.429 . S
C2661 C2662 1.523 . S
C2662 C2643 1.368 . S
C2662 C2656 1.368 . S
C2662 C2661 1.523 . S
C2663 C2647 1.429 . S
C2663 C2659 1.429 . S
C2663 C2664 1.523 . S
C2664 C2648 1.368 . S
C2664 C2660 1.368 . S
C2664 C2663 1.523 . S
H2665 C2640 0.950 . S
H2666 C2642 0.950 . S
H2667 C2643 0.949 . S
H2668 C2645 0.950 . S
H2669 C2647 0.950 . S
C2670 C2671 1.349 . S
C2670 C2672 1.327 . S
C2670 H2695 0.950 . S
C2671 C2670 1.349 . S
C2671 C2687 1.349 1_556 S
C2672 C2670 1.327 . S
C2672 C2691 1.429 1_556 S
C2672 H2696 0.950 . S
C2673 C2690 1.574 . S
C2673 C2692 1.368 . S
C2673 H2697 0.949 . S
H2674 C2678 0.949 . S
C2675 C2676 1.349 . S
C2675 C2677 1.327 . S
C2675 H2698 0.950 . S
C2676 C2675 1.349 . S
C2676 C2688 1.349 . S
C2677 C2675 1.327 . S
C2677 C2693 1.429 . S
C2677 H2699 0.950 . S
C2678 H2674 0.949 . S
C2678 C2686 1.574 . S
C2678 C2694 1.368 . S
H2679 C2687 0.950 . S
H2680 C2685 0.950 . S
H2681 C2686 0.949 1_556 S
H2682 C2688 0.950 . S
H2683 C2689 0.950 . S
H2684 C2690 0.949 . S
C2685 H2680 0.950 . S
C2685 C2687 1.327 . S
C2685 C2691 1.429 . S
C2686 C2678 1.574 . S
C2686 H2681 0.949 1_554 S
C2686 C2692 1.368 . S
C2687 C2671 1.349 1_554 S
C2687 H2679 0.950 . S
C2687 C2685 1.327 . S
C2688 C2676 1.349 . S
C2688 H2682 0.950 . S
C2688 C2689 1.327 . S
C2689 H2683 0.950 . S
C2689 C2688 1.327 . S
C2689 C2693 1.429 . S
C2690 C2673 1.574 . S
C2690 H2684 0.949 . S
C2690 C2694 1.368 . S
C2691 C2672 1.429 1_554 S
C2691 C2685 1.429 . S
C2691 C2692 1.523 . S
C2692 C2673 1.368 . S
C2692 C2686 1.368 . S
C2692 C2691 1.523 . S
C2693 C2677 1.429 . S
C2693 C2689 1.429 . S
C2693 C2694 1.523 . S
C2694 C2678 1.368 . S
C2694 C2690 1.368 . S
C2694 C2693 1.523 . S
H2695 C2670 0.950 . S
H2696 C2672 0.950 . S
H2697 C2673 0.949 . S
H2698 C2675 0.950 . S
H2699 C2677 0.950 . S
C2700 C2701 1.349 . S
C2700 C2702 1.327 . S
C2700 H2725 0.950 . S
C2701 C2700 1.349 . S
C2701 C2717 1.349 . S
C2702 C2700 1.327 . S
C2702 C2721 1.429 . S
C2702 H2726 0.950 . S
C2703 C2720 1.574 . S
C2703 C2722 1.368 . S
C2703 H2727 0.949 . S
H2704 C2708 0.949 . S
C2705 C2706 1.349 . S
C2705 C2707 1.327 . S
C2705 H2728 0.950 . S
C2706 C2705 1.349 . S
C2706 C2718 1.349 . S
C2707 C2705 1.327 . S
C2707 C2723 1.429 . S
C2707 H2729 0.950 . S
C2708 H2704 0.949 . S
C2708 C2716 1.574 . S
C2708 C2724 1.368 . S
H2709 C2717 0.950 . S
H2710 C2715 0.950 . S
H2711 C2716 0.949 . S
H2712 C2718 0.950 . S
H2713 C2719 0.950 . S
H2714 C2720 0.949 . S
C2715 H2710 0.950 . S
C2715 C2717 1.327 . S
C2715 C2721 1.429 . S
C2716 C2708 1.574 . S
C2716 H2711 0.949 . S
C2716 C2722 1.368 . S
C2717 C2701 1.349 . S
C2717 H2709 0.950 . S
C2717 C2715 1.327 . S
C2718 C2706 1.349 . S
C2718 H2712 0.950 . S
C2718 C2719 1.327 . S
C2719 H2713 0.950 . S
C2719 C2718 1.327 . S
C2719 C2723 1.429 . S
C2720 C2703 1.574 . S
C2720 H2714 0.949 . S
C2720 C2724 1.368 . S
C2721 C2702 1.429 . S
C2721 C2715 1.429 . S
C2721 C2722 1.523 . S
C2722 C2703 1.368 . S
C2722 C2716 1.368 . S
C2722 C2721 1.523 . S
C2723 C2707 1.429 . S
C2723 C2719 1.429 . S
C2723 C2724 1.523 . S
C2724 C2708 1.368 . S
C2724 C2720 1.368 . S
C2724 C2723 1.523 . S
H2725 C2700 0.950 . S
H2726 C2702 0.950 . S
H2727 C2703 0.949 . S
H2728 C2705 0.950 . S
H2729 C2707 0.950 . S
C2730 C2731 1.349 . S
C2730 C2732 1.327 . S
C2730 H2755 0.950 . S
C2731 C2730 1.349 . S
C2731 C2747 1.349 . S
C2732 C2730 1.327 . S
C2732 C2751 1.429 . S
C2732 H2756 0.950 . S
C2733 C2750 1.574 . S
C2733 C2752 1.368 . S
C2733 H2757 0.949 . S
H2734 C2738 0.949 . S
C2735 C2736 1.349 . S
C2735 C2737 1.327 . S
C2735 H2758 0.950 . S
C2736 C2735 1.349 . S
C2736 C2748 1.349 . S
C2737 C2735 1.327 . S
C2737 C2753 1.429 . S
C2737 H2759 0.950 . S
C2738 H2734 0.949 . S
C2738 C2746 1.574 . S
C2738 C2754 1.368 . S
H2739 C2747 0.950 . S
H2740 C2745 0.950 . S
H2741 C2746 0.949 . S
H2742 C2748 0.950 . S
H2743 C2749 0.950 . S
H2744 C2750 0.949 . S
C2745 H2740 0.950 . S
C2745 C2747 1.327 . S
C2745 C2751 1.429 . S
C2746 C2738 1.574 . S
C2746 H2741 0.949 . S
C2746 C2752 1.368 . S
C2747 C2731 1.349 . S
C2747 H2739 0.950 . S
C2747 C2745 1.327 . S
C2748 C2736 1.349 . S
C2748 H2742 0.950 . S
C2748 C2749 1.327 . S
C2749 H2743 0.950 . S
C2749 C2748 1.327 . S
C2749 C2753 1.429 . S
C2750 C2733 1.574 . S
C2750 H2744 0.949 . S
C2750 C2754 1.368 . S
C2751 C2732 1.429 . S
C2751 C2745 1.429 . S
C2751 C2752 1.523 . S
C2752 C2733 1.368 . S
C2752 C2746 1.368 . S
C2752 C2751 1.523 . S
C2753 C2737 1.429 . S
C2753 C2749 1.429 . S
C2753 C2754 1.523 . S
C2754 C2738 1.368 . S
C2754 C2750 1.368 . S
C2754 C2753 1.523 . S
H2755 C2730 0.950 . S
H2756 C2732 0.950 . S
H2757 C2733 0.949 . S
H2758 C2735 0.950 . S
H2759 C2737 0.950 . S
C2760 C2761 1.349 . S
C2760 C2762 1.327 . S
C2760 H2785 0.950 . S
C2761 C2760 1.349 . S
C2761 C2777 1.349 . S
C2762 C2760 1.327 . S
C2762 C2781 1.429 . S
C2762 H2786 0.950 . S
C2763 C2780 1.574 . S
C2763 C2782 1.368 . S
C2763 H2787 0.949 . S
H2764 C2768 0.949 . S
C2765 C2766 1.349 . S
C2765 C2767 1.327 . S
C2765 H2788 0.950 . S
C2766 C2765 1.349 . S
C2766 C2778 1.349 . S
C2767 C2765 1.327 . S
C2767 C2783 1.429 . S
C2767 H2789 0.950 . S
C2768 H2764 0.949 . S
C2768 C2776 1.574 . S
C2768 C2784 1.368 . S
H2769 C2777 0.950 . S
H2770 C2775 0.950 . S
H2771 C2776 0.949 . S
H2772 C2778 0.950 . S
H2773 C2779 0.950 . S
H2774 C2780 0.949 . S
C2775 H2770 0.950 . S
C2775 C2777 1.327 . S
C2775 C2781 1.429 . S
C2776 C2768 1.574 . S
C2776 H2771 0.949 . S
C2776 C2782 1.368 . S
C2777 C2761 1.349 . S
C2777 H2769 0.950 . S
C2777 C2775 1.327 . S
C2778 C2766 1.349 . S
C2778 H2772 0.950 . S
C2778 C2779 1.327 . S
C2779 H2773 0.950 . S
C2779 C2778 1.327 . S
C2779 C2783 1.429 . S
C2780 C2763 1.574 . S
C2780 H2774 0.949 . S
C2780 C2784 1.368 . S
C2781 C2762 1.429 . S
C2781 C2775 1.429 . S
C2781 C2782 1.523 . S
C2782 C2763 1.368 . S
C2782 C2776 1.368 . S
C2782 C2781 1.523 . S
C2783 C2767 1.429 . S
C2783 C2779 1.429 . S
C2783 C2784 1.523 . S
C2784 C2768 1.368 . S
C2784 C2780 1.368 . S
C2784 C2783 1.523 . S
H2785 C2760 0.950 . S
H2786 C2762 0.950 . S
H2787 C2763 0.949 . S
H2788 C2765 0.950 . S
H2789 C2767 0.950 . S
C2790 C2791 1.349 . S
C2790 C2792 1.327 . S
C2790 H2815 0.950 . S
C2791 C2790 1.349 . S
C2791 C2807 1.349 . S
C2792 C2790 1.327 . S
C2792 C2811 1.429 . S
C2792 H2816 0.950 . S
C2793 C2810 1.574 . S
C2793 C2812 1.368 . S
C2793 H2817 0.949 . S
H2794 C2798 0.949 . S
C2795 C2796 1.349 . S
C2795 C2797 1.327 . S
C2795 H2818 0.950 . S
C2796 C2795 1.349 . S
C2796 C2808 1.349 . S
C2797 C2795 1.327 . S
C2797 C2813 1.429 . S
C2797 H2819 0.950 . S
C2798 H2794 0.949 . S
C2798 C2806 1.574 . S
C2798 C2814 1.368 . S
H2799 C2807 0.950 . S
H2800 C2805 0.950 . S
H2801 C2806 0.949 . S
H2802 C2808 0.950 . S
H2803 C2809 0.950 . S
H2804 C2810 0.949 . S
C2805 H2800 0.950 . S
C2805 C2807 1.327 . S
C2805 C2811 1.429 . S
C2806 C2798 1.574 . S
C2806 H2801 0.949 . S
C2806 C2812 1.368 . S
C2807 C2791 1.349 . S
C2807 H2799 0.950 . S
C2807 C2805 1.327 . S
C2808 C2796 1.349 . S
C2808 H2802 0.950 . S
C2808 C2809 1.327 . S
C2809 H2803 0.950 . S
C2809 C2808 1.327 . S
C2809 C2813 1.429 . S
C2810 C2793 1.574 . S
C2810 H2804 0.949 . S
C2810 C2814 1.368 . S
C2811 C2792 1.429 . S
C2811 C2805 1.429 . S
C2811 C2812 1.523 . S
C2812 C2793 1.368 . S
C2812 C2806 1.368 . S
C2812 C2811 1.523 . S
C2813 C2797 1.429 . S
C2813 C2809 1.429 . S
C2813 C2814 1.523 . S
C2814 C2798 1.368 . S
C2814 C2810 1.368 . S
C2814 C2813 1.523 . S
H2815 C2790 0.950 . S
H2816 C2792 0.950 . S
H2817 C2793 0.949 . S
H2818 C2795 0.950 . S
H2819 C2797 0.950 . S
C2820 C2821 1.349 . S
C2820 C2822 1.327 . S
C2820 H2845 0.950 . S
C2821 C2820 1.349 . S
C2821 C2837 1.349 . S
C2822 C2820 1.327 . S
C2822 C2841 1.429 . S
C2822 H2846 0.950 . S
C2823 C2840 1.574 . S
C2823 C2842 1.368 . S
C2823 H2847 0.949 . S
H2824 C2828 0.949 . S
C2825 C2826 1.349 . S
C2825 C2827 1.327 . S
C2825 H2848 0.950 . S
C2826 C2825 1.349 . S
C2826 C2838 1.349 . S
C2827 C2825 1.327 . S
C2827 C2843 1.429 . S
C2827 H2849 0.950 . S
C2828 H2824 0.949 . S
C2828 C2836 1.574 . S
C2828 C2844 1.368 . S
H2829 C2837 0.950 . S
H2830 C2835 0.950 . S
H2831 C2836 0.949 . S
H2832 C2838 0.950 . S
H2833 C2839 0.950 . S
H2834 C2840 0.949 . S
C2835 H2830 0.950 . S
C2835 C2837 1.327 . S
C2835 C2841 1.429 . S
C2836 C2828 1.574 . S
C2836 H2831 0.949 . S
C2836 C2842 1.368 . S
C2837 C2821 1.349 . S
C2837 H2829 0.950 . S
C2837 C2835 1.327 . S
C2838 C2826 1.349 . S
C2838 H2832 0.950 . S
C2838 C2839 1.327 . S
C2839 H2833 0.950 . S
C2839 C2838 1.327 . S
C2839 C2843 1.429 . S
C2840 C2823 1.574 . S
C2840 H2834 0.949 . S
C2840 C2844 1.368 . S
C2841 C2822 1.429 . S
C2841 C2835 1.429 . S
C2841 C2842 1.523 . S
C2842 C2823 1.368 . S
C2842 C2836 1.368 . S
C2842 C2841 1.523 . S
C2843 C2827 1.429 . S
C2843 C2839 1.429 . S
C2843 C2844 1.523 . S
C2844 C2828 1.368 . S
C2844 C2840 1.368 . S
C2844 C2843 1.523 . S
H2845 C2820 0.950 . S
H2846 C2822 0.950 . S
H2847 C2823 0.949 . S
H2848 C2825 0.950 . S
H2849 C2827 0.950 . S
C2850 C2851 1.349 . S
C2850 C2852 1.327 . S
C2850 H2875 0.950 . S
C2851 C2850 1.349 . S
C2851 C2867 1.349 . S
C2852 C2850 1.327 . S
C2852 C2871 1.429 . S
C2852 H2876 0.950 . S
C2853 C2870 1.574 . S
C2853 C2872 1.368 . S
C2853 H2877 0.949 . S
H2854 C2858 0.949 . S
C2855 C2856 1.349 . S
C2855 C2857 1.327 . S
C2855 H2878 0.950 . S
C2856 C2855 1.349 . S
C2856 C2868 1.349 . S
C2857 C2855 1.327 . S
C2857 C2873 1.429 . S
C2857 H2879 0.950 . S
C2858 H2854 0.949 . S
C2858 C2866 1.574 . S
C2858 C2874 1.368 . S
H2859 C2867 0.950 . S
H2860 C2865 0.950 . S
H2861 C2866 0.949 . S
H2862 C2868 0.950 . S
H2863 C2869 0.950 . S
H2864 C2870 0.949 . S
C2865 H2860 0.950 . S
C2865 C2867 1.327 . S
C2865 C2871 1.429 . S
C2866 C2858 1.574 . S
C2866 H2861 0.949 . S
C2866 C2872 1.368 . S
C2867 C2851 1.349 . S
C2867 H2859 0.950 . S
C2867 C2865 1.327 . S
C2868 C2856 1.349 . S
C2868 H2862 0.950 . S
C2868 C2869 1.327 . S
C2869 H2863 0.950 . S
C2869 C2868 1.327 . S
C2869 C2873 1.429 . S
C2870 C2853 1.574 . S
C2870 H2864 0.949 . S
C2870 C2874 1.368 . S
C2871 C2852 1.429 . S
C2871 C2865 1.429 . S
C2871 C2872 1.523 . S
C2872 C2853 1.368 . S
C2872 C2866 1.368 . S
C2872 C2871 1.523 . S
C2873 C2857 1.429 . S
C2873 C2869 1.429 . S
C2873 C2874 1.523 . S
C2874 C2858 1.368 . S
C2874 C2870 1.368 . S
C2874 C2873 1.523 . S
H2875 C2850 0.950 . S
H2876 C2852 0.950 . S
H2877 C2853 0.949 . S
H2878 C2855 0.950 . S
H2879 C2857 0.950 . S
C2880 C2881 1.349 . S
C2880 C2882 1.327 . S
C2880 H2905 0.950 . S
C2881 C2880 1.349 . S
C2881 C2897 1.349 . S
C2882 C2880 1.327 . S
C2882 C2901 1.429 . S
C2882 H2906 0.950 . S
C2883 C2900 1.574 . S
C2883 C2902 1.368 . S
C2883 H2907 0.949 . S
H2884 C2888 0.949 . S
C2885 C2886 1.349 . S
C2885 C2887 1.327 . S
C2885 H2908 0.950 . S
C2886 C2885 1.349 . S
C2886 C2898 1.349 . S
C2887 C2885 1.327 . S
C2887 C2903 1.429 . S
C2887 H2909 0.950 . S
C2888 H2884 0.949 . S
C2888 C2896 1.574 . S
C2888 C2904 1.368 . S
H2889 C2897 0.950 . S
H2890 C2895 0.950 . S
H2891 C2896 0.949 . S
H2892 C2898 0.950 . S
H2893 C2899 0.950 . S
H2894 C2900 0.949 . S
C2895 H2890 0.950 . S
C2895 C2897 1.327 . S
C2895 C2901 1.429 . S
C2896 C2888 1.574 . S
C2896 H2891 0.949 . S
C2896 C2902 1.368 . S
C2897 C2881 1.349 . S
C2897 H2889 0.950 . S
C2897 C2895 1.327 . S
C2898 C2886 1.349 . S
C2898 H2892 0.950 . S
C2898 C2899 1.327 . S
C2899 H2893 0.950 . S
C2899 C2898 1.327 . S
C2899 C2903 1.429 . S
C2900 C2883 1.574 . S
C2900 H2894 0.949 . S
C2900 C2904 1.368 . S
C2901 C2882 1.429 . S
C2901 C2895 1.429 . S
C2901 C2902 1.523 . S
C2902 C2883 1.368 . S
C2902 C2896 1.368 . S
C2902 C2901 1.523 . S
C2903 C2887 1.429 . S
C2903 C2899 1.429 . S
C2903 C2904 1.523 . S
C2904 C2888 1.368 . S
C2904 C2900 1.368 . S
C2904 C2903 1.523 . S
H2905 C2880 0.950 . S
H2906 C2882 0.950 . S
H2907 C2883 0.949 . S
H2908 C2885 0.950 . S
H2909 C2887 0.950 . S
C2910 C2911 1.349 . S
C2910 C2912 1.327 . S
C2910 H2935 0.950 . S
C2911 C2910 1.349 . S
C2911 C2927 1.349 . S
C2912 C2910 1.327 . S
C2912 C2931 1.429 . S
C2912 H2936 0.950 . S
C2913 C2930 1.574 . S
C2913 C2932 1.368 . S
C2913 H2937 0.949 . S
H2914 C2918 0.949 . S
C2915 C2916 1.349 . S
C2915 C2917 1.327 . S
C2915 H2938 0.950 . S
C2916 C2915 1.349 . S
C2916 C2928 1.349 . S
C2917 C2915 1.327 . S
C2917 C2933 1.429 . S
C2917 H2939 0.950 . S
C2918 H2914 0.949 . S
C2918 C2926 1.574 . S
C2918 C2934 1.368 . S
H2919 C2927 0.950 . S
H2920 C2925 0.950 . S
H2921 C2926 0.949 . S
H2922 C2928 0.950 . S
H2923 C2929 0.950 . S
H2924 C2930 0.949 . S
C2925 H2920 0.950 . S
C2925 C2927 1.327 . S
C2925 C2931 1.429 . S
C2926 C2918 1.574 . S
C2926 H2921 0.949 . S
C2926 C2932 1.368 . S
C2927 C2911 1.349 . S
C2927 H2919 0.950 . S
C2927 C2925 1.327 . S
C2928 C2916 1.349 . S
C2928 H2922 0.950 . S
C2928 C2929 1.327 . S
C2929 H2923 0.950 . S
C2929 C2928 1.327 . S
C2929 C2933 1.429 . S
C2930 C2913 1.574 . S
C2930 H2924 0.949 . S
C2930 C2934 1.368 . S
C2931 C2912 1.429 . S
C2931 C2925 1.429 . S
C2931 C2932 1.523 . S
C2932 C2913 1.368 . S
C2932 C2926 1.368 . S
C2932 C2931 1.523 . S
C2933 C2917 1.429 . S
C2933 C2929 1.429 . S
C2933 C2934 1.523 . S
C2934 C2918 1.368 . S
C2934 C2930 1.368 . S
C2934 C2933 1.523 . S
H2935 C2910 0.950 . S
H2936 C2912 0.950 . S
H2937 C2913 0.949 . S
H2938 C2915 0.950 . S
H2939 C2917 0.950 . S
C2940 C2941 1.349 . S
C2940 C2942 1.327 . S
C2940 H2965 0.950 . S
C2941 C2940 1.349 . S
C2941 C2957 1.349 . S
C2942 C2940 1.327 . S
C2942 C2961 1.429 . S
C2942 H2966 0.950 . S
C2943 C2960 1.574 . S
C2943 C2962 1.368 . S
C2943 H2967 0.949 . S
H2944 C2948 0.949 . S
C2945 C2946 1.349 . S
C2945 C2947 1.327 . S
C2945 H2968 0.950 . S
C2946 C2945 1.349 . S
C2946 C2958 1.349 . S
C2947 C2945 1.327 . S
C2947 C2963 1.429 . S
C2947 H2969 0.950 . S
C2948 H2944 0.949 . S
C2948 C2956 1.574 . S
C2948 C2964 1.368 . S
H2949 C2957 0.950 . S
H2950 C2955 0.950 . S
H2951 C2956 0.949 . S
H2952 C2958 0.950 . S
H2953 C2959 0.950 . S
H2954 C2960 0.949 . S
C2955 H2950 0.950 . S
C2955 C2957 1.327 . S
C2955 C2961 1.429 . S
C2956 C2948 1.574 . S
C2956 H2951 0.949 . S
C2956 C2962 1.368 . S
C2957 C2941 1.349 . S
C2957 H2949 0.950 . S
C2957 C2955 1.327 . S
C2958 C2946 1.349 . S
C2958 H2952 0.950 . S
C2958 C2959 1.327 . S
C2959 H2953 0.950 . S
C2959 C2958 1.327 . S
C2959 C2963 1.429 . S
C2960 C2943 1.574 . S
C2960 H2954 0.949 . S
C2960 C2964 1.368 . S
C2961 C2942 1.429 . S
C2961 C2955 1.429 . S
C2961 C2962 1.523 . S
C2962 C2943 1.368 . S
C2962 C2956 1.368 . S
C2962 C2961 1.523 . S
C2963 C2947 1.429 . S
C2963 C2959 1.429 . S
C2963 C2964 1.523 . S
C2964 C2948 1.368 . S
C2964 C2960 1.368 . S
C2964 C2963 1.523 . S
H2965 C2940 0.950 . S
H2966 C2942 0.950 . S
H2967 C2943 0.949 . S
H2968 C2945 0.950 . S
H2969 C2947 0.950 . S
C2970 C2971 1.349 . S
C2970 C2972 1.327 . S
C2970 H2995 0.950 . S
C2971 C2970 1.349 . S
C2971 C2987 1.349 . S
C2972 C2970 1.327 . S
C2972 C2991 1.429 . S
C2972 H2996 0.950 . S
C2973 C2990 1.574 . S
C2973 C2992 1.368 . S
C2973 H2997 0.949 . S
H2974 C2978 0.949 . S
C2975 C2976 1.349 . S
C2975 C2977 1.327 . S
C2975 H2998 0.950 . S
C2976 C2975 1.349 . S
C2976 C2988 1.349 . S
C2977 C2975 1.327 . S
C2977 C2993 1.429 . S
C2977 H2999 0.950 . S
C2978 H2974 0.949 . S
C2978 C2986 1.574 . S
C2978 C2994 1.368 . S
H2979 C2987 0.950 . S
H2980 C2985 0.950 . S
H2981 C2986 0.949 . S
H2982 C2988 0.950 . S
H2983 C2989 0.950 . S
H2984 C2990 0.949 . S
C2985 H2980 0.950 . S
C2985 C2987 1.327 . S
C2985 C2991 1.429 . S
C2986 C2978 1.574 . S
C2986 H2981 0.949 . S
C2986 C2992 1.368 . S
C2987 C2971 1.349 . S
C2987 H2979 0.950 . S
C2987 C2985 1.327 . S
C2988 C2976 1.349 . S
C2988 H2982 0.950 . S
C2988 C2989 1.327 . S
C2989 H2983 0.950 . S
C2989 C2988 1.327 . S
C2989 C2993 1.429 . S
C2990 C2973 1.574 . S
C2990 H2984 0.949 . S
C2990 C2994 1.368 . S
C2991 C2972 1.429 . S
C2991 C2985 1.429 . S
C2991 C2992 1.523 . S
C2992 C2973 1.368 . S
C2992 C2986 1.368 . S
C2992 C2991 1.523 . S
C2993 C2977 1.429 . S
C2993 C2989 1.429 . S
C2993 C2994 1.523 . S
C2994 C2978 1.368 . S
C2994 C2990 1.368 . S
C2994 C2993 1.523 . S
H2995 C2970 0.950 . S
H2996 C2972 0.950 . S
H2997 C2973 0.949 . S
H2998 C2975 0.950 . S
H2999 C2977 0.950 . S
C3000 C3001 1.349 1_556 S
C3000 C3002 1.327 1_556 S
C3000 H3025 0.950 . S
C3001 C3000 1.349 1_554 S
C3001 C3017 1.349 . S
C3002 C3000 1.327 1_554 S
C3002 C3021 1.429 . S
C3002 H3026 0.950 1_554 S
C3003 C3020 1.574 . S
C3003 C3022 1.368 . S
C3003 H3027 0.949 . S
H3004 C3008 0.949 . S
C3005 C3006 1.349 . S
C3005 C3007 1.327 . S
C3005 H3028 0.950 . S
C3006 C3005 1.349 . S
C3006 C3018 1.349 . S
C3007 C3005 1.327 . S
C3007 C3023 1.429 . S
C3007 H3029 0.950 . S
C3008 H3004 0.949 . S
C3008 C3016 1.574 . S
C3008 C3024 1.368 . S
H3009 C3017 0.950 . S
H3010 C3015 0.950 . S
H3011 C3016 0.949 . S
H3012 C3018 0.950 . S
H3013 C3019 0.950 . S
H3014 C3020 0.949 . S
C3015 H3010 0.950 . S
C3015 C3017 1.327 . S
C3015 C3021 1.429 . S
C3016 C3008 1.574 . S
C3016 H3011 0.949 . S
C3016 C3022 1.368 . S
C3017 C3001 1.349 . S
C3017 H3009 0.950 . S
C3017 C3015 1.327 . S
C3018 C3006 1.349 . S
C3018 H3012 0.950 . S
C3018 C3019 1.327 . S
C3019 H3013 0.950 . S
C3019 C3018 1.327 . S
C3019 C3023 1.429 . S
C3020 C3003 1.574 . S
C3020 H3014 0.949 . S
C3020 C3024 1.368 . S
C3021 C3002 1.429 . S
C3021 C3015 1.429 . S
C3021 C3022 1.523 . S
C3022 C3003 1.368 . S
C3022 C3016 1.368 . S
C3022 C3021 1.523 . S
C3023 C3007 1.429 . S
C3023 C3019 1.429 . S
C3023 C3024 1.523 . S
C3024 C3008 1.368 . S
C3024 C3020 1.368 . S
C3024 C3023 1.523 . S
H3025 C3000 0.950 . S
H3026 C3002 0.950 1_556 S
H3027 C3003 0.949 . S
H3028 C3005 0.950 . S
H3029 C3007 0.950 . S
C3030 C3031 1.349 . S
C3030 C3032 1.327 . S
C3030 H3055 0.950 . S
C3031 C3030 1.349 . S
C3031 C3047 1.349 . S
C3032 C3030 1.327 . S
C3032 C3051 1.429 . S
C3032 H3056 0.950 . S
C3033 C3050 1.574 . S
C3033 C3052 1.368 . S
C3033 H3057 0.949 . S
H3034 C3038 0.949 . S
C3035 C3036 1.349 1_556 S
C3035 C3037 1.327 . S
C3035 H3058 0.950 . S
C3036 C3035 1.349 1_554 S
C3036 C3048 1.349 . S
C3037 C3035 1.327 . S
C3037 C3053 1.429 . S
C3037 H3059 0.950 . S
C3038 H3034 0.949 . S
C3038 C3046 1.574 . S
C3038 C3054 1.368 . S
H3039 C3047 0.950 . S
H3040 C3045 0.950 . S
H3041 C3046 0.949 . S
H3042 C3048 0.950 . S
H3043 C3049 0.950 . S
H3044 C3050 0.949 . S
C3045 H3040 0.950 . S
C3045 C3047 1.327 . S
C3045 C3051 1.429 . S
C3046 C3038 1.574 . S
C3046 H3041 0.949 . S
C3046 C3052 1.368 . S
C3047 C3031 1.349 . S
C3047 H3039 0.950 . S
C3047 C3045 1.327 . S
C3048 C3036 1.349 . S
C3048 H3042 0.950 . S
C3048 C3049 1.327 . S
C3049 H3043 0.950 . S
C3049 C3048 1.327 . S
C3049 C3053 1.429 1_554 S
C3050 C3033 1.574 . S
C3050 H3044 0.949 . S
C3050 C3054 1.368 . S
C3051 C3032 1.429 . S
C3051 C3045 1.429 . S
C3051 C3052 1.523 . S
C3052 C3033 1.368 . S
C3052 C3046 1.368 . S
C3052 C3051 1.523 . S
C3053 C3037 1.429 . S
C3053 C3049 1.429 1_556 S
C3053 C3054 1.523 . S
C3054 C3038 1.368 . S
C3054 C3050 1.368 . S
C3054 C3053 1.523 . S
H3055 C3030 0.950 . S
H3056 C3032 0.950 . S
H3057 C3033 0.949 . S
H3058 C3035 0.950 . S
H3059 C3037 0.950 . S
C3060 C3061 1.349 . S
C3060 C3062 1.327 . S
C3060 H3085 0.950 . S
C3061 C3060 1.349 . S
C3061 C3077 1.349 . S
C3062 C3060 1.327 . S
C3062 C3081 1.429 . S
C3062 H3086 0.950 . S
C3063 C3080 1.574 . S
C3063 C3082 1.368 . S
C3063 H3087 0.949 . S
H3064 C3068 0.949 . S
C3065 C3066 1.349 . S
C3065 C3067 1.327 . S
C3065 H3088 0.950 . S
C3066 C3065 1.349 . S
C3066 C3078 1.349 . S
C3067 C3065 1.327 . S
C3067 C3083 1.429 . S
C3067 H3089 0.950 . S
C3068 H3064 0.949 . S
C3068 C3076 1.574 . S
C3068 C3084 1.368 . S
H3069 C3077 0.950 . S
H3070 C3075 0.950 . S
H3071 C3076 0.949 . S
H3072 C3078 0.950 . S
H3073 C3079 0.950 . S
H3074 C3080 0.949 . S
C3075 H3070 0.950 . S
C3075 C3077 1.327 . S
C3075 C3081 1.429 . S
C3076 C3068 1.574 . S
C3076 H3071 0.949 . S
C3076 C3082 1.368 . S
C3077 C3061 1.349 . S
C3077 H3069 0.950 . S
C3077 C3075 1.327 . S
C3078 C3066 1.349 . S
C3078 H3072 0.950 . S
C3078 C3079 1.327 . S
C3079 H3073 0.950 . S
C3079 C3078 1.327 . S
C3079 C3083 1.429 . S
C3080 C3063 1.574 . S
C3080 H3074 0.949 . S
C3080 C3084 1.368 . S
C3081 C3062 1.429 . S
C3081 C3075 1.429 . S
C3081 C3082 1.523 . S
C3082 C3063 1.368 . S
C3082 C3076 1.368 . S
C3082 C3081 1.523 . S
C3083 C3067 1.429 . S
C3083 C3079 1.429 . S
C3083 C3084 1.523 . S
C3084 C3068 1.368 . S
C3084 C3080 1.368 . S
C3084 C3083 1.523 . S
H3085 C3060 0.950 . S
H3086 C3062 0.950 . S
H3087 C3063 0.949 . S
H3088 C3065 0.950 . S
H3089 C3067 0.950 . S
C3090 C3091 1.349 . S
C3090 C3092 1.327 . S
C3090 H3115 0.950 . S
C3091 C3090 1.349 . S
C3091 C3107 1.349 . S
C3092 C3090 1.327 . S
C3092 C3111 1.429 . S
C3092 H3116 0.950 . S
C3093 C3110 1.574 . S
C3093 C3112 1.368 . S
C3093 H3117 0.949 . S
H3094 C3098 0.949 . S
C3095 C3096 1.349 . S
C3095 C3097 1.327 . S
C3095 H3118 0.950 . S
C3096 C3095 1.349 . S
C3096 C3108 1.349 . S
C3097 C3095 1.327 . S
C3097 C3113 1.429 . S
C3097 H3119 0.950 . S
C3098 H3094 0.949 . S
C3098 C3106 1.574 . S
C3098 C3114 1.368 . S
H3099 C3107 0.950 . S
H3100 C3105 0.950 . S
H3101 C3106 0.949 . S
H3102 C3108 0.950 . S
H3103 C3109 0.950 . S
H3104 C3110 0.949 . S
C3105 H3100 0.950 . S
C3105 C3107 1.327 . S
C3105 C3111 1.429 . S
C3106 C3098 1.574 . S
C3106 H3101 0.949 . S
C3106 C3112 1.368 . S
C3107 C3091 1.349 . S
C3107 H3099 0.950 . S
C3107 C3105 1.327 . S
C3108 C3096 1.349 . S
C3108 H3102 0.950 . S
C3108 C3109 1.327 . S
C3109 H3103 0.950 . S
C3109 C3108 1.327 . S
C3109 C3113 1.429 . S
C3110 C3093 1.574 . S
C3110 H3104 0.949 . S
C3110 C3114 1.368 . S
C3111 C3092 1.429 . S
C3111 C3105 1.429 . S
C3111 C3112 1.523 . S
C3112 C3093 1.368 . S
C3112 C3106 1.368 . S
C3112 C3111 1.523 . S
C3113 C3097 1.429 . S
C3113 C3109 1.429 . S
C3113 C3114 1.523 . S
C3114 C3098 1.368 . S
C3114 C3110 1.368 . S
C3114 C3113 1.523 . S
H3115 C3090 0.950 . S
H3116 C3092 0.950 . S
H3117 C3093 0.949 . S
H3118 C3095 0.950 . S
H3119 C3097 0.950 . S
C961 C23 0.487 . S
C966 C745 0.178 . S
C991 C780 2.591 . S
C996 C63 2.406 . S
C1021 C103 1.809 . S
C1026 C660 1.932 . S
C1051 C143 1.823 . S
C1056 C700 1.987 . S
C1081 C900 2.878 . S
C1086 C183 2.728 . S
C1111 C223 0.649 . S
C1116 C865 0.614 . S
C1141 C945 0.722 . S
C1146 C242 0.721 . S
C1171 C303 1.894 . S
C1176 C820 2.087 1_554 S
C1201 C343 1.609 . S
C1206 C540 1.759 . S
C1231 C362 2.113 . S
C1236 C620 2.121 . S
C1261 C580 1.256 . S
C1266 C423 1.160 . S
C1291 C442 2.164 . S
C1296 C500 2.154 . S
C1321 C482 0.487 . S
C1326 C244 0.178 . S
C1351 C522 2.406 . S
C1356 C311 2.591 . S
C1381 C562 1.809 . S
C1386 C191 1.932 . S
C1411 C231 1.982 . S
C1416 C602 1.826 . S
C1441 C642 2.728 . S
C1446 C431 2.878 . S
C1471 C364 0.618 . S
C1476 C682 0.644 . S
C1501 C444 0.722 . S
C1506 C743 0.721 . S
C1531 C351 2.087 1_556 S
C1536 C762 1.894 . S
C1561 C71 1.759 . S
C1566 C802 1.609 . S
C1591 C151 2.121 . S
C1596 C863 2.113 . S
C1621 C111 1.256 . S
C1626 C882 1.160 . S
C1651 C943 2.164 . S
C1656 C31 2.154 . S
C1681 C180 1.075 . S
C1686 C4 1.075 . S
C1711 C220 1.532 . S
C1716 C44 1.529 . S
C1741 C265 0.400 . S
C1746 C84 0.350 . S
C1771 C300 1.830 . S
C1776 C124 1.835 . S
C1801 C164 1.494 . S
C1806 C340 1.486 . S
C1831 C204 0.569 . S
C1836 C465 0.576 . S
C1861 C271 1.038 . S
C1866 C385 1.038 . S
C1891 C284 1.971 . S
C1896 C420 1.968 . S
C1921 C324 1.539 . S
C1926 C20 1.544 . S
C1951 C391 2.898 . S
C1956 C100 2.919 . S
C1981 C404 1.535 . S
C1986 C140 1.534 . S
C2011 C60 2.464 . S
C2016 C471 2.446 . S
C2041 C671 1.075 . S
C2046 C505 1.075 . S
C2071 C711 1.532 . S
C2076 C545 1.529 . S
C2101 C585 0.350 . S
C2106 C724 0.400 . S
C2131 C625 1.835 . S
C2136 C791 1.830 . S
C2161 C831 1.486 . S
C2166 C665 1.494 . S
C2191 C705 0.569 . S
C2196 C924 0.576 . S
C2221 C844 1.038 . S
C2226 C740 1.038 . S
C2251 C785 1.971 . S
C2256 C911 1.968 . S
C2281 C511 1.549 . S
C2286 C825 1.534 . S
C2311 C860 2.898 . S
C2316 C591 2.919 . S
C2341 C905 1.535 . S
C2346 C631 1.534 . S
C2371 C551 2.464 . S
C2376 C940 2.446 . S
C2401 C2 3.092 . S
C2406 C380 3.144 1_554 S
C2431 C425 1.643 . S
C2436 C42 1.639 . S
C2461 C345 1.725 . S
C2466 C82 1.716 . S
C2491 C460 2.801 . S
C2496 C122 2.760 . S
C2521 C162 1.371 . S
C2526 C145 1.385 . S
C2551 C105 1.507 . S
C2556 C202 1.499 . S
C2581 C263 0.964 . S
C2586 C65 1.045 . S
C2611 C25 1.041 . S
C2616 C282 1.039 . S
C2641 C322 1.194 1_556 S
C2646 C225 1.219 . S
C2671 C383 1.591 . S
C2676 C305 1.734 . S
C2701 C402 2.429 . S
C2706 C260 2.471 . S
C2731 C463 1.492 . S
C2736 C185 1.641 . S
C2761 C503 3.092 . S
C2766 C871 3.144 1_556 S
C2791 C543 1.639 . S
C2796 C884 1.643 . S
C2821 C804 1.725 . S
C2826 C583 1.716 . S
C2851 C951 2.801 . S
C2856 C623 2.760 . S
C2881 C663 1.371 . S
C2886 C604 1.385 . S
C2911 C703 1.495 . S
C2916 C564 1.511 . S
C2941 C524 1.045 . S
C2946 C722 0.964 . S
C2971 C783 1.035 . S
C2976 C484 1.045 . S
C3001 C823 1.194 1_554 S
C3006 C684 1.219 . S
C3031 C764 1.734 . S
C3036 C842 1.591 . S
C3061 C903 2.429 . S
C3066 C751 2.471 . S
C3091 C922 1.492 . S
C3096 C644 1.641 . S
