# Generated by pormake.
# Topology wjg, (4)-cn, num edge types: 1
# Building blocks:
#     Node 0, Type 0, BuildingBlock: TATPOV_clean_sbu_0, # of connection points: 4
#     Node 1, Type 0, BuildingBlock: TATPOV_clean_sbu_0, # of connection points: 4
#     Node 2, Type 0, BuildingBlock: TATPOV_clean_sbu_0, # of connection points: 4
#     Node 3, Type 0, BuildingBlock: TATPOV_clean_sbu_0, # of connection points: 4
#     Node 4, Type 0, BuildingBlock: TATPOV_clean_sbu_0, # of connection points: 4
#     Node 5, Type 0, BuildingBlock: TATPOV_clean_sbu_0, # of connection points: 4
#     Node 6, Type 0, BuildingBlock: TATPOV_clean_sbu_0, # of connection points: 4
#     Node 7, Type 0, BuildingBlock: TATPOV_clean_sbu_0, # of connection points: 4
#     Node 8, Type 0, BuildingBlock: TATPOV_clean_sbu_0, # of connection points: 4
#     Node 9, Type 0, BuildingBlock: TATPOV_clean_sbu_0, # of connection points: 4
#     Node 10, Type 0, BuildingBlock: TATPOV_clean_sbu_0, # of connection points: 4
#     Node 11, Type 0, BuildingBlock: TATPOV_clean_sbu_0, # of connection points: 4
#     Edge 12, Type (0, 0), BuildingBlock: OJICUG_clean_linker_0, # of connection points: 2
#     Edge 13, Type (0, 0), BuildingBlock: OJICUG_clean_linker_0, # of connection points: 2
#     Edge 14, Type (0, 0), BuildingBlock: OJICUG_clean_linker_0, # of connection points: 2
#     Edge 15, Type (0, 0), BuildingBlock: OJICUG_clean_linker_0, # of connection points: 2
#     Edge 16, Type (0, 0), BuildingBlock: OJICUG_clean_linker_0, # of connection points: 2
#     Edge 17, Type (0, 0), BuildingBlock: OJICUG_clean_linker_0, # of connection points: 2
#     Edge 18, Type (0, 0), BuildingBlock: OJICUG_clean_linker_0, # of connection points: 2
#     Edge 19, Type (0, 0), BuildingBlock: OJICUG_clean_linker_0, # of connection points: 2
#     Edge 20, Type (0, 0), BuildingBlock: OJICUG_clean_linker_0, # of connection points: 2
#     Edge 21, Type (0, 0), BuildingBlock: OJICUG_clean_linker_0, # of connection points: 2
#     Edge 22, Type (0, 0), BuildingBlock: OJICUG_clean_linker_0, # of connection points: 2
#     Edge 23, Type (0, 0), BuildingBlock: OJICUG_clean_linker_0, # of connection points: 2
#     Edge 24, Type (0, 0), BuildingBlock: OJICUG_clean_linker_0, # of connection points: 2
#     Edge 25, Type (0, 0), BuildingBlock: OJICUG_clean_linker_0, # of connection points: 2
#     Edge 26, Type (0, 0), BuildingBlock: OJICUG_clean_linker_0, # of connection points: 2
#     Edge 27, Type (0, 0), BuildingBlock: OJICUG_clean_linker_0, # of connection points: 2
#     Edge 28, Type (0, 0), BuildingBlock: OJICUG_clean_linker_0, # of connection points: 2
#     Edge 29, Type (0, 0), BuildingBlock: OJICUG_clean_linker_0, # of connection points: 2
#     Edge 30, Type (0, 0), BuildingBlock: OJICUG_clean_linker_0, # of connection points: 2
#     Edge 31, Type (0, 0), BuildingBlock: OJICUG_clean_linker_0, # of connection points: 2
#     Edge 32, Type (0, 0), BuildingBlock: OJICUG_clean_linker_0, # of connection points: 2
#     Edge 33, Type (0, 0), BuildingBlock: OJICUG_clean_linker_0, # of connection points: 2
#     Edge 34, Type (0, 0), BuildingBlock: OJICUG_clean_linker_0, # of connection points: 2
#     Edge 35, Type (0, 0), BuildingBlock: OJICUG_clean_linker_0, # of connection points: 2
# Relax obj value: 0.279
# Max RMSD: 0.118
# Mean RMSD: 0.115
data_MOF--net-wjg--node1-TATPOV_clean_sbu_0--edge1-OJICUG_clean_linker_0
_symmetry_space_group_name_H-M    P1
_symmetry_Int_Tables_number       1
_symmetry_cell_setting            triclinic
loop_
_symmetry_equiv_pos_as_xyz
'x, y, z'
_cell_length_a     26.478576
_cell_length_b     26.487006
_cell_length_c     27.135399
_cell_angle_alpha  89.917206
_cell_angle_beta   90.541401
_cell_angle_gamma 120.50026
loop_
_atom_site_label
_atom_site_type_symbol
_atom_site_fract_x
_atom_site_fract_y
_atom_site_fract_z
_atom_type_partial_charge
Zn0 Zn 0.24318 0.4415 0.34648 0.0
Zn1 Zn 0.17036 0.40326 0.29173 0.0
O2 O 0.21826 0.49655 0.2887 0.0
O3 O 0.23824 0.51104 0.3673 0.0
O4 O 0.10973 0.3729 0.23438 0.0
O5 O 0.30461 0.44951 0.30002 0.0
O6 O 0.22431 0.36785 0.28191 0.0
C7 C 0.23914 0.53207 0.32537 0.0
C8 C 0.15341 0.35117 0.39088 0.0
O9 O 0.12845 0.36765 0.35924 0.0
O10 O 0.20741 0.36991 0.38673 0.0
C11 C 0.06048 0.37058 0.23645 0.0
O12 O 0.047 0.38772 0.27715 0.0
C13 C 0.28007 0.39652 0.28648 0.0
Zn14 Zn 0.70175 0.24271 0.73336 0.0
Zn15 Zn 0.70634 0.14305 0.63694 0.0
O16 O 0.67317 0.19447 0.61231 0.0
O17 O 0.63733 0.18819 0.68461 0.0
O18 O 0.70015 0.0893 0.57849 0.0
O19 O 0.78579 0.26148 0.71809 0.0
O20 O 0.79122 0.20075 0.66298 0.0
C21 C 0.64716 0.2105 0.64199 0.0
C22 C 0.66922 0.1214 0.73321 0.0
O23 O 0.66765 0.09045 0.697 0.0
O24 O 0.64742 0.15377 0.72464 0.0
C25 C 0.65031 0.06283 0.55659 0.0
O26 O 0.60906 0.07223 0.57252 0.0
C27 C 0.81514 0.24368 0.69403 0.0
Zn28 Zn 0.47902 0.76815 0.03522 0.0
Zn29 Zn 0.55925 0.73025 0.9466 0.0
O30 O 0.47948 0.71622 0.91852 0.0
O31 O 0.44763 0.69244 -0.00753 0.0
O32 O 0.60058 0.70925 0.89364 0.0
O33 O 0.55994 0.8416 0.01868 0.0
O34 O 0.60663 0.81707 0.96327 0.0
C35 C 0.43756 0.70058 0.94835 0.0
C36 C 0.53475 0.70139 0.0458 0.0
O37 O 0.56617 0.69648 0.01346 0.0
O38 O 0.48646 0.69488 0.03027 0.0
C39 C 0.57094 0.66076 0.8707 0.0
O40 O 0.51546 0.62678 0.88197 0.0
C41 C 0.60425 0.85448 -0.00833 0.0
Zn42 Zn 0.73908 0.47042 0.3333 0.0
Zn43 Zn 0.82662 0.57161 0.26665 0.0
O44 O 0.78593 0.48512 0.24488 0.0
O45 O 0.80962 0.46329 0.31382 0.0
O46 O 0.89344 0.61867 0.21817 0.0
O47 O 0.71412 0.53321 0.3189 0.0
O48 O 0.76806 0.59903 0.26284 0.0
C49 C 0.78628 0.44619 0.27198 0.0
C50 C 0.81784 0.58797 0.37314 0.0
O51 O 0.85461 0.59553 0.33943 0.0
O52 O 0.7659 0.54419 0.37234 0.0
C53 C 0.93477 0.60762 0.21391 0.0
O54 O 0.93471 0.56747 0.24245 0.0
C55 C 0.7252 0.57763 0.29264 0.0
Zn56 Zn 0.14671 0.78452 0.69865 0.0
Zn57 Zn 0.23181 0.83965 0.60289 0.0
O58 O 0.25645 0.78068 0.6164 0.0
O59 O 0.19694 0.74487 0.68092 0.0
O60 O 0.27237 0.89331 0.54277 0.0
O61 O 0.11914 0.82227 0.64582 0.0
O62 O 0.1428 0.78398 0.58707 0.0
C63 C 0.23506 0.74473 0.65231 0.0
C64 C 0.21925 0.89455 0.69142 0.0
O65 O 0.25699 0.88854 0.66787 0.0
O66 O 0.16804 0.86781 0.67368 0.0
C67 C 0.32368 0.93835 0.54564 0.0
O68 O 0.3526 0.94928 0.58762 0.0
C69 C 0.10266 0.78628 0.6104 0.0
Zn70 Zn 0.55309 0.25835 0.02803 0.0
Zn71 Zn 0.44928 0.26738 0.9373 0.0
O72 O 0.52551 0.27889 0.90395 0.0
O73 O 0.56405 0.31742 0.97392 0.0
O74 O 0.39136 0.26802 0.88573 0.0
O75 O 0.47575 0.17742 0.02434 0.0
O76 O 0.41449 0.18782 0.97236 0.0
C77 C 0.56951 0.29849 0.93281 0.0
C78 C 0.48407 0.31599 0.02944 0.0
O79 O 0.45242 0.31892 -0.00439 0.0
O80 O 0.53305 0.3235 0.01501 0.0
C81 C 0.39969 0.31658 0.86855 0.0
O82 O 0.44678 0.36525 0.8828 0.0
C83 C 0.42572 0.15789 0.00331 0.0
Zn84 Zn 0.55641 0.72262 0.2837 0.0
Zn85 Zn 0.58683 0.80274 0.33241 0.0
O86 O 0.49487 0.75181 0.33994 0.0
O87 O 0.48226 0.72038 0.26389 0.0
O88 O 0.61847 0.87255 0.38204 0.0
O89 O 0.55457 0.67106 0.3385 0.0
O90 O 0.63233 0.75766 0.3463 0.0
C91 C 0.46061 0.72693 0.30294 0.0
C92 C 0.62499 0.81036 0.22996 0.0
O93 O 0.60171 0.8307 0.25896 0.0
O94 O 0.63242 0.77009 0.24635 0.0
C95 C 0.58612 0.89242 0.39654 0.0
O96 O 0.53318 0.86974 0.37745 0.0
C97 C 0.60848 0.70195 0.34879 0.0
Zn98 Zn 0.79217 0.48485 0.56223 0.0
Zn99 Zn 0.74297 0.56723 0.65247 0.0
O100 O 0.68907 0.47584 0.66087 0.0
O101 O 0.715 0.47623 0.58628 0.0
O102 O 0.72311 0.60533 0.70933 0.0
O103 O 0.86332 0.53962 0.60535 0.0
O104 O 0.83249 0.59098 0.64987 0.0
C105 C 0.68886 0.44646 0.62395 0.0
C106 C 0.76141 0.58508 0.55827 0.0
O107 O 0.73875 0.60625 0.58627 0.0
O108 O 0.75727 0.53765 0.57273 0.0
C109 C 0.66836 0.58386 0.71613 0.0
O110 O 0.6314 0.54151 0.6867 0.0
C111 C 0.87338 0.58227 0.63403 0.0
Zn112 Zn 0.28499 0.91549 0.93038 0.0
Zn113 Zn 0.18866 0.80524 -0.00868 0.0
O114 O 0.24118 0.77264 -0.01691 0.0
O115 O 0.30301 0.84618 0.93537 0.0
O116 O 0.11656 0.75198 0.03305 0.0
O117 O 0.22345 0.92569 0.97096 0.0
O118 O 0.23709 0.88188 0.03162 0.0
C119 C 0.28606 0.79647 0.95543 0.0
C120 C 0.17426 0.85486 0.89717 0.0
O121 O 0.16587 0.80818 0.91783 0.0
O122 O 0.20078 0.90136 0.92242 0.0
C123 C 0.12225 0.72811 0.0719 0.0
O124 O 0.17396 0.7351 0.08249 0.0
C125 C 0.23872 0.92747 0.01536 0.0
Zn126 Zn 0.4538 0.2696 0.26093 0.0
Zn127 Zn 0.42903 0.1823 0.30349 0.0
O128 O 0.52201 0.23289 0.30666 0.0
O129 O 0.52667 0.27579 0.23637 0.0
O130 O 0.39895 0.1092 0.3483 0.0
O131 O 0.4601 0.30942 0.32553 0.0
O132 O 0.38258 0.22301 0.32537 0.0
C133 C 0.55193 0.26299 0.26956 0.0
C134 C 0.38521 0.1833 0.20373 0.0
O135 O 0.40966 0.16076 0.22922 0.0
O136 O 0.37527 0.21941 0.22542 0.0
C137 C 0.4224 0.11498 0.39082 0.0
O138 O 0.46717 0.16641 0.4031 0.0
C139 C 0.40603 0.2778 0.33348 0.0
Zn140 Zn 0.11645 0.42251 0.65299 0.0
Zn141 Zn 0.17864 0.39795 0.68869 0.0
O142 O 0.21588 0.49087 0.69239 0.0
O143 O 0.17585 0.49834 0.62406 0.0
O144 O 0.23672 0.38119 0.72704 0.0
O145 O 0.07772 0.41958 0.717 0.0
O146 O 0.09601 0.34831 0.71935 0.0
C147 C 0.21339 0.52275 0.65799 0.0
C148 C 0.11876 0.34505 0.59234 0.0
O149 O 0.16737 0.36611 0.61634 0.0
O150 O 0.07912 0.35351 0.60852 0.0
C151 C 0.22658 0.33195 0.74409 0.0
O152 O 0.1748 0.28531 0.73631 0.0
C153 C 0.06206 0.36776 0.72946 0.0
Zn154 Zn 0.74377 0.1007 0.90499 0.0
Zn155 Zn 0.83663 0.21449 -0.01794 0.0
O156 O 0.76861 0.22885 -0.02345 0.0
O157 O 0.71065 0.15611 0.92463 0.0
O158 O 0.90149 0.26838 0.03174 0.0
O159 O 0.81349 0.10113 0.94205 0.0
O160 O 0.80007 0.13138 0.01138 0.0
C161 C 0.72197 0.20151 0.94998 0.0
C162 C 0.85061 0.18911 0.87995 0.0
O163 O 0.86577 0.23192 0.90924 0.0
O164 O 0.83438 0.14035 0.90041 0.0
C165 C 0.88839 0.2723 0.07616 0.0
O166 O 0.83275 0.24591 0.08808 0.0
C167 C 0.79808 0.09 -0.01345 0.0
C168 C 0.3131 0.63029 0.35921 0.0
C169 C 0.28236 0.5952 0.31801 0.0
H170 H 0.39483 0.70053 0.38694 0.0
C171 C 0.30473 0.61577 0.27088 0.0
H172 H 0.29649 0.61651 0.39611 0.0
C173 C 0.36098 0.66448 0.26571 0.0
C174 C 0.39586 0.69313 0.30756 0.0
H175 H 0.28193 0.59061 0.2383 0.0
H176 H 0.37931 0.67568 0.22907 0.0
C177 C 0.36968 0.67866 0.35407 0.0
C178 C 0.67454 0.30047 0.59188 0.0
C179 C 0.65308 0.26897 0.6358 0.0
H180 H 0.70214 0.38078 0.55371 0.0
C181 C 0.64046 0.29537 0.67521 0.0
H182 H 0.68422 0.28139 0.5607 0.0
C183 C 0.65151 0.3528 0.67151 0.0
C184 C 0.67482 0.38489 0.62814 0.0
H185 H 0.62332 0.27218 0.70951 0.0
H186 H 0.64242 0.37224 0.70277 0.0
C187 C 0.68506 0.35764 0.58804 0.0
C188 C 0.34282 0.69179 0.97009 0.0
C189 C 0.39335 0.71822 0.94089 0.0
H190 H 0.26939 0.69545 -0.00241 0.0
C191 C 0.40519 0.76723 0.91242 0.0
H192 H 0.33277 0.65396 -0.00752 0.0
C193 C 0.36914 0.79163 0.91582 0.0
C194 C 0.32056 0.76723 0.94755 0.0
H195 H 0.44414 0.78888 0.89 0.0
H196 H 0.38066 0.83085 0.89495 0.0
C197 C 0.30673 0.71584 0.97328 0.0
C198 C 0.65073 0.30687 0.31089 0.0
C199 C 0.61677 0.29367 0.26775 0.0
H200 H 0.73296 0.36498 0.34576 0.0
C201 C 0.64472 0.32099 0.2234 0.0
H202 H 0.63072 0.28621 0.34546 0.0
C203 C 0.70277 0.36706 0.22361 0.0
C204 C 0.7344 0.38602 0.26804 0.0
H205 H 0.62008 0.31064 0.1891 0.0
H206 H 0.72107 0.39104 0.18981 0.0
C207 C 0.70942 0.35234 0.31091 0.0
C208 C 0.26328 0.67535 0.61678 0.0
C209 C 0.24818 0.69679 0.65796 0.0
H210 H 0.26501 0.60226 0.58499 0.0
C211 C 0.2365 0.66601 0.70276 0.0
H212 H 0.27268 0.69802 0.58182 0.0
C213 C 0.23362 0.61174 0.70486 0.0
C214 C 0.24135 0.58701 0.66199 0.0
H215 H 0.22538 0.6818 0.73533 0.0
H216 H 0.21898 0.58647 0.73852 0.0
C217 C 0.25928 0.62064 0.61867 0.0
C218 C 0.69613 0.27832 0.96869 0.0
C219 C 0.68293 0.22641 0.94409 0.0
H220 H 0.6716 0.34223 -0.01715 0.0
C221 C 0.63406 0.20061 0.91172 0.0
H222 H 0.73369 0.3 -0.00672 0.0
C223 C 0.59836 0.2253 0.90538 0.0
C224 C 0.61091 0.2763 0.93129 0.0
H225 H 0.62301 0.16103 0.89151 0.0
H226 H 0.56001 0.20341 0.88166 0.0
C227 C 0.66075 0.30289 0.96228 0.0
C228 C 0.37074 0.3967 0.31177 0.0
C229 C 0.31232 0.3651 0.29491 0.0
H230 H 0.44444 0.39389 0.3404 0.0
C231 C 0.28304 0.30348 0.29503 0.0
H232 H 0.39453 0.44415 0.31311 0.0
C233 C 0.31194 0.27432 0.31111 0.0
C234 C 0.37058 0.30627 0.32762 0.0
H235 H 0.23763 0.27776 0.28332 0.0
H236 H 0.28893 0.22693 0.30913 0.0
C237 C 0.39914 0.36776 0.32842 0.0
C238 C 0.91241 0.24785 0.69099 0.0
C239 C 0.87806 0.27088 0.70752 0.0
H240 H -0.00157 0.25935 0.68731 0.0
C241 C 0.90373 0.31956 0.73968 0.0
H242 H 0.89372 0.20959 0.66728 0.0
C243 C 0.96312 0.34729 0.75181 0.0
C244 C -0.00161 0.32694 0.73243 0.0
H245 H 0.87852 0.33793 0.75421 0.0
H246 H 0.98234 0.38712 0.77366 0.0
C247 C 0.97207 0.27551 0.70354 0.0
C248 C 0.75594 0.98409 0.97162 0.0
C249 C 0.75359 0.02882 -0.00272 0.0
H250 H 0.71071 0.89452 0.94911 0.0
C251 C 0.70348 0.015 0.02466 0.0
H252 H 0.79415 -0.00633 0.95023 0.0
C253 C 0.65507 0.95801 0.02362 0.0
C254 C 0.65612 0.9141 -0.00481 0.0
H255 H 0.70024 0.04876 0.04438 0.0
H256 H 0.61624 0.94893 0.04376 0.0
C257 C 0.70778 0.92744 0.97049 0.0
C258 C 0.69681 0.70239 0.31609 0.0
C259 C 0.64384 0.67365 0.34221 0.0
H260 H 0.76305 0.6942 0.27802 0.0
C261 C 0.61811 0.61339 0.35129 0.0
H262 H 0.71706 0.74855 0.30748 0.0
C263 C 0.64371 0.58222 0.33365 0.0
C264 C 0.69556 0.61032 0.30607 0.0
H265 H 0.57684 0.58984 0.37055 0.0
H266 H 0.62249 0.53575 0.34137 0.0
C267 C 0.72227 0.67095 0.29796 0.0
C268 C 0.00052 0.73745 0.6415 0.0
C269 C 0.04389 0.73353 0.61507 0.0
H270 H 0.91378 0.69276 0.67034 0.0
C271 C 0.03277 0.67821 0.59982 0.0
H272 H 0.00818 0.77946 0.65451 0.0
C273 C 0.97889 0.62808 0.60992 0.0
C274 C 0.93465 0.63218 0.63508 0.0
H275 H 0.06581 0.67347 0.5806 0.0
H276 H 0.97124 0.58632 0.59632 0.0
C277 C 0.94671 0.6875 0.6515 0.0
C278 C 0.31954 0.08844 0.01559 0.0
C279 C 0.37738 0.09997 0.01802 0.0
H280 H 0.2287 0.02307 0.01657 0.0
C281 C 0.388 0.05553 0.03364 0.0
H282 H 0.31019 0.12247 0.00539 0.0
C283 C 0.34108 -0.00149 0.04064 0.0
C284 C 0.28334 0.98589 0.03257 0.0
H285 H 0.43237 0.06376 0.0368 0.0
H286 H 0.35026 0.96356 0.04708 0.0
C287 C 0.27292 0.03195 0.02321 0.0
C288 C 0.91941 0.31411 0.16152 0.0
C289 C 0.93435 0.30147 0.1154 0.0
H290 H 0.94693 0.34584 0.23511 0.0
C291 C -0.00787 0.3135 0.1088 0.0
H292 H 0.87548 0.3056 0.16807 0.0
C293 C 0.0333 0.33607 0.1478 0.0
C294 C 0.01789 0.34785 0.19416 0.0
H295 H 0.00515 0.30404 0.0739 0.0
H296 H 0.07708 0.34395 0.14169 0.0
C297 C 0.96057 0.33724 0.20015 0.0
C298 C 0.67598 0.00321 0.49888 0.0
C299 C 0.63691 0.02128 0.51438 0.0
H300 H 0.69105 0.94843 0.44967 0.0
C301 C 0.58261 -0.00204 0.48959 0.0
H302 H 0.71815 0.02017 0.51703 0.0
C303 C 0.56727 0.95736 0.45123 0.0
C304 C 0.60551 0.93823 0.43611 0.0
H305 H 0.55126 0.01074 0.5 0.0
H306 H 0.52472 0.94045 0.43375 0.0
C307 C 0.6604 0.96205 0.46023 0.0
C308 C 0.56143 0.5915 0.80365 0.0
C309 C 0.59741 0.64222 0.83155 0.0
H310 H 0.55533 0.53386 0.74602 0.0
C311 C 0.6579 0.67395 0.82151 0.0
H312 H 0.51473 0.5658 0.81018 0.0
C313 C 0.6816 0.65516 0.78443 0.0
C314 C 0.64518 0.60457 0.75635 0.0
H315 H 0.68694 0.71316 0.84236 0.0
H316 H 0.72822 0.68046 0.7775 0.0
C317 C 0.58486 0.57314 0.7666 0.0
C318 C 0.07686 0.66127 0.14415 0.0
C319 C 0.07275 0.69578 0.10666 0.0
H320 H 0.03698 0.60659 0.2068 0.0
C321 C 0.02236 0.70085 0.10443 0.0
H322 H 0.11492 0.65627 0.14705 0.0
C323 C 0.97768 0.6728 0.13937 0.0
C324 C 0.98204 0.63841 0.17692 0.0
H325 H 0.01787 0.72732 0.07622 0.0
H326 H 0.93965 0.67788 0.13682 0.0
C327 C 0.03204 0.63274 0.17855 0.0
C328 C 0.42942 0.0729 0.47188 0.0
C329 C 0.39809 0.06656 0.42789 0.0
H330 H 0.43122 0.03797 0.54252 0.0
C331 C 0.34279 0.01555 0.42166 0.0
H332 H 0.47224 0.11124 0.47809 0.0
C333 C 0.31882 0.97311 0.4592 0.0
C334 C 0.34972 0.98052 0.50376 0.0
H335 H 0.31732 0.00915 0.38836 0.0
H336 H 0.27563 0.93509 0.45367 0.0
C337 C 0.40574 0.03062 0.50906 0.0
C338 C 0.30229 0.26912 0.82279 0.0
C339 C 0.35615 0.31945 0.83481 0.0
H340 H 0.2195 0.23344 0.78502 0.0
C341 C 0.36756 0.37363 0.81542 0.0
H342 H 0.29184 0.22669 0.83697 0.0
C343 C 0.32612 0.37755 0.78555 0.0
C344 C 0.27183 0.32745 0.77419 0.0
H345 H 0.40851 0.41344 0.82366 0.0
H346 H 0.33647 0.42015 0.77185 0.0
C347 C 0.26071 0.27308 0.79296 0.0
C348 C 0.08124 0.33005 0.45758 0.0
C349 C 0.12737 0.32482 0.43874 0.0
H350 H 0.04131 0.33899 0.52223 0.0
C351 C 0.15946 0.30932 0.47097 0.0
H352 H 0.05535 0.34121 0.43371 0.0
C353 C 0.15322 0.31036 0.52184 0.0
C354 C 0.1131 0.32448 0.54099 0.0
H355 H 0.19435 0.30327 0.45727 0.0
H356 H 0.183 0.305 0.54595 0.0
C357 C 0.07375 0.32927 0.50851 0.0
C358 C 0.77931 0.20884 0.83523 0.0
C359 C 0.81577 0.18466 0.83535 0.0
H360 H 0.70026 0.20236 0.80795 0.0
C361 C 0.806 0.14223 0.79954 0.0
H362 H 0.78549 0.24149 0.86231 0.0
C363 C 0.75897 0.12207 0.7662 0.0
C364 C 0.71972 0.14306 0.76842 0.0
H365 H 0.83293 0.1222 0.79915 0.0
H366 H 0.75256 0.08887 0.73956 0.0
C367 C 0.73025 0.18624 0.80389 0.0
C368 C 0.55469 0.78875 0.16228 0.0
C369 C 0.61211 0.80565 0.1767 0.0
H370 H 0.48372 0.73744 0.11318 0.0
C371 C 0.64674 0.79445 0.1445 0.0
H372 H 0.52641 0.7955 0.1866 0.0
C373 C 0.62266 0.76243 0.10089 0.0
C374 C 0.56315 0.74004 0.08927 0.0
H375 H 0.69081 0.80589 0.15528 0.0
H376 H 0.64969 0.75251 0.07784 0.0
C377 C 0.52996 0.75469 0.1201 0.0
C378 C 0.86335 0.6146 0.45423 0.0
C379 C 0.83308 0.62498 0.41698 0.0
H380 H 0.86304 0.59317 0.52974 0.0
C381 C 0.79326 0.64311 0.43007 0.0
H382 H 0.89438 0.60088 0.44514 0.0
C383 C 0.77393 0.63722 0.47867 0.0
C384 C 0.7956 0.61451 0.51413 0.0
H385 H 0.7696 0.65171 0.40164 0.0
H386 H 0.73717 0.64296 0.48681 0.0
C387 C 0.84412 0.60868 0.50264 0.0
C388 C 0.21534 0.83999 0.81959 0.0
C389 C 0.18455 0.86284 0.84383 0.0
H390 H 0.25467 0.83562 0.7522 0.0
C391 C 0.17427 0.90346 0.81928 0.0
H392 H 0.22597 0.81043 0.83845 0.0
C393 C 0.19153 0.91863 0.77051 0.0
C394 C 0.22074 0.89463 0.74561 0.0
H395 H 0.15238 0.92316 0.83783 0.0
H396 H 0.17965 0.94714 0.75139 0.0
C397 C 0.2337 0.85611 0.77093 0.0
C398 C 0.46136 0.22006 0.14046 0.0
C399 C 0.40235 0.19831 0.15178 0.0
H400 H 0.53522 0.28278 0.10036 0.0
C401 C 0.36856 0.21204 0.12018 0.0
H402 H 0.48869 0.21026 0.16369 0.0
C403 C 0.39431 0.24907 0.07959 0.0
C404 C 0.45496 0.27544 0.07142 0.0
H405 H 0.32321 0.19702 0.12866 0.0
H406 H 0.36729 0.25901 0.05601 0.0
C407 C 0.48809 0.26132 0.10332 0.0
loop_
_geom_bond_atom_site_label_1
_geom_bond_atom_site_label_2
_geom_bond_distance
_geom_bond_site_symmetry_2
_ccdc_geom_bond_type
Zn0 O3 2.031 . S
Zn0 O5 2.049 . S
Zn0 O10 2.067 . S
Zn1 O2 1.962 . S
Zn1 O4 1.986 . S
Zn1 O6 1.996 . S
Zn1 O9 1.943 . S
O2 Zn1 1.962 . S
O2 C7 1.254 . S
O3 Zn0 2.031 . S
O3 C7 1.269 . S
O4 Zn1 1.986 . S
O4 C11 1.262 . S
O5 Zn0 2.049 . S
O5 C13 1.260 . S
O6 Zn1 1.996 . S
O6 C13 1.257 . S
C7 O2 1.254 . S
C7 O3 1.269 . S
C8 O9 1.249 . S
C8 O10 1.270 . S
O9 Zn1 1.943 . S
O9 C8 1.249 . S
O10 Zn0 2.067 . S
O10 C8 1.270 . S
C11 O4 1.262 . S
C11 O12 1.232 . S
O12 C11 1.232 . S
C13 O5 1.260 . S
C13 O6 1.257 . S
Zn14 O17 2.031 . S
Zn14 O19 2.049 . S
Zn14 O24 2.067 . S
Zn15 O16 1.962 . S
Zn15 O18 1.986 . S
Zn15 O20 1.996 . S
Zn15 O23 1.943 . S
O16 Zn15 1.962 . S
O16 C21 1.254 . S
O17 Zn14 2.031 . S
O17 C21 1.269 . S
O18 Zn15 1.986 . S
O18 C25 1.262 . S
O19 Zn14 2.049 . S
O19 C27 1.260 . S
O20 Zn15 1.996 . S
O20 C27 1.257 . S
C21 O16 1.254 . S
C21 O17 1.269 . S
C22 O23 1.249 . S
C22 O24 1.270 . S
O23 Zn15 1.943 . S
O23 C22 1.249 . S
O24 Zn14 2.067 . S
O24 C22 1.270 . S
C25 O18 1.262 . S
C25 O26 1.232 . S
O26 C25 1.232 . S
C27 O19 1.260 . S
C27 O20 1.257 . S
Zn28 O31 2.031 . S
Zn28 O33 2.049 . S
Zn28 O38 2.067 . S
Zn29 O30 1.962 . S
Zn29 O32 1.986 . S
Zn29 O34 1.996 . S
Zn29 O37 1.943 1_556 S
O30 Zn29 1.962 . S
O30 C35 1.254 . S
O31 Zn28 2.031 . S
O31 C35 1.269 1_554 S
O32 Zn29 1.986 . S
O32 C39 1.262 . S
O33 Zn28 2.049 . S
O33 C41 1.245 1_554 S
O34 Zn29 1.996 . S
O34 C41 1.264 . S
C35 O30 1.254 . S
C35 O31 1.269 1_556 S
C36 O37 1.249 . S
C36 O38 1.270 . S
O37 Zn29 1.943 1_554 S
O37 C36 1.249 . S
O38 Zn28 2.067 . S
O38 C36 1.270 . S
C39 O32 1.262 . S
C39 O40 1.232 . S
O40 C39 1.232 . S
C41 O33 1.245 1_556 S
C41 O34 1.264 . S
Zn42 O45 2.031 . S
Zn42 O47 2.049 . S
Zn42 O52 2.067 . S
Zn43 O44 1.962 . S
Zn43 O46 1.986 . S
Zn43 O48 1.996 . S
Zn43 O51 1.943 . S
O44 Zn43 1.962 . S
O44 C49 1.254 . S
O45 Zn42 2.031 . S
O45 C49 1.269 . S
O46 Zn43 1.986 . S
O46 C53 1.262 . S
O47 Zn42 2.049 . S
O47 C55 1.260 . S
O48 Zn43 1.996 . S
O48 C55 1.257 . S
C49 O44 1.254 . S
C49 O45 1.269 . S
C50 O51 1.249 . S
C50 O52 1.270 . S
O51 Zn43 1.943 . S
O51 C50 1.249 . S
O52 Zn42 2.067 . S
O52 C50 1.270 . S
C53 O46 1.262 . S
C53 O54 1.232 . S
O54 C53 1.232 . S
C55 O47 1.260 . S
C55 O48 1.257 . S
Zn56 O59 2.031 . S
Zn56 O61 2.049 . S
Zn56 O66 2.067 . S
Zn57 O58 1.962 . S
Zn57 O60 1.986 . S
Zn57 O62 1.996 . S
Zn57 O65 1.943 . S
O58 Zn57 1.962 . S
O58 C63 1.254 . S
O59 Zn56 2.031 . S
O59 C63 1.269 . S
O60 Zn57 1.986 . S
O60 C67 1.262 . S
O61 Zn56 2.049 . S
O61 C69 1.260 . S
O62 Zn57 1.996 . S
O62 C69 1.257 . S
C63 O58 1.254 . S
C63 O59 1.269 . S
C64 O65 1.249 . S
C64 O66 1.270 . S
O65 Zn57 1.943 . S
O65 C64 1.249 . S
O66 Zn56 2.067 . S
O66 C64 1.270 . S
C67 O60 1.262 . S
C67 O68 1.232 . S
O68 C67 1.232 . S
C69 O61 1.260 . S
C69 O62 1.257 . S
Zn70 O73 2.031 . S
Zn70 O75 2.049 . S
Zn70 O80 2.067 . S
Zn71 O72 1.962 . S
Zn71 O74 1.986 . S
Zn71 O76 1.996 . S
Zn71 O79 1.943 1_556 S
O72 Zn71 1.962 . S
O72 C77 1.254 . S
O73 Zn70 2.031 . S
O73 C77 1.269 1_554 S
O74 Zn71 1.986 . S
O74 C81 1.262 . S
O75 Zn70 2.049 . S
O75 C83 1.245 1_554 S
O76 Zn71 1.996 . S
O76 C83 1.264 . S
C77 O72 1.254 . S
C77 O73 1.269 1_556 S
C78 O79 1.249 . S
C78 O80 1.270 . S
O79 Zn71 1.943 1_554 S
O79 C78 1.249 . S
O80 Zn70 2.067 . S
O80 C78 1.270 . S
C81 O74 1.262 . S
C81 O82 1.232 . S
O82 C81 1.232 . S
C83 O75 1.245 1_556 S
C83 O76 1.264 . S
Zn84 O87 2.031 . S
Zn84 O89 2.049 . S
Zn84 O94 2.067 . S
Zn85 O86 1.962 . S
Zn85 O88 1.986 . S
Zn85 O90 1.996 . S
Zn85 O93 1.943 . S
O86 Zn85 1.962 . S
O86 C91 1.254 . S
O87 Zn84 2.031 . S
O87 C91 1.269 . S
O88 Zn85 1.986 . S
O88 C95 1.262 . S
O89 Zn84 2.049 . S
O89 C97 1.260 . S
O90 Zn85 1.996 . S
O90 C97 1.257 . S
C91 O86 1.254 . S
C91 O87 1.269 . S
C92 O93 1.249 . S
C92 O94 1.270 . S
O93 Zn85 1.943 . S
O93 C92 1.249 . S
O94 Zn84 2.067 . S
O94 C92 1.270 . S
C95 O88 1.262 . S
C95 O96 1.232 . S
O96 C95 1.232 . S
C97 O89 1.260 . S
C97 O90 1.257 . S
Zn98 O101 2.031 . S
Zn98 O103 2.049 . S
Zn98 O108 2.067 . S
Zn99 O100 1.962 . S
Zn99 O102 1.986 . S
Zn99 O104 1.996 . S
Zn99 O107 1.943 . S
O100 Zn99 1.962 . S
O100 C105 1.254 . S
O101 Zn98 2.031 . S
O101 C105 1.269 . S
O102 Zn99 1.986 . S
O102 C109 1.262 . S
O103 Zn98 2.049 . S
O103 C111 1.260 . S
O104 Zn99 1.996 . S
O104 C111 1.257 . S
C105 O100 1.254 . S
C105 O101 1.269 . S
C106 O107 1.249 . S
C106 O108 1.270 . S
O107 Zn99 1.943 . S
O107 C106 1.249 . S
O108 Zn98 2.067 . S
O108 C106 1.270 . S
C109 O102 1.262 . S
C109 O110 1.232 . S
O110 C109 1.232 . S
C111 O103 1.260 . S
C111 O104 1.257 . S
Zn112 O115 2.031 . S
Zn112 O117 2.049 . S
Zn112 O122 2.067 . S
Zn113 O114 1.962 . S
Zn113 O116 1.986 . S
Zn113 O118 1.996 . S
Zn113 O121 1.943 1_554 S
O114 Zn113 1.962 . S
O114 C119 1.254 . S
O115 Zn112 2.031 . S
O115 C119 1.269 1_556 S
O116 Zn113 1.986 . S
O116 C123 1.262 . S
O117 Zn112 2.049 . S
O117 C125 1.245 1_556 S
O118 Zn113 1.996 . S
O118 C125 1.264 . S
C119 O114 1.254 . S
C119 O115 1.269 1_554 S
C120 O121 1.249 . S
C120 O122 1.270 . S
O121 Zn113 1.943 1_556 S
O121 C120 1.249 . S
O122 Zn112 2.067 . S
O122 C120 1.270 . S
C123 O116 1.262 . S
C123 O124 1.232 . S
O124 C123 1.232 . S
C125 O117 1.245 1_554 S
C125 O118 1.264 . S
Zn126 O129 2.031 . S
Zn126 O131 2.049 . S
Zn126 O136 2.067 . S
Zn127 O128 1.962 . S
Zn127 O130 1.986 . S
Zn127 O132 1.996 . S
Zn127 O135 1.943 . S
O128 Zn127 1.962 . S
O128 C133 1.254 . S
O129 Zn126 2.031 . S
O129 C133 1.269 . S
O130 Zn127 1.986 . S
O130 C137 1.262 . S
O131 Zn126 2.049 . S
O131 C139 1.260 . S
O132 Zn127 1.996 . S
O132 C139 1.257 . S
C133 O128 1.254 . S
C133 O129 1.269 . S
C134 O135 1.249 . S
C134 O136 1.270 . S
O135 Zn127 1.943 . S
O135 C134 1.249 . S
O136 Zn126 2.067 . S
O136 C134 1.270 . S
C137 O130 1.262 . S
C137 O138 1.232 . S
O138 C137 1.232 . S
C139 O131 1.260 . S
C139 O132 1.257 . S
Zn140 O143 2.031 . S
Zn140 O145 2.049 . S
Zn140 O150 2.067 . S
Zn141 O142 1.962 . S
Zn141 O144 1.986 . S
Zn141 O146 1.996 . S
Zn141 O149 1.943 . S
O142 Zn141 1.962 . S
O142 C147 1.254 . S
O143 Zn140 2.031 . S
O143 C147 1.269 . S
O144 Zn141 1.986 . S
O144 C151 1.262 . S
O145 Zn140 2.049 . S
O145 C153 1.260 . S
O146 Zn141 1.996 . S
O146 C153 1.257 . S
C147 O142 1.254 . S
C147 O143 1.269 . S
C148 O149 1.249 . S
C148 O150 1.270 . S
O149 Zn141 1.943 . S
O149 C148 1.249 . S
O150 Zn140 2.067 . S
O150 C148 1.270 . S
C151 O144 1.262 . S
C151 O152 1.232 . S
O152 C151 1.232 . S
C153 O145 1.260 . S
C153 O146 1.257 . S
Zn154 O157 2.031 . S
Zn154 O159 2.049 . S
Zn154 O164 2.067 . S
Zn155 O156 1.962 . S
Zn155 O158 1.986 . S
Zn155 O160 1.996 . S
Zn155 O163 1.943 1_554 S
O156 Zn155 1.962 . S
O156 C161 1.254 . S
O157 Zn154 2.031 . S
O157 C161 1.269 1_556 S
O158 Zn155 1.986 . S
O158 C165 1.262 . S
O159 Zn154 2.049 . S
O159 C167 1.245 1_556 S
O160 Zn155 1.996 . S
O160 C167 1.264 . S
C161 O156 1.254 . S
C161 O157 1.269 1_554 S
C162 O163 1.249 . S
C162 O164 1.270 . S
O163 Zn155 1.943 1_556 S
O163 C162 1.249 . S
O164 Zn154 2.067 . S
O164 C162 1.270 . S
C165 O158 1.262 . S
C165 O166 1.232 . S
O166 C165 1.232 . S
C167 O159 1.245 1_554 S
C167 O160 1.264 . S
C168 C169 1.387 . S
C168 H172 0.950 . S
C168 C177 1.390 . S
C169 C168 1.387 . S
C169 C171 1.387 . S
H170 C177 0.950 . S
C171 C169 1.387 . S
C171 C173 1.390 . S
C171 H175 0.950 . S
H172 C168 0.950 . S
C173 C171 1.390 . S
C173 C174 1.387 . S
C173 H176 0.950 . S
C174 C173 1.387 . S
C174 C177 1.387 . S
H175 C171 0.950 . S
H176 C173 0.950 . S
C177 C168 1.390 . S
C177 H170 0.950 . S
C177 C174 1.387 . S
C178 C179 1.387 . S
C178 H182 0.950 . S
C178 C187 1.390 . S
C179 C178 1.387 . S
C179 C181 1.387 . S
H180 C187 0.950 . S
C181 C179 1.387 . S
C181 C183 1.390 . S
C181 H185 0.950 . S
H182 C178 0.950 . S
C183 C181 1.390 . S
C183 C184 1.387 . S
C183 H186 0.950 . S
C184 C183 1.387 . S
C184 C187 1.387 . S
H185 C181 0.950 . S
H186 C183 0.950 . S
C187 C178 1.390 . S
C187 H180 0.950 . S
C187 C184 1.387 . S
C188 C189 1.387 . S
C188 H192 0.950 . S
C188 C197 1.390 1_556 S
C189 C188 1.387 . S
C189 C191 1.387 . S
H190 C197 0.950 . S
C191 C189 1.387 . S
C191 C193 1.390 1_556 S
C191 H195 0.950 . S
H192 C188 0.950 . S
C193 C191 1.390 1_554 S
C193 C194 1.387 . S
C193 H196 0.950 . S
C194 C193 1.387 . S
C194 C197 1.387 . S
H195 C191 0.950 . S
H196 C193 0.950 . S
C197 C188 1.390 1_554 S
C197 H190 0.950 . S
C197 C194 1.387 . S
C198 C199 1.387 . S
C198 H202 0.950 . S
C198 C207 1.390 . S
C199 C198 1.387 . S
C199 C201 1.387 . S
H200 C207 0.950 . S
C201 C199 1.387 . S
C201 C203 1.390 . S
C201 H205 0.950 . S
H202 C198 0.950 . S
C203 C201 1.390 . S
C203 C204 1.387 . S
C203 H206 0.950 . S
C204 C203 1.387 . S
C204 C207 1.387 . S
H205 C201 0.950 . S
H206 C203 0.950 . S
C207 C198 1.390 . S
C207 H200 0.950 . S
C207 C204 1.387 . S
C208 C209 1.387 . S
C208 H212 0.950 . S
C208 C217 1.390 . S
C209 C208 1.387 . S
C209 C211 1.387 . S
H210 C217 0.950 . S
C211 C209 1.387 . S
C211 C213 1.390 . S
C211 H215 0.950 . S
H212 C208 0.950 . S
C213 C211 1.390 . S
C213 C214 1.387 . S
C213 H216 0.950 . S
C214 C213 1.387 . S
C214 C217 1.387 . S
H215 C211 0.950 . S
H216 C213 0.950 . S
C217 C208 1.390 . S
C217 H210 0.950 . S
C217 C214 1.387 . S
C218 C219 1.387 . S
C218 H222 0.950 . S
C218 C227 1.391 . S
C219 C218 1.387 . S
C219 C221 1.387 1_554 S
H220 C227 0.950 . S
C221 C219 1.387 1_556 S
C221 C223 1.391 . S
C221 H225 0.950 . S
H222 C218 0.950 . S
C223 C221 1.391 . S
C223 C224 1.387 . S
C223 H226 0.950 . S
C224 C223 1.387 . S
C224 C227 1.386 1_556 S
H225 C221 0.950 . S
H226 C223 0.950 . S
C227 C218 1.391 . S
C227 H220 0.950 . S
C227 C224 1.386 1_554 S
C228 C229 1.387 . S
C228 H232 0.950 . S
C228 C237 1.390 . S
C229 C228 1.387 . S
C229 C231 1.387 . S
H230 C237 0.950 . S
C231 C229 1.387 . S
C231 C233 1.390 . S
C231 H235 0.950 . S
H232 C228 0.950 . S
C233 C231 1.390 . S
C233 C234 1.387 . S
C233 H236 0.950 . S
C234 C233 1.387 . S
C234 C237 1.387 . S
H235 C231 0.950 . S
H236 C233 0.950 . S
C237 C228 1.390 . S
C237 H230 0.950 . S
C237 C234 1.387 . S
C238 C239 1.387 . S
C238 H242 0.950 . S
C238 C247 1.390 1_655 S
C239 C238 1.387 . S
C239 C241 1.387 . S
H240 C247 0.950 . S
C241 C239 1.387 . S
C241 C243 1.390 1_655 S
C241 H245 0.950 . S
H242 C238 0.950 . S
C243 C241 1.390 1_455 S
C243 C244 1.387 . S
C243 H246 0.950 . S
C244 C243 1.387 . S
C244 C247 1.387 . S
H245 C241 0.950 . S
H246 C243 0.950 . S
C247 C238 1.390 1_455 S
C247 H240 0.950 . S
C247 C244 1.387 . S
C248 C249 1.387 . S
C248 H252 0.950 . S
C248 C257 1.390 1_544 S
C249 C248 1.387 . S
C249 C251 1.387 . S
H250 C257 0.950 . S
C251 C249 1.387 . S
C251 C253 1.390 1_544 S
C251 H255 0.950 . S
H252 C248 0.950 . S
C253 C251 1.390 1_566 S
C253 C254 1.387 . S
C253 H256 0.950 . S
C254 C253 1.387 . S
C254 C257 1.387 . S
H255 C251 0.950 . S
H256 C253 0.950 . S
C257 C248 1.390 1_566 S
C257 H250 0.950 . S
C257 C254 1.387 . S
C258 C259 1.387 . S
C258 H262 0.950 . S
C258 C267 1.390 . S
C259 C258 1.387 . S
C259 C261 1.387 . S
H260 C267 0.950 . S
C261 C259 1.387 . S
C261 C263 1.390 . S
C261 H265 0.950 . S
H262 C258 0.950 . S
C263 C261 1.390 . S
C263 C264 1.387 . S
C263 H266 0.950 . S
C264 C263 1.387 . S
C264 C267 1.387 . S
H265 C261 0.950 . S
H266 C263 0.950 . S
C267 C258 1.390 . S
C267 H260 0.950 . S
C267 C264 1.387 . S
C268 C269 1.387 . S
C268 H272 0.950 . S
C268 C277 1.390 1_455 S
C269 C268 1.387 . S
C269 C271 1.387 . S
H270 C277 0.950 . S
C271 C269 1.387 . S
C271 C273 1.390 1_455 S
C271 H275 0.950 . S
H272 C268 0.950 . S
C273 C271 1.390 1_655 S
C273 C274 1.387 . S
C273 H276 0.950 . S
C274 C273 1.387 . S
C274 C277 1.387 . S
H275 C271 0.950 . S
H276 C273 0.950 . S
C277 C268 1.390 1_655 S
C277 H270 0.950 . S
C277 C274 1.387 . S
C278 C279 1.387 . S
C278 H282 0.950 . S
C278 C287 1.390 1_546 S
C279 C278 1.387 . S
C279 C281 1.387 . S
H280 C287 0.950 . S
C281 C279 1.387 . S
C281 C283 1.390 1_546 S
C281 H285 0.950 . S
H282 C278 0.950 . S
C283 C281 1.390 1_564 S
C283 C284 1.387 . S
C283 H286 0.950 . S
C284 C283 1.387 . S
C284 C287 1.387 . S
H285 C281 0.950 . S
H286 C283 0.950 . S
C287 C278 1.390 1_564 S
C287 H280 0.950 . S
C287 C284 1.387 . S
C288 C289 1.387 . S
C288 H292 0.950 . S
C288 C297 1.390 . S
C289 C288 1.387 . S
C289 C291 1.387 1_655 S
H290 C297 0.950 . S
C291 C289 1.387 1_455 S
C291 C293 1.390 . S
C291 H295 0.950 . S
H292 C288 0.950 . S
C293 C291 1.390 . S
C293 C294 1.387 . S
C293 H296 0.950 . S
C294 C293 1.387 . S
C294 C297 1.387 1_455 S
H295 C291 0.950 . S
H296 C293 0.950 . S
C297 C288 1.390 . S
C297 H290 0.950 . S
C297 C294 1.387 1_655 S
C298 C299 1.387 . S
C298 H302 0.950 . S
C298 C307 1.390 1_545 S
C299 C298 1.387 . S
C299 C301 1.387 . S
H300 C307 0.950 . S
C301 C299 1.387 . S
C301 C303 1.390 1_545 S
C301 H305 0.950 . S
H302 C298 0.950 . S
C303 C301 1.390 1_565 S
C303 C304 1.387 . S
C303 H306 0.950 . S
C304 C303 1.387 . S
C304 C307 1.387 . S
H305 C301 0.950 . S
H306 C303 0.950 . S
C307 C298 1.390 1_565 S
C307 H300 0.950 . S
C307 C304 1.387 . S
C308 C309 1.387 . S
C308 H312 0.950 . S
C308 C317 1.390 . S
C309 C308 1.387 . S
C309 C311 1.387 . S
H310 C317 0.950 . S
C311 C309 1.387 . S
C311 C313 1.390 . S
C311 H315 0.950 . S
H312 C308 0.950 . S
C313 C311 1.390 . S
C313 C314 1.387 . S
C313 H316 0.950 . S
C314 C313 1.387 . S
C314 C317 1.387 . S
H315 C311 0.950 . S
H316 C313 0.950 . S
C317 C308 1.390 . S
C317 H310 0.950 . S
C317 C314 1.387 . S
C318 C319 1.387 1_655 S
C318 H322 0.950 . S
C318 C327 1.390 . S
C319 C318 1.387 1_455 S
C319 C321 1.387 . S
H320 C327 0.950 . S
C321 C319 1.387 . S
C321 C323 1.390 . S
C321 H325 0.950 . S
H322 C318 0.950 . S
C323 C321 1.390 . S
C323 C324 1.387 1_455 S
C323 H326 0.950 . S
C324 C323 1.387 1_655 S
C324 C327 1.387 . S
H325 C321 0.950 . S
H326 C323 0.950 . S
C327 C318 1.390 . S
C327 H320 0.950 . S
C327 C324 1.387 . S
C328 C329 1.387 . S
C328 H332 0.950 . S
C328 C337 1.390 1_545 S
C329 C328 1.387 . S
C329 C331 1.387 . S
H330 C337 0.950 . S
C331 C329 1.387 . S
C331 C333 1.390 1_545 S
C331 H335 0.950 . S
H332 C328 0.950 . S
C333 C331 1.390 1_565 S
C333 C334 1.387 . S
C333 H336 0.950 . S
C334 C333 1.387 . S
C334 C337 1.387 . S
H335 C331 0.950 . S
H336 C333 0.950 . S
C337 C328 1.390 1_565 S
C337 H330 0.950 . S
C337 C334 1.387 . S
C338 C339 1.387 . S
C338 H342 0.950 . S
C338 C347 1.390 . S
C339 C338 1.387 . S
C339 C341 1.387 . S
H340 C347 0.950 . S
C341 C339 1.387 . S
C341 C343 1.390 . S
C341 H345 0.950 . S
H342 C338 0.950 . S
C343 C341 1.390 . S
C343 C344 1.387 . S
C343 H346 0.950 . S
C344 C343 1.387 . S
C344 C347 1.387 . S
H345 C341 0.950 . S
H346 C343 0.950 . S
C347 C338 1.390 . S
C347 H340 0.950 . S
C347 C344 1.387 . S
C348 C349 1.387 . S
C348 H352 0.950 . S
C348 C357 1.390 . S
C349 C348 1.387 . S
C349 C351 1.387 . S
H350 C357 0.950 . S
C351 C349 1.387 . S
C351 C353 1.390 . S
C351 H355 0.950 . S
H352 C348 0.950 . S
C353 C351 1.390 . S
C353 C354 1.387 . S
C353 H356 0.950 . S
C354 C353 1.387 . S
C354 C357 1.387 . S
H355 C351 0.950 . S
H356 C353 0.950 . S
C357 C348 1.390 . S
C357 H350 0.950 . S
C357 C354 1.387 . S
C358 C359 1.387 . S
C358 H362 0.950 . S
C358 C367 1.390 . S
C359 C358 1.387 . S
C359 C361 1.387 . S
H360 C367 0.950 . S
C361 C359 1.387 . S
C361 C363 1.390 . S
C361 H365 0.950 . S
H362 C358 0.950 . S
C363 C361 1.390 . S
C363 C364 1.387 . S
C363 H366 0.950 . S
C364 C363 1.387 . S
C364 C367 1.387 . S
H365 C361 0.950 . S
H366 C363 0.950 . S
C367 C358 1.390 . S
C367 H360 0.950 . S
C367 C364 1.387 . S
C368 C369 1.387 . S
C368 H372 0.950 . S
C368 C377 1.390 . S
C369 C368 1.387 . S
C369 C371 1.387 . S
H370 C377 0.950 . S
C371 C369 1.387 . S
C371 C373 1.390 . S
C371 H375 0.950 . S
H372 C368 0.950 . S
C373 C371 1.390 . S
C373 C374 1.387 . S
C373 H376 0.950 . S
C374 C373 1.387 . S
C374 C377 1.387 . S
H375 C371 0.950 . S
H376 C373 0.950 . S
C377 C368 1.390 . S
C377 H370 0.950 . S
C377 C374 1.387 . S
C378 C379 1.387 . S
C378 H382 0.950 . S
C378 C387 1.390 . S
C379 C378 1.387 . S
C379 C381 1.387 . S
H380 C387 0.950 . S
C381 C379 1.387 . S
C381 C383 1.390 . S
C381 H385 0.950 . S
H382 C378 0.950 . S
C383 C381 1.390 . S
C383 C384 1.387 . S
C383 H386 0.950 . S
C384 C383 1.387 . S
C384 C387 1.387 . S
H385 C381 0.950 . S
H386 C383 0.950 . S
C387 C378 1.390 . S
C387 H380 0.950 . S
C387 C384 1.387 . S
C388 C389 1.387 . S
C388 H392 0.950 . S
C388 C397 1.390 . S
C389 C388 1.387 . S
C389 C391 1.387 . S
H390 C397 0.950 . S
C391 C389 1.387 . S
C391 C393 1.390 . S
C391 H395 0.950 . S
H392 C388 0.950 . S
C393 C391 1.390 . S
C393 C394 1.387 . S
C393 H396 0.950 . S
C394 C393 1.387 . S
C394 C397 1.387 . S
H395 C391 0.950 . S
H396 C393 0.950 . S
C397 C388 1.390 . S
C397 H390 0.950 . S
C397 C394 1.387 . S
C398 C399 1.387 . S
C398 H402 0.950 . S
C398 C407 1.390 . S
C399 C398 1.387 . S
C399 C401 1.387 . S
H400 C407 0.950 . S
C401 C399 1.387 . S
C401 C403 1.390 . S
C401 H405 0.950 . S
H402 C398 0.950 . S
C403 C401 1.390 . S
C403 C404 1.387 . S
C403 H406 0.950 . S
C404 C403 1.387 . S
C404 C407 1.387 . S
H405 C401 0.950 . S
H406 C403 0.950 . S
C407 C398 1.390 . S
C407 H400 0.950 . S
C407 C404 1.387 . S
C169 C7 1.407 . S
C174 C91 1.407 . S
C179 C21 1.407 . S
C184 C105 1.407 . S
C189 C35 1.388 . S
C194 C119 1.388 . S
C199 C133 1.407 . S
C204 C49 1.407 . S
C209 C63 1.407 . S
C214 C147 1.407 . S
C219 C161 1.388 . S
C224 C77 1.388 . S
C229 C13 1.017 . S
C234 C139 1.024 . S
C239 C27 1.024 . S
C244 C153 1.017 . S
C249 C167 1.012 . S
C254 C41 1.011 . S
C259 C97 1.018 . S
C264 C55 1.022 . S
C269 C69 1.020 . S
C274 C111 1.023 . S
C279 C83 1.012 . S
C284 C125 1.011 . S
C289 C165 1.692 . S
C294 C11 1.689 . S
C299 C25 1.727 . S
C304 C95 1.727 . S
C309 C39 1.692 . S
C314 C109 1.689 . S
C319 C123 1.692 . S
C324 C53 1.689 . S
C329 C137 1.730 . S
C334 C67 1.730 . S
C339 C81 1.691 . S
C344 C151 1.687 . S
C349 C8 0.897 . S
C354 C148 0.897 . S
C359 C162 0.914 . S
C364 C22 0.921 . S
C369 C92 0.915 . S
C374 C36 0.916 . S
C379 C50 0.887 . S
C384 C106 0.887 . S
C389 C120 0.918 . S
C394 C64 0.921 . S
C399 C134 0.918 . S
C404 C78 0.920 . S
