# Generated by pormake.
# Topology sxc, (6)-cn, num edge types: 1
# Building blocks:
#     Node 0, Type 0, BuildingBlock: KUMBUR_clean_sbu_1, # of connection points: 6
#     Node 1, Type 0, BuildingBlock: KUMBUR_clean_sbu_1, # of connection points: 6
#     Node 2, Type 0, BuildingBlock: KUMBUR_clean_sbu_1, # of connection points: 6
#     Edge 3, Type (0, 0), BuildingBlock: TEMPAE_clean_linker_10, # of connection points: 2
#     Edge 4, Type (0, 0), BuildingBlock: TEMPAE_clean_linker_10, # of connection points: 2
#     Edge 5, Type (0, 0), BuildingBlock: TEMPAE_clean_linker_10, # of connection points: 2
#     Edge 6, Type (0, 0), BuildingBlock: TEMPAE_clean_linker_10, # of connection points: 2
#     Edge 7, Type (0, 0), BuildingBlock: TEMPAE_clean_linker_10, # of connection points: 2
#     Edge 8, Type (0, 0), BuildingBlock: TEMPAE_clean_linker_10, # of connection points: 2
#     Edge 9, Type (0, 0), BuildingBlock: TEMPAE_clean_linker_10, # of connection points: 2
#     Edge 10, Type (0, 0), BuildingBlock: TEMPAE_clean_linker_10, # of connection points: 2
#     Edge 11, Type (0, 0), BuildingBlock: TEMPAE_clean_linker_10, # of connection points: 2
# Relax obj value: 0.256
# Max RMSD: 0.159
# Mean RMSD: 0.116
data_MOF--net-sxc--node1-KUMBUR_clean_sbu_1--edge1-TEMPAE_clean_linker_10
_symmetry_space_group_name_H-M    P1
_symmetry_Int_Tables_number       1
_symmetry_cell_setting            triclinic
loop_
_symmetry_equiv_pos_as_xyz
'x, y, z'
_cell_length_a     15.916908
_cell_length_b     17.620166
_cell_length_c     44.861972
_cell_angle_alpha  109.52093
_cell_angle_beta   98.358138
_cell_angle_gamma 98.307118
loop_
_atom_site_label
_atom_site_type_symbol
_atom_site_fract_x
_atom_site_fract_y
_atom_site_fract_z
_atom_type_partial_charge
Tb0 Tb 0.94511 0.1393 0.98883 0.0
C1 C 0.30364 0.1215 0.05399 0.0
N2 N 0.25008 0.17557 0.06215 0.0
C3 C 0.29897 0.19904 0.11833 0.0
C4 C 0.35565 0.10308 0.07787 0.0
C5 C 0.24929 0.21612 0.09394 0.0
C6 C 0.35195 0.14193 0.11028 0.0
C7 C 0.36334 1.02998 0.01247 0.0
C8 C 0.30781 0.08545 0.02153 0.0
C9 C 0.4149 1.01159 0.03626 0.0
C10 C 0.41103 1.04797 0.06883 0.0
Tb11 Tb 0.1825 0.2045 0.01986 0.0
N12 N 0.25628 0.10381 -0.00114 0.0
C13 C 0.36601 0.99508 0.97975 0.0
C14 C 0.26039 1.07118 0.96701 0.0
C15 C 0.3144 1.01585 0.95697 0.0
H16 H 0.21439 0.26513 0.10085 0.0
H17 H 0.31748 0.99047 0.9317 0.0
H18 H 0.92745 0.12401 0.91149 0.0
H19 H 0.79736 0.3103 0.0848 0.0
H20 H 0.22537 0.08975 0.94931 0.0
H21 H 0.4085 0.95297 0.97185 0.0
H22 H 0.88802 0.21546 0.06134 0.0
H23 H 0.29819 0.23168 0.1434 0.0
H24 H 0.45827 0.96948 0.02974 0.0
H25 H 0.45172 1.03353 0.0869 0.0
H26 H 0.84801 0.17864 0.87512 0.0
H27 H 0.39131 0.12978 0.12934 0.0
H28 H 0.71528 0.37188 0.05124 0.0
N29 N 0.8853 0.1937 0.9532 0.0
C30 C 0.82804 0.24164 0.96424 0.0
C31 C 0.84326 0.19837 0.9003 0.0
C32 C 0.77839 0.27192 0.94378 0.0
C33 C 0.89109 0.16972 0.9214 0.0
C34 C 0.78701 0.25003 0.91155 0.0
N35 N 0.86851 0.23076 0.01576 0.0
C36 C 0.85857 0.24601 0.04687 0.0
C37 C 0.76344 0.31287 0.00868 0.0
C38 C 0.82017 0.26144 0.99646 0.0
C39 C 0.75731 0.33205 0.04099 0.0
C40 C 0.80442 0.29806 0.06008 0.0
H41 H 0.74931 0.27137 0.89501 0.0
H42 H 0.68204 0.34559 0.94051 0.0
H43 H 0.66953 0.38198 0.99731 0.0
O44 O 0.82579 0.08788 0.99472 0.0
O45 O 0.99226 0.28122 0.99663 0.0
O46 O 0.13954 0.32122 0.01405 0.0
O47 O 0.86051 1.04743 0.94722 0.0
O48 O 0.99046 0.13779 0.03749 0.0
O49 O 0.10009 0.24837 0.05418 0.0
O50 O 0.29467 0.24713 0.00558 0.0
O51 O 0.13488 1.06324 0.01402 0.0
O52 O 0.98739 1.02195 0.9944 0.0
O53 O 0.27308 0.3045 0.05437 0.0
O54 O 0.13693 0.20188 0.97108 0.0
O55 O 1.02579 0.09287 0.95408 0.0
C56 C 0.06414 0.34253 0.00535 0.0
C57 C 0.71825 0.98602 0.95188 0.0
C58 C 0.6159 0.88515 0.96087 0.0
C59 C 0.56827 0.86201 0.92918 0.0
C60 C 0.67247 0.96236 0.91996 0.0
C61 C 0.59624 0.90149 0.90888 0.0
C62 C 0.68764 0.9499 0.97241 0.0
C63 C 1.04554 0.19731 0.06112 0.0
C64 C 0.8014 1.04347 0.96409 0.0
C65 C 0.72113 0.32227 0.95594 0.0
C66 C 0.71397 0.34297 0.9883 0.0
C67 C 0.06247 1.00131 0.00431 0.0
C68 C 0.41491 0.33848 0.04582 0.0
C69 C 0.52986 0.45153 0.0521 0.0
C70 C 0.58264 0.43116 0.07491 0.0
C71 C 0.46776 0.31551 0.06774 0.0
C72 C 0.44683 0.40441 0.03754 0.0
C73 C 0.55235 0.36156 0.08197 0.0
C74 C 0.08413 0.14132 0.94755 0.0
C75 C 0.32278 0.30519 0.03387 0.0
H76 H 0.51243 0.81143 0.91977 0.0
H77 H 0.69589 0.99021 0.90374 0.0
H78 H 0.56073 0.88279 0.88423 0.0
H79 H 0.72374 0.96801 0.99703 0.0
H80 H 0.64677 0.46836 0.0869 0.0
H81 H 0.44328 0.26435 0.07445 0.0
H82 H 0.40447 0.42253 0.02099 0.0
H83 H 0.59351 0.34476 0.09913 0.0
Tb84 Tb 0.0731 0.09994 0.32096 0.0
C85 C 0.3338 0.4027 0.39826 0.0
N86 N 0.26717 0.36341 0.40697 0.0
C87 C 0.36152 0.37749 0.45622 0.0
C88 C 0.41858 0.42601 0.41727 0.0
C89 C 0.27904 0.35373 0.43615 0.0
C90 C 0.43192 0.41287 0.44656 0.0
C91 C 0.38494 0.45393 0.359 0.0
C92 C 0.31659 0.41702 0.36966 0.0
C93 C 0.47041 0.47366 0.377 0.0
C94 C 0.48705 0.46047 0.40623 0.0
Tb95 Tb 0.13401 0.33037 0.37353 0.0
N96 N 0.23276 0.39733 0.35295 0.0
C97 C 0.36512 0.47185 0.33104 0.0
C98 C 0.21273 0.4231 0.32769 0.0
C99 C 0.2785 0.4581 0.31576 0.0
H100 H 0.22499 0.32764 0.44386 0.0
H101 H 0.26215 0.47561 0.29504 0.0
H102 H 1.05814 0.08768 0.24419 0.0
H103 H 0.86036 0.94484 0.3754 0.0
H104 H 0.14641 0.41832 0.31667 0.0
H105 H 0.41578 0.49953 0.32187 0.0
H106 H 0.99526 1.02889 0.37315 0.0
H107 H 0.37071 0.3684 0.47908 0.0
H108 H 0.52383 0.50097 0.36892 0.0
H109 H 0.55298 0.47729 0.42014 0.0
H110 H 0.94454 1.03843 0.19468 0.0
H111 H 0.49601 0.43019 0.46193 0.0
H112 H 0.73821 0.88899 0.32796 0.0
N113 N 0.9746 1.05336 0.27265 0.0
C114 C 0.89612 1.00958 0.27196 0.0
C115 C 0.92969 1.03091 0.21637 0.0
C116 C 0.83031 0.97694 0.24367 0.0
C117 C 0.99347 1.06059 0.24484 0.0
C118 C 0.84733 0.99 0.21588 0.0
N119 N 0.94864 1.02614 0.32587 0.0
C120 C 0.94202 1.00689 0.35265 0.0
C121 C 0.8054 0.94412 0.29919 0.0
C122 C 0.88349 0.99361 0.29924 0.0
C123 C 0.79708 0.92678 0.327 0.0
C124 C 0.86581 0.9583 0.35384 0.0
H125 H 0.79853 0.96622 0.19366 0.0
H126 H 0.69944 0.9051 0.22232 0.0
H127 H 0.67773 0.87624 0.27103 0.0
O128 O 0.13379 1.02027 0.33753 0.0
O129 O 0.96061 0.15271 0.33928 0.0
O130 O 0.99123 0.2929 0.35037 0.0
O131 O 0.09229 0.99299 0.28613 0.0
O132 O 0.12572 0.12971 0.37255 0.0
O133 O 0.07875 0.24753 0.3957 0.0
O134 O 0.14107 0.45795 0.3919 0.0
O135 O 0.2365 0.25241 0.37103 0.0
O136 O 0.2031 0.16468 0.31916 0.0
O137 O 0.09265 0.38244 0.417 0.0
O138 O 0.06903 0.30279 0.32242 0.0
O139 O 0.11824 0.18652 0.29862 0.0
C140 C 0.93415 0.22368 0.34473 0.0
C141 C 0.21747 0.94683 0.30378 0.0
C142 C 0.26673 0.82852 0.30757 0.0
C143 C 0.30067 0.81809 0.27955 0.0
C144 C 0.24848 0.93715 0.27523 0.0
C145 C 0.29572 0.87566 0.26436 0.0
C146 C 0.24536 0.90386 0.32305 0.0
C147 C 0.10453 0.18178 0.39746 0.0
C148 C 0.13549 0.97321 0.30837 0.0
C149 C 0.75092 0.93022 0.24376 0.0
C150 C 0.73862 0.91355 0.27144 0.0
C151 C 0.2635 0.21041 0.34499 0.0
C152 C 1.0249 0.4916 0.41742 0.0
C153 C 0.91016 0.54014 0.39116 0.0
C154 C 0.88127 0.56748 0.42036 0.0
C155 C 0.99607 0.5194 0.44648 0.0
C156 C 0.97989 0.49934 0.38993 0.0
C157 C 0.92354 0.5561 0.44776 0.0
C158 C 0.08266 0.24721 0.29631 0.0
C159 C 0.10211 0.45494 0.41522 0.0
H160 H 0.3198 0.76104 0.26732 0.0
H161 H 0.23028 0.97154 0.26019 0.0
H162 H 0.31771 0.8659 0.2419 0.0
H163 H 0.2205 0.91199 0.34501 0.0
H164 H 0.82841 0.60005 0.42229 0.0
H165 H 1.02984 0.51333 0.46808 0.0
H166 H 1.0043 0.47852 0.36791 0.0
H167 H 0.90183 0.57822 0.47031 0.0
Tb168 Tb 0.17615 0.21251 0.6932 0.0
C169 C 0.23708 0.88774 0.60263 0.0
N170 N 0.1813 0.93739 0.59909 0.0
C171 C 0.2027 0.91378 0.54501 0.0
C172 C 0.27993 0.85136 0.57776 0.0
C173 C 0.16088 0.94748 0.57015 0.0
C174 C 0.26325 0.86623 0.54894 0.0
C175 C 0.30556 0.8191 0.63533 0.0
C176 C 0.24911 0.87092 0.63094 0.0
C177 C 0.34848 0.78321 0.61065 0.0
C178 C 0.33593 0.79941 0.582 0.0
Tb179 Tb 0.11105 0.98063 0.64094 0.0
N180 N 0.20694 0.90722 0.65451 0.0
C181 C 0.31736 0.80515 0.66445 0.0
C182 C 0.21585 0.89147 0.68249 0.0
C183 C 0.27223 0.84143 0.68809 0.0
H184 H 0.10782 0.97601 0.56543 0.0
H185 H 0.27997 0.83 0.71049 0.0
H186 H 0.14277 0.23056 0.76542 0.0
H187 H 0.06314 0.36544 0.61207 0.0
H188 H 0.17908 0.91627 0.70046 0.0
H189 H 0.36067 0.76613 0.66883 0.0
H190 H 0.16397 0.29644 0.63435 0.0
H191 H 0.186 0.92223 0.52223 0.0
H192 H 0.39079 0.74212 0.6133 0.0
H193 H 0.36898 0.77055 0.56308 0.0
H194 H 1.04592 0.29035 0.80089 0.0
H195 H 0.29442 0.83894 0.5292 0.0
H196 H 0.94604 0.41154 0.63973 0.0
N197 N 0.08787 0.26475 0.72699 0.0
C198 C 1.03407 0.30937 0.71759 0.0
C199 C 1.0408 0.29491 0.77731 0.0
C200 C 0.97726 0.34444 0.73696 0.0
C201 C 0.09478 0.26008 0.75697 0.0
C202 C 0.9808 0.33626 0.76708 0.0
N203 N 0.09693 0.28912 0.67171 0.0
C204 C 0.10989 0.30989 0.64565 0.0
C205 C 0.98083 0.36455 0.67762 0.0
C206 C 1.03675 0.31964 0.68848 0.0
C207 C 0.98826 0.37799 0.64905 0.0
C208 C 1.05408 0.35179 0.63333 0.0
H209 H 0.93887 0.363 0.78286 0.0
H210 H 0.875 0.41391 0.74017 0.0
H211 H 0.8773 0.43074 0.68797 0.0
O212 O 0.24464 0.33503 0.71165 0.0
O213 O 1.03854 0.15034 0.69002 0.0
O214 O 1.00249 1.0489 0.63997 0.0
O215 O 0.26777 0.25256 0.73666 0.0
O216 O 0.19422 0.17939 0.64283 0.0
O217 O 0.08286 1.06798 0.6181 0.0
O218 O 1.02467 0.88591 0.64599 0.0
O219 O 0.2559 1.03172 0.66178 0.0
O220 O 0.28215 0.16888 0.66839 0.0
O221 O 1.03961 0.88573 0.59829 0.0
O222 O 0.08726 1.01116 0.69034 0.0
O223 O 0.20082 0.11918 0.7136 0.0
C224 C 0.97812 0.1003 0.66473 0.0
C225 C 0.38886 0.34601 0.73674 0.0
C226 C 0.50646 0.42633 0.72475 0.0
C227 C 0.56413 0.38071 0.73352 0.0
C228 C 0.44703 0.30078 0.74603 0.0
C229 C 0.53443 0.31851 0.74451 0.0
C230 C 0.41987 0.40996 0.72684 0.0
C231 C 0.13963 0.12726 0.61666 0.0
C232 C 0.29507 0.32348 0.73468 0.0
C233 C 0.91985 0.38716 0.72581 0.0
C234 C 0.92115 0.39665 0.69608 0.0
C235 C 0.31097 0.09987 0.6648 0.0
C236 C 0.93541 0.77337 0.59933 0.0
C237 C 0.80895 0.68684 0.60324 0.0
C238 C 0.79182 0.64274 0.56986 0.0
C239 C 0.91942 0.72912 0.56585 0.0
C240 C 0.88087 0.75093 0.61783 0.0
C241 C 0.84789 0.6635 0.55123 0.0
C242 C 0.13967 1.06559 0.71642 0.0
C243 C 1.00012 0.84975 0.61469 0.0
H244 H 0.63119 0.39216 0.73124 0.0
H245 H 0.42487 0.25067 0.75374 0.0
H246 H 0.57858 0.2827 0.75109 0.0
H247 H 0.37584 0.44469 0.71918 0.0
H248 H 0.7361 0.59237 0.55846 0.0
H249 H 0.96068 0.74637 0.55098 0.0
H250 H 0.89198 0.78549 0.64362 0.0
H251 H 0.83519 0.62965 0.52543 0.0
C252 C 0.12821 0.49018 0.99739 0.0
C253 C 1.06148 0.43866 0.00498 0.0
C254 C 0.12777 0.57442 0.99641 0.0
C255 C 1.06101 0.62258 0.00503 0.0
C256 C 0.99389 0.57124 0.01347 0.0
C257 C 0.99394 0.48503 0.0125 0.0
C258 C 0.20253 0.61035 0.98508 0.0
C259 C 0.91916 0.60733 0.02496 0.0
C260 C 0.13099 0.87926 0.02233 0.0
C261 C 0.06354 0.90476 0.00469 0.0
C262 C 0.12995 0.79466 0.02341 0.0
C263 C 1.0616 0.72081 0.00509 0.0
C264 C 0.99396 0.74627 0.98682 0.0
C265 C 0.99506 0.8322 0.98745 0.0
C266 C 0.20462 0.78687 0.04615 0.0
C267 C 0.91685 0.68169 0.96498 0.0
H268 H 0.18315 0.46323 0.991 0.0
H269 H 0.93928 0.4543 0.01892 0.0
H270 H 0.19099 0.66339 0.97818 0.0
H271 H 0.26061 0.63005 0.00488 0.0
H272 H 0.2167 0.56274 0.96401 0.0
H273 H 0.90314 0.58953 0.04532 0.0
H274 H 0.93285 0.67546 0.03302 0.0
H275 H 0.86092 0.58163 0.00502 0.0
H276 H 0.18672 0.92742 0.03674 0.0
H277 H 0.93957 0.84177 0.9731 0.0
H278 H 0.26004 0.77875 0.03396 0.0
H279 H 0.18788 0.73379 0.05377 0.0
H280 H 0.22645 0.84384 0.06803 0.0
H281 H 0.89747 0.69314 0.94231 0.0
H282 H 0.86102 0.68555 0.97721 0.0
H283 H 0.92958 0.61855 0.95859 0.0
C284 C 0.42515 0.23543 0.37385 0.0
C285 C 0.36189 0.21239 0.34502 0.0
C286 C 0.51637 0.2398 0.37438 0.0
C287 C 0.54932 0.2201 0.34529 0.0
C288 C 0.48539 0.19537 0.31601 0.0
C289 C 0.39447 0.19156 0.31622 0.0
C290 C 0.5779 0.2664 0.40658 0.0
C291 C 0.51308 0.17206 0.28399 0.0
C292 C 0.79911 0.29473 0.3477 0.0
C293 C 0.83572 0.2245 0.34504 0.0
C294 C 0.70837 0.29451 0.34789 0.0
C295 C 0.64869 0.22231 0.34532 0.0
C296 C 0.68546 0.15174 0.34291 0.0
C297 C 0.7762 0.15402 0.3431 0.0
C298 C 0.67635 0.37273 0.35117 0.0
C299 C 0.62874 1.07303 0.3408 0.0
H300 H 0.4031 0.24943 0.39642 0.0
H301 H 0.34852 0.17273 0.29346 0.0
H302 H 0.62262 0.22332 0.40595 0.0
H303 H 0.61807 0.32813 0.41187 0.0
H304 H 0.54316 0.26981 0.4266 0.0
H305 H 0.45865 0.16167 0.26358 0.0
H306 H 0.56621 0.22103 0.28445 0.0
H307 H 0.53873 0.11483 0.27952 0.0
H308 H 0.84161 0.35074 0.34969 0.0
H309 H 0.80086 0.09971 0.34223 0.0
H310 H 0.65713 0.39647 0.37484 0.0
H311 H 0.61787 0.36042 0.33208 0.0
H312 H 0.72657 0.42125 0.34961 0.0
H313 H 0.60849 0.08197 0.36418 0.0
H314 H 0.6626 1.02075 0.33529 0.0
H315 H 0.56892 1.0565 0.32189 0.0
C316 C 0.78941 0.63616 0.64684 0.0
C317 C 0.75434 0.66681 0.62399 0.0
C318 C 0.74077 0.61929 0.6681 0.0
C319 C 0.65526 0.63362 0.66613 0.0
C320 C 0.62317 0.67269 0.64535 0.0
C321 C 0.673 0.68782 0.62391 0.0
C322 C 0.77863 0.58046 0.6909 0.0
C323 C 0.5353 0.69509 0.64458 0.0
C324 C 0.52502 0.45441 0.67595 0.0
C325 C 0.53291 0.48397 0.7094 0.0
C326 C 0.55662 0.50621 0.66072 0.0
C327 C 0.59547 0.58936 0.67967 0.0
C328 C 0.59349 0.6216 0.7129 0.0
C329 C 0.56297 0.56766 0.72764 0.0
C330 C 0.5558 0.47006 0.62497 0.0
C331 C 0.62909 0.71104 0.73344 0.0
H332 H 0.85433 0.62372 0.64752 0.0
H333 H 0.64865 0.71595 0.60721 0.0
H334 H 0.77007 0.61298 0.71575 0.0
H335 H 0.74406 0.51541 0.68307 0.0
H336 H 0.84891 0.58164 0.69167 0.0
H337 H 0.53614 0.75191 0.63892 0.0
H338 H 0.48664 0.6446 0.62531 0.0
H339 H 0.51448 0.70505 0.66791 0.0
H340 H 0.49705 0.39008 0.66197 0.0
H341 H 0.56502 0.59023 0.75344 0.0
H342 H 0.62319 0.46879 0.62134 0.0
H343 H 0.52926 0.50871 0.61241 0.0
H344 H 0.51658 0.40631 0.61341 0.0
H345 H 0.69691 0.71847 0.74592 0.0
H346 H 0.59083 0.7324 0.75235 0.0
H347 H 0.62868 0.75094 0.71883 0.0
C348 C 0.84946 0.13456 0.69319 0.0
C349 C 0.88012 0.10024 0.66453 0.0
C350 C 0.75914 0.13395 0.69348 0.0
C351 C 0.69395 0.09921 0.66434 0.0
C352 C 0.72472 1.06519 0.63528 0.0
C353 C 0.81536 1.06541 0.63575 0.0
C354 C 0.73342 0.17061 0.72545 0.0
C355 C 0.66149 1.02925 0.60319 0.0
C356 C 0.44694 1.03272 0.66631 0.0
C357 C 0.40906 0.09949 0.66453 0.0
C358 C 0.53709 1.03157 0.66615 0.0
C359 C 0.59509 0.09905 0.66426 0.0
C360 C 0.55737 0.16664 0.66241 0.0
C361 C 0.46698 0.16633 0.66275 0.0
C362 C 0.57045 0.95726 0.66823 0.0
C363 C 0.6131 0.24007 0.65986 0.0
H364 H 0.89641 0.16112 0.71587 0.0
H365 H 0.83568 1.03881 0.61315 0.0
H366 H 0.70431 0.22431 0.72579 0.0
H367 H 0.68341 0.12484 0.7287 0.0
H368 H 0.78953 0.19106 0.74619 0.0
H369 H 0.6935 1.00317 0.58275 0.0
H370 H 0.60976 0.98011 0.60342 0.0
H371 H 0.6295 1.07773 0.59894 0.0
H372 H 0.40614 0.98093 0.66839 0.0
H373 H 0.44155 0.21923 0.66147 0.0
H374 H 0.62521 0.97635 0.68933 0.0
H375 H 0.59574 0.92807 0.6463 0.0
H376 H 0.51936 0.91058 0.67048 0.0
H377 H 0.66382 0.27145 0.68224 0.0
H378 H 0.5748 0.28503 0.65608 0.0
H379 H 0.64684 0.21995 0.63947 0.0
C380 C 0.67204 0.81086 0.9947 0.0
C381 C 0.60118 0.83569 0.98088 0.0
C382 C 0.66098 0.76145 0.01294 0.0
C383 C 0.57665 0.73471 0.01672 0.0
C384 C 0.50592 0.76417 0.00472 0.0
C385 C 0.5189 0.81393 0.98649 0.0
C386 C 0.73827 0.7318 0.02551 0.0
C387 C 0.41536 0.7383 0.00866 0.0
C388 C 0.54589 0.51565 0.01171 0.0
C389 C 0.55489 0.52481 0.04429 0.0
C390 C 0.54804 0.58373 0.00245 0.0
C391 C 0.56142 0.66298 0.02651 0.0
C392 C 0.57075 0.67285 0.05951 0.0
C393 C 0.56785 0.60313 0.06809 0.0
C394 C 0.53588 0.57076 0.96688 0.0
C395 C 0.58387 0.7565 0.08567 0.0
H396 H 0.73599 0.82746 0.99016 0.0
H397 H 0.46469 0.83436 0.97615 0.0
H398 H 0.73847 0.73402 0.05052 0.0
H399 H 0.73434 0.6668 0.01006 0.0
H400 H 0.80072 0.769 0.02537 0.0
H401 H 0.37653 0.78543 0.00787 0.0
H402 H 0.38379 0.68037 0.9882 0.0
H403 H 0.41514 0.72733 0.03161 0.0
H404 H 0.53364 0.45446 0.99337 0.0
H405 H 0.57185 0.60935 0.09316 0.0
H406 H 0.59556 0.60148 0.96206 0.0
H407 H 0.48194 0.59881 0.95979 0.0
H408 H 0.52127 0.50456 0.95125 0.0
H409 H 0.65321 0.78743 0.09148 0.0
H410 H 0.56631 0.75176 0.10816 0.0
H411 H 0.54481 0.79608 0.07761 0.0
C412 C 0.89762 0.52322 0.33361 0.0
C413 C 0.8855 0.56955 0.36435 0.0
C414 C 0.95037 0.56162 0.3182 0.0
C415 C 0.9748 0.64847 0.33069 0.0
C416 C 0.93494 0.69466 0.35488 0.0
C417 C 0.89193 0.65451 0.37231 0.0
C418 C 0.99094 0.5095 0.29231 0.0
C419 C 0.94693 0.78679 0.36507 0.0
C420 C 0.20923 0.7458 0.33806 0.0
C421 C 0.20507 0.7598 0.30905 0.0
C422 C 0.13454 0.70875 0.34522 0.0
C423 C 1.0534 0.68844 0.32331 0.0
C424 C 1.04933 0.70173 0.29386 0.0
C425 C 0.12565 0.73463 0.28666 0.0
C426 C 0.14214 0.69473 0.37688 0.0
C427 C 0.96434 0.68948 0.27116 0.0
H428 H 0.8854 0.45669 0.326 0.0
H429 H 0.87604 0.69115 0.39466 0.0
H430 H 0.97892 0.5253 0.27034 0.0
H431 H 0.06237 0.52239 0.30106 0.0
H432 H 0.96563 0.44255 0.28555 0.0
H433 H 0.8918 0.80831 0.37561 0.0
H434 H 1.00721 0.81701 0.38381 0.0
H435 H 0.95214 0.80652 0.34423 0.0
H436 H 0.26946 0.76898 0.356 0.0
H437 H 0.12115 0.75001 0.26506 0.0
H438 H 0.1104 0.63065 0.37274 0.0
H439 H 0.10879 0.73668 0.39321 0.0
H440 H 0.21081 0.70623 0.38946 0.0
H441 H 0.97227 0.6686 0.24566 0.0
H442 H 0.94404 0.74957 0.27663 0.0
H443 H 0.91126 0.64497 0.27347 0.0
C444 C 0.99316 0.24527 0.24453 0.0
C445 C 0.07468 0.25937 0.26457 0.0
C446 C 0.98509 0.2356 0.21146 0.0
C447 C 1.06035 0.24347 0.19817 0.0
C448 C 0.14285 0.26169 0.21892 0.0
C449 C 0.1488 0.26746 0.25138 0.0
C450 C 0.89576 0.21252 0.19027 0.0
C451 C 0.22523 0.271 0.20642 0.0
C452 C 1.04428 0.14152 0.10615 0.0
C453 C 1.04441 0.20829 0.09575 0.0
C454 C 1.05079 0.15197 0.13916 0.0
C455 C 1.05329 0.23072 0.16258 0.0
C456 C 1.05146 0.29799 0.15192 0.0
C457 C 1.04853 0.2863 0.11893 0.0
C458 C 1.05414 1.07765 0.1485 0.0
C459 C 1.05368 0.38289 0.17552 0.0
H460 H 0.9354 0.23593 0.25411 0.0
H461 H 0.21193 0.27606 0.26637 0.0
H462 H 0.88708 0.25893 0.17903 0.0
H463 H 0.88854 0.1525 0.17037 0.0
H464 H 0.84358 0.20754 0.2039 0.0
H465 H 0.28403 0.29386 0.22618 0.0
H466 H 0.22982 0.21044 0.18913 0.0
H467 H 0.22445 0.31416 0.19321 0.0
H468 H 1.04225 0.08121 0.08853 0.0
H469 H 1.04883 0.33835 0.11117 0.0
H470 H 0.98717 1.04892 0.14818 0.0
H471 H 0.09408 0.09392 0.17303 0.0
H472 H 0.08051 1.0309 0.13099 0.0
H473 H 0.99812 0.38129 0.18781 0.0
H474 H 1.05085 0.42872 0.16357 0.0
H475 H 0.11394 0.4037 0.1945 0.0
C476 C 0.12621 0.09316 0.43123 0.0
C477 C 0.11091 0.16767 0.42873 0.0
C478 C 0.13207 0.08084 0.46095 0.0
C479 C 0.12759 0.1462 0.48925 0.0
C480 C 0.1142 0.22182 0.4869 0.0
C481 C 0.10256 0.23032 0.45666 0.0
C482 C 0.14067 0.99737 0.46183 0.0
C483 C 0.11234 0.29435 0.51647 0.0
C484 C 1.05835 0.11656 0.56298 0.0
C485 C 0.13789 0.13669 0.58488 0.0
C486 C 1.05456 0.11553 0.53137 0.0
C487 C 0.13221 0.13585 0.52124 0.0
C488 C 0.21301 0.15514 0.54313 0.0
C489 C 0.21487 0.1559 0.57478 0.0
C490 C 0.96707 0.09348 0.50889 0.0
C491 C 0.29739 0.1759 0.53321 0.0
H492 H 0.13184 1.04379 0.40985 0.0
H493 H 0.08919 0.28766 0.45521 0.0
H494 H 0.19744 1.00321 0.48058 0.0
H495 H 0.08227 0.96998 0.46845 0.0
H496 H 0.14761 0.95431 0.43816 0.0
H497 H 0.10967 0.35115 0.51105 0.0
H498 H 1.05496 0.28016 0.52653 0.0
H499 H 0.17097 0.30679 0.53551 0.0
H500 H 0.99871 0.1007 0.57057 0.0
H501 H 0.27656 0.16931 0.59135 0.0
H502 H 0.96761 1.04645 0.48521 0.0
H503 H 0.95237 0.14875 0.50432 0.0
H504 H 0.91401 1.06955 0.51902 0.0
H505 H 0.3014 0.12652 0.51067 0.0
H506 H 0.35478 0.18416 0.5522 0.0
H507 H 0.30013 0.23345 0.52803 0.0
C508 C 1.04758 1.05777 0.75685 0.0
C509 C 0.12997 1.0679 0.74927 0.0
C510 C 1.03814 1.07034 0.78891 0.0
C511 C 0.11272 0.09035 0.81389 0.0
C512 C 0.19597 0.09875 0.80605 0.0
C513 C 0.20354 0.08875 0.77409 0.0
C514 C 0.94842 1.06533 0.79626 0.0
C515 C 0.27735 0.11985 0.83164 0.0
C516 C 0.10593 0.19479 0.90332 0.0
C517 C 0.09217 0.12769 0.91346 0.0
C518 C 0.11055 0.18359 0.871 0.0
C519 C 0.10427 0.10331 0.84824 0.0
C520 C 0.09194 1.03544 0.85864 0.0
C521 C 0.08409 1.04823 0.89084 0.0
C522 C 0.11842 0.25785 0.86119 0.0
C523 C 0.08836 0.94925 0.83582 0.0
H524 H 0.99053 1.04394 0.73798 0.0
H525 H 0.2674 0.09758 0.76847 0.0
H526 H 0.93529 1.01798 0.80714 0.0
H527 H 0.9443 0.12513 0.81423 0.0
H528 H 0.89708 1.05017 0.77433 0.0
H529 H 0.33696 0.12057 0.82148 0.0
H530 H 0.28218 0.18137 0.85028 0.0
H531 H 0.27453 1.07461 0.84393 0.0
H532 H 0.1103 0.25621 0.92053 0.0
H533 H 0.07371 0.99616 0.89858 0.0
H534 H 1.05313 0.25973 0.84919 0.0
H535 H 0.16196 0.25489 0.84383 0.0
H536 H 0.1427 0.3161 0.88241 0.0
H537 H 1.03224 0.93078 0.81527 0.0
H538 H 0.08249 0.90359 0.8479 0.0
H539 H 0.14788 0.94727 0.82563 0.0
loop_
_geom_bond_atom_site_label_1
_geom_bond_atom_site_label_2
_geom_bond_distance
_geom_bond_site_symmetry_2
_ccdc_geom_bond_type
Tb0 N29 2.617 . S
Tb0 N35 2.572 1_556 S
Tb0 O44 2.465 1_546 S
Tb0 O45 2.387 . S
Tb0 O47 2.428 1_545 S
Tb0 O48 2.308 1_556 S
Tb0 O52 2.349 1_545 S
Tb0 O55 2.393 . S
Tb0 C64 2.802 1_545 S
C1 N2 1.379 . S
C1 C4 1.416 . S
C1 C8 1.424 . S
N2 C1 1.379 . S
N2 C5 1.334 . S
N2 Tb11 2.617 . S
C3 C5 1.390 . S
C3 C6 1.339 . S
C3 H23 0.930 . S
C4 C1 1.416 . S
C4 C6 1.416 . S
C4 C10 1.448 . S
C5 N2 1.334 . S
C5 C3 1.390 . S
C5 H16 0.930 . S
C6 C3 1.339 . S
C6 C4 1.416 . S
C6 H27 0.930 . S
C7 C8 1.413 . S
C7 C9 1.427 . S
C7 C13 1.416 1_554 S
C8 C1 1.424 . S
C8 C7 1.413 . S
C8 N12 1.361 . S
C9 C7 1.427 . S
C9 C10 1.328 . S
C9 H24 0.929 1_545 S
C10 C4 1.448 . S
C10 C9 1.328 . S
C10 H25 0.930 . S
Tb11 N2 2.617 . S
Tb11 N12 2.572 . S
Tb11 O46 2.349 . S
Tb11 O49 2.393 . S
Tb11 O50 2.465 . S
Tb11 O51 2.387 . S
Tb11 O53 2.428 . S
Tb11 O54 2.308 1_554 S
Tb11 C75 2.802 . S
N12 C8 1.361 . S
N12 Tb11 2.572 . S
N12 C14 1.340 1_554 S
C13 C7 1.416 1_556 S
C13 C15 1.332 . S
C13 H21 0.931 1_545 S
C14 N12 1.340 1_556 S
C14 C15 1.407 . S
C14 H20 0.930 . S
C15 C13 1.332 . S
C15 C14 1.407 . S
C15 H17 0.929 . S
H16 C5 0.930 . S
H17 C15 0.929 . S
H18 C33 0.930 . S
H19 C40 0.929 . S
H20 C14 0.930 . S
H21 C13 0.931 1_565 S
H22 C36 0.930 . S
H23 C3 0.930 . S
H24 C9 0.929 1_565 S
H25 C10 0.930 . S
H26 C31 0.930 . S
H27 C6 0.930 . S
H28 C39 0.931 . S
N29 Tb0 2.617 . S
N29 C30 1.379 . S
N29 C33 1.334 . S
C30 N29 1.379 . S
C30 C32 1.416 . S
C30 C38 1.424 . S
C31 H26 0.930 . S
C31 C33 1.390 . S
C31 C34 1.339 . S
C32 C30 1.416 . S
C32 C34 1.416 . S
C32 C65 1.448 . S
C33 H18 0.930 . S
C33 N29 1.334 . S
C33 C31 1.390 . S
C34 C31 1.339 . S
C34 C32 1.416 . S
C34 H41 0.930 . S
N35 Tb0 2.572 1_554 S
N35 C36 1.340 . S
N35 C38 1.361 1_554 S
C36 H22 0.930 . S
C36 N35 1.340 . S
C36 C40 1.407 . S
C37 C38 1.418 . S
C37 C39 1.391 1_556 S
C37 C66 1.446 . S
C38 C30 1.424 . S
C38 N35 1.361 1_556 S
C38 C37 1.418 . S
C39 H28 0.931 . S
C39 C37 1.391 1_554 S
C39 C40 1.332 . S
C40 H19 0.929 . S
C40 C36 1.407 . S
C40 C39 1.332 . S
H41 C34 0.930 . S
H42 C65 0.930 . S
H43 C66 0.929 . S
O44 Tb0 2.465 1_564 S
O44 C64 1.264 1_554 S
O45 Tb0 2.387 . S
O45 C56 1.264 1_556 S
O46 Tb11 2.349 . S
O46 C56 1.243 1_455 S
O47 Tb0 2.428 1_565 S
O47 C64 1.256 . S
O48 Tb0 2.308 1_554 S
O48 C63 1.273 . S
O49 Tb11 2.393 . S
O49 C63 1.237 1_455 S
O50 Tb11 2.465 . S
O50 C75 1.264 . S
O51 Tb11 2.387 . S
O51 C67 1.264 1_545 S
O52 Tb0 2.349 1_565 S
O52 C67 1.243 1_656 S
O53 Tb11 2.428 . S
O53 C75 1.256 . S
O54 Tb11 2.308 1_556 S
O54 C74 1.266 . S
O55 Tb0 2.393 . S
O55 C74 1.248 1_655 S
C56 O45 1.264 1_554 S
C56 O46 1.243 1_655 S
C57 C60 1.399 . S
C57 C62 1.383 1_556 S
C57 C64 1.496 . S
C58 C59 1.399 1_554 S
C58 C62 1.389 . S
C59 C58 1.399 1_556 S
C59 C61 1.380 . S
C59 H76 0.929 . S
C60 C57 1.399 . S
C60 C61 1.392 . S
C60 H77 0.929 . S
C61 C59 1.380 . S
C61 C60 1.392 . S
C61 H78 0.929 . S
C62 C57 1.383 1_554 S
C62 C58 1.389 . S
C62 H79 0.931 . S
C63 O48 1.273 . S
C63 O49 1.237 1_655 S
C64 Tb0 2.802 1_565 S
C64 O44 1.264 1_556 S
C64 O47 1.256 . S
C64 C57 1.496 . S
C65 C32 1.448 . S
C65 H42 0.930 . S
C65 C66 1.328 . S
C66 C37 1.446 . S
C66 H43 0.929 . S
C66 C65 1.328 . S
C67 O51 1.264 1_565 S
C67 O52 1.243 1_454 S
C68 C71 1.399 . S
C68 C72 1.383 . S
C68 C75 1.496 . S
C69 C70 1.399 . S
C69 C72 1.389 . S
C70 C69 1.399 . S
C70 C73 1.380 . S
C70 H80 0.929 . S
C71 C68 1.399 . S
C71 C73 1.392 . S
C71 H81 0.929 . S
C72 C68 1.383 . S
C72 C69 1.389 . S
C72 H82 0.931 1_554 S
C73 C70 1.380 . S
C73 C71 1.392 . S
C73 H83 0.929 . S
C74 O54 1.266 . S
C74 O55 1.248 1_455 S
C75 Tb11 2.802 . S
C75 O50 1.264 . S
C75 O53 1.256 . S
C75 C68 1.496 . S
H76 C59 0.929 . S
H77 C60 0.929 . S
H78 C61 0.929 . S
H79 C62 0.931 . S
H80 C70 0.929 . S
H81 C71 0.929 . S
H82 C72 0.931 1_556 S
H83 C73 0.929 . S
Tb84 N113 2.617 1_545 S
Tb84 N119 2.572 1_545 S
Tb84 O128 2.465 1_645 S
Tb84 O129 2.387 . S
Tb84 O131 2.428 1_645 S
Tb84 O132 2.308 . S
Tb84 O136 2.349 1_655 S
Tb84 O139 2.393 1_655 S
Tb84 C148 2.802 1_645 S
C85 N86 1.379 . S
C85 C88 1.416 . S
C85 C92 1.424 . S
N86 C85 1.379 . S
N86 C89 1.334 . S
N86 Tb95 2.617 . S
C87 C89 1.390 . S
C87 C90 1.339 . S
C87 H107 0.930 . S
C88 C85 1.416 . S
C88 C90 1.416 . S
C88 C94 1.448 . S
C89 N86 1.334 . S
C89 C87 1.390 . S
C89 H100 0.930 . S
C90 C87 1.339 . S
C90 C88 1.416 . S
C90 H111 0.930 . S
C91 C92 1.413 . S
C91 C93 1.427 . S
C91 C97 1.416 . S
C92 C85 1.424 . S
C92 C91 1.413 . S
C92 N96 1.361 . S
C93 C91 1.427 . S
C93 C94 1.328 . S
C93 H108 0.929 . S
C94 C88 1.448 . S
C94 C93 1.328 . S
C94 H109 0.930 . S
Tb95 N86 2.617 . S
Tb95 N96 2.572 . S
Tb95 O130 2.349 1_455 S
Tb95 O133 2.393 . S
Tb95 O134 2.465 . S
Tb95 O135 2.387 . S
Tb95 O137 2.428 . S
Tb95 O138 2.308 . S
Tb95 C159 2.802 . S
N96 C92 1.361 . S
N96 Tb95 2.572 . S
N96 C98 1.340 . S
C97 C91 1.416 . S
C97 C99 1.332 . S
C97 H105 0.931 . S
C98 N96 1.340 . S
C98 C99 1.407 . S
C98 H104 0.930 . S
C99 C97 1.332 . S
C99 C98 1.407 . S
C99 H101 0.929 . S
H100 C89 0.930 . S
H101 C99 0.929 . S
H102 C117 0.930 . S
H103 C124 0.929 . S
H104 C98 0.930 . S
H105 C97 0.931 . S
H106 C120 0.930 . S
H107 C87 0.930 . S
H108 C93 0.929 . S
H109 C94 0.930 . S
H110 C115 0.930 . S
H111 C90 0.930 . S
H112 C123 0.931 . S
N113 Tb84 2.617 1_565 S
N113 C114 1.379 . S
N113 C117 1.334 . S
C114 N113 1.379 . S
C114 C116 1.416 . S
C114 C122 1.424 . S
C115 H110 0.930 . S
C115 C117 1.390 . S
C115 C118 1.339 . S
C116 C114 1.416 . S
C116 C118 1.416 . S
C116 C149 1.448 . S
C117 H102 0.930 . S
C117 N113 1.334 . S
C117 C115 1.390 . S
C118 C115 1.339 . S
C118 C116 1.416 . S
C118 H125 0.930 . S
N119 Tb84 2.572 1_565 S
N119 C120 1.340 . S
N119 C122 1.361 . S
C120 H106 0.930 . S
C120 N119 1.340 . S
C120 C124 1.407 . S
C121 C122 1.413 . S
C121 C123 1.416 . S
C121 C150 1.427 . S
C122 C114 1.424 . S
C122 N119 1.361 . S
C122 C121 1.413 . S
C123 H112 0.931 . S
C123 C121 1.416 . S
C123 C124 1.332 . S
C124 H103 0.929 . S
C124 C120 1.407 . S
C124 C123 1.332 . S
H125 C118 0.930 . S
H126 C149 0.930 . S
H127 C150 0.929 . S
O128 Tb84 2.465 1_465 S
O128 C148 1.264 . S
O129 Tb84 2.387 . S
O129 C140 1.264 . S
O130 Tb95 2.349 1_655 S
O130 C140 1.243 . S
O131 Tb84 2.428 1_465 S
O131 C148 1.256 . S
O132 Tb84 2.308 . S
O132 C147 1.266 1_655 S
O133 Tb95 2.393 . S
O133 C147 1.248 . S
O134 Tb95 2.465 . S
O134 C159 1.264 . S
O135 Tb95 2.387 . S
O135 C151 1.264 . S
O136 Tb84 2.349 1_455 S
O136 C151 1.243 . S
O137 Tb95 2.428 . S
O137 C159 1.256 . S
O138 Tb95 2.308 . S
O138 C158 1.266 . S
O139 Tb84 2.393 1_455 S
O139 C158 1.248 . S
C140 O129 1.264 . S
C140 O130 1.243 . S
C141 C144 1.399 . S
C141 C146 1.383 . S
C141 C148 1.496 . S
C142 C143 1.399 . S
C142 C146 1.389 . S
C143 C142 1.399 . S
C143 C145 1.380 . S
C143 H160 0.929 . S
C144 C141 1.399 . S
C144 C145 1.392 . S
C144 H161 0.929 . S
C145 C143 1.380 . S
C145 C144 1.392 . S
C145 H162 0.929 . S
C146 C141 1.383 . S
C146 C142 1.389 . S
C146 H163 0.931 . S
C147 O132 1.266 1_455 S
C147 O133 1.248 . S
C148 Tb84 2.802 1_465 S
C148 O128 1.264 . S
C148 O131 1.256 . S
C148 C141 1.496 . S
C149 C116 1.448 . S
C149 H126 0.930 . S
C149 C150 1.328 . S
C150 C121 1.427 . S
C150 H127 0.929 . S
C150 C149 1.328 . S
C151 O135 1.264 . S
C151 O136 1.243 . S
C152 C155 1.399 . S
C152 C156 1.383 1_455 S
C152 C159 1.496 . S
C153 C154 1.399 . S
C153 C156 1.389 . S
C154 C153 1.399 . S
C154 C157 1.380 1_655 S
C154 H164 0.929 . S
C155 C152 1.399 . S
C155 C157 1.391 . S
C155 H165 0.929 . S
C156 C152 1.383 1_655 S
C156 C153 1.389 . S
C156 H166 0.931 . S
C157 C154 1.380 1_455 S
C157 C155 1.391 . S
C157 H167 0.931 . S
C158 O138 1.266 . S
C158 O139 1.248 . S
C159 Tb95 2.802 . S
C159 O134 1.264 . S
C159 O137 1.256 . S
C159 C152 1.496 . S
H160 C143 0.929 . S
H161 C144 0.929 . S
H162 C145 0.929 . S
H163 C146 0.931 . S
H164 C154 0.929 . S
H165 C155 0.929 . S
H166 C156 0.931 . S
H167 C157 0.931 . S
Tb168 N197 2.617 . S
Tb168 N203 2.572 . S
Tb168 O212 2.465 . S
Tb168 O213 2.387 1_455 S
Tb168 O215 2.428 . S
Tb168 O216 2.308 . S
Tb168 O220 2.349 . S
Tb168 O223 2.393 . S
Tb168 C232 2.802 . S
C169 N170 1.379 . S
C169 C172 1.416 . S
C169 C176 1.424 . S
N170 C169 1.379 . S
N170 C173 1.334 . S
N170 Tb179 2.617 . S
C171 C173 1.390 . S
C171 C174 1.339 . S
C171 H191 0.930 . S
C172 C169 1.416 . S
C172 C174 1.416 . S
C172 C178 1.448 . S
C173 N170 1.334 . S
C173 C171 1.390 . S
C173 H184 0.930 . S
C174 C171 1.339 . S
C174 C172 1.416 . S
C174 H195 0.930 . S
C175 C176 1.413 . S
C175 C177 1.427 . S
C175 C181 1.416 . S
C176 C169 1.424 . S
C176 C175 1.413 . S
C176 N180 1.361 . S
C177 C175 1.427 . S
C177 C178 1.328 . S
C177 H192 0.929 . S
C178 C172 1.448 . S
C178 C177 1.328 . S
C178 H193 0.930 . S
Tb179 N170 2.617 . S
Tb179 N180 2.572 . S
Tb179 O214 2.349 1_455 S
Tb179 O217 2.393 . S
Tb179 O218 2.465 1_455 S
Tb179 O219 2.387 . S
Tb179 O221 2.428 1_455 S
Tb179 O222 2.308 . S
Tb179 C243 2.802 1_455 S
N180 C176 1.361 . S
N180 Tb179 2.572 . S
N180 C182 1.340 . S
C181 C175 1.416 . S
C181 C183 1.332 . S
C181 H189 0.931 . S
C182 N180 1.340 . S
C182 C183 1.407 . S
C182 H188 0.930 . S
C183 C181 1.332 . S
C183 C182 1.407 . S
C183 H185 0.929 . S
H184 C173 0.930 . S
H185 C183 0.929 . S
H186 C201 0.930 . S
H187 C208 0.929 . S
H188 C182 0.930 . S
H189 C181 0.931 . S
H190 C204 0.930 . S
H191 C171 0.930 . S
H192 C177 0.929 . S
H193 C178 0.930 . S
H194 C199 0.930 . S
H195 C174 0.930 . S
H196 C207 0.931 . S
N197 Tb168 2.617 . S
N197 C198 1.379 . S
N197 C201 1.334 . S
C198 N197 1.379 . S
C198 C200 1.416 . S
C198 C206 1.424 . S
C199 H194 0.930 . S
C199 C201 1.390 . S
C199 C202 1.339 . S
C200 C198 1.416 . S
C200 C202 1.416 . S
C200 C233 1.448 1_455 S
C201 H186 0.930 . S
C201 N197 1.334 . S
C201 C199 1.390 . S
C202 C199 1.339 . S
C202 C200 1.416 . S
C202 H209 0.930 . S
N203 Tb168 2.572 . S
N203 C204 1.340 . S
N203 C206 1.361 . S
C204 H190 0.930 . S
C204 N203 1.340 . S
C204 C208 1.407 1_455 S
C205 C206 1.413 1_655 S
C205 C207 1.416 . S
C205 C234 1.427 . S
C206 C198 1.424 . S
C206 N203 1.361 . S
C206 C205 1.413 1_455 S
C207 H196 0.931 . S
C207 C205 1.416 . S
C207 C208 1.332 . S
C208 H187 0.929 . S
C208 C204 1.407 1_655 S
C208 C207 1.332 . S
H209 C202 0.930 . S
H210 C233 0.930 . S
H211 C234 0.929 . S
O212 Tb168 2.465 . S
O212 C232 1.264 . S
O213 Tb168 2.387 1_655 S
O213 C224 1.264 . S
O214 Tb179 2.349 1_655 S
O214 C224 1.243 1_565 S
O215 Tb168 2.428 . S
O215 C232 1.256 . S
O216 Tb168 2.308 . S
O216 C231 1.266 . S
O217 Tb179 2.393 . S
O217 C231 1.248 1_565 S
O218 Tb179 2.465 1_655 S
O218 C243 1.264 . S
O219 Tb179 2.387 . S
O219 C235 1.264 1_565 S
O220 Tb168 2.349 . S
O220 C235 1.243 . S
O221 Tb179 2.428 1_655 S
O221 C243 1.256 . S
O222 Tb179 2.308 . S
O222 C242 1.266 1_565 S
O223 Tb168 2.393 . S
O223 C242 1.248 . S
C224 O213 1.264 . S
C224 O214 1.243 1_545 S
C225 C228 1.399 . S
C225 C230 1.383 . S
C225 C232 1.496 . S
C226 C227 1.399 . S
C226 C230 1.389 . S
C227 C226 1.399 . S
C227 C229 1.380 . S
C227 H244 0.929 . S
C228 C225 1.399 . S
C228 C229 1.392 . S
C228 H245 0.929 . S
C229 C227 1.380 . S
C229 C228 1.392 . S
C229 H246 0.929 . S
C230 C225 1.383 . S
C230 C226 1.389 . S
C230 H247 0.931 . S
C231 O216 1.266 . S
C231 O217 1.248 1_545 S
C232 Tb168 2.802 . S
C232 O212 1.264 . S
C232 O215 1.256 . S
C232 C225 1.496 . S
C233 C200 1.448 1_655 S
C233 H210 0.930 . S
C233 C234 1.328 . S
C234 C205 1.427 . S
C234 H211 0.929 . S
C234 C233 1.328 . S
C235 O219 1.264 1_545 S
C235 O220 1.243 . S
C236 C239 1.399 . S
C236 C240 1.383 . S
C236 C243 1.496 . S
C237 C238 1.399 . S
C237 C240 1.389 . S
C238 C237 1.399 . S
C238 C241 1.380 . S
C238 H248 0.929 . S
C239 C236 1.399 . S
C239 C241 1.392 . S
C239 H249 0.929 . S
C240 C236 1.383 . S
C240 C237 1.389 . S
C240 H250 0.931 . S
C241 C238 1.380 . S
C241 C239 1.392 . S
C241 H251 0.929 . S
C242 O222 1.266 1_545 S
C242 O223 1.248 . S
C243 Tb179 2.802 1_655 S
C243 O218 1.264 . S
C243 O221 1.256 . S
C243 C236 1.496 . S
H244 C227 0.929 . S
H245 C228 0.929 . S
H246 C229 0.929 . S
H247 C230 0.931 . S
H248 C238 0.929 . S
H249 C239 0.929 . S
H250 C240 0.931 . S
H251 C241 0.929 . S
C252 C253 1.391 1_456 S
C252 C254 1.394 . S
C252 H268 0.931 . S
C253 C252 1.391 1_654 S
C253 C257 1.376 . S
C254 C252 1.394 . S
C254 C255 1.369 1_456 S
C254 C258 1.531 . S
C255 C254 1.369 1_654 S
C255 C256 1.410 . S
C255 C263 1.518 . S
C256 C255 1.410 . S
C256 C257 1.392 . S
C256 C259 1.511 . S
C257 C253 1.376 . S
C257 C256 1.392 . S
C257 H269 0.929 . S
C258 C254 1.531 . S
C258 H270 0.960 . S
C258 H271 0.962 . S
C258 H272 0.960 . S
C259 C256 1.511 . S
C259 H273 0.961 . S
C259 H274 0.961 . S
C259 H275 0.961 . S
C260 C261 1.385 . S
C260 C262 1.363 . S
C260 H276 0.931 . S
C261 C260 1.385 . S
C261 C265 1.401 1_454 S
C262 C260 1.363 . S
C262 C263 1.382 1_455 S
C262 C266 1.524 . S
C263 C255 1.518 . S
C263 C262 1.382 1_655 S
C263 C264 1.377 1_554 S
C264 C263 1.377 1_556 S
C264 C265 1.404 . S
C264 C267 1.539 . S
C265 C261 1.401 1_656 S
C265 C264 1.404 . S
C265 H277 0.930 . S
C266 C262 1.524 . S
C266 H278 0.956 . S
C266 H279 0.961 . S
C266 H280 0.961 . S
C267 C264 1.539 . S
C267 H281 0.958 . S
C267 H282 0.961 . S
C267 H283 0.960 . S
H268 C252 0.931 . S
H269 C257 0.929 . S
H270 C258 0.960 . S
H271 C258 0.962 . S
H272 C258 0.960 . S
H273 C259 0.961 . S
H274 C259 0.961 . S
H275 C259 0.961 . S
H276 C260 0.931 . S
H277 C265 0.930 . S
H278 C266 0.956 . S
H279 C266 0.961 . S
H280 C266 0.961 . S
H281 C267 0.958 . S
H282 C267 0.961 . S
H283 C267 0.960 . S
C284 C285 1.391 . S
C284 C286 1.394 . S
C284 H300 0.931 . S
C285 C284 1.391 . S
C285 C289 1.376 . S
C286 C284 1.394 . S
C286 C287 1.369 . S
C286 C290 1.531 . S
C287 C286 1.369 . S
C287 C288 1.410 . S
C287 C295 1.503 . S
C288 C287 1.410 . S
C288 C289 1.392 . S
C288 C291 1.511 . S
C289 C285 1.376 . S
C289 C288 1.392 . S
C289 H301 0.929 . S
C290 C286 1.531 . S
C290 H302 0.960 . S
C290 H303 0.962 . S
C290 H304 0.960 . S
C291 C288 1.511 . S
C291 H305 0.961 . S
C291 H306 0.961 . S
C291 H307 0.961 . S
C292 C293 1.370 . S
C292 C294 1.363 . S
C292 H308 0.931 . S
C293 C292 1.370 . S
C293 C297 1.408 . S
C294 C292 1.363 . S
C294 C295 1.370 . S
C294 C298 1.524 . S
C295 C287 1.503 . S
C295 C294 1.370 . S
C295 C296 1.403 . S
C296 C295 1.403 . S
C296 C297 1.404 . S
C296 C299 1.539 1_545 S
C297 C293 1.408 . S
C297 C296 1.404 . S
C297 H309 0.930 . S
C298 C294 1.524 . S
C298 H310 0.956 . S
C298 H311 0.961 . S
C298 H312 0.961 . S
C299 C296 1.539 1_565 S
C299 H313 0.958 . S
C299 H314 0.961 . S
C299 H315 0.960 . S
H300 C284 0.931 . S
H301 C289 0.929 . S
H302 C290 0.960 . S
H303 C290 0.962 . S
H304 C290 0.960 . S
H305 C291 0.961 . S
H306 C291 0.961 . S
H307 C291 0.961 . S
H308 C292 0.931 . S
H309 C297 0.930 . S
H310 C298 0.956 . S
H311 C298 0.961 . S
H312 C298 0.961 . S
H313 C299 0.958 . S
H314 C299 0.961 . S
H315 C299 0.960 . S
C316 C317 1.391 . S
C316 C318 1.394 . S
C316 H332 0.931 . S
C317 C316 1.391 . S
C317 C321 1.376 . S
C318 C316 1.394 . S
C318 C319 1.369 . S
C318 C322 1.531 . S
C319 C318 1.369 . S
C319 C320 1.410 . S
C319 C327 1.503 . S
C320 C319 1.410 . S
C320 C321 1.392 . S
C320 C323 1.511 . S
C321 C317 1.376 . S
C321 C320 1.392 . S
C321 H333 0.929 . S
C322 C318 1.531 . S
C322 H334 0.960 . S
C322 H335 0.962 . S
C322 H336 0.960 . S
C323 C320 1.511 . S
C323 H337 0.961 . S
C323 H338 0.961 . S
C323 H339 0.961 . S
C324 C325 1.370 . S
C324 C326 1.363 . S
C324 H340 0.931 . S
C325 C324 1.370 . S
C325 C329 1.408 . S
C326 C324 1.363 . S
C326 C327 1.370 . S
C326 C330 1.524 . S
C327 C319 1.503 . S
C327 C326 1.370 . S
C327 C328 1.403 . S
C328 C327 1.403 . S
C328 C329 1.404 . S
C328 C331 1.539 . S
C329 C325 1.408 . S
C329 C328 1.404 . S
C329 H341 0.930 . S
C330 C326 1.524 . S
C330 H342 0.956 . S
C330 H343 0.961 . S
C330 H344 0.961 . S
C331 C328 1.539 . S
C331 H345 0.958 . S
C331 H346 0.961 . S
C331 H347 0.960 . S
H332 C316 0.931 . S
H333 C321 0.929 . S
H334 C322 0.960 . S
H335 C322 0.962 . S
H336 C322 0.960 . S
H337 C323 0.961 . S
H338 C323 0.961 . S
H339 C323 0.961 . S
H340 C324 0.931 . S
H341 C329 0.930 . S
H342 C330 0.956 . S
H343 C330 0.961 . S
H344 C330 0.961 . S
H345 C331 0.958 . S
H346 C331 0.961 . S
H347 C331 0.960 . S
C348 C349 1.391 . S
C348 C350 1.394 . S
C348 H364 0.931 . S
C349 C348 1.391 . S
C349 C353 1.376 1_545 S
C350 C348 1.394 . S
C350 C351 1.369 . S
C350 C354 1.531 . S
C351 C350 1.369 . S
C351 C352 1.410 . S
C351 C359 1.503 . S
C352 C351 1.410 . S
C352 C353 1.392 1_545 S
C352 C355 1.511 1_545 S
C353 C349 1.376 1_565 S
C353 C352 1.392 1_565 S
C353 H365 0.929 . S
C354 C350 1.531 . S
C354 H366 0.960 . S
C354 H367 0.962 . S
C354 H368 0.960 . S
C355 C352 1.511 1_565 S
C355 H369 0.961 . S
C355 H370 0.961 . S
C355 H371 0.961 1_565 S
C356 C357 1.370 1_565 S
C356 C358 1.363 . S
C356 H372 0.931 . S
C357 C356 1.370 1_545 S
C357 C361 1.408 . S
C358 C356 1.363 . S
C358 C359 1.370 1_565 S
C358 C362 1.524 . S
C359 C351 1.503 . S
C359 C358 1.370 1_545 S
C359 C360 1.403 . S
C360 C359 1.403 . S
C360 C361 1.404 . S
C360 C363 1.539 . S
C361 C357 1.408 . S
C361 C360 1.404 . S
C361 H373 0.930 . S
C362 C358 1.524 . S
C362 H374 0.956 . S
C362 H375 0.961 . S
C362 H376 0.961 . S
C363 C360 1.539 . S
C363 H377 0.958 . S
C363 H378 0.961 . S
C363 H379 0.960 . S
H364 C348 0.931 . S
H365 C353 0.929 . S
H366 C354 0.960 . S
H367 C354 0.962 . S
H368 C354 0.960 . S
H369 C355 0.961 . S
H370 C355 0.961 . S
H371 C355 0.961 1_545 S
H372 C356 0.931 . S
H373 C361 0.930 . S
H374 C362 0.956 . S
H375 C362 0.961 . S
H376 C362 0.961 . S
H377 C363 0.958 . S
H378 C363 0.961 . S
H379 C363 0.960 . S
C380 C381 1.391 . S
C380 C382 1.394 . S
C380 H396 0.931 . S
C381 C380 1.391 . S
C381 C385 1.376 . S
C382 C380 1.394 . S
C382 C383 1.369 . S
C382 C386 1.531 . S
C383 C382 1.369 . S
C383 C384 1.410 . S
C383 C391 1.503 . S
C384 C383 1.410 . S
C384 C385 1.392 . S
C384 C387 1.511 . S
C385 C381 1.376 . S
C385 C384 1.392 . S
C385 H397 0.929 . S
C386 C382 1.531 . S
C386 H398 0.960 . S
C386 H399 0.962 1_554 S
C386 H400 0.960 . S
C387 C384 1.511 . S
C387 H401 0.961 . S
C387 H402 0.961 . S
C387 H403 0.961 . S
C388 C389 1.370 . S
C388 C390 1.363 . S
C388 H404 0.931 . S
C389 C388 1.370 . S
C389 C393 1.408 1_556 S
C390 C388 1.363 . S
C390 C391 1.370 1_556 S
C390 C394 1.524 . S
C391 C383 1.503 . S
C391 C390 1.370 1_554 S
C391 C392 1.403 . S
C392 C391 1.403 . S
C392 C393 1.404 . S
C392 C395 1.539 . S
C393 C389 1.408 1_554 S
C393 C392 1.404 . S
C393 H405 0.930 . S
C394 C390 1.524 . S
C394 H406 0.956 . S
C394 H407 0.961 . S
C394 H408 0.961 . S
C395 C392 1.539 . S
C395 H409 0.958 . S
C395 H410 0.961 . S
C395 H411 0.960 . S
H396 C380 0.931 . S
H397 C385 0.929 . S
H398 C386 0.960 . S
H399 C386 0.962 1_556 S
H400 C386 0.960 . S
H401 C387 0.961 . S
H402 C387 0.961 . S
H403 C387 0.961 . S
H404 C388 0.931 . S
H405 C393 0.930 . S
H406 C394 0.956 . S
H407 C394 0.961 . S
H408 C394 0.961 . S
H409 C395 0.958 . S
H410 C395 0.961 . S
H411 C395 0.960 . S
C412 C413 1.391 . S
C412 C414 1.394 1_655 S
C412 H428 0.931 1_655 S
C413 C412 1.391 . S
C413 C417 1.376 . S
C414 C412 1.394 1_455 S
C414 C415 1.369 1_455 S
C414 C418 1.531 . S
C415 C414 1.369 1_655 S
C415 C416 1.410 . S
C415 C423 1.503 1_655 S
C416 C415 1.410 . S
C416 C417 1.392 . S
C416 C419 1.511 . S
C417 C413 1.376 . S
C417 C416 1.392 . S
C417 H429 0.929 . S
C418 C414 1.531 . S
C418 H430 0.960 . S
C418 H431 0.962 . S
C418 H432 0.960 . S
C419 C416 1.511 . S
C419 H433 0.961 . S
C419 H434 0.961 . S
C419 H435 0.961 . S
C420 C421 1.370 . S
C420 C422 1.363 . S
C420 H436 0.931 . S
C421 C420 1.370 . S
C421 C425 1.408 . S
C422 C420 1.363 . S
C422 C423 1.370 . S
C422 C426 1.524 . S
C423 C415 1.503 1_455 S
C423 C422 1.370 . S
C423 C424 1.403 . S
C424 C423 1.403 . S
C424 C425 1.404 . S
C424 C427 1.539 1_455 S
C425 C421 1.408 . S
C425 C424 1.404 . S
C425 H437 0.930 . S
C426 C422 1.524 . S
C426 H438 0.956 . S
C426 H439 0.961 . S
C426 H440 0.961 . S
C427 C424 1.539 1_655 S
C427 H441 0.958 . S
C427 H442 0.961 . S
C427 H443 0.960 . S
H428 C412 0.931 1_455 S
H429 C417 0.929 . S
H430 C418 0.960 . S
H431 C418 0.962 . S
H432 C418 0.960 . S
H433 C419 0.961 . S
H434 C419 0.961 . S
H435 C419 0.961 . S
H436 C420 0.931 . S
H437 C425 0.930 . S
H438 C426 0.956 . S
H439 C426 0.961 . S
H440 C426 0.961 . S
H441 C427 0.958 . S
H442 C427 0.961 . S
H443 C427 0.960 . S
C444 C445 1.391 1_655 S
C444 C446 1.394 . S
C444 H460 0.931 . S
C445 C444 1.391 1_455 S
C445 C449 1.376 . S
C446 C444 1.394 . S
C446 C447 1.369 . S
C446 C450 1.531 . S
C447 C446 1.369 . S
C447 C448 1.410 1_655 S
C447 C455 1.503 . S
C448 C447 1.410 1_455 S
C448 C449 1.392 . S
C448 C451 1.511 . S
C449 C445 1.376 . S
C449 C448 1.392 . S
C449 H461 0.929 . S
C450 C446 1.531 . S
C450 H462 0.960 . S
C450 H463 0.962 . S
C450 H464 0.960 . S
C451 C448 1.511 . S
C451 H465 0.961 . S
C451 H466 0.961 . S
C451 H467 0.961 . S
C452 C453 1.370 1_455 S
C452 C454 1.363 . S
C452 H468 0.931 . S
C453 C452 1.370 1_655 S
C453 C457 1.408 . S
C454 C452 1.363 . S
C454 C455 1.370 1_455 S
C454 C458 1.524 . S
C455 C447 1.503 . S
C455 C454 1.370 1_655 S
C455 C456 1.403 . S
C456 C455 1.403 . S
C456 C457 1.404 . S
C456 C459 1.539 . S
C457 C453 1.408 . S
C457 C456 1.404 . S
C457 H469 0.930 . S
C458 C454 1.524 . S
C458 H470 0.956 . S
C458 H471 0.961 . S
C458 H472 0.961 . S
C459 C456 1.539 . S
C459 H473 0.958 . S
C459 H474 0.961 . S
C459 H475 0.960 . S
H460 C444 0.931 . S
H461 C449 0.929 . S
H462 C450 0.960 . S
H463 C450 0.962 . S
H464 C450 0.960 . S
H465 C451 0.961 . S
H466 C451 0.961 . S
H467 C451 0.961 . S
H468 C452 0.931 . S
H469 C457 0.930 . S
H470 C458 0.956 . S
H471 C458 0.961 . S
H472 C458 0.961 . S
H473 C459 0.958 . S
H474 C459 0.961 . S
H475 C459 0.960 . S
C476 C477 1.391 . S
C476 C478 1.394 . S
C476 H492 0.926 1_445 S
C477 C476 1.391 . S
C477 C481 1.376 . S
C478 C476 1.394 . S
C478 C479 1.369 . S
C478 C482 1.530 1_445 S
C479 C478 1.369 . S
C479 C480 1.410 . S
C479 C487 1.503 . S
C480 C479 1.410 . S
C480 C481 1.392 . S
C480 C483 1.511 . S
C481 C477 1.376 . S
C481 C480 1.392 . S
C481 H493 0.929 . S
C482 C478 1.530 1_665 S
C482 H494 0.958 1_655 S
C482 H495 0.965 . S
C482 H496 0.957 1_655 S
C483 C480 1.511 . S
C483 H497 0.961 . S
C483 H498 0.961 . S
C483 H499 0.961 . S
C484 C485 1.370 . S
C484 C486 1.363 . S
C484 H500 0.931 1_455 S
C485 C484 1.370 . S
C485 C489 1.408 . S
C486 C484 1.363 . S
C486 C487 1.370 . S
C486 C490 1.524 1_455 S
C487 C479 1.503 . S
C487 C486 1.370 . S
C487 C488 1.403 . S
C488 C487 1.403 . S
C488 C489 1.404 . S
C488 C491 1.539 . S
C489 C485 1.408 . S
C489 C488 1.404 . S
C489 H501 0.930 . S
C490 C486 1.524 1_655 S
C490 H502 0.956 . S
C490 H503 0.961 . S
C490 H504 0.961 . S
C491 C488 1.539 . S
C491 H505 0.958 1_545 S
C491 H506 0.961 . S
C491 H507 0.960 . S
H492 C476 0.926 1_665 S
H493 C481 0.929 . S
H494 C482 0.958 1_455 S
H495 C482 0.965 . S
H496 C482 0.957 1_455 S
H497 C483 0.961 . S
H498 C483 0.961 . S
H499 C483 0.961 . S
H500 C484 0.931 1_655 S
H501 C489 0.930 . S
H502 C490 0.956 . S
H503 C490 0.961 . S
H504 C490 0.961 . S
H505 C491 0.958 1_565 S
H506 C491 0.961 . S
H507 C491 0.960 . S
C508 C509 1.391 1_565 S
C508 C510 1.394 1_455 S
C508 H524 0.931 1_455 S
C509 C508 1.391 1_545 S
C509 C513 1.376 . S
C510 C508 1.394 1_655 S
C510 C511 1.369 1_665 S
C510 C514 1.531 . S
C511 C510 1.369 1_445 S
C511 C512 1.410 . S
C511 C519 1.503 . S
C512 C511 1.410 . S
C512 C513 1.392 . S
C512 C515 1.511 . S
C513 C509 1.376 . S
C513 C512 1.392 . S
C513 H525 0.929 . S
C514 C510 1.531 . S
C514 H526 0.960 . S
C514 H527 0.962 1_565 S
C514 H528 0.960 . S
C515 C512 1.511 . S
C515 H529 0.961 . S
C515 H530 0.961 . S
C515 H531 0.961 . S
C516 C517 1.370 . S
C516 C518 1.363 . S
C516 H532 0.931 . S
C517 C516 1.370 . S
C517 C521 1.408 1_545 S
C518 C516 1.363 . S
C518 C519 1.370 . S
C518 C522 1.524 . S
C519 C511 1.503 . S
C519 C518 1.370 . S
C519 C520 1.403 1_545 S
C520 C519 1.403 1_565 S
C520 C521 1.404 . S
C520 C523 1.539 . S
C521 C517 1.408 1_565 S
C521 C520 1.404 . S
C521 H533 0.930 . S
C522 C518 1.524 . S
C522 H534 0.956 . S
C522 H535 0.961 . S
C522 H536 0.961 . S
C523 C520 1.539 . S
C523 H537 0.958 1_455 S
C523 H538 0.961 . S
C523 H539 0.960 . S
H524 C508 0.931 1_655 S
H525 C513 0.929 . S
H526 C514 0.960 . S
H527 C514 0.962 1_545 S
H528 C514 0.960 . S
H529 C515 0.961 . S
H530 C515 0.961 . S
H531 C515 0.961 . S
H532 C516 0.931 . S
H533 C521 0.930 . S
H534 C522 0.956 . S
H535 C522 0.961 . S
H536 C522 0.961 . S
H537 C523 0.958 1_655 S
H538 C523 0.961 . S
H539 C523 0.960 . S
C253 C56 4.285 . S
C261 C67 4.285 . S
C285 C151 2.611 . S
C293 C140 2.611 . S
C317 C237 0.746 . S
C325 C226 0.597 . S
C349 C224 2.579 . S
C357 C235 2.576 . S
C381 C58 0.883 . S
C389 C69 0.741 1_556 S
C413 C153 1.287 . S
C421 C142 1.195 . S
C445 C158 1.537 . S
C453 C63 1.532 . S
C477 C147 1.602 . S
C485 C231 1.586 . S
C509 C242 1.581 . S
C517 C74 1.568 . S
