# Generated by pormake.
# Topology ech, (8)-cn, num edge types: 1
# Building blocks:
#     Node 0, Type 0, BuildingBlock: AJUNOK_clean_sbu_0, # of connection points: 8
#     Node 1, Type 0, BuildingBlock: AJUNOK_clean_sbu_0, # of connection points: 8
#     Node 2, Type 0, BuildingBlock: AJUNOK_clean_sbu_0, # of connection points: 8
#     Node 3, Type 0, BuildingBlock: AJUNOK_clean_sbu_0, # of connection points: 8
#     Node 4, Type 0, BuildingBlock: AJUNOK_clean_sbu_0, # of connection points: 8
#     Node 5, Type 0, BuildingBlock: AJUNOK_clean_sbu_0, # of connection points: 8
#     Node 6, Type 0, BuildingBlock: AJUNOK_clean_sbu_0, # of connection points: 8
#     Node 7, Type 0, BuildingBlock: AJUNOK_clean_sbu_0, # of connection points: 8
#     Node 8, Type 0, BuildingBlock: AJUNOK_clean_sbu_0, # of connection points: 8
#     Node 9, Type 0, BuildingBlock: AJUNOK_clean_sbu_0, # of connection points: 8
#     Node 10, Type 0, BuildingBlock: AJUNOK_clean_sbu_0, # of connection points: 8
#     Node 11, Type 0, BuildingBlock: AJUNOK_clean_sbu_0, # of connection points: 8
#     Node 12, Type 0, BuildingBlock: AJUNOK_clean_sbu_0, # of connection points: 8
#     Node 13, Type 0, BuildingBlock: AJUNOK_clean_sbu_0, # of connection points: 8
#     Node 14, Type 0, BuildingBlock: AJUNOK_clean_sbu_0, # of connection points: 8
#     Node 15, Type 0, BuildingBlock: AJUNOK_clean_sbu_0, # of connection points: 8
#     Node 16, Type 0, BuildingBlock: AJUNOK_clean_sbu_0, # of connection points: 8
#     Node 17, Type 0, BuildingBlock: AJUNOK_clean_sbu_0, # of connection points: 8
#     Node 18, Type 0, BuildingBlock: AJUNOK_clean_sbu_0, # of connection points: 8
#     Node 19, Type 0, BuildingBlock: AJUNOK_clean_sbu_0, # of connection points: 8
#     Node 20, Type 0, BuildingBlock: AJUNOK_clean_sbu_0, # of connection points: 8
#     Node 21, Type 0, BuildingBlock: AJUNOK_clean_sbu_0, # of connection points: 8
#     Node 22, Type 0, BuildingBlock: AJUNOK_clean_sbu_0, # of connection points: 8
#     Node 23, Type 0, BuildingBlock: AJUNOK_clean_sbu_0, # of connection points: 8
#     Edge 24, Type (0, 0), BuildingBlock: XIVTED_clean_linker_0, # of connection points: 2
#     Edge 25, Type (0, 0), BuildingBlock: XIVTED_clean_linker_0, # of connection points: 2
#     Edge 26, Type (0, 0), BuildingBlock: XIVTED_clean_linker_0, # of connection points: 2
#     Edge 27, Type (0, 0), BuildingBlock: XIVTED_clean_linker_0, # of connection points: 2
#     Edge 28, Type (0, 0), BuildingBlock: XIVTED_clean_linker_0, # of connection points: 2
#     Edge 29, Type (0, 0), BuildingBlock: XIVTED_clean_linker_0, # of connection points: 2
#     Edge 30, Type (0, 0), BuildingBlock: XIVTED_clean_linker_0, # of connection points: 2
#     Edge 31, Type (0, 0), BuildingBlock: XIVTED_clean_linker_0, # of connection points: 2
#     Edge 32, Type (0, 0), BuildingBlock: XIVTED_clean_linker_0, # of connection points: 2
#     Edge 33, Type (0, 0), BuildingBlock: XIVTED_clean_linker_0, # of connection points: 2
#     Edge 34, Type (0, 0), BuildingBlock: XIVTED_clean_linker_0, # of connection points: 2
#     Edge 35, Type (0, 0), BuildingBlock: XIVTED_clean_linker_0, # of connection points: 2
#     Edge 36, Type (0, 0), BuildingBlock: XIVTED_clean_linker_0, # of connection points: 2
#     Edge 37, Type (0, 0), BuildingBlock: XIVTED_clean_linker_0, # of connection points: 2
#     Edge 38, Type (0, 0), BuildingBlock: XIVTED_clean_linker_0, # of connection points: 2
#     Edge 39, Type (0, 0), BuildingBlock: XIVTED_clean_linker_0, # of connection points: 2
#     Edge 40, Type (0, 0), BuildingBlock: XIVTED_clean_linker_0, # of connection points: 2
#     Edge 41, Type (0, 0), BuildingBlock: XIVTED_clean_linker_0, # of connection points: 2
#     Edge 42, Type (0, 0), BuildingBlock: XIVTED_clean_linker_0, # of connection points: 2
#     Edge 43, Type (0, 0), BuildingBlock: XIVTED_clean_linker_0, # of connection points: 2
#     Edge 44, Type (0, 0), BuildingBlock: XIVTED_clean_linker_0, # of connection points: 2
#     Edge 45, Type (0, 0), BuildingBlock: XIVTED_clean_linker_0, # of connection points: 2
#     Edge 46, Type (0, 0), BuildingBlock: XIVTED_clean_linker_0, # of connection points: 2
#     Edge 47, Type (0, 0), BuildingBlock: XIVTED_clean_linker_0, # of connection points: 2
#     Edge 48, Type (0, 0), BuildingBlock: XIVTED_clean_linker_0, # of connection points: 2
#     Edge 49, Type (0, 0), BuildingBlock: XIVTED_clean_linker_0, # of connection points: 2
#     Edge 50, Type (0, 0), BuildingBlock: XIVTED_clean_linker_0, # of connection points: 2
#     Edge 51, Type (0, 0), BuildingBlock: XIVTED_clean_linker_0, # of connection points: 2
#     Edge 52, Type (0, 0), BuildingBlock: XIVTED_clean_linker_0, # of connection points: 2
#     Edge 53, Type (0, 0), BuildingBlock: XIVTED_clean_linker_0, # of connection points: 2
#     Edge 54, Type (0, 0), BuildingBlock: XIVTED_clean_linker_0, # of connection points: 2
#     Edge 55, Type (0, 0), BuildingBlock: XIVTED_clean_linker_0, # of connection points: 2
#     Edge 56, Type (0, 0), BuildingBlock: XIVTED_clean_linker_0, # of connection points: 2
#     Edge 57, Type (0, 0), BuildingBlock: XIVTED_clean_linker_0, # of connection points: 2
#     Edge 58, Type (0, 0), BuildingBlock: XIVTED_clean_linker_0, # of connection points: 2
#     Edge 59, Type (0, 0), BuildingBlock: XIVTED_clean_linker_0, # of connection points: 2
#     Edge 60, Type (0, 0), BuildingBlock: XIVTED_clean_linker_0, # of connection points: 2
#     Edge 61, Type (0, 0), BuildingBlock: XIVTED_clean_linker_0, # of connection points: 2
#     Edge 62, Type (0, 0), BuildingBlock: XIVTED_clean_linker_0, # of connection points: 2
#     Edge 63, Type (0, 0), BuildingBlock: XIVTED_clean_linker_0, # of connection points: 2
#     Edge 64, Type (0, 0), BuildingBlock: XIVTED_clean_linker_0, # of connection points: 2
#     Edge 65, Type (0, 0), BuildingBlock: XIVTED_clean_linker_0, # of connection points: 2
#     Edge 66, Type (0, 0), BuildingBlock: XIVTED_clean_linker_0, # of connection points: 2
#     Edge 67, Type (0, 0), BuildingBlock: XIVTED_clean_linker_0, # of connection points: 2
#     Edge 68, Type (0, 0), BuildingBlock: XIVTED_clean_linker_0, # of connection points: 2
#     Edge 69, Type (0, 0), BuildingBlock: XIVTED_clean_linker_0, # of connection points: 2
#     Edge 70, Type (0, 0), BuildingBlock: XIVTED_clean_linker_0, # of connection points: 2
#     Edge 71, Type (0, 0), BuildingBlock: XIVTED_clean_linker_0, # of connection points: 2
#     Edge 72, Type (0, 0), BuildingBlock: XIVTED_clean_linker_0, # of connection points: 2
#     Edge 73, Type (0, 0), BuildingBlock: XIVTED_clean_linker_0, # of connection points: 2
#     Edge 74, Type (0, 0), BuildingBlock: XIVTED_clean_linker_0, # of connection points: 2
#     Edge 75, Type (0, 0), BuildingBlock: XIVTED_clean_linker_0, # of connection points: 2
#     Edge 76, Type (0, 0), BuildingBlock: XIVTED_clean_linker_0, # of connection points: 2
#     Edge 77, Type (0, 0), BuildingBlock: XIVTED_clean_linker_0, # of connection points: 2
#     Edge 78, Type (0, 0), BuildingBlock: XIVTED_clean_linker_0, # of connection points: 2
#     Edge 79, Type (0, 0), BuildingBlock: XIVTED_clean_linker_0, # of connection points: 2
#     Edge 80, Type (0, 0), BuildingBlock: XIVTED_clean_linker_0, # of connection points: 2
#     Edge 81, Type (0, 0), BuildingBlock: XIVTED_clean_linker_0, # of connection points: 2
#     Edge 82, Type (0, 0), BuildingBlock: XIVTED_clean_linker_0, # of connection points: 2
#     Edge 83, Type (0, 0), BuildingBlock: XIVTED_clean_linker_0, # of connection points: 2
#     Edge 84, Type (0, 0), BuildingBlock: XIVTED_clean_linker_0, # of connection points: 2
#     Edge 85, Type (0, 0), BuildingBlock: XIVTED_clean_linker_0, # of connection points: 2
#     Edge 86, Type (0, 0), BuildingBlock: XIVTED_clean_linker_0, # of connection points: 2
#     Edge 87, Type (0, 0), BuildingBlock: XIVTED_clean_linker_0, # of connection points: 2
#     Edge 88, Type (0, 0), BuildingBlock: XIVTED_clean_linker_0, # of connection points: 2
#     Edge 89, Type (0, 0), BuildingBlock: XIVTED_clean_linker_0, # of connection points: 2
#     Edge 90, Type (0, 0), BuildingBlock: XIVTED_clean_linker_0, # of connection points: 2
#     Edge 91, Type (0, 0), BuildingBlock: XIVTED_clean_linker_0, # of connection points: 2
#     Edge 92, Type (0, 0), BuildingBlock: XIVTED_clean_linker_0, # of connection points: 2
#     Edge 93, Type (0, 0), BuildingBlock: XIVTED_clean_linker_0, # of connection points: 2
#     Edge 94, Type (0, 0), BuildingBlock: XIVTED_clean_linker_0, # of connection points: 2
#     Edge 95, Type (0, 0), BuildingBlock: XIVTED_clean_linker_0, # of connection points: 2
#     Edge 96, Type (0, 0), BuildingBlock: XIVTED_clean_linker_0, # of connection points: 2
#     Edge 97, Type (0, 0), BuildingBlock: XIVTED_clean_linker_0, # of connection points: 2
#     Edge 98, Type (0, 0), BuildingBlock: XIVTED_clean_linker_0, # of connection points: 2
#     Edge 99, Type (0, 0), BuildingBlock: XIVTED_clean_linker_0, # of connection points: 2
#     Edge 100, Type (0, 0), BuildingBlock: XIVTED_clean_linker_0, # of connection points: 2
#     Edge 101, Type (0, 0), BuildingBlock: XIVTED_clean_linker_0, # of connection points: 2
#     Edge 102, Type (0, 0), BuildingBlock: XIVTED_clean_linker_0, # of connection points: 2
#     Edge 103, Type (0, 0), BuildingBlock: XIVTED_clean_linker_0, # of connection points: 2
#     Edge 104, Type (0, 0), BuildingBlock: XIVTED_clean_linker_0, # of connection points: 2
#     Edge 105, Type (0, 0), BuildingBlock: XIVTED_clean_linker_0, # of connection points: 2
#     Edge 106, Type (0, 0), BuildingBlock: XIVTED_clean_linker_0, # of connection points: 2
#     Edge 107, Type (0, 0), BuildingBlock: XIVTED_clean_linker_0, # of connection points: 2
#     Edge 108, Type (0, 0), BuildingBlock: XIVTED_clean_linker_0, # of connection points: 2
#     Edge 109, Type (0, 0), BuildingBlock: XIVTED_clean_linker_0, # of connection points: 2
#     Edge 110, Type (0, 0), BuildingBlock: XIVTED_clean_linker_0, # of connection points: 2
#     Edge 111, Type (0, 0), BuildingBlock: XIVTED_clean_linker_0, # of connection points: 2
#     Edge 112, Type (0, 0), BuildingBlock: XIVTED_clean_linker_0, # of connection points: 2
#     Edge 113, Type (0, 0), BuildingBlock: XIVTED_clean_linker_0, # of connection points: 2
#     Edge 114, Type (0, 0), BuildingBlock: XIVTED_clean_linker_0, # of connection points: 2
#     Edge 115, Type (0, 0), BuildingBlock: XIVTED_clean_linker_0, # of connection points: 2
#     Edge 116, Type (0, 0), BuildingBlock: XIVTED_clean_linker_0, # of connection points: 2
#     Edge 117, Type (0, 0), BuildingBlock: XIVTED_clean_linker_0, # of connection points: 2
#     Edge 118, Type (0, 0), BuildingBlock: XIVTED_clean_linker_0, # of connection points: 2
#     Edge 119, Type (0, 0), BuildingBlock: XIVTED_clean_linker_0, # of connection points: 2
# Relax obj value: 0.296
# Max RMSD: 0.230
# Mean RMSD: 0.230
data_MOF--net-ech--node1-AJUNOK_clean_sbu_0--edge1-XIVTED_clean_linker_0
_symmetry_space_group_name_H-M    P1
_symmetry_Int_Tables_number       1
_symmetry_cell_setting            triclinic
loop_
_symmetry_equiv_pos_as_xyz
'x, y, z'
_cell_length_a     51.844458
_cell_length_b     51.837946
_cell_length_c     51.867154
_cell_angle_alpha  89.999046
_cell_angle_beta   89.977852
_cell_angle_gamma 89.938286
loop_
_atom_site_label
_atom_site_type_symbol
_atom_site_fract_x
_atom_site_fract_y
_atom_site_fract_z
_atom_type_partial_charge
Cd0 Cd 0.14851 0.317 0.42059 0.0
Cd1 Cd 0.11977 0.27969 0.48788 0.0
C2 C 0.12264 0.37048 0.43691 0.0
N3 N 0.11564 0.34706 0.42743 0.0
C4 C 0.07413 0.36338 0.41575 0.0
C5 C 0.08114 0.38805 0.42447 0.0
C6 C 0.10556 0.3913 0.43577 0.0
C7 C 0.09179 0.34314 0.41724 0.0
H8 H 0.14204 0.37344 0.44394 0.0
H9 H 0.08679 0.32479 0.40886 0.0
C10 C 0.09803 0.26959 0.42489 0.0
C11 C 0.14234 0.22472 0.46989 0.0
C12 C 0.15858 0.20328 0.47132 0.0
C13 C 0.18269 0.2055 0.48354 0.0
C14 C 0.19093 0.23013 0.4914 0.0
C15 C 0.17419 0.2511 0.4893 0.0
N16 N 0.15011 0.2478 0.47958 0.0
H17 H 0.12292 0.22245 0.46268 0.0
H18 H 0.17969 0.26951 0.49735 0.0
C19 C 0.06509 0.30187 0.47624 0.0
N20 N 0.08895 0.31151 0.48096 0.0
C21 C 0.0725 0.35464 0.47966 0.0
C22 C 0.04821 0.34513 0.47225 0.0
C23 C 0.04448 0.31831 0.47167 0.0
C24 C 0.09285 0.3373 0.48384 0.0
H25 H 0.06204 0.28125 0.47597 0.0
H26 H 0.11173 0.34447 0.48898 0.0
C27 C 0.16828 0.32912 0.4835 0.0
C28 C 0.16791 0.34028 0.37446 0.0
N29 N 0.17654 0.28206 0.42583 0.0
C30 C 0.2014 0.28789 0.43171 0.0
C31 C 0.22053 0.26901 0.43021 0.0
C32 C 0.21409 0.24385 0.4224 0.0
C33 C 0.18799 0.23806 0.41792 0.0
C34 C 0.16949 0.25761 0.41946 0.0
C35 C 0.10012 0.26583 0.53743 0.0
O36 O 0.1135 0.28638 0.41609 0.0
O37 O 0.09806 0.26346 0.44863 0.0
O38 O 0.1531 0.31259 0.49332 0.0
O39 O 0.16884 0.33307 0.45937 0.0
O40 O 0.15269 0.32117 0.37349 0.0
O41 O 0.17466 0.34778 0.39668 0.0
O42 O 0.11952 0.28036 0.53467 0.0
O43 O 0.09085 0.25599 0.51707 0.0
H44 H 0.20666 0.3076 0.43602 0.0
H45 H 0.14977 0.25338 0.41438 0.0
H46 H 0.05555 0.35996 0.40687 0.0
H47 H 0.11212 0.41008 0.44213 0.0
H48 H 0.1516 0.18483 0.46449 0.0
H49 H 0.20914 0.23291 0.50119 0.0
H50 H 0.07605 0.37516 0.48105 0.0
H51 H 0.02579 0.31 0.46749 0.0
H52 H 0.24038 0.27462 0.43339 0.0
H53 H 0.18203 0.21888 0.41221 0.0
Cd54 Cd 0.37511 0.71296 0.98375 0.0
Cd55 Cd 0.34717 0.67325 0.91731 0.0
C56 C 0.43003 0.68959 0.97352 0.0
N57 N 0.40624 0.68093 0.98018 0.0
C58 C 0.42354 0.63944 0.99084 0.0
C59 C 0.44839 0.64803 0.98418 0.0
C60 C 0.45132 0.67337 0.97506 0.0
C61 C 0.40259 0.65643 0.9889 0.0
H62 H 0.4327 0.70945 0.96783 0.0
H63 H 0.38363 0.65032 0.99505 0.0
C64 C 0.32601 0.66371 0.97963 0.0
C65 C 0.29205 0.69875 0.92491 0.0
C66 C 0.27181 0.71638 0.92295 0.0
C67 C 0.27702 0.7422 0.91659 0.0
C68 C 0.30287 0.74984 0.91373 0.0
C69 C 0.32256 0.73152 0.91586 0.0
N70 N 0.31679 0.70643 0.921 0.0
H71 H 0.28787 0.67858 0.92821 0.0
H72 H 0.34225 0.73724 0.91239 0.0
C73 C 0.37286 0.62048 0.9343 0.0
N74 N 0.38036 0.64495 0.9287 0.0
C75 C 0.42429 0.6314 0.9251 0.0
C76 C 0.41689 0.60558 0.92894 0.0
C77 C 0.39085 0.60042 0.93455 0.0
C78 C 0.40559 0.65078 0.9246 0.0
H79 H 0.35259 0.6162 0.9367 0.0
H80 H 0.41126 0.67017 0.9197 0.0
C81 C 0.39494 0.72331 0.92005 0.0
C82 C 0.39534 0.72749 0.03275 0.0
N83 N 0.34579 0.74611 0.97795 0.0
C84 C 0.3557 0.77031 0.97911 0.0
C85 C 0.33954 0.79133 0.98366 0.0
C86 C 0.31294 0.78732 0.98709 0.0
C87 C 0.30303 0.76234 0.98325 0.0
C88 C 0.31997 0.7418 0.97907 0.0
C89 C 0.33072 0.64812 0.87085 0.0
O90 O 0.34132 0.68071 0.98831 0.0
O91 O 0.3256 0.65803 0.95585 0.0
O92 O 0.38025 0.70579 0.91129 0.0
O93 O 0.3951 0.72907 0.94389 0.0
O94 O 0.37521 0.71382 0.03061 0.0
O95 O 0.40501 0.73611 0.01202 0.0
O96 O 0.34599 0.66718 0.87028 0.0
O97 O 0.32279 0.64113 0.89285 0.0
H98 H 0.37638 0.77299 0.9787 0.0
H99 H 0.31263 0.72231 0.9784 0.0
H100 H 0.42041 0.62007 0.998 0.0
H101 H 0.46996 0.68072 0.96918 0.0
H102 H 0.25221 0.70944 0.92482 0.0
H103 H 0.3078 0.7696 0.90908 0.0
H104 H 0.44418 0.63656 0.92144 0.0
H105 H 0.38396 0.58091 0.93721 0.0
H106 H 0.34818 0.81008 0.98673 0.0
H107 H 0.28261 0.75842 0.98518 0.0
Cd108 Cd 0.65242 0.18576 0.56952 0.0
Cd109 Cd 0.61369 0.22042 0.50619 0.0
C110 C 0.62304 0.13408 0.55019 0.0
N111 N 0.61971 0.15579 0.56457 0.0
C112 C 0.58433 0.13679 0.58687 0.0
C113 C 0.58804 0.1137 0.57321 0.0
C114 C 0.60698 0.11278 0.55392 0.0
C115 C 0.60039 0.15775 0.58214 0.0
H116 H 0.63921 0.13247 0.53717 0.0
H117 H 0.59885 0.17482 0.59403 0.0
C118 C 0.60404 0.23617 0.56998 0.0
C119 C 0.63569 0.27702 0.50955 0.0
C120 C 0.65282 0.29731 0.50535 0.0
C121 C 0.67925 0.29207 0.50225 0.0
C122 C 0.68795 0.26661 0.5058 0.0
C123 C 0.67007 0.24688 0.50959 0.0
N124 N 0.64449 0.25237 0.51071 0.0
H125 H 0.61514 0.28069 0.50991 0.0
H126 H 0.6765 0.22711 0.50988 0.0
C127 C 0.56686 0.1914 0.5344 0.0
N128 N 0.58676 0.18621 0.51812 0.0
C129 C 0.57037 0.14364 0.51068 0.0
C130 C 0.55021 0.14835 0.52814 0.0
C131 C 0.54857 0.17261 0.53996 0.0
C132 C 0.58861 0.163 0.50595 0.0
H133 H 0.56447 0.21037 0.54252 0.0
H134 H 0.60397 0.15965 0.49223 0.0
C135 C 0.66424 0.17355 0.50404 0.0
C136 C 0.67297 0.16164 0.61474 0.0
N137 N 0.68287 0.21837 0.5663 0.0
C138 C 0.70507 0.21353 0.55322 0.0
C139 C 0.72612 0.22999 0.55572 0.0
C140 C 0.72475 0.25102 0.57278 0.0
C141 C 0.70108 0.25631 0.58496 0.0
C142 C 0.68028 0.2396 0.58145 0.0
C143 C 0.5876 0.23558 0.4602 0.0
O144 O 0.61997 0.21896 0.57709 0.0
O145 O 0.59994 0.24064 0.54625 0.0
O146 O 0.64712 0.18891 0.49554 0.0
O147 O 0.66799 0.1707 0.52805 0.0
O148 O 0.65517 0.17835 0.61612 0.0
O149 O 0.68152 0.15651 0.59242 0.0
O150 O 0.60915 0.22411 0.45978 0.0
O151 O 0.5786 0.24121 0.48221 0.0
H152 H 0.70698 0.19619 0.54184 0.0
H153 H 0.66272 0.24255 0.59231 0.0
H154 H 0.57017 0.13809 0.60218 0.0
H155 H 0.6108 0.09512 0.54343 0.0
H156 H 0.6451 0.3165 0.50241 0.0
H157 H 0.70818 0.26172 0.50399 0.0
H158 H 0.57217 0.12518 0.50108 0.0
H159 H 0.53286 0.1773 0.55291 0.0
H160 H 0.74375 0.22542 0.5455 0.0
H161 H 0.69914 0.272 0.59859 0.0
Cd162 Cd 0.87898 0.77907 0.0064 0.0
Cd163 Cd 0.84544 0.81568 0.07459 0.0
C164 C 0.9331 0.79972 0.0232 0.0
N165 N 0.91004 0.80991 0.01613 0.0
C166 C 0.92728 0.85266 0.01894 0.0
C167 C 0.95047 0.84254 0.02866 0.0
C168 C 0.95348 0.81568 0.02986 0.0
C169 C 0.90699 0.8358 0.01292 0.0
H170 H 0.93575 0.77905 0.02368 0.0
H171 H 0.88882 0.84336 0.00599 0.0
C172 C 0.82804 0.82717 0.01121 0.0
C173 C 0.7909 0.78924 0.0675 0.0
C174 C 0.77093 0.77151 0.07045 0.0
C175 C 0.7764 0.74638 0.07906 0.0
C176 C 0.8023 0.73941 0.08312 0.0
C177 C 0.82169 0.75785 0.08008 0.0
N178 N 0.81561 0.7823 0.07274 0.0
H179 H 0.78655 0.80899 0.06234 0.0
H180 H 0.84139 0.75285 0.08463 0.0
C181 C 0.87226 0.86825 0.05638 0.0
N182 N 0.8782 0.84532 0.06767 0.0
C183 C 0.91828 0.86208 0.08285 0.0
C184 C 0.91209 0.88635 0.07251 0.0
C185 C 0.88918 0.88908 0.05835 0.0
C186 C 0.90092 0.84172 0.08025 0.0
H187 H 0.85365 0.87094 0.04741 0.0
H188 H 0.90476 0.82365 0.08991 0.0
C189 C 0.89528 0.7662 0.06892 0.0
C190 C 0.8989 0.76596 0.95675 0.0
N191 N 0.84956 0.74641 0.01353 0.0
C192 C 0.8588 0.72211 0.01039 0.0
C193 C 0.84185 0.70142 0.00797 0.0
C194 C 0.81509 0.70582 0.00883 0.0
C195 C 0.80626 0.73091 0.01438 0.0
C196 C 0.82393 0.75113 0.01622 0.0
C197 C 0.82874 0.83872 0.12183 0.0
O198 O 0.84466 0.81134 0.00253 0.0
O199 O 0.82549 0.83102 0.03524 0.0
O200 O 0.87904 0.78332 0.07541 0.0
O201 O 0.89792 0.75977 0.04543 0.0
O202 O 0.87963 0.78072 0.95954 0.0
O203 O 0.90822 0.75613 0.97709 0.0
O204 O 0.84492 0.82035 0.12168 0.0
O205 O 0.82001 0.84585 0.10014 0.0
H206 H 0.8793 0.71909 0.00789 0.0
H207 H 0.81709 0.7707 0.01838 0.0
H208 H 0.92451 0.87327 0.01703 0.0
H209 H 0.97147 0.80699 0.03601 0.0
H210 H 0.75128 0.77799 0.06755 0.0
H211 H 0.80747 0.72019 0.08946 0.0
H212 H 0.93566 0.85928 0.09408 0.0
H213 H 0.88341 0.90763 0.05064 0.0
H214 H 0.84971 0.68263 0.00336 0.0
H215 H 0.78585 0.73518 0.01576 0.0
Cd216 Cd 0.48317 0.11667 0.28231 0.0
Cd217 Cd 0.41389 0.14099 0.32099 0.0
C218 C 0.47534 0.06247 0.30815 0.0
N219 N 0.48092 0.08691 0.31573 0.0
C220 C 0.49224 0.07201 0.35792 0.0
C221 C 0.48678 0.04649 0.35048 0.0
C222 C 0.47791 0.04199 0.32529 0.0
C223 C 0.48938 0.09205 0.34003 0.0
H224 H 0.46964 0.05875 0.28846 0.0
H225 H 0.49467 0.1115 0.34532 0.0
C226 C 0.47539 0.16622 0.33023 0.0
C227 C 0.43293 0.18263 0.27703 0.0
C228 C 0.42932 0.20178 0.2584 0.0
C229 C 0.40467 0.20574 0.24783 0.0
C230 C 0.38466 0.18894 0.25503 0.0
C231 C 0.38919 0.16999 0.27358 0.0
N232 N 0.41281 0.16767 0.28468 0.0
H233 H 0.4515 0.1806 0.28608 0.0
H234 H 0.37346 0.15801 0.28021 0.0
C235 C 0.43174 0.11655 0.37355 0.0
N236 N 0.42652 0.1083 0.34925 0.0
C237 C 0.42426 0.06461 0.36379 0.0
C238 C 0.42758 0.07277 0.38946 0.0
C239 C 0.43237 0.09909 0.39401 0.0
C240 C 0.42336 0.08281 0.34395 0.0
H241 H 0.43342 0.13699 0.37736 0.0
H242 H 0.41877 0.07657 0.32466 0.0
C243 C 0.41974 0.09393 0.27133 0.0
C244 C 0.532 0.09594 0.26777 0.0
N245 N 0.47986 0.14732 0.24993 0.0
C246 C 0.46754 0.1425 0.22729 0.0
C247 C 0.47153 0.15866 0.20605 0.0
C248 C 0.48843 0.17975 0.20825 0.0
C249 C 0.49954 0.185 0.23239 0.0
C250 C 0.49515 0.16834 0.25297 0.0
C251 C 0.36822 0.15766 0.34773 0.0
O252 O 0.48589 0.15134 0.31384 0.0
O253 O 0.45142 0.16503 0.335 0.0
O254 O 0.40893 0.10748 0.28868 0.0
O255 O 0.44375 0.09572 0.26661 0.0
O256 O 0.53 0.11531 0.28254 0.0
O257 O 0.51122 0.08717 0.2583 0.0
O258 O 0.36725 0.14009 0.33076 0.0
O259 O 0.39014 0.16755 0.35189 0.0
H260 H 0.45596 0.12529 0.22523 0.0
H261 H 0.50529 0.17127 0.27094 0.0
H262 H 0.49919 0.07637 0.37711 0.0
H263 H 0.47287 0.02279 0.31881 0.0
H264 H 0.4454 0.214 0.25312 0.0
H265 H 0.36527 0.19141 0.24769 0.0
H266 H 0.42122 0.04449 0.35913 0.0
H267 H 0.43462 0.10657 0.41335 0.0
H268 H 0.4625 0.15399 0.18781 0.0
H269 H 0.51308 0.20068 0.23494 0.0
Cd270 Cd 0.07634 0.85005 0.81996 0.0
Cd271 Cd 0.01236 0.88077 0.77962 0.0
C272 C 0.04532 0.87144 0.86981 0.0
N273 N 0.06202 0.87945 0.85121 0.0
C274 C 0.07309 0.91654 0.87629 0.0
C275 C 0.05727 0.90776 0.89653 0.0
C276 C 0.04223 0.88564 0.89241 0.0
C277 C 0.07518 0.90199 0.85367 0.0
H278 H 0.0356 0.85317 0.86818 0.0
H279 H 0.08891 0.90758 0.83901 0.0
C280 C 0.07692 0.89938 0.77174 0.0
C281 C 0.02402 0.86057 0.72218 0.0
C282 C 0.02059 0.84498 0.70047 0.0
C283 C 0.01021 0.82008 0.70334 0.0
C284 C 0.00595 0.81069 0.72841 0.0
C285 C 0.00973 0.82686 0.74951 0.0
N286 N 0.01775 0.85155 0.74598 0.0
H287 H 0.02998 0.88043 0.71987 0.0
H288 H 0.00441 0.82018 0.76847 0.0
C289 C 0.03035 0.93322 0.80612 0.0
N290 N 0.01848 0.91078 0.81269 0.0
C291 C 0.00772 0.928 0.85421 0.0
C292 C 0.02088 0.95085 0.8481 0.0
C293 C 0.03223 0.95329 0.82373 0.0
C294 C 0.00679 0.90799 0.83604 0.0
H295 H 0.03751 0.93616 0.78684 0.0
H296 H 0.99636 0.89045 0.84037 0.0
C297 C 0.01352 0.82803 0.82474 0.0
C298 C 0.12234 0.83137 0.84485 0.0
N299 N 0.07279 0.82125 0.78554 0.0
C300 C 0.07115 0.79605 0.79253 0.0
C301 C 0.07321 0.77664 0.77409 0.0
C302 C 0.07745 0.78317 0.74817 0.0
C303 C 0.07806 0.80938 0.74128 0.0
C304 C 0.07574 0.82824 0.76043 0.0
C305 C 0.96446 0.90358 0.76501 0.0
O306 O 0.08525 0.88506 0.78982 0.0
O307 O 0.05346 0.89869 0.7646 0.0
O308 O 0.00506 0.84527 0.80955 0.0
O309 O 0.03736 0.82634 0.82998 0.0
O310 O 0.12334 0.84729 0.82635 0.0
O311 O 0.10008 0.824 0.85163 0.0
O312 O 0.96569 0.88354 0.77891 0.0
O313 O 0.98563 0.91225 0.75635 0.0
H314 H 0.06958 0.79096 0.8127 0.0
H315 H 0.0774 0.84832 0.75527 0.0
H316 H 0.08538 0.93323 0.87865 0.0
H317 H 0.02947 0.87834 0.90724 0.0
H318 H 0.02457 0.8529 0.68157 0.0
H319 H 0.99765 0.79182 0.73173 0.0
H320 H 0.9985 0.92561 0.87279 0.0
H321 H 0.04178 0.97097 0.818 0.0
H322 H 0.07317 0.75672 0.78039 0.0
H323 H 0.08118 0.81521 0.72147 0.0
Cd324 Cd 0.92319 0.3526 0.68081 0.0
Cd325 Cd 0.98828 0.38427 0.71764 0.0
C326 C 0.93767 0.37694 0.6269 0.0
N327 N 0.93191 0.38519 0.65109 0.0
C328 C 0.92461 0.428 0.63559 0.0
C329 C 0.92865 0.41965 0.61008 0.0
C330 C 0.9362 0.39389 0.60605 0.0
C331 C 0.9259 0.41028 0.65584 0.0
H332 H 0.94149 0.35671 0.62351 0.0
H333 H 0.92081 0.41641 0.67506 0.0
C334 C 0.92407 0.40153 0.72963 0.0
C335 C 0.96838 0.35464 0.7696 0.0
C336 C 0.97078 0.33711 0.78996 0.0
C337 C 0.98869 0.31684 0.78807 0.0
C338 C 0.0026 0.31379 0.76505 0.0
C339 C -0.0002 0.33182 0.74539 0.0
N340 N 0.98328 0.35197 0.74817 0.0
H341 H 0.95581 0.37115 0.77164 0.0
H342 H 0.01196 0.33057 0.72851 0.0
C343 C 0.97523 0.43703 0.6916 0.0
N344 N 0.98268 0.41314 0.68385 0.0
C345 C 0.99171 0.42891 0.64141 0.0
C346 C 0.98443 0.45387 0.64914 0.0
C347 C 0.97567 0.45762 0.67448 0.0
C348 C 0.99095 0.4087 0.65932 0.0
H349 H 0.96989 0.44038 0.71145 0.0
H350 H 0.99777 0.38977 0.65385 0.0
C351 C 0.98652 0.33434 0.6695 0.0
C352 C 0.87858 0.33219 0.65565 0.0
N353 N 0.92443 0.32652 0.71746 0.0
C354 C 0.94368 0.30921 0.72175 0.0
C355 C 0.9407 0.28992 0.74031 0.0
C356 C 0.91741 0.288 0.75409 0.0
C357 C 0.89856 0.30717 0.75031 0.0
C358 C 0.90249 0.3263 0.73179 0.0
C359 C 0.0364 0.40646 0.73259 0.0
O360 O 0.91578 0.38582 0.71279 0.0
O361 O 0.94805 0.40344 0.7345 0.0
O362 O 0.99549 0.35037 0.68568 0.0
O363 O 0.96247 0.33263 0.66541 0.0
O364 O 0.8772 0.35245 0.66925 0.0
O365 O 0.90041 0.32129 0.65435 0.0
O366 O 0.03497 0.38644 0.71871 0.0
O367 O 0.01531 0.41531 0.74128 0.0
H368 H 0.96079 0.30944 0.70993 0.0
H369 H 0.88727 0.33995 0.72757 0.0
H370 H 0.9194 0.44777 0.63984 0.0
H371 H 0.93909 0.38626 0.58684 0.0
H372 H 0.95975 0.3401 0.80744 0.0
H373 H 0.01701 0.29879 0.76295 0.0
H374 H 0.99861 0.42523 0.62205 0.0
H375 H 0.96938 0.47639 0.68116 0.0
H376 H 0.95598 0.27591 0.74291 0.0
H377 H 0.88014 0.30638 0.76011 0.0
Cd378 Cd 0.50825 0.6158 0.21607 0.0
Cd379 Cd 0.57407 0.64347 0.17712 0.0
C380 C 0.51979 0.56142 0.19236 0.0
N381 N 0.51277 0.58511 0.18368 0.0
C382 C 0.50341 0.56781 0.14192 0.0
C383 C 0.51055 0.54308 0.15051 0.0
C384 C 0.51918 0.54021 0.17601 0.0
C385 C 0.50448 0.58869 0.15903 0.0
H386 H 0.52509 0.55874 0.21232 0.0
H387 H 0.49795 0.60749 0.15282 0.0
C388 C 0.51131 0.66292 0.16508 0.0
C389 C 0.55261 0.68903 0.21537 0.0
C390 C 0.55491 0.70825 0.23406 0.0
C391 C 0.57672 0.70881 0.25013 0.0
C392 C 0.59455 0.68843 0.24842 0.0
C393 C 0.59131 0.6694 0.22966 0.0
N394 N 0.57101 0.67045 0.21313 0.0
H395 H 0.53678 0.68988 0.20197 0.0
H396 H 0.60595 0.65473 0.22713 0.0
C397 C 0.55968 0.61782 0.12401 0.0
N398 N 0.56494 0.61001 0.14845 0.0
C399 C 0.57003 0.56644 0.1342 0.0
C400 C 0.56637 0.57423 0.10846 0.0
C401 C 0.56027 0.60023 0.10367 0.0
C402 C 0.56964 0.58478 0.15393 0.0
H403 H 0.55682 0.6381 0.12003 0.0
H404 H 0.57426 0.57889 0.17333 0.0
C405 C 0.57185 0.59581 0.22709 0.0
C406 C 0.45963 0.59531 0.23186 0.0
N407 N 0.51375 0.64889 0.24566 0.0
C408 C 0.52844 0.64638 0.26725 0.0
C409 C 0.52603 0.66423 0.28733 0.0
C410 C 0.50828 0.68462 0.28505 0.0
C411 C 0.49469 0.68752 0.26181 0.0
C412 C 0.49755 0.66922 0.2424 0.0
C413 C 0.62 0.66254 0.15282 0.0
O414 O 0.50214 0.64818 0.18235 0.0
O415 O 0.53535 0.66368 0.16055 0.0
O416 O 0.58057 0.61027 0.20935 0.0
O417 O 0.54806 0.59589 0.23308 0.0
O418 O 0.46149 0.6146 0.21702 0.0
O419 O 0.48052 0.58652 0.24107 0.0
O420 O 0.62097 0.64517 0.16998 0.0
O421 O 0.59786 0.67132 0.1474 0.0
H422 H 0.54079 0.62975 0.26963 0.0
H423 H 0.48562 0.67035 0.22535 0.0
H424 H 0.49655 0.5709 0.12245 0.0
H425 H 0.52542 0.5217 0.18341 0.0
H426 H 0.54039 0.72325 0.23501 0.0
H427 H 0.61186 0.68815 0.26009 0.0
H428 H 0.57411 0.54654 0.13905 0.0
H429 H 0.55776 0.60744 0.08425 0.0
H430 H 0.53689 0.66138 0.30493 0.0
H431 H 0.48046 0.70264 0.25937 0.0
Cd432 Cd 0.2782 0.4831 0.11929 0.0
Cd433 Cd 0.31739 0.4162 0.14984 0.0
C434 C 0.3019 0.46479 0.06558 0.0
N435 N 0.30953 0.4766 0.0877 0.0
C436 C 0.35088 0.48576 0.06926 0.0
C437 C 0.34387 0.47215 0.04696 0.0
C438 C 0.31895 0.46191 0.04515 0.0
C439 C 0.33324 0.48769 0.08965 0.0
H440 H 0.28235 0.45812 0.06334 0.0
H441 H 0.33841 0.49812 0.10696 0.0
C442 C 0.32756 0.47925 0.16881 0.0
C443 C 0.29098 0.426 0.20364 0.0
C444 C 0.2731 0.42423 0.22361 0.0
C445 C 0.24738 0.41781 0.21807 0.0
C446 C 0.23997 0.41515 0.19215 0.0
C447 C 0.25855 0.41707 0.17273 0.0
N448 N 0.2836 0.42187 0.17887 0.0
H449 H 0.31113 0.42903 0.20808 0.0
H450 H 0.25309 0.41338 0.15302 0.0
C451 C 0.36461 0.44149 0.11628 0.0
N452 N 0.34585 0.42321 0.11595 0.0
C453 C 0.36564 0.40228 0.08006 0.0
C454 C 0.38591 0.42038 0.0802 0.0
C455 C 0.38462 0.44072 0.0982 0.0
C456 C 0.34576 0.40417 0.09802 0.0
H457 H 0.36465 0.45615 0.13108 0.0
H458 H 0.33112 0.38933 0.09882 0.0
C459 C 0.2678 0.41892 0.10137 0.0
C460 C 0.26487 0.5316 0.09698 0.0
N461 N 0.24484 0.48035 0.14887 0.0
C462 C 0.22075 0.48365 0.13915 0.0
C463 C 0.20036 0.49025 0.15542 0.0
C464 C 0.20491 0.49353 0.18194 0.0
C465 C 0.22954 0.48756 0.19167 0.0
C466 C 0.24946 0.48133 0.17463 0.0
C467 C 0.33971 0.3692 0.169 0.0
O468 O 0.31076 0.48784 0.15316 0.0
O469 O 0.3328 0.45536 0.16998 0.0
O470 O 0.28569 0.41055 0.11587 0.0
O471 O 0.26112 0.44254 0.1016 0.0
O472 O 0.27922 0.52988 0.11667 0.0
O473 O 0.25536 0.51074 0.08848 0.0
O474 O 0.32032 0.36907 0.15413 0.0
O475 O 0.34845 0.39113 0.17529 0.0
H476 H 0.21783 0.48327 0.1185 0.0
H477 H 0.26888 0.47898 0.18182 0.0
H478 H 0.36993 0.49409 0.07117 0.0
H479 H 0.31259 0.45201 0.02789 0.0
H480 H 0.27986 0.42596 0.24329 0.0
H481 H 0.22029 0.41044 0.18701 0.0
H482 H 0.36568 0.38573 0.06739 0.0
H483 H 0.39921 0.4556 0.09892 0.0
H484 H 0.18187 0.49489 0.14692 0.0
H485 H 0.23381 0.48932 0.21203 0.0
Cd486 Cd 0.81749 0.08114 0.84664 0.0
Cd487 Cd 0.77937 0.01171 0.8751 0.0
C488 C 0.86867 0.06137 0.8744 0.0
N489 N 0.84526 0.07147 0.88057 0.0
C490 C 0.8597 0.08098 0.92326 0.0
C491 C 0.8845 0.07191 0.91702 0.0
C492 C 0.88858 0.06118 0.89247 0.0
C493 C 0.84031 0.08073 0.90461 0.0
H494 H 0.87251 0.05512 0.8549 0.0
H495 H 0.82189 0.08943 0.90893 0.0
C496 C 0.766 0.07553 0.89327 0.0
C497 C 0.72146 0.01497 0.85664 0.0
C498 C 0.70035 0.01041 0.84063 0.0
C499 C 0.70418 0.00737 0.81396 0.0
C500 C 0.72908 0.01142 0.80391 0.0
C501 C 0.74971 0.01547 0.8207 0.0
N502 N 0.74557 0.01644 0.84652 0.0
H503 H 0.71892 0.01525 0.87734 0.0
H504 H 0.76918 0.01594 0.8133 0.0
C505 C 0.79858 0.02584 0.93058 0.0
N506 N 0.80917 0.01947 0.90752 0.0
C507 C 0.85125 0.01785 0.9264 0.0
C508 C 0.84094 0.02614 0.95009 0.0
C509 C 0.81409 0.02937 0.95209 0.0
C510 C 0.83486 0.01464 0.90516 0.0
H511 H 0.7779 0.02777 0.93243 0.0
H512 H 0.84263 0.00837 0.88685 0.0
C513 C 0.82964 0.01808 0.82718 0.0
C514 C 0.84248 0.12788 0.83046 0.0
N515 N 0.78414 0.07971 0.81635 0.0
C516 C 0.78602 0.06437 0.79517 0.0
C517 C 0.7692 0.06766 0.77449 0.0
C518 C 0.75087 0.08763 0.77507 0.0
C519 C 0.74848 0.10231 0.79775 0.0
C520 C 0.76542 0.098 0.81826 0.0
C521 C 0.76755 0.96181 0.89515 0.0
O522 O 0.78368 0.08488 0.8791 0.0
O523 O 0.76104 0.0515 0.89337 0.0
O524 O 0.81264 0.00869 0.8421 0.0
O525 O 0.83415 0.04213 0.82664 0.0
O526 O 0.82481 0.12814 0.84737 0.0
O527 O 0.84817 0.1061 0.82095 0.0
O528 O 0.78168 0.96483 0.87545 0.0
O529 O 0.75749 0.98199 0.90466 0.0
H530 H 0.80129 0.05037 0.79355 0.0
H531 H 0.76478 0.11042 0.83501 0.0
H532 H 0.85566 0.08936 0.94195 0.0
H533 H 0.90749 0.0546 0.8865 0.0
H534 H 0.6817 0.00712 0.84941 0.0
H535 H 0.73292 0.00974 0.78345 0.0
H536 H 0.87176 0.01471 0.92404 0.0
H537 H 0.80498 0.03437 0.97019 0.0
H538 H 0.77145 0.05549 0.75767 0.0
H539 H 0.7349 0.11814 0.79904 0.0
Cd540 Cd 0.71547 0.98433 0.37307 0.0
Cd541 Cd 0.67563 0.91461 0.34543 0.0
C542 C 0.69727 0.97058 0.42898 0.0
N543 N 0.68627 0.97631 0.40595 0.0
C544 C 0.64435 0.97696 0.42526 0.0
C545 C 0.65511 0.96927 0.44895 0.0
C546 C 0.68207 0.96691 0.4507 0.0
C547 C 0.66043 0.98032 0.40379 0.0
H548 H 0.71801 0.96923 0.43059 0.0
H549 H 0.6523 0.98606 0.38547 0.0
C550 C 0.66447 0.97666 0.32515 0.0
C551 C 0.7198 0.93529 0.30538 0.0
C552 C 0.73914 0.93257 0.28678 0.0
C553 C 0.75035 0.90821 0.28254 0.0
C554 C 0.74301 0.88759 0.29852 0.0
C555 C 0.72376 0.89123 0.31691 0.0
N556 N 0.71211 0.91456 0.31946 0.0
H557 H 0.71022 0.95362 0.3077 0.0
H558 H 0.71711 0.87507 0.32831 0.0
C559 C 0.62544 0.93173 0.37648 0.0
N560 N 0.6495 0.92241 0.38111 0.0
C561 C 0.63833 0.91303 0.42482 0.0
C562 C 0.61298 0.92174 0.42047 0.0
C563 C 0.60683 0.93163 0.39595 0.0
C564 C 0.65627 0.91335 0.40476 0.0
H565 H 0.62028 0.93796 0.35726 0.0
H566 H 0.67519 0.9052 0.40785 0.0
C567 C 0.72922 0.92097 0.39007 0.0
C568 C 0.72511 0.03483 0.39242 0.0
N569 N 0.74817 0.98298 0.34253 0.0
C570 C 0.77148 0.97204 0.34752 0.0
C571 C 0.79262 0.97742 0.33166 0.0
C572 C 0.7897 0.99448 0.31078 0.0
C573 C 0.76493 0.00408 0.30525 0.0
C574 C 0.74439 0.99815 0.32153 0.0
C575 C 0.65075 0.86855 0.32768 0.0
O576 O 0.68164 0.98511 0.34041 0.0
O577 O 0.65929 0.95277 0.32403 0.0
O578 O 0.71093 0.91303 0.37589 0.0
O579 O 0.7348 0.94482 0.39139 0.0
O580 O 0.70967 0.03065 0.37397 0.0
O581 O 0.73736 0.0155 0.40116 0.0
O582 O 0.66641 0.86794 0.34645 0.0
O583 O 0.64717 0.8903 0.31711 0.0
H584 H 0.77416 0.96052 0.36468 0.0
H585 H 0.72578 0.00708 0.31844 0.0
H586 H 0.62374 0.97946 0.42304 0.0
H587 H 0.6915 0.96241 0.46877 0.0
H588 H 0.74448 0.94908 0.27516 0.0
H589 H 0.75079 0.8684 0.29578 0.0
H590 H 0.64418 0.90544 0.44335 0.0
H591 H 0.58747 0.93793 0.39131 0.0
H592 H 0.81128 0.96936 0.33648 0.0
H593 H 0.76174 0.01762 0.28968 0.0
Cd594 Cd 0.21783 0.51637 0.61634 0.0
Cd595 Cd 0.17874 0.58338 0.64467 0.0
C596 C 0.19441 0.53013 0.56246 0.0
N597 N 0.18554 0.5231 0.58605 0.0
C598 C 0.14265 0.51884 0.56948 0.0
C599 C 0.15117 0.52744 0.54522 0.0
C600 C 0.17756 0.53254 0.54181 0.0
C601 C 0.16034 0.51676 0.58981 0.0
H602 H 0.21478 0.5333 0.55947 0.0
H603 H 0.15396 0.51001 0.60846 0.0
C604 C 0.16796 0.52094 0.66503 0.0
C605 C 0.20297 0.5734 0.69966 0.0
C606 C 0.22057 0.57322 0.71995 0.0
C607 C 0.247 0.57627 0.71482 0.0
C608 C 0.25514 0.57784 0.68903 0.0
C609 C 0.23682 0.5779 0.66928 0.0
N610 N 0.21125 0.57619 0.67496 0.0
H611 H 0.18252 0.57268 0.70371 0.0
H612 H 0.24307 0.5804 0.64962 0.0
C613 C 0.12715 0.5658 0.61619 0.0
N614 N 0.15095 0.5751 0.61034 0.0
C615 C 0.13736 0.58513 0.56748 0.0
C616 C 0.11227 0.57655 0.57317 0.0
C617 C 0.10749 0.56621 0.5978 0.0
C618 C 0.1564 0.58441 0.58644 0.0
H619 H 0.12299 0.55947 0.63561 0.0
H620 H 0.17505 0.59263 0.58233 0.0
C621 C 0.22963 0.58031 0.59745 0.0
C622 C 0.23026 0.46695 0.59529 0.0
N623 N 0.25047 0.52019 0.64677 0.0
C624 C 0.27437 0.52792 0.63929 0.0
C625 C 0.29562 0.52352 0.65527 0.0
C626 C 0.29223 0.51058 0.67887 0.0
C627 C 0.26698 0.50466 0.68682 0.0
C628 C 0.24631 0.50955 0.67033 0.0
C629 C 0.1543 0.62942 0.66336 0.0
O630 O 0.18509 0.51182 0.65006 0.0
O631 O 0.16264 0.54481 0.66517 0.0
O632 O 0.21196 0.58875 0.61218 0.0
O633 O 0.23537 0.55642 0.59682 0.0
O634 O 0.21651 0.46956 0.6153 0.0
O635 O 0.23978 0.48739 0.58581 0.0
O636 O 0.17473 0.63059 0.64996 0.0
O637 O 0.14589 0.60709 0.66848 0.0
H638 H 0.27722 0.53589 0.62024 0.0
H639 H 0.22723 0.50301 0.67557 0.0
H640 H 0.12253 0.51446 0.5729 0.0
H641 H 0.18528 0.53808 0.52322 0.0
H642 H 0.21334 0.57245 0.73952 0.0
H643 H 0.27535 0.58001 0.68423 0.0
H644 H 0.14212 0.59317 0.54884 0.0
H645 H 0.08838 0.56 0.60345 0.0
H646 H 0.31465 0.52885 0.64852 0.0
H647 H 0.2633 0.49438 0.7046 0.0
Cd648 Cd 0.85021 0.67673 0.58433 0.0
Cd649 Cd 0.87741 0.7153 0.51569 0.0
C650 C 0.87638 0.62495 0.56644 0.0
N651 N 0.88384 0.6493 0.57255 0.0
C652 C 0.92786 0.63588 0.5753 0.0
C653 C 0.92051 0.61013 0.57085 0.0
C654 C 0.89442 0.60501 0.56545 0.0
C655 C 0.90908 0.65518 0.57651 0.0
H656 H 0.85611 0.62063 0.5642 0.0
H657 H 0.91467 0.67449 0.58182 0.0
C658 C 0.89637 0.72782 0.57995 0.0
C659 C 0.85736 0.77324 0.51732 0.0
C660 C 0.84174 0.79395 0.50998 0.0
C661 C 0.81619 0.78934 0.50215 0.0
C662 C 0.80638 0.76414 0.50429 0.0
C663 C 0.82279 0.74399 0.51123 0.0
N664 N 0.84788 0.74882 0.51692 0.0
H665 H 0.87762 0.77637 0.5212 0.0
H666 H 0.81596 0.72435 0.51015 0.0
C667 C 0.93273 0.69318 0.52702 0.0
N668 N 0.90922 0.68401 0.52009 0.0
C669 C 0.92756 0.64298 0.50932 0.0
C670 C 0.95218 0.65223 0.51589 0.0
C671 C 0.95445 0.67752 0.52533 0.0
C672 C 0.90618 0.65943 0.51135 0.0
H673 H 0.93484 0.71306 0.53288 0.0
H674 H 0.88741 0.65291 0.50506 0.0
C675 C 0.82898 0.66562 0.52189 0.0
C676 C 0.83316 0.65045 0.63006 0.0
N677 N 0.82184 0.71176 0.58416 0.0
C678 C 0.80322 0.71473 0.56596 0.0
C679 C 0.78334 0.73252 0.56961 0.0
C680 C 0.78212 0.74684 0.5926 0.0
C681 C 0.8024 0.74432 0.61042 0.0
C682 C 0.82215 0.72658 0.60577 0.0
C683 C 0.89915 0.72852 0.46699 0.0
O684 O 0.88286 0.7101 0.59021 0.0
O685 O 0.89559 0.73233 0.55586 0.0
O686 O 0.84412 0.68249 0.51267 0.0
O687 O 0.82847 0.66082 0.54588 0.0
O688 O 0.85041 0.66773 0.63106 0.0
O689 O 0.82387 0.64562 0.60802 0.0
O690 O 0.87978 0.71375 0.46893 0.0
O691 O 0.90752 0.73848 0.4877 0.0
H692 H 0.80287 0.70245 0.54923 0.0
H693 H 0.83687 0.72343 0.6202 0.0
H694 H 0.94777 0.641 0.57891 0.0
H695 H 0.88753 0.58555 0.56241 0.0
H696 H 0.85029 0.81293 0.50837 0.0
H697 H 0.78669 0.75972 0.49894 0.0
H698 H 0.92498 0.62361 0.50196 0.0
H699 H 0.97293 0.68531 0.53112 0.0
H700 H 0.76842 0.73411 0.55509 0.0
H701 H 0.80219 0.75461 0.62858 0.0
Cd702 Cd 0.61724 0.27792 0.01306 0.0
Cd703 Cd 0.64526 0.31674 0.08042 0.0
C704 C 0.56294 0.30187 0.02522 0.0
N705 N 0.58676 0.31037 0.01846 0.0
C706 C 0.57002 0.35255 0.0098 0.0
C707 C 0.54516 0.34415 0.01664 0.0
C708 C 0.54193 0.31852 0.02479 0.0
C709 C 0.59068 0.33513 0.01064 0.0
H710 H 0.55999 0.28184 0.0301 0.0
H711 H 0.60959 0.34118 0.00432 0.0
C712 C 0.66586 0.32775 0.01813 0.0
C713 C 0.70051 0.29311 0.07277 0.0
C714 C 0.72123 0.27609 0.07452 0.0
C715 C 0.71667 0.24971 0.07868 0.0
C716 C 0.69101 0.24093 0.07921 0.0
C717 C 0.67077 0.25872 0.07734 0.0
N718 N 0.67593 0.28432 0.07477 0.0
H719 H 0.70408 0.31361 0.0714 0.0
H720 H 0.6511 0.25218 0.07925 0.0
C721 C 0.6208 0.37057 0.06567 0.0
N722 N 0.61274 0.34614 0.07065 0.0
C723 C 0.56933 0.36073 0.07589 0.0
C724 C 0.57736 0.38644 0.07257 0.0
C725 C 0.60339 0.39108 0.06651 0.0
C726 C 0.58748 0.34084 0.07526 0.0
H727 H 0.64112 0.37437 0.06293 0.0
H728 H 0.58145 0.32144 0.0797 0.0
C729 C 0.59722 0.26669 0.07652 0.0
C730 C 0.59646 0.26564 0.96352 0.0
N731 N 0.64769 0.24537 0.01742 0.0
C732 C 0.64029 0.22154 0.02542 0.0
C733 C 0.65625 0.20024 0.02106 0.0
C734 C 0.67975 0.20354 0.00789 0.0
C735 C 0.68768 0.22876 0.0018 0.0
C736 C 0.67122 0.24947 0.00667 0.0
C737 C 0.66292 0.34049 0.12725 0.0
O738 O 0.65074 0.31072 0.00914 0.0
O739 O 0.66623 0.33296 0.04201 0.0
O740 O 0.61188 0.28425 0.08529 0.0
O741 O 0.59724 0.26074 0.05272 0.0
O742 O 0.61666 0.27908 0.9662 0.0
O743 O 0.58687 0.25609 0.9839 0.0
O744 O 0.64734 0.32166 0.12777 0.0
O745 O 0.67053 0.34772 0.10522 0.0
H746 H 0.62126 0.21875 0.03348 0.0
H747 H 0.67638 0.2685 -7e-05 0.0
H748 H 0.57336 0.37212 0.00333 0.0
H749 H 0.52329 0.31126 0.03077 0.0
H750 H 0.74061 0.28387 0.07447 0.0
H751 H 0.68664 0.22073 0.08216 0.0
H752 H 0.5494 0.35602 0.07989 0.0
H753 H 0.61073 0.41048 0.06422 0.0
H754 H 0.64953 0.18124 0.02651 0.0
H755 H 0.70539 0.23236 0.99134 0.0
Cd756 Cd 0.35695 0.82446 0.41556 0.0
Cd757 Cd 0.38323 0.78426 0.4815 0.0
C758 C 0.38868 0.86928 0.44604 0.0
N759 N 0.39133 0.85066 0.42776 0.0
C760 C 0.43031 0.86993 0.41258 0.0
C761 C 0.42747 0.89028 0.43035 0.0
C762 C 0.40687 0.88905 0.448 0.0
C763 C 0.41195 0.85031 0.41162 0.0
H764 H 0.37185 0.86961 0.4583 0.0
H765 H 0.4131 0.83589 0.39661 0.0
C766 C 0.40345 0.77327 0.41808 0.0
C767 C 0.36421 0.72655 0.4801 0.0
C768 C 0.34804 0.70568 0.48521 0.0
C769 C 0.32126 0.70961 0.48705 0.0
C770 C 0.31136 0.73424 0.48127 0.0
C771 C 0.3283 0.75466 0.47658 0.0
N772 N 0.35419 0.75054 0.47687 0.0
H773 H 0.38492 0.72401 0.48078 0.0
H774 H 0.32083 0.774 0.47428 0.0
C775 C 0.43555 0.81271 0.46451 0.0
N776 N 0.41363 0.81744 0.47811 0.0
C777 C 0.43251 0.85542 0.49658 0.0
C778 C 0.45546 0.85043 0.48316 0.0
C779 C 0.45659 0.82915 0.46654 0.0
C780 C 0.41172 0.83832 0.49398 0.0
H781 H 0.43751 0.79542 0.45321 0.0
H782 H 0.39447 0.84112 0.50538 0.0
C783 C 0.33329 0.83267 0.47738 0.0
C784 C 0.34261 0.85136 0.36946 0.0
N785 N 0.32557 0.79217 0.4179 0.0
C786 C 0.30094 0.80073 0.42064 0.0
C787 C 0.2803 0.78364 0.41873 0.0
C788 C 0.28496 0.75745 0.41354 0.0
C789 C 0.31065 0.74898 0.41149 0.0
C790 C 0.33079 0.76679 0.41365 0.0
C791 C 0.40348 0.76974 0.53054 0.0
O792 O 0.38978 0.79167 0.40942 0.0
O793 O 0.40249 0.76668 0.4417 0.0
O794 O 0.34851 0.81589 0.48676 0.0
O795 O 0.33381 0.83833 0.4536 0.0
O796 O 0.35478 0.83016 0.36862 0.0
O797 O 0.33665 0.85969 0.39162 0.0
O798 O 0.3828 0.78255 0.52827 0.0
O799 O 0.41408 0.76221 0.50982 0.0
H800 H 0.29724 0.8211 0.42319 0.0
H801 H 0.35044 0.7604 0.41112 0.0
H802 H 0.44536 0.87002 0.39814 0.0
H803 H 0.40409 0.90377 0.46253 0.0
H804 H 0.35667 0.68722 0.4898 0.0
H805 H 0.29083 0.73808 0.48192 0.0
H806 H 0.43107 0.87166 0.50964 0.0
H807 H 0.474 0.82475 0.45583 0.0
H808 H 0.26085 0.79119 0.41987 0.0
H809 H 0.31511 0.72893 0.40766 0.0
Cd810 Cd 0.11859 0.21933 0.98167 0.0
Cd811 Cd 0.14319 0.17951 0.91216 0.0
C812 C 0.06342 0.19842 0.97016 0.0
N813 N 0.08708 0.18833 0.97502 0.0
C814 C 0.06939 0.14575 0.97688 0.0
C815 C 0.04504 0.1556 0.9701 0.0
C816 C 0.04216 0.18242 0.96753 0.0
C817 C 0.09037 0.16262 0.97921 0.0
H818 H 0.06094 0.21907 0.96874 0.0
H819 H 0.10916 0.15519 0.98434 0.0
C820 C 0.16491 0.16811 0.97478 0.0
C821 C 0.19861 0.20335 0.92606 0.0
C822 C 0.21985 0.21965 0.92477 0.0
C823 C 0.21799 0.24321 0.91151 0.0
C824 C 0.19369 0.25079 0.90206 0.0
C825 C 0.17259 0.23415 0.90456 0.0
N826 N 0.17556 0.21068 0.91591 0.0
H827 H 0.20109 0.18432 0.93408 0.0
H828 H 0.15428 0.23929 0.896 0.0
C829 C 0.11635 0.12756 0.92951 0.0
N830 N 0.10946 0.1512 0.92061 0.0
C831 C 0.06629 0.13674 0.91324 0.0
C832 C 0.07292 0.11187 0.92195 0.0
C833 C 0.09838 0.10762 0.93042 0.0
C834 C 0.08495 0.15617 0.91265 0.0
H835 H 0.1362 0.12375 0.93463 0.0
H836 H 0.08007 0.17485 0.90482 0.0
C837 C 0.09696 0.23127 0.91935 0.0
C838 C 0.09918 0.23202 0.03163 0.0
N839 N 0.14841 0.25184 0.97551 0.0
C840 C 0.13922 0.27617 0.97859 0.0
C841 C 0.15616 0.29649 0.98326 0.0
C842 C 0.18281 0.29164 0.9848 0.0
C843 C 0.19181 0.26669 0.9789 0.0
C844 C 0.17412 0.24684 0.9747 0.0
C845 C 0.15897 0.15604 0.86467 0.0
O846 O 0.15148 0.18595 0.98488 0.0
O847 O 0.16323 0.16281 0.95095 0.0
O848 O 0.11082 0.21316 0.91039 0.0
O849 O 0.09799 0.23758 0.94303 0.0
O850 O 0.1188 0.21778 0.02857 0.0
O851 O 0.08958 0.24194 0.01145 0.0
O852 O 0.14509 0.1762 0.86481 0.0
O853 O 0.16572 0.14723 0.88643 0.0
H854 H 0.11863 0.27937 0.97968 0.0
H855 H 0.18085 0.22721 0.9728 0.0
H856 H 0.07242 0.12524 0.97947 0.0
H857 H 0.02357 0.1911 0.96361 0.0
H858 H 0.2379 0.21315 0.933 0.0
H859 H 0.19125 0.26859 0.89142 0.0
H860 H 0.04706 0.14112 0.90645 0.0
H861 H 0.10498 0.08873 0.93636 0.0
H862 H 0.14817 0.31521 0.98797 0.0
H863 H 0.2122 0.26214 0.97937 0.0
Cd864 Cd 0.57451 0.84766 0.68434 0.0
Cd865 Cd 0.50551 0.8805 0.7191 0.0
C866 C 0.5585 0.87346 0.63053 0.0
N867 N 0.56873 0.87991 0.65379 0.0
C868 C 0.58345 0.92021 0.63713 0.0
C869 C 0.57421 0.91357 0.61255 0.0
C870 C 0.56082 0.89021 0.60958 0.0
C871 C 0.58059 0.90297 0.65756 0.0
H872 H 0.55005 0.85461 0.62775 0.0
H873 H 0.58941 0.90731 0.67591 0.0
C874 C 0.56809 0.89805 0.73266 0.0
C875 C 0.50803 0.85956 0.77604 0.0
C876 C 0.50429 0.84236 0.79636 0.0
C877 C 0.50404 0.81567 0.79148 0.0
C878 C 0.50995 0.80704 0.76644 0.0
C879 C 0.51313 0.82496 0.74661 0.0
N880 N 0.5114 0.8506 0.75168 0.0
H881 H 0.50623 0.88009 0.77934 0.0
H882 H 0.51543 0.81834 0.72701 0.0
C883 C 0.52224 0.93424 0.69774 0.0
N884 N 0.51566 0.91095 0.68776 0.0
C885 C 0.51898 0.92768 0.64484 0.0
C886 C 0.52805 0.95118 0.65481 0.0
C887 C 0.52883 0.95452 0.68162 0.0
C888 C 0.513 0.90751 0.66187 0.0
H889 H 0.52233 0.93715 0.71836 0.0
H890 H 0.5065 0.88915 0.65443 0.0
C891 C 0.51113 0.83013 0.67114 0.0
C892 C 0.62164 0.82835 0.66291 0.0
N893 N 0.57089 0.81906 0.71868 0.0
C894 C 0.56542 0.79426 0.71227 0.0
C895 C 0.56771 0.77468 0.73054 0.0
C896 C 0.57597 0.78065 0.75565 0.0
C897 C 0.58018 0.80665 0.76208 0.0
C898 C 0.57776 0.82564 0.74312 0.0
C899 C 0.45597 0.9014 0.7314 0.0
O900 O 0.57579 0.88197 0.7159 0.0
O901 O 0.54434 0.89977 0.73852 0.0
O902 O 0.50141 0.84639 0.68672 0.0
O903 O 0.53535 0.8282 0.66817 0.0
O904 O 0.62179 0.8458 0.68006 0.0
O905 O 0.59976 0.81979 0.65619 0.0
O906 O 0.45862 0.88167 0.71725 0.0
O907 O 0.47637 0.91072 0.74108 0.0
H908 H 0.56067 0.78949 0.69254 0.0
H909 H 0.58258 0.84535 0.74773 0.0
H910 H 0.59401 0.93795 0.64022 0.0
H911 H 0.55393 0.88404 0.59086 0.0
H912 H 0.49948 0.85005 0.81516 0.0
H913 H 0.51053 0.78667 0.76185 0.0
H914 H 0.51753 0.92463 0.62425 0.0
H915 H 0.53459 0.97271 0.69013 0.0
H916 H 0.56472 0.75492 0.72451 0.0
H917 H 0.58632 0.81215 0.78125 0.0
Cd918 Cd 0.98867 0.12221 0.21666 0.0
Cd919 Cd 0.92071 0.15279 0.17985 0.0
C920 C 0.97296 0.06741 0.19684 0.0
N921 N 0.97952 0.09048 0.18635 0.0
C922 C 0.97836 0.0723 0.14394 0.0
C923 C 0.96947 0.04886 0.15426 0.0
C924 C 0.96761 0.04642 0.18115 0.0
C925 C 0.98322 0.09311 0.16051 0.0
H926 H 0.9721 0.06519 0.21753 0.0
H927 H 0.98975 0.11132 0.15273 0.0
C928 C 0.98346 0.17039 0.16624 0.0
C929 C 0.94375 0.19668 0.21895 0.0
C930 C 0.94192 0.21603 0.23759 0.0
C931 C 0.91962 0.21784 0.2529 0.0
C932 C 0.9007 0.19859 0.25055 0.0
C933 C 0.90342 0.1795 0.23179 0.0
N934 N 0.92426 0.1794 0.21592 0.0
H935 H 0.9601 0.19644 0.20612 0.0
H936 H 0.88805 0.16573 0.22871 0.0
C937 C 0.93707 0.12385 0.12808 0.0
N938 N 0.92708 0.11833 0.15169 0.0
C939 C 0.91343 0.07681 0.13711 0.0
C940 C 0.92242 0.08247 0.1122 0.0
C941 C 0.93515 0.10601 0.10801 0.0
C942 C 0.91581 0.09516 0.15662 0.0
H943 H 0.94498 0.14275 0.1243 0.0
H944 H 0.90706 0.09145 0.17512 0.0
C945 C 0.92516 0.10453 0.22999 0.0
C946 C 0.03878 0.10201 0.22756 0.0
N947 N 0.98451 0.15386 0.24814 0.0
C948 C 0.97096 0.15018 0.2703 0.0
C949 C 0.97409 0.16712 0.29103 0.0
C950 C 0.99151 0.18776 0.28893 0.0
C951 C 0.00387 0.19195 0.26517 0.0
C952 C 0.00019 0.17458 0.24501 0.0
C953 C 0.87441 0.17196 0.15623 0.0
O954 O 0.99237 0.15484 0.18293 0.0
O955 O 0.95937 0.17243 0.16243 0.0
O956 O 0.91679 0.11965 0.21264 0.0
O957 O 0.94907 0.10338 0.2354 0.0
O958 O 0.03519 0.12099 0.21264 0.0
O959 O 0.01903 0.09318 0.239 0.0
O960 O 0.87359 0.15495 0.17378 0.0
O961 O 0.89652 0.18052 0.15037 0.0
H962 H 0.95898 0.13331 0.2726 0.0
H963 H 0.01112 0.17671 0.22738 0.0
H964 H 0.98061 0.07481 0.12334 0.0
H965 H 0.96214 0.02836 0.1901 0.0
H966 H 0.95717 0.23021 0.23905 0.0
H967 H 0.88304 0.19934 0.26168 0.0
H968 H 0.90341 0.05894 0.14114 0.0
H969 H 0.9418 0.11145 0.08898 0.0
H970 H 0.96403 0.16332 0.30893 0.0
H971 H 0.01778 0.20733 0.26273 0.0
Cd972 Cd 0.01186 0.62455 0.28222 0.0
Cd973 Cd 0.08052 0.65477 0.3208 0.0
C974 C 0.02745 0.5694 0.30251 0.0
N975 N 0.01965 0.59238 0.31236 0.0
C976 C 0.01623 0.57398 0.35455 0.0
C977 C 0.02573 0.5504 0.34507 0.0
C978 C 0.03076 0.5482 0.31853 0.0
C979 C 0.01337 0.59492 0.33771 0.0
H980 H 0.03062 0.56735 0.28202 0.0
H981 H 0.0061 0.61313 0.34484 0.0
C982 C 0.01777 0.67332 0.33239 0.0
C983 C 0.06237 0.70323 0.28503 0.0
C984 C 0.06626 0.72335 0.26761 0.0
C985 C 0.08839 0.72343 0.25196 0.0
C986 C 0.10486 0.70187 0.25266 0.0
C987 C 0.10002 0.682 0.27011 0.0
N988 N 0.07949 0.6834 0.28634 0.0
H989 H 0.04648 0.70432 0.2984 0.0
H990 H 0.11365 0.6663 0.272 0.0
C991 C 0.06085 0.62532 0.37089 0.0
N992 N 0.07133 0.61991 0.34749 0.0
C993 C 0.08083 0.57681 0.36075 0.0
C994 C 0.0712 0.58214 0.38554 0.0
C995 C 0.06045 0.60663 0.39022 0.0
C996 C 0.08088 0.5961 0.34199 0.0
H997 H 0.05431 0.64466 0.37514 0.0
H998 H 0.08994 0.59239 0.32362 0.0
C999 C 0.07578 0.60833 0.26873 0.0
C1000 C 0.96224 0.60403 0.27054 0.0
N1001 N 0.01474 0.65369 0.24859 0.0
C1002 C 0.01516 0.64374 0.22437 0.0
C1003 C 0.00949 0.6594 0.20324 0.0
C1004 C 0.00328 0.68552 0.20718 0.0
C1005 C 0.00522 0.69565 0.23227 0.0
C1006 C 0.01058 0.6792 0.25288 0.0
C1007 C 0.1273 0.67159 0.34525 0.0
O1008 O 0.00961 0.65759 0.3155 0.0
O1009 O 0.04167 0.67525 0.33731 0.0
O1010 O 0.08421 0.62294 0.28649 0.0
O1011 O 0.05182 0.60699 0.26368 0.0
O1012 O 0.96513 0.6233 0.28529 0.0
O1013 O 0.98245 0.59507 0.26002 0.0
O1014 O 0.12753 0.65481 0.32749 0.0
O1015 O 0.10545 0.68059 0.35152 0.0
H1016 H 0.01786 0.62322 0.22168 0.0
H1017 H 0.0096 0.68643 0.27239 0.0
H1018 H 0.01185 0.57648 0.3748 0.0
H1019 H 0.03695 0.53013 0.31007 0.0
H1020 H 0.0528 0.73934 0.26742 0.0
H1021 H 0.12236 0.70118 0.24128 0.0
H1022 H 0.08922 0.55826 0.35612 0.0
H1023 H 0.05344 0.61201 0.40913 0.0
H1024 H 0.00791 0.65059 0.18438 0.0
H1025 H 0.00102 0.71574 0.23619 0.0
Cd1026 Cd 0.48576 0.38142 0.78052 0.0
Cd1027 Cd 0.41964 0.35125 0.81703 0.0
C1028 C 0.46423 0.43056 0.81154 0.0
N1029 N 0.48001 0.40989 0.8149 0.0
C1030 C 0.4969 0.42825 0.85382 0.0
C1031 C 0.48115 0.44995 0.8503 0.0
C1032 C 0.46432 0.45072 0.82919 0.0
C1033 C 0.49624 0.40837 0.83551 0.0
H1034 H 0.45246 0.43225 0.79454 0.0
H1035 H 0.50933 0.39221 0.83723 0.0
C1036 C 0.48311 0.33137 0.82826 0.0
C1037 C 0.43626 0.30309 0.78064 0.0
C1038 C 0.43268 0.28335 0.76276 0.0
C1039 C 0.41127 0.28395 0.74616 0.0
C1040 C 0.39522 0.30584 0.74661 0.0
C1041 C 0.39984 0.32546 0.76453 0.0
N1042 N 0.41976 0.32347 0.78146 0.0
H1043 H 0.45149 0.30131 0.79465 0.0
H1044 H 0.38649 0.34143 0.76609 0.0
C1045 C 0.44795 0.38213 0.86352 0.0
N1046 N 0.42951 0.38505 0.84513 0.0
C1047 C 0.41227 0.42177 0.86713 0.0
C1048 C 0.42987 0.41794 0.88739 0.0
C1049 C 0.44881 0.39875 0.88459 0.0
C1050 C 0.4124 0.40492 0.84609 0.0
H1051 H 0.46113 0.36608 0.86288 0.0
H1052 H 0.39747 0.40642 0.8316 0.0
C1053 C 0.42159 0.39862 0.76695 0.0
C1054 C 0.53358 0.4044 0.76599 0.0
N1055 N 0.483 0.35117 0.74784 0.0
C1056 C 0.48238 0.36048 0.72337 0.0
C1057 C 0.48892 0.34454 0.70269 0.0
C1058 C 0.49618 0.31882 0.70739 0.0
C1059 C 0.49422 0.30921 0.73266 0.0
C1060 C 0.4881 0.32596 0.75277 0.0
C1061 C 0.3747 0.33213 0.84294 0.0
O1062 O 0.49277 0.34736 0.81243 0.0
O1063 O 0.45892 0.33021 0.83192 0.0
O1064 O 0.41236 0.38445 0.78468 0.0
O1065 O 0.44562 0.39883 0.76191 0.0
O1066 O 0.53246 0.38334 0.77828 0.0
O1067 O 0.51227 0.41424 0.75908 0.0
O1068 O 0.37328 0.35119 0.82772 0.0
O1069 O 0.39679 0.32213 0.84593 0.0
H1070 H 0.47903 0.38083 0.72014 0.0
H1071 H 0.48936 0.31918 0.77239 0.0
H1072 H 0.51021 0.42717 0.86987 0.0
H1073 H 0.45185 0.46719 0.82594 0.0
H1074 H 0.44591 0.26717 0.76283 0.0
H1075 H 0.37825 0.30708 0.73451 0.0
H1076 H 0.39712 0.43608 0.86851 0.0
H1077 H 0.46317 0.39547 0.89939 0.0
H1078 H 0.49045 0.35294 0.68364 0.0
H1079 H 0.49916 0.28941 0.73713 0.0
Cd1080 Cd 0.71538 0.51068 0.882 0.0
Cd1081 Cd 0.67568 0.57776 0.85446 0.0
C1082 C 0.68979 0.52199 0.93565 0.0
N1083 N 0.68199 0.51522 0.9116 0.0
C1084 C 0.63976 0.50515 0.92736 0.0
C1085 C 0.64749 0.51186 0.95248 0.0
C1086 C 0.67275 0.52081 0.95629 0.0
C1087 C 0.65755 0.50678 0.90707 0.0
H1088 H 0.7096 0.52738 0.93909 0.0
H1089 H 0.6521 0.50049 0.88796 0.0
C1090 C 0.6676 0.51534 0.83173 0.0
C1091 C 0.70176 0.57173 0.79958 0.0
C1092 C 0.71969 0.57387 0.77967 0.0
C1093 C 0.74555 0.57963 0.78538 0.0
C1094 C 0.75286 0.58187 0.81138 0.0
C1095 C 0.73423 0.57959 0.83074 0.0
N1096 N 0.70918 0.57492 0.82449 0.0
H1097 H 0.68162 0.56877 0.79507 0.0
H1098 H 0.73972 0.58248 0.85058 0.0
C1099 C 0.62228 0.56039 0.87836 0.0
N1100 N 0.64631 0.56669 0.88668 0.0
C1101 C 0.63084 0.57181 0.92978 0.0
C1102 C 0.60542 0.56734 0.9214 0.0
C1103 C 0.60147 0.56057 0.89544 0.0
C1104 C 0.65101 0.57183 0.91195 0.0
H1105 H 0.61892 0.55716 0.85803 0.0
H1106 H 0.67007 0.57731 0.9182 0.0
C1107 C 0.72499 0.57398 0.90295 0.0
C1108 C 0.72917 0.46183 0.90346 0.0
N1109 N 0.74899 0.51602 0.85299 0.0
C1110 C 0.77306 0.51296 0.86285 0.0
C1111 C 0.79395 0.50854 0.84649 0.0
C1112 C 0.78998 0.50724 0.8197 0.0
C1113 C 0.76522 0.51282 0.81004 0.0
C1114 C 0.74479 0.51677 0.82715 0.0
C1115 C 0.65065 0.62413 0.83763 0.0
O1116 O 0.68421 0.50566 0.84695 0.0
O1117 O 0.66215 0.53918 0.83232 0.0
O1118 O 0.70746 0.58247 0.88813 0.0
O1119 O 0.73151 0.55032 0.90276 0.0
O1120 O 0.71561 0.46376 0.88325 0.0
O1121 O 0.73794 0.48267 0.91277 0.0
O1122 O 0.67007 0.62488 0.85246 0.0
O1123 O 0.64332 0.60201 0.83035 0.0
H1124 H 0.77567 0.51193 0.88352 0.0
H1125 H 0.72542 0.51895 0.81979 0.0
H1126 H 0.62049 0.4981 0.92355 0.0
H1127 H 0.67948 0.52675 0.97514 0.0
H1128 H 0.71298 0.57253 0.75995 0.0
H1129 H 0.77261 0.58605 0.81669 0.0
H1130 H 0.63503 0.57638 0.9497 0.0
H1131 H 0.58231 0.55734 0.88785 0.0
H1132 H 0.81251 0.50406 0.85495 0.0
H1133 H 0.76133 0.5126 0.78953 0.0
Cd1134 Cd 0.22099 0.9885 0.11111 0.0
Cd1135 Cd 0.19044 0.92555 0.151 0.0
C1136 C 0.19095 0.96337 0.06345 0.0
N1137 N 0.18568 0.97715 0.08514 0.0
C1138 C 0.14131 0.98084 0.07263 0.0
C1139 C 0.14613 0.96521 0.05106 0.0
C1140 C 0.17137 0.95676 0.04642 0.0
C1141 C 0.16153 0.98653 0.08964 0.0
H1142 H 0.21046 0.95791 0.05882 0.0
H1143 H 0.15793 0.99849 0.10632 0.0
C1144 C 0.17626 0.98997 0.1638 0.0
C1145 C 0.22166 0.94015 0.20127 0.0
C1146 C 0.24099 0.93896 0.2199 0.0
C1147 C 0.26553 0.9295 0.21325 0.0
C1148 C 0.27044 0.92342 0.18729 0.0
C1149 C 0.25045 0.92468 0.16931 0.0
N1150 N 0.22649 0.93239 0.17673 0.0
H1151 H 0.20228 0.94552 0.20682 0.0
H1152 H 0.25381 0.91817 0.14983 0.0
C1153 C 0.13564 0.94286 0.126 0.0
N1154 N 0.15763 0.92946 0.12079 0.0
C1155 C 0.137 0.90722 0.08628 0.0
C1156 C 0.11383 0.92016 0.09165 0.0
C1157 C 0.11345 0.93879 0.11125 0.0
C1158 C 0.15879 0.91227 0.10106 0.0
H1159 H 0.13468 0.95547 0.14253 0.0
H1160 H 0.176 0.90089 0.09811 0.0
C1161 C 0.23458 0.92468 0.09729 0.0
C1162 C 0.23488 0.03541 0.08587 0.0
N1163 N 0.25343 0.98275 0.14168 0.0
C1164 C 0.27706 0.97444 0.13382 0.0
C1165 C 0.29824 0.97615 0.15034 0.0
C1166 C 0.29515 0.98707 0.17495 0.0
C1167 C 0.27023 0.9941 0.18299 0.0
C1168 C 0.24961 0.99192 0.16593 0.0
C1169 C 0.16956 0.88012 0.17425 0.0
O1170 O 0.19026 0.99856 0.14562 0.0
O1171 O 0.17463 0.96597 0.16831 0.0
O1172 O 0.21916 0.91732 0.11482 0.0
O1173 O 0.23922 0.94847 0.09371 0.0
O1174 O 0.22312 0.03507 0.10724 0.0
O1175 O 0.24157 0.01375 0.0767 0.0
O1176 O 0.18572 0.87882 0.15597 0.0
O1177 O 0.16397 0.90248 0.18239 0.0
H1178 H 0.27984 0.96788 0.11424 0.0
H1179 H 0.23093 -0.00093 0.17163 0.0
H1180 H 0.12208 0.98797 0.07663 0.0
H1181 H 0.17605 0.94548 0.02946 0.0
H1182 H 0.23604 0.94346 0.23968 0.0
H1183 H 0.28917 0.91645 0.18117 0.0
H1184 H 0.13789 0.89227 0.07172 0.0
H1185 H 0.09575 0.94865 0.11637 0.0
H1186 H 0.31704 0.97024 0.14342 0.0
H1187 H 0.26688 0.00303 0.20156 0.0
Cd1188 Cd 0.27837 0.01209 0.61482 0.0
Cd1189 Cd 0.31671 0.07839 0.64417 0.0
C1190 C 0.30716 0.02759 0.5631 0.0
N1191 N 0.31288 0.01688 0.58632 0.0
C1192 C 0.35402 0.00291 0.57046 0.0
C1193 C 0.34824 0.01352 0.54624 0.0
C1194 C 0.32472 0.02646 0.54293 0.0
C1195 C 0.33573 0.00452 0.59032 0.0
H1196 H 0.28837 0.03574 0.55956 0.0
H1197 H 0.33936 0.9951 0.60857 0.0
C1198 C 0.3233 0.01552 0.66729 0.0
C1199 C 0.28718 0.07245 0.69705 0.0
C1200 C 0.26839 0.07494 0.71608 0.0
C1201 C 0.24335 0.08272 0.70931 0.0
C1202 C 0.23759 0.08668 0.68313 0.0
C1203 C 0.25701 0.08375 0.66463 0.0
N1204 N 0.28131 0.07698 0.67193 0.0
H1205 H 0.30682 0.06806 0.70251 0.0
H1206 H 0.25285 0.0879 0.64467 0.0
C1207 C 0.36626 0.04842 0.62051 0.0
N1208 N 0.34749 0.06552 0.61387 0.0
C1209 C 0.37159 0.07865 0.57682 0.0
C1210 C 0.39212 0.06252 0.58428 0.0
C1211 C 0.38849 0.04616 0.60558 0.0
C1212 C 0.34935 0.07986 0.59201 0.0
H1213 H 0.3649 0.03756 0.63816 0.0
H1214 H 0.33453 0.09386 0.58753 0.0
C1215 C 0.26967 0.07575 0.59372 0.0
C1216 C 0.26494 0.96355 0.59247 0.0
N1217 N 0.24466 0.01726 0.64376 0.0
C1218 C 0.22068 0.01239 0.63446 0.0
C1219 C 0.20023 0.00801 0.65139 0.0
C1220 C 0.20458 0.00867 0.67815 0.0
C1221 C 0.22911 0.01603 0.68707 0.0
C1222 C 0.24909 0.01984 0.66945 0.0
C1223 C 0.34141 0.12436 0.66284 0.0
O1224 O 0.30806 0.00599 0.65069 0.0
O1225 O 0.32808 0.03952 0.66782 0.0
O1226 O 0.28721 0.08477 0.60826 0.0
O1227 O 0.26267 0.05226 0.59503 0.0
O1228 O 0.27754 0.96522 0.61331 0.0
O1229 O 0.25686 0.98454 0.58284 0.0
O1230 O 0.32437 0.12539 0.64535 0.0
O1231 O 0.3468 0.10216 0.6715 0.0
H1232 H 0.21789 0.00994 0.61394 0.0
H1233 H 0.26838 0.02331 0.6764 0.0
H1234 H 0.37197 0.99269 0.57368 0.0
H1235 H 0.3196 0.03509 0.52461 0.0
H1236 H 0.27388 0.0723 0.73605 0.0
H1237 H 0.21851 0.0927 0.67713 0.0
H1238 H 0.37342 0.09186 0.56078 0.0
H1239 H 0.40337 0.03283 0.6117 0.0
H1240 H 0.18184 0.0021 0.64351 0.0
H1241 H 0.23325 0.0173 0.7075 0.0
Cd1242 Cd 0.81903 0.42375 0.34609 0.0
Cd1243 Cd 0.78042 0.48831 0.3796 0.0
C1244 C 0.87112 0.44493 0.3705 0.0
N1245 N 0.84813 0.43504 0.37834 0.0
C1246 C 0.8656 0.42513 0.41976 0.0
C1247 C 0.89013 0.43311 0.41141 0.0
C1248 C 0.89244 0.44437 0.3869 0.0
C1249 C 0.84481 0.42594 0.4027 0.0
H1250 H 0.87358 0.45112 0.35076 0.0
H1251 H 0.82664 0.41753 0.40837 0.0
C1252 C 0.76991 0.42358 0.39482 0.0
C1253 C 0.72636 0.47179 0.35192 0.0
C1254 C 0.70551 0.47522 0.33515 0.0
C1255 C 0.70759 0.49281 0.31464 0.0
C1256 C 0.73123 0.50541 0.31066 0.0
C1257 C 0.75141 0.50157 0.32793 0.0
N1258 N 0.74851 0.48535 0.34829 0.0
H1259 H 0.72427 0.45947 0.3686 0.0
H1260 H 0.76894 0.51266 0.32591 0.0
C1261 C 0.80462 0.47255 0.43293 0.0
N1262 N 0.81298 0.48167 0.40985 0.0
C1263 C 0.85473 0.4903 0.42763 0.0
C1264 C 0.84639 0.4811 0.45174 0.0
C1265 C 0.8211 0.47177 0.45403 0.0
C1266 C 0.83747 0.49065 0.40682 0.0
H1267 H 0.78476 0.46681 0.43536 0.0
H1268 H 0.84337 0.49876 0.38854 0.0
C1269 C 0.82803 0.48714 0.32844 0.0
C1270 C 0.84505 0.37842 0.32773 0.0
N1271 N 0.78185 0.42379 0.32099 0.0
C1272 C 0.77488 0.4436 0.30529 0.0
C1273 C 0.75535 0.44018 0.28704 0.0
C1274 C 0.74332 0.41598 0.28463 0.0
C1275 C 0.74996 0.39643 0.30221 0.0
C1276 C 0.76937 0.40078 0.32027 0.0
C1277 C 0.76563 0.53562 0.40345 0.0
O1278 O 0.78723 0.41594 0.37929 0.0
O1279 O 0.76414 0.44733 0.39681 0.0
O1280 O 0.81222 0.49497 0.34545 0.0
O1281 O 0.83247 0.46328 0.32528 0.0
O1282 O 0.8307 0.37786 0.34749 0.0
O1283 O 0.84688 0.39988 0.31618 0.0
O1284 O 0.78029 0.53488 0.38392 0.0
O1285 O 0.75632 0.51431 0.41101 0.0
H1286 H 0.78522 0.46164 0.30601 0.0
H1287 H 0.77561 0.38527 0.33276 0.0
H1288 H 0.86288 0.4167 0.43867 0.0
H1289 H 0.91101 0.45039 0.37949 0.0
H1290 H 0.68762 0.4651 0.33884 0.0
H1291 H 0.73357 0.51951 0.29544 0.0
H1292 H 0.87407 0.49774 0.42507 0.0
H1293 H 0.81393 0.46415 0.4721 0.0
H1294 H 0.75057 0.45595 0.2742 0.0
H1295 H 0.7416 0.37735 0.30094 0.0
H1296 H -0.00135 0.53367 0.38809 0.0
H1297 H 0.05369 0.39682 0.38048 0.0
H1298 H 0.06596 0.51669 0.34191 0.0
H1299 H 0.07222 0.43174 0.45382 0.0
H1300 H 0.0355 0.43768 0.36624 0.0
H1301 H 0.00683 0.49391 0.41304 0.0
C1302 C 0.01521 0.52186 0.38334 0.0
C1303 C 0.03125 0.52821 0.36237 0.0
C1304 C 0.0429 0.43606 0.38572 0.0
C1305 C 0.04024 0.48317 0.39039 0.0
C1306 C 0.05319 0.41273 0.39399 0.0
C1307 C 0.06493 0.41088 0.4183 0.0
C1308 C 0.04421 0.45765 0.40181 0.0
C1309 C 0.06393 0.43252 0.43469 0.0
C1310 C 0.01975 0.49928 0.39753 0.0
C1311 C 0.05248 0.51219 0.35719 0.0
N1312 N 0.05421 0.45533 0.42595 0.0
N1313 N 0.05609 0.49023 0.3708 0.0
H1314 H 0.4571 0.60435 0.89437 0.0
H1315 H 0.47486 0.45206 0.90287 0.0
H1316 H 0.41914 0.55728 0.95178 0.0
H1317 H 0.49096 0.49928 0.83647 0.0
H1318 H 0.46672 0.49146 0.92821 0.0
H1319 H 0.48251 0.56731 0.8815 0.0
C1320 C 0.45436 0.58645 0.90475 0.0
C1321 C 0.43532 0.58402 0.92389 0.0
C1322 C 0.47258 0.49313 0.90824 0.0
C1323 C 0.46412 0.54103 0.90841 0.0
C1324 C 0.47716 0.47073 0.89384 0.0
C1325 C 0.48262 0.47261 0.86745 0.0
C1326 C 0.47416 0.51733 0.89609 0.0
C1327 C 0.48612 0.49712 0.85666 0.0
C1328 C 0.46884 0.56516 0.89715 0.0
C1329 C 0.43282 0.55996 0.93625 0.0
N1330 N 0.48154 0.51851 0.87094 0.0
N1331 N 0.44672 0.53927 0.928 0.0
H1332 H 0.57195 0.97849 0.66147 0.0
H1333 H 0.5639 0.07554 0.5448 0.0
H1334 H 0.50706 0.97117 0.60989 0.0
H1335 H 0.58526 0.09683 0.62234 0.0
H1336 H 0.5487 0.03342 0.56134 0.0
H1337 H 0.58522 0.01723 0.63872 0.0
C1338 C 0.56052 0.98503 0.64524 0.0
C1339 C 0.53792 0.97209 0.63805 0.0
C1340 C 0.55647 0.04757 0.57458 0.0
C1341 C 0.55319 0.0164 0.61181 0.0
C1342 C 0.56513 0.07143 0.56524 0.0
C1343 C 0.57575 0.08963 0.5823 0.0
C1344 C 0.55932 0.04189 0.60087 0.0
C1345 C 0.57693 0.08353 0.60857 0.0
C1346 C 0.56813 0.0071 0.63229 0.0
C1347 C 0.52442 0.98086 0.61623 0.0
N1348 N 0.56915 0.0601 0.61696 0.0
N1349 N 0.5321 0.00282 0.60392 0.0
H1350 H 0.92791 0.92775 0.04288 0.0
H1351 H 0.92812 0.01755 0.16147 0.0
H1352 H 0.92824 0.89817 0.12068 0.0
H1353 H 0.99135 0.0308 0.10886 0.0
H1354 H 0.91783 0.97804 0.13844 0.0
H1355 H 0.94394 0.96948 0.05945 0.0
C1356 C 0.93185 0.92987 0.06328 0.0
C1357 C 0.92666 0.90955 0.08049 0.0
C1358 C 0.93389 0.9897 0.13191 0.0
C1359 C 0.94423 0.95676 0.09923 0.0
C1360 C 0.9399 0.01216 0.14507 0.0
C1361 C 0.96125 0.02703 0.13768 0.0
C1362 C 0.94894 0.98216 0.11085 0.0
C1363 C 0.97497 0.01968 0.11543 0.0
C1364 C 0.941 0.95352 0.07261 0.0
C1365 C 0.93214 0.91317 0.1067 0.0
N1366 N 0.9687 0.99747 0.10278 0.0
N1367 N 0.94011 0.93648 0.11532 0.0
H1368 H 0.40055 0.02193 0.54449 0.0
H1369 H 0.39398 0.03178 0.39161 0.0
H1370 H 0.33623 -0.00116 0.49732 0.0
H1371 H 0.44997 0.07257 0.43794 0.0
H1372 H 0.3811 0.00752 0.42942 0.0
H1373 H 0.42632 0.02853 0.50519 0.0
C1374 C 0.39204 0.0179 0.5259 0.0
C1375 C 0.36595 0.01111 0.52397 0.0
C1376 C 0.39646 0.02155 0.43124 0.0
C1377 C 0.39517 0.01787 0.47929 0.0
C1378 C 0.40406 0.03536 0.40951 0.0
C1379 C 0.42279 0.05485 0.41147 0.0
C1380 C 0.4074 0.02733 0.45529 0.0
C1381 C 0.43479 0.05848 0.43556 0.0
C1382 C 0.4067 0.02159 0.50353 0.0
C1383 C 0.35603 0.0051 0.49955 0.0
N1384 N 0.42661 0.04516 0.45661 0.0
N1385 N 0.3705 0.009 0.47815 0.0
H1386 H 0.13673 0.91705 0.03302 0.0
H1387 H 0.06451 0.9585 0.91129 0.0
H1388 H 0.10903 0.99533 0.02784 0.0
H1389 H 0.0574 0.88161 0.94236 0.0
H1390 H 0.07819 0.9738 0.95367 0.0
H1391 H 0.10586 0.90418 0.00041 0.0
C1392 C 0.12373 0.93146 0.02537 0.0
C1393 C 0.12531 0.95724 0.03329 0.0
C1394 C 0.07285 0.95375 0.9513 0.0
C1395 C 0.09058 0.94285 0.99487 0.0
C1396 C 0.06513 0.94497 0.92703 0.0
C1397 C 0.05996 0.91868 0.92295 0.0
C1398 C 0.07597 0.93597 0.97143 0.0
C1399 C 0.06103 0.90206 0.94434 0.0
C1400 C 0.10607 0.9241 0.0067 0.0
C1401 C 0.10829 0.97521 0.0223 0.0
N1402 N 0.06944 0.91088 0.96746 0.0
N1403 N 0.09197 0.9678 0.00309 0.0
H1404 H 0.89773 0.46816 0.45441 0.0
H1405 H 0.89068 0.4566 0.60726 0.0
H1406 H 0.83431 0.49416 0.50137 0.0
H1407 H 0.95091 0.42136 0.56158 0.0
H1408 H 0.87579 0.47938 0.5693 0.0
H1409 H 0.92269 0.45946 0.49362 0.0
C1410 C 0.88919 0.47224 0.47293 0.0
C1411 C 0.86357 0.48076 0.47465 0.0
C1412 C 0.89245 0.46688 0.56759 0.0
C1413 C 0.89197 0.47149 0.51953 0.0
C1414 C 0.9012 0.45395 0.58944 0.0
C1415 C 0.92192 0.43652 0.58775 0.0
C1416 C 0.90419 0.46221 0.54366 0.0
C1417 C 0.93434 0.43388 0.56375 0.0
C1418 C 0.90341 0.46735 0.49531 0.0
C1419 C 0.85366 0.48662 0.49915 0.0
N1420 N 0.92507 0.44628 0.54258 0.0
N1421 N 0.86774 0.48157 0.52059 0.0
H1422 H 0.59567 0.52322 0.95409 0.0
H1423 H 0.60166 0.53459 0.10665 0.0
H1424 H 0.65806 0.49617 0.0018 0.0
H1425 H 0.54382 0.57257 0.06011 0.0
H1426 H 0.61511 0.51011 0.06921 0.0
H1427 H 0.56999 0.53135 0.99297 0.0
C1428 C 0.60387 0.51884 0.9727 0.0
C1429 C 0.62955 0.51057 0.97479 0.0
C1430 C 0.59927 0.5236 0.06722 0.0
C1431 C 0.60019 0.51884 0.01922 0.0
C1432 C 0.59135 0.53754 0.08876 0.0
C1433 C 0.57188 0.5563 0.08662 0.0
C1434 C 0.588 0.52862 0.04315 0.0
C1435 C 0.55958 0.55911 0.06258 0.0
C1436 C 0.58919 0.52332 0.99488 0.0
C1437 C 0.63878 0.50383 -0.00067 0.0
N1438 N 0.56814 0.54577 0.04169 0.0
N1439 N 0.62429 0.50851 0.02058 0.0
H1440 H 0.38961 0.3946 0.03345 0.0
H1441 H 0.54318 0.39535 0.03012 0.0
H1442 H 0.43634 0.43637 0.08861 0.0
H1443 H 0.4956 0.33363 0.00154 0.0
H1444 H 0.50413 0.42013 0.04044 0.0
H1445 H 0.42852 0.38167 0.01121 0.0
C1446 C 0.40781 0.40145 0.04091 0.0
C1447 C 0.40921 0.41635 0.06356 0.0
C1448 C 0.50234 0.40128 0.03162 0.0
C1449 C 0.45419 0.40201 0.03717 0.0
C1450 C 0.52457 0.38711 0.02592 0.0
C1451 C 0.52259 0.36181 0.01656 0.0
C1452 C 0.47807 0.3903 0.02693 0.0
C1453 C 0.49802 0.35258 0.00994 0.0
C1454 C 0.43011 0.39417 0.02787 0.0
C1455 C 0.43379 0.42505 0.07131 0.0
N1456 N 0.4767 0.36668 0.01556 0.0
N1457 N 0.45529 0.4175 0.0583 0.0
H1458 H 0.00884 0.16202 0.9327 0.0
H1459 H 0.928 0.04241 0.9267 0.0
H1460 H 0.03078 0.10965 0.99375 0.0
H1461 H 0.89265 0.11575 0.94471 0.0
H1462 H 0.96919 0.05893 0.94372 0.0
H1463 H 0.96974 0.1372 0.92607 0.0
C1464 C 0.00542 0.1454 0.94489 0.0
C1465 C 0.02275 0.13851 0.9645 0.0
C1466 C 0.95205 0.07086 0.9447 0.0
C1467 C 0.9783 0.10958 0.9562 0.0
C1468 C 0.92866 0.06163 0.93486 0.0
C1469 C 0.90692 0.07791 0.93377 0.0
C1470 C 0.95346 0.09647 0.95314 0.0
C1471 C 0.90874 0.10245 0.94504 0.0
C1472 C 0.9832 0.13119 0.94089 0.0
C1473 C 0.01778 0.11585 0.97866 0.0
N1474 N 0.93178 0.11121 0.9536 0.0
N1475 N 0.99576 0.10212 0.97435 0.0
H1476 H 0.57015 0.95206 0.43066 0.0
H1477 H 0.50271 0.83362 0.49769 0.0
H1478 H 0.60858 0.88239 0.45559 0.0
H1479 H 0.46154 0.90279 0.47716 0.0
H1480 H 0.54333 0.85656 0.4927 0.0
H1481 H 0.53241 0.93961 0.45613 0.0
C1482 C 0.57087 0.93434 0.44169 0.0
C1483 C 0.59242 0.91787 0.44019 0.0
C1484 C 0.5255 0.86698 0.48953 0.0
C1485 C 0.54947 0.90384 0.46981 0.0
C1486 C 0.50231 0.85386 0.49245 0.0
C1487 C 0.47893 0.86615 0.48677 0.0
C1488 C 0.52536 0.89242 0.48019 0.0
C1489 C 0.47932 0.89249 0.48074 0.0
C1490 C 0.54937 0.9274 0.45644 0.0
C1491 C 0.59254 0.89575 0.45581 0.0
N1492 N 0.50228 0.90465 0.47682 0.0
N1493 N 0.57129 0.88922 0.46955 0.0
H1494 H -0.0004 0.66635 0.49774 0.0
H1495 H 0.06854 0.54714 0.56467 0.0
H1496 H 0.9582 0.60077 0.52741 0.0
H1497 H 0.10616 0.61726 0.53996 0.0
H1498 H 0.02953 0.56087 0.54183 0.0
H1499 H 0.03985 0.64267 0.50258 0.0
C1500 C -0.00102 0.64687 0.50527 0.0
C1501 C 0.97564 0.63595 0.51352 0.0
C1502 C 0.04656 0.57293 0.54102 0.0
C1503 C 0.02177 0.60868 0.51925 0.0
C1504 C 0.0688 0.56522 0.55422 0.0
C1505 C 0.09058 0.58136 0.55494 0.0
C1506 C 0.04619 0.59688 0.52837 0.0
C1507 C 0.09002 0.60408 0.54018 0.0
C1508 C 0.02198 0.63329 0.50793 0.0
C1509 C 0.97588 0.61023 0.52191 0.0
N1510 N 0.0681 0.61129 0.52789 0.0
N1511 N -0.00132 0.59762 0.52523 0.0
H1512 H 0.97094 0.45557 0.59796 0.0
H1513 H 0.96108 0.60805 0.60496 0.0
H1514 H 0.00087 0.50293 0.65922 0.0
H1515 H 0.92234 0.56234 0.54702 0.0
H1516 H 0.98586 0.57048 0.61734 0.0
H1517 H 0.96267 0.49456 0.57245 0.0
C1518 C 0.97598 0.47413 0.60589 0.0
C1519 C 0.98523 0.47615 0.63121 0.0
C1520 C 0.97216 0.5687 0.60169 0.0
C1521 C 0.9767 0.52067 0.6021 0.0
C1522 C 0.95804 0.59034 0.59436 0.0
C1523 C 0.93893 0.58844 0.57525 0.0
C1524 C 0.96692 0.54475 0.59023 0.0
C1525 C 0.93605 0.5646 0.56257 0.0
C1526 C 0.97141 0.49636 0.59133 0.0
C1527 C 0.9926 0.50057 0.6402 0.0
N1528 N 0.94952 0.54357 0.57061 0.0
N1529 N 0.98781 0.52188 0.62584 0.0
H1530 H 0.52259 0.54058 0.09892 0.0
H1531 H 0.53784 0.38828 0.1079 0.0
H1532 H 0.49643 0.49348 0.16214 0.0
H1533 H 0.57585 0.43485 0.05014 0.0
H1534 H 0.51268 0.42554 0.12071 0.0
H1535 H 0.5324 0.50139 0.07437 0.0
C1536 C 0.51876 0.52204 0.10755 0.0
C1537 C 0.51024 0.52028 0.13316 0.0
C1538 C 0.52634 0.42757 0.10503 0.0
C1539 C 0.52044 0.47546 0.10505 0.0
C1540 C 0.54067 0.40615 0.0975 0.0
C1541 C 0.55954 0.40834 0.07816 0.0
C1542 C 0.53104 0.45159 0.0935 0.0
C1543 C 0.56225 0.43235 0.06576 0.0
C1544 C 0.52421 0.49968 0.0935 0.0
C1545 C 0.50425 0.49575 0.14293 0.0
N1546 N 0.54846 0.45312 0.0739 0.0
N1547 N 0.50985 0.47432 0.12903 0.0
H1548 H 0.50419 0.99726 0.34123 0.0
H1549 H 0.41405 0.94066 0.44143 0.0
H1550 H 0.47506 0.04579 0.40205 0.0
H1551 H 0.4781 0.8948 0.41374 0.0
H1552 H 0.43742 0.97939 0.42979 0.0
H1553 H 0.49731 0.95956 0.36857 0.0
C1554 C 0.49646 3e-05 0.36043 0.0
C1555 C 0.48877 0.02461 0.3689 0.0
C1556 C 0.44655 0.96084 0.42675 0.0
C1557 C 0.48084 0.98154 0.4002 0.0
C1558 C 0.43323 0.9385 0.4335 0.0
C1559 C 0.44364 0.91403 0.42795 0.0
C1560 C 0.47013 0.95884 0.4137 0.0
C1561 C 0.46863 0.91305 0.41733 0.0
C1562 C 0.49277 0.97851 0.37612 0.0
C1563 C 0.48002 0.02711 0.39436 0.0
N1564 N 0.48071 0.93509 0.4099 0.0
N1565 N 0.47544 0.00575 0.40888 0.0
H1566 H 0.03442 0.10442 0.88587 0.0
H1567 H 0.98204 0.97512 0.87502 0.0
H1568 H 0.06944 0.0682 0.95234 0.0
H1569 H 0.0642 0.97641 0.86194 0.0
H1570 H 0.98612 0.0154 0.90036 0.0
H1571 H 0.0136 0.06363 0.87548 0.0
C1572 C 0.03721 0.08831 0.89884 0.0
C1573 C 0.0547 0.08971 0.91954 0.0
C1574 C 0.00317 0.00632 0.89235 0.0
C1575 C 0.03114 0.04295 0.90718 0.0
C1576 C 0.00093 0.98348 0.87806 0.0
C1577 C 0.02287 0.97255 0.86646 0.0
C1578 C 0.02755 0.01754 0.89544 0.0
C1579 C 0.04684 0.98432 0.87047 0.0
C1580 C 0.02522 0.065 0.89279 0.0
C1581 C 0.05726 0.06783 0.93541 0.0
N1582 N 0.04856 0.00616 0.88469 0.0
N1583 N 0.04651 0.04503 0.92829 0.0
H1584 H 0.60856 0.99087 0.46476 0.0
H1585 H 0.62154 0.93383 0.6031 0.0
H1586 H 0.6638 0.93159 0.48461 0.0
H1587 H 0.54583 0.92633 0.56919 0.0
H1588 H 0.63768 0.95037 0.56231 0.0
H1589 H 0.58477 0.98089 0.50474 0.0
C1590 C 0.61569 0.97579 0.47732 0.0
C1591 C 0.63881 0.96267 0.47164 0.0
C1592 C 0.61741 0.94557 0.56402 0.0
C1593 C 0.61216 0.95189 0.51718 0.0
C1594 C 0.60807 0.93637 0.58735 0.0
C1595 C 0.58231 0.92846 0.58953 0.0
C1596 C 0.60092 0.94711 0.54272 0.0
C1597 C 0.56593 0.93186 0.56814 0.0
C1598 C 0.60213 0.97023 0.50005 0.0
C1599 C 0.64688 0.94315 0.48861 0.0
N1600 N 0.57559 0.94074 0.54536 0.0
N1601 N 0.63386 0.9387 0.51075 0.0
H1602 H 0.87556 0.06057 0.104 0.0
H1603 H 0.8864 0.00253 0.96603 0.0
H1604 H 0.95089 0.06849 0.0693 0.0
H1605 H 0.83403 0.06453 0.98536 0.0
H1606 H 0.91045 0.0115 0.0061 0.0
H1607 H 0.85937 0.04296 0.06366 0.0
C1608 C 0.88897 0.05784 0.08821 0.0
C1609 C 0.91458 0.06633 0.08994 0.0
C1610 C 0.89367 0.02298 0.00127 0.0
C1611 C 0.89592 0.04641 0.04372 0.0
C1612 C 0.87999 0.01802 0.97848 0.0
C1613 C 0.85758 0.03225 0.97264 0.0
C1614 C 0.88445 0.04187 0.01826 0.0
C1615 C 0.85038 0.05222 0.98948 0.0
C1616 C 0.8796 0.04799 0.06515 0.0
C1617 C 0.93088 0.0626 0.06855 0.0
N1618 N 0.86347 0.0561 0.01168 0.0
N1619 N 0.92118 0.05317 0.04602 0.0
H1620 H 0.10814 0.49911 0.53076 0.0
H1621 H 0.11302 0.55075 0.3929 0.0
H1622 H 0.15259 0.56653 0.51023 0.0
H1623 H 0.04087 0.57274 0.42854 0.0
H1624 H 0.12641 0.53123 0.43326 0.0
H1625 H 0.082 0.50545 0.49141 0.0
C1626 C 0.11224 0.51533 0.51827 0.0
C1627 C 0.13306 0.53195 0.52349 0.0
C1628 C 0.10729 0.5396 0.43187 0.0
C1629 C 0.10369 0.53888 0.47901 0.0
C1630 C 0.09948 0.55071 0.40878 0.0
C1631 C 0.07598 0.56413 0.40737 0.0
C1632 C 0.09163 0.54192 0.4537 0.0
C1633 C 0.05956 0.56343 0.42902 0.0
C1634 C 0.09738 0.51881 0.49594 0.0
C1635 C 0.1374 0.5527 0.50666 0.0
N1636 N 0.06802 0.55318 0.45167 0.0
N1637 N 0.12312 0.55533 0.48503 0.0
H1638 H 0.37422 0.50697 0.02046 0.0
H1639 H 0.43554 0.39585 0.93476 0.0
H1640 H 0.35479 0.42627 0.02525 0.0
H1641 H 0.41352 0.46771 0.8986 0.0
H1642 H 0.42094 0.41258 0.97578 0.0
H1643 H 0.4017 0.49736 0.98257 0.0
C1644 C 0.37613 0.48725 0.01381 0.0
C1645 C 0.36236 0.46728 0.02587 0.0
C1646 C 0.41983 0.42487 0.95897 0.0
C1647 C 0.39368 0.45632 0.98355 0.0
C1648 C 0.42837 0.41546 0.93543 0.0
C1649 C 0.42552 0.43025 0.91293 0.0
C1650 C 0.40826 0.44922 0.96025 0.0
C1651 C 0.41551 0.4554 0.91534 0.0
C1652 C 0.3916 0.48187 0.99228 0.0
C1653 C 0.3651 0.44215 0.01645 0.0
N1654 N 0.40689 0.46406 0.93861 0.0
N1655 N 0.3805 0.43738 0.99595 0.0
H1656 H 0.5576 0.5436 0.92283 0.0
H1657 H 0.49725 0.66012 0.00015 0.0
H1658 H 0.60177 0.60409 0.95934 0.0
H1659 H 0.45179 0.59641 0.97247 0.0
H1660 H 0.53624 0.63518 0.99241 0.0
H1661 H 0.51941 0.55823 0.94629 0.0
C1662 C 0.55942 0.55978 0.93589 0.0
C1663 C 0.58302 0.57288 0.93861 0.0
C1664 C 0.51776 0.62647 0.98811 0.0
C1665 C 0.53936 0.58947 0.96584 0.0
C1666 C 0.49546 0.64078 0.99243 0.0
C1667 C 0.47128 0.63083 0.98547 0.0
C1668 C 0.51597 0.60211 0.9764 0.0
C1669 C 0.4701 0.60522 0.97684 0.0
C1670 C 0.53762 0.56793 0.94951 0.0
C1671 C 0.58423 0.59319 0.95652 0.0
N1672 N 0.49218 0.59193 0.97183 0.0
N1673 N 0.56268 0.60103 0.9691 0.0
H1674 H 0.97057 0.88755 0.0079 0.0
H1675 H 0.09768 0.87086 0.08719 0.0
H1676 H 0.97775 0.83569 0.07263 0.0
H1677 H 0.07454 0.94897 0.0699 0.0
H1678 H 0.05623 0.85554 0.07154 0.0
H1679 H 0.01003 0.90996 0.02247 0.0
C1680 C 0.98018 0.88113 0.02529 0.0
C1681 C 0.97141 0.85922 0.03864 0.0
C1682 C 0.06026 0.87604 0.07104 0.0
C1683 C 0.01612 0.88426 0.0549 0.0
C1684 C 0.08398 0.88477 0.0797 0.0
C1685 C 0.08949 0.9112 0.07982 0.0
C1686 C 0.04187 0.89376 0.06218 0.0
C1687 C 0.07082 0.92843 0.07026 0.0
C1688 C 0.0026 0.89385 0.0335 0.0
C1689 C 0.98439 0.85185 0.06118 0.0
N1690 N 0.04767 0.91939 0.06166 0.0
N1691 N 0.00629 0.86402 0.06831 0.0
H1692 H 0.43881 0.05891 0.6088 0.0
H1693 H 0.52335 0.1171 0.49463 0.0
H1694 H 0.4056 0.07474 0.53396 0.0
H1695 H 0.5318 0.13513 0.57538 0.0
H1696 H 0.48711 0.08832 0.50564 0.0
H1697 H 0.4806 0.07185 0.59249 0.0
C1698 C 0.44024 0.06436 0.58871 0.0
C1699 C 0.41829 0.06591 0.57286 0.0
C1700 C 0.4974 0.09824 0.52086 0.0
C1701 C 0.46644 0.08153 0.55436 0.0
C1702 C 0.51804 0.11452 0.51466 0.0
C1703 C 0.53061 0.12849 0.53417 0.0
C1704 C 0.48993 0.09556 0.54673 0.0
C1705 C 0.52279 0.12473 0.55976 0.0
C1706 C 0.46421 0.07201 0.57952 0.0
C1707 C 0.42177 0.07377 0.5471 0.0
N1708 N 0.50302 0.10864 0.56528 0.0
N1709 N 0.44536 0.08163 0.53871 0.0
H1710 H 0.93566 0.46013 0.41861 0.0
H1711 H 0.01461 0.33691 0.43289 0.0
H1712 H 0.89857 0.3876 0.43605 0.0
H1713 H 0.03403 0.39331 0.49108 0.0
H1714 H 0.97681 0.36225 0.42163 0.0
H1715 H 0.97648 0.44243 0.43558 0.0
C1716 C 0.93595 0.44076 0.42641 0.0
C1717 C 0.91363 0.4253 0.42582 0.0
C1718 C 0.98947 0.36906 0.43679 0.0
C1719 C 0.95984 0.40525 0.44476 0.0
C1720 C 0.0109 0.35455 0.44346 0.0
C1721 C 0.02702 0.36243 0.46372 0.0
C1722 C 0.98424 0.39194 0.45002 0.0
C1723 C 0.02189 0.3863 0.47563 0.0
C1724 C 0.9591 0.43085 0.4362 0.0
C1725 C 0.91505 0.40039 0.43633 0.0
N1726 N 0.00067 0.40028 0.46873 0.0
N1727 N 0.93787 0.39099 0.44485 0.0
H1728 H 0.21314 0.37764 0.21915 0.0
H1729 H 0.1964 0.38441 0.37155 0.0
H1730 H 0.24188 0.44033 0.26577 0.0
H1731 H 0.15949 0.32694 0.32402 0.0
H1732 H 0.21127 0.40639 0.33272 0.0
H1733 H 0.19032 0.36082 0.25659 0.0
C1734 C 0.21419 0.38825 0.23709 0.0
C1735 C 0.2297 0.41034 0.23933 0.0
C1736 C 0.19981 0.38905 0.33074 0.0
C1737 C 0.20415 0.39067 0.28256 0.0
C1738 C 0.19144 0.37639 0.35292 0.0
C1739 C 0.17689 0.35367 0.351 0.0
C1740 C 0.19377 0.37883 0.30642 0.0
C1741 C 0.17081 0.34432 0.32636 0.0
C1742 C 0.20134 0.37845 0.25858 0.0
C1743 C 0.23058 0.42297 0.26326 0.0
N1744 N 0.17943 0.35685 0.30502 0.0
N1745 N 0.21826 0.41278 0.28401 0.0
H1746 H 0.3428 0.66006 0.82085 0.0
H1747 H 0.24939 0.55237 0.76205 0.0
H1748 H 0.2999 0.60556 0.86686 0.0
H1749 H 0.28547 0.61227 0.71691 0.0
H1750 H 0.27355 0.567 0.79979 0.0
H1751 H 0.32725 0.63861 0.78186 0.0
C1752 C 0.3302 0.64352 0.82275 0.0
C1753 C 0.32239 0.63476 0.84712 0.0
C1754 C 0.27643 0.57673 0.78154 0.0
C1755 C 0.30461 0.61006 0.80262 0.0
C1756 C 0.26265 0.56837 0.76 0.0
C1757 C 0.26513 0.58132 0.73636 0.0
C1758 C 0.29275 0.59824 0.77946 0.0
C1759 C 0.28297 0.60163 0.73469 0.0
C1760 C 0.32136 0.63125 0.80049 0.0
C1761 C 0.3062 0.61312 0.84845 0.0
N1762 N 0.29583 0.60967 0.75602 0.0
N1763 N 0.29773 0.60161 0.82651 0.0
H1764 H 0.71396 0.12867 0.61791 0.0
H1765 H 0.70115 0.10623 0.77013 0.0
H1766 H 0.65503 0.16486 0.66434 0.0
H1767 H 0.76878 0.08684 0.72542 0.0
H1768 H 0.68068 0.12261 0.73082 0.0
H1769 H 0.73101 0.10787 0.65655 0.0
C1770 C 0.70458 0.13221 0.63624 0.0
C1771 C 0.68318 0.14868 0.63796 0.0
C1772 C 0.69992 0.11455 0.72968 0.0
C1773 C 0.70252 0.12483 0.68226 0.0
C1774 C 0.71165 0.10524 0.75211 0.0
C1775 C 0.73678 0.09509 0.75121 0.0
C1776 C 0.71338 0.11362 0.70619 0.0
C1777 C 0.74925 0.094 0.72715 0.0
C1778 C 0.71432 0.12033 0.6583 0.0
C1779 C 0.67171 0.15246 0.6622 0.0
N1780 N 0.73747 0.10321 0.7057 0.0
N1781 N 0.68155 0.14064 0.68344 0.0
H1782 H 0.8437 0.82746 0.17125 0.0
H1783 H 0.74503 0.92795 0.23388 0.0
H1784 H 0.79514 0.87894 0.12736 0.0
H1785 H 0.79297 0.87668 0.27875 0.0
H1786 H 0.76739 0.91405 0.19502 0.0
H1787 H 0.82872 0.84812 0.21097 0.0
C1788 C 0.82994 0.84315 0.16997 0.0
C1789 C 0.82045 0.85133 0.14599 0.0
C1790 C 0.77325 0.90602 0.21338 0.0
C1791 C 0.80334 0.87512 0.19129 0.0
C1792 C 0.76065 0.91418 0.23569 0.0
C1793 C 0.76692 0.90329 0.25967 0.0
C1794 C 0.79218 0.88669 0.21496 0.0
C1795 C 0.78712 0.88522 0.26062 0.0
C1796 C 0.82146 0.85498 0.19263 0.0
C1797 C 0.8028 0.87186 0.14544 0.0
N1798 N 0.79883 0.87727 0.23855 0.0
N1799 N 0.79472 0.88294 0.16775 0.0
H1800 H 0.36617 0.189 0.38998 0.0
H1801 H 0.21499 0.20946 0.3822 0.0
H1802 H 0.31759 0.14646 0.33754 0.0
H1803 H 0.26078 0.2358 0.44657 0.0
H1804 H 0.25163 0.18439 0.36696 0.0
H1805 H 0.32767 0.20533 0.41173 0.0
C1806 C 0.34738 0.18301 0.3831 0.0
C1807 C 0.34505 0.16653 0.36177 0.0
C1808 C 0.25357 0.19536 0.38462 0.0
C1809 C 0.30089 0.18521 0.38654 0.0
C1810 C 0.23252 0.20956 0.39353 0.0
C1811 C 0.23478 0.2251 0.41562 0.0
C1812 C 0.27723 0.1969 0.39765 0.0
C1813 C 0.25828 0.22464 0.42911 0.0
C1814 C 0.32541 0.19223 0.39562 0.0
C1815 C 0.32025 0.15922 0.35384 0.0
N1816 N 0.27869 0.2111 0.41971 0.0
N1817 N 0.29911 0.16884 0.36606 0.0
H1818 H 0.17267 0.84085 0.83194 0.0
H1819 H 0.22989 0.74701 0.94054 0.0
H1820 H 0.12566 0.79972 0.88694 0.0
H1821 H 0.27477 0.77772 0.8775 0.0
H1822 H 0.19261 0.77157 0.92524 0.0
H1823 H 0.21128 0.82294 0.85231 0.0
C1824 C 0.17047 0.82815 0.84838 0.0
C1825 C 0.1459 0.82159 0.85762 0.0
C1826 C 0.2107 0.77311 0.91491 0.0
C1827 C 0.19 0.8011 0.88108 0.0
C1828 C 0.23199 0.75907 0.92362 0.0
C1829 C 0.25547 0.76004 0.91014 0.0
C1830 C 0.21287 0.78827 0.89258 0.0
C1831 C 0.25717 0.77645 0.88864 0.0
C1832 C 0.19252 0.81794 0.86 0.0
C1833 C 0.14421 0.80514 0.87906 0.0
N1834 N 0.23611 0.78972 0.88041 0.0
N1835 N 0.16596 0.79539 0.89 0.0
H1836 H 0.77322 0.23093 0.57868 0.0
H1837 H 0.8303 0.35342 0.65116 0.0
H1838 H 0.73077 0.30238 0.58587 0.0
H1839 H 0.87581 0.28758 0.62803 0.0
H1840 H 0.79339 0.33545 0.62775 0.0
H1841 H 0.811 0.25202 0.59615 0.0
C1842 C 0.77189 0.25124 0.58338 0.0
C1843 C 0.7486 0.26486 0.58064 0.0
C1844 C 0.81151 0.32504 0.62772 0.0
C1845 C 0.79197 0.289 0.60173 0.0
C1846 C 0.83252 0.3352 0.64116 0.0
C1847 C 0.85608 0.32186 0.64167 0.0
C1848 C 0.81411 0.30132 0.61489 0.0
C1849 C 0.85798 0.29845 0.62826 0.0
C1850 C 0.79353 0.26323 0.59368 0.0
C1851 C 0.74814 0.29098 0.58794 0.0
N1852 N 0.83724 0.28888 0.61555 0.0
N1853 N 0.76945 0.30215 0.59838 0.0
H1854 H 0.62279 0.69415 0.11079 0.0
H1855 H 0.77438 0.71339 0.12036 0.0
H1856 H 0.67043 0.65244 0.16484 0.0
H1857 H 0.72934 0.73965 0.0554 0.0
H1858 H 0.73705 0.68967 0.13607 0.0
H1859 H 0.66168 0.71064 0.08995 0.0
C1860 C 0.64145 0.68843 0.11825 0.0
C1861 C 0.6434 0.67206 0.13971 0.0
C1862 C 0.73541 0.70037 0.11821 0.0
C1863 C 0.68799 0.69088 0.11595 0.0
C1864 C 0.75684 0.71378 0.10905 0.0
C1865 C 0.75503 0.7288 0.08657 0.0
C1866 C 0.71186 0.70218 0.10501 0.0
C1867 C 0.73152 0.72882 0.0731 0.0
C1868 C 0.66365 0.69774 0.10625 0.0
C1869 C 0.66807 0.66511 0.14842 0.0
N1870 N 0.71078 0.716 0.08269 0.0
N1871 N 0.68941 0.67473 0.13664 0.0
H1872 H 0.37268 0.20968 0.20565 0.0
H1873 H 0.38084 0.36389 0.2016 0.0
H1874 H 0.42311 0.25484 0.25406 0.0
H1875 H 0.32579 0.31951 0.15774 0.0
H1876 H 0.39968 0.32377 0.21764 0.0
H1877 H 0.35872 0.24931 0.18419 0.0
C1878 C 0.38099 0.22788 0.21163 0.0
C1879 C 0.39895 0.22888 0.23187 0.0
C1880 C 0.38353 0.32278 0.20444 0.0
C1881 C 0.38304 0.27435 0.20738 0.0
C1882 C 0.37273 0.34569 0.1953 0.0
C1883 C 0.35158 0.34505 0.17846 0.0
C1884 C 0.37312 0.299 0.19669 0.0
C1885 C 0.34198 0.32091 0.17083 0.0
C1886 C 0.37303 0.2505 0.19935 0.0
C1887 C 0.40939 0.25301 0.23845 0.0
N1888 N 0.35276 0.29885 0.18008 0.0
N1889 N 0.40112 0.27476 0.22641 0.0
H1890 H 0.83463 0.17745 0.84737 0.0
H1891 H 0.93099 0.23797 0.74366 0.0
H1892 H 0.88078 0.1325 0.7946 0.0
H1893 H 0.88908 0.28402 0.79905 0.0
H1894 H 0.91564 0.19916 0.7649 0.0
H1895 H 0.85623 0.21658 0.8321 0.0
C1896 C 0.84935 0.1758 0.83264 0.0
C1897 C 0.85577 0.15169 0.82209 0.0
C1898 C 0.90997 0.21774 0.77261 0.0
C1899 C 0.88059 0.19634 0.8046 0.0
C1900 C 0.919 0.24003 0.76063 0.0
C1901 C 0.91125 0.26449 0.76942 0.0
C1902 C 0.89283 0.21973 0.79347 0.0
C1903 C 0.8952 0.26565 0.79125 0.0
C1904 C 0.86172 0.19814 0.82398 0.0
C1905 C 0.87508 0.15068 0.80316 0.0
N1906 N 0.88631 0.2436 0.80236 0.0
N1907 N 0.88669 0.17267 0.79495 0.0
H1908 H 0.60019 0.7119 0.29785 0.0
H1909 H 0.6155 0.86526 0.28885 0.0
H1910 H 0.56797 0.75925 0.23735 0.0
H1911 H 0.65487 0.81887 0.34568 0.0
H1912 H 0.59383 0.82673 0.27304 0.0
H1913 H 0.61604 0.75102 0.31908 0.0
C1914 C 0.5962 0.73047 0.28915 0.0
C1915 C 0.58284 0.73216 0.26564 0.0
C1916 C 0.60714 0.82492 0.28903 0.0
C1917 C 0.60086 0.77695 0.28986 0.0
C1918 C 0.61957 0.84694 0.29804 0.0
C1919 C 0.6372 0.84525 0.31847 0.0
C1920 C 0.61235 0.80091 0.30045 0.0
C1921 C 0.64155 0.82101 0.32976 0.0
C1922 C 0.60523 0.75278 0.3013 0.0
C1923 C 0.57787 0.75683 0.25555 0.0
N1924 N 0.6293 0.79973 0.32051 0.0
N1925 N 0.58705 0.77815 0.26758 0.0
H1926 H 0.11607 0.78392 0.71218 0.0
H1927 H 0.10866 0.63188 0.68942 0.0
H1928 H 0.05539 0.73548 0.74208 0.0
H1929 H 0.16866 0.68007 0.65774 0.0
H1930 H 0.08666 0.67034 0.70524 0.0
H1931 H 0.13263 0.74727 0.68762 0.0
C1932 C 0.10585 0.76573 0.71312 0.0
C1933 C 0.08447 0.76268 0.72945 0.0
C1934 C 0.10457 0.67257 0.69472 0.0
C1935 C 0.10372 0.72047 0.70187 0.0
C1936 C 0.11721 0.65059 0.68576 0.0
C1937 C 0.14068 0.65276 0.67247 0.0
C1938 C 0.1155 0.69698 0.69051 0.0
C1939 C 0.1507 0.67751 0.66807 0.0
C1940 C 0.11549 0.74472 0.69928 0.0
C1941 C 0.07221 0.73856 0.73011 0.0
N1942 N 0.13814 0.69866 0.67723 0.0
N1943 N 0.08218 0.71832 0.71678 0.0
H1944 H 0.78224 0.61771 0.78438 0.0
H1945 H 0.80104 0.60882 0.6325 0.0
H1946 H 0.75025 0.55653 0.73786 0.0
H1947 H 0.84411 0.66128 0.68061 0.0
H1948 H 0.78385 0.58817 0.67114 0.0
H1949 H 0.80733 0.63212 0.74734 0.0
C1950 C 0.78086 0.60694 0.76654 0.0
C1951 C 0.76383 0.586 0.76422 0.0
C1952 C 0.79722 0.60405 0.67329 0.0
C1953 C 0.7921 0.60291 0.72144 0.0
C1954 C 0.80697 0.61592 0.65122 0.0
C1955 C 0.82386 0.63695 0.65336 0.0
C1956 C 0.80417 0.61342 0.69773 0.0
C1957 C 0.83105 0.6452 0.6781 0.0
C1958 C 0.79507 0.61535 0.7453 0.0
C1959 C 0.76266 0.57311 0.74042 0.0
N1960 N 0.82097 0.63357 0.69933 0.0
N1961 N 0.77634 0.58196 0.7199 0.0
H1962 H 0.6498 0.32983 0.17742 0.0
H1963 H 0.74898 0.4326 0.23481 0.0
H1964 H 0.69595 0.38125 0.13102 0.0
H1965 H 0.70029 0.38477 0.28253 0.0
H1966 H 0.72643 0.41693 0.19686 0.0
H1967 H 0.66558 0.3516 0.21625 0.0
C1968 C 0.6632 0.34572 0.1754 0.0
C1969 C 0.67175 0.35359 0.15097 0.0
C1970 C 0.72046 0.41003 0.21563 0.0
C1971 C 0.68977 0.37864 0.19523 0.0
C1972 C 0.73317 0.41923 0.23745 0.0
C1973 C 0.72674 0.40986 0.26203 0.0
C1974 C 0.70125 0.39113 0.21827 0.0
C1975 C 0.7063 0.39215 0.26397 0.0
C1976 C 0.67213 0.3582 0.19756 0.0
C1977 C 0.68898 0.3744 0.14946 0.0
N1978 N 0.69449 0.38314 0.24236 0.0
N1979 N 0.6975 0.38609 0.17127 0.0
H1980 H 0.29711 0.88711 0.21491 0.0
H1981 H 0.31973 0.89877 0.36582 0.0
H1982 H 0.27585 0.95455 0.25904 0.0
H1983 H 0.3498 0.83656 0.31933 0.0
H1984 H 0.30663 0.92124 0.32654 0.0
H1985 H 0.32068 0.87078 0.25191 0.0
C1986 C 0.29789 0.89889 0.23213 0.0
C1987 C 0.28412 0.92219 0.23384 0.0
C1988 C 0.31629 0.90278 0.3249 0.0
C1989 C 0.31052 0.90297 0.27679 0.0
C1990 C 0.32366 0.88988 0.34733 0.0
C1991 C 0.3356 0.86562 0.34584 0.0
C1992 C 0.32071 0.89125 0.3008 0.0
C1993 C 0.34045 0.85513 0.32138 0.0
C1994 C 0.31118 0.88934 0.25343 0.0
C1995 C 0.28564 0.93622 0.25697 0.0
N1996 N 0.33278 0.86791 0.29984 0.0
N1997 N 0.29825 0.92621 0.27766 0.0
H1998 H 0.15185 0.17287 0.81504 0.0
H1999 H 0.23308 0.05646 0.75403 0.0
H2000 H 0.18448 0.11028 0.85922 0.0
H2001 H 0.21146 0.12479 0.71166 0.0
H2002 H 0.20852 0.0723 0.79104 0.0
H2003 H 0.16737 0.15223 0.77547 0.0
C2004 C 0.16215 0.15473 0.8164 0.0
C2005 C 0.16713 0.14341 0.84046 0.0
C2006 C 0.2089 0.08369 0.77354 0.0
C2007 C 0.18476 0.11965 0.79534 0.0
C2008 C 0.2229 0.07465 0.75242 0.0
C2009 C 0.22462 0.08949 0.72986 0.0
C2010 C 0.19656 0.10779 0.77213 0.0
C2011 C 0.21062 0.11267 0.72864 0.0
C2012 C 0.17098 0.14295 0.79382 0.0
C2013 C 0.18044 0.11982 0.8411 0.0
N2014 N 0.19744 0.12127 0.74961 0.0
N2015 N 0.18888 0.1088 0.8189 0.0
H2016 H 0.73191 0.73446 0.58194 0.0
H2017 H 0.67143 0.84396 0.67186 0.0
H2018 H 0.77813 0.79269 0.61946 0.0
H2019 H 0.62646 0.79021 0.627 0.0
H2020 H 0.71078 0.8265 0.6523 0.0
H2021 H 0.69319 0.75614 0.59689 0.0
C2022 C 0.73401 0.7521 0.59291 0.0
C2023 C 0.75849 0.76171 0.59938 0.0
C2024 C 0.69228 0.81862 0.64667 0.0
C2025 C 0.71385 0.78634 0.61735 0.0
C2026 C 0.66983 0.82852 0.65789 0.0
C2027 C 0.64565 0.81841 0.65116 0.0
C2028 C 0.6905 0.79842 0.6287 0.0
C2029 C 0.64469 0.79852 0.63285 0.0
C2030 C 0.71177 0.76436 0.6017 0.0
C2031 C 0.75973 0.78433 0.61428 0.0
N2032 N 0.66677 0.78912 0.62237 0.0
N2033 N 0.73773 0.79578 0.62292 0.0
H2034 H 0.71796 0.21264 0.11634 0.0
H2035 H 0.87144 0.20411 0.11464 0.0
H2036 H 0.76542 0.24815 0.05791 0.0
H2037 H 0.82399 0.16002 0.1669 0.0
H2038 H 0.8326 0.2189 0.09254 0.0
H2039 H 0.756 0.1906 0.13317 0.0
C2040 C 0.73625 0.21536 0.10664 0.0
C2041 C 0.7385 0.23253 0.0858 0.0
C2042 C 0.83064 0.20589 0.10876 0.0
C2043 C 0.78233 0.20784 0.10549 0.0
C2044 C 0.85282 0.19755 0.12149 0.0
C2045 C 0.85093 0.18097 0.14278 0.0
C2046 C 0.80631 0.19777 0.11747 0.0
C2047 C 0.82632 0.17291 0.15065 0.0
C2048 C 0.75805 0.20295 0.11646 0.0
C2049 C 0.76285 0.23551 0.07432 0.0
N2050 N 0.80495 0.18153 0.13809 0.0
N2051 N 0.78384 0.22356 0.0845 0.0
H2052 H 0.17718 0.65948 0.3326 0.0
H2053 H 0.23795 0.75474 0.43783 0.0
H2054 H 0.13203 0.70424 0.38638 0.0
H2055 H 0.28172 0.72058 0.37577 0.0
H2056 H 0.19997 0.73079 0.42356 0.0
H2057 H 0.21656 0.67645 0.35229 0.0
C2058 C 0.17555 0.67276 0.34864 0.0
C2059 C 0.15129 0.68064 0.35772 0.0
C2060 C 0.21795 0.72834 0.41322 0.0
C2061 C 0.19624 0.70005 0.38039 0.0
C2062 C 0.23964 0.74204 0.42134 0.0
C2063 C 0.26301 0.73994 0.40779 0.0
C2064 C 0.21959 0.71241 0.39138 0.0
C2065 C 0.26418 0.72274 0.38689 0.0
C2066 C 0.19804 0.68244 0.35987 0.0
C2067 C 0.15033 0.69781 0.37862 0.0
N2068 N 0.24272 0.70984 0.37917 0.0
N2069 N 0.17247 0.70701 0.38918 0.0
H2070 H 0.26608 0.22386 0.90113 0.0
H2071 H 0.32559 0.35205 0.84466 0.0
H2072 H 0.22443 0.29603 0.90575 0.0
H2073 H 0.37168 0.28783 0.87095 0.0
H2074 H 0.28751 0.33214 0.86458 0.0
H2075 H 0.30425 0.2471 0.888 0.0
C2076 C 0.26495 0.24467 0.89996 0.0
C2077 C 0.2418 0.25792 0.90496 0.0
C2078 C 0.30604 0.32261 0.86616 0.0
C2079 C 0.28575 0.28471 0.88868 0.0
C2080 C 0.32772 0.33386 0.85472 0.0
C2081 C 0.35177 0.32144 0.85598 0.0
C2082 C 0.30848 0.29866 0.87855 0.0
C2083 C 0.35351 0.29802 0.86938 0.0
C2084 C 0.28686 0.25794 0.89216 0.0
C2085 C 0.24167 0.2849 0.9019 0.0
N2086 N 0.33212 0.28728 0.8799 0.0
N2087 N 0.26327 0.29741 0.89372 0.0
H2088 H 0.61748 0.77886 0.78829 0.0
H2089 H 0.6057 0.62759 0.81043 0.0
H2090 H 0.55174 0.73411 0.76365 0.0
H2091 H 0.66481 0.67441 0.8456 0.0
H2092 H 0.58445 0.66672 0.79507 0.0
H2093 H 0.6333 0.74166 0.81219 0.0
C2094 C 0.60602 0.76141 0.78834 0.0
C2095 C 0.58331 0.7596 0.77367 0.0
C2096 C 0.60196 0.66848 0.8063 0.0
C2097 C 0.60184 0.71658 0.8005 0.0
C2098 C 0.61418 0.64613 0.81498 0.0
C2099 C 0.6372 0.64775 0.8291 0.0
C2100 C 0.61296 0.69265 0.81157 0.0
C2101 C 0.64718 0.67228 0.83463 0.0
C2102 C 0.61524 0.74005 0.80184 0.0
C2103 C 0.56961 0.73625 0.77422 0.0
N2104 N 0.63512 0.69377 0.82566 0.0
N2105 N 0.57925 0.71557 0.78712 0.0
H2106 H 0.17422 0.83028 0.15745 0.0
H2107 H 0.08284 0.7736 0.26743 0.0
H2108 H 0.1357 0.87719 0.21448 0.0
H2109 H 0.11268 0.72741 0.20481 0.0
H2110 H 0.10079 0.81186 0.24725 0.0
H2111 H 0.15175 0.79234 0.17418 0.0
C2112 C 0.16112 0.83258 0.17356 0.0
C2113 C 0.15692 0.85689 0.18471 0.0
C2114 C 0.10322 0.79341 0.23775 0.0
C2115 C 0.13104 0.81365 0.20379 0.0
C2116 C 0.09269 0.77149 0.24914 0.0
C2117 C 0.09624 0.74711 0.23785 0.0
C2118 C 0.11767 0.79102 0.215 0.0
C2119 C 0.10979 0.74572 0.21443 0.0
C2120 C 0.14818 0.81094 0.18299 0.0
C2121 C 0.13959 0.85879 0.20539 0.0
N2122 N 0.12021 0.76734 0.20389 0.0
N2123 N 0.12735 0.83744 0.2143 0.0
H2124 H 0.37667 0.12733 0.70172 0.0
H2125 H 0.38879 0.28131 0.69788 0.0
H2126 H 0.33503 0.17463 0.64731 0.0
H2127 H 0.41653 0.23326 0.76005 0.0
H2128 H 0.37342 0.24249 0.67572 0.0
H2129 H 0.39618 0.16607 0.71977 0.0
C2130 C 0.37169 0.14588 0.69349 0.0
C2131 C 0.35404 0.14776 0.67309 0.0
C2132 C 0.38308 0.24053 0.69412 0.0
C2133 C 0.37637 0.19232 0.69371 0.0
C2134 C 0.39181 0.26268 0.70683 0.0
C2135 C 0.40405 0.26069 0.73093 0.0
C2136 C 0.38669 0.21623 0.70555 0.0
C2137 C 0.4077 0.23591 0.74134 0.0
C2138 C 0.38283 0.16803 0.70383 0.0
C2139 C 0.34843 0.17233 0.66314 0.0
N2140 N 0.399 0.21477 0.72866 0.0
N2141 N 0.3595 0.1937 0.67361 0.0
H2142 H 0.87861 0.37466 0.28725 0.0
H2143 H 0.89611 0.2219 0.3004 0.0
H2144 H 0.84366 0.32958 0.34786 0.0
H2145 H 0.92994 0.26784 0.23976 0.0
H2146 H 0.88061 0.26152 0.32093 0.0
H2147 H 0.90097 0.33608 0.27209 0.0
C2148 C 0.87566 0.35663 0.29739 0.0
C2149 C 0.85907 0.35528 0.31871 0.0
C2150 C 0.89172 0.26291 0.30331 0.0
C2151 C 0.88467 0.31098 0.30149 0.0
C2152 C 0.90056 0.24031 0.29157 0.0
C2153 C 0.91418 0.24147 0.26819 0.0
C2154 C 0.89642 0.28685 0.2915 0.0
C2155 C 0.91973 0.2659 0.25786 0.0
C2156 C 0.8885 0.33461 0.28878 0.0
C2157 C 0.85615 0.33145 0.33124 0.0
N2158 N 0.91059 0.28755 0.26942 0.0
N2159 N 0.86871 0.31019 0.32235 0.0
H2160 H 0.20338 0.36612 0.46968 0.0
H2161 H 0.21423 0.41988 0.61257 0.0
H2162 H 0.17043 0.32855 0.53631 0.0
H2163 H 0.24757 0.4576 0.54631 0.0
H2164 H 0.20574 0.38191 0.58616 0.0
H2165 H 0.22646 0.39549 0.49826 0.0
C2166 C 0.20117 0.36387 0.49032 0.0
C2167 C 0.18455 0.34512 0.50059 0.0
C2168 C 0.21534 0.3983 0.57746 0.0
C2169 C 0.21094 0.37875 0.53343 0.0
C2170 C 0.2203 0.41996 0.59258 0.0
C2171 C 0.2312 0.44209 0.58149 0.0
C2172 C 0.22106 0.3989 0.551 0.0
C2173 C 0.23889 0.44103 0.55557 0.0
C2174 C 0.21443 0.38063 0.50664 0.0
C2175 C 0.18274 0.34293 0.5275 0.0
N2176 N 0.23322 0.41997 0.54106 0.0
N2177 N 0.19551 0.35976 0.54297 0.0
H2178 H 0.24396 0.53912 0.04913 0.0
H2179 H 0.32232 0.6698 0.03195 0.0
H2180 H 0.28261 0.57915 0.11099 0.0
H2181 H 0.2919 0.6248 0.96882 0.0
H2182 H 0.29886 0.64242 0.06212 0.0
H2183 H 0.25161 0.57618 0.02105 0.0
C2184 C 0.25347 0.55596 0.057 0.0
C2185 C 0.26317 0.55587 0.08225 0.0
C2186 C 0.29706 0.63873 0.04165 0.0
C2187 C 0.2723 0.59808 0.05018 0.0
C2188 C 0.3105 0.65433 0.02439 0.0
C2189 C 0.30952 0.64926 0.99782 0.0
C2190 C 0.28261 0.61783 0.03233 0.0
C2191 C 0.29357 0.62917 0.98916 0.0
C2192 C 0.25797 0.57705 0.04091 0.0
C2193 C 0.2752 0.57825 0.0915 0.0
N2194 N 0.28101 0.61397 0.0064 0.0
N2195 N 0.27983 0.5983 0.07532 0.0
H2196 H 0.66156 0.17369 0.45128 0.0
H2197 H 0.74779 0.0472 0.43846 0.0
H2198 H 0.70174 0.13789 0.51488 0.0
H2199 H 0.70266 0.07968 0.3765 0.0
H2200 H 0.73909 0.08573 0.46422 0.0
H2201 H 0.68374 0.14463 0.42165 0.0
C2202 C 0.67521 0.15988 0.45902 0.0
C2203 C 0.67943 0.15792 0.48567 0.0
C2204 C 0.73148 0.08463 0.44481 0.0
C2205 C 0.70488 0.12456 0.45181 0.0
C2206 C 0.73657 0.0627 0.43004 0.0
C2207 C 0.7255 0.06006 0.40551 0.0
C2208 C 0.71516 0.10391 0.43496 0.0
C2209 C 0.71122 0.08077 0.39551 0.0
C2210 C 0.68792 0.14332 0.44206 0.0
C2211 C 0.69759 0.13986 0.49452 0.0
N2212 N 0.70612 0.10165 0.41043 0.0
N2213 N 0.70942 0.12367 0.47765 0.0
H2214 H 0.78994 0.86212 0.02234 0.0
H2215 H 0.78664 0.91542 0.87892 0.0
H2216 H 0.82979 0.82654 0.95839 0.0
H2217 H 0.74723 0.95157 0.94273 0.0
H2218 H 0.79489 0.87775 0.90588 0.0
H2219 H 0.76734 0.89018 0.99207 0.0
C2220 C 0.79378 0.86002 0.00192 0.0
C2221 C 0.81217 0.84227 0.99294 0.0
C2222 C 0.78403 0.89371 0.91387 0.0
C2223 C 0.78634 0.87439 0.95817 0.0
C2224 C 0.77921 0.9152 0.89844 0.0
C2225 C 0.76669 0.93685 0.90878 0.0
C2226 C 0.7765 0.89403 0.93989 0.0
C2227 C 0.75725 0.9354 0.93409 0.0
C2228 C 0.78079 0.87602 0.98462 0.0
C2229 C 0.81605 0.84019 0.96623 0.0
N2230 N 0.76279 0.91455 0.94896 0.0
N2231 N 0.8035 0.8563 0.94983 0.0
H2232 H 0.53707 0.25032 0.45613 0.0
H2233 H 0.52641 0.17725 0.32251 0.0
H2234 H 0.6023 0.22545 0.41072 0.0
H2235 H 0.46114 0.19795 0.37001 0.0
H2236 H 0.55387 0.20437 0.3493 0.0
H2237 H 0.50889 0.2419 0.41937 0.0
C2238 C 0.54556 0.24375 0.43821 0.0
C2239 C 0.57193 0.23789 0.43664 0.0
C2240 C 0.53348 0.20326 0.35367 0.0
C2241 C 0.53984 0.22781 0.39478 0.0
C2242 C 0.51779 0.18767 0.33844 0.0
C2243 C 0.49155 0.18484 0.34441 0.0
C2244 C 0.52291 0.21591 0.37517 0.0
C2245 C 0.48136 0.19921 0.36497 0.0
C2246 C 0.52945 0.23881 0.41726 0.0
C2247 C 0.58196 0.22969 0.41291 0.0
N2248 N 0.49715 0.21382 0.37986 0.0
N2249 N 0.56582 0.22438 0.39304 0.0
H2250 H 0.94516 0.74267 0.94644 0.0
H2251 H 0.96097 0.82643 0.81942 0.0
H2252 H 0.8835 0.7854 0.9103 0.0
H2253 H 0.02404 0.79012 0.86001 0.0
H2254 H 0.93062 0.80222 0.84597 0.0
H2255 H 0.97186 0.74987 0.90831 0.0
C2256 C 0.937 0.75301 0.93022 0.0
C2257 C 0.91233 0.76402 0.93176 0.0
C2258 C 0.9511 0.79927 0.84882 0.0
C2259 C 0.94285 0.77266 0.88834 0.0
C2260 C 0.96847 0.81313 0.83369 0.0
C2261 C 0.9951 0.81077 0.83792 0.0
C2262 C 0.96043 0.78305 0.86841 0.0
C2263 C 0.00367 0.79292 0.8564 0.0
C2264 C 0.9523 0.75723 0.90851 0.0
C2265 C 0.90263 0.77701 0.91011 0.0
N2266 N 0.98637 0.78004 0.87123 0.0
N2267 N 0.9181 0.7814 0.88946 0.0
H2268 H 0.05221 0.24585 0.54704 0.0
H2269 H 0.03919 0.33185 0.67333 0.0
H2270 H 0.11592 0.28455 0.58401 0.0
H2271 H 0.97471 0.29843 0.6326 0.0
H2272 H 0.06856 0.30679 0.64638 0.0
H2273 H 0.02513 0.25596 0.58425 0.0
C2274 C 0.06072 0.25583 0.56329 0.0
C2275 C 0.08618 0.26488 0.56221 0.0
C2276 C 0.04798 0.30472 0.64353 0.0
C2277 C 0.05522 0.27695 0.60454 0.0
C2278 C 0.03118 0.31911 0.65886 0.0
C2279 C 0.00444 0.31763 0.65489 0.0
C2280 C 0.038 0.28882 0.62402 0.0
C2281 C 0.99519 0.30049 0.63609 0.0
C2282 C 0.04518 0.26179 0.58445 0.0
C2283 C 0.09623 0.27761 0.58386 0.0
N2284 N 0.01195 0.28698 0.62116 0.0
N2285 N 0.08058 0.2837 0.60394 0.0
H2286 H 0.52383 0.69829 0.1279 0.0
H2287 H 0.37914 0.71115 0.08015 0.0
H2288 H 0.45856 0.66511 0.16759 0.0
H2289 H 0.44407 0.74572 0.04121 0.0
H2290 H 0.40677 0.70196 0.11709 0.0
H2291 H 0.49423 0.72242 0.10043 0.0
C2292 C 0.50328 0.69621 0.13098 0.0
C2293 C 0.49367 0.67927 0.14978 0.0
C2294 C 0.41489 0.71202 0.10069 0.0
C2295 C 0.45964 0.70689 0.11837 0.0
C2296 C 0.39907 0.71741 0.07963 0.0
C2297 C 0.40948 0.72874 0.05738 0.0
C2298 C 0.44133 0.71776 0.09932 0.0
C2299 C 0.43534 0.73665 0.05786 0.0
C2300 C 0.48637 0.71009 0.11534 0.0
C2301 C 0.46684 0.67765 0.15311 0.0
N2302 N 0.45053 0.73053 0.07829 0.0
N2303 N 0.45078 0.69103 0.13734 0.0
H2304 H 0.45163 0.54737 0.25251 0.0
H2305 H 0.32272 0.53187 0.17114 0.0
H2306 H 0.41208 0.61029 0.21494 0.0
H2307 H 0.3653 0.46827 0.20412 0.0
H2308 H 0.34985 0.56184 0.1952 0.0
H2309 H 0.41446 0.51968 0.24413 0.0
C2310 C 0.43484 0.55557 0.24315 0.0
C2311 C 0.43514 0.58099 0.23389 0.0
C2312 C 0.35306 0.54132 0.19741 0.0
C2313 C 0.39284 0.54934 0.2238 0.0
C2314 C 0.33762 0.52417 0.18361 0.0
C2315 C 0.34207 0.49751 0.1852 0.0
C2316 C 0.3732 0.53175 0.21282 0.0
C2317 C 0.36143 0.48868 0.20196 0.0
C2318 C 0.41369 0.53969 0.23819 0.0
C2319 C 0.41283 0.59065 0.222 0.0
N2320 N 0.37648 0.50577 0.21486 0.0
N2321 N 0.39276 0.57467 0.21686 0.0
H2322 H 0.82487 0.9657 0.8222 0.0
H2323 H 0.95773 0.95264 0.74663 0.0
H2324 H 0.86947 0.03044 0.79469 0.0
H2325 H 0.9163 0.88864 0.78001 0.0
H2326 H 0.92045 0.98037 0.75476 0.0
H2327 H 0.85327 0.93667 0.79845 0.0
C2328 C 0.8405 0.97386 0.811 0.0
C2329 C 0.84509 0.00053 0.81085 0.0
C2330 C 0.91933 0.96014 0.75984 0.0
C2331 C 0.8777 0.96734 0.7836 0.0
C2332 C 0.94054 0.94425 0.75503 0.0
C2333 C 0.94027 0.91844 0.76315 0.0
C2334 C 0.89782 0.95009 0.7729 0.0
C2335 C 0.91747 0.90856 0.77384 0.0
C2336 C 0.85668 0.95725 0.79737 0.0
C2337 C 0.86542 0.00998 0.79567 0.0
N2338 N 0.89731 0.92451 0.77882 0.0
N2339 N 0.88118 0.99337 0.78292 0.0
H2340 H 0.57961 0.11103 0.28445 0.0
H2341 H 0.62713 0.96584 0.28939 0.0
H2342 H 0.54003 0.04804 0.24718 0.0
H2343 H 0.66792 0.0294 0.32449 0.0
H2344 H 0.59954 0.99664 0.26693 0.0
H2345 H 0.61673 0.08294 0.29145 0.0
C2346 C 0.57897 0.09144 0.27719 0.0
C2347 C 0.55653 0.08168 0.2657 0.0
C2348 C 0.61474 0.00387 0.27928 0.0
C2349 C 0.59869 0.04928 0.27412 0.0
C2350 C 0.63046 0.98628 0.2922 0.0
C2351 C 0.64955 0.99504 0.30926 0.0
C2352 C 0.61797 0.03041 0.2836 0.0
C2353 C 0.6532 0.02174 0.31183 0.0
C2354 C 0.60014 0.07536 0.28129 0.0
C2355 C 0.55684 0.05626 0.25642 0.0
N2356 N 0.63731 0.03847 0.29942 0.0
N2357 N 0.5774 0.04076 0.26131 0.0
H2358 H 0.17324 0.46853 0.66996 0.0
H2359 H 0.04345 0.45561 0.75056 0.0
H2360 H 0.12942 0.53321 0.69904 0.0
H2361 H 0.08434 0.3913 0.71696 0.0
H2362 H 0.0803 0.48335 0.741 0.0
H2363 H 0.14607 0.4395 0.69512 0.0
C2364 C 0.15804 0.47667 0.68178 0.0
C2365 C 0.15327 0.50332 0.68196 0.0
C2366 C 0.08143 0.46305 0.7362 0.0
C2367 C 0.12212 0.47017 0.71087 0.0
C2368 C 0.06046 0.44716 0.74184 0.0
C2369 C 0.06064 0.42125 0.73403 0.0
C2370 C 0.10259 0.45293 0.72258 0.0
C2371 C 0.08323 0.4113 0.7229 0.0
C2372 C 0.14258 0.46007 0.69622 0.0
C2373 C 0.13354 0.51277 0.69796 0.0
N2374 N 0.10311 0.42726 0.71706 0.0
N2375 N 0.1185 0.49618 0.71152 0.0
H2376 H 0.74717 0.5405 0.45265 0.0
H2377 H 0.82236 0.67296 0.47009 0.0
H2378 H 0.78043 0.58433 0.39022 0.0
H2379 H 0.79705 0.62501 0.53331 0.0
H2380 H 0.79804 0.64586 0.44042 0.0
H2381 H 0.75536 0.57668 0.48174 0.0
C2382 C 0.75552 0.558 0.4449 0.0
C2383 C 0.76363 0.55926 0.41912 0.0
C2384 C 0.79756 0.64142 0.46081 0.0
C2385 C 0.77341 0.60044 0.4523 0.0
C2386 C 0.81153 0.65685 0.47779 0.0
C2387 C 0.81218 0.65094 0.50419 0.0
C2388 C 0.78426 0.61981 0.47024 0.0
C2389 C 0.7974 0.63007 0.51307 0.0
C2390 C 0.76037 0.57858 0.46156 0.0
C2391 C 0.77428 0.58241 0.41008 0.0
N2392 N 0.78431 0.61505 0.49607 0.0
N2393 N 0.77927 0.60194 0.42675 0.0
H2394 H 0.74885 0.45359 0.95172 0.0
H2395 H 0.6694 0.32309 0.96562 0.0
H2396 H 0.71167 0.4145 0.88837 0.0
H2397 H 0.6999 0.36642 0.02986 0.0
H2398 H 0.69309 0.35109 0.93615 0.0
H2399 H 0.74025 0.41627 0.97914 0.0
C2400 C 0.73947 0.4369 0.94339 0.0
C2401 C 0.73049 0.43734 0.91788 0.0
C2402 C 0.69483 0.35428 0.9567 0.0
C2403 C 0.72021 0.39481 0.94922 0.0
C2404 C 0.68126 0.33833 0.97356 0.0
C2405 C 0.68225 0.34272 0.00025 0.0
C2406 C 0.70944 0.37483 0.96657 0.0
C2407 C 0.69823 0.36255 0.00942 0.0
C2408 C 0.73441 0.41565 0.9591 0.0
C2409 C 0.71857 0.41512 0.90806 0.0
N2410 N 0.71095 0.37807 0.99258 0.0
N2411 N 0.71338 0.39492 0.92388 0.0
H2412 H 0.2802 0.91578 0.6087 0.0
H2413 H 0.29664 0.86838 0.46416 0.0
H2414 H 0.2488 0.95584 0.54284 0.0
H2415 H 0.32969 0.8296 0.53005 0.0
H2416 H 0.27147 0.89546 0.49327 0.0
H2417 H 0.28989 0.87889 0.58114 0.0
C2418 C 0.27476 0.91657 0.58855 0.0
C2419 C 0.26416 0.9391 0.57792 0.0
C2420 C 0.28398 0.88082 0.50137 0.0
C2421 C 0.27568 0.89717 0.54617 0.0
C2422 C 0.29844 0.86537 0.48475 0.0
C2423 C 0.31572 0.84702 0.49468 0.0
C2424 C 0.28691 0.87803 0.52813 0.0
C2425 C 0.3169 0.84374 0.52152 0.0
C2426 C 0.28043 0.89554 0.57278 0.0
C2427 C 0.25728 0.93897 0.55177 0.0
N2428 N 0.30297 0.85934 0.53731 0.0
N2429 N 0.26364 0.91852 0.53666 0.0
H2430 H 0.24941 0.04074 0.03542 0.0
H2431 H 0.17449 0.17409 0.02636 0.0
H2432 H 0.22287 0.08429 0.10124 0.0
H2433 H 0.19584 0.12769 0.96052 0.0
H2434 H 0.20087 0.14639 0.05373 0.0
H2435 H 0.23981 0.0777 0.00781 0.0
C2436 C 0.24221 0.05831 0.04417 0.0
C2437 C 0.23631 0.05928 0.07053 0.0
C2438 C 0.20001 0.14243 0.03325 0.0
C2439 C 0.22487 0.10134 0.03908 0.0
C2440 C 0.18485 0.15818 0.01761 0.0
C2441 C 0.18249 0.15286 0.99119 0.0
C2442 C 0.21278 0.12112 0.02243 0.0
C2443 C 0.19673 0.13225 0.98087 0.0
C2444 C 0.23657 0.07935 0.02837 0.0
C2445 C 0.22722 0.08257 0.08089 0.0
N2446 N 0.21101 0.11693 0.99658 0.0
N2447 N 0.22131 0.10253 0.06506 0.0
H2448 H 0.45831 0.82801 0.67227 0.0
H2449 H 0.45163 0.75044 0.54046 0.0
H2450 H 0.52462 0.79517 0.63389 0.0
H2451 H 0.38576 0.78539 0.57758 0.0
H2452 H 0.47697 0.758 0.57942 0.0
H2453 H 0.43025 0.80476 0.64255 0.0
C2454 C 0.46699 0.81573 0.65776 0.0
C2455 C 0.49388 0.81396 0.65525 0.0
C2456 C 0.45683 0.76357 0.57923 0.0
C2457 C 0.46184 0.78731 0.62113 0.0
C2458 C 0.44231 0.75912 0.55703 0.0
C2459 C 0.41673 0.76782 0.55561 0.0
C2460 C 0.44568 0.77693 0.60001 0.0
C2461 C 0.40558 0.77878 0.5777 0.0
C2462 C 0.45093 0.80239 0.64083 0.0
C2463 C 0.504 0.79744 0.63631 0.0
N2464 N 0.42026 0.78346 0.59884 0.0
N2465 N 0.48797 0.78503 0.61976 0.0
H2466 H 0.97169 0.20695 0.12994 0.0
H2467 H 0.11551 0.21314 0.07803 0.0
H2468 H 0.0363 0.16978 0.16719 0.0
H2469 H 0.05141 0.25201 0.04178 0.0
H2470 H 0.08839 0.20433 0.11545 0.0
H2471 H 0.00169 0.2298 0.10183 0.0
C2472 C 0.9922 0.20372 0.13236 0.0
C2473 C 0.00146 0.18606 0.15066 0.0
C2474 C 0.08036 0.21522 0.09953 0.0
C2475 C 0.03593 0.2122 0.11851 0.0
C2476 C 0.09589 0.22037 0.0782 0.0
C2477 C 0.08553 0.23288 0.05657 0.0
C2478 C 0.05423 0.22239 0.09907 0.0
C2479 C 0.06009 0.24202 0.05793 0.0
C2480 C 0.00933 0.21687 0.11635 0.0
C2481 C 0.02825 0.18295 0.15312 0.0
N2482 N 0.04514 0.23615 0.07862 0.0
N2483 N 0.04452 0.19564 0.13701 0.0
H2484 H 0.96517 0.67399 0.32757 0.0
H2485 H 0.94618 0.75104 0.45895 0.0
H2486 H 0.02746 0.70758 0.37147 0.0
H2487 H 0.88555 0.70966 0.41975 0.0
H2488 H 0.97415 0.74444 0.42161 0.0
H2489 H 0.9343 0.69543 0.35588 0.0
C2490 C 0.97239 0.68607 0.343 0.0
C2491 C -0.00103 0.68858 0.34746 0.0
C2492 C 0.95457 0.73722 0.42099 0.0
C2493 C 0.96367 0.71317 0.37995 0.0
C2494 C 0.93853 0.74111 0.44224 0.0
C2495 C 0.91368 0.73043 0.44262 0.0
C2496 C 0.94567 0.7225 0.40007 0.0
C2497 C 0.90473 0.71787 0.42041 0.0
C2498 C 0.95472 0.69836 0.35914 0.0
C2499 C 0.00715 0.70479 0.36754 0.0
N2500 N 0.92087 0.71388 0.40018 0.0
N2501 N 0.98955 0.71621 0.38324 0.0
H2502 H 0.46975 0.29505 0.8643 0.0
H2503 H 0.61331 0.28282 0.91668 0.0
H2504 H 0.53597 0.32983 0.82766 0.0
H2505 H 0.5473 0.24879 0.95423 0.0
H2506 H 0.58646 0.29261 0.87932 0.0
H2507 H 0.49867 0.27136 0.89292 0.0
C2508 C 0.49038 0.29754 0.86208 0.0
C2509 C 0.50042 0.31481 0.8438 0.0
C2510 C 0.57792 0.28258 0.89552 0.0
C2511 C 0.53365 0.28771 0.87658 0.0
C2512 C 0.59329 0.27686 0.91682 0.0
C2513 C 0.58241 0.26536 0.93876 0.0
C2514 C 0.55143 0.27699 0.89627 0.0
C2515 C 0.55643 0.25788 0.9378 0.0
C2516 C 0.50689 0.28394 0.87842 0.0
C2517 C 0.52732 0.31698 0.84166 0.0
N2518 N 0.54169 0.26427 0.9171 0.0
N2519 N 0.54297 0.30384 0.85806 0.0
H2520 H 0.54099 0.45362 0.74836 0.0
H2521 H 0.67263 0.46304 0.82556 0.0
H2522 H 0.5817 0.38811 0.77981 0.0
H2523 H 0.62994 0.52881 0.79727 0.0
H2524 H 0.64492 0.43478 0.80015 0.0
H2525 H 0.57887 0.48038 0.75645 0.0
C2526 C 0.55813 0.44471 0.75635 0.0
C2527 C 0.55802 0.41877 0.76402 0.0
C2528 C 0.64183 0.45543 0.79923 0.0
C2529 C 0.60117 0.44932 0.77374 0.0
C2530 C 0.65762 0.47158 0.8138 0.0
C2531 C 0.65323 0.4983 0.81402 0.0
C2532 C 0.62141 0.46604 0.78492 0.0
C2533 C 0.63374 0.50829 0.79808 0.0
C2534 C 0.57971 0.46004 0.7611 0.0
C2535 C 0.58081 0.40817 0.77407 0.0
N2536 N 0.61832 0.49212 0.78447 0.0
N2537 N 0.60131 0.42361 0.77911 0.0
H2538 H 0.04997 0.05465 0.24825 0.0
H2539 H 0.17608 0.04278 0.1616 0.0
H2540 H 0.08432 0.11809 0.20676 0.0
H2541 H 0.1411 0.97866 0.20162 0.0
H2542 H 0.14727 0.07213 0.18449 0.0
H2543 H 0.08805 0.02846 0.2387 0.0
C2544 C 0.0658 0.06328 0.2377 0.0
C2545 C 0.0638 0.08841 0.22787 0.0
C2546 C 0.14607 0.05167 0.18848 0.0
C2547 C 0.10714 0.05848 0.2165 0.0
C2548 C 0.16249 0.03487 0.17535 0.0
C2549 C 0.16073 0.00816 0.17935 0.0
C2550 C 0.1276 0.0417 0.20562 0.0
C2551 C 0.14295 -0.00092 0.19767 0.0
C2552 C 0.08747 0.04827 0.2321 0.0
C2553 C 0.0849 0.09865 0.21437 0.0
N2554 N 0.12687 0.01579 0.20988 0.0
N2555 N 0.10551 0.08351 0.20872 0.0
H2556 H 0.4089 0.88469 0.71477 0.0
H2557 H 0.3581 0.02838 0.70495 0.0
H2558 H 0.44661 0.94971 0.75045 0.0
H2559 H 0.32031 0.96285 0.67011 0.0
H2560 H 0.38539 -0.00109 0.72949 0.0
H2561 H 0.37108 0.91156 0.70687 0.0
C2562 C 0.40899 0.90448 0.72147 0.0
C2563 C 0.43111 0.91517 0.73277 0.0
C2564 C 0.37087 0.99097 0.71677 0.0
C2565 C 0.38813 0.94617 0.72331 0.0
C2566 C 0.3553 0.0078 0.70269 0.0
C2567 C 0.33727 0.99808 0.685 0.0
C2568 C 0.36853 0.96424 0.71299 0.0
C2569 C 0.33425 0.97124 0.68319 0.0
C2570 C 0.38741 0.91986 0.71687 0.0
C2571 C 0.43007 0.94081 0.74135 0.0
N2572 N 0.35001 0.95527 0.6967 0.0
N2573 N 0.40913 0.95562 0.73596 0.0
H2574 H 0.95187 0.55805 0.24681 0.0
H2575 H 0.82435 0.53986 0.33004 0.0
H2576 H 0.9162 0.61843 0.29174 0.0
H2577 H 0.86438 0.47789 0.29122 0.0
H2578 H 0.85203 0.57086 0.30797 0.0
H2579 H 0.914 0.53101 0.25404 0.0
C2580 C 0.93582 0.56585 0.25768 0.0
C2581 C 0.93739 0.5903 0.26917 0.0
C2582 C 0.85453 0.55049 0.30404 0.0
C2583 C 0.89424 0.55937 0.27783 0.0
C2584 C 0.83876 0.53276 0.31667 0.0
C2585 C 0.84239 0.50619 0.31288 0.0
C2586 C 0.87414 0.5416 0.28758 0.0
C2587 C 0.86114 0.49817 0.29505 0.0
C2588 C 0.91425 0.55036 0.26192 0.0
C2589 C 0.91596 0.59951 0.2829 0.0
N2590 N 0.87654 0.51579 0.28332 0.0
N2591 N 0.89544 0.58387 0.28723 0.0
H2592 H 0.28848 0.12154 0.5759 0.0
H2593 H 0.16265 0.15932 0.49986 0.0
H2594 H 0.22493 0.06864 0.56631 0.0
H2595 H 0.23532 0.19837 0.48803 0.0
H2596 H 0.18522 0.12507 0.52244 0.0
H2597 H 0.26929 0.14981 0.54357 0.0
C2598 C 0.27044 0.11589 0.56703 0.0
C2599 C 0.2581 0.09283 0.57406 0.0
C2600 C 0.1963 0.14091 0.51454 0.0
C2601 C 0.2361 0.12512 0.5369 0.0
C2602 C 0.18345 0.16048 0.50133 0.0
C2603 C 0.19699 0.18214 0.49222 0.0
C2604 C 0.22284 0.14313 0.51912 0.0
C2605 C 0.22392 0.18247 0.4953 0.0
C2606 C 0.25963 0.13193 0.54838 0.0
C2607 C 0.23499 0.08631 0.5616 0.0
N2608 N 0.2359 0.16351 0.50891 0.0
N2609 N 0.22457 0.10254 0.54382 0.0
H2610 H 0.26615 0.93234 0.05533 0.0
H2611 H 0.27521 0.78179 0.02354 0.0
H2612 H 0.22763 0.87249 0.0986 0.0
H2613 H 0.31439 0.83994 0.97857 0.0
H2614 H 0.2544 0.81555 0.04834 0.0
H2615 H 0.28218 0.8995 0.02536 0.0
C2616 C 0.26117 0.91232 0.05862 0.0
C2617 C 0.24566 0.90517 0.07965 0.0
C2618 C 0.26735 0.82101 0.03289 0.0
C2619 C 0.26364 0.86761 0.04526 0.0
C2620 C 0.27904 0.80166 0.01839 0.0
C2621 C 0.29678 0.80791 -0.0011 0.0
C2622 C 0.27352 0.84693 0.02813 0.0
C2623 C 0.30122 0.83416 0.99369 0.0
C2624 C 0.2702 0.89362 0.04141 0.0
C2625 C 0.23964 0.87896 0.08279 0.0
N2626 N 0.28989 0.85271 0.0084 0.0
N2627 N 0.24865 0.8612 0.06583 0.0
H2628 H 0.68036 0.34445 0.51201 0.0
H2629 H 0.7768 0.37141 0.39471 0.0
H2630 H 0.71707 0.28528 0.46618 0.0
H2631 H 0.73545 0.432 0.43432 0.0
H2632 H 0.75796 0.34001 0.4239 0.0
H2633 H 0.70381 0.3772 0.48733 0.0
C2634 C 0.69354 0.3383 0.49702 0.0
C2635 C 0.69657 0.312 0.49113 0.0
C2636 C 0.75296 0.36016 0.42626 0.0
C2637 C 0.72339 0.34933 0.46287 0.0
C2638 C 0.76367 0.37815 0.40951 0.0
C2639 C 0.75757 0.40442 0.41193 0.0
C2640 C 0.73595 0.36836 0.44567 0.0
C2641 C 0.74052 0.41193 0.43161 0.0
C2642 C 0.70691 0.35701 0.48295 0.0
C2643 C 0.71425 0.3052 0.47175 0.0
N2644 N 0.73025 0.39395 0.44773 0.0
N2645 N 0.72677 0.32372 0.45823 0.0
H2646 H 0.76244 0.56426 0.93945 0.0
H2647 H 0.7713 0.71226 0.98005 0.0
H2648 H 0.71412 0.62503 0.90909 0.0
H2649 H 0.8179 0.65295 0.01561 0.0
H2650 H 0.74694 0.67925 0.9579 0.0
H2651 H 0.78099 0.59525 0.96999 0.0
C2652 C 0.75576 0.58406 0.93916 0.0
C2653 C 0.73691 0.59209 0.92146 0.0
C2654 C 0.76231 0.67334 0.97075 0.0
C2655 C 0.75776 0.62745 0.95645 0.0
C2656 C 0.7761 0.69228 0.98379 0.0
C2657 C 0.79702 0.68554 -0.00039 0.0
C2658 C 0.76957 0.64737 0.97319 0.0
C2659 C 0.80238 0.65915 0.00311 0.0
C2660 C 0.76624 0.60168 0.95669 0.0
C2661 C 0.72878 0.61793 0.92216 0.0
N2662 N 0.789 0.64103 0.98969 0.0
N2663 N 0.73931 0.63462 0.93925 0.0
H2664 H 0.50029 0.16045 0.16043 0.0
H2665 H 0.58251 0.28384 0.12391 0.0
H2666 H 0.4981 0.23159 0.20363 0.0
H2667 H 0.5688 0.22235 0.06947 0.0
H2668 H 0.55134 0.2645 0.15309 0.0
H2669 H 0.52356 0.18264 0.12598 0.0
C2670 C 0.5041 0.18088 0.16243 0.0
C2671 C 0.4975 0.1941 0.18517 0.0
C2672 C 0.55501 0.25524 0.13473 0.0
C2673 C 0.52479 0.21937 0.14609 0.0
C2674 C 0.57302 0.26616 0.11811 0.0
C2675 C 0.57851 0.25453 0.09428 0.0
C2676 C 0.54251 0.23229 0.12774 0.0
C2677 C 0.56525 0.23186 0.08771 0.0
C2678 C 0.51762 0.19347 0.14282 0.0
C2679 C 0.5033 0.22049 0.18673 0.0
N2680 N 0.54802 0.22131 0.10448 0.0
N2681 N 0.51692 0.23215 0.16766 0.0
H2682 H 0.91966 0.77434 0.57028 0.0
H2683 H 0.00938 0.76749 0.69538 0.0
H2684 H 0.91675 0.71247 0.62593 0.0
H2685 H 0.98683 0.83953 0.66 0.0
H2686 H 0.98383 0.74442 0.66317 0.0
H2687 H 0.952 0.79613 0.59711 0.0
C2688 C 0.9258 0.76536 0.58812 0.0
C2689 C 0.91527 0.74174 0.59607 0.0
C2690 C 0.98481 0.76528 0.66234 0.0
C2691 C 0.95256 0.76615 0.62635 0.0
C2692 C -0.00063 0.77848 0.6807 0.0
C2693 C -6e-05 0.80558 0.68079 0.0
C2694 C 0.97098 0.77922 0.64372 0.0
C2695 C 0.98714 0.81867 0.66076 0.0
C2696 C 0.94425 0.77775 0.60333 0.0
C2697 C 0.92405 0.73086 0.61926 0.0
N2698 N 0.97299 0.80539 0.64319 0.0
N2699 N 0.94223 0.74311 0.63354 0.0
H2700 H 0.9981 0.26492 0.79066 0.0
H2701 H 0.06712 0.27432 0.92835 0.0
H2702 H 0.99724 0.33391 0.8372 0.0
H2703 H 0.08242 0.21543 0.87143 0.0
H2704 H 0.0347 0.29304 0.89935 0.0
H2705 H 0.02094 0.24245 0.82523 0.0
C2706 C 0.00229 0.27518 0.80837 0.0
C2707 C 0.99616 0.30141 0.81091 0.0
C2708 C 0.04514 0.27596 0.89335 0.0
C2709 C 0.02251 0.27598 0.85037 0.0
C2710 C 0.0637 0.26535 0.9098 0.0
C2711 C 0.07776 0.24348 0.90218 0.0
C2712 C 0.04046 0.2644 0.8693 0.0
C2713 C 0.07235 0.2325 0.87803 0.0
C2714 C 0.01542 0.26241 0.82804 0.0
C2715 C 0.00162 0.31368 0.83443 0.0
N2716 N 0.05417 0.24308 0.8625 0.0
N2717 N 0.01487 0.30097 0.85314 0.0
H2718 H 0.49857 0.73659 0.28697 0.0
H2719 H 0.43215 0.72928 0.42621 0.0
H2720 H 0.49983 0.66826 0.33448 0.0
H2721 H 0.41779 0.78909 0.37003 0.0
H2722 H 0.46328 0.70964 0.39643 0.0
H2723 H 0.47636 0.75965 0.32158 0.0
C2724 C 0.49456 0.72658 0.30486 0.0
C2725 C 0.50071 0.70037 0.3077 0.0
C2726 C 0.45333 0.72712 0.39074 0.0
C2727 C 0.47511 0.72653 0.34728 0.0
C2728 C 0.43552 0.73827 0.40766 0.0
C2729 C 0.42208 0.76068 0.40049 0.0
C2730 C 0.4579 0.73863 0.36663 0.0
C2731 C 0.42739 0.77163 0.37629 0.0
C2732 C 0.48181 0.7397 0.32457 0.0
C2733 C 0.49548 0.68846 0.33147 0.0
N2734 N 0.44482 0.76049 0.36027 0.0
N2735 N 0.48264 0.70153 0.35023 0.0
H2736 H 0.06524 0.56938 0.23427 0.0
H2737 H 0.2136 0.52968 0.21935 0.0
H2738 H 0.12823 0.6071 0.27356 0.0
H2739 H 0.15181 0.48899 0.18113 0.0
H2740 H 0.18195 0.55634 0.24125 0.0
H2741 H 0.0961 0.53905 0.21523 0.0
C2742 C 0.08554 0.57143 0.23875 0.0
C2743 C 0.09414 0.59091 0.25548 0.0
C2744 C 0.17523 0.54145 0.22825 0.0
C2745 C 0.12945 0.55608 0.23402 0.0
C2746 C 0.19335 0.5259 0.21593 0.0
C2747 C 0.18546 0.50696 0.19826 0.0
C2748 C 0.1489 0.53829 0.22282 0.0
C2749 C 0.15884 0.50357 0.1943 0.0
C2750 C 0.10311 0.55399 0.228 0.0
C2751 C 0.12066 0.59246 0.26075 0.0
N2752 N 0.14152 0.51922 0.20632 0.0
N2753 N 0.13731 0.57531 0.25007 0.0
H2754 H 0.55969 0.93832 0.76637 0.0
H2755 H 0.7097 0.97213 0.77507 0.0
H2756 H 0.62002 0.89869 0.72467 0.0
H2757 H 0.65141 0.01517 0.81636 0.0
H2758 H 0.67609 0.94793 0.75364 0.0
H2759 H 0.59208 0.9683 0.7834 0.0
C2760 C 0.5797 0.93583 0.7609 0.0
C2761 C 0.58715 0.91581 0.74423 0.0
C2762 C 0.67055 0.96282 0.7672 0.0
C2763 C 0.62412 0.95016 0.76332 0.0
C2764 C 0.68983 0.97701 0.77927 0.0
C2765 C 0.68353 0.99579 0.79775 0.0
C2766 C 0.64463 0.96712 0.77374 0.0
C2767 C 0.65726 0.00058 0.80263 0.0
C2768 C 0.59813 0.95304 0.77049 0.0
C2769 C 0.61332 0.91369 0.73757 0.0
N2770 N 0.63876 0.98613 0.79091 0.0
N2771 N 0.63078 0.93058 0.74715 0.0
H2772 H 0.79432 0.00644 0.25934 0.0
H2773 H 0.93261 0.07356 0.27253 0.0
H2774 H 0.83704 0.00724 0.3308 0.0
H2775 H 0.87599 0.09375 0.21487 0.0
H2776 H 0.90177 0.04269 0.29101 0.0
H2777 H 0.8289 0.03116 0.23907 0.0
C2778 C 0.81105 0.01156 0.27072 0.0
C2779 C 0.81252 0.00503 0.29695 0.0
C2780 C 0.89623 0.05392 0.27429 0.0
C2781 C 0.85226 0.03321 0.27378 0.0
C2782 C 0.91375 0.07155 0.26379 0.0
C2783 C 0.90683 0.08643 0.24225 0.0
C2784 C 0.87184 0.0509 0.26288 0.0
C2785 C 0.88216 0.0829 0.23161 0.0
C2786 C 0.83078 0.02568 0.25913 0.0
C2787 C 0.83504 0.01169 0.31052 0.0
N2788 N 0.86564 0.06548 0.24197 0.0
N2789 N 0.85393 0.02562 0.29884 0.0
H2790 H 0.29838 0.50507 0.7314 0.0
H2791 H 0.42969 0.42447 0.7214 0.0
H2792 H 0.33723 0.49078 0.65907 0.0
H2793 H 0.37422 0.4152 0.78281 0.0
H2794 H 0.4007 0.45581 0.70085 0.0
H2795 H 0.33154 0.47974 0.75341 0.0
C2796 C 0.31396 0.49688 0.72015 0.0
C2797 C 0.31469 0.49983 0.69323 0.0
C2798 C 0.39497 0.44688 0.71884 0.0
C2799 C 0.35285 0.47106 0.71841 0.0
C2800 C 0.41145 0.429 0.73053 0.0
C2801 C 0.40424 0.41699 0.75369 0.0
C2802 C 0.37139 0.45311 0.73066 0.0
C2803 C 0.38043 0.4237 0.76478 0.0
C2804 C 0.33288 0.48244 0.73274 0.0
C2805 C 0.33583 0.48927 0.67983 0.0
N2806 N 0.36491 0.44135 0.75321 0.0
N2807 N 0.35394 0.4752 0.69252 0.0
H2808 H 0.81431 0.84192 0.51125 0.0
H2809 H 0.72669 0.86862 0.38703 0.0
H2810 H 0.78509 0.78298 0.46016 0.0
H2811 H 0.76224 0.92994 0.43072 0.0
H2812 H 0.74643 0.83725 0.41563 0.0
H2813 H 0.7935 0.87473 0.48421 0.0
C2814 C 0.8034 0.83583 0.49453 0.0
C2815 C 0.80139 0.80955 0.48813 0.0
C2816 C 0.75005 0.85754 0.419 0.0
C2817 C 0.77761 0.84695 0.45719 0.0
C2818 C 0.73879 0.87552 0.4026 0.0
C2819 C 0.74285 0.90199 0.40643 0.0
C2820 C 0.76551 0.86595 0.43956 0.0
C2821 C 0.75874 0.90971 0.42696 0.0
C2822 C 0.79154 0.85457 0.47912 0.0
C2823 C 0.7868 0.80285 0.46633 0.0
N2824 N 0.76946 0.89174 0.44285 0.0
N2825 N 0.7756 0.82138 0.45169 0.0
H2826 H 0.73219 0.19719 0.0017 0.0
H2827 H 0.72103 0.06686 0.91999 0.0
H2828 H 0.65956 0.15867 0.98829 0.0
H2829 H 0.78162 0.12301 0.90963 0.0
H2830 H 0.70099 0.09537 0.95209 0.0
H2831 H 0.75374 0.16425 0.97569 0.0
C2832 C 0.72078 0.18171 0.99358 0.0
C2833 C 0.6939 0.18104 0.99693 0.0
C2834 C 0.71869 0.10134 0.94275 0.0
C2835 C 0.71855 0.14315 0.96738 0.0
C2836 C 0.73008 0.08516 0.92441 0.0
C2837 C 0.75287 0.09269 0.9119 0.0
C2838 C 0.73046 0.12494 0.94891 0.0
C2839 C 0.76388 0.11654 0.91852 0.0
C2840 C 0.73311 0.16292 0.97874 0.0
C2841 C 0.68029 0.16003 0.98645 0.0
N2842 N 0.75262 0.13175 0.93662 0.0
N2843 N 0.69273 0.14206 0.97197 0.0
H2844 H 0.22167 0.63219 0.59434 0.0
H2845 H 0.32366 0.6566 0.48118 0.0
H2846 H 0.26656 0.57078 0.56023 0.0
H2847 H 0.28131 0.71646 0.52082 0.0
H2848 H 0.30058 0.62423 0.50673 0.0
H2849 H 0.24138 0.66258 0.56478 0.0
C2850 C 0.23579 0.62504 0.58068 0.0
C2851 C 0.24257 0.59882 0.57995 0.0
C2852 C 0.2962 0.64446 0.50957 0.0
C2853 C 0.26527 0.63384 0.54568 0.0
C2854 C 0.30936 0.66297 0.495 0.0
C2855 C 0.30458 0.68941 0.49885 0.0
C2856 C 0.27814 0.65244 0.52812 0.0
C2857 C 0.28552 0.69641 0.51679 0.0
C2858 C 0.247 0.64249 0.56368 0.0
C2859 C 0.26088 0.59084 0.56162 0.0
N2860 N 0.27321 0.6781 0.53082 0.0
N2861 N 0.27166 0.60831 0.54521 0.0
H2862 H 0.23249 0.42971 0.06327 0.0
H2863 H 0.22261 0.28284 0.01834 0.0
H2864 H 0.27654 0.36719 0.09642 0.0
H2865 H 0.18193 0.34476 0.98011 0.0
H2866 H 0.24512 0.31434 0.04448 0.0
H2867 H 0.21498 0.39962 0.03139 0.0
C2868 C 0.23837 0.40967 0.06397 0.0
C2869 C 0.25586 0.40095 0.08272 0.0
C2870 C 0.23149 0.32113 0.03019 0.0
C2871 C 0.23617 0.36654 0.04611 0.0
C2872 C 0.2188 0.30309 0.01491 0.0
C2873 C 0.2001 0.31103 0.99698 0.0
C2874 C 0.22534 0.3474 0.02785 0.0
C2875 C 0.19579 0.33766 0.99401 0.0
C2876 C 0.22851 0.39255 0.04563 0.0
C2877 C 0.263 0.37481 0.08247 0.0
N2878 N 0.20807 0.35488 0.00952 0.0
N2879 N 0.25309 0.35858 0.06453 0.0
H2880 H 0.47313 0.77369 0.78332 0.0
H2881 H 0.4321 0.75967 0.93094 0.0
H2882 H 0.50964 0.81685 0.84451 0.0
H2883 H 0.39974 0.71533 0.8683 0.0
H2884 H 0.46263 0.77912 0.90054 0.0
H2885 H 0.44946 0.74921 0.81524 0.0
C2886 C 0.47672 0.77769 0.80349 0.0
C2887 C 0.49339 0.79763 0.8111 0.0
C2888 C 0.44887 0.76507 0.89353 0.0
C2889 C 0.46528 0.77006 0.848 0.0
C2890 C 0.43134 0.75408 0.91083 0.0
C2891 C 0.41316 0.73599 0.90214 0.0
C2892 C 0.44816 0.75791 0.86741 0.0
C2893 C 0.41325 0.7293 0.87592 0.0
C2894 C 0.46283 0.76385 0.82178 0.0
C2895 C 0.49662 0.80206 0.83766 0.0
N2896 N 0.4304 0.74029 0.85954 0.0
N2897 N 0.48244 0.78861 0.85516 0.0
H2898 H 0.00227 0.23949 0.29271 0.0
H2899 H 0.06657 0.22746 0.4326 0.0
H2900 H 0.00047 0.16942 0.33767 0.0
H2901 H 0.08535 0.28632 0.37674 0.0
H2902 H 0.03516 0.20949 0.40205 0.0
H2903 H 0.02473 0.26096 0.32812 0.0
C2904 C 0.00627 0.22872 0.31016 0.0
C2905 C -0.00016 0.2025 0.31202 0.0
C2906 C 0.04612 0.22642 0.39664 0.0
C2907 C 0.02555 0.22692 0.3526 0.0
C2908 C 0.06406 0.23663 0.414 0.0
C2909 C 0.07884 0.25823 0.40712 0.0
C2910 C 0.04276 0.23813 0.37243 0.0
C2911 C 0.07465 0.26946 0.38282 0.0
C2912 C 0.01911 0.24096 0.33035 0.0
C2913 C 0.00499 0.18966 0.33535 0.0
N2914 N 0.05705 0.25927 0.3664 0.0
N2915 N 0.01784 0.20191 0.35462 0.0
H2916 H 0.01435 0.6854 0.15503 0.0
H2917 H 0.8925 0.77387 0.12082 0.0
H2918 H 0.96331 0.71971 0.21128 0.0
H2919 H 0.9365 0.73317 0.06293 0.0
H2920 H 0.92101 0.75685 0.15385 0.0
H2921 H 0.98908 0.70582 0.12069 0.0
C2922 C 0.99804 0.69739 0.16021 0.0
C2923 C 0.99099 0.70074 0.18618 0.0
C2924 C 0.92448 0.75156 0.13395 0.0
C2925 C 0.96207 0.72413 0.147 0.0
C2926 C 0.90812 0.76123 0.11503 0.0
C2927 C 0.91198 0.7548 0.08903 0.0
C2928 C 0.94498 0.73529 0.12697 0.0
C2929 C 0.93268 0.73845 0.08276 0.0
C2930 C 0.98364 0.70903 0.1406 0.0
C2931 C 0.96985 0.7168 0.19168 0.0
N2932 N 0.94843 0.72922 0.10163 0.0
N2933 N 0.95612 0.72771 0.1723 0.0
H2934 H 0.53762 0.28675 0.71338 0.0
H2935 H 0.56285 0.26868 0.56259 0.0
H2936 H 0.48641 0.31707 0.65505 0.0
H2937 H 0.60862 0.23298 0.62235 0.0
H2938 H 0.53484 0.28715 0.59578 0.0
H2939 H 0.56306 0.26625 0.67995 0.0
C2940 C 0.53132 0.28869 0.69357 0.0
C2941 C 0.50965 0.30365 0.68712 0.0
C2942 C 0.55104 0.2753 0.60158 0.0
C2943 C 0.53953 0.28077 0.64843 0.0
C2944 C 0.56716 0.2649 0.58267 0.0
C2945 C 0.58818 0.24929 0.58969 0.0
C2946 C 0.55603 0.27012 0.62768 0.0
C2947 C 0.59268 0.2449 0.616 0.0
C2948 C 0.54614 0.27719 0.6744 0.0
C2949 C 0.50309 0.30597 0.66094 0.0
N2950 N 0.57675 0.25524 0.634 0.0
N2951 N 0.51807 0.29478 0.64252 0.0
H2952 H 0.78354 0.47444 0.77891 0.0
H2953 H 0.93333 0.44022 0.76494 0.0
H2954 H 0.84288 0.51376 0.82213 0.0
H2955 H 0.87188 0.40258 0.7232 0.0
H2956 H 0.90139 0.46918 0.7845 0.0
H2957 H 0.81661 0.45102 0.75559 0.0
C2958 C 0.80354 0.47865 0.78317 0.0
C2959 C 0.8103 0.49616 0.80269 0.0
C2960 C 0.89498 0.45459 0.77101 0.0
C2961 C 0.84856 0.46844 0.77643 0.0
C2962 C 0.91318 0.43797 0.75994 0.0
C2963 C 0.9053 0.41882 0.74249 0.0
C2964 C 0.86879 0.45201 0.76454 0.0
C2965 C 0.87894 0.41695 0.7366 0.0
C2966 C 0.8225 0.46492 0.77001 0.0
C2967 C 0.83669 0.50016 0.80757 0.0
N2968 N 0.86171 0.43327 0.74761 0.0
N2969 N 0.85486 0.48623 0.79471 0.0
H2970 H 0.30061 0.98672 0.22774 0.0
H2971 H 0.43052 0.0698 0.22548 0.0
H2972 H 0.34138 0.00608 0.15773 0.0
H2973 H 0.37393 0.07312 0.2865 0.0
H2974 H 0.40375 0.03774 0.20325 0.0
H2975 H 0.33396 0.00898 0.25255 0.0
C2976 C 0.31673 0.99527 0.2176 0.0
C2977 C 0.31786 0.99491 0.19055 0.0
C2978 C 0.39735 0.04544 0.22158 0.0
C2979 C 0.3561 0.02021 0.21881 0.0
C2980 C 0.41255 0.06372 0.23422 0.0
C2981 C 0.40422 0.07441 0.25765 0.0
C2982 C 0.37394 0.03755 0.23268 0.0
C2983 C 0.38087 0.06573 0.26824 0.0
C2984 C 0.33573 0.00796 0.23176 0.0
C2985 C 0.33961 0.00576 0.17851 0.0
N2986 N 0.36653 0.04783 0.25566 0.0
N2987 N 0.3577 0.01825 0.1927 0.0
H2988 H 0.21312 0.97897 0.72096 0.0
H2989 H 0.06633 0.935 0.73396 0.0
H2990 H 0.15148 0.01255 0.67605 0.0
H2991 H 0.12832 0.90607 0.78153 0.0
H2992 H 0.09645 0.96541 0.71417 0.0
H2993 H 0.18148 0.95522 0.74589 0.0
C2994 C 0.1929 0.98188 0.71665 0.0
C2995 C 0.18507 0.99777 0.69614 0.0
C2996 C 0.10341 0.95246 0.729 0.0
C2997 C 0.14857 0.96968 0.72428 0.0
C2998 C 0.08625 0.93499 0.74023 0.0
C2999 C 0.09484 0.91776 0.75929 0.0
C3000 C 0.12933 0.95266 0.73684 0.0
C3001 C 0.12083 0.91882 0.76679 0.0
C3002 C 0.17479 0.96798 0.73078 0.0
C3003 C 0.15849 0.00018 0.69132 0.0
N3004 N 0.13713 0.93588 0.75548 0.0
N3005 N 0.14121 0.98605 0.70508 0.0
H3006 H 0.56445 0.56729 0.2713 0.0
H3007 H 0.70443 0.50223 0.26273 0.0
H3008 H 0.6199 0.58197 0.21092 0.0
H3009 H 0.65868 0.50243 0.33227 0.0
H3010 H 0.66925 0.52404 0.24019 0.0
H3011 H 0.59507 0.537 0.29108 0.0
C3012 C 0.58299 0.56413 0.2622 0.0
C3013 C 0.58974 0.57743 0.23961 0.0
C3014 C 0.66679 0.51904 0.26031 0.0
C3015 C 0.62454 0.54262 0.26182 0.0
C3016 C 0.68684 0.50655 0.27316 0.0
C3017 C 0.68465 0.50084 0.29951 0.0
C3018 C 0.64436 0.52592 0.27389 0.0
C3019 C 0.6612 0.50642 0.31194 0.0
C3020 C 0.60041 0.54683 0.27345 0.0
C3021 C 0.61397 0.57246 0.22853 0.0
N3022 N 0.64207 0.51895 0.29911 0.0
N3023 N 0.63044 0.55551 0.23975 0.0
loop_
_geom_bond_atom_site_label_1
_geom_bond_atom_site_label_2
_geom_bond_distance
_geom_bond_site_symmetry_2
_ccdc_geom_bond_type
Cd0 N3 2.334 . S
Cd0 N29 2.304 . S
Cd0 O36 2.268 . S
Cd0 O39 2.273 . S
Cd0 O40 2.417 . S
Cd0 O41 2.330 . S
Cd1 N16 2.304 . S
Cd1 N20 2.334 . S
Cd1 O37 2.273 . S
Cd1 O38 2.268 . S
Cd1 O42 2.417 . S
Cd1 O43 2.330 . S
C2 N3 1.332 . S
C2 C6 1.381 . S
C2 H8 0.931 . S
N3 Cd0 2.334 . S
N3 C2 1.332 . S
N3 C7 1.328 . S
C4 C5 1.396 . S
C4 C7 1.378 . S
C4 H46 0.931 . S
C5 C4 1.396 . S
C5 C6 1.382 . S
C6 C2 1.381 . S
C6 C5 1.382 . S
C6 H47 0.930 . S
C7 N3 1.328 . S
C7 C4 1.378 . S
C7 H9 0.930 . S
H8 C2 0.931 . S
H9 C7 0.930 . S
C10 O36 1.238 . S
C10 O37 1.253 . S
C11 C12 1.379 . S
C11 N16 1.337 . S
C11 H17 0.929 . S
C12 C11 1.379 . S
C12 C13 1.380 . S
C12 H48 0.929 . S
C13 C12 1.380 . S
C13 C14 1.399 . S
C14 C13 1.399 . S
C14 C15 1.376 . S
C14 H49 0.931 . S
C15 C14 1.376 . S
C15 N16 1.338 . S
C15 H18 0.930 . S
N16 Cd1 2.304 . S
N16 C11 1.337 . S
N16 C15 1.338 . S
H17 C11 0.929 . S
H18 C15 0.930 . S
C19 N20 1.332 . S
C19 C23 1.381 . S
C19 H25 0.931 . S
N20 Cd1 2.334 . S
N20 C19 1.332 . S
N20 C24 1.328 . S
C21 C22 1.396 . S
C21 C24 1.378 . S
C21 H50 0.931 . S
C22 C21 1.396 . S
C22 C23 1.382 . S
C23 C19 1.381 . S
C23 C22 1.382 . S
C23 H51 0.930 . S
C24 N20 1.328 . S
C24 C21 1.378 . S
C24 H26 0.930 . S
H25 C19 0.931 . S
H26 C24 0.930 . S
C27 O38 1.238 . S
C27 O39 1.253 . S
C28 O40 1.239 . S
C28 O41 1.230 . S
N29 Cd0 2.304 . S
N29 C30 1.337 . S
N29 C34 1.338 . S
C30 N29 1.337 . S
C30 C31 1.379 . S
C30 H44 0.929 . S
C31 C30 1.379 . S
C31 C32 1.380 . S
C31 H52 0.929 . S
C32 C31 1.380 . S
C32 C33 1.399 . S
C33 C32 1.399 . S
C33 C34 1.376 . S
C33 H53 0.931 . S
C34 N29 1.338 . S
C34 C33 1.376 . S
C34 H45 0.930 . S
C35 O42 1.239 . S
C35 O43 1.230 . S
O36 Cd0 2.268 . S
O36 C10 1.238 . S
O37 Cd1 2.273 . S
O37 C10 1.253 . S
O38 Cd1 2.268 . S
O38 C27 1.238 . S
O39 Cd0 2.273 . S
O39 C27 1.253 . S
O40 Cd0 2.417 . S
O40 C28 1.239 . S
O41 Cd0 2.330 . S
O41 C28 1.230 . S
O42 Cd1 2.417 . S
O42 C35 1.239 . S
O43 Cd1 2.330 . S
O43 C35 1.230 . S
H44 C30 0.929 . S
H45 C34 0.930 . S
H46 C4 0.931 . S
H47 C6 0.930 . S
H48 C12 0.929 . S
H49 C14 0.931 . S
H50 C21 0.931 . S
H51 C23 0.930 . S
H52 C31 0.929 . S
H53 C33 0.931 . S
Cd54 N57 2.334 . S
Cd54 N83 2.304 . S
Cd54 O90 2.268 . S
Cd54 O93 2.273 . S
Cd54 O94 2.417 1_556 S
Cd54 O95 2.330 1_556 S
Cd55 N70 2.304 . S
Cd55 N74 2.334 . S
Cd55 O91 2.273 . S
Cd55 O92 2.268 . S
Cd55 O96 2.417 . S
Cd55 O97 2.330 . S
C56 N57 1.332 . S
C56 C60 1.381 . S
C56 H62 0.931 . S
N57 Cd54 2.334 . S
N57 C56 1.332 . S
N57 C61 1.328 . S
C58 C59 1.396 . S
C58 C61 1.378 . S
C58 H100 0.931 . S
C59 C58 1.396 . S
C59 C60 1.382 . S
C60 C56 1.381 . S
C60 C59 1.382 . S
C60 H101 0.930 . S
C61 N57 1.328 . S
C61 C58 1.378 . S
C61 H63 0.930 . S
H62 C56 0.931 . S
H63 C61 0.930 . S
C64 O90 1.238 . S
C64 O91 1.253 . S
C65 C66 1.379 . S
C65 N70 1.337 . S
C65 H71 0.929 . S
C66 C65 1.379 . S
C66 C67 1.380 . S
C66 H102 0.929 . S
C67 C66 1.380 . S
C67 C68 1.399 . S
C68 C67 1.399 . S
C68 C69 1.376 . S
C68 H103 0.931 . S
C69 C68 1.376 . S
C69 N70 1.338 . S
C69 H72 0.930 . S
N70 Cd55 2.304 . S
N70 C65 1.337 . S
N70 C69 1.338 . S
H71 C65 0.929 . S
H72 C69 0.930 . S
C73 N74 1.332 . S
C73 C77 1.381 . S
C73 H79 0.931 . S
N74 Cd55 2.334 . S
N74 C73 1.332 . S
N74 C78 1.328 . S
C75 C76 1.396 . S
C75 C78 1.378 . S
C75 H104 0.931 . S
C76 C75 1.396 . S
C76 C77 1.382 . S
C77 C73 1.381 . S
C77 C76 1.382 . S
C77 H105 0.930 . S
C78 N74 1.328 . S
C78 C75 1.378 . S
C78 H80 0.930 . S
H79 C73 0.931 . S
H80 C78 0.930 . S
C81 O92 1.238 . S
C81 O93 1.253 . S
C82 O94 1.239 . S
C82 O95 1.230 . S
N83 Cd54 2.304 . S
N83 C84 1.337 . S
N83 C88 1.338 1_556 S
C84 N83 1.337 . S
C84 C85 1.379 . S
C84 H98 0.929 . S
C85 C84 1.379 . S
C85 C86 1.380 1_556 S
C85 H106 0.929 . S
C86 C85 1.380 1_554 S
C86 C87 1.399 . S
C87 C86 1.399 . S
C87 C88 1.376 . S
C87 H107 0.931 . S
C88 N83 1.338 1_554 S
C88 C87 1.376 . S
C88 H99 0.930 . S
C89 O96 1.239 . S
C89 O97 1.230 . S
O90 Cd54 2.268 . S
O90 C64 1.238 . S
O91 Cd55 2.273 . S
O91 C64 1.253 . S
O92 Cd55 2.268 . S
O92 C81 1.238 . S
O93 Cd54 2.273 . S
O93 C81 1.253 . S
O94 Cd54 2.417 1_554 S
O94 C82 1.239 . S
O95 Cd54 2.330 1_554 S
O95 C82 1.230 . S
O96 Cd55 2.417 . S
O96 C89 1.239 . S
O97 Cd55 2.330 . S
O97 C89 1.230 . S
H98 C84 0.929 . S
H99 C88 0.930 . S
H100 C58 0.931 . S
H101 C60 0.930 . S
H102 C66 0.929 . S
H103 C68 0.931 . S
H104 C75 0.931 . S
H105 C77 0.930 . S
H106 C85 0.929 . S
H107 C87 0.931 . S
Cd108 N111 2.334 . S
Cd108 N137 2.304 . S
Cd108 O144 2.268 . S
Cd108 O147 2.273 . S
Cd108 O148 2.417 . S
Cd108 O149 2.330 . S
Cd109 N124 2.304 . S
Cd109 N128 2.334 . S
Cd109 O145 2.273 . S
Cd109 O146 2.268 . S
Cd109 O150 2.417 . S
Cd109 O151 2.330 . S
C110 N111 1.332 . S
C110 C114 1.381 . S
C110 H116 0.931 . S
N111 Cd108 2.334 . S
N111 C110 1.332 . S
N111 C115 1.328 . S
C112 C113 1.396 . S
C112 C115 1.378 . S
C112 H154 0.931 . S
C113 C112 1.396 . S
C113 C114 1.382 . S
C114 C110 1.381 . S
C114 C113 1.382 . S
C114 H155 0.930 . S
C115 N111 1.328 . S
C115 C112 1.378 . S
C115 H117 0.930 . S
H116 C110 0.931 . S
H117 C115 0.930 . S
C118 O144 1.238 . S
C118 O145 1.253 . S
C119 C120 1.379 . S
C119 N124 1.337 . S
C119 H125 0.929 . S
C120 C119 1.379 . S
C120 C121 1.380 . S
C120 H156 0.929 . S
C121 C120 1.380 . S
C121 C122 1.399 . S
C122 C121 1.399 . S
C122 C123 1.376 . S
C122 H157 0.931 . S
C123 C122 1.376 . S
C123 N124 1.338 . S
C123 H126 0.930 . S
N124 Cd109 2.304 . S
N124 C119 1.337 . S
N124 C123 1.338 . S
H125 C119 0.929 . S
H126 C123 0.930 . S
C127 N128 1.332 . S
C127 C131 1.381 . S
C127 H133 0.931 . S
N128 Cd109 2.334 . S
N128 C127 1.332 . S
N128 C132 1.328 . S
C129 C130 1.396 . S
C129 C132 1.378 . S
C129 H158 0.931 . S
C130 C129 1.396 . S
C130 C131 1.382 . S
C131 C127 1.381 . S
C131 C130 1.382 . S
C131 H159 0.930 . S
C132 N128 1.328 . S
C132 C129 1.378 . S
C132 H134 0.930 . S
H133 C127 0.931 . S
H134 C132 0.930 . S
C135 O146 1.238 . S
C135 O147 1.253 . S
C136 O148 1.239 . S
C136 O149 1.230 . S
N137 Cd108 2.304 . S
N137 C138 1.337 . S
N137 C142 1.338 . S
C138 N137 1.337 . S
C138 C139 1.379 . S
C138 H152 0.929 . S
C139 C138 1.379 . S
C139 C140 1.380 . S
C139 H160 0.929 . S
C140 C139 1.380 . S
C140 C141 1.399 . S
C141 C140 1.399 . S
C141 C142 1.376 . S
C141 H161 0.931 . S
C142 N137 1.338 . S
C142 C141 1.376 . S
C142 H153 0.930 . S
C143 O150 1.239 . S
C143 O151 1.230 . S
O144 Cd108 2.268 . S
O144 C118 1.238 . S
O145 Cd109 2.273 . S
O145 C118 1.253 . S
O146 Cd109 2.268 . S
O146 C135 1.238 . S
O147 Cd108 2.273 . S
O147 C135 1.253 . S
O148 Cd108 2.417 . S
O148 C136 1.239 . S
O149 Cd108 2.330 . S
O149 C136 1.230 . S
O150 Cd109 2.417 . S
O150 C143 1.239 . S
O151 Cd109 2.330 . S
O151 C143 1.230 . S
H152 C138 0.929 . S
H153 C142 0.930 . S
H154 C112 0.931 . S
H155 C114 0.930 . S
H156 C120 0.929 . S
H157 C122 0.931 . S
H158 C129 0.931 . S
H159 C131 0.930 . S
H160 C139 0.929 . S
H161 C141 0.931 . S
Cd162 N165 2.334 . S
Cd162 N191 2.304 . S
Cd162 O198 2.268 . S
Cd162 O201 2.273 . S
Cd162 O202 2.417 1_554 S
Cd162 O203 2.330 1_554 S
Cd163 N178 2.304 . S
Cd163 N182 2.334 . S
Cd163 O199 2.273 . S
Cd163 O200 2.268 . S
Cd163 O204 2.417 . S
Cd163 O205 2.330 . S
C164 N165 1.332 . S
C164 C168 1.381 . S
C164 H170 0.931 . S
N165 Cd162 2.334 . S
N165 C164 1.332 . S
N165 C169 1.328 . S
C166 C167 1.396 . S
C166 C169 1.378 . S
C166 H208 0.931 . S
C167 C166 1.396 . S
C167 C168 1.382 . S
C168 C164 1.381 . S
C168 C167 1.382 . S
C168 H209 0.930 . S
C169 N165 1.328 . S
C169 C166 1.378 . S
C169 H171 0.930 . S
H170 C164 0.931 . S
H171 C169 0.930 . S
C172 O198 1.238 . S
C172 O199 1.253 . S
C173 C174 1.379 . S
C173 N178 1.337 . S
C173 H179 0.929 . S
C174 C173 1.379 . S
C174 C175 1.380 . S
C174 H210 0.929 . S
C175 C174 1.380 . S
C175 C176 1.399 . S
C176 C175 1.399 . S
C176 C177 1.376 . S
C176 H211 0.931 . S
C177 C176 1.376 . S
C177 N178 1.338 . S
C177 H180 0.930 . S
N178 Cd163 2.304 . S
N178 C173 1.337 . S
N178 C177 1.338 . S
H179 C173 0.929 . S
H180 C177 0.930 . S
C181 N182 1.332 . S
C181 C185 1.381 . S
C181 H187 0.931 . S
N182 Cd163 2.334 . S
N182 C181 1.332 . S
N182 C186 1.328 . S
C183 C184 1.396 . S
C183 C186 1.378 . S
C183 H212 0.931 . S
C184 C183 1.396 . S
C184 C185 1.382 . S
C185 C181 1.381 . S
C185 C184 1.382 . S
C185 H213 0.930 . S
C186 N182 1.328 . S
C186 C183 1.378 . S
C186 H188 0.930 . S
H187 C181 0.931 . S
H188 C186 0.930 . S
C189 O200 1.238 . S
C189 O201 1.253 . S
C190 O202 1.239 . S
C190 O203 1.230 . S
N191 Cd162 2.304 . S
N191 C192 1.337 . S
N191 C196 1.338 1_554 S
C192 N191 1.337 . S
C192 C193 1.379 . S
C192 H206 0.929 . S
C193 C192 1.379 . S
C193 C194 1.380 1_554 S
C193 H214 0.929 . S
C194 C193 1.380 1_556 S
C194 C195 1.399 . S
C195 C194 1.399 . S
C195 C196 1.376 . S
C195 H215 0.931 . S
C196 N191 1.338 1_556 S
C196 C195 1.376 . S
C196 H207 0.930 . S
C197 O204 1.239 . S
C197 O205 1.230 . S
O198 Cd162 2.268 . S
O198 C172 1.238 . S
O199 Cd163 2.273 . S
O199 C172 1.253 . S
O200 Cd163 2.268 . S
O200 C189 1.238 . S
O201 Cd162 2.273 . S
O201 C189 1.253 . S
O202 Cd162 2.417 1_556 S
O202 C190 1.239 . S
O203 Cd162 2.330 1_556 S
O203 C190 1.230 . S
O204 Cd163 2.417 . S
O204 C197 1.239 . S
O205 Cd163 2.330 . S
O205 C197 1.230 . S
H206 C192 0.929 . S
H207 C196 0.930 . S
H208 C166 0.931 . S
H209 C168 0.930 . S
H210 C174 0.929 . S
H211 C176 0.931 . S
H212 C183 0.931 . S
H213 C185 0.930 . S
H214 C193 0.929 . S
H215 C195 0.931 . S
Cd216 N219 2.334 . S
Cd216 N245 2.304 . S
Cd216 O252 2.268 . S
Cd216 O255 2.273 . S
Cd216 O256 2.417 . S
Cd216 O257 2.330 . S
Cd217 N232 2.304 . S
Cd217 N236 2.334 . S
Cd217 O253 2.273 . S
Cd217 O254 2.268 . S
Cd217 O258 2.417 . S
Cd217 O259 2.330 . S
C218 N219 1.332 . S
C218 C222 1.381 . S
C218 H224 0.931 . S
N219 Cd216 2.334 . S
N219 C218 1.332 . S
N219 C223 1.328 . S
C220 C221 1.396 . S
C220 C223 1.378 . S
C220 H262 0.931 . S
C221 C220 1.396 . S
C221 C222 1.382 . S
C222 C218 1.381 . S
C222 C221 1.382 . S
C222 H263 0.930 . S
C223 N219 1.328 . S
C223 C220 1.378 . S
C223 H225 0.930 . S
H224 C218 0.931 . S
H225 C223 0.930 . S
C226 O252 1.238 . S
C226 O253 1.253 . S
C227 C228 1.379 . S
C227 N232 1.337 . S
C227 H233 0.929 . S
C228 C227 1.379 . S
C228 C229 1.380 . S
C228 H264 0.929 . S
C229 C228 1.380 . S
C229 C230 1.399 . S
C230 C229 1.399 . S
C230 C231 1.376 . S
C230 H265 0.931 . S
C231 C230 1.376 . S
C231 N232 1.338 . S
C231 H234 0.930 . S
N232 Cd217 2.304 . S
N232 C227 1.337 . S
N232 C231 1.338 . S
H233 C227 0.929 . S
H234 C231 0.930 . S
C235 N236 1.332 . S
C235 C239 1.381 . S
C235 H241 0.931 . S
N236 Cd217 2.334 . S
N236 C235 1.332 . S
N236 C240 1.328 . S
C237 C238 1.396 . S
C237 C240 1.378 . S
C237 H266 0.931 . S
C238 C237 1.396 . S
C238 C239 1.382 . S
C239 C235 1.381 . S
C239 C238 1.382 . S
C239 H267 0.930 . S
C240 N236 1.328 . S
C240 C237 1.378 . S
C240 H242 0.930 . S
H241 C235 0.931 . S
H242 C240 0.930 . S
C243 O254 1.238 . S
C243 O255 1.253 . S
C244 O256 1.239 . S
C244 O257 1.230 . S
N245 Cd216 2.304 . S
N245 C246 1.337 . S
N245 C250 1.338 . S
C246 N245 1.337 . S
C246 C247 1.379 . S
C246 H260 0.929 . S
C247 C246 1.379 . S
C247 C248 1.380 . S
C247 H268 0.929 . S
C248 C247 1.380 . S
C248 C249 1.399 . S
C249 C248 1.399 . S
C249 C250 1.376 . S
C249 H269 0.931 . S
C250 N245 1.338 . S
C250 C249 1.376 . S
C250 H261 0.930 . S
C251 O258 1.239 . S
C251 O259 1.230 . S
O252 Cd216 2.268 . S
O252 C226 1.238 . S
O253 Cd217 2.273 . S
O253 C226 1.253 . S
O254 Cd217 2.268 . S
O254 C243 1.238 . S
O255 Cd216 2.273 . S
O255 C243 1.253 . S
O256 Cd216 2.417 . S
O256 C244 1.239 . S
O257 Cd216 2.330 . S
O257 C244 1.230 . S
O258 Cd217 2.417 . S
O258 C251 1.239 . S
O259 Cd217 2.330 . S
O259 C251 1.230 . S
H260 C246 0.929 . S
H261 C250 0.930 . S
H262 C220 0.931 . S
H263 C222 0.930 . S
H264 C228 0.929 . S
H265 C230 0.931 . S
H266 C237 0.931 . S
H267 C239 0.930 . S
H268 C247 0.929 . S
H269 C249 0.931 . S
Cd270 N273 2.334 . S
Cd270 N299 2.304 . S
Cd270 O306 2.268 . S
Cd270 O309 2.273 . S
Cd270 O310 2.417 . S
Cd270 O311 2.330 . S
Cd271 N286 2.304 . S
Cd271 N290 2.334 . S
Cd271 O307 2.273 . S
Cd271 O308 2.268 . S
Cd271 O312 2.417 1_455 S
Cd271 O313 2.330 1_455 S
C272 N273 1.332 . S
C272 C276 1.381 . S
C272 H278 0.931 . S
N273 Cd270 2.334 . S
N273 C272 1.332 . S
N273 C277 1.328 . S
C274 C275 1.396 . S
C274 C277 1.378 . S
C274 H316 0.931 . S
C275 C274 1.396 . S
C275 C276 1.382 . S
C276 C272 1.381 . S
C276 C275 1.382 . S
C276 H317 0.930 . S
C277 N273 1.328 . S
C277 C274 1.378 . S
C277 H279 0.930 . S
H278 C272 0.931 . S
H279 C277 0.930 . S
C280 O306 1.238 . S
C280 O307 1.253 . S
C281 C282 1.379 . S
C281 N286 1.337 . S
C281 H287 0.929 . S
C282 C281 1.379 . S
C282 C283 1.380 1_455 S
C282 H318 0.929 . S
C283 C282 1.380 1_655 S
C283 C284 1.399 . S
C284 C283 1.399 . S
C284 C285 1.376 . S
C284 H319 0.931 . S
C285 C284 1.376 . S
C285 N286 1.338 1_655 S
C285 H288 0.930 . S
N286 Cd271 2.304 . S
N286 C281 1.337 . S
N286 C285 1.338 1_455 S
H287 C281 0.929 . S
H288 C285 0.930 . S
C289 N290 1.332 . S
C289 C293 1.381 . S
C289 H295 0.931 . S
N290 Cd271 2.334 . S
N290 C289 1.332 . S
N290 C294 1.328 . S
C291 C292 1.396 . S
C291 C294 1.378 . S
C291 H320 0.931 . S
C292 C291 1.396 . S
C292 C293 1.382 . S
C293 C289 1.381 . S
C293 C292 1.382 . S
C293 H321 0.930 . S
C294 N290 1.328 . S
C294 C291 1.378 . S
C294 H296 0.930 . S
H295 C289 0.931 . S
H296 C294 0.930 . S
C297 O308 1.238 . S
C297 O309 1.253 . S
C298 O310 1.239 . S
C298 O311 1.230 . S
N299 Cd270 2.304 . S
N299 C300 1.337 . S
N299 C304 1.338 . S
C300 N299 1.337 . S
C300 C301 1.379 . S
C300 H314 0.929 . S
C301 C300 1.379 . S
C301 C302 1.380 . S
C301 H322 0.929 . S
C302 C301 1.380 . S
C302 C303 1.399 . S
C303 C302 1.399 . S
C303 C304 1.376 . S
C303 H323 0.931 . S
C304 N299 1.338 . S
C304 C303 1.376 . S
C304 H315 0.930 . S
C305 O312 1.239 . S
C305 O313 1.230 . S
O306 Cd270 2.268 . S
O306 C280 1.238 . S
O307 Cd271 2.273 . S
O307 C280 1.253 . S
O308 Cd271 2.268 . S
O308 C297 1.238 . S
O309 Cd270 2.273 . S
O309 C297 1.253 . S
O310 Cd270 2.417 . S
O310 C298 1.239 . S
O311 Cd270 2.330 . S
O311 C298 1.230 . S
O312 Cd271 2.417 1_655 S
O312 C305 1.239 . S
O313 Cd271 2.330 1_655 S
O313 C305 1.230 . S
H314 C300 0.929 . S
H315 C304 0.930 . S
H316 C274 0.931 . S
H317 C276 0.930 . S
H318 C282 0.929 . S
H319 C284 0.931 . S
H320 C291 0.931 . S
H321 C293 0.930 . S
H322 C301 0.929 . S
H323 C303 0.931 . S
Cd324 N327 2.334 . S
Cd324 N353 2.304 . S
Cd324 O360 2.268 . S
Cd324 O363 2.273 . S
Cd324 O364 2.417 . S
Cd324 O365 2.330 . S
Cd325 N340 2.304 . S
Cd325 N344 2.334 . S
Cd325 O361 2.273 . S
Cd325 O362 2.268 . S
Cd325 O366 2.417 1_655 S
Cd325 O367 2.330 1_655 S
C326 N327 1.332 . S
C326 C330 1.381 . S
C326 H332 0.931 . S
N327 Cd324 2.334 . S
N327 C326 1.332 . S
N327 C331 1.328 . S
C328 C329 1.396 . S
C328 C331 1.378 . S
C328 H370 0.931 . S
C329 C328 1.396 . S
C329 C330 1.382 . S
C330 C326 1.381 . S
C330 C329 1.382 . S
C330 H371 0.930 . S
C331 N327 1.328 . S
C331 C328 1.378 . S
C331 H333 0.930 . S
H332 C326 0.931 . S
H333 C331 0.930 . S
C334 O360 1.238 . S
C334 O361 1.253 . S
C335 C336 1.379 . S
C335 N340 1.337 . S
C335 H341 0.929 . S
C336 C335 1.379 . S
C336 C337 1.380 1_655 S
C336 H372 0.929 . S
C337 C336 1.380 1_455 S
C337 C338 1.399 . S
C338 C337 1.399 . S
C338 C339 1.376 . S
C338 H373 0.931 . S
C339 C338 1.376 . S
C339 N340 1.338 1_455 S
C339 H342 0.930 . S
N340 Cd325 2.304 . S
N340 C335 1.337 . S
N340 C339 1.338 1_655 S
H341 C335 0.929 . S
H342 C339 0.930 . S
C343 N344 1.332 . S
C343 C347 1.381 . S
C343 H349 0.931 . S
N344 Cd325 2.334 . S
N344 C343 1.332 . S
N344 C348 1.328 . S
C345 C346 1.396 . S
C345 C348 1.378 . S
C345 H374 0.931 . S
C346 C345 1.396 . S
C346 C347 1.382 . S
C347 C343 1.381 . S
C347 C346 1.382 . S
C347 H375 0.930 . S
C348 N344 1.328 . S
C348 C345 1.378 . S
C348 H350 0.930 . S
H349 C343 0.931 . S
H350 C348 0.930 . S
C351 O362 1.238 . S
C351 O363 1.253 . S
C352 O364 1.239 . S
C352 O365 1.230 . S
N353 Cd324 2.304 . S
N353 C354 1.337 . S
N353 C358 1.338 . S
C354 N353 1.337 . S
C354 C355 1.379 . S
C354 H368 0.929 . S
C355 C354 1.379 . S
C355 C356 1.380 . S
C355 H376 0.929 . S
C356 C355 1.380 . S
C356 C357 1.399 . S
C357 C356 1.399 . S
C357 C358 1.376 . S
C357 H377 0.931 . S
C358 N353 1.338 . S
C358 C357 1.376 . S
C358 H369 0.930 . S
C359 O366 1.239 . S
C359 O367 1.230 . S
O360 Cd324 2.268 . S
O360 C334 1.238 . S
O361 Cd325 2.273 . S
O361 C334 1.253 . S
O362 Cd325 2.268 . S
O362 C351 1.238 . S
O363 Cd324 2.273 . S
O363 C351 1.253 . S
O364 Cd324 2.417 . S
O364 C352 1.239 . S
O365 Cd324 2.330 . S
O365 C352 1.230 . S
O366 Cd325 2.417 1_455 S
O366 C359 1.239 . S
O367 Cd325 2.330 1_455 S
O367 C359 1.230 . S
H368 C354 0.929 . S
H369 C358 0.930 . S
H370 C328 0.931 . S
H371 C330 0.930 . S
H372 C336 0.929 . S
H373 C338 0.931 . S
H374 C345 0.931 . S
H375 C347 0.930 . S
H376 C355 0.929 . S
H377 C357 0.931 . S
Cd378 N381 2.334 . S
Cd378 N407 2.304 . S
Cd378 O414 2.268 . S
Cd378 O417 2.273 . S
Cd378 O418 2.417 . S
Cd378 O419 2.330 . S
Cd379 N394 2.304 . S
Cd379 N398 2.334 . S
Cd379 O415 2.273 . S
Cd379 O416 2.268 . S
Cd379 O420 2.417 . S
Cd379 O421 2.330 . S
C380 N381 1.332 . S
C380 C384 1.381 . S
C380 H386 0.931 . S
N381 Cd378 2.334 . S
N381 C380 1.332 . S
N381 C385 1.328 . S
C382 C383 1.396 . S
C382 C385 1.378 . S
C382 H424 0.931 . S
C383 C382 1.396 . S
C383 C384 1.382 . S
C384 C380 1.381 . S
C384 C383 1.382 . S
C384 H425 0.930 . S
C385 N381 1.328 . S
C385 C382 1.378 . S
C385 H387 0.930 . S
H386 C380 0.931 . S
H387 C385 0.930 . S
C388 O414 1.238 . S
C388 O415 1.253 . S
C389 C390 1.379 . S
C389 N394 1.337 . S
C389 H395 0.929 . S
C390 C389 1.379 . S
C390 C391 1.380 . S
C390 H426 0.929 . S
C391 C390 1.380 . S
C391 C392 1.399 . S
C392 C391 1.399 . S
C392 C393 1.376 . S
C392 H427 0.931 . S
C393 C392 1.376 . S
C393 N394 1.338 . S
C393 H396 0.930 . S
N394 Cd379 2.304 . S
N394 C389 1.337 . S
N394 C393 1.338 . S
H395 C389 0.929 . S
H396 C393 0.930 . S
C397 N398 1.332 . S
C397 C401 1.381 . S
C397 H403 0.931 . S
N398 Cd379 2.334 . S
N398 C397 1.332 . S
N398 C402 1.328 . S
C399 C400 1.396 . S
C399 C402 1.378 . S
C399 H428 0.931 . S
C400 C399 1.396 . S
C400 C401 1.382 . S
C401 C397 1.381 . S
C401 C400 1.382 . S
C401 H429 0.930 . S
C402 N398 1.328 . S
C402 C399 1.378 . S
C402 H404 0.930 . S
H403 C397 0.931 . S
H404 C402 0.930 . S
C405 O416 1.238 . S
C405 O417 1.253 . S
C406 O418 1.239 . S
C406 O419 1.230 . S
N407 Cd378 2.304 . S
N407 C408 1.337 . S
N407 C412 1.338 . S
C408 N407 1.337 . S
C408 C409 1.379 . S
C408 H422 0.929 . S
C409 C408 1.379 . S
C409 C410 1.380 . S
C409 H430 0.929 . S
C410 C409 1.380 . S
C410 C411 1.399 . S
C411 C410 1.399 . S
C411 C412 1.376 . S
C411 H431 0.931 . S
C412 N407 1.338 . S
C412 C411 1.376 . S
C412 H423 0.930 . S
C413 O420 1.239 . S
C413 O421 1.230 . S
O414 Cd378 2.268 . S
O414 C388 1.238 . S
O415 Cd379 2.273 . S
O415 C388 1.253 . S
O416 Cd379 2.268 . S
O416 C405 1.238 . S
O417 Cd378 2.273 . S
O417 C405 1.253 . S
O418 Cd378 2.417 . S
O418 C406 1.239 . S
O419 Cd378 2.330 . S
O419 C406 1.230 . S
O420 Cd379 2.417 . S
O420 C413 1.239 . S
O421 Cd379 2.330 . S
O421 C413 1.230 . S
H422 C408 0.929 . S
H423 C412 0.930 . S
H424 C382 0.931 . S
H425 C384 0.930 . S
H426 C390 0.929 . S
H427 C392 0.931 . S
H428 C399 0.931 . S
H429 C401 0.930 . S
H430 C409 0.929 . S
H431 C411 0.931 . S
Cd432 N435 2.334 . S
Cd432 N461 2.304 . S
Cd432 O468 2.268 . S
Cd432 O471 2.273 . S
Cd432 O472 2.417 . S
Cd432 O473 2.330 . S
Cd433 N448 2.304 . S
Cd433 N452 2.334 . S
Cd433 O469 2.273 . S
Cd433 O470 2.268 . S
Cd433 O474 2.417 . S
Cd433 O475 2.330 . S
C434 N435 1.332 . S
C434 C438 1.381 . S
C434 H440 0.931 . S
N435 Cd432 2.334 . S
N435 C434 1.332 . S
N435 C439 1.328 . S
C436 C437 1.396 . S
C436 C439 1.378 . S
C436 H478 0.931 . S
C437 C436 1.396 . S
C437 C438 1.382 . S
C438 C434 1.381 . S
C438 C437 1.382 . S
C438 H479 0.930 . S
C439 N435 1.328 . S
C439 C436 1.378 . S
C439 H441 0.930 . S
H440 C434 0.931 . S
H441 C439 0.930 . S
C442 O468 1.238 . S
C442 O469 1.253 . S
C443 C444 1.379 . S
C443 N448 1.337 . S
C443 H449 0.929 . S
C444 C443 1.379 . S
C444 C445 1.380 . S
C444 H480 0.929 . S
C445 C444 1.380 . S
C445 C446 1.399 . S
C446 C445 1.399 . S
C446 C447 1.376 . S
C446 H481 0.931 . S
C447 C446 1.376 . S
C447 N448 1.338 . S
C447 H450 0.930 . S
N448 Cd433 2.304 . S
N448 C443 1.337 . S
N448 C447 1.338 . S
H449 C443 0.929 . S
H450 C447 0.930 . S
C451 N452 1.332 . S
C451 C455 1.381 . S
C451 H457 0.931 . S
N452 Cd433 2.334 . S
N452 C451 1.332 . S
N452 C456 1.328 . S
C453 C454 1.396 . S
C453 C456 1.378 . S
C453 H482 0.931 . S
C454 C453 1.396 . S
C454 C455 1.382 . S
C455 C451 1.381 . S
C455 C454 1.382 . S
C455 H483 0.930 . S
C456 N452 1.328 . S
C456 C453 1.378 . S
C456 H458 0.930 . S
H457 C451 0.931 . S
H458 C456 0.930 . S
C459 O470 1.238 . S
C459 O471 1.253 . S
C460 O472 1.239 . S
C460 O473 1.230 . S
N461 Cd432 2.304 . S
N461 C462 1.337 . S
N461 C466 1.338 . S
C462 N461 1.337 . S
C462 C463 1.379 . S
C462 H476 0.929 . S
C463 C462 1.379 . S
C463 C464 1.380 . S
C463 H484 0.929 . S
C464 C463 1.380 . S
C464 C465 1.399 . S
C465 C464 1.399 . S
C465 C466 1.376 . S
C465 H485 0.931 . S
C466 N461 1.338 . S
C466 C465 1.376 . S
C466 H477 0.930 . S
C467 O474 1.239 . S
C467 O475 1.230 . S
O468 Cd432 2.268 . S
O468 C442 1.238 . S
O469 Cd433 2.273 . S
O469 C442 1.253 . S
O470 Cd433 2.268 . S
O470 C459 1.238 . S
O471 Cd432 2.273 . S
O471 C459 1.253 . S
O472 Cd432 2.417 . S
O472 C460 1.239 . S
O473 Cd432 2.330 . S
O473 C460 1.230 . S
O474 Cd433 2.417 . S
O474 C467 1.239 . S
O475 Cd433 2.330 . S
O475 C467 1.230 . S
H476 C462 0.929 . S
H477 C466 0.930 . S
H478 C436 0.931 . S
H479 C438 0.930 . S
H480 C444 0.929 . S
H481 C446 0.931 . S
H482 C453 0.931 . S
H483 C455 0.930 . S
H484 C463 0.929 . S
H485 C465 0.931 . S
Cd486 N489 2.334 . S
Cd486 N515 2.304 . S
Cd486 O522 2.268 . S
Cd486 O525 2.273 . S
Cd486 O526 2.417 . S
Cd486 O527 2.330 . S
Cd487 N502 2.304 . S
Cd487 N506 2.334 . S
Cd487 O523 2.273 . S
Cd487 O524 2.268 . S
Cd487 O528 2.417 1_545 S
Cd487 O529 2.330 1_545 S
C488 N489 1.332 . S
C488 C492 1.381 . S
C488 H494 0.931 . S
N489 Cd486 2.334 . S
N489 C488 1.332 . S
N489 C493 1.328 . S
C490 C491 1.396 . S
C490 C493 1.378 . S
C490 H532 0.931 . S
C491 C490 1.396 . S
C491 C492 1.382 . S
C492 C488 1.381 . S
C492 C491 1.382 . S
C492 H533 0.930 . S
C493 N489 1.328 . S
C493 C490 1.378 . S
C493 H495 0.930 . S
H494 C488 0.931 . S
H495 C493 0.930 . S
C496 O522 1.238 . S
C496 O523 1.253 . S
C497 C498 1.379 . S
C497 N502 1.337 . S
C497 H503 0.929 . S
C498 C497 1.379 . S
C498 C499 1.380 1_545 S
C498 H534 0.929 . S
C499 C498 1.380 1_565 S
C499 C500 1.399 . S
C500 C499 1.399 . S
C500 C501 1.376 . S
C500 H535 0.931 . S
C501 C500 1.376 . S
C501 N502 1.338 1_565 S
C501 H504 0.930 . S
N502 Cd487 2.304 . S
N502 C497 1.337 . S
N502 C501 1.338 1_545 S
H503 C497 0.929 . S
H504 C501 0.930 . S
C505 N506 1.332 . S
C505 C509 1.381 . S
C505 H511 0.931 . S
N506 Cd487 2.334 . S
N506 C505 1.332 . S
N506 C510 1.328 . S
C507 C508 1.396 . S
C507 C510 1.378 . S
C507 H536 0.931 . S
C508 C507 1.396 . S
C508 C509 1.382 . S
C509 C505 1.381 . S
C509 C508 1.382 . S
C509 H537 0.930 . S
C510 N506 1.328 . S
C510 C507 1.378 . S
C510 H512 0.930 . S
H511 C505 0.931 . S
H512 C510 0.930 . S
C513 O524 1.238 . S
C513 O525 1.253 . S
C514 O526 1.239 . S
C514 O527 1.230 . S
N515 Cd486 2.304 . S
N515 C516 1.337 . S
N515 C520 1.338 . S
C516 N515 1.337 . S
C516 C517 1.379 . S
C516 H530 0.929 . S
C517 C516 1.379 . S
C517 C518 1.380 . S
C517 H538 0.929 . S
C518 C517 1.380 . S
C518 C519 1.399 . S
C519 C518 1.399 . S
C519 C520 1.376 . S
C519 H539 0.931 . S
C520 N515 1.338 . S
C520 C519 1.376 . S
C520 H531 0.930 . S
C521 O528 1.239 . S
C521 O529 1.230 . S
O522 Cd486 2.268 . S
O522 C496 1.238 . S
O523 Cd487 2.273 . S
O523 C496 1.253 . S
O524 Cd487 2.268 . S
O524 C513 1.238 . S
O525 Cd486 2.273 . S
O525 C513 1.253 . S
O526 Cd486 2.417 . S
O526 C514 1.239 . S
O527 Cd486 2.330 . S
O527 C514 1.230 . S
O528 Cd487 2.417 1_565 S
O528 C521 1.239 . S
O529 Cd487 2.330 1_565 S
O529 C521 1.230 . S
H530 C516 0.929 . S
H531 C520 0.930 . S
H532 C490 0.931 . S
H533 C492 0.930 . S
H534 C498 0.929 . S
H535 C500 0.931 . S
H536 C507 0.931 . S
H537 C509 0.930 . S
H538 C517 0.929 . S
H539 C519 0.931 . S
Cd540 N543 2.334 . S
Cd540 N569 2.304 . S
Cd540 O576 2.268 . S
Cd540 O579 2.273 . S
Cd540 O580 2.417 1_565 S
Cd540 O581 2.330 1_565 S
Cd541 N556 2.304 . S
Cd541 N560 2.334 . S
Cd541 O577 2.273 . S
Cd541 O578 2.268 . S
Cd541 O582 2.417 . S
Cd541 O583 2.330 . S
C542 N543 1.332 . S
C542 C546 1.381 . S
C542 H548 0.931 . S
N543 Cd540 2.334 . S
N543 C542 1.332 . S
N543 C547 1.328 . S
C544 C545 1.396 . S
C544 C547 1.378 . S
C544 H586 0.931 . S
C545 C544 1.396 . S
C545 C546 1.382 . S
C546 C542 1.381 . S
C546 C545 1.382 . S
C546 H587 0.930 . S
C547 N543 1.328 . S
C547 C544 1.378 . S
C547 H549 0.930 . S
H548 C542 0.931 . S
H549 C547 0.930 . S
C550 O576 1.238 . S
C550 O577 1.253 . S
C551 C552 1.379 . S
C551 N556 1.337 . S
C551 H557 0.929 . S
C552 C551 1.379 . S
C552 C553 1.380 . S
C552 H588 0.929 . S
C553 C552 1.380 . S
C553 C554 1.399 . S
C554 C553 1.399 . S
C554 C555 1.376 . S
C554 H589 0.931 . S
C555 C554 1.376 . S
C555 N556 1.338 . S
C555 H558 0.930 . S
N556 Cd541 2.304 . S
N556 C551 1.337 . S
N556 C555 1.338 . S
H557 C551 0.929 . S
H558 C555 0.930 . S
C559 N560 1.332 . S
C559 C563 1.381 . S
C559 H565 0.931 . S
N560 Cd541 2.334 . S
N560 C559 1.332 . S
N560 C564 1.328 . S
C561 C562 1.396 . S
C561 C564 1.378 . S
C561 H590 0.931 . S
C562 C561 1.396 . S
C562 C563 1.382 . S
C563 C559 1.381 . S
C563 C562 1.382 . S
C563 H591 0.930 . S
C564 N560 1.328 . S
C564 C561 1.378 . S
C564 H566 0.930 . S
H565 C559 0.931 . S
H566 C564 0.930 . S
C567 O578 1.238 . S
C567 O579 1.253 . S
C568 O580 1.239 . S
C568 O581 1.230 . S
N569 Cd540 2.304 . S
N569 C570 1.337 . S
N569 C574 1.338 1_565 S
C570 N569 1.337 . S
C570 C571 1.379 . S
C570 H584 0.929 . S
C571 C570 1.379 . S
C571 C572 1.380 1_565 S
C571 H592 0.929 . S
C572 C571 1.380 1_545 S
C572 C573 1.399 . S
C573 C572 1.399 . S
C573 C574 1.376 . S
C573 H593 0.931 . S
C574 N569 1.338 1_545 S
C574 C573 1.376 . S
C574 H585 0.930 . S
C575 O582 1.239 . S
C575 O583 1.230 . S
O576 Cd540 2.268 . S
O576 C550 1.238 . S
O577 Cd541 2.273 . S
O577 C550 1.253 . S
O578 Cd541 2.268 . S
O578 C567 1.238 . S
O579 Cd540 2.273 . S
O579 C567 1.253 . S
O580 Cd540 2.417 1_545 S
O580 C568 1.239 . S
O581 Cd540 2.330 1_545 S
O581 C568 1.230 . S
O582 Cd541 2.417 . S
O582 C575 1.239 . S
O583 Cd541 2.330 . S
O583 C575 1.230 . S
H584 C570 0.929 . S
H585 C574 0.930 . S
H586 C544 0.931 . S
H587 C546 0.930 . S
H588 C552 0.929 . S
H589 C554 0.931 . S
H590 C561 0.931 . S
H591 C563 0.930 . S
H592 C571 0.929 . S
H593 C573 0.931 . S
Cd594 N597 2.334 . S
Cd594 N623 2.304 . S
Cd594 O630 2.268 . S
Cd594 O633 2.273 . S
Cd594 O634 2.417 . S
Cd594 O635 2.330 . S
Cd595 N610 2.304 . S
Cd595 N614 2.334 . S
Cd595 O631 2.273 . S
Cd595 O632 2.268 . S
Cd595 O636 2.417 . S
Cd595 O637 2.330 . S
C596 N597 1.332 . S
C596 C600 1.381 . S
C596 H602 0.931 . S
N597 Cd594 2.334 . S
N597 C596 1.332 . S
N597 C601 1.328 . S
C598 C599 1.396 . S
C598 C601 1.378 . S
C598 H640 0.931 . S
C599 C598 1.396 . S
C599 C600 1.382 . S
C600 C596 1.381 . S
C600 C599 1.382 . S
C600 H641 0.930 . S
C601 N597 1.328 . S
C601 C598 1.378 . S
C601 H603 0.930 . S
H602 C596 0.931 . S
H603 C601 0.930 . S
C604 O630 1.238 . S
C604 O631 1.253 . S
C605 C606 1.379 . S
C605 N610 1.337 . S
C605 H611 0.929 . S
C606 C605 1.379 . S
C606 C607 1.380 . S
C606 H642 0.929 . S
C607 C606 1.380 . S
C607 C608 1.399 . S
C608 C607 1.399 . S
C608 C609 1.376 . S
C608 H643 0.931 . S
C609 C608 1.376 . S
C609 N610 1.338 . S
C609 H612 0.930 . S
N610 Cd595 2.304 . S
N610 C605 1.337 . S
N610 C609 1.338 . S
H611 C605 0.929 . S
H612 C609 0.930 . S
C613 N614 1.332 . S
C613 C617 1.381 . S
C613 H619 0.931 . S
N614 Cd595 2.334 . S
N614 C613 1.332 . S
N614 C618 1.328 . S
C615 C616 1.396 . S
C615 C618 1.378 . S
C615 H644 0.931 . S
C616 C615 1.396 . S
C616 C617 1.382 . S
C617 C613 1.381 . S
C617 C616 1.382 . S
C617 H645 0.930 . S
C618 N614 1.328 . S
C618 C615 1.378 . S
C618 H620 0.930 . S
H619 C613 0.931 . S
H620 C618 0.930 . S
C621 O632 1.238 . S
C621 O633 1.253 . S
C622 O634 1.239 . S
C622 O635 1.230 . S
N623 Cd594 2.304 . S
N623 C624 1.337 . S
N623 C628 1.338 . S
C624 N623 1.337 . S
C624 C625 1.379 . S
C624 H638 0.929 . S
C625 C624 1.379 . S
C625 C626 1.380 . S
C625 H646 0.929 . S
C626 C625 1.380 . S
C626 C627 1.399 . S
C627 C626 1.399 . S
C627 C628 1.376 . S
C627 H647 0.931 . S
C628 N623 1.338 . S
C628 C627 1.376 . S
C628 H639 0.930 . S
C629 O636 1.239 . S
C629 O637 1.230 . S
O630 Cd594 2.268 . S
O630 C604 1.238 . S
O631 Cd595 2.273 . S
O631 C604 1.253 . S
O632 Cd595 2.268 . S
O632 C621 1.238 . S
O633 Cd594 2.273 . S
O633 C621 1.253 . S
O634 Cd594 2.417 . S
O634 C622 1.239 . S
O635 Cd594 2.330 . S
O635 C622 1.230 . S
O636 Cd595 2.417 . S
O636 C629 1.239 . S
O637 Cd595 2.330 . S
O637 C629 1.230 . S
H638 C624 0.929 . S
H639 C628 0.930 . S
H640 C598 0.931 . S
H641 C600 0.930 . S
H642 C606 0.929 . S
H643 C608 0.931 . S
H644 C615 0.931 . S
H645 C617 0.930 . S
H646 C625 0.929 . S
H647 C627 0.931 . S
Cd648 N651 2.334 . S
Cd648 N677 2.304 . S
Cd648 O684 2.268 . S
Cd648 O687 2.273 . S
Cd648 O688 2.417 . S
Cd648 O689 2.330 . S
Cd649 N664 2.304 . S
Cd649 N668 2.334 . S
Cd649 O685 2.273 . S
Cd649 O686 2.268 . S
Cd649 O690 2.417 . S
Cd649 O691 2.330 . S
C650 N651 1.332 . S
C650 C654 1.381 . S
C650 H656 0.931 . S
N651 Cd648 2.334 . S
N651 C650 1.332 . S
N651 C655 1.328 . S
C652 C653 1.396 . S
C652 C655 1.378 . S
C652 H694 0.931 . S
C653 C652 1.396 . S
C653 C654 1.382 . S
C654 C650 1.381 . S
C654 C653 1.382 . S
C654 H695 0.930 . S
C655 N651 1.328 . S
C655 C652 1.378 . S
C655 H657 0.930 . S
H656 C650 0.931 . S
H657 C655 0.930 . S
C658 O684 1.238 . S
C658 O685 1.253 . S
C659 C660 1.379 . S
C659 N664 1.337 . S
C659 H665 0.929 . S
C660 C659 1.379 . S
C660 C661 1.380 . S
C660 H696 0.929 . S
C661 C660 1.380 . S
C661 C662 1.399 . S
C662 C661 1.399 . S
C662 C663 1.376 . S
C662 H697 0.931 . S
C663 C662 1.376 . S
C663 N664 1.338 . S
C663 H666 0.930 . S
N664 Cd649 2.304 . S
N664 C659 1.337 . S
N664 C663 1.338 . S
H665 C659 0.929 . S
H666 C663 0.930 . S
C667 N668 1.332 . S
C667 C671 1.381 . S
C667 H673 0.931 . S
N668 Cd649 2.334 . S
N668 C667 1.332 . S
N668 C672 1.328 . S
C669 C670 1.396 . S
C669 C672 1.378 . S
C669 H698 0.931 . S
C670 C669 1.396 . S
C670 C671 1.382 . S
C671 C667 1.381 . S
C671 C670 1.382 . S
C671 H699 0.930 . S
C672 N668 1.328 . S
C672 C669 1.378 . S
C672 H674 0.930 . S
H673 C667 0.931 . S
H674 C672 0.930 . S
C675 O686 1.238 . S
C675 O687 1.253 . S
C676 O688 1.239 . S
C676 O689 1.230 . S
N677 Cd648 2.304 . S
N677 C678 1.337 . S
N677 C682 1.338 . S
C678 N677 1.337 . S
C678 C679 1.379 . S
C678 H692 0.929 . S
C679 C678 1.379 . S
C679 C680 1.380 . S
C679 H700 0.929 . S
C680 C679 1.380 . S
C680 C681 1.399 . S
C681 C680 1.399 . S
C681 C682 1.376 . S
C681 H701 0.931 . S
C682 N677 1.338 . S
C682 C681 1.376 . S
C682 H693 0.930 . S
C683 O690 1.239 . S
C683 O691 1.230 . S
O684 Cd648 2.268 . S
O684 C658 1.238 . S
O685 Cd649 2.273 . S
O685 C658 1.253 . S
O686 Cd649 2.268 . S
O686 C675 1.238 . S
O687 Cd648 2.273 . S
O687 C675 1.253 . S
O688 Cd648 2.417 . S
O688 C676 1.239 . S
O689 Cd648 2.330 . S
O689 C676 1.230 . S
O690 Cd649 2.417 . S
O690 C683 1.239 . S
O691 Cd649 2.330 . S
O691 C683 1.230 . S
H692 C678 0.929 . S
H693 C682 0.930 . S
H694 C652 0.931 . S
H695 C654 0.930 . S
H696 C660 0.929 . S
H697 C662 0.931 . S
H698 C669 0.931 . S
H699 C671 0.930 . S
H700 C679 0.929 . S
H701 C681 0.931 . S
Cd702 N705 2.334 . S
Cd702 N731 2.304 . S
Cd702 O738 2.268 . S
Cd702 O741 2.273 . S
Cd702 O742 2.417 1_554 S
Cd702 O743 2.330 1_554 S
Cd703 N718 2.304 . S
Cd703 N722 2.334 . S
Cd703 O739 2.273 . S
Cd703 O740 2.268 . S
Cd703 O744 2.417 . S
Cd703 O745 2.330 . S
C704 N705 1.332 . S
C704 C708 1.381 . S
C704 H710 0.931 . S
N705 Cd702 2.334 . S
N705 C704 1.332 . S
N705 C709 1.328 . S
C706 C707 1.396 . S
C706 C709 1.378 . S
C706 H748 0.931 . S
C707 C706 1.396 . S
C707 C708 1.382 . S
C708 C704 1.381 . S
C708 C707 1.382 . S
C708 H749 0.930 . S
C709 N705 1.328 . S
C709 C706 1.378 . S
C709 H711 0.930 . S
H710 C704 0.931 . S
H711 C709 0.930 . S
C712 O738 1.238 . S
C712 O739 1.253 . S
C713 C714 1.379 . S
C713 N718 1.337 . S
C713 H719 0.929 . S
C714 C713 1.379 . S
C714 C715 1.380 . S
C714 H750 0.929 . S
C715 C714 1.380 . S
C715 C716 1.399 . S
C716 C715 1.399 . S
C716 C717 1.376 . S
C716 H751 0.931 . S
C717 C716 1.376 . S
C717 N718 1.338 . S
C717 H720 0.930 . S
N718 Cd703 2.304 . S
N718 C713 1.337 . S
N718 C717 1.338 . S
H719 C713 0.929 . S
H720 C717 0.930 . S
C721 N722 1.332 . S
C721 C725 1.381 . S
C721 H727 0.931 . S
N722 Cd703 2.334 . S
N722 C721 1.332 . S
N722 C726 1.328 . S
C723 C724 1.396 . S
C723 C726 1.378 . S
C723 H752 0.931 . S
C724 C723 1.396 . S
C724 C725 1.382 . S
C725 C721 1.381 . S
C725 C724 1.382 . S
C725 H753 0.930 . S
C726 N722 1.328 . S
C726 C723 1.378 . S
C726 H728 0.930 . S
H727 C721 0.931 . S
H728 C726 0.930 . S
C729 O740 1.238 . S
C729 O741 1.253 . S
C730 O742 1.239 . S
C730 O743 1.230 . S
N731 Cd702 2.304 . S
N731 C732 1.337 . S
N731 C736 1.338 1_554 S
C732 N731 1.337 . S
C732 C733 1.379 . S
C732 H746 0.929 . S
C733 C732 1.379 . S
C733 C734 1.380 1_554 S
C733 H754 0.929 . S
C734 C733 1.380 1_556 S
C734 C735 1.399 . S
C735 C734 1.399 . S
C735 C736 1.376 . S
C735 H755 0.931 . S
C736 N731 1.338 1_556 S
C736 C735 1.376 . S
C736 H747 0.930 . S
C737 O744 1.239 . S
C737 O745 1.230 . S
O738 Cd702 2.268 . S
O738 C712 1.238 . S
O739 Cd703 2.273 . S
O739 C712 1.253 . S
O740 Cd703 2.268 . S
O740 C729 1.238 . S
O741 Cd702 2.273 . S
O741 C729 1.253 . S
O742 Cd702 2.417 1_556 S
O742 C730 1.239 . S
O743 Cd702 2.330 1_556 S
O743 C730 1.230 . S
O744 Cd703 2.417 . S
O744 C737 1.239 . S
O745 Cd703 2.330 . S
O745 C737 1.230 . S
H746 C732 0.929 . S
H747 C736 0.930 . S
H748 C706 0.931 . S
H749 C708 0.930 . S
H750 C714 0.929 . S
H751 C716 0.931 . S
H752 C723 0.931 . S
H753 C725 0.930 . S
H754 C733 0.929 . S
H755 C735 0.931 . S
Cd756 N759 2.334 . S
Cd756 N785 2.304 . S
Cd756 O792 2.268 . S
Cd756 O795 2.273 . S
Cd756 O796 2.417 . S
Cd756 O797 2.330 . S
Cd757 N772 2.304 . S
Cd757 N776 2.334 . S
Cd757 O793 2.273 . S
Cd757 O794 2.268 . S
Cd757 O798 2.417 . S
Cd757 O799 2.330 . S
C758 N759 1.332 . S
C758 C762 1.381 . S
C758 H764 0.931 . S
N759 Cd756 2.334 . S
N759 C758 1.332 . S
N759 C763 1.328 . S
C760 C761 1.396 . S
C760 C763 1.378 . S
C760 H802 0.931 . S
C761 C760 1.396 . S
C761 C762 1.382 . S
C762 C758 1.381 . S
C762 C761 1.382 . S
C762 H803 0.930 . S
C763 N759 1.328 . S
C763 C760 1.378 . S
C763 H765 0.930 . S
H764 C758 0.931 . S
H765 C763 0.930 . S
C766 O792 1.238 . S
C766 O793 1.253 . S
C767 C768 1.379 . S
C767 N772 1.337 . S
C767 H773 0.929 . S
C768 C767 1.379 . S
C768 C769 1.380 . S
C768 H804 0.929 . S
C769 C768 1.380 . S
C769 C770 1.399 . S
C770 C769 1.399 . S
C770 C771 1.376 . S
C770 H805 0.931 . S
C771 C770 1.376 . S
C771 N772 1.338 . S
C771 H774 0.930 . S
N772 Cd757 2.304 . S
N772 C767 1.337 . S
N772 C771 1.338 . S
H773 C767 0.929 . S
H774 C771 0.930 . S
C775 N776 1.332 . S
C775 C779 1.381 . S
C775 H781 0.931 . S
N776 Cd757 2.334 . S
N776 C775 1.332 . S
N776 C780 1.328 . S
C777 C778 1.396 . S
C777 C780 1.378 . S
C777 H806 0.931 . S
C778 C777 1.396 . S
C778 C779 1.382 . S
C779 C775 1.381 . S
C779 C778 1.382 . S
C779 H807 0.930 . S
C780 N776 1.328 . S
C780 C777 1.378 . S
C780 H782 0.930 . S
H781 C775 0.931 . S
H782 C780 0.930 . S
C783 O794 1.238 . S
C783 O795 1.253 . S
C784 O796 1.239 . S
C784 O797 1.230 . S
N785 Cd756 2.304 . S
N785 C786 1.337 . S
N785 C790 1.338 . S
C786 N785 1.337 . S
C786 C787 1.379 . S
C786 H800 0.929 . S
C787 C786 1.379 . S
C787 C788 1.380 . S
C787 H808 0.929 . S
C788 C787 1.380 . S
C788 C789 1.399 . S
C789 C788 1.399 . S
C789 C790 1.376 . S
C789 H809 0.931 . S
C790 N785 1.338 . S
C790 C789 1.376 . S
C790 H801 0.930 . S
C791 O798 1.239 . S
C791 O799 1.230 . S
O792 Cd756 2.268 . S
O792 C766 1.238 . S
O793 Cd757 2.273 . S
O793 C766 1.253 . S
O794 Cd757 2.268 . S
O794 C783 1.238 . S
O795 Cd756 2.273 . S
O795 C783 1.253 . S
O796 Cd756 2.417 . S
O796 C784 1.239 . S
O797 Cd756 2.330 . S
O797 C784 1.230 . S
O798 Cd757 2.417 . S
O798 C791 1.239 . S
O799 Cd757 2.330 . S
O799 C791 1.230 . S
H800 C786 0.929 . S
H801 C790 0.930 . S
H802 C760 0.931 . S
H803 C762 0.930 . S
H804 C768 0.929 . S
H805 C770 0.931 . S
H806 C777 0.931 . S
H807 C779 0.930 . S
H808 C787 0.929 . S
H809 C789 0.931 . S
Cd810 N813 2.334 . S
Cd810 N839 2.304 . S
Cd810 O846 2.268 . S
Cd810 O849 2.273 . S
Cd810 O850 2.417 1_556 S
Cd810 O851 2.330 1_556 S
Cd811 N826 2.304 . S
Cd811 N830 2.334 . S
Cd811 O847 2.273 . S
Cd811 O848 2.268 . S
Cd811 O852 2.417 . S
Cd811 O853 2.330 . S
C812 N813 1.332 . S
C812 C816 1.381 . S
C812 H818 0.931 . S
N813 Cd810 2.334 . S
N813 C812 1.332 . S
N813 C817 1.328 . S
C814 C815 1.396 . S
C814 C817 1.378 . S
C814 H856 0.931 . S
C815 C814 1.396 . S
C815 C816 1.382 . S
C816 C812 1.381 . S
C816 C815 1.382 . S
C816 H857 0.930 . S
C817 N813 1.328 . S
C817 C814 1.378 . S
C817 H819 0.930 . S
H818 C812 0.931 . S
H819 C817 0.930 . S
C820 O846 1.238 . S
C820 O847 1.253 . S
C821 C822 1.379 . S
C821 N826 1.337 . S
C821 H827 0.929 . S
C822 C821 1.379 . S
C822 C823 1.380 . S
C822 H858 0.929 . S
C823 C822 1.380 . S
C823 C824 1.399 . S
C824 C823 1.399 . S
C824 C825 1.376 . S
C824 H859 0.931 . S
C825 C824 1.376 . S
C825 N826 1.338 . S
C825 H828 0.930 . S
N826 Cd811 2.304 . S
N826 C821 1.337 . S
N826 C825 1.338 . S
H827 C821 0.929 . S
H828 C825 0.930 . S
C829 N830 1.332 . S
C829 C833 1.381 . S
C829 H835 0.931 . S
N830 Cd811 2.334 . S
N830 C829 1.332 . S
N830 C834 1.328 . S
C831 C832 1.396 . S
C831 C834 1.378 . S
C831 H860 0.931 . S
C832 C831 1.396 . S
C832 C833 1.382 . S
C833 C829 1.381 . S
C833 C832 1.382 . S
C833 H861 0.930 . S
C834 N830 1.328 . S
C834 C831 1.378 . S
C834 H836 0.930 . S
H835 C829 0.931 . S
H836 C834 0.930 . S
C837 O848 1.238 . S
C837 O849 1.253 . S
C838 O850 1.239 . S
C838 O851 1.230 . S
N839 Cd810 2.304 . S
N839 C840 1.337 . S
N839 C844 1.338 1_556 S
C840 N839 1.337 . S
C840 C841 1.379 . S
C840 H854 0.929 . S
C841 C840 1.379 . S
C841 C842 1.380 1_556 S
C841 H862 0.929 . S
C842 C841 1.380 1_554 S
C842 C843 1.399 . S
C843 C842 1.399 . S
C843 C844 1.376 . S
C843 H863 0.931 . S
C844 N839 1.338 1_554 S
C844 C843 1.376 . S
C844 H855 0.930 . S
C845 O852 1.239 . S
C845 O853 1.230 . S
O846 Cd810 2.268 . S
O846 C820 1.238 . S
O847 Cd811 2.273 . S
O847 C820 1.253 . S
O848 Cd811 2.268 . S
O848 C837 1.238 . S
O849 Cd810 2.273 . S
O849 C837 1.253 . S
O850 Cd810 2.417 1_554 S
O850 C838 1.239 . S
O851 Cd810 2.330 1_554 S
O851 C838 1.230 . S
O852 Cd811 2.417 . S
O852 C845 1.239 . S
O853 Cd811 2.330 . S
O853 C845 1.230 . S
H854 C840 0.929 . S
H855 C844 0.930 . S
H856 C814 0.931 . S
H857 C816 0.930 . S
H858 C822 0.929 . S
H859 C824 0.931 . S
H860 C831 0.931 . S
H861 C833 0.930 . S
H862 C841 0.929 . S
H863 C843 0.931 . S
Cd864 N867 2.334 . S
Cd864 N893 2.304 . S
Cd864 O900 2.268 . S
Cd864 O903 2.273 . S
Cd864 O904 2.417 . S
Cd864 O905 2.330 . S
Cd865 N880 2.304 . S
Cd865 N884 2.334 . S
Cd865 O901 2.273 . S
Cd865 O902 2.268 . S
Cd865 O906 2.417 . S
Cd865 O907 2.330 . S
C866 N867 1.332 . S
C866 C870 1.381 . S
C866 H872 0.931 . S
N867 Cd864 2.334 . S
N867 C866 1.332 . S
N867 C871 1.328 . S
C868 C869 1.396 . S
C868 C871 1.378 . S
C868 H910 0.931 . S
C869 C868 1.396 . S
C869 C870 1.382 . S
C870 C866 1.381 . S
C870 C869 1.382 . S
C870 H911 0.930 . S
C871 N867 1.328 . S
C871 C868 1.378 . S
C871 H873 0.930 . S
H872 C866 0.931 . S
H873 C871 0.930 . S
C874 O900 1.238 . S
C874 O901 1.253 . S
C875 C876 1.379 . S
C875 N880 1.337 . S
C875 H881 0.929 . S
C876 C875 1.379 . S
C876 C877 1.380 . S
C876 H912 0.929 . S
C877 C876 1.380 . S
C877 C878 1.399 . S
C878 C877 1.399 . S
C878 C879 1.376 . S
C878 H913 0.931 . S
C879 C878 1.376 . S
C879 N880 1.338 . S
C879 H882 0.930 . S
N880 Cd865 2.304 . S
N880 C875 1.337 . S
N880 C879 1.338 . S
H881 C875 0.929 . S
H882 C879 0.930 . S
C883 N884 1.332 . S
C883 C887 1.381 . S
C883 H889 0.931 . S
N884 Cd865 2.334 . S
N884 C883 1.332 . S
N884 C888 1.328 . S
C885 C886 1.396 . S
C885 C888 1.378 . S
C885 H914 0.931 . S
C886 C885 1.396 . S
C886 C887 1.382 . S
C887 C883 1.381 . S
C887 C886 1.382 . S
C887 H915 0.930 . S
C888 N884 1.328 . S
C888 C885 1.378 . S
C888 H890 0.930 . S
H889 C883 0.931 . S
H890 C888 0.930 . S
C891 O902 1.238 . S
C891 O903 1.253 . S
C892 O904 1.239 . S
C892 O905 1.230 . S
N893 Cd864 2.304 . S
N893 C894 1.337 . S
N893 C898 1.338 . S
C894 N893 1.337 . S
C894 C895 1.379 . S
C894 H908 0.929 . S
C895 C894 1.379 . S
C895 C896 1.380 . S
C895 H916 0.929 . S
C896 C895 1.380 . S
C896 C897 1.399 . S
C897 C896 1.399 . S
C897 C898 1.376 . S
C897 H917 0.931 . S
C898 N893 1.338 . S
C898 C897 1.376 . S
C898 H909 0.930 . S
C899 O906 1.239 . S
C899 O907 1.230 . S
O900 Cd864 2.268 . S
O900 C874 1.238 . S
O901 Cd865 2.273 . S
O901 C874 1.253 . S
O902 Cd865 2.268 . S
O902 C891 1.238 . S
O903 Cd864 2.273 . S
O903 C891 1.253 . S
O904 Cd864 2.417 . S
O904 C892 1.239 . S
O905 Cd864 2.330 . S
O905 C892 1.230 . S
O906 Cd865 2.417 . S
O906 C899 1.239 . S
O907 Cd865 2.330 . S
O907 C899 1.230 . S
H908 C894 0.929 . S
H909 C898 0.930 . S
H910 C868 0.931 . S
H911 C870 0.930 . S
H912 C876 0.929 . S
H913 C878 0.931 . S
H914 C885 0.931 . S
H915 C887 0.930 . S
H916 C895 0.929 . S
H917 C897 0.931 . S
Cd918 N921 2.334 . S
Cd918 N947 2.304 . S
Cd918 O954 2.268 . S
Cd918 O957 2.273 . S
Cd918 O958 2.417 1_655 S
Cd918 O959 2.330 1_655 S
Cd919 N934 2.304 . S
Cd919 N938 2.334 . S
Cd919 O955 2.273 . S
Cd919 O956 2.268 . S
Cd919 O960 2.417 . S
Cd919 O961 2.330 . S
C920 N921 1.332 . S
C920 C924 1.381 . S
C920 H926 0.931 . S
N921 Cd918 2.334 . S
N921 C920 1.332 . S
N921 C925 1.328 . S
C922 C923 1.396 . S
C922 C925 1.378 . S
C922 H964 0.931 . S
C923 C922 1.396 . S
C923 C924 1.382 . S
C924 C920 1.381 . S
C924 C923 1.382 . S
C924 H965 0.930 . S
C925 N921 1.328 . S
C925 C922 1.378 . S
C925 H927 0.930 . S
H926 C920 0.931 . S
H927 C925 0.930 . S
C928 O954 1.238 . S
C928 O955 1.253 . S
C929 C930 1.379 . S
C929 N934 1.337 . S
C929 H935 0.929 . S
C930 C929 1.379 . S
C930 C931 1.380 . S
C930 H966 0.929 . S
C931 C930 1.380 . S
C931 C932 1.399 . S
C932 C931 1.399 . S
C932 C933 1.376 . S
C932 H967 0.931 . S
C933 C932 1.376 . S
C933 N934 1.338 . S
C933 H936 0.930 . S
N934 Cd919 2.304 . S
N934 C929 1.337 . S
N934 C933 1.338 . S
H935 C929 0.929 . S
H936 C933 0.930 . S
C937 N938 1.332 . S
C937 C941 1.381 . S
C937 H943 0.931 . S
N938 Cd919 2.334 . S
N938 C937 1.332 . S
N938 C942 1.328 . S
C939 C940 1.396 . S
C939 C942 1.378 . S
C939 H968 0.931 . S
C940 C939 1.396 . S
C940 C941 1.382 . S
C941 C937 1.381 . S
C941 C940 1.382 . S
C941 H969 0.930 . S
C942 N938 1.328 . S
C942 C939 1.378 . S
C942 H944 0.930 . S
H943 C937 0.931 . S
H944 C942 0.930 . S
C945 O956 1.238 . S
C945 O957 1.253 . S
C946 O958 1.239 . S
C946 O959 1.230 . S
N947 Cd918 2.304 . S
N947 C948 1.337 . S
N947 C952 1.338 1_655 S
C948 N947 1.337 . S
C948 C949 1.379 . S
C948 H962 0.929 . S
C949 C948 1.379 . S
C949 C950 1.380 1_655 S
C949 H970 0.929 . S
C950 C949 1.380 1_455 S
C950 C951 1.399 . S
C951 C950 1.399 . S
C951 C952 1.376 . S
C951 H971 0.931 . S
C952 N947 1.338 1_455 S
C952 C951 1.376 . S
C952 H963 0.930 . S
C953 O960 1.239 . S
C953 O961 1.230 . S
O954 Cd918 2.268 . S
O954 C928 1.238 . S
O955 Cd919 2.273 . S
O955 C928 1.253 . S
O956 Cd919 2.268 . S
O956 C945 1.238 . S
O957 Cd918 2.273 . S
O957 C945 1.253 . S
O958 Cd918 2.417 1_455 S
O958 C946 1.239 . S
O959 Cd918 2.330 1_455 S
O959 C946 1.230 . S
O960 Cd919 2.417 . S
O960 C953 1.239 . S
O961 Cd919 2.330 . S
O961 C953 1.230 . S
H962 C948 0.929 . S
H963 C952 0.930 . S
H964 C922 0.931 . S
H965 C924 0.930 . S
H966 C930 0.929 . S
H967 C932 0.931 . S
H968 C939 0.931 . S
H969 C941 0.930 . S
H970 C949 0.929 . S
H971 C951 0.931 . S
Cd972 N975 2.334 . S
Cd972 N1001 2.304 . S
Cd972 O1008 2.268 . S
Cd972 O1011 2.273 . S
Cd972 O1012 2.417 1_455 S
Cd972 O1013 2.330 1_455 S
Cd973 N988 2.304 . S
Cd973 N992 2.334 . S
Cd973 O1009 2.273 . S
Cd973 O1010 2.268 . S
Cd973 O1014 2.417 . S
Cd973 O1015 2.330 . S
C974 N975 1.332 . S
C974 C978 1.381 . S
C974 H980 0.931 . S
N975 Cd972 2.334 . S
N975 C974 1.332 . S
N975 C979 1.328 . S
C976 C977 1.396 . S
C976 C979 1.378 . S
C976 H1018 0.931 . S
C977 C976 1.396 . S
C977 C978 1.382 . S
C978 C974 1.381 . S
C978 C977 1.382 . S
C978 H1019 0.930 . S
C979 N975 1.328 . S
C979 C976 1.378 . S
C979 H981 0.930 . S
H980 C974 0.931 . S
H981 C979 0.930 . S
C982 O1008 1.238 . S
C982 O1009 1.253 . S
C983 C984 1.379 . S
C983 N988 1.337 . S
C983 H989 0.929 . S
C984 C983 1.379 . S
C984 C985 1.380 . S
C984 H1020 0.929 . S
C985 C984 1.380 . S
C985 C986 1.399 . S
C986 C985 1.399 . S
C986 C987 1.376 . S
C986 H1021 0.931 . S
C987 C986 1.376 . S
C987 N988 1.338 . S
C987 H990 0.930 . S
N988 Cd973 2.304 . S
N988 C983 1.337 . S
N988 C987 1.338 . S
H989 C983 0.929 . S
H990 C987 0.930 . S
C991 N992 1.332 . S
C991 C995 1.381 . S
C991 H997 0.931 . S
N992 Cd973 2.334 . S
N992 C991 1.332 . S
N992 C996 1.328 . S
C993 C994 1.396 . S
C993 C996 1.378 . S
C993 H1022 0.931 . S
C994 C993 1.396 . S
C994 C995 1.382 . S
C995 C991 1.381 . S
C995 C994 1.382 . S
C995 H1023 0.930 . S
C996 N992 1.328 . S
C996 C993 1.378 . S
C996 H998 0.930 . S
H997 C991 0.931 . S
H998 C996 0.930 . S
C999 O1010 1.238 . S
C999 O1011 1.253 . S
C1000 O1012 1.239 . S
C1000 O1013 1.230 . S
N1001 Cd972 2.304 . S
N1001 C1002 1.337 . S
N1001 C1006 1.338 1_455 S
C1002 N1001 1.337 . S
C1002 C1003 1.379 . S
C1002 H1016 0.929 . S
C1003 C1002 1.379 . S
C1003 C1004 1.380 1_455 S
C1003 H1024 0.929 . S
C1004 C1003 1.380 1_655 S
C1004 C1005 1.399 . S
C1005 C1004 1.399 . S
C1005 C1006 1.376 . S
C1005 H1025 0.931 . S
C1006 N1001 1.338 1_655 S
C1006 C1005 1.376 . S
C1006 H1017 0.930 . S
C1007 O1014 1.239 . S
C1007 O1015 1.230 . S
O1008 Cd972 2.268 . S
O1008 C982 1.238 . S
O1009 Cd973 2.273 . S
O1009 C982 1.253 . S
O1010 Cd973 2.268 . S
O1010 C999 1.238 . S
O1011 Cd972 2.273 . S
O1011 C999 1.253 . S
O1012 Cd972 2.417 1_655 S
O1012 C1000 1.239 . S
O1013 Cd972 2.330 1_655 S
O1013 C1000 1.230 . S
O1014 Cd973 2.417 . S
O1014 C1007 1.239 . S
O1015 Cd973 2.330 . S
O1015 C1007 1.230 . S
H1016 C1002 0.929 . S
H1017 C1006 0.930 . S
H1018 C976 0.931 . S
H1019 C978 0.930 . S
H1020 C984 0.929 . S
H1021 C986 0.931 . S
H1022 C993 0.931 . S
H1023 C995 0.930 . S
H1024 C1003 0.929 . S
H1025 C1005 0.931 . S
Cd1026 N1029 2.334 . S
Cd1026 N1055 2.304 . S
Cd1026 O1062 2.268 . S
Cd1026 O1065 2.273 . S
Cd1026 O1066 2.417 . S
Cd1026 O1067 2.330 . S
Cd1027 N1042 2.304 . S
Cd1027 N1046 2.334 . S
Cd1027 O1063 2.273 . S
Cd1027 O1064 2.268 . S
Cd1027 O1068 2.417 . S
Cd1027 O1069 2.330 . S
C1028 N1029 1.332 . S
C1028 C1032 1.381 . S
C1028 H1034 0.931 . S
N1029 Cd1026 2.334 . S
N1029 C1028 1.332 . S
N1029 C1033 1.328 . S
C1030 C1031 1.396 . S
C1030 C1033 1.378 . S
C1030 H1072 0.931 . S
C1031 C1030 1.396 . S
C1031 C1032 1.382 . S
C1032 C1028 1.381 . S
C1032 C1031 1.382 . S
C1032 H1073 0.930 . S
C1033 N1029 1.328 . S
C1033 C1030 1.378 . S
C1033 H1035 0.930 . S
H1034 C1028 0.931 . S
H1035 C1033 0.930 . S
C1036 O1062 1.238 . S
C1036 O1063 1.253 . S
C1037 C1038 1.379 . S
C1037 N1042 1.337 . S
C1037 H1043 0.929 . S
C1038 C1037 1.379 . S
C1038 C1039 1.380 . S
C1038 H1074 0.929 . S
C1039 C1038 1.380 . S
C1039 C1040 1.399 . S
C1040 C1039 1.399 . S
C1040 C1041 1.376 . S
C1040 H1075 0.931 . S
C1041 C1040 1.376 . S
C1041 N1042 1.338 . S
C1041 H1044 0.930 . S
N1042 Cd1027 2.304 . S
N1042 C1037 1.337 . S
N1042 C1041 1.338 . S
H1043 C1037 0.929 . S
H1044 C1041 0.930 . S
C1045 N1046 1.332 . S
C1045 C1049 1.381 . S
C1045 H1051 0.931 . S
N1046 Cd1027 2.334 . S
N1046 C1045 1.332 . S
N1046 C1050 1.328 . S
C1047 C1048 1.396 . S
C1047 C1050 1.378 . S
C1047 H1076 0.931 . S
C1048 C1047 1.396 . S
C1048 C1049 1.382 . S
C1049 C1045 1.381 . S
C1049 C1048 1.382 . S
C1049 H1077 0.930 . S
C1050 N1046 1.328 . S
C1050 C1047 1.378 . S
C1050 H1052 0.930 . S
H1051 C1045 0.931 . S
H1052 C1050 0.930 . S
C1053 O1064 1.238 . S
C1053 O1065 1.253 . S
C1054 O1066 1.239 . S
C1054 O1067 1.230 . S
N1055 Cd1026 2.304 . S
N1055 C1056 1.337 . S
N1055 C1060 1.338 . S
C1056 N1055 1.337 . S
C1056 C1057 1.379 . S
C1056 H1070 0.929 . S
C1057 C1056 1.379 . S
C1057 C1058 1.380 . S
C1057 H1078 0.929 . S
C1058 C1057 1.380 . S
C1058 C1059 1.399 . S
C1059 C1058 1.399 . S
C1059 C1060 1.376 . S
C1059 H1079 0.931 . S
C1060 N1055 1.338 . S
C1060 C1059 1.376 . S
C1060 H1071 0.930 . S
C1061 O1068 1.239 . S
C1061 O1069 1.230 . S
O1062 Cd1026 2.268 . S
O1062 C1036 1.238 . S
O1063 Cd1027 2.273 . S
O1063 C1036 1.253 . S
O1064 Cd1027 2.268 . S
O1064 C1053 1.238 . S
O1065 Cd1026 2.273 . S
O1065 C1053 1.253 . S
O1066 Cd1026 2.417 . S
O1066 C1054 1.239 . S
O1067 Cd1026 2.330 . S
O1067 C1054 1.230 . S
O1068 Cd1027 2.417 . S
O1068 C1061 1.239 . S
O1069 Cd1027 2.330 . S
O1069 C1061 1.230 . S
H1070 C1056 0.929 . S
H1071 C1060 0.930 . S
H1072 C1030 0.931 . S
H1073 C1032 0.930 . S
H1074 C1038 0.929 . S
H1075 C1040 0.931 . S
H1076 C1047 0.931 . S
H1077 C1049 0.930 . S
H1078 C1057 0.929 . S
H1079 C1059 0.931 . S
Cd1080 N1083 2.334 . S
Cd1080 N1109 2.304 . S
Cd1080 O1116 2.268 . S
Cd1080 O1119 2.273 . S
Cd1080 O1120 2.417 . S
Cd1080 O1121 2.330 . S
Cd1081 N1096 2.304 . S
Cd1081 N1100 2.334 . S
Cd1081 O1117 2.273 . S
Cd1081 O1118 2.268 . S
Cd1081 O1122 2.417 . S
Cd1081 O1123 2.330 . S
C1082 N1083 1.332 . S
C1082 C1086 1.381 . S
C1082 H1088 0.931 . S
N1083 Cd1080 2.334 . S
N1083 C1082 1.332 . S
N1083 C1087 1.328 . S
C1084 C1085 1.396 . S
C1084 C1087 1.378 . S
C1084 H1126 0.931 . S
C1085 C1084 1.396 . S
C1085 C1086 1.382 . S
C1086 C1082 1.381 . S
C1086 C1085 1.382 . S
C1086 H1127 0.930 . S
C1087 N1083 1.328 . S
C1087 C1084 1.378 . S
C1087 H1089 0.930 . S
H1088 C1082 0.931 . S
H1089 C1087 0.930 . S
C1090 O1116 1.238 . S
C1090 O1117 1.253 . S
C1091 C1092 1.379 . S
C1091 N1096 1.337 . S
C1091 H1097 0.929 . S
C1092 C1091 1.379 . S
C1092 C1093 1.380 . S
C1092 H1128 0.929 . S
C1093 C1092 1.380 . S
C1093 C1094 1.399 . S
C1094 C1093 1.399 . S
C1094 C1095 1.376 . S
C1094 H1129 0.931 . S
C1095 C1094 1.376 . S
C1095 N1096 1.338 . S
C1095 H1098 0.930 . S
N1096 Cd1081 2.304 . S
N1096 C1091 1.337 . S
N1096 C1095 1.338 . S
H1097 C1091 0.929 . S
H1098 C1095 0.930 . S
C1099 N1100 1.332 . S
C1099 C1103 1.381 . S
C1099 H1105 0.931 . S
N1100 Cd1081 2.334 . S
N1100 C1099 1.332 . S
N1100 C1104 1.328 . S
C1101 C1102 1.396 . S
C1101 C1104 1.378 . S
C1101 H1130 0.931 . S
C1102 C1101 1.396 . S
C1102 C1103 1.382 . S
C1103 C1099 1.381 . S
C1103 C1102 1.382 . S
C1103 H1131 0.930 . S
C1104 N1100 1.328 . S
C1104 C1101 1.378 . S
C1104 H1106 0.930 . S
H1105 C1099 0.931 . S
H1106 C1104 0.930 . S
C1107 O1118 1.238 . S
C1107 O1119 1.253 . S
C1108 O1120 1.239 . S
C1108 O1121 1.230 . S
N1109 Cd1080 2.304 . S
N1109 C1110 1.337 . S
N1109 C1114 1.338 . S
C1110 N1109 1.337 . S
C1110 C1111 1.379 . S
C1110 H1124 0.929 . S
C1111 C1110 1.379 . S
C1111 C1112 1.380 . S
C1111 H1132 0.929 . S
C1112 C1111 1.380 . S
C1112 C1113 1.399 . S
C1113 C1112 1.399 . S
C1113 C1114 1.376 . S
C1113 H1133 0.931 . S
C1114 N1109 1.338 . S
C1114 C1113 1.376 . S
C1114 H1125 0.930 . S
C1115 O1122 1.239 . S
C1115 O1123 1.230 . S
O1116 Cd1080 2.268 . S
O1116 C1090 1.238 . S
O1117 Cd1081 2.273 . S
O1117 C1090 1.253 . S
O1118 Cd1081 2.268 . S
O1118 C1107 1.238 . S
O1119 Cd1080 2.273 . S
O1119 C1107 1.253 . S
O1120 Cd1080 2.417 . S
O1120 C1108 1.239 . S
O1121 Cd1080 2.330 . S
O1121 C1108 1.230 . S
O1122 Cd1081 2.417 . S
O1122 C1115 1.239 . S
O1123 Cd1081 2.330 . S
O1123 C1115 1.230 . S
H1124 C1110 0.929 . S
H1125 C1114 0.930 . S
H1126 C1084 0.931 . S
H1127 C1086 0.930 . S
H1128 C1092 0.929 . S
H1129 C1094 0.931 . S
H1130 C1101 0.931 . S
H1131 C1103 0.930 . S
H1132 C1111 0.929 . S
H1133 C1113 0.931 . S
Cd1134 N1137 2.334 . S
Cd1134 N1163 2.304 . S
Cd1134 O1170 2.268 . S
Cd1134 O1173 2.273 . S
Cd1134 O1174 2.417 1_565 S
Cd1134 O1175 2.330 1_565 S
Cd1135 N1150 2.304 . S
Cd1135 N1154 2.334 . S
Cd1135 O1171 2.273 . S
Cd1135 O1172 2.268 . S
Cd1135 O1176 2.417 . S
Cd1135 O1177 2.330 . S
C1136 N1137 1.332 . S
C1136 C1140 1.381 . S
C1136 H1142 0.931 . S
N1137 Cd1134 2.334 . S
N1137 C1136 1.332 . S
N1137 C1141 1.328 . S
C1138 C1139 1.396 . S
C1138 C1141 1.378 . S
C1138 H1180 0.931 . S
C1139 C1138 1.396 . S
C1139 C1140 1.382 . S
C1140 C1136 1.381 . S
C1140 C1139 1.382 . S
C1140 H1181 0.930 . S
C1141 N1137 1.328 . S
C1141 C1138 1.378 . S
C1141 H1143 0.930 . S
H1142 C1136 0.931 . S
H1143 C1141 0.930 . S
C1144 O1170 1.238 . S
C1144 O1171 1.253 . S
C1145 C1146 1.379 . S
C1145 N1150 1.337 . S
C1145 H1151 0.929 . S
C1146 C1145 1.379 . S
C1146 C1147 1.380 . S
C1146 H1182 0.929 . S
C1147 C1146 1.380 . S
C1147 C1148 1.399 . S
C1148 C1147 1.399 . S
C1148 C1149 1.376 . S
C1148 H1183 0.931 . S
C1149 C1148 1.376 . S
C1149 N1150 1.338 . S
C1149 H1152 0.930 . S
N1150 Cd1135 2.304 . S
N1150 C1145 1.337 . S
N1150 C1149 1.338 . S
H1151 C1145 0.929 . S
H1152 C1149 0.930 . S
C1153 N1154 1.332 . S
C1153 C1157 1.381 . S
C1153 H1159 0.931 . S
N1154 Cd1135 2.334 . S
N1154 C1153 1.332 . S
N1154 C1158 1.328 . S
C1155 C1156 1.396 . S
C1155 C1158 1.378 . S
C1155 H1184 0.931 . S
C1156 C1155 1.396 . S
C1156 C1157 1.382 . S
C1157 C1153 1.381 . S
C1157 C1156 1.382 . S
C1157 H1185 0.930 . S
C1158 N1154 1.328 . S
C1158 C1155 1.378 . S
C1158 H1160 0.930 . S
H1159 C1153 0.931 . S
H1160 C1158 0.930 . S
C1161 O1172 1.238 . S
C1161 O1173 1.253 . S
C1162 O1174 1.239 . S
C1162 O1175 1.230 . S
N1163 Cd1134 2.304 . S
N1163 C1164 1.337 . S
N1163 C1168 1.338 1_565 S
C1164 N1163 1.337 . S
C1164 C1165 1.379 . S
C1164 H1178 0.929 . S
C1165 C1164 1.379 . S
C1165 C1166 1.380 1_565 S
C1165 H1186 0.929 . S
C1166 C1165 1.380 1_545 S
C1166 C1167 1.399 . S
C1167 C1166 1.399 . S
C1167 C1168 1.376 . S
C1167 H1187 0.931 . S
C1168 N1163 1.338 1_545 S
C1168 C1167 1.376 . S
C1168 H1179 0.930 . S
C1169 O1176 1.239 . S
C1169 O1177 1.230 . S
O1170 Cd1134 2.268 . S
O1170 C1144 1.238 . S
O1171 Cd1135 2.273 . S
O1171 C1144 1.253 . S
O1172 Cd1135 2.268 . S
O1172 C1161 1.238 . S
O1173 Cd1134 2.273 . S
O1173 C1161 1.253 . S
O1174 Cd1134 2.417 1_545 S
O1174 C1162 1.239 . S
O1175 Cd1134 2.330 1_545 S
O1175 C1162 1.230 . S
O1176 Cd1135 2.417 . S
O1176 C1169 1.239 . S
O1177 Cd1135 2.330 . S
O1177 C1169 1.230 . S
H1178 C1164 0.929 . S
H1179 C1168 0.930 . S
H1180 C1138 0.931 . S
H1181 C1140 0.930 . S
H1182 C1146 0.929 . S
H1183 C1148 0.931 . S
H1184 C1155 0.931 . S
H1185 C1157 0.930 . S
H1186 C1165 0.929 . S
H1187 C1167 0.931 . S
Cd1188 N1191 2.334 . S
Cd1188 N1217 2.304 . S
Cd1188 O1224 2.268 . S
Cd1188 O1227 2.273 . S
Cd1188 O1228 2.417 1_545 S
Cd1188 O1229 2.330 1_545 S
Cd1189 N1204 2.304 . S
Cd1189 N1208 2.334 . S
Cd1189 O1225 2.273 . S
Cd1189 O1226 2.268 . S
Cd1189 O1230 2.417 . S
Cd1189 O1231 2.330 . S
C1190 N1191 1.332 . S
C1190 C1194 1.381 . S
C1190 H1196 0.931 . S
N1191 Cd1188 2.334 . S
N1191 C1190 1.332 . S
N1191 C1195 1.328 . S
C1192 C1193 1.396 . S
C1192 C1195 1.378 . S
C1192 H1234 0.931 . S
C1193 C1192 1.396 . S
C1193 C1194 1.382 . S
C1194 C1190 1.381 . S
C1194 C1193 1.382 . S
C1194 H1235 0.930 . S
C1195 N1191 1.328 . S
C1195 C1192 1.378 . S
C1195 H1197 0.930 . S
H1196 C1190 0.931 . S
H1197 C1195 0.930 . S
C1198 O1224 1.238 . S
C1198 O1225 1.253 . S
C1199 C1200 1.379 . S
C1199 N1204 1.337 . S
C1199 H1205 0.929 . S
C1200 C1199 1.379 . S
C1200 C1201 1.380 . S
C1200 H1236 0.929 . S
C1201 C1200 1.380 . S
C1201 C1202 1.399 . S
C1202 C1201 1.399 . S
C1202 C1203 1.376 . S
C1202 H1237 0.931 . S
C1203 C1202 1.376 . S
C1203 N1204 1.338 . S
C1203 H1206 0.930 . S
N1204 Cd1189 2.304 . S
N1204 C1199 1.337 . S
N1204 C1203 1.338 . S
H1205 C1199 0.929 . S
H1206 C1203 0.930 . S
C1207 N1208 1.332 . S
C1207 C1211 1.381 . S
C1207 H1213 0.931 . S
N1208 Cd1189 2.334 . S
N1208 C1207 1.332 . S
N1208 C1212 1.328 . S
C1209 C1210 1.396 . S
C1209 C1212 1.378 . S
C1209 H1238 0.931 . S
C1210 C1209 1.396 . S
C1210 C1211 1.382 . S
C1211 C1207 1.381 . S
C1211 C1210 1.382 . S
C1211 H1239 0.930 . S
C1212 N1208 1.328 . S
C1212 C1209 1.378 . S
C1212 H1214 0.930 . S
H1213 C1207 0.931 . S
H1214 C1212 0.930 . S
C1215 O1226 1.238 . S
C1215 O1227 1.253 . S
C1216 O1228 1.239 . S
C1216 O1229 1.230 . S
N1217 Cd1188 2.304 . S
N1217 C1218 1.337 . S
N1217 C1222 1.338 1_545 S
C1218 N1217 1.337 . S
C1218 C1219 1.379 . S
C1218 H1232 0.929 . S
C1219 C1218 1.379 . S
C1219 C1220 1.380 1_545 S
C1219 H1240 0.929 . S
C1220 C1219 1.380 1_565 S
C1220 C1221 1.399 . S
C1221 C1220 1.399 . S
C1221 C1222 1.376 . S
C1221 H1241 0.931 . S
C1222 N1217 1.338 1_565 S
C1222 C1221 1.376 . S
C1222 H1233 0.930 . S
C1223 O1230 1.239 . S
C1223 O1231 1.230 . S
O1224 Cd1188 2.268 . S
O1224 C1198 1.238 . S
O1225 Cd1189 2.273 . S
O1225 C1198 1.253 . S
O1226 Cd1189 2.268 . S
O1226 C1215 1.238 . S
O1227 Cd1188 2.273 . S
O1227 C1215 1.253 . S
O1228 Cd1188 2.417 1_565 S
O1228 C1216 1.239 . S
O1229 Cd1188 2.330 1_565 S
O1229 C1216 1.230 . S
O1230 Cd1189 2.417 . S
O1230 C1223 1.239 . S
O1231 Cd1189 2.330 . S
O1231 C1223 1.230 . S
H1232 C1218 0.929 . S
H1233 C1222 0.930 . S
H1234 C1192 0.931 . S
H1235 C1194 0.930 . S
H1236 C1200 0.929 . S
H1237 C1202 0.931 . S
H1238 C1209 0.931 . S
H1239 C1211 0.930 . S
H1240 C1219 0.929 . S
H1241 C1221 0.931 . S
Cd1242 N1245 2.334 . S
Cd1242 N1271 2.304 . S
Cd1242 O1278 2.268 . S
Cd1242 O1281 2.273 . S
Cd1242 O1282 2.417 . S
Cd1242 O1283 2.330 . S
Cd1243 N1258 2.304 . S
Cd1243 N1262 2.334 . S
Cd1243 O1279 2.273 . S
Cd1243 O1280 2.268 . S
Cd1243 O1284 2.417 . S
Cd1243 O1285 2.330 . S
C1244 N1245 1.332 . S
C1244 C1248 1.381 . S
C1244 H1250 0.931 . S
N1245 Cd1242 2.334 . S
N1245 C1244 1.332 . S
N1245 C1249 1.328 . S
C1246 C1247 1.396 . S
C1246 C1249 1.378 . S
C1246 H1288 0.931 . S
C1247 C1246 1.396 . S
C1247 C1248 1.382 . S
C1248 C1244 1.381 . S
C1248 C1247 1.382 . S
C1248 H1289 0.930 . S
C1249 N1245 1.328 . S
C1249 C1246 1.378 . S
C1249 H1251 0.930 . S
H1250 C1244 0.931 . S
H1251 C1249 0.930 . S
C1252 O1278 1.238 . S
C1252 O1279 1.253 . S
C1253 C1254 1.379 . S
C1253 N1258 1.337 . S
C1253 H1259 0.929 . S
C1254 C1253 1.379 . S
C1254 C1255 1.380 . S
C1254 H1290 0.929 . S
C1255 C1254 1.380 . S
C1255 C1256 1.399 . S
C1256 C1255 1.399 . S
C1256 C1257 1.376 . S
C1256 H1291 0.931 . S
C1257 C1256 1.376 . S
C1257 N1258 1.338 . S
C1257 H1260 0.930 . S
N1258 Cd1243 2.304 . S
N1258 C1253 1.337 . S
N1258 C1257 1.338 . S
H1259 C1253 0.929 . S
H1260 C1257 0.930 . S
C1261 N1262 1.332 . S
C1261 C1265 1.381 . S
C1261 H1267 0.931 . S
N1262 Cd1243 2.334 . S
N1262 C1261 1.332 . S
N1262 C1266 1.328 . S
C1263 C1264 1.396 . S
C1263 C1266 1.378 . S
C1263 H1292 0.931 . S
C1264 C1263 1.396 . S
C1264 C1265 1.382 . S
C1265 C1261 1.381 . S
C1265 C1264 1.382 . S
C1265 H1293 0.930 . S
C1266 N1262 1.328 . S
C1266 C1263 1.378 . S
C1266 H1268 0.930 . S
H1267 C1261 0.931 . S
H1268 C1266 0.930 . S
C1269 O1280 1.238 . S
C1269 O1281 1.253 . S
C1270 O1282 1.239 . S
C1270 O1283 1.230 . S
N1271 Cd1242 2.304 . S
N1271 C1272 1.337 . S
N1271 C1276 1.338 . S
C1272 N1271 1.337 . S
C1272 C1273 1.379 . S
C1272 H1286 0.929 . S
C1273 C1272 1.379 . S
C1273 C1274 1.380 . S
C1273 H1294 0.929 . S
C1274 C1273 1.380 . S
C1274 C1275 1.399 . S
C1275 C1274 1.399 . S
C1275 C1276 1.376 . S
C1275 H1295 0.931 . S
C1276 N1271 1.338 . S
C1276 C1275 1.376 . S
C1276 H1287 0.930 . S
C1277 O1284 1.239 . S
C1277 O1285 1.230 . S
O1278 Cd1242 2.268 . S
O1278 C1252 1.238 . S
O1279 Cd1243 2.273 . S
O1279 C1252 1.253 . S
O1280 Cd1243 2.268 . S
O1280 C1269 1.238 . S
O1281 Cd1242 2.273 . S
O1281 C1269 1.253 . S
O1282 Cd1242 2.417 . S
O1282 C1270 1.239 . S
O1283 Cd1242 2.330 . S
O1283 C1270 1.230 . S
O1284 Cd1243 2.417 . S
O1284 C1277 1.239 . S
O1285 Cd1243 2.330 . S
O1285 C1277 1.230 . S
H1286 C1272 0.929 . S
H1287 C1276 0.930 . S
H1288 C1246 0.931 . S
H1289 C1248 0.930 . S
H1290 C1254 0.929 . S
H1291 C1256 0.931 . S
H1292 C1263 0.931 . S
H1293 C1265 0.930 . S
H1294 C1273 0.929 . S
H1295 C1275 0.931 . S
H1296 C1302 0.930 . S
H1297 C1306 0.930 . S
H1298 C1311 0.929 . S
H1299 C1309 0.929 . S
H1300 C1304 0.929 . S
H1301 C1310 0.929 . S
C1302 H1296 0.930 . S
C1302 C1303 1.367 . S
C1302 C1310 1.378 . S
C1303 C1302 1.367 . S
C1303 C1311 1.433 . S
C1304 H1300 0.929 . S
C1304 C1306 1.378 . S
C1304 C1308 1.350 . S
C1305 C1308 1.463 . S
C1305 C1310 1.350 . S
C1305 N1313 1.427 . S
C1306 H1297 0.930 . S
C1306 C1304 1.378 . S
C1306 C1307 1.367 . S
C1307 C1306 1.367 . S
C1307 C1309 1.433 . S
C1308 C1304 1.350 . S
C1308 C1305 1.463 . S
C1308 N1312 1.427 . S
C1309 H1299 0.929 . S
C1309 C1307 1.433 . S
C1309 N1312 1.384 . S
C1310 H1301 0.929 . S
C1310 C1302 1.378 . S
C1310 C1305 1.350 . S
C1311 H1298 0.929 . S
C1311 C1303 1.433 . S
C1311 N1313 1.384 . S
N1312 C1308 1.427 . S
N1312 C1309 1.384 . S
N1313 C1305 1.427 . S
N1313 C1311 1.384 . S
H1314 C1320 0.930 . S
H1315 C1324 0.930 . S
H1316 C1329 0.929 . S
H1317 C1327 0.929 . S
H1318 C1322 0.929 . S
H1319 C1328 0.929 . S
C1320 H1314 0.930 . S
C1320 C1321 1.367 . S
C1320 C1328 1.378 . S
C1321 C1320 1.367 . S
C1321 C1329 1.433 . S
C1322 H1318 0.929 . S
C1322 C1324 1.378 . S
C1322 C1326 1.350 . S
C1323 C1326 1.463 . S
C1323 C1328 1.350 . S
C1323 N1331 1.427 . S
C1324 H1315 0.930 . S
C1324 C1322 1.378 . S
C1324 C1325 1.367 . S
C1325 C1324 1.367 . S
C1325 C1327 1.433 . S
C1326 C1322 1.350 . S
C1326 C1323 1.463 . S
C1326 N1330 1.427 . S
C1327 H1317 0.929 . S
C1327 C1325 1.433 . S
C1327 N1330 1.384 . S
C1328 H1319 0.929 . S
C1328 C1320 1.378 . S
C1328 C1323 1.350 . S
C1329 H1316 0.929 . S
C1329 C1321 1.433 . S
C1329 N1331 1.384 . S
N1330 C1326 1.427 . S
N1330 C1327 1.384 . S
N1331 C1323 1.427 . S
N1331 C1329 1.384 . S
H1332 C1338 0.930 . S
H1333 C1342 0.930 . S
H1334 C1347 0.929 . S
H1335 C1345 0.929 . S
H1336 C1340 0.929 . S
H1337 C1346 0.929 . S
C1338 H1332 0.930 . S
C1338 C1339 1.367 . S
C1338 C1346 1.378 1_565 S
C1339 C1338 1.367 . S
C1339 C1347 1.433 . S
C1340 H1336 0.929 . S
C1340 C1342 1.378 . S
C1340 C1344 1.350 . S
C1341 C1344 1.463 . S
C1341 C1346 1.350 . S
C1341 N1349 1.428 1_545 S
C1342 H1333 0.930 . S
C1342 C1340 1.378 . S
C1342 C1343 1.367 . S
C1343 C1342 1.367 . S
C1343 C1345 1.433 . S
C1344 C1340 1.350 . S
C1344 C1341 1.463 . S
C1344 N1348 1.427 . S
C1345 H1335 0.929 . S
C1345 C1343 1.433 . S
C1345 N1348 1.384 . S
C1346 H1337 0.929 . S
C1346 C1338 1.378 1_545 S
C1346 C1341 1.350 . S
C1347 H1334 0.929 . S
C1347 C1339 1.433 . S
C1347 N1349 1.383 . S
N1348 C1344 1.427 . S
N1348 C1345 1.384 . S
N1349 C1341 1.428 1_565 S
N1349 C1347 1.383 . S
H1350 C1356 0.930 . S
H1351 C1360 0.930 . S
H1352 C1365 0.929 . S
H1353 C1363 0.929 . S
H1354 C1358 0.929 1_565 S
H1355 C1364 0.929 . S
C1356 H1350 0.930 . S
C1356 C1357 1.367 . S
C1356 C1364 1.378 . S
C1357 C1356 1.367 . S
C1357 C1365 1.433 . S
C1358 H1354 0.929 1_545 S
C1358 C1360 1.378 . S
C1358 C1362 1.350 1_545 S
C1359 C1362 1.463 . S
C1359 C1364 1.350 . S
C1359 N1367 1.427 . S
C1360 H1351 0.930 . S
C1360 C1358 1.378 . S
C1360 C1361 1.367 . S
C1361 C1360 1.367 . S
C1361 C1363 1.433 . S
C1362 C1358 1.350 1_565 S
C1362 C1359 1.463 . S
C1362 N1366 1.427 . S
C1363 H1353 0.929 . S
C1363 C1361 1.433 . S
C1363 N1366 1.384 1_545 S
C1364 H1355 0.929 . S
C1364 C1356 1.378 . S
C1364 C1359 1.350 . S
C1365 H1352 0.929 . S
C1365 C1357 1.433 . S
C1365 N1367 1.384 . S
N1366 C1362 1.427 . S
N1366 C1363 1.384 1_565 S
N1367 C1359 1.427 . S
N1367 C1365 1.384 . S
H1368 C1374 0.930 . S
H1369 C1378 0.930 . S
H1370 C1383 0.929 . S
H1371 C1381 0.929 . S
H1372 C1376 0.929 . S
H1373 C1382 0.929 . S
C1374 H1368 0.930 . S
C1374 C1375 1.367 . S
C1374 C1382 1.378 . S
C1375 C1374 1.367 . S
C1375 C1383 1.433 . S
C1376 H1372 0.929 . S
C1376 C1378 1.378 . S
C1376 C1380 1.350 . S
C1377 C1380 1.463 . S
C1377 C1382 1.350 . S
C1377 N1385 1.427 . S
C1378 H1369 0.930 . S
C1378 C1376 1.378 . S
C1378 C1379 1.367 . S
C1379 C1378 1.367 . S
C1379 C1381 1.433 . S
C1380 C1376 1.350 . S
C1380 C1377 1.463 . S
C1380 N1384 1.427 . S
C1381 H1371 0.929 . S
C1381 C1379 1.433 . S
C1381 N1384 1.384 . S
C1382 H1373 0.929 . S
C1382 C1374 1.378 . S
C1382 C1377 1.350 . S
C1383 H1370 0.929 . S
C1383 C1375 1.433 . S
C1383 N1385 1.384 . S
N1384 C1380 1.427 . S
N1384 C1381 1.384 . S
N1385 C1377 1.427 . S
N1385 C1383 1.384 . S
H1386 C1392 0.930 . S
H1387 C1396 0.930 . S
H1388 C1401 0.929 . S
H1389 C1399 0.929 . S
H1390 C1394 0.929 . S
H1391 C1400 0.929 . S
C1392 H1386 0.930 . S
C1392 C1393 1.367 . S
C1392 C1400 1.378 . S
C1393 C1392 1.367 . S
C1393 C1401 1.433 . S
C1394 H1390 0.929 . S
C1394 C1396 1.378 . S
C1394 C1398 1.350 . S
C1395 C1398 1.463 . S
C1395 C1400 1.350 1_556 S
C1395 N1403 1.427 . S
C1396 H1387 0.930 . S
C1396 C1394 1.378 . S
C1396 C1397 1.367 . S
C1397 C1396 1.367 . S
C1397 C1399 1.433 . S
C1398 C1394 1.350 . S
C1398 C1395 1.463 . S
C1398 N1402 1.427 . S
C1399 H1389 0.929 . S
C1399 C1397 1.433 . S
C1399 N1402 1.384 . S
C1400 H1391 0.929 . S
C1400 C1392 1.378 . S
C1400 C1395 1.350 1_554 S
C1401 H1388 0.929 . S
C1401 C1393 1.433 . S
C1401 N1403 1.384 1_554 S
N1402 C1398 1.427 . S
N1402 C1399 1.384 . S
N1403 C1395 1.427 . S
N1403 C1401 1.384 1_556 S
H1404 C1410 0.930 . S
H1405 C1414 0.930 . S
H1406 C1419 0.929 . S
H1407 C1417 0.929 . S
H1408 C1412 0.929 . S
H1409 C1418 0.929 . S
C1410 H1404 0.930 . S
C1410 C1411 1.367 . S
C1410 C1418 1.378 . S
C1411 C1410 1.367 . S
C1411 C1419 1.433 . S
C1412 H1408 0.929 . S
C1412 C1414 1.378 . S
C1412 C1416 1.350 . S
C1413 C1416 1.463 . S
C1413 C1418 1.350 . S
C1413 N1421 1.427 . S
C1414 H1405 0.930 . S
C1414 C1412 1.378 . S
C1414 C1415 1.367 . S
C1415 C1414 1.367 . S
C1415 C1417 1.433 . S
C1416 C1412 1.350 . S
C1416 C1413 1.463 . S
C1416 N1420 1.427 . S
C1417 H1407 0.929 . S
C1417 C1415 1.433 . S
C1417 N1420 1.384 . S
C1418 H1409 0.929 . S
C1418 C1410 1.378 . S
C1418 C1413 1.350 . S
C1419 H1406 0.929 . S
C1419 C1411 1.433 . S
C1419 N1421 1.384 . S
N1420 C1416 1.427 . S
N1420 C1417 1.384 . S
N1421 C1413 1.427 . S
N1421 C1419 1.384 . S
H1422 C1428 0.930 . S
H1423 C1432 0.930 . S
H1424 C1437 0.929 . S
H1425 C1435 0.929 . S
H1426 C1430 0.929 . S
H1427 C1436 0.929 1_554 S
C1428 H1422 0.930 . S
C1428 C1429 1.367 . S
C1428 C1436 1.378 . S
C1429 C1428 1.367 . S
C1429 C1437 1.433 . S
C1430 H1426 0.929 . S
C1430 C1432 1.378 . S
C1430 C1434 1.350 . S
C1431 C1434 1.463 . S
C1431 C1436 1.350 1_554 S
C1431 N1439 1.427 . S
C1432 H1423 0.930 . S
C1432 C1430 1.378 . S
C1432 C1433 1.367 . S
C1433 C1432 1.367 . S
C1433 C1435 1.433 . S
C1434 C1430 1.350 . S
C1434 C1431 1.463 . S
C1434 N1438 1.427 . S
C1435 H1425 0.929 . S
C1435 C1433 1.433 . S
C1435 N1438 1.384 . S
C1436 H1427 0.929 1_556 S
C1436 C1428 1.378 . S
C1436 C1431 1.350 1_556 S
C1437 H1424 0.929 . S
C1437 C1429 1.433 . S
C1437 N1439 1.384 1_556 S
N1438 C1434 1.427 . S
N1438 C1435 1.384 . S
N1439 C1431 1.427 . S
N1439 C1437 1.384 1_554 S
H1440 C1446 0.930 . S
H1441 C1450 0.930 . S
H1442 C1455 0.929 . S
H1443 C1453 0.929 . S
H1444 C1448 0.929 . S
H1445 C1454 0.929 . S
C1446 H1440 0.930 . S
C1446 C1447 1.367 . S
C1446 C1454 1.378 . S
C1447 C1446 1.367 . S
C1447 C1455 1.433 . S
C1448 H1444 0.929 . S
C1448 C1450 1.378 . S
C1448 C1452 1.350 . S
C1449 C1452 1.463 . S
C1449 C1454 1.350 . S
C1449 N1457 1.427 . S
C1450 H1441 0.930 . S
C1450 C1448 1.378 . S
C1450 C1451 1.367 . S
C1451 C1450 1.367 . S
C1451 C1453 1.433 . S
C1452 C1448 1.350 . S
C1452 C1449 1.463 . S
C1452 N1456 1.427 . S
C1453 H1443 0.929 . S
C1453 C1451 1.433 . S
C1453 N1456 1.384 . S
C1454 H1445 0.929 . S
C1454 C1446 1.378 . S
C1454 C1449 1.350 . S
C1455 H1442 0.929 . S
C1455 C1447 1.433 . S
C1455 N1457 1.384 . S
N1456 C1452 1.427 . S
N1456 C1453 1.384 . S
N1457 C1449 1.427 . S
N1457 C1455 1.384 . S
H1458 C1464 0.930 . S
H1459 C1468 0.930 . S
H1460 C1473 0.929 . S
H1461 C1471 0.929 . S
H1462 C1466 0.929 . S
H1463 C1472 0.929 1_655 S
C1464 H1458 0.930 . S
C1464 C1465 1.367 . S
C1464 C1472 1.378 . S
C1465 C1464 1.367 . S
C1465 C1473 1.433 . S
C1466 H1462 0.929 . S
C1466 C1468 1.378 . S
C1466 C1470 1.350 . S
C1467 C1470 1.463 . S
C1467 C1472 1.350 1_655 S
C1467 N1475 1.427 . S
C1468 H1459 0.930 . S
C1468 C1466 1.378 . S
C1468 C1469 1.367 . S
C1469 C1468 1.367 . S
C1469 C1471 1.433 . S
C1470 C1466 1.350 . S
C1470 C1467 1.463 . S
C1470 N1474 1.427 . S
C1471 H1461 0.929 . S
C1471 C1469 1.433 . S
C1471 N1474 1.384 . S
C1472 H1463 0.929 1_455 S
C1472 C1464 1.378 . S
C1472 C1467 1.350 1_455 S
C1473 H1460 0.929 . S
C1473 C1465 1.433 . S
C1473 N1475 1.384 1_455 S
N1474 C1470 1.427 . S
N1474 C1471 1.384 . S
N1475 C1467 1.427 . S
N1475 C1473 1.384 1_655 S
H1476 C1482 0.930 . S
H1477 C1486 0.930 . S
H1478 C1491 0.929 . S
H1479 C1489 0.929 . S
H1480 C1484 0.929 . S
H1481 C1490 0.929 . S
C1482 H1476 0.930 . S
C1482 C1483 1.367 . S
C1482 C1490 1.378 . S
C1483 C1482 1.367 . S
C1483 C1491 1.433 . S
C1484 H1480 0.929 . S
C1484 C1486 1.378 . S
C1484 C1488 1.350 . S
C1485 C1488 1.463 . S
C1485 C1490 1.350 . S
C1485 N1493 1.427 . S
C1486 H1477 0.930 . S
C1486 C1484 1.378 . S
C1486 C1487 1.367 . S
C1487 C1486 1.367 . S
C1487 C1489 1.433 . S
C1488 C1484 1.350 . S
C1488 C1485 1.463 . S
C1488 N1492 1.427 . S
C1489 H1479 0.929 . S
C1489 C1487 1.433 . S
C1489 N1492 1.384 . S
C1490 H1481 0.929 . S
C1490 C1482 1.378 . S
C1490 C1485 1.350 . S
C1491 H1478 0.929 . S
C1491 C1483 1.433 . S
C1491 N1493 1.384 . S
N1492 C1488 1.427 . S
N1492 C1489 1.384 . S
N1493 C1485 1.427 . S
N1493 C1491 1.384 . S
H1494 C1500 0.930 . S
H1495 C1504 0.930 . S
H1496 C1509 0.929 . S
H1497 C1507 0.929 . S
H1498 C1502 0.929 . S
H1499 C1508 0.929 . S
C1500 H1494 0.930 . S
C1500 C1501 1.367 . S
C1500 C1508 1.378 1_655 S
C1501 C1500 1.367 . S
C1501 C1509 1.433 . S
C1502 H1498 0.929 . S
C1502 C1504 1.378 . S
C1502 C1506 1.350 . S
C1503 C1506 1.463 . S
C1503 C1508 1.350 . S
C1503 N1511 1.427 1_455 S
C1504 H1495 0.930 . S
C1504 C1502 1.378 . S
C1504 C1505 1.367 . S
C1505 C1504 1.367 . S
C1505 C1507 1.433 . S
C1506 C1502 1.350 . S
C1506 C1503 1.463 . S
C1506 N1510 1.427 . S
C1507 H1497 0.929 . S
C1507 C1505 1.433 . S
C1507 N1510 1.384 . S
C1508 H1499 0.929 . S
C1508 C1500 1.378 1_455 S
C1508 C1503 1.350 . S
C1509 H1496 0.929 . S
C1509 C1501 1.433 . S
C1509 N1511 1.384 . S
N1510 C1506 1.427 . S
N1510 C1507 1.384 . S
N1511 C1503 1.427 1_655 S
N1511 C1509 1.384 . S
H1512 C1518 0.930 . S
H1513 C1522 0.930 . S
H1514 C1527 0.929 . S
H1515 C1525 0.929 . S
H1516 C1520 0.929 . S
H1517 C1526 0.929 . S
C1518 H1512 0.930 . S
C1518 C1519 1.367 . S
C1518 C1526 1.378 . S
C1519 C1518 1.367 . S
C1519 C1527 1.433 . S
C1520 H1516 0.929 . S
C1520 C1522 1.378 . S
C1520 C1524 1.350 . S
C1521 C1524 1.463 . S
C1521 C1526 1.350 . S
C1521 N1529 1.427 . S
C1522 H1513 0.930 . S
C1522 C1520 1.378 . S
C1522 C1523 1.367 . S
C1523 C1522 1.367 . S
C1523 C1525 1.433 . S
C1524 C1520 1.350 . S
C1524 C1521 1.463 . S
C1524 N1528 1.427 . S
C1525 H1515 0.929 . S
C1525 C1523 1.433 . S
C1525 N1528 1.384 . S
C1526 H1517 0.929 . S
C1526 C1518 1.378 . S
C1526 C1521 1.350 . S
C1527 H1514 0.929 . S
C1527 C1519 1.433 . S
C1527 N1529 1.384 . S
N1528 C1524 1.427 . S
N1528 C1525 1.384 . S
N1529 C1521 1.427 . S
N1529 C1527 1.384 . S
H1530 C1536 0.930 . S
H1531 C1540 0.930 . S
H1532 C1545 0.929 . S
H1533 C1543 0.929 . S
H1534 C1538 0.929 . S
H1535 C1544 0.929 . S
C1536 H1530 0.930 . S
C1536 C1537 1.367 . S
C1536 C1544 1.378 . S
C1537 C1536 1.367 . S
C1537 C1545 1.433 . S
C1538 H1534 0.929 . S
C1538 C1540 1.378 . S
C1538 C1542 1.350 . S
C1539 C1542 1.463 . S
C1539 C1544 1.350 . S
C1539 N1547 1.427 . S
C1540 H1531 0.930 . S
C1540 C1538 1.378 . S
C1540 C1541 1.367 . S
C1541 C1540 1.367 . S
C1541 C1543 1.433 . S
C1542 C1538 1.350 . S
C1542 C1539 1.463 . S
C1542 N1546 1.427 . S
C1543 H1533 0.929 . S
C1543 C1541 1.433 . S
C1543 N1546 1.384 . S
C1544 H1535 0.929 . S
C1544 C1536 1.378 . S
C1544 C1539 1.350 . S
C1545 H1532 0.929 . S
C1545 C1537 1.433 . S
C1545 N1547 1.384 . S
N1546 C1542 1.427 . S
N1546 C1543 1.384 . S
N1547 C1539 1.427 . S
N1547 C1545 1.384 . S
H1548 C1554 0.930 . S
H1549 C1558 0.930 . S
H1550 C1563 0.929 . S
H1551 C1561 0.929 . S
H1552 C1556 0.929 . S
H1553 C1562 0.929 . S
C1554 H1548 0.930 . S
C1554 C1555 1.367 . S
C1554 C1562 1.378 1_545 S
C1555 C1554 1.367 . S
C1555 C1563 1.433 . S
C1556 H1552 0.929 . S
C1556 C1558 1.378 . S
C1556 C1560 1.350 . S
C1557 C1560 1.463 . S
C1557 C1562 1.350 . S
C1557 N1565 1.427 1_565 S
C1558 H1549 0.930 . S
C1558 C1556 1.378 . S
C1558 C1559 1.367 . S
C1559 C1558 1.367 . S
C1559 C1561 1.433 . S
C1560 C1556 1.350 . S
C1560 C1557 1.463 . S
C1560 N1564 1.427 . S
C1561 H1551 0.929 . S
C1561 C1559 1.433 . S
C1561 N1564 1.384 . S
C1562 H1553 0.929 . S
C1562 C1554 1.378 1_565 S
C1562 C1557 1.350 . S
C1563 H1550 0.929 . S
C1563 C1555 1.433 . S
C1563 N1565 1.384 . S
N1564 C1560 1.427 . S
N1564 C1561 1.384 . S
N1565 C1557 1.427 1_545 S
N1565 C1563 1.384 . S
H1566 C1572 0.930 . S
H1567 C1576 0.930 . S
H1568 C1581 0.929 . S
H1569 C1579 0.929 . S
H1570 C1574 0.929 . S
H1571 C1580 0.929 . S
C1572 H1566 0.930 . S
C1572 C1573 1.367 . S
C1572 C1580 1.378 . S
C1573 C1572 1.367 . S
C1573 C1581 1.433 . S
C1574 H1570 0.929 . S
C1574 C1576 1.378 1_545 S
C1574 C1578 1.350 . S
C1575 C1578 1.463 . S
C1575 C1580 1.350 . S
C1575 N1583 1.427 . S
C1576 H1567 0.930 . S
C1576 C1574 1.378 1_565 S
C1576 C1577 1.367 . S
C1577 C1576 1.367 . S
C1577 C1579 1.433 . S
C1578 C1574 1.350 . S
C1578 C1575 1.463 . S
C1578 N1582 1.427 1_545 S
C1579 H1569 0.929 . S
C1579 C1577 1.433 . S
C1579 N1582 1.384 . S
C1580 H1571 0.929 . S
C1580 C1572 1.378 . S
C1580 C1575 1.350 . S
C1581 H1568 0.929 . S
C1581 C1573 1.433 . S
C1581 N1583 1.384 . S
N1582 C1578 1.427 1_565 S
N1582 C1579 1.384 . S
N1583 C1575 1.427 . S
N1583 C1581 1.384 . S
H1584 C1590 0.930 . S
H1585 C1594 0.930 . S
H1586 C1599 0.929 . S
H1587 C1597 0.929 . S
H1588 C1592 0.929 . S
H1589 C1598 0.929 . S
C1590 H1584 0.930 . S
C1590 C1591 1.367 . S
C1590 C1598 1.378 . S
C1591 C1590 1.367 . S
C1591 C1599 1.433 . S
C1592 H1588 0.929 . S
C1592 C1594 1.378 . S
C1592 C1596 1.350 . S
C1593 C1596 1.463 . S
C1593 C1598 1.350 . S
C1593 N1601 1.427 . S
C1594 H1585 0.930 . S
C1594 C1592 1.378 . S
C1594 C1595 1.367 . S
C1595 C1594 1.367 . S
C1595 C1597 1.433 . S
C1596 C1592 1.350 . S
C1596 C1593 1.463 . S
C1596 N1600 1.427 . S
C1597 H1587 0.929 . S
C1597 C1595 1.433 . S
C1597 N1600 1.384 . S
C1598 H1589 0.929 . S
C1598 C1590 1.378 . S
C1598 C1593 1.350 . S
C1599 H1586 0.929 . S
C1599 C1591 1.433 . S
C1599 N1601 1.384 . S
N1600 C1596 1.427 . S
N1600 C1597 1.384 . S
N1601 C1593 1.427 . S
N1601 C1599 1.384 . S
H1602 C1608 0.930 . S
H1603 C1612 0.930 . S
H1604 C1617 0.929 . S
H1605 C1615 0.929 . S
H1606 C1610 0.929 . S
H1607 C1616 0.929 . S
C1608 H1602 0.930 . S
C1608 C1609 1.367 . S
C1608 C1616 1.378 . S
C1609 C1608 1.367 . S
C1609 C1617 1.433 . S
C1610 H1606 0.929 . S
C1610 C1612 1.378 1_554 S
C1610 C1614 1.350 . S
C1611 C1614 1.463 . S
C1611 C1616 1.350 . S
C1611 N1619 1.427 . S
C1612 H1603 0.930 . S
C1612 C1610 1.378 1_556 S
C1612 C1613 1.367 . S
C1613 C1612 1.367 . S
C1613 C1615 1.433 . S
C1614 C1610 1.350 . S
C1614 C1611 1.463 . S
C1614 N1618 1.427 1_554 S
C1615 H1605 0.929 . S
C1615 C1613 1.433 . S
C1615 N1618 1.384 . S
C1616 H1607 0.929 . S
C1616 C1608 1.378 . S
C1616 C1611 1.350 . S
C1617 H1604 0.929 . S
C1617 C1609 1.433 . S
C1617 N1619 1.384 . S
N1618 C1614 1.427 1_556 S
N1618 C1615 1.384 . S
N1619 C1611 1.427 . S
N1619 C1617 1.384 . S
H1620 C1626 0.930 . S
H1621 C1630 0.930 . S
H1622 C1635 0.929 . S
H1623 C1633 0.929 . S
H1624 C1628 0.929 . S
H1625 C1634 0.929 . S
C1626 H1620 0.930 . S
C1626 C1627 1.367 . S
C1626 C1634 1.378 . S
C1627 C1626 1.367 . S
C1627 C1635 1.433 . S
C1628 H1624 0.929 . S
C1628 C1630 1.378 . S
C1628 C1632 1.350 . S
C1629 C1632 1.463 . S
C1629 C1634 1.350 . S
C1629 N1637 1.427 . S
C1630 H1621 0.930 . S
C1630 C1628 1.378 . S
C1630 C1631 1.367 . S
C1631 C1630 1.367 . S
C1631 C1633 1.433 . S
C1632 C1628 1.350 . S
C1632 C1629 1.463 . S
C1632 N1636 1.427 . S
C1633 H1623 0.929 . S
C1633 C1631 1.433 . S
C1633 N1636 1.384 . S
C1634 H1625 0.929 . S
C1634 C1626 1.378 . S
C1634 C1629 1.350 . S
C1635 H1622 0.929 . S
C1635 C1627 1.433 . S
C1635 N1637 1.384 . S
N1636 C1632 1.427 . S
N1636 C1633 1.384 . S
N1637 C1629 1.427 . S
N1637 C1635 1.384 . S
H1638 C1644 0.930 . S
H1639 C1648 0.930 . S
H1640 C1653 0.929 . S
H1641 C1651 0.929 . S
H1642 C1646 0.929 . S
H1643 C1652 0.929 . S
C1644 H1638 0.930 . S
C1644 C1645 1.367 . S
C1644 C1652 1.378 1_554 S
C1645 C1644 1.367 . S
C1645 C1653 1.433 . S
C1646 H1642 0.929 . S
C1646 C1648 1.378 . S
C1646 C1650 1.350 . S
C1647 C1650 1.463 . S
C1647 C1652 1.350 . S
C1647 N1655 1.427 1_556 S
C1648 H1639 0.930 . S
C1648 C1646 1.378 . S
C1648 C1649 1.367 . S
C1649 C1648 1.367 . S
C1649 C1651 1.433 . S
C1650 C1646 1.350 . S
C1650 C1647 1.463 . S
C1650 N1654 1.427 . S
C1651 H1641 0.929 . S
C1651 C1649 1.433 . S
C1651 N1654 1.384 . S
C1652 H1643 0.929 . S
C1652 C1644 1.378 1_556 S
C1652 C1647 1.350 . S
C1653 H1640 0.929 . S
C1653 C1645 1.433 . S
C1653 N1655 1.384 . S
N1654 C1650 1.427 . S
N1654 C1651 1.384 . S
N1655 C1647 1.427 1_554 S
N1655 C1653 1.384 . S
H1656 C1662 0.930 . S
H1657 C1666 0.930 . S
H1658 C1671 0.929 . S
H1659 C1669 0.929 . S
H1660 C1664 0.929 . S
H1661 C1670 0.929 . S
C1662 H1656 0.930 . S
C1662 C1663 1.367 . S
C1662 C1670 1.378 . S
C1663 C1662 1.367 . S
C1663 C1671 1.433 . S
C1664 H1660 0.929 . S
C1664 C1666 1.378 . S
C1664 C1668 1.350 . S
C1665 C1668 1.463 . S
C1665 C1670 1.350 . S
C1665 N1673 1.427 . S
C1666 H1657 0.930 . S
C1666 C1664 1.378 . S
C1666 C1667 1.367 . S
C1667 C1666 1.367 . S
C1667 C1669 1.433 . S
C1668 C1664 1.350 . S
C1668 C1665 1.463 . S
C1668 N1672 1.427 . S
C1669 H1659 0.929 . S
C1669 C1667 1.433 . S
C1669 N1672 1.384 . S
C1670 H1661 0.929 . S
C1670 C1662 1.378 . S
C1670 C1665 1.350 . S
C1671 H1658 0.929 . S
C1671 C1663 1.433 . S
C1671 N1673 1.384 . S
N1672 C1668 1.427 . S
N1672 C1669 1.384 . S
N1673 C1665 1.427 . S
N1673 C1671 1.384 . S
H1674 C1680 0.930 . S
H1675 C1684 0.930 . S
H1676 C1689 0.929 . S
H1677 C1687 0.929 . S
H1678 C1682 0.929 . S
H1679 C1688 0.917 1_455 S
C1680 H1674 0.930 . S
C1680 C1681 1.367 . S
C1680 C1688 1.407 . S
C1681 C1680 1.367 . S
C1681 C1689 1.433 . S
C1682 H1678 0.929 . S
C1682 C1684 1.378 . S
C1682 C1686 1.350 . S
C1683 C1686 1.463 . S
C1683 C1688 1.334 1_455 S
C1683 N1691 1.427 . S
C1684 H1675 0.930 . S
C1684 C1682 1.378 . S
C1684 C1685 1.367 . S
C1685 C1684 1.367 . S
C1685 C1687 1.433 . S
C1686 C1682 1.350 . S
C1686 C1683 1.463 . S
C1686 N1690 1.427 . S
C1687 H1677 0.929 . S
C1687 C1685 1.433 . S
C1687 N1690 1.384 . S
C1688 H1679 0.917 1_655 S
C1688 C1680 1.407 . S
C1688 C1683 1.334 1_655 S
C1689 H1676 0.929 . S
C1689 C1681 1.433 . S
C1689 N1691 1.384 1_655 S
N1690 C1686 1.427 . S
N1690 C1687 1.384 . S
N1691 C1683 1.427 . S
N1691 C1689 1.384 1_455 S
H1692 C1698 0.930 . S
H1693 C1702 0.930 . S
H1694 C1707 0.929 . S
H1695 C1705 0.929 . S
H1696 C1700 0.929 . S
H1697 C1706 0.929 . S
C1698 H1692 0.930 . S
C1698 C1699 1.367 . S
C1698 C1706 1.378 . S
C1699 C1698 1.367 . S
C1699 C1707 1.433 . S
C1700 H1696 0.929 . S
C1700 C1702 1.378 . S
C1700 C1704 1.350 . S
C1701 C1704 1.463 . S
C1701 C1706 1.350 . S
C1701 N1709 1.427 . S
C1702 H1693 0.930 . S
C1702 C1700 1.378 . S
C1702 C1703 1.367 . S
C1703 C1702 1.367 . S
C1703 C1705 1.433 . S
C1704 C1700 1.350 . S
C1704 C1701 1.463 . S
C1704 N1708 1.427 . S
C1705 H1695 0.929 . S
C1705 C1703 1.433 . S
C1705 N1708 1.384 . S
C1706 H1697 0.929 . S
C1706 C1698 1.378 . S
C1706 C1701 1.350 . S
C1707 H1694 0.929 . S
C1707 C1699 1.433 . S
C1707 N1709 1.384 . S
N1708 C1704 1.427 . S
N1708 C1705 1.384 . S
N1709 C1701 1.427 . S
N1709 C1707 1.384 . S
H1710 C1716 0.930 . S
H1711 C1720 0.930 . S
H1712 C1725 0.929 . S
H1713 C1723 0.929 . S
H1714 C1718 0.929 . S
H1715 C1724 0.929 . S
C1716 H1710 0.930 . S
C1716 C1717 1.367 . S
C1716 C1724 1.378 . S
C1717 C1716 1.367 . S
C1717 C1725 1.433 . S
C1718 H1714 0.929 . S
C1718 C1720 1.378 1_655 S
C1718 C1722 1.350 . S
C1719 C1722 1.463 . S
C1719 C1724 1.350 . S
C1719 N1727 1.427 . S
C1720 H1711 0.930 . S
C1720 C1718 1.378 1_455 S
C1720 C1721 1.367 . S
C1721 C1720 1.367 . S
C1721 C1723 1.433 . S
C1722 C1718 1.350 . S
C1722 C1719 1.463 . S
C1722 N1726 1.413 1_655 S
C1723 H1713 0.929 . S
C1723 C1721 1.433 . S
C1723 N1726 1.410 . S
C1724 H1715 0.929 . S
C1724 C1716 1.378 . S
C1724 C1719 1.350 . S
C1725 H1712 0.929 . S
C1725 C1717 1.433 . S
C1725 N1727 1.384 . S
N1726 C1722 1.413 1_455 S
N1726 C1723 1.410 . S
N1727 C1719 1.427 . S
N1727 C1725 1.384 . S
H1728 C1734 0.930 . S
H1729 C1738 0.930 . S
H1730 C1743 0.929 . S
H1731 C1741 0.929 . S
H1732 C1736 0.929 . S
H1733 C1742 0.929 . S
C1734 H1728 0.930 . S
C1734 C1735 1.367 . S
C1734 C1742 1.378 . S
C1735 C1734 1.367 . S
C1735 C1743 1.433 . S
C1736 H1732 0.929 . S
C1736 C1738 1.378 . S
C1736 C1740 1.350 . S
C1737 C1740 1.463 . S
C1737 C1742 1.350 . S
C1737 N1745 1.427 . S
C1738 H1729 0.930 . S
C1738 C1736 1.378 . S
C1738 C1739 1.367 . S
C1739 C1738 1.367 . S
C1739 C1741 1.433 . S
C1740 C1736 1.350 . S
C1740 C1737 1.463 . S
C1740 N1744 1.427 . S
C1741 H1731 0.929 . S
C1741 C1739 1.433 . S
C1741 N1744 1.384 . S
C1742 H1733 0.929 . S
C1742 C1734 1.378 . S
C1742 C1737 1.350 . S
C1743 H1730 0.929 . S
C1743 C1735 1.433 . S
C1743 N1745 1.384 . S
N1744 C1740 1.427 . S
N1744 C1741 1.384 . S
N1745 C1737 1.427 . S
N1745 C1743 1.384 . S
H1746 C1752 0.930 . S
H1747 C1756 0.930 . S
H1748 C1761 0.929 . S
H1749 C1759 0.929 . S
H1750 C1754 0.929 . S
H1751 C1760 0.929 . S
C1752 H1746 0.930 . S
C1752 C1753 1.367 . S
C1752 C1760 1.378 . S
C1753 C1752 1.367 . S
C1753 C1761 1.433 . S
C1754 H1750 0.929 . S
C1754 C1756 1.378 . S
C1754 C1758 1.350 . S
C1755 C1758 1.463 . S
C1755 C1760 1.350 . S
C1755 N1763 1.427 . S
C1756 H1747 0.930 . S
C1756 C1754 1.378 . S
C1756 C1757 1.367 . S
C1757 C1756 1.367 . S
C1757 C1759 1.433 . S
C1758 C1754 1.350 . S
C1758 C1755 1.463 . S
C1758 N1762 1.427 . S
C1759 H1749 0.929 . S
C1759 C1757 1.433 . S
C1759 N1762 1.384 . S
C1760 H1751 0.929 . S
C1760 C1752 1.378 . S
C1760 C1755 1.350 . S
C1761 H1748 0.929 . S
C1761 C1753 1.433 . S
C1761 N1763 1.384 . S
N1762 C1758 1.427 . S
N1762 C1759 1.384 . S
N1763 C1755 1.427 . S
N1763 C1761 1.384 . S
H1764 C1770 0.930 . S
H1765 C1774 0.930 . S
H1766 C1779 0.929 . S
H1767 C1777 0.929 . S
H1768 C1772 0.929 . S
H1769 C1778 0.929 . S
C1770 H1764 0.930 . S
C1770 C1771 1.367 . S
C1770 C1778 1.378 . S
C1771 C1770 1.367 . S
C1771 C1779 1.433 . S
C1772 H1768 0.929 . S
C1772 C1774 1.378 . S
C1772 C1776 1.350 . S
C1773 C1776 1.463 . S
C1773 C1778 1.350 . S
C1773 N1781 1.427 . S
C1774 H1765 0.930 . S
C1774 C1772 1.378 . S
C1774 C1775 1.367 . S
C1775 C1774 1.367 . S
C1775 C1777 1.433 . S
C1776 C1772 1.350 . S
C1776 C1773 1.463 . S
C1776 N1780 1.427 . S
C1777 H1767 0.929 . S
C1777 C1775 1.433 . S
C1777 N1780 1.384 . S
C1778 H1769 0.929 . S
C1778 C1770 1.378 . S
C1778 C1773 1.350 . S
C1779 H1766 0.929 . S
C1779 C1771 1.433 . S
C1779 N1781 1.384 . S
N1780 C1776 1.427 . S
N1780 C1777 1.384 . S
N1781 C1773 1.427 . S
N1781 C1779 1.384 . S
H1782 C1788 0.930 . S
H1783 C1792 0.930 . S
H1784 C1797 0.929 . S
H1785 C1795 0.929 . S
H1786 C1790 0.929 . S
H1787 C1796 0.929 . S
C1788 H1782 0.930 . S
C1788 C1789 1.367 . S
C1788 C1796 1.378 . S
C1789 C1788 1.367 . S
C1789 C1797 1.433 . S
C1790 H1786 0.929 . S
C1790 C1792 1.378 . S
C1790 C1794 1.350 . S
C1791 C1794 1.463 . S
C1791 C1796 1.350 . S
C1791 N1799 1.427 . S
C1792 H1783 0.930 . S
C1792 C1790 1.378 . S
C1792 C1793 1.367 . S
C1793 C1792 1.367 . S
C1793 C1795 1.433 . S
C1794 C1790 1.350 . S
C1794 C1791 1.463 . S
C1794 N1798 1.427 . S
C1795 H1785 0.929 . S
C1795 C1793 1.433 . S
C1795 N1798 1.384 . S
C1796 H1787 0.929 . S
C1796 C1788 1.378 . S
C1796 C1791 1.350 . S
C1797 H1784 0.929 . S
C1797 C1789 1.433 . S
C1797 N1799 1.384 . S
N1798 C1794 1.427 . S
N1798 C1795 1.384 . S
N1799 C1791 1.427 . S
N1799 C1797 1.384 . S
H1800 C1806 0.930 . S
H1801 C1810 0.930 . S
H1802 C1815 0.929 . S
H1803 C1813 0.929 . S
H1804 C1808 0.929 . S
H1805 C1814 0.929 . S
C1806 H1800 0.930 . S
C1806 C1807 1.367 . S
C1806 C1814 1.378 . S
C1807 C1806 1.367 . S
C1807 C1815 1.433 . S
C1808 H1804 0.929 . S
C1808 C1810 1.378 . S
C1808 C1812 1.350 . S
C1809 C1812 1.463 . S
C1809 C1814 1.350 . S
C1809 N1817 1.427 . S
C1810 H1801 0.930 . S
C1810 C1808 1.378 . S
C1810 C1811 1.367 . S
C1811 C1810 1.367 . S
C1811 C1813 1.433 . S
C1812 C1808 1.350 . S
C1812 C1809 1.463 . S
C1812 N1816 1.427 . S
C1813 H1803 0.929 . S
C1813 C1811 1.433 . S
C1813 N1816 1.384 . S
C1814 H1805 0.929 . S
C1814 C1806 1.378 . S
C1814 C1809 1.350 . S
C1815 H1802 0.929 . S
C1815 C1807 1.433 . S
C1815 N1817 1.384 . S
N1816 C1812 1.427 . S
N1816 C1813 1.384 . S
N1817 C1809 1.427 . S
N1817 C1815 1.384 . S
H1818 C1824 0.930 . S
H1819 C1828 0.930 . S
H1820 C1833 0.929 . S
H1821 C1831 0.929 . S
H1822 C1826 0.929 . S
H1823 C1832 0.929 . S
C1824 H1818 0.930 . S
C1824 C1825 1.367 . S
C1824 C1832 1.378 . S
C1825 C1824 1.367 . S
C1825 C1833 1.433 . S
C1826 H1822 0.929 . S
C1826 C1828 1.378 . S
C1826 C1830 1.350 . S
C1827 C1830 1.463 . S
C1827 C1832 1.350 . S
C1827 N1835 1.427 . S
C1828 H1819 0.930 . S
C1828 C1826 1.378 . S
C1828 C1829 1.367 . S
C1829 C1828 1.367 . S
C1829 C1831 1.433 . S
C1830 C1826 1.350 . S
C1830 C1827 1.463 . S
C1830 N1834 1.427 . S
C1831 H1821 0.929 . S
C1831 C1829 1.433 . S
C1831 N1834 1.384 . S
C1832 H1823 0.929 . S
C1832 C1824 1.378 . S
C1832 C1827 1.350 . S
C1833 H1820 0.929 . S
C1833 C1825 1.433 . S
C1833 N1835 1.384 . S
N1834 C1830 1.427 . S
N1834 C1831 1.384 . S
N1835 C1827 1.427 . S
N1835 C1833 1.384 . S
H1836 C1842 0.930 . S
H1837 C1846 0.930 . S
H1838 C1851 0.929 . S
H1839 C1849 0.929 . S
H1840 C1844 0.929 . S
H1841 C1850 0.929 . S
C1842 H1836 0.930 . S
C1842 C1843 1.367 . S
C1842 C1850 1.378 . S
C1843 C1842 1.367 . S
C1843 C1851 1.433 . S
C1844 H1840 0.929 . S
C1844 C1846 1.378 . S
C1844 C1848 1.350 . S
C1845 C1848 1.463 . S
C1845 C1850 1.350 . S
C1845 N1853 1.427 . S
C1846 H1837 0.930 . S
C1846 C1844 1.378 . S
C1846 C1847 1.367 . S
C1847 C1846 1.367 . S
C1847 C1849 1.433 . S
C1848 C1844 1.350 . S
C1848 C1845 1.463 . S
C1848 N1852 1.427 . S
C1849 H1839 0.929 . S
C1849 C1847 1.433 . S
C1849 N1852 1.384 . S
C1850 H1841 0.929 . S
C1850 C1842 1.378 . S
C1850 C1845 1.350 . S
C1851 H1838 0.929 . S
C1851 C1843 1.433 . S
C1851 N1853 1.384 . S
N1852 C1848 1.427 . S
N1852 C1849 1.384 . S
N1853 C1845 1.427 . S
N1853 C1851 1.384 . S
H1854 C1860 0.930 . S
H1855 C1864 0.930 . S
H1856 C1869 0.929 . S
H1857 C1867 0.929 . S
H1858 C1862 0.929 . S
H1859 C1868 0.929 . S
C1860 H1854 0.930 . S
C1860 C1861 1.367 . S
C1860 C1868 1.378 . S
C1861 C1860 1.367 . S
C1861 C1869 1.433 . S
C1862 H1858 0.929 . S
C1862 C1864 1.378 . S
C1862 C1866 1.350 . S
C1863 C1866 1.463 . S
C1863 C1868 1.350 . S
C1863 N1871 1.427 . S
C1864 H1855 0.930 . S
C1864 C1862 1.378 . S
C1864 C1865 1.367 . S
C1865 C1864 1.367 . S
C1865 C1867 1.433 . S
C1866 C1862 1.350 . S
C1866 C1863 1.463 . S
C1866 N1870 1.427 . S
C1867 H1857 0.929 . S
C1867 C1865 1.433 . S
C1867 N1870 1.384 . S
C1868 H1859 0.929 . S
C1868 C1860 1.378 . S
C1868 C1863 1.350 . S
C1869 H1856 0.929 . S
C1869 C1861 1.433 . S
C1869 N1871 1.384 . S
N1870 C1866 1.427 . S
N1870 C1867 1.384 . S
N1871 C1863 1.427 . S
N1871 C1869 1.384 . S
H1872 C1878 0.930 . S
H1873 C1882 0.930 . S
H1874 C1887 0.929 . S
H1875 C1885 0.929 . S
H1876 C1880 0.929 . S
H1877 C1886 0.929 . S
C1878 H1872 0.930 . S
C1878 C1879 1.367 . S
C1878 C1886 1.378 . S
C1879 C1878 1.367 . S
C1879 C1887 1.433 . S
C1880 H1876 0.929 . S
C1880 C1882 1.378 . S
C1880 C1884 1.350 . S
C1881 C1884 1.463 . S
C1881 C1886 1.350 . S
C1881 N1889 1.427 . S
C1882 H1873 0.930 . S
C1882 C1880 1.378 . S
C1882 C1883 1.367 . S
C1883 C1882 1.367 . S
C1883 C1885 1.433 . S
C1884 C1880 1.350 . S
C1884 C1881 1.463 . S
C1884 N1888 1.427 . S
C1885 H1875 0.929 . S
C1885 C1883 1.433 . S
C1885 N1888 1.384 . S
C1886 H1877 0.929 . S
C1886 C1878 1.378 . S
C1886 C1881 1.350 . S
C1887 H1874 0.929 . S
C1887 C1879 1.433 . S
C1887 N1889 1.384 . S
N1888 C1884 1.427 . S
N1888 C1885 1.384 . S
N1889 C1881 1.427 . S
N1889 C1887 1.384 . S
H1890 C1896 0.930 . S
H1891 C1900 0.930 . S
H1892 C1905 0.929 . S
H1893 C1903 0.929 . S
H1894 C1898 0.929 . S
H1895 C1904 0.929 . S
C1896 H1890 0.930 . S
C1896 C1897 1.367 . S
C1896 C1904 1.378 . S
C1897 C1896 1.367 . S
C1897 C1905 1.433 . S
C1898 H1894 0.929 . S
C1898 C1900 1.378 . S
C1898 C1902 1.350 . S
C1899 C1902 1.463 . S
C1899 C1904 1.350 . S
C1899 N1907 1.427 . S
C1900 H1891 0.930 . S
C1900 C1898 1.378 . S
C1900 C1901 1.367 . S
C1901 C1900 1.367 . S
C1901 C1903 1.433 . S
C1902 C1898 1.350 . S
C1902 C1899 1.463 . S
C1902 N1906 1.427 . S
C1903 H1893 0.929 . S
C1903 C1901 1.433 . S
C1903 N1906 1.384 . S
C1904 H1895 0.929 . S
C1904 C1896 1.378 . S
C1904 C1899 1.350 . S
C1905 H1892 0.929 . S
C1905 C1897 1.433 . S
C1905 N1907 1.384 . S
N1906 C1902 1.427 . S
N1906 C1903 1.384 . S
N1907 C1899 1.427 . S
N1907 C1905 1.384 . S
H1908 C1914 0.930 . S
H1909 C1918 0.930 . S
H1910 C1923 0.929 . S
H1911 C1921 0.929 . S
H1912 C1916 0.929 . S
H1913 C1922 0.929 . S
C1914 H1908 0.930 . S
C1914 C1915 1.367 . S
C1914 C1922 1.378 . S
C1915 C1914 1.367 . S
C1915 C1923 1.433 . S
C1916 H1912 0.929 . S
C1916 C1918 1.378 . S
C1916 C1920 1.350 . S
C1917 C1920 1.463 . S
C1917 C1922 1.350 . S
C1917 N1925 1.427 . S
C1918 H1909 0.930 . S
C1918 C1916 1.378 . S
C1918 C1919 1.367 . S
C1919 C1918 1.367 . S
C1919 C1921 1.433 . S
C1920 C1916 1.350 . S
C1920 C1917 1.463 . S
C1920 N1924 1.427 . S
C1921 H1911 0.929 . S
C1921 C1919 1.433 . S
C1921 N1924 1.384 . S
C1922 H1913 0.929 . S
C1922 C1914 1.378 . S
C1922 C1917 1.350 . S
C1923 H1910 0.929 . S
C1923 C1915 1.433 . S
C1923 N1925 1.384 . S
N1924 C1920 1.427 . S
N1924 C1921 1.384 . S
N1925 C1917 1.427 . S
N1925 C1923 1.384 . S
H1926 C1932 0.930 . S
H1927 C1936 0.930 . S
H1928 C1941 0.929 . S
H1929 C1939 0.929 . S
H1930 C1934 0.929 . S
H1931 C1940 0.929 . S
C1932 H1926 0.930 . S
C1932 C1933 1.367 . S
C1932 C1940 1.378 . S
C1933 C1932 1.367 . S
C1933 C1941 1.433 . S
C1934 H1930 0.929 . S
C1934 C1936 1.378 . S
C1934 C1938 1.350 . S
C1935 C1938 1.463 . S
C1935 C1940 1.350 . S
C1935 N1943 1.427 . S
C1936 H1927 0.930 . S
C1936 C1934 1.378 . S
C1936 C1937 1.367 . S
C1937 C1936 1.367 . S
C1937 C1939 1.433 . S
C1938 C1934 1.350 . S
C1938 C1935 1.463 . S
C1938 N1942 1.427 . S
C1939 H1929 0.929 . S
C1939 C1937 1.433 . S
C1939 N1942 1.384 . S
C1940 H1931 0.929 . S
C1940 C1932 1.378 . S
C1940 C1935 1.350 . S
C1941 H1928 0.929 . S
C1941 C1933 1.433 . S
C1941 N1943 1.384 . S
N1942 C1938 1.427 . S
N1942 C1939 1.384 . S
N1943 C1935 1.427 . S
N1943 C1941 1.384 . S
H1944 C1950 0.930 . S
H1945 C1954 0.930 . S
H1946 C1959 0.929 . S
H1947 C1957 0.929 . S
H1948 C1952 0.929 . S
H1949 C1958 0.929 . S
C1950 H1944 0.930 . S
C1950 C1951 1.367 . S
C1950 C1958 1.378 . S
C1951 C1950 1.367 . S
C1951 C1959 1.433 . S
C1952 H1948 0.929 . S
C1952 C1954 1.378 . S
C1952 C1956 1.350 . S
C1953 C1956 1.463 . S
C1953 C1958 1.350 . S
C1953 N1961 1.427 . S
C1954 H1945 0.930 . S
C1954 C1952 1.378 . S
C1954 C1955 1.367 . S
C1955 C1954 1.367 . S
C1955 C1957 1.433 . S
C1956 C1952 1.350 . S
C1956 C1953 1.463 . S
C1956 N1960 1.427 . S
C1957 H1947 0.929 . S
C1957 C1955 1.433 . S
C1957 N1960 1.384 . S
C1958 H1949 0.929 . S
C1958 C1950 1.378 . S
C1958 C1953 1.350 . S
C1959 H1946 0.929 . S
C1959 C1951 1.433 . S
C1959 N1961 1.384 . S
N1960 C1956 1.427 . S
N1960 C1957 1.384 . S
N1961 C1953 1.427 . S
N1961 C1959 1.384 . S
H1962 C1968 0.930 . S
H1963 C1972 0.930 . S
H1964 C1977 0.929 . S
H1965 C1975 0.929 . S
H1966 C1970 0.929 . S
H1967 C1976 0.929 . S
C1968 H1962 0.930 . S
C1968 C1969 1.367 . S
C1968 C1976 1.378 . S
C1969 C1968 1.367 . S
C1969 C1977 1.433 . S
C1970 H1966 0.929 . S
C1970 C1972 1.378 . S
C1970 C1974 1.350 . S
C1971 C1974 1.463 . S
C1971 C1976 1.350 . S
C1971 N1979 1.427 . S
C1972 H1963 0.930 . S
C1972 C1970 1.378 . S
C1972 C1973 1.367 . S
C1973 C1972 1.367 . S
C1973 C1975 1.433 . S
C1974 C1970 1.350 . S
C1974 C1971 1.463 . S
C1974 N1978 1.427 . S
C1975 H1965 0.929 . S
C1975 C1973 1.433 . S
C1975 N1978 1.384 . S
C1976 H1967 0.929 . S
C1976 C1968 1.378 . S
C1976 C1971 1.350 . S
C1977 H1964 0.929 . S
C1977 C1969 1.433 . S
C1977 N1979 1.384 . S
N1978 C1974 1.427 . S
N1978 C1975 1.384 . S
N1979 C1971 1.427 . S
N1979 C1977 1.384 . S
H1980 C1986 0.930 . S
H1981 C1990 0.930 . S
H1982 C1995 0.929 . S
H1983 C1993 0.929 . S
H1984 C1988 0.929 . S
H1985 C1994 0.929 . S
C1986 H1980 0.930 . S
C1986 C1987 1.367 . S
C1986 C1994 1.378 . S
C1987 C1986 1.367 . S
C1987 C1995 1.433 . S
C1988 H1984 0.929 . S
C1988 C1990 1.378 . S
C1988 C1992 1.350 . S
C1989 C1992 1.463 . S
C1989 C1994 1.350 . S
C1989 N1997 1.427 . S
C1990 H1981 0.930 . S
C1990 C1988 1.378 . S
C1990 C1991 1.367 . S
C1991 C1990 1.367 . S
C1991 C1993 1.433 . S
C1992 C1988 1.350 . S
C1992 C1989 1.463 . S
C1992 N1996 1.427 . S
C1993 H1983 0.929 . S
C1993 C1991 1.433 . S
C1993 N1996 1.384 . S
C1994 H1985 0.929 . S
C1994 C1986 1.378 . S
C1994 C1989 1.350 . S
C1995 H1982 0.929 . S
C1995 C1987 1.433 . S
C1995 N1997 1.384 . S
N1996 C1992 1.427 . S
N1996 C1993 1.384 . S
N1997 C1989 1.427 . S
N1997 C1995 1.384 . S
H1998 C2004 0.930 . S
H1999 C2008 0.930 . S
H2000 C2013 0.929 . S
H2001 C2011 0.929 . S
H2002 C2006 0.929 . S
H2003 C2012 0.929 . S
C2004 H1998 0.930 . S
C2004 C2005 1.367 . S
C2004 C2012 1.378 . S
C2005 C2004 1.367 . S
C2005 C2013 1.433 . S
C2006 H2002 0.929 . S
C2006 C2008 1.378 . S
C2006 C2010 1.350 . S
C2007 C2010 1.463 . S
C2007 C2012 1.350 . S
C2007 N2015 1.427 . S
C2008 H1999 0.930 . S
C2008 C2006 1.378 . S
C2008 C2009 1.367 . S
C2009 C2008 1.367 . S
C2009 C2011 1.433 . S
C2010 C2006 1.350 . S
C2010 C2007 1.463 . S
C2010 N2014 1.427 . S
C2011 H2001 0.929 . S
C2011 C2009 1.433 . S
C2011 N2014 1.384 . S
C2012 H2003 0.929 . S
C2012 C2004 1.378 . S
C2012 C2007 1.350 . S
C2013 H2000 0.929 . S
C2013 C2005 1.433 . S
C2013 N2015 1.384 . S
N2014 C2010 1.427 . S
N2014 C2011 1.384 . S
N2015 C2007 1.427 . S
N2015 C2013 1.384 . S
H2016 C2022 0.930 . S
H2017 C2026 0.930 . S
H2018 C2031 0.929 . S
H2019 C2029 0.929 . S
H2020 C2024 0.929 . S
H2021 C2030 0.929 . S
C2022 H2016 0.930 . S
C2022 C2023 1.367 . S
C2022 C2030 1.378 . S
C2023 C2022 1.367 . S
C2023 C2031 1.433 . S
C2024 H2020 0.929 . S
C2024 C2026 1.378 . S
C2024 C2028 1.350 . S
C2025 C2028 1.463 . S
C2025 C2030 1.350 . S
C2025 N2033 1.427 . S
C2026 H2017 0.930 . S
C2026 C2024 1.378 . S
C2026 C2027 1.367 . S
C2027 C2026 1.367 . S
C2027 C2029 1.433 . S
C2028 C2024 1.350 . S
C2028 C2025 1.463 . S
C2028 N2032 1.427 . S
C2029 H2019 0.929 . S
C2029 C2027 1.433 . S
C2029 N2032 1.384 . S
C2030 H2021 0.929 . S
C2030 C2022 1.378 . S
C2030 C2025 1.350 . S
C2031 H2018 0.929 . S
C2031 C2023 1.433 . S
C2031 N2033 1.384 . S
N2032 C2028 1.427 . S
N2032 C2029 1.384 . S
N2033 C2025 1.427 . S
N2033 C2031 1.384 . S
H2034 C2040 0.930 . S
H2035 C2044 0.930 . S
H2036 C2049 0.929 . S
H2037 C2047 0.929 . S
H2038 C2042 0.929 . S
H2039 C2048 0.929 . S
C2040 H2034 0.930 . S
C2040 C2041 1.367 . S
C2040 C2048 1.378 . S
C2041 C2040 1.367 . S
C2041 C2049 1.433 . S
C2042 H2038 0.929 . S
C2042 C2044 1.378 . S
C2042 C2046 1.350 . S
C2043 C2046 1.463 . S
C2043 C2048 1.350 . S
C2043 N2051 1.427 . S
C2044 H2035 0.930 . S
C2044 C2042 1.378 . S
C2044 C2045 1.367 . S
C2045 C2044 1.367 . S
C2045 C2047 1.433 . S
C2046 C2042 1.350 . S
C2046 C2043 1.463 . S
C2046 N2050 1.427 . S
C2047 H2037 0.929 . S
C2047 C2045 1.433 . S
C2047 N2050 1.384 . S
C2048 H2039 0.929 . S
C2048 C2040 1.378 . S
C2048 C2043 1.350 . S
C2049 H2036 0.929 . S
C2049 C2041 1.433 . S
C2049 N2051 1.384 . S
N2050 C2046 1.427 . S
N2050 C2047 1.384 . S
N2051 C2043 1.427 . S
N2051 C2049 1.384 . S
H2052 C2058 0.930 . S
H2053 C2062 0.930 . S
H2054 C2067 0.929 . S
H2055 C2065 0.929 . S
H2056 C2060 0.929 . S
H2057 C2066 0.929 . S
C2058 H2052 0.930 . S
C2058 C2059 1.367 . S
C2058 C2066 1.378 . S
C2059 C2058 1.367 . S
C2059 C2067 1.433 . S
C2060 H2056 0.929 . S
C2060 C2062 1.378 . S
C2060 C2064 1.350 . S
C2061 C2064 1.463 . S
C2061 C2066 1.350 . S
C2061 N2069 1.427 . S
C2062 H2053 0.930 . S
C2062 C2060 1.378 . S
C2062 C2063 1.367 . S
C2063 C2062 1.367 . S
C2063 C2065 1.433 . S
C2064 C2060 1.350 . S
C2064 C2061 1.463 . S
C2064 N2068 1.427 . S
C2065 H2055 0.929 . S
C2065 C2063 1.433 . S
C2065 N2068 1.384 . S
C2066 H2057 0.929 . S
C2066 C2058 1.378 . S
C2066 C2061 1.350 . S
C2067 H2054 0.929 . S
C2067 C2059 1.433 . S
C2067 N2069 1.384 . S
N2068 C2064 1.427 . S
N2068 C2065 1.384 . S
N2069 C2061 1.427 . S
N2069 C2067 1.384 . S
H2070 C2076 0.930 . S
H2071 C2080 0.930 . S
H2072 C2085 0.929 . S
H2073 C2083 0.929 . S
H2074 C2078 0.929 . S
H2075 C2084 0.929 . S
C2076 H2070 0.930 . S
C2076 C2077 1.367 . S
C2076 C2084 1.378 . S
C2077 C2076 1.367 . S
C2077 C2085 1.433 . S
C2078 H2074 0.929 . S
C2078 C2080 1.378 . S
C2078 C2082 1.350 . S
C2079 C2082 1.463 . S
C2079 C2084 1.350 . S
C2079 N2087 1.427 . S
C2080 H2071 0.930 . S
C2080 C2078 1.378 . S
C2080 C2081 1.367 . S
C2081 C2080 1.367 . S
C2081 C2083 1.433 . S
C2082 C2078 1.350 . S
C2082 C2079 1.463 . S
C2082 N2086 1.427 . S
C2083 H2073 0.929 . S
C2083 C2081 1.433 . S
C2083 N2086 1.384 . S
C2084 H2075 0.929 . S
C2084 C2076 1.378 . S
C2084 C2079 1.350 . S
C2085 H2072 0.929 . S
C2085 C2077 1.433 . S
C2085 N2087 1.384 . S
N2086 C2082 1.427 . S
N2086 C2083 1.384 . S
N2087 C2079 1.427 . S
N2087 C2085 1.384 . S
H2088 C2094 0.930 . S
H2089 C2098 0.930 . S
H2090 C2103 0.929 . S
H2091 C2101 0.929 . S
H2092 C2096 0.929 . S
H2093 C2102 0.929 . S
C2094 H2088 0.930 . S
C2094 C2095 1.367 . S
C2094 C2102 1.378 . S
C2095 C2094 1.367 . S
C2095 C2103 1.433 . S
C2096 H2092 0.929 . S
C2096 C2098 1.378 . S
C2096 C2100 1.350 . S
C2097 C2100 1.463 . S
C2097 C2102 1.350 . S
C2097 N2105 1.427 . S
C2098 H2089 0.930 . S
C2098 C2096 1.378 . S
C2098 C2099 1.367 . S
C2099 C2098 1.367 . S
C2099 C2101 1.433 . S
C2100 C2096 1.350 . S
C2100 C2097 1.463 . S
C2100 N2104 1.427 . S
C2101 H2091 0.929 . S
C2101 C2099 1.433 . S
C2101 N2104 1.384 . S
C2102 H2093 0.929 . S
C2102 C2094 1.378 . S
C2102 C2097 1.350 . S
C2103 H2090 0.929 . S
C2103 C2095 1.433 . S
C2103 N2105 1.384 . S
N2104 C2100 1.427 . S
N2104 C2101 1.384 . S
N2105 C2097 1.427 . S
N2105 C2103 1.384 . S
H2106 C2112 0.930 . S
H2107 C2116 0.930 . S
H2108 C2121 0.929 . S
H2109 C2119 0.929 . S
H2110 C2114 0.929 . S
H2111 C2120 0.929 . S
C2112 H2106 0.930 . S
C2112 C2113 1.367 . S
C2112 C2120 1.378 . S
C2113 C2112 1.367 . S
C2113 C2121 1.433 . S
C2114 H2110 0.929 . S
C2114 C2116 1.378 . S
C2114 C2118 1.350 . S
C2115 C2118 1.463 . S
C2115 C2120 1.350 . S
C2115 N2123 1.427 . S
C2116 H2107 0.930 . S
C2116 C2114 1.378 . S
C2116 C2117 1.367 . S
C2117 C2116 1.367 . S
C2117 C2119 1.433 . S
C2118 C2114 1.350 . S
C2118 C2115 1.463 . S
C2118 N2122 1.427 . S
C2119 H2109 0.929 . S
C2119 C2117 1.433 . S
C2119 N2122 1.384 . S
C2120 H2111 0.929 . S
C2120 C2112 1.378 . S
C2120 C2115 1.350 . S
C2121 H2108 0.929 . S
C2121 C2113 1.433 . S
C2121 N2123 1.384 . S
N2122 C2118 1.427 . S
N2122 C2119 1.384 . S
N2123 C2115 1.427 . S
N2123 C2121 1.384 . S
H2124 C2130 0.930 . S
H2125 C2134 0.930 . S
H2126 C2139 0.929 . S
H2127 C2137 0.929 . S
H2128 C2132 0.929 . S
H2129 C2138 0.929 . S
C2130 H2124 0.930 . S
C2130 C2131 1.367 . S
C2130 C2138 1.378 . S
C2131 C2130 1.367 . S
C2131 C2139 1.433 . S
C2132 H2128 0.929 . S
C2132 C2134 1.378 . S
C2132 C2136 1.350 . S
C2133 C2136 1.463 . S
C2133 C2138 1.350 . S
C2133 N2141 1.427 . S
C2134 H2125 0.930 . S
C2134 C2132 1.378 . S
C2134 C2135 1.367 . S
C2135 C2134 1.367 . S
C2135 C2137 1.433 . S
C2136 C2132 1.350 . S
C2136 C2133 1.463 . S
C2136 N2140 1.427 . S
C2137 H2127 0.929 . S
C2137 C2135 1.433 . S
C2137 N2140 1.384 . S
C2138 H2129 0.929 . S
C2138 C2130 1.378 . S
C2138 C2133 1.350 . S
C2139 H2126 0.929 . S
C2139 C2131 1.433 . S
C2139 N2141 1.384 . S
N2140 C2136 1.427 . S
N2140 C2137 1.384 . S
N2141 C2133 1.427 . S
N2141 C2139 1.384 . S
H2142 C2148 0.930 . S
H2143 C2152 0.930 . S
H2144 C2157 0.929 . S
H2145 C2155 0.929 . S
H2146 C2150 0.929 . S
H2147 C2156 0.929 . S
C2148 H2142 0.930 . S
C2148 C2149 1.367 . S
C2148 C2156 1.378 . S
C2149 C2148 1.367 . S
C2149 C2157 1.433 . S
C2150 H2146 0.929 . S
C2150 C2152 1.378 . S
C2150 C2154 1.350 . S
C2151 C2154 1.463 . S
C2151 C2156 1.350 . S
C2151 N2159 1.427 . S
C2152 H2143 0.930 . S
C2152 C2150 1.378 . S
C2152 C2153 1.367 . S
C2153 C2152 1.367 . S
C2153 C2155 1.433 . S
C2154 C2150 1.350 . S
C2154 C2151 1.463 . S
C2154 N2158 1.427 . S
C2155 H2145 0.929 . S
C2155 C2153 1.433 . S
C2155 N2158 1.384 . S
C2156 H2147 0.929 . S
C2156 C2148 1.378 . S
C2156 C2151 1.350 . S
C2157 H2144 0.929 . S
C2157 C2149 1.433 . S
C2157 N2159 1.384 . S
N2158 C2154 1.427 . S
N2158 C2155 1.384 . S
N2159 C2151 1.427 . S
N2159 C2157 1.384 . S
H2160 C2166 0.930 . S
H2161 C2170 0.930 . S
H2162 C2175 0.929 . S
H2163 C2173 0.929 . S
H2164 C2168 0.929 . S
H2165 C2174 0.929 . S
C2166 H2160 0.930 . S
C2166 C2167 1.367 . S
C2166 C2174 1.378 . S
C2167 C2166 1.367 . S
C2167 C2175 1.433 . S
C2168 H2164 0.929 . S
C2168 C2170 1.378 . S
C2168 C2172 1.350 . S
C2169 C2172 1.463 . S
C2169 C2174 1.350 . S
C2169 N2177 1.427 . S
C2170 H2161 0.930 . S
C2170 C2168 1.378 . S
C2170 C2171 1.367 . S
C2171 C2170 1.367 . S
C2171 C2173 1.433 . S
C2172 C2168 1.350 . S
C2172 C2169 1.463 . S
C2172 N2176 1.427 . S
C2173 H2163 0.929 . S
C2173 C2171 1.433 . S
C2173 N2176 1.384 . S
C2174 H2165 0.929 . S
C2174 C2166 1.378 . S
C2174 C2169 1.350 . S
C2175 H2162 0.929 . S
C2175 C2167 1.433 . S
C2175 N2177 1.384 . S
N2176 C2172 1.427 . S
N2176 C2173 1.384 . S
N2177 C2169 1.427 . S
N2177 C2175 1.384 . S
H2178 C2184 0.930 . S
H2179 C2188 0.930 . S
H2180 C2193 0.929 . S
H2181 C2191 0.929 . S
H2182 C2186 0.929 . S
H2183 C2192 0.929 . S
C2184 H2178 0.930 . S
C2184 C2185 1.367 . S
C2184 C2192 1.378 . S
C2185 C2184 1.367 . S
C2185 C2193 1.433 . S
C2186 H2182 0.929 . S
C2186 C2188 1.378 . S
C2186 C2190 1.350 . S
C2187 C2190 1.463 . S
C2187 C2192 1.350 . S
C2187 N2195 1.427 . S
C2188 H2179 0.930 . S
C2188 C2186 1.378 . S
C2188 C2189 1.367 1_554 S
C2189 C2188 1.367 1_556 S
C2189 C2191 1.433 . S
C2190 C2186 1.350 . S
C2190 C2187 1.463 . S
C2190 N2194 1.427 . S
C2191 H2181 0.929 . S
C2191 C2189 1.433 . S
C2191 N2194 1.384 1_556 S
C2192 H2183 0.929 . S
C2192 C2184 1.378 . S
C2192 C2187 1.350 . S
C2193 H2180 0.929 . S
C2193 C2185 1.433 . S
C2193 N2195 1.384 . S
N2194 C2190 1.427 . S
N2194 C2191 1.384 1_554 S
N2195 C2187 1.427 . S
N2195 C2193 1.384 . S
H2196 C2202 0.930 . S
H2197 C2206 0.930 . S
H2198 C2211 0.929 . S
H2199 C2209 0.929 . S
H2200 C2204 0.929 . S
H2201 C2210 0.929 . S
C2202 H2196 0.930 . S
C2202 C2203 1.367 . S
C2202 C2210 1.378 . S
C2203 C2202 1.367 . S
C2203 C2211 1.433 . S
C2204 H2200 0.929 . S
C2204 C2206 1.378 . S
C2204 C2208 1.350 . S
C2205 C2208 1.463 . S
C2205 C2210 1.350 . S
C2205 N2213 1.427 . S
C2206 H2197 0.930 . S
C2206 C2204 1.378 . S
C2206 C2207 1.367 . S
C2207 C2206 1.367 . S
C2207 C2209 1.433 . S
C2208 C2204 1.350 . S
C2208 C2205 1.463 . S
C2208 N2212 1.427 . S
C2209 H2199 0.929 . S
C2209 C2207 1.433 . S
C2209 N2212 1.384 . S
C2210 H2201 0.929 . S
C2210 C2202 1.378 . S
C2210 C2205 1.350 . S
C2211 H2198 0.929 . S
C2211 C2203 1.433 . S
C2211 N2213 1.384 . S
N2212 C2208 1.427 . S
N2212 C2209 1.384 . S
N2213 C2205 1.427 . S
N2213 C2211 1.384 . S
H2214 C2220 0.930 . S
H2215 C2224 0.930 . S
H2216 C2229 0.929 . S
H2217 C2227 0.929 . S
H2218 C2222 0.929 . S
H2219 C2228 0.929 . S
C2220 H2214 0.930 . S
C2220 C2221 1.367 . S
C2220 C2228 1.378 1_554 S
C2221 C2220 1.367 . S
C2221 C2229 1.433 1_554 S
C2222 H2218 0.929 . S
C2222 C2224 1.378 . S
C2222 C2226 1.350 . S
C2223 C2226 1.463 . S
C2223 C2228 1.350 . S
C2223 N2231 1.427 . S
C2224 H2215 0.930 . S
C2224 C2222 1.378 . S
C2224 C2225 1.367 . S
C2225 C2224 1.367 . S
C2225 C2227 1.433 . S
C2226 C2222 1.350 . S
C2226 C2223 1.463 . S
C2226 N2230 1.427 . S
C2227 H2217 0.929 . S
C2227 C2225 1.433 . S
C2227 N2230 1.384 . S
C2228 H2219 0.929 . S
C2228 C2220 1.378 1_556 S
C2228 C2223 1.350 . S
C2229 H2216 0.929 . S
C2229 C2221 1.433 1_556 S
C2229 N2231 1.384 . S
N2230 C2226 1.427 . S
N2230 C2227 1.384 . S
N2231 C2223 1.427 . S
N2231 C2229 1.384 . S
H2232 C2238 0.930 . S
H2233 C2242 0.930 . S
H2234 C2247 0.929 . S
H2235 C2245 0.929 . S
H2236 C2240 0.929 . S
H2237 C2246 0.929 . S
C2238 H2232 0.930 . S
C2238 C2239 1.367 . S
C2238 C2246 1.378 . S
C2239 C2238 1.367 . S
C2239 C2247 1.433 . S
C2240 H2236 0.929 . S
C2240 C2242 1.378 . S
C2240 C2244 1.350 . S
C2241 C2244 1.463 . S
C2241 C2246 1.350 . S
C2241 N2249 1.427 . S
C2242 H2233 0.930 . S
C2242 C2240 1.378 . S
C2242 C2243 1.367 . S
C2243 C2242 1.367 . S
C2243 C2245 1.433 . S
C2244 C2240 1.350 . S
C2244 C2241 1.463 . S
C2244 N2248 1.427 . S
C2245 H2235 0.929 . S
C2245 C2243 1.433 . S
C2245 N2248 1.384 . S
C2246 H2237 0.929 . S
C2246 C2238 1.378 . S
C2246 C2241 1.350 . S
C2247 H2234 0.929 . S
C2247 C2239 1.433 . S
C2247 N2249 1.384 . S
N2248 C2244 1.427 . S
N2248 C2245 1.384 . S
N2249 C2241 1.427 . S
N2249 C2247 1.384 . S
H2250 C2256 0.930 . S
H2251 C2260 0.930 . S
H2252 C2265 0.929 . S
H2253 C2263 0.929 . S
H2254 C2258 0.929 . S
H2255 C2264 0.929 . S
C2256 H2250 0.930 . S
C2256 C2257 1.367 . S
C2256 C2264 1.378 . S
C2257 C2256 1.367 . S
C2257 C2265 1.433 . S
C2258 H2254 0.929 . S
C2258 C2260 1.378 . S
C2258 C2262 1.350 . S
C2259 C2262 1.463 . S
C2259 C2264 1.350 . S
C2259 N2267 1.427 . S
C2260 H2251 0.930 . S
C2260 C2258 1.378 . S
C2260 C2261 1.367 1_655 S
C2261 C2260 1.367 1_455 S
C2261 C2263 1.433 . S
C2262 C2258 1.350 . S
C2262 C2259 1.463 . S
C2262 N2266 1.427 . S
C2263 H2253 0.929 . S
C2263 C2261 1.433 . S
C2263 N2266 1.384 1_455 S
C2264 H2255 0.929 . S
C2264 C2256 1.378 . S
C2264 C2259 1.350 . S
C2265 H2252 0.929 . S
C2265 C2257 1.433 . S
C2265 N2267 1.384 . S
N2266 C2262 1.427 . S
N2266 C2263 1.384 1_655 S
N2267 C2259 1.427 . S
N2267 C2265 1.384 . S
H2268 C2274 0.930 . S
H2269 C2278 0.930 . S
H2270 C2283 0.929 . S
H2271 C2281 0.929 . S
H2272 C2276 0.929 . S
H2273 C2282 0.929 . S
C2274 H2268 0.930 . S
C2274 C2275 1.367 . S
C2274 C2282 1.378 . S
C2275 C2274 1.367 . S
C2275 C2283 1.433 . S
C2276 H2272 0.929 . S
C2276 C2278 1.378 . S
C2276 C2280 1.350 . S
C2277 C2280 1.463 . S
C2277 C2282 1.350 . S
C2277 N2285 1.427 . S
C2278 H2269 0.930 . S
C2278 C2276 1.378 . S
C2278 C2279 1.367 1_455 S
C2279 C2278 1.367 1_655 S
C2279 C2281 1.433 . S
C2280 C2276 1.350 . S
C2280 C2277 1.463 . S
C2280 N2284 1.427 . S
C2281 H2271 0.929 . S
C2281 C2279 1.433 . S
C2281 N2284 1.384 1_655 S
C2282 H2273 0.929 . S
C2282 C2274 1.378 . S
C2282 C2277 1.350 . S
C2283 H2270 0.929 . S
C2283 C2275 1.433 . S
C2283 N2285 1.384 . S
N2284 C2280 1.427 . S
N2284 C2281 1.384 1_455 S
N2285 C2277 1.427 . S
N2285 C2283 1.384 . S
H2286 C2292 0.930 . S
H2287 C2296 0.930 . S
H2288 C2301 0.929 . S
H2289 C2299 0.929 . S
H2290 C2294 0.929 . S
H2291 C2300 0.929 . S
C2292 H2286 0.930 . S
C2292 C2293 1.367 . S
C2292 C2300 1.378 . S
C2293 C2292 1.367 . S
C2293 C2301 1.433 . S
C2294 H2290 0.929 . S
C2294 C2296 1.378 . S
C2294 C2298 1.350 . S
C2295 C2298 1.463 . S
C2295 C2300 1.350 . S
C2295 N2303 1.427 . S
C2296 H2287 0.930 . S
C2296 C2294 1.378 . S
C2296 C2297 1.367 . S
C2297 C2296 1.367 . S
C2297 C2299 1.433 . S
C2298 C2294 1.350 . S
C2298 C2295 1.463 . S
C2298 N2302 1.427 . S
C2299 H2289 0.929 . S
C2299 C2297 1.433 . S
C2299 N2302 1.384 . S
C2300 H2291 0.929 . S
C2300 C2292 1.378 . S
C2300 C2295 1.350 . S
C2301 H2288 0.929 . S
C2301 C2293 1.433 . S
C2301 N2303 1.384 . S
N2302 C2298 1.427 . S
N2302 C2299 1.384 . S
N2303 C2295 1.427 . S
N2303 C2301 1.384 . S
H2304 C2310 0.930 . S
H2305 C2314 0.930 . S
H2306 C2319 0.929 . S
H2307 C2317 0.929 . S
H2308 C2312 0.929 . S
H2309 C2318 0.929 . S
C2310 H2304 0.930 . S
C2310 C2311 1.367 . S
C2310 C2318 1.378 . S
C2311 C2310 1.367 . S
C2311 C2319 1.433 . S
C2312 H2308 0.929 . S
C2312 C2314 1.378 . S
C2312 C2316 1.350 . S
C2313 C2316 1.463 . S
C2313 C2318 1.350 . S
C2313 N2321 1.427 . S
C2314 H2305 0.930 . S
C2314 C2312 1.378 . S
C2314 C2315 1.367 . S
C2315 C2314 1.367 . S
C2315 C2317 1.433 . S
C2316 C2312 1.350 . S
C2316 C2313 1.463 . S
C2316 N2320 1.427 . S
C2317 H2307 0.929 . S
C2317 C2315 1.433 . S
C2317 N2320 1.384 . S
C2318 H2309 0.929 . S
C2318 C2310 1.378 . S
C2318 C2313 1.350 . S
C2319 H2306 0.929 . S
C2319 C2311 1.433 . S
C2319 N2321 1.384 . S
N2320 C2316 1.427 . S
N2320 C2317 1.384 . S
N2321 C2313 1.427 . S
N2321 C2319 1.384 . S
H2322 C2328 0.930 . S
H2323 C2332 0.930 . S
H2324 C2337 0.929 . S
H2325 C2335 0.929 . S
H2326 C2330 0.929 . S
H2327 C2336 0.929 . S
C2328 H2322 0.930 . S
C2328 C2329 1.367 1_565 S
C2328 C2336 1.378 . S
C2329 C2328 1.367 1_545 S
C2329 C2337 1.433 . S
C2330 H2326 0.929 . S
C2330 C2332 1.378 . S
C2330 C2334 1.350 . S
C2331 C2334 1.463 . S
C2331 C2336 1.350 . S
C2331 N2339 1.427 . S
C2332 H2323 0.930 . S
C2332 C2330 1.378 . S
C2332 C2333 1.367 . S
C2333 C2332 1.367 . S
C2333 C2335 1.433 . S
C2334 C2330 1.350 . S
C2334 C2331 1.463 . S
C2334 N2338 1.427 . S
C2335 H2325 0.929 . S
C2335 C2333 1.433 . S
C2335 N2338 1.384 . S
C2336 H2327 0.929 . S
C2336 C2328 1.378 . S
C2336 C2331 1.350 . S
C2337 H2324 0.929 . S
C2337 C2329 1.433 . S
C2337 N2339 1.384 1_545 S
N2338 C2334 1.427 . S
N2338 C2335 1.384 . S
N2339 C2331 1.427 . S
N2339 C2337 1.384 1_565 S
H2340 C2346 0.930 . S
H2341 C2350 0.930 . S
H2342 C2355 0.929 . S
H2343 C2353 0.929 . S
H2344 C2348 0.929 1_565 S
H2345 C2354 0.929 . S
C2346 H2340 0.930 . S
C2346 C2347 1.367 . S
C2346 C2354 1.378 . S
C2347 C2346 1.367 . S
C2347 C2355 1.433 . S
C2348 H2344 0.929 1_545 S
C2348 C2350 1.378 1_545 S
C2348 C2352 1.350 . S
C2349 C2352 1.463 . S
C2349 C2354 1.350 . S
C2349 N2357 1.427 . S
C2350 H2341 0.930 . S
C2350 C2348 1.378 1_565 S
C2350 C2351 1.367 . S
C2351 C2350 1.367 . S
C2351 C2353 1.433 1_565 S
C2352 C2348 1.350 . S
C2352 C2349 1.463 . S
C2352 N2356 1.427 . S
C2353 H2343 0.929 . S
C2353 C2351 1.433 1_545 S
C2353 N2356 1.384 . S
C2354 H2345 0.929 . S
C2354 C2346 1.378 . S
C2354 C2349 1.350 . S
C2355 H2342 0.929 . S
C2355 C2347 1.433 . S
C2355 N2357 1.384 . S
N2356 C2352 1.427 . S
N2356 C2353 1.384 . S
N2357 C2349 1.427 . S
N2357 C2355 1.384 . S
H2358 C2364 0.930 . S
H2359 C2368 0.930 . S
H2360 C2373 0.929 . S
H2361 C2371 0.929 . S
H2362 C2366 0.929 . S
H2363 C2372 0.929 . S
C2364 H2358 0.930 . S
C2364 C2365 1.367 . S
C2364 C2372 1.378 . S
C2365 C2364 1.367 . S
C2365 C2373 1.433 . S
C2366 H2362 0.929 . S
C2366 C2368 1.378 . S
C2366 C2370 1.350 . S
C2367 C2370 1.463 . S
C2367 C2372 1.350 . S
C2367 N2375 1.427 . S
C2368 H2359 0.930 . S
C2368 C2366 1.378 . S
C2368 C2369 1.367 . S
C2369 C2368 1.367 . S
C2369 C2371 1.433 . S
C2370 C2366 1.350 . S
C2370 C2367 1.463 . S
C2370 N2374 1.427 . S
C2371 H2361 0.929 . S
C2371 C2369 1.433 . S
C2371 N2374 1.384 . S
C2372 H2363 0.929 . S
C2372 C2364 1.378 . S
C2372 C2367 1.350 . S
C2373 H2360 0.929 . S
C2373 C2365 1.433 . S
C2373 N2375 1.384 . S
N2374 C2370 1.427 . S
N2374 C2371 1.384 . S
N2375 C2367 1.427 . S
N2375 C2373 1.384 . S
H2376 C2382 0.930 . S
H2377 C2386 0.930 . S
H2378 C2391 0.929 . S
H2379 C2389 0.929 . S
H2380 C2384 0.929 . S
H2381 C2390 0.929 . S
C2382 H2376 0.930 . S
C2382 C2383 1.367 . S
C2382 C2390 1.378 . S
C2383 C2382 1.367 . S
C2383 C2391 1.433 . S
C2384 H2380 0.929 . S
C2384 C2386 1.378 . S
C2384 C2388 1.350 . S
C2385 C2388 1.463 . S
C2385 C2390 1.350 . S
C2385 N2393 1.427 . S
C2386 H2377 0.930 . S
C2386 C2384 1.378 . S
C2386 C2387 1.367 . S
C2387 C2386 1.367 . S
C2387 C2389 1.433 . S
C2388 C2384 1.350 . S
C2388 C2385 1.463 . S
C2388 N2392 1.427 . S
C2389 H2379 0.929 . S
C2389 C2387 1.433 . S
C2389 N2392 1.384 . S
C2390 H2381 0.929 . S
C2390 C2382 1.378 . S
C2390 C2385 1.350 . S
C2391 H2378 0.929 . S
C2391 C2383 1.433 . S
C2391 N2393 1.384 . S
N2392 C2388 1.427 . S
N2392 C2389 1.384 . S
N2393 C2385 1.427 . S
N2393 C2391 1.384 . S
H2394 C2400 0.930 . S
H2395 C2404 0.930 . S
H2396 C2409 0.929 . S
H2397 C2407 0.929 . S
H2398 C2402 0.929 . S
H2399 C2408 0.929 . S
C2400 H2394 0.930 . S
C2400 C2401 1.367 . S
C2400 C2408 1.378 . S
C2401 C2400 1.367 . S
C2401 C2409 1.433 . S
C2402 H2398 0.929 . S
C2402 C2404 1.378 . S
C2402 C2406 1.350 . S
C2403 C2406 1.463 . S
C2403 C2408 1.350 . S
C2403 N2411 1.427 . S
C2404 H2395 0.930 . S
C2404 C2402 1.378 . S
C2404 C2405 1.367 1_556 S
C2405 C2404 1.367 1_554 S
C2405 C2407 1.433 . S
C2406 C2402 1.350 . S
C2406 C2403 1.463 . S
C2406 N2410 1.427 . S
C2407 H2397 0.929 . S
C2407 C2405 1.433 . S
C2407 N2410 1.384 1_554 S
C2408 H2399 0.929 . S
C2408 C2400 1.378 . S
C2408 C2403 1.350 . S
C2409 H2396 0.929 . S
C2409 C2401 1.433 . S
C2409 N2411 1.384 . S
N2410 C2406 1.427 . S
N2410 C2407 1.384 1_556 S
N2411 C2403 1.427 . S
N2411 C2409 1.384 . S
H2412 C2418 0.930 . S
H2413 C2422 0.930 . S
H2414 C2427 0.929 . S
H2415 C2425 0.929 . S
H2416 C2420 0.929 . S
H2417 C2426 0.929 . S
C2418 H2412 0.930 . S
C2418 C2419 1.367 . S
C2418 C2426 1.378 . S
C2419 C2418 1.367 . S
C2419 C2427 1.433 . S
C2420 H2416 0.929 . S
C2420 C2422 1.378 . S
C2420 C2424 1.350 . S
C2421 C2424 1.463 . S
C2421 C2426 1.350 . S
C2421 N2429 1.427 . S
C2422 H2413 0.930 . S
C2422 C2420 1.378 . S
C2422 C2423 1.367 . S
C2423 C2422 1.367 . S
C2423 C2425 1.433 . S
C2424 C2420 1.350 . S
C2424 C2421 1.463 . S
C2424 N2428 1.427 . S
C2425 H2415 0.929 . S
C2425 C2423 1.433 . S
C2425 N2428 1.384 . S
C2426 H2417 0.929 . S
C2426 C2418 1.378 . S
C2426 C2421 1.350 . S
C2427 H2414 0.929 . S
C2427 C2419 1.433 . S
C2427 N2429 1.384 . S
N2428 C2424 1.427 . S
N2428 C2425 1.384 . S
N2429 C2421 1.427 . S
N2429 C2427 1.384 . S
H2430 C2436 0.930 . S
H2431 C2440 0.930 . S
H2432 C2445 0.929 . S
H2433 C2443 0.929 1_556 S
H2434 C2438 0.929 . S
H2435 C2444 0.929 . S
C2436 H2430 0.930 . S
C2436 C2437 1.367 . S
C2436 C2444 1.378 . S
C2437 C2436 1.367 . S
C2437 C2445 1.433 . S
C2438 H2434 0.929 . S
C2438 C2440 1.378 . S
C2438 C2442 1.350 . S
C2439 C2442 1.463 . S
C2439 C2444 1.350 . S
C2439 N2447 1.427 . S
C2440 H2431 0.930 . S
C2440 C2438 1.378 . S
C2440 C2441 1.367 1_554 S
C2441 C2440 1.367 1_556 S
C2441 C2443 1.433 1_556 S
C2442 C2438 1.350 . S
C2442 C2439 1.463 . S
C2442 N2446 1.427 . S
C2443 H2433 0.929 1_554 S
C2443 C2441 1.433 1_554 S
C2443 N2446 1.384 . S
C2444 H2435 0.929 . S
C2444 C2436 1.378 . S
C2444 C2439 1.350 . S
C2445 H2432 0.929 . S
C2445 C2437 1.433 . S
C2445 N2447 1.384 . S
N2446 C2442 1.427 . S
N2446 C2443 1.384 . S
N2447 C2439 1.427 . S
N2447 C2445 1.384 . S
H2448 C2454 0.930 . S
H2449 C2458 0.930 . S
H2450 C2463 0.929 . S
H2451 C2461 0.929 . S
H2452 C2456 0.929 . S
H2453 C2462 0.929 . S
C2454 H2448 0.930 . S
C2454 C2455 1.367 . S
C2454 C2462 1.378 . S
C2455 C2454 1.367 . S
C2455 C2463 1.433 . S
C2456 H2452 0.929 . S
C2456 C2458 1.378 . S
C2456 C2460 1.350 . S
C2457 C2460 1.463 . S
C2457 C2462 1.350 . S
C2457 N2465 1.427 . S
C2458 H2449 0.930 . S
C2458 C2456 1.378 . S
C2458 C2459 1.367 . S
C2459 C2458 1.367 . S
C2459 C2461 1.433 . S
C2460 C2456 1.350 . S
C2460 C2457 1.463 . S
C2460 N2464 1.427 . S
C2461 H2451 0.929 . S
C2461 C2459 1.433 . S
C2461 N2464 1.384 . S
C2462 H2453 0.929 . S
C2462 C2454 1.378 . S
C2462 C2457 1.350 . S
C2463 H2450 0.929 . S
C2463 C2455 1.433 . S
C2463 N2465 1.384 . S
N2464 C2460 1.427 . S
N2464 C2461 1.384 . S
N2465 C2457 1.427 . S
N2465 C2463 1.384 . S
H2466 C2472 0.930 . S
H2467 C2476 0.930 . S
H2468 C2481 0.929 . S
H2469 C2479 0.929 . S
H2470 C2474 0.929 . S
H2471 C2480 0.929 1_655 S
C2472 H2466 0.930 . S
C2472 C2473 1.367 . S
C2472 C2480 1.378 1_655 S
C2473 C2472 1.367 . S
C2473 C2481 1.433 1_655 S
C2474 H2470 0.929 . S
C2474 C2476 1.378 . S
C2474 C2478 1.350 . S
C2475 C2478 1.463 . S
C2475 C2480 1.350 . S
C2475 N2483 1.427 . S
C2476 H2467 0.930 . S
C2476 C2474 1.378 . S
C2476 C2477 1.367 . S
C2477 C2476 1.367 . S
C2477 C2479 1.433 . S
C2478 C2474 1.350 . S
C2478 C2475 1.463 . S
C2478 N2482 1.427 . S
C2479 H2469 0.929 . S
C2479 C2477 1.433 . S
C2479 N2482 1.384 . S
C2480 H2471 0.929 1_455 S
C2480 C2472 1.378 1_455 S
C2480 C2475 1.350 . S
C2481 H2468 0.929 . S
C2481 C2473 1.433 1_455 S
C2481 N2483 1.384 . S
N2482 C2478 1.427 . S
N2482 C2479 1.384 . S
N2483 C2475 1.427 . S
N2483 C2481 1.384 . S
H2484 C2490 0.930 . S
H2485 C2494 0.930 . S
H2486 C2499 0.929 . S
H2487 C2497 0.929 . S
H2488 C2492 0.929 . S
H2489 C2498 0.929 . S
C2490 H2484 0.930 . S
C2490 C2491 1.367 1_655 S
C2490 C2498 1.378 . S
C2491 C2490 1.367 1_455 S
C2491 C2499 1.433 . S
C2492 H2488 0.929 . S
C2492 C2494 1.378 . S
C2492 C2496 1.350 . S
C2493 C2496 1.463 . S
C2493 C2498 1.350 . S
C2493 N2501 1.427 . S
C2494 H2485 0.930 . S
C2494 C2492 1.378 . S
C2494 C2495 1.367 . S
C2495 C2494 1.367 . S
C2495 C2497 1.433 . S
C2496 C2492 1.350 . S
C2496 C2493 1.463 . S
C2496 N2500 1.427 . S
C2497 H2487 0.929 . S
C2497 C2495 1.433 . S
C2497 N2500 1.384 . S
C2498 H2489 0.929 . S
C2498 C2490 1.378 . S
C2498 C2493 1.350 . S
C2499 H2486 0.929 . S
C2499 C2491 1.433 . S
C2499 N2501 1.384 1_455 S
N2500 C2496 1.427 . S
N2500 C2497 1.384 . S
N2501 C2493 1.427 . S
N2501 C2499 1.384 1_655 S
H2502 C2508 0.930 . S
H2503 C2512 0.930 . S
H2504 C2517 0.929 . S
H2505 C2515 0.929 . S
H2506 C2510 0.929 . S
H2507 C2516 0.929 . S
C2508 H2502 0.930 . S
C2508 C2509 1.367 . S
C2508 C2516 1.378 . S
C2509 C2508 1.367 . S
C2509 C2517 1.433 . S
C2510 H2506 0.929 . S
C2510 C2512 1.378 . S
C2510 C2514 1.350 . S
C2511 C2514 1.463 . S
C2511 C2516 1.350 . S
C2511 N2519 1.427 . S
C2512 H2503 0.930 . S
C2512 C2510 1.378 . S
C2512 C2513 1.367 . S
C2513 C2512 1.367 . S
C2513 C2515 1.433 . S
C2514 C2510 1.350 . S
C2514 C2511 1.463 . S
C2514 N2518 1.427 . S
C2515 H2505 0.929 . S
C2515 C2513 1.433 . S
C2515 N2518 1.384 . S
C2516 H2507 0.929 . S
C2516 C2508 1.378 . S
C2516 C2511 1.350 . S
C2517 H2504 0.929 . S
C2517 C2509 1.433 . S
C2517 N2519 1.384 . S
N2518 C2514 1.427 . S
N2518 C2515 1.384 . S
N2519 C2511 1.427 . S
N2519 C2517 1.384 . S
H2520 C2526 0.930 . S
H2521 C2530 0.930 . S
H2522 C2535 0.929 . S
H2523 C2533 0.929 . S
H2524 C2528 0.929 . S
H2525 C2534 0.929 . S
C2526 H2520 0.930 . S
C2526 C2527 1.367 . S
C2526 C2534 1.378 . S
C2527 C2526 1.367 . S
C2527 C2535 1.433 . S
C2528 H2524 0.929 . S
C2528 C2530 1.378 . S
C2528 C2532 1.350 . S
C2529 C2532 1.463 . S
C2529 C2534 1.350 . S
C2529 N2537 1.427 . S
C2530 H2521 0.930 . S
C2530 C2528 1.378 . S
C2530 C2531 1.367 . S
C2531 C2530 1.367 . S
C2531 C2533 1.433 . S
C2532 C2528 1.350 . S
C2532 C2529 1.463 . S
C2532 N2536 1.427 . S
C2533 H2523 0.929 . S
C2533 C2531 1.433 . S
C2533 N2536 1.384 . S
C2534 H2525 0.929 . S
C2534 C2526 1.378 . S
C2534 C2529 1.350 . S
C2535 H2522 0.929 . S
C2535 C2527 1.433 . S
C2535 N2537 1.384 . S
N2536 C2532 1.427 . S
N2536 C2533 1.384 . S
N2537 C2529 1.427 . S
N2537 C2535 1.384 . S
H2538 C2544 0.930 . S
H2539 C2548 0.930 . S
H2540 C2553 0.929 . S
H2541 C2551 0.929 . S
H2542 C2546 0.929 . S
H2543 C2552 0.929 . S
C2544 H2538 0.930 . S
C2544 C2545 1.367 . S
C2544 C2552 1.378 . S
C2545 C2544 1.367 . S
C2545 C2553 1.433 . S
C2546 H2542 0.929 . S
C2546 C2548 1.378 . S
C2546 C2550 1.350 . S
C2547 C2550 1.463 . S
C2547 C2552 1.350 . S
C2547 N2555 1.427 . S
C2548 H2539 0.930 . S
C2548 C2546 1.378 . S
C2548 C2549 1.367 1_545 S
C2549 C2548 1.367 1_565 S
C2549 C2551 1.433 . S
C2550 C2546 1.350 . S
C2550 C2547 1.463 . S
C2550 N2554 1.427 . S
C2551 H2541 0.929 . S
C2551 C2549 1.433 . S
C2551 N2554 1.384 1_565 S
C2552 H2543 0.929 . S
C2552 C2544 1.378 . S
C2552 C2547 1.350 . S
C2553 H2540 0.929 . S
C2553 C2545 1.433 . S
C2553 N2555 1.384 . S
N2554 C2550 1.427 . S
N2554 C2551 1.384 1_545 S
N2555 C2547 1.427 . S
N2555 C2553 1.384 . S
H2556 C2562 0.930 . S
H2557 C2566 0.930 1_545 S
H2558 C2571 0.929 . S
H2559 C2569 0.929 . S
H2560 C2564 0.929 . S
H2561 C2570 0.929 . S
C2562 H2556 0.930 . S
C2562 C2563 1.367 . S
C2562 C2570 1.378 . S
C2563 C2562 1.367 . S
C2563 C2571 1.433 . S
C2564 H2560 0.929 . S
C2564 C2566 1.378 . S
C2564 C2568 1.350 . S
C2565 C2568 1.463 . S
C2565 C2570 1.350 . S
C2565 N2573 1.427 . S
C2566 H2557 0.930 1_565 S
C2566 C2564 1.378 . S
C2566 C2567 1.367 1_565 S
C2567 C2566 1.367 1_545 S
C2567 C2569 1.433 1_545 S
C2568 C2564 1.350 . S
C2568 C2565 1.463 . S
C2568 N2572 1.427 . S
C2569 H2559 0.929 . S
C2569 C2567 1.433 1_565 S
C2569 N2572 1.384 . S
C2570 H2561 0.929 . S
C2570 C2562 1.378 . S
C2570 C2565 1.350 . S
C2571 H2558 0.929 . S
C2571 C2563 1.433 . S
C2571 N2573 1.384 . S
N2572 C2568 1.427 . S
N2572 C2569 1.384 . S
N2573 C2565 1.427 . S
N2573 C2571 1.384 . S
H2574 C2580 0.930 . S
H2575 C2584 0.930 . S
H2576 C2589 0.929 . S
H2577 C2587 0.929 . S
H2578 C2582 0.929 . S
H2579 C2588 0.929 . S
C2580 H2574 0.930 . S
C2580 C2581 1.367 . S
C2580 C2588 1.378 . S
C2581 C2580 1.367 . S
C2581 C2589 1.433 . S
C2582 H2578 0.929 . S
C2582 C2584 1.378 . S
C2582 C2586 1.350 . S
C2583 C2586 1.463 . S
C2583 C2588 1.350 . S
C2583 N2591 1.427 . S
C2584 H2575 0.930 . S
C2584 C2582 1.378 . S
C2584 C2585 1.367 . S
C2585 C2584 1.367 . S
C2585 C2587 1.433 . S
C2586 C2582 1.350 . S
C2586 C2583 1.463 . S
C2586 N2590 1.427 . S
C2587 H2577 0.929 . S
C2587 C2585 1.433 . S
C2587 N2590 1.384 . S
C2588 H2579 0.929 . S
C2588 C2580 1.378 . S
C2588 C2583 1.350 . S
C2589 H2576 0.929 . S
C2589 C2581 1.433 . S
C2589 N2591 1.384 . S
N2590 C2586 1.427 . S
N2590 C2587 1.384 . S
N2591 C2583 1.427 . S
N2591 C2589 1.384 . S
H2592 C2598 0.930 . S
H2593 C2602 0.930 . S
H2594 C2607 0.929 . S
H2595 C2605 0.929 . S
H2596 C2600 0.929 . S
H2597 C2606 0.929 . S
C2598 H2592 0.930 . S
C2598 C2599 1.367 . S
C2598 C2606 1.378 . S
C2599 C2598 1.367 . S
C2599 C2607 1.433 . S
C2600 H2596 0.929 . S
C2600 C2602 1.378 . S
C2600 C2604 1.350 . S
C2601 C2604 1.463 . S
C2601 C2606 1.350 . S
C2601 N2609 1.427 . S
C2602 H2593 0.930 . S
C2602 C2600 1.378 . S
C2602 C2603 1.367 . S
C2603 C2602 1.367 . S
C2603 C2605 1.433 . S
C2604 C2600 1.350 . S
C2604 C2601 1.463 . S
C2604 N2608 1.427 . S
C2605 H2595 0.929 . S
C2605 C2603 1.433 . S
C2605 N2608 1.384 . S
C2606 H2597 0.929 . S
C2606 C2598 1.378 . S
C2606 C2601 1.350 . S
C2607 H2594 0.929 . S
C2607 C2599 1.433 . S
C2607 N2609 1.384 . S
N2608 C2604 1.427 . S
N2608 C2605 1.384 . S
N2609 C2601 1.427 . S
N2609 C2607 1.384 . S
H2610 C2616 0.930 . S
H2611 C2620 0.930 . S
H2612 C2625 0.929 . S
H2613 C2623 0.929 . S
H2614 C2618 0.929 . S
H2615 C2624 0.929 . S
C2616 H2610 0.930 . S
C2616 C2617 1.367 . S
C2616 C2624 1.378 . S
C2617 C2616 1.367 . S
C2617 C2625 1.433 . S
C2618 H2614 0.929 . S
C2618 C2620 1.378 . S
C2618 C2622 1.350 . S
C2619 C2622 1.463 . S
C2619 C2624 1.350 . S
C2619 N2627 1.427 . S
C2620 H2611 0.930 . S
C2620 C2618 1.378 . S
C2620 C2621 1.367 . S
C2621 C2620 1.367 . S
C2621 C2623 1.433 . S
C2622 C2618 1.350 . S
C2622 C2619 1.463 . S
C2622 N2626 1.427 . S
C2623 H2613 0.929 . S
C2623 C2621 1.433 . S
C2623 N2626 1.384 . S
C2624 H2615 0.929 . S
C2624 C2616 1.378 . S
C2624 C2619 1.350 . S
C2625 H2612 0.929 . S
C2625 C2617 1.433 . S
C2625 N2627 1.384 . S
N2626 C2622 1.427 . S
N2626 C2623 1.384 . S
N2627 C2619 1.427 . S
N2627 C2625 1.384 . S
H2628 C2634 0.930 . S
H2629 C2638 0.930 . S
H2630 C2643 0.929 . S
H2631 C2641 0.929 . S
H2632 C2636 0.929 . S
H2633 C2642 0.929 . S
C2634 H2628 0.930 . S
C2634 C2635 1.367 . S
C2634 C2642 1.378 . S
C2635 C2634 1.367 . S
C2635 C2643 1.433 . S
C2636 H2632 0.929 . S
C2636 C2638 1.378 . S
C2636 C2640 1.350 . S
C2637 C2640 1.463 . S
C2637 C2642 1.350 . S
C2637 N2645 1.427 . S
C2638 H2629 0.930 . S
C2638 C2636 1.378 . S
C2638 C2639 1.367 . S
C2639 C2638 1.367 . S
C2639 C2641 1.433 . S
C2640 C2636 1.350 . S
C2640 C2637 1.463 . S
C2640 N2644 1.427 . S
C2641 H2631 0.929 . S
C2641 C2639 1.433 . S
C2641 N2644 1.384 . S
C2642 H2633 0.929 . S
C2642 C2634 1.378 . S
C2642 C2637 1.350 . S
C2643 H2630 0.929 . S
C2643 C2635 1.433 . S
C2643 N2645 1.384 . S
N2644 C2640 1.427 . S
N2644 C2641 1.384 . S
N2645 C2637 1.427 . S
N2645 C2643 1.384 . S
H2646 C2652 0.930 . S
H2647 C2656 0.930 . S
H2648 C2661 0.929 . S
H2649 C2659 0.929 1_554 S
H2650 C2654 0.929 . S
H2651 C2660 0.929 . S
C2652 H2646 0.930 . S
C2652 C2653 1.367 . S
C2652 C2660 1.378 . S
C2653 C2652 1.367 . S
C2653 C2661 1.433 . S
C2654 H2650 0.929 . S
C2654 C2656 1.378 . S
C2654 C2658 1.350 . S
C2655 C2658 1.463 . S
C2655 C2660 1.350 . S
C2655 N2663 1.427 . S
C2656 H2647 0.930 . S
C2656 C2654 1.378 . S
C2656 C2657 1.367 . S
C2657 C2656 1.367 . S
C2657 C2659 1.433 . S
C2658 C2654 1.350 . S
C2658 C2655 1.463 . S
C2658 N2662 1.427 . S
C2659 H2649 0.929 1_556 S
C2659 C2657 1.433 . S
C2659 N2662 1.384 . S
C2660 H2651 0.929 . S
C2660 C2652 1.378 . S
C2660 C2655 1.350 . S
C2661 H2648 0.929 . S
C2661 C2653 1.433 . S
C2661 N2663 1.384 . S
N2662 C2658 1.427 . S
N2662 C2659 1.384 . S
N2663 C2655 1.427 . S
N2663 C2661 1.384 . S
H2664 C2670 0.930 . S
H2665 C2674 0.930 . S
H2666 C2679 0.929 . S
H2667 C2677 0.929 . S
H2668 C2672 0.929 . S
H2669 C2678 0.929 . S
C2670 H2664 0.930 . S
C2670 C2671 1.367 . S
C2670 C2678 1.378 . S
C2671 C2670 1.367 . S
C2671 C2679 1.433 . S
C2672 H2668 0.929 . S
C2672 C2674 1.378 . S
C2672 C2676 1.350 . S
C2673 C2676 1.463 . S
C2673 C2678 1.350 . S
C2673 N2681 1.427 . S
C2674 H2665 0.930 . S
C2674 C2672 1.378 . S
C2674 C2675 1.367 . S
C2675 C2674 1.367 . S
C2675 C2677 1.433 . S
C2676 C2672 1.350 . S
C2676 C2673 1.463 . S
C2676 N2680 1.427 . S
C2677 H2667 0.929 . S
C2677 C2675 1.433 . S
C2677 N2680 1.384 . S
C2678 H2669 0.929 . S
C2678 C2670 1.378 . S
C2678 C2673 1.350 . S
C2679 H2666 0.929 . S
C2679 C2671 1.433 . S
C2679 N2681 1.384 . S
N2680 C2676 1.427 . S
N2680 C2677 1.384 . S
N2681 C2673 1.427 . S
N2681 C2679 1.384 . S
H2682 C2688 0.930 . S
H2683 C2692 0.930 . S
H2684 C2697 0.929 . S
H2685 C2695 0.929 . S
H2686 C2690 0.929 . S
H2687 C2696 0.929 . S
C2688 H2682 0.930 . S
C2688 C2689 1.367 . S
C2688 C2696 1.378 . S
C2689 C2688 1.367 . S
C2689 C2697 1.433 . S
C2690 H2686 0.929 . S
C2690 C2692 1.378 . S
C2690 C2694 1.350 . S
C2691 C2694 1.463 . S
C2691 C2696 1.350 . S
C2691 N2699 1.427 . S
C2692 H2683 0.930 . S
C2692 C2690 1.378 . S
C2692 C2693 1.367 . S
C2693 C2692 1.367 . S
C2693 C2695 1.433 . S
C2694 C2690 1.350 . S
C2694 C2691 1.463 . S
C2694 N2698 1.427 . S
C2695 H2685 0.929 . S
C2695 C2693 1.433 . S
C2695 N2698 1.384 . S
C2696 H2687 0.929 . S
C2696 C2688 1.378 . S
C2696 C2691 1.350 . S
C2697 H2684 0.929 . S
C2697 C2689 1.433 . S
C2697 N2699 1.384 . S
N2698 C2694 1.427 . S
N2698 C2695 1.384 . S
N2699 C2691 1.427 . S
N2699 C2697 1.384 . S
H2700 C2706 0.930 . S
H2701 C2710 0.930 . S
H2702 C2715 0.929 . S
H2703 C2713 0.929 . S
H2704 C2708 0.929 . S
H2705 C2714 0.929 . S
C2706 H2700 0.930 . S
C2706 C2707 1.367 . S
C2706 C2714 1.378 . S
C2707 C2706 1.367 . S
C2707 C2715 1.433 . S
C2708 H2704 0.929 . S
C2708 C2710 1.378 . S
C2708 C2712 1.350 . S
C2709 C2712 1.463 . S
C2709 C2714 1.350 . S
C2709 N2717 1.427 . S
C2710 H2701 0.930 . S
C2710 C2708 1.378 . S
C2710 C2711 1.367 . S
C2711 C2710 1.367 . S
C2711 C2713 1.433 . S
C2712 C2708 1.350 . S
C2712 C2709 1.463 . S
C2712 N2716 1.427 . S
C2713 H2703 0.929 . S
C2713 C2711 1.433 . S
C2713 N2716 1.384 . S
C2714 H2705 0.929 . S
C2714 C2706 1.378 . S
C2714 C2709 1.350 . S
C2715 H2702 0.929 . S
C2715 C2707 1.433 . S
C2715 N2717 1.384 . S
N2716 C2712 1.427 . S
N2716 C2713 1.384 . S
N2717 C2709 1.427 . S
N2717 C2715 1.384 . S
H2718 C2724 0.930 . S
H2719 C2728 0.930 . S
H2720 C2733 0.929 . S
H2721 C2731 0.929 . S
H2722 C2726 0.929 . S
H2723 C2732 0.929 . S
C2724 H2718 0.930 . S
C2724 C2725 1.367 . S
C2724 C2732 1.378 . S
C2725 C2724 1.367 . S
C2725 C2733 1.433 . S
C2726 H2722 0.929 . S
C2726 C2728 1.378 . S
C2726 C2730 1.350 . S
C2727 C2730 1.463 . S
C2727 C2732 1.350 . S
C2727 N2735 1.427 . S
C2728 H2719 0.930 . S
C2728 C2726 1.378 . S
C2728 C2729 1.367 . S
C2729 C2728 1.367 . S
C2729 C2731 1.433 . S
C2730 C2726 1.350 . S
C2730 C2727 1.463 . S
C2730 N2734 1.427 . S
C2731 H2721 0.929 . S
C2731 C2729 1.433 . S
C2731 N2734 1.384 . S
C2732 H2723 0.929 . S
C2732 C2724 1.378 . S
C2732 C2727 1.350 . S
C2733 H2720 0.929 . S
C2733 C2725 1.433 . S
C2733 N2735 1.384 . S
N2734 C2730 1.427 . S
N2734 C2731 1.384 . S
N2735 C2727 1.427 . S
N2735 C2733 1.384 . S
H2736 C2742 0.930 . S
H2737 C2746 0.930 . S
H2738 C2751 0.929 . S
H2739 C2749 0.929 . S
H2740 C2744 0.929 . S
H2741 C2750 0.929 . S
C2742 H2736 0.930 . S
C2742 C2743 1.367 . S
C2742 C2750 1.378 . S
C2743 C2742 1.367 . S
C2743 C2751 1.433 . S
C2744 H2740 0.929 . S
C2744 C2746 1.378 . S
C2744 C2748 1.350 . S
C2745 C2748 1.463 . S
C2745 C2750 1.350 . S
C2745 N2753 1.427 . S
C2746 H2737 0.930 . S
C2746 C2744 1.378 . S
C2746 C2747 1.367 . S
C2747 C2746 1.367 . S
C2747 C2749 1.433 . S
C2748 C2744 1.350 . S
C2748 C2745 1.463 . S
C2748 N2752 1.427 . S
C2749 H2739 0.929 . S
C2749 C2747 1.433 . S
C2749 N2752 1.384 . S
C2750 H2741 0.929 . S
C2750 C2742 1.378 . S
C2750 C2745 1.350 . S
C2751 H2738 0.929 . S
C2751 C2743 1.433 . S
C2751 N2753 1.384 . S
N2752 C2748 1.427 . S
N2752 C2749 1.384 . S
N2753 C2745 1.427 . S
N2753 C2751 1.384 . S
H2754 C2760 0.930 . S
H2755 C2764 0.930 . S
H2756 C2769 0.929 . S
H2757 C2767 0.929 1_545 S
H2758 C2762 0.929 . S
H2759 C2768 0.929 . S
C2760 H2754 0.930 . S
C2760 C2761 1.367 . S
C2760 C2768 1.378 . S
C2761 C2760 1.367 . S
C2761 C2769 1.433 . S
C2762 H2758 0.929 . S
C2762 C2764 1.378 . S
C2762 C2766 1.350 . S
C2763 C2766 1.463 . S
C2763 C2768 1.350 . S
C2763 N2771 1.427 . S
C2764 H2755 0.930 . S
C2764 C2762 1.378 . S
C2764 C2765 1.367 . S
C2765 C2764 1.367 . S
C2765 C2767 1.433 . S
C2766 C2762 1.350 . S
C2766 C2763 1.463 . S
C2766 N2770 1.427 . S
C2767 H2757 0.929 1_565 S
C2767 C2765 1.433 . S
C2767 N2770 1.384 . S
C2768 H2759 0.929 . S
C2768 C2760 1.378 . S
C2768 C2763 1.350 . S
C2769 H2756 0.929 . S
C2769 C2761 1.433 . S
C2769 N2771 1.384 . S
N2770 C2766 1.427 . S
N2770 C2767 1.384 . S
N2771 C2763 1.427 . S
N2771 C2769 1.384 . S
H2772 C2778 0.930 . S
H2773 C2782 0.930 . S
H2774 C2787 0.929 . S
H2775 C2785 0.929 . S
H2776 C2780 0.929 . S
H2777 C2786 0.929 . S
C2778 H2772 0.930 . S
C2778 C2779 1.367 . S
C2778 C2786 1.378 . S
C2779 C2778 1.367 . S
C2779 C2787 1.433 . S
C2780 H2776 0.929 . S
C2780 C2782 1.378 . S
C2780 C2784 1.350 . S
C2781 C2784 1.463 . S
C2781 C2786 1.350 . S
C2781 N2789 1.427 . S
C2782 H2773 0.930 . S
C2782 C2780 1.378 . S
C2782 C2783 1.367 . S
C2783 C2782 1.367 . S
C2783 C2785 1.433 . S
C2784 C2780 1.350 . S
C2784 C2781 1.463 . S
C2784 N2788 1.427 . S
C2785 H2775 0.929 . S
C2785 C2783 1.433 . S
C2785 N2788 1.384 . S
C2786 H2777 0.929 . S
C2786 C2778 1.378 . S
C2786 C2781 1.350 . S
C2787 H2774 0.929 . S
C2787 C2779 1.433 . S
C2787 N2789 1.384 . S
N2788 C2784 1.427 . S
N2788 C2785 1.384 . S
N2789 C2781 1.427 . S
N2789 C2787 1.384 . S
H2790 C2796 0.930 . S
H2791 C2800 0.930 . S
H2792 C2805 0.929 . S
H2793 C2803 0.929 . S
H2794 C2798 0.929 . S
H2795 C2804 0.929 . S
C2796 H2790 0.930 . S
C2796 C2797 1.367 . S
C2796 C2804 1.378 . S
C2797 C2796 1.367 . S
C2797 C2805 1.433 . S
C2798 H2794 0.929 . S
C2798 C2800 1.378 . S
C2798 C2802 1.350 . S
C2799 C2802 1.463 . S
C2799 C2804 1.350 . S
C2799 N2807 1.427 . S
C2800 H2791 0.930 . S
C2800 C2798 1.378 . S
C2800 C2801 1.367 . S
C2801 C2800 1.367 . S
C2801 C2803 1.433 . S
C2802 C2798 1.350 . S
C2802 C2799 1.463 . S
C2802 N2806 1.427 . S
C2803 H2793 0.929 . S
C2803 C2801 1.433 . S
C2803 N2806 1.384 . S
C2804 H2795 0.929 . S
C2804 C2796 1.378 . S
C2804 C2799 1.350 . S
C2805 H2792 0.929 . S
C2805 C2797 1.433 . S
C2805 N2807 1.384 . S
N2806 C2802 1.427 . S
N2806 C2803 1.384 . S
N2807 C2799 1.427 . S
N2807 C2805 1.384 . S
H2808 C2814 0.930 . S
H2809 C2818 0.930 . S
H2810 C2823 0.929 . S
H2811 C2821 0.929 . S
H2812 C2816 0.929 . S
H2813 C2822 0.929 . S
C2814 H2808 0.930 . S
C2814 C2815 1.367 . S
C2814 C2822 1.378 . S
C2815 C2814 1.367 . S
C2815 C2823 1.433 . S
C2816 H2812 0.929 . S
C2816 C2818 1.378 . S
C2816 C2820 1.350 . S
C2817 C2820 1.463 . S
C2817 C2822 1.350 . S
C2817 N2825 1.427 . S
C2818 H2809 0.930 . S
C2818 C2816 1.378 . S
C2818 C2819 1.367 . S
C2819 C2818 1.367 . S
C2819 C2821 1.433 . S
C2820 C2816 1.350 . S
C2820 C2817 1.463 . S
C2820 N2824 1.427 . S
C2821 H2811 0.929 . S
C2821 C2819 1.433 . S
C2821 N2824 1.384 . S
C2822 H2813 0.929 . S
C2822 C2814 1.378 . S
C2822 C2817 1.350 . S
C2823 H2810 0.929 . S
C2823 C2815 1.433 . S
C2823 N2825 1.384 . S
N2824 C2820 1.427 . S
N2824 C2821 1.384 . S
N2825 C2817 1.427 . S
N2825 C2823 1.384 . S
H2826 C2832 0.930 . S
H2827 C2836 0.930 . S
H2828 C2841 0.929 . S
H2829 C2839 0.929 . S
H2830 C2834 0.929 . S
H2831 C2840 0.929 . S
C2832 H2826 0.930 . S
C2832 C2833 1.367 . S
C2832 C2840 1.378 . S
C2833 C2832 1.367 . S
C2833 C2841 1.433 . S
C2834 H2830 0.929 . S
C2834 C2836 1.378 . S
C2834 C2838 1.350 . S
C2835 C2838 1.463 . S
C2835 C2840 1.350 . S
C2835 N2843 1.427 . S
C2836 H2827 0.930 . S
C2836 C2834 1.378 . S
C2836 C2837 1.367 . S
C2837 C2836 1.367 . S
C2837 C2839 1.433 . S
C2838 C2834 1.350 . S
C2838 C2835 1.463 . S
C2838 N2842 1.427 . S
C2839 H2829 0.929 . S
C2839 C2837 1.433 . S
C2839 N2842 1.384 . S
C2840 H2831 0.929 . S
C2840 C2832 1.378 . S
C2840 C2835 1.350 . S
C2841 H2828 0.929 . S
C2841 C2833 1.433 . S
C2841 N2843 1.384 . S
N2842 C2838 1.427 . S
N2842 C2839 1.384 . S
N2843 C2835 1.427 . S
N2843 C2841 1.384 . S
H2844 C2850 0.930 . S
H2845 C2854 0.930 . S
H2846 C2859 0.929 . S
H2847 C2857 0.929 . S
H2848 C2852 0.929 . S
H2849 C2858 0.929 . S
C2850 H2844 0.930 . S
C2850 C2851 1.367 . S
C2850 C2858 1.378 . S
C2851 C2850 1.367 . S
C2851 C2859 1.433 . S
C2852 H2848 0.929 . S
C2852 C2854 1.378 . S
C2852 C2856 1.350 . S
C2853 C2856 1.463 . S
C2853 C2858 1.350 . S
C2853 N2861 1.427 . S
C2854 H2845 0.930 . S
C2854 C2852 1.378 . S
C2854 C2855 1.367 . S
C2855 C2854 1.367 . S
C2855 C2857 1.433 . S
C2856 C2852 1.350 . S
C2856 C2853 1.463 . S
C2856 N2860 1.427 . S
C2857 H2847 0.929 . S
C2857 C2855 1.433 . S
C2857 N2860 1.384 . S
C2858 H2849 0.929 . S
C2858 C2850 1.378 . S
C2858 C2853 1.350 . S
C2859 H2846 0.929 . S
C2859 C2851 1.433 . S
C2859 N2861 1.384 . S
N2860 C2856 1.427 . S
N2860 C2857 1.384 . S
N2861 C2853 1.427 . S
N2861 C2859 1.384 . S
H2862 C2868 0.930 . S
H2863 C2872 0.930 . S
H2864 C2877 0.929 . S
H2865 C2875 0.929 1_556 S
H2866 C2870 0.929 . S
H2867 C2876 0.929 . S
C2868 H2862 0.930 . S
C2868 C2869 1.367 . S
C2868 C2876 1.378 . S
C2869 C2868 1.367 . S
C2869 C2877 1.433 . S
C2870 H2866 0.929 . S
C2870 C2872 1.378 . S
C2870 C2874 1.350 . S
C2871 C2874 1.463 . S
C2871 C2876 1.350 . S
C2871 N2879 1.427 . S
C2872 H2863 0.930 . S
C2872 C2870 1.378 . S
C2872 C2873 1.367 . S
C2873 C2872 1.367 . S
C2873 C2875 1.433 . S
C2874 C2870 1.350 . S
C2874 C2871 1.463 . S
C2874 N2878 1.427 . S
C2875 H2865 0.929 1_554 S
C2875 C2873 1.433 . S
C2875 N2878 1.384 . S
C2876 H2867 0.929 . S
C2876 C2868 1.378 . S
C2876 C2871 1.350 . S
C2877 H2864 0.929 . S
C2877 C2869 1.433 . S
C2877 N2879 1.384 . S
N2878 C2874 1.427 . S
N2878 C2875 1.384 . S
N2879 C2871 1.427 . S
N2879 C2877 1.384 . S
H2880 C2886 0.930 . S
H2881 C2890 0.930 . S
H2882 C2895 0.929 . S
H2883 C2893 0.929 . S
H2884 C2888 0.929 . S
H2885 C2894 0.929 . S
C2886 H2880 0.930 . S
C2886 C2887 1.367 . S
C2886 C2894 1.378 . S
C2887 C2886 1.367 . S
C2887 C2895 1.433 . S
C2888 H2884 0.929 . S
C2888 C2890 1.378 . S
C2888 C2892 1.350 . S
C2889 C2892 1.463 . S
C2889 C2894 1.350 . S
C2889 N2897 1.427 . S
C2890 H2881 0.930 . S
C2890 C2888 1.378 . S
C2890 C2891 1.367 . S
C2891 C2890 1.367 . S
C2891 C2893 1.433 . S
C2892 C2888 1.350 . S
C2892 C2889 1.463 . S
C2892 N2896 1.427 . S
C2893 H2883 0.929 . S
C2893 C2891 1.433 . S
C2893 N2896 1.384 . S
C2894 H2885 0.929 . S
C2894 C2886 1.378 . S
C2894 C2889 1.350 . S
C2895 H2882 0.929 . S
C2895 C2887 1.433 . S
C2895 N2897 1.384 . S
N2896 C2892 1.427 . S
N2896 C2893 1.384 . S
N2897 C2889 1.427 . S
N2897 C2895 1.384 . S
H2898 C2904 0.930 . S
H2899 C2908 0.930 . S
H2900 C2913 0.929 . S
H2901 C2911 0.929 . S
H2902 C2906 0.929 . S
H2903 C2912 0.929 . S
C2904 H2898 0.930 . S
C2904 C2905 1.367 . S
C2904 C2912 1.378 . S
C2905 C2904 1.367 . S
C2905 C2913 1.433 . S
C2906 H2902 0.929 . S
C2906 C2908 1.378 . S
C2906 C2910 1.350 . S
C2907 C2910 1.463 . S
C2907 C2912 1.350 . S
C2907 N2915 1.427 . S
C2908 H2899 0.930 . S
C2908 C2906 1.378 . S
C2908 C2909 1.367 . S
C2909 C2908 1.367 . S
C2909 C2911 1.433 . S
C2910 C2906 1.350 . S
C2910 C2907 1.463 . S
C2910 N2914 1.427 . S
C2911 H2901 0.929 . S
C2911 C2909 1.433 . S
C2911 N2914 1.384 . S
C2912 H2903 0.929 . S
C2912 C2904 1.378 . S
C2912 C2907 1.350 . S
C2913 H2900 0.929 . S
C2913 C2905 1.433 . S
C2913 N2915 1.384 . S
N2914 C2910 1.427 . S
N2914 C2911 1.384 . S
N2915 C2907 1.427 . S
N2915 C2913 1.384 . S
H2916 C2922 0.930 1_455 S
H2917 C2926 0.930 . S
H2918 C2931 0.929 . S
H2919 C2929 0.929 . S
H2920 C2924 0.929 . S
H2921 C2930 0.929 . S
C2922 H2916 0.930 1_655 S
C2922 C2923 1.367 . S
C2922 C2930 1.378 . S
C2923 C2922 1.367 . S
C2923 C2931 1.433 . S
C2924 H2920 0.929 . S
C2924 C2926 1.378 . S
C2924 C2928 1.350 . S
C2925 C2928 1.463 . S
C2925 C2930 1.350 . S
C2925 N2933 1.427 . S
C2926 H2917 0.930 . S
C2926 C2924 1.378 . S
C2926 C2927 1.367 . S
C2927 C2926 1.367 . S
C2927 C2929 1.433 . S
C2928 C2924 1.350 . S
C2928 C2925 1.463 . S
C2928 N2932 1.427 . S
C2929 H2919 0.929 . S
C2929 C2927 1.433 . S
C2929 N2932 1.384 . S
C2930 H2921 0.929 . S
C2930 C2922 1.378 . S
C2930 C2925 1.350 . S
C2931 H2918 0.929 . S
C2931 C2923 1.433 . S
C2931 N2933 1.384 . S
N2932 C2928 1.427 . S
N2932 C2929 1.384 . S
N2933 C2925 1.427 . S
N2933 C2931 1.384 . S
H2934 C2940 0.930 . S
H2935 C2944 0.930 . S
H2936 C2949 0.929 . S
H2937 C2947 0.929 . S
H2938 C2942 0.929 . S
H2939 C2948 0.929 . S
C2940 H2934 0.930 . S
C2940 C2941 1.367 . S
C2940 C2948 1.378 . S
C2941 C2940 1.367 . S
C2941 C2949 1.433 . S
C2942 H2938 0.929 . S
C2942 C2944 1.378 . S
C2942 C2946 1.350 . S
C2943 C2946 1.463 . S
C2943 C2948 1.350 . S
C2943 N2951 1.427 . S
C2944 H2935 0.930 . S
C2944 C2942 1.378 . S
C2944 C2945 1.367 . S
C2945 C2944 1.367 . S
C2945 C2947 1.433 . S
C2946 C2942 1.350 . S
C2946 C2943 1.463 . S
C2946 N2950 1.427 . S
C2947 H2937 0.929 . S
C2947 C2945 1.433 . S
C2947 N2950 1.384 . S
C2948 H2939 0.929 . S
C2948 C2940 1.378 . S
C2948 C2943 1.350 . S
C2949 H2936 0.929 . S
C2949 C2941 1.433 . S
C2949 N2951 1.384 . S
N2950 C2946 1.427 . S
N2950 C2947 1.384 . S
N2951 C2943 1.427 . S
N2951 C2949 1.384 . S
H2952 C2958 0.930 . S
H2953 C2962 0.930 . S
H2954 C2967 0.929 . S
H2955 C2965 0.929 . S
H2956 C2960 0.929 . S
H2957 C2966 0.929 . S
C2958 H2952 0.930 . S
C2958 C2959 1.367 . S
C2958 C2966 1.378 . S
C2959 C2958 1.367 . S
C2959 C2967 1.433 . S
C2960 H2956 0.929 . S
C2960 C2962 1.378 . S
C2960 C2964 1.350 . S
C2961 C2964 1.463 . S
C2961 C2966 1.350 . S
C2961 N2969 1.427 . S
C2962 H2953 0.930 . S
C2962 C2960 1.378 . S
C2962 C2963 1.367 . S
C2963 C2962 1.367 . S
C2963 C2965 1.433 . S
C2964 C2960 1.350 . S
C2964 C2961 1.463 . S
C2964 N2968 1.427 . S
C2965 H2955 0.929 . S
C2965 C2963 1.433 . S
C2965 N2968 1.384 . S
C2966 H2957 0.929 . S
C2966 C2958 1.378 . S
C2966 C2961 1.350 . S
C2967 H2954 0.929 . S
C2967 C2959 1.433 . S
C2967 N2969 1.384 . S
N2968 C2964 1.427 . S
N2968 C2965 1.384 . S
N2969 C2961 1.427 . S
N2969 C2967 1.384 . S
H2970 C2976 0.930 . S
H2971 C2980 0.930 . S
H2972 C2985 0.929 . S
H2973 C2983 0.929 . S
H2974 C2978 0.929 . S
H2975 C2984 0.929 . S
C2976 H2970 0.930 . S
C2976 C2977 1.367 . S
C2976 C2984 1.378 . S
C2977 C2976 1.367 . S
C2977 C2985 1.433 . S
C2978 H2974 0.929 . S
C2978 C2980 1.378 . S
C2978 C2982 1.350 . S
C2979 C2982 1.463 . S
C2979 C2984 1.350 . S
C2979 N2987 1.427 . S
C2980 H2971 0.930 . S
C2980 C2978 1.378 . S
C2980 C2981 1.367 . S
C2981 C2980 1.367 . S
C2981 C2983 1.433 . S
C2982 C2978 1.350 . S
C2982 C2979 1.463 . S
C2982 N2986 1.427 . S
C2983 H2973 0.929 . S
C2983 C2981 1.433 . S
C2983 N2986 1.384 . S
C2984 H2975 0.929 . S
C2984 C2976 1.378 . S
C2984 C2979 1.350 . S
C2985 H2972 0.929 . S
C2985 C2977 1.433 . S
C2985 N2987 1.384 . S
N2986 C2982 1.427 . S
N2986 C2983 1.384 . S
N2987 C2979 1.427 . S
N2987 C2985 1.384 . S
H2988 C2994 0.930 . S
H2989 C2998 0.930 . S
H2990 C3003 0.929 1_545 S
H2991 C3001 0.929 . S
H2992 C2996 0.929 . S
H2993 C3002 0.929 . S
C2994 H2988 0.930 . S
C2994 C2995 1.367 . S
C2994 C3002 1.378 . S
C2995 C2994 1.367 . S
C2995 C3003 1.433 . S
C2996 H2992 0.929 . S
C2996 C2998 1.378 . S
C2996 C3000 1.350 . S
C2997 C3000 1.463 . S
C2997 C3002 1.350 . S
C2997 N3005 1.427 . S
C2998 H2989 0.930 . S
C2998 C2996 1.378 . S
C2998 C2999 1.367 . S
C2999 C2998 1.367 . S
C2999 C3001 1.433 . S
C3000 C2996 1.350 . S
C3000 C2997 1.463 . S
C3000 N3004 1.427 . S
C3001 H2991 0.929 . S
C3001 C2999 1.433 . S
C3001 N3004 1.384 . S
C3002 H2993 0.929 . S
C3002 C2994 1.378 . S
C3002 C2997 1.350 . S
C3003 H2990 0.929 1_565 S
C3003 C2995 1.433 . S
C3003 N3005 1.384 . S
N3004 C3000 1.427 . S
N3004 C3001 1.384 . S
N3005 C2997 1.427 . S
N3005 C3003 1.384 . S
H3006 C3012 0.930 . S
H3007 C3016 0.930 . S
H3008 C3021 0.929 . S
H3009 C3019 0.929 . S
H3010 C3014 0.929 . S
H3011 C3020 0.929 . S
C3012 H3006 0.930 . S
C3012 C3013 1.367 . S
C3012 C3020 1.378 . S
C3013 C3012 1.367 . S
C3013 C3021 1.433 . S
C3014 H3010 0.929 . S
C3014 C3016 1.378 . S
C3014 C3018 1.350 . S
C3015 C3018 1.463 . S
C3015 C3020 1.350 . S
C3015 N3023 1.427 . S
C3016 H3007 0.930 . S
C3016 C3014 1.378 . S
C3016 C3017 1.367 . S
C3017 C3016 1.367 . S
C3017 C3019 1.433 . S
C3018 C3014 1.350 . S
C3018 C3015 1.463 . S
C3018 N3022 1.427 . S
C3019 H3009 0.929 . S
C3019 C3017 1.433 . S
C3019 N3022 1.384 . S
C3020 H3011 0.929 . S
C3020 C3012 1.378 . S
C3020 C3015 1.350 . S
C3021 H3008 0.929 . S
C3021 C3013 1.433 . S
C3021 N3023 1.384 . S
N3022 C3018 1.427 . S
N3022 C3019 1.384 . S
N3023 C3015 1.427 . S
N3023 C3021 1.384 . S
C1303 C977 0.853 . S
C1307 C5 0.842 . S
C1321 C76 0.860 . S
C1325 C1031 0.861 . S
C1339 C886 0.836 . S
C1343 C113 0.855 . S
C1357 C184 0.862 . S
C1361 C923 0.843 . S
C1375 C1193 0.862 . S
C1379 C238 0.854 . S
C1393 C1139 0.855 . S
C1397 C275 0.864 . S
C1411 C1264 0.861 . S
C1415 C329 0.860 . S
C1429 C1085 0.862 . S
C1433 C400 0.853 . S
C1447 C454 0.864 . S
C1451 C707 0.857 . S
C1465 C815 0.846 . S
C1469 C491 0.863 . S
C1483 C562 0.847 . S
C1487 C778 0.834 . S
C1501 C670 0.834 . S
C1505 C616 0.851 . S
C1519 C346 0.861 . S
C1523 C653 0.861 . S
C1537 C383 0.862 . S
C1541 C724 0.856 . S
C1555 C221 0.840 . S
C1559 C761 0.840 . S
C1573 C832 0.842 . S
C1577 C292 0.852 . S
C1591 C545 0.854 . S
C1595 C869 0.843 . S
C1609 C940 0.841 . S
C1613 C508 0.851 . S
C1627 C599 0.856 . S
C1631 C994 0.844 . S
C1645 C437 0.843 . S
C1649 C1048 0.840 . S
C1663 C1102 0.849 . S
C1667 C59 0.834 . S
C1681 C167 0.861 . S
C1685 C1156 0.850 . S
C1699 C1210 0.840 . S
C1703 C130 0.841 . S
C1717 C1247 0.854 . S
C1721 C22 0.836 . S
C1735 C445 1.868 . S
C1739 C28 2.059 . S
C1753 C89 2.062 . S
C1757 C607 1.873 . S
C1771 C136 2.062 . S
C1775 C518 1.873 . S
C1789 C197 2.059 . S
C1793 C553 1.868 . S
C1807 C251 2.055 . S
C1811 C32 1.858 . S
C1825 C298 2.064 . S
C1829 C67 1.877 . S
C1843 C140 1.865 . S
C1847 C352 2.058 . S
C1861 C413 2.056 . S
C1865 C175 1.860 . S
C1879 C229 1.875 . S
C1883 C467 2.063 . S
C1897 C514 2.055 . S
C1901 C356 1.860 . S
C1915 C391 1.876 . S
C1919 C575 2.064 . S
C1933 C302 1.863 . S
C1937 C629 2.057 . S
C1951 C1093 1.859 . S
C1955 C676 2.055 . S
C1969 C737 2.058 . S
C1973 C1274 1.866 . S
C1987 C1147 1.866 . S
C1991 C784 2.058 . S
C2005 C845 2.062 . S
C2009 C1201 1.873 . S
C2023 C680 1.864 . S
C2027 C892 2.057 . S
C2041 C715 1.858 . S
C2045 C953 2.055 . S
C2059 C1007 2.063 . S
C2063 C788 1.876 . S
C2077 C823 1.866 . S
C2081 C1061 2.058 . S
C2095 C896 1.858 . S
C2099 C1115 2.055 . S
C2113 C1169 2.056 . S
C2117 C985 1.862 . S
C2131 C1223 2.063 . S
C2135 C1039 1.876 . S
C2149 C1270 2.062 . S
C2153 C931 1.873 . S
C2167 C27 1.021 . S
C2171 C622 1.007 . S
C2185 C460 1.004 . S
C2189 C64 1.035 . S
C2203 C135 1.033 . S
C2207 C568 0.997 . S
C2221 C172 1.023 . S
C2225 C521 1.012 . S
C2239 C143 1.008 . S
C2243 C226 1.035 . S
C2257 C190 1.002 . S
C2261 C297 1.035 . S
C2275 C35 0.996 . S
C2279 C351 1.033 . S
C2293 C388 1.021 . S
C2297 C82 0.995 . S
C2311 C406 1.015 . S
C2315 C442 1.030 . S
C2329 C513 1.033 . S
C2333 C305 1.013 . S
C2347 C244 0.998 . S
C2351 C550 1.021 . S
C2365 C604 1.030 . S
C2369 C359 0.993 . S
C2383 C1277 0.993 . S
C2387 C675 1.030 . S
C2401 C1108 0.999 . S
C2405 C712 1.034 . S
C2419 C1216 0.992 . S
C2423 C783 1.025 . S
C2437 C1162 1.015 . S
C2441 C820 1.029 . S
C2455 C891 1.032 . S
C2459 C791 0.996 . S
C2473 C928 1.020 . S
C2477 C838 1.003 . S
C2491 C982 1.034 . S
C2495 C683 1.010 . S
C2509 C1036 1.025 . S
C2513 C730 1.014 . S
C2527 C1054 1.005 . S
C2531 C1090 1.035 . S
C2545 C946 1.012 . S
C2549 C1144 1.033 . S
C2563 C899 0.992 . S
C2567 C1198 1.026 . S
C2581 C1000 1.015 . S
C2585 C1269 1.029 . S
C2599 C1215 2.218 . S
C2603 C13 2.204 . S
C2617 C1161 2.214 . S
C2621 C86 2.204 . S
C2635 C121 2.205 . S
C2639 C1252 2.218 . S
C2653 C1107 2.214 . S
C2657 C194 2.204 . S
C2671 C248 2.204 . S
C2675 C729 2.218 . S
C2689 C658 2.219 . S
C2693 C283 2.209 . S
C2707 C337 2.208 . S
C2711 C837 2.217 . S
C2725 C410 2.206 . S
C2729 C766 2.215 . S
C2743 C999 2.214 . S
C2747 C464 2.204 . S
C2761 C874 2.213 . S
C2765 C499 2.202 . S
C2779 C572 2.207 . S
C2783 C945 2.217 . S
C2797 C626 2.209 . S
C2801 C1053 2.219 . S
C2815 C661 2.206 . S
C2819 C567 2.219 . S
C2833 C734 2.206 . S
C2837 C496 2.215 . S
C2851 C621 2.220 . S
C2855 C769 2.209 . S
C2869 C459 2.213 . S
C2873 C842 2.201 . S
C2887 C877 2.201 . S
C2891 C81 2.213 . S
C2905 C950 2.208 . S
C2909 C10 2.218 . S
C2923 C1004 2.208 . S
C2927 C189 2.220 . S
C2941 C1058 2.202 . S
C2945 C118 2.213 . S
C2959 C1112 2.204 . S
C2963 C334 2.214 . S
C2977 C1166 2.209 . S
C2981 C243 2.219 . S
C2995 C1220 2.201 . S
C2999 C280 2.213 . S
C3013 C405 2.218 . S
C3017 C1255 2.208 . S
