# Generated by pormake.
# Topology vbb, (4)-cn, num edge types: 1
# Building blocks:
#     Node 0, Type 0, BuildingBlock: CEKHIL_clean_sbu_0, # of connection points: 4
#     Node 1, Type 0, BuildingBlock: CEKHIL_clean_sbu_0, # of connection points: 4
#     Node 2, Type 0, BuildingBlock: CEKHIL_clean_sbu_0, # of connection points: 4
#     Node 3, Type 0, BuildingBlock: CEKHIL_clean_sbu_0, # of connection points: 4
#     Node 4, Type 0, BuildingBlock: CEKHIL_clean_sbu_0, # of connection points: 4
#     Node 5, Type 0, BuildingBlock: CEKHIL_clean_sbu_0, # of connection points: 4
#     Node 6, Type 0, BuildingBlock: CEKHIL_clean_sbu_0, # of connection points: 4
#     Node 7, Type 0, BuildingBlock: CEKHIL_clean_sbu_0, # of connection points: 4
#     Node 8, Type 0, BuildingBlock: CEKHIL_clean_sbu_0, # of connection points: 4
#     Node 9, Type 0, BuildingBlock: CEKHIL_clean_sbu_0, # of connection points: 4
#     Node 10, Type 0, BuildingBlock: CEKHIL_clean_sbu_0, # of connection points: 4
#     Node 11, Type 0, BuildingBlock: CEKHIL_clean_sbu_0, # of connection points: 4
#     Node 12, Type 0, BuildingBlock: CEKHIL_clean_sbu_0, # of connection points: 4
#     Node 13, Type 0, BuildingBlock: CEKHIL_clean_sbu_0, # of connection points: 4
#     Node 14, Type 0, BuildingBlock: CEKHIL_clean_sbu_0, # of connection points: 4
#     Node 15, Type 0, BuildingBlock: CEKHIL_clean_sbu_0, # of connection points: 4
#     Node 16, Type 0, BuildingBlock: CEKHIL_clean_sbu_0, # of connection points: 4
#     Node 17, Type 0, BuildingBlock: CEKHIL_clean_sbu_0, # of connection points: 4
#     Node 18, Type 0, BuildingBlock: CEKHIL_clean_sbu_0, # of connection points: 4
#     Node 19, Type 0, BuildingBlock: CEKHIL_clean_sbu_0, # of connection points: 4
#     Node 20, Type 0, BuildingBlock: CEKHIL_clean_sbu_0, # of connection points: 4
#     Node 21, Type 0, BuildingBlock: CEKHIL_clean_sbu_0, # of connection points: 4
#     Node 22, Type 0, BuildingBlock: CEKHIL_clean_sbu_0, # of connection points: 4
#     Node 23, Type 0, BuildingBlock: CEKHIL_clean_sbu_0, # of connection points: 4
#     Node 24, Type 0, BuildingBlock: CEKHIL_clean_sbu_0, # of connection points: 4
#     Node 25, Type 0, BuildingBlock: CEKHIL_clean_sbu_0, # of connection points: 4
#     Node 26, Type 0, BuildingBlock: CEKHIL_clean_sbu_0, # of connection points: 4
#     Node 27, Type 0, BuildingBlock: CEKHIL_clean_sbu_0, # of connection points: 4
#     Node 28, Type 0, BuildingBlock: CEKHIL_clean_sbu_0, # of connection points: 4
#     Node 29, Type 0, BuildingBlock: CEKHIL_clean_sbu_0, # of connection points: 4
#     Node 30, Type 0, BuildingBlock: CEKHIL_clean_sbu_0, # of connection points: 4
#     Node 31, Type 0, BuildingBlock: CEKHIL_clean_sbu_0, # of connection points: 4
#     Edge 32, Type (0, 0), BuildingBlock: XIVTED_clean_linker_0, # of connection points: 2
#     Edge 33, Type (0, 0), BuildingBlock: XIVTED_clean_linker_0, # of connection points: 2
#     Edge 34, Type (0, 0), BuildingBlock: XIVTED_clean_linker_0, # of connection points: 2
#     Edge 35, Type (0, 0), BuildingBlock: XIVTED_clean_linker_0, # of connection points: 2
#     Edge 36, Type (0, 0), BuildingBlock: XIVTED_clean_linker_0, # of connection points: 2
#     Edge 37, Type (0, 0), BuildingBlock: XIVTED_clean_linker_0, # of connection points: 2
#     Edge 38, Type (0, 0), BuildingBlock: XIVTED_clean_linker_0, # of connection points: 2
#     Edge 39, Type (0, 0), BuildingBlock: XIVTED_clean_linker_0, # of connection points: 2
#     Edge 40, Type (0, 0), BuildingBlock: XIVTED_clean_linker_0, # of connection points: 2
#     Edge 41, Type (0, 0), BuildingBlock: XIVTED_clean_linker_0, # of connection points: 2
#     Edge 42, Type (0, 0), BuildingBlock: XIVTED_clean_linker_0, # of connection points: 2
#     Edge 43, Type (0, 0), BuildingBlock: XIVTED_clean_linker_0, # of connection points: 2
#     Edge 44, Type (0, 0), BuildingBlock: XIVTED_clean_linker_0, # of connection points: 2
#     Edge 45, Type (0, 0), BuildingBlock: XIVTED_clean_linker_0, # of connection points: 2
#     Edge 46, Type (0, 0), BuildingBlock: XIVTED_clean_linker_0, # of connection points: 2
#     Edge 47, Type (0, 0), BuildingBlock: XIVTED_clean_linker_0, # of connection points: 2
#     Edge 48, Type (0, 0), BuildingBlock: XIVTED_clean_linker_0, # of connection points: 2
#     Edge 49, Type (0, 0), BuildingBlock: XIVTED_clean_linker_0, # of connection points: 2
#     Edge 50, Type (0, 0), BuildingBlock: XIVTED_clean_linker_0, # of connection points: 2
#     Edge 51, Type (0, 0), BuildingBlock: XIVTED_clean_linker_0, # of connection points: 2
#     Edge 52, Type (0, 0), BuildingBlock: XIVTED_clean_linker_0, # of connection points: 2
#     Edge 53, Type (0, 0), BuildingBlock: XIVTED_clean_linker_0, # of connection points: 2
#     Edge 54, Type (0, 0), BuildingBlock: XIVTED_clean_linker_0, # of connection points: 2
#     Edge 55, Type (0, 0), BuildingBlock: XIVTED_clean_linker_0, # of connection points: 2
#     Edge 56, Type (0, 0), BuildingBlock: XIVTED_clean_linker_0, # of connection points: 2
#     Edge 57, Type (0, 0), BuildingBlock: XIVTED_clean_linker_0, # of connection points: 2
#     Edge 58, Type (0, 0), BuildingBlock: XIVTED_clean_linker_0, # of connection points: 2
#     Edge 59, Type (0, 0), BuildingBlock: XIVTED_clean_linker_0, # of connection points: 2
#     Edge 60, Type (0, 0), BuildingBlock: XIVTED_clean_linker_0, # of connection points: 2
#     Edge 61, Type (0, 0), BuildingBlock: XIVTED_clean_linker_0, # of connection points: 2
#     Edge 62, Type (0, 0), BuildingBlock: XIVTED_clean_linker_0, # of connection points: 2
#     Edge 63, Type (0, 0), BuildingBlock: XIVTED_clean_linker_0, # of connection points: 2
#     Edge 64, Type (0, 0), BuildingBlock: XIVTED_clean_linker_0, # of connection points: 2
#     Edge 65, Type (0, 0), BuildingBlock: XIVTED_clean_linker_0, # of connection points: 2
#     Edge 66, Type (0, 0), BuildingBlock: XIVTED_clean_linker_0, # of connection points: 2
#     Edge 67, Type (0, 0), BuildingBlock: XIVTED_clean_linker_0, # of connection points: 2
#     Edge 68, Type (0, 0), BuildingBlock: XIVTED_clean_linker_0, # of connection points: 2
#     Edge 69, Type (0, 0), BuildingBlock: XIVTED_clean_linker_0, # of connection points: 2
#     Edge 70, Type (0, 0), BuildingBlock: XIVTED_clean_linker_0, # of connection points: 2
#     Edge 71, Type (0, 0), BuildingBlock: XIVTED_clean_linker_0, # of connection points: 2
#     Edge 72, Type (0, 0), BuildingBlock: XIVTED_clean_linker_0, # of connection points: 2
#     Edge 73, Type (0, 0), BuildingBlock: XIVTED_clean_linker_0, # of connection points: 2
#     Edge 74, Type (0, 0), BuildingBlock: XIVTED_clean_linker_0, # of connection points: 2
#     Edge 75, Type (0, 0), BuildingBlock: XIVTED_clean_linker_0, # of connection points: 2
#     Edge 76, Type (0, 0), BuildingBlock: XIVTED_clean_linker_0, # of connection points: 2
#     Edge 77, Type (0, 0), BuildingBlock: XIVTED_clean_linker_0, # of connection points: 2
#     Edge 78, Type (0, 0), BuildingBlock: XIVTED_clean_linker_0, # of connection points: 2
#     Edge 79, Type (0, 0), BuildingBlock: XIVTED_clean_linker_0, # of connection points: 2
#     Edge 80, Type (0, 0), BuildingBlock: XIVTED_clean_linker_0, # of connection points: 2
#     Edge 81, Type (0, 0), BuildingBlock: XIVTED_clean_linker_0, # of connection points: 2
#     Edge 82, Type (0, 0), BuildingBlock: XIVTED_clean_linker_0, # of connection points: 2
#     Edge 83, Type (0, 0), BuildingBlock: XIVTED_clean_linker_0, # of connection points: 2
#     Edge 84, Type (0, 0), BuildingBlock: XIVTED_clean_linker_0, # of connection points: 2
#     Edge 85, Type (0, 0), BuildingBlock: XIVTED_clean_linker_0, # of connection points: 2
#     Edge 86, Type (0, 0), BuildingBlock: XIVTED_clean_linker_0, # of connection points: 2
#     Edge 87, Type (0, 0), BuildingBlock: XIVTED_clean_linker_0, # of connection points: 2
#     Edge 88, Type (0, 0), BuildingBlock: XIVTED_clean_linker_0, # of connection points: 2
#     Edge 89, Type (0, 0), BuildingBlock: XIVTED_clean_linker_0, # of connection points: 2
#     Edge 90, Type (0, 0), BuildingBlock: XIVTED_clean_linker_0, # of connection points: 2
#     Edge 91, Type (0, 0), BuildingBlock: XIVTED_clean_linker_0, # of connection points: 2
#     Edge 92, Type (0, 0), BuildingBlock: XIVTED_clean_linker_0, # of connection points: 2
#     Edge 93, Type (0, 0), BuildingBlock: XIVTED_clean_linker_0, # of connection points: 2
#     Edge 94, Type (0, 0), BuildingBlock: XIVTED_clean_linker_0, # of connection points: 2
#     Edge 95, Type (0, 0), BuildingBlock: XIVTED_clean_linker_0, # of connection points: 2
# Relax obj value: 0.126
# Max RMSD: 0.356
# Mean RMSD: 0.329
data_MOF--net-vbb--node1-CEKHIL_clean_sbu_0--edge1-XIVTED_clean_linker_0
_symmetry_space_group_name_H-M    P1
_symmetry_Int_Tables_number       1
_symmetry_cell_setting            triclinic
loop_
_symmetry_equiv_pos_as_xyz
'x, y, z'
_cell_length_a     53.220903
_cell_length_b     22.764188
_cell_length_c     109.00595
_cell_angle_alpha  90.753208
_cell_angle_beta   89.874826
_cell_angle_gamma 89.969811
loop_
_atom_site_label
_atom_site_type_symbol
_atom_site_fract_x
_atom_site_fract_y
_atom_site_fract_z
_atom_type_partial_charge
Co0 Co 0.47511 0.07189 0.06444 0.0
O1 O 0.43965 0.06354 0.06322 0.0
O2 O 0.46689 0.99093 0.06032 0.0
C3 C 0.47509 0.12094 0.08217 0.0
O4 O 0.51364 0.06783 0.06543 0.0
Co5 Co 0.49591 0.19446 0.06165 0.0
O6 O 0.52495 0.16043 0.07012 0.0
C7 C 0.48749 0.12507 0.03953 0.0
C8 C 0.44358 0.0088 0.06059 0.0
C9 C 0.53002 0.10601 0.06911 0.0
O10 O 0.47696 0.08798 0.04654 0.0
O11 O 0.49723 0.17276 0.04361 0.0
O12 O 0.47362 0.06428 0.0818 0.0
O13 O 0.47299 0.14821 0.07176 0.0
Co14 Co 0.76355 0.18772 0.06155 0.0
O15 O 0.79588 0.22125 0.06341 0.0
O16 O 0.7611 0.27304 0.06042 0.0
C17 C 0.76675 0.12845 0.07759 0.0
O18 O 0.72659 0.16369 0.06 0.0
Co19 Co 0.76207 0.06238 0.05343 0.0
O20 O 0.72676 0.06515 0.05872 0.0
C21 C 0.76785 0.1483 0.03448 0.0
C22 C 0.78536 0.27176 0.06208 0.0
C23 C 0.71518 0.11364 0.06004 0.0
O24 O 0.76831 0.18554 0.04333 0.0
O25 O 0.76553 0.09327 0.03626 0.0
O26 O 0.7596 0.18249 0.0788 0.0
O27 O 0.77521 0.11228 0.06681 0.0
Co28 Co 0.48979 0.1951 0.18699 0.0
O29 O 0.45663 0.22389 0.18497 0.0
O30 O 0.48941 0.28064 0.18919 0.0
C31 C 0.48951 0.13848 0.17014 0.0
O32 O 0.52733 0.17539 0.18897 0.0
Co33 Co 0.49333 0.06904 0.19358 0.0
O34 O 0.52844 0.07685 0.18829 0.0
C35 C 0.48485 0.15087 0.21344 0.0
C36 C 0.46533 0.27569 0.18715 0.0
C37 C 0.5395 0.12627 0.18812 0.0
O38 O 0.48374 0.18914 0.20502 0.0
O39 O 0.48882 0.09661 0.21108 0.0
O40 O 0.49527 0.19357 0.16979 0.0
O41 O 0.48047 0.1194 0.18049 0.0
Co42 Co 0.77867 0.04853 0.183 0.0
O43 O 0.8125 0.02222 0.1822 0.0
O44 O 0.78012 0.96469 0.18657 0.0
C45 C 0.7795 0.09721 0.16546 0.0
O46 O 0.74064 0.06517 0.18403 0.0
Co47 Co 0.77151 0.17835 0.18726 0.0
O48 O 0.73762 0.16222 0.18091 0.0
C49 C 0.77889 0.10616 0.2086 0.0
C50 C 0.8043 0.97089 0.18503 0.0
C51 C 0.72759 0.11177 0.18176 0.0
O52 O 0.78257 0.06421 0.20094 0.0
O53 O 0.7737 0.1583 0.20523 0.0
O54 O 0.77529 0.0413 0.16566 0.0
O55 O 0.78675 0.12197 0.17571 0.0
Co56 Co 0.52205 0.9624 0.93744 0.0
O57 O 0.55614 0.98544 0.936 0.0
O58 O 0.52502 0.04614 0.94116 0.0
C59 C 0.52038 0.9123 0.91986 0.0
O60 O 0.48402 0.94997 0.93918 0.0
Co61 Co 0.51342 0.83315 0.94167 0.0
O62 O 0.4783 0.85198 0.9378 0.0
C63 C 0.52505 0.9058 0.96283 0.0
C64 C 0.54892 0.03763 0.93912 0.0
C65 C 0.46983 0.90415 0.9382 0.0
O66 O 0.52735 0.9475 0.95522 0.0
O67 O 0.51925 0.85355 0.95952 0.0
O68 O 0.51723 0.96863 0.92023 0.0
O69 O 0.52821 0.88769 0.92989 0.0
Co70 Co 0.23158 0.8167 0.93645 0.0
O71 O 0.19643 0.80253 0.93625 0.0
O72 O 0.22508 0.73582 0.94099 0.0
C73 C 0.23325 0.86074 0.91841 0.0
O74 O 0.2702 0.81893 0.93715 0.0
Co75 Co 0.2489 0.94026 0.93936 0.0
O76 O 0.27925 0.91015 0.93112 0.0
C77 C 0.23884 0.87561 0.96142 0.0
C78 C 0.20143 0.74997 0.93984 0.0
C79 C 0.28579 0.85751 0.93307 0.0
O80 O 0.22901 0.83779 0.95418 0.0
O81 O 0.24938 0.92211 0.95749 0.0
O82 O 0.23396 0.80415 0.91923 0.0
O83 O 0.22827 0.89062 0.92844 0.0
Co84 Co 0.51091 0.82437 0.81562 0.0
O85 O 0.54296 0.79489 0.81993 0.0
O86 O 0.51092 0.73878 0.81421 0.0
C87 C 0.50803 0.88529 0.83177 0.0
O88 O 0.47435 0.84311 0.8113 0.0
Co89 Co 0.50836 0.94806 0.80756 0.0
O90 O 0.47218 0.94138 0.81079 0.0
C91 C 0.52073 0.86124 0.78911 0.0
C92 C 0.53434 0.74295 0.81765 0.0
C93 C 0.46164 0.89137 0.81097 0.0
O94 O 0.52138 0.82562 0.79803 0.0
O95 O 0.51536 0.91546 0.79063 0.0
O96 O 0.50136 0.83077 0.83233 0.0
O97 O 0.51919 0.90157 0.82169 0.0
Co98 Co 0.22146 0.95222 0.81357 0.0
O99 O 0.18733 0.97441 0.81551 0.0
O100 O 0.21831 0.03688 0.8116 0.0
C101 C 0.22305 0.89625 0.83011 0.0
O102 O 0.25954 0.9408 0.81165 0.0
Co103 Co 0.23126 0.82563 0.80687 0.0
O104 O 0.26481 0.84348 0.81346 0.0
C105 C 0.22079 0.90548 0.78705 0.0
C106 C 0.19446 0.02762 0.81358 0.0
C107 C 0.27362 0.89536 0.81332 0.0
O108 O 0.21641 0.94368 0.79546 0.0
O109 O 0.22752 0.85298 0.78943 0.0
O110 O 0.22613 0.95251 0.83087 0.0
O111 O 0.21548 0.87503 0.81957 0.0
Co112 Co 0.47991 0.53921 0.56522 0.0
O113 O 0.44771 0.50803 0.56875 0.0
O114 O 0.47824 0.4573 0.55964 0.0
C115 C 0.48528 0.58043 0.58367 0.0
O116 O 0.51646 0.56082 0.56092 0.0
Co117 Co 0.48344 0.66903 0.56333 0.0
O118 O 0.51937 0.65595 0.56625 0.0
C119 C 0.46944 0.60487 0.54149 0.0
C120 C 0.45516 0.45959 0.5637 0.0
C121 C 0.5296 0.60741 0.56326 0.0
O122 O 0.46791 0.56092 0.54857 0.0
O123 O 0.4763 0.65549 0.54535 0.0
O124 O 0.49093 0.52599 0.5815 0.0
O125 O 0.47346 0.60811 0.575 0.0
Co126 Co 0.76792 0.69196 0.55891 0.0
O127 O 0.80107 0.71872 0.56196 0.0
O128 O 0.76954 0.77711 0.55682 0.0
C129 C 0.76574 0.63623 0.5756 0.0
O130 O 0.73048 0.67509 0.55578 0.0
Co131 Co 0.7634 0.56595 0.55185 0.0
O132 O 0.72757 0.5767 0.55546 0.0
C133 C 0.77399 0.64648 0.53239 0.0
C134 C 0.79327 0.77081 0.55953 0.0
C135 C 0.71741 0.6272 0.55565 0.0
O136 O 0.77592 0.68463 0.54101 0.0
O137 O 0.76864 0.59292 0.53449 0.0
O138 O 0.7605 0.69167 0.57598 0.0
O139 O 0.77557 0.61602 0.56541 0.0
Co140 Co 0.48514 0.66014 0.6886 0.0
O141 O 0.45072 0.68039 0.68759 0.0
O142 O 0.48113 0.74529 0.69047 0.0
C143 C 0.48556 0.60122 0.67221 0.0
O144 O 0.52347 0.64971 0.68966 0.0
Co145 Co 0.49467 0.5347 0.69567 0.0
O146 O 0.52884 0.55174 0.68992 0.0
C147 C 0.48544 0.61792 0.7153 0.0
C148 C 0.45711 0.73435 0.68947 0.0
C149 C 0.53763 0.60352 0.68919 0.0
O150 O 0.48185 0.65476 0.70677 0.0
O151 O 0.49113 0.56432 0.7131 0.0
O152 O 0.48824 0.65743 0.67124 0.0
O153 O 0.47879 0.5819 0.68293 0.0
Co154 Co 0.77742 0.55029 0.68211 0.0
O155 O 0.81109 0.52518 0.67989 0.0
O156 O 0.78016 0.46712 0.68607 0.0
C157 C 0.77474 0.59762 0.66441 0.0
O158 O 0.73964 0.56504 0.68468 0.0
Co159 Co 0.76943 0.67895 0.68638 0.0
O160 O 0.73488 0.66128 0.6812 0.0
C161 C 0.7807 0.60877 0.70755 0.0
C162 C 0.80389 0.47404 0.68342 0.0
C163 C 0.72568 0.61033 0.68261 0.0
O164 O 0.78451 0.56729 0.69979 0.0
O165 O 0.77378 0.65996 0.7043 0.0
O166 O 0.77088 0.54164 0.66502 0.0
O167 O 0.7836 0.62353 0.67424 0.0
Co168 Co 0.52578 0.43257 0.43912 0.0
O169 O 0.56035 0.44852 0.44212 0.0
O170 O 0.53081 0.51695 0.44095 0.0
C171 C 0.53157 0.3719 0.42318 0.0
O172 O 0.48772 0.42746 0.43589 0.0
Co173 Co 0.50938 0.30728 0.44491 0.0
O174 O 0.4795 0.33032 0.43553 0.0
C175 C 0.51245 0.39142 0.4651 0.0
C176 C 0.55438 0.50348 0.44262 0.0
C177 C 0.47297 0.38332 0.43375 0.0
O178 O 0.5199 0.42819 0.45713 0.0
O179 O 0.50712 0.33807 0.46237 0.0
O180 O 0.53164 0.42824 0.42183 0.0
O181 O 0.53165 0.35312 0.43443 0.0
Co182 Co 0.23768 0.29977 0.43351 0.0
O183 O 0.20499 0.26627 0.43299 0.0
O184 O 0.23952 0.21662 0.43761 0.0
C185 C 0.23537 0.34645 0.41572 0.0
O186 O 0.27486 0.32431 0.43439 0.0
Co187 Co 0.23899 0.43026 0.43752 0.0
O188 O 0.27443 0.42258 0.43264 0.0
C189 C 0.23278 0.35948 0.45897 0.0
C190 C 0.21514 0.21762 0.43634 0.0
C191 C 0.2862 0.37404 0.433 0.0
O192 O 0.2329 0.3164 0.45138 0.0
O193 O 0.23506 0.4126 0.45554 0.0
O194 O 0.24168 0.29163 0.41622 0.0
O195 O 0.22674 0.37034 0.42584 0.0
Co196 Co 0.50305 0.29451 0.31767 0.0
O197 O 0.53446 0.25836 0.32064 0.0
O198 O 0.50157 0.21156 0.3128 0.0
C199 C 0.50175 0.33952 0.33601 0.0
O200 O 0.46691 0.32161 0.31422 0.0
Co201 Co 0.5026 0.42281 0.3146 0.0
O202 O 0.46748 0.41626 0.32005 0.0
C203 C 0.51399 0.35341 0.29312 0.0
C204 C 0.52504 0.21043 0.31626 0.0
C205 C 0.45557 0.36943 0.31751 0.0
O206 O 0.51388 0.31059 0.30052 0.0
O207 O 0.50913 0.40587 0.29664 0.0
O208 O 0.49354 0.28654 0.33435 0.0
O209 O 0.51296 0.36378 0.32667 0.0
Co210 Co 0.21693 0.44448 0.30991 0.0
O211 O 0.18141 0.44571 0.30753 0.0
O212 O 0.20596 0.52416 0.30661 0.0
C213 C 0.21638 0.39299 0.3272 0.0
O214 O 0.25495 0.45634 0.31212 0.0
Co215 Co 0.24267 0.32534 0.30701 0.0
O216 O 0.27041 0.3658 0.31546 0.0
C217 C 0.23567 0.39702 0.28522 0.0
C218 C 0.18345 0.50167 0.306 0.0
C219 C 0.27285 0.42128 0.31524 0.0
O220 O 0.22219 0.43113 0.29193 0.0
O221 O 0.24612 0.35073 0.28936 0.0
O222 O 0.21265 0.44905 0.32733 0.0
O223 O 0.21698 0.36726 0.31645 0.0
Co224 Co 0.97901 0.03335 0.55811 0.0
O225 O 0.94618 0.00135 0.55809 0.0
O226 O 0.98066 0.94923 0.55428 0.0
C227 C 0.97445 0.08214 0.57585 0.0
O228 O 0.01634 0.05706 0.55793 0.0
Co229 Co 0.98098 0.16447 0.55432 0.0
O230 O 0.01586 0.15556 0.55986 0.0
C231 C 0.97575 0.09067 0.53275 0.0
C232 C 0.95623 0.95145 0.55531 0.0
C233 C 0.02763 0.10692 0.55954 0.0
O234 O 0.97591 0.04793 0.54019 0.0
O235 O 0.9775 0.14419 0.5363 0.0
O236 O 0.98091 0.02734 0.57551 0.0
O237 O 0.96773 0.10504 0.56545 0.0
Co238 Co 0.26538 0.2047 0.56363 0.0
O239 O 0.29873 0.2329 0.56525 0.0
O240 O 0.26592 0.28991 0.56143 0.0
C241 C 0.26629 0.14958 0.58035 0.0
O242 O 0.2277 0.18555 0.56202 0.0
Co243 Co 0.26052 0.07737 0.55705 0.0
O244 O 0.22643 0.08748 0.56374 0.0
C245 C 0.26821 0.15743 0.53711 0.0
C246 C 0.29009 0.28463 0.56316 0.0
C247 C 0.2155 0.13712 0.56369 0.0
O248 O 0.27038 0.19655 0.54553 0.0
O249 O 0.26388 0.10363 0.53951 0.0
O250 O 0.26099 0.20497 0.58095 0.0
O251 O 0.27448 0.12936 0.56982 0.0
Co252 Co 0.99014 0.22111 0.68315 0.0
O253 O 0.95783 0.25568 0.68237 0.0
O254 O 0.99156 0.30119 0.68979 0.0
C255 C 0.98932 0.18531 0.66396 0.0
O256 O 0.02692 0.19505 0.6847 0.0
Co257 Co 0.99185 0.08912 0.68285 0.0
O258 O 0.02679 0.10215 0.67749 0.0
C259 C 0.98103 0.14675 0.70601 0.0
C260 C 0.96753 0.30184 0.68743 0.0
C261 C 0.03839 0.14875 0.68062 0.0
O262 O 0.98239 0.19426 0.70001 0.0
O263 O 0.98446 0.09627 0.70103 0.0
O264 O 0.99648 0.23861 0.66637 0.0
O265 O 0.98019 0.156 0.67316 0.0
Co266 Co 0.2779 0.06804 0.68664 0.0
O267 O 0.31356 0.0596 0.68676 0.0
O268 O 0.28669 0.98789 0.69067 0.0
C269 C 0.27574 0.11416 0.66882 0.0
O270 O 0.23931 0.06303 0.68686 0.0
Co271 Co 0.25614 0.18956 0.68949 0.0
O272 O 0.22639 0.1535 0.68186 0.0
C273 C 0.26549 0.12192 0.71148 0.0
C274 C 0.30993 0.00531 0.6896 0.0
C275 C 0.22216 0.09923 0.68338 0.0
O276 O 0.27832 0.08757 0.70455 0.0
O277 O 0.25405 0.16687 0.70735 0.0
O278 O 0.2771 0.05753 0.66928 0.0
O279 O 0.27899 0.14324 0.67909 0.0
Co280 Co 0.02513 0.92744 0.43539 0.0
O281 O 0.05888 0.94036 0.43047 0.0
O282 O 0.03696 0.00332 0.44181 0.0
C283 C 0.01216 0.89861 0.41683 0.0
O284 O 0.98821 0.92675 0.44132 0.0
Co285 Co 0.00886 0.80409 0.43621 0.0
O286 O 0.97469 0.83448 0.43788 0.0
C287 C 0.02366 0.86314 0.45829 0.0
C288 C 0.05809 0.98982 0.43634 0.0
C289 C 0.97061 0.88763 0.44091 0.0
O290 O 0.03755 0.89009 0.45071 0.0
O291 O 0.00995 0.82092 0.45448 0.0
O292 O 0.0128 0.95352 0.4201 0.0
O293 O 0.02226 0.86118 0.42438 0.0
Co294 Co 0.73328 0.82776 0.43376 0.0
O295 O 0.70035 0.80224 0.42976 0.0
O296 O 0.72884 0.74561 0.43843 0.0
C297 C 0.73919 0.86909 0.41547 0.0
O298 O 0.7705 0.84228 0.43832 0.0
Co299 Co 0.74184 0.95078 0.43766 0.0
O300 O 0.77627 0.9346 0.4324 0.0
C301 C 0.7327 0.88053 0.45856 0.0
C302 C 0.70603 0.75192 0.43425 0.0
C303 C 0.78514 0.88516 0.43536 0.0
O304 O 0.72102 0.85031 0.45051 0.0
O305 O 0.74378 0.92763 0.4555 0.0
O306 O 0.74432 0.81447 0.41745 0.0
O307 O 0.72863 0.89879 0.42448 0.0
Co308 Co 0.00531 0.81716 0.3127 0.0
O309 O 0.03807 0.7868 0.3151 0.0
O310 O 0.0044 0.73123 0.31209 0.0
C311 C 0.00687 0.88106 0.32831 0.0
O312 O 0.96805 0.83839 0.31065 0.0
Co313 Co 0.00284 0.94114 0.30386 0.0
O314 O 0.96773 0.93682 0.3094 0.0
C315 C 0.01027 0.8503 0.28552 0.0
C316 C 0.02855 0.73496 0.31404 0.0
C317 C 0.95635 0.88819 0.31067 0.0
O318 O 0.01073 0.81518 0.29455 0.0
O319 O 0.00743 0.90564 0.28698 0.0
O320 O 0.00061 0.82679 0.32988 0.0
O321 O 0.01559 0.8946 0.31752 0.0
Co322 Co 0.71672 0.95186 0.31086 0.0
O323 O 0.68185 0.9653 0.30841 0.0
O324 O 0.71081 0.03545 0.30848 0.0
C325 C 0.71272 0.89617 0.32741 0.0
O326 O 0.75499 0.9491 0.31335 0.0
Co327 Co 0.73354 0.82559 0.30584 0.0
O328 O 0.76372 0.8525 0.31465 0.0
C329 C 0.72908 0.90368 0.28506 0.0
C330 C 0.68728 0.02022 0.30736 0.0
C331 C 0.77013 0.90618 0.31569 0.0
O332 O 0.72133 0.94227 0.29278 0.0
O333 O 0.73508 0.85155 0.28817 0.0
O334 O 0.71232 0.95283 0.32827 0.0
O335 O 0.71178 0.8738 0.31635 0.0
Co336 Co 0.97339 0.54025 0.05936 0.0
O337 O 0.93881 0.52057 0.05864 0.0
O338 O 0.9699 0.45604 0.05641 0.0
C339 C 0.97077 0.59423 0.07646 0.0
O340 O 0.01179 0.54944 0.05999 0.0
Co341 Co 0.98622 0.66753 0.05475 0.0
O342 O 0.01762 0.64626 0.06313 0.0
C343 C 0.97846 0.59147 0.03355 0.0
C344 C 0.94584 0.46703 0.05668 0.0
C345 C 0.02581 0.59379 0.06293 0.0
O346 O 0.9734 0.55149 0.04126 0.0
O347 O 0.98452 0.64369 0.03682 0.0
O348 O 0.97291 0.53771 0.07683 0.0
O349 O 0.96686 0.61708 0.06571 0.0
Co350 Co 0.26452 0.67672 0.0611 0.0
O351 O 0.29896 0.69431 0.06323 0.0
O352 O 0.26999 0.76111 0.05927 0.0
C353 C 0.26112 0.6202 0.07756 0.0
O354 O 0.2263 0.66943 0.05888 0.0
Co355 Co 0.25453 0.55249 0.05358 0.0
O356 O 0.2194 0.57208 0.05719 0.0
C357 C 0.26737 0.63202 0.03434 0.0
C358 C 0.29366 0.74831 0.06097 0.0
C359 C 0.21148 0.62456 0.05822 0.0
O360 O 0.2703 0.66922 0.04305 0.0
O361 O 0.26059 0.57919 0.03626 0.0
O362 O 0.25884 0.67669 0.07829 0.0
O363 O 0.26923 0.59871 0.06712 0.0
Co364 Co 0.98915 0.69043 0.18276 0.0
O365 O 0.95717 0.72329 0.17935 0.0
O366 O 0.98914 0.77422 0.18699 0.0
C367 C 0.99213 0.64242 0.16478 0.0
O368 O 0.02561 0.66736 0.18668 0.0
Co369 Co 0.99075 0.56176 0.18658 0.0
O370 O 0.02701 0.56976 0.18377 0.0
C371 C 0.9786 0.63398 0.2076 0.0
C372 C 0.96577 0.77273 0.18339 0.0
C373 C 0.03797 0.61869 0.18551 0.0
O374 O 0.97823 0.67588 0.19996 0.0
O375 O 0.98379 0.58131 0.20436 0.0
O376 O 0.99909 0.69659 0.16608 0.0
O377 O 0.98076 0.61904 0.17415 0.0
Co378 Co 0.27658 0.54047 0.18352 0.0
O379 O 0.30931 0.5113 0.18016 0.0
O380 O 0.27813 0.45679 0.18729 0.0
C381 C 0.2726 0.58851 0.16596 0.0
O382 O 0.23955 0.56016 0.18731 0.0
Co383 Co 0.27306 0.67034 0.18799 0.0
O384 O 0.23707 0.65792 0.18509 0.0
C385 C 0.285 0.59818 0.20876 0.0
C386 C 0.30157 0.46093 0.18386 0.0
C387 C 0.22668 0.60818 0.18646 0.0
O388 O 0.28642 0.55611 0.20094 0.0
O389 O 0.27939 0.65048 0.20569 0.0
O390 O 0.26749 0.53314 0.16669 0.0
O391 O 0.28353 0.61277 0.17545 0.0
Co392 Co 0.02267 0.42386 0.93637 0.0
O393 O 0.0567 0.4424 0.93291 0.0
O394 O 0.03088 0.49955 0.94374 0.0
C395 C 0.01277 0.39581 0.91737 0.0
O396 O 0.98527 0.41839 0.94116 0.0
Co397 Co 0.00821 0.30004 0.93635 0.0
O398 O 0.97333 0.32623 0.9366 0.0
C399 C 0.02058 0.35664 0.959 0.0
C400 C 0.0534 0.48964 0.93942 0.0
C401 C 0.96822 0.3785 0.93989 0.0
O402 O 0.03423 0.38613 0.95179 0.0
O403 O 0.00713 0.31497 0.95474 0.0
O404 O 0.01187 0.45045 0.92086 0.0
O405 O 0.0226 0.35849 0.92504 0.0
Co406 Co 0.73413 0.30371 0.9328 0.0
O407 O 0.70333 0.26734 0.92845 0.0
O408 O 0.73477 0.22153 0.93765 0.0
C409 C 0.73874 0.34732 0.91467 0.0
O410 O 0.7697 0.32937 0.93788 0.0
Co411 Co 0.73579 0.43052 0.93639 0.0
O412 O 0.77173 0.42393 0.93281 0.0
C413 C 0.72688 0.35958 0.9575 0.0
C414 C 0.71201 0.21998 0.93323 0.0
C415 C 0.78243 0.37637 0.93571 0.0
O416 O 0.72006 0.3219 0.94945 0.0
O417 O 0.73501 0.40986 0.95438 0.0
O418 O 0.74655 0.29436 0.91656 0.0
O419 O 0.72613 0.37283 0.92357 0.0
Co420 Co 0.00798 0.3031 0.81214 0.0
O421 O 0.04155 0.27533 0.81265 0.0
O422 O 0.0081 0.21774 0.81047 0.0
C423 C 0.01138 0.36243 0.82841 0.0
O424 O 0.97016 0.3207 0.81175 0.0
Co425 Co 0.00023 0.4295 0.80543 0.0
O426 O 0.96804 0.4187 0.81411 0.0
C427 C 0.00739 0.34544 0.78555 0.0
C428 C 0.03245 0.2232 0.81124 0.0
C429 C 0.95789 0.36824 0.81432 0.0
O430 O 0.01037 0.30754 0.79393 0.0
O431 O 0.00279 0.39951 0.78793 0.0
O432 O 0.00645 0.30715 0.82957 0.0
O433 O 0.01735 0.38024 0.81746 0.0
Co434 Co 0.71946 0.43942 0.80982 0.0
O435 O 0.68392 0.44277 0.80774 0.0
O436 O 0.70904 0.52048 0.80793 0.0
C437 C 0.71912 0.38148 0.82617 0.0
O438 O 0.75753 0.44922 0.812 0.0
Co439 Co 0.74449 0.3212 0.80473 0.0
O440 O 0.77232 0.35716 0.81399 0.0
C441 C 0.73632 0.39991 0.78415 0.0
C442 C 0.68635 0.49913 0.80712 0.0
C443 C 0.77513 0.41253 0.81467 0.0
O444 O 0.72411 0.43289 0.79165 0.0
O445 O 0.74641 0.35149 0.78738 0.0
O446 O 0.71571 0.43748 0.82726 0.0
O447 O 0.71922 0.35983 0.81504 0.0
H448 H 0.51716 0.14925 0.09464 0.0
H449 H 0.44522 0.11777 0.15865 0.0
H450 H 0.43652 0.14469 0.09751 0.0
H451 H 0.52543 0.10484 0.15426 0.0
H452 H 0.44085 0.1246 0.13633 0.0
H453 H 0.52017 0.14166 0.11687 0.0
C454 C 0.50004 0.14996 0.10003 0.0
C455 C 0.47655 0.14891 0.09428 0.0
C456 C 0.45937 0.11863 0.14021 0.0
C457 C 0.47975 0.13594 0.11966 0.0
C458 C 0.46178 0.11294 0.15292 0.0
C459 C 0.4857 0.10984 0.15823 0.0
C460 C 0.4811 0.12162 0.13288 0.0
C461 C 0.50665 0.1062 0.15046 0.0
C462 C 0.50175 0.14378 0.11271 0.0
C463 C 0.45497 0.14709 0.10166 0.0
N464 N 0.50393 0.11329 0.13819 0.0
N465 N 0.45705 0.13973 0.11398 0.0
H466 H 0.82034 0.12025 0.15138 0.0
H467 H 0.73296 0.07893 0.09249 0.0
H468 H 0.73952 0.12588 0.15192 0.0
H469 H 0.81164 0.11938 0.08913 0.0
H470 H 0.73717 0.08033 0.11478 0.0
H471 H 0.81935 0.11601 0.12884 0.0
C472 C 0.80246 0.12385 0.14671 0.0
C473 C 0.77997 0.12478 0.15343 0.0
C474 C 0.75372 0.08751 0.1092 0.0
C475 C 0.77859 0.11564 0.12788 0.0
C476 C 0.75145 0.0849 0.09647 0.0
C477 C 0.77207 0.09798 0.08901 0.0
C478 C 0.77679 0.10374 0.11449 0.0
C479 C 0.79544 0.10772 0.09462 0.0
C480 C 0.80187 0.11982 0.13388 0.0
C481 C 0.75725 0.12655 0.14702 0.0
N482 N 0.79713 0.11141 0.10707 0.0
N483 N 0.7571 0.12095 0.13461 0.0
H484 H 0.55194 0.91134 0.84322 0.0
H485 H 0.48011 0.87573 0.90713 0.0
H486 H 0.47155 0.9164 0.84756 0.0
H487 H 0.56033 0.89677 0.90483 0.0
H488 H 0.47754 0.88081 0.88481 0.0
H489 H 0.55642 0.90801 0.8656 0.0
C490 C 0.53531 0.91509 0.84893 0.0
C491 C 0.51135 0.91484 0.84362 0.0
C492 C 0.49583 0.88295 0.88912 0.0
C493 C 0.51616 0.90717 0.86902 0.0
C494 C 0.49733 0.87826 0.90183 0.0
C495 C 0.5205 0.88445 0.90774 0.0
C496 C 0.51769 0.89457 0.88231 0.0
C497 C 0.5422 0.89022 0.90053 0.0
C498 C 0.53782 0.91149 0.86167 0.0
C499 C 0.49034 0.91742 0.85137 0.0
N500 N 0.54027 0.89603 0.88817 0.0
N501 N 0.4932 0.91235 0.86366 0.0
H502 H 0.18329 0.86925 0.84439 0.0
H503 H 0.27274 0.8716 0.90327 0.0
H504 H 0.26397 0.86086 0.84238 0.0
H505 H 0.19253 0.89374 0.90534 0.0
H506 H 0.27 0.8671 0.8809 0.0
H507 H 0.18585 0.86753 0.86682 0.0
C508 C 0.20147 0.86367 0.84868 0.0
C509 C 0.22344 0.86403 0.84159 0.0
C510 C 0.253 0.87435 0.88619 0.0
C511 C 0.2267 0.86596 0.86714 0.0
C512 C 0.25468 0.87843 0.89893 0.0
C513 C 0.23292 0.88485 0.90607 0.0
C514 C 0.22929 0.87563 0.88057 0.0
C515 C 0.20979 0.89065 0.90009 0.0
C516 C 0.20299 0.86443 0.86148 0.0
C517 C 0.2466 0.85937 0.84757 0.0
N518 N 0.20852 0.8852 0.88766 0.0
N519 N 0.24768 0.86145 0.86001 0.0
H520 H 0.44513 0.61168 0.59786 0.0
H521 H 0.52397 0.55685 0.65903 0.0
H522 H 0.52508 0.58287 0.59868 0.0
H523 H 0.44375 0.58052 0.65891 0.0
H524 H 0.52397 0.55675 0.63665 0.0
H525 H 0.44382 0.60183 0.62026 0.0
C526 C 0.46253 0.60598 0.60284 0.0
C527 C 0.48533 0.59915 0.59654 0.0
C528 C 0.5062 0.56029 0.64146 0.0
C529 C 0.48387 0.58444 0.6219 0.0
C530 C 0.50616 0.55858 0.65424 0.0
C531 C 0.4838 0.56775 0.66076 0.0
C532 C 0.48371 0.57206 0.63522 0.0
C533 C 0.46131 0.57214 0.65416 0.0
C534 C 0.46173 0.59879 0.61557 0.0
C535 C 0.50724 0.58938 0.6033 0.0
N536 N 0.46186 0.57559 0.64172 0.0
N537 N 0.50595 0.58178 0.6156 0.0
H538 H 0.8146 0.62647 0.65008 0.0
H539 H 0.72807 0.60164 0.59022 0.0
H540 H 0.73383 0.61739 0.65076 0.0
H541 H 0.80859 0.61676 0.58836 0.0
H542 H 0.73052 0.60028 0.61257 0.0
H543 H 0.81345 0.62578 0.62755 0.0
C544 C 0.7966 0.62734 0.64546 0.0
C545 C 0.77423 0.6235 0.65221 0.0
C546 C 0.74778 0.60248 0.60732 0.0
C547 C 0.77275 0.61889 0.62659 0.0
C548 C 0.74639 0.60169 0.59456 0.0
C549 C 0.76819 0.60778 0.58749 0.0
C550 C 0.77116 0.61042 0.61307 0.0
C551 C 0.79142 0.61028 0.59352 0.0
C552 C 0.79594 0.62538 0.63262 0.0
C553 C 0.75142 0.62182 0.64584 0.0
N554 N 0.79231 0.61246 0.60601 0.0
N555 N 0.75127 0.61891 0.6334 0.0
H556 H 0.56978 0.35759 0.40727 0.0
H557 H 0.46746 0.34162 0.35406 0.0
H558 H 0.49209 0.31327 0.41301 0.0
H559 H 0.54614 0.36982 0.34695 0.0
H560 H 0.47653 0.33335 0.37589 0.0
H561 H 0.56291 0.35376 0.38511 0.0
C562 C 0.55159 0.34372 0.40385 0.0
C563 C 0.53148 0.33558 0.412 0.0
C564 C 0.49184 0.34222 0.36963 0.0
C565 C 0.52306 0.33473 0.38673 0.0
C566 C 0.48657 0.34827 0.35721 0.0
C567 C 0.50603 0.35737 0.34879 0.0
C568 C 0.51685 0.34481 0.37366 0.0
C569 C 0.53056 0.36414 0.35323 0.0
C570 C 0.54751 0.34317 0.3912 0.0
C571 C 0.50815 0.31953 0.4071 0.0
N572 N 0.53535 0.35713 0.36539 0.0
N573 N 0.50441 0.32098 0.39478 0.0
H574 H 0.25835 0.35196 0.33844 0.0
H575 H 0.19251 0.38312 0.40444 0.0
H576 H 0.17879 0.37761 0.34333 0.0
H577 H 0.27198 0.35807 0.39901 0.0
H578 H 0.1869 0.38487 0.38208 0.0
H579 H 0.2633 0.34832 0.36069 0.0
C580 C 0.24175 0.35384 0.34418 0.0
C581 C 0.21805 0.36365 0.33905 0.0
C582 C 0.20565 0.38025 0.38578 0.0
C583 C 0.22366 0.36339 0.36455 0.0
C584 C 0.20888 0.38074 0.39853 0.0
C585 C 0.23278 0.37156 0.40349 0.0
C586 C 0.22649 0.37007 0.37805 0.0
C587 C 0.2533 0.36622 0.39547 0.0
C588 C 0.24463 0.3533 0.35691 0.0
C589 C 0.1973 0.36852 0.34696 0.0
N590 N 0.24968 0.36495 0.38316 0.0
N591 N 0.20059 0.36908 0.35932 0.0
H592 H 0.99078 0.18849 0.58484 0.0
H593 H 0.96209 0.09278 0.65416 0.0
H594 H 0.94893 0.03357 0.59437 0.0
H595 H 0.00927 0.23893 0.64423 0.0
H596 H 0.95391 0.07428 0.63227 0.0
H597 H 0.9927 0.21574 0.60673 0.0
C598 C 0.9813 0.16145 0.59152 0.0
C599 C 0.96967 0.10902 0.58791 0.0
C600 C 0.96606 0.1104 0.63492 0.0
C601 C 0.97248 0.1381 0.61279 0.0
C602 C 0.9709 0.12047 0.64739 0.0
C603 C 0.98633 0.1674 0.651 0.0
C604 C 0.9767 0.14764 0.62609 0.0
C605 C 0.99715 0.20234 0.64186 0.0
C606 C 0.9827 0.17629 0.604 0.0
C607 C 0.95809 0.07448 0.59687 0.0
N608 N 0.99207 0.19189 0.62986 0.0
N609 N 0.96002 0.08924 0.60891 0.0
H610 H 0.22934 0.1071 0.59451 0.0
H611 H 0.31378 0.15274 0.65454 0.0
H612 H 0.30924 0.13524 0.59317 0.0
H613 H 0.23387 0.12439 0.65528 0.0
H614 H 0.31268 0.15021 0.63205 0.0
H615 H 0.23124 0.10664 0.6169 0.0
C616 C 0.2475 0.11007 0.59897 0.0
C617 C 0.26925 0.11982 0.59204 0.0
C618 C 0.29527 0.14597 0.63712 0.0
C619 C 0.27145 0.12361 0.61763 0.0
C620 C 0.29582 0.14904 0.64993 0.0
C621 C 0.27377 0.14039 0.6567 0.0
C622 C 0.2725 0.1334 0.63111 0.0
C623 C 0.25114 0.13282 0.65035 0.0
C624 C 0.24852 0.11143 0.61175 0.0
C625 C 0.29218 0.12599 0.59822 0.0
N626 N 0.25111 0.12885 0.63791 0.0
N627 N 0.29266 0.12877 0.61069 0.0
H628 H 0.97223 0.9415 0.34131 0.0
H629 H 0.04462 0.84166 0.40134 0.0
H630 H 0.04987 0.88867 0.3412 0.0
H631 H 0.97431 0.93544 0.40256 0.0
H632 H 0.04571 0.8534 0.37899 0.0
H633 H 0.97278 0.94436 0.36373 0.0
C634 C 0.98982 0.93392 0.34603 0.0
C635 C 0.01112 0.91562 0.33946 0.0
C636 C 0.02987 0.87071 0.38413 0.0
C637 C 0.01149 0.91444 0.36502 0.0
C638 C 0.02896 0.86267 0.39682 0.0
C639 C 0.00913 0.88679 0.40368 0.0
C640 C 0.01075 0.90286 0.37836 0.0
C641 C 0.98972 0.91554 0.3975 0.0
C642 C 0.98998 0.93395 0.35883 0.0
C643 C 0.0332 0.90403 0.34599 0.0
N644 N 0.99104 0.92301 0.38519 0.0
N645 N 0.03267 0.90208 0.35844 0.0
H646 H 0.69838 0.91715 0.40412 0.0
H647 H 0.75202 0.83671 0.33735 0.0
H648 H 0.7729 0.84977 0.39745 0.0
H649 H 0.67565 0.89072 0.34408 0.0
H650 H 0.75913 0.83365 0.35943 0.0
H651 H 0.68979 0.90979 0.38203 0.0
C652 C 0.71322 0.903 0.39793 0.0
C653 C 0.73648 0.8848 0.40252 0.0
C654 C 0.74058 0.84464 0.35611 0.0
C655 C 0.72651 0.87346 0.37744 0.0
C656 C 0.73635 0.84489 0.34346 0.0
C657 C 0.71314 0.86339 0.33888 0.0
C658 C 0.72147 0.86364 0.36418 0.0
C659 C 0.69373 0.87535 0.34728 0.0
C660 C 0.70816 0.89743 0.38538 0.0
C661 C 0.75482 0.86485 0.3942 0.0
N662 N 0.69844 0.87648 0.35953 0.0
N663 N 0.74941 0.8593 0.38208 0.0
H664 H 0.95066 0.59406 0.15374 0.0
H665 H 0.00778 0.65826 0.08719 0.0
H666 H 0.02689 0.64873 0.14699 0.0
H667 H 0.93282 0.59273 0.09274 0.0
H668 H 0.01326 0.66528 0.10939 0.0
H669 H 0.94296 0.59372 0.13152 0.0
C670 C 0.96601 0.60368 0.14754 0.0
C671 C 0.9895 0.62087 0.15212 0.0
C672 C 0.99533 0.65076 0.10578 0.0
C673 C 0.9806 0.62363 0.1269 0.0
C674 C 0.99201 0.64831 0.09309 0.0
C675 C 0.96966 0.62604 0.08817 0.0
C676 C 0.97623 0.63004 0.11355 0.0
C677 C 0.95014 0.61138 0.09624 0.0
C678 C 0.96149 0.60484 0.1349 0.0
C679 C 0.00858 0.63476 0.14376 0.0
N680 N 0.95399 0.61271 0.10856 0.0
N681 N 0.00366 0.63646 0.13158 0.0
H682 H 0.23163 0.6207 0.15341 0.0
H683 H 0.30321 0.58347 0.08915 0.0
H684 H 0.31195 0.60304 0.1505 0.0
H685 H 0.22295 0.59864 0.09294 0.0
H686 H 0.30712 0.58414 0.11156 0.0
H687 H 0.22852 0.61694 0.13107 0.0
C688 C 0.24873 0.61891 0.14799 0.0
C689 C 0.27211 0.61372 0.15372 0.0
C690 C 0.28858 0.5857 0.1075 0.0
C691 C 0.26871 0.60518 0.12821 0.0
C692 C 0.28632 0.58358 0.09472 0.0
C693 C 0.26268 0.58987 0.08926 0.0
C694 C 0.26701 0.59456 0.11477 0.0
C695 C 0.24145 0.59251 0.09685 0.0
C696 C 0.24694 0.6152 0.13525 0.0
C697 C 0.29365 0.60891 0.14635 0.0
N698 N 0.24412 0.59578 0.10922 0.0
N699 N 0.29144 0.60395 0.13395 0.0
H700 H 0.05408 0.36945 0.84152 0.0
H701 H 0.97533 0.43181 0.90278 0.0
H702 H 0.97643 0.42216 0.84147 0.0
H703 H 0.04601 0.33945 0.90207 0.0
H704 H 0.97681 0.43888 0.88044 0.0
H705 H 0.05429 0.3766 0.86395 0.0
C706 C 0.03748 0.38581 0.84623 0.0
C707 C 0.01531 0.39629 0.83969 0.0
C708 C 0.99185 0.41632 0.88512 0.0
C709 C 0.01491 0.4012 0.86526 0.0
C710 C 0.99081 0.41148 0.89782 0.0
C711 C 0.01035 0.38408 0.90417 0.0
C712 C 0.01285 0.39453 0.87873 0.0
C713 C 0.03031 0.35969 0.89744 0.0
C714 C 0.03739 0.38827 0.85903 0.0
C715 C 0.994 0.41494 0.8462 0.0
N716 N 0.03119 0.36601 0.88505 0.0
N717 N 0.99419 0.41599 0.85866 0.0
H718 H 0.77619 0.35112 0.8981 0.0
H719 H 0.68143 0.35103 0.84128 0.0
H720 H 0.69625 0.37446 0.90194 0.0
H721 H 0.7619 0.34639 0.83742 0.0
H722 H 0.68612 0.34653 0.86357 0.0
H723 H 0.77133 0.34563 0.87583 0.0
C724 C 0.75769 0.35714 0.89417 0.0
C725 C 0.73666 0.36447 0.90178 0.0
C726 C 0.70277 0.34489 0.85784 0.0
C727 C 0.73067 0.3549 0.87638 0.0
C728 C 0.70007 0.3458 0.84511 0.0
C729 C 0.7213 0.34791 0.83748 0.0
C730 C 0.72694 0.34661 0.86297 0.0
C731 C 0.74504 0.34352 0.84292 0.0
C732 C 0.75484 0.35289 0.88149 0.0
C733 C 0.71299 0.37032 0.89633 0.0
N734 N 0.74725 0.34401 0.85534 0.0
N735 N 0.71058 0.36476 0.88393 0.0
H736 H 0.29253 0.86939 0.05837 0.0
H737 H 0.44316 0.88883 0.0575 0.0
H738 H 0.34284 0.72061 0.0598 0.0
H739 H 0.39468 0.04099 0.05864 0.0
H740 H 0.40592 0.82622 0.0558 0.0
H741 H 0.32938 0.93403 0.05624 0.0
C742 C 0.3112 0.85045 0.05823 0.0
C743 C 0.31462 0.78984 0.05946 0.0
C744 C 0.40346 0.8734 0.05635 0.0
C745 C 0.3565 0.86248 0.0569 0.0
C746 C 0.42473 0.90898 0.05729 0.0
C747 C 0.42196 0.9699 0.05839 0.0
C748 C 0.37937 0.89913 0.05654 0.0
C749 C 0.39764 0.994 0.05799 0.0
C750 C 0.33218 0.8871 0.05698 0.0
C751 C 0.33921 0.76723 0.05908 0.0
N752 N 0.37726 0.95853 0.0572 0.0
N753 N 0.35911 0.80349 0.05788 0.0
H754 H 0.81056 0.31931 0.081 0.0
H755 H 0.91606 0.44931 0.03706 0.0
H756 H 0.80009 0.33136 0.04197 0.0
H757 H 0.92934 0.39301 0.07403 0.0
H758 H 0.87302 0.41157 0.03833 0.0
H759 H 0.85234 0.36207 0.07884 0.0
C760 C 0.81662 0.33398 0.07204 0.0
C761 C 0.80186 0.32277 0.06167 0.0
C762 C 0.88552 0.40608 0.04605 0.0
C763 C 0.85012 0.36796 0.05898 0.0
C764 C 0.9102 0.42631 0.04523 0.0
C765 C 0.92626 0.42273 0.05536 0.0
C766 C 0.87686 0.38349 0.0572 0.0
C767 C 0.91763 0.39502 0.06593 0.0
C768 C 0.84073 0.35674 0.07076 0.0
C769 C 0.81081 0.3405 0.0502 0.0
N770 N 0.89334 0.37719 0.06665 0.0
N771 N 0.83464 0.36142 0.04911 0.0
H772 H 0.44223 0.32035 0.20734 0.0
H773 H 0.32508 0.40467 0.16534 0.0
H774 H 0.44467 0.33044 0.16797 0.0
H775 H 0.32298 0.42101 0.20471 0.0
H776 H 0.36802 0.36773 0.16654 0.0
H777 H 0.399 0.35777 0.20709 0.0
C778 C 0.4341 0.33359 0.1987 0.0
C779 C 0.44716 0.32379 0.18767 0.0
C780 C 0.35808 0.37807 0.17497 0.0
C781 C 0.39735 0.36257 0.18721 0.0
C782 C 0.33332 0.3976 0.17429 0.0
C783 C 0.32038 0.41451 0.18496 0.0
C784 C 0.37011 0.37615 0.18641 0.0
C785 C 0.33219 0.40688 0.19631 0.0
C786 C 0.40922 0.35341 0.19852 0.0
C787 C 0.43543 0.33892 0.17668 0.0
N788 N 0.35659 0.38896 0.19675 0.0
N789 N 0.41108 0.3567 0.1767 0.0
H790 H 0.82805 0.93895 0.20584 0.0
H791 H 0.94402 0.83042 0.16495 0.0
H792 H 0.82498 0.90603 0.16691 0.0
H793 H 0.94464 0.81669 0.2043 0.0
H794 H 0.90192 0.87247 0.16604 0.0
H795 H 0.87085 0.89852 0.20618 0.0
C796 C 0.83595 0.92032 0.19749 0.0
C797 C 0.82285 0.92415 0.18638 0.0
C798 C 0.91139 0.86155 0.17449 0.0
C799 C 0.87212 0.88202 0.18652 0.0
C800 C 0.93569 0.83908 0.17388 0.0
C801 C 0.94792 0.82134 0.18456 0.0
C802 C 0.8991 0.86577 0.18588 0.0
C803 C 0.93598 0.83126 0.19589 0.0
C804 C 0.86055 0.89862 0.19762 0.0
C805 C 0.83427 0.90224 0.17569 0.0
N806 N 0.912 0.85218 0.19626 0.0
N807 N 0.85838 0.88288 0.17599 0.0
H808 H 0.68796 0.16019 0.91546 0.0
H809 H 0.57558 0.0665 0.95939 0.0
H810 H 0.69382 0.17804 0.95472 0.0
H811 H 0.56813 0.10159 0.92087 0.0
H812 H 0.6192 0.10146 0.95864 0.0
H813 H 0.64558 0.12142 0.91781 0.0
C814 C 0.68069 0.15314 0.92462 0.0
C815 C 0.69434 0.17169 0.93492 0.0
C816 C 0.60779 0.10306 0.95044 0.0
C817 C 0.64536 0.13107 0.93769 0.0
C818 C 0.58278 0.08456 0.95093 0.0
C819 C 0.56822 0.08274 0.94023 0.0
C820 C 0.61823 0.11846 0.93909 0.0
C821 C 0.57863 0.10386 0.92937 0.0
C822 C 0.65625 0.1326 0.92596 0.0
C823 C 0.68391 0.1633 0.94658 0.0
N824 N 0.60314 0.12 0.92902 0.0
N825 N 0.65974 0.14449 0.94768 0.0
H826 H 0.15341 0.78144 0.94465 0.0
H827 H 0.10211 0.45714 0.93846 0.0
H828 H 0.20179 0.62955 0.94196 0.0
H829 H 0.05442 0.60542 0.94714 0.0
H830 H 0.13888 0.51845 0.94155 0.0
H831 H 0.11745 0.71739 0.94747 0.0
C832 C 0.15648 0.73439 0.94472 0.0
C833 C 0.18054 0.7105 0.94282 0.0
C834 C 0.12045 0.53767 0.94289 0.0
C835 C 0.13932 0.63695 0.94603 0.0
C836 C 0.09939 0.50282 0.94105 0.0
C837 C 0.0752 0.52676 0.9423 0.0
C838 C 0.11737 0.59725 0.94585 0.0
C839 C 0.07277 0.58562 0.94595 0.0
C840 C 0.13591 0.6979 0.9464 0.0
C841 C 0.1835 0.64954 0.94326 0.0
N842 N 0.09369 0.61928 0.94743 0.0
N843 N 0.16299 0.61465 0.94464 0.0
H844 H 0.57274 0.73016 0.83328 0.0
H845 H 0.64079 0.46949 0.79777 0.0
H846 H 0.53757 0.64786 0.80187 0.0
H847 H 0.68018 0.61055 0.81623 0.0
H848 H 0.60116 0.52262 0.80083 0.0
H849 H 0.60997 0.66995 0.82986 0.0
C850 C 0.57263 0.69802 0.82586 0.0
C851 C 0.55217 0.69387 0.81782 0.0
C852 C 0.61852 0.54213 0.80406 0.0
C853 C 0.59492 0.62608 0.81367 0.0
C854 C 0.6411 0.51216 0.80229 0.0
C855 C 0.6637 0.53589 0.80678 0.0
C856 C 0.61857 0.5954 0.81061 0.0
C857 C 0.66317 0.59103 0.81257 0.0
C858 C 0.59401 0.66441 0.82381 0.0
C859 C 0.55292 0.65177 0.80833 0.0
N860 N 0.64085 0.61863 0.81449 0.0
N861 N 0.57422 0.61962 0.80642 0.0
H862 H 0.05657 0.18432 0.79096 0.0
H863 H 0.16897 0.07089 0.8329 0.0
H864 H 0.051 0.16092 0.82998 0.0
H865 H 0.17403 0.07772 0.79353 0.0
H866 H 0.12629 0.10981 0.83192 0.0
H867 H 0.09888 0.142 0.79129 0.0
C868 C 0.06382 0.16731 0.79949 0.0
C869 C 0.05022 0.17461 0.81042 0.0
C870 C 0.13684 0.1041 0.82348 0.0
C871 C 0.09897 0.13005 0.81104 0.0
C872 C 0.1614 0.08333 0.82408 0.0
C873 C 0.17509 0.07283 0.81331 0.0
C874 C 0.12582 0.11359 0.81198 0.0
C875 C 0.16421 0.08704 0.80205 0.0
C876 C 0.08817 0.14456 0.79974 0.0
C877 C 0.06074 0.15449 0.82133 0.0
N878 N 0.14002 0.10621 0.80165 0.0
N879 N 0.08467 0.13386 0.82141 0.0
H880 H 0.43487 0.39203 0.58109 0.0
H881 H 0.31031 0.33012 0.54251 0.0
H882 H 0.43038 0.43232 0.54269 0.0
H883 H 0.31387 0.33749 0.58194 0.0
H884 H 0.35395 0.36482 0.54154 0.0
H885 H 0.39144 0.3579 0.58054 0.0
C886 C 0.42506 0.39076 0.57238 0.0
C887 C 0.43628 0.41378 0.56187 0.0
C888 C 0.34494 0.36049 0.55039 0.0
C889 C 0.38605 0.37871 0.5613 0.0
C890 C 0.31985 0.34222 0.55094 0.0
C891 C 0.30841 0.33218 0.56233 0.0
C892 C 0.35858 0.36766 0.56133 0.0
C893 C 0.32189 0.34598 0.57299 0.0
C894 C 0.40004 0.37293 0.57214 0.0
C895 C 0.42249 0.41345 0.55091 0.0
N896 N 0.34639 0.36199 0.57225 0.0
N897 N 0.39789 0.39702 0.55093 0.0
H898 H 0.82009 0.8155 0.57822 0.0
H899 H 0.93091 0.92257 0.53471 0.0
H900 H 0.81178 0.82138 0.53899 0.0
H901 H 0.94029 0.87684 0.57259 0.0
H902 H 0.88776 0.88527 0.53539 0.0
H903 H 0.86341 0.84891 0.57617 0.0
C904 C 0.82709 0.82676 0.5692 0.0
C905 C 0.8123 0.81685 0.55878 0.0
C906 C 0.89948 0.88168 0.54345 0.0
C907 C 0.86233 0.85124 0.55624 0.0
C908 C 0.92432 0.90144 0.54297 0.0
C909 C 0.9392 0.90185 0.55357 0.0
C910 C 0.88955 0.8631 0.55469 0.0
C911 C 0.92953 0.87621 0.56417 0.0
C912 C 0.85203 0.84413 0.56799 0.0
C913 C 0.82248 0.82988 0.54726 0.0
N914 N 0.90512 0.85902 0.56455 0.0
N915 N 0.84707 0.8457 0.54626 0.0
H916 H 0.46008 0.85623 0.68955 0.0
H917 H 0.31001 0.88738 0.69443 0.0
H918 H 0.40805 0.71184 0.69309 0.0
H919 H 0.35942 0.03483 0.68858 0.0
H920 H 0.3468 0.82362 0.69596 0.0
H921 H 0.42425 0.92479 0.6911 0.0
C922 C 0.44126 0.83909 0.69071 0.0
C923 C 0.43701 0.7784 0.69101 0.0
C924 C 0.34961 0.87003 0.69439 0.0
C925 C 0.39631 0.85558 0.69284 0.0
C926 C 0.32858 0.90631 0.69353 0.0
C927 C 0.33167 0.96619 0.69127 0.0
C928 C 0.37385 0.89388 0.69295 0.0
C929 C 0.35619 0.98865 0.69023 0.0
C930 C 0.42086 0.87798 0.69158 0.0
C931 C 0.41227 0.75827 0.6926 0.0
N932 N 0.37636 0.95243 0.69101 0.0
N933 N 0.39295 0.79663 0.6934 0.0
H934 H 0.8315 0.42336 0.6657 0.0
H935 H 0.94148 0.31683 0.70854 0.0
H936 H 0.82237 0.43296 0.70493 0.0
H937 H 0.95216 0.38731 0.67247 0.0
H938 H 0.89797 0.35277 0.70848 0.0
H939 H 0.87488 0.39176 0.66845 0.0
C940 C 0.83835 0.41595 0.67491 0.0
C941 C 0.82336 0.42968 0.6851 0.0
C942 C 0.91012 0.36214 0.70077 0.0
C943 C 0.87333 0.39718 0.68837 0.0
C944 C 0.9351 0.34305 0.70092 0.0
C945 C 0.9504 0.34982 0.69053 0.0
C946 C 0.90056 0.38708 0.69004 0.0
C947 C 0.94104 0.38206 0.68071 0.0
C948 C 0.86329 0.39961 0.67649 0.0
C949 C 0.8333 0.42141 0.69686 0.0
N950 N 0.91651 0.39819 0.68057 0.0
N951 N 0.8579 0.40624 0.69821 0.0
H952 H 0.59654 0.49182 0.45616 0.0
H953 H 0.66612 0.74125 0.41936 0.0
H954 H 0.55854 0.61168 0.43215 0.0
H955 H 0.69925 0.66593 0.45164 0.0
H956 H 0.62784 0.68638 0.42308 0.0
H957 H 0.63463 0.55141 0.45473 0.0
C958 C 0.59611 0.53156 0.45079 0.0
C959 C 0.57452 0.54695 0.44419 0.0
C960 C 0.64344 0.68149 0.42935 0.0
C961 C 0.6181 0.61396 0.44224 0.0
C962 C 0.66545 0.71221 0.42715 0.0
C963 C 0.68588 0.70801 0.43522 0.0
C964 C 0.64174 0.64574 0.43966 0.0
C965 C 0.68401 0.66975 0.44514 0.0
C966 C 0.61786 0.56526 0.44994 0.0
C967 C 0.57481 0.5986 0.43741 0.0
N968 N 0.66216 0.64003 0.44713 0.0
N969 N 0.59647 0.62982 0.43643 0.0
H970 H 0.09589 0.98718 0.41994 0.0
H971 H 0.1838 0.21361 0.45562 0.0
H972 H 0.07339 0.07119 0.45394 0.0
H973 H 0.20618 0.11752 0.42315 0.0
H974 H 0.14524 0.15563 0.45659 0.0
H975 H 0.13694 0.03227 0.42169 0.0
C976 C 0.09956 0.01571 0.42777 0.0
C977 C 0.08118 0.02549 0.43682 0.0
C978 C 0.15885 0.14594 0.44945 0.0
C979 C 0.12864 0.077 0.43897 0.0
C980 C 0.18108 0.17825 0.44903 0.0
C981 C 0.19837 0.16916 0.43946 0.0
C982 C 0.15372 0.10508 0.44006 0.0
C983 C 0.19358 0.1247 0.43083 0.0
C984 C 0.12315 0.04113 0.4288 0.0
C985 C 0.08697 0.06304 0.4467 0.0
N986 N 0.17149 0.09477 0.43124 0.0
N987 N 0.11033 0.08745 0.44754 0.0
H988 H 0.67322 0.1063 0.32332 0.0
H989 H 0.53853 0.15999 0.29442 0.0
H990 H 0.65297 0.02173 0.28918 0.0
H991 H 0.55328 0.15834 0.33324 0.0
H992 H 0.58063 0.11855 0.29065 0.0
H993 H 0.63037 0.14535 0.32503 0.0
C994 C 0.66004 0.0983 0.31592 0.0
C995 C 0.66649 0.06161 0.30603 0.0
C996 C 0.57429 0.12575 0.3 0.0
C997 C 0.6175 0.10354 0.30812 0.0
C998 C 0.55009 0.14788 0.30215 0.0
C999 C 0.54241 0.16154 0.31417 0.0
C1000 C 0.59075 0.11868 0.30994 0.0
C1001 C 0.55847 0.14751 0.32387 0.0
C1002 C 0.63548 0.11927 0.31702 0.0
C1003 C 0.64857 0.05062 0.29686 0.0
N1004 N 0.58208 0.12803 0.32154 0.0
N1005 N 0.62473 0.0712 0.29814 0.0
H1006 H 0.13948 0.46947 0.2953 0.0
H1007 H 0.0642 0.7183 0.33088 0.0
H1008 H 0.17493 0.61225 0.31504 0.0
H1009 H 0.03378 0.64321 0.29759 0.0
H1010 H 0.10235 0.66053 0.32791 0.0
H1011 H 0.09877 0.51915 0.29762 0.0
C1012 C 0.13871 0.51188 0.29992 0.0
C1013 C 0.16049 0.5371 0.30498 0.0
C1014 C 0.08718 0.65582 0.32136 0.0
C1015 C 0.11415 0.59243 0.30805 0.0
C1016 C 0.06525 0.68783 0.32316 0.0
C1017 C 0.04587 0.68501 0.3145 0.0
C1018 C 0.08975 0.62055 0.31082 0.0
C1019 C 0.04821 0.64567 0.30456 0.0
C1020 C 0.11553 0.53985 0.30128 0.0
C1021 C 0.1586 0.59174 0.31092 0.0
N1022 N 0.07003 0.61511 0.3029 0.0
N1023 N 0.13569 0.61721 0.31247 0.0
H1024 H 0.52798 0.14613 0.02452 0.0
H1025 H 0.49203 0.8732 0.98068 0.0
H1026 H 0.45764 0.0524 0.02606 0.0
H1027 H 0.55578 0.98511 0.97399 0.0
H1028 H 0.48243 0.93127 -0.00082 0.0
H1029 H 0.54008 0.08594 0.00659 0.0
C1030 C 0.51475 0.11434 0.02085 0.0
C1031 C 0.49176 0.10435 0.02678 0.0
C1032 C 0.4988 0.9425 0.99379 0.0
C1033 C 0.50589 0.03368 0.0067 0.0
C1034 C 0.50459 0.90847 0.98339 0.0
C1035 C 0.52475 0.92431 0.97584 0.0
C1036 C 0.51334 0.9925 0.99665 0.0
C1037 C 0.54007 0.97148 0.97961 0.0
C1038 C 0.52185 0.0792 0.01077 0.0
C1039 C 0.47558 0.06152 0.02179 0.0
N1040 N 0.5339 0.00435 0.98966 0.0
N1041 N 0.48307 0.02739 0.01216 0.0
H1042 H 0.74222 0.10493 0.01449 0.0
H1043 H 0.75867 0.39971 0.97566 0.0
H1044 H 0.78833 0.25042 0.02644 0.0
H1045 H 0.70273 0.26726 0.96796 0.0
H1046 H 0.77097 0.34551 0.994 0.0
H1047 H 0.73086 0.16025 0.99616 0.0
C1048 C 0.75051 0.14777 0.01309 0.0
C1049 C 0.7662 0.17311 0.02201 0.0
C1050 C 0.75578 0.32874 0.98837 0.0
C1051 C 0.75273 0.23746 0.00127 0.0
C1052 C 0.74848 0.36023 0.978 0.0
C1053 C 0.72966 0.33802 0.97022 0.0
C1054 C 0.74429 0.27455 0.99091 0.0
C1055 C 0.71745 0.28589 0.97363 0.0
C1056 C 0.74369 0.17982 0.00273 0.0
C1057 C 0.77606 0.22934 0.01981 0.0
N1058 N 0.72515 0.25568 0.98361 0.0
N1059 N 0.76905 0.25974 0.00973 0.0
H1060 H 0.45886 0.2444 0.22255 0.0
H1061 H 0.54378 0.2696 0.28281 0.0
H1062 H 0.51362 0.11437 0.23275 0.0
H1063 H 0.48579 0.39437 0.27405 0.0
H1064 H 0.53546 0.21719 0.26358 0.0
H1065 H 0.46863 0.30057 0.24117 0.0
C1066 C 0.47252 0.22694 0.2289 0.0
C1067 C 0.48536 0.17445 0.22613 0.0
C1068 C 0.52482 0.25658 0.26572 0.0
C1069 C 0.49731 0.2397 0.24729 0.0
C1070 C 0.52986 0.28714 0.27661 0.0
C1071 C 0.51551 0.33659 0.28001 0.0
C1072 C 0.50514 0.27528 0.25817 0.0
C1073 C 0.49751 0.35695 0.27171 0.0
C1074 C 0.47832 0.25944 0.23945 0.0
C1075 C 0.50301 0.15411 0.23461 0.0
N1076 N 0.49257 0.32569 0.26125 0.0
N1077 N 0.50867 0.18713 0.24474 0.0
H1078 H 0.74605 0.14839 0.22601 0.0
H1079 H 0.76562 0.86725 0.26875 0.0
H1080 H 0.80443 0.01955 0.22014 0.0
H1081 H 0.70551 0.9929 0.27341 0.0
H1082 H 0.78036 0.92207 0.25088 0.0
H1083 H 0.73301 0.096 0.24446 0.0
C1084 C 0.75669 0.11034 0.22884 0.0
C1085 C 0.77634 0.08831 0.22154 0.0
C1086 C 0.76378 0.93726 0.25575 0.0
C1087 C 0.76095 0.02675 0.24232 0.0
C1088 C 0.75513 0.90535 0.26582 0.0
C1089 C 0.73434 0.92551 0.27258 0.0
C1090 C 0.75154 0.98963 0.25247 0.0
C1091 C 0.72172 0.97589 0.26849 0.0
C1092 C 0.74894 0.0797 0.23924 0.0
C1093 C 0.78912 0.03795 0.22551 0.0
N1094 N 0.73063 0.00641 0.2588 0.0
N1095 N 0.78104 0.00852 0.23553 0.0
H1096 H 0.2796 0.88782 0.9766 0.0
H1097 H 0.23401 0.61216 0.01575 0.0
H1098 H 0.20522 0.81335 0.97467 0.0
H1099 H 0.29973 0.71319 0.02537 0.0
H1100 H 0.22633 0.67879 0.99867 0.0
H1101 H 0.289 0.82313 0.99387 0.0
C1102 C 0.26492 0.85969 0.98013 0.0
C1103 C 0.24156 0.85614 0.97423 0.0
C1104 C 0.24269 0.68581 0.0044 0.0
C1105 C 0.25257 0.78 0.99346 0.0
C1106 C 0.24737 0.64693 0.01396 0.0
C1107 C 0.26763 0.65693 0.02191 0.0
C1108 C 0.25846 0.73475 0.00274 0.0
C1109 C 0.28397 0.70382 0.01938 0.0
C1110 C 0.27046 0.82185 0.9898 0.0
C1111 C 0.22347 0.81756 0.97897 0.0
N1112 N 0.27894 0.74126 0.01009 0.0
N1113 N 0.22947 0.78042 0.98815 0.0
H1114 H 0.45716 0.70676 0.72467 0.0
H1115 H 0.54782 0.76567 0.78176 0.0
H1116 H 0.51851 0.59146 0.7337 0.0
H1117 H 0.49327 0.89064 0.76892 0.0
H1118 H 0.53794 0.70124 0.76434 0.0
H1119 H 0.4684 0.7705 0.74194 0.0
C1120 C 0.47258 0.69395 0.73054 0.0
C1121 C 0.48689 0.64362 0.72777 0.0
C1122 C 0.52844 0.74318 0.76519 0.0
C1123 C 0.50047 0.7177 0.74733 0.0
C1124 C 0.53433 0.78041 0.77503 0.0
C1125 C 0.52138 0.83372 0.77677 0.0
C1126 C 0.50924 0.75901 0.75708 0.0
C1127 C 0.5039 0.85032 0.76786 0.0
C1128 C 0.47925 0.73092 0.74027 0.0
C1129 C 0.50679 0.6294 0.73561 0.0
N1130 N 0.49805 0.81263 0.7585 0.0
N1131 N 0.51319 0.66669 0.74497 0.0
H1132 H 0.29476 0.04871 0.72489 0.0
H1133 H 0.1927 0.9928 0.77708 0.0
H1134 H 0.22435 0.1427 0.72629 0.0
H1135 H 0.25382 0.87418 0.76883 0.0
H1136 H 0.20385 0.0505 0.75909 0.0
H1137 H 0.28151 0.99133 0.74246 0.0
C1138 C 0.27671 0.0583 0.72908 0.0
C1139 C 0.26063 0.10067 0.72407 0.0
C1140 C 0.21455 0.01131 0.76108 0.0
C1141 C 0.24504 0.03369 0.74408 0.0
C1142 C 0.20803 0.97793 0.77126 0.0
C1143 C 0.22231 0.92842 0.77444 0.0
C1144 C 0.23578 0.99569 0.75413 0.0
C1145 C 0.24212 0.91154 0.76666 0.0
C1146 C 0.26901 0.02484 0.73902 0.0
C1147 C 0.23746 0.11097 0.72991 0.0
N1148 N 0.24852 0.94565 0.75698 0.0
N1149 N 0.23026 0.07732 0.73955 0.0
H1150 H 0.53939 0.47541 0.4769 0.0
H1151 H 0.43794 0.52842 0.5299 0.0
H1152 H 0.47321 0.36797 0.48074 0.0
H1153 H 0.50116 0.64234 0.52356 0.0
H1154 H 0.44839 0.47327 0.51119 0.0
H1155 H 0.52551 0.536 0.49421 0.0
C1156 C 0.52216 0.46379 0.4816 0.0
C1157 C 0.50748 0.41639 0.47743 0.0
C1158 C 0.45966 0.51112 0.51372 0.0
C1159 C 0.49098 0.48702 0.49705 0.0
C1160 C 0.45344 0.54329 0.52428 0.0
C1161 C 0.46872 0.59006 0.52829 0.0
C1162 C 0.48146 0.52555 0.50716 0.0
C1163 C 0.48873 0.60703 0.52075 0.0
C1164 C 0.51406 0.49896 0.49138 0.0
C1165 C 0.48526 0.40356 0.48379 0.0
N1166 N 0.49482 0.57406 0.51067 0.0
N1167 N 0.47755 0.43905 0.49324 0.0
H1168 H 0.74521 0.60998 0.51291 0.0
H1169 H 0.76908 0.90726 0.47572 0.0
H1170 H 0.80005 0.74004 0.52366 0.0
H1171 H 0.70825 0.78664 0.46831 0.0
H1172 H 0.78227 0.8451 0.49275 0.0
H1173 H 0.7349 0.66907 0.49497 0.0
C1174 C 0.75569 0.64991 0.51127 0.0
C1175 C 0.77348 0.67015 0.51981 0.0
C1176 C 0.76589 0.83261 0.48745 0.0
C1177 C 0.76117 0.73914 0.49956 0.0
C1178 C 0.75812 0.86861 0.47784 0.0
C1179 C 0.73745 0.85244 0.47056 0.0
C1180 C 0.75298 0.77991 0.48977 0.0
C1181 C 0.72429 0.80105 0.47364 0.0
C1182 C 0.74947 0.68427 0.50116 0.0
C1183 C 0.78612 0.72295 0.51733 0.0
N1184 N 0.73238 0.76654 0.48291 0.0
N1185 N 0.77955 0.75589 0.50753 0.0
H1186 H 0.70954 0.48399 0.77233 0.0
H1187 H 0.80987 0.52682 0.71862 0.0
H1188 H 0.77593 0.37632 0.7685 0.0
H1189 H 0.74812 0.64538 0.72557 0.0
H1190 H 0.79911 0.47352 0.73721 0.0
H1191 H 0.72311 0.5415 0.75484 0.0
C1192 C 0.7268 0.47172 0.76767 0.0
C1193 C 0.7416 0.42507 0.77192 0.0
C1194 C 0.78818 0.51183 0.73483 0.0
C1195 C 0.75761 0.49209 0.75195 0.0
C1196 C 0.79451 0.5428 0.72429 0.0
C1197 C 0.77988 0.59076 0.72054 0.0
C1198 C 0.76686 0.52846 0.74162 0.0
C1199 C 0.76007 0.60915 0.72817 0.0
C1200 C 0.73468 0.50512 0.75775 0.0
C1201 C 0.76378 0.41143 0.76549 0.0
N1202 N 0.7539 0.57739 0.73824 0.0
N1203 N 0.77119 0.44505 0.75587 0.0
H1204 H 0.26372 0.40196 0.47711 0.0
H1205 H 0.2392 0.11675 0.51804 0.0
H1206 H 0.2052 0.2755 0.46999 0.0
H1207 H 0.29253 0.25197 0.52779 0.0
H1208 H 0.22838 0.17182 0.49961 0.0
H1209 H 0.27427 0.34962 0.49599 0.0
C1210 C 0.25249 0.36452 0.47976 0.0
C1211 C 0.23351 0.34305 0.47202 0.0
C1212 C 0.24267 0.18914 0.50571 0.0
C1213 C 0.24614 0.28143 0.4932 0.0
C1214 C 0.24918 0.15706 0.51611 0.0
C1215 C 0.2668 0.17976 0.52445 0.0
C1216 C 0.25391 0.24417 0.50365 0.0
C1217 C 0.27878 0.23297 0.52161 0.0
C1218 C 0.25882 0.3339 0.49039 0.0
C1219 C 0.21998 0.29336 0.47572 0.0
N1220 N 0.27199 0.26355 0.51152 0.0
N1221 N 0.22673 0.26385 0.48593 0.0
H1222 H 0.20948 0.47585 0.27169 0.0
H1223 H 0.31251 0.51158 0.21936 0.0
H1224 H 0.27741 0.37219 0.27102 0.0
H1225 H 0.25494 0.64002 0.22723 0.0
H1226 H 0.30088 0.45924 0.238 0.0
H1227 H 0.22494 0.53113 0.25428 0.0
C1228 C 0.22749 0.4639 0.26773 0.0
C1229 C 0.24217 0.41922 0.27288 0.0
C1230 C 0.29116 0.49955 0.2358 0.0
C1231 C 0.26031 0.4837 0.25299 0.0
C1232 C 0.29799 0.5299 0.22525 0.0
C1233 C 0.28468 0.58033 0.22175 0.0
C1234 C 0.27059 0.51926 0.2428 0.0
C1235 C 0.26587 0.60175 0.22964 0.0
C1236 C 0.23646 0.49612 0.25787 0.0
C1237 C 0.26534 0.40584 0.2673 0.0
N1238 N 0.25907 0.57047 0.23967 0.0
N1239 N 0.27378 0.43821 0.25769 0.0
H1240 H 0.04994 0.95229 0.46935 0.0
H1241 H 0.94568 0.01335 0.52081 0.0
H1242 H 0.98328 0.84647 0.47365 0.0
H1243 H 0.01045 0.12378 0.5157 0.0
H1244 H 0.9572 0.95716 0.50241 0.0
H1245 H 0.03545 0.01657 0.486 0.0
C1246 C 0.03249 0.94178 0.47396 0.0
C1247 C 0.01791 0.89346 0.4701 0.0
C1248 C 0.96866 0.99441 0.50512 0.0
C1249 C 0.00086 0.96821 0.48903 0.0
C1250 C 0.96182 0.02713 0.5155 0.0
C1251 C 0.97701 0.07359 0.51969 0.0
C1252 C 0.9911 0.00762 0.49896 0.0
C1253 C 0.99802 0.08892 0.51265 0.0
C1254 C 0.02407 0.97907 0.48337 0.0
C1255 C 0.99533 0.88262 0.47637 0.0
N1256 N 0.0047 0.05535 0.50273 0.0
N1257 N 0.98746 0.91986 0.48547 0.0
H1258 H 0.94572 0.20944 0.71823 0.0
H1259 H 0.03668 0.2596 0.77567 0.0
H1260 H 0.01365 0.11021 0.72356 0.0
H1261 H 0.97423 0.37273 0.76729 0.0
H1262 H 0.02753 0.20068 0.75733 0.0
H1263 H 0.95283 0.26041 0.73777 0.0
C1264 C 0.96155 0.19653 0.72383 0.0
C1265 C 0.979 0.15517 0.71936 0.0
C1266 C 0.01598 0.23874 0.75939 0.0
C1267 C 0.988 0.21545 0.74142 0.0
C1268 C 0.0214 0.27287 0.76976 0.0
C1269 C 0.00631 0.32143 0.77292 0.0
C1270 C 0.99509 0.25274 0.75217 0.0
C1271 C 0.98658 0.33628 0.76506 0.0
C1272 C 0.96591 0.22657 0.73484 0.0
C1273 C -0.00048 0.14102 0.72679 0.0
N1274 N 0.98136 0.30165 0.7551 0.0
N1275 N 0.0037 0.17185 0.73739 0.0
H1276 H 0.00547 0.59017 0.22688 0.0
H1277 H 0.98636 0.89025 0.26498 0.0
H1278 H 0.9513 0.72325 0.2176 0.0
H1279 H 0.03013 0.74499 0.27835 0.0
H1280 H 0.97581 0.83149 0.24672 0.0
H1281 H 0.01475 0.64443 0.24593 0.0
C1282 C 0.99484 0.62954 0.22907 0.0
C1283 C 0.97763 0.65231 0.22064 0.0
C1284 C 0.98791 0.81266 0.25361 0.0
C1285 C 0.98893 0.71591 0.24207 0.0
C1286 C 0.9943 0.84665 0.26392 0.0
C1287 C 0.00913 0.82252 0.27319 0.0
C1288 C 0.99653 0.75432 0.25255 0.0
C1289 C 0.01856 0.76526 0.27143 0.0
C1290 C 0.00048 0.66116 0.23983 0.0
C1291 C 0.9648 0.70431 0.22383 0.0
N1292 N 0.012 0.73303 0.26136 0.0
N1293 N 0.97098 0.73478 0.23418 0.0
H1294 H 0.05145 0.42882 0.97214 0.0
H1295 H 0.94634 0.5197 0.02128 0.0
H1296 H 0.97802 0.3488 0.97324 0.0
H1297 H 0.0166 0.61156 0.01729 0.0
H1298 H 0.95671 0.45918 0.00329 0.0
H1299 H 0.03937 0.4935 0.98917 0.0
C1300 C 0.03296 0.42381 0.97618 0.0
C1301 C 0.01578 0.38293 0.97129 0.0
C1302 C 0.96968 0.49326 0.00617 0.0
C1303 C 0.00153 0.45845 0.9906 0.0
C1304 C 0.9636 0.52844 0.01633 0.0
C1305 C 0.98056 0.57104 0.0207 0.0
C1306 C 0.99311 0.50002 0.00044 0.0
C1307 C 0.00283 0.57989 0.0141 0.0
C1308 C 0.02596 0.46143 0.98579 0.0
C1309 C 0.99201 0.37893 0.97682 0.0
N1310 N 0.00866 0.544 0.0044 0.0
N1311 N 0.98552 0.41658 0.98612 0.0
H1312 H 0.55755 0.02172 0.05671 0.0
H1313 H 0.68397 0.19529 0.07089 0.0
H1314 H 0.56348 0.15829 0.08437 0.0
H1315 H 0.68394 0.02395 0.05343 0.0
H1316 H 0.6389 0.18445 0.07494 0.0
H1317 H 0.60362 0.01972 0.05518 0.0
C1318 C 0.56854 0.04983 0.06273 0.0
C1319 C 0.55675 0.09061 0.07058 0.0
C1320 C 0.64883 0.14917 0.07025 0.0
C1321 C 0.60905 0.09017 0.06858 0.0
C1322 C 0.67445 0.1557 0.06783 0.0
C1323 C 0.68769 0.11056 0.06182 0.0
C1324 C 0.63634 0.09752 0.06648 0.0
C1325 C 0.67447 0.05981 0.05815 0.0
C1326 C 0.59478 0.04928 0.06175 0.0
C1327 C 0.57186 0.12668 0.07807 0.0
N1328 N 0.64951 0.05477 0.06048 0.0
N1329 N 0.59717 0.12637 0.07674 0.0
H1330 H 0.56985 0.03076 0.1905 0.0
H1331 H 0.69645 0.19859 0.17395 0.0
H1332 H 0.57275 0.2168 0.18327 0.0
H1333 H 0.69501 0.02245 0.18821 0.0
H1334 H 0.65096 0.20263 0.1753 0.0
H1335 H 0.61504 0.02498 0.18802 0.0
C1336 C 0.57996 0.07069 0.1884 0.0
C1337 C 0.5673 0.12459 0.18708 0.0
C1338 C 0.66052 0.163 0.1781 0.0
C1339 C 0.61954 0.11768 0.18419 0.0
C1340 C 0.68659 0.16038 0.1773 0.0
C1341 C 0.69975 0.11012 0.1811 0.0
C1342 C 0.64725 0.11494 0.18266 0.0
C1343 C 0.68574 0.06204 0.18519 0.0
C1344 C 0.60589 0.06712 0.187 0.0
C1345 C 0.58165 0.17446 0.18441 0.0
N1346 N 0.66022 0.06576 0.18592 0.0
N1347 N 0.60704 0.16975 0.18301 0.0
H1348 H 0.44082 0.93331 0.91876 0.0
H1349 H 0.31562 0.81293 0.951 0.0
H1350 H 0.4374 0.87885 0.9564 0.0
H1351 H 0.31741 0.88348 0.91452 0.0
H1352 H 0.36121 0.82756 0.95248 0.0
H1353 H 0.39578 0.91244 0.91669 0.0
C1354 C 0.43028 0.91913 0.9267 0.0
C1355 C 0.44243 0.9094 0.93786 0.0
C1356 C 0.35172 0.83871 0.94405 0.0
C1357 C 0.39147 0.88259 0.93546 0.0
C1358 C 0.32582 0.82919 0.94313 0.0
C1359 C 0.31295 0.84645 0.93258 0.0
C1360 C 0.36465 0.86563 0.93434 0.0
C1361 C 0.32681 0.86921 0.92277 0.0
C1362 C 0.40474 0.90613 0.92548 0.0
C1363 C 0.42838 0.88825 0.94775 0.0
N1364 N 0.35187 0.87863 0.92392 0.0
N1365 N 0.40364 0.87533 0.94632 0.0
H1366 H 0.43002 0.80008 0.81666 0.0
H1367 H 0.30417 0.98704 0.80628 0.0
H1368 H 0.42996 0.9812 0.80534 0.0
H1369 H 0.30601 0.81474 0.82237 0.0
H1370 H 0.35031 0.98641 0.80564 0.0
H1371 H 0.38411 0.80359 0.81795 0.0
C1372 C 0.42037 0.84035 0.81436 0.0
C1373 C 0.43387 0.89038 0.81094 0.0
C1374 C 0.34053 0.94895 0.80938 0.0
C1375 C 0.38145 0.89503 0.81248 0.0
C1376 C 0.31424 0.94955 0.80982 0.0
C1377 C 0.30123 0.90071 0.81426 0.0
C1378 C 0.35373 0.89916 0.8134 0.0
C1379 C 0.31523 0.85308 0.81869 0.0
C1380 C 0.39419 0.84254 0.81518 0.0
C1381 C 0.42036 0.9416 0.80811 0.0
N1382 N 0.34064 0.85335 0.81806 0.0
N1383 N 0.39494 0.9426 0.80895 0.0
H1384 H 0.68545 0.71777 0.56241 0.0
H1385 H 0.56105 0.5208 0.55387 0.0
H1386 H 0.68591 0.53845 0.54898 0.0
H1387 H 0.56162 0.69566 0.56978 0.0
H1388 H 0.6068 0.52736 0.55122 0.0
H1389 H 0.63946 0.71267 0.56398 0.0
C1390 C 0.67591 0.67767 0.55969 0.0
C1391 C 0.68959 0.62845 0.55566 0.0
C1392 C 0.59681 0.56422 0.55529 0.0
C1393 C 0.63716 0.62194 0.5575 0.0
C1394 C 0.57072 0.56031 0.55684 0.0
C1395 C 0.55737 0.60767 0.56201 0.0
C1396 C 0.60955 0.61582 0.55893 0.0
C1397 C 0.57096 0.658 0.56567 0.0
C1398 C 0.6497 0.67455 0.56065 0.0
C1399 C 0.67622 0.57739 0.55228 0.0
N1400 N 0.59618 0.66072 0.56404 0.0
N1401 N 0.65084 0.57543 0.55332 0.0
H1402 H 0.56693 0.69804 0.68213 0.0
H1403 H 0.69583 0.51777 0.68975 0.0
H1404 H 0.57163 0.51829 0.69417 0.0
H1405 H 0.69213 0.694 0.67563 0.0
H1406 H 0.64991 0.51733 0.6913 0.0
H1407 H 0.61297 0.69894 0.67995 0.0
C1408 C 0.57757 0.65904 0.68436 0.0
C1409 C 0.56533 0.60802 0.68824 0.0
C1410 C 0.6592 0.55602 0.68782 0.0
C1411 C 0.61772 0.60847 0.68576 0.0
C1412 C 0.68541 0.55607 0.68688 0.0
C1413 C 0.69791 0.60599 0.68264 0.0
C1414 C 0.64544 0.60624 0.68449 0.0
C1415 C 0.68337 0.65459 0.67908 0.0
C1416 C 0.60379 0.65939 0.68306 0.0
C1417 C 0.58009 0.55857 0.69099 0.0
N1418 N 0.65798 0.65358 0.68013 0.0
N1419 N 0.60537 0.56008 0.68969 0.0
H1420 H 0.44417 0.30796 0.42044 0.0
H1421 H 0.31544 0.47106 0.43628 0.0
H1422 H 0.441 0.47524 0.43946 0.0
H1423 H 0.32037 0.28577 0.42756 0.0
H1424 H 0.3608 0.47904 0.4343 0.0
H1425 H 0.3985 0.30717 0.41918 0.0
C1426 C 0.43385 0.34524 0.42414 0.0
C1427 C 0.44642 0.39153 0.43021 0.0
C1428 C 0.352 0.43667 0.43281 0.0
C1429 C 0.39398 0.39031 0.4289 0.0
C1430 C 0.32604 0.43186 0.43392 0.0
C1431 C 0.31396 0.37742 0.43209 0.0
C1432 C 0.3662 0.38687 0.42973 0.0
C1433 C 0.32884 0.32843 0.42912 0.0
C1434 C 0.40776 0.3444 0.4235 0.0
C1435 C 0.4321 0.4388 0.4347 0.0
N1436 N 0.35422 0.33437 0.428 0.0
N1437 N 0.40654 0.43667 0.43409 0.0
H1438 H 0.42224 0.34002 0.29934 0.0
H1439 H 0.30014 0.43319 0.33608 0.0
H1440 H 0.42698 0.41295 0.33595 0.0
H1441 H 0.30464 0.44478 0.29675 0.0
H1442 H 0.34593 0.42163 0.3369 0.0
H1443 H 0.37744 0.36721 0.29881 0.0
C1444 C 0.41364 0.36036 0.30735 0.0
C1445 C 0.42803 0.37369 0.31776 0.0
C1446 C 0.33699 0.42855 0.32812 0.0
C1447 C 0.37741 0.40589 0.31716 0.0
C1448 C 0.31098 0.43636 0.32769 0.0
C1449 C 0.29883 0.44162 0.31637 0.0
C1450 C 0.35068 0.42392 0.31711 0.0
C1451 C 0.3135 0.44254 0.30567 0.0
C1452 C 0.38831 0.37683 0.30698 0.0
C1453 C 0.41632 0.40156 0.32781 0.0
N1454 N 0.33864 0.43241 0.30627 0.0
N1455 N 0.39165 0.41651 0.32729 0.0
H1456 H 0.05637 0.20507 0.55748 0.0
H1457 H 0.18639 0.04657 0.57146 0.0
H1458 H 0.06241 0.01867 0.56386 0.0
H1459 H 0.18113 0.22399 0.55814 0.0
H1460 H 0.14091 0.03854 0.5708 0.0
H1461 H 0.10149 0.21432 0.55945 0.0
C1462 C 0.06715 0.16582 0.55934 0.0
C1463 C 0.05538 0.11078 0.56056 0.0
C1464 C 0.14963 0.07929 0.56805 0.0
C1465 C 0.1076 0.12168 0.56283 0.0
C1466 C 0.17568 0.08417 0.56845 0.0
C1467 C 0.18773 0.13603 0.56471 0.0
C1468 C 0.13531 0.12664 0.56395 0.0
C1469 C 0.17271 0.18326 0.56109 0.0
C1470 C 0.09305 0.17136 0.56043 0.0
C1471 C 0.0706 0.06185 0.56284 0.0
N1472 N 0.14725 0.1773 0.56073 0.0
N1473 N 0.09597 0.0685 0.56395 0.0
H1474 H 0.19124 0.08869 0.70285 0.0
H1475 H 0.06705 0.10532 0.66216 0.0
H1476 H 0.1929 0.08145 0.66337 0.0
H1477 H 0.07189 0.18025 0.69859 0.0
H1478 H 0.11181 0.08121 0.66294 0.0
H1479 H 0.14545 0.10148 0.70218 0.0
C1480 C 0.18175 0.08698 0.69406 0.0
C1481 C 0.19561 0.08264 0.68315 0.0
C1482 C 0.10318 0.10344 0.67072 0.0
C1483 C 0.14373 0.09979 0.68227 0.0
C1484 C 0.07775 0.11765 0.67024 0.0
C1485 C 0.06599 0.14551 0.68026 0.0
C1486 C 0.11683 0.11594 0.68142 0.0
C1487 C 0.08047 0.15978 0.6906 0.0
C1488 C 0.15577 0.09564 0.69367 0.0
C1489 C 0.1827 0.08327 0.67197 0.0
N1490 N 0.10517 0.14425 0.69097 0.0
N1491 N 0.15745 0.09206 0.6718 0.0
H1492 H 0.942 0.97651 0.4317 0.0
H1493 H 0.81365 0.81409 0.45033 0.0
H1494 H 0.93926 0.82775 0.4557 0.0
H1495 H 0.81942 0.95157 0.42358 0.0
H1496 H 0.85913 0.82296 0.45402 0.0
H1497 H 0.8959 0.97739 0.4312 0.0
C1498 C 0.93164 0.94554 0.43722 0.0
C1499 C 0.94428 0.90209 0.44374 0.0
C1500 C 0.85036 0.85103 0.44733 0.0
C1501 C 0.89183 0.901 0.44287 0.0
C1502 C 0.82451 0.84537 0.44512 0.0
C1503 C 0.81276 0.88206 0.43664 0.0
C1504 C 0.86437 0.89366 0.44101 0.0
C1505 C 0.82766 0.92257 0.43026 0.0
C1506 C 0.90537 0.94522 0.43678 0.0
C1507 C 0.93005 0.86193 0.45054 0.0
N1508 N 0.85256 0.92737 0.4326 0.0
N1509 N 0.90459 0.86181 0.44981 0.0
H1510 H 0.92385 0.80362 0.3193 0.0
H1511 H 0.80063 0.99563 0.30772 0.0
H1512 H 0.92588 0.98083 0.30565 0.0
H1513 H 0.80102 0.83705 0.32897 0.0
H1514 H 0.84674 0.99351 0.30744 0.0
H1515 H 0.87844 0.81448 0.32264 0.0
C1516 C 0.91477 0.84456 0.31696 0.0
C1517 C 0.92872 0.89126 0.3122 0.0
C1518 C 0.8367 0.95973 0.31234 0.0
C1519 C 0.87698 0.90432 0.31608 0.0
C1520 C 0.8104 0.96146 0.31263 0.0
C1521 C 0.79702 0.91622 0.31827 0.0
C1522 C 0.8495 0.91222 0.31765 0.0
C1523 C 0.81064 0.87245 0.32437 0.0
C1524 C 0.88892 0.85101 0.31896 0.0
C1525 C 0.91597 0.9436 0.30939 0.0
N1526 N 0.83607 0.871 0.32373 0.0
N1527 N 0.89089 0.9486 0.31133 0.0
H1528 H 0.18187 0.68527 0.07477 0.0
H1529 H 0.05789 0.52016 0.05047 0.0
H1530 H 0.179 0.57409 0.04249 0.0
H1531 H 0.05587 0.65631 0.07834 0.0
H1532 H 0.10365 0.53095 0.04934 0.0
H1533 H 0.13617 0.67238 0.07732 0.0
C1534 C 0.17147 0.65973 0.06804 0.0
C1535 C 0.184 0.6311 0.05836 0.0
C1536 C 0.09322 0.55796 0.05583 0.0
C1537 C 0.13238 0.61421 0.06143 0.0
C1538 C 0.06718 0.551 0.05661 0.0
C1539 C 0.05318 0.58748 0.06447 0.0
C1540 C 0.10524 0.6015 0.063 0.0
C1541 C 0.06607 0.62757 0.0721 0.0
C1542 C 0.14555 0.65153 0.06959 0.0
C1543 C 0.16991 0.59701 0.05006 0.0
N1544 N 0.09136 0.6339 0.0711 0.0
N1545 N 0.14494 0.58918 0.05183 0.0
H1546 H 0.06828 0.52192 0.18532 0.0
H1547 H 0.19601 0.70363 0.18855 0.0
H1548 H 0.07131 0.71136 0.18783 0.0
H1549 H 0.19358 0.51406 0.18632 0.0
H1550 H 0.15057 0.70641 0.18899 0.0
H1551 H 0.11377 0.51815 0.18632 0.0
C1552 C 0.07846 0.56297 0.18609 0.0
C1553 C 0.06578 0.61728 0.18643 0.0
C1554 C 0.15987 0.66413 0.18844 0.0
C1555 C 0.11832 0.61277 0.1876 0.0
C1556 C 0.18597 0.66228 0.18816 0.0
C1557 C 0.19884 0.6083 0.1873 0.0
C1558 C 0.14622 0.61168 0.18783 0.0
C1559 C 0.18454 0.55659 0.18696 0.0
C1560 C 0.10456 0.56056 0.18668 0.0
C1561 C 0.0802 0.66859 0.18751 0.0
N1562 N 0.15895 0.55958 0.18717 0.0
N1563 N 0.10572 0.66506 0.18802 0.0
H1564 H 0.8128 0.29585 0.94711 0.0
H1565 H 0.93948 0.47165 0.93252 0.0
H1566 H 0.81471 0.46199 0.92844 0.0
H1567 H 0.93672 0.31066 0.95286 0.0
H1568 H 0.8933 0.47493 0.93279 0.0
H1569 H 0.85815 0.30383 0.95049 0.0
C1570 C 0.82274 0.33378 0.94368 0.0
C1571 C 0.80995 0.37814 0.93746 0.0
C1572 C 0.90284 0.43946 0.93739 0.0
C1573 C 0.8617 0.38799 0.94138 0.0
C1574 C 0.92913 0.43811 0.93736 0.0
C1575 C 0.94169 0.3907 0.94261 0.0
C1576 C 0.88931 0.39299 0.9427 0.0
C1577 C 0.92756 0.34768 0.94861 0.0
C1578 C 0.84859 0.33863 0.94569 0.0
C1579 C 0.82377 0.4267 0.93331 0.0
N1580 N 0.90213 0.34946 0.94837 0.0
N1581 N 0.84886 0.43021 0.93531 0.0
H1582 H 0.92265 0.32591 0.79855 0.0
H1583 H 0.80226 0.41874 0.83574 0.0
H1584 H 0.93159 0.41455 0.83343 0.0
H1585 H 0.80718 0.43945 0.7966 0.0
H1586 H 0.84818 0.407 0.83654 0.0
H1587 H 0.87755 0.34946 0.79913 0.0
C1588 C 0.9149 0.34855 0.8065 0.0
C1589 C 0.93056 0.36762 0.81604 0.0
C1590 C 0.83923 0.41589 0.82784 0.0
C1591 C 0.87959 0.39575 0.81665 0.0
C1592 C 0.81319 0.4237 0.82742 0.0
C1593 C 0.80118 0.43165 0.81613 0.0
C1594 C 0.85294 0.41373 0.81683 0.0
C1595 C 0.81593 0.43502 0.80551 0.0
C1596 C 0.8894 0.36298 0.80673 0.0
C1597 C 0.9199 0.39852 0.826 0.0
N1598 N 0.84103 0.42466 0.80606 0.0
N1599 N 0.89497 0.41151 0.82609 0.0
loop_
_geom_bond_atom_site_label_1
_geom_bond_atom_site_label_2
_geom_bond_distance
_geom_bond_site_symmetry_2
_ccdc_geom_bond_type
Co0 O1 2.216 . S
Co0 O2 2.091 1_545 S
Co0 O4 2.004 . S
Co0 O10 2.021 . S
Co0 O12 2.137 . S
Co0 O13 2.244 . S
O1 Co0 2.216 . S
O1 C8 1.247 1_545 S
O2 Co0 2.091 1_565 S
O2 C8 1.261 . S
C3 O12 1.247 . S
C3 O13 1.272 . S
O4 Co0 2.004 . S
O4 C9 1.259 . S
Co5 O6 2.061 . S
Co5 O11 2.052 . S
Co5 O13 2.135 . S
O6 Co5 2.061 . S
O6 C9 1.235 . S
C7 O10 1.238 . S
C7 O11 1.241 . S
C8 O1 1.247 1_565 S
C8 O2 1.261 . S
C9 O4 1.259 . S
C9 O6 1.235 . S
O10 Co0 2.021 . S
O10 C7 1.238 . S
O11 Co5 2.052 . S
O11 C7 1.241 . S
O12 Co0 2.137 . S
O12 C3 1.247 . S
O13 Co0 2.244 . S
O13 C3 1.272 . S
O13 Co5 2.135 . S
Co14 O15 2.216 . S
Co14 O16 2.091 . S
Co14 O18 2.004 . S
Co14 O24 2.021 . S
Co14 O26 2.137 . S
Co14 O27 2.244 . S
O15 Co14 2.216 . S
O15 C22 1.247 . S
O16 Co14 2.091 . S
O16 C22 1.261 . S
C17 O26 1.247 . S
C17 O27 1.272 . S
O18 Co14 2.004 . S
O18 C23 1.259 . S
Co19 O20 2.061 . S
Co19 O25 2.052 . S
Co19 O27 2.135 . S
O20 Co19 2.061 . S
O20 C23 1.235 . S
C21 O24 1.238 . S
C21 O25 1.241 . S
C22 O15 1.247 . S
C22 O16 1.261 . S
C23 O18 1.259 . S
C23 O20 1.235 . S
O24 Co14 2.021 . S
O24 C21 1.238 . S
O25 Co19 2.052 . S
O25 C21 1.241 . S
O26 Co14 2.137 . S
O26 C17 1.247 . S
O27 Co14 2.244 . S
O27 C17 1.272 . S
O27 Co19 2.135 . S
Co28 O29 2.216 . S
Co28 O30 2.091 . S
Co28 O32 2.004 . S
Co28 O38 2.021 . S
Co28 O40 2.137 . S
Co28 O41 2.244 . S
O29 Co28 2.216 . S
O29 C36 1.247 . S
O30 Co28 2.091 . S
O30 C36 1.261 . S
C31 O40 1.247 . S
C31 O41 1.272 . S
O32 Co28 2.004 . S
O32 C37 1.259 . S
Co33 O34 2.061 . S
Co33 O39 2.052 . S
Co33 O41 2.135 . S
O34 Co33 2.061 . S
O34 C37 1.235 . S
C35 O38 1.238 . S
C35 O39 1.241 . S
C36 O29 1.247 . S
C36 O30 1.261 . S
C37 O32 1.259 . S
C37 O34 1.235 . S
O38 Co28 2.021 . S
O38 C35 1.238 . S
O39 Co33 2.052 . S
O39 C35 1.241 . S
O40 Co28 2.137 . S
O40 C31 1.247 . S
O41 Co28 2.244 . S
O41 C31 1.272 . S
O41 Co33 2.135 . S
Co42 O43 2.216 . S
Co42 O44 2.091 1_545 S
Co42 O46 2.004 . S
Co42 O52 2.021 . S
Co42 O54 2.137 . S
Co42 O55 2.244 . S
O43 Co42 2.216 . S
O43 C50 1.247 1_545 S
O44 Co42 2.091 1_565 S
O44 C50 1.261 . S
C45 O54 1.247 . S
C45 O55 1.272 . S
O46 Co42 2.004 . S
O46 C51 1.259 . S
Co47 O48 2.061 . S
Co47 O53 2.052 . S
Co47 O55 2.135 . S
O48 Co47 2.061 . S
O48 C51 1.235 . S
C49 O52 1.238 . S
C49 O53 1.241 . S
C50 O43 1.247 1_565 S
C50 O44 1.261 . S
C51 O46 1.259 . S
C51 O48 1.235 . S
O52 Co42 2.021 . S
O52 C49 1.238 . S
O53 Co47 2.052 . S
O53 C49 1.241 . S
O54 Co42 2.137 . S
O54 C45 1.247 . S
O55 Co42 2.244 . S
O55 C45 1.272 . S
O55 Co47 2.135 . S
Co56 O57 2.216 . S
Co56 O58 2.091 1_565 S
Co56 O60 2.004 . S
Co56 O66 2.021 . S
Co56 O68 2.137 . S
Co56 O69 2.244 . S
O57 Co56 2.216 . S
O57 C64 1.247 1_565 S
O58 Co56 2.091 1_545 S
O58 C64 1.261 . S
C59 O68 1.247 . S
C59 O69 1.272 . S
O60 Co56 2.004 . S
O60 C65 1.259 . S
Co61 O62 2.061 . S
Co61 O67 2.052 . S
Co61 O69 2.135 . S
O62 Co61 2.061 . S
O62 C65 1.235 . S
C63 O66 1.238 . S
C63 O67 1.241 . S
C64 O57 1.247 1_545 S
C64 O58 1.261 . S
C65 O60 1.259 . S
C65 O62 1.235 . S
O66 Co56 2.021 . S
O66 C63 1.238 . S
O67 Co61 2.052 . S
O67 C63 1.241 . S
O68 Co56 2.137 . S
O68 C59 1.247 . S
O69 Co56 2.244 . S
O69 C59 1.272 . S
O69 Co61 2.135 . S
Co70 O71 2.216 . S
Co70 O72 2.091 . S
Co70 O74 2.004 . S
Co70 O80 2.021 . S
Co70 O82 2.137 . S
Co70 O83 2.244 . S
O71 Co70 2.216 . S
O71 C78 1.247 . S
O72 Co70 2.091 . S
O72 C78 1.261 . S
C73 O82 1.247 . S
C73 O83 1.272 . S
O74 Co70 2.004 . S
O74 C79 1.259 . S
Co75 O76 2.061 . S
Co75 O81 2.052 . S
Co75 O83 2.135 . S
O76 Co75 2.061 . S
O76 C79 1.235 . S
C77 O80 1.238 . S
C77 O81 1.241 . S
C78 O71 1.247 . S
C78 O72 1.261 . S
C79 O74 1.259 . S
C79 O76 1.235 . S
O80 Co70 2.021 . S
O80 C77 1.238 . S
O81 Co75 2.052 . S
O81 C77 1.241 . S
O82 Co70 2.137 . S
O82 C73 1.247 . S
O83 Co70 2.244 . S
O83 C73 1.272 . S
O83 Co75 2.135 . S
Co84 O85 2.216 . S
Co84 O86 2.091 . S
Co84 O88 2.004 . S
Co84 O94 2.021 . S
Co84 O96 2.137 . S
Co84 O97 2.244 . S
O85 Co84 2.216 . S
O85 C92 1.247 . S
O86 Co84 2.091 . S
O86 C92 1.261 . S
C87 O96 1.247 . S
C87 O97 1.272 . S
O88 Co84 2.004 . S
O88 C93 1.259 . S
Co89 O90 2.061 . S
Co89 O95 2.052 . S
Co89 O97 2.135 . S
O90 Co89 2.061 . S
O90 C93 1.235 . S
C91 O94 1.238 . S
C91 O95 1.241 . S
C92 O85 1.247 . S
C92 O86 1.261 . S
C93 O88 1.259 . S
C93 O90 1.235 . S
O94 Co84 2.021 . S
O94 C91 1.238 . S
O95 Co89 2.052 . S
O95 C91 1.241 . S
O96 Co84 2.137 . S
O96 C87 1.247 . S
O97 Co84 2.244 . S
O97 C87 1.272 . S
O97 Co89 2.135 . S
Co98 O99 2.216 . S
Co98 O100 2.091 1_565 S
Co98 O102 2.004 . S
Co98 O108 2.021 . S
Co98 O110 2.137 . S
Co98 O111 2.244 . S
O99 Co98 2.216 . S
O99 C106 1.247 1_565 S
O100 Co98 2.091 1_545 S
O100 C106 1.261 . S
C101 O110 1.247 . S
C101 O111 1.272 . S
O102 Co98 2.004 . S
O102 C107 1.259 . S
Co103 O104 2.061 . S
Co103 O109 2.052 . S
Co103 O111 2.135 . S
O104 Co103 2.061 . S
O104 C107 1.235 . S
C105 O108 1.238 . S
C105 O109 1.241 . S
C106 O99 1.247 1_545 S
C106 O100 1.261 . S
C107 O102 1.259 . S
C107 O104 1.235 . S
O108 Co98 2.021 . S
O108 C105 1.238 . S
O109 Co103 2.052 . S
O109 C105 1.241 . S
O110 Co98 2.137 . S
O110 C101 1.247 . S
O111 Co98 2.244 . S
O111 C101 1.272 . S
O111 Co103 2.135 . S
Co112 O113 2.216 . S
Co112 O114 2.091 . S
Co112 O116 2.004 . S
Co112 O122 2.021 . S
Co112 O124 2.137 . S
Co112 O125 2.244 . S
O113 Co112 2.216 . S
O113 C120 1.247 . S
O114 Co112 2.091 . S
O114 C120 1.261 . S
C115 O124 1.247 . S
C115 O125 1.272 . S
O116 Co112 2.004 . S
O116 C121 1.259 . S
Co117 O118 2.061 . S
Co117 O123 2.052 . S
Co117 O125 2.135 . S
O118 Co117 2.061 . S
O118 C121 1.235 . S
C119 O122 1.238 . S
C119 O123 1.241 . S
C120 O113 1.247 . S
C120 O114 1.261 . S
C121 O116 1.259 . S
C121 O118 1.235 . S
O122 Co112 2.021 . S
O122 C119 1.238 . S
O123 Co117 2.052 . S
O123 C119 1.241 . S
O124 Co112 2.137 . S
O124 C115 1.247 . S
O125 Co112 2.244 . S
O125 C115 1.272 . S
O125 Co117 2.135 . S
Co126 O127 2.216 . S
Co126 O128 2.091 . S
Co126 O130 2.004 . S
Co126 O136 2.021 . S
Co126 O138 2.137 . S
Co126 O139 2.244 . S
O127 Co126 2.216 . S
O127 C134 1.247 . S
O128 Co126 2.091 . S
O128 C134 1.261 . S
C129 O138 1.247 . S
C129 O139 1.272 . S
O130 Co126 2.004 . S
O130 C135 1.259 . S
Co131 O132 2.061 . S
Co131 O137 2.052 . S
Co131 O139 2.135 . S
O132 Co131 2.061 . S
O132 C135 1.235 . S
C133 O136 1.238 . S
C133 O137 1.241 . S
C134 O127 1.247 . S
C134 O128 1.261 . S
C135 O130 1.259 . S
C135 O132 1.235 . S
O136 Co126 2.021 . S
O136 C133 1.238 . S
O137 Co131 2.052 . S
O137 C133 1.241 . S
O138 Co126 2.137 . S
O138 C129 1.247 . S
O139 Co126 2.244 . S
O139 C129 1.272 . S
O139 Co131 2.135 . S
Co140 O141 2.216 . S
Co140 O142 2.091 . S
Co140 O144 2.004 . S
Co140 O150 2.021 . S
Co140 O152 2.137 . S
Co140 O153 2.244 . S
O141 Co140 2.216 . S
O141 C148 1.247 . S
O142 Co140 2.091 . S
O142 C148 1.261 . S
C143 O152 1.247 . S
C143 O153 1.272 . S
O144 Co140 2.004 . S
O144 C149 1.259 . S
Co145 O146 2.061 . S
Co145 O151 2.052 . S
Co145 O153 2.135 . S
O146 Co145 2.061 . S
O146 C149 1.235 . S
C147 O150 1.238 . S
C147 O151 1.241 . S
C148 O141 1.247 . S
C148 O142 1.261 . S
C149 O144 1.259 . S
C149 O146 1.235 . S
O150 Co140 2.021 . S
O150 C147 1.238 . S
O151 Co145 2.052 . S
O151 C147 1.241 . S
O152 Co140 2.137 . S
O152 C143 1.247 . S
O153 Co140 2.244 . S
O153 C143 1.272 . S
O153 Co145 2.135 . S
Co154 O155 2.216 . S
Co154 O156 2.091 . S
Co154 O158 2.004 . S
Co154 O164 2.021 . S
Co154 O166 2.137 . S
Co154 O167 2.244 . S
O155 Co154 2.216 . S
O155 C162 1.247 . S
O156 Co154 2.091 . S
O156 C162 1.261 . S
C157 O166 1.247 . S
C157 O167 1.272 . S
O158 Co154 2.004 . S
O158 C163 1.259 . S
Co159 O160 2.061 . S
Co159 O165 2.052 . S
Co159 O167 2.135 . S
O160 Co159 2.061 . S
O160 C163 1.235 . S
C161 O164 1.238 . S
C161 O165 1.241 . S
C162 O155 1.247 . S
C162 O156 1.261 . S
C163 O158 1.259 . S
C163 O160 1.235 . S
O164 Co154 2.021 . S
O164 C161 1.238 . S
O165 Co159 2.052 . S
O165 C161 1.241 . S
O166 Co154 2.137 . S
O166 C157 1.247 . S
O167 Co154 2.244 . S
O167 C157 1.272 . S
O167 Co159 2.135 . S
Co168 O169 2.216 . S
Co168 O170 2.091 . S
Co168 O172 2.004 . S
Co168 O178 2.021 . S
Co168 O180 2.137 . S
Co168 O181 2.244 . S
O169 Co168 2.216 . S
O169 C176 1.247 . S
O170 Co168 2.091 . S
O170 C176 1.261 . S
C171 O180 1.247 . S
C171 O181 1.272 . S
O172 Co168 2.004 . S
O172 C177 1.259 . S
Co173 O174 2.061 . S
Co173 O179 2.052 . S
Co173 O181 2.135 . S
O174 Co173 2.061 . S
O174 C177 1.235 . S
C175 O178 1.238 . S
C175 O179 1.241 . S
C176 O169 1.247 . S
C176 O170 1.261 . S
C177 O172 1.259 . S
C177 O174 1.235 . S
O178 Co168 2.021 . S
O178 C175 1.238 . S
O179 Co173 2.052 . S
O179 C175 1.241 . S
O180 Co168 2.137 . S
O180 C171 1.247 . S
O181 Co168 2.244 . S
O181 C171 1.272 . S
O181 Co173 2.135 . S
Co182 O183 2.216 . S
Co182 O184 2.091 . S
Co182 O186 2.004 . S
Co182 O192 2.021 . S
Co182 O194 2.137 . S
Co182 O195 2.244 . S
O183 Co182 2.216 . S
O183 C190 1.247 . S
O184 Co182 2.091 . S
O184 C190 1.261 . S
C185 O194 1.247 . S
C185 O195 1.272 . S
O186 Co182 2.004 . S
O186 C191 1.259 . S
Co187 O188 2.061 . S
Co187 O193 2.052 . S
Co187 O195 2.135 . S
O188 Co187 2.061 . S
O188 C191 1.235 . S
C189 O192 1.238 . S
C189 O193 1.241 . S
C190 O183 1.247 . S
C190 O184 1.261 . S
C191 O186 1.259 . S
C191 O188 1.235 . S
O192 Co182 2.021 . S
O192 C189 1.238 . S
O193 Co187 2.052 . S
O193 C189 1.241 . S
O194 Co182 2.137 . S
O194 C185 1.247 . S
O195 Co182 2.244 . S
O195 C185 1.272 . S
O195 Co187 2.135 . S
Co196 O197 2.216 . S
Co196 O198 2.091 . S
Co196 O200 2.004 . S
Co196 O206 2.021 . S
Co196 O208 2.137 . S
Co196 O209 2.244 . S
O197 Co196 2.216 . S
O197 C204 1.247 . S
O198 Co196 2.091 . S
O198 C204 1.261 . S
C199 O208 1.247 . S
C199 O209 1.272 . S
O200 Co196 2.004 . S
O200 C205 1.259 . S
Co201 O202 2.061 . S
Co201 O207 2.052 . S
Co201 O209 2.135 . S
O202 Co201 2.061 . S
O202 C205 1.235 . S
C203 O206 1.238 . S
C203 O207 1.241 . S
C204 O197 1.247 . S
C204 O198 1.261 . S
C205 O200 1.259 . S
C205 O202 1.235 . S
O206 Co196 2.021 . S
O206 C203 1.238 . S
O207 Co201 2.052 . S
O207 C203 1.241 . S
O208 Co196 2.137 . S
O208 C199 1.247 . S
O209 Co196 2.244 . S
O209 C199 1.272 . S
O209 Co201 2.135 . S
Co210 O211 2.216 . S
Co210 O212 2.091 . S
Co210 O214 2.004 . S
Co210 O220 2.021 . S
Co210 O222 2.137 . S
Co210 O223 2.244 . S
O211 Co210 2.216 . S
O211 C218 1.247 . S
O212 Co210 2.091 . S
O212 C218 1.261 . S
C213 O222 1.247 . S
C213 O223 1.272 . S
O214 Co210 2.004 . S
O214 C219 1.259 . S
Co215 O216 2.061 . S
Co215 O221 2.052 . S
Co215 O223 2.135 . S
O216 Co215 2.061 . S
O216 C219 1.235 . S
C217 O220 1.238 . S
C217 O221 1.241 . S
C218 O211 1.247 . S
C218 O212 1.261 . S
C219 O214 1.259 . S
C219 O216 1.235 . S
O220 Co210 2.021 . S
O220 C217 1.238 . S
O221 Co215 2.052 . S
O221 C217 1.241 . S
O222 Co210 2.137 . S
O222 C213 1.247 . S
O223 Co210 2.244 . S
O223 C213 1.272 . S
O223 Co215 2.135 . S
Co224 O225 2.216 . S
Co224 O226 2.091 1_545 S
Co224 O228 2.004 1_655 S
Co224 O234 2.021 . S
Co224 O236 2.137 . S
Co224 O237 2.244 . S
O225 Co224 2.216 . S
O225 C232 1.247 1_545 S
O226 Co224 2.091 1_565 S
O226 C232 1.261 . S
C227 O236 1.247 . S
C227 O237 1.272 . S
O228 Co224 2.004 1_455 S
O228 C233 1.259 . S
Co229 O230 2.061 . S
Co229 O235 2.052 1_455 S
Co229 O237 2.135 1_455 S
O230 Co229 2.061 . S
O230 C233 1.235 . S
C231 O234 1.238 . S
C231 O235 1.241 . S
C232 O225 1.247 1_565 S
C232 O226 1.261 . S
C233 O228 1.259 . S
C233 O230 1.235 . S
O234 Co224 2.021 . S
O234 C231 1.238 . S
O235 Co229 2.052 1_655 S
O235 C231 1.241 . S
O236 Co224 2.137 . S
O236 C227 1.247 . S
O237 Co224 2.244 . S
O237 C227 1.272 . S
O237 Co229 2.135 1_655 S
Co238 O239 2.216 . S
Co238 O240 2.091 . S
Co238 O242 2.004 . S
Co238 O248 2.021 . S
Co238 O250 2.137 . S
Co238 O251 2.244 . S
O239 Co238 2.216 . S
O239 C246 1.247 . S
O240 Co238 2.091 . S
O240 C246 1.261 . S
C241 O250 1.247 . S
C241 O251 1.272 . S
O242 Co238 2.004 . S
O242 C247 1.259 . S
Co243 O244 2.061 . S
Co243 O249 2.052 . S
Co243 O251 2.135 . S
O244 Co243 2.061 . S
O244 C247 1.235 . S
C245 O248 1.238 . S
C245 O249 1.241 . S
C246 O239 1.247 . S
C246 O240 1.261 . S
C247 O242 1.259 . S
C247 O244 1.235 . S
O248 Co238 2.021 . S
O248 C245 1.238 . S
O249 Co243 2.052 . S
O249 C245 1.241 . S
O250 Co238 2.137 . S
O250 C241 1.247 . S
O251 Co238 2.244 . S
O251 C241 1.272 . S
O251 Co243 2.135 . S
Co252 O253 2.216 . S
Co252 O254 2.091 . S
Co252 O256 2.004 1_655 S
Co252 O262 2.021 . S
Co252 O264 2.137 . S
Co252 O265 2.244 . S
O253 Co252 2.216 . S
O253 C260 1.247 . S
O254 Co252 2.091 . S
O254 C260 1.261 . S
C255 O264 1.247 . S
C255 O265 1.272 . S
O256 Co252 2.004 1_455 S
O256 C261 1.259 . S
Co257 O258 2.061 . S
Co257 O263 2.052 1_455 S
Co257 O265 2.135 1_455 S
O258 Co257 2.061 . S
O258 C261 1.235 . S
C259 O262 1.238 . S
C259 O263 1.241 . S
C260 O253 1.247 . S
C260 O254 1.261 . S
C261 O256 1.259 . S
C261 O258 1.235 . S
O262 Co252 2.021 . S
O262 C259 1.238 . S
O263 Co257 2.052 1_655 S
O263 C259 1.241 . S
O264 Co252 2.137 . S
O264 C255 1.247 . S
O265 Co252 2.244 . S
O265 C255 1.272 . S
O265 Co257 2.135 1_655 S
Co266 O267 2.216 . S
Co266 O268 2.091 1_545 S
Co266 O270 2.004 . S
Co266 O276 2.021 . S
Co266 O278 2.137 . S
Co266 O279 2.244 . S
O267 Co266 2.216 . S
O267 C274 1.247 1_545 S
O268 Co266 2.091 1_565 S
O268 C274 1.261 . S
C269 O278 1.247 . S
C269 O279 1.272 . S
O270 Co266 2.004 . S
O270 C275 1.259 . S
Co271 O272 2.061 . S
Co271 O277 2.052 . S
Co271 O279 2.135 . S
O272 Co271 2.061 . S
O272 C275 1.235 . S
C273 O276 1.238 . S
C273 O277 1.241 . S
C274 O267 1.247 1_565 S
C274 O268 1.261 . S
C275 O270 1.259 . S
C275 O272 1.235 . S
O276 Co266 2.021 . S
O276 C273 1.238 . S
O277 Co271 2.052 . S
O277 C273 1.241 . S
O278 Co266 2.137 . S
O278 C269 1.247 . S
O279 Co266 2.244 . S
O279 C269 1.272 . S
O279 Co271 2.135 . S
Co280 O281 2.216 . S
Co280 O282 2.091 1_565 S
Co280 O284 2.004 1_455 S
Co280 O290 2.021 . S
Co280 O292 2.137 . S
Co280 O293 2.244 . S
O281 Co280 2.216 . S
O281 C288 1.247 1_565 S
O282 Co280 2.091 1_545 S
O282 C288 1.261 . S
C283 O292 1.247 . S
C283 O293 1.272 . S
O284 Co280 2.004 1_655 S
O284 C289 1.259 . S
Co285 O286 2.061 . S
Co285 O291 2.052 1_655 S
Co285 O293 2.135 1_655 S
O286 Co285 2.061 . S
O286 C289 1.235 . S
C287 O290 1.238 . S
C287 O291 1.241 . S
C288 O281 1.247 1_545 S
C288 O282 1.261 . S
C289 O284 1.259 . S
C289 O286 1.235 . S
O290 Co280 2.021 . S
O290 C287 1.238 . S
O291 Co285 2.052 1_455 S
O291 C287 1.241 . S
O292 Co280 2.137 . S
O292 C283 1.247 . S
O293 Co280 2.244 . S
O293 C283 1.272 . S
O293 Co285 2.135 1_455 S
Co294 O295 2.216 . S
Co294 O296 2.091 . S
Co294 O298 2.004 . S
Co294 O304 2.021 . S
Co294 O306 2.137 . S
Co294 O307 2.244 . S
O295 Co294 2.216 . S
O295 C302 1.247 . S
O296 Co294 2.091 . S
O296 C302 1.261 . S
C297 O306 1.247 . S
C297 O307 1.272 . S
O298 Co294 2.004 . S
O298 C303 1.259 . S
Co299 O300 2.061 . S
Co299 O305 2.052 . S
Co299 O307 2.135 . S
O300 Co299 2.061 . S
O300 C303 1.235 . S
C301 O304 1.238 . S
C301 O305 1.241 . S
C302 O295 1.247 . S
C302 O296 1.261 . S
C303 O298 1.259 . S
C303 O300 1.235 . S
O304 Co294 2.021 . S
O304 C301 1.238 . S
O305 Co299 2.052 . S
O305 C301 1.241 . S
O306 Co294 2.137 . S
O306 C297 1.247 . S
O307 Co294 2.244 . S
O307 C297 1.272 . S
O307 Co299 2.135 . S
Co308 O309 2.216 . S
Co308 O310 2.091 . S
Co308 O312 2.004 1_455 S
Co308 O318 2.021 . S
Co308 O320 2.137 . S
Co308 O321 2.244 . S
O309 Co308 2.216 . S
O309 C316 1.247 . S
O310 Co308 2.091 . S
O310 C316 1.261 . S
C311 O320 1.247 . S
C311 O321 1.272 . S
O312 Co308 2.004 1_655 S
O312 C317 1.259 . S
Co313 O314 2.061 . S
Co313 O319 2.052 1_655 S
Co313 O321 2.135 1_655 S
O314 Co313 2.061 . S
O314 C317 1.235 . S
C315 O318 1.238 . S
C315 O319 1.241 . S
C316 O309 1.247 . S
C316 O310 1.261 . S
C317 O312 1.259 . S
C317 O314 1.235 . S
O318 Co308 2.021 . S
O318 C315 1.238 . S
O319 Co313 2.052 1_455 S
O319 C315 1.241 . S
O320 Co308 2.137 . S
O320 C311 1.247 . S
O321 Co308 2.244 . S
O321 C311 1.272 . S
O321 Co313 2.135 1_455 S
Co322 O323 2.216 . S
Co322 O324 2.091 1_565 S
Co322 O326 2.004 . S
Co322 O332 2.021 . S
Co322 O334 2.137 . S
Co322 O335 2.244 . S
O323 Co322 2.216 . S
O323 C330 1.247 1_565 S
O324 Co322 2.091 1_545 S
O324 C330 1.261 . S
C325 O334 1.247 . S
C325 O335 1.272 . S
O326 Co322 2.004 . S
O326 C331 1.259 . S
Co327 O328 2.061 . S
Co327 O333 2.052 . S
Co327 O335 2.135 . S
O328 Co327 2.061 . S
O328 C331 1.235 . S
C329 O332 1.238 . S
C329 O333 1.241 . S
C330 O323 1.247 1_545 S
C330 O324 1.261 . S
C331 O326 1.259 . S
C331 O328 1.235 . S
O332 Co322 2.021 . S
O332 C329 1.238 . S
O333 Co327 2.052 . S
O333 C329 1.241 . S
O334 Co322 2.137 . S
O334 C325 1.247 . S
O335 Co322 2.244 . S
O335 C325 1.272 . S
O335 Co327 2.135 . S
Co336 O337 2.216 . S
Co336 O338 2.091 . S
Co336 O340 2.004 1_655 S
Co336 O346 2.021 . S
Co336 O348 2.137 . S
Co336 O349 2.244 . S
O337 Co336 2.216 . S
O337 C344 1.247 . S
O338 Co336 2.091 . S
O338 C344 1.261 . S
C339 O348 1.247 . S
C339 O349 1.272 . S
O340 Co336 2.004 1_455 S
O340 C345 1.259 . S
Co341 O342 2.061 . S
Co341 O347 2.052 1_455 S
Co341 O349 2.135 1_455 S
O342 Co341 2.061 . S
O342 C345 1.235 . S
C343 O346 1.238 . S
C343 O347 1.241 . S
C344 O337 1.247 . S
C344 O338 1.261 . S
C345 O340 1.259 . S
C345 O342 1.235 . S
O346 Co336 2.021 . S
O346 C343 1.238 . S
O347 Co341 2.052 1_655 S
O347 C343 1.241 . S
O348 Co336 2.137 . S
O348 C339 1.247 . S
O349 Co336 2.244 . S
O349 C339 1.272 . S
O349 Co341 2.135 1_655 S
Co350 O351 2.216 . S
Co350 O352 2.091 . S
Co350 O354 2.004 . S
Co350 O360 2.021 . S
Co350 O362 2.137 . S
Co350 O363 2.244 . S
O351 Co350 2.216 . S
O351 C358 1.247 . S
O352 Co350 2.091 . S
O352 C358 1.261 . S
C353 O362 1.247 . S
C353 O363 1.272 . S
O354 Co350 2.004 . S
O354 C359 1.259 . S
Co355 O356 2.061 . S
Co355 O361 2.052 . S
Co355 O363 2.135 . S
O356 Co355 2.061 . S
O356 C359 1.235 . S
C357 O360 1.238 . S
C357 O361 1.241 . S
C358 O351 1.247 . S
C358 O352 1.261 . S
C359 O354 1.259 . S
C359 O356 1.235 . S
O360 Co350 2.021 . S
O360 C357 1.238 . S
O361 Co355 2.052 . S
O361 C357 1.241 . S
O362 Co350 2.137 . S
O362 C353 1.247 . S
O363 Co350 2.244 . S
O363 C353 1.272 . S
O363 Co355 2.135 . S
Co364 O365 2.216 . S
Co364 O366 2.091 . S
Co364 O368 2.004 1_655 S
Co364 O374 2.021 . S
Co364 O376 2.137 . S
Co364 O377 2.244 . S
O365 Co364 2.216 . S
O365 C372 1.247 . S
O366 Co364 2.091 . S
O366 C372 1.261 . S
C367 O376 1.247 . S
C367 O377 1.272 . S
O368 Co364 2.004 1_455 S
O368 C373 1.259 . S
Co369 O370 2.061 . S
Co369 O375 2.052 1_455 S
Co369 O377 2.135 1_455 S
O370 Co369 2.061 . S
O370 C373 1.235 . S
C371 O374 1.238 . S
C371 O375 1.241 . S
C372 O365 1.247 . S
C372 O366 1.261 . S
C373 O368 1.259 . S
C373 O370 1.235 . S
O374 Co364 2.021 . S
O374 C371 1.238 . S
O375 Co369 2.052 1_655 S
O375 C371 1.241 . S
O376 Co364 2.137 . S
O376 C367 1.247 . S
O377 Co364 2.244 . S
O377 C367 1.272 . S
O377 Co369 2.135 1_655 S
Co378 O379 2.216 . S
Co378 O380 2.091 . S
Co378 O382 2.004 . S
Co378 O388 2.021 . S
Co378 O390 2.137 . S
Co378 O391 2.244 . S
O379 Co378 2.216 . S
O379 C386 1.247 . S
O380 Co378 2.091 . S
O380 C386 1.261 . S
C381 O390 1.247 . S
C381 O391 1.272 . S
O382 Co378 2.004 . S
O382 C387 1.259 . S
Co383 O384 2.061 . S
Co383 O389 2.052 . S
Co383 O391 2.135 . S
O384 Co383 2.061 . S
O384 C387 1.235 . S
C385 O388 1.238 . S
C385 O389 1.241 . S
C386 O379 1.247 . S
C386 O380 1.261 . S
C387 O382 1.259 . S
C387 O384 1.235 . S
O388 Co378 2.021 . S
O388 C385 1.238 . S
O389 Co383 2.052 . S
O389 C385 1.241 . S
O390 Co378 2.137 . S
O390 C381 1.247 . S
O391 Co378 2.244 . S
O391 C381 1.272 . S
O391 Co383 2.135 . S
Co392 O393 2.216 . S
Co392 O394 2.091 . S
Co392 O396 2.004 1_455 S
Co392 O402 2.021 . S
Co392 O404 2.137 . S
Co392 O405 2.244 . S
O393 Co392 2.216 . S
O393 C400 1.247 . S
O394 Co392 2.091 . S
O394 C400 1.261 . S
C395 O404 1.247 . S
C395 O405 1.272 . S
O396 Co392 2.004 1_655 S
O396 C401 1.259 . S
Co397 O398 2.061 . S
Co397 O403 2.052 1_655 S
Co397 O405 2.135 1_655 S
O398 Co397 2.061 . S
O398 C401 1.235 . S
C399 O402 1.238 . S
C399 O403 1.241 . S
C400 O393 1.247 . S
C400 O394 1.261 . S
C401 O396 1.259 . S
C401 O398 1.235 . S
O402 Co392 2.021 . S
O402 C399 1.238 . S
O403 Co397 2.052 1_455 S
O403 C399 1.241 . S
O404 Co392 2.137 . S
O404 C395 1.247 . S
O405 Co392 2.244 . S
O405 C395 1.272 . S
O405 Co397 2.135 1_455 S
Co406 O407 2.216 . S
Co406 O408 2.091 . S
Co406 O410 2.004 . S
Co406 O416 2.021 . S
Co406 O418 2.137 . S
Co406 O419 2.244 . S
O407 Co406 2.216 . S
O407 C414 1.247 . S
O408 Co406 2.091 . S
O408 C414 1.261 . S
C409 O418 1.247 . S
C409 O419 1.272 . S
O410 Co406 2.004 . S
O410 C415 1.259 . S
Co411 O412 2.061 . S
Co411 O417 2.052 . S
Co411 O419 2.135 . S
O412 Co411 2.061 . S
O412 C415 1.235 . S
C413 O416 1.238 . S
C413 O417 1.241 . S
C414 O407 1.247 . S
C414 O408 1.261 . S
C415 O410 1.259 . S
C415 O412 1.235 . S
O416 Co406 2.021 . S
O416 C413 1.238 . S
O417 Co411 2.052 . S
O417 C413 1.241 . S
O418 Co406 2.137 . S
O418 C409 1.247 . S
O419 Co406 2.244 . S
O419 C409 1.272 . S
O419 Co411 2.135 . S
Co420 O421 2.216 . S
Co420 O422 2.091 . S
Co420 O424 2.004 1_455 S
Co420 O430 2.021 . S
Co420 O432 2.137 . S
Co420 O433 2.244 . S
O421 Co420 2.216 . S
O421 C428 1.247 . S
O422 Co420 2.091 . S
O422 C428 1.261 . S
C423 O432 1.247 . S
C423 O433 1.272 . S
O424 Co420 2.004 1_655 S
O424 C429 1.259 . S
Co425 O426 2.061 . S
Co425 O431 2.052 1_655 S
Co425 O433 2.135 1_655 S
O426 Co425 2.061 . S
O426 C429 1.235 . S
C427 O430 1.238 . S
C427 O431 1.241 . S
C428 O421 1.247 . S
C428 O422 1.261 . S
C429 O424 1.259 . S
C429 O426 1.235 . S
O430 Co420 2.021 . S
O430 C427 1.238 . S
O431 Co425 2.052 1_455 S
O431 C427 1.241 . S
O432 Co420 2.137 . S
O432 C423 1.247 . S
O433 Co420 2.244 . S
O433 C423 1.272 . S
O433 Co425 2.135 1_455 S
Co434 O435 2.216 . S
Co434 O436 2.091 . S
Co434 O438 2.004 . S
Co434 O444 2.021 . S
Co434 O446 2.137 . S
Co434 O447 2.244 . S
O435 Co434 2.216 . S
O435 C442 1.247 . S
O436 Co434 2.091 . S
O436 C442 1.261 . S
C437 O446 1.247 . S
C437 O447 1.272 . S
O438 Co434 2.004 . S
O438 C443 1.259 . S
Co439 O440 2.061 . S
Co439 O445 2.052 . S
Co439 O447 2.135 . S
O440 Co439 2.061 . S
O440 C443 1.235 . S
C441 O444 1.238 . S
C441 O445 1.241 . S
C442 O435 1.247 . S
C442 O436 1.261 . S
C443 O438 1.259 . S
C443 O440 1.235 . S
O444 Co434 2.021 . S
O444 C441 1.238 . S
O445 Co439 2.052 . S
O445 C441 1.241 . S
O446 Co434 2.137 . S
O446 C437 1.247 . S
O447 Co434 2.244 . S
O447 C437 1.272 . S
O447 Co439 2.135 . S
H448 C454 0.930 . S
H449 C458 0.930 . S
H450 C463 0.929 . S
H451 C461 0.929 . S
H452 C456 0.929 . S
H453 C462 0.929 . S
C454 H448 0.930 . S
C454 C455 1.367 . S
C454 C462 1.378 . S
C455 C454 1.367 . S
C455 C463 1.433 . S
C456 H452 0.929 . S
C456 C458 1.378 . S
C456 C460 1.350 . S
C457 C460 1.463 . S
C457 C462 1.350 . S
C457 N465 1.427 . S
C458 H449 0.930 . S
C458 C456 1.378 . S
C458 C459 1.367 . S
C459 C458 1.367 . S
C459 C461 1.433 . S
C460 C456 1.350 . S
C460 C457 1.463 . S
C460 N464 1.427 . S
C461 H451 0.929 . S
C461 C459 1.433 . S
C461 N464 1.384 . S
C462 H453 0.929 . S
C462 C454 1.378 . S
C462 C457 1.350 . S
C463 H450 0.929 . S
C463 C455 1.433 . S
C463 N465 1.384 . S
N464 C460 1.427 . S
N464 C461 1.384 . S
N465 C457 1.427 . S
N465 C463 1.384 . S
H466 C472 0.930 . S
H467 C476 0.930 . S
H468 C481 0.929 . S
H469 C479 0.929 . S
H470 C474 0.929 . S
H471 C480 0.929 . S
C472 H466 0.930 . S
C472 C473 1.367 . S
C472 C480 1.378 . S
C473 C472 1.367 . S
C473 C481 1.433 . S
C474 H470 0.929 . S
C474 C476 1.378 . S
C474 C478 1.350 . S
C475 C478 1.463 . S
C475 C480 1.350 . S
C475 N483 1.427 . S
C476 H467 0.930 . S
C476 C474 1.378 . S
C476 C477 1.367 . S
C477 C476 1.367 . S
C477 C479 1.433 . S
C478 C474 1.350 . S
C478 C475 1.463 . S
C478 N482 1.427 . S
C479 H469 0.929 . S
C479 C477 1.433 . S
C479 N482 1.384 . S
C480 H471 0.929 . S
C480 C472 1.378 . S
C480 C475 1.350 . S
C481 H468 0.929 . S
C481 C473 1.433 . S
C481 N483 1.384 . S
N482 C478 1.427 . S
N482 C479 1.384 . S
N483 C475 1.427 . S
N483 C481 1.384 . S
H484 C490 0.930 . S
H485 C494 0.930 . S
H486 C499 0.929 . S
H487 C497 0.929 . S
H488 C492 0.929 . S
H489 C498 0.929 . S
C490 H484 0.930 . S
C490 C491 1.367 . S
C490 C498 1.378 . S
C491 C490 1.367 . S
C491 C499 1.433 . S
C492 H488 0.929 . S
C492 C494 1.378 . S
C492 C496 1.350 . S
C493 C496 1.463 . S
C493 C498 1.350 . S
C493 N501 1.427 . S
C494 H485 0.930 . S
C494 C492 1.378 . S
C494 C495 1.367 . S
C495 C494 1.367 . S
C495 C497 1.433 . S
C496 C492 1.350 . S
C496 C493 1.463 . S
C496 N500 1.427 . S
C497 H487 0.929 . S
C497 C495 1.433 . S
C497 N500 1.384 . S
C498 H489 0.929 . S
C498 C490 1.378 . S
C498 C493 1.350 . S
C499 H486 0.929 . S
C499 C491 1.433 . S
C499 N501 1.384 . S
N500 C496 1.427 . S
N500 C497 1.384 . S
N501 C493 1.427 . S
N501 C499 1.384 . S
H502 C508 0.930 . S
H503 C512 0.930 . S
H504 C517 0.929 . S
H505 C515 0.929 . S
H506 C510 0.929 . S
H507 C516 0.929 . S
C508 H502 0.930 . S
C508 C509 1.367 . S
C508 C516 1.378 . S
C509 C508 1.367 . S
C509 C517 1.433 . S
C510 H506 0.929 . S
C510 C512 1.378 . S
C510 C514 1.350 . S
C511 C514 1.463 . S
C511 C516 1.350 . S
C511 N519 1.427 . S
C512 H503 0.930 . S
C512 C510 1.378 . S
C512 C513 1.367 . S
C513 C512 1.367 . S
C513 C515 1.433 . S
C514 C510 1.350 . S
C514 C511 1.463 . S
C514 N518 1.427 . S
C515 H505 0.929 . S
C515 C513 1.433 . S
C515 N518 1.384 . S
C516 H507 0.929 . S
C516 C508 1.378 . S
C516 C511 1.350 . S
C517 H504 0.929 . S
C517 C509 1.433 . S
C517 N519 1.384 . S
N518 C514 1.427 . S
N518 C515 1.384 . S
N519 C511 1.427 . S
N519 C517 1.384 . S
H520 C526 0.930 . S
H521 C530 0.930 . S
H522 C535 0.929 . S
H523 C533 0.929 . S
H524 C528 0.929 . S
H525 C534 0.929 . S
C526 H520 0.930 . S
C526 C527 1.367 . S
C526 C534 1.378 . S
C527 C526 1.367 . S
C527 C535 1.433 . S
C528 H524 0.929 . S
C528 C530 1.378 . S
C528 C532 1.350 . S
C529 C532 1.463 . S
C529 C534 1.350 . S
C529 N537 1.427 . S
C530 H521 0.930 . S
C530 C528 1.378 . S
C530 C531 1.367 . S
C531 C530 1.367 . S
C531 C533 1.433 . S
C532 C528 1.350 . S
C532 C529 1.463 . S
C532 N536 1.427 . S
C533 H523 0.929 . S
C533 C531 1.433 . S
C533 N536 1.384 . S
C534 H525 0.929 . S
C534 C526 1.378 . S
C534 C529 1.350 . S
C535 H522 0.929 . S
C535 C527 1.433 . S
C535 N537 1.384 . S
N536 C532 1.427 . S
N536 C533 1.384 . S
N537 C529 1.427 . S
N537 C535 1.384 . S
H538 C544 0.930 . S
H539 C548 0.930 . S
H540 C553 0.929 . S
H541 C551 0.929 . S
H542 C546 0.929 . S
H543 C552 0.929 . S
C544 H538 0.930 . S
C544 C545 1.367 . S
C544 C552 1.378 . S
C545 C544 1.367 . S
C545 C553 1.433 . S
C546 H542 0.929 . S
C546 C548 1.378 . S
C546 C550 1.350 . S
C547 C550 1.463 . S
C547 C552 1.350 . S
C547 N555 1.427 . S
C548 H539 0.930 . S
C548 C546 1.378 . S
C548 C549 1.367 . S
C549 C548 1.367 . S
C549 C551 1.433 . S
C550 C546 1.350 . S
C550 C547 1.463 . S
C550 N554 1.427 . S
C551 H541 0.929 . S
C551 C549 1.433 . S
C551 N554 1.384 . S
C552 H543 0.929 . S
C552 C544 1.378 . S
C552 C547 1.350 . S
C553 H540 0.929 . S
C553 C545 1.433 . S
C553 N555 1.384 . S
N554 C550 1.427 . S
N554 C551 1.384 . S
N555 C547 1.427 . S
N555 C553 1.384 . S
H556 C562 0.930 . S
H557 C566 0.930 . S
H558 C571 0.929 . S
H559 C569 0.929 . S
H560 C564 0.929 . S
H561 C570 0.929 . S
C562 H556 0.930 . S
C562 C563 1.367 . S
C562 C570 1.378 . S
C563 C562 1.367 . S
C563 C571 1.433 . S
C564 H560 0.929 . S
C564 C566 1.378 . S
C564 C568 1.350 . S
C565 C568 1.463 . S
C565 C570 1.350 . S
C565 N573 1.427 . S
C566 H557 0.930 . S
C566 C564 1.378 . S
C566 C567 1.367 . S
C567 C566 1.367 . S
C567 C569 1.433 . S
C568 C564 1.350 . S
C568 C565 1.463 . S
C568 N572 1.427 . S
C569 H559 0.929 . S
C569 C567 1.433 . S
C569 N572 1.384 . S
C570 H561 0.929 . S
C570 C562 1.378 . S
C570 C565 1.350 . S
C571 H558 0.929 . S
C571 C563 1.433 . S
C571 N573 1.384 . S
N572 C568 1.427 . S
N572 C569 1.384 . S
N573 C565 1.427 . S
N573 C571 1.384 . S
H574 C580 0.930 . S
H575 C584 0.930 . S
H576 C589 0.929 . S
H577 C587 0.929 . S
H578 C582 0.929 . S
H579 C588 0.929 . S
C580 H574 0.930 . S
C580 C581 1.367 . S
C580 C588 1.378 . S
C581 C580 1.367 . S
C581 C589 1.433 . S
C582 H578 0.929 . S
C582 C584 1.378 . S
C582 C586 1.350 . S
C583 C586 1.463 . S
C583 C588 1.350 . S
C583 N591 1.427 . S
C584 H575 0.930 . S
C584 C582 1.378 . S
C584 C585 1.367 . S
C585 C584 1.367 . S
C585 C587 1.433 . S
C586 C582 1.350 . S
C586 C583 1.463 . S
C586 N590 1.427 . S
C587 H577 0.929 . S
C587 C585 1.433 . S
C587 N590 1.384 . S
C588 H579 0.929 . S
C588 C580 1.378 . S
C588 C583 1.350 . S
C589 H576 0.929 . S
C589 C581 1.433 . S
C589 N591 1.384 . S
N590 C586 1.427 . S
N590 C587 1.384 . S
N591 C583 1.427 . S
N591 C589 1.384 . S
H592 C598 0.930 . S
H593 C602 0.930 . S
H594 C607 0.929 . S
H595 C605 0.929 . S
H596 C600 0.929 . S
H597 C606 0.929 . S
C598 H592 0.930 . S
C598 C599 1.367 . S
C598 C606 1.378 . S
C599 C598 1.367 . S
C599 C607 1.433 . S
C600 H596 0.929 . S
C600 C602 1.378 . S
C600 C604 1.350 . S
C601 C604 1.463 . S
C601 C606 1.350 . S
C601 N609 1.427 . S
C602 H593 0.930 . S
C602 C600 1.378 . S
C602 C603 1.367 . S
C603 C602 1.367 . S
C603 C605 1.433 . S
C604 C600 1.350 . S
C604 C601 1.463 . S
C604 N608 1.427 . S
C605 H595 0.929 . S
C605 C603 1.433 . S
C605 N608 1.384 . S
C606 H597 0.929 . S
C606 C598 1.378 . S
C606 C601 1.350 . S
C607 H594 0.929 . S
C607 C599 1.433 . S
C607 N609 1.384 . S
N608 C604 1.427 . S
N608 C605 1.384 . S
N609 C601 1.427 . S
N609 C607 1.384 . S
H610 C616 0.930 . S
H611 C620 0.930 . S
H612 C625 0.929 . S
H613 C623 0.929 . S
H614 C618 0.929 . S
H615 C624 0.929 . S
C616 H610 0.930 . S
C616 C617 1.367 . S
C616 C624 1.378 . S
C617 C616 1.367 . S
C617 C625 1.433 . S
C618 H614 0.929 . S
C618 C620 1.378 . S
C618 C622 1.350 . S
C619 C622 1.463 . S
C619 C624 1.350 . S
C619 N627 1.427 . S
C620 H611 0.930 . S
C620 C618 1.378 . S
C620 C621 1.367 . S
C621 C620 1.367 . S
C621 C623 1.433 . S
C622 C618 1.350 . S
C622 C619 1.463 . S
C622 N626 1.427 . S
C623 H613 0.929 . S
C623 C621 1.433 . S
C623 N626 1.384 . S
C624 H615 0.929 . S
C624 C616 1.378 . S
C624 C619 1.350 . S
C625 H612 0.929 . S
C625 C617 1.433 . S
C625 N627 1.384 . S
N626 C622 1.427 . S
N626 C623 1.384 . S
N627 C619 1.427 . S
N627 C625 1.384 . S
H628 C634 0.930 1_655 S
H629 C638 0.930 . S
H630 C643 0.929 . S
H631 C641 0.929 1_655 S
H632 C636 0.929 . S
H633 C642 0.929 1_655 S
C634 H628 0.930 1_455 S
C634 C635 1.367 . S
C634 C642 1.378 . S
C635 C634 1.367 . S
C635 C643 1.433 . S
C636 H632 0.929 . S
C636 C638 1.378 . S
C636 C640 1.350 . S
C637 C640 1.463 . S
C637 C642 1.350 . S
C637 N645 1.427 . S
C638 H629 0.930 . S
C638 C636 1.378 . S
C638 C639 1.367 . S
C639 C638 1.367 . S
C639 C641 1.433 . S
C640 C636 1.350 . S
C640 C637 1.463 . S
C640 N644 1.427 . S
C641 H631 0.929 1_455 S
C641 C639 1.433 . S
C641 N644 1.384 . S
C642 H633 0.929 1_455 S
C642 C634 1.378 . S
C642 C637 1.350 . S
C643 H630 0.929 . S
C643 C635 1.433 . S
C643 N645 1.384 . S
N644 C640 1.427 . S
N644 C641 1.384 . S
N645 C637 1.427 . S
N645 C643 1.384 . S
H646 C652 0.930 . S
H647 C656 0.930 . S
H648 C661 0.929 . S
H649 C659 0.929 . S
H650 C654 0.929 . S
H651 C660 0.929 . S
C652 H646 0.930 . S
C652 C653 1.367 . S
C652 C660 1.378 . S
C653 C652 1.367 . S
C653 C661 1.433 . S
C654 H650 0.929 . S
C654 C656 1.378 . S
C654 C658 1.350 . S
C655 C658 1.463 . S
C655 C660 1.350 . S
C655 N663 1.427 . S
C656 H647 0.930 . S
C656 C654 1.378 . S
C656 C657 1.367 . S
C657 C656 1.367 . S
C657 C659 1.433 . S
C658 C654 1.350 . S
C658 C655 1.463 . S
C658 N662 1.427 . S
C659 H649 0.929 . S
C659 C657 1.433 . S
C659 N662 1.384 . S
C660 H651 0.929 . S
C660 C652 1.378 . S
C660 C655 1.350 . S
C661 H648 0.929 . S
C661 C653 1.433 . S
C661 N663 1.384 . S
N662 C658 1.427 . S
N662 C659 1.384 . S
N663 C655 1.427 . S
N663 C661 1.384 . S
H664 C670 0.930 . S
H665 C674 0.930 . S
H666 C679 0.929 . S
H667 C677 0.929 . S
H668 C672 0.929 . S
H669 C678 0.929 . S
C670 H664 0.930 . S
C670 C671 1.367 . S
C670 C678 1.378 . S
C671 C670 1.367 . S
C671 C679 1.433 . S
C672 H668 0.929 . S
C672 C674 1.378 . S
C672 C676 1.350 . S
C673 C676 1.463 . S
C673 C678 1.350 . S
C673 N681 1.427 . S
C674 H665 0.930 . S
C674 C672 1.378 . S
C674 C675 1.367 . S
C675 C674 1.367 . S
C675 C677 1.433 . S
C676 C672 1.350 . S
C676 C673 1.463 . S
C676 N680 1.427 . S
C677 H667 0.929 . S
C677 C675 1.433 . S
C677 N680 1.384 . S
C678 H669 0.929 . S
C678 C670 1.378 . S
C678 C673 1.350 . S
C679 H666 0.929 . S
C679 C671 1.433 . S
C679 N681 1.384 . S
N680 C676 1.427 . S
N680 C677 1.384 . S
N681 C673 1.427 . S
N681 C679 1.384 . S
H682 C688 0.930 . S
H683 C692 0.930 . S
H684 C697 0.929 . S
H685 C695 0.929 . S
H686 C690 0.929 . S
H687 C696 0.929 . S
C688 H682 0.930 . S
C688 C689 1.367 . S
C688 C696 1.378 . S
C689 C688 1.367 . S
C689 C697 1.433 . S
C690 H686 0.929 . S
C690 C692 1.378 . S
C690 C694 1.350 . S
C691 C694 1.463 . S
C691 C696 1.350 . S
C691 N699 1.427 . S
C692 H683 0.930 . S
C692 C690 1.378 . S
C692 C693 1.367 . S
C693 C692 1.367 . S
C693 C695 1.433 . S
C694 C690 1.350 . S
C694 C691 1.463 . S
C694 N698 1.427 . S
C695 H685 0.929 . S
C695 C693 1.433 . S
C695 N698 1.384 . S
C696 H687 0.929 . S
C696 C688 1.378 . S
C696 C691 1.350 . S
C697 H684 0.929 . S
C697 C689 1.433 . S
C697 N699 1.384 . S
N698 C694 1.427 . S
N698 C695 1.384 . S
N699 C691 1.427 . S
N699 C697 1.384 . S
H700 C706 0.930 . S
H701 C710 0.930 . S
H702 C715 0.927 . S
H703 C713 0.929 . S
H704 C708 0.929 . S
H705 C714 0.929 . S
C706 H700 0.930 . S
C706 C707 1.367 . S
C706 C714 1.378 . S
C707 C706 1.367 . S
C707 C715 1.433 . S
C708 H704 0.929 . S
C708 C710 1.378 . S
C708 C712 1.350 . S
C709 C712 1.463 . S
C709 C714 1.350 . S
C709 N717 1.427 . S
C710 H701 0.930 . S
C710 C708 1.378 . S
C710 C711 1.367 . S
C711 C710 1.367 . S
C711 C713 1.433 . S
C712 C708 1.350 . S
C712 C709 1.463 . S
C712 N716 1.427 . S
C713 H703 0.929 . S
C713 C711 1.433 . S
C713 N716 1.384 . S
C714 H705 0.929 . S
C714 C706 1.378 . S
C714 C709 1.350 . S
C715 H702 0.927 . S
C715 C707 1.433 . S
C715 N717 1.384 . S
N716 C712 1.427 . S
N716 C713 1.384 . S
N717 C709 1.427 . S
N717 C715 1.384 . S
H718 C724 0.930 . S
H719 C728 0.930 . S
H720 C733 0.929 . S
H721 C731 0.929 . S
H722 C726 0.929 . S
H723 C732 0.929 . S
C724 H718 0.930 . S
C724 C725 1.367 . S
C724 C732 1.378 . S
C725 C724 1.367 . S
C725 C733 1.433 . S
C726 H722 0.929 . S
C726 C728 1.378 . S
C726 C730 1.350 . S
C727 C730 1.463 . S
C727 C732 1.350 . S
C727 N735 1.427 . S
C728 H719 0.930 . S
C728 C726 1.378 . S
C728 C729 1.367 . S
C729 C728 1.367 . S
C729 C731 1.433 . S
C730 C726 1.350 . S
C730 C727 1.463 . S
C730 N734 1.427 . S
C731 H721 0.929 . S
C731 C729 1.433 . S
C731 N734 1.384 . S
C732 H723 0.929 . S
C732 C724 1.378 . S
C732 C727 1.350 . S
C733 H720 0.929 . S
C733 C725 1.433 . S
C733 N735 1.384 . S
N734 C730 1.427 . S
N734 C731 1.384 . S
N735 C727 1.427 . S
N735 C733 1.384 . S
H736 C742 0.930 . S
H737 C746 0.930 . S
H738 C751 0.929 . S
H739 C749 0.929 . S
H740 C744 0.929 . S
H741 C750 0.929 . S
C742 H736 0.930 . S
C742 C743 1.367 . S
C742 C750 1.378 . S
C743 C742 1.367 . S
C743 C751 1.433 . S
C744 H740 0.929 . S
C744 C746 1.378 . S
C744 C748 1.350 . S
C745 C748 1.463 . S
C745 C750 1.350 . S
C745 N753 1.427 . S
C746 H737 0.930 . S
C746 C744 1.378 . S
C746 C747 1.367 . S
C747 C746 1.367 . S
C747 C749 1.433 . S
C748 C744 1.350 . S
C748 C745 1.463 . S
C748 N752 1.427 . S
C749 H739 0.929 . S
C749 C747 1.433 . S
C749 N752 1.384 . S
C750 H741 0.929 . S
C750 C742 1.378 . S
C750 C745 1.350 . S
C751 H738 0.929 . S
C751 C743 1.433 . S
C751 N753 1.384 . S
N752 C748 1.427 . S
N752 C749 1.384 . S
N753 C745 1.427 . S
N753 C751 1.384 . S
H754 C760 0.930 . S
H755 C764 0.930 . S
H756 C769 0.929 . S
H757 C767 0.929 . S
H758 C762 0.929 . S
H759 C768 0.929 . S
C760 H754 0.930 . S
C760 C761 1.367 . S
C760 C768 1.378 . S
C761 C760 1.367 . S
C761 C769 1.433 . S
C762 H758 0.929 . S
C762 C764 1.378 . S
C762 C766 1.350 . S
C763 C766 1.463 . S
C763 C768 1.350 . S
C763 N771 1.427 . S
C764 H755 0.930 . S
C764 C762 1.378 . S
C764 C765 1.367 . S
C765 C764 1.367 . S
C765 C767 1.433 . S
C766 C762 1.350 . S
C766 C763 1.463 . S
C766 N770 1.427 . S
C767 H757 0.929 . S
C767 C765 1.433 . S
C767 N770 1.384 . S
C768 H759 0.929 . S
C768 C760 1.378 . S
C768 C763 1.350 . S
C769 H756 0.929 . S
C769 C761 1.433 . S
C769 N771 1.384 . S
N770 C766 1.427 . S
N770 C767 1.384 . S
N771 C763 1.427 . S
N771 C769 1.384 . S
H772 C778 0.930 . S
H773 C782 0.930 . S
H774 C787 0.929 . S
H775 C785 0.929 . S
H776 C780 0.929 . S
H777 C786 0.929 . S
C778 H772 0.930 . S
C778 C779 1.367 . S
C778 C786 1.378 . S
C779 C778 1.367 . S
C779 C787 1.433 . S
C780 H776 0.929 . S
C780 C782 1.378 . S
C780 C784 1.350 . S
C781 C784 1.463 . S
C781 C786 1.350 . S
C781 N789 1.427 . S
C782 H773 0.930 . S
C782 C780 1.378 . S
C782 C783 1.367 . S
C783 C782 1.367 . S
C783 C785 1.433 . S
C784 C780 1.350 . S
C784 C781 1.463 . S
C784 N788 1.427 . S
C785 H775 0.929 . S
C785 C783 1.433 . S
C785 N788 1.384 . S
C786 H777 0.929 . S
C786 C778 1.378 . S
C786 C781 1.350 . S
C787 H774 0.929 . S
C787 C779 1.433 . S
C787 N789 1.384 . S
N788 C784 1.427 . S
N788 C785 1.384 . S
N789 C781 1.427 . S
N789 C787 1.384 . S
H790 C796 0.930 1_545 S
H791 C800 0.930 . S
H792 C805 0.929 . S
H793 C803 0.929 . S
H794 C798 0.929 . S
H795 C804 0.929 . S
C796 H790 0.930 1_565 S
C796 C797 1.367 . S
C796 C804 1.378 . S
C797 C796 1.367 . S
C797 C805 1.433 . S
C798 H794 0.929 . S
C798 C800 1.378 . S
C798 C802 1.350 . S
C799 C802 1.463 . S
C799 C804 1.350 . S
C799 N807 1.427 . S
C800 H791 0.930 . S
C800 C798 1.378 . S
C800 C801 1.367 . S
C801 C800 1.367 . S
C801 C803 1.433 . S
C802 C798 1.350 . S
C802 C799 1.463 . S
C802 N806 1.427 . S
C803 H793 0.929 . S
C803 C801 1.433 . S
C803 N806 1.384 . S
C804 H795 0.929 . S
C804 C796 1.378 . S
C804 C799 1.350 . S
C805 H792 0.929 . S
C805 C797 1.433 . S
C805 N807 1.384 . S
N806 C802 1.427 . S
N806 C803 1.384 . S
N807 C799 1.427 . S
N807 C805 1.384 . S
H808 C814 0.930 . S
H809 C818 0.930 . S
H810 C823 0.929 . S
H811 C821 0.929 . S
H812 C816 0.929 . S
H813 C822 0.929 . S
C814 H808 0.930 . S
C814 C815 1.367 . S
C814 C822 1.378 . S
C815 C814 1.367 . S
C815 C823 1.433 . S
C816 H812 0.929 . S
C816 C818 1.378 . S
C816 C820 1.350 . S
C817 C820 1.463 . S
C817 C822 1.350 . S
C817 N825 1.427 . S
C818 H809 0.930 . S
C818 C816 1.378 . S
C818 C819 1.367 . S
C819 C818 1.367 . S
C819 C821 1.433 . S
C820 C816 1.350 . S
C820 C817 1.463 . S
C820 N824 1.427 . S
C821 H811 0.929 . S
C821 C819 1.433 . S
C821 N824 1.384 . S
C822 H813 0.929 . S
C822 C814 1.378 . S
C822 C817 1.350 . S
C823 H810 0.929 . S
C823 C815 1.433 . S
C823 N825 1.384 . S
N824 C820 1.427 . S
N824 C821 1.384 . S
N825 C817 1.427 . S
N825 C823 1.384 . S
H826 C832 0.930 . S
H827 C836 0.930 . S
H828 C841 0.929 . S
H829 C839 0.929 . S
H830 C834 0.929 . S
H831 C840 0.929 . S
C832 H826 0.930 . S
C832 C833 1.367 . S
C832 C840 1.378 . S
C833 C832 1.367 . S
C833 C841 1.433 . S
C834 H830 0.929 . S
C834 C836 1.378 . S
C834 C838 1.350 . S
C835 C838 1.463 . S
C835 C840 1.350 . S
C835 N843 1.427 . S
C836 H827 0.930 . S
C836 C834 1.378 . S
C836 C837 1.367 . S
C837 C836 1.367 . S
C837 C839 1.433 . S
C838 C834 1.350 . S
C838 C835 1.463 . S
C838 N842 1.427 . S
C839 H829 0.929 . S
C839 C837 1.433 . S
C839 N842 1.384 . S
C840 H831 0.929 . S
C840 C832 1.378 . S
C840 C835 1.350 . S
C841 H828 0.929 . S
C841 C833 1.433 . S
C841 N843 1.384 . S
N842 C838 1.427 . S
N842 C839 1.384 . S
N843 C835 1.427 . S
N843 C841 1.384 . S
H844 C850 0.930 . S
H845 C854 0.930 . S
H846 C859 0.929 . S
H847 C857 0.929 . S
H848 C852 0.929 . S
H849 C858 0.929 . S
C850 H844 0.930 . S
C850 C851 1.367 . S
C850 C858 1.378 . S
C851 C850 1.367 . S
C851 C859 1.433 . S
C852 H848 0.929 . S
C852 C854 1.378 . S
C852 C856 1.350 . S
C853 C856 1.463 . S
C853 C858 1.350 . S
C853 N861 1.427 . S
C854 H845 0.930 . S
C854 C852 1.378 . S
C854 C855 1.367 . S
C855 C854 1.367 . S
C855 C857 1.433 . S
C856 C852 1.350 . S
C856 C853 1.463 . S
C856 N860 1.427 . S
C857 H847 0.929 . S
C857 C855 1.433 . S
C857 N860 1.384 . S
C858 H849 0.929 . S
C858 C850 1.378 . S
C858 C853 1.350 . S
C859 H846 0.929 . S
C859 C851 1.433 . S
C859 N861 1.384 . S
N860 C856 1.427 . S
N860 C857 1.384 . S
N861 C853 1.427 . S
N861 C859 1.384 . S
H862 C868 0.930 . S
H863 C872 0.930 1_565 S
H864 C877 0.929 . S
H865 C875 0.929 . S
H866 C870 0.929 . S
H867 C876 0.929 . S
C868 H862 0.930 . S
C868 C869 1.367 . S
C868 C876 1.378 . S
C869 C868 1.367 . S
C869 C877 1.433 . S
C870 H866 0.929 . S
C870 C872 1.378 . S
C870 C874 1.350 . S
C871 C874 1.463 . S
C871 C876 1.350 . S
C871 N879 1.427 . S
C872 H863 0.930 1_545 S
C872 C870 1.378 . S
C872 C873 1.367 . S
C873 C872 1.367 . S
C873 C875 1.433 . S
C874 C870 1.350 . S
C874 C871 1.463 . S
C874 N878 1.427 . S
C875 H865 0.929 . S
C875 C873 1.433 . S
C875 N878 1.384 . S
C876 H867 0.929 . S
C876 C868 1.378 . S
C876 C871 1.350 . S
C877 H864 0.929 . S
C877 C869 1.433 . S
C877 N879 1.384 . S
N878 C874 1.427 . S
N878 C875 1.384 . S
N879 C871 1.427 . S
N879 C877 1.384 . S
H880 C886 0.930 . S
H881 C890 0.930 . S
H882 C895 0.929 . S
H883 C893 0.929 . S
H884 C888 0.929 . S
H885 C894 0.929 . S
C886 H880 0.930 . S
C886 C887 1.367 . S
C886 C894 1.378 . S
C887 C886 1.367 . S
C887 C895 1.433 . S
C888 H884 0.929 . S
C888 C890 1.378 . S
C888 C892 1.350 . S
C889 C892 1.463 . S
C889 C894 1.350 . S
C889 N897 1.427 . S
C890 H881 0.930 . S
C890 C888 1.378 . S
C890 C891 1.367 . S
C891 C890 1.367 . S
C891 C893 1.433 . S
C892 C888 1.350 . S
C892 C889 1.463 . S
C892 N896 1.427 . S
C893 H883 0.929 . S
C893 C891 1.433 . S
C893 N896 1.384 . S
C894 H885 0.929 . S
C894 C886 1.378 . S
C894 C889 1.350 . S
C895 H882 0.929 . S
C895 C887 1.433 . S
C895 N897 1.384 . S
N896 C892 1.427 . S
N896 C893 1.384 . S
N897 C889 1.427 . S
N897 C895 1.384 . S
H898 C904 0.930 . S
H899 C908 0.930 . S
H900 C913 0.929 . S
H901 C911 0.929 . S
H902 C906 0.929 . S
H903 C912 0.929 . S
C904 H898 0.930 . S
C904 C905 1.367 . S
C904 C912 1.378 . S
C905 C904 1.367 . S
C905 C913 1.433 . S
C906 H902 0.929 . S
C906 C908 1.378 . S
C906 C910 1.350 . S
C907 C910 1.463 . S
C907 C912 1.350 . S
C907 N915 1.427 . S
C908 H899 0.930 . S
C908 C906 1.378 . S
C908 C909 1.367 . S
C909 C908 1.367 . S
C909 C911 1.433 . S
C910 C906 1.350 . S
C910 C907 1.463 . S
C910 N914 1.427 . S
C911 H901 0.929 . S
C911 C909 1.433 . S
C911 N914 1.384 . S
C912 H903 0.929 . S
C912 C904 1.378 . S
C912 C907 1.350 . S
C913 H900 0.929 . S
C913 C905 1.433 . S
C913 N915 1.384 . S
N914 C910 1.427 . S
N914 C911 1.384 . S
N915 C907 1.427 . S
N915 C913 1.384 . S
H916 C922 0.930 . S
H917 C926 0.930 . S
H918 C931 0.929 . S
H919 C929 0.929 1_545 S
H920 C924 0.929 . S
H921 C930 0.929 . S
C922 H916 0.930 . S
C922 C923 1.367 . S
C922 C930 1.378 . S
C923 C922 1.367 . S
C923 C931 1.433 . S
C924 H920 0.929 . S
C924 C926 1.378 . S
C924 C928 1.350 . S
C925 C928 1.463 . S
C925 C930 1.350 . S
C925 N933 1.427 . S
C926 H917 0.930 . S
C926 C924 1.378 . S
C926 C927 1.367 . S
C927 C926 1.367 . S
C927 C929 1.433 . S
C928 C924 1.350 . S
C928 C925 1.463 . S
C928 N932 1.427 . S
C929 H919 0.929 1_565 S
C929 C927 1.433 . S
C929 N932 1.384 . S
C930 H921 0.929 . S
C930 C922 1.378 . S
C930 C925 1.350 . S
C931 H918 0.929 . S
C931 C923 1.433 . S
C931 N933 1.384 . S
N932 C928 1.427 . S
N932 C929 1.384 . S
N933 C925 1.427 . S
N933 C931 1.384 . S
H934 C940 0.930 . S
H935 C944 0.930 . S
H936 C949 0.929 . S
H937 C947 0.929 . S
H938 C942 0.929 . S
H939 C948 0.929 . S
C940 H934 0.930 . S
C940 C941 1.367 . S
C940 C948 1.378 . S
C941 C940 1.367 . S
C941 C949 1.433 . S
C942 H938 0.929 . S
C942 C944 1.378 . S
C942 C946 1.350 . S
C943 C946 1.463 . S
C943 C948 1.350 . S
C943 N951 1.427 . S
C944 H935 0.930 . S
C944 C942 1.378 . S
C944 C945 1.367 . S
C945 C944 1.367 . S
C945 C947 1.433 . S
C946 C942 1.350 . S
C946 C943 1.463 . S
C946 N950 1.427 . S
C947 H937 0.929 . S
C947 C945 1.433 . S
C947 N950 1.384 . S
C948 H939 0.929 . S
C948 C940 1.378 . S
C948 C943 1.350 . S
C949 H936 0.929 . S
C949 C941 1.433 . S
C949 N951 1.384 . S
N950 C946 1.427 . S
N950 C947 1.384 . S
N951 C943 1.427 . S
N951 C949 1.384 . S
H952 C958 0.930 . S
H953 C962 0.930 . S
H954 C967 0.929 . S
H955 C965 0.929 . S
H956 C960 0.929 . S
H957 C966 0.929 . S
C958 H952 0.930 . S
C958 C959 1.367 . S
C958 C966 1.378 . S
C959 C958 1.367 . S
C959 C967 1.433 . S
C960 H956 0.929 . S
C960 C962 1.378 . S
C960 C964 1.350 . S
C961 C964 1.463 . S
C961 C966 1.350 . S
C961 N969 1.427 . S
C962 H953 0.930 . S
C962 C960 1.378 . S
C962 C963 1.367 . S
C963 C962 1.367 . S
C963 C965 1.433 . S
C964 C960 1.350 . S
C964 C961 1.463 . S
C964 N968 1.427 . S
C965 H955 0.929 . S
C965 C963 1.433 . S
C965 N968 1.384 . S
C966 H957 0.929 . S
C966 C958 1.378 . S
C966 C961 1.350 . S
C967 H954 0.929 . S
C967 C959 1.433 . S
C967 N969 1.384 . S
N968 C964 1.427 . S
N968 C965 1.384 . S
N969 C961 1.427 . S
N969 C967 1.384 . S
H970 C976 0.930 . S
H971 C980 0.930 . S
H972 C985 0.929 . S
H973 C983 0.929 . S
H974 C978 0.929 . S
H975 C984 0.929 . S
C976 H970 0.930 . S
C976 C977 1.367 . S
C976 C984 1.378 . S
C977 C976 1.367 . S
C977 C985 1.433 . S
C978 H974 0.929 . S
C978 C980 1.378 . S
C978 C982 1.350 . S
C979 C982 1.463 . S
C979 C984 1.350 . S
C979 N987 1.427 . S
C980 H971 0.930 . S
C980 C978 1.378 . S
C980 C981 1.367 . S
C981 C980 1.367 . S
C981 C983 1.433 . S
C982 C978 1.350 . S
C982 C979 1.463 . S
C982 N986 1.427 . S
C983 H973 0.929 . S
C983 C981 1.433 . S
C983 N986 1.384 . S
C984 H975 0.929 . S
C984 C976 1.378 . S
C984 C979 1.350 . S
C985 H972 0.929 . S
C985 C977 1.433 . S
C985 N987 1.384 . S
N986 C982 1.427 . S
N986 C983 1.384 . S
N987 C979 1.427 . S
N987 C985 1.384 . S
H988 C994 0.930 . S
H989 C998 0.930 . S
H990 C1003 0.929 . S
H991 C1001 0.929 . S
H992 C996 0.929 . S
H993 C1002 0.929 . S
C994 H988 0.930 . S
C994 C995 1.367 . S
C994 C1002 1.378 . S
C995 C994 1.367 . S
C995 C1003 1.433 . S
C996 H992 0.929 . S
C996 C998 1.378 . S
C996 C1000 1.350 . S
C997 C1000 1.463 . S
C997 C1002 1.350 . S
C997 N1005 1.427 . S
C998 H989 0.930 . S
C998 C996 1.378 . S
C998 C999 1.367 . S
C999 C998 1.367 . S
C999 C1001 1.433 . S
C1000 C996 1.350 . S
C1000 C997 1.463 . S
C1000 N1004 1.427 . S
C1001 H991 0.929 . S
C1001 C999 1.433 . S
C1001 N1004 1.384 . S
C1002 H993 0.929 . S
C1002 C994 1.378 . S
C1002 C997 1.350 . S
C1003 H990 0.929 . S
C1003 C995 1.433 . S
C1003 N1005 1.384 . S
N1004 C1000 1.427 . S
N1004 C1001 1.384 . S
N1005 C997 1.427 . S
N1005 C1003 1.384 . S
H1006 C1012 0.930 . S
H1007 C1016 0.930 . S
H1008 C1021 0.929 . S
H1009 C1019 0.929 . S
H1010 C1014 0.929 . S
H1011 C1020 0.929 . S
C1012 H1006 0.930 . S
C1012 C1013 1.367 . S
C1012 C1020 1.378 . S
C1013 C1012 1.367 . S
C1013 C1021 1.433 . S
C1014 H1010 0.929 . S
C1014 C1016 1.378 . S
C1014 C1018 1.350 . S
C1015 C1018 1.463 . S
C1015 C1020 1.350 . S
C1015 N1023 1.427 . S
C1016 H1007 0.930 . S
C1016 C1014 1.378 . S
C1016 C1017 1.367 . S
C1017 C1016 1.367 . S
C1017 C1019 1.433 . S
C1018 C1014 1.350 . S
C1018 C1015 1.463 . S
C1018 N1022 1.427 . S
C1019 H1009 0.929 . S
C1019 C1017 1.433 . S
C1019 N1022 1.384 . S
C1020 H1011 0.929 . S
C1020 C1012 1.378 . S
C1020 C1015 1.350 . S
C1021 H1008 0.929 . S
C1021 C1013 1.433 . S
C1021 N1023 1.384 . S
N1022 C1018 1.427 . S
N1022 C1019 1.384 . S
N1023 C1015 1.427 . S
N1023 C1021 1.384 . S
H1024 C1030 0.930 . S
H1025 C1034 0.930 . S
H1026 C1039 0.929 1_565 S
H1027 C1037 0.929 1_545 S
H1028 C1032 0.929 . S
H1029 C1038 0.929 . S
C1030 H1024 0.930 . S
C1030 C1031 1.367 . S
C1030 C1038 1.378 . S
C1031 C1030 1.367 . S
C1031 C1039 1.433 . S
C1032 H1028 0.929 . S
C1032 C1034 1.378 . S
C1032 C1036 1.350 . S
C1033 C1036 1.463 1_544 S
C1033 C1038 1.350 . S
C1033 N1041 1.427 1_545 S
C1034 H1025 0.930 . S
C1034 C1032 1.378 . S
C1034 C1035 1.367 . S
C1035 C1034 1.367 . S
C1035 C1037 1.433 . S
C1036 C1032 1.350 . S
C1036 C1033 1.463 1_566 S
C1036 N1040 1.427 1_565 S
C1037 H1027 0.929 1_565 S
C1037 C1035 1.433 . S
C1037 N1040 1.384 1_565 S
C1038 H1029 0.929 . S
C1038 C1030 1.378 . S
C1038 C1033 1.350 . S
C1039 H1026 0.929 1_545 S
C1039 C1031 1.433 . S
C1039 N1041 1.384 1_545 S
N1040 C1036 1.427 1_545 S
N1040 C1037 1.384 1_545 S
N1041 C1033 1.427 1_565 S
N1041 C1039 1.384 1_565 S
H1042 C1048 0.930 . S
H1043 C1052 0.930 . S
H1044 C1057 0.929 . S
H1045 C1055 0.929 . S
H1046 C1050 0.929 1_554 S
H1047 C1056 0.929 1_556 S
C1048 H1042 0.930 . S
C1048 C1049 1.367 . S
C1048 C1056 1.378 . S
C1049 C1048 1.367 . S
C1049 C1057 1.433 . S
C1050 H1046 0.929 1_556 S
C1050 C1052 1.378 . S
C1050 C1054 1.350 . S
C1051 C1054 1.463 1_554 S
C1051 C1056 1.350 . S
C1051 N1059 1.427 . S
C1052 H1043 0.930 . S
C1052 C1050 1.378 . S
C1052 C1053 1.367 . S
C1053 C1052 1.367 . S
C1053 C1055 1.433 . S
C1054 C1050 1.350 . S
C1054 C1051 1.463 1_556 S
C1054 N1058 1.427 . S
C1055 H1045 0.929 . S
C1055 C1053 1.433 . S
C1055 N1058 1.384 . S
C1056 H1047 0.929 1_554 S
C1056 C1048 1.378 . S
C1056 C1051 1.350 . S
C1057 H1044 0.929 . S
C1057 C1049 1.433 . S
C1057 N1059 1.384 . S
N1058 C1054 1.427 . S
N1058 C1055 1.384 . S
N1059 C1051 1.427 . S
N1059 C1057 1.384 . S
H1060 C1066 0.930 . S
H1061 C1070 0.930 . S
H1062 C1075 0.929 . S
H1063 C1073 0.929 . S
H1064 C1068 0.929 . S
H1065 C1074 0.929 . S
C1066 H1060 0.930 . S
C1066 C1067 1.367 . S
C1066 C1074 1.378 . S
C1067 C1066 1.367 . S
C1067 C1075 1.433 . S
C1068 H1064 0.929 . S
C1068 C1070 1.378 . S
C1068 C1072 1.350 . S
C1069 C1072 1.463 . S
C1069 C1074 1.350 . S
C1069 N1077 1.427 . S
C1070 H1061 0.930 . S
C1070 C1068 1.378 . S
C1070 C1071 1.367 . S
C1071 C1070 1.367 . S
C1071 C1073 1.433 . S
C1072 C1068 1.350 . S
C1072 C1069 1.463 . S
C1072 N1076 1.427 . S
C1073 H1063 0.929 . S
C1073 C1071 1.433 . S
C1073 N1076 1.384 . S
C1074 H1065 0.929 . S
C1074 C1066 1.378 . S
C1074 C1069 1.350 . S
C1075 H1062 0.929 . S
C1075 C1067 1.433 . S
C1075 N1077 1.384 . S
N1076 C1072 1.427 . S
N1076 C1073 1.384 . S
N1077 C1069 1.427 . S
N1077 C1075 1.384 . S
H1078 C1084 0.930 . S
H1079 C1088 0.930 . S
H1080 C1093 0.929 . S
H1081 C1091 0.929 . S
H1082 C1086 0.929 . S
H1083 C1092 0.929 . S
C1084 H1078 0.930 . S
C1084 C1085 1.367 . S
C1084 C1092 1.378 . S
C1085 C1084 1.367 . S
C1085 C1093 1.433 . S
C1086 H1082 0.929 . S
C1086 C1088 1.378 . S
C1086 C1090 1.350 . S
C1087 C1090 1.463 1_545 S
C1087 C1092 1.350 . S
C1087 N1095 1.427 . S
C1088 H1079 0.930 . S
C1088 C1086 1.378 . S
C1088 C1089 1.367 . S
C1089 C1088 1.367 . S
C1089 C1091 1.433 . S
C1090 C1086 1.350 . S
C1090 C1087 1.463 1_565 S
C1090 N1094 1.427 . S
C1091 H1081 0.929 . S
C1091 C1089 1.433 . S
C1091 N1094 1.384 . S
C1092 H1083 0.929 . S
C1092 C1084 1.378 . S
C1092 C1087 1.350 . S
C1093 H1080 0.929 . S
C1093 C1085 1.433 . S
C1093 N1095 1.384 . S
N1094 C1090 1.427 . S
N1094 C1091 1.384 . S
N1095 C1087 1.427 . S
N1095 C1093 1.384 . S
H1096 C1102 0.930 . S
H1097 C1106 0.930 . S
H1098 C1111 0.929 . S
H1099 C1109 0.929 . S
H1100 C1104 0.929 . S
H1101 C1110 0.929 . S
C1102 H1096 0.930 . S
C1102 C1103 1.367 . S
C1102 C1110 1.378 . S
C1103 C1102 1.367 . S
C1103 C1111 1.433 . S
C1104 H1100 0.929 . S
C1104 C1106 1.378 . S
C1104 C1108 1.350 . S
C1105 C1108 1.463 1_556 S
C1105 C1110 1.350 . S
C1105 N1113 1.427 . S
C1106 H1097 0.930 . S
C1106 C1104 1.378 . S
C1106 C1107 1.367 . S
C1107 C1106 1.367 . S
C1107 C1109 1.433 . S
C1108 C1104 1.350 . S
C1108 C1105 1.463 1_554 S
C1108 N1112 1.427 . S
C1109 H1099 0.929 . S
C1109 C1107 1.433 . S
C1109 N1112 1.384 . S
C1110 H1101 0.929 . S
C1110 C1102 1.378 . S
C1110 C1105 1.350 . S
C1111 H1098 0.929 . S
C1111 C1103 1.433 . S
C1111 N1113 1.384 . S
N1112 C1108 1.427 . S
N1112 C1109 1.384 . S
N1113 C1105 1.427 . S
N1113 C1111 1.384 . S
H1114 C1120 0.930 . S
H1115 C1124 0.930 . S
H1116 C1129 0.929 . S
H1117 C1127 0.929 . S
H1118 C1122 0.929 . S
H1119 C1128 0.929 . S
C1120 H1114 0.930 . S
C1120 C1121 1.367 . S
C1120 C1128 1.378 . S
C1121 C1120 1.367 . S
C1121 C1129 1.433 . S
C1122 H1118 0.929 . S
C1122 C1124 1.378 . S
C1122 C1126 1.350 . S
C1123 C1126 1.463 . S
C1123 C1128 1.350 . S
C1123 N1131 1.427 . S
C1124 H1115 0.930 . S
C1124 C1122 1.378 . S
C1124 C1125 1.367 . S
C1125 C1124 1.367 . S
C1125 C1127 1.433 . S
C1126 C1122 1.350 . S
C1126 C1123 1.463 . S
C1126 N1130 1.427 . S
C1127 H1117 0.929 . S
C1127 C1125 1.433 . S
C1127 N1130 1.384 . S
C1128 H1119 0.929 . S
C1128 C1120 1.378 . S
C1128 C1123 1.350 . S
C1129 H1116 0.929 . S
C1129 C1121 1.433 . S
C1129 N1131 1.384 . S
N1130 C1126 1.427 . S
N1130 C1127 1.384 . S
N1131 C1123 1.427 . S
N1131 C1129 1.384 . S
H1132 C1138 0.930 . S
H1133 C1142 0.930 . S
H1134 C1147 0.929 . S
H1135 C1145 0.929 . S
H1136 C1140 0.929 1_545 S
H1137 C1146 0.929 1_565 S
C1138 H1132 0.930 . S
C1138 C1139 1.367 . S
C1138 C1146 1.378 . S
C1139 C1138 1.367 . S
C1139 C1147 1.433 . S
C1140 H1136 0.929 1_565 S
C1140 C1142 1.378 . S
C1140 C1144 1.350 . S
C1141 C1144 1.463 1_545 S
C1141 C1146 1.350 . S
C1141 N1149 1.427 . S
C1142 H1133 0.930 . S
C1142 C1140 1.378 . S
C1142 C1143 1.367 . S
C1143 C1142 1.367 . S
C1143 C1145 1.433 . S
C1144 C1140 1.350 . S
C1144 C1141 1.463 1_565 S
C1144 N1148 1.427 . S
C1145 H1135 0.929 . S
C1145 C1143 1.433 . S
C1145 N1148 1.384 . S
C1146 H1137 0.929 1_545 S
C1146 C1138 1.378 . S
C1146 C1141 1.350 . S
C1147 H1134 0.929 . S
C1147 C1139 1.433 . S
C1147 N1149 1.384 . S
N1148 C1144 1.427 . S
N1148 C1145 1.384 . S
N1149 C1141 1.427 . S
N1149 C1147 1.384 . S
H1150 C1156 0.930 . S
H1151 C1160 0.930 . S
H1152 C1165 0.929 . S
H1153 C1163 0.929 . S
H1154 C1158 0.929 . S
H1155 C1164 0.929 . S
C1156 H1150 0.930 . S
C1156 C1157 1.367 . S
C1156 C1164 1.378 . S
C1157 C1156 1.367 . S
C1157 C1165 1.433 . S
C1158 H1154 0.929 . S
C1158 C1160 1.378 . S
C1158 C1162 1.350 . S
C1159 C1162 1.463 . S
C1159 C1164 1.350 . S
C1159 N1167 1.427 . S
C1160 H1151 0.930 . S
C1160 C1158 1.378 . S
C1160 C1161 1.367 . S
C1161 C1160 1.367 . S
C1161 C1163 1.433 . S
C1162 C1158 1.350 . S
C1162 C1159 1.463 . S
C1162 N1166 1.427 . S
C1163 H1153 0.929 . S
C1163 C1161 1.433 . S
C1163 N1166 1.384 . S
C1164 H1155 0.929 . S
C1164 C1156 1.378 . S
C1164 C1159 1.350 . S
C1165 H1152 0.929 . S
C1165 C1157 1.433 . S
C1165 N1167 1.384 . S
N1166 C1162 1.427 . S
N1166 C1163 1.384 . S
N1167 C1159 1.427 . S
N1167 C1165 1.384 . S
H1168 C1174 0.930 . S
H1169 C1178 0.930 . S
H1170 C1183 0.929 . S
H1171 C1181 0.929 . S
H1172 C1176 0.929 . S
H1173 C1182 0.929 . S
C1174 H1168 0.930 . S
C1174 C1175 1.367 . S
C1174 C1182 1.378 . S
C1175 C1174 1.367 . S
C1175 C1183 1.433 . S
C1176 H1172 0.929 . S
C1176 C1178 1.378 . S
C1176 C1180 1.350 . S
C1177 C1180 1.463 . S
C1177 C1182 1.350 . S
C1177 N1185 1.427 . S
C1178 H1169 0.930 . S
C1178 C1176 1.378 . S
C1178 C1179 1.367 . S
C1179 C1178 1.367 . S
C1179 C1181 1.433 . S
C1180 C1176 1.350 . S
C1180 C1177 1.463 . S
C1180 N1184 1.427 . S
C1181 H1171 0.929 . S
C1181 C1179 1.433 . S
C1181 N1184 1.384 . S
C1182 H1173 0.929 . S
C1182 C1174 1.378 . S
C1182 C1177 1.350 . S
C1183 H1170 0.929 . S
C1183 C1175 1.433 . S
C1183 N1185 1.384 . S
N1184 C1180 1.427 . S
N1184 C1181 1.384 . S
N1185 C1177 1.427 . S
N1185 C1183 1.384 . S
H1186 C1192 0.930 . S
H1187 C1196 0.930 . S
H1188 C1201 0.929 . S
H1189 C1199 0.929 . S
H1190 C1194 0.929 . S
H1191 C1200 0.929 . S
C1192 H1186 0.930 . S
C1192 C1193 1.367 . S
C1192 C1200 1.378 . S
C1193 C1192 1.367 . S
C1193 C1201 1.433 . S
C1194 H1190 0.929 . S
C1194 C1196 1.378 . S
C1194 C1198 1.350 . S
C1195 C1198 1.463 . S
C1195 C1200 1.350 . S
C1195 N1203 1.427 . S
C1196 H1187 0.930 . S
C1196 C1194 1.378 . S
C1196 C1197 1.367 . S
C1197 C1196 1.367 . S
C1197 C1199 1.433 . S
C1198 C1194 1.350 . S
C1198 C1195 1.463 . S
C1198 N1202 1.427 . S
C1199 H1189 0.929 . S
C1199 C1197 1.433 . S
C1199 N1202 1.384 . S
C1200 H1191 0.929 . S
C1200 C1192 1.378 . S
C1200 C1195 1.350 . S
C1201 H1188 0.929 . S
C1201 C1193 1.433 . S
C1201 N1203 1.384 . S
N1202 C1198 1.427 . S
N1202 C1199 1.384 . S
N1203 C1195 1.427 . S
N1203 C1201 1.384 . S
H1204 C1210 0.930 . S
H1205 C1214 0.930 . S
H1206 C1219 0.929 . S
H1207 C1217 0.929 . S
H1208 C1212 0.929 . S
H1209 C1218 0.929 . S
C1210 H1204 0.930 . S
C1210 C1211 1.367 . S
C1210 C1218 1.378 . S
C1211 C1210 1.367 . S
C1211 C1219 1.433 . S
C1212 H1208 0.929 . S
C1212 C1214 1.378 . S
C1212 C1216 1.350 . S
C1213 C1216 1.463 . S
C1213 C1218 1.350 . S
C1213 N1221 1.427 . S
C1214 H1205 0.930 . S
C1214 C1212 1.378 . S
C1214 C1215 1.367 . S
C1215 C1214 1.367 . S
C1215 C1217 1.433 . S
C1216 C1212 1.350 . S
C1216 C1213 1.463 . S
C1216 N1220 1.427 . S
C1217 H1207 0.929 . S
C1217 C1215 1.433 . S
C1217 N1220 1.384 . S
C1218 H1209 0.929 . S
C1218 C1210 1.378 . S
C1218 C1213 1.350 . S
C1219 H1206 0.929 . S
C1219 C1211 1.433 . S
C1219 N1221 1.384 . S
N1220 C1216 1.427 . S
N1220 C1217 1.384 . S
N1221 C1213 1.427 . S
N1221 C1219 1.384 . S
H1222 C1228 0.930 . S
H1223 C1232 0.930 . S
H1224 C1237 0.929 . S
H1225 C1235 0.929 . S
H1226 C1230 0.929 . S
H1227 C1236 0.929 . S
C1228 H1222 0.930 . S
C1228 C1229 1.367 . S
C1228 C1236 1.378 . S
C1229 C1228 1.367 . S
C1229 C1237 1.433 . S
C1230 H1226 0.929 . S
C1230 C1232 1.378 . S
C1230 C1234 1.350 . S
C1231 C1234 1.463 . S
C1231 C1236 1.350 . S
C1231 N1239 1.427 . S
C1232 H1223 0.930 . S
C1232 C1230 1.378 . S
C1232 C1233 1.367 . S
C1233 C1232 1.367 . S
C1233 C1235 1.433 . S
C1234 C1230 1.350 . S
C1234 C1231 1.463 . S
C1234 N1238 1.427 . S
C1235 H1225 0.929 . S
C1235 C1233 1.433 . S
C1235 N1238 1.384 . S
C1236 H1227 0.929 . S
C1236 C1228 1.378 . S
C1236 C1231 1.350 . S
C1237 H1224 0.929 . S
C1237 C1229 1.433 . S
C1237 N1239 1.384 . S
N1238 C1234 1.427 . S
N1238 C1235 1.384 . S
N1239 C1231 1.427 . S
N1239 C1237 1.384 . S
H1240 C1246 0.930 . S
H1241 C1250 0.930 . S
H1242 C1255 0.929 . S
H1243 C1253 0.929 . S
H1244 C1248 0.929 . S
H1245 C1254 0.929 . S
C1246 H1240 0.930 . S
C1246 C1247 1.367 . S
C1246 C1254 1.378 . S
C1247 C1246 1.367 . S
C1247 C1255 1.433 1_455 S
C1248 H1244 0.929 . S
C1248 C1250 1.378 . S
C1248 C1252 1.350 . S
C1249 C1252 1.463 1_465 S
C1249 C1254 1.350 . S
C1249 N1257 1.427 1_465 S
C1250 H1241 0.930 . S
C1250 C1248 1.378 . S
C1250 C1251 1.367 . S
C1251 C1250 1.367 . S
C1251 C1253 1.433 1_655 S
C1252 C1248 1.350 . S
C1252 C1249 1.463 1_645 S
C1252 N1256 1.427 1_645 S
C1253 H1243 0.929 . S
C1253 C1251 1.433 1_455 S
C1253 N1256 1.384 1_545 S
C1254 H1245 0.929 . S
C1254 C1246 1.378 . S
C1254 C1249 1.350 . S
C1255 H1242 0.929 . S
C1255 C1247 1.433 1_655 S
C1255 N1257 1.384 1_565 S
N1256 C1252 1.427 1_465 S
N1256 C1253 1.384 1_565 S
N1257 C1249 1.427 1_645 S
N1257 C1255 1.384 1_545 S
H1258 C1264 0.930 . S
H1259 C1268 0.930 . S
H1260 C1273 0.929 . S
H1261 C1271 0.929 . S
H1262 C1266 0.929 . S
H1263 C1272 0.929 . S
C1264 H1258 0.930 . S
C1264 C1265 1.367 . S
C1264 C1272 1.378 . S
C1265 C1264 1.367 . S
C1265 C1273 1.433 . S
C1266 H1262 0.929 . S
C1266 C1268 1.378 . S
C1266 C1270 1.350 . S
C1267 C1270 1.463 1_655 S
C1267 C1272 1.350 . S
C1267 N1275 1.424 1_655 S
C1268 H1259 0.930 . S
C1268 C1266 1.378 . S
C1268 C1269 1.367 . S
C1269 C1268 1.367 . S
C1269 C1271 1.433 . S
C1270 C1266 1.350 . S
C1270 C1267 1.463 1_455 S
C1270 N1274 1.424 1_455 S
C1271 H1261 0.929 . S
C1271 C1269 1.433 . S
C1271 N1274 1.379 1_455 S
C1272 H1263 0.929 . S
C1272 C1264 1.378 . S
C1272 C1267 1.350 . S
C1273 H1260 0.929 . S
C1273 C1265 1.433 . S
C1273 N1275 1.379 1_655 S
N1274 C1270 1.424 1_655 S
N1274 C1271 1.379 1_655 S
N1275 C1267 1.424 1_455 S
N1275 C1273 1.379 1_455 S
H1276 C1282 0.930 . S
H1277 C1286 0.930 . S
H1278 C1291 0.929 . S
H1279 C1289 0.929 . S
H1280 C1284 0.929 . S
H1281 C1290 0.929 . S
C1282 H1276 0.930 . S
C1282 C1283 1.367 1_455 S
C1282 C1290 1.378 . S
C1283 C1282 1.367 1_655 S
C1283 C1291 1.433 . S
C1284 H1280 0.929 . S
C1284 C1286 1.378 . S
C1284 C1288 1.350 1_655 S
C1285 C1288 1.463 1_655 S
C1285 C1290 1.350 1_655 S
C1285 N1293 1.427 . S
C1286 H1277 0.930 . S
C1286 C1284 1.378 . S
C1286 C1287 1.367 1_655 S
C1287 C1286 1.367 1_455 S
C1287 C1289 1.433 . S
C1288 C1284 1.350 1_455 S
C1288 C1285 1.463 1_455 S
C1288 N1292 1.427 . S
C1289 H1279 0.929 . S
C1289 C1287 1.433 . S
C1289 N1292 1.384 . S
C1290 H1281 0.929 . S
C1290 C1282 1.378 . S
C1290 C1285 1.350 1_455 S
C1291 H1278 0.929 . S
C1291 C1283 1.433 . S
C1291 N1293 1.384 . S
N1292 C1288 1.427 . S
N1292 C1289 1.384 . S
N1293 C1285 1.427 . S
N1293 C1291 1.384 . S
H1294 C1300 0.930 . S
H1295 C1304 0.930 . S
H1296 C1309 0.929 . S
H1297 C1307 0.929 . S
H1298 C1302 0.929 . S
H1299 C1308 0.929 . S
C1300 H1294 0.930 . S
C1300 C1301 1.367 . S
C1300 C1308 1.378 . S
C1301 C1300 1.367 . S
C1301 C1309 1.433 1_455 S
C1302 H1298 0.929 . S
C1302 C1304 1.378 . S
C1302 C1306 1.350 . S
C1303 C1306 1.463 1_456 S
C1303 C1308 1.350 . S
C1303 N1311 1.427 1_455 S
C1304 H1295 0.930 . S
C1304 C1302 1.378 . S
C1304 C1305 1.367 . S
C1305 C1304 1.367 . S
C1305 C1307 1.433 1_655 S
C1306 C1302 1.350 . S
C1306 C1303 1.463 1_654 S
C1306 N1310 1.427 1_655 S
C1307 H1297 0.929 . S
C1307 C1305 1.433 1_455 S
C1307 N1310 1.384 . S
C1308 H1299 0.929 . S
C1308 C1300 1.378 . S
C1308 C1303 1.350 . S
C1309 H1296 0.929 . S
C1309 C1301 1.433 1_655 S
C1309 N1311 1.384 . S
N1310 C1306 1.427 1_455 S
N1310 C1307 1.384 . S
N1311 C1303 1.427 1_655 S
N1311 C1309 1.384 . S
H1312 C1318 0.930 . S
H1313 C1322 0.930 . S
H1314 C1327 0.929 . S
H1315 C1325 0.929 . S
H1316 C1320 0.929 . S
H1317 C1326 0.929 . S
C1318 H1312 0.930 . S
C1318 C1319 1.367 . S
C1318 C1326 1.378 . S
C1319 C1318 1.367 . S
C1319 C1327 1.433 . S
C1320 H1316 0.929 . S
C1320 C1322 1.378 . S
C1320 C1324 1.350 . S
C1321 C1324 1.463 . S
C1321 C1326 1.350 . S
C1321 N1329 1.427 . S
C1322 H1313 0.930 . S
C1322 C1320 1.378 . S
C1322 C1323 1.367 . S
C1323 C1322 1.367 . S
C1323 C1325 1.433 . S
C1324 C1320 1.350 . S
C1324 C1321 1.463 . S
C1324 N1328 1.427 . S
C1325 H1315 0.929 . S
C1325 C1323 1.433 . S
C1325 N1328 1.384 . S
C1326 H1317 0.929 . S
C1326 C1318 1.378 . S
C1326 C1321 1.350 . S
C1327 H1314 0.929 . S
C1327 C1319 1.433 . S
C1327 N1329 1.384 . S
N1328 C1324 1.427 . S
N1328 C1325 1.384 . S
N1329 C1321 1.427 . S
N1329 C1327 1.384 . S
H1330 C1336 0.930 . S
H1331 C1340 0.930 . S
H1332 C1345 0.929 . S
H1333 C1343 0.929 . S
H1334 C1338 0.929 . S
H1335 C1344 0.929 . S
C1336 H1330 0.930 . S
C1336 C1337 1.367 . S
C1336 C1344 1.378 . S
C1337 C1336 1.367 . S
C1337 C1345 1.433 . S
C1338 H1334 0.929 . S
C1338 C1340 1.378 . S
C1338 C1342 1.350 . S
C1339 C1342 1.463 . S
C1339 C1344 1.350 . S
C1339 N1347 1.427 . S
C1340 H1331 0.930 . S
C1340 C1338 1.378 . S
C1340 C1341 1.367 . S
C1341 C1340 1.367 . S
C1341 C1343 1.433 . S
C1342 C1338 1.350 . S
C1342 C1339 1.463 . S
C1342 N1346 1.427 . S
C1343 H1333 0.929 . S
C1343 C1341 1.433 . S
C1343 N1346 1.384 . S
C1344 H1335 0.929 . S
C1344 C1336 1.378 . S
C1344 C1339 1.350 . S
C1345 H1332 0.929 . S
C1345 C1337 1.433 . S
C1345 N1347 1.384 . S
N1346 C1342 1.427 . S
N1346 C1343 1.384 . S
N1347 C1339 1.427 . S
N1347 C1345 1.384 . S
H1348 C1354 0.930 . S
H1349 C1358 0.930 . S
H1350 C1363 0.929 . S
H1351 C1361 0.929 . S
H1352 C1356 0.929 . S
H1353 C1362 0.929 . S
C1354 H1348 0.930 . S
C1354 C1355 1.367 . S
C1354 C1362 1.378 . S
C1355 C1354 1.367 . S
C1355 C1363 1.433 . S
C1356 H1352 0.929 . S
C1356 C1358 1.378 . S
C1356 C1360 1.350 . S
C1357 C1360 1.463 . S
C1357 C1362 1.350 . S
C1357 N1365 1.427 . S
C1358 H1349 0.930 . S
C1358 C1356 1.378 . S
C1358 C1359 1.367 . S
C1359 C1358 1.367 . S
C1359 C1361 1.433 . S
C1360 C1356 1.350 . S
C1360 C1357 1.463 . S
C1360 N1364 1.427 . S
C1361 H1351 0.929 . S
C1361 C1359 1.433 . S
C1361 N1364 1.384 . S
C1362 H1353 0.929 . S
C1362 C1354 1.378 . S
C1362 C1357 1.350 . S
C1363 H1350 0.929 . S
C1363 C1355 1.433 . S
C1363 N1365 1.384 . S
N1364 C1360 1.427 . S
N1364 C1361 1.384 . S
N1365 C1357 1.427 . S
N1365 C1363 1.384 . S
H1366 C1372 0.930 . S
H1367 C1376 0.930 . S
H1368 C1381 0.929 . S
H1369 C1379 0.929 . S
H1370 C1374 0.929 . S
H1371 C1380 0.929 . S
C1372 H1366 0.930 . S
C1372 C1373 1.367 . S
C1372 C1380 1.378 . S
C1373 C1372 1.367 . S
C1373 C1381 1.433 . S
C1374 H1370 0.929 . S
C1374 C1376 1.378 . S
C1374 C1378 1.350 . S
C1375 C1378 1.463 . S
C1375 C1380 1.350 . S
C1375 N1383 1.427 . S
C1376 H1367 0.930 . S
C1376 C1374 1.378 . S
C1376 C1377 1.367 . S
C1377 C1376 1.367 . S
C1377 C1379 1.433 . S
C1378 C1374 1.350 . S
C1378 C1375 1.463 . S
C1378 N1382 1.427 . S
C1379 H1369 0.929 . S
C1379 C1377 1.433 . S
C1379 N1382 1.384 . S
C1380 H1371 0.929 . S
C1380 C1372 1.378 . S
C1380 C1375 1.350 . S
C1381 H1368 0.929 . S
C1381 C1373 1.433 . S
C1381 N1383 1.384 . S
N1382 C1378 1.427 . S
N1382 C1379 1.384 . S
N1383 C1375 1.427 . S
N1383 C1381 1.384 . S
H1384 C1390 0.930 . S
H1385 C1394 0.930 . S
H1386 C1399 0.929 . S
H1387 C1397 0.929 . S
H1388 C1392 0.929 . S
H1389 C1398 0.929 . S
C1390 H1384 0.930 . S
C1390 C1391 1.367 . S
C1390 C1398 1.378 . S
C1391 C1390 1.367 . S
C1391 C1399 1.433 . S
C1392 H1388 0.929 . S
C1392 C1394 1.378 . S
C1392 C1396 1.350 . S
C1393 C1396 1.463 . S
C1393 C1398 1.350 . S
C1393 N1401 1.427 . S
C1394 H1385 0.930 . S
C1394 C1392 1.378 . S
C1394 C1395 1.367 . S
C1395 C1394 1.367 . S
C1395 C1397 1.433 . S
C1396 C1392 1.350 . S
C1396 C1393 1.463 . S
C1396 N1400 1.427 . S
C1397 H1387 0.929 . S
C1397 C1395 1.433 . S
C1397 N1400 1.384 . S
C1398 H1389 0.929 . S
C1398 C1390 1.378 . S
C1398 C1393 1.350 . S
C1399 H1386 0.929 . S
C1399 C1391 1.433 . S
C1399 N1401 1.384 . S
N1400 C1396 1.427 . S
N1400 C1397 1.384 . S
N1401 C1393 1.427 . S
N1401 C1399 1.384 . S
H1402 C1408 0.930 . S
H1403 C1412 0.930 . S
H1404 C1417 0.929 . S
H1405 C1415 0.929 . S
H1406 C1410 0.929 . S
H1407 C1416 0.929 . S
C1408 H1402 0.930 . S
C1408 C1409 1.367 . S
C1408 C1416 1.378 . S
C1409 C1408 1.367 . S
C1409 C1417 1.433 . S
C1410 H1406 0.929 . S
C1410 C1412 1.378 . S
C1410 C1414 1.350 . S
C1411 C1414 1.463 . S
C1411 C1416 1.350 . S
C1411 N1419 1.427 . S
C1412 H1403 0.930 . S
C1412 C1410 1.378 . S
C1412 C1413 1.367 . S
C1413 C1412 1.367 . S
C1413 C1415 1.433 . S
C1414 C1410 1.350 . S
C1414 C1411 1.463 . S
C1414 N1418 1.427 . S
C1415 H1405 0.929 . S
C1415 C1413 1.433 . S
C1415 N1418 1.384 . S
C1416 H1407 0.929 . S
C1416 C1408 1.378 . S
C1416 C1411 1.350 . S
C1417 H1404 0.929 . S
C1417 C1409 1.433 . S
C1417 N1419 1.384 . S
N1418 C1414 1.427 . S
N1418 C1415 1.384 . S
N1419 C1411 1.427 . S
N1419 C1417 1.384 . S
H1420 C1426 0.930 . S
H1421 C1430 0.930 . S
H1422 C1435 0.929 . S
H1423 C1433 0.929 . S
H1424 C1428 0.929 . S
H1425 C1434 0.929 . S
C1426 H1420 0.930 . S
C1426 C1427 1.367 . S
C1426 C1434 1.378 . S
C1427 C1426 1.367 . S
C1427 C1435 1.433 . S
C1428 H1424 0.929 . S
C1428 C1430 1.378 . S
C1428 C1432 1.350 . S
C1429 C1432 1.463 . S
C1429 C1434 1.350 . S
C1429 N1437 1.427 . S
C1430 H1421 0.930 . S
C1430 C1428 1.378 . S
C1430 C1431 1.367 . S
C1431 C1430 1.367 . S
C1431 C1433 1.433 . S
C1432 C1428 1.350 . S
C1432 C1429 1.463 . S
C1432 N1436 1.427 . S
C1433 H1423 0.929 . S
C1433 C1431 1.433 . S
C1433 N1436 1.384 . S
C1434 H1425 0.929 . S
C1434 C1426 1.378 . S
C1434 C1429 1.350 . S
C1435 H1422 0.929 . S
C1435 C1427 1.433 . S
C1435 N1437 1.384 . S
N1436 C1432 1.427 . S
N1436 C1433 1.384 . S
N1437 C1429 1.427 . S
N1437 C1435 1.384 . S
H1438 C1444 0.930 . S
H1439 C1448 0.930 . S
H1440 C1453 0.929 . S
H1441 C1451 0.929 . S
H1442 C1446 0.929 . S
H1443 C1452 0.929 . S
C1444 H1438 0.930 . S
C1444 C1445 1.367 . S
C1444 C1452 1.378 . S
C1445 C1444 1.367 . S
C1445 C1453 1.433 . S
C1446 H1442 0.929 . S
C1446 C1448 1.378 . S
C1446 C1450 1.350 . S
C1447 C1450 1.463 . S
C1447 C1452 1.350 . S
C1447 N1455 1.427 . S
C1448 H1439 0.930 . S
C1448 C1446 1.378 . S
C1448 C1449 1.367 . S
C1449 C1448 1.367 . S
C1449 C1451 1.433 . S
C1450 C1446 1.350 . S
C1450 C1447 1.463 . S
C1450 N1454 1.427 . S
C1451 H1441 0.929 . S
C1451 C1449 1.433 . S
C1451 N1454 1.384 . S
C1452 H1443 0.929 . S
C1452 C1444 1.378 . S
C1452 C1447 1.350 . S
C1453 H1440 0.929 . S
C1453 C1445 1.433 . S
C1453 N1455 1.384 . S
N1454 C1450 1.427 . S
N1454 C1451 1.384 . S
N1455 C1447 1.427 . S
N1455 C1453 1.384 . S
H1456 C1462 0.930 . S
H1457 C1466 0.930 . S
H1458 C1471 0.929 1_565 S
H1459 C1469 0.929 . S
H1460 C1464 0.929 . S
H1461 C1470 0.929 . S
C1462 H1456 0.930 . S
C1462 C1463 1.367 . S
C1462 C1470 1.378 . S
C1463 C1462 1.367 . S
C1463 C1471 1.433 . S
C1464 H1460 0.929 . S
C1464 C1466 1.378 . S
C1464 C1468 1.350 . S
C1465 C1468 1.463 . S
C1465 C1470 1.350 . S
C1465 N1473 1.427 . S
C1466 H1457 0.930 . S
C1466 C1464 1.378 . S
C1466 C1467 1.367 . S
C1467 C1466 1.367 . S
C1467 C1469 1.433 . S
C1468 C1464 1.350 . S
C1468 C1465 1.463 . S
C1468 N1472 1.427 . S
C1469 H1459 0.929 . S
C1469 C1467 1.433 . S
C1469 N1472 1.384 . S
C1470 H1461 0.929 . S
C1470 C1462 1.378 . S
C1470 C1465 1.350 . S
C1471 H1458 0.929 1_545 S
C1471 C1463 1.433 . S
C1471 N1473 1.384 . S
N1472 C1468 1.427 . S
N1472 C1469 1.384 . S
N1473 C1465 1.427 . S
N1473 C1471 1.384 . S
H1474 C1480 0.930 . S
H1475 C1484 0.930 . S
H1476 C1489 0.929 . S
H1477 C1487 0.929 . S
H1478 C1482 0.929 . S
H1479 C1488 0.929 . S
C1480 H1474 0.930 . S
C1480 C1481 1.367 . S
C1480 C1488 1.378 . S
C1481 C1480 1.367 . S
C1481 C1489 1.433 . S
C1482 H1478 0.929 . S
C1482 C1484 1.378 . S
C1482 C1486 1.350 . S
C1483 C1486 1.463 . S
C1483 C1488 1.350 . S
C1483 N1491 1.427 . S
C1484 H1475 0.930 . S
C1484 C1482 1.378 . S
C1484 C1485 1.367 . S
C1485 C1484 1.367 . S
C1485 C1487 1.433 . S
C1486 C1482 1.350 . S
C1486 C1483 1.463 . S
C1486 N1490 1.427 . S
C1487 H1477 0.929 . S
C1487 C1485 1.433 . S
C1487 N1490 1.384 . S
C1488 H1479 0.929 . S
C1488 C1480 1.378 . S
C1488 C1483 1.350 . S
C1489 H1476 0.929 . S
C1489 C1481 1.433 . S
C1489 N1491 1.384 . S
N1490 C1486 1.427 . S
N1490 C1487 1.384 . S
N1491 C1483 1.427 . S
N1491 C1489 1.384 . S
H1492 C1498 0.930 . S
H1493 C1502 0.930 . S
H1494 C1507 0.929 . S
H1495 C1505 0.929 . S
H1496 C1500 0.929 . S
H1497 C1506 0.929 . S
C1498 H1492 0.930 . S
C1498 C1499 1.367 . S
C1498 C1506 1.378 . S
C1499 C1498 1.367 . S
C1499 C1507 1.433 . S
C1500 H1496 0.929 . S
C1500 C1502 1.378 . S
C1500 C1504 1.350 . S
C1501 C1504 1.463 . S
C1501 C1506 1.350 . S
C1501 N1509 1.427 . S
C1502 H1493 0.930 . S
C1502 C1500 1.378 . S
C1502 C1503 1.367 . S
C1503 C1502 1.367 . S
C1503 C1505 1.433 . S
C1504 C1500 1.350 . S
C1504 C1501 1.463 . S
C1504 N1508 1.427 . S
C1505 H1495 0.929 . S
C1505 C1503 1.433 . S
C1505 N1508 1.384 . S
C1506 H1497 0.929 . S
C1506 C1498 1.378 . S
C1506 C1501 1.350 . S
C1507 H1494 0.929 . S
C1507 C1499 1.433 . S
C1507 N1509 1.384 . S
N1508 C1504 1.427 . S
N1508 C1505 1.384 . S
N1509 C1501 1.427 . S
N1509 C1507 1.384 . S
H1510 C1516 0.930 . S
H1511 C1520 0.930 . S
H1512 C1525 0.929 . S
H1513 C1523 0.929 . S
H1514 C1518 0.929 . S
H1515 C1524 0.929 . S
C1516 H1510 0.930 . S
C1516 C1517 1.367 . S
C1516 C1524 1.378 . S
C1517 C1516 1.367 . S
C1517 C1525 1.433 . S
C1518 H1514 0.929 . S
C1518 C1520 1.378 . S
C1518 C1522 1.350 . S
C1519 C1522 1.463 . S
C1519 C1524 1.350 . S
C1519 N1527 1.427 . S
C1520 H1511 0.930 . S
C1520 C1518 1.378 . S
C1520 C1521 1.367 . S
C1521 C1520 1.367 . S
C1521 C1523 1.433 . S
C1522 C1518 1.350 . S
C1522 C1519 1.463 . S
C1522 N1526 1.427 . S
C1523 H1513 0.929 . S
C1523 C1521 1.433 . S
C1523 N1526 1.384 . S
C1524 H1515 0.929 . S
C1524 C1516 1.378 . S
C1524 C1519 1.350 . S
C1525 H1512 0.929 . S
C1525 C1517 1.433 . S
C1525 N1527 1.384 . S
N1526 C1522 1.427 . S
N1526 C1523 1.384 . S
N1527 C1519 1.427 . S
N1527 C1525 1.384 . S
H1528 C1534 0.930 . S
H1529 C1538 0.930 . S
H1530 C1543 0.929 . S
H1531 C1541 0.929 . S
H1532 C1536 0.929 . S
H1533 C1542 0.929 . S
C1534 H1528 0.930 . S
C1534 C1535 1.367 . S
C1534 C1542 1.378 . S
C1535 C1534 1.367 . S
C1535 C1543 1.433 . S
C1536 H1532 0.929 . S
C1536 C1538 1.378 . S
C1536 C1540 1.350 . S
C1537 C1540 1.463 . S
C1537 C1542 1.350 . S
C1537 N1545 1.427 . S
C1538 H1529 0.930 . S
C1538 C1536 1.378 . S
C1538 C1539 1.367 . S
C1539 C1538 1.367 . S
C1539 C1541 1.433 . S
C1540 C1536 1.350 . S
C1540 C1537 1.463 . S
C1540 N1544 1.427 . S
C1541 H1531 0.929 . S
C1541 C1539 1.433 . S
C1541 N1544 1.384 . S
C1542 H1533 0.929 . S
C1542 C1534 1.378 . S
C1542 C1537 1.350 . S
C1543 H1530 0.929 . S
C1543 C1535 1.433 . S
C1543 N1545 1.384 . S
N1544 C1540 1.427 . S
N1544 C1541 1.384 . S
N1545 C1537 1.427 . S
N1545 C1543 1.384 . S
H1546 C1552 0.930 . S
H1547 C1556 0.930 . S
H1548 C1561 0.929 . S
H1549 C1559 0.929 . S
H1550 C1554 0.929 . S
H1551 C1560 0.929 . S
C1552 H1546 0.930 . S
C1552 C1553 1.367 . S
C1552 C1560 1.378 . S
C1553 C1552 1.367 . S
C1553 C1561 1.433 . S
C1554 H1550 0.929 . S
C1554 C1556 1.378 . S
C1554 C1558 1.350 . S
C1555 C1558 1.463 . S
C1555 C1560 1.350 . S
C1555 N1563 1.427 . S
C1556 H1547 0.930 . S
C1556 C1554 1.378 . S
C1556 C1557 1.367 . S
C1557 C1556 1.367 . S
C1557 C1559 1.433 . S
C1558 C1554 1.350 . S
C1558 C1555 1.463 . S
C1558 N1562 1.427 . S
C1559 H1549 0.929 . S
C1559 C1557 1.433 . S
C1559 N1562 1.384 . S
C1560 H1551 0.929 . S
C1560 C1552 1.378 . S
C1560 C1555 1.350 . S
C1561 H1548 0.929 . S
C1561 C1553 1.433 . S
C1561 N1563 1.384 . S
N1562 C1558 1.427 . S
N1562 C1559 1.384 . S
N1563 C1555 1.427 . S
N1563 C1561 1.384 . S
H1564 C1570 0.930 . S
H1565 C1574 0.930 . S
H1566 C1579 0.929 . S
H1567 C1577 0.929 . S
H1568 C1572 0.929 . S
H1569 C1578 0.929 . S
C1570 H1564 0.930 . S
C1570 C1571 1.367 . S
C1570 C1578 1.378 . S
C1571 C1570 1.367 . S
C1571 C1579 1.433 . S
C1572 H1568 0.929 . S
C1572 C1574 1.378 . S
C1572 C1576 1.350 . S
C1573 C1576 1.463 . S
C1573 C1578 1.350 . S
C1573 N1581 1.427 . S
C1574 H1565 0.930 . S
C1574 C1572 1.378 . S
C1574 C1575 1.367 . S
C1575 C1574 1.367 . S
C1575 C1577 1.433 . S
C1576 C1572 1.350 . S
C1576 C1573 1.463 . S
C1576 N1580 1.427 . S
C1577 H1567 0.929 . S
C1577 C1575 1.433 . S
C1577 N1580 1.384 . S
C1578 H1569 0.929 . S
C1578 C1570 1.378 . S
C1578 C1573 1.350 . S
C1579 H1566 0.929 . S
C1579 C1571 1.433 . S
C1579 N1581 1.384 . S
N1580 C1576 1.427 . S
N1580 C1577 1.384 . S
N1581 C1573 1.427 . S
N1581 C1579 1.384 . S
H1582 C1588 0.930 . S
H1583 C1592 0.930 . S
H1584 C1597 0.929 . S
H1585 C1595 0.929 . S
H1586 C1590 0.929 . S
H1587 C1596 0.929 . S
C1588 H1582 0.930 . S
C1588 C1589 1.367 . S
C1588 C1596 1.378 . S
C1589 C1588 1.367 . S
C1589 C1597 1.433 . S
C1590 H1586 0.929 . S
C1590 C1592 1.378 . S
C1590 C1594 1.350 . S
C1591 C1594 1.463 . S
C1591 C1596 1.350 . S
C1591 N1599 1.427 . S
C1592 H1583 0.930 . S
C1592 C1590 1.378 . S
C1592 C1593 1.367 . S
C1593 C1592 1.367 . S
C1593 C1595 1.433 . S
C1594 C1590 1.350 . S
C1594 C1591 1.463 . S
C1594 N1598 1.427 . S
C1595 H1585 0.929 . S
C1595 C1593 1.433 . S
C1595 N1598 1.384 . S
C1596 H1587 0.929 . S
C1596 C1588 1.378 . S
C1596 C1591 1.350 . S
C1597 H1584 0.929 . S
C1597 C1589 1.433 . S
C1597 N1599 1.384 . S
N1598 C1594 1.427 . S
N1598 C1595 1.384 . S
N1599 C1591 1.427 . S
N1599 C1597 1.384 . S
C455 C3 1.335 . S
C459 C31 1.338 . S
C473 C45 1.545 . S
C477 C17 1.538 . S
C491 C87 1.329 . S
C495 C59 1.325 . S
C509 C101 1.520 . S
C513 C73 1.516 . S
C527 C115 1.345 . S
C531 C143 1.341 . S
C545 C157 1.540 . S
C549 C129 1.533 . S
C563 C171 1.334 . S
C567 C199 1.329 . S
C581 C213 1.528 . S
C585 C185 1.530 . S
C599 C227 1.331 . S
C603 C255 1.330 . S
C617 C241 1.522 . S
C621 C269 1.529 . S
C635 C311 1.336 . S
C639 C283 1.341 . S
C653 C297 1.545 . S
C657 C325 1.545 . S
C671 C367 1.347 . S
C675 C339 1.347 . S
C689 C381 1.509 . S
C693 C353 1.512 . S
C707 C423 1.314 . S
C711 C395 1.313 . S
C725 C409 1.550 . S
C729 C437 1.555 . S
C743 C358 1.286 . S
C747 C8 1.287 . S
C761 C22 1.264 . S
C765 C344 1.265 . S
C779 C36 1.275 . S
C783 C386 1.276 . S
C797 C50 1.244 . S
C801 C372 1.244 . S
C815 C414 1.279 . S
C819 C64 1.279 . S
C833 C78 1.261 . S
C837 C400 1.262 . S
C851 C92 1.273 . S
C855 C442 1.273 . S
C869 C428 1.244 . S
C873 C106 1.245 . S
C887 C120 1.277 . S
C891 C246 1.276 . S
C905 C134 1.270 . S
C909 C232 1.271 . S
C923 C148 1.284 . S
C927 C274 1.284 . S
C941 C162 1.245 . S
C945 C260 1.244 . S
C959 C176 1.273 . S
C963 C302 1.273 . S
C977 C288 1.268 . S
C981 C190 1.266 . S
C995 C330 1.278 . S
C999 C204 1.277 . S
C1013 C218 1.245 . S
C1017 C316 1.245 . S
C1031 C7 1.411 . S
C1035 C63 1.411 . S
C1049 C21 1.694 . S
C1053 C413 1.695 . S
C1067 C35 1.404 . S
C1071 C203 1.404 . S
C1085 C49 1.688 . S
C1089 C329 1.688 . S
C1103 C77 1.699 . S
C1107 C357 1.699 . S
C1121 C147 1.407 . S
C1125 C91 1.407 . S
C1139 C273 1.700 . S
C1143 C105 1.700 . S
C1157 C175 1.418 . S
C1161 C119 1.418 . S
C1175 C133 1.697 . S
C1179 C301 1.697 . S
C1193 C441 1.678 . S
C1197 C161 1.678 . S
C1211 C189 1.701 . S
C1215 C245 1.701 . S
C1229 C217 1.718 . S
C1233 C385 1.718 . S
C1247 C287 1.439 . S
C1251 C231 1.439 . S
C1265 C259 1.428 . S
C1269 C427 1.428 . S
C1283 C371 1.412 . S
C1287 C315 1.411 . S
C1301 C399 1.425 . S
C1305 C343 1.425 . S
C1319 C9 1.238 . S
C1323 C23 1.243 . S
C1337 C37 1.229 . S
C1341 C51 1.228 . S
C1355 C65 1.235 . S
C1359 C79 1.235 . S
C1373 C93 1.240 . S
C1377 C107 1.237 . S
C1391 C135 1.249 . S
C1395 C121 1.245 . S
C1409 C149 1.244 . S
C1413 C163 1.242 . S
C1427 C177 1.226 . S
C1431 C191 1.229 . S
C1445 C205 1.239 . S
C1449 C219 1.241 . S
C1463 C233 1.237 . S
C1467 C247 1.240 . S
C1481 C275 1.267 . S
C1485 C261 1.270 . S
C1499 C289 1.255 . S
C1503 C303 1.255 . S
C1517 C317 1.281 . S
C1521 C331 1.279 . S
C1535 C359 1.252 . S
C1539 C345 1.248 . S
C1553 C373 1.260 . S
C1557 C387 1.259 . S
C1571 C415 1.256 . S
C1575 C401 1.256 . S
C1589 C429 1.269 . S
C1593 C443 1.271 . S
