# Generated by pormake.
# Topology ukt, (4)-cn, num edge types: 1
# Building blocks:
#     Node 0, Type 0, BuildingBlock: UXUYUI_clean_sbu_0, # of connection points: 4
#     Node 1, Type 0, BuildingBlock: UXUYUI_clean_sbu_0, # of connection points: 4
#     Node 2, Type 0, BuildingBlock: UXUYUI_clean_sbu_0, # of connection points: 4
#     Node 3, Type 0, BuildingBlock: UXUYUI_clean_sbu_0, # of connection points: 4
#     Node 4, Type 0, BuildingBlock: UXUYUI_clean_sbu_0, # of connection points: 4
#     Node 5, Type 0, BuildingBlock: UXUYUI_clean_sbu_0, # of connection points: 4
#     Node 6, Type 0, BuildingBlock: UXUYUI_clean_sbu_0, # of connection points: 4
#     Node 7, Type 0, BuildingBlock: UXUYUI_clean_sbu_0, # of connection points: 4
#     Node 8, Type 0, BuildingBlock: UXUYUI_clean_sbu_0, # of connection points: 4
#     Node 9, Type 0, BuildingBlock: UXUYUI_clean_sbu_0, # of connection points: 4
#     Node 10, Type 0, BuildingBlock: UXUYUI_clean_sbu_0, # of connection points: 4
#     Node 11, Type 0, BuildingBlock: UXUYUI_clean_sbu_0, # of connection points: 4
#     Node 12, Type 0, BuildingBlock: UXUYUI_clean_sbu_0, # of connection points: 4
#     Node 13, Type 0, BuildingBlock: UXUYUI_clean_sbu_0, # of connection points: 4
#     Node 14, Type 0, BuildingBlock: UXUYUI_clean_sbu_0, # of connection points: 4
#     Node 15, Type 0, BuildingBlock: UXUYUI_clean_sbu_0, # of connection points: 4
#     Edge 16, Type (0, 0), BuildingBlock: XIVTED_clean_linker_0, # of connection points: 2
#     Edge 17, Type (0, 0), BuildingBlock: XIVTED_clean_linker_0, # of connection points: 2
#     Edge 18, Type (0, 0), BuildingBlock: XIVTED_clean_linker_0, # of connection points: 2
#     Edge 19, Type (0, 0), BuildingBlock: XIVTED_clean_linker_0, # of connection points: 2
#     Edge 20, Type (0, 0), BuildingBlock: XIVTED_clean_linker_0, # of connection points: 2
#     Edge 21, Type (0, 0), BuildingBlock: XIVTED_clean_linker_0, # of connection points: 2
#     Edge 22, Type (0, 0), BuildingBlock: XIVTED_clean_linker_0, # of connection points: 2
#     Edge 23, Type (0, 0), BuildingBlock: XIVTED_clean_linker_0, # of connection points: 2
#     Edge 24, Type (0, 0), BuildingBlock: XIVTED_clean_linker_0, # of connection points: 2
#     Edge 25, Type (0, 0), BuildingBlock: XIVTED_clean_linker_0, # of connection points: 2
#     Edge 26, Type (0, 0), BuildingBlock: XIVTED_clean_linker_0, # of connection points: 2
#     Edge 27, Type (0, 0), BuildingBlock: XIVTED_clean_linker_0, # of connection points: 2
#     Edge 28, Type (0, 0), BuildingBlock: XIVTED_clean_linker_0, # of connection points: 2
#     Edge 29, Type (0, 0), BuildingBlock: XIVTED_clean_linker_0, # of connection points: 2
#     Edge 30, Type (0, 0), BuildingBlock: XIVTED_clean_linker_0, # of connection points: 2
#     Edge 31, Type (0, 0), BuildingBlock: XIVTED_clean_linker_0, # of connection points: 2
#     Edge 32, Type (0, 0), BuildingBlock: XIVTED_clean_linker_0, # of connection points: 2
#     Edge 33, Type (0, 0), BuildingBlock: XIVTED_clean_linker_0, # of connection points: 2
#     Edge 34, Type (0, 0), BuildingBlock: XIVTED_clean_linker_0, # of connection points: 2
#     Edge 35, Type (0, 0), BuildingBlock: XIVTED_clean_linker_0, # of connection points: 2
#     Edge 36, Type (0, 0), BuildingBlock: XIVTED_clean_linker_0, # of connection points: 2
#     Edge 37, Type (0, 0), BuildingBlock: XIVTED_clean_linker_0, # of connection points: 2
#     Edge 38, Type (0, 0), BuildingBlock: XIVTED_clean_linker_0, # of connection points: 2
#     Edge 39, Type (0, 0), BuildingBlock: XIVTED_clean_linker_0, # of connection points: 2
#     Edge 40, Type (0, 0), BuildingBlock: XIVTED_clean_linker_0, # of connection points: 2
#     Edge 41, Type (0, 0), BuildingBlock: XIVTED_clean_linker_0, # of connection points: 2
#     Edge 42, Type (0, 0), BuildingBlock: XIVTED_clean_linker_0, # of connection points: 2
#     Edge 43, Type (0, 0), BuildingBlock: XIVTED_clean_linker_0, # of connection points: 2
#     Edge 44, Type (0, 0), BuildingBlock: XIVTED_clean_linker_0, # of connection points: 2
#     Edge 45, Type (0, 0), BuildingBlock: XIVTED_clean_linker_0, # of connection points: 2
#     Edge 46, Type (0, 0), BuildingBlock: XIVTED_clean_linker_0, # of connection points: 2
#     Edge 47, Type (0, 0), BuildingBlock: XIVTED_clean_linker_0, # of connection points: 2
# Relax obj value: 0.433
# Max RMSD: 0.238
# Mean RMSD: 0.238
data_MOF--net-ukt--node1-UXUYUI_clean_sbu_0--edge1-XIVTED_clean_linker_0
_symmetry_space_group_name_H-M    P1
_symmetry_Int_Tables_number       1
_symmetry_cell_setting            triclinic
loop_
_symmetry_equiv_pos_as_xyz
'x, y, z'
_cell_length_a     60.694701
_cell_length_b     60.67542
_cell_length_c     54.696458
_cell_angle_alpha  89.981505
_cell_angle_beta   90.017479
_cell_angle_gamma 89.982646
loop_
_atom_site_label
_atom_site_type_symbol
_atom_site_fract_x
_atom_site_fract_y
_atom_site_fract_z
_atom_type_partial_charge
Li0 Li 0.55304 0.14234 0.12054 0.0
Li1 Li 0.55543 0.10896 0.09161 0.0
Li2 Li 0.58855 0.1298 0.10272 0.0
Li3 Li 0.56089 0.14672 0.07785 0.0
C4 C 0.58357 0.10453 0.14095 0.0
N5 N 0.61601 0.08815 0.17138 0.0
C6 C 0.58811 0.08195 0.14135 0.0
C7 C 0.59541 0.11876 0.15616 0.0
C8 C 0.6046 0.074 0.15684 0.0
C9 C 0.61179 0.11017 0.17137 0.0
C10 C 0.51659 0.13748 0.07684 0.0
C11 C 0.50073 0.13529 0.03647 0.0
N12 N 0.48213 0.1452 0.04493 0.0
C13 C 0.49728 0.14754 0.08517 0.0
C14 C 0.51829 0.1312 0.05234 0.0
C15 C 0.48006 0.15134 0.06874 0.0
C16 C 0.52594 0.17373 0.14149 0.0
N17 N 0.53911 0.15638 0.1472 0.0
C18 C 0.53763 0.16557 0.1896 0.0
C19 C 0.54448 0.15164 0.17074 0.0
C20 C 0.52517 0.18449 0.18407 0.0
C21 C 0.51862 0.18799 0.15973 0.0
H22 H 0.52223 0.17725 0.12255 0.0
H23 H 0.55505 0.13778 0.17475 0.0
C24 C 0.56264 0.06573 0.07843 0.0
N25 N 0.54626 0.08075 0.08155 0.0
C26 C 0.55871 0.04641 0.06537 0.0
C27 C 0.52092 0.05809 0.05971 0.0
C28 C 0.5255 0.07705 0.07323 0.0
C29 C 0.53785 0.04286 0.05509 0.0
H30 H 0.57914 0.06952 0.08459 0.0
H31 H 0.51287 0.08938 0.07578 0.0
C32 C 0.58306 0.17985 0.09667 0.0
N33 N 0.59394 0.21985 0.07573 0.0
C34 C 0.60041 0.18121 0.07995 0.0
C35 C 0.57142 0.19889 0.10297 0.0
C36 C 0.60562 0.20157 0.06951 0.0
C37 C 0.57712 0.21895 0.09213 0.0
C38 C 0.58783 0.11528 0.04881 0.0
C39 C 0.60928 0.12216 0.04338 0.0
C40 C 0.57623 0.10255 0.03182 0.0
C41 C 0.61866 0.11636 0.02097 0.0
C42 C 0.5862 0.09708 0.00962 0.0
N43 N 0.60703 0.10405 0.00469 0.0
C44 C 0.62694 0.10533 0.09981 0.0
C45 C 0.63302 0.14194 0.11339 0.0
C46 C 0.64952 0.10172 0.0978 0.0
N47 N 0.61921 0.12537 0.10674 0.0
C48 C 0.65581 0.13906 0.1116 0.0
C49 C 0.66428 0.11895 0.10293 0.0
H50 H 0.61548 0.09257 0.09444 0.0
H51 H 0.62634 0.15769 0.11894 0.0
C52 C 0.54011 0.18292 0.05581 0.0
N53 N 0.55585 0.16738 0.05189 0.0
C54 C 0.53759 0.20047 0.03959 0.0
C55 C 0.56724 0.18553 0.01524 0.0
C56 C 0.569 0.16812 0.0318 0.0
C57 C 0.55173 0.20233 0.01936 0.0
H58 H 0.53016 0.18226 0.07218 0.0
H59 H 0.58171 0.15597 0.02923 0.0
O60 O 0.56785 0.11272 0.1255 0.0
O61 O 0.53371 0.13382 0.09261 0.0
O62 O 0.57724 0.1599 0.10642 0.0
O63 O 0.57848 0.12051 0.07084 0.0
H64 H 0.579 0.0707 0.12983 0.0
H65 H 0.59227 0.13633 0.15585 0.0
H66 H 0.60834 0.05657 0.15729 0.0
H67 H 0.62121 0.12101 0.18308 0.0
H68 H 0.50189 0.13062 0.01743 0.0
H69 H 0.49555 0.15228 0.10413 0.0
H70 H 0.53313 0.1235 0.0456 0.0
H71 H 0.46503 0.15914 0.07492 0.0
H72 H 0.54323 0.16231 0.20805 0.0
H73 H 0.50876 0.20215 0.15467 0.0
H74 H 0.57221 0.03516 0.06189 0.0
H75 H 0.5046 0.05577 0.05212 0.0
H76 H 0.60952 0.16664 0.07476 0.0
H77 H 0.55801 0.1982 0.11594 0.0
H78 H 0.61887 0.2028 0.05636 0.0
H79 H 0.56813 0.23378 0.09669 0.0
H80 H 0.61858 0.13197 0.05623 0.0
H81 H 0.55975 0.09681 0.03572 0.0
H82 H 0.6352 0.12164 0.01652 0.0
H83 H 0.5774 0.08724 0.99634 0.0
H84 H 0.65523 0.08607 0.09069 0.0
H85 H 0.66662 0.15269 0.116 0.0
H86 H 0.5252 0.21284 0.04338 0.0
H87 H 0.57879 0.18642 0.00019 0.0
Li88 Li 0.35053 0.55592 0.12031 0.0
Li89 Li 0.3844 0.55561 0.09217 0.0
Li90 Li 0.36579 0.59024 0.10231 0.0
Li91 Li 0.34745 0.56367 0.07727 0.0
C92 C 0.38996 0.58416 0.14096 0.0
N93 N 0.40794 0.61616 0.17081 0.0
C94 C 0.41271 0.58763 0.14119 0.0
C95 C 0.37635 0.59686 0.15602 0.0
C96 C 0.42149 0.60392 0.1564 0.0
C97 C 0.38576 0.61299 0.17094 0.0
C98 C 0.3545 0.51842 0.0774 0.0
C99 C 0.35753 0.50146 0.03767 0.0
N100 N 0.34714 0.48323 0.04641 0.0
C101 C 0.34389 0.49951 0.08601 0.0
C102 C 0.36141 0.5194 0.05306 0.0
C103 C 0.34031 0.48189 0.07005 0.0
C104 C 0.31729 0.53064 0.14053 0.0
N105 N 0.3352 0.54287 0.14665 0.0
C106 C 0.32588 0.54075 0.18899 0.0
C107 C 0.34008 0.54752 0.17033 0.0
C108 C 0.30653 0.52916 0.18307 0.0
C109 C 0.30268 0.52353 0.15854 0.0
H110 H 0.31378 0.52737 0.12149 0.0
H111 H 0.35443 0.55731 0.17467 0.0
C112 C 0.42794 0.55943 0.07899 0.0
N113 N 0.41199 0.54414 0.08297 0.0
C114 C 0.44709 0.5537 0.06646 0.0
C115 C 0.43338 0.51637 0.06329 0.0
C116 C 0.41459 0.52277 0.07617 0.0
C117 C 0.44956 0.53213 0.05767 0.0
H118 H 0.42507 0.57643 0.08403 0.0
H119 H 0.40157 0.51099 0.07947 0.0
C120 C 0.31547 0.58794 0.09514 0.0
N121 N 0.27653 0.60082 0.07313 0.0
C122 C 0.31534 0.60529 0.07832 0.0
C123 C 0.29572 0.57732 0.10099 0.0
C124 C 0.29551 0.61152 0.06735 0.0
C125 C 0.27623 0.58402 0.0896 0.0
C126 C 0.3809 0.58795 0.04861 0.0
C127 C 0.37533 0.6097 0.04276 0.0
C128 C 0.39306 0.5754 0.03195 0.0
C129 C 0.38183 0.61843 0.02026 0.0
C130 C 0.39926 0.58473 0.00964 0.0
N131 N 0.39355 0.60587 0.0043 0.0
C132 C 0.39245 0.62724 0.0987 0.0
C133 C 0.35605 0.6354 0.11157 0.0
C134 C 0.39689 0.64954 0.09518 0.0
N135 N 0.37206 0.62064 0.10582 0.0
C136 C 0.35975 0.65791 0.10823 0.0
C137 C 0.38011 0.66513 0.09894 0.0
H138 H 0.40475 0.61504 0.09403 0.0
H139 H 0.34 0.62962 0.1173 0.0
C140 C 0.3109 0.54451 0.05439 0.0
N141 N 0.32705 0.55971 0.05089 0.0
C142 C 0.29337 0.54297 0.03802 0.0
C143 C 0.30958 0.57241 0.01435 0.0
C144 C 0.32696 0.57318 0.03103 0.0
C145 C 0.29215 0.55755 0.0181 0.0
H146 H 0.31106 0.53431 0.07059 0.0
H147 H 0.33959 0.58547 0.02882 0.0
O148 O 0.38099 0.56867 0.12579 0.0
O149 O 0.35794 0.53592 0.09271 0.0
O150 O 0.33487 0.58111 0.10542 0.0
O151 O 0.37503 0.57923 0.07077 0.0
H152 H 0.42348 0.57788 0.12974 0.0
H153 H 0.35866 0.59454 0.15583 0.0
H154 H 0.43907 0.60684 0.15671 0.0
H155 H 0.37541 0.62305 0.18255 0.0
H156 H 0.36273 0.50205 0.01877 0.0
H157 H 0.33856 0.4984 0.10484 0.0
H158 H 0.36948 0.53396 0.04609 0.0
H159 H 0.33212 0.46715 0.07646 0.0
H160 H 0.3294 0.54561 0.20763 0.0
H161 H 0.28814 0.51438 0.1532 0.0
H162 H 0.45906 0.56637 0.0622 0.0
H163 H 0.43485 0.49953 0.05693 0.0
H164 H 0.33046 0.61359 0.07344 0.0
H165 H 0.29545 0.56394 0.11402 0.0
H166 H 0.29523 0.62477 0.05412 0.0
H167 H 0.26086 0.57583 0.09382 0.0
H168 H 0.36597 0.61973 0.05534 0.0
H169 H 0.39783 0.55866 0.03619 0.0
H170 H 0.37756 0.6352 0.01549 0.0
H171 H 0.40867 0.57519 0.9966 0.0
H172 H 0.41272 0.65429 0.08772 0.0
H173 H 0.34647 0.66943 0.11164 0.0
H174 H 0.2805 0.53103 0.0415 0.0
H175 H 0.30921 0.58426 -0.00045 0.0
Li176 Li 0.94611 0.37115 0.08286 0.0
Li177 Li 0.94574 0.3364 0.11016 0.0
Li178 Li 0.93568 0.33468 0.06645 0.0
Li179 Li 0.9125 0.35333 0.09523 0.0
C180 C 0.97872 0.33384 0.06491 0.0
N181 N 0.00529 0.31284 0.03118 0.0
C182 C 0.98944 0.31424 0.07112 0.0
C183 C 0.98162 0.34285 0.04161 0.0
C184 C 0.00279 0.30386 0.0538 0.0
C185 C 0.99508 0.33196 0.02479 0.0
C186 C 0.92216 0.37707 0.13444 0.0
C187 C 0.89717 0.37463 0.1686 0.0
N188 N 0.89549 0.39698 0.16891 0.0
C189 C 0.92042 0.40002 0.13529 0.0
C190 C 0.91066 0.36427 0.1514 0.0
C191 C 0.90677 0.40977 0.15278 0.0
C192 C 0.94472 0.41559 0.07206 0.0
N193 N 0.95879 0.39826 0.07374 0.0
C194 C 0.98691 0.41842 0.05302 0.0
C195 C 0.97977 0.39947 0.06517 0.0
C196 C 0.9723 0.43617 0.04986 0.0
C197 C 0.95121 0.43489 0.06028 0.0
H198 H 0.92798 0.41392 0.07857 0.0
H199 H 0.99053 0.38532 0.06659 0.0
C200 C 0.95961 0.29776 0.13221 0.0
N201 N 0.9583 0.31985 0.13587 0.0
C202 C 0.96531 0.28377 0.1514 0.0
C203 C 0.96937 0.31566 0.17751 0.0
C204 C 0.96335 0.32906 0.1578 0.0
C205 C 0.96987 0.2926 0.17463 0.0
H206 H 0.95514 0.29093 0.11463 0.0
H207 H 0.96195 0.3467 0.1602 0.0
C208 C 0.9025 0.3661 0.04856 0.0
N209 N 0.86344 0.37236 0.02351 0.0
C210 C 0.88812 0.34844 0.04478 0.0
C211 C 0.89712 0.38691 0.03934 0.0
C212 C 0.86842 0.35195 0.03217 0.0
C213 C 0.87728 0.38974 0.02676 0.0
C214 C 0.907 0.3053 0.10163 0.0
C215 C 0.89609 0.29255 0.08411 0.0
C216 C 0.90404 0.30065 0.12645 0.0
C217 C 0.88209 0.27563 0.09174 0.0
C218 C 0.88992 0.28357 0.13334 0.0
N219 N 0.8793 0.27153 0.11599 0.0
C220 C 0.9426 0.29492 0.04165 0.0
C221 C 0.93317 0.32481 0.01572 0.0
C222 C 0.94393 0.28076 0.02164 0.0
N223 N 0.93718 0.31643 0.03835 0.0
C224 C 0.93406 0.31116 0.99519 0.0
C225 C 0.93945 0.28881 0.99807 0.0
H226 H 0.94575 0.28878 0.05989 0.0
H227 H 0.92925 0.34209 0.01361 0.0
C228 C 0.87747 0.38261 0.0973 0.0
N229 N 0.88236 0.36102 0.10115 0.0
C230 C 0.85572 0.38922 0.09368 0.0
C231 C 0.84418 0.3516 0.10041 0.0
C232 C 0.86619 0.34571 0.10386 0.0
C233 C 0.83888 0.37339 0.09399 0.0
H234 H 0.89064 0.39437 0.0947 0.0
H235 H 0.87027 0.32866 0.10684 0.0
O236 O 0.96505 0.3439 0.08135 0.0
O237 O 0.93523 0.36719 0.11725 0.0
O238 O 0.92138 0.36319 0.06191 0.0
O239 O 0.92086 0.32188 0.09444 0.0
H240 H 0.98737 0.30706 0.08908 0.0
H241 H 0.9732 0.35787 0.03641 0.0
H242 H 0.01111 0.28863 0.05831 0.0
H243 H 0.99732 0.33864 0.00662 0.0
H244 H 0.88804 0.3649 0.18172 0.0
H245 H 0.92951 0.41021 0.12261 0.0
H246 H 0.91204 0.34654 0.1512 0.0
H247 H 0.90517 0.42752 0.15355 0.0
H248 H 0.00338 0.41888 0.04541 0.0
H249 H 0.93935 0.44807 0.05797 0.0
H250 H 0.96501 0.26615 0.14829 0.0
H251 H 0.97304 0.32327 0.19494 0.0
H252 H 0.89198 0.3323 0.0519 0.0
H253 H 0.90805 0.40077 0.04199 0.0
H254 H 0.85704 0.33846 0.02937 0.0
H255 H 0.87285 0.40578 0.01965 0.0
H256 H 0.8984 0.29563 0.06481 0.0
H257 H 0.91259 0.31002 0.14028 0.0
H258 H 0.87347 0.26571 0.07837 0.0
H259 H 0.88744 0.27985 0.15249 0.0
H260 H 0.94784 0.26356 0.02468 0.0
H261 H 0.93064 0.31799 0.97729 0.0
H262 H 0.85245 0.40613 0.08848 0.0
H263 H 0.83161 0.33895 0.10114 0.0
Li264 Li 0.11844 0.94525 0.08581 0.0
Li265 Li 0.14927 0.9413 0.11249 0.0
Li266 Li 0.15399 0.9371 0.06776 0.0
Li267 Li 0.13339 0.90885 0.09296 0.0
C268 C 0.14075 0.98402 0.0971 0.0
N269 N 0.1319 0.02398 0.11928 0.0
C270 C 0.12581 0.98518 0.1165 0.0
C271 C 0.15116 0.0032 0.08896 0.0
C272 C 0.12157 0.00552 0.12749 0.0
C273 C 0.14647 0.02325 0.10041 0.0
C274 C 0.11519 0.922 0.14025 0.0
C275 C 0.12217 0.89728 0.17391 0.0
N276 N 0.10736 0.90857 0.18773 0.0
C277 C 0.09984 0.9332 0.15469 0.0
C278 C 0.12628 0.90376 0.14983 0.0
C279 C 0.09619 0.92621 0.17869 0.0
C280 C 0.07323 0.94495 0.08177 0.0
N281 N 0.09097 0.95822 0.07819 0.0
C282 C 0.06938 0.98348 0.05485 0.0
C283 C 0.08939 0.97745 0.06556 0.0
C284 C 0.05124 0.96927 0.05683 0.0
C285 C 0.05309 0.95009 0.07094 0.0
H286 H 0.07521 0.92953 0.09147 0.0
H287 H 0.10394 0.98734 0.06243 0.0
C288 C 0.18773 0.95162 0.13611 0.0
N289 N 0.16565 0.9511 0.14005 0.0
C290 C 0.20216 0.95646 0.15516 0.0
C291 C 0.17081 0.96149 0.18181 0.0
C292 C 0.15693 0.95636 0.16219 0.0
C293 C 0.19382 0.96119 0.17854 0.0
H294 H 0.19417 0.94753 0.11825 0.0
H295 H 0.1393 0.9563 0.16476 0.0
C296 C 0.11132 0.92465 0.04274 0.0
N297 N 0.08037 0.93058 0.00632 0.0
C298 C 0.09328 0.91043 0.04101 0.0
C299 C 0.11377 0.94174 0.02582 0.0
C300 C 0.07777 0.91374 0.02249 0.0
C301 C 0.09789 0.9445 0.00758 0.0
C302 C 0.1798 0.90193 0.10071 0.0
C303 C 0.19201 0.8913 0.08253 0.0
C304 C 0.18339 0.89652 0.12525 0.0
C305 C 0.20722 0.87508 0.08915 0.0
C306 C 0.19878 0.88024 0.13113 0.0
N307 N 0.21025 0.86991 0.11311 0.0
C308 C 0.18485 0.95958 0.03856 0.0
C309 C 0.17565 0.92363 0.02506 0.0
C310 C 0.20051 0.96165 0.02001 0.0
N311 N 0.17316 0.94064 0.04094 0.0
C312 C 0.19134 0.92484 0.00647 0.0
C313 C 0.20438 0.94389 0.00403 0.0
H314 H 0.1824 0.97286 0.05144 0.0
H315 H 0.16601 0.90879 0.02745 0.0
C316 C 0.10418 0.87444 0.10177 0.0
N317 N 0.12495 0.87884 0.09388 0.0
C318 C 0.09519 0.85347 0.09869 0.0
C319 C 0.12944 0.84176 0.08023 0.0
C320 C 0.13773 0.863 0.08357 0.0
C321 C 0.10768 0.83698 0.0872 0.0
H322 H 0.09418 0.88754 0.1093 0.0
H323 H 0.15385 0.86712 0.07664 0.0
O324 O 0.14528 0.96428 0.08606 0.0
O325 O 0.11895 0.92872 0.11674 0.0
O326 O 0.12632 0.9221 0.06116 0.0
O327 O 0.16499 0.91802 0.0945 0.0
H328 H 0.11752 0.97059 0.12302 0.0
H329 H 0.16274 0.00263 0.07393 0.0
H330 H 0.11005 0.00662 0.14253 0.0
H331 H 0.15441 0.03822 0.09429 0.0
H332 H 0.1307 0.88322 0.18157 0.0
H333 H 0.09091 0.9472 0.14745 0.0
H334 H 0.13775 0.89455 0.13874 0.0
H335 H 0.08445 0.93481 0.19012 0.0
H336 H 0.06846 0.9983 0.04384 0.0
H337 H 0.03938 0.93878 0.07272 0.0
H338 H 0.2197 0.95566 0.15171 0.0
H339 H 0.16359 0.96543 0.19937 0.0
H340 H 0.09116 0.89714 0.05401 0.0
H341 H 0.12762 0.95293 0.02701 0.0
H342 H 0.06362 0.90299 0.02103 0.0
H343 H 0.09946 0.95777 0.99448 0.0
H344 H 0.18964 0.89539 0.06348 0.0
H345 H 0.17461 0.90495 0.13966 0.0
H346 H 0.21664 0.86661 0.07524 0.0
H347 H 0.20166 0.87588 0.15004 0.0
H348 H 0.20981 0.97681 0.0186 0.0
H349 H 0.19386 0.91059 0.9949 0.0
H350 H 0.07836 0.85044 0.10436 0.0
H351 H 0.13947 0.82967 0.07084 0.0
Li352 Li 0.58829 0.36937 0.3883 0.0
Li353 Li 0.57155 0.34626 0.41818 0.0
Li354 Li 0.55904 0.34516 0.37611 0.0
Li355 Li 0.55189 0.37862 0.4033 0.0
C356 C 0.60357 0.32614 0.3756 0.0
N357 N 0.63517 0.30461 0.34813 0.0
C358 C 0.62052 0.31447 0.38715 0.0
C359 C 0.60261 0.32666 0.35008 0.0
C360 C 0.63637 0.30376 0.37294 0.0
C361 C 0.61875 0.31572 0.33652 0.0
C362 C 0.59732 0.38069 0.43649 0.0
C363 C 0.61803 0.40363 0.46424 0.0
N364 N 0.63462 0.38855 0.46417 0.0
C365 C 0.61455 0.36539 0.43679 0.0
C366 C 0.59904 0.39995 0.45038 0.0
C367 C 0.63326 0.36967 0.45087 0.0
C368 C 0.6145 0.40636 0.38699 0.0
N369 N 0.6154 0.38445 0.38188 0.0
C370 C 0.65472 0.38507 0.38363 0.0
C371 C 0.63502 0.37394 0.37897 0.0
C372 C 0.6541 0.40714 0.39139 0.0
C373 C 0.63375 0.41813 0.39162 0.0
H374 H 0.59872 0.41422 0.3898 0.0
H375 H 0.63551 0.35654 0.37526 0.0
C376 C 0.58347 0.30768 0.4425 0.0
N377 N 0.5764 0.32863 0.44627 0.0
C378 C 0.58848 0.29417 0.46232 0.0
C379 C 0.57778 0.3237 0.48959 0.0
C380 C 0.57341 0.33684 0.46917 0.0
C381 C 0.58573 0.30223 0.48615 0.0
H382 H 0.58537 0.30155 0.42407 0.0
H383 H 0.56776 0.35361 0.47154 0.0
C384 C 0.56975 0.39358 0.35312 0.0
N385 N 0.58618 0.42627 0.32298 0.0
C386 C 0.56177 0.41514 0.35491 0.0
C387 C 0.58578 0.38859 0.33562 0.0
C388 C 0.57036 0.43145 0.33961 0.0
C389 C 0.59397 0.40536 0.32067 0.0
C390 C 0.53054 0.33576 0.42419 0.0
C391 C 0.5281 0.31301 0.42135 0.0
C392 C 0.52362 0.34585 0.44584 0.0
C393 C 0.51887 0.30067 0.44032 0.0
C394 C 0.51443 0.33293 0.46437 0.0
N395 N 0.51229 0.3108 0.46126 0.0
C396 C 0.55142 0.30425 0.35505 0.0
C397 C 0.53646 0.33394 0.33223 0.0
C398 C 0.54441 0.28917 0.3375 0.0
N399 N 0.5475 0.32612 0.35202 0.0
C400 C 0.52909 0.31939 0.31417 0.0
C401 C 0.53321 0.29667 0.31661 0.0
H402 H 0.56047 0.2986 0.3709 0.0
H403 H 0.53365 0.35146 0.33034 0.0
C404 C 0.5453 0.42093 0.4186 0.0
N405 N 0.534 0.4022 0.41349 0.0
C406 C 0.53487 0.43849 0.43013 0.0
C407 C 0.50103 0.41741 0.43027 0.0
C408 C 0.51217 0.40021 0.41856 0.0
C409 C 0.51257 0.43668 0.43665 0.0
H410 H 0.5627 0.42187 0.4145 0.0
H411 H 0.50369 0.38497 0.4145 0.0
O412 O 0.58788 0.33659 0.38934 0.0
O413 O 0.57923 0.37733 0.42199 0.0
O414 O 0.56157 0.37746 0.36813 0.0
O415 O 0.54013 0.34803 0.40612 0.0
H416 H 0.62155 0.31383 0.40689 0.0
H417 H 0.58945 0.33522 0.3408 0.0
H418 H 0.64962 0.29479 0.38165 0.0
H419 H 0.61818 0.316 0.31675 0.0
H420 H 0.61961 0.41851 0.47498 0.0
H421 H 0.61363 0.3505 0.42603 0.0
H422 H 0.58591 0.41201 0.45035 0.0
H423 H 0.64676 0.35802 0.45113 0.0
H424 H 0.67001 0.37587 0.38339 0.0
H425 H 0.63254 0.43522 0.39718 0.0
H426 H 0.59437 0.27757 0.4591 0.0
H427 H 0.57551 0.33035 0.50779 0.0
H428 H 0.54897 0.41923 0.36786 0.0
H429 H 0.5921 0.37207 0.33379 0.0
H430 H 0.5644 0.44821 0.34091 0.0
H431 H 0.60655 0.40175 0.30725 0.0
H432 H 0.53345 0.30494 0.40476 0.0
H433 H 0.5257 0.36339 0.44851 0.0
H434 H 0.51698 0.28302 0.43842 0.0
H435 H 0.50914 0.34049 0.48129 0.0
H436 H 0.54836 0.27191 0.33994 0.0
H437 H 0.52038 0.32587 0.29846 0.0
H438 H 0.54451 0.45284 0.43501 0.0
H439 H 0.48379 0.41544 0.43485 0.0
Li440 Li 0.12973 0.59037 0.39363 0.0
Li441 Li 0.14944 0.56701 0.42125 0.0
Li442 Li 0.14876 0.55798 0.37835 0.0
Li443 Li 0.1143 0.55484 0.40504 0.0
C444 C 0.17348 0.6027 0.39906 0.0
N445 N 0.1971 0.64036 0.40994 0.0
C446 C 0.16885 0.61463 0.4203 0.0
C447 C 0.19017 0.60989 0.38338 0.0
C448 C 0.18096 0.63363 0.42548 0.0
C449 C 0.20192 0.62899 0.38919 0.0
C450 C 0.11304 0.58511 0.44876 0.0
C451 C 0.09594 0.57413 0.48671 0.0
N452 N 0.09742 0.59523 0.49492 0.0
C453 C 0.11421 0.60673 0.45754 0.0
C454 C 0.10368 0.56871 0.46343 0.0
C455 C 0.10631 0.61149 0.48094 0.0
C456 C 0.10155 0.62587 0.39884 0.0
N457 N 0.12082 0.62001 0.38804 0.0
C458 C 0.12918 0.65761 0.37926 0.0
C459 C 0.13403 0.63519 0.37713 0.0
C460 C 0.11042 0.66425 0.39241 0.0
C461 C 0.09596 0.64802 0.40122 0.0
H462 H 0.0913 0.61337 0.40717 0.0
H463 H 0.149 0.63005 0.36811 0.0
C464 C 0.19054 0.57015 0.44399 0.0
N465 N 0.16888 0.56667 0.44899 0.0
C466 C 0.20555 0.57335 0.46291 0.0
C467 C 0.17626 0.56693 0.49196 0.0
C468 C 0.1617 0.56421 0.47241 0.0
C469 C 0.19829 0.57234 0.48721 0.0
H470 H 0.19607 0.57115 0.42525 0.0
H471 H 0.14469 0.56051 0.47604 0.0
C472 C 0.10949 0.58124 0.3538 0.0
N473 N 0.09343 0.61111 0.32012 0.0
C474 C 0.08725 0.58718 0.35413 0.0
C475 C 0.12356 0.59039 0.33632 0.0
C476 C 0.07945 0.60234 0.33695 0.0
C477 C 0.11512 0.60548 0.31945 0.0
C478 C 0.15406 0.52483 0.42251 0.0
C479 C 0.17617 0.51995 0.41793 0.0
C480 C 0.14411 0.5172 0.44395 0.0
C481 C 0.18806 0.50764 0.43504 0.0
C482 C 0.15656 0.50494 0.46059 0.0
N483 N 0.1781 0.50047 0.45584 0.0
C484 C 0.1881 0.54946 0.35523 0.0
C485 C 0.15731 0.53676 0.33257 0.0
C486 C 0.20244 0.54283 0.33678 0.0
N487 N 0.16605 0.54649 0.35273 0.0
C488 C 0.1711 0.52983 0.31358 0.0
C489 C 0.19401 0.53302 0.31548 0.0
H490 H 0.19451 0.55739 0.37145 0.0
H491 H 0.13965 0.53473 0.3311 0.0
C492 C 0.07065 0.55549 0.41715 0.0
N493 N 0.0874 0.54119 0.41282 0.0
C494 C 0.05171 0.54839 0.42911 0.0
C495 C 0.06687 0.51152 0.43008 0.0
C496 C 0.0857 0.51942 0.41827 0.0
C497 C 0.04992 0.52628 0.43651 0.0
H498 H 0.07278 0.5728 0.41307 0.0
H499 H 0.09944 0.50851 0.4148 0.0
O500 O 0.16167 0.58418 0.39342 0.0
O501 O 0.12016 0.58027 0.42559 0.0
O502 O 0.11762 0.567 0.37093 0.0
O503 O 0.14235 0.53742 0.40634 0.0
H504 H 0.15616 0.60918 0.4327 0.0
H505 H 0.19391 0.60088 0.36681 0.0
H506 H 0.17754 0.643 0.44187 0.0
H507 H 0.21484 0.63478 0.37719 0.0
H508 H 0.08879 0.56155 0.49826 0.0
H509 H 0.12101 0.61979 0.4464 0.0
H510 H 0.10269 0.55187 0.45713 0.0
H511 H 0.10717 0.62814 0.48794 0.0
H512 H 0.14057 0.66964 0.37189 0.0
H513 H 0.08142 0.65237 0.41163 0.0
H514 H 0.22258 0.57704 0.45861 0.0
H515 H 0.17018 0.5658 0.51053 0.0
H516 H 0.07618 0.58029 0.36762 0.0
H517 H 0.14087 0.58609 0.336 0.0
H518 H 0.06229 0.60718 0.33703 0.0
H519 H 0.12583 0.61279 0.30588 0.0
H520 H 0.18413 0.52578 0.40148 0.0
H521 H 0.12705 0.52093 0.44784 0.0
H522 H 0.20523 0.50385 0.4318 0.0
H523 H 0.14911 0.49904 0.47732 0.0
H524 H 0.21988 0.54604 0.33889 0.0
H525 H 0.16391 0.52223 0.29754 0.0
H526 H 0.03936 0.5605 0.43396 0.0
H527 H 0.06604 0.49426 0.43502 0.0
Li528 Li 0.92728 0.14383 0.41785 0.0
Li529 Li 0.90269 0.12207 0.39334 0.0
Li530 Li 0.93929 0.10755 0.40321 0.0
Li531 Li 0.93521 0.14017 0.37478 0.0
C532 C 0.90557 0.10836 0.44641 0.0
N533 N 0.8858 0.09388 0.48904 0.0
C534 C 0.88359 0.11365 0.45136 0.0
C535 C 0.91748 0.09568 0.46321 0.0
C536 C 0.87389 0.10617 0.47298 0.0
C537 C 0.9072 0.08855 0.48465 0.0
C538 C 0.90218 0.17396 0.39824 0.0
C539 C 0.90762 0.21322 0.4017 0.0
N540 N 0.89027 0.21442 0.41737 0.0
C541 C 0.88433 0.1756 0.41428 0.0
C542 C 0.91386 0.19294 0.3918 0.0
C543 C 0.87858 0.19619 0.42377 0.0
C544 C 0.94579 0.17961 0.44301 0.0
N545 N 0.92927 0.16454 0.44413 0.0
C546 C 0.91383 0.18257 0.47896 0.0
C547 C 0.91371 0.16543 0.46196 0.0
C548 C 0.93033 0.19881 0.47785 0.0
C549 C 0.94685 0.19672 0.45996 0.0
H550 H 0.95779 0.17876 0.42844 0.0
H551 H 0.90047 0.15363 0.46219 0.0
C552 C 0.87069 0.08985 0.39604 0.0
N553 N 0.87325 0.11164 0.39118 0.0
C554 C 0.85012 0.08157 0.40248 0.0
C555 C 0.83485 0.11807 0.39723 0.0
C556 C 0.85573 0.12555 0.39031 0.0
C557 C 0.83213 0.09603 0.4047 0.0
H558 H 0.88497 0.07923 0.39683 0.0
H559 H 0.85824 0.1428 0.3863 0.0
C560 C 0.97335 0.13569 0.41881 0.0
N561 N 0.00827 0.13466 0.45121 0.0
C562 C 0.99449 0.14145 0.41098 0.0
C563 C 0.96994 0.12955 0.44315 0.0
C564 C 0.01194 0.14078 0.42763 0.0
C565 C 0.9878 0.12909 0.45924 0.0
C566 C 0.91174 0.09781 0.35458 0.0
C567 C 0.91272 0.07485 0.35281 0.0
C568 C 0.89641 0.1095 0.34059 0.0
C569 C 0.89817 0.06393 0.33716 0.0
C570 C 0.88213 0.09797 0.32517 0.0
N571 N 0.8833 0.07561 0.3238 0.0
C572 C 0.93797 0.06414 0.41609 0.0
C573 C 0.97409 0.07864 0.41979 0.0
C574 C 0.94406 0.04512 0.42863 0.0
N575 N 0.95273 0.08069 0.41267 0.0
C576 C 0.98083 0.05999 0.43279 0.0
C577 C 0.96549 0.0433 0.43798 0.0
H578 H 0.92102 0.06642 0.41058 0.0
H579 H 0.98561 0.0919 0.41666 0.0
C580 C 0.96157 0.17221 0.35346 0.0
N581 N 0.94725 0.15575 0.34791 0.0
C582 C 0.96886 0.18661 0.33531 0.0
C583 C 0.94761 0.16598 0.30573 0.0
C584 C 0.94056 0.15207 0.32454 0.0
C585 C 0.96148 0.18387 0.31117 0.0
H586 H 0.96658 0.17472 0.37224 0.0
H587 H 0.92921 0.13884 0.32062 0.0
O588 O 0.91517 0.11486 0.42491 0.0
O589 O 0.90846 0.15384 0.38927 0.0
O590 O 0.95611 0.13639 0.40271 0.0
O591 O 0.92558 0.10877 0.37011 0.0
H592 H 0.87413 0.1236 0.43879 0.0
H593 H 0.93447 0.09131 0.45975 0.0
H594 H 0.8569 0.11016 0.47699 0.0
H595 H 0.91624 0.07872 0.49776 0.0
H596 H 0.91661 0.22801 0.39697 0.0
H597 H 0.87533 0.16108 0.41987 0.0
H598 H 0.92769 0.19203 0.37942 0.0
H599 H 0.86494 0.19765 0.43639 0.0
H600 H 0.90045 0.18361 0.49199 0.0
H601 H 0.96017 0.2085 0.45857 0.0
H602 H 0.84871 0.06433 0.40735 0.0
H603 H 0.82153 0.12986 0.39864 0.0
H604 H 0.99737 0.14634 0.39222 0.0
H605 H 0.95368 0.12526 0.44957 0.0
H606 H 0.02841 0.14514 0.42181 0.0
H607 H 0.9854 0.12433 0.47811 0.0
H608 H 0.92457 0.06558 0.36342 0.0
H609 H 0.89529 0.12726 0.34197 0.0
H610 H 0.8987 0.04616 0.33565 0.0
H611 H 0.87007 0.10678 0.31437 0.0
H612 H 0.93172 0.0327 0.43247 0.0
H613 H 0.99759 0.059 0.43952 0.0
H614 H 0.97973 0.20006 0.34019 0.0
H615 H 0.94142 0.1634 0.28738 0.0
Li616 Li 0.35394 0.9276 0.41604 0.0
Li617 Li 0.37383 0.90161 0.39147 0.0
Li618 Li 0.38923 0.93846 0.39828 0.0
Li619 Li 0.355 0.93345 0.37229 0.0
C620 C 0.3894 0.90673 0.44394 0.0
N621 N 0.40307 0.88918 0.48809 0.0
C622 C 0.38435 0.8849 0.44997 0.0
C623 C 0.40158 0.91955 0.46034 0.0
C624 C 0.39135 0.87636 0.47238 0.0
C625 C 0.40828 0.9104 0.48257 0.0
C626 C 0.32266 0.90167 0.40048 0.0
C627 C 0.28381 0.90723 0.40752 0.0
N628 N 0.28389 0.89028 0.4238 0.0
C629 C 0.32232 0.88423 0.4172 0.0
C630 C 0.30323 0.91319 0.39551 0.0
C631 C 0.30256 0.87874 0.4288 0.0
C632 C 0.32019 0.94836 0.44241 0.0
N633 N 0.33472 0.93135 0.44354 0.0
C634 C 0.3181 0.9183 0.48042 0.0
C635 C 0.33422 0.91667 0.46231 0.0
C636 C 0.30248 0.9354 0.47941 0.0
C637 C 0.30415 0.95093 0.46041 0.0
H638 H 0.32059 0.95959 0.42708 0.0
H639 H 0.34548 0.90295 0.46256 0.0
C640 C 0.40515 0.86833 0.39353 0.0
N641 N 0.38335 0.87186 0.38953 0.0
C642 C 0.4129 0.84715 0.39826 0.0
C643 C 0.37572 0.83346 0.3937 0.0
C644 C 0.36879 0.8549 0.38838 0.0
C645 C 0.39793 0.8295 0.39979 0.0
H646 H 0.41631 0.88219 0.39455 0.0
H647 H 0.35155 0.85819 0.38504 0.0
C648 C 0.36223 0.97395 0.41278 0.0
N649 N 0.36539 0.01135 0.44134 0.0
C650 C 0.35612 0.99443 0.40327 0.0
C651 C 0.36981 0.97246 0.43685 0.0
C652 C 0.35787 0.01316 0.41799 0.0
C653 C 0.37132 0.99156 0.45098 0.0
C654 C 0.39719 0.90883 0.35151 0.0
C655 C 0.42019 0.90947 0.35042 0.0
C656 C 0.38566 0.89319 0.33781 0.0
C657 C 0.4313 0.89427 0.33572 0.0
C658 C 0.39737 0.87826 0.32336 0.0
N659 N 0.41976 0.8791 0.32263 0.0
C660 C 0.4325 0.93853 0.41216 0.0
C661 C 0.41859 0.97483 0.40772 0.0
C662 C 0.45133 0.94641 0.42377 0.0
N663 N 0.41626 0.95266 0.40532 0.0
C664 C 0.43718 0.98346 0.41938 0.0
C665 C 0.4534 0.96906 0.42848 0.0
H666 H 0.43012 0.92097 0.41006 0.0
H667 H 0.40551 0.98574 0.40199 0.0
C668 C 0.32122 0.95807 0.35147 0.0
N669 N 0.33806 0.94423 0.34578 0.0
C670 C 0.30603 0.96433 0.33361 0.0
C671 C 0.32666 0.94312 0.304 0.0
C672 C 0.34133 0.93707 0.32252 0.0
C673 C 0.30842 0.95647 0.30962 0.0
H674 H 0.3191 0.96354 0.37015 0.0
H675 H 0.35489 0.92613 0.31849 0.0
O676 O 0.38323 0.91523 0.42176 0.0
O677 O 0.34198 0.90769 0.38942 0.0
O678 O 0.36063 0.95548 0.39855 0.0
O679 O 0.38605 0.92333 0.36612 0.0
H680 H 0.37493 0.87469 0.43764 0.0
H681 H 0.40595 0.93637 0.45595 0.0
H682 H 0.38747 0.85953 0.47728 0.0
H683 H 0.41769 0.92016 0.49541 0.0
H684 H 0.2687 0.91611 0.40395 0.0
H685 H 0.33722 0.87533 0.42161 0.0
H686 H 0.30314 0.9267 0.38266 0.0
H687 H 0.30212 0.86542 0.44194 0.0
H688 H 0.3173 0.90561 0.4943 0.0
H689 H 0.29282 0.96465 0.45899 0.0
H690 H 0.43026 0.8449 0.40202 0.0
H691 H 0.36347 0.82055 0.39472 0.0
H692 H 0.35015 0.99582 0.38468 0.0
H693 H 0.37433 0.95672 0.44455 0.0
H694 H 0.35325 0.02914 0.41085 0.0
H695 H 0.37719 0.99064 0.46964 0.0
H696 H 0.42935 0.92152 0.36086 0.0
H697 H 0.36786 0.89233 0.3387 0.0
H698 H 0.4491 0.89451 0.33475 0.0
H699 H 0.38867 0.86595 0.3128 0.0
H700 H 0.46364 0.93478 0.43003 0.0
H701 H 0.43808 0.00104 0.42266 0.0
H702 H 0.29233 0.97484 0.33861 0.0
H703 H 0.32899 0.9366 0.28575 0.0
Li704 Li 0.4493 0.87362 0.91395 0.0
Li705 Li 0.41047 0.87399 0.9102 0.0
Li706 Li 0.4284 0.84473 0.93253 0.0
Li707 Li 0.43065 0.84619 0.88691 0.0
C708 C 0.43689 0.89254 0.95427 0.0
N709 N 0.45662 0.926 0.98075 0.0
C710 C 0.43121 0.91455 0.94991 0.0
C711 C 0.45272 0.88762 0.97204 0.0
C712 C 0.44132 0.9312 0.96353 0.0
C713 C 0.46248 0.90475 0.98523 0.0
C714 C 0.42048 0.89169 0.86713 0.0
C715 C 0.40094 0.89597 0.82899 0.0
N716 N 0.39716 0.91751 0.83447 0.0
C717 C 0.41643 0.91389 0.87234 0.0
C718 C 0.41269 0.88265 0.84526 0.0
C719 C 0.4046 0.92666 0.85561 0.0
C720 C 0.49216 0.88448 0.93101 0.0
N721 N 0.47453 0.89184 0.91804 0.0
C722 C 0.48652 0.92905 0.92205 0.0
C723 C 0.47228 0.91344 0.91213 0.0
C724 C 0.50341 0.92225 0.93797 0.0
C725 C 0.50698 0.89952 0.94115 0.0
H726 H 0.49369 0.86717 0.93521 0.0
H727 H 0.45814 0.91881 0.90179 0.0
C728 C 0.37839 0.89733 0.93504 0.0
N729 N 0.38368 0.89096 0.91196 0.0
C730 C 0.35881 0.90842 0.93968 0.0
C731 C 0.34956 0.90547 0.89685 0.0
C732 C 0.36963 0.89462 0.89295 0.0
C733 C 0.34407 0.91258 0.9205 0.0
H734 H 0.3891 0.8932 0.95012 0.0
H735 H 0.3736 0.88855 0.87493 0.0
C736 C 0.46366 0.82269 0.92121 0.0
N737 N 0.47971 0.78441 0.94206 0.0
C738 C 0.46214 0.80269 0.90864 0.0
C739 C 0.47343 0.82321 0.94436 0.0
C740 C 0.47035 0.78353 0.91949 0.0
C741 C 0.4814 0.80368 0.95461 0.0
C742 C 0.3825 0.8407 0.90947 0.0
C743 C 0.37236 0.84045 0.93241 0.0
C744 C 0.36955 0.84083 0.88833 0.0
C745 C 0.34938 0.8404 0.93382 0.0
C746 C 0.34661 0.84073 0.89051 0.0
N747 N 0.33709 0.84054 0.91302 0.0
C748 C 0.42575 0.83059 0.98243 0.0
C749 C 0.41822 0.80371 0.95209 0.0
C750 C 0.42113 0.81543 0.00097 0.0
N751 N 0.4243 0.82444 0.95858 0.0
C752 C 0.4132 0.78815 0.96996 0.0
C753 C 0.41449 0.79401 0.99475 0.0
H754 H 0.4299 0.84735 0.9871 0.0
H755 H 0.41689 0.79943 0.93295 0.0
C756 C 0.45142 0.82958 0.84475 0.0
N757 N 0.43309 0.82817 0.85891 0.0
C758 C 0.45471 0.81466 0.82565 0.0
C759 C 0.41988 0.79759 0.83577 0.0
C760 C 0.41741 0.81265 0.8548 0.0
C761 C 0.43892 0.79818 0.82112 0.0
H762 H 0.4638 0.84188 0.84881 0.0
H763 H 0.40328 0.81158 0.86673 0.0
O764 O 0.4273 0.87598 0.94093 0.0
O765 O 0.4323 0.87896 0.8831 0.0
O766 O 0.45532 0.84159 0.9111 0.0
O767 O 0.40497 0.84143 0.90774 0.0
H768 H 0.41939 0.91881 0.93589 0.0
H769 H 0.45782 0.87081 0.97526 0.0
H770 H 0.43713 0.94828 0.96025 0.0
H771 H 0.47485 0.90115 0.99891 0.0
H772 H 0.3948 0.88917 0.81203 0.0
H773 H 0.42198 0.92113 0.88931 0.0
H774 H 0.41566 0.86555 0.84085 0.0
H775 H 0.40123 0.94381 0.8595 0.0
H776 H 0.4829 0.94631 0.9191 0.0
H777 H 0.52012 0.89347 0.95273 0.0
H778 H 0.35486 0.91293 0.95833 0.0
H779 H 0.33841 0.90806 0.88166 0.0
H780 H 0.45461 0.80189 0.89076 0.0
H781 H 0.47443 0.83843 0.95456 0.0
H782 H 0.46923 0.76793 0.90998 0.0
H783 H 0.48882 0.80383 0.97259 0.0
H784 H 0.38212 0.84064 0.94896 0.0
H785 H 0.37711 0.84147 0.87043 0.0
H786 H 0.34131 0.84034 0.95145 0.0
H787 H 0.33639 0.84099 0.87432 0.0
H788 H 0.42202 0.8206 0.01989 0.0
H789 H 0.40826 0.77172 0.96448 0.0
H790 H 0.46978 0.81559 0.81512 0.0
H791 H 0.40708 0.78547 0.83277 0.0
Li792 Li 0.62705 0.40713 0.91528 0.0
Li793 Li 0.62469 0.44654 0.91605 0.0
Li794 Li 0.65163 0.42922 0.88879 0.0
Li795 Li 0.65644 0.42989 0.93317 0.0
C796 C 0.61221 0.41446 0.86763 0.0
N797 N 0.59994 0.39026 0.82705 0.0
C798 C 0.59197 0.41842 0.85626 0.0
C799 C 0.62622 0.39821 0.85833 0.0
C800 C 0.58604 0.40598 0.83579 0.0
C801 C 0.61974 0.38617 0.83779 0.0
C802 C 0.60951 0.4336 0.95901 0.0
C803 C 0.59575 0.45832 0.99002 0.0
N804 N 0.57535 0.44933 0.98756 0.0
C805 C 0.58839 0.42459 0.95682 0.0
C806 C 0.61323 0.45058 0.97579 0.0
C807 C 0.57136 0.43275 0.97143 0.0
C808 C 0.6127 0.37402 0.94516 0.0
N809 N 0.61184 0.37999 0.92123 0.0
C810 C 0.58975 0.34838 0.91194 0.0
C811 C 0.60061 0.36764 0.90459 0.0
C812 C 0.59023 0.34211 0.93665 0.0
C813 C 0.602 0.35515 0.95329 0.0
H814 H 0.62154 0.38414 0.95811 0.0
H815 H 0.59973 0.37268 0.88574 0.0
C816 C 0.60891 0.48827 0.9318 0.0
N817 N 0.60359 0.46913 0.92037 0.0
C818 C 0.59237 0.50124 0.94217 0.0
C819 C 0.5653 0.47555 0.92667 0.0
C820 C 0.58232 0.46321 0.91648 0.0
C821 C 0.57031 0.49423 0.94083 0.0
H822 H 0.62599 0.49255 0.93461 0.0
H823 H 0.57868 0.4477 0.90761 0.0
C824 C 0.66683 0.38426 0.91652 0.0
N825 N 0.6817 0.34266 0.92891 0.0
C826 C 0.667 0.37752 0.94096 0.0
C827 C 0.67438 0.36988 0.8984 0.0
C828 C 0.67453 0.35642 0.94685 0.0
C829 C 0.68179 0.34891 0.90503 0.0
C830 C 0.67318 0.46711 0.91886 0.0
C831 C 0.69242 0.46881 0.90496 0.0
C832 C 0.67224 0.47699 0.94193 0.0
C833 C 0.71054 0.48009 0.91454 0.0
C834 C 0.69071 0.48809 0.95088 0.0
N835 N 0.70933 0.48938 0.93713 0.0
C836 C 0.65994 0.43863 0.8383 0.0
C837 C 0.68888 0.42208 0.86094 0.0
C838 C 0.67316 0.43933 0.81739 0.0
N839 N 0.66804 0.4301 0.85944 0.0
C840 C 0.70272 0.42271 0.84066 0.0
C841 C 0.69496 0.43142 0.81844 0.0
H842 H 0.64326 0.44488 0.8377 0.0
H843 H 0.69488 0.41564 0.87813 0.0
C844 C 0.67417 0.42961 0.9816 0.0
N845 N 0.67885 0.42897 0.9573 0.0
C846 C 0.69067 0.42528 0.99876 0.0
C847 C 0.71641 0.42012 0.96548 0.0
C848 C 0.69952 0.42474 0.94903 0.0
C849 C 0.71193 0.41987 0.99066 0.0
H850 H 0.65747 0.43238 0.98763 0.0
H851 H 0.70261 0.424 0.92957 0.0
O852 O 0.61832 0.42686 0.8874 0.0
O853 O 0.62635 0.42606 0.94456 0.0
O854 O 0.65951 0.40485 0.9103 0.0
O855 O 0.65538 0.45583 0.90995 0.0
H856 H 0.58097 0.43101 0.86315 0.0
H857 H 0.64183 0.39478 0.86695 0.0
H858 H 0.57042 0.40886 0.82682 0.0
H859 H 0.63042 0.37353 0.83044 0.0
H860 H 0.59837 0.47158 0.00291 0.0
H861 H 0.58503 0.41174 0.94365 0.0
H862 H 0.62934 0.45799 0.97755 0.0
H863 H 0.55492 0.42603 0.96979 0.0
H864 H 0.58075 0.33875 0.89859 0.0
H865 H 0.60308 0.35073 0.97244 0.0
H866 H 0.59694 0.51578 0.95245 0.0
H867 H 0.54864 0.4693 0.92531 0.0
H868 H 0.66122 0.38837 0.95525 0.0
H869 H 0.67457 0.37486 0.8794 0.0
H870 H 0.67466 0.35098 0.96569 0.0
H871 H 0.68763 0.3376 0.89118 0.0
H872 H 0.69337 0.46156 0.88696 0.0
H873 H 0.65755 0.47573 0.95301 0.0
H874 H 0.72556 0.48146 0.90401 0.0
H875 H 0.69027 0.4956 0.96881 0.0
H876 H 0.66635 0.44591 0.80062 0.0
H877 H 0.71948 0.41686 0.8426 0.0
H878 H 0.68658 0.42497 0.01803 0.0
H879 H 0.73266 0.41615 0.95857 0.0
Li880 Li 0.06014 0.65213 0.88719 0.0
Li881 Li 0.05795 0.65499 0.93186 0.0
Li882 Li 0.08502 0.62997 0.91295 0.0
Li883 Li 0.04636 0.62173 0.9127 0.0
C884 C 0.10219 0.67233 0.91667 0.0
N885 N 0.14149 0.69186 0.93023 0.0
C886 C 0.10826 0.67332 0.9413 0.0
C887 C 0.11607 0.68145 0.89895 0.0
C888 C 0.1282 0.6832 0.94778 0.0
C889 C 0.13588 0.69121 0.90617 0.0
C890 C 0.01876 0.66687 0.91625 0.0
C891 C 0.99399 0.68055 0.94722 0.0
N892 N 0.99046 0.69896 0.93356 0.0
C893 C 0.01476 0.68584 0.90244 0.0
C894 C 0.00817 0.66411 0.93874 0.0
C895 C 0.00044 0.70189 0.91154 0.0
C896 C 0.04989 0.66121 0.837 0.0
N897 N 0.0578 0.66932 0.85843 0.0
C898 C 0.06395 0.70459 0.8404 0.0
C899 C 0.06469 0.69052 0.8605 0.0
C900 C 0.05596 0.69678 0.81791 0.0
C901 C 0.04887 0.67475 0.81633 0.0
H902 H 0.04448 0.64425 0.83597 0.0
H903 H 0.07078 0.6965 0.87786 0.0
C904 C 0.05693 0.6691 0.98129 0.0
N905 N 0.05475 0.67568 0.95765 0.0
C906 C 0.05774 0.68469 2e-05 0.0
C907 C 0.05336 0.71343 0.96976 0.0
C908 C 0.05285 0.69731 0.95161 0.0
C909 C 0.05629 0.70719 0.99428 0.0
H910 H 0.05912 0.65185 0.98551 0.0
H911 H 0.05181 0.70207 0.93259 0.0
C912 C 0.0803 0.6158 0.86448 0.0
N913 N 0.10622 0.60821 0.82381 0.0
C914 C 0.07879 0.5958 0.85194 0.0
C915 C 0.09497 0.63195 0.8563 0.0
C916 C 0.09206 0.59225 0.83144 0.0
C917 C 0.10792 0.62781 0.8357 0.0
C918 C 0.06068 0.60743 0.95573 0.0
C919 C 0.07272 0.58786 0.95369 0.0
C920 C 0.04299 0.60853 0.97204 0.0
C921 C 0.06681 0.56971 0.96798 0.0
C922 C 0.03758 0.59001 0.98598 0.0
N923 N 0.04949 0.57114 0.98368 0.0
C924 C 0.11953 0.61976 0.94283 0.0
C925 C 0.12687 0.60754 0.9025 0.0
C926 C 0.13903 0.61044 0.95122 0.0
N927 N 0.1137 0.61809 0.91892 0.0
C928 C 0.14674 0.59803 0.91013 0.0
C929 C 0.15278 0.59914 0.93488 0.0
H930 H 0.10864 0.62782 0.95563 0.0
H931 H 0.12186 0.60591 0.88369 0.0
C932 C 0.00723 0.59979 0.92701 0.0
N933 N 0.0271 0.5974 0.91591 0.0
C934 C 0.99665 0.58145 0.93698 0.0
C935 C 0.02618 0.55848 0.92176 0.0
C936 C 0.03611 0.57722 0.91198 0.0
C937 C 0.00677 0.56063 0.93557 0.0
H938 H 0.00051 0.61605 0.92992 0.0
H939 H 0.05213 0.57595 0.90343 0.0
O940 O 0.0827 0.66272 0.9099 0.0
O941 O 0.03291 0.65107 0.90776 0.0
O942 O 0.06712 0.61957 0.88433 0.0
O943 O 0.06602 0.62531 0.94161 0.0
H944 H 0.09783 0.66633 0.95528 0.0
H945 H 0.1116 0.68112 0.87981 0.0
H946 H 0.13312 0.68395 0.96677 0.0
H947 H 0.14677 0.69829 0.89263 0.0
H948 H 0.98586 0.67872 0.9647 0.0
H949 H 0.02261 0.68817 0.8849 0.0
H950 H 0.01117 0.64962 0.94975 0.0
H951 H 0.99726 0.71669 0.90108 0.0
H952 H 0.06992 0.72131 0.8424 0.0
H953 H 0.04242 0.66812 0.7994 0.0
H954 H 0.06007 0.67924 0.01871 0.0
H955 H 0.05264 0.73063 0.96451 0.0
H956 H 0.06744 0.58315 0.85798 0.0
H957 H 0.09645 0.64743 0.86583 0.0
H958 H 0.09107 0.57683 0.82158 0.0
H959 H 0.11935 0.64017 0.82921 0.0
H960 H 0.08623 0.58652 0.9409 0.0
H961 H 0.03331 0.62342 0.97368 0.0
H962 H 0.07589 0.55443 0.96647 0.0
H963 H 0.02383 0.5906 0.99854 0.0
H964 H 0.14322 0.61192 0.9704 0.0
H965 H 0.15689 0.58932 0.89703 0.0
H966 H 0.98145 0.58378 0.94702 0.0
H967 H 0.03472 0.54286 0.92037 0.0
Li968 Li 0.86859 0.0909 0.9082 0.0
Li969 Li 0.87046 0.05307 0.91841 0.0
Li970 Li 0.84136 0.06718 0.89169 0.0
Li971 Li 0.84048 0.07625 0.93623 0.0
C972 C 0.88605 0.07594 0.86792 0.0
N973 N 0.91152 0.09705 0.83324 0.0
C974 C 0.9083 0.08022 0.87256 0.0
C975 C 0.87678 0.08229 0.84562 0.0
C976 C 0.92088 0.09096 0.85481 0.0
C977 C 0.88994 0.09296 0.82831 0.0
C978 C 0.88646 0.07203 0.95898 0.0
C979 C 0.89301 0.05804 -0.00038 0.0
N980 N 0.91507 0.05844 0.99528 0.0
C981 C 0.90921 0.07225 0.95492 0.0
C982 C 0.87827 0.06484 0.98149 0.0
C983 C 0.9234 0.06528 0.97349 0.0
C984 C 0.89615 0.12396 0.92509 0.0
N985 N 0.88562 0.11754 0.90437 0.0
C986 C 0.89661 0.15087 0.88421 0.0
C987 C 0.88591 0.13041 0.88393 0.0
C988 C 0.90747 0.15773 0.90554 0.0
C989 C 0.90743 0.14384 0.92598 0.0
H990 H 0.89511 0.11411 0.94141 0.0
H991 H 0.87722 0.12523 0.8677 0.0
C992 C 0.91003 0.02799 0.91846 0.0
N993 N 0.88945 0.02983 0.92801 0.0
C994 C 0.9261 0.01584 0.93084 0.0
C995 C 0.89888 0.00636 0.96138 0.0
C996 C 0.88333 0.01851 0.94834 0.0
C997 C 0.9208 0.00578 0.95322 0.0
H998 H 0.91445 0.03739 0.90242 0.0
H999 H 0.86688 0.02056 0.95561 0.0
C1000 C 0.83418 0.11691 0.89964 0.0
N1001 N 0.83171 0.16004 0.88364 0.0
C1002 C 0.83545 0.13425 0.91639 0.0
C1003 C 0.83154 0.12149 0.87476 0.0
C1004 C 0.83424 0.15595 0.90793 0.0
C1005 C 0.8303 0.14341 0.86704 0.0
C1006 C 0.82705 0.02962 0.91068 0.0
C1007 C 0.80404 0.03035 0.90972 0.0
C1008 C 0.83825 0.01187 0.90016 0.0
C1009 C 0.79261 0.01329 0.89819 0.0
C1010 C 0.82622 0.99509 0.88886 0.0
N1011 N 0.80384 0.99616 0.8881 0.0
C1012 C 0.82588 0.04448 0.84908 0.0
C1013 C 0.80183 0.07099 0.86641 0.0
C1014 C 0.80991 0.03865 0.83181 0.0
N1015 N 0.82151 0.06036 0.86593 0.0
C1016 C 0.78555 0.06589 0.8494 0.0
C1017 C 0.78932 0.04935 0.83191 0.0
H1018 H 0.84158 0.03603 0.84943 0.0
H1019 H 0.79869 0.08329 0.88028 0.0
C1020 C 0.82744 0.09988 0.97788 0.0
N1021 N 0.82301 0.08178 0.96411 0.0
C1022 C 0.8144 0.10486 0.99816 0.0
C1023 C 0.79301 0.07202 0.99013 0.0
C1024 C 0.80645 0.06771 0.97001 0.0
C1025 C 0.79675 0.09096 0.00434 0.0
H1026 H 0.84109 0.11047 0.97305 0.0
H1027 H 0.80355 0.05326 0.95895 0.0
O1028 O 0.87346 0.0654 0.88502 0.0
O1029 O 0.87231 0.07892 0.94103 0.0
O1030 O 0.83565 0.09556 0.90753 0.0
O1031 O 0.83859 0.04654 0.92112 0.0
H1032 H 0.91568 0.07558 0.88981 0.0
H1033 H 0.8596 0.07914 0.84174 0.0
H1034 H 0.93808 0.09452 0.85821 0.0
H1035 H 0.88297 0.09804 0.811 0.0
H1036 H 0.88691 0.05241 0.01711 0.0
H1037 H 0.91582 0.07763 0.93754 0.0
H1038 H 0.86074 0.06437 0.98492 0.0
H1039 H 0.94102 0.06527 0.97056 0.0
H1040 H 0.89609 0.16134 0.86818 0.0
H1041 H 0.91508 0.14882 0.94301 0.0
H1042 H 0.94286 0.01591 0.92406 0.0
H1043 H 0.89415 -0.00133 0.97847 0.0
H1044 H 0.83759 0.13101 0.93567 0.0
H1045 H 0.83079 0.1083 0.86149 0.0
H1046 H 0.83537 0.16953 0.92067 0.0
H1047 H 0.82837 0.14721 0.84783 0.0
H1048 H 0.79512 0.04418 0.91733 0.0
H1049 H 0.85606 0.01116 0.90044 0.0
H1050 H 0.77482 0.01373 0.89714 0.0
H1051 H 0.83467 0.98129 0.88058 0.0
H1052 H 0.8135 0.02562 0.81889 0.0
H1053 H 0.77019 0.07495 0.84996 0.0
H1054 H 0.81806 0.11943 0.00884 0.0
H1055 H 0.77945 0.06098 0.99405 0.0
Li1056 Li 0.42648 0.6477 0.61602 0.0
Li1057 Li 0.41871 0.65278 0.5743 0.0
Li1058 Li 0.39485 0.63055 0.60146 0.0
Li1059 Li 0.43149 0.61584 0.58934 0.0
C1060 C 0.39807 0.68179 0.6138 0.0
N1061 N 0.39448 0.72117 0.63886 0.0
C1062 C 0.40517 0.70142 0.60299 0.0
C1063 C 0.38885 0.68224 0.63722 0.0
C1064 C 0.40326 0.72116 0.61598 0.0
C1065 C 0.3873 0.7023 0.64964 0.0
C1066 C 0.4669 0.65047 0.59842 0.0
C1067 C 0.4961 0.64353 0.6273 0.0
N1068 N 0.50548 0.66314 0.62118 0.0
C1069 C 0.47685 0.67049 0.59232 0.0
C1070 C 0.47661 0.63681 0.61595 0.0
C1071 C 0.49635 0.67662 0.60408 0.0
C1072 C 0.43674 0.65344 0.6662 0.0
N1073 N 0.43794 0.66303 0.6438 0.0
C1074 C 0.44967 0.69703 0.6615 0.0
C1075 C 0.44506 0.68412 0.64107 0.0
C1076 C 0.44729 0.68804 0.68504 0.0
C1077 C 0.4415 0.66566 0.68717 0.0
H1078 H 0.4313 0.63655 0.66786 0.0
H1079 H 0.44598 0.69135 0.62306 0.0
C1080 C 0.39927 0.68007 0.53906 0.0
N1081 N 0.41863 0.67086 0.5462 0.0
C1082 C 0.39857 0.69384 0.51865 0.0
C1083 C 0.4377 0.6881 0.51318 0.0
C1084 C 0.43761 0.67428 0.53359 0.0
C1085 C 0.41802 0.69824 0.50563 0.0
H1086 H 0.38445 0.67692 0.54947 0.0
H1087 H 0.45268 0.66642 0.53954 0.0
C1088 C 0.40494 0.60334 0.6364 0.0
N1089 N 0.37731 0.57655 0.66339 0.0
C1090 C 0.40568 0.58048 0.63344 0.0
C1091 C 0.39043 0.61255 0.6534 0.0
C1092 C 0.3915 0.56722 0.64718 0.0
C1093 C 0.37651 0.59875 0.66678 0.0
C1094 C 0.40059 0.62221 0.54485 0.0
C1095 C 0.3791 0.62694 0.53734 0.0
C1096 C 0.41674 0.61742 0.52745 0.0
C1097 C 0.37412 0.62685 0.5124 0.0
C1098 C 0.4111 0.6175 0.50268 0.0
N1099 N 0.39009 0.62218 0.49574 0.0
C1100 C 0.34936 0.63607 0.61092 0.0
C1101 C 0.36031 0.60091 0.59638 0.0
C1102 C 0.32721 0.63071 0.60751 0.0
N1103 N 0.36529 0.62142 0.60464 0.0
C1104 C 0.33842 0.59488 0.59264 0.0
C1105 C 0.32158 0.61022 0.59725 0.0
H1106 H 0.35385 0.65239 0.61706 0.0
H1107 H 0.37342 0.58982 0.59107 0.0
C1108 C 0.46718 0.5897 0.57212 0.0
N1109 N 0.4454 0.59019 0.57782 0.0
C1110 C 0.47579 0.57198 0.55891 0.0
C1111 C 0.4395 0.55549 0.55838 0.0
C1112 C 0.43161 0.57352 0.57148 0.0
C1113 C 0.46175 0.55482 0.55143 0.0
H1114 H 0.47761 0.60352 0.57675 0.0
H1115 H 0.41421 0.57482 0.57549 0.0
O1116 O 0.39992 0.6623 0.60139 0.0
O1117 O 0.44766 0.64429 0.58738 0.0
O1118 O 0.41845 0.61665 0.62286 0.0
O1119 O 0.4059 0.62273 0.56911 0.0
H1120 H 0.41236 0.70141 0.5849 0.0
H1121 H 0.38314 0.66726 0.64581 0.0
H1122 H 0.40885 0.73644 0.60791 0.0
H1123 H 0.38039 0.70285 0.66786 0.0
H1124 H 0.50375 0.63319 0.641 0.0
H1125 H 0.46947 0.68128 0.57886 0.0
H1126 H 0.46904 0.62128 0.6209 0.0
H1127 H 0.50419 0.69212 0.59965 0.0
H1128 H 0.45381 0.7142 0.65878 0.0
H1129 H 0.44 0.65782 0.70487 0.0
H1130 H 0.38312 0.70155 0.51364 0.0
H1131 H 0.453 0.69093 0.50349 0.0
H1132 H 0.4171 0.57304 0.62075 0.0
H1133 H 0.3898 0.63018 0.65609 0.0
H1134 H 0.39182 0.54951 0.64497 0.0
H1135 H 0.36507 0.60567 0.67984 0.0
H1136 H 0.36645 0.63082 0.55061 0.0
H1137 H 0.4335 0.61389 0.533 0.0
H1138 H 0.35757 0.63055 0.50629 0.0
H1139 H 0.42344 0.6139 0.48899 0.0
H1140 H 0.31472 0.64294 0.61149 0.0
H1141 H 0.33491 0.57906 0.58435 0.0
H1142 H 0.49306 0.57203 0.55395 0.0
H1143 H 0.42802 0.54287 0.55258 0.0
Li1144 Li 0.86256 0.40831 0.57844 0.0
Li1145 Li 0.86963 0.44592 0.57768 0.0
Li1146 Li 0.84154 0.4315 0.60551 0.0
Li1147 Li 0.83575 0.43318 0.55895 0.0
C1148 C 0.88756 0.41161 0.61735 0.0
N1149 N 0.91545 0.38148 0.63931 0.0
C1150 C 0.90817 0.40707 0.60712 0.0
C1151 C 0.88115 0.4008 0.63878 0.0
C1152 C 0.92201 0.39177 0.61846 0.0
C1153 C 0.89549 0.38565 0.64962 0.0
C1154 C 0.87961 0.43447 0.53155 0.0
C1155 C 0.88594 0.45569 0.49492 0.0
N1156 N 0.90791 0.45158 0.49681 0.0
C1157 C 0.90223 0.43023 0.53295 0.0
C1158 C 0.87136 0.44715 0.51227 0.0
C1159 C 0.91627 0.43913 0.5153 0.0
C1160 C 0.88221 0.37564 0.5504 0.0
N1161 N 0.87489 0.37942 0.57348 0.0
C1162 C 0.88514 0.34284 0.58545 0.0
C1163 C 0.87589 0.36339 0.59089 0.0
C1164 C 0.89328 0.33879 0.56183 0.0
C1165 C 0.89153 0.35549 0.54419 0.0
H1166 H 0.88054 0.38818 0.53656 0.0
H1167 H 0.86938 0.3664 0.60893 0.0
C1168 C 0.91178 0.46548 0.58299 0.0
N1169 N 0.89167 0.46766 0.57238 0.0
C1170 C 0.92993 0.47651 0.57321 0.0
C1171 C 0.90579 0.4935 0.54352 0.0
C1172 C 0.88813 0.48231 0.55401 0.0
C1173 C 0.92724 0.48971 0.55226 0.0
H1174 H 0.91405 0.454 0.59786 0.0
H1175 H 0.87198 0.48358 0.5458 0.0
C1176 C 0.82507 0.38713 0.58581 0.0
N1177 N 0.81648 0.34275 0.59169 0.0
C1178 C 0.82218 0.37364 0.56536 0.0
C1179 C 0.82345 0.37811 0.60925 0.0
C1180 C 0.81792 0.35122 0.56872 0.0
C1181 C 0.8191 0.35562 0.61184 0.0
C1182 C 0.84198 0.47883 0.59033 0.0
C1183 C 0.85189 0.48323 0.61287 0.0
C1184 C 0.83533 0.49627 0.57536 0.0
C1185 C 0.85495 0.5051 0.6201 0.0
C1186 C 0.83868 0.51791 0.58324 0.0
N1187 N 0.84834 0.52184 0.60526 0.0
C1188 C 0.83457 0.43781 0.65698 0.0
C1189 C 0.80303 0.43308 0.6319 0.0
C1190 C 0.82134 0.4389 0.67785 0.0
N1191 N 0.82521 0.43457 0.63468 0.0
C1192 C 0.7892 0.43438 0.65217 0.0
C1193 C 0.79836 0.43708 0.67553 0.0
H1194 H 0.85225 0.4394 0.65857 0.0
H1195 H 0.79613 0.4306 0.61387 0.0
C1196 C 0.81482 0.42179 0.51527 0.0
N1197 N 0.81466 0.4365 0.53397 0.0
C1198 C 0.79877 0.42286 0.49704 0.0
C1199 C 0.7832 0.45469 0.51729 0.0
C1200 C 0.79944 0.45286 0.53525 0.0
C1201 C 0.78249 0.43932 0.49803 0.0
H1202 H 0.82723 0.409 0.51477 0.0
H1203 H 0.79971 0.46426 0.55043 0.0
O1204 O 0.87384 0.42669 0.60661 0.0
O1205 O 0.86561 0.42616 0.54889 0.0
O1206 O 0.8297 0.40902 0.58291 0.0
O1207 O 0.83914 0.45752 0.58283 0.0
H1208 H 0.91337 0.41511 0.59047 0.0
H1209 H 0.86514 0.40373 0.64676 0.0
H1210 H 0.93796 0.38805 0.61066 0.0
H1211 H 0.89069 0.37711 0.66614 0.0
H1212 H 0.8798 0.46569 0.48002 0.0
H1213 H 0.90888 0.42033 0.54764 0.0
H1214 H 0.85393 0.45064 0.51089 0.0
H1215 H 0.93383 0.43618 0.51632 0.0
H1216 H 0.886 0.33035 0.59956 0.0
H1217 H 0.89687 0.35288 0.52552 0.0
H1218 H 0.94607 0.47363 0.58102 0.0
H1219 H 0.90281 0.50334 0.52735 0.0
H1220 H 0.82348 0.38037 0.5471 0.0
H1221 H 0.82578 0.3883 0.62528 0.0
H1222 H 0.8158 0.34054 0.55306 0.0
H1223 H 0.81791 0.34838 0.62987 0.0
H1224 H 0.85739 0.46992 0.62452 0.0
H1225 H 0.82784 0.49314 0.55774 0.0
H1226 H 0.86264 0.50876 0.63747 0.0
H1227 H 0.83366 0.53158 0.57183 0.0
H1228 H 0.82895 0.44123 0.69558 0.0
H1229 H 0.77157 0.43273 0.64968 0.0
H1230 H 0.79874 0.41044 0.48284 0.0
H1231 H 0.7712 0.46784 0.51865 0.0
Li1232 Li 0.09631 0.87162 0.58236 0.0
Li1233 Li 0.05737 0.87422 0.58076 0.0
Li1234 Li 0.07526 0.84534 0.60674 0.0
Li1235 Li 0.07532 0.84396 0.56101 0.0
C1236 C 0.0894 0.89016 0.62587 0.0
N1237 N 0.11552 0.91455 0.65723 0.0
C1238 C 0.09433 0.91216 0.62052 0.0
C1239 C 0.09778 0.88059 0.6472 0.0
C1240 C 0.10756 0.9242 0.63659 0.0
C1241 C 0.11094 0.89319 0.66281 0.0
C1242 C 0.0699 0.89272 0.54002 0.0
C1243 C 0.04449 0.90789 0.5105 0.0
N1244 N 0.0528 0.92834 0.51475 0.0
C1245 C 0.07809 0.91394 0.54418 0.0
C1246 C 0.05286 0.8897 0.52313 0.0
C1247 C 0.06928 0.93171 0.53118 0.0
C1248 C 0.12895 0.89147 0.55525 0.0
N1249 N 0.12413 0.88655 0.57888 0.0
C1250 C 0.15921 0.90042 0.59179 0.0
C1251 C 0.13896 0.89043 0.59708 0.0
C1252 C 0.1641 0.90634 0.56758 0.0
C1253 C 0.14871 0.9016 0.54921 0.0
H1254 H 0.11757 0.88712 0.54087 0.0
H1255 H 0.13539 0.88537 0.61557 0.0
C1256 C 0.01471 0.88784 0.56593 0.0
N1257 N 0.03334 0.89422 0.57775 0.0
C1258 C 0.00059 0.90365 0.55599 0.0
C1259 C 0.02387 0.9321 0.57298 0.0
C1260 C 0.03737 0.91575 0.58276 0.0
C1261 C 0.00591 0.92614 0.55816 0.0
H1262 H 0.01179 0.87059 0.56241 0.0
H1263 H 0.05227 0.92035 0.59217 0.0
C1264 C 0.12182 0.83653 0.58331 0.0
N1265 N 0.16715 0.83331 0.58083 0.0
C1266 C 0.13229 0.835 0.56062 0.0
C1267 C 0.13436 0.83633 0.60474 0.0
C1268 C 0.15524 0.83342 0.55976 0.0
C1269 C 0.15727 0.83469 0.6031 0.0
C1270 C 0.03938 0.82435 0.57412 0.0
C1271 C 0.04019 0.80419 0.58647 0.0
C1272 C 0.02878 0.82564 0.55146 0.0
C1273 C 0.03049 0.78563 0.57587 0.0
C1274 C 0.01933 0.80669 0.54144 0.0
N1275 N 0.02037 0.78724 0.55376 0.0
C1276 C 0.05741 0.83193 0.65192 0.0
C1277 C 0.08652 0.80965 0.6369 0.0
C1278 C 0.05456 0.8179 0.67192 0.0
N1279 N 0.07316 0.82753 0.63497 0.0
C1280 C 0.0843 0.79523 0.6566 0.0
C1281 C 0.06802 0.79915 0.67435 0.0
H1282 H 0.04682 0.84613 0.64963 0.0
H1283 H 0.09861 0.80636 0.62287 0.0
C1284 C 0.07379 0.83012 0.511 0.0
N1285 N 0.07696 0.82375 0.53458 0.0
C1286 C 0.07664 0.81505 0.49197 0.0
C1287 C 0.08646 0.78735 0.52187 0.0
C1288 C 0.08306 0.80283 0.54031 0.0
C1289 C 0.08339 0.79348 0.49737 0.0
H1290 H 0.06958 0.84698 0.50688 0.0
H1291 H 0.08572 0.79834 0.55922 0.0
O1292 O 0.07615 0.87818 0.6106 0.0
O1293 O 0.07826 0.87508 0.5527 0.0
O1294 O 0.09943 0.83875 0.58449 0.0
O1295 O 0.04921 0.84261 0.58394 0.0
H1296 H 0.08838 0.91978 0.60393 0.0
H1297 H 0.09424 0.86362 0.65167 0.0
H1298 H 0.1116 0.94119 0.63259 0.0
H1299 H 0.11754 0.88598 0.67935 0.0
H1300 H 0.03125 0.90577 0.49748 0.0
H1301 H 0.09087 0.91678 0.55757 0.0
H1302 H 0.04578 0.87359 0.52017 0.0
H1303 H 0.07543 0.9482 0.53429 0.0
H1304 H 0.17088 0.90344 0.60639 0.0
H1305 H 0.15217 0.90513 0.53018 0.0
H1306 H 0.98658 0.89829 0.5453 0.0
H1307 H 0.0288 0.94913 0.57513 0.0
H1308 H 0.12282 0.83532 0.54386 0.0
H1309 H 0.1265 0.8378 0.62243 0.0
H1310 H 0.16359 0.83237 0.54233 0.0
H1311 H 0.1672 0.83466 0.61952 0.0
H1312 H 0.04828 0.80283 0.604 0.0
H1313 H 0.02829 0.84098 0.54142 0.0
H1314 H 0.03106 0.76992 0.58521 0.0
H1315 H 0.01126 0.80743 0.52382 0.0
H1316 H 0.04161 0.8214 0.68495 0.0
H1317 H 0.09521 0.78115 0.65788 0.0
H1318 H 0.07438 0.82037 0.47324 0.0
H1319 H 0.09157 0.7708 0.52669 0.0
Li1320 Li 0.65473 0.07466 0.5827 0.0
Li1321 Li 0.64459 0.0697 0.62672 0.0
Li1322 Li 0.61721 0.06368 0.59334 0.0
Li1323 Li 0.63023 0.09996 0.60332 0.0
C1324 C 0.66265 0.03293 0.60284 0.0
N1325 N 0.69802 0.00498 0.61012 0.0
C1326 C 0.68306 0.04139 0.61019 0.0
C1327 C 0.66029 0.01027 0.59915 0.0
C1328 C 0.70071 0.02698 0.6138 0.0
C1329 C 0.67836 0.99641 0.60292 0.0
C1330 C 0.67053 0.11394 0.61596 0.0
C1331 C 0.67036 0.14804 0.63868 0.0
N1332 N 0.6878 0.15526 0.6253 0.0
C1333 C 0.68864 0.1216 0.60267 0.0
C1334 C 0.6615 0.12716 0.63435 0.0
C1335 C 0.69707 0.14256 0.60758 0.0
C1336 C 0.68071 0.09238 0.5458 0.0
N1337 N 0.67617 0.07302 0.55723 0.0
C1338 C 0.70022 0.05364 0.53012 0.0
C1339 C 0.68521 0.05374 0.54946 0.0
C1340 C 0.70569 0.07352 0.51843 0.0
C1341 C 0.69556 0.09305 0.52638 0.0
H1342 H 0.67275 0.10735 0.55183 0.0
H1343 H 0.68062 0.03836 0.55793 0.0
C1344 C 0.65712 0.03839 0.66369 0.0
N1345 N 0.65597 0.06012 0.65758 0.0
C1346 C 0.66863 0.03179 0.68464 0.0
C1347 C 0.67593 0.07011 0.69354 0.0
C1348 C 0.6649 0.07589 0.67216 0.0
C1349 C 0.6783 0.04782 0.69966 0.0
H1350 H 0.64985 0.02611 0.65186 0.0
H1351 H 0.66402 0.09295 0.6669 0.0
C1352 C 0.62323 0.08113 0.54707 0.0
N1353 N 0.61529 0.06926 0.49911 0.0
C1354 C 0.61452 0.09648 0.53065 0.0
C1355 C 0.62793 0.05975 0.53909 0.0
C1356 C 0.61062 0.09016 0.50647 0.0
C1357 C 0.62379 0.05407 0.51478 0.0
C1358 C 0.59932 0.09104 0.6394 0.0
C1359 C 0.57798 0.09571 0.6313 0.0
C1360 C 0.60593 0.09793 0.66266 0.0
C1361 C 0.5637 0.1075 0.64648 0.0
C1362 C 0.59117 0.10968 0.6773 0.0
N1363 N 0.57054 0.11419 0.66896 0.0
C1364 C 0.59331 0.02603 0.57693 0.0
C1365 C 0.57689 0.06099 0.5702 0.0
C1366 C 0.57753 0.01593 0.56205 0.0
N1367 N 0.59288 0.04822 0.58027 0.0
C1368 C 0.56085 0.05162 0.55528 0.0
C1369 C 0.56142 0.02891 0.55044 0.0
H1370 H 0.60659 0.01641 0.58464 0.0
H1371 H 0.57744 0.07867 0.57251 0.0
C1372 C 0.63263 0.13935 0.58092 0.0
N1373 N 0.62291 0.13058 0.60104 0.0
C1374 C 0.62984 0.16147 0.57519 0.0
C1375 C 0.60685 0.16548 0.61098 0.0
C1376 C 0.61031 0.14315 0.61621 0.0
C1377 C 0.61676 0.17484 0.59023 0.0
H1378 H 0.64261 0.12903 0.56925 0.0
H1379 H 0.60304 0.13608 0.63236 0.0
O1380 O 0.64499 0.04663 0.59937 0.0
O1381 O 0.66193 0.09352 0.61115 0.0
O1382 O 0.62684 0.08705 0.57088 0.0
O1383 O 0.61338 0.07914 0.62502 0.0
H1384 H 0.68531 0.05884 0.61312 0.0
H1385 H 0.64464 0.00344 0.59345 0.0
H1386 H 0.71656 0.03329 0.61952 0.0
H1387 H 0.67675 0.97883 0.60015 0.0
H1388 H 0.66331 0.15854 0.65262 0.0
H1389 H 0.69628 0.1114 0.58888 0.0
H1390 H 0.64744 0.12158 0.64479 0.0
H1391 H 0.71104 0.1487 0.59736 0.0
H1392 H 0.70728 0.03814 0.52422 0.0
H1393 H 0.69937 0.10877 0.518 0.0
H1394 H 0.67022 0.01442 0.68889 0.0
H1395 H 0.68342 0.08289 0.7046 0.0
H1396 H 0.61074 0.11308 0.53657 0.0
H1397 H 0.63461 0.04761 0.55155 0.0
H1398 H 0.60385 0.10186 0.49357 0.0
H1399 H 0.6273 0.03757 0.50838 0.0
H1400 H 0.57248 0.09033 0.61349 0.0
H1401 H 0.62227 0.09427 0.66935 0.0
H1402 H 0.54717 0.11131 0.64039 0.0
H1403 H 0.59611 0.11518 0.69529 0.0
H1404 H 0.57869 0.99839 0.5586 0.0
H1405 H 0.54858 0.06219 0.54694 0.0
H1406 H 0.63746 0.16789 0.55876 0.0
H1407 H 0.59669 0.17533 0.62304 0.0
H1408 H 0.55904 0.20647 0.96976 0.0
H1409 H 0.56433 0.33792 0.97705 0.0
H1410 H 0.54543 0.24484 0.03455 0.0
H1411 H 0.59032 0.30073 0.91635 0.0
H1412 H 0.55017 0.30389 0.99479 0.0
H1413 H 0.56399 0.24076 0.94678 0.0
C1414 C 0.5569 0.22204 0.97913 0.0
C1415 C 0.55194 0.22269 0.00422 0.0
C1416 C 0.55879 0.30314 0.97748 0.0
C1417 C 0.55733 0.26191 0.97795 0.0
C1418 C 0.56691 0.32255 0.96737 0.0
C1419 C 0.57885 0.32204 0.94544 0.0
C1420 C 0.56273 0.28299 0.96566 0.0
C1421 C 0.58126 0.30179 0.93335 0.0
C1422 C 0.55963 0.24159 0.96596 0.0
C1423 C 0.54895 0.24338 0.01523 0.0
N1424 N 0.57353 0.28296 0.9438 0.0
N1425 N 0.55185 0.2621 0.00207 0.0
H1426 H 0.1569 0.57369 0.9756 0.0
H1427 H 0.28826 0.56608 0.96869 0.0
H1428 H 0.19447 0.59978 0.91524 0.0
H1429 H 0.24947 0.55281 0.03325 0.0
H1430 H 0.25414 0.57258 0.94583 0.0
H1431 H 0.19075 0.55949 0.9936 0.0
C1432 C 0.17233 0.57636 0.96609 0.0
C1433 C 0.17297 0.58829 0.94415 0.0
C1434 C 0.25318 0.56797 0.96493 0.0
C1435 C 0.21186 0.57203 0.96463 0.0
C1436 C 0.27263 0.56434 0.97803 0.0
C1437 C 0.27182 0.55894 0.00301 0.0
C1438 C 0.23281 0.56611 0.97689 0.0
C1439 C 0.25105 0.55658 0.01399 0.0
C1440 C 0.19165 0.5682 0.97634 0.0
C1441 C 0.19331 0.59075 0.93226 0.0
N1442 N 0.23244 0.5603 0.00091 0.0
N1443 N 0.21205 0.58291 0.94282 0.0
H1444 H 0.88757 0.19713 0.89579 0.0
H1445 H 0.96985 0.25724 0.9865 0.0
H1446 H 0.94824 0.16893 0.92226 0.0
H1447 H 0.9086 0.28556 0.96172 0.0
H1448 H 0.96629 0.22846 0.95556 0.0
H1449 H 0.89923 0.23313 0.9114 0.0
C1450 C 0.90368 0.19871 0.90415 0.0
C1451 C 0.91687 0.18007 0.9081 0.0
C1452 C 0.95377 0.24114 0.9566 0.0
C1453 C 0.93006 0.22089 0.92649 0.0
C1454 C 0.95577 0.25751 0.97433 0.0
C1455 C 0.93929 0.27353 0.97695 0.0
C1456 C 0.93499 0.2406 0.94157 0.0
C1457 C 0.92162 0.27343 0.96038 0.0
C1458 C 0.91025 0.21919 0.91327 0.0
C1459 C 0.93749 0.18291 0.91921 0.0
N1460 N 0.91973 0.25697 0.94367 0.0
N1461 N 0.94329 0.20284 0.92839 0.0
H1462 H 0.33623 0.94897 0.94837 0.0
H1463 H 0.20705 0.92551 0.95791 0.0
H1464 H 0.303 0.8993 0.90571 0.0
H1465 H 0.2449 0.96307 0.01026 0.0
H1466 H 0.24003 0.92218 0.93243 0.0
H1467 H 0.30069 0.96124 0.96421 0.0
C1468 C 0.32137 0.94088 0.94207 0.0
C1469 C 0.32253 0.92288 0.92604 0.0
C1470 C 0.24095 0.9314 0.94934 0.0
C1471 C 0.28183 0.93667 0.94424 0.0
C1472 C 0.22218 0.93322 0.964 0.0
C1473 C 0.22316 0.94436 0.98652 0.0
C1474 C 0.26081 0.9409 0.95718 0.0
C1475 C 0.24313 0.95448 0.99305 0.0
C1476 C 0.3011 0.94785 0.95112 0.0
C1477 C 0.30279 0.91321 0.9181 0.0
N1478 N 0.26115 0.95233 0.97857 0.0
N1479 N 0.28321 0.92001 0.92759 0.0
H1480 H 0.62539 0.28362 0.49553 0.0
H1481 H 0.57757 0.19737 0.58924 0.0
H1482 H 0.55937 0.28883 0.52388 0.0
H1483 H 0.64699 0.20496 0.57459 0.0
H1484 H 0.57072 0.23286 0.5692 0.0
H1485 H 0.63407 0.2567 0.52728 0.0
C1486 C 0.61282 0.27919 0.50871 0.0
C1487 C 0.59163 0.28817 0.50711 0.0
C1488 C 0.58749 0.22695 0.57081 0.0
C1489 C 0.60121 0.25719 0.54324 0.0
C1490 C 0.59142 0.20677 0.58235 0.0
C1491 C 0.61282 0.19805 0.5831 0.0
C1492 C 0.6051 0.2383 0.55986 0.0
C1493 C 0.63016 0.21085 0.57383 0.0
C1494 C 0.61775 0.26391 0.52688 0.0
C1495 C 0.57589 0.28214 0.52462 0.0
N1496 N 0.62588 0.23014 0.56225 0.0
N1497 N 0.58088 0.26667 0.54178 0.0
H1498 H 0.29502 0.63942 0.5734 0.0
H1499 H 0.20784 0.54919 0.52905 0.0
H1500 H 0.29726 0.57183 0.59803 0.0
H1501 H 0.22267 0.60955 0.49083 0.0
H1502 H 0.23461 0.55956 0.5609 0.0
H1503 H 0.26165 0.63121 0.55057 0.0
C1504 C 0.2882 0.62296 0.57456 0.0
C1505 C 0.2991 0.60624 0.58753 0.0
C1506 C 0.23183 0.57055 0.5456 0.0
C1507 C 0.26111 0.5966 0.56077 0.0
C1508 C 0.21661 0.56467 0.52753 0.0
C1509 C 0.21339 0.57843 0.50724 0.0
C1510 C 0.24346 0.59047 0.54343 0.0
C1511 C 0.22502 0.59834 0.50602 0.0
C1512 C 0.26926 0.61823 0.56124 0.0
C1513 C 0.28958 0.58512 0.58794 0.0
N1514 N 0.23955 0.60374 0.52384 0.0
N1515 N 0.27122 0.58082 0.5745 0.0
H1516 H 0.879 0.29736 0.57479 0.0
H1517 H 0.94252 0.24116 0.46647 0.0
H1518 H 0.92916 0.33086 0.53296 0.0
H1519 H 0.91504 0.20235 0.52534 0.0
H1520 H 0.93765 0.27407 0.49095 0.0
H1521 H 0.89177 0.26219 0.55793 0.0
C1522 C 0.89295 0.2973 0.56244 0.0
C1523 C 0.90276 0.31713 0.5549 0.0
C1524 C 0.93295 0.25831 0.49867 0.0
C1525 C 0.91711 0.27711 0.53529 0.0
C1526 C 0.93587 0.23937 0.48472 0.0
C1527 C 0.92919 0.21873 0.49372 0.0
C1528 C 0.92283 0.25685 0.52166 0.0
C1529 C 0.92005 0.21787 0.51735 0.0
C1530 C 0.90016 0.27724 0.55276 0.0
C1531 C 0.92069 0.31605 0.53874 0.0
N1532 N 0.91686 0.2367 0.53038 0.0
N1533 N 0.92707 0.29643 0.5292 0.0
H1534 H 0.17107 0.94117 0.53715 0.0
H1535 H 0.3011 0.92272 0.52801 0.0
H1536 H 0.20567 0.894 0.58201 0.0
H1537 H 0.2601 0.94878 0.47016 0.0
H1538 H 0.26836 0.91977 0.554 0.0
H1539 H 0.20611 0.95268 0.51942 0.0
C1540 C 0.18612 0.93345 0.5435 0.0
C1541 C 0.18547 0.91632 0.56069 0.0
C1542 C 0.26673 0.92641 0.53571 0.0
C1543 C 0.22559 0.92936 0.54045 0.0
C1544 C 0.28535 0.92797 0.52076 0.0
C1545 C 0.28349 0.93588 0.49665 0.0
C1546 C 0.24618 0.93306 0.5266 0.0
C1547 C 0.26264 0.94292 0.48862 0.0
C1548 C 0.20609 0.94002 0.53338 0.0
C1549 C 0.20548 0.90721 0.5687 0.0
N1550 N 0.24486 0.94124 0.5035 0.0
N1551 N 0.22478 0.91363 0.55823 0.0
H1552 H 0.43686 0.78333 0.03667 0.0
H1553 H 0.35032 0.68962 0.07329 0.0
H1554 H 0.37769 0.76842 0.99626 0.0
H1555 H 0.41636 0.69224 0.1025 0.0
H1556 H 0.35712 0.724 0.0516 0.0
H1557 H 0.42681 0.75495 0.06672 0.0
C1558 C 0.42167 0.77422 0.0343 0.0
C1559 C 0.40819 0.77796 0.01386 0.0
C1560 C 0.37004 0.71722 0.063 0.0
C1561 C 0.39657 0.74579 0.04804 0.0
C1562 C 0.36609 0.6977 0.07566 0.0
C1563 C 0.38286 0.68793 0.08963 0.0
C1564 C 0.39092 0.72709 0.06426 0.0
C1565 C 0.40309 0.69904 0.09163 0.0
C1566 C 0.41598 0.75804 0.05136 0.0
C1567 C 0.38871 0.76575 0.01155 0.0
N1568 N 0.40664 0.71795 0.07887 0.0
N1569 N 0.38351 0.75017 0.02839 0.0
H1570 H 0.73745 0.38329 0.98678 0.0
H1571 H 0.81366 0.41062 0.10118 0.0
H1572 H 0.72463 0.43862 0.03419 0.0
H1573 H 0.81475 0.34882 0.06213 0.0
H1574 H 0.78068 0.42132 0.07806 0.0
H1575 H 0.76591 0.37067 0.01488 0.0
C1576 C 0.74074 0.39283 0.00312 0.0
C1577 C 0.72892 0.41216 0.00806 0.0
C1578 C 0.78797 0.40528 0.0749 0.0
C1579 C 0.7614 0.39773 0.0405 0.0
C1580 C 0.80676 0.39918 0.08805 0.0
C1581 C 0.81696 0.37879 0.08361 0.0
C1582 C 0.77956 0.39098 0.05699 0.0
C1583 C 0.80731 0.36456 0.06646 0.0
C1584 C 0.75686 0.38553 0.01928 0.0
C1585 C 0.73348 0.42365 0.02974 0.0
N1586 N 0.78933 0.37103 0.05362 0.0
N1587 N 0.74956 0.41637 0.04511 0.0
H1588 H 0.0335 0.74563 0.00141 0.0
H1589 H 0.1252 0.7953 0.08953 0.0
H1590 H 0.08785 0.70765 0.02992 0.0
H1591 H 0.06683 0.83072 0.06742 0.0
H1592 H 0.10985 0.76176 0.07149 0.0
H1593 H 0.04331 0.77574 0.02902 0.0
C1594 C 0.04735 0.74356 0.01369 0.0
C1595 C 0.05999 0.72422 0.01324 0.0
C1596 C 0.10025 0.77679 0.07091 0.0
C1597 C 0.07144 0.7586 0.04476 0.0
C1598 C 0.10904 0.79594 0.08114 0.0
C1599 C 0.09736 0.81586 0.07982 0.0
C1600 C 0.07974 0.77765 0.05901 0.0
C1601 C 0.07637 0.81572 0.06901 0.0
C1602 C 0.05292 0.76071 0.0295 0.0
C1603 C 0.0776 0.72225 0.02975 0.0
N1604 N 0.06837 0.79699 0.05874 0.0
N1605 N 0.08299 0.73935 0.0446 0.0
H1606 H 0.69145 0.08305 0.10879 0.0
H1607 H 0.78052 0.13168 0.01624 0.0
H1608 H 0.69064 0.14957 0.08076 0.0
H1609 H 0.77804 0.06343 0.03838 0.0
H1610 H 0.75214 0.14025 0.04633 0.0
H1611 H 0.72745 0.07745 0.08972 0.0
C1612 C 0.69898 0.09658 0.09894 0.0
C1613 C 0.68784 0.11671 0.09608 0.0
C1614 C 0.75798 0.12343 0.04482 0.0
C1615 C 0.72899 0.1104 0.07419 0.0
C1616 C 0.7743 0.11855 0.02772 0.0
C1617 C 0.78149 0.09674 0.02455 0.0
C1618 C 0.74869 0.1064 0.05882 0.0
C1619 C 0.77264 0.08038 0.03983 0.0
C1620 C 0.71954 0.09338 0.08809 0.0
C1621 C 0.69859 0.1338 0.08354 0.0
N1622 N 0.75654 0.08551 0.05613 0.0
N1623 N 0.71841 0.13015 0.07277 0.0
H1624 H 0.38803 0.70272 0.46836 0.0
H1625 H 0.42879 0.82248 0.43564 0.0
H1626 H 0.44773 0.73115 0.49733 0.0
H1627 H 0.38244 0.78748 0.38985 0.0
H1628 H 0.43679 0.78849 0.457 0.0
H1629 H 0.38601 0.73277 0.43848 0.0
C1630 C 0.40082 0.71517 0.46826 0.0
C1631 C 0.41797 0.71456 0.48547 0.0
C1632 C 0.42509 0.78814 0.44205 0.0
C1633 C 0.41573 0.74892 0.4515 0.0
C1634 C 0.4206 0.80761 0.42957 0.0
C1635 C 0.40482 0.80807 0.41075 0.0
C1636 C 0.41344 0.76891 0.43615 0.0
C1637 C 0.3944 0.78814 0.4045 0.0
C1638 C 0.39973 0.73222 0.45114 0.0
C1639 C 0.43427 0.73092 0.48434 0.0
N1640 N 0.39867 0.76943 0.4174 0.0
N1641 N 0.43258 0.74758 0.46789 0.0
H1642 H 0.73907 0.44924 0.50628 0.0
H1643 H 0.69771 0.40461 0.37742 0.0
H1644 H 0.7837 0.42949 0.44882 0.0
H1645 H 0.65516 0.43191 0.43295 0.0
H1646 H 0.72975 0.41642 0.40136 0.0
H1647 H 0.70853 0.44621 0.47779 0.0
C1648 C 0.74256 0.44462 0.48757 0.0
C1649 C 0.76408 0.43949 0.48007 0.0
C1650 C 0.71337 0.42014 0.40805 0.0
C1651 C 0.72887 0.4354 0.44732 0.0
C1652 C 0.6951 0.41336 0.39442 0.0
C1653 C 0.67369 0.41724 0.40316 0.0
C1654 C 0.71018 0.43065 0.43067 0.0
C1655 C 0.67128 0.4288 0.42524 0.0
C1656 C 0.72502 0.44273 0.47129 0.0
C1657 C 0.76737 0.43317 0.4556 0.0
N1658 N 0.68927 0.43486 0.43831 0.0
N1659 N 0.74992 0.43109 0.44016 0.0
H1660 H 0.14216 0.69176 0.40997 0.0
H1661 H 0.05706 0.78225 0.45863 0.0
H1662 H 0.07249 0.68906 0.39436 0.0
H1663 H 0.12037 0.76883 0.4912 0.0
H1664 H 0.0646 0.75398 0.42751 0.0
H1665 H 0.13654 0.72656 0.43132 0.0
C1666 C 0.12576 0.69878 0.41043 0.0
C1667 C 0.10772 0.6874 0.40052 0.0
C1668 C 0.07688 0.75741 0.44136 0.0
C1669 C 0.10115 0.72701 0.42545 0.0
C1670 C 0.07262 0.77349 0.45903 0.0
C1671 C 0.08803 0.77758 0.47759 0.0
C1672 C 0.09682 0.74568 0.44214 0.0
C1673 C 0.10793 0.76587 0.47739 0.0
C1674 C 0.12254 0.71854 0.42289 0.0
C1675 C 0.08679 0.69718 0.40205 0.0
N1676 N 0.11174 0.75042 0.45998 0.0
N1677 N 0.08402 0.71635 0.41454 0.0
H1678 H 0.70498 0.09735 0.47567 0.0
H1679 H 0.82957 0.06829 0.44401 0.0
H1680 H 0.74468 0.05105 0.51632 0.0
H1681 H 0.78878 0.10832 0.39684 0.0
H1682 H 0.7976 0.0599 0.46875 0.0
H1683 H 0.73441 0.10021 0.44523 0.0
C1684 C 0.71984 0.08773 0.47815 0.0
C1685 C 0.72244 0.07407 0.49869 0.0
C1686 C 0.79551 0.07031 0.45283 0.0
C1687 C 0.75608 0.07718 0.4639 0.0
C1688 C 0.8138 0.07496 0.43843 0.0
C1689 C 0.81197 0.08899 0.41808 0.0
C1690 C 0.77514 0.07997 0.44722 0.0
C1691 C 0.79108 0.09763 0.41247 0.0
C1692 C 0.73656 0.08927 0.46069 0.0
C1693 C 0.74187 0.06167 0.50073 0.0
N1694 N 0.7735 0.09314 0.4271 0.0
N1695 N 0.75799 0.06368 0.48369 0.0
H1696 H 0.51541 0.91751 0.98607 0.0
H1697 H 0.52056 0.0455 0.00936 0.0
H1698 H 0.51589 0.96481 0.92698 0.0
H1699 H 0.54821 -0.00082 0.06073 0.0
H1700 H 0.51634 0.01569 0.97965 0.0
H1701 H 0.52664 0.94651 0.01415 0.0
C1702 C 0.5184 0.93382 0.97878 0.0
C1703 C 0.51445 0.93867 0.95401 0.0
C1704 C 0.52341 0.01205 0.99738 0.0
C1705 C 0.52654 0.97214 0.98646 0.0
C1706 C 0.52555 0.02897 0.01441 0.0
C1707 C 0.53449 0.02466 0.03756 0.0
C1708 C 0.52995 0.9906 0.00367 0.0
C1709 C 0.54116 0.00308 0.04307 0.0
C1710 C 0.52461 0.95044 0.99496 0.0
C1711 C 0.5182 0.96034 0.94596 0.0
N1712 N 0.53855 0.98675 0.0263 0.0
N1713 N 0.52369 0.97635 0.96221 0.0
H1714 H 0.44657 0.51094 0.01394 0.0
H1715 H 0.57506 0.50948 0.98771 0.0
H1716 H 0.49346 0.54199 0.06218 0.0
H1717 H 0.52627 0.5007 0.93101 0.0
H1718 H 0.54592 0.52019 0.01591 0.0
H1719 H 0.47609 0.50434 0.98447 0.0
C1720 C 0.46316 0.51612 0.01843 0.0
C1721 C 0.46767 0.52684 0.04058 0.0
C1722 C 0.54165 0.51618 0.99721 0.0
C1723 C 0.50142 0.51965 0.00685 0.0
C1724 C 0.55831 0.51027 0.98095 0.0
C1725 C 0.55317 0.5041 0.95684 0.0
C1726 C 0.51963 0.51561 0.98946 0.0
C1727 C 0.53101 0.50494 0.94949 0.0
C1728 C 0.47993 0.51261 0.00149 0.0
C1729 C 0.48935 0.53366 0.04528 0.0
N1730 N 0.51504 0.51033 0.96581 0.0
N1731 N 0.50549 0.52983 0.02859 0.0
H1732 H 0.00586 0.51634 0.92463 0.0
H1733 H 0.96486 0.48016 0.05781 0.0
H1734 H 0.99088 0.56254 0.98234 0.0
H1735 H 0.99221 0.43486 0.00511 0.0
H1736 H 0.97161 0.51051 0.0293 0.0
H1737 H 0.99769 0.48603 0.95265 0.0
C1738 C 0.0007 0.52014 0.94311 0.0
C1739 C -0.00094 0.54207 0.95108 0.0
C1740 C 0.97624 0.49394 0.02403 0.0
C1741 C 0.98969 0.50745 0.98324 0.0
C1742 C 0.97239 0.47664 0.04028 0.0
C1743 C 0.97808 0.455 0.03385 0.0
C1744 C 0.98565 0.48954 0.00108 0.0
C1745 C 0.98787 0.45135 0.01096 0.0
C1746 C 0.99607 0.50283 0.9591 0.0
C1747 C 0.99203 0.54596 0.97518 0.0
N1748 N 0.99125 0.46843 0.99535 0.0
N1749 N 0.9877 0.52884 0.99041 0.0
H1750 H 0.0337 0.94287 0.02183 0.0
H1751 H 0.92615 0.01475 0.00159 0.0
H1752 H 0.02364 0.00477 0.05883 0.0
H1753 H 0.95593 0.97901 0.94196 0.0
H1754 H 0.95748 0.00506 0.02752 0.0
H1755 H 0.00093 0.95017 0.99669 0.0
C1756 C 0.02443 0.9579 0.02473 0.0
C1757 C 0.03118 0.97328 0.04234 0.0
C1758 C 0.95705 -0.00076 0.0088 0.0
C1759 C 0.99385 0.9815 0.01411 0.0
C1760 C 0.93914 0.0046 0.99405 0.0
C1761 C 0.9385 0.99771 0.96956 0.0
C1762 C 0.97424 0.98653 -0.00082 0.0
C1763 C 0.95588 0.98472 0.9607 0.0
C1764 C 0.0059 0.96208 0.01037 0.0
C1765 C 0.01885 0.99259 0.04537 0.0
N1766 N 0.97307 0.97945 0.97557 0.0
N1767 N 0.00061 0.9961 0.03149 0.0
H1768 H 0.48854 0.55932 0.51159 0.0
H1769 H 0.4852 0.43152 0.47605 0.0
H1770 H 0.45243 0.51058 0.5528 0.0
H1771 H 0.51686 0.48147 0.43219 0.0
H1772 H 0.47217 0.46021 0.50384 0.0
H1773 H 0.4994 0.53079 0.48259 0.0
C1774 C 0.48312 0.54255 0.51471 0.0
C1775 C 0.46965 0.5373 0.53472 0.0
C1776 C 0.48184 0.46491 0.48804 0.0
C1777 C 0.48166 0.5046 0.50129 0.0
C1778 C 0.4891 0.44855 0.47202 0.0
C1779 C 0.50223 0.45409 0.45181 0.0
C1780 C 0.48782 0.48695 0.48386 0.0
C1781 C 0.50707 0.47642 0.44775 0.0
C1782 C 0.48913 0.5263 0.49799 0.0
C1783 C 0.46272 0.51537 0.53753 0.0
N1784 N 0.49998 0.492 0.46371 0.0
N1785 N 0.46882 0.49981 0.52101 0.0
H1786 H 0.05151 0.49713 0.47489 0.0
H1787 H 0.93261 0.52798 0.52572 0.0
H1788 H 0.00671 0.54021 0.43625 0.0
H1789 H 0.96578 0.46724 0.54449 0.0
H1790 H 0.96235 0.53637 0.49704 0.0
H1791 H 0.02233 0.48883 0.5041 0.0
C1792 C 0.03548 0.5046 0.47225 0.0
C1793 C 0.03164 0.51941 0.45294 0.0
C1794 C 0.9631 0.52129 0.5076 0.0
C1795 C 0.99842 0.51053 0.48697 0.0
C1796 C 0.94617 0.51648 0.524 0.0
C1797 C 0.94658 0.49683 0.53758 0.0
C1798 C 0.9807 0.50648 0.50495 0.0
C1799 C 0.96484 0.48277 0.53482 0.0
C1800 C 0.01891 0.50002 0.48914 0.0
C1801 C 0.01061 0.52898 0.45101 0.0
N1802 N 0.98113 0.48786 0.51879 0.0
N1803 N 0.99485 0.5245 0.46791 0.0
H1804 H 0.99661 0.96965 0.56843 0.0
H1805 H 0.95736 -0.00086 0.43282 0.0
H1806 H 0.99166 0.9211 0.5109 0.0
H1807 H 0.98513 0.04679 0.48256 0.0
H1808 H 0.96408 0.97013 0.4632 0.0
H1809 H 0.9858 0.99812 0.53916 0.0
C1810 C 0.99306 0.96489 0.54976 0.0
C1811 C 0.99531 0.94289 0.54216 0.0
C1812 C 0.96876 0.98694 0.46739 0.0
C1813 C 0.98277 0.97541 0.50866 0.0
C1814 C 0.96497 0.00343 0.45009 0.0
C1815 C 0.97094 0.02529 0.45515 0.0
C1816 C 0.97822 0.99245 0.49001 0.0
C1817 C 0.98066 0.03006 0.47781 0.0
C1818 C 0.98691 0.98117 0.53308 0.0
C1819 C 0.98997 0.93772 0.51779 0.0
N1820 N 0.98391 0.01378 0.49447 0.0
N1821 N 0.98409 0.95387 0.50189 0.0
H1822 H 0.53948 0.98935 0.55255 0.0
H1823 H 0.47793 0.007 0.42432 0.0
H1824 H 0.54903 0.04626 0.50639 0.0
H1825 H 0.46868 0.95001 0.47045 0.0
H1826 H 0.50502 0.02115 0.45351 0.0
H1827 H 0.51451 0.97395 0.52188 0.0
C1828 C 0.53637 0.99857 0.53595 0.0
C1829 C 0.54619 0.01921 0.53216 0.0
C1830 C 0.49716 0.00547 0.45714 0.0
C1831 C 0.5176 0.00177 0.497 0.0
C1832 C 0.48166 0.99743 0.44051 0.0
C1833 C 0.47108 0.97726 0.44487 0.0
C1834 C 0.50201 0.99331 0.47836 0.0
C1835 C 0.47669 0.96545 0.46609 0.0
C1836 C 0.52207 0.98982 0.51847 0.0
C1837 C 0.54147 0.0305 0.51033 0.0
N1838 N 0.49168 0.97369 0.48206 0.0
N1839 N 0.5275 0.02166 0.49363 0.0
H1840 H 0.51684 0.25465 0.32131 0.0
H1841 H 0.52749 0.22922 0.17854 0.0
H1842 H 0.53588 0.30269 0.26704 0.0
H1843 H 0.51457 0.17907 0.23271 0.0
H1844 H 0.52504 0.2572 0.21022 0.0
H1845 H 0.51093 0.22772 0.28873 0.0
C1846 C 0.51968 0.25958 0.30254 0.0
C1847 C 0.5271 0.28093 0.29695 0.0
C1848 C 0.52252 0.24011 0.21519 0.0
C1849 C 0.52018 0.25022 0.25956 0.0
C1850 C 0.52371 0.22407 0.19703 0.0
C1851 C 0.52126 0.20167 0.20293 0.0
C1852 C 0.51898 0.23379 0.23955 0.0
C1853 C 0.51687 0.19609 0.22737 0.0
C1854 C 0.51621 0.24422 0.28395 0.0
C1855 C 0.53003 0.28651 0.27226 0.0
N1856 N 0.51601 0.21203 0.24482 0.0
N1857 N 0.52674 0.2712 0.25452 0.0
H1858 H 0.1869 0.53854 0.26633 0.0
H1859 H 0.31227 0.51543 0.2306 0.0
H1860 H 0.23556 0.51517 0.31778 0.0
H1861 H 0.2619 0.53369 0.17866 0.0
H1862 H 0.28394 0.51238 0.26227 0.0
H1863 H 0.21341 0.53344 0.23333 0.0
C1864 C 0.20303 0.53198 0.27067 0.0
C1865 C 0.20905 0.5275 0.29495 0.0
C1866 C 0.27907 0.5168 0.24387 0.0
C1867 C 0.23971 0.52204 0.25722 0.0
C1868 C 0.29525 0.51864 0.22582 0.0
C1869 C 0.28948 0.5249 0.20196 0.0
C1870 C 0.25699 0.52145 0.23806 0.0
C1871 C 0.26712 0.52859 0.19672 0.0
C1872 C 0.21825 0.52922 0.25181 0.0
C1873 C 0.23034 0.5193 0.29942 0.0
N1874 N 0.25175 0.527 0.21465 0.0
N1875 N 0.24496 0.51704 0.28079 0.0
H1876 H 0.99112 0.25244 0.17602 0.0
H1877 H 0.96023 0.22866 0.31561 0.0
H1878 H 0.95601 0.29845 0.22201 0.0
H1879 H 0.97427 0.17708 0.26359 0.0
H1880 H 0.966 0.25606 0.28349 0.0
H1881 H 0.99207 0.22631 0.21003 0.0
C1882 C 0.9837 0.25714 0.19324 0.0
C1883 C 0.97324 0.27768 0.19595 0.0
C1884 C 0.96799 0.23875 0.27915 0.0
C1885 C 0.97466 0.24791 0.23507 0.0
C1886 C 0.96486 0.22311 0.2975 0.0
C1887 C 0.96673 0.20055 0.29223 0.0
C1888 C 0.97319 0.23183 0.25537 0.0
C1889 C 0.97245 0.19431 0.26835 0.0
C1890 C 0.98434 0.24222 0.21266 0.0
C1891 C 0.96445 0.28299 0.21898 0.0
N1892 N 0.97545 0.20987 0.25077 0.0
N1893 N 0.96526 0.26816 0.23758 0.0
H1894 H 0.31386 0.96889 0.26178 0.0
H1895 H 0.18883 0.94753 0.22614 0.0
H1896 H 0.2638 0.95357 0.31511 0.0
H1897 H 0.2341 0.98205 0.17874 0.0
H1898 H 0.21594 0.94955 0.25899 0.0
H1899 H 0.28506 0.97322 0.23075 0.0
C1900 C 0.2968 0.96656 0.26696 0.0
C1901 C 0.2912 0.96084 0.29102 0.0
C1902 C 0.21984 0.95687 0.24145 0.0
C1903 C 0.25822 0.96563 0.25568 0.0
C1904 C 0.20429 0.95586 0.22269 0.0
C1905 C 0.20918 0.96445 0.19946 0.0
C1906 C 0.24057 0.96631 0.23695 0.0
C1907 C 0.22973 0.97472 0.19612 0.0
C1908 C 0.28037 0.96914 0.24931 0.0
C1909 C 0.26882 0.95818 0.29682 0.0
N1910 N 0.24474 0.97515 0.21455 0.0
N1911 N 0.25317 0.96037 0.27923 0.0
H1912 H 0.45833 0.80339 0.77594 0.0
H1913 H 0.423 0.68577 0.72729 0.0
H1914 H 0.4278 0.75434 0.82212 0.0
H1915 H 0.47478 0.72359 0.69293 0.0
H1916 H 0.42321 0.71147 0.76139 0.0
H1917 H 0.46308 0.7754 0.74423 0.0
C1918 C 0.45278 0.78675 0.77955 0.0
C1919 C 0.44244 0.78134 0.80174 0.0
C1920 C 0.43468 0.71401 0.74649 0.0
C1921 C 0.44753 0.74936 0.76531 0.0
C1922 C 0.43473 0.69921 0.72703 0.0
C1923 C 0.44889 0.70243 0.70702 0.0
C1924 C 0.44862 0.73243 0.74588 0.0
C1925 C 0.46326 0.72061 0.70764 0.0
C1926 C 0.45545 0.7708 0.76138 0.0
C1927 C 0.43534 0.7595 0.80513 0.0
N1928 N 0.4626 0.73506 0.72662 0.0
N1929 N 0.43786 0.74439 0.78706 0.0
H1930 H 0.80353 0.41391 0.71794 0.0
H1931 H 0.69722 0.46382 0.78328 0.0
H1932 H 0.76032 0.46044 0.68243 0.0
H1933 H 0.72662 0.40172 0.80412 0.0
H1934 H 0.72254 0.46578 0.74863 0.0
H1935 H 0.7783 0.41276 0.75286 0.0
C1936 C 0.78883 0.42404 0.71764 0.0
C1937 C 0.78394 0.43726 0.69732 0.0
C1938 C 0.72338 0.45173 0.76081 0.0
C1939 C 0.75505 0.43597 0.73701 0.0
C1940 C 0.70882 0.4505 0.78052 0.0
C1941 C 0.70974 0.43259 0.79678 0.0
C1942 C 0.73914 0.43509 0.75747 0.0
C1943 C 0.72551 0.41607 0.79243 0.0
C1944 C 0.77437 0.42324 0.73743 0.0
C1945 C 0.76457 0.44989 0.69769 0.0
N1946 N 0.73964 0.41778 0.77329 0.0
N1947 N 0.75083 0.44899 0.71727 0.0
H1948 H 0.07034 0.75397 0.67361 0.0
H1949 H 0.04452 0.74046 0.81625 0.0
H1950 H 0.05846 0.80873 0.72226 0.0
H1951 H 0.06629 0.6869 0.77027 0.0
H1952 H 0.04632 0.76519 0.78114 0.0
H1953 H 0.06598 0.72871 0.70801 0.0
C1954 C 0.06693 0.76072 0.69154 0.0
C1955 C 0.06492 0.78357 0.69504 0.0
C1956 C 0.05065 0.74802 0.7787 0.0
C1957 C 0.05955 0.75464 0.73447 0.0
C1958 C 0.04971 0.73389 0.79877 0.0
C1959 C 0.05546 0.71158 0.79628 0.0
C1960 C 0.05733 0.73982 0.75589 0.0
C1961 C 0.06156 0.70391 0.77303 0.0
C1962 C 0.06431 0.74625 0.71115 0.0
C1963 C 0.05996 0.79127 0.71862 0.0
N1964 N 0.06243 0.71804 0.75376 0.0
N1965 N 0.0575 0.77684 0.73742 0.0
H1966 H 0.71516 0.02218 0.69947 0.0
H1967 H 0.74454 0.04787 0.83898 0.0
H1968 H 0.67356 0.06049 0.74712 0.0
H1969 H 0.79415 0.03768 0.7835 0.0
H1970 H 0.71602 0.04287 0.80802 0.0
H1971 H 0.74175 0.01786 0.73308 0.0
C1972 C 0.71142 0.02919 0.71721 0.0
C1973 C 0.69227 0.04172 0.72068 0.0
C1974 C 0.73317 0.04155 0.80273 0.0
C1975 C 0.72237 0.03693 0.75887 0.0
C1976 C 0.7495 0.04456 0.82033 0.0
C1977 C 0.77189 0.04371 0.81381 0.0
C1978 C 0.73918 0.03734 0.77844 0.0
C1979 C 0.77718 0.03851 0.78946 0.0
C1980 C 0.72661 0.02688 0.73624 0.0
C1981 C 0.68822 0.05076 0.74382 0.0
N1982 N 0.76094 0.03568 0.77261 0.0
N1983 N 0.70319 0.04825 0.76205 0.0
loop_
_geom_bond_atom_site_label_1
_geom_bond_atom_site_label_2
_geom_bond_distance
_geom_bond_site_symmetry_2
_ccdc_geom_bond_type
Li0 N17 1.990 . S
Li0 O60 1.956 . S
Li0 O61 1.970 . S
Li0 O62 1.961 . S
Li1 N25 1.990 . S
Li1 O60 1.970 . S
Li1 O61 1.956 . S
Li1 O63 1.961 . S
Li2 N47 1.990 . S
Li2 O60 1.961 . S
Li2 O62 1.956 . S
Li2 O63 1.970 . S
Li3 N53 1.990 . S
Li3 O61 1.961 . S
Li3 O62 1.970 . S
Li3 O63 1.956 . S
C4 C6 1.348 . S
C4 C7 1.356 . S
C4 O60 1.325 . S
N5 C8 1.314 . S
N5 C9 1.279 . S
C6 C4 1.348 . S
C6 C8 1.353 . S
C6 H64 0.929 . S
C7 C4 1.356 . S
C7 C9 1.358 . S
C7 H65 0.930 . S
C8 N5 1.314 . S
C8 C6 1.353 . S
C8 H66 0.930 . S
C9 N5 1.279 . S
C9 C7 1.358 . S
C9 H67 0.930 . S
C10 C13 1.348 . S
C10 C14 1.356 . S
C10 O61 1.325 . S
C11 N12 1.279 . S
C11 C14 1.358 . S
C11 H68 0.930 . S
N12 C11 1.279 . S
N12 C15 1.314 . S
C13 C10 1.348 . S
C13 C15 1.353 . S
C13 H69 0.929 . S
C14 C10 1.356 . S
C14 C11 1.358 . S
C14 H70 0.930 . S
C15 N12 1.314 . S
C15 C13 1.353 . S
C15 H71 0.930 . S
C16 N17 1.314 . S
C16 C21 1.353 . S
C16 H22 0.930 . S
N17 Li0 1.990 . S
N17 C16 1.314 . S
N17 C19 1.279 . S
C18 C19 1.358 . S
C18 C20 1.356 . S
C18 H72 0.930 . S
C19 N17 1.279 . S
C19 C18 1.358 . S
C19 H23 0.930 . S
C20 C18 1.356 . S
C20 C21 1.348 . S
C21 C16 1.353 . S
C21 C20 1.348 . S
C21 H73 0.929 . S
H22 C16 0.930 . S
H23 C19 0.930 . S
C24 N25 1.314 . S
C24 C26 1.353 . S
C24 H30 0.930 . S
N25 Li1 1.990 . S
N25 C24 1.314 . S
N25 C28 1.279 . S
C26 C24 1.353 . S
C26 C29 1.348 . S
C26 H74 0.929 . S
C27 C28 1.358 . S
C27 C29 1.356 . S
C27 H75 0.930 . S
C28 N25 1.279 . S
C28 C27 1.358 . S
C28 H31 0.930 . S
C29 C26 1.348 . S
C29 C27 1.356 . S
H30 C24 0.930 . S
H31 C28 0.930 . S
C32 C34 1.348 . S
C32 C35 1.356 . S
C32 O62 1.325 . S
N33 C36 1.314 . S
N33 C37 1.279 . S
C34 C32 1.348 . S
C34 C36 1.353 . S
C34 H76 0.929 . S
C35 C32 1.356 . S
C35 C37 1.358 . S
C35 H77 0.930 . S
C36 N33 1.314 . S
C36 C34 1.353 . S
C36 H78 0.930 . S
C37 N33 1.279 . S
C37 C35 1.358 . S
C37 H79 0.930 . S
C38 C39 1.348 . S
C38 C40 1.356 . S
C38 O63 1.325 . S
C39 C38 1.348 . S
C39 C41 1.353 1_554 S
C39 H80 0.929 . S
C40 C38 1.356 . S
C40 C42 1.358 1_554 S
C40 H81 0.930 . S
C41 C39 1.353 1_556 S
C41 N43 1.314 . S
C41 H82 0.930 . S
C42 C40 1.358 1_556 S
C42 N43 1.279 . S
C42 H83 0.930 . S
N43 C41 1.314 . S
N43 C42 1.279 . S
C44 C46 1.353 . S
C44 N47 1.314 . S
C44 H50 0.930 . S
C45 N47 1.279 . S
C45 C48 1.358 . S
C45 H51 0.930 . S
C46 C44 1.353 . S
C46 C49 1.348 . S
C46 H84 0.929 . S
N47 Li2 1.990 . S
N47 C44 1.314 . S
N47 C45 1.279 . S
C48 C45 1.358 . S
C48 C49 1.356 . S
C48 H85 0.930 . S
C49 C46 1.348 . S
C49 C48 1.356 . S
H50 C44 0.930 . S
H51 C45 0.930 . S
C52 N53 1.314 . S
C52 C54 1.353 . S
C52 H58 0.930 . S
N53 Li3 1.990 . S
N53 C52 1.314 . S
N53 C56 1.279 . S
C54 C52 1.353 . S
C54 C57 1.348 . S
C54 H86 0.929 . S
C55 C56 1.358 . S
C55 C57 1.356 . S
C55 H87 0.930 1_554 S
C56 N53 1.279 . S
C56 C55 1.358 . S
C56 H59 0.930 . S
C57 C54 1.348 . S
C57 C55 1.356 . S
H58 C52 0.930 . S
H59 C56 0.930 . S
O60 Li0 1.956 . S
O60 Li1 1.970 . S
O60 Li2 1.961 . S
O60 C4 1.325 . S
O61 Li0 1.970 . S
O61 Li1 1.956 . S
O61 Li3 1.961 . S
O61 C10 1.325 . S
O62 Li0 1.961 . S
O62 Li2 1.956 . S
O62 Li3 1.970 . S
O62 C32 1.325 . S
O63 Li1 1.961 . S
O63 Li2 1.970 . S
O63 Li3 1.956 . S
O63 C38 1.325 . S
H64 C6 0.929 . S
H65 C7 0.930 . S
H66 C8 0.930 . S
H67 C9 0.930 . S
H68 C11 0.930 . S
H69 C13 0.929 . S
H70 C14 0.930 . S
H71 C15 0.930 . S
H72 C18 0.930 . S
H73 C21 0.929 . S
H74 C26 0.929 . S
H75 C27 0.930 . S
H76 C34 0.929 . S
H77 C35 0.930 . S
H78 C36 0.930 . S
H79 C37 0.930 . S
H80 C39 0.929 . S
H81 C40 0.930 . S
H82 C41 0.930 . S
H83 C42 0.930 . S
H84 C46 0.929 . S
H85 C48 0.930 . S
H86 C54 0.929 . S
H87 C55 0.930 1_556 S
Li88 N105 1.990 . S
Li88 O148 1.956 . S
Li88 O149 1.970 . S
Li88 O150 1.961 . S
Li89 N113 1.990 . S
Li89 O148 1.970 . S
Li89 O149 1.956 . S
Li89 O151 1.961 . S
Li90 N135 1.990 . S
Li90 O148 1.961 . S
Li90 O150 1.956 . S
Li90 O151 1.970 . S
Li91 N141 1.990 . S
Li91 O149 1.961 . S
Li91 O150 1.970 . S
Li91 O151 1.956 . S
C92 C94 1.348 . S
C92 C95 1.356 . S
C92 O148 1.325 . S
N93 C96 1.314 . S
N93 C97 1.279 . S
C94 C92 1.348 . S
C94 C96 1.353 . S
C94 H152 0.929 . S
C95 C92 1.356 . S
C95 C97 1.358 . S
C95 H153 0.930 . S
C96 N93 1.314 . S
C96 C94 1.353 . S
C96 H154 0.930 . S
C97 N93 1.279 . S
C97 C95 1.358 . S
C97 H155 0.930 . S
C98 C101 1.348 . S
C98 C102 1.356 . S
C98 O149 1.325 . S
C99 N100 1.279 . S
C99 C102 1.358 . S
C99 H156 0.930 . S
N100 C99 1.279 . S
N100 C103 1.314 . S
C101 C98 1.348 . S
C101 C103 1.353 . S
C101 H157 0.929 . S
C102 C98 1.356 . S
C102 C99 1.358 . S
C102 H158 0.930 . S
C103 N100 1.314 . S
C103 C101 1.353 . S
C103 H159 0.930 . S
C104 N105 1.314 . S
C104 C109 1.353 . S
C104 H110 0.930 . S
N105 Li88 1.990 . S
N105 C104 1.314 . S
N105 C107 1.279 . S
C106 C107 1.358 . S
C106 C108 1.356 . S
C106 H160 0.930 . S
C107 N105 1.279 . S
C107 C106 1.358 . S
C107 H111 0.930 . S
C108 C106 1.356 . S
C108 C109 1.348 . S
C109 C104 1.353 . S
C109 C108 1.348 . S
C109 H161 0.929 . S
H110 C104 0.930 . S
H111 C107 0.930 . S
C112 N113 1.314 . S
C112 C114 1.353 . S
C112 H118 0.930 . S
N113 Li89 1.990 . S
N113 C112 1.314 . S
N113 C116 1.279 . S
C114 C112 1.353 . S
C114 C117 1.348 . S
C114 H162 0.929 . S
C115 C116 1.358 . S
C115 C117 1.356 . S
C115 H163 0.930 . S
C116 N113 1.279 . S
C116 C115 1.358 . S
C116 H119 0.930 . S
C117 C114 1.348 . S
C117 C115 1.356 . S
H118 C112 0.930 . S
H119 C116 0.930 . S
C120 C122 1.348 . S
C120 C123 1.356 . S
C120 O150 1.325 . S
N121 C124 1.314 . S
N121 C125 1.279 . S
C122 C120 1.348 . S
C122 C124 1.353 . S
C122 H164 0.929 . S
C123 C120 1.356 . S
C123 C125 1.358 . S
C123 H165 0.930 . S
C124 N121 1.314 . S
C124 C122 1.353 . S
C124 H166 0.930 . S
C125 N121 1.279 . S
C125 C123 1.358 . S
C125 H167 0.930 . S
C126 C127 1.348 . S
C126 C128 1.356 . S
C126 O151 1.325 . S
C127 C126 1.348 . S
C127 C129 1.353 1_554 S
C127 H168 0.929 . S
C128 C126 1.356 . S
C128 C130 1.358 1_554 S
C128 H169 0.930 . S
C129 C127 1.353 1_556 S
C129 N131 1.314 . S
C129 H170 0.930 . S
C130 C128 1.358 1_556 S
C130 N131 1.279 . S
C130 H171 0.930 . S
N131 C129 1.314 . S
N131 C130 1.279 . S
C132 C134 1.353 . S
C132 N135 1.314 . S
C132 H138 0.930 . S
C133 N135 1.279 . S
C133 C136 1.358 . S
C133 H139 0.930 . S
C134 C132 1.353 . S
C134 C137 1.348 . S
C134 H172 0.929 . S
N135 Li90 1.990 . S
N135 C132 1.314 . S
N135 C133 1.279 . S
C136 C133 1.358 . S
C136 C137 1.356 . S
C136 H173 0.930 . S
C137 C134 1.348 . S
C137 C136 1.356 . S
H138 C132 0.930 . S
H139 C133 0.930 . S
C140 N141 1.314 . S
C140 C142 1.353 . S
C140 H146 0.930 . S
N141 Li91 1.990 . S
N141 C140 1.314 . S
N141 C144 1.279 . S
C142 C140 1.353 . S
C142 C145 1.348 . S
C142 H174 0.929 . S
C143 C144 1.358 . S
C143 C145 1.356 . S
C143 H175 0.930 1_554 S
C144 N141 1.279 . S
C144 C143 1.358 . S
C144 H147 0.930 . S
C145 C142 1.348 . S
C145 C143 1.356 . S
H146 C140 0.930 . S
H147 C144 0.930 . S
O148 Li88 1.956 . S
O148 Li89 1.970 . S
O148 Li90 1.961 . S
O148 C92 1.325 . S
O149 Li88 1.970 . S
O149 Li89 1.956 . S
O149 Li91 1.961 . S
O149 C98 1.325 . S
O150 Li88 1.961 . S
O150 Li90 1.956 . S
O150 Li91 1.970 . S
O150 C120 1.325 . S
O151 Li89 1.961 . S
O151 Li90 1.970 . S
O151 Li91 1.956 . S
O151 C126 1.325 . S
H152 C94 0.929 . S
H153 C95 0.930 . S
H154 C96 0.930 . S
H155 C97 0.930 . S
H156 C99 0.930 . S
H157 C101 0.929 . S
H158 C102 0.930 . S
H159 C103 0.930 . S
H160 C106 0.930 . S
H161 C109 0.929 . S
H162 C114 0.929 . S
H163 C115 0.930 . S
H164 C122 0.929 . S
H165 C123 0.930 . S
H166 C124 0.930 . S
H167 C125 0.930 . S
H168 C127 0.929 . S
H169 C128 0.930 . S
H170 C129 0.930 . S
H171 C130 0.930 . S
H172 C134 0.929 . S
H173 C136 0.930 . S
H174 C142 0.929 . S
H175 C143 0.930 1_556 S
Li176 N193 1.990 . S
Li176 O236 1.956 . S
Li176 O237 1.970 . S
Li176 O238 1.961 . S
Li177 N201 1.990 . S
Li177 O236 1.970 . S
Li177 O237 1.956 . S
Li177 O239 1.961 . S
Li178 N223 1.990 . S
Li178 O236 1.961 . S
Li178 O238 1.956 . S
Li178 O239 1.970 . S
Li179 N229 1.990 . S
Li179 O237 1.961 . S
Li179 O238 1.970 . S
Li179 O239 1.956 . S
C180 C182 1.348 . S
C180 C183 1.356 . S
C180 O236 1.325 . S
N181 C184 1.314 1_455 S
N181 C185 1.279 1_455 S
C182 C180 1.348 . S
C182 C184 1.353 . S
C182 H240 0.929 . S
C183 C180 1.356 . S
C183 C185 1.358 . S
C183 H241 0.930 . S
C184 N181 1.314 1_655 S
C184 C182 1.353 . S
C184 H242 0.930 . S
C185 N181 1.279 1_655 S
C185 C183 1.358 . S
C185 H243 0.930 1_655 S
C186 C189 1.348 . S
C186 C190 1.356 . S
C186 O237 1.325 . S
C187 N188 1.279 . S
C187 C190 1.358 . S
C187 H244 0.930 . S
N188 C187 1.279 . S
N188 C191 1.314 . S
C189 C186 1.348 . S
C189 C191 1.353 . S
C189 H245 0.929 . S
C190 C186 1.356 . S
C190 C187 1.358 . S
C190 H246 0.930 . S
C191 N188 1.314 . S
C191 C189 1.353 . S
C191 H247 0.930 . S
C192 N193 1.314 . S
C192 C197 1.353 . S
C192 H198 0.930 . S
N193 Li176 1.990 . S
N193 C192 1.314 . S
N193 C195 1.279 . S
C194 C195 1.358 . S
C194 C196 1.356 . S
C194 H248 0.930 1_655 S
C195 N193 1.279 . S
C195 C194 1.358 . S
C195 H199 0.930 . S
C196 C194 1.356 . S
C196 C197 1.348 . S
C197 C192 1.353 . S
C197 C196 1.348 . S
C197 H249 0.929 . S
H198 C192 0.930 . S
H199 C195 0.930 . S
C200 N201 1.314 . S
C200 C202 1.353 . S
C200 H206 0.930 . S
N201 Li177 1.990 . S
N201 C200 1.314 . S
N201 C204 1.279 . S
C202 C200 1.353 . S
C202 C205 1.348 . S
C202 H250 0.929 . S
C203 C204 1.358 . S
C203 C205 1.356 . S
C203 H251 0.930 . S
C204 N201 1.279 . S
C204 C203 1.358 . S
C204 H207 0.930 . S
C205 C202 1.348 . S
C205 C203 1.356 . S
H206 C200 0.930 . S
H207 C204 0.930 . S
C208 C210 1.348 . S
C208 C211 1.356 . S
C208 O238 1.325 . S
N209 C212 1.314 . S
N209 C213 1.279 . S
C210 C208 1.348 . S
C210 C212 1.353 1_554 S
C210 H252 0.929 . S
C211 C208 1.356 . S
C211 C213 1.358 1_554 S
C211 H253 0.930 . S
C212 N209 1.314 . S
C212 C210 1.353 1_556 S
C212 H254 0.930 . S
C213 N209 1.279 . S
C213 C211 1.358 1_556 S
C213 H255 0.930 . S
C214 C215 1.348 . S
C214 C216 1.356 . S
C214 O239 1.325 . S
C215 C214 1.348 . S
C215 C217 1.353 . S
C215 H256 0.929 . S
C216 C214 1.356 . S
C216 C218 1.358 . S
C216 H257 0.930 . S
C217 C215 1.353 . S
C217 N219 1.314 . S
C217 H258 0.930 . S
C218 C216 1.358 . S
C218 N219 1.279 . S
C218 H259 0.930 . S
N219 C217 1.314 . S
N219 C218 1.279 . S
C220 C222 1.353 . S
C220 N223 1.314 . S
C220 H226 0.930 . S
C221 N223 1.279 . S
C221 C224 1.358 . S
C221 H227 0.930 . S
C222 C220 1.353 . S
C222 C225 1.348 . S
C222 H260 0.929 . S
N223 Li178 1.990 . S
N223 C220 1.314 . S
N223 C221 1.279 . S
C224 C221 1.358 . S
C224 C225 1.356 . S
C224 H261 0.930 1_554 S
C225 C222 1.348 . S
C225 C224 1.356 . S
H226 C220 0.930 . S
H227 C221 0.930 . S
C228 N229 1.314 . S
C228 C230 1.353 . S
C228 H234 0.930 . S
N229 Li179 1.990 . S
N229 C228 1.314 . S
N229 C232 1.279 . S
C230 C228 1.353 . S
C230 C233 1.348 . S
C230 H262 0.929 . S
C231 C232 1.358 . S
C231 C233 1.356 . S
C231 H263 0.930 . S
C232 N229 1.279 . S
C232 C231 1.358 . S
C232 H235 0.930 . S
C233 C230 1.348 . S
C233 C231 1.356 . S
H234 C228 0.930 . S
H235 C232 0.930 . S
O236 Li176 1.956 . S
O236 Li177 1.970 . S
O236 Li178 1.961 . S
O236 C180 1.325 . S
O237 Li176 1.970 . S
O237 Li177 1.956 . S
O237 Li179 1.961 . S
O237 C186 1.325 . S
O238 Li176 1.961 . S
O238 Li178 1.956 . S
O238 Li179 1.970 . S
O238 C208 1.325 . S
O239 Li177 1.961 . S
O239 Li178 1.970 . S
O239 Li179 1.956 . S
O239 C214 1.325 . S
H240 C182 0.929 . S
H241 C183 0.930 . S
H242 C184 0.930 . S
H243 C185 0.930 1_455 S
H244 C187 0.930 . S
H245 C189 0.929 . S
H246 C190 0.930 . S
H247 C191 0.930 . S
H248 C194 0.930 1_455 S
H249 C197 0.929 . S
H250 C202 0.929 . S
H251 C203 0.930 . S
H252 C210 0.929 . S
H253 C211 0.930 . S
H254 C212 0.930 . S
H255 C213 0.930 . S
H256 C215 0.929 . S
H257 C216 0.930 . S
H258 C217 0.930 . S
H259 C218 0.930 . S
H260 C222 0.929 . S
H261 C224 0.930 1_556 S
H262 C230 0.929 . S
H263 C231 0.930 . S
Li264 N281 1.990 . S
Li264 O324 1.956 . S
Li264 O325 1.970 . S
Li264 O326 1.961 . S
Li265 N289 1.990 . S
Li265 O324 1.970 . S
Li265 O325 1.956 . S
Li265 O327 1.961 . S
Li266 N311 1.990 . S
Li266 O324 1.961 . S
Li266 O326 1.956 . S
Li266 O327 1.970 . S
Li267 N317 1.990 . S
Li267 O325 1.961 . S
Li267 O326 1.970 . S
Li267 O327 1.956 . S
C268 C270 1.348 . S
C268 C271 1.356 . S
C268 O324 1.325 . S
N269 C272 1.314 1_545 S
N269 C273 1.279 1_545 S
C270 C268 1.348 . S
C270 C272 1.353 . S
C270 H328 0.929 . S
C271 C268 1.356 . S
C271 C273 1.358 . S
C271 H329 0.930 . S
C272 N269 1.314 1_565 S
C272 C270 1.353 . S
C272 H330 0.930 . S
C273 N269 1.279 1_565 S
C273 C271 1.358 . S
C273 H331 0.930 1_565 S
C274 C277 1.348 . S
C274 C278 1.356 . S
C274 O325 1.325 . S
C275 N276 1.279 . S
C275 C278 1.358 . S
C275 H332 0.930 . S
N276 C275 1.279 . S
N276 C279 1.314 . S
C277 C274 1.348 . S
C277 C279 1.353 . S
C277 H333 0.929 . S
C278 C274 1.356 . S
C278 C275 1.358 . S
C278 H334 0.930 . S
C279 N276 1.314 . S
C279 C277 1.353 . S
C279 H335 0.930 . S
C280 N281 1.314 . S
C280 C285 1.353 . S
C280 H286 0.930 . S
N281 Li264 1.990 . S
N281 C280 1.314 . S
N281 C283 1.279 . S
C282 C283 1.358 . S
C282 C284 1.356 . S
C282 H336 0.930 1_565 S
C283 N281 1.279 . S
C283 C282 1.358 . S
C283 H287 0.930 . S
C284 C282 1.356 . S
C284 C285 1.348 . S
C285 C280 1.353 . S
C285 C284 1.348 . S
C285 H337 0.929 . S
H286 C280 0.930 . S
H287 C283 0.930 . S
C288 N289 1.314 . S
C288 C290 1.353 . S
C288 H294 0.930 . S
N289 Li265 1.990 . S
N289 C288 1.314 . S
N289 C292 1.279 . S
C290 C288 1.353 . S
C290 C293 1.348 . S
C290 H338 0.929 . S
C291 C292 1.358 . S
C291 C293 1.356 . S
C291 H339 0.930 . S
C292 N289 1.279 . S
C292 C291 1.358 . S
C292 H295 0.930 . S
C293 C290 1.348 . S
C293 C291 1.356 . S
H294 C288 0.930 . S
H295 C292 0.930 . S
C296 C298 1.348 . S
C296 C299 1.356 . S
C296 O326 1.325 . S
N297 C300 1.314 . S
N297 C301 1.279 . S
C298 C296 1.348 . S
C298 C300 1.353 1_554 S
C298 H340 0.929 . S
C299 C296 1.356 . S
C299 C301 1.358 1_554 S
C299 H341 0.930 . S
C300 N297 1.314 . S
C300 C298 1.353 1_556 S
C300 H342 0.930 . S
C301 N297 1.279 . S
C301 C299 1.358 1_556 S
C301 H343 0.930 . S
C302 C303 1.348 . S
C302 C304 1.356 . S
C302 O327 1.325 . S
C303 C302 1.348 . S
C303 C305 1.353 . S
C303 H344 0.929 . S
C304 C302 1.356 . S
C304 C306 1.358 . S
C304 H345 0.930 . S
C305 C303 1.353 . S
C305 N307 1.314 . S
C305 H346 0.930 . S
C306 C304 1.358 . S
C306 N307 1.279 . S
C306 H347 0.930 . S
N307 C305 1.314 . S
N307 C306 1.279 . S
C308 C310 1.353 . S
C308 N311 1.314 . S
C308 H314 0.930 . S
C309 N311 1.279 . S
C309 C312 1.358 . S
C309 H315 0.930 . S
C310 C308 1.353 . S
C310 C313 1.348 . S
C310 H348 0.929 . S
N311 Li266 1.990 . S
N311 C308 1.314 . S
N311 C309 1.279 . S
C312 C309 1.358 . S
C312 C313 1.356 . S
C312 H349 0.930 1_554 S
C313 C310 1.348 . S
C313 C312 1.356 . S
H314 C308 0.930 . S
H315 C309 0.930 . S
C316 N317 1.314 . S
C316 C318 1.353 . S
C316 H322 0.930 . S
N317 Li267 1.990 . S
N317 C316 1.314 . S
N317 C320 1.279 . S
C318 C316 1.353 . S
C318 C321 1.348 . S
C318 H350 0.929 . S
C319 C320 1.358 . S
C319 C321 1.356 . S
C319 H351 0.930 . S
C320 N317 1.279 . S
C320 C319 1.358 . S
C320 H323 0.930 . S
C321 C318 1.348 . S
C321 C319 1.356 . S
H322 C316 0.930 . S
H323 C320 0.930 . S
O324 Li264 1.956 . S
O324 Li265 1.970 . S
O324 Li266 1.961 . S
O324 C268 1.325 . S
O325 Li264 1.970 . S
O325 Li265 1.956 . S
O325 Li267 1.961 . S
O325 C274 1.325 . S
O326 Li264 1.961 . S
O326 Li266 1.956 . S
O326 Li267 1.970 . S
O326 C296 1.325 . S
O327 Li265 1.961 . S
O327 Li266 1.970 . S
O327 Li267 1.956 . S
O327 C302 1.325 . S
H328 C270 0.929 . S
H329 C271 0.930 . S
H330 C272 0.930 . S
H331 C273 0.930 1_545 S
H332 C275 0.930 . S
H333 C277 0.929 . S
H334 C278 0.930 . S
H335 C279 0.930 . S
H336 C282 0.930 1_545 S
H337 C285 0.929 . S
H338 C290 0.929 . S
H339 C291 0.930 . S
H340 C298 0.929 . S
H341 C299 0.930 . S
H342 C300 0.930 . S
H343 C301 0.930 . S
H344 C303 0.929 . S
H345 C304 0.930 . S
H346 C305 0.930 . S
H347 C306 0.930 . S
H348 C310 0.929 . S
H349 C312 0.930 1_556 S
H350 C318 0.929 . S
H351 C319 0.930 . S
Li352 N369 1.990 . S
Li352 O412 1.956 . S
Li352 O413 1.970 . S
Li352 O414 1.961 . S
Li353 N377 1.990 . S
Li353 O412 1.970 . S
Li353 O413 1.956 . S
Li353 O415 1.961 . S
Li354 N399 1.990 . S
Li354 O412 1.961 . S
Li354 O414 1.956 . S
Li354 O415 1.970 . S
Li355 N405 1.990 . S
Li355 O413 1.961 . S
Li355 O414 1.970 . S
Li355 O415 1.956 . S
C356 C358 1.348 . S
C356 C359 1.356 . S
C356 O412 1.325 . S
N357 C360 1.314 . S
N357 C361 1.279 . S
C358 C356 1.348 . S
C358 C360 1.353 . S
C358 H416 0.929 . S
C359 C356 1.356 . S
C359 C361 1.358 . S
C359 H417 0.930 . S
C360 N357 1.314 . S
C360 C358 1.353 . S
C360 H418 0.930 . S
C361 N357 1.279 . S
C361 C359 1.358 . S
C361 H419 0.930 . S
C362 C365 1.348 . S
C362 C366 1.356 . S
C362 O413 1.325 . S
C363 N364 1.279 . S
C363 C366 1.358 . S
C363 H420 0.930 . S
N364 C363 1.279 . S
N364 C367 1.314 . S
C365 C362 1.348 . S
C365 C367 1.353 . S
C365 H421 0.929 . S
C366 C362 1.356 . S
C366 C363 1.358 . S
C366 H422 0.930 . S
C367 N364 1.314 . S
C367 C365 1.353 . S
C367 H423 0.930 . S
C368 N369 1.314 . S
C368 C373 1.353 . S
C368 H374 0.930 . S
N369 Li352 1.990 . S
N369 C368 1.314 . S
N369 C371 1.279 . S
C370 C371 1.358 . S
C370 C372 1.356 . S
C370 H424 0.930 . S
C371 N369 1.279 . S
C371 C370 1.358 . S
C371 H375 0.930 . S
C372 C370 1.356 . S
C372 C373 1.348 . S
C373 C368 1.353 . S
C373 C372 1.348 . S
C373 H425 0.929 . S
H374 C368 0.930 . S
H375 C371 0.930 . S
C376 N377 1.314 . S
C376 C378 1.353 . S
C376 H382 0.930 . S
N377 Li353 1.990 . S
N377 C376 1.314 . S
N377 C380 1.279 . S
C378 C376 1.353 . S
C378 C381 1.348 . S
C378 H426 0.929 . S
C379 C380 1.358 . S
C379 C381 1.356 . S
C379 H427 0.930 . S
C380 N377 1.279 . S
C380 C379 1.358 . S
C380 H383 0.930 . S
C381 C378 1.348 . S
C381 C379 1.356 . S
H382 C376 0.930 . S
H383 C380 0.930 . S
C384 C386 1.348 . S
C384 C387 1.356 . S
C384 O414 1.325 . S
N385 C388 1.314 . S
N385 C389 1.279 . S
C386 C384 1.348 . S
C386 C388 1.353 . S
C386 H428 0.929 . S
C387 C384 1.356 . S
C387 C389 1.358 . S
C387 H429 0.930 . S
C388 N385 1.314 . S
C388 C386 1.353 . S
C388 H430 0.930 . S
C389 N385 1.279 . S
C389 C387 1.358 . S
C389 H431 0.930 . S
C390 C391 1.348 . S
C390 C392 1.356 . S
C390 O415 1.325 . S
C391 C390 1.348 . S
C391 C393 1.353 . S
C391 H432 0.929 . S
C392 C390 1.356 . S
C392 C394 1.358 . S
C392 H433 0.930 . S
C393 C391 1.353 . S
C393 N395 1.314 . S
C393 H434 0.930 . S
C394 C392 1.358 . S
C394 N395 1.279 . S
C394 H435 0.930 . S
N395 C393 1.314 . S
N395 C394 1.279 . S
C396 C398 1.353 . S
C396 N399 1.314 . S
C396 H402 0.930 . S
C397 N399 1.279 . S
C397 C400 1.358 . S
C397 H403 0.930 . S
C398 C396 1.353 . S
C398 C401 1.348 . S
C398 H436 0.929 . S
N399 Li354 1.990 . S
N399 C396 1.314 . S
N399 C397 1.279 . S
C400 C397 1.358 . S
C400 C401 1.356 . S
C400 H437 0.930 . S
C401 C398 1.348 . S
C401 C400 1.356 . S
H402 C396 0.930 . S
H403 C397 0.930 . S
C404 N405 1.314 . S
C404 C406 1.353 . S
C404 H410 0.930 . S
N405 Li355 1.990 . S
N405 C404 1.314 . S
N405 C408 1.279 . S
C406 C404 1.353 . S
C406 C409 1.348 . S
C406 H438 0.929 . S
C407 C408 1.358 . S
C407 C409 1.356 . S
C407 H439 0.930 . S
C408 N405 1.279 . S
C408 C407 1.358 . S
C408 H411 0.930 . S
C409 C406 1.348 . S
C409 C407 1.356 . S
H410 C404 0.930 . S
H411 C408 0.930 . S
O412 Li352 1.956 . S
O412 Li353 1.970 . S
O412 Li354 1.961 . S
O412 C356 1.325 . S
O413 Li352 1.970 . S
O413 Li353 1.956 . S
O413 Li355 1.961 . S
O413 C362 1.325 . S
O414 Li352 1.961 . S
O414 Li354 1.956 . S
O414 Li355 1.970 . S
O414 C384 1.325 . S
O415 Li353 1.961 . S
O415 Li354 1.970 . S
O415 Li355 1.956 . S
O415 C390 1.325 . S
H416 C358 0.929 . S
H417 C359 0.930 . S
H418 C360 0.930 . S
H419 C361 0.930 . S
H420 C363 0.930 . S
H421 C365 0.929 . S
H422 C366 0.930 . S
H423 C367 0.930 . S
H424 C370 0.930 . S
H425 C373 0.929 . S
H426 C378 0.929 . S
H427 C379 0.930 . S
H428 C386 0.929 . S
H429 C387 0.930 . S
H430 C388 0.930 . S
H431 C389 0.930 . S
H432 C391 0.929 . S
H433 C392 0.930 . S
H434 C393 0.930 . S
H435 C394 0.930 . S
H436 C398 0.929 . S
H437 C400 0.930 . S
H438 C406 0.929 . S
H439 C407 0.930 . S
Li440 N457 1.990 . S
Li440 O500 1.956 . S
Li440 O501 1.970 . S
Li440 O502 1.961 . S
Li441 N465 1.990 . S
Li441 O500 1.970 . S
Li441 O501 1.956 . S
Li441 O503 1.961 . S
Li442 N487 1.990 . S
Li442 O500 1.961 . S
Li442 O502 1.956 . S
Li442 O503 1.970 . S
Li443 N493 1.990 . S
Li443 O501 1.961 . S
Li443 O502 1.970 . S
Li443 O503 1.956 . S
C444 C446 1.348 . S
C444 C447 1.356 . S
C444 O500 1.325 . S
N445 C448 1.314 . S
N445 C449 1.279 . S
C446 C444 1.348 . S
C446 C448 1.353 . S
C446 H504 0.929 . S
C447 C444 1.356 . S
C447 C449 1.358 . S
C447 H505 0.930 . S
C448 N445 1.314 . S
C448 C446 1.353 . S
C448 H506 0.930 . S
C449 N445 1.279 . S
C449 C447 1.358 . S
C449 H507 0.930 . S
C450 C453 1.348 . S
C450 C454 1.356 . S
C450 O501 1.325 . S
C451 N452 1.279 . S
C451 C454 1.358 . S
C451 H508 0.930 . S
N452 C451 1.279 . S
N452 C455 1.314 . S
C453 C450 1.348 . S
C453 C455 1.353 . S
C453 H509 0.929 . S
C454 C450 1.356 . S
C454 C451 1.358 . S
C454 H510 0.930 . S
C455 N452 1.314 . S
C455 C453 1.353 . S
C455 H511 0.930 . S
C456 N457 1.314 . S
C456 C461 1.353 . S
C456 H462 0.930 . S
N457 Li440 1.990 . S
N457 C456 1.314 . S
N457 C459 1.279 . S
C458 C459 1.358 . S
C458 C460 1.356 . S
C458 H512 0.930 . S
C459 N457 1.279 . S
C459 C458 1.358 . S
C459 H463 0.930 . S
C460 C458 1.356 . S
C460 C461 1.348 . S
C461 C456 1.353 . S
C461 C460 1.348 . S
C461 H513 0.929 . S
H462 C456 0.930 . S
H463 C459 0.930 . S
C464 N465 1.314 . S
C464 C466 1.353 . S
C464 H470 0.930 . S
N465 Li441 1.990 . S
N465 C464 1.314 . S
N465 C468 1.279 . S
C466 C464 1.353 . S
C466 C469 1.348 . S
C466 H514 0.929 . S
C467 C468 1.358 . S
C467 C469 1.356 . S
C467 H515 0.930 . S
C468 N465 1.279 . S
C468 C467 1.358 . S
C468 H471 0.930 . S
C469 C466 1.348 . S
C469 C467 1.356 . S
H470 C464 0.930 . S
H471 C468 0.930 . S
C472 C474 1.348 . S
C472 C475 1.356 . S
C472 O502 1.325 . S
N473 C476 1.314 . S
N473 C477 1.279 . S
C474 C472 1.348 . S
C474 C476 1.353 . S
C474 H516 0.929 . S
C475 C472 1.356 . S
C475 C477 1.358 . S
C475 H517 0.930 . S
C476 N473 1.314 . S
C476 C474 1.353 . S
C476 H518 0.930 . S
C477 N473 1.279 . S
C477 C475 1.358 . S
C477 H519 0.930 . S
C478 C479 1.348 . S
C478 C480 1.356 . S
C478 O503 1.325 . S
C479 C478 1.348 . S
C479 C481 1.353 . S
C479 H520 0.929 . S
C480 C478 1.356 . S
C480 C482 1.358 . S
C480 H521 0.930 . S
C481 C479 1.353 . S
C481 N483 1.314 . S
C481 H522 0.930 . S
C482 C480 1.358 . S
C482 N483 1.279 . S
C482 H523 0.930 . S
N483 C481 1.314 . S
N483 C482 1.279 . S
C484 C486 1.353 . S
C484 N487 1.314 . S
C484 H490 0.930 . S
C485 N487 1.279 . S
C485 C488 1.358 . S
C485 H491 0.930 . S
C486 C484 1.353 . S
C486 C489 1.348 . S
C486 H524 0.929 . S
N487 Li442 1.990 . S
N487 C484 1.314 . S
N487 C485 1.279 . S
C488 C485 1.358 . S
C488 C489 1.356 . S
C488 H525 0.930 . S
C489 C486 1.348 . S
C489 C488 1.356 . S
H490 C484 0.930 . S
H491 C485 0.930 . S
C492 N493 1.314 . S
C492 C494 1.353 . S
C492 H498 0.930 . S
N493 Li443 1.990 . S
N493 C492 1.314 . S
N493 C496 1.279 . S
C494 C492 1.353 . S
C494 C497 1.348 . S
C494 H526 0.929 . S
C495 C496 1.358 . S
C495 C497 1.356 . S
C495 H527 0.930 . S
C496 N493 1.279 . S
C496 C495 1.358 . S
C496 H499 0.930 . S
C497 C494 1.348 . S
C497 C495 1.356 . S
H498 C492 0.930 . S
H499 C496 0.930 . S
O500 Li440 1.956 . S
O500 Li441 1.970 . S
O500 Li442 1.961 . S
O500 C444 1.325 . S
O501 Li440 1.970 . S
O501 Li441 1.956 . S
O501 Li443 1.961 . S
O501 C450 1.325 . S
O502 Li440 1.961 . S
O502 Li442 1.956 . S
O502 Li443 1.970 . S
O502 C472 1.325 . S
O503 Li441 1.961 . S
O503 Li442 1.970 . S
O503 Li443 1.956 . S
O503 C478 1.325 . S
H504 C446 0.929 . S
H505 C447 0.930 . S
H506 C448 0.930 . S
H507 C449 0.930 . S
H508 C451 0.930 . S
H509 C453 0.929 . S
H510 C454 0.930 . S
H511 C455 0.930 . S
H512 C458 0.930 . S
H513 C461 0.929 . S
H514 C466 0.929 . S
H515 C467 0.930 . S
H516 C474 0.929 . S
H517 C475 0.930 . S
H518 C476 0.930 . S
H519 C477 0.930 . S
H520 C479 0.929 . S
H521 C480 0.930 . S
H522 C481 0.930 . S
H523 C482 0.930 . S
H524 C486 0.929 . S
H525 C488 0.930 . S
H526 C494 0.929 . S
H527 C495 0.930 . S
Li528 N545 1.990 . S
Li528 O588 1.956 . S
Li528 O589 1.970 . S
Li528 O590 1.961 . S
Li529 N553 1.990 . S
Li529 O588 1.970 . S
Li529 O589 1.956 . S
Li529 O591 1.961 . S
Li530 N575 1.990 . S
Li530 O588 1.961 . S
Li530 O590 1.956 . S
Li530 O591 1.970 . S
Li531 N581 1.990 . S
Li531 O589 1.961 . S
Li531 O590 1.970 . S
Li531 O591 1.956 . S
C532 C534 1.348 . S
C532 C535 1.356 . S
C532 O588 1.325 . S
N533 C536 1.314 . S
N533 C537 1.279 . S
C534 C532 1.348 . S
C534 C536 1.353 . S
C534 H592 0.929 . S
C535 C532 1.356 . S
C535 C537 1.358 . S
C535 H593 0.930 . S
C536 N533 1.314 . S
C536 C534 1.353 . S
C536 H594 0.930 . S
C537 N533 1.279 . S
C537 C535 1.358 . S
C537 H595 0.930 . S
C538 C541 1.348 . S
C538 C542 1.356 . S
C538 O589 1.325 . S
C539 N540 1.279 . S
C539 C542 1.358 . S
C539 H596 0.930 . S
N540 C539 1.279 . S
N540 C543 1.314 . S
C541 C538 1.348 . S
C541 C543 1.353 . S
C541 H597 0.929 . S
C542 C538 1.356 . S
C542 C539 1.358 . S
C542 H598 0.930 . S
C543 N540 1.314 . S
C543 C541 1.353 . S
C543 H599 0.930 . S
C544 N545 1.314 . S
C544 C549 1.353 . S
C544 H550 0.930 . S
N545 Li528 1.990 . S
N545 C544 1.314 . S
N545 C547 1.279 . S
C546 C547 1.358 . S
C546 C548 1.356 . S
C546 H600 0.930 . S
C547 N545 1.279 . S
C547 C546 1.358 . S
C547 H551 0.930 . S
C548 C546 1.356 . S
C548 C549 1.348 . S
C549 C544 1.353 . S
C549 C548 1.348 . S
C549 H601 0.929 . S
H550 C544 0.930 . S
H551 C547 0.930 . S
C552 N553 1.314 . S
C552 C554 1.353 . S
C552 H558 0.930 . S
N553 Li529 1.990 . S
N553 C552 1.314 . S
N553 C556 1.279 . S
C554 C552 1.353 . S
C554 C557 1.348 . S
C554 H602 0.929 . S
C555 C556 1.358 . S
C555 C557 1.356 . S
C555 H603 0.930 . S
C556 N553 1.279 . S
C556 C555 1.358 . S
C556 H559 0.930 . S
C557 C554 1.348 . S
C557 C555 1.356 . S
H558 C552 0.930 . S
H559 C556 0.930 . S
C560 C562 1.348 . S
C560 C563 1.356 . S
C560 O590 1.325 . S
N561 C564 1.314 1_455 S
N561 C565 1.279 1_455 S
C562 C560 1.348 . S
C562 C564 1.353 . S
C562 H604 0.929 . S
C563 C560 1.356 . S
C563 C565 1.358 . S
C563 H605 0.930 . S
C564 N561 1.314 1_655 S
C564 C562 1.353 . S
C564 H606 0.930 . S
C565 N561 1.279 1_655 S
C565 C563 1.358 . S
C565 H607 0.930 1_655 S
C566 C567 1.348 . S
C566 C568 1.356 . S
C566 O591 1.325 . S
C567 C566 1.348 . S
C567 C569 1.353 . S
C567 H608 0.929 . S
C568 C566 1.356 . S
C568 C570 1.358 . S
C568 H609 0.930 . S
C569 C567 1.353 . S
C569 N571 1.314 . S
C569 H610 0.930 . S
C570 C568 1.358 . S
C570 N571 1.279 . S
C570 H611 0.930 . S
N571 C569 1.314 . S
N571 C570 1.279 . S
C572 C574 1.353 . S
C572 N575 1.314 . S
C572 H578 0.930 . S
C573 N575 1.279 . S
C573 C576 1.358 . S
C573 H579 0.930 . S
C574 C572 1.353 . S
C574 C577 1.348 . S
C574 H612 0.929 . S
N575 Li530 1.990 . S
N575 C572 1.314 . S
N575 C573 1.279 . S
C576 C573 1.358 . S
C576 C577 1.356 . S
C576 H613 0.930 1_655 S
C577 C574 1.348 . S
C577 C576 1.356 . S
H578 C572 0.930 . S
H579 C573 0.930 . S
C580 N581 1.314 . S
C580 C582 1.353 . S
C580 H586 0.930 . S
N581 Li531 1.990 . S
N581 C580 1.314 . S
N581 C584 1.279 . S
C582 C580 1.353 . S
C582 C585 1.348 . S
C582 H614 0.929 . S
C583 C584 1.358 . S
C583 C585 1.356 . S
C583 H615 0.930 . S
C584 N581 1.279 . S
C584 C583 1.358 . S
C584 H587 0.930 . S
C585 C582 1.348 . S
C585 C583 1.356 . S
H586 C580 0.930 . S
H587 C584 0.930 . S
O588 Li528 1.956 . S
O588 Li529 1.970 . S
O588 Li530 1.961 . S
O588 C532 1.325 . S
O589 Li528 1.970 . S
O589 Li529 1.956 . S
O589 Li531 1.961 . S
O589 C538 1.325 . S
O590 Li528 1.961 . S
O590 Li530 1.956 . S
O590 Li531 1.970 . S
O590 C560 1.325 . S
O591 Li529 1.961 . S
O591 Li530 1.970 . S
O591 Li531 1.956 . S
O591 C566 1.325 . S
H592 C534 0.929 . S
H593 C535 0.930 . S
H594 C536 0.930 . S
H595 C537 0.930 . S
H596 C539 0.930 . S
H597 C541 0.929 . S
H598 C542 0.930 . S
H599 C543 0.930 . S
H600 C546 0.930 . S
H601 C549 0.929 . S
H602 C554 0.929 . S
H603 C555 0.930 . S
H604 C562 0.929 . S
H605 C563 0.930 . S
H606 C564 0.930 . S
H607 C565 0.930 1_455 S
H608 C567 0.929 . S
H609 C568 0.930 . S
H610 C569 0.930 . S
H611 C570 0.930 . S
H612 C574 0.929 . S
H613 C576 0.930 1_455 S
H614 C582 0.929 . S
H615 C583 0.930 . S
Li616 N633 1.990 . S
Li616 O676 1.956 . S
Li616 O677 1.970 . S
Li616 O678 1.961 . S
Li617 N641 1.990 . S
Li617 O676 1.970 . S
Li617 O677 1.956 . S
Li617 O679 1.961 . S
Li618 N663 1.990 . S
Li618 O676 1.961 . S
Li618 O678 1.956 . S
Li618 O679 1.970 . S
Li619 N669 1.990 . S
Li619 O677 1.961 . S
Li619 O678 1.970 . S
Li619 O679 1.956 . S
C620 C622 1.348 . S
C620 C623 1.356 . S
C620 O676 1.325 . S
N621 C624 1.314 . S
N621 C625 1.279 . S
C622 C620 1.348 . S
C622 C624 1.353 . S
C622 H680 0.929 . S
C623 C620 1.356 . S
C623 C625 1.358 . S
C623 H681 0.930 . S
C624 N621 1.314 . S
C624 C622 1.353 . S
C624 H682 0.930 . S
C625 N621 1.279 . S
C625 C623 1.358 . S
C625 H683 0.930 . S
C626 C629 1.348 . S
C626 C630 1.356 . S
C626 O677 1.325 . S
C627 N628 1.279 . S
C627 C630 1.358 . S
C627 H684 0.930 . S
N628 C627 1.279 . S
N628 C631 1.314 . S
C629 C626 1.348 . S
C629 C631 1.353 . S
C629 H685 0.929 . S
C630 C626 1.356 . S
C630 C627 1.358 . S
C630 H686 0.930 . S
C631 N628 1.314 . S
C631 C629 1.353 . S
C631 H687 0.930 . S
C632 N633 1.314 . S
C632 C637 1.353 . S
C632 H638 0.930 . S
N633 Li616 1.990 . S
N633 C632 1.314 . S
N633 C635 1.279 . S
C634 C635 1.358 . S
C634 C636 1.356 . S
C634 H688 0.930 . S
C635 N633 1.279 . S
C635 C634 1.358 . S
C635 H639 0.930 . S
C636 C634 1.356 . S
C636 C637 1.348 . S
C637 C632 1.353 . S
C637 C636 1.348 . S
C637 H689 0.929 . S
H638 C632 0.930 . S
H639 C635 0.930 . S
C640 N641 1.314 . S
C640 C642 1.353 . S
C640 H646 0.930 . S
N641 Li617 1.990 . S
N641 C640 1.314 . S
N641 C644 1.279 . S
C642 C640 1.353 . S
C642 C645 1.348 . S
C642 H690 0.929 . S
C643 C644 1.358 . S
C643 C645 1.356 . S
C643 H691 0.930 . S
C644 N641 1.279 . S
C644 C643 1.358 . S
C644 H647 0.930 . S
C645 C642 1.348 . S
C645 C643 1.356 . S
H646 C640 0.930 . S
H647 C644 0.930 . S
C648 C650 1.348 . S
C648 C651 1.356 . S
C648 O678 1.325 . S
N649 C652 1.314 1_545 S
N649 C653 1.279 1_545 S
C650 C648 1.348 . S
C650 C652 1.353 . S
C650 H692 0.929 . S
C651 C648 1.356 . S
C651 C653 1.358 . S
C651 H693 0.930 . S
C652 N649 1.314 1_565 S
C652 C650 1.353 . S
C652 H694 0.930 . S
C653 N649 1.279 1_565 S
C653 C651 1.358 . S
C653 H695 0.930 1_565 S
C654 C655 1.348 . S
C654 C656 1.356 . S
C654 O679 1.325 . S
C655 C654 1.348 . S
C655 C657 1.353 . S
C655 H696 0.929 . S
C656 C654 1.356 . S
C656 C658 1.358 . S
C656 H697 0.930 . S
C657 C655 1.353 . S
C657 N659 1.314 . S
C657 H698 0.930 . S
C658 C656 1.358 . S
C658 N659 1.279 . S
C658 H699 0.930 . S
N659 C657 1.314 . S
N659 C658 1.279 . S
C660 C662 1.353 . S
C660 N663 1.314 . S
C660 H666 0.930 . S
C661 N663 1.279 . S
C661 C664 1.358 . S
C661 H667 0.930 . S
C662 C660 1.353 . S
C662 C665 1.348 . S
C662 H700 0.929 . S
N663 Li618 1.990 . S
N663 C660 1.314 . S
N663 C661 1.279 . S
C664 C661 1.358 . S
C664 C665 1.356 . S
C664 H701 0.930 1_565 S
C665 C662 1.348 . S
C665 C664 1.356 . S
H666 C660 0.930 . S
H667 C661 0.930 . S
C668 N669 1.314 . S
C668 C670 1.353 . S
C668 H674 0.930 . S
N669 Li619 1.990 . S
N669 C668 1.314 . S
N669 C672 1.279 . S
C670 C668 1.353 . S
C670 C673 1.348 . S
C670 H702 0.929 . S
C671 C672 1.358 . S
C671 C673 1.356 . S
C671 H703 0.930 . S
C672 N669 1.279 . S
C672 C671 1.358 . S
C672 H675 0.930 . S
C673 C670 1.348 . S
C673 C671 1.356 . S
H674 C668 0.930 . S
H675 C672 0.930 . S
O676 Li616 1.956 . S
O676 Li617 1.970 . S
O676 Li618 1.961 . S
O676 C620 1.325 . S
O677 Li616 1.970 . S
O677 Li617 1.956 . S
O677 Li619 1.961 . S
O677 C626 1.325 . S
O678 Li616 1.961 . S
O678 Li618 1.956 . S
O678 Li619 1.970 . S
O678 C648 1.325 . S
O679 Li617 1.961 . S
O679 Li618 1.970 . S
O679 Li619 1.956 . S
O679 C654 1.325 . S
H680 C622 0.929 . S
H681 C623 0.930 . S
H682 C624 0.930 . S
H683 C625 0.930 . S
H684 C627 0.930 . S
H685 C629 0.929 . S
H686 C630 0.930 . S
H687 C631 0.930 . S
H688 C634 0.930 . S
H689 C637 0.929 . S
H690 C642 0.929 . S
H691 C643 0.930 . S
H692 C650 0.929 . S
H693 C651 0.930 . S
H694 C652 0.930 . S
H695 C653 0.930 1_545 S
H696 C655 0.929 . S
H697 C656 0.930 . S
H698 C657 0.930 . S
H699 C658 0.930 . S
H700 C662 0.929 . S
H701 C664 0.930 1_545 S
H702 C670 0.929 . S
H703 C671 0.930 . S
Li704 N721 1.990 . S
Li704 O764 1.956 . S
Li704 O765 1.970 . S
Li704 O766 1.961 . S
Li705 N729 1.990 . S
Li705 O764 1.970 . S
Li705 O765 1.956 . S
Li705 O767 1.961 . S
Li706 N751 1.990 . S
Li706 O764 1.961 . S
Li706 O766 1.956 . S
Li706 O767 1.970 . S
Li707 N757 1.990 . S
Li707 O765 1.961 . S
Li707 O766 1.970 . S
Li707 O767 1.956 . S
C708 C710 1.348 . S
C708 C711 1.356 . S
C708 O764 1.325 . S
N709 C712 1.314 . S
N709 C713 1.279 . S
C710 C708 1.348 . S
C710 C712 1.353 1_556 S
C710 H768 0.929 . S
C711 C708 1.356 . S
C711 C713 1.358 1_556 S
C711 H769 0.930 . S
C712 N709 1.314 . S
C712 C710 1.353 1_554 S
C712 H770 0.930 . S
C713 N709 1.279 . S
C713 C711 1.358 1_554 S
C713 H771 0.930 . S
C714 C717 1.348 . S
C714 C718 1.356 . S
C714 O765 1.325 . S
C715 N716 1.279 . S
C715 C718 1.358 . S
C715 H772 0.930 . S
N716 C715 1.279 . S
N716 C719 1.314 . S
C717 C714 1.348 . S
C717 C719 1.353 . S
C717 H773 0.929 . S
C718 C714 1.356 . S
C718 C715 1.358 . S
C718 H774 0.930 . S
C719 N716 1.314 . S
C719 C717 1.353 . S
C719 H775 0.930 . S
C720 N721 1.314 . S
C720 C725 1.353 . S
C720 H726 0.930 . S
N721 Li704 1.990 . S
N721 C720 1.314 . S
N721 C723 1.279 . S
C722 C723 1.358 . S
C722 C724 1.356 . S
C722 H776 0.930 . S
C723 N721 1.279 . S
C723 C722 1.358 . S
C723 H727 0.930 . S
C724 C722 1.356 . S
C724 C725 1.348 . S
C725 C720 1.353 . S
C725 C724 1.348 . S
C725 H777 0.929 . S
H726 C720 0.930 . S
H727 C723 0.930 . S
C728 N729 1.314 . S
C728 C730 1.353 . S
C728 H734 0.930 . S
N729 Li705 1.990 . S
N729 C728 1.314 . S
N729 C732 1.279 . S
C730 C728 1.353 . S
C730 C733 1.348 . S
C730 H778 0.929 . S
C731 C732 1.358 . S
C731 C733 1.356 . S
C731 H779 0.930 . S
C732 N729 1.279 . S
C732 C731 1.358 . S
C732 H735 0.930 . S
C733 C730 1.348 . S
C733 C731 1.356 . S
H734 C728 0.930 . S
H735 C732 0.930 . S
C736 C738 1.348 . S
C736 C739 1.356 . S
C736 O766 1.325 . S
N737 C740 1.314 . S
N737 C741 1.279 . S
C738 C736 1.348 . S
C738 C740 1.353 . S
C738 H780 0.929 . S
C739 C736 1.356 . S
C739 C741 1.358 . S
C739 H781 0.930 . S
C740 N737 1.314 . S
C740 C738 1.353 . S
C740 H782 0.930 . S
C741 N737 1.279 . S
C741 C739 1.358 . S
C741 H783 0.930 . S
C742 C743 1.348 . S
C742 C744 1.356 . S
C742 O767 1.325 . S
C743 C742 1.348 . S
C743 C745 1.353 . S
C743 H784 0.929 . S
C744 C742 1.356 . S
C744 C746 1.358 . S
C744 H785 0.930 . S
C745 C743 1.353 . S
C745 N747 1.314 . S
C745 H786 0.930 . S
C746 C744 1.358 . S
C746 N747 1.279 . S
C746 H787 0.930 . S
N747 C745 1.314 . S
N747 C746 1.279 . S
C748 C750 1.353 . S
C748 N751 1.314 . S
C748 H754 0.930 . S
C749 N751 1.279 . S
C749 C752 1.358 . S
C749 H755 0.930 . S
C750 C748 1.353 . S
C750 C753 1.348 . S
C750 H788 0.929 1_556 S
N751 Li706 1.990 . S
N751 C748 1.314 . S
N751 C749 1.279 . S
C752 C749 1.358 . S
C752 C753 1.356 . S
C752 H789 0.930 . S
C753 C750 1.348 . S
C753 C752 1.356 . S
H754 C748 0.930 . S
H755 C749 0.930 . S
C756 N757 1.314 . S
C756 C758 1.353 . S
C756 H762 0.930 . S
N757 Li707 1.990 . S
N757 C756 1.314 . S
N757 C760 1.279 . S
C758 C756 1.353 . S
C758 C761 1.348 . S
C758 H790 0.929 . S
C759 C760 1.358 . S
C759 C761 1.356 . S
C759 H791 0.930 . S
C760 N757 1.279 . S
C760 C759 1.358 . S
C760 H763 0.930 . S
C761 C758 1.348 . S
C761 C759 1.356 . S
H762 C756 0.930 . S
H763 C760 0.930 . S
O764 Li704 1.956 . S
O764 Li705 1.970 . S
O764 Li706 1.961 . S
O764 C708 1.325 . S
O765 Li704 1.970 . S
O765 Li705 1.956 . S
O765 Li707 1.961 . S
O765 C714 1.325 . S
O766 Li704 1.961 . S
O766 Li706 1.956 . S
O766 Li707 1.970 . S
O766 C736 1.325 . S
O767 Li705 1.961 . S
O767 Li706 1.970 . S
O767 Li707 1.956 . S
O767 C742 1.325 . S
H768 C710 0.929 . S
H769 C711 0.930 . S
H770 C712 0.930 . S
H771 C713 0.930 . S
H772 C715 0.930 . S
H773 C717 0.929 . S
H774 C718 0.930 . S
H775 C719 0.930 . S
H776 C722 0.930 . S
H777 C725 0.929 . S
H778 C730 0.929 . S
H779 C731 0.930 . S
H780 C738 0.929 . S
H781 C739 0.930 . S
H782 C740 0.930 . S
H783 C741 0.930 . S
H784 C743 0.929 . S
H785 C744 0.930 . S
H786 C745 0.930 . S
H787 C746 0.930 . S
H788 C750 0.929 1_554 S
H789 C752 0.930 . S
H790 C758 0.929 . S
H791 C759 0.930 . S
Li792 N809 1.990 . S
Li792 O852 1.956 . S
Li792 O853 1.970 . S
Li792 O854 1.961 . S
Li793 N817 1.990 . S
Li793 O852 1.970 . S
Li793 O853 1.956 . S
Li793 O855 1.961 . S
Li794 N839 1.990 . S
Li794 O852 1.961 . S
Li794 O854 1.956 . S
Li794 O855 1.970 . S
Li795 N845 1.990 . S
Li795 O853 1.961 . S
Li795 O854 1.970 . S
Li795 O855 1.956 . S
C796 C798 1.348 . S
C796 C799 1.356 . S
C796 O852 1.325 . S
N797 C800 1.314 . S
N797 C801 1.279 . S
C798 C796 1.348 . S
C798 C800 1.353 . S
C798 H856 0.929 . S
C799 C796 1.356 . S
C799 C801 1.358 . S
C799 H857 0.930 . S
C800 N797 1.314 . S
C800 C798 1.353 . S
C800 H858 0.930 . S
C801 N797 1.279 . S
C801 C799 1.358 . S
C801 H859 0.930 . S
C802 C805 1.348 . S
C802 C806 1.356 . S
C802 O853 1.325 . S
C803 N804 1.279 . S
C803 C806 1.358 1_554 S
C803 H860 0.930 . S
N804 C803 1.279 . S
N804 C807 1.314 . S
C805 C802 1.348 . S
C805 C807 1.353 1_556 S
C805 H861 0.929 . S
C806 C802 1.356 . S
C806 C803 1.358 1_556 S
C806 H862 0.930 . S
C807 N804 1.314 . S
C807 C805 1.353 1_554 S
C807 H863 0.930 . S
C808 N809 1.314 . S
C808 C813 1.353 . S
C808 H814 0.930 . S
N809 Li792 1.990 . S
N809 C808 1.314 . S
N809 C811 1.279 . S
C810 C811 1.358 . S
C810 C812 1.356 . S
C810 H864 0.930 . S
C811 N809 1.279 . S
C811 C810 1.358 . S
C811 H815 0.930 . S
C812 C810 1.356 . S
C812 C813 1.348 . S
C813 C808 1.353 . S
C813 C812 1.348 . S
C813 H865 0.929 . S
H814 C808 0.930 . S
H815 C811 0.930 . S
C816 N817 1.314 . S
C816 C818 1.353 . S
C816 H822 0.930 . S
N817 Li793 1.990 . S
N817 C816 1.314 . S
N817 C820 1.279 . S
C818 C816 1.353 . S
C818 C821 1.348 . S
C818 H866 0.929 . S
C819 C820 1.358 . S
C819 C821 1.356 . S
C819 H867 0.930 . S
C820 N817 1.279 . S
C820 C819 1.358 . S
C820 H823 0.930 . S
C821 C818 1.348 . S
C821 C819 1.356 . S
H822 C816 0.930 . S
H823 C820 0.930 . S
C824 C826 1.348 . S
C824 C827 1.356 . S
C824 O854 1.325 . S
N825 C828 1.314 . S
N825 C829 1.279 . S
C826 C824 1.348 . S
C826 C828 1.353 . S
C826 H868 0.929 . S
C827 C824 1.356 . S
C827 C829 1.358 . S
C827 H869 0.930 . S
C828 N825 1.314 . S
C828 C826 1.353 . S
C828 H870 0.930 . S
C829 N825 1.279 . S
C829 C827 1.358 . S
C829 H871 0.930 . S
C830 C831 1.348 . S
C830 C832 1.356 . S
C830 O855 1.325 . S
C831 C830 1.348 . S
C831 C833 1.353 . S
C831 H872 0.929 . S
C832 C830 1.356 . S
C832 C834 1.358 . S
C832 H873 0.930 . S
C833 C831 1.353 . S
C833 N835 1.314 . S
C833 H874 0.930 . S
C834 C832 1.358 . S
C834 N835 1.279 . S
C834 H875 0.930 . S
N835 C833 1.314 . S
N835 C834 1.279 . S
C836 C838 1.353 . S
C836 N839 1.314 . S
C836 H842 0.930 . S
C837 N839 1.279 . S
C837 C840 1.358 . S
C837 H843 0.930 . S
C838 C836 1.353 . S
C838 C841 1.348 . S
C838 H876 0.929 . S
N839 Li794 1.990 . S
N839 C836 1.314 . S
N839 C837 1.279 . S
C840 C837 1.358 . S
C840 C841 1.356 . S
C840 H877 0.930 . S
C841 C838 1.348 . S
C841 C840 1.356 . S
H842 C836 0.930 . S
H843 C837 0.930 . S
C844 N845 1.314 . S
C844 C846 1.353 . S
C844 H850 0.930 . S
N845 Li795 1.990 . S
N845 C844 1.314 . S
N845 C848 1.279 . S
C846 C844 1.353 . S
C846 C849 1.348 . S
C846 H878 0.929 1_556 S
C847 C848 1.358 . S
C847 C849 1.356 . S
C847 H879 0.930 . S
C848 N845 1.279 . S
C848 C847 1.358 . S
C848 H851 0.930 . S
C849 C846 1.348 . S
C849 C847 1.356 . S
H850 C844 0.930 . S
H851 C848 0.930 . S
O852 Li792 1.956 . S
O852 Li793 1.970 . S
O852 Li794 1.961 . S
O852 C796 1.325 . S
O853 Li792 1.970 . S
O853 Li793 1.956 . S
O853 Li795 1.961 . S
O853 C802 1.325 . S
O854 Li792 1.961 . S
O854 Li794 1.956 . S
O854 Li795 1.970 . S
O854 C824 1.325 . S
O855 Li793 1.961 . S
O855 Li794 1.970 . S
O855 Li795 1.956 . S
O855 C830 1.325 . S
H856 C798 0.929 . S
H857 C799 0.930 . S
H858 C800 0.930 . S
H859 C801 0.930 . S
H860 C803 0.930 . S
H861 C805 0.929 . S
H862 C806 0.930 . S
H863 C807 0.930 . S
H864 C810 0.930 . S
H865 C813 0.929 . S
H866 C818 0.929 . S
H867 C819 0.930 . S
H868 C826 0.929 . S
H869 C827 0.930 . S
H870 C828 0.930 . S
H871 C829 0.930 . S
H872 C831 0.929 . S
H873 C832 0.930 . S
H874 C833 0.930 . S
H875 C834 0.930 . S
H876 C838 0.929 . S
H877 C840 0.930 . S
H878 C846 0.929 1_554 S
H879 C847 0.930 . S
Li880 N897 1.990 . S
Li880 O940 1.956 . S
Li880 O941 1.970 . S
Li880 O942 1.961 . S
Li881 N905 1.990 . S
Li881 O940 1.970 . S
Li881 O941 1.956 . S
Li881 O943 1.961 . S
Li882 N927 1.990 . S
Li882 O940 1.961 . S
Li882 O942 1.956 . S
Li882 O943 1.970 . S
Li883 N933 1.990 . S
Li883 O941 1.961 . S
Li883 O942 1.970 . S
Li883 O943 1.956 . S
C884 C886 1.348 . S
C884 C887 1.356 . S
C884 O940 1.325 . S
N885 C888 1.314 . S
N885 C889 1.279 . S
C886 C884 1.348 . S
C886 C888 1.353 . S
C886 H944 0.929 . S
C887 C884 1.356 . S
C887 C889 1.358 . S
C887 H945 0.930 . S
C888 N885 1.314 . S
C888 C886 1.353 . S
C888 H946 0.930 . S
C889 N885 1.279 . S
C889 C887 1.358 . S
C889 H947 0.930 . S
C890 C893 1.348 . S
C890 C894 1.356 . S
C890 O941 1.325 . S
C891 N892 1.279 . S
C891 C894 1.358 1_655 S
C891 H948 0.930 . S
N892 C891 1.279 . S
N892 C895 1.314 1_655 S
C893 C890 1.348 . S
C893 C895 1.353 . S
C893 H949 0.929 . S
C894 C890 1.356 . S
C894 C891 1.358 1_455 S
C894 H950 0.930 . S
C895 N892 1.314 1_455 S
C895 C893 1.353 . S
C895 H951 0.930 . S
C896 N897 1.314 . S
C896 C901 1.353 . S
C896 H902 0.930 . S
N897 Li880 1.990 . S
N897 C896 1.314 . S
N897 C899 1.279 . S
C898 C899 1.358 . S
C898 C900 1.356 . S
C898 H952 0.930 . S
C899 N897 1.279 . S
C899 C898 1.358 . S
C899 H903 0.930 . S
C900 C898 1.356 . S
C900 C901 1.348 . S
C901 C896 1.353 . S
C901 C900 1.348 . S
C901 H953 0.929 . S
H902 C896 0.930 . S
H903 C899 0.930 . S
C904 N905 1.314 . S
C904 C906 1.353 . S
C904 H910 0.930 . S
N905 Li881 1.990 . S
N905 C904 1.314 . S
N905 C908 1.279 . S
C906 C904 1.353 . S
C906 C909 1.348 . S
C906 H954 0.929 1_556 S
C907 C908 1.358 . S
C907 C909 1.356 . S
C907 H955 0.930 . S
C908 N905 1.279 . S
C908 C907 1.358 . S
C908 H911 0.930 . S
C909 C906 1.348 . S
C909 C907 1.356 . S
H910 C904 0.930 . S
H911 C908 0.930 . S
C912 C914 1.348 . S
C912 C915 1.356 . S
C912 O942 1.325 . S
N913 C916 1.314 . S
N913 C917 1.279 . S
C914 C912 1.348 . S
C914 C916 1.353 . S
C914 H956 0.929 . S
C915 C912 1.356 . S
C915 C917 1.358 . S
C915 H957 0.930 . S
C916 N913 1.314 . S
C916 C914 1.353 . S
C916 H958 0.930 . S
C917 N913 1.279 . S
C917 C915 1.358 . S
C917 H959 0.930 . S
C918 C919 1.348 . S
C918 C920 1.356 . S
C918 O943 1.325 . S
C919 C918 1.348 . S
C919 C921 1.353 1_556 S
C919 H960 0.929 . S
C920 C918 1.356 . S
C920 C922 1.358 1_556 S
C920 H961 0.930 . S
C921 C919 1.353 1_554 S
C921 N923 1.314 . S
C921 H962 0.930 . S
C922 C920 1.358 1_554 S
C922 N923 1.279 . S
C922 H963 0.930 . S
N923 C921 1.314 . S
N923 C922 1.279 . S
C924 C926 1.353 . S
C924 N927 1.314 . S
C924 H930 0.930 . S
C925 N927 1.279 . S
C925 C928 1.358 . S
C925 H931 0.930 . S
C926 C924 1.353 . S
C926 C929 1.348 . S
C926 H964 0.929 . S
N927 Li882 1.990 . S
N927 C924 1.314 . S
N927 C925 1.279 . S
C928 C925 1.358 . S
C928 C929 1.356 . S
C928 H965 0.930 . S
C929 C926 1.348 . S
C929 C928 1.356 . S
H930 C924 0.930 . S
H931 C925 0.930 . S
C932 N933 1.314 . S
C932 C934 1.353 . S
C932 H938 0.930 . S
N933 Li883 1.990 . S
N933 C932 1.314 . S
N933 C936 1.279 . S
C934 C932 1.353 . S
C934 C937 1.348 . S
C934 H966 0.929 1_455 S
C935 C936 1.358 . S
C935 C937 1.356 . S
C935 H967 0.930 . S
C936 N933 1.279 . S
C936 C935 1.358 . S
C936 H939 0.930 . S
C937 C934 1.348 . S
C937 C935 1.356 . S
H938 C932 0.930 . S
H939 C936 0.930 . S
O940 Li880 1.956 . S
O940 Li881 1.970 . S
O940 Li882 1.961 . S
O940 C884 1.325 . S
O941 Li880 1.970 . S
O941 Li881 1.956 . S
O941 Li883 1.961 . S
O941 C890 1.325 . S
O942 Li880 1.961 . S
O942 Li882 1.956 . S
O942 Li883 1.970 . S
O942 C912 1.325 . S
O943 Li881 1.961 . S
O943 Li882 1.970 . S
O943 Li883 1.956 . S
O943 C918 1.325 . S
H944 C886 0.929 . S
H945 C887 0.930 . S
H946 C888 0.930 . S
H947 C889 0.930 . S
H948 C891 0.930 . S
H949 C893 0.929 . S
H950 C894 0.930 . S
H951 C895 0.930 . S
H952 C898 0.930 . S
H953 C901 0.929 . S
H954 C906 0.929 1_554 S
H955 C907 0.930 . S
H956 C914 0.929 . S
H957 C915 0.930 . S
H958 C916 0.930 . S
H959 C917 0.930 . S
H960 C919 0.929 . S
H961 C920 0.930 . S
H962 C921 0.930 . S
H963 C922 0.930 . S
H964 C926 0.929 . S
H965 C928 0.930 . S
H966 C934 0.929 1_655 S
H967 C935 0.930 . S
Li968 N985 1.990 . S
Li968 O1028 1.956 . S
Li968 O1029 1.970 . S
Li968 O1030 1.961 . S
Li969 N993 1.990 . S
Li969 O1028 1.970 . S
Li969 O1029 1.956 . S
Li969 O1031 1.961 . S
Li970 N1015 1.990 . S
Li970 O1028 1.961 . S
Li970 O1030 1.956 . S
Li970 O1031 1.970 . S
Li971 N1021 1.990 . S
Li971 O1029 1.961 . S
Li971 O1030 1.970 . S
Li971 O1031 1.956 . S
C972 C974 1.348 . S
C972 C975 1.356 . S
C972 O1028 1.325 . S
N973 C976 1.314 . S
N973 C977 1.279 . S
C974 C972 1.348 . S
C974 C976 1.353 . S
C974 H1032 0.929 . S
C975 C972 1.356 . S
C975 C977 1.358 . S
C975 H1033 0.930 . S
C976 N973 1.314 . S
C976 C974 1.353 . S
C976 H1034 0.930 . S
C977 N973 1.279 . S
C977 C975 1.358 . S
C977 H1035 0.930 . S
C978 C981 1.348 . S
C978 C982 1.356 . S
C978 O1029 1.325 . S
C979 N980 1.279 . S
C979 C982 1.358 1_554 S
C979 H1036 0.930 . S
N980 C979 1.279 . S
N980 C983 1.314 . S
C981 C978 1.348 . S
C981 C983 1.353 1_556 S
C981 H1037 0.929 . S
C982 C978 1.356 . S
C982 C979 1.358 1_556 S
C982 H1038 0.930 . S
C983 N980 1.314 . S
C983 C981 1.353 1_554 S
C983 H1039 0.930 . S
C984 N985 1.314 . S
C984 C989 1.353 . S
C984 H990 0.930 . S
N985 Li968 1.990 . S
N985 C984 1.314 . S
N985 C987 1.279 . S
C986 C987 1.358 . S
C986 C988 1.356 . S
C986 H1040 0.930 . S
C987 N985 1.279 . S
C987 C986 1.358 . S
C987 H991 0.930 . S
C988 C986 1.356 . S
C988 C989 1.348 . S
C989 C984 1.353 . S
C989 C988 1.348 . S
C989 H1041 0.929 . S
H990 C984 0.930 . S
H991 C987 0.930 . S
C992 N993 1.314 . S
C992 C994 1.353 . S
C992 H998 0.930 . S
N993 Li969 1.990 . S
N993 C992 1.314 . S
N993 C996 1.279 . S
C994 C992 1.353 . S
C994 C997 1.348 . S
C994 H1042 0.929 1_545 S
C995 C996 1.358 . S
C995 C997 1.356 . S
C995 H1043 0.930 . S
C996 N993 1.279 . S
C996 C995 1.358 . S
C996 H999 0.930 . S
C997 C994 1.348 . S
C997 C995 1.356 . S
H998 C992 0.930 . S
H999 C996 0.930 . S
C1000 C1002 1.348 . S
C1000 C1003 1.356 . S
C1000 O1030 1.325 . S
N1001 C1004 1.314 . S
N1001 C1005 1.279 . S
C1002 C1000 1.348 . S
C1002 C1004 1.353 . S
C1002 H1044 0.929 . S
C1003 C1000 1.356 . S
C1003 C1005 1.358 . S
C1003 H1045 0.930 . S
C1004 N1001 1.314 . S
C1004 C1002 1.353 . S
C1004 H1046 0.930 . S
C1005 N1001 1.279 . S
C1005 C1003 1.358 . S
C1005 H1047 0.930 . S
C1006 C1007 1.348 . S
C1006 C1008 1.356 . S
C1006 O1031 1.325 . S
C1007 C1006 1.348 . S
C1007 C1009 1.353 . S
C1007 H1048 0.929 . S
C1008 C1006 1.356 . S
C1008 C1010 1.358 1_545 S
C1008 H1049 0.930 . S
C1009 C1007 1.353 . S
C1009 N1011 1.314 1_545 S
C1009 H1050 0.930 . S
C1010 C1008 1.358 1_565 S
C1010 N1011 1.279 . S
C1010 H1051 0.930 . S
N1011 C1009 1.314 1_565 S
N1011 C1010 1.279 . S
C1012 C1014 1.353 . S
C1012 N1015 1.314 . S
C1012 H1018 0.930 . S
C1013 N1015 1.279 . S
C1013 C1016 1.358 . S
C1013 H1019 0.930 . S
C1014 C1012 1.353 . S
C1014 C1017 1.348 . S
C1014 H1052 0.929 . S
N1015 Li970 1.990 . S
N1015 C1012 1.314 . S
N1015 C1013 1.279 . S
C1016 C1013 1.358 . S
C1016 C1017 1.356 . S
C1016 H1053 0.930 . S
C1017 C1014 1.348 . S
C1017 C1016 1.356 . S
H1018 C1012 0.930 . S
H1019 C1013 0.930 . S
C1020 N1021 1.314 . S
C1020 C1022 1.353 . S
C1020 H1026 0.930 . S
N1021 Li971 1.990 . S
N1021 C1020 1.314 . S
N1021 C1024 1.279 . S
C1022 C1020 1.353 . S
C1022 C1025 1.348 . S
C1022 H1054 0.929 1_556 S
C1023 C1024 1.358 . S
C1023 C1025 1.356 . S
C1023 H1055 0.930 . S
C1024 N1021 1.279 . S
C1024 C1023 1.358 . S
C1024 H1027 0.930 . S
C1025 C1022 1.348 . S
C1025 C1023 1.356 . S
H1026 C1020 0.930 . S
H1027 C1024 0.930 . S
O1028 Li968 1.956 . S
O1028 Li969 1.970 . S
O1028 Li970 1.961 . S
O1028 C972 1.325 . S
O1029 Li968 1.970 . S
O1029 Li969 1.956 . S
O1029 Li971 1.961 . S
O1029 C978 1.325 . S
O1030 Li968 1.961 . S
O1030 Li970 1.956 . S
O1030 Li971 1.970 . S
O1030 C1000 1.325 . S
O1031 Li969 1.961 . S
O1031 Li970 1.970 . S
O1031 Li971 1.956 . S
O1031 C1006 1.325 . S
H1032 C974 0.929 . S
H1033 C975 0.930 . S
H1034 C976 0.930 . S
H1035 C977 0.930 . S
H1036 C979 0.930 . S
H1037 C981 0.929 . S
H1038 C982 0.930 . S
H1039 C983 0.930 . S
H1040 C986 0.930 . S
H1041 C989 0.929 . S
H1042 C994 0.929 1_565 S
H1043 C995 0.930 . S
H1044 C1002 0.929 . S
H1045 C1003 0.930 . S
H1046 C1004 0.930 . S
H1047 C1005 0.930 . S
H1048 C1007 0.929 . S
H1049 C1008 0.930 . S
H1050 C1009 0.930 . S
H1051 C1010 0.930 . S
H1052 C1014 0.929 . S
H1053 C1016 0.930 . S
H1054 C1022 0.929 1_554 S
H1055 C1023 0.930 . S
Li1056 N1073 1.990 . S
Li1056 O1116 1.956 . S
Li1056 O1117 1.970 . S
Li1056 O1118 1.961 . S
Li1057 N1081 1.990 . S
Li1057 O1116 1.970 . S
Li1057 O1117 1.956 . S
Li1057 O1119 1.961 . S
Li1058 N1103 1.990 . S
Li1058 O1116 1.961 . S
Li1058 O1118 1.956 . S
Li1058 O1119 1.970 . S
Li1059 N1109 1.990 . S
Li1059 O1117 1.961 . S
Li1059 O1118 1.970 . S
Li1059 O1119 1.956 . S
C1060 C1062 1.348 . S
C1060 C1063 1.356 . S
C1060 O1116 1.325 . S
N1061 C1064 1.314 . S
N1061 C1065 1.279 . S
C1062 C1060 1.348 . S
C1062 C1064 1.353 . S
C1062 H1120 0.929 . S
C1063 C1060 1.356 . S
C1063 C1065 1.358 . S
C1063 H1121 0.930 . S
C1064 N1061 1.314 . S
C1064 C1062 1.353 . S
C1064 H1122 0.930 . S
C1065 N1061 1.279 . S
C1065 C1063 1.358 . S
C1065 H1123 0.930 . S
C1066 C1069 1.348 . S
C1066 C1070 1.356 . S
C1066 O1117 1.325 . S
C1067 N1068 1.279 . S
C1067 C1070 1.358 . S
C1067 H1124 0.930 . S
N1068 C1067 1.279 . S
N1068 C1071 1.314 . S
C1069 C1066 1.348 . S
C1069 C1071 1.353 . S
C1069 H1125 0.929 . S
C1070 C1066 1.356 . S
C1070 C1067 1.358 . S
C1070 H1126 0.930 . S
C1071 N1068 1.314 . S
C1071 C1069 1.353 . S
C1071 H1127 0.930 . S
C1072 N1073 1.314 . S
C1072 C1077 1.353 . S
C1072 H1078 0.930 . S
N1073 Li1056 1.990 . S
N1073 C1072 1.314 . S
N1073 C1075 1.279 . S
C1074 C1075 1.358 . S
C1074 C1076 1.356 . S
C1074 H1128 0.930 . S
C1075 N1073 1.279 . S
C1075 C1074 1.358 . S
C1075 H1079 0.930 . S
C1076 C1074 1.356 . S
C1076 C1077 1.348 . S
C1077 C1072 1.353 . S
C1077 C1076 1.348 . S
C1077 H1129 0.929 . S
H1078 C1072 0.930 . S
H1079 C1075 0.930 . S
C1080 N1081 1.314 . S
C1080 C1082 1.353 . S
C1080 H1086 0.930 . S
N1081 Li1057 1.990 . S
N1081 C1080 1.314 . S
N1081 C1084 1.279 . S
C1082 C1080 1.353 . S
C1082 C1085 1.348 . S
C1082 H1130 0.929 . S
C1083 C1084 1.358 . S
C1083 C1085 1.356 . S
C1083 H1131 0.930 . S
C1084 N1081 1.279 . S
C1084 C1083 1.358 . S
C1084 H1087 0.930 . S
C1085 C1082 1.348 . S
C1085 C1083 1.356 . S
H1086 C1080 0.930 . S
H1087 C1084 0.930 . S
C1088 C1090 1.348 . S
C1088 C1091 1.356 . S
C1088 O1118 1.325 . S
N1089 C1092 1.314 . S
N1089 C1093 1.279 . S
C1090 C1088 1.348 . S
C1090 C1092 1.353 . S
C1090 H1132 0.929 . S
C1091 C1088 1.356 . S
C1091 C1093 1.358 . S
C1091 H1133 0.930 . S
C1092 N1089 1.314 . S
C1092 C1090 1.353 . S
C1092 H1134 0.930 . S
C1093 N1089 1.279 . S
C1093 C1091 1.358 . S
C1093 H1135 0.930 . S
C1094 C1095 1.348 . S
C1094 C1096 1.356 . S
C1094 O1119 1.325 . S
C1095 C1094 1.348 . S
C1095 C1097 1.353 . S
C1095 H1136 0.929 . S
C1096 C1094 1.356 . S
C1096 C1098 1.358 . S
C1096 H1137 0.930 . S
C1097 C1095 1.353 . S
C1097 N1099 1.314 . S
C1097 H1138 0.930 . S
C1098 C1096 1.358 . S
C1098 N1099 1.279 . S
C1098 H1139 0.930 . S
N1099 C1097 1.314 . S
N1099 C1098 1.279 . S
C1100 C1102 1.353 . S
C1100 N1103 1.314 . S
C1100 H1106 0.930 . S
C1101 N1103 1.279 . S
C1101 C1104 1.358 . S
C1101 H1107 0.930 . S
C1102 C1100 1.353 . S
C1102 C1105 1.348 . S
C1102 H1140 0.929 . S
N1103 Li1058 1.990 . S
N1103 C1100 1.314 . S
N1103 C1101 1.279 . S
C1104 C1101 1.358 . S
C1104 C1105 1.356 . S
C1104 H1141 0.930 . S
C1105 C1102 1.348 . S
C1105 C1104 1.356 . S
H1106 C1100 0.930 . S
H1107 C1101 0.930 . S
C1108 N1109 1.314 . S
C1108 C1110 1.353 . S
C1108 H1114 0.930 . S
N1109 Li1059 1.990 . S
N1109 C1108 1.314 . S
N1109 C1112 1.279 . S
C1110 C1108 1.353 . S
C1110 C1113 1.348 . S
C1110 H1142 0.929 . S
C1111 C1112 1.358 . S
C1111 C1113 1.356 . S
C1111 H1143 0.930 . S
C1112 N1109 1.279 . S
C1112 C1111 1.358 . S
C1112 H1115 0.930 . S
C1113 C1110 1.348 . S
C1113 C1111 1.356 . S
H1114 C1108 0.930 . S
H1115 C1112 0.930 . S
O1116 Li1056 1.956 . S
O1116 Li1057 1.970 . S
O1116 Li1058 1.961 . S
O1116 C1060 1.325 . S
O1117 Li1056 1.970 . S
O1117 Li1057 1.956 . S
O1117 Li1059 1.961 . S
O1117 C1066 1.325 . S
O1118 Li1056 1.961 . S
O1118 Li1058 1.956 . S
O1118 Li1059 1.970 . S
O1118 C1088 1.325 . S
O1119 Li1057 1.961 . S
O1119 Li1058 1.970 . S
O1119 Li1059 1.956 . S
O1119 C1094 1.325 . S
H1120 C1062 0.929 . S
H1121 C1063 0.930 . S
H1122 C1064 0.930 . S
H1123 C1065 0.930 . S
H1124 C1067 0.930 . S
H1125 C1069 0.929 . S
H1126 C1070 0.930 . S
H1127 C1071 0.930 . S
H1128 C1074 0.930 . S
H1129 C1077 0.929 . S
H1130 C1082 0.929 . S
H1131 C1083 0.930 . S
H1132 C1090 0.929 . S
H1133 C1091 0.930 . S
H1134 C1092 0.930 . S
H1135 C1093 0.930 . S
H1136 C1095 0.929 . S
H1137 C1096 0.930 . S
H1138 C1097 0.930 . S
H1139 C1098 0.930 . S
H1140 C1102 0.929 . S
H1141 C1104 0.930 . S
H1142 C1110 0.929 . S
H1143 C1111 0.930 . S
Li1144 N1161 1.990 . S
Li1144 O1204 1.956 . S
Li1144 O1205 1.970 . S
Li1144 O1206 1.961 . S
Li1145 N1169 1.990 . S
Li1145 O1204 1.970 . S
Li1145 O1205 1.956 . S
Li1145 O1207 1.961 . S
Li1146 N1191 1.990 . S
Li1146 O1204 1.961 . S
Li1146 O1206 1.956 . S
Li1146 O1207 1.970 . S
Li1147 N1197 1.990 . S
Li1147 O1205 1.961 . S
Li1147 O1206 1.970 . S
Li1147 O1207 1.956 . S
C1148 C1150 1.348 . S
C1148 C1151 1.356 . S
C1148 O1204 1.325 . S
N1149 C1152 1.314 . S
N1149 C1153 1.279 . S
C1150 C1148 1.348 . S
C1150 C1152 1.353 . S
C1150 H1208 0.929 . S
C1151 C1148 1.356 . S
C1151 C1153 1.358 . S
C1151 H1209 0.930 . S
C1152 N1149 1.314 . S
C1152 C1150 1.353 . S
C1152 H1210 0.930 . S
C1153 N1149 1.279 . S
C1153 C1151 1.358 . S
C1153 H1211 0.930 . S
C1154 C1157 1.348 . S
C1154 C1158 1.356 . S
C1154 O1205 1.325 . S
C1155 N1156 1.279 . S
C1155 C1158 1.358 . S
C1155 H1212 0.930 . S
N1156 C1155 1.279 . S
N1156 C1159 1.314 . S
C1157 C1154 1.348 . S
C1157 C1159 1.353 . S
C1157 H1213 0.929 . S
C1158 C1154 1.356 . S
C1158 C1155 1.358 . S
C1158 H1214 0.930 . S
C1159 N1156 1.314 . S
C1159 C1157 1.353 . S
C1159 H1215 0.930 . S
C1160 N1161 1.314 . S
C1160 C1165 1.353 . S
C1160 H1166 0.930 . S
N1161 Li1144 1.990 . S
N1161 C1160 1.314 . S
N1161 C1163 1.279 . S
C1162 C1163 1.358 . S
C1162 C1164 1.356 . S
C1162 H1216 0.930 . S
C1163 N1161 1.279 . S
C1163 C1162 1.358 . S
C1163 H1167 0.930 . S
C1164 C1162 1.356 . S
C1164 C1165 1.348 . S
C1165 C1160 1.353 . S
C1165 C1164 1.348 . S
C1165 H1217 0.929 . S
H1166 C1160 0.930 . S
H1167 C1163 0.930 . S
C1168 N1169 1.314 . S
C1168 C1170 1.353 . S
C1168 H1174 0.930 . S
N1169 Li1145 1.990 . S
N1169 C1168 1.314 . S
N1169 C1172 1.279 . S
C1170 C1168 1.353 . S
C1170 C1173 1.348 . S
C1170 H1218 0.929 . S
C1171 C1172 1.358 . S
C1171 C1173 1.356 . S
C1171 H1219 0.930 . S
C1172 N1169 1.279 . S
C1172 C1171 1.358 . S
C1172 H1175 0.930 . S
C1173 C1170 1.348 . S
C1173 C1171 1.356 . S
H1174 C1168 0.930 . S
H1175 C1172 0.930 . S
C1176 C1178 1.348 . S
C1176 C1179 1.356 . S
C1176 O1206 1.325 . S
N1177 C1180 1.314 . S
N1177 C1181 1.279 . S
C1178 C1176 1.348 . S
C1178 C1180 1.353 . S
C1178 H1220 0.929 . S
C1179 C1176 1.356 . S
C1179 C1181 1.358 . S
C1179 H1221 0.930 . S
C1180 N1177 1.314 . S
C1180 C1178 1.353 . S
C1180 H1222 0.930 . S
C1181 N1177 1.279 . S
C1181 C1179 1.358 . S
C1181 H1223 0.930 . S
C1182 C1183 1.348 . S
C1182 C1184 1.356 . S
C1182 O1207 1.325 . S
C1183 C1182 1.348 . S
C1183 C1185 1.353 . S
C1183 H1224 0.929 . S
C1184 C1182 1.356 . S
C1184 C1186 1.358 . S
C1184 H1225 0.930 . S
C1185 C1183 1.353 . S
C1185 N1187 1.314 . S
C1185 H1226 0.930 . S
C1186 C1184 1.358 . S
C1186 N1187 1.279 . S
C1186 H1227 0.930 . S
N1187 C1185 1.314 . S
N1187 C1186 1.279 . S
C1188 C1190 1.353 . S
C1188 N1191 1.314 . S
C1188 H1194 0.930 . S
C1189 N1191 1.279 . S
C1189 C1192 1.358 . S
C1189 H1195 0.930 . S
C1190 C1188 1.353 . S
C1190 C1193 1.348 . S
C1190 H1228 0.929 . S
N1191 Li1146 1.990 . S
N1191 C1188 1.314 . S
N1191 C1189 1.279 . S
C1192 C1189 1.358 . S
C1192 C1193 1.356 . S
C1192 H1229 0.930 . S
C1193 C1190 1.348 . S
C1193 C1192 1.356 . S
H1194 C1188 0.930 . S
H1195 C1189 0.930 . S
C1196 N1197 1.314 . S
C1196 C1198 1.353 . S
C1196 H1202 0.930 . S
N1197 Li1147 1.990 . S
N1197 C1196 1.314 . S
N1197 C1200 1.279 . S
C1198 C1196 1.353 . S
C1198 C1201 1.348 . S
C1198 H1230 0.929 . S
C1199 C1200 1.358 . S
C1199 C1201 1.356 . S
C1199 H1231 0.930 . S
C1200 N1197 1.279 . S
C1200 C1199 1.358 . S
C1200 H1203 0.930 . S
C1201 C1198 1.348 . S
C1201 C1199 1.356 . S
H1202 C1196 0.930 . S
H1203 C1200 0.930 . S
O1204 Li1144 1.956 . S
O1204 Li1145 1.970 . S
O1204 Li1146 1.961 . S
O1204 C1148 1.325 . S
O1205 Li1144 1.970 . S
O1205 Li1145 1.956 . S
O1205 Li1147 1.961 . S
O1205 C1154 1.325 . S
O1206 Li1144 1.961 . S
O1206 Li1146 1.956 . S
O1206 Li1147 1.970 . S
O1206 C1176 1.325 . S
O1207 Li1145 1.961 . S
O1207 Li1146 1.970 . S
O1207 Li1147 1.956 . S
O1207 C1182 1.325 . S
H1208 C1150 0.929 . S
H1209 C1151 0.930 . S
H1210 C1152 0.930 . S
H1211 C1153 0.930 . S
H1212 C1155 0.930 . S
H1213 C1157 0.929 . S
H1214 C1158 0.930 . S
H1215 C1159 0.930 . S
H1216 C1162 0.930 . S
H1217 C1165 0.929 . S
H1218 C1170 0.929 . S
H1219 C1171 0.930 . S
H1220 C1178 0.929 . S
H1221 C1179 0.930 . S
H1222 C1180 0.930 . S
H1223 C1181 0.930 . S
H1224 C1183 0.929 . S
H1225 C1184 0.930 . S
H1226 C1185 0.930 . S
H1227 C1186 0.930 . S
H1228 C1190 0.929 . S
H1229 C1192 0.930 . S
H1230 C1198 0.929 . S
H1231 C1199 0.930 . S
Li1232 N1249 1.990 . S
Li1232 O1292 1.956 . S
Li1232 O1293 1.970 . S
Li1232 O1294 1.961 . S
Li1233 N1257 1.990 . S
Li1233 O1292 1.970 . S
Li1233 O1293 1.956 . S
Li1233 O1295 1.961 . S
Li1234 N1279 1.990 . S
Li1234 O1292 1.961 . S
Li1234 O1294 1.956 . S
Li1234 O1295 1.970 . S
Li1235 N1285 1.990 . S
Li1235 O1293 1.961 . S
Li1235 O1294 1.970 . S
Li1235 O1295 1.956 . S
C1236 C1238 1.348 . S
C1236 C1239 1.356 . S
C1236 O1292 1.325 . S
N1237 C1240 1.314 . S
N1237 C1241 1.279 . S
C1238 C1236 1.348 . S
C1238 C1240 1.353 . S
C1238 H1296 0.929 . S
C1239 C1236 1.356 . S
C1239 C1241 1.358 . S
C1239 H1297 0.930 . S
C1240 N1237 1.314 . S
C1240 C1238 1.353 . S
C1240 H1298 0.930 . S
C1241 N1237 1.279 . S
C1241 C1239 1.358 . S
C1241 H1299 0.930 . S
C1242 C1245 1.348 . S
C1242 C1246 1.356 . S
C1242 O1293 1.325 . S
C1243 N1244 1.279 . S
C1243 C1246 1.358 . S
C1243 H1300 0.930 . S
N1244 C1243 1.279 . S
N1244 C1247 1.314 . S
C1245 C1242 1.348 . S
C1245 C1247 1.353 . S
C1245 H1301 0.929 . S
C1246 C1242 1.356 . S
C1246 C1243 1.358 . S
C1246 H1302 0.930 . S
C1247 N1244 1.314 . S
C1247 C1245 1.353 . S
C1247 H1303 0.930 . S
C1248 N1249 1.314 . S
C1248 C1253 1.353 . S
C1248 H1254 0.930 . S
N1249 Li1232 1.990 . S
N1249 C1248 1.314 . S
N1249 C1251 1.279 . S
C1250 C1251 1.358 . S
C1250 C1252 1.356 . S
C1250 H1304 0.930 . S
C1251 N1249 1.279 . S
C1251 C1250 1.358 . S
C1251 H1255 0.930 . S
C1252 C1250 1.356 . S
C1252 C1253 1.348 . S
C1253 C1248 1.353 . S
C1253 C1252 1.348 . S
C1253 H1305 0.929 . S
H1254 C1248 0.930 . S
H1255 C1251 0.930 . S
C1256 N1257 1.314 . S
C1256 C1258 1.353 . S
C1256 H1262 0.930 . S
N1257 Li1233 1.990 . S
N1257 C1256 1.314 . S
N1257 C1260 1.279 . S
C1258 C1256 1.353 . S
C1258 C1261 1.348 . S
C1258 H1306 0.929 1_455 S
C1259 C1260 1.358 . S
C1259 C1261 1.356 . S
C1259 H1307 0.930 . S
C1260 N1257 1.279 . S
C1260 C1259 1.358 . S
C1260 H1263 0.930 . S
C1261 C1258 1.348 . S
C1261 C1259 1.356 . S
H1262 C1256 0.930 . S
H1263 C1260 0.930 . S
C1264 C1266 1.348 . S
C1264 C1267 1.356 . S
C1264 O1294 1.325 . S
N1265 C1268 1.314 . S
N1265 C1269 1.279 . S
C1266 C1264 1.348 . S
C1266 C1268 1.353 . S
C1266 H1308 0.929 . S
C1267 C1264 1.356 . S
C1267 C1269 1.358 . S
C1267 H1309 0.930 . S
C1268 N1265 1.314 . S
C1268 C1266 1.353 . S
C1268 H1310 0.930 . S
C1269 N1265 1.279 . S
C1269 C1267 1.358 . S
C1269 H1311 0.930 . S
C1270 C1271 1.348 . S
C1270 C1272 1.356 . S
C1270 O1295 1.325 . S
C1271 C1270 1.348 . S
C1271 C1273 1.353 . S
C1271 H1312 0.929 . S
C1272 C1270 1.356 . S
C1272 C1274 1.358 1_455 S
C1272 H1313 0.930 . S
C1273 C1271 1.353 . S
C1273 N1275 1.314 1_455 S
C1273 H1314 0.930 . S
C1274 C1272 1.358 1_655 S
C1274 N1275 1.279 . S
C1274 H1315 0.930 . S
N1275 C1273 1.314 1_655 S
N1275 C1274 1.279 . S
C1276 C1278 1.353 . S
C1276 N1279 1.314 . S
C1276 H1282 0.930 . S
C1277 N1279 1.279 . S
C1277 C1280 1.358 . S
C1277 H1283 0.930 . S
C1278 C1276 1.353 . S
C1278 C1281 1.348 . S
C1278 H1316 0.929 . S
N1279 Li1234 1.990 . S
N1279 C1276 1.314 . S
N1279 C1277 1.279 . S
C1280 C1277 1.358 . S
C1280 C1281 1.356 . S
C1280 H1317 0.930 . S
C1281 C1278 1.348 . S
C1281 C1280 1.356 . S
H1282 C1276 0.930 . S
H1283 C1277 0.930 . S
C1284 N1285 1.314 . S
C1284 C1286 1.353 . S
C1284 H1290 0.930 . S
N1285 Li1235 1.990 . S
N1285 C1284 1.314 . S
N1285 C1288 1.279 . S
C1286 C1284 1.353 . S
C1286 C1289 1.348 . S
C1286 H1318 0.929 . S
C1287 C1288 1.358 . S
C1287 C1289 1.356 . S
C1287 H1319 0.930 . S
C1288 N1285 1.279 . S
C1288 C1287 1.358 . S
C1288 H1291 0.930 . S
C1289 C1286 1.348 . S
C1289 C1287 1.356 . S
H1290 C1284 0.930 . S
H1291 C1288 0.930 . S
O1292 Li1232 1.956 . S
O1292 Li1233 1.970 . S
O1292 Li1234 1.961 . S
O1292 C1236 1.325 . S
O1293 Li1232 1.970 . S
O1293 Li1233 1.956 . S
O1293 Li1235 1.961 . S
O1293 C1242 1.325 . S
O1294 Li1232 1.961 . S
O1294 Li1234 1.956 . S
O1294 Li1235 1.970 . S
O1294 C1264 1.325 . S
O1295 Li1233 1.961 . S
O1295 Li1234 1.970 . S
O1295 Li1235 1.956 . S
O1295 C1270 1.325 . S
H1296 C1238 0.929 . S
H1297 C1239 0.930 . S
H1298 C1240 0.930 . S
H1299 C1241 0.930 . S
H1300 C1243 0.930 . S
H1301 C1245 0.929 . S
H1302 C1246 0.930 . S
H1303 C1247 0.930 . S
H1304 C1250 0.930 . S
H1305 C1253 0.929 . S
H1306 C1258 0.929 1_655 S
H1307 C1259 0.930 . S
H1308 C1266 0.929 . S
H1309 C1267 0.930 . S
H1310 C1268 0.930 . S
H1311 C1269 0.930 . S
H1312 C1271 0.929 . S
H1313 C1272 0.930 . S
H1314 C1273 0.930 . S
H1315 C1274 0.930 . S
H1316 C1278 0.929 . S
H1317 C1280 0.930 . S
H1318 C1286 0.929 . S
H1319 C1287 0.930 . S
Li1320 N1337 1.990 . S
Li1320 O1380 1.956 . S
Li1320 O1381 1.970 . S
Li1320 O1382 1.961 . S
Li1321 N1345 1.990 . S
Li1321 O1380 1.970 . S
Li1321 O1381 1.956 . S
Li1321 O1383 1.961 . S
Li1322 N1367 1.990 . S
Li1322 O1380 1.961 . S
Li1322 O1382 1.956 . S
Li1322 O1383 1.970 . S
Li1323 N1373 1.990 . S
Li1323 O1381 1.961 . S
Li1323 O1382 1.970 . S
Li1323 O1383 1.956 . S
C1324 C1326 1.348 . S
C1324 C1327 1.356 . S
C1324 O1380 1.325 . S
N1325 C1328 1.314 1_565 S
N1325 C1329 1.279 . S
C1326 C1324 1.348 . S
C1326 C1328 1.353 . S
C1326 H1384 0.929 . S
C1327 C1324 1.356 . S
C1327 C1329 1.358 1_545 S
C1327 H1385 0.930 . S
C1328 N1325 1.314 1_545 S
C1328 C1326 1.353 . S
C1328 H1386 0.930 . S
C1329 N1325 1.279 . S
C1329 C1327 1.358 1_565 S
C1329 H1387 0.930 . S
C1330 C1333 1.348 . S
C1330 C1334 1.356 . S
C1330 O1381 1.325 . S
C1331 N1332 1.279 . S
C1331 C1334 1.358 . S
C1331 H1388 0.930 . S
N1332 C1331 1.279 . S
N1332 C1335 1.314 . S
C1333 C1330 1.348 . S
C1333 C1335 1.353 . S
C1333 H1389 0.929 . S
C1334 C1330 1.356 . S
C1334 C1331 1.358 . S
C1334 H1390 0.930 . S
C1335 N1332 1.314 . S
C1335 C1333 1.353 . S
C1335 H1391 0.930 . S
C1336 N1337 1.314 . S
C1336 C1341 1.353 . S
C1336 H1342 0.930 . S
N1337 Li1320 1.990 . S
N1337 C1336 1.314 . S
N1337 C1339 1.279 . S
C1338 C1339 1.358 . S
C1338 C1340 1.356 . S
C1338 H1392 0.930 . S
C1339 N1337 1.279 . S
C1339 C1338 1.358 . S
C1339 H1343 0.930 . S
C1340 C1338 1.356 . S
C1340 C1341 1.348 . S
C1341 C1336 1.353 . S
C1341 C1340 1.348 . S
C1341 H1393 0.929 . S
H1342 C1336 0.930 . S
H1343 C1339 0.930 . S
C1344 N1345 1.314 . S
C1344 C1346 1.353 . S
C1344 H1350 0.930 . S
N1345 Li1321 1.990 . S
N1345 C1344 1.314 . S
N1345 C1348 1.279 . S
C1346 C1344 1.353 . S
C1346 C1349 1.348 . S
C1346 H1394 0.929 . S
C1347 C1348 1.358 . S
C1347 C1349 1.356 . S
C1347 H1395 0.930 . S
C1348 N1345 1.279 . S
C1348 C1347 1.358 . S
C1348 H1351 0.930 . S
C1349 C1346 1.348 . S
C1349 C1347 1.356 . S
H1350 C1344 0.930 . S
H1351 C1348 0.930 . S
C1352 C1354 1.348 . S
C1352 C1355 1.356 . S
C1352 O1382 1.325 . S
N1353 C1356 1.314 . S
N1353 C1357 1.279 . S
C1354 C1352 1.348 . S
C1354 C1356 1.353 . S
C1354 H1396 0.929 . S
C1355 C1352 1.356 . S
C1355 C1357 1.358 . S
C1355 H1397 0.930 . S
C1356 N1353 1.314 . S
C1356 C1354 1.353 . S
C1356 H1398 0.930 . S
C1357 N1353 1.279 . S
C1357 C1355 1.358 . S
C1357 H1399 0.930 . S
C1358 C1359 1.348 . S
C1358 C1360 1.356 . S
C1358 O1383 1.325 . S
C1359 C1358 1.348 . S
C1359 C1361 1.353 . S
C1359 H1400 0.929 . S
C1360 C1358 1.356 . S
C1360 C1362 1.358 . S
C1360 H1401 0.930 . S
C1361 C1359 1.353 . S
C1361 N1363 1.314 . S
C1361 H1402 0.930 . S
C1362 C1360 1.358 . S
C1362 N1363 1.279 . S
C1362 H1403 0.930 . S
N1363 C1361 1.314 . S
N1363 C1362 1.279 . S
C1364 C1366 1.353 . S
C1364 N1367 1.314 . S
C1364 H1370 0.930 . S
C1365 N1367 1.279 . S
C1365 C1368 1.358 . S
C1365 H1371 0.930 . S
C1366 C1364 1.353 . S
C1366 C1369 1.348 . S
C1366 H1404 0.929 1_545 S
N1367 Li1322 1.990 . S
N1367 C1364 1.314 . S
N1367 C1365 1.279 . S
C1368 C1365 1.358 . S
C1368 C1369 1.356 . S
C1368 H1405 0.930 . S
C1369 C1366 1.348 . S
C1369 C1368 1.356 . S
H1370 C1364 0.930 . S
H1371 C1365 0.930 . S
C1372 N1373 1.314 . S
C1372 C1374 1.353 . S
C1372 H1378 0.930 . S
N1373 Li1323 1.990 . S
N1373 C1372 1.314 . S
N1373 C1376 1.279 . S
C1374 C1372 1.353 . S
C1374 C1377 1.348 . S
C1374 H1406 0.929 . S
C1375 C1376 1.358 . S
C1375 C1377 1.356 . S
C1375 H1407 0.930 . S
C1376 N1373 1.279 . S
C1376 C1375 1.358 . S
C1376 H1379 0.930 . S
C1377 C1374 1.348 . S
C1377 C1375 1.356 . S
H1378 C1372 0.930 . S
H1379 C1376 0.930 . S
O1380 Li1320 1.956 . S
O1380 Li1321 1.970 . S
O1380 Li1322 1.961 . S
O1380 C1324 1.325 . S
O1381 Li1320 1.970 . S
O1381 Li1321 1.956 . S
O1381 Li1323 1.961 . S
O1381 C1330 1.325 . S
O1382 Li1320 1.961 . S
O1382 Li1322 1.956 . S
O1382 Li1323 1.970 . S
O1382 C1352 1.325 . S
O1383 Li1321 1.961 . S
O1383 Li1322 1.970 . S
O1383 Li1323 1.956 . S
O1383 C1358 1.325 . S
H1384 C1326 0.929 . S
H1385 C1327 0.930 . S
H1386 C1328 0.930 . S
H1387 C1329 0.930 . S
H1388 C1331 0.930 . S
H1389 C1333 0.929 . S
H1390 C1334 0.930 . S
H1391 C1335 0.930 . S
H1392 C1338 0.930 . S
H1393 C1341 0.929 . S
H1394 C1346 0.929 . S
H1395 C1347 0.930 . S
H1396 C1354 0.929 . S
H1397 C1355 0.930 . S
H1398 C1356 0.930 . S
H1399 C1357 0.930 . S
H1400 C1359 0.929 . S
H1401 C1360 0.930 . S
H1402 C1361 0.930 . S
H1403 C1362 0.930 . S
H1404 C1366 0.929 1_565 S
H1405 C1368 0.930 . S
H1406 C1374 0.929 . S
H1407 C1375 0.930 . S
H1408 C1414 0.930 . S
H1409 C1418 0.930 . S
H1410 C1423 0.929 . S
H1411 C1421 0.929 . S
H1412 C1416 0.929 . S
H1413 C1422 0.929 . S
C1414 H1408 0.930 . S
C1414 C1415 1.367 1_556 S
C1414 C1422 1.378 . S
C1415 C1414 1.367 1_554 S
C1415 C1423 1.433 . S
C1416 H1412 0.929 . S
C1416 C1418 1.378 . S
C1416 C1420 1.350 . S
C1417 C1420 1.463 . S
C1417 C1422 1.350 . S
C1417 N1425 1.427 1_556 S
C1418 H1409 0.930 . S
C1418 C1416 1.378 . S
C1418 C1419 1.367 . S
C1419 C1418 1.367 . S
C1419 C1421 1.433 . S
C1420 C1416 1.350 . S
C1420 C1417 1.463 . S
C1420 N1424 1.427 . S
C1421 H1411 0.929 . S
C1421 C1419 1.433 . S
C1421 N1424 1.384 . S
C1422 H1413 0.929 . S
C1422 C1414 1.378 . S
C1422 C1417 1.350 . S
C1423 H1410 0.929 . S
C1423 C1415 1.433 . S
C1423 N1425 1.384 . S
N1424 C1420 1.427 . S
N1424 C1421 1.384 . S
N1425 C1417 1.427 1_554 S
N1425 C1423 1.384 . S
H1426 C1432 0.930 . S
H1427 C1436 0.930 . S
H1428 C1441 0.929 . S
H1429 C1439 0.929 . S
H1430 C1434 0.929 . S
H1431 C1440 0.929 . S
C1432 H1426 0.930 . S
C1432 C1433 1.367 . S
C1432 C1440 1.378 . S
C1433 C1432 1.367 . S
C1433 C1441 1.433 . S
C1434 H1430 0.929 . S
C1434 C1436 1.378 . S
C1434 C1438 1.350 . S
C1435 C1438 1.463 . S
C1435 C1440 1.350 . S
C1435 N1443 1.427 . S
C1436 H1427 0.930 . S
C1436 C1434 1.378 . S
C1436 C1437 1.367 1_556 S
C1437 C1436 1.367 1_554 S
C1437 C1439 1.433 . S
C1438 C1434 1.350 . S
C1438 C1435 1.463 . S
C1438 N1442 1.427 1_556 S
C1439 H1429 0.929 . S
C1439 C1437 1.433 . S
C1439 N1442 1.384 . S
C1440 H1431 0.929 . S
C1440 C1432 1.378 . S
C1440 C1435 1.350 . S
C1441 H1428 0.929 . S
C1441 C1433 1.433 . S
C1441 N1443 1.384 . S
N1442 C1438 1.427 1_554 S
N1442 C1439 1.384 . S
N1443 C1435 1.427 . S
N1443 C1441 1.384 . S
H1444 C1450 0.930 . S
H1445 C1454 0.930 . S
H1446 C1459 0.929 . S
H1447 C1457 0.929 . S
H1448 C1452 0.929 . S
H1449 C1458 0.929 . S
C1450 H1444 0.930 . S
C1450 C1451 1.367 . S
C1450 C1458 1.378 . S
C1451 C1450 1.367 . S
C1451 C1459 1.433 . S
C1452 H1448 0.929 . S
C1452 C1454 1.378 . S
C1452 C1456 1.350 1_554 S
C1453 C1456 1.463 . S
C1453 C1458 1.350 . S
C1453 N1461 1.427 . S
C1454 H1445 0.930 . S
C1454 C1452 1.378 . S
C1454 C1455 1.367 . S
C1455 C1454 1.367 . S
C1455 C1457 1.433 1_554 S
C1456 C1452 1.350 1_556 S
C1456 C1453 1.463 . S
C1456 N1460 1.427 . S
C1457 H1447 0.929 . S
C1457 C1455 1.433 1_556 S
C1457 N1460 1.384 . S
C1458 H1449 0.929 . S
C1458 C1450 1.378 . S
C1458 C1453 1.350 . S
C1459 H1446 0.929 . S
C1459 C1451 1.433 . S
C1459 N1461 1.384 . S
N1460 C1456 1.427 . S
N1460 C1457 1.384 . S
N1461 C1453 1.427 . S
N1461 C1459 1.384 . S
H1462 C1468 0.930 . S
H1463 C1472 0.930 . S
H1464 C1477 0.929 . S
H1465 C1475 0.929 . S
H1466 C1470 0.929 . S
H1467 C1476 0.929 . S
C1468 H1462 0.930 . S
C1468 C1469 1.367 . S
C1468 C1476 1.378 . S
C1469 C1468 1.367 . S
C1469 C1477 1.433 . S
C1470 H1466 0.929 . S
C1470 C1472 1.378 . S
C1470 C1474 1.350 . S
C1471 C1474 1.463 . S
C1471 C1476 1.350 . S
C1471 N1479 1.427 . S
C1472 H1463 0.930 . S
C1472 C1470 1.378 . S
C1472 C1473 1.367 1_556 S
C1473 C1472 1.367 1_554 S
C1473 C1475 1.433 . S
C1474 C1470 1.350 . S
C1474 C1471 1.463 . S
C1474 N1478 1.427 1_556 S
C1475 H1465 0.929 . S
C1475 C1473 1.433 . S
C1475 N1478 1.384 . S
C1476 H1467 0.929 . S
C1476 C1468 1.378 . S
C1476 C1471 1.350 . S
C1477 H1464 0.929 . S
C1477 C1469 1.433 . S
C1477 N1479 1.384 . S
N1478 C1474 1.427 1_554 S
N1478 C1475 1.384 . S
N1479 C1471 1.427 . S
N1479 C1477 1.384 . S
H1480 C1486 0.930 . S
H1481 C1490 0.930 . S
H1482 C1495 0.929 . S
H1483 C1493 0.929 . S
H1484 C1488 0.929 . S
H1485 C1494 0.929 . S
C1486 H1480 0.930 . S
C1486 C1487 1.367 . S
C1486 C1494 1.378 . S
C1487 C1486 1.367 . S
C1487 C1495 1.433 . S
C1488 H1484 0.929 . S
C1488 C1490 1.378 . S
C1488 C1492 1.350 . S
C1489 C1492 1.463 . S
C1489 C1494 1.350 . S
C1489 N1497 1.427 . S
C1490 H1481 0.930 . S
C1490 C1488 1.378 . S
C1490 C1491 1.367 . S
C1491 C1490 1.367 . S
C1491 C1493 1.433 . S
C1492 C1488 1.350 . S
C1492 C1489 1.463 . S
C1492 N1496 1.427 . S
C1493 H1483 0.929 . S
C1493 C1491 1.433 . S
C1493 N1496 1.384 . S
C1494 H1485 0.929 . S
C1494 C1486 1.378 . S
C1494 C1489 1.350 . S
C1495 H1482 0.929 . S
C1495 C1487 1.433 . S
C1495 N1497 1.384 . S
N1496 C1492 1.427 . S
N1496 C1493 1.384 . S
N1497 C1489 1.427 . S
N1497 C1495 1.384 . S
H1498 C1504 0.930 . S
H1499 C1508 0.930 . S
H1500 C1513 0.929 . S
H1501 C1511 0.929 . S
H1502 C1506 0.929 . S
H1503 C1512 0.929 . S
C1504 H1498 0.930 . S
C1504 C1505 1.367 . S
C1504 C1512 1.378 . S
C1505 C1504 1.367 . S
C1505 C1513 1.433 . S
C1506 H1502 0.929 . S
C1506 C1508 1.378 . S
C1506 C1510 1.350 . S
C1507 C1510 1.463 . S
C1507 C1512 1.350 . S
C1507 N1515 1.427 . S
C1508 H1499 0.930 . S
C1508 C1506 1.378 . S
C1508 C1509 1.367 . S
C1509 C1508 1.367 . S
C1509 C1511 1.433 . S
C1510 C1506 1.350 . S
C1510 C1507 1.463 . S
C1510 N1514 1.427 . S
C1511 H1501 0.929 . S
C1511 C1509 1.433 . S
C1511 N1514 1.384 . S
C1512 H1503 0.929 . S
C1512 C1504 1.378 . S
C1512 C1507 1.350 . S
C1513 H1500 0.929 . S
C1513 C1505 1.433 . S
C1513 N1515 1.384 . S
N1514 C1510 1.427 . S
N1514 C1511 1.384 . S
N1515 C1507 1.427 . S
N1515 C1513 1.384 . S
H1516 C1522 0.930 . S
H1517 C1526 0.930 . S
H1518 C1531 0.929 . S
H1519 C1529 0.929 . S
H1520 C1524 0.929 . S
H1521 C1530 0.929 . S
C1522 H1516 0.930 . S
C1522 C1523 1.367 . S
C1522 C1530 1.378 . S
C1523 C1522 1.367 . S
C1523 C1531 1.433 . S
C1524 H1520 0.929 . S
C1524 C1526 1.378 . S
C1524 C1528 1.350 . S
C1525 C1528 1.463 . S
C1525 C1530 1.350 . S
C1525 N1533 1.427 . S
C1526 H1517 0.930 . S
C1526 C1524 1.378 . S
C1526 C1527 1.367 . S
C1527 C1526 1.367 . S
C1527 C1529 1.433 . S
C1528 C1524 1.350 . S
C1528 C1525 1.463 . S
C1528 N1532 1.427 . S
C1529 H1519 0.929 . S
C1529 C1527 1.433 . S
C1529 N1532 1.384 . S
C1530 H1521 0.929 . S
C1530 C1522 1.378 . S
C1530 C1525 1.350 . S
C1531 H1518 0.929 . S
C1531 C1523 1.433 . S
C1531 N1533 1.384 . S
N1532 C1528 1.427 . S
N1532 C1529 1.384 . S
N1533 C1525 1.427 . S
N1533 C1531 1.384 . S
H1534 C1540 0.930 . S
H1535 C1544 0.930 . S
H1536 C1549 0.929 . S
H1537 C1547 0.929 . S
H1538 C1542 0.929 . S
H1539 C1548 0.929 . S
C1540 H1534 0.930 . S
C1540 C1541 1.367 . S
C1540 C1548 1.378 . S
C1541 C1540 1.367 . S
C1541 C1549 1.433 . S
C1542 H1538 0.929 . S
C1542 C1544 1.378 . S
C1542 C1546 1.350 . S
C1543 C1546 1.463 . S
C1543 C1548 1.350 . S
C1543 N1551 1.427 . S
C1544 H1535 0.930 . S
C1544 C1542 1.378 . S
C1544 C1545 1.367 . S
C1545 C1544 1.367 . S
C1545 C1547 1.433 . S
C1546 C1542 1.350 . S
C1546 C1543 1.463 . S
C1546 N1550 1.427 . S
C1547 H1537 0.929 . S
C1547 C1545 1.433 . S
C1547 N1550 1.384 . S
C1548 H1539 0.929 . S
C1548 C1540 1.378 . S
C1548 C1543 1.350 . S
C1549 H1536 0.929 . S
C1549 C1541 1.433 . S
C1549 N1551 1.384 . S
N1550 C1546 1.427 . S
N1550 C1547 1.384 . S
N1551 C1543 1.427 . S
N1551 C1549 1.384 . S
H1552 C1558 0.930 . S
H1553 C1562 0.930 . S
H1554 C1567 0.929 . S
H1555 C1565 0.929 . S
H1556 C1560 0.929 . S
H1557 C1566 0.929 . S
C1558 H1552 0.930 . S
C1558 C1559 1.367 1_554 S
C1558 C1566 1.378 . S
C1559 C1558 1.367 1_556 S
C1559 C1567 1.433 . S
C1560 H1556 0.929 . S
C1560 C1562 1.378 . S
C1560 C1564 1.350 . S
C1561 C1564 1.463 . S
C1561 C1566 1.350 . S
C1561 N1569 1.427 1_554 S
C1562 H1553 0.930 . S
C1562 C1560 1.378 . S
C1562 C1563 1.367 . S
C1563 C1562 1.367 . S
C1563 C1565 1.433 . S
C1564 C1560 1.350 . S
C1564 C1561 1.463 . S
C1564 N1568 1.427 . S
C1565 H1555 0.929 . S
C1565 C1563 1.433 . S
C1565 N1568 1.384 . S
C1566 H1557 0.929 . S
C1566 C1558 1.378 . S
C1566 C1561 1.350 . S
C1567 H1554 0.929 . S
C1567 C1559 1.433 . S
C1567 N1569 1.384 . S
N1568 C1564 1.427 . S
N1568 C1565 1.384 . S
N1569 C1561 1.427 1_556 S
N1569 C1567 1.384 . S
H1570 C1576 0.930 . S
H1571 C1580 0.930 . S
H1572 C1585 0.929 . S
H1573 C1583 0.929 . S
H1574 C1578 0.929 . S
H1575 C1584 0.929 . S
C1576 H1570 0.930 . S
C1576 C1577 1.367 . S
C1576 C1584 1.378 . S
C1577 C1576 1.367 . S
C1577 C1585 1.433 1_556 S
C1578 H1574 0.929 . S
C1578 C1580 1.378 . S
C1578 C1582 1.350 . S
C1579 C1582 1.463 . S
C1579 C1584 1.350 1_554 S
C1579 N1587 1.427 . S
C1580 H1571 0.930 . S
C1580 C1578 1.378 . S
C1580 C1581 1.367 . S
C1581 C1580 1.367 . S
C1581 C1583 1.433 . S
C1582 C1578 1.350 . S
C1582 C1579 1.463 . S
C1582 N1586 1.427 . S
C1583 H1573 0.929 . S
C1583 C1581 1.433 . S
C1583 N1586 1.384 . S
C1584 H1575 0.929 . S
C1584 C1576 1.378 . S
C1584 C1579 1.350 1_556 S
C1585 H1572 0.929 . S
C1585 C1577 1.433 1_554 S
C1585 N1587 1.384 . S
N1586 C1582 1.427 . S
N1586 C1583 1.384 . S
N1587 C1579 1.427 . S
N1587 C1585 1.384 . S
H1588 C1594 0.930 . S
H1589 C1598 0.930 . S
H1590 C1603 0.929 . S
H1591 C1601 0.929 . S
H1592 C1596 0.929 . S
H1593 C1602 0.929 . S
C1594 H1588 0.930 . S
C1594 C1595 1.367 . S
C1594 C1602 1.378 1_556 S
C1595 C1594 1.367 . S
C1595 C1603 1.433 . S
C1596 H1592 0.929 . S
C1596 C1598 1.378 . S
C1596 C1600 1.350 . S
C1597 C1600 1.463 . S
C1597 C1602 1.350 . S
C1597 N1605 1.427 . S
C1598 H1589 0.930 . S
C1598 C1596 1.378 . S
C1598 C1599 1.367 . S
C1599 C1598 1.367 . S
C1599 C1601 1.433 . S
C1600 C1596 1.350 . S
C1600 C1597 1.463 . S
C1600 N1604 1.427 . S
C1601 H1591 0.929 . S
C1601 C1599 1.433 . S
C1601 N1604 1.384 . S
C1602 H1593 0.929 . S
C1602 C1594 1.378 1_554 S
C1602 C1597 1.350 . S
C1603 H1590 0.929 . S
C1603 C1595 1.433 . S
C1603 N1605 1.384 1_556 S
N1604 C1600 1.427 . S
N1604 C1601 1.384 . S
N1605 C1597 1.427 . S
N1605 C1603 1.384 1_554 S
H1606 C1612 0.930 . S
H1607 C1616 0.930 . S
H1608 C1621 0.929 . S
H1609 C1619 0.929 . S
H1610 C1614 0.929 . S
H1611 C1620 0.929 . S
C1612 H1606 0.930 . S
C1612 C1613 1.367 . S
C1612 C1620 1.378 . S
C1613 C1612 1.367 . S
C1613 C1621 1.433 . S
C1614 H1610 0.929 . S
C1614 C1616 1.378 1_554 S
C1614 C1618 1.350 . S
C1615 C1618 1.463 . S
C1615 C1620 1.350 . S
C1615 N1623 1.427 . S
C1616 H1607 0.930 . S
C1616 C1614 1.378 1_556 S
C1616 C1617 1.367 . S
C1617 C1616 1.367 . S
C1617 C1619 1.433 . S
C1618 C1614 1.350 . S
C1618 C1615 1.463 . S
C1618 N1622 1.427 . S
C1619 H1609 0.929 . S
C1619 C1617 1.433 . S
C1619 N1622 1.384 1_556 S
C1620 H1611 0.929 . S
C1620 C1612 1.378 . S
C1620 C1615 1.350 . S
C1621 H1608 0.929 . S
C1621 C1613 1.433 . S
C1621 N1623 1.384 . S
N1622 C1618 1.427 . S
N1622 C1619 1.384 1_554 S
N1623 C1615 1.427 . S
N1623 C1621 1.384 . S
H1624 C1630 0.930 . S
H1625 C1634 0.930 . S
H1626 C1639 0.929 . S
H1627 C1637 0.929 . S
H1628 C1632 0.929 . S
H1629 C1638 0.929 . S
C1630 H1624 0.930 . S
C1630 C1631 1.367 . S
C1630 C1638 1.378 . S
C1631 C1630 1.367 . S
C1631 C1639 1.433 . S
C1632 H1628 0.929 . S
C1632 C1634 1.378 . S
C1632 C1636 1.350 . S
C1633 C1636 1.463 . S
C1633 C1638 1.350 . S
C1633 N1641 1.427 . S
C1634 H1625 0.930 . S
C1634 C1632 1.378 . S
C1634 C1635 1.367 . S
C1635 C1634 1.367 . S
C1635 C1637 1.433 . S
C1636 C1632 1.350 . S
C1636 C1633 1.463 . S
C1636 N1640 1.427 . S
C1637 H1627 0.929 . S
C1637 C1635 1.433 . S
C1637 N1640 1.384 . S
C1638 H1629 0.929 . S
C1638 C1630 1.378 . S
C1638 C1633 1.350 . S
C1639 H1626 0.929 . S
C1639 C1631 1.433 . S
C1639 N1641 1.384 . S
N1640 C1636 1.427 . S
N1640 C1637 1.384 . S
N1641 C1633 1.427 . S
N1641 C1639 1.384 . S
H1642 C1648 0.930 . S
H1643 C1652 0.930 . S
H1644 C1657 0.929 . S
H1645 C1655 0.929 . S
H1646 C1650 0.929 . S
H1647 C1656 0.929 . S
C1648 H1642 0.930 . S
C1648 C1649 1.367 . S
C1648 C1656 1.378 . S
C1649 C1648 1.367 . S
C1649 C1657 1.433 . S
C1650 H1646 0.929 . S
C1650 C1652 1.378 . S
C1650 C1654 1.350 . S
C1651 C1654 1.463 . S
C1651 C1656 1.350 . S
C1651 N1659 1.427 . S
C1652 H1643 0.930 . S
C1652 C1650 1.378 . S
C1652 C1653 1.367 . S
C1653 C1652 1.367 . S
C1653 C1655 1.433 . S
C1654 C1650 1.350 . S
C1654 C1651 1.463 . S
C1654 N1658 1.427 . S
C1655 H1645 0.929 . S
C1655 C1653 1.433 . S
C1655 N1658 1.384 . S
C1656 H1647 0.929 . S
C1656 C1648 1.378 . S
C1656 C1651 1.350 . S
C1657 H1644 0.929 . S
C1657 C1649 1.433 . S
C1657 N1659 1.384 . S
N1658 C1654 1.427 . S
N1658 C1655 1.384 . S
N1659 C1651 1.427 . S
N1659 C1657 1.384 . S
H1660 C1666 0.930 . S
H1661 C1670 0.930 . S
H1662 C1675 0.929 . S
H1663 C1673 0.929 . S
H1664 C1668 0.929 . S
H1665 C1674 0.929 . S
C1666 H1660 0.930 . S
C1666 C1667 1.367 . S
C1666 C1674 1.378 . S
C1667 C1666 1.367 . S
C1667 C1675 1.433 . S
C1668 H1664 0.929 . S
C1668 C1670 1.378 . S
C1668 C1672 1.350 . S
C1669 C1672 1.463 . S
C1669 C1674 1.350 . S
C1669 N1677 1.427 . S
C1670 H1661 0.930 . S
C1670 C1668 1.378 . S
C1670 C1671 1.367 . S
C1671 C1670 1.367 . S
C1671 C1673 1.433 . S
C1672 C1668 1.350 . S
C1672 C1669 1.463 . S
C1672 N1676 1.427 . S
C1673 H1663 0.929 . S
C1673 C1671 1.433 . S
C1673 N1676 1.384 . S
C1674 H1665 0.929 . S
C1674 C1666 1.378 . S
C1674 C1669 1.350 . S
C1675 H1662 0.929 . S
C1675 C1667 1.433 . S
C1675 N1677 1.384 . S
N1676 C1672 1.427 . S
N1676 C1673 1.384 . S
N1677 C1669 1.427 . S
N1677 C1675 1.384 . S
H1678 C1684 0.930 . S
H1679 C1688 0.930 . S
H1680 C1693 0.929 . S
H1681 C1691 0.929 . S
H1682 C1686 0.929 . S
H1683 C1692 0.929 . S
C1684 H1678 0.930 . S
C1684 C1685 1.367 . S
C1684 C1692 1.378 . S
C1685 C1684 1.367 . S
C1685 C1693 1.433 . S
C1686 H1682 0.929 . S
C1686 C1688 1.378 . S
C1686 C1690 1.350 . S
C1687 C1690 1.463 . S
C1687 C1692 1.350 . S
C1687 N1695 1.427 . S
C1688 H1679 0.930 . S
C1688 C1686 1.378 . S
C1688 C1689 1.367 . S
C1689 C1688 1.367 . S
C1689 C1691 1.433 . S
C1690 C1686 1.350 . S
C1690 C1687 1.463 . S
C1690 N1694 1.427 . S
C1691 H1681 0.929 . S
C1691 C1689 1.433 . S
C1691 N1694 1.384 . S
C1692 H1683 0.929 . S
C1692 C1684 1.378 . S
C1692 C1687 1.350 . S
C1693 H1680 0.929 . S
C1693 C1685 1.433 . S
C1693 N1695 1.384 . S
N1694 C1690 1.427 . S
N1694 C1691 1.384 . S
N1695 C1687 1.427 . S
N1695 C1693 1.384 . S
H1696 C1702 0.930 . S
H1697 C1706 0.930 . S
H1698 C1711 0.929 . S
H1699 C1709 0.929 . S
H1700 C1704 0.929 . S
H1701 C1710 0.929 . S
C1702 H1696 0.930 . S
C1702 C1703 1.367 . S
C1702 C1710 1.378 1_556 S
C1703 C1702 1.367 . S
C1703 C1711 1.433 . S
C1704 H1700 0.929 . S
C1704 C1706 1.378 1_556 S
C1704 C1708 1.350 1_556 S
C1705 C1708 1.463 1_566 S
C1705 C1710 1.350 1_556 S
C1705 N1713 1.427 . S
C1706 H1697 0.930 . S
C1706 C1704 1.378 1_554 S
C1706 C1707 1.367 . S
C1707 C1706 1.367 . S
C1707 C1709 1.433 . S
C1708 C1704 1.350 1_554 S
C1708 C1705 1.463 1_544 S
C1708 N1712 1.427 . S
C1709 H1699 0.929 . S
C1709 C1707 1.433 . S
C1709 N1712 1.384 . S
C1710 H1701 0.929 . S
C1710 C1702 1.378 1_554 S
C1710 C1705 1.350 1_554 S
C1711 H1698 0.929 . S
C1711 C1703 1.433 . S
C1711 N1713 1.384 . S
N1712 C1708 1.427 . S
N1712 C1709 1.384 . S
N1713 C1705 1.427 . S
N1713 C1711 1.384 . S
H1714 C1720 0.930 . S
H1715 C1724 0.930 . S
H1716 C1729 0.929 . S
H1717 C1727 0.929 . S
H1718 C1722 0.929 . S
H1719 C1728 0.929 . S
C1720 H1714 0.930 . S
C1720 C1721 1.367 . S
C1720 C1728 1.378 1_554 S
C1721 C1720 1.367 . S
C1721 C1729 1.433 . S
C1722 H1718 0.929 . S
C1722 C1724 1.378 1_554 S
C1722 C1726 1.350 1_554 S
C1723 C1726 1.463 1_554 S
C1723 C1728 1.350 1_554 S
C1723 N1731 1.427 . S
C1724 H1715 0.930 . S
C1724 C1722 1.378 1_556 S
C1724 C1725 1.367 . S
C1725 C1724 1.367 . S
C1725 C1727 1.433 . S
C1726 C1722 1.350 1_556 S
C1726 C1723 1.463 1_556 S
C1726 N1730 1.427 . S
C1727 H1717 0.929 . S
C1727 C1725 1.433 . S
C1727 N1730 1.384 . S
C1728 H1719 0.929 . S
C1728 C1720 1.378 1_556 S
C1728 C1723 1.350 1_556 S
C1729 H1716 0.929 . S
C1729 C1721 1.433 . S
C1729 N1731 1.384 . S
N1730 C1726 1.427 . S
N1730 C1727 1.384 . S
N1731 C1723 1.427 . S
N1731 C1729 1.384 . S
H1732 C1738 0.930 . S
H1733 C1742 0.930 . S
H1734 C1747 0.929 . S
H1735 C1745 0.929 . S
H1736 C1740 0.928 1_455 S
H1737 C1746 0.930 . S
C1738 H1732 0.930 . S
C1738 C1739 1.366 . S
C1738 C1746 1.378 . S
C1739 C1738 1.366 . S
C1739 C1747 1.433 1_655 S
C1740 H1736 0.928 1_655 S
C1740 C1742 1.378 . S
C1740 C1744 1.350 . S
C1741 C1744 1.462 1_556 S
C1741 C1746 1.350 . S
C1741 N1749 1.427 1_656 S
C1742 H1733 0.930 . S
C1742 C1740 1.378 . S
C1742 C1743 1.366 . S
C1743 C1742 1.366 . S
C1743 C1745 1.435 . S
C1744 C1740 1.350 . S
C1744 C1741 1.462 1_554 S
C1744 N1748 1.428 1_554 S
C1745 H1735 0.929 . S
C1745 C1743 1.435 . S
C1745 N1748 1.384 1_554 S
C1746 H1737 0.930 . S
C1746 C1738 1.378 . S
C1746 C1741 1.350 . S
C1747 H1734 0.929 . S
C1747 C1739 1.433 1_455 S
C1747 N1749 1.384 1_556 S
N1748 C1744 1.428 1_556 S
N1748 C1745 1.384 1_556 S
N1749 C1741 1.427 1_454 S
N1749 C1747 1.384 1_554 S
H1750 C1756 0.930 . S
H1751 C1760 0.930 . S
H1752 C1765 0.929 . S
H1753 C1763 0.929 . S
H1754 C1758 0.929 1_554 S
H1755 C1764 0.929 1_556 S
C1756 H1750 0.930 . S
C1756 C1757 1.367 . S
C1756 C1764 1.378 . S
C1757 C1756 1.367 . S
C1757 C1765 1.433 1_565 S
C1758 H1754 0.929 1_556 S
C1758 C1760 1.378 . S
C1758 C1762 1.355 . S
C1759 C1762 1.462 1_464 S
C1759 C1764 1.350 . S
C1759 N1767 1.427 1_565 S
C1760 H1751 0.930 . S
C1760 C1758 1.378 . S
C1760 C1761 1.374 . S
C1761 C1760 1.374 . S
C1761 C1763 1.426 1_545 S
C1762 C1758 1.355 . S
C1762 C1759 1.462 1_646 S
C1762 N1766 1.422 1_545 S
C1763 H1753 0.929 . S
C1763 C1761 1.426 1_565 S
C1763 N1766 1.384 . S
C1764 H1755 0.929 1_554 S
C1764 C1756 1.378 . S
C1764 C1759 1.350 . S
C1765 H1752 0.929 . S
C1765 C1757 1.433 1_545 S
C1765 N1767 1.384 . S
N1766 C1762 1.422 1_565 S
N1766 C1763 1.384 . S
N1767 C1759 1.427 1_545 S
N1767 C1765 1.384 . S
H1768 C1774 0.930 . S
H1769 C1778 0.930 . S
H1770 C1783 0.929 . S
H1771 C1781 0.929 . S
H1772 C1776 0.929 . S
H1773 C1782 0.929 . S
C1774 H1768 0.930 . S
C1774 C1775 1.367 . S
C1774 C1782 1.378 . S
C1775 C1774 1.367 . S
C1775 C1783 1.433 . S
C1776 H1772 0.929 . S
C1776 C1778 1.378 . S
C1776 C1780 1.350 . S
C1777 C1780 1.463 . S
C1777 C1782 1.350 . S
C1777 N1785 1.427 . S
C1778 H1769 0.930 . S
C1778 C1776 1.378 . S
C1778 C1779 1.367 . S
C1779 C1778 1.367 . S
C1779 C1781 1.433 . S
C1780 C1776 1.350 . S
C1780 C1777 1.463 . S
C1780 N1784 1.427 . S
C1781 H1771 0.929 . S
C1781 C1779 1.433 . S
C1781 N1784 1.384 . S
C1782 H1773 0.929 . S
C1782 C1774 1.378 . S
C1782 C1777 1.350 . S
C1783 H1770 0.929 . S
C1783 C1775 1.433 . S
C1783 N1785 1.384 . S
N1784 C1780 1.427 . S
N1784 C1781 1.384 . S
N1785 C1777 1.427 . S
N1785 C1783 1.384 . S
H1786 C1792 0.930 . S
H1787 C1796 0.930 . S
H1788 C1801 0.929 . S
H1789 C1799 0.929 . S
H1790 C1794 0.929 . S
H1791 C1800 0.929 . S
C1792 H1786 0.930 . S
C1792 C1793 1.367 . S
C1792 C1800 1.378 . S
C1793 C1792 1.367 . S
C1793 C1801 1.433 . S
C1794 H1790 0.929 . S
C1794 C1796 1.378 . S
C1794 C1798 1.350 . S
C1795 C1798 1.463 1_455 S
C1795 C1800 1.350 . S
C1795 N1803 1.427 . S
C1796 H1787 0.930 . S
C1796 C1794 1.378 . S
C1796 C1797 1.367 . S
C1797 C1796 1.367 . S
C1797 C1799 1.433 . S
C1798 C1794 1.350 . S
C1798 C1795 1.463 1_655 S
C1798 N1802 1.427 . S
C1799 H1789 0.929 . S
C1799 C1797 1.433 . S
C1799 N1802 1.384 . S
C1800 H1791 0.929 . S
C1800 C1792 1.378 . S
C1800 C1795 1.350 . S
C1801 H1788 0.929 . S
C1801 C1793 1.433 . S
C1801 N1803 1.384 . S
N1802 C1798 1.427 . S
N1802 C1799 1.384 . S
N1803 C1795 1.427 . S
N1803 C1801 1.384 . S
H1804 C1810 0.930 . S
H1805 C1814 0.930 . S
H1806 C1819 0.929 . S
H1807 C1817 0.929 . S
H1808 C1812 0.929 1_565 S
H1809 C1818 0.929 1_545 S
C1810 H1804 0.930 . S
C1810 C1811 1.369 . S
C1810 C1818 1.378 . S
C1811 C1810 1.369 . S
C1811 C1819 1.431 1_455 S
C1812 H1808 0.929 1_545 S
C1812 C1814 1.378 . S
C1812 C1816 1.383 . S
C1813 C1816 1.461 1_465 S
C1813 C1818 1.349 . S
C1813 N1821 1.428 1_455 S
C1814 H1805 0.930 . S
C1814 C1812 1.378 . S
C1814 C1815 1.367 . S
C1815 C1814 1.367 . S
C1815 C1817 1.433 1_655 S
C1816 C1812 1.383 . S
C1816 C1813 1.461 1_645 S
C1816 N1820 1.395 1_655 S
C1817 H1807 0.929 . S
C1817 C1815 1.433 1_455 S
C1817 N1820 1.384 . S
C1818 H1809 0.929 1_565 S
C1818 C1810 1.378 . S
C1818 C1813 1.349 . S
C1819 H1806 0.929 . S
C1819 C1811 1.431 1_655 S
C1819 N1821 1.384 . S
N1820 C1816 1.395 1_455 S
N1820 C1817 1.384 . S
N1821 C1813 1.428 1_655 S
N1821 C1819 1.384 . S
H1822 C1828 0.930 . S
H1823 C1832 0.930 . S
H1824 C1837 0.929 . S
H1825 C1835 0.929 . S
H1826 C1830 0.929 . S
H1827 C1836 0.929 . S
C1828 H1822 0.930 . S
C1828 C1829 1.374 . S
C1828 C1836 1.378 . S
C1829 C1828 1.374 . S
C1829 C1837 1.426 1_565 S
C1830 H1826 0.929 . S
C1830 C1832 1.378 . S
C1830 C1834 1.348 1_545 S
C1831 C1834 1.462 . S
C1831 C1836 1.367 . S
C1831 N1839 1.411 1_565 S
C1832 H1823 0.930 . S
C1832 C1830 1.378 . S
C1832 C1833 1.356 1_545 S
C1833 C1832 1.356 1_565 S
C1833 C1835 1.445 . S
C1834 C1830 1.348 1_565 S
C1834 C1831 1.462 . S
C1834 N1838 1.430 . S
C1835 H1825 0.929 . S
C1835 C1833 1.445 . S
C1835 N1838 1.384 . S
C1836 H1827 0.929 . S
C1836 C1828 1.378 . S
C1836 C1831 1.367 . S
C1837 H1824 0.929 . S
C1837 C1829 1.426 1_545 S
C1837 N1839 1.384 . S
N1838 C1834 1.430 . S
N1838 C1835 1.384 . S
N1839 C1831 1.411 1_545 S
N1839 C1837 1.384 . S
H1840 C1846 0.930 . S
H1841 C1850 0.930 . S
H1842 C1855 0.929 . S
H1843 C1853 0.929 . S
H1844 C1848 0.929 . S
H1845 C1854 0.929 . S
C1846 H1840 0.930 . S
C1846 C1847 1.367 . S
C1846 C1854 1.378 . S
C1847 C1846 1.367 . S
C1847 C1855 1.433 . S
C1848 H1844 0.929 . S
C1848 C1850 1.378 . S
C1848 C1852 1.350 . S
C1849 C1852 1.463 . S
C1849 C1854 1.350 . S
C1849 N1857 1.427 . S
C1850 H1841 0.930 . S
C1850 C1848 1.378 . S
C1850 C1851 1.367 . S
C1851 C1850 1.367 . S
C1851 C1853 1.433 . S
C1852 C1848 1.350 . S
C1852 C1849 1.463 . S
C1852 N1856 1.427 . S
C1853 H1843 0.929 . S
C1853 C1851 1.433 . S
C1853 N1856 1.384 . S
C1854 H1845 0.929 . S
C1854 C1846 1.378 . S
C1854 C1849 1.350 . S
C1855 H1842 0.929 . S
C1855 C1847 1.433 . S
C1855 N1857 1.384 . S
N1856 C1852 1.427 . S
N1856 C1853 1.384 . S
N1857 C1849 1.427 . S
N1857 C1855 1.384 . S
H1858 C1864 0.930 . S
H1859 C1868 0.930 . S
H1860 C1873 0.929 . S
H1861 C1871 0.929 . S
H1862 C1866 0.929 . S
H1863 C1872 0.929 . S
C1864 H1858 0.930 . S
C1864 C1865 1.367 . S
C1864 C1872 1.378 . S
C1865 C1864 1.367 . S
C1865 C1873 1.433 . S
C1866 H1862 0.929 . S
C1866 C1868 1.378 . S
C1866 C1870 1.350 . S
C1867 C1870 1.463 . S
C1867 C1872 1.350 . S
C1867 N1875 1.427 . S
C1868 H1859 0.930 . S
C1868 C1866 1.378 . S
C1868 C1869 1.367 . S
C1869 C1868 1.367 . S
C1869 C1871 1.433 . S
C1870 C1866 1.350 . S
C1870 C1867 1.463 . S
C1870 N1874 1.427 . S
C1871 H1861 0.929 . S
C1871 C1869 1.433 . S
C1871 N1874 1.384 . S
C1872 H1863 0.929 . S
C1872 C1864 1.378 . S
C1872 C1867 1.350 . S
C1873 H1860 0.929 . S
C1873 C1865 1.433 . S
C1873 N1875 1.384 . S
N1874 C1870 1.427 . S
N1874 C1871 1.384 . S
N1875 C1867 1.427 . S
N1875 C1873 1.384 . S
H1876 C1882 0.930 . S
H1877 C1886 0.930 . S
H1878 C1891 0.929 . S
H1879 C1889 0.929 . S
H1880 C1884 0.929 . S
H1881 C1890 0.929 . S
C1882 H1876 0.930 . S
C1882 C1883 1.367 . S
C1882 C1890 1.378 . S
C1883 C1882 1.367 . S
C1883 C1891 1.433 . S
C1884 H1880 0.929 . S
C1884 C1886 1.378 . S
C1884 C1888 1.350 . S
C1885 C1888 1.463 . S
C1885 C1890 1.350 . S
C1885 N1893 1.427 . S
C1886 H1877 0.930 . S
C1886 C1884 1.378 . S
C1886 C1887 1.367 . S
C1887 C1886 1.367 . S
C1887 C1889 1.433 . S
C1888 C1884 1.350 . S
C1888 C1885 1.463 . S
C1888 N1892 1.427 . S
C1889 H1879 0.929 . S
C1889 C1887 1.433 . S
C1889 N1892 1.384 . S
C1890 H1881 0.929 . S
C1890 C1882 1.378 . S
C1890 C1885 1.350 . S
C1891 H1878 0.929 . S
C1891 C1883 1.433 . S
C1891 N1893 1.384 . S
N1892 C1888 1.427 . S
N1892 C1889 1.384 . S
N1893 C1885 1.427 . S
N1893 C1891 1.384 . S
H1894 C1900 0.930 . S
H1895 C1904 0.930 . S
H1896 C1909 0.929 . S
H1897 C1907 0.929 . S
H1898 C1902 0.929 . S
H1899 C1908 0.929 . S
C1900 H1894 0.930 . S
C1900 C1901 1.367 . S
C1900 C1908 1.378 . S
C1901 C1900 1.367 . S
C1901 C1909 1.433 . S
C1902 H1898 0.929 . S
C1902 C1904 1.378 . S
C1902 C1906 1.350 . S
C1903 C1906 1.463 . S
C1903 C1908 1.350 . S
C1903 N1911 1.427 . S
C1904 H1895 0.930 . S
C1904 C1902 1.378 . S
C1904 C1905 1.367 . S
C1905 C1904 1.367 . S
C1905 C1907 1.433 . S
C1906 C1902 1.350 . S
C1906 C1903 1.463 . S
C1906 N1910 1.427 . S
C1907 H1897 0.929 . S
C1907 C1905 1.433 . S
C1907 N1910 1.384 . S
C1908 H1899 0.929 . S
C1908 C1900 1.378 . S
C1908 C1903 1.350 . S
C1909 H1896 0.929 . S
C1909 C1901 1.433 . S
C1909 N1911 1.384 . S
N1910 C1906 1.427 . S
N1910 C1907 1.384 . S
N1911 C1903 1.427 . S
N1911 C1909 1.384 . S
H1912 C1918 0.930 . S
H1913 C1922 0.930 . S
H1914 C1927 0.929 . S
H1915 C1925 0.929 . S
H1916 C1920 0.929 . S
H1917 C1926 0.929 . S
C1918 H1912 0.930 . S
C1918 C1919 1.367 . S
C1918 C1926 1.378 . S
C1919 C1918 1.367 . S
C1919 C1927 1.433 . S
C1920 H1916 0.929 . S
C1920 C1922 1.378 . S
C1920 C1924 1.350 . S
C1921 C1924 1.463 . S
C1921 C1926 1.350 . S
C1921 N1929 1.427 . S
C1922 H1913 0.930 . S
C1922 C1920 1.378 . S
C1922 C1923 1.367 . S
C1923 C1922 1.367 . S
C1923 C1925 1.433 . S
C1924 C1920 1.350 . S
C1924 C1921 1.463 . S
C1924 N1928 1.427 . S
C1925 H1915 0.929 . S
C1925 C1923 1.433 . S
C1925 N1928 1.384 . S
C1926 H1917 0.929 . S
C1926 C1918 1.378 . S
C1926 C1921 1.350 . S
C1927 H1914 0.929 . S
C1927 C1919 1.433 . S
C1927 N1929 1.384 . S
N1928 C1924 1.427 . S
N1928 C1925 1.384 . S
N1929 C1921 1.427 . S
N1929 C1927 1.384 . S
H1930 C1936 0.930 . S
H1931 C1940 0.930 . S
H1932 C1945 0.929 . S
H1933 C1943 0.929 . S
H1934 C1938 0.929 . S
H1935 C1944 0.929 . S
C1936 H1930 0.930 . S
C1936 C1937 1.367 . S
C1936 C1944 1.378 . S
C1937 C1936 1.367 . S
C1937 C1945 1.433 . S
C1938 H1934 0.929 . S
C1938 C1940 1.378 . S
C1938 C1942 1.350 . S
C1939 C1942 1.463 . S
C1939 C1944 1.350 . S
C1939 N1947 1.427 . S
C1940 H1931 0.930 . S
C1940 C1938 1.378 . S
C1940 C1941 1.367 . S
C1941 C1940 1.367 . S
C1941 C1943 1.433 . S
C1942 C1938 1.350 . S
C1942 C1939 1.463 . S
C1942 N1946 1.427 . S
C1943 H1933 0.929 . S
C1943 C1941 1.433 . S
C1943 N1946 1.384 . S
C1944 H1935 0.929 . S
C1944 C1936 1.378 . S
C1944 C1939 1.350 . S
C1945 H1932 0.929 . S
C1945 C1937 1.433 . S
C1945 N1947 1.384 . S
N1946 C1942 1.427 . S
N1946 C1943 1.384 . S
N1947 C1939 1.427 . S
N1947 C1945 1.384 . S
H1948 C1954 0.930 . S
H1949 C1958 0.930 . S
H1950 C1963 0.929 . S
H1951 C1961 0.929 . S
H1952 C1956 0.929 . S
H1953 C1962 0.929 . S
C1954 H1948 0.930 . S
C1954 C1955 1.367 . S
C1954 C1962 1.378 . S
C1955 C1954 1.367 . S
C1955 C1963 1.433 . S
C1956 H1952 0.929 . S
C1956 C1958 1.378 . S
C1956 C1960 1.350 . S
C1957 C1960 1.463 . S
C1957 C1962 1.350 . S
C1957 N1965 1.427 . S
C1958 H1949 0.930 . S
C1958 C1956 1.378 . S
C1958 C1959 1.367 . S
C1959 C1958 1.367 . S
C1959 C1961 1.433 . S
C1960 C1956 1.350 . S
C1960 C1957 1.463 . S
C1960 N1964 1.427 . S
C1961 H1951 0.929 . S
C1961 C1959 1.433 . S
C1961 N1964 1.384 . S
C1962 H1953 0.929 . S
C1962 C1954 1.378 . S
C1962 C1957 1.350 . S
C1963 H1950 0.929 . S
C1963 C1955 1.433 . S
C1963 N1965 1.384 . S
N1964 C1960 1.427 . S
N1964 C1961 1.384 . S
N1965 C1957 1.427 . S
N1965 C1963 1.384 . S
H1966 C1972 0.930 . S
H1967 C1976 0.930 . S
H1968 C1981 0.929 . S
H1969 C1979 0.929 . S
H1970 C1974 0.929 . S
H1971 C1980 0.929 . S
C1972 H1966 0.930 . S
C1972 C1973 1.367 . S
C1972 C1980 1.378 . S
C1973 C1972 1.367 . S
C1973 C1981 1.433 . S
C1974 H1970 0.929 . S
C1974 C1976 1.378 . S
C1974 C1978 1.350 . S
C1975 C1978 1.463 . S
C1975 C1980 1.350 . S
C1975 N1983 1.427 . S
C1976 H1967 0.930 . S
C1976 C1974 1.378 . S
C1976 C1977 1.367 . S
C1977 C1976 1.367 . S
C1977 C1979 1.433 . S
C1978 C1974 1.350 . S
C1978 C1975 1.463 . S
C1978 N1982 1.427 . S
C1979 H1969 0.929 . S
C1979 C1977 1.433 . S
C1979 N1982 1.384 . S
C1980 H1971 0.929 . S
C1980 C1972 1.378 . S
C1980 C1975 1.350 . S
C1981 H1968 0.929 . S
C1981 C1973 1.433 . S
C1981 N1983 1.384 . S
N1982 C1978 1.427 . S
N1982 C1979 1.384 . S
N1983 C1975 1.427 . S
N1983 C1981 1.384 . S
C1415 C57 0.362 . S
C1419 C812 0.304 . S
C1433 C929 0.307 . S
C1437 C145 0.382 . S
C1451 C988 0.347 . S
C1455 C225 0.394 . S
C1469 C733 0.303 . S
C1473 C313 0.368 . S
C1487 C381 0.345 . S
C1491 C1377 0.333 . S
C1505 C1105 0.308 . S
C1509 C469 0.384 . S
C1523 C1164 0.352 . S
C1527 C548 0.363 . S
C1541 C1252 0.303 . S
C1545 C636 0.371 . S
C1559 C753 0.361 . S
C1563 C137 0.299 . S
C1577 C849 0.351 . S
C1581 C233 0.349 . S
C1595 C909 0.386 . S
C1599 C321 0.333 . S
C1613 C49 0.327 . S
C1617 C1025 0.333 . S
C1631 C1085 0.341 . S
C1635 C645 0.306 . S
C1649 C1201 0.381 . S
C1653 C372 0.343 . S
C1667 C460 0.314 . S
C1671 C1289 0.384 . S
C1685 C1340 0.340 . S
C1689 C557 0.307 . S
C1703 C724 1.762 . S
C1707 C29 1.772 . S
C1721 C117 1.767 . S
C1725 C821 1.757 . S
C1739 C937 1.765 1_655 S
C1743 C196 1.787 . S
C1757 C284 1.764 . S
C1761 C997 1.757 . S
C1775 C1113 1.765 . S
C1779 C409 1.775 . S
C1793 C497 1.780 . S
C1797 C1173 1.771 . S
C1811 C1261 1.760 . S
C1815 C577 1.769 . S
C1829 C1369 1.764 1_565 S
C1833 C665 1.786 . S
C1847 C401 2.423 . S
C1851 C20 2.422 . S
C1865 C489 2.425 . S
C1869 C108 2.427 . S
C1883 C205 2.425 . S
C1887 C585 2.423 . S
C1901 C673 2.430 . S
C1905 C293 2.429 . S
C1919 C761 2.430 . S
C1923 C1076 2.429 . S
C1937 C1193 2.425 . S
C1941 C841 2.427 . S
C1955 C1281 2.417 . S
C1959 C900 2.419 . S
C1973 C1349 2.418 . S
C1977 C1017 2.417 . S
