# Generated by pormake.
# Topology umc, (4)-cn, num edge types: 1
# Building blocks:
#     Node 0, Type 0, BuildingBlock: KOZSID_clean_sbu_0, # of connection points: 4
#     Node 1, Type 0, BuildingBlock: KOZSID_clean_sbu_0, # of connection points: 4
#     Node 2, Type 0, BuildingBlock: KOZSID_clean_sbu_0, # of connection points: 4
#     Node 3, Type 0, BuildingBlock: KOZSID_clean_sbu_0, # of connection points: 4
#     Node 4, Type 0, BuildingBlock: KOZSID_clean_sbu_0, # of connection points: 4
#     Node 5, Type 0, BuildingBlock: KOZSID_clean_sbu_0, # of connection points: 4
#     Node 6, Type 0, BuildingBlock: KOZSID_clean_sbu_0, # of connection points: 4
#     Node 7, Type 0, BuildingBlock: KOZSID_clean_sbu_0, # of connection points: 4
#     Node 8, Type 0, BuildingBlock: KOZSID_clean_sbu_0, # of connection points: 4
#     Node 9, Type 0, BuildingBlock: KOZSID_clean_sbu_0, # of connection points: 4
#     Node 10, Type 0, BuildingBlock: KOZSID_clean_sbu_0, # of connection points: 4
#     Node 11, Type 0, BuildingBlock: KOZSID_clean_sbu_0, # of connection points: 4
#     Node 12, Type 0, BuildingBlock: KOZSID_clean_sbu_0, # of connection points: 4
#     Node 13, Type 0, BuildingBlock: KOZSID_clean_sbu_0, # of connection points: 4
#     Node 14, Type 0, BuildingBlock: KOZSID_clean_sbu_0, # of connection points: 4
#     Node 15, Type 0, BuildingBlock: KOZSID_clean_sbu_0, # of connection points: 4
#     Edge 16, Type (0, 0), BuildingBlock: TEMPAE_clean_linker_10, # of connection points: 2
#     Edge 17, Type (0, 0), BuildingBlock: TEMPAE_clean_linker_10, # of connection points: 2
#     Edge 18, Type (0, 0), BuildingBlock: TEMPAE_clean_linker_10, # of connection points: 2
#     Edge 19, Type (0, 0), BuildingBlock: TEMPAE_clean_linker_10, # of connection points: 2
#     Edge 20, Type (0, 0), BuildingBlock: TEMPAE_clean_linker_10, # of connection points: 2
#     Edge 21, Type (0, 0), BuildingBlock: TEMPAE_clean_linker_10, # of connection points: 2
#     Edge 22, Type (0, 0), BuildingBlock: TEMPAE_clean_linker_10, # of connection points: 2
#     Edge 23, Type (0, 0), BuildingBlock: TEMPAE_clean_linker_10, # of connection points: 2
#     Edge 24, Type (0, 0), BuildingBlock: TEMPAE_clean_linker_10, # of connection points: 2
#     Edge 25, Type (0, 0), BuildingBlock: TEMPAE_clean_linker_10, # of connection points: 2
#     Edge 26, Type (0, 0), BuildingBlock: TEMPAE_clean_linker_10, # of connection points: 2
#     Edge 27, Type (0, 0), BuildingBlock: TEMPAE_clean_linker_10, # of connection points: 2
#     Edge 28, Type (0, 0), BuildingBlock: TEMPAE_clean_linker_10, # of connection points: 2
#     Edge 29, Type (0, 0), BuildingBlock: TEMPAE_clean_linker_10, # of connection points: 2
#     Edge 30, Type (0, 0), BuildingBlock: TEMPAE_clean_linker_10, # of connection points: 2
#     Edge 31, Type (0, 0), BuildingBlock: TEMPAE_clean_linker_10, # of connection points: 2
#     Edge 32, Type (0, 0), BuildingBlock: TEMPAE_clean_linker_10, # of connection points: 2
#     Edge 33, Type (0, 0), BuildingBlock: TEMPAE_clean_linker_10, # of connection points: 2
#     Edge 34, Type (0, 0), BuildingBlock: TEMPAE_clean_linker_10, # of connection points: 2
#     Edge 35, Type (0, 0), BuildingBlock: TEMPAE_clean_linker_10, # of connection points: 2
#     Edge 36, Type (0, 0), BuildingBlock: TEMPAE_clean_linker_10, # of connection points: 2
#     Edge 37, Type (0, 0), BuildingBlock: TEMPAE_clean_linker_10, # of connection points: 2
#     Edge 38, Type (0, 0), BuildingBlock: TEMPAE_clean_linker_10, # of connection points: 2
#     Edge 39, Type (0, 0), BuildingBlock: TEMPAE_clean_linker_10, # of connection points: 2
#     Edge 40, Type (0, 0), BuildingBlock: TEMPAE_clean_linker_10, # of connection points: 2
#     Edge 41, Type (0, 0), BuildingBlock: TEMPAE_clean_linker_10, # of connection points: 2
#     Edge 42, Type (0, 0), BuildingBlock: TEMPAE_clean_linker_10, # of connection points: 2
#     Edge 43, Type (0, 0), BuildingBlock: TEMPAE_clean_linker_10, # of connection points: 2
#     Edge 44, Type (0, 0), BuildingBlock: TEMPAE_clean_linker_10, # of connection points: 2
#     Edge 45, Type (0, 0), BuildingBlock: TEMPAE_clean_linker_10, # of connection points: 2
#     Edge 46, Type (0, 0), BuildingBlock: TEMPAE_clean_linker_10, # of connection points: 2
#     Edge 47, Type (0, 0), BuildingBlock: TEMPAE_clean_linker_10, # of connection points: 2
# Relax obj value: 0.055
# Max RMSD: 0.170
# Mean RMSD: 0.170
data_MOF--net-umc--node1-KOZSID_clean_sbu_0--edge1-TEMPAE_clean_linker_10
_symmetry_space_group_name_H-M    P1
_symmetry_Int_Tables_number       1
_symmetry_cell_setting            triclinic
loop_
_symmetry_equiv_pos_as_xyz
'x, y, z'
_cell_length_a     67.890276
_cell_length_b     39.859899
_cell_length_c     63.278002
_cell_angle_alpha  89.994234
_cell_angle_beta   90.073146
_cell_angle_gamma 89.979323
loop_
_atom_site_label
_atom_site_type_symbol
_atom_site_fract_x
_atom_site_fract_y
_atom_site_fract_z
_atom_type_partial_charge
C0 C 0.37359 0.05195 0.33517 0.0
C1 C 0.36269 0.02334 0.33072 0.0
C2 C 0.3526 0.01548 0.34879 0.0
C3 C 0.35783 0.03969 0.36318 0.0
N4 N 0.37053 0.06232 0.35528 0.0
Co5 Co 0.38166 0.1014 0.37063 0.0
N6 N 0.37533 0.08133 0.39855 0.0
C7 C 0.3633 0.05497 0.40188 0.0
C8 C 0.36321 0.04441 0.42248 0.0
C9 C 0.37568 0.06575 0.43286 0.0
C10 C 0.38235 0.08892 0.41806 0.0
N11 N 0.39237 0.14087 0.386 0.0
C12 C 0.39651 0.14514 0.40686 0.0
C13 C 0.4023 0.17798 0.41081 0.0
C14 C 0.4017 0.19464 0.39184 0.0
C15 C 0.39549 0.1713 0.37735 0.0
N16 N 0.38826 0.12065 0.34255 0.0
C17 C 0.3922 0.15306 0.33856 0.0
C18 C 0.39672 0.15871 0.31768 0.0
C19 C 0.39548 0.12788 0.308 0.0
C20 C 0.39021 0.10509 0.32355 0.0
N21 N 0.35567 0.12394 0.36987 0.0
C22 C 0.32192 0.16532 0.36792 0.0
C23 C 0.32917 0.14923 0.3498 0.0
C24 C 0.34578 0.12822 0.35117 0.0
C25 C 0.33142 0.15894 0.38717 0.0
C26 C 0.34825 0.13854 0.38779 0.0
N27 N 0.40776 0.07995 0.37135 0.0
C28 C 0.44298 0.08503 0.36757 0.0
C29 C 0.44565 0.05073 0.37168 0.0
C30 C 0.42871 0.03146 0.37581 0.0
C31 C 0.40998 0.04654 0.37568 0.0
C32 C 0.4241 0.09892 0.36729 0.0
H33 H 0.39729 0.03112 0.37894 0.0
H34 H 0.42279 0.12522 0.36373 0.0
H35 H 0.35099 0.11632 0.33692 0.0
H36 H 0.35564 0.13568 0.40275 0.0
C37 C 0.35483 0.03767 0.38495 0.0
C38 C 0.38605 0.06931 0.31976 0.0
C39 C 0.39325 0.11983 0.42353 0.0
C40 C 0.39477 0.17571 0.35532 0.0
H41 H 0.36224 0.00942 0.31604 0.0
H42 H 0.34347 0.99364 0.35145 0.0
H43 H 0.35559 0.02297 0.42905 0.0
H44 H 0.37917 0.0645 0.44952 0.0
H45 H 0.40618 0.18901 0.42587 0.0
H46 H 0.40565 0.22054 0.38894 0.0
H47 H 0.40121 0.18214 0.3105 0.0
H48 H 0.39813 0.12277 0.29145 0.0
H49 H 0.32212 0.15302 0.33462 0.0
H50 H 0.32637 0.1708 0.40159 0.0
H51 H 0.45542 0.1014 0.36476 0.0
H52 H 0.4298 0.0048 0.37884 0.0
C53 C 0.6567 0.94852 0.33643 0.0
C54 C 0.66787 0.97674 0.33178 0.0
C55 C 0.67803 0.98467 0.34983 0.0
C56 C 0.67257 0.96089 0.3644 0.0
N57 N 0.65967 0.93846 0.35661 0.0
Co58 Co 0.64808 0.90009 0.37218 0.0
N59 N 0.65427 0.92077 0.39995 0.0
C60 C 0.66656 0.94683 0.40318 0.0
C61 C 0.66644 0.95805 0.42365 0.0
C62 C 0.65355 0.93746 0.43402 0.0
C63 C 0.64685 0.91403 0.41939 0.0
N64 N 0.63693 0.86129 0.38777 0.0
C65 C 0.63243 0.85779 0.40858 0.0
C66 C 0.62638 0.82518 0.41282 0.0
C67 C 0.62717 0.80791 0.39407 0.0
C68 C 0.63374 0.83068 0.37942 0.0
N69 N 0.64156 0.88032 0.34423 0.0
C70 C 0.63744 0.8479 0.34048 0.0
C71 C 0.63289 0.84198 0.31962 0.0
C72 C 0.63429 0.87264 0.30972 0.0
C73 C 0.63967 0.89561 0.32513 0.0
N74 N 0.6739 0.87686 0.37205 0.0
C75 C 0.70738 0.83397 0.37132 0.0
C76 C 0.70018 0.84945 0.35279 0.0
C77 C 0.68381 0.87112 0.35357 0.0
C78 C 0.69783 0.84239 0.39033 0.0
C79 C 0.68116 0.86319 0.39032 0.0
N80 N 0.62214 0.92213 0.37233 0.0
C81 C 0.58691 0.9176 0.36826 0.0
C82 C 0.58442 0.952 0.37212 0.0
C83 C 0.60146 0.97107 0.37624 0.0
C84 C 0.62011 0.95567 0.37636 0.0
C85 C 0.60571 0.90338 0.36825 0.0
H86 H 0.63288 0.97092 0.37962 0.0
H87 H 0.60687 0.87699 0.36491 0.0
H88 H 0.67873 0.88224 0.33899 0.0
H89 H 0.67384 0.8673 0.40518 0.0
C90 C 0.67541 0.9634 0.38619 0.0
C91 C 0.64397 0.9313 0.3212 0.0
C92 C 0.63546 0.88368 0.42495 0.0
C93 C 0.63461 0.82568 0.35743 0.0
H94 H 0.66841 0.9904 0.31701 0.0
H95 H 0.68731 0.00637 0.35238 0.0
H96 H 0.67417 0.97948 0.43009 0.0
H97 H 0.64978 0.93944 0.45057 0.0
H98 H 0.62218 0.81472 0.42793 0.0
H99 H 0.62306 0.78202 0.39141 0.0
H100 H 0.62824 0.81852 0.3126 0.0
H101 H 0.63164 0.87753 0.29314 0.0
H102 H 0.70664 0.84427 0.33753 0.0
H103 H 0.70291 0.83276 0.40535 0.0
H104 H 0.57439 0.90138 0.36547 0.0
H105 H 0.6005 0.99779 0.37909 0.0
C106 C 0.37309 0.94733 0.17074 0.0
C107 C 0.36203 0.97579 0.17514 0.0
C108 C 0.35184 0.98337 0.15706 0.0
C109 C 0.35716 0.95915 0.14273 0.0
N110 N 0.37001 0.93676 0.15067 0.0
Co111 Co 0.38135 0.8978 0.1354 0.0
N112 N 0.37481 0.91759 0.10743 0.0
C113 C 0.36262 0.94374 0.10406 0.0
C114 C 0.36234 0.95411 0.08342 0.0
C115 C 0.37485 0.93285 0.07306 0.0
C116 C 0.38174 0.90992 0.08791 0.0
N117 N 0.39228 0.85843 0.12011 0.0
C118 C 0.39634 0.85406 0.09924 0.0
C119 C 0.40237 0.82133 0.09538 0.0
C120 C 0.402 0.80481 0.1144 0.0
C121 C 0.39568 0.82813 0.12884 0.0
N122 N 0.38814 0.87883 0.16352 0.0
C123 C 0.39234 0.84653 0.16759 0.0
C124 C 0.39699 0.8411 0.18847 0.0
C125 C 0.39558 0.87198 0.19808 0.0
C126 C 0.39008 0.89456 0.18248 0.0
N127 N 0.35545 0.87475 0.13621 0.0
C128 C 0.32157 0.83341 0.13819 0.0
C129 C 0.32889 0.84961 0.15628 0.0
C130 C 0.34556 0.87054 0.1549 0.0
C131 C 0.33116 0.83958 0.11897 0.0
C132 C 0.34803 0.85994 0.11834 0.0
N133 N 0.40736 0.91976 0.13465 0.0
C134 C 0.44265 0.91552 0.13875 0.0
C135 C 0.4451 0.94988 0.13469 0.0
C136 C 0.428 0.96873 0.13037 0.0
C137 C 0.40937 0.95322 0.13033 0.0
C138 C 0.42386 0.90117 0.13883 0.0
H139 H 0.39658 0.96837 0.12696 0.0
H140 H 0.42274 0.87484 0.14238 0.0
H141 H 0.35077 0.88254 0.16914 0.0
H142 H 0.35541 0.86268 0.10339 0.0
C143 C 0.35409 0.961 0.12095 0.0
C144 C 0.38573 0.93031 0.18616 0.0
C145 C 0.39277 0.87913 0.08249 0.0
C146 C 0.39505 0.82385 0.15088 0.0
H147 H 0.36156 0.9898 0.18978 0.0
H148 H 0.34257 0.00506 0.15434 0.0
H149 H 0.35454 0.97536 0.0768 0.0
H150 H 0.37821 0.93397 0.05637 0.0
H151 H 0.40625 0.81026 0.08034 0.0
H152 H 0.40614 0.77901 0.11737 0.0
H153 H 0.4017 0.81782 0.1957 0.0
H154 H 0.39829 0.87725 0.2146 0.0
H155 H 0.32182 0.84606 0.17145 0.0
H156 H 0.32612 0.82765 0.10457 0.0
H157 H 0.4552 0.89942 0.14171 0.0
H158 H 0.42889 0.99541 0.12735 0.0
C159 C 0.65571 0.05413 0.17279 0.0
C160 C 0.6668 0.02574 0.17729 0.0
C161 C 0.67698 0.01805 0.15925 0.0
C162 C 0.67161 0.04214 0.14483 0.0
N163 N 0.65874 0.06454 0.1527 0.0
Co164 Co 0.64732 0.10334 0.13731 0.0
N165 N 0.65376 0.08328 0.10943 0.0
C166 C 0.66598 0.05715 0.10612 0.0
C167 C 0.66608 0.04646 0.08555 0.0
C168 C 0.65341 0.06747 0.07516 0.0
C169 C 0.64662 0.09061 0.08993 0.0
N170 N 0.63632 0.14254 0.12191 0.0
C171 C 0.63211 0.14663 0.10105 0.0
C172 C 0.62608 0.17933 0.09705 0.0
C173 C 0.62659 0.19608 0.11598 0.0
C174 C 0.63299 0.17293 0.13051 0.0
N175 N 0.6406 0.12254 0.16536 0.0
C176 C 0.63644 0.15488 0.16932 0.0
C177 C 0.63186 0.16046 0.1902 0.0
C178 C 0.63329 0.12965 0.1999 0.0
C179 C 0.63871 0.10695 0.18436 0.0
N180 N 0.67321 0.12645 0.13799 0.0
C181 C 0.70701 0.16789 0.13963 0.0
C182 C 0.6997 0.15227 0.15788 0.0
C183 C 0.68308 0.1312 0.15667 0.0
C184 C 0.6975 0.16118 0.12044 0.0
C185 C 0.68062 0.14081 0.11998 0.0
N186 N 0.62131 0.08134 0.13664 0.0
C187 C 0.586 0.08569 0.14038 0.0
C188 C 0.58353 0.05138 0.13616 0.0
C189 C 0.60064 0.03247 0.13204 0.0
C190 C 0.6193 0.04789 0.13227 0.0
C191 C 0.60482 0.09995 0.14072 0.0
H192 H 0.63209 0.03272 0.12901 0.0
H193 H 0.60595 0.12627 0.14431 0.0
H194 H 0.67789 0.11956 0.17101 0.0
H195 H 0.67324 0.1377 0.10504 0.0
C196 C 0.67461 0.0401 0.12306 0.0
C197 C 0.64307 0.07123 0.18814 0.0
C198 C 0.63549 0.12127 0.08443 0.0
C199 C 0.63369 0.17744 0.15253 0.0
H200 H 0.6673 0.01183 0.19198 0.0
H201 H 0.68625 0.99636 0.15661 0.0
H202 H 0.67384 0.02513 0.07901 0.0
H203 H 0.64987 0.06604 0.05852 0.0
H204 H 0.6221 0.1902 0.08197 0.0
H205 H 0.62246 0.22191 0.11885 0.0
H206 H 0.62721 0.18381 0.19736 0.0
H207 H 0.63065 0.1245 0.21644 0.0
H208 H 0.70674 0.15642 0.17302 0.0
H209 H 0.70262 0.17268 0.10594 0.0
H210 H 0.57346 0.10183 0.1432 0.0
H211 H 0.59974 0.00582 0.12894 0.0
C212 C 0.64041 0.90832 0.68079 0.0
C213 C 0.63799 0.88651 0.69774 0.0
C214 C 0.635 0.85512 0.68945 0.0
C215 C 0.63605 0.85916 0.66795 0.0
N216 N 0.63946 0.89114 0.6622 0.0
Co217 Co 0.64458 0.90613 0.63273 0.0
N218 N 0.6324 0.8653 0.62025 0.0
C219 C 0.62854 0.83672 0.63076 0.0
C220 C 0.61936 0.81314 0.61838 0.0
C221 C 0.61756 0.82768 0.59879 0.0
C222 C 0.62604 0.85929 0.6002 0.0
N223 N 0.65021 0.92121 0.60342 0.0
C224 C 0.64349 0.90953 0.58464 0.0
C225 C 0.65317 0.92515 0.56793 0.0
C226 C 0.666 0.9477 0.57659 0.0
C227 C 0.66373 0.94433 0.59798 0.0
N228 N 0.65646 0.94729 0.6451 0.0
C229 C 0.66741 0.96998 0.63458 0.0
C230 C 0.66984 0.99936 0.64546 0.0
C231 C 0.66009 0.99478 0.6641 0.0
C232 C 0.65299 0.96203 0.66411 0.0
N233 N 0.67033 0.88261 0.63346 0.0
C234 C 0.70358 0.83947 0.63596 0.0
C235 C 0.69808 0.86021 0.65303 0.0
C236 C 0.68169 0.88182 0.65135 0.0
C237 C 0.69255 0.84272 0.61727 0.0
C238 C 0.67606 0.86379 0.61644 0.0
N239 N 0.61862 0.9284 0.63194 0.0
C240 C 0.59724 0.97382 0.6211 0.0
C241 C 0.58087 0.95787 0.63019 0.0
C242 C 0.58388 0.92695 0.64016 0.0
C243 C 0.60268 0.91255 0.64063 0.0
C244 C 0.616 0.95889 0.62237 0.0
H245 H 0.6042 0.88829 0.64792 0.0
H246 H 0.62835 0.97194 0.6155 0.0
H247 H 0.6778 0.89695 0.66485 0.0
H248 H 0.6676 0.86386 0.60205 0.0
C249 C 0.6313 0.83491 0.65271 0.0
C250 C 0.64494 0.94456 0.68293 0.0
C251 C 0.62933 0.88189 0.58202 0.0
C252 C 0.67131 0.96614 0.6131 0.0
H253 H 0.63862 0.89233 0.71441 0.0
H254 H 0.63201 0.83225 0.69808 0.0
H255 H 0.61401 0.78872 0.62316 0.0
H256 H 0.61088 0.81613 0.58509 0.0
H257 H 0.65148 0.92054 0.55119 0.0
H258 H 0.67543 0.96514 0.56826 0.0
H259 H 0.67664 0.02227 0.63991 0.0
H260 H 0.65835 0.01385 0.67608 0.0
H261 H 0.7059 0.85914 0.66792 0.0
H262 H 0.69634 0.82873 0.6032 0.0
H263 H 0.5956 0.99786 0.6133 0.0
H264 H 0.57165 0.91354 0.64719 0.0
C265 C 0.37999 0.09991 0.6785 0.0
C266 C 0.38179 0.12139 0.69571 0.0
C267 C 0.38463 0.15307 0.68777 0.0
C268 C 0.38408 0.1495 0.66622 0.0
N269 N 0.38112 0.11754 0.66012 0.0
Co270 Co 0.3767 0.10307 0.63048 0.0
N271 N 0.38904 0.14424 0.61865 0.0
C272 C 0.39257 0.17265 0.62945 0.0
C273 C 0.40207 0.19641 0.61748 0.0
C274 C 0.40444 0.18211 0.59788 0.0
C275 C 0.39598 0.15045 0.59886 0.0
N276 N 0.37151 0.08877 0.60097 0.0
C277 C 0.37847 0.10101 0.58248 0.0
C278 C 0.36899 0.086 0.56541 0.0
C279 C 0.35603 0.0632 0.57356 0.0
C280 C 0.35805 0.06584 0.59504 0.0
N281 N 0.36491 0.06139 0.64218 0.0
C282 C 0.35418 0.03887 0.63124 0.0
C283 C 0.35178 0.00917 0.64178 0.0
C284 C 0.36131 0.01338 0.66063 0.0
C285 C 0.36827 0.04621 0.66109 0.0
N286 N 0.3508 0.1261 0.63088 0.0
C287 C 0.31643 0.16667 0.63332 0.0
C288 C 0.32109 0.14307 0.64918 0.0
C289 C 0.33826 0.12326 0.64771 0.0
C290 C 0.32924 0.16826 0.6159 0.0
C291 C 0.34596 0.14769 0.61486 0.0
N292 N 0.4028 0.08122 0.63006 0.0
C293 C 0.42483 0.03695 0.61884 0.0
C294 C 0.44108 0.05297 0.62839 0.0
C295 C 0.43736 0.08319 0.63909 0.0
C296 C 0.41841 0.09695 0.63947 0.0
C297 C 0.40588 0.05127 0.62001 0.0
H298 H 0.41651 0.12066 0.64733 0.0
H299 H 0.39378 0.03832 0.61255 0.0
H300 H 0.34159 0.10616 0.66045 0.0
H301 H 0.35532 0.15024 0.60123 0.0
C302 C 0.38916 0.17411 0.65131 0.0
C303 C 0.37612 0.06338 0.68015 0.0
C304 C 0.3931 0.12803 0.5805 0.0
C305 C 0.35043 0.04338 0.60976 0.0
H306 H 0.38096 0.1151 0.7123 0.0
H307 H 0.38728 0.1758 0.69668 0.0
H308 H 0.40724 0.2208 0.62255 0.0
H309 H 0.41144 0.19386 0.58444 0.0
H310 H 0.37104 0.09104 0.54877 0.0
H311 H 0.34676 0.04596 0.56484 0.0
H312 H 0.34515 0.98632 0.63588 0.0
H313 H 0.36307 0.99394 0.67237 0.0
H314 H 0.31164 0.13986 0.66279 0.0
H315 H 0.32687 0.18605 0.60325 0.0
H316 H 0.42667 0.01379 0.61016 0.0
H317 H 0.44897 0.09642 0.64733 0.0
C318 C 0.64446 0.10141 0.8287 0.0
C319 C 0.64203 0.12316 0.81171 0.0
C320 C 0.63959 0.15474 0.81994 0.0
C321 C 0.64097 0.15087 0.84143 0.0
N322 N 0.64406 0.11881 0.84722 0.0
Co323 Co 0.64937 0.1038 0.87662 0.0
N324 N 0.63764 0.14492 0.88914 0.0
C325 C 0.63403 0.17364 0.87867 0.0
C326 C 0.62496 0.19731 0.89107 0.0
C327 C 0.62296 0.18264 0.9106 0.0
C328 C 0.63122 0.15086 0.90916 0.0
N329 N 0.65514 0.08869 0.90588 0.0
C330 C 0.64843 0.10032 0.92464 0.0
C331 C 0.65809 0.08459 0.94135 0.0
C332 C 0.6709 0.062 0.93267 0.0
C333 C 0.66863 0.06547 0.91127 0.0
N334 N 0.66081 0.06236 0.86422 0.0
C335 C 0.67186 0.03964 0.87465 0.0
C336 C 0.67398 0.01015 0.8638 0.0
C337 C 0.66392 0.0147 0.84531 0.0
C338 C 0.65693 0.04753 0.84532 0.0
N339 N 0.67524 0.12666 0.87564 0.0
C340 C 0.70846 0.16952 0.87267 0.0
C341 C 0.70275 0.14875 0.8557 0.0
C342 C 0.68637 0.12725 0.85761 0.0
C343 C 0.69772 0.16636 0.89154 0.0
C344 C 0.68123 0.1454 0.8926 0.0
N345 N 0.62332 0.08225 0.8777 0.0
C346 C 0.6016 0.03783 0.88914 0.0
C347 C 0.58509 0.05481 0.88091 0.0
C348 C 0.58845 0.08548 0.87064 0.0
C349 C 0.60743 0.09879 0.86944 0.0
C350 C 0.62054 0.05182 0.88724 0.0
H351 H 0.60915 0.12285 0.86195 0.0
H352 H 0.63288 0.03827 0.89378 0.0
H353 H 0.68225 0.11213 0.84418 0.0
H354 H 0.67294 0.14544 0.90708 0.0
C355 C 0.63665 0.17535 0.85669 0.0
C356 C 0.64845 0.06495 0.82665 0.0
C357 C 0.6342 0.12785 0.92722 0.0
C358 C 0.67601 0.04353 0.8961 0.0
H359 H 0.64226 0.11712 0.79505 0.0
H360 H 0.63671 0.17764 0.81127 0.0
H361 H 0.61973 0.22182 0.88631 0.0
H362 H 0.61623 0.19419 0.92426 0.0
H363 H 0.65633 0.0891 0.95809 0.0
H364 H 0.68026 0.04441 0.941 0.0
H365 H 0.68074 0.98716 0.86934 0.0
H366 H 0.66183 0.99549 0.83349 0.0
H367 H 0.71038 0.14977 0.84072 0.0
H368 H 0.70173 0.18042 0.90552 0.0
H369 H 0.59996 0.0142 0.89737 0.0
H370 H 0.5765 0.09937 0.86343 0.0
C371 C 0.38749 0.9039 0.82495 0.0
C372 C 0.39257 0.88324 0.80811 0.0
C373 C 0.40059 0.85476 0.81652 0.0
C374 C 0.39948 0.85899 0.83795 0.0
N375 N 0.39094 0.88825 0.84375 0.0
Co376 Co 0.38398 0.90179 0.87343 0.0
N377 N 0.39722 0.86134 0.88605 0.0
C378 C 0.407 0.83726 0.87529 0.0
C379 C 0.41636 0.81455 0.88812 0.0
C380 C 0.41255 0.82497 0.9083 0.0
C381 C 0.40084 0.85337 0.90667 0.0
N382 N 0.37615 0.91483 0.90284 0.0
C383 C 0.37951 0.89943 0.92159 0.0
C384 C 0.3691 0.91472 0.93789 0.0
C385 C 0.35967 0.94163 0.92931 0.0
C386 C 0.36445 0.9408 0.90832 0.0
N387 N 0.37177 0.94327 0.86107 0.0
C388 C 0.36326 0.96838 0.87217 0.0
C389 C 0.36068 0.99727 0.86089 0.0
C390 C 0.36797 0.99039 0.84137 0.0
C391 C 0.37387 0.95693 0.84147 0.0
N392 N 0.35856 0.87619 0.87075 0.0
C393 C 0.32363 0.8361 0.87014 0.0
C394 C 0.32326 0.86995 0.87652 0.0
C395 C 0.34063 0.88949 0.87633 0.0
C396 C 0.34178 0.82375 0.86311 0.0
C397 C 0.35871 0.84355 0.86397 0.0
N398 N 0.40942 0.92648 0.87617 0.0
C399 C 0.42943 0.97159 0.89052 0.0
C400 C 0.4461 0.95979 0.87978 0.0
C401 C 0.44405 0.93105 0.86743 0.0
C402 C 0.4259 0.91483 0.86603 0.0
C403 C 0.41126 0.95487 0.88833 0.0
H404 H 0.4257 0.89267 0.85667 0.0
H405 H 0.39888 0.96518 0.89656 0.0
H406 H 0.33927 0.91515 0.88098 0.0
H407 H 0.37182 0.83134 0.85922 0.0
C408 C 0.4073 0.83702 0.85313 0.0
C409 C 0.38058 0.93884 0.82242 0.0
C410 C 0.39364 0.87228 0.92504 0.0
C411 C 0.35959 0.96539 0.89369 0.0
H412 H 0.39099 0.88821 0.7914 0.0
H413 H 0.40673 0.83368 0.80799 0.0
H414 H 0.42521 0.79326 0.88337 0.0
H415 H 0.418 0.81317 0.92254 0.0
H416 H 0.3688 0.90777 0.95441 0.0
H417 H 0.35079 0.96006 0.9375 0.0
H418 H 0.35506 0.02108 0.86651 0.0
H419 H 0.36909 0.00854 0.82876 0.0
H420 H 0.30977 0.88143 0.88204 0.0
H421 H 0.34322 0.79859 0.85693 0.0
H422 H 0.43034 0.99387 0.90027 0.0
H423 H 0.45658 0.92068 0.85908 0.0
C424 C 0.87372 0.55748 0.33472 0.0
C425 C 0.86293 0.52858 0.33075 0.0
C426 C 0.85509 0.5188 0.3496 0.0
C427 C 0.86141 0.5423 0.36389 0.0
N428 N 0.87254 0.5668 0.35529 0.0
Co429 Co 0.88455 0.6059 0.37051 0.0
N430 N 0.87712 0.58712 0.3988 0.0
C431 C 0.86781 0.55767 0.40232 0.0
C432 C 0.86705 0.54861 0.42315 0.0
C433 C 0.87645 0.57377 0.43364 0.0
C434 C 0.882 0.5974 0.41859 0.0
N435 N 0.89583 0.64565 0.38578 0.0
C436 C 0.89704 0.65249 0.40684 0.0
C437 C 0.9047 0.68431 0.41034 0.0
C438 C 0.90884 0.69764 0.39095 0.0
C439 C 0.90328 0.67358 0.37666 0.0
N440 N 0.89308 0.62329 0.34214 0.0
C441 C 0.90271 0.65234 0.33837 0.0
C442 C 0.90843 0.65607 0.31771 0.0
C443 C 0.90252 0.62727 0.30779 0.0
C444 C 0.8934 0.60765 0.32299 0.0
N445 N 0.85874 0.63076 0.36854 0.0
C446 C 0.82378 0.6703 0.36934 0.0
C447 C 0.84091 0.68185 0.35967 0.0
C448 C 0.85784 0.6618 0.35914 0.0
C449 C 0.82414 0.63788 0.37789 0.0
C450 C 0.84167 0.61879 0.37748 0.0
N451 N 0.91029 0.58203 0.37248 0.0
C452 C 0.94591 0.58424 0.37113 0.0
C453 C 0.94744 0.5494 0.37309 0.0
C454 C 0.92984 0.5312 0.37531 0.0
C455 C 0.91154 0.5479 0.37503 0.0
C456 C 0.9275 0.59977 0.37074 0.0
H457 H 0.89853 0.53286 0.37666 0.0
H458 H 0.9276 0.62631 0.36885 0.0
H459 H 0.87003 0.67245 0.35116 0.0
H460 H 0.84112 0.59464 0.38477 0.0
C461 C 0.86024 0.53872 0.38571 0.0
C462 C 0.88582 0.5739 0.31875 0.0
C463 C 0.89122 0.62964 0.42397 0.0
C464 C 0.90662 0.67499 0.35481 0.0
H465 H 0.86153 0.51521 0.31593 0.0
H466 H 0.84681 0.49615 0.35273 0.0
H467 H 0.86072 0.52609 0.42987 0.0
H468 H 0.87893 0.57433 0.45052 0.0
H469 H 0.9072 0.69659 0.42534 0.0
H470 H 0.9155 0.72176 0.38768 0.0
H471 H 0.91642 0.67683 0.3108 0.0
H472 H 0.90496 0.62108 0.29135 0.0
H473 H 0.84128 0.70647 0.35241 0.0
H474 H 0.81114 0.62768 0.38543 0.0
H475 H 0.95893 0.5998 0.36995 0.0
H476 H 0.9301 0.50415 0.37685 0.0
C477 C 0.15716 0.44883 0.33645 0.0
C478 C 0.16776 0.47769 0.33183 0.0
C479 C 0.17802 0.48583 0.34976 0.0
C480 C 0.17318 0.46154 0.36423 0.0
N481 N 0.16058 0.43855 0.35651 0.0
Co482 Co 0.14995 0.39925 0.37203 0.0
N483 N 0.15654 0.41951 0.39985 0.0
C484 C 0.16833 0.44625 0.403 0.0
C485 C 0.16874 0.45672 0.42361 0.0
C486 C 0.15676 0.43489 0.43421 0.0
C487 C 0.15005 0.41158 0.4195 0.0
N488 N 0.13974 0.35954 0.38756 0.0
C489 C 0.13616 0.35502 0.40851 0.0
C490 C 0.13061 0.32209 0.41252 0.0
C491 C 0.13082 0.30557 0.3935 0.0
C492 C 0.13658 0.3291 0.37893 0.0
N493 N 0.1431 0.37983 0.34404 0.0
C494 C 0.13926 0.34736 0.3401 0.0
C495 C 0.13446 0.34163 0.31929 0.0
C496 C 0.13539 0.37248 0.30959 0.0
C497 C 0.14076 0.39535 0.32506 0.0
N498 N 0.17608 0.37723 0.37094 0.0
C499 C 0.20996 0.33619 0.36855 0.0
C500 C 0.2024 0.35223 0.35052 0.0
C501 C 0.18573 0.37305 0.35211 0.0
C502 C 0.20071 0.34251 0.38792 0.0
C503 C 0.18383 0.36276 0.38876 0.0
N504 N 0.1237 0.42016 0.37307 0.0
C505 C 0.08848 0.41449 0.3693 0.0
C506 C 0.08562 0.44868 0.37352 0.0
C507 C 0.10244 0.46822 0.37774 0.0
C508 C 0.12128 0.4535 0.37751 0.0
C509 C 0.10745 0.40091 0.36901 0.0
H510 H 0.13388 0.46913 0.38076 0.0
H511 H 0.10891 0.37466 0.3654 0.0
H512 H 0.18026 0.38487 0.33792 0.0
H513 H 0.17667 0.36556 0.40382 0.0
C514 C 0.17643 0.46372 0.38596 0.0
C515 C 0.1446 0.4312 0.32123 0.0
C516 C 0.13986 0.38013 0.4252 0.0
C517 C 0.137 0.3247 0.3569 0.0
H518 H 0.16789 0.4916 0.31714 0.0
H519 H 0.18699 0.50792 0.3523 0.0
H520 H 0.17631 0.4783 0.43008 0.0
H521 H 0.15369 0.43578 0.45097 0.0
H522 H 0.12719 0.31089 0.42765 0.0
H523 H 0.127 0.27961 0.39064 0.0
H524 H 0.12998 0.31814 0.31219 0.0
H525 H 0.13244 0.37755 0.29309 0.0
H526 H 0.20925 0.34852 0.33525 0.0
H527 H 0.20597 0.3307 0.40228 0.0
H528 H 0.07612 0.39797 0.36638 0.0
H529 H 0.10117 0.49482 0.38089 0.0
C530 C 0.87272 0.44929 0.17114 0.0
C531 C 0.86176 0.47783 0.17559 0.0
C532 C 0.8516 0.48561 0.15752 0.0
C533 C 0.85685 0.46142 0.14314 0.0
N534 N 0.86964 0.43888 0.15105 0.0
Co535 Co 0.88089 0.39991 0.13575 0.0
N536 N 0.87456 0.42 0.10784 0.0
C537 C 0.86242 0.44623 0.10447 0.0
C538 C 0.86244 0.45698 0.0839 0.0
C539 C 0.8751 0.43591 0.07361 0.0
C540 C 0.88176 0.41267 0.0884 0.0
N541 N 0.89177 0.36059 0.12042 0.0
C542 C 0.89611 0.35654 0.0996 0.0
C543 C 0.90206 0.3238 0.09562 0.0
C544 C 0.90136 0.30698 0.11453 0.0
C545 C 0.89493 0.33014 0.12902 0.0
N546 N 0.88743 0.38061 0.16382 0.0
C547 C 0.89138 0.34819 0.16782 0.0
C548 C 0.89587 0.34256 0.18873 0.0
C549 C 0.89461 0.37341 0.1984 0.0
C550 C 0.88937 0.39619 0.18282 0.0
N551 N 0.8549 0.37716 0.13634 0.0
C552 C 0.82093 0.33595 0.13816 0.0
C553 C 0.82801 0.35266 0.1562 0.0
C554 C 0.84476 0.3734 0.15491 0.0
C555 C 0.83084 0.34163 0.11904 0.0
C556 C 0.8477 0.36202 0.11849 0.0
N557 N 0.907 0.42154 0.13521 0.0
C558 C 0.94225 0.41666 0.13938 0.0
C559 C 0.94493 0.45093 0.13516 0.0
C560 C 0.92796 0.47008 0.13079 0.0
C561 C 0.90922 0.45494 0.13081 0.0
C562 C 0.92337 0.40269 0.1395 0.0
H563 H 0.89652 0.47029 0.12739 0.0
H564 H 0.92208 0.3764 0.14311 0.0
H565 H 0.84984 0.38562 0.16912 0.0
H566 H 0.85527 0.36452 0.10362 0.0
C567 C 0.85384 0.46343 0.12136 0.0
C568 C 0.88527 0.432 0.18652 0.0
C569 C 0.8929 0.38199 0.08298 0.0
C570 C 0.89409 0.32561 0.15104 0.0
H571 H 0.86132 0.49178 0.19026 0.0
H572 H 0.84242 0.5074 0.15484 0.0
H573 H 0.8548 0.47842 0.07733 0.0
H574 H 0.87875 0.43743 0.05701 0.0
H575 H 0.90611 0.31295 0.08057 0.0
H576 H 0.90539 0.2811 0.11741 0.0
H577 H 0.90038 0.31914 0.19592 0.0
H578 H 0.89726 0.37854 0.21495 0.0
H579 H 0.8207 0.34963 0.17128 0.0
H580 H 0.82607 0.32933 0.10466 0.0
H581 H 0.95469 0.40034 0.14239 0.0
H582 H 0.92904 0.49671 0.12765 0.0
C583 C 0.15613 0.55218 0.17264 0.0
C584 C 0.16715 0.52384 0.17746 0.0
C585 C 0.17742 0.5157 0.15956 0.0
C586 C 0.17217 0.53949 0.1449 0.0
N587 N 0.15929 0.56212 0.15248 0.0
Co588 Co 0.14808 0.60068 0.1367 0.0
N589 N 0.15461 0.57997 0.10905 0.0
C590 C 0.16682 0.55374 0.10603 0.0
C591 C 0.16702 0.54261 0.08555 0.0
C592 C 0.15442 0.56343 0.07492 0.0
C593 C 0.14757 0.58688 0.08945 0.0
N594 N 0.13728 0.63962 0.1209 0.0
C595 C 0.13311 0.64321 0.10001 0.0
C596 C 0.12717 0.67585 0.09566 0.0
C597 C 0.12771 0.69308 0.11444 0.0
C598 C 0.13403 0.67025 0.1292 0.0
N599 N 0.14128 0.62056 0.16454 0.0
C600 C 0.13722 0.65303 0.1682 0.0
C601 C 0.13254 0.6591 0.18899 0.0
C602 C 0.1338 0.62848 0.19896 0.0
C603 C 0.13923 0.6054 0.18366 0.0
N604 N 0.17403 0.62356 0.13736 0.0
C605 C 0.20787 0.665 0.13899 0.0
C606 C 0.20048 0.64948 0.15726 0.0
C607 C 0.18384 0.62846 0.15606 0.0
C608 C 0.19839 0.65809 0.11979 0.0
C609 C 0.18152 0.63772 0.11933 0.0
N610 N 0.122 0.57895 0.13607 0.0
C611 C 0.0867 0.58385 0.13967 0.0
C612 C 0.08409 0.54948 0.13577 0.0
C613 C 0.10111 0.53025 0.13184 0.0
C614 C 0.11985 0.54544 0.13198 0.0
C615 C 0.10557 0.59786 0.13993 0.0
H616 H 0.13259 0.53003 0.12889 0.0
H617 H 0.1068 0.62424 0.1433 0.0
H618 H 0.17858 0.61698 0.17042 0.0
H619 H 0.17419 0.63444 0.10437 0.0
C620 C 0.17532 0.53699 0.12317 0.0
C621 C 0.14344 0.56971 0.18775 0.0
C622 C 0.13642 0.61739 0.08366 0.0
C623 C 0.13464 0.67525 0.15119 0.0
H624 H 0.16756 0.51027 0.19228 0.0
H625 H 0.18668 0.49392 0.15717 0.0
H626 H 0.17477 0.5211 0.07924 0.0
H627 H 0.15094 0.56161 0.05828 0.0
H628 H 0.12322 0.68636 0.08047 0.0
H629 H 0.12362 0.719 0.11704 0.0
H630 H 0.12792 0.68264 0.19592 0.0
H631 H 0.13102 0.62371 0.21552 0.0
H632 H 0.20748 0.65366 0.17243 0.0
H633 H 0.20352 0.66948 0.10526 0.0
H634 H 0.07423 0.60022 0.14232 0.0
H635 H 0.10009 0.50355 0.12897 0.0
C636 C 0.13704 0.40334 0.6841 0.0
C637 C 0.12571 0.38702 0.69914 0.0
C638 C 0.11444 0.36412 0.68853 0.0
C639 C 0.11951 0.36771 0.66767 0.0
N640 N 0.13357 0.39099 0.66435 0.0
Co641 Co 0.14379 0.40534 0.63601 0.0
N642 N 0.13041 0.36726 0.62103 0.0
C643 C 0.11686 0.34664 0.62957 0.0
C644 C 0.10937 0.32376 0.61553 0.0
C645 C 0.11854 0.33049 0.59678 0.0
C646 C 0.13126 0.35713 0.60046 0.0
N647 N 0.15379 0.42023 0.6078 0.0
C648 C 0.15359 0.4045 0.58876 0.0
C649 C 0.16404 0.42267 0.57374 0.0
C650 C 0.17014 0.45147 0.58332 0.0
C651 C 0.16349 0.44904 0.60368 0.0
N652 N 0.15736 0.44328 0.65093 0.0
C653 C 0.16652 0.46941 0.64165 0.0
C654 C 0.17453 0.49184 0.65564 0.0
C655 C 0.16995 0.47957 0.67513 0.0
C656 C 0.1593 0.45028 0.67189 0.0
N657 N 0.16749 0.37661 0.63973 0.0
C658 C 0.20028 0.33201 0.64095 0.0
C659 C 0.20207 0.3651 0.63336 0.0
C660 C 0.18573 0.3869 0.63316 0.0
C661 C 0.18165 0.32257 0.64864 0.0
C662 C 0.16562 0.34482 0.64768 0.0
N663 N 0.1198 0.43313 0.63217 0.0
C664 C 0.09408 0.4677 0.64721 0.0
C665 C 0.08191 0.46288 0.62947 0.0
C666 C 0.08991 0.44456 0.61254 0.0
C667 C 0.10883 0.4306 0.61406 0.0
C668 C 0.11271 0.45259 0.64828 0.0
H669 H 0.11418 0.41673 0.6007 0.0
H670 H 0.12105 0.45606 0.6625 0.0
H671 H 0.18792 0.41187 0.6272 0.0
H672 H 0.15161 0.33578 0.65312 0.0
C673 C 0.11218 0.34857 0.65098 0.0
C674 C 0.14926 0.43266 0.68909 0.0
C675 C 0.14194 0.37459 0.58349 0.0
C676 C 0.16851 0.47097 0.61985 0.0
H677 H 0.12525 0.39188 0.71596 0.0
H678 H 0.10376 0.347 0.69521 0.0
H679 H 0.09843 0.3046 0.61852 0.0
H680 H 0.11566 0.31786 0.58197 0.0
H681 H 0.16669 0.4161 0.55739 0.0
H682 H 0.17891 0.47134 0.57644 0.0
H683 H 0.18275 0.5144 0.65208 0.0
H684 H 0.1735 0.49139 0.69006 0.0
H685 H 0.21585 0.37419 0.62702 0.0
H686 H 0.17922 0.29798 0.65538 0.0
H687 H 0.08925 0.48271 0.66048 0.0
H688 H 0.08147 0.43981 0.59835 0.0
C689 C 0.88118 0.60066 0.67979 0.0
C690 C 0.88354 0.62201 0.69698 0.0
C691 C 0.88602 0.65377 0.68904 0.0
C692 C 0.88473 0.65038 0.6675 0.0
N693 N 0.88164 0.61846 0.66142 0.0
Co694 Co 0.87665 0.60401 0.63184 0.0
N695 N 0.88853 0.64535 0.61976 0.0
C696 C 0.8921 0.67381 0.63052 0.0
C697 C 0.90112 0.69785 0.61838 0.0
C698 C 0.90311 0.68375 0.59869 0.0
C699 C 0.89489 0.65191 0.59978 0.0
N700 N 0.8712 0.5894 0.60239 0.0
C701 C 0.87789 0.60155 0.58374 0.0
C702 C 0.86835 0.58606 0.56686 0.0
C703 C 0.85563 0.56314 0.57529 0.0
C704 C 0.85782 0.56617 0.59672 0.0
N705 N 0.86507 0.56238 0.64384 0.0
C706 C 0.85413 0.53985 0.63314 0.0
C707 C 0.85192 0.51016 0.64375 0.0
C708 C 0.86183 0.51434 0.66235 0.0
C709 C 0.86882 0.54716 0.66265 0.0
N710 N 0.85075 0.627 0.63264 0.0
C711 C 0.81743 0.66991 0.63542 0.0
C712 C 0.82303 0.64898 0.65238 0.0
C713 C 0.83945 0.62747 0.65056 0.0
C714 C 0.82837 0.6669 0.61667 0.0
C715 C 0.84489 0.64594 0.61571 0.0
N716 N 0.90275 0.58235 0.63102 0.0
C717 C 0.92458 0.53764 0.62014 0.0
C718 C 0.94095 0.55403 0.62918 0.0
C719 C 0.93741 0.58468 0.63944 0.0
C720 C 0.9185 0.59847 0.63989 0.0
C721 C 0.90567 0.55203 0.62139 0.0
H722 H 0.91671 0.62248 0.64742 0.0
H723 H 0.89346 0.53879 0.61434 0.0
H724 H 0.84345 0.61222 0.66399 0.0
H725 H 0.8533 0.64613 0.60132 0.0
C726 C 0.88927 0.6751 0.65248 0.0
C727 C 0.87726 0.56414 0.68149 0.0
C728 C 0.89183 0.62958 0.5814 0.0
C729 C 0.85026 0.54405 0.61167 0.0
H730 H 0.88329 0.61557 0.71358 0.0
H731 H 0.88892 0.67645 0.69791 0.0
H732 H 0.90625 0.7223 0.62338 0.0
H733 H 0.90974 0.69574 0.58512 0.0
H734 H 0.87006 0.59104 0.55017 0.0
H735 H 0.84631 0.54572 0.56678 0.0
H736 H 0.84524 0.48727 0.63796 0.0
H737 H 0.86387 0.49487 0.67402 0.0
H738 H 0.81528 0.64984 0.66729 0.0
H739 H 0.82449 0.68103 0.60267 0.0
H740 H 0.9263 0.51412 0.61181 0.0
H741 H 0.94914 0.59821 0.64728 0.0
C742 C 0.14074 0.60675 0.82658 0.0
C743 C 0.13509 0.62823 0.81043 0.0
C744 C 0.13221 0.65921 0.81948 0.0
C745 C 0.13618 0.65501 0.84063 0.0
N746 N 0.14131 0.62331 0.84536 0.0
Co747 Co 0.1476 0.60612 0.87402 0.0
N748 N 0.13454 0.64467 0.88821 0.0
C749 C 0.12975 0.67391 0.87887 0.0
C750 C 0.12011 0.69539 0.8923 0.0
C751 C 0.11906 0.67881 0.9113 0.0
C752 C 0.1284 0.64812 0.90855 0.0
N753 N 0.15425 0.58856 0.90244 0.0
C754 C 0.14749 0.59764 0.92175 0.0
C755 C 0.15799 0.58123 0.93761 0.0
C756 C 0.17154 0.56115 0.92782 0.0
C757 C 0.1688 0.56655 0.90664 0.0
N758 N 0.16065 0.56763 0.85996 0.0
C759 C 0.17436 0.54753 0.86865 0.0
C760 C 0.18092 0.52314 0.85504 0.0
C761 C 0.17072 0.52833 0.83661 0.0
C762 C 0.15844 0.55565 0.84008 0.0
N763 N 0.17257 0.63169 0.87381 0.0
C764 C 0.20589 0.67468 0.87271 0.0
C765 C 0.19348 0.67305 0.89045 0.0
C766 C 0.17738 0.65119 0.89085 0.0
C767 C 0.20128 0.6532 0.85567 0.0
C768 C 0.18454 0.63233 0.85643 0.0
N769 N 0.12238 0.58175 0.87427 0.0
C770 C 0.10269 0.53204 0.87999 0.0
C771 C 0.08528 0.5495 0.8747 0.0
C772 C 0.08717 0.5835 0.86937 0.0
C773 C 0.10562 0.59876 0.86891 0.0
C774 C 0.12103 0.54867 0.87984 0.0
H775 H 0.10618 0.62468 0.86429 0.0
H776 H 0.13411 0.53483 0.88415 0.0
H777 H 0.16846 0.65098 0.90489 0.0
H778 H 0.18111 0.6171 0.84281 0.0
C779 C 0.13145 0.67769 0.85685 0.0
C780 C 0.14615 0.5712 0.8237 0.0
C781 C 0.13275 0.62406 0.92575 0.0
C782 C 0.17806 0.54885 0.89035 0.0
H783 H 0.13306 0.62213 0.79391 0.0
H784 H 0.12685 0.68163 0.81172 0.0
H785 H 0.11385 0.71965 0.88854 0.0
H786 H 0.11221 0.68839 0.92549 0.0
H787 H 0.15653 0.58407 0.95453 0.0
H788 H 0.18201 0.54442 0.93528 0.0
H789 H 0.19131 0.50322 0.85835 0.0
H790 H 0.17227 0.51386 0.82223 0.0
H791 H 0.19565 0.68915 0.904 0.0
H792 H 0.2104 0.65235 0.84168 0.0
H793 H 0.10228 0.50568 0.88404 0.0
H794 H 0.07443 0.59881 0.86578 0.0
C795 C 0.88558 0.40516 0.82683 0.0
C796 C 0.88781 0.38306 0.81 0.0
C797 C 0.89019 0.35163 0.81846 0.0
C798 C 0.88901 0.35595 0.83993 0.0
N799 N 0.88613 0.38815 0.84551 0.0
Co800 Co 0.88123 0.40382 0.87488 0.0
N801 N 0.89239 0.36229 0.88763 0.0
C802 C 0.89543 0.33325 0.87731 0.0
C803 C 0.90412 0.30925 0.88979 0.0
C804 C 0.90644 0.32401 0.90924 0.0
C805 C 0.89873 0.35618 0.90768 0.0
N806 N 0.87615 0.41983 0.90411 0.0
C807 C 0.88276 0.40809 0.92294 0.0
C808 C 0.87358 0.42471 0.9396 0.0
C809 C 0.8612 0.44791 0.93086 0.0
C810 C 0.86321 0.44393 0.90948 0.0
N811 N 0.8701 0.44544 0.86228 0.0
C812 C 0.85949 0.46879 0.87266 0.0
C813 C 0.85744 0.49805 0.86156 0.0
C814 C 0.86705 0.49269 0.84292 0.0
C815 C 0.87369 0.45964 0.84315 0.0
N816 N 0.85505 0.38195 0.87435 0.0
C817 C 0.8216 0.33951 0.87191 0.0
C818 C 0.8274 0.3596 0.85466 0.0
C819 C 0.84389 0.38091 0.85632 0.0
C820 C 0.83231 0.34328 0.89078 0.0
C821 C 0.8489 0.36404 0.89159 0.0
N822 N 0.90761 0.42435 0.87542 0.0
C823 C 0.92958 0.47074 0.8824 0.0
C824 C 0.94607 0.45166 0.87613 0.0
C825 C 0.94257 0.41848 0.86969 0.0
C826 C 0.92344 0.40567 0.86912 0.0
C827 C 0.9106 0.45655 0.88215 0.0
H828 H 0.92155 0.38031 0.86367 0.0
H829 H 0.89835 0.47168 0.88733 0.0
H830 H 0.84809 0.39546 0.84267 0.0
H831 H 0.85718 0.36438 0.90609 0.0
C832 C 0.8929 0.33149 0.85533 0.0
C833 C 0.8814 0.44151 0.82443 0.0
C834 C 0.8962 0.37941 0.92569 0.0
C835 C 0.8558 0.46568 0.89422 0.0
H836 H 0.88739 0.38873 0.7933 0.0
H837 H 0.89278 0.32849 0.80996 0.0
H838 H 0.90894 0.28446 0.88512 0.0
H839 H 0.91304 0.31227 0.92293 0.0
H840 H 0.87527 0.42028 0.95636 0.0
H841 H 0.85219 0.46605 0.93913 0.0
H842 H 0.85101 0.52137 0.86697 0.0
H843 H 0.869 0.51142 0.83077 0.0
H844 H 0.81979 0.35812 0.83967 0.0
H845 H 0.82822 0.3298 0.90495 0.0
H846 H 0.93116 0.49662 0.88727 0.0
H847 H 0.95452 0.40198 0.86525 0.0
C848 C 0.37983 0.12905 0.46016 0.0
C849 C 0.39601 0.12903 0.4464 0.0
C850 C 0.38232 0.1325 0.48209 0.0
C851 C 0.40129 0.13926 0.49052 0.0
C852 C 0.41742 0.14273 0.4764 0.0
C853 C 0.41469 0.13665 0.4546 0.0
C854 C 0.36465 0.12728 0.49622 0.0
C855 C 0.43774 0.15219 0.48398 0.0
C856 C 0.39506 0.16507 0.54811 0.0
C857 C 0.40062 0.13565 0.55873 0.0
C858 C 0.39741 0.16817 0.52606 0.0
C859 C 0.40406 0.14027 0.51408 0.0
C860 C 0.41076 0.11127 0.52492 0.0
C861 C 0.40957 0.10983 0.54711 0.0
C862 C 0.39163 0.20081 0.51569 0.0
C863 C 0.41762 0.08055 0.51307 0.0
H864 H 0.36523 0.12455 0.45382 0.0
H865 H 0.42721 0.13754 0.44401 0.0
H866 H 0.36837 0.11012 0.50946 0.0
H867 H 0.36003 0.15158 0.5031 0.0
H868 H 0.3519 0.11661 0.48749 0.0
H869 H 0.44463 0.17014 0.47278 0.0
H870 H 0.43765 0.16366 0.49996 0.0
H871 H 0.4472 0.12949 0.48429 0.0
H872 H 0.38777 0.185 0.55673 0.0
H873 H 0.41381 0.08699 0.55525 0.0
H874 H 0.37542 0.2016 0.51357 0.0
H875 H 0.39876 0.20413 0.50005 0.0
H876 H 0.3957 0.22234 0.52595 0.0
H877 H 0.40629 0.07273 0.5014 0.0
H878 H 0.4207 0.05906 0.52376 0.0
H879 H 0.43127 0.08643 0.50424 0.0
C880 C 0.62934 0.84394 0.54999 0.0
C881 C 0.62296 0.87349 0.55991 0.0
C882 C 0.62783 0.8399 0.52793 0.0
C883 C 0.62125 0.86707 0.51523 0.0
C884 C 0.6138 0.89623 0.52532 0.0
C885 C 0.61411 0.8985 0.54752 0.0
C886 C 0.63435 0.80703 0.51842 0.0
C887 C 0.60695 0.92624 0.51273 0.0
C888 C 0.64748 0.87571 0.46228 0.0
C889 C 0.63182 0.87556 0.44782 0.0
C890 C 0.64418 0.8733 0.48413 0.0
C891 C 0.62487 0.86726 0.49181 0.0
C892 C 0.60923 0.86355 0.47703 0.0
C893 C 0.61281 0.86868 0.45529 0.0
C894 C 0.66143 0.87862 0.49888 0.0
C895 C 0.58858 0.85466 0.48377 0.0
H896 H 0.63654 0.8246 0.55924 0.0
H897 H 0.60921 0.9214 0.55513 0.0
H898 H 0.62873 0.80342 0.5021 0.0
H899 H 0.65067 0.8059 0.5182 0.0
H900 H 0.6292 0.78581 0.52835 0.0
H901 H 0.60406 0.94842 0.5229 0.0
H902 H 0.61815 0.93324 0.50074 0.0
H903 H 0.59316 0.91992 0.50426 0.0
H904 H 0.66235 0.87951 0.45652 0.0
H905 H 0.60067 0.86758 0.44416 0.0
H906 H 0.66655 0.85405 0.50497 0.0
H907 H 0.65719 0.8944 0.5126 0.0
H908 H 0.67404 0.8908 0.49076 0.0
H909 H 0.58779 0.84528 0.50025 0.0
H910 H 0.58246 0.83516 0.47308 0.0
H911 H 0.579 0.87708 0.48221 0.0
C912 C 0.37916 0.86931 0.04595 0.0
C913 C 0.39544 0.8698 0.05963 0.0
C914 C 0.38154 0.86595 0.02399 0.0
C915 C 0.40054 0.86 0.01548 0.0
C916 C 0.41678 0.85685 0.0295 0.0
C917 C 0.41413 0.86269 0.05133 0.0
C918 C 0.36379 0.87071 0.00987 0.0
C919 C 0.4371 0.84821 0.02158 0.0
C920 C 0.39606 0.8351 0.95742 0.0
C921 C 0.40035 0.86552 0.94728 0.0
C922 C 0.39809 0.83177 0.97953 0.0
C923 C 0.40331 0.86012 0.99192 0.0
C924 C 0.40873 0.89026 0.98155 0.0
C925 C 0.40782 0.89216 0.95938 0.0
C926 C 0.39364 0.79835 0.98961 0.0
C927 C 0.41384 0.9215 0.99388 0.0
H928 H 0.36456 0.87347 0.05237 0.0
H929 H 0.42674 0.86218 0.06186 0.0
H930 H 0.3668 0.8905 0.99795 0.0
H931 H 0.3606 0.8472 1.00119 0.0
H932 H 0.35041 0.87792 0.01889 0.0
H933 H 0.44572 0.83479 0.0339 0.0
H934 H 0.43648 0.83235 0.00717 0.0
H935 H 0.44515 0.8716 0.01769 0.0
H936 H 0.3902 0.8144 0.94827 0.0
H937 H 0.41124 0.91566 0.95157 0.0
H938 H 0.37795 0.79753 0.9944 0.0
H939 H 0.40283 0.79422 1.0039 0.0
H940 H 0.3962 0.77742 0.97834 0.0
H941 H 0.40134 0.92845 0.00432 0.0
H942 H 0.4172 0.94316 0.98344 0.0
H943 H 0.42678 0.91678 0.00413 0.0
C944 C 0.63317 0.16482 0.95971 0.0
C945 C 0.62728 0.13546 0.94923 0.0
C946 C 0.63098 0.1682 0.98175 0.0
C947 C 0.62421 0.14056 0.99388 0.0
C948 C 0.61731 0.11153 0.98321 0.0
C949 C 0.61831 0.10988 0.96103 0.0
C950 C 0.63699 0.20088 0.99188 0.0
C951 C 0.61034 0.08105 0.99523 0.0
C952 C 0.64871 0.13045 0.04774 0.0
C953 C 0.63259 0.13024 0.06156 0.0
C954 C 0.64613 0.13351 0.0258 0.0
C955 C 0.62707 0.13981 0.01743 0.0
C956 C 0.61097 0.14316 0.03161 0.0
C957 C 0.61383 0.1374 0.05342 0.0
C958 C 0.66381 0.12852 0.01167 0.0
C959 C 0.59055 0.15223 0.02411 0.0
H960 H 0.64051 0.18454 0.95096 0.0
H961 H 0.61381 0.0871 0.95299 0.0
H962 H 0.63056 0.20412 0.00787 0.0
H963 H 0.65327 0.202 0.9931 0.0
H964 H 0.63231 0.22233 0.98184 0.0
H965 H 0.60764 0.05922 0.98469 0.0
H966 H 0.62139 0.07368 0.00732 0.0
H967 H 0.59642 0.08699 1.00355 0.0
H968 H 0.66338 0.12635 0.05405 0.0
H969 H 0.60134 0.13818 0.06406 0.0
H970 H 0.66884 0.15313 0.0056 0.0
H971 H 0.66006 0.11248 0.9979 0.0
H972 H 0.67633 0.11675 0.02023 0.0
H973 H 0.59038 0.16263 0.00785 0.0
H974 H 0.58389 0.17096 0.03496 0.0
H975 H 0.58105 0.1296 0.02462 0.0
C976 C 0.90735 0.61385 0.54693 0.0
C977 C 0.89827 0.63848 0.5594 0.0
C978 C 0.90806 0.61675 0.52477 0.0
C979 C 0.9008 0.64619 0.51482 0.0
C980 C 0.89378 0.67285 0.52765 0.0
C981 C 0.89188 0.66817 0.54963 0.0
C982 C 0.91525 0.58715 0.51204 0.0
C983 C 0.88729 0.70592 0.51836 0.0
C984 C 0.91206 0.64637 0.45551 0.0
C985 C 0.89349 0.63933 0.44683 0.0
C986 C 0.9145 0.6513 0.47744 0.0
C987 C 0.8982 0.64699 0.49123 0.0
C988 C 0.87932 0.6408 0.48236 0.0
C989 C 0.87713 0.63858 0.46031 0.0
C990 C 0.93474 0.66032 0.48548 0.0
C991 C 0.86146 0.63481 0.49607 0.0
H992 H 0.91223 0.59081 0.5544 0.0
H993 H 0.88445 0.68717 0.55892 0.0
H994 H 0.90456 0.58085 0.49935 0.0
H995 H 0.92945 0.59353 0.50443 0.0
H996 H 0.91757 0.56449 0.52197 0.0
H997 H 0.89214 0.72691 0.52868 0.0
H998 H 0.8932 0.71013 0.50224 0.0
H999 H 0.87097 0.70683 0.51776 0.0
H1000 H 0.9248 0.64738 0.44521 0.0
H1001 H 0.86266 0.63393 0.45364 0.0
H1002 H 0.94439 0.63788 0.48471 0.0
H1003 H 0.93459 0.66995 0.50193 0.0
H1004 H 0.94146 0.67967 0.47511 0.0
H1005 H 0.86511 0.61821 0.50961 0.0
H1006 H 0.84916 0.62321 0.48706 0.0
H1007 H 0.85616 0.65904 0.50249 0.0
C1008 C 0.14187 0.3379 0.55075 0.0
C1009 C 0.13707 0.36828 0.56065 0.0
C1010 C 0.13977 0.33398 0.52869 0.0
C1011 C 0.13388 0.36174 0.51609 0.0
C1012 C 0.12825 0.39198 0.52622 0.0
C1013 C 0.12922 0.39437 0.54834 0.0
C1014 C 0.14457 0.30044 0.51895 0.0
C1015 C 0.1225 0.42269 0.51366 0.0
C1016 C 0.15539 0.37056 0.46083 0.0
C1017 C 0.13845 0.3704 0.44809 0.0
C1018 C 0.15413 0.36727 0.48289 0.0
C1019 C 0.13564 0.36084 0.49245 0.0
C1020 C 0.11879 0.35686 0.47937 0.0
C1021 C 0.12029 0.3626 0.45741 0.0
C1022 C 0.17247 0.37271 0.49599 0.0
C1023 C 0.09902 0.34749 0.48847 0.0
H1024 H 0.14774 0.31747 0.56016 0.0
H1025 H 0.12508 0.41767 0.55599 0.0
H1026 H 0.13579 0.29589 0.50442 0.0
H1027 H 0.1604 0.29966 0.5147 0.0
H1028 H 0.14178 0.27972 0.5303 0.0
H1029 H 0.11974 0.44484 0.5239 0.0
H1030 H 0.13434 0.42911 0.50227 0.0
H1031 H 0.10896 0.41758 0.50441 0.0
H1032 H 0.16958 0.37532 0.45358 0.0
H1033 H 0.1072 0.36159 0.4476 0.0
H1034 H 0.17633 0.34934 0.50451 0.0
H1035 H 0.1698 0.39247 0.50802 0.0
H1036 H 0.1853 0.38029 0.48622 0.0
H1037 H 0.10063 0.33118 0.5026 0.0
H1038 H 0.0898 0.33427 0.47658 0.0
H1039 H 0.09105 0.37054 0.49325 0.0
C1040 C 0.91199 0.39547 0.96003 0.0
C1041 C 0.90253 0.3709 0.94781 0.0
C1042 C 0.91265 0.39318 0.98222 0.0
C1043 C 0.90498 0.36433 0.99247 0.0
C1044 C 0.8977 0.33753 0.9799 0.0
C1045 C 0.8958 0.34171 0.95789 0.0
C1046 C 0.92022 0.42286 0.99463 0.0
C1047 C 0.89088 0.3049 0.98949 0.0
C1048 C 0.91479 0.36605 0.05218 0.0
C1049 C 0.89599 0.37317 0.06012 0.0
C1050 C 0.91785 0.36073 0.03036 0.0
C1051 C 0.90189 0.36455 0.01598 0.0
C1052 C 0.88277 0.37078 0.02417 0.0
C1053 C 0.87998 0.37327 0.04609 0.0
C1054 C 0.93831 0.35155 0.02312 0.0
C1055 C 0.86517 0.37622 0.00991 0.0
H1056 H 0.91719 0.41808 0.95231 0.0
H1057 H 0.88809 0.32276 0.94882 0.0
H1058 H 0.90978 0.42969 0.00741 0.0
H1059 H 0.93449 0.41629 1.00207 0.0
H1060 H 0.92257 0.44526 0.98448 0.0
H1061 H 0.89603 0.28351 0.97969 0.0
H1062 H 0.8963 0.30128 0.00589 0.0
H1063 H 0.87455 0.30403 0.98946 0.0
H1064 H 0.92719 0.36498 0.06298 0.0
H1065 H 0.86527 0.37728 0.05223 0.0
H1066 H 0.94811 0.37368 0.0248 0.0
H1067 H 0.93878 0.34264 0.00652 0.0
H1068 H 0.94443 0.33158 0.03347 0.0
H1069 H 0.86918 0.39098 0.99567 0.0
H1070 H 0.85306 0.38953 0.01822 0.0
H1071 H 0.8594 0.3516 0.00464 0.0
C1072 C 0.11458 0.63246 0.05261 0.0
C1073 C 0.1334 0.62569 0.06072 0.0
C1074 C 0.11159 0.63764 0.03077 0.0
C1075 C 0.12764 0.63408 0.01655 0.0
C1076 C 0.14675 0.62815 0.02485 0.0
C1077 C 0.14946 0.62562 0.0468 0.0
C1078 C 0.09113 0.64627 0.0232 0.0
C1079 C 0.16434 0.623 0.0106 0.0
C1080 C 0.11885 0.60388 0.96017 0.0
C1081 C 0.12683 0.63028 0.94828 0.0
C1082 C 0.11829 0.60522 0.98239 0.0
C1083 C 0.12467 0.63461 0.99303 0.0
C1084 C 0.13066 0.66275 0.9809 0.0
C1085 C 0.13241 0.6598 0.9588 0.0
C1086 C 0.11231 0.57419 0.99446 0.0
C1087 C 0.13621 0.69561 0.99113 0.0
H1088 H 0.10214 0.6334 0.06332 0.0
H1089 H 0.16416 0.62177 0.05306 0.0
H1090 H 0.09118 0.65868 0.0075 0.0
H1091 H 0.08223 0.623 0.02216 0.0
H1092 H 0.0837 0.66307 0.03471 0.0
H1093 H 0.17719 0.61257 0.01929 0.0
H1094 H 0.16065 0.60571 0.99743 0.0
H1095 H 0.16881 0.64732 1.00363 0.0
H1096 H 0.11464 0.58096 0.95212 0.0
H1097 H 0.13906 0.68013 0.94996 0.0
H1098 H 0.09883 0.57938 1.00374 0.0
H1099 H 0.12411 0.56698 0.00575 0.0
H1100 H 0.10933 0.55255 0.98387 0.0
H1101 H 0.13218 0.717 0.98072 0.0
H1102 H 0.15239 0.69653 0.99348 0.0
H1103 H 0.1289 0.69904 0.00666 0.0
C1104 C 0.5496 0.9552 0.358 0.0
C1105 C 0.56418 0.96738 0.37185 0.0
C1106 C 0.5303 0.96806 0.35815 0.0
C1107 C 0.52533 0.99445 0.37214 0.0
C1108 C 0.54 0.00742 0.38587 0.0
C1109 C 0.55914 0.99362 0.38567 0.0
C1110 C 0.51516 0.95325 0.34334 0.0
C1111 C 0.53546 0.0359 0.40081 0.0
C1112 C 0.48055 0.04785 0.35781 0.0
C1113 C 0.46597 0.03562 0.37161 0.0
C1114 C 0.49988 0.0351 0.35807 0.0
C1115 C 0.50488 0.00878 0.37212 0.0
C1116 C 0.49023 0.99581 0.38582 0.0
C1117 C 0.47106 0.0095 0.38552 0.0
C1118 C 0.51501 0.04992 0.34329 0.0
C1119 C 0.49479 0.96739 0.40081 0.0
H1120 H 0.55326 0.93556 0.34684 0.0
H1121 H 0.57005 0.00311 0.39665 0.0
H1122 H 0.50228 0.94416 0.35246 0.0
H1123 H 0.50974 0.9728 0.33229 0.0
H1124 H 0.52115 0.93205 0.33393 0.0
H1125 H 0.54855 0.04369 0.41014 0.0
H1126 H 0.52997 0.05788 0.39179 0.0
H1127 H 0.52362 0.02835 0.41189 0.0
H1128 H 0.47687 0.06739 0.34658 0.0
H1129 H 0.46016 0.99999 0.39647 0.0
H1130 H 0.5204 0.03039 0.33224 0.0
H1131 H 0.52791 0.05899 0.35243 0.0
H1132 H 0.50901 0.07115 0.33389 0.0
H1133 H 0.50026 0.94537 0.39183 0.0
H1134 H 0.48173 0.95964 0.41016 0.0
H1135 H 0.50666 0.97498 0.41188 0.0
C1136 C 0.47032 0.99193 0.12131 0.0
C1137 C 0.46533 0.96551 0.13504 0.0
C1138 C 0.48938 0.00611 0.12128 0.0
C1139 C 0.50408 0.9934 0.13509 0.0
C1140 C 0.49918 0.96682 0.14898 0.0
C1141 C 0.47994 0.95354 0.14895 0.0
C1142 C 0.49381 0.03473 0.10642 0.0
C1143 C 0.51431 0.95226 0.1639 0.0
C1144 C 0.55842 0.00962 0.12214 0.0
C1145 C 0.56327 0.03587 0.13607 0.0
C1146 C 0.53934 0.99554 0.1217 0.0
C1147 C 0.52448 0.00817 0.13529 0.0
C1148 C 0.52923 0.0346 0.14936 0.0
C1149 C 0.54848 0.04779 0.14974 0.0
C1150 C 0.53508 0.96708 0.10665 0.0
C1151 C 0.51391 0.04908 0.16405 0.0
H1152 H 0.45942 1.0013 0.11028 0.0
H1153 H 0.47636 0.93379 0.16005 0.0
H1154 H 0.49906 0.0568 0.11551 0.0
H1155 H 0.5058 0.02748 0.09543 0.0
H1156 H 0.48074 0.04228 0.09697 0.0
H1157 H 0.5084 0.93092 0.17323 0.0
H1158 H 0.52732 0.94345 0.15488 0.0
H1159 H 0.5195 0.97189 0.17501 0.0
H1160 H 0.56946 1.00031 0.11128 0.0
H1161 H 0.55194 0.06742 0.16098 0.0
H1162 H 0.52322 0.97445 0.0955 0.0
H1163 H 0.52973 0.94491 0.11557 0.0
H1164 H 0.54826 0.95962 0.09738 0.0
H1165 H 0.50101 0.05795 0.15482 0.0
H1166 H 0.51971 0.07037 0.17352 0.0
H1167 H 0.50858 0.0294 0.17503 0.0
C1168 C 0.55224 0.98254 0.60999 0.0
C1169 C 0.56068 0.97292 0.62932 0.0
C1170 C 0.53276 0.99487 0.60892 0.0
C1171 C 0.52154 0.99855 0.6277 0.0
C1172 C 0.53019 0.98944 0.6473 0.0
C1173 C 0.54949 0.97638 0.64783 0.0
C1174 C 0.52407 0.00344 0.58763 0.0
C1175 C 0.5191 0.99371 0.66778 0.0
C1176 C 0.47827 0.06011 0.62773 0.0
C1177 C 0.46172 0.03876 0.62731 0.0
C1178 C 0.49764 0.04742 0.62793 0.0
C1179 C 0.5009 0.01237 0.62696 0.0
C1180 C 0.4844 0.99061 0.62579 0.0
C1181 C 0.46512 0.00395 0.62625 0.0
C1182 C 0.51468 0.07165 0.62955 0.0
C1183 C 0.48711 0.95311 0.62428 0.0
H1184 H 0.56072 0.97956 0.59561 0.0
H1185 H 0.55595 0.96914 0.66283 0.0
H1186 H 0.51045 0.98862 0.58499 0.0
H1187 H 0.51986 0.03031 0.58717 0.0
H1188 H 0.53448 0.99839 0.57448 0.0
H1189 H 0.52805 0.98631 0.68174 0.0
H1190 H 0.51453 0.02027 0.66967 0.0
H1191 H 0.5055 0.97831 0.66754 0.0
H1192 H 0.47618 0.08704 0.62787 0.0
H1193 H 0.45273 0.98687 0.62615 0.0
H1194 H 0.52442 0.06902 0.6156 0.0
H1195 H 0.52366 0.06575 0.64374 0.0
H1196 H 0.50973 0.09817 0.63061 0.0
H1197 H 0.49707 0.94691 0.61094 0.0
H1198 H 0.47293 0.93971 0.62195 0.0
H1199 H 0.49414 0.94357 0.63892 0.0
C1200 C 0.56085 0.00638 0.88232 0.0
C1201 C 0.56451 0.04109 0.88287 0.0
C1202 C 0.5415 0.99355 0.88319 0.0
C1203 C 0.52526 0.01586 0.88423 0.0
C1204 C 0.52881 0.05082 0.88513 0.0
C1205 C 0.54828 0.06291 0.88474 0.0
C1206 C 0.53844 0.95606 0.88253 0.0
C1207 C 0.512 0.0756 0.88596 0.0
C1208 C 0.47617 0.98407 0.86267 0.0
C1209 C 0.46567 0.97667 0.88119 0.0
C1210 C 0.49536 0.9973 0.86348 0.0
C1211 C 0.50455 1.00278 0.88331 0.0
C1212 C 0.49392 0.99571 0.90209 0.0
C1213 C 0.47454 0.98305 0.90081 0.0
C1214 C 0.50588 0.00512 0.84305 0.0
C1215 C 0.50322 1.00065 0.92353 0.0
H1216 H 0.57306 0.98909 0.88067 0.0
H1217 H 0.55073 0.0897 0.88584 0.0
H1218 H 0.52883 0.94808 0.89579 0.0
H1219 H 0.53086 0.94904 0.86764 0.0
H1220 H 0.55254 0.942 0.8835 0.0
H1221 H 0.51719 0.10198 0.88689 0.0
H1222 H 0.50267 0.07285 0.87165 0.0
H1223 H 0.50251 0.07039 0.89983 0.0
H1224 H 0.46934 0.97933 0.84747 0.0
H1225 H 0.46658 0.97699 0.91515 0.0
H1226 H 0.51928 0.98937 0.84166 0.0
H1227 H 0.51071 0.03171 0.84296 0.0
H1228 H 0.49644 1.00065 0.82898 0.0
H1229 H 0.51652 0.98462 0.92495 0.0
H1230 H 0.49297 0.99436 0.93662 0.0
H1231 H 0.50807 0.02705 0.92542 0.0
C1232 C 0.97171 0.50539 0.38583 0.0
C1233 C 0.96732 0.53285 0.37271 0.0
C1234 C 0.99071 0.49103 0.38621 0.0
C1235 C 1.00584 0.50449 0.37329 0.0
C1236 C 1.00144 0.53188 0.35984 0.0
C1237 C 0.98232 0.54545 0.35958 0.0
C1238 C 0.99466 0.46158 0.4006 0.0
C1239 C 0.01703 0.54712 0.34579 0.0
C1240 C 0.05985 0.48883 0.3877 0.0
C1241 C 0.06523 0.46345 0.3734 0.0
C1242 C 0.04063 0.50226 0.38792 0.0
C1243 C 0.02623 0.48991 0.37364 0.0
C1244 C 0.03152 0.4643 0.35921 0.0
C1245 C 0.05089 0.45166 0.35914 0.0
C1246 C 0.03572 0.52981 0.40341 0.0
C1247 C 0.01672 0.45028 0.34373 0.0
H1248 H 0.9604 0.49553 0.39617 0.0
H1249 H 0.97912 0.56608 0.34897 0.0
H1250 H 1.00031 0.44007 0.39127 0.0
H1251 H 1.00621 0.46828 0.41228 0.0
H1252 H 0.98127 0.45345 0.40926 0.0
H1253 H 1.01135 0.56866 0.33646 0.0
H1254 H 0.02963 0.55586 0.35552 0.0
H1255 H 0.02277 0.52793 0.3347 0.0
H1256 H 0.07059 0.49795 0.39899 0.0
H1257 H 0.05482 0.43264 0.34767 0.0
H1258 H 0.02344 0.52178 0.41379 0.0
H1259 H 0.0307 0.55247 0.39476 0.0
H1260 H 0.04851 0.53673 0.41347 0.0
H1261 H 1.00359 0.44088 0.35231 0.0
H1262 H 0.02289 0.42948 0.33411 0.0
H1263 H 1.01162 0.47039 0.3329 0.0
C1264 C 0.04904 0.54672 0.14941 0.0
C1265 C 0.06374 0.53427 0.13583 0.0
C1266 C 0.0297 0.53392 0.14912 0.0
C1267 C 0.02477 0.50733 0.13523 0.0
C1268 C 0.03955 0.49415 0.12175 0.0
C1269 C 0.05873 0.50785 0.1221 0.0
C1270 C 0.01448 0.54898 0.1637 0.0
C1271 C 0.03509 0.4655 0.10691 0.0
C1272 C 0.97982 0.45402 0.14935 0.0
C1273 C 0.96528 0.46611 0.13539 0.0
C1274 C 0.99916 0.46682 0.14924 0.0
C1275 C 1.00426 0.49301 0.13514 0.0
C1276 C 0.98965 0.50582 0.12126 0.0
C1277 C 0.97047 0.49213 0.12145 0.0
C1278 C 0.01419 0.45217 0.16425 0.0
C1279 C 0.9943 0.53404 0.10617 0.0
H1280 H 0.05263 0.56649 0.1605 0.0
H1281 H 0.06971 0.49812 0.11131 0.0
H1282 H 1.00166 0.55798 0.1544 0.0
H1283 H 1.00899 0.5296 0.1748 0.0
H1284 H 0.02043 0.5703 0.17304 0.0
H1285 H 0.04822 0.45759 0.09771 0.0
H1286 H 0.02957 0.44362 0.11599 0.0
H1287 H 0.0233 0.47292 0.0957 0.0
H1288 H 0.97609 0.43456 0.16059 0.0
H1289 H 0.95962 0.50157 0.11037 0.0
H1290 H 0.01954 0.47186 0.17522 0.0
H1291 H 0.02713 0.44292 0.15527 0.0
H1292 H 1.00812 0.43112 0.17372 0.0
H1293 H 0.99971 0.55617 0.11509 0.0
H1294 H 0.98129 0.54168 0.09666 0.0
H1295 H 1.00624 0.5263 0.09526 0.0
C1296 C 0.96492 0.50493 0.62762 0.0
C1297 C 0.96154 0.53977 0.62802 0.0
C1298 C 0.98419 0.4916 0.62709 0.0
C1299 C 1.00067 0.51345 0.62751 0.0
C1300 C 0.99742 0.54853 0.62785 0.0
C1301 C 0.97805 0.56117 0.62772 0.0
C1302 C 0.98691 0.45405 0.6262 0.0
C1303 C 0.01446 0.57286 0.62869 0.0
C1304 C 0.05002 0.47961 0.6476 0.0
C1305 C 0.06103 0.47602 0.62888 0.0
C1306 C 0.03053 0.49183 0.64738 0.0
C1307 C 0.02133 0.49979 0.62791 0.0
C1308 C 0.03209 0.49564 0.60892 0.0
C1309 C 0.05179 0.4844 0.60964 0.0
C1310 C 0.01984 0.4965 0.66808 0.0
C1311 C 0.02279 0.50313 0.58775 0.0
H1312 H 0.95253 0.48785 0.62809 0.0
H1313 H 0.97595 0.58808 0.62734 0.0
H1314 H 0.99654 0.44725 0.6127 0.0
H1315 H 0.99433 0.44521 0.6408 0.0
H1316 H 0.97269 0.44051 0.62454 0.0
H1317 H 1.0095 0.59939 0.6295 0.0
H1318 H 0.02377 0.56749 0.64272 0.0
H1319 H 0.02388 0.56977 0.61452 0.0
H1320 H 0.0565 0.47256 0.6626 0.0
H1321 H 0.05994 0.48254 0.59501 0.0
H1322 H 1.00644 0.48061 0.66843 0.0
H1323 H 0.01497 0.52296 0.66968 0.0
H1324 H 0.02918 0.49 0.68192 0.0
H1325 H 1.00877 0.48908 0.58608 0.0
H1326 H 0.03259 0.49642 0.57435 0.0
H1327 H 0.0192 0.53021 0.58664 0.0
C1328 C 0.05033 0.54459 0.86098 0.0
C1329 C 0.06524 0.53316 0.87474 0.0
C1330 C 0.03106 0.53175 0.86179 0.0
C1331 C 0.02647 0.50559 0.87608 0.0
C1332 C 0.0415 0.49291 0.88947 0.0
C1333 C 0.06056 0.50709 0.88886 0.0
C1334 C 0.01551 0.54653 0.84743 0.0
C1335 C 0.03745 0.46432 0.90448 0.0
C1336 C 0.9724 0.4909 0.89063 0.0
C1337 C 0.96671 0.46579 0.87622 0.0
C1338 C 0.9917 0.50406 0.89077 0.0
C1339 C 1.00602 0.49124 0.87661 0.0
C1340 C 1.00054 0.46563 0.86227 0.0
C1341 C 0.981 0.4538 0.86196 0.0
C1342 C 0.9967 0.53204 0.90592 0.0
C1343 C 0.01532 0.4507 0.84713 0.0
H1344 H 0.05364 0.56378 0.84941 0.0
H1345 H 0.07166 0.49801 0.89974 0.0
H1346 H 1.01007 0.52714 0.83631 0.0
H1347 H 1.00272 0.5551 0.85691 0.0
H1348 H 0.02114 0.5681 0.83811 0.0
H1349 H 0.05087 0.45624 0.91316 0.0
H1350 H 0.02612 0.47191 0.91615 0.0
H1351 H 0.03148 0.44252 0.89564 0.0
H1352 H 0.96185 0.50025 0.90201 0.0
H1353 H 0.97699 0.43524 0.85024 0.0
H1354 H 1.00204 0.55421 0.89699 0.0
H1355 H 1.00878 0.52409 0.91662 0.0
H1356 H 0.98387 0.53973 0.91567 0.0
H1357 H 0.02012 0.46998 0.83561 0.0
H1358 H 1.00922 0.42902 0.83825 0.0
H1359 H 0.02862 0.44228 0.85587 0.0
C1360 C 0.22651 0.28543 0.35266 0.0
C1361 C 0.22685 0.31202 0.36721 0.0
C1362 C 0.24165 0.26114 0.35218 0.0
C1363 C 0.25789 0.26379 0.36624 0.0
C1364 C 0.2585 0.2911 0.38062 0.0
C1365 C 0.24291 0.31452 0.38113 0.0
C1366 C 0.24003 0.23214 0.33695 0.0
C1367 C 0.27566 0.29558 0.39555 0.0
C1368 C 0.2889 0.18653 0.38045 0.0
C1369 C 0.30508 0.18958 0.36679 0.0
C1370 C 0.2733 0.20995 0.38009 0.0
C1371 C 0.27405 0.23783 0.36615 0.0
C1372 C 0.29042 0.24106 0.35237 0.0
C1373 C 0.30555 0.21673 0.35266 0.0
C1374 C 0.25598 0.20484 0.39468 0.0
C1375 C 0.2922 0.27068 0.33765 0.0
H1376 H 0.21405 0.28304 0.34204 0.0
H1377 H 0.24334 0.33505 0.39235 0.0
H1378 H 0.25298 0.23168 0.32629 0.0
H1379 H 0.24 0.20812 0.34582 0.0
H1380 H 0.22646 0.23346 0.32716 0.0
H1381 H 0.27445 0.31897 0.40501 0.0
H1382 H 0.27652 0.27395 0.40654 0.0
H1383 H 0.28966 0.29624 0.38652 0.0
H1384 H 0.28839 0.16557 0.39136 0.0
H1385 H 0.31811 0.2195 0.34224 0.0
H1386 H 0.24208 0.20456 0.38543 0.0
H1387 H 0.255 0.226 0.40601 0.0
H1388 H 0.25709 0.18107 0.40376 0.0
H1389 H 0.27938 0.27155 0.32679 0.0
H1390 H 0.30589 0.26979 0.32806 0.0
H1391 H 0.29212 0.29433 0.34691 0.0
C1392 C 0.72619 0.78418 0.38674 0.0
C1393 C 0.72427 0.80895 0.37092 0.0
C1394 C 0.74202 0.7612 0.38695 0.0
C1395 C 0.75613 0.7616 0.37048 0.0
C1396 C 0.75408 0.78569 0.35412 0.0
C1397 C 0.73853 0.80927 0.35473 0.0
C1398 C 0.74376 0.73666 0.40504 0.0
C1399 C 0.76843 0.78668 0.33593 0.0
C1400 C 0.80766 0.72484 0.37939 0.0
C1401 C 0.80604 0.69261 0.37061 0.0
C1402 C 0.79152 0.74711 0.37982 0.0
C1403 C 0.77328 0.73749 0.37069 0.0
C1404 C 0.77156 0.7049 0.36177 0.0
C1405 C 0.78784 0.68274 0.3621 0.0
C1406 C 0.79402 0.78103 0.39009 0.0
C1407 C 0.75266 0.69374 0.35138 0.0
H1408 H 0.71524 0.78231 0.39907 0.0
H1409 H 0.73781 0.82819 0.3425 0.0
H1410 H 0.74289 0.71058 0.39902 0.0
H1411 H 0.75831 0.73951 0.41286 0.0
H1412 H 0.73204 0.74025 0.41707 0.0
H1413 H 0.76399 0.80498 0.32357 0.0
H1414 H 0.78329 0.79359 0.34178 0.0
H1415 H 0.76963 0.76147 0.32859 0.0
H1416 H 0.82166 0.73259 0.38607 0.0
H1417 H 0.78653 0.65803 0.35508 0.0
H1418 H 0.78264 0.78462 0.40247 0.0
H1419 H 0.79191 0.80114 0.37819 0.0
H1420 H 0.80879 0.78412 0.3974 0.0
H1421 H 0.74037 0.69467 0.36289 0.0
H1422 H 0.7537 0.66787 0.34495 0.0
H1423 H 0.74887 0.71112 0.33828 0.0
C1424 C 0.22457 0.71663 0.15373 0.0
C1425 C 0.22489 0.68905 0.13991 0.0
C1426 C 0.23993 0.74058 0.15389 0.0
C1427 C 0.25642 0.73655 0.14034 0.0
C1428 C 0.257 0.70826 0.12671 0.0
C1429 C 0.24116 0.68526 0.12643 0.0
C1430 C 0.23829 0.77064 0.16827 0.0
C1431 C 0.2744 0.70224 0.11238 0.0
C1432 C 0.28866 0.812 0.12509 0.0
C1433 C 0.3045 0.80946 0.13932 0.0
C1434 C 0.27281 0.78902 0.12556 0.0
C1435 C 0.27292 0.76204 0.14021 0.0
C1436 C 0.28894 0.75929 0.15455 0.0
C1437 C 0.30433 0.78318 0.15412 0.0
C1438 C 0.25591 0.79368 0.11033 0.0
C1439 C 0.29007 0.73063 0.17009 0.0
H1440 H 0.21198 0.72 0.16402 0.0
H1441 H 0.24159 0.66399 0.11577 0.0
H1442 H 0.25095 0.77132 0.17935 0.0
H1443 H 0.23881 0.79403 0.15877 0.0
H1444 H 0.22445 0.77049 0.17761 0.0
H1445 H 0.27312 0.67828 0.10352 0.0
H1446 H 0.27574 0.72308 0.10087 0.0
H1447 H 0.28819 0.70172 0.1218 0.0
H1448 H 0.28857 0.83228 0.11368 0.0
H1449 H 0.31659 0.78073 0.16501 0.0
H1450 H 0.24181 0.79507 0.11913 0.0
H1451 H 0.25494 0.77179 0.09956 0.0
H1452 H 0.25751 0.81676 0.10064 0.0
H1453 H 0.27703 0.73095 0.18062 0.0
H1454 H 0.30358 0.73169 0.18 0.0
H1455 H 0.28987 0.70639 0.16146 0.0
C1456 C 0.74121 0.18596 0.12885 0.0
C1457 C 0.724 0.19191 0.14053 0.0
C1458 C 0.75708 0.20892 0.12907 0.0
C1459 C 0.75556 0.2393 0.14069 0.0
C1460 C 0.73808 0.24548 0.15238 0.0
C1461 C 0.7227 0.22157 0.15241 0.0
C1462 C 0.7755 0.20063 0.11682 0.0
C1463 C 0.73544 0.27774 0.16453 0.0
C1464 C 0.80246 0.28806 0.15551 0.0
C1465 C 0.80377 0.31203 0.13927 0.0
C1466 C 0.787 0.26432 0.15613 0.0
C1467 C 0.7721 0.26471 0.14037 0.0
C1468 C 0.77315 0.28927 0.12417 0.0
C1469 C 0.78898 0.31227 0.12369 0.0
C1470 C 0.78684 0.23834 0.17348 0.0
C1471 C 0.75748 0.29131 0.10727 0.0
H1472 H 0.74232 0.16309 0.11966 0.0
H1473 H 0.70936 0.22651 0.16128 0.0
H1474 H 0.77781 0.21948 0.10417 0.0
H1475 H 0.78852 0.20171 0.12742 0.0
H1476 H 0.77482 0.17534 0.10948 0.0
H1477 H 0.72093 0.27905 0.17258 0.0
H1478 H 0.74723 0.2803 0.17658 0.0
H1479 H 0.73676 0.29945 0.15364 0.0
H1480 H 0.81389 0.28725 0.16748 0.0
H1481 H 0.78968 0.33078 0.11117 0.0
H1482 H 0.78728 0.21283 0.16647 0.0
H1483 H 0.773 0.24024 0.1827 0.0
H1484 H 0.79951 0.24113 0.18447 0.0
H1485 H 0.75719 0.26768 0.09802 0.0
H1486 H 0.75995 0.31256 0.09622 0.0
H1487 H 0.74277 0.29427 0.11466 0.0
C1488 C 0.71998 0.78463 0.62528 0.0
C1489 C 0.72025 0.81422 0.6375 0.0
C1490 C 0.73564 0.76137 0.62572 0.0
C1491 C 0.75195 0.76675 0.63929 0.0
C1492 C 0.75211 0.79581 0.65225 0.0
C1493 C 0.7365 0.81926 0.65102 0.0
C1494 C 0.73486 0.73121 0.6113 0.0
C1495 C 0.7689 0.80232 0.66735 0.0
C1496 C 0.7846 0.68996 0.65067 0.0
C1497 C 0.80077 0.69514 0.63712 0.0
C1498 C 0.769 0.71341 0.65206 0.0
C1499 C 0.76909 0.74261 0.63921 0.0
C1500 C 0.78533 0.74813 0.62562 0.0
C1501 C 0.80099 0.72487 0.62503 0.0
C1502 C 0.75229 0.70676 0.66719 0.0
C1503 C 0.78605 0.77844 0.61132 0.0
H1504 H 0.70744 0.77931 0.61526 0.0
H1505 H 0.73728 0.84185 0.66048 0.0
H1506 H 0.74786 0.73118 0.60069 0.0
H1507 H 0.73545 0.7078 0.62074 0.0
H1508 H 0.72132 0.73076 0.60143 0.0
H1509 H 0.76613 0.82439 0.67763 0.0
H1510 H 0.77141 0.78001 0.6775 0.0
H1511 H 0.78266 0.80677 0.65834 0.0
H1512 H 0.78387 0.66728 0.66005 0.0
H1513 H 0.81348 0.73031 0.615 0.0
H1514 H 0.73848 0.7024 0.65822 0.0
H1515 H 0.74984 0.72896 0.67744 0.0
H1516 H 0.75512 0.68457 0.67738 0.0
H1517 H 0.77299 0.7786 0.60076 0.0
H1518 H 0.79954 0.77899 0.60141 0.0
H1519 H 0.78552 0.80176 0.62086 0.0
C1520 C 0.21416 0.27259 0.63895 0.0
C1521 C 0.2174 0.30746 0.64054 0.0
C1522 C 0.22987 0.24935 0.63858 0.0
C1523 C 0.24962 0.26085 0.63912 0.0
C1524 C 0.25311 0.29587 0.64048 0.0
C1525 C 0.2371 0.31853 0.64147 0.0
C1526 C 0.22528 0.21233 0.63753 0.0
C1527 C 0.27385 0.30952 0.64066 0.0
C1528 C 0.29156 0.20075 0.65467 0.0
C1529 C 0.29879 0.18995 0.63494 0.0
C1530 C 0.27552 0.22326 0.65628 0.0
C1531 C 0.26655 0.23631 0.63775 0.0
C1532 C 0.27373 0.22567 0.61782 0.0
C1533 C 0.2894 0.20243 0.61667 0.0
C1534 C 0.26817 0.23317 0.67789 0.0
C1535 C 0.26496 0.23913 0.59757 0.0
H1536 H 0.19927 0.26313 0.63766 0.0
H1537 H 0.24018 0.34504 0.64311 0.0
H1538 H 0.23084 0.20173 0.62247 0.0
H1539 H 0.23288 0.1989 0.65056 0.0
H1540 H 0.20923 0.20719 0.63861 0.0
H1541 H 0.27419 0.33737 0.64124 0.0
H1542 H 0.28199 0.29961 0.65452 0.0
H1543 H 0.28181 0.30106 0.62631 0.0
H1544 H 0.29861 0.19209 0.66902 0.0
H1545 H 0.29418 0.19401 0.60125 0.0
H1546 H 0.25218 0.22773 0.67921 0.0
H1547 H 0.27008 0.26054 0.68025 0.0
H1548 H 0.27604 0.21976 0.69077 0.0
H1549 H 0.24921 0.23199 0.59647 0.0
H1550 H 0.2727 0.22959 0.58333 0.0
H1551 H 0.26564 0.26695 0.59752 0.0
C1552 C 0.72464 0.22467 0.8828 0.0
C1553 C 0.72499 0.19482 0.87085 0.0
C1554 C 0.7402 0.24802 0.88212 0.0
C1555 C 0.75648 0.24241 0.8686 0.0
C1556 C 0.7567 0.21309 0.85589 0.0
C1557 C 0.74118 0.18957 0.85735 0.0
C1558 C 0.73937 0.27851 0.89627 0.0
C1559 C 0.77348 0.20636 0.84085 0.0
C1560 C 0.7889 0.31904 0.85667 0.0
C1561 C 0.80504 0.31422 0.87035 0.0
C1562 C 0.77337 0.29549 0.85541 0.0
C1563 C 0.77355 0.26658 0.8685 0.0
C1564 C 0.78976 0.26141 0.88222 0.0
C1565 C 0.80533 0.28478 0.8827 0.0
C1566 C 0.75665 0.30173 0.84018 0.0
C1567 C 0.79054 0.23138 0.89676 0.0
H1568 H 0.71211 0.23008 0.89279 0.0
H1569 H 0.74198 0.16677 0.84809 0.0
H1570 H 0.75236 0.2788 0.90693 0.0
H1571 H 0.73996 0.30171 0.88662 0.0
H1572 H 0.72582 0.27916 0.90608 0.0
H1573 H 0.77073 0.18406 0.83075 0.0
H1574 H 0.77593 0.22846 0.83052 0.0
H1575 H 0.78727 0.20216 0.8499 0.0
H1576 H 0.78815 0.34152 0.8471 0.0
H1577 H 0.81782 0.27969 0.89285 0.0
H1578 H 0.74283 0.30618 0.84907 0.0
H1579 H 0.75426 0.27931 0.8301 0.0
H1580 H 0.75943 0.32373 0.82982 0.0
H1581 H 0.77751 0.23143 0.90733 0.0
H1582 H 0.80406 0.23105 0.90667 0.0
H1583 H 0.79 0.20788 0.88741 0.0
C1584 C 0.23198 0.71057 0.89087 0.0
C1585 C 0.22312 0.6989 0.87208 0.0
C1586 C 0.24731 0.7344 0.89068 0.0
C1587 C 0.25496 0.74602 0.8712 0.0
C1588 C 0.24657 0.7339 0.85215 0.0
C1589 C 0.23061 0.71118 0.8528 0.0
C1590 C 0.25536 0.7471 0.91146 0.0
C1591 C 0.25466 0.74458 0.83098 0.0
C1592 C 0.2864 0.82614 0.86919 0.0
C1593 C 0.30571 0.81342 0.8708 0.0
C1594 C 0.26979 0.80472 0.86958 0.0
C1595 C 0.27237 0.76944 0.87086 0.0
C1596 C 0.29171 0.75639 0.87232 0.0
C1597 C 0.30793 0.77836 0.87284 0.0
C1598 C 0.24944 0.8199 0.8688 0.0
C1599 C 0.29535 0.71902 0.87323 0.0
H1600 H 0.22714 0.70099 0.90599 0.0
H1601 H 0.22399 0.70334 0.83805 0.0
H1602 H 0.27069 0.73812 0.91366 0.0
H1603 H 0.25578 0.77494 0.91148 0.0
H1604 H 0.24645 0.73856 0.92515 0.0
H1605 H 0.24694 0.73225 0.81758 0.0
H1606 H 0.2533 0.77214 0.82913 0.0
H1607 H 0.27057 0.73836 0.83006 0.0
H1608 H 0.28413 0.85287 0.86744 0.0
H1609 H 0.32243 0.76764 0.87501 0.0
H1610 H 0.24067 0.81115 0.88252 0.0
H1611 H 0.24166 0.8115 0.85432 0.0
H1612 H 0.24981 0.84776 0.86892 0.0
H1613 H 0.28925 0.70858 0.88809 0.0
H1614 H 0.31127 0.71272 0.87249 0.0
H1615 H 0.28772 0.70635 0.85993 0.0
C1616 C 0.40324 0.02561 0.29803 0.0
C1617 C 0.38995 0.05249 0.29903 0.0
C1618 C 0.40465 0.00534 0.27983 0.0
C1619 C 0.3922 0.01167 0.26225 0.0
C1620 C 0.37908 0.0394 0.26304 0.0
C1621 C 0.37811 0.05941 0.2814 0.0
C1622 C 0.41896 0.97637 0.27972 0.0
C1623 C 0.36543 0.04707 0.24483 0.0
C1624 C 0.40273 0.97472 0.20753 0.0
C1625 C 0.38973 0.94742 0.20679 0.0
C1626 C 0.40422 0.99511 0.22568 0.0
C1627 C 0.39215 0.98846 0.24348 0.0
C1628 C 0.37931 0.96035 0.24293 0.0
C1629 C 0.37825 0.94024 0.22462 0.0
C1630 C 0.41821 0.02451 0.22551 0.0
C1631 C 0.36606 0.95233 0.26138 0.0
H1632 H 0.41212 0.01981 0.31182 0.0
H1633 H 0.36746 0.07963 0.28235 0.0
H1634 H 0.41071 0.95235 0.27935 0.0
H1635 H 0.42825 0.97725 0.26532 0.0
H1636 H 0.4287 0.9764 0.29384 0.0
H1637 H 0.35687 0.07047 0.2474 0.0
H1638 H 0.37394 0.0496 0.22997 0.0
H1639 H 0.35495 0.02599 0.24263 0.0
H1640 H 0.41132 0.98071 0.19359 0.0
H1641 H 0.3678 0.9197 0.22388 0.0
H1642 H 0.42778 0.02391 0.23973 0.0
H1643 H 0.40971 0.04828 0.22605 0.0
H1644 H 0.42768 0.02477 0.2112 0.0
H1645 H 0.37486 0.95 0.27609 0.0
H1646 H 0.35767 0.92871 0.25896 0.0
H1647 H 0.35543 0.97314 0.26379 0.0
C1648 C 0.62586 0.02735 0.20968 0.0
C1649 C 0.63913 0.05426 0.2088 0.0
C1650 C 0.62448 0.00686 0.22779 0.0
C1651 C 0.63694 0.01298 0.24538 0.0
C1652 C 0.65004 0.04074 0.24471 0.0
C1653 C 0.65097 0.061 0.22646 0.0
C1654 C 0.61019 0.97787 0.22777 0.0
C1655 C 0.66371 0.04818 0.26294 0.0
C1656 C 0.62664 0.9755 0.29998 0.0
C1657 C 0.63971 0.94827 0.30059 0.0
C1658 C 0.62503 0.996 0.2819 0.0
C1659 C 0.63705 0.98953 0.26403 0.0
C1660 C 0.64992 0.96145 0.26442 0.0
C1661 C 0.6511 0.94121 0.28268 0.0
C1662 C 0.61099 0.02535 0.28222 0.0
C1663 C 0.66312 0.95364 0.24589 0.0
H1664 H 0.61699 0.0217 0.19586 0.0
H1665 H 0.6616 0.08124 0.2256 0.0
H1666 H 0.61845 0.95386 0.228 0.0
H1667 H 0.60093 0.97855 0.2422 0.0
H1668 H 0.60042 0.9781 0.21367 0.0
H1669 H 0.67227 0.07161 0.26046 0.0
H1670 H 0.65522 0.05055 0.27783 0.0
H1671 H 0.67419 0.02707 0.26503 0.0
H1672 H 0.61813 0.98139 0.31399 0.0
H1673 H 0.6616 0.92074 0.28332 0.0
H1674 H 0.60142 0.02493 0.26799 0.0
H1675 H 0.61945 0.04915 0.28183 0.0
H1676 H 0.60152 0.02537 0.29652 0.0
H1677 H 0.65429 0.95152 0.2312 0.0
H1678 H 0.67151 0.92997 0.24818 0.0
H1679 H 0.67375 0.97445 0.24357 0.0
C1680 C 0.63124 0.05197 0.79175 0.0
C1681 C 0.64754 0.0479 0.80521 0.0
C1682 C 0.63057 0.03682 0.77155 0.0
C1683 C 0.64539 0.01334 0.76551 0.0
C1684 C 0.66137 0.00798 0.77968 0.0
C1685 C 0.66307 0.0276 0.79805 0.0
C1686 C 0.61398 0.04687 0.75697 0.0
C1687 C 0.67683 0.98128 0.77618 0.0
C1688 C 0.62921 0.95792 0.71855 0.0
C1689 C 0.64508 0.96131 0.70449 0.0
C1690 C 0.62951 0.97295 0.7388 0.0
C1691 C 0.64489 0.99569 0.74431 0.0
C1692 C 0.66044 1.00038 0.72956 0.0
C1693 C 0.66118 0.9808 0.71111 0.0
C1694 C 0.61328 0.96362 0.75397 0.0
C1695 C 0.67643 0.02634 0.7325 0.0
H1696 H 0.61916 0.06791 0.79672 0.0
H1697 H 0.67655 0.02594 0.80715 0.0
H1698 H 0.61695 0.04078 0.74018 0.0
H1699 H 0.60026 0.03411 0.76204 0.0
H1700 H 0.61122 0.07428 0.7582 0.0
H1701 H 0.67971 0.96773 0.79122 0.0
H1702 H 0.67258 0.96249 0.76409 0.0
H1703 H 0.69092 0.99331 0.77159 0.0
H1704 H 0.6167 0.94264 0.714 0.0
H1705 H 0.67432 0.98198 0.70145 0.0
H1706 H 0.59958 0.97697 0.7494 0.0
H1707 H 0.6169 0.96958 0.77064 0.0
H1708 H 0.61009 0.93634 0.75286 0.0
H1709 H 0.679 0.0398 0.71737 0.0
H1710 H 0.69047 0.01365 0.73656 0.0
H1711 H 0.67288 0.0453 0.74474 0.0
C1712 C 0.39582 0.95422 0.78684 0.0
C1713 C 0.37985 0.95572 0.8009 0.0
C1714 C 0.39508 0.96981 0.7668 0.0
C1715 C 0.37918 0.99171 0.76167 0.0
C1716 C 0.36355 0.99481 0.77652 0.0
C1717 C 0.36333 0.97456 0.79473 0.0
C1718 C 0.41148 0.96204 0.75148 0.0
C1719 C 0.34705 0.01995 0.77404 0.0
C1720 C 0.39269 0.05023 0.71534 0.0
C1721 C 0.37672 0.04591 0.70146 0.0
C1722 C 0.39311 0.0347 0.73542 0.0
C1723 C 0.37851 0.01049 0.74087 0.0
C1724 C 0.36281 0.00507 0.72635 0.0
C1725 C 0.36126 0.02506 0.70812 0.0
C1726 C 0.40923 0.04513 0.75049 0.0
C1727 C 0.34754 0.97792 0.72931 0.0
H1728 H 0.40889 0.94024 0.79124 0.0
H1729 H 0.35045 0.97512 0.80482 0.0
H1730 H 0.40772 0.96843 0.7349 0.0
H1731 H 0.42492 0.97593 0.75626 0.0
H1732 H 0.4152 0.93492 0.75216 0.0
H1733 H 0.34433 0.03277 0.78936 0.0
H1734 H 0.35011 0.03946 0.762 0.0
H1735 H 0.33324 0.00658 0.76994 0.0
H1736 H 0.40468 0.06666 0.7108 0.0
H1737 H 0.34796 0.02328 0.69872 0.0
H1738 H 0.42334 0.03364 0.74543 0.0
H1739 H 0.40617 0.03805 0.76711 0.0
H1740 H 0.41132 0.07276 0.74982 0.0
H1741 H 0.3448 0.96496 0.71404 0.0
H1742 H 0.33336 0.98948 0.73407 0.0
H1743 H 0.3519 0.95871 0.7411 0.0
C1744 C 0.87753 0.44258 0.2248 0.0
C1745 C 0.88937 0.44901 0.20713 0.0
C1746 C 0.87859 0.46299 0.24297 0.0
C1747 C 0.8918 0.4906 0.24352 0.0
C1748 C 0.90425 0.4964 0.22592 0.0
C1749 C 0.90276 0.47575 0.2079 0.0
C1750 C 0.86492 0.4559 0.26122 0.0
C1751 C 0.91865 0.52523 0.22579 0.0
C1752 C 0.87814 0.56302 0.28046 0.0
C1753 C 0.88959 0.55601 0.29835 0.0
C1754 C 0.8791 0.54248 0.26234 0.0
C1755 C 0.89184 0.51421 0.26207 0.0
C1756 C 0.90392 0.50781 0.27992 0.0
C1757 C 0.90255 0.52862 0.29787 0.0
C1758 C 0.86587 0.55026 0.24379 0.0
C1759 C 0.91782 0.47827 0.28036 0.0
H1760 H 0.8668 0.42248 0.224 0.0
H1761 H 0.91161 0.48117 0.19406 0.0
H1762 H 0.87343 0.45364 0.27613 0.0
H1763 H 0.85451 0.47713 0.26319 0.0
H1764 H 0.85629 0.43252 0.25885 0.0
H1765 H 0.9284 0.52474 0.2117 0.0
H1766 H 0.91048 0.54934 0.22589 0.0
H1767 H 0.92794 0.52461 0.24022 0.0
H1768 H 0.86786 0.58381 0.28099 0.0
H1769 H 0.91116 0.5229 0.31186 0.0
H1770 H 0.8552 0.52948 0.2415 0.0
H1771 H 0.87468 0.55226 0.22909 0.0
H1772 H 0.85752 0.57398 0.24602 0.0
H1773 H 0.90925 0.45458 0.27996 0.0
H1774 H 0.92728 0.47817 0.2947 0.0
H1775 H 0.9274 0.47851 0.26617 0.0
C1776 C 0.12685 0.47465 0.2998 0.0
C1777 C 0.14028 0.44795 0.30057 0.0
C1778 C 0.12512 0.495 0.28166 0.0
C1779 C 0.13738 0.48893 0.26393 0.0
C1780 C 0.15062 0.46135 0.26449 0.0
C1781 C 0.15191 0.44125 0.28279 0.0
C1782 C 0.1107 0.52382 0.28179 0.0
C1783 C 0.16407 0.45396 0.2461 0.0
C1784 C 0.1263 0.52587 0.20934 0.0
C1785 C 0.13932 0.55313 0.20849 0.0
C1786 C 0.12493 0.50556 0.22753 0.0
C1787 C 0.13714 0.51227 0.24524 0.0
C1788 C 0.14992 0.54044 0.24462 0.0
C1789 C 0.15087 0.56047 0.22627 0.0
C1790 C 0.11099 0.47609 0.22745 0.0
C1791 C 0.16331 0.54852 0.26299 0.0
H1792 H 0.11814 0.48027 0.31371 0.0
H1793 H 0.16267 0.42118 0.28357 0.0
H1794 H 0.11885 0.54793 0.28145 0.0
H1795 H 0.10127 0.52298 0.26746 0.0
H1796 H 0.1011 0.52352 0.29599 0.0
H1797 H 0.17275 0.43063 0.24851 0.0
H1798 H 0.15538 0.45143 0.23133 0.0
H1799 H 0.17444 0.47516 0.24384 0.0
H1800 H 0.11767 0.51975 0.19543 0.0
H1801 H 0.16133 0.58097 0.22543 0.0
H1802 H 0.10163 0.47648 0.24181 0.0
H1803 H 0.11953 0.45237 0.22774 0.0
H1804 H 0.1013 0.47595 0.21328 0.0
H1805 H 0.15464 0.55057 0.27778 0.0
H1806 H 0.17153 0.5723 0.26057 0.0
H1807 H 0.17408 0.52787 0.26522 0.0
C1808 C 0.15484 0.56232 0.78538 0.0
C1809 C 0.14365 0.55321 0.80308 0.0
C1810 C 0.1548 0.54254 0.7669 0.0
C1811 C 0.14344 0.51268 0.76609 0.0
C1812 C 0.13184 0.50376 0.78386 0.0
C1813 C 0.13219 0.524 0.80214 0.0
C1814 C 0.16741 0.55309 0.74843 0.0
C1815 C 0.11948 0.47231 0.78379 0.0
C1816 C 0.13216 0.47561 0.7116 0.0
C1817 C 0.14664 0.45069 0.7097 0.0
C1818 C 0.13072 0.4955 0.72994 0.0
C1819 C 0.14409 0.49044 0.74688 0.0
C1820 C 0.15848 0.46469 0.74516 0.0
C1821 C 0.15961 0.44522 0.72657 0.0
C1822 C 0.11518 0.52253 0.73097 0.0
C1823 C 0.17298 0.45823 0.76278 0.0
H1824 H 0.16415 0.58437 0.78627 0.0
H1825 H 0.12385 0.51656 0.81597 0.0
H1826 H 0.17893 0.5339 0.74551 0.0
H1827 H 0.15832 0.55486 0.73389 0.0
H1828 H 0.17471 0.57766 0.75115 0.0
H1829 H 0.11054 0.46973 0.7984 0.0
H1830 H 0.10943 0.47229 0.76995 0.0
H1831 H 0.12915 0.44999 0.78232 0.0
H1832 H 0.12223 0.48006 0.69848 0.0
H1833 H 0.17092 0.42617 0.725 0.0
H1834 H 0.12233 0.5475 0.73209 0.0
H1835 H 0.10604 0.51931 0.74534 0.0
H1836 H 0.10537 0.52235 0.7169 0.0
H1837 H 0.18233 0.48074 0.76522 0.0
H1838 H 0.18269 0.43644 0.75943 0.0
H1839 H 0.16503 0.45353 0.7778 0.0
C1840 C 0.86274 0.52602 0.70975 0.0
C1841 C 0.87823 0.54654 0.70275 0.0
C1842 C 0.86451 0.50589 0.72789 0.0
C1843 C 0.88054 0.51085 0.74206 0.0
C1844 C 0.89533 0.5345 0.73622 0.0
C1845 C 0.89457 0.55025 0.7162 0.0
C1846 C 0.84907 0.47911 0.73117 0.0
C1847 C 0.91198 0.54408 0.75083 0.0
C1848 C 0.86491 0.47744 0.7963 0.0
C1849 C 0.88104 0.45788 0.80276 0.0
C1850 C 0.86556 0.49722 0.77793 0.0
C1851 C 0.88106 0.49271 0.7631 0.0
C1852 C 0.89643 0.46978 0.76839 0.0
C1853 C 0.89681 0.45445 0.78856 0.0
C1854 C 0.8496 0.5233 0.77523 0.0
C1855 C 0.91259 0.46066 0.75309 0.0
H1856 H 0.84924 0.52461 0.70068 0.0
H1857 H 0.90662 0.56636 0.71136 0.0
H1858 H 0.85334 0.46004 0.74308 0.0
H1859 H 0.83498 0.49104 0.73589 0.0
H1860 H 0.84618 0.46592 0.71601 0.0
H1861 H 0.91481 0.57149 0.74984 0.0
H1862 H 0.90903 0.53764 0.76758 0.0
H1863 H 0.92565 0.5313 0.74562 0.0
H1864 H 0.85188 0.47869 0.80613 0.0
H1865 H 0.90932 0.43905 0.79298 0.0
H1866 H 0.83555 0.51074 0.77106 0.0
H1867 H 0.85314 0.54251 0.76314 0.0
H1868 H 0.84704 0.53645 0.79046 0.0
H1869 H 0.91574 0.43334 0.75398 0.0
H1870 H 0.92633 0.47383 0.75772 0.0
H1871 H 0.90893 0.46699 0.73648 0.0
loop_
_geom_bond_atom_site_label_1
_geom_bond_atom_site_label_2
_geom_bond_distance
_geom_bond_site_symmetry_2
_ccdc_geom_bond_type
C0 C1 1.443 . S
C0 N4 1.376 . S
C0 C38 1.389 . S
C1 C0 1.443 . S
C1 C2 1.340 . S
C1 H41 0.951 . S
C2 C1 1.340 . S
C2 C3 1.439 . S
C2 H42 0.950 1_545 S
C3 C2 1.439 . S
C3 N4 1.374 . S
C3 C37 1.395 . S
N4 C0 1.376 . S
N4 C3 1.374 . S
N4 Co5 2.008 . S
Co5 N4 2.008 . S
Co5 N6 1.995 . S
Co5 N11 2.008 . S
Co5 N16 1.995 . S
Co5 N21 2.282 . S
Co5 N27 2.282 . S
N6 Co5 1.995 . S
N6 C7 1.376 . S
N6 C10 1.383 . S
C7 N6 1.376 . S
C7 C8 1.446 . S
C7 C37 1.391 . S
C8 C7 1.446 . S
C8 C9 1.339 . S
C8 H43 0.949 . S
C9 C8 1.339 . S
C9 C10 1.439 . S
C9 H44 0.950 . S
C10 N6 1.383 . S
C10 C9 1.439 . S
C10 C39 1.392 . S
N11 Co5 2.008 . S
N11 C12 1.376 . S
N11 C15 1.374 . S
C12 N11 1.376 . S
C12 C13 1.443 . S
C12 C39 1.389 . S
C13 C12 1.443 . S
C13 C14 1.340 . S
C13 H45 0.951 . S
C14 C13 1.340 . S
C14 C15 1.439 . S
C14 H46 0.950 . S
C15 N11 1.374 . S
C15 C14 1.439 . S
C15 C40 1.395 . S
N16 Co5 1.995 . S
N16 C17 1.376 . S
N16 C20 1.383 . S
C17 N16 1.376 . S
C17 C18 1.446 . S
C17 C40 1.391 . S
C18 C17 1.446 . S
C18 C19 1.339 . S
C18 H47 0.949 . S
C19 C18 1.339 . S
C19 C20 1.439 . S
C19 H48 0.950 . S
C20 N16 1.383 . S
C20 C19 1.439 . S
C20 C38 1.392 . S
N21 Co5 2.282 . S
N21 C24 1.332 . S
N21 C26 1.332 . S
C22 C23 1.386 . S
C22 C25 1.388 . S
C23 C22 1.386 . S
C23 C24 1.382 . S
C23 H49 0.950 . S
C24 N21 1.332 . S
C24 C23 1.382 . S
C24 H35 0.952 . S
C25 C22 1.388 . S
C25 C26 1.382 . S
C25 H50 0.950 . S
C26 N21 1.332 . S
C26 C25 1.382 . S
C26 H36 0.948 . S
N27 Co5 2.282 . S
N27 C31 1.332 . S
N27 C32 1.332 . S
C28 C29 1.388 . S
C28 C32 1.382 . S
C28 H51 0.950 . S
C29 C28 1.388 . S
C29 C30 1.386 . S
C30 C29 1.386 . S
C30 C31 1.382 . S
C30 H52 0.950 . S
C31 N27 1.332 . S
C31 C30 1.382 . S
C31 H33 0.952 . S
C32 N27 1.332 . S
C32 C28 1.382 . S
C32 H34 0.948 . S
H33 C31 0.952 . S
H34 C32 0.948 . S
H35 C24 0.952 . S
H36 C26 0.948 . S
C37 C3 1.395 . S
C37 C7 1.391 . S
C38 C0 1.389 . S
C38 C20 1.392 . S
C39 C10 1.392 . S
C39 C12 1.389 . S
C40 C15 1.395 . S
C40 C17 1.391 . S
H41 C1 0.951 . S
H42 C2 0.950 1_565 S
H43 C8 0.949 . S
H44 C9 0.950 . S
H45 C13 0.951 . S
H46 C14 0.950 . S
H47 C18 0.949 . S
H48 C19 0.950 . S
H49 C23 0.950 . S
H50 C25 0.950 . S
H51 C28 0.950 . S
H52 C30 0.950 . S
C53 C54 1.443 . S
C53 N57 1.376 . S
C53 C91 1.389 . S
C54 C53 1.443 . S
C54 C55 1.340 . S
C54 H94 0.951 . S
C55 C54 1.340 . S
C55 C56 1.439 . S
C55 H95 0.950 1_565 S
C56 C55 1.439 . S
C56 N57 1.374 . S
C56 C90 1.395 . S
N57 C53 1.376 . S
N57 C56 1.374 . S
N57 Co58 2.008 . S
Co58 N57 2.008 . S
Co58 N59 1.995 . S
Co58 N64 2.008 . S
Co58 N69 1.995 . S
Co58 N74 2.282 . S
Co58 N80 2.282 . S
N59 Co58 1.995 . S
N59 C60 1.376 . S
N59 C63 1.383 . S
C60 N59 1.376 . S
C60 C61 1.446 . S
C60 C90 1.391 . S
C61 C60 1.446 . S
C61 C62 1.339 . S
C61 H96 0.949 . S
C62 C61 1.339 . S
C62 C63 1.439 . S
C62 H97 0.950 . S
C63 N59 1.383 . S
C63 C62 1.439 . S
C63 C92 1.392 . S
N64 Co58 2.008 . S
N64 C65 1.376 . S
N64 C68 1.374 . S
C65 N64 1.376 . S
C65 C66 1.443 . S
C65 C92 1.389 . S
C66 C65 1.443 . S
C66 C67 1.340 . S
C66 H98 0.951 . S
C67 C66 1.340 . S
C67 C68 1.439 . S
C67 H99 0.950 . S
C68 N64 1.374 . S
C68 C67 1.439 . S
C68 C93 1.395 . S
N69 Co58 1.995 . S
N69 C70 1.376 . S
N69 C73 1.383 . S
C70 N69 1.376 . S
C70 C71 1.446 . S
C70 C93 1.391 . S
C71 C70 1.446 . S
C71 C72 1.339 . S
C71 H100 0.949 . S
C72 C71 1.339 . S
C72 C73 1.439 . S
C72 H101 0.950 . S
C73 N69 1.383 . S
C73 C72 1.439 . S
C73 C91 1.392 . S
N74 Co58 2.282 . S
N74 C77 1.332 . S
N74 C79 1.332 . S
C75 C76 1.386 . S
C75 C78 1.388 . S
C76 C75 1.386 . S
C76 C77 1.382 . S
C76 H102 0.950 . S
C77 N74 1.332 . S
C77 C76 1.382 . S
C77 H88 0.952 . S
C78 C75 1.388 . S
C78 C79 1.382 . S
C78 H103 0.950 . S
C79 N74 1.332 . S
C79 C78 1.382 . S
C79 H89 0.948 . S
N80 Co58 2.282 . S
N80 C84 1.332 . S
N80 C85 1.332 . S
C81 C82 1.388 . S
C81 C85 1.382 . S
C81 H104 0.950 . S
C82 C81 1.388 . S
C82 C83 1.386 . S
C83 C82 1.386 . S
C83 C84 1.382 . S
C83 H105 0.950 . S
C84 N80 1.332 . S
C84 C83 1.382 . S
C84 H86 0.952 . S
C85 N80 1.332 . S
C85 C81 1.382 . S
C85 H87 0.948 . S
H86 C84 0.952 . S
H87 C85 0.948 . S
H88 C77 0.952 . S
H89 C79 0.948 . S
C90 C56 1.395 . S
C90 C60 1.391 . S
C91 C53 1.389 . S
C91 C73 1.392 . S
C92 C63 1.392 . S
C92 C65 1.389 . S
C93 C68 1.395 . S
C93 C70 1.391 . S
H94 C54 0.951 . S
H95 C55 0.950 1_545 S
H96 C61 0.949 . S
H97 C62 0.950 . S
H98 C66 0.951 . S
H99 C67 0.950 . S
H100 C71 0.949 . S
H101 C72 0.950 . S
H102 C76 0.950 . S
H103 C78 0.950 . S
H104 C81 0.950 . S
H105 C83 0.950 . S
C106 C107 1.443 . S
C106 N110 1.376 . S
C106 C144 1.389 . S
C107 C106 1.443 . S
C107 C108 1.340 . S
C107 H147 0.951 . S
C108 C107 1.340 . S
C108 C109 1.439 . S
C108 H148 0.950 1_565 S
C109 C108 1.439 . S
C109 N110 1.374 . S
C109 C143 1.395 . S
N110 C106 1.376 . S
N110 C109 1.374 . S
N110 Co111 2.008 . S
Co111 N110 2.008 . S
Co111 N112 1.995 . S
Co111 N117 2.008 . S
Co111 N122 1.995 . S
Co111 N127 2.282 . S
Co111 N133 2.282 . S
N112 Co111 1.995 . S
N112 C113 1.376 . S
N112 C116 1.383 . S
C113 N112 1.376 . S
C113 C114 1.446 . S
C113 C143 1.391 . S
C114 C113 1.446 . S
C114 C115 1.339 . S
C114 H149 0.949 . S
C115 C114 1.339 . S
C115 C116 1.439 . S
C115 H150 0.950 . S
C116 N112 1.383 . S
C116 C115 1.439 . S
C116 C145 1.392 . S
N117 Co111 2.008 . S
N117 C118 1.376 . S
N117 C121 1.374 . S
C118 N117 1.376 . S
C118 C119 1.443 . S
C118 C145 1.389 . S
C119 C118 1.443 . S
C119 C120 1.340 . S
C119 H151 0.951 . S
C120 C119 1.340 . S
C120 C121 1.439 . S
C120 H152 0.950 . S
C121 N117 1.374 . S
C121 C120 1.439 . S
C121 C146 1.395 . S
N122 Co111 1.995 . S
N122 C123 1.376 . S
N122 C126 1.383 . S
C123 N122 1.376 . S
C123 C124 1.446 . S
C123 C146 1.391 . S
C124 C123 1.446 . S
C124 C125 1.339 . S
C124 H153 0.949 . S
C125 C124 1.339 . S
C125 C126 1.439 . S
C125 H154 0.950 . S
C126 N122 1.383 . S
C126 C125 1.439 . S
C126 C144 1.392 . S
N127 Co111 2.282 . S
N127 C130 1.332 . S
N127 C132 1.332 . S
C128 C129 1.386 . S
C128 C131 1.388 . S
C129 C128 1.386 . S
C129 C130 1.382 . S
C129 H155 0.950 . S
C130 N127 1.332 . S
C130 C129 1.382 . S
C130 H141 0.952 . S
C131 C128 1.388 . S
C131 C132 1.382 . S
C131 H156 0.950 . S
C132 N127 1.332 . S
C132 C131 1.382 . S
C132 H142 0.948 . S
N133 Co111 2.282 . S
N133 C137 1.332 . S
N133 C138 1.332 . S
C134 C135 1.388 . S
C134 C138 1.382 . S
C134 H157 0.950 . S
C135 C134 1.388 . S
C135 C136 1.386 . S
C136 C135 1.386 . S
C136 C137 1.382 . S
C136 H158 0.950 . S
C137 N133 1.332 . S
C137 C136 1.382 . S
C137 H139 0.952 . S
C138 N133 1.332 . S
C138 C134 1.382 . S
C138 H140 0.948 . S
H139 C137 0.952 . S
H140 C138 0.948 . S
H141 C130 0.952 . S
H142 C132 0.948 . S
C143 C109 1.395 . S
C143 C113 1.391 . S
C144 C106 1.389 . S
C144 C126 1.392 . S
C145 C116 1.392 . S
C145 C118 1.389 . S
C146 C121 1.395 . S
C146 C123 1.391 . S
H147 C107 0.951 . S
H148 C108 0.950 1_545 S
H149 C114 0.949 . S
H150 C115 0.950 . S
H151 C119 0.951 . S
H152 C120 0.950 . S
H153 C124 0.949 . S
H154 C125 0.950 . S
H155 C129 0.950 . S
H156 C131 0.950 . S
H157 C134 0.950 . S
H158 C136 0.950 . S
C159 C160 1.443 . S
C159 N163 1.376 . S
C159 C197 1.389 . S
C160 C159 1.443 . S
C160 C161 1.340 . S
C160 H200 0.951 . S
C161 C160 1.340 . S
C161 C162 1.439 . S
C161 H201 0.950 1_545 S
C162 C161 1.439 . S
C162 N163 1.374 . S
C162 C196 1.395 . S
N163 C159 1.376 . S
N163 C162 1.374 . S
N163 Co164 2.008 . S
Co164 N163 2.008 . S
Co164 N165 1.995 . S
Co164 N170 2.008 . S
Co164 N175 1.995 . S
Co164 N180 2.282 . S
Co164 N186 2.282 . S
N165 Co164 1.995 . S
N165 C166 1.376 . S
N165 C169 1.383 . S
C166 N165 1.376 . S
C166 C167 1.446 . S
C166 C196 1.391 . S
C167 C166 1.446 . S
C167 C168 1.339 . S
C167 H202 0.949 . S
C168 C167 1.339 . S
C168 C169 1.439 . S
C168 H203 0.950 . S
C169 N165 1.383 . S
C169 C168 1.439 . S
C169 C198 1.392 . S
N170 Co164 2.008 . S
N170 C171 1.376 . S
N170 C174 1.374 . S
C171 N170 1.376 . S
C171 C172 1.443 . S
C171 C198 1.389 . S
C172 C171 1.443 . S
C172 C173 1.340 . S
C172 H204 0.951 . S
C173 C172 1.340 . S
C173 C174 1.439 . S
C173 H205 0.950 . S
C174 N170 1.374 . S
C174 C173 1.439 . S
C174 C199 1.395 . S
N175 Co164 1.995 . S
N175 C176 1.376 . S
N175 C179 1.383 . S
C176 N175 1.376 . S
C176 C177 1.446 . S
C176 C199 1.391 . S
C177 C176 1.446 . S
C177 C178 1.339 . S
C177 H206 0.949 . S
C178 C177 1.339 . S
C178 C179 1.439 . S
C178 H207 0.950 . S
C179 N175 1.383 . S
C179 C178 1.439 . S
C179 C197 1.392 . S
N180 Co164 2.282 . S
N180 C183 1.332 . S
N180 C185 1.332 . S
C181 C182 1.386 . S
C181 C184 1.388 . S
C182 C181 1.386 . S
C182 C183 1.382 . S
C182 H208 0.950 . S
C183 N180 1.332 . S
C183 C182 1.382 . S
C183 H194 0.952 . S
C184 C181 1.388 . S
C184 C185 1.382 . S
C184 H209 0.950 . S
C185 N180 1.332 . S
C185 C184 1.382 . S
C185 H195 0.948 . S
N186 Co164 2.282 . S
N186 C190 1.332 . S
N186 C191 1.332 . S
C187 C188 1.388 . S
C187 C191 1.382 . S
C187 H210 0.950 . S
C188 C187 1.388 . S
C188 C189 1.386 . S
C189 C188 1.386 . S
C189 C190 1.382 . S
C189 H211 0.950 . S
C190 N186 1.332 . S
C190 C189 1.382 . S
C190 H192 0.952 . S
C191 N186 1.332 . S
C191 C187 1.382 . S
C191 H193 0.948 . S
H192 C190 0.952 . S
H193 C191 0.948 . S
H194 C183 0.952 . S
H195 C185 0.948 . S
C196 C162 1.395 . S
C196 C166 1.391 . S
C197 C159 1.389 . S
C197 C179 1.392 . S
C198 C169 1.392 . S
C198 C171 1.389 . S
C199 C174 1.395 . S
C199 C176 1.391 . S
H200 C160 0.951 . S
H201 C161 0.950 1_565 S
H202 C167 0.949 . S
H203 C168 0.950 . S
H204 C172 0.951 . S
H205 C173 0.950 . S
H206 C177 0.949 . S
H207 C178 0.950 . S
H208 C182 0.950 . S
H209 C184 0.950 . S
H210 C187 0.950 . S
H211 C189 0.950 . S
C212 C213 1.443 . S
C212 N216 1.376 . S
C212 C250 1.389 . S
C213 C212 1.443 . S
C213 C214 1.340 . S
C213 H253 0.951 . S
C214 C213 1.340 . S
C214 C215 1.439 . S
C214 H254 0.950 . S
C215 C214 1.439 . S
C215 N216 1.374 . S
C215 C249 1.395 . S
N216 C212 1.376 . S
N216 C215 1.374 . S
N216 Co217 2.008 . S
Co217 N216 2.008 . S
Co217 N218 1.995 . S
Co217 N223 2.008 . S
Co217 N228 1.995 . S
Co217 N233 2.282 . S
Co217 N239 2.282 . S
N218 Co217 1.995 . S
N218 C219 1.376 . S
N218 C222 1.383 . S
C219 N218 1.376 . S
C219 C220 1.446 . S
C219 C249 1.391 . S
C220 C219 1.446 . S
C220 C221 1.339 . S
C220 H255 0.949 . S
C221 C220 1.339 . S
C221 C222 1.439 . S
C221 H256 0.950 . S
C222 N218 1.383 . S
C222 C221 1.439 . S
C222 C251 1.392 . S
N223 Co217 2.008 . S
N223 C224 1.376 . S
N223 C227 1.374 . S
C224 N223 1.376 . S
C224 C225 1.443 . S
C224 C251 1.389 . S
C225 C224 1.443 . S
C225 C226 1.340 . S
C225 H257 0.951 . S
C226 C225 1.340 . S
C226 C227 1.439 . S
C226 H258 0.950 . S
C227 N223 1.374 . S
C227 C226 1.439 . S
C227 C252 1.395 . S
N228 Co217 1.995 . S
N228 C229 1.376 . S
N228 C232 1.383 . S
C229 N228 1.376 . S
C229 C230 1.446 . S
C229 C252 1.391 . S
C230 C229 1.446 . S
C230 C231 1.339 . S
C230 H259 0.949 . S
C231 C230 1.339 . S
C231 C232 1.439 . S
C231 H260 0.950 . S
C232 N228 1.383 . S
C232 C231 1.439 . S
C232 C250 1.392 . S
N233 Co217 2.282 . S
N233 C236 1.332 . S
N233 C238 1.332 . S
C234 C235 1.386 . S
C234 C237 1.388 . S
C235 C234 1.386 . S
C235 C236 1.382 . S
C235 H261 0.950 . S
C236 N233 1.332 . S
C236 C235 1.382 . S
C236 H247 0.952 . S
C237 C234 1.388 . S
C237 C238 1.382 . S
C237 H262 0.950 . S
C238 N233 1.332 . S
C238 C237 1.382 . S
C238 H248 0.948 . S
N239 Co217 2.282 . S
N239 C243 1.332 . S
N239 C244 1.332 . S
C240 C241 1.388 . S
C240 C244 1.382 . S
C240 H263 0.950 . S
C241 C240 1.388 . S
C241 C242 1.386 . S
C242 C241 1.386 . S
C242 C243 1.382 . S
C242 H264 0.950 . S
C243 N239 1.332 . S
C243 C242 1.382 . S
C243 H245 0.952 . S
C244 N239 1.332 . S
C244 C240 1.382 . S
C244 H246 0.948 . S
H245 C243 0.952 . S
H246 C244 0.948 . S
H247 C236 0.952 . S
H248 C238 0.948 . S
C249 C215 1.395 . S
C249 C219 1.391 . S
C250 C212 1.389 . S
C250 C232 1.392 . S
C251 C222 1.392 . S
C251 C224 1.389 . S
C252 C227 1.395 . S
C252 C229 1.391 . S
H253 C213 0.951 . S
H254 C214 0.950 . S
H255 C220 0.949 . S
H256 C221 0.950 . S
H257 C225 0.951 . S
H258 C226 0.950 . S
H259 C230 0.949 . S
H260 C231 0.950 . S
H261 C235 0.950 . S
H262 C237 0.950 . S
H263 C240 0.950 . S
H264 C242 0.950 . S
C265 C266 1.443 . S
C265 N269 1.376 . S
C265 C303 1.389 . S
C266 C265 1.443 . S
C266 C267 1.340 . S
C266 H306 0.951 . S
C267 C266 1.340 . S
C267 C268 1.439 . S
C267 H307 0.950 . S
C268 C267 1.439 . S
C268 N269 1.374 . S
C268 C302 1.395 . S
N269 C265 1.376 . S
N269 C268 1.374 . S
N269 Co270 2.008 . S
Co270 N269 2.008 . S
Co270 N271 1.995 . S
Co270 N276 2.008 . S
Co270 N281 1.995 . S
Co270 N286 2.282 . S
Co270 N292 2.282 . S
N271 Co270 1.995 . S
N271 C272 1.376 . S
N271 C275 1.383 . S
C272 N271 1.376 . S
C272 C273 1.446 . S
C272 C302 1.391 . S
C273 C272 1.446 . S
C273 C274 1.339 . S
C273 H308 0.949 . S
C274 C273 1.339 . S
C274 C275 1.439 . S
C274 H309 0.950 . S
C275 N271 1.383 . S
C275 C274 1.439 . S
C275 C304 1.392 . S
N276 Co270 2.008 . S
N276 C277 1.376 . S
N276 C280 1.374 . S
C277 N276 1.376 . S
C277 C278 1.443 . S
C277 C304 1.389 . S
C278 C277 1.443 . S
C278 C279 1.340 . S
C278 H310 0.951 . S
C279 C278 1.340 . S
C279 C280 1.439 . S
C279 H311 0.950 . S
C280 N276 1.374 . S
C280 C279 1.439 . S
C280 C305 1.395 . S
N281 Co270 1.995 . S
N281 C282 1.376 . S
N281 C285 1.383 . S
C282 N281 1.376 . S
C282 C283 1.446 . S
C282 C305 1.391 . S
C283 C282 1.446 . S
C283 C284 1.339 . S
C283 H312 0.949 . S
C284 C283 1.339 . S
C284 C285 1.439 . S
C284 H313 0.950 . S
C285 N281 1.383 . S
C285 C284 1.439 . S
C285 C303 1.392 . S
N286 Co270 2.282 . S
N286 C289 1.332 . S
N286 C291 1.332 . S
C287 C288 1.386 . S
C287 C290 1.388 . S
C288 C287 1.386 . S
C288 C289 1.382 . S
C288 H314 0.950 . S
C289 N286 1.332 . S
C289 C288 1.382 . S
C289 H300 0.952 . S
C290 C287 1.388 . S
C290 C291 1.382 . S
C290 H315 0.950 . S
C291 N286 1.332 . S
C291 C290 1.382 . S
C291 H301 0.948 . S
N292 Co270 2.282 . S
N292 C296 1.332 . S
N292 C297 1.332 . S
C293 C294 1.388 . S
C293 C297 1.382 . S
C293 H316 0.950 . S
C294 C293 1.388 . S
C294 C295 1.386 . S
C295 C294 1.386 . S
C295 C296 1.382 . S
C295 H317 0.950 . S
C296 N292 1.332 . S
C296 C295 1.382 . S
C296 H298 0.952 . S
C297 N292 1.332 . S
C297 C293 1.382 . S
C297 H299 0.948 . S
H298 C296 0.952 . S
H299 C297 0.948 . S
H300 C289 0.952 . S
H301 C291 0.948 . S
C302 C268 1.395 . S
C302 C272 1.391 . S
C303 C265 1.389 . S
C303 C285 1.392 . S
C304 C275 1.392 . S
C304 C277 1.389 . S
C305 C280 1.395 . S
C305 C282 1.391 . S
H306 C266 0.951 . S
H307 C267 0.950 . S
H308 C273 0.949 . S
H309 C274 0.950 . S
H310 C278 0.951 . S
H311 C279 0.950 . S
H312 C283 0.949 . S
H313 C284 0.950 . S
H314 C288 0.950 . S
H315 C290 0.950 . S
H316 C293 0.950 . S
H317 C295 0.950 . S
C318 C319 1.443 . S
C318 N322 1.376 . S
C318 C356 1.389 . S
C319 C318 1.443 . S
C319 C320 1.340 . S
C319 H359 0.951 . S
C320 C319 1.340 . S
C320 C321 1.439 . S
C320 H360 0.950 . S
C321 C320 1.439 . S
C321 N322 1.374 . S
C321 C355 1.395 . S
N322 C318 1.376 . S
N322 C321 1.374 . S
N322 Co323 2.008 . S
Co323 N322 2.008 . S
Co323 N324 1.995 . S
Co323 N329 2.008 . S
Co323 N334 1.995 . S
Co323 N339 2.282 . S
Co323 N345 2.282 . S
N324 Co323 1.995 . S
N324 C325 1.376 . S
N324 C328 1.383 . S
C325 N324 1.376 . S
C325 C326 1.446 . S
C325 C355 1.391 . S
C326 C325 1.446 . S
C326 C327 1.339 . S
C326 H361 0.949 . S
C327 C326 1.339 . S
C327 C328 1.439 . S
C327 H362 0.950 . S
C328 N324 1.383 . S
C328 C327 1.439 . S
C328 C357 1.392 . S
N329 Co323 2.008 . S
N329 C330 1.376 . S
N329 C333 1.374 . S
C330 N329 1.376 . S
C330 C331 1.443 . S
C330 C357 1.389 . S
C331 C330 1.443 . S
C331 C332 1.340 . S
C331 H363 0.951 . S
C332 C331 1.340 . S
C332 C333 1.439 . S
C332 H364 0.950 . S
C333 N329 1.374 . S
C333 C332 1.439 . S
C333 C358 1.395 . S
N334 Co323 1.995 . S
N334 C335 1.376 . S
N334 C338 1.383 . S
C335 N334 1.376 . S
C335 C336 1.446 . S
C335 C358 1.391 . S
C336 C335 1.446 . S
C336 C337 1.339 . S
C336 H365 0.949 . S
C337 C336 1.339 . S
C337 C338 1.439 . S
C337 H366 0.950 . S
C338 N334 1.383 . S
C338 C337 1.439 . S
C338 C356 1.392 . S
N339 Co323 2.282 . S
N339 C342 1.332 . S
N339 C344 1.332 . S
C340 C341 1.386 . S
C340 C343 1.388 . S
C341 C340 1.386 . S
C341 C342 1.382 . S
C341 H367 0.950 . S
C342 N339 1.332 . S
C342 C341 1.382 . S
C342 H353 0.952 . S
C343 C340 1.388 . S
C343 C344 1.382 . S
C343 H368 0.950 . S
C344 N339 1.332 . S
C344 C343 1.382 . S
C344 H354 0.948 . S
N345 Co323 2.282 . S
N345 C349 1.332 . S
N345 C350 1.332 . S
C346 C347 1.388 . S
C346 C350 1.382 . S
C346 H369 0.950 . S
C347 C346 1.388 . S
C347 C348 1.386 . S
C348 C347 1.386 . S
C348 C349 1.382 . S
C348 H370 0.950 . S
C349 N345 1.332 . S
C349 C348 1.382 . S
C349 H351 0.952 . S
C350 N345 1.332 . S
C350 C346 1.382 . S
C350 H352 0.948 . S
H351 C349 0.952 . S
H352 C350 0.948 . S
H353 C342 0.952 . S
H354 C344 0.948 . S
C355 C321 1.395 . S
C355 C325 1.391 . S
C356 C318 1.389 . S
C356 C338 1.392 . S
C357 C328 1.392 . S
C357 C330 1.389 . S
C358 C333 1.395 . S
C358 C335 1.391 . S
H359 C319 0.951 . S
H360 C320 0.950 . S
H361 C326 0.949 . S
H362 C327 0.950 . S
H363 C331 0.951 . S
H364 C332 0.950 . S
H365 C336 0.949 . S
H366 C337 0.950 . S
H367 C341 0.950 . S
H368 C343 0.950 . S
H369 C346 0.950 . S
H370 C348 0.950 . S
C371 C372 1.443 . S
C371 N375 1.376 . S
C371 C409 1.389 . S
C372 C371 1.443 . S
C372 C373 1.340 . S
C372 H412 0.951 . S
C373 C372 1.340 . S
C373 C374 1.439 . S
C373 H413 0.950 . S
C374 C373 1.439 . S
C374 N375 1.374 . S
C374 C408 1.395 . S
N375 C371 1.376 . S
N375 C374 1.374 . S
N375 Co376 2.008 . S
Co376 N375 2.008 . S
Co376 N377 1.995 . S
Co376 N382 2.008 . S
Co376 N387 1.995 . S
Co376 N392 2.282 . S
Co376 N398 2.282 . S
N377 Co376 1.995 . S
N377 C378 1.376 . S
N377 C381 1.383 . S
C378 N377 1.376 . S
C378 C379 1.446 . S
C378 C408 1.391 . S
C379 C378 1.446 . S
C379 C380 1.339 . S
C379 H414 0.949 . S
C380 C379 1.339 . S
C380 C381 1.439 . S
C380 H415 0.950 . S
C381 N377 1.383 . S
C381 C380 1.439 . S
C381 C410 1.392 . S
N382 Co376 2.008 . S
N382 C383 1.376 . S
N382 C386 1.374 . S
C383 N382 1.376 . S
C383 C384 1.443 . S
C383 C410 1.389 . S
C384 C383 1.443 . S
C384 C385 1.340 . S
C384 H416 0.951 . S
C385 C384 1.340 . S
C385 C386 1.439 . S
C385 H417 0.950 . S
C386 N382 1.374 . S
C386 C385 1.439 . S
C386 C411 1.395 . S
N387 Co376 1.995 . S
N387 C388 1.376 . S
N387 C391 1.383 . S
C388 N387 1.376 . S
C388 C389 1.446 . S
C388 C411 1.391 . S
C389 C388 1.446 . S
C389 C390 1.339 . S
C389 H418 0.949 . S
C390 C389 1.339 . S
C390 C391 1.439 . S
C390 H419 0.950 . S
C391 N387 1.383 . S
C391 C390 1.439 . S
C391 C409 1.392 . S
N392 Co376 2.282 . S
N392 C395 1.332 . S
N392 C397 1.332 . S
C393 C394 1.386 . S
C393 C396 1.388 . S
C394 C393 1.386 . S
C394 C395 1.382 . S
C394 H420 0.950 . S
C395 N392 1.332 . S
C395 C394 1.382 . S
C395 H406 0.952 . S
C396 C393 1.388 . S
C396 C397 1.382 . S
C396 H421 0.950 . S
C397 N392 1.332 . S
C397 C396 1.382 . S
C397 H407 0.948 . S
N398 Co376 2.282 . S
N398 C402 1.332 . S
N398 C403 1.332 . S
C399 C400 1.388 . S
C399 C403 1.382 . S
C399 H422 0.950 . S
C400 C399 1.388 . S
C400 C401 1.386 . S
C401 C400 1.386 . S
C401 C402 1.382 . S
C401 H423 0.950 . S
C402 N398 1.332 . S
C402 C401 1.382 . S
C402 H404 0.952 . S
C403 N398 1.332 . S
C403 C399 1.382 . S
C403 H405 0.948 . S
H404 C402 0.952 . S
H405 C403 0.948 . S
H406 C395 0.952 . S
H407 C397 0.948 . S
C408 C374 1.395 . S
C408 C378 1.391 . S
C409 C371 1.389 . S
C409 C391 1.392 . S
C410 C381 1.392 . S
C410 C383 1.389 . S
C411 C386 1.395 . S
C411 C388 1.391 . S
H412 C372 0.951 . S
H413 C373 0.950 . S
H414 C379 0.949 . S
H415 C380 0.950 . S
H416 C384 0.951 . S
H417 C385 0.950 . S
H418 C389 0.949 . S
H419 C390 0.950 . S
H420 C394 0.950 . S
H421 C396 0.950 . S
H422 C399 0.950 . S
H423 C401 0.950 . S
C424 C425 1.443 . S
C424 N428 1.376 . S
C424 C462 1.389 . S
C425 C424 1.443 . S
C425 C426 1.340 . S
C425 H465 0.951 . S
C426 C425 1.340 . S
C426 C427 1.439 . S
C426 H466 0.950 . S
C427 C426 1.439 . S
C427 N428 1.374 . S
C427 C461 1.395 . S
N428 C424 1.376 . S
N428 C427 1.374 . S
N428 Co429 2.008 . S
Co429 N428 2.008 . S
Co429 N430 1.995 . S
Co429 N435 2.008 . S
Co429 N440 1.995 . S
Co429 N445 2.282 . S
Co429 N451 2.282 . S
N430 Co429 1.995 . S
N430 C431 1.376 . S
N430 C434 1.383 . S
C431 N430 1.376 . S
C431 C432 1.446 . S
C431 C461 1.391 . S
C432 C431 1.446 . S
C432 C433 1.339 . S
C432 H467 0.949 . S
C433 C432 1.339 . S
C433 C434 1.439 . S
C433 H468 0.950 . S
C434 N430 1.383 . S
C434 C433 1.439 . S
C434 C463 1.392 . S
N435 Co429 2.008 . S
N435 C436 1.376 . S
N435 C439 1.374 . S
C436 N435 1.376 . S
C436 C437 1.443 . S
C436 C463 1.389 . S
C437 C436 1.443 . S
C437 C438 1.340 . S
C437 H469 0.951 . S
C438 C437 1.340 . S
C438 C439 1.439 . S
C438 H470 0.950 . S
C439 N435 1.374 . S
C439 C438 1.439 . S
C439 C464 1.395 . S
N440 Co429 1.995 . S
N440 C441 1.376 . S
N440 C444 1.383 . S
C441 N440 1.376 . S
C441 C442 1.446 . S
C441 C464 1.391 . S
C442 C441 1.446 . S
C442 C443 1.339 . S
C442 H471 0.949 . S
C443 C442 1.339 . S
C443 C444 1.439 . S
C443 H472 0.950 . S
C444 N440 1.383 . S
C444 C443 1.439 . S
C444 C462 1.392 . S
N445 Co429 2.282 . S
N445 C448 1.332 . S
N445 C450 1.332 . S
C446 C447 1.386 . S
C446 C449 1.388 . S
C447 C446 1.386 . S
C447 C448 1.382 . S
C447 H473 0.950 . S
C448 N445 1.332 . S
C448 C447 1.382 . S
C448 H459 0.952 . S
C449 C446 1.388 . S
C449 C450 1.382 . S
C449 H474 0.950 . S
C450 N445 1.332 . S
C450 C449 1.382 . S
C450 H460 0.948 . S
N451 Co429 2.282 . S
N451 C455 1.332 . S
N451 C456 1.332 . S
C452 C453 1.388 . S
C452 C456 1.382 . S
C452 H475 0.950 . S
C453 C452 1.388 . S
C453 C454 1.386 . S
C454 C453 1.386 . S
C454 C455 1.382 . S
C454 H476 0.950 . S
C455 N451 1.332 . S
C455 C454 1.382 . S
C455 H457 0.952 . S
C456 N451 1.332 . S
C456 C452 1.382 . S
C456 H458 0.948 . S
H457 C455 0.952 . S
H458 C456 0.948 . S
H459 C448 0.952 . S
H460 C450 0.948 . S
C461 C427 1.395 . S
C461 C431 1.391 . S
C462 C424 1.389 . S
C462 C444 1.392 . S
C463 C434 1.392 . S
C463 C436 1.389 . S
C464 C439 1.395 . S
C464 C441 1.391 . S
H465 C425 0.951 . S
H466 C426 0.950 . S
H467 C432 0.949 . S
H468 C433 0.950 . S
H469 C437 0.951 . S
H470 C438 0.950 . S
H471 C442 0.949 . S
H472 C443 0.950 . S
H473 C447 0.950 . S
H474 C449 0.950 . S
H475 C452 0.950 . S
H476 C454 0.950 . S
C477 C478 1.443 . S
C477 N481 1.376 . S
C477 C515 1.389 . S
C478 C477 1.443 . S
C478 C479 1.340 . S
C478 H518 0.951 . S
C479 C478 1.340 . S
C479 C480 1.439 . S
C479 H519 0.950 . S
C480 C479 1.439 . S
C480 N481 1.374 . S
C480 C514 1.395 . S
N481 C477 1.376 . S
N481 C480 1.374 . S
N481 Co482 2.008 . S
Co482 N481 2.008 . S
Co482 N483 1.995 . S
Co482 N488 2.008 . S
Co482 N493 1.995 . S
Co482 N498 2.282 . S
Co482 N504 2.282 . S
N483 Co482 1.995 . S
N483 C484 1.376 . S
N483 C487 1.383 . S
C484 N483 1.376 . S
C484 C485 1.446 . S
C484 C514 1.391 . S
C485 C484 1.446 . S
C485 C486 1.339 . S
C485 H520 0.949 . S
C486 C485 1.339 . S
C486 C487 1.439 . S
C486 H521 0.950 . S
C487 N483 1.383 . S
C487 C486 1.439 . S
C487 C516 1.392 . S
N488 Co482 2.008 . S
N488 C489 1.376 . S
N488 C492 1.374 . S
C489 N488 1.376 . S
C489 C490 1.443 . S
C489 C516 1.389 . S
C490 C489 1.443 . S
C490 C491 1.340 . S
C490 H522 0.951 . S
C491 C490 1.340 . S
C491 C492 1.439 . S
C491 H523 0.950 . S
C492 N488 1.374 . S
C492 C491 1.439 . S
C492 C517 1.395 . S
N493 Co482 1.995 . S
N493 C494 1.376 . S
N493 C497 1.383 . S
C494 N493 1.376 . S
C494 C495 1.446 . S
C494 C517 1.391 . S
C495 C494 1.446 . S
C495 C496 1.339 . S
C495 H524 0.949 . S
C496 C495 1.339 . S
C496 C497 1.439 . S
C496 H525 0.950 . S
C497 N493 1.383 . S
C497 C496 1.439 . S
C497 C515 1.392 . S
N498 Co482 2.282 . S
N498 C501 1.332 . S
N498 C503 1.332 . S
C499 C500 1.386 . S
C499 C502 1.388 . S
C500 C499 1.386 . S
C500 C501 1.382 . S
C500 H526 0.950 . S
C501 N498 1.332 . S
C501 C500 1.382 . S
C501 H512 0.952 . S
C502 C499 1.388 . S
C502 C503 1.382 . S
C502 H527 0.950 . S
C503 N498 1.332 . S
C503 C502 1.382 . S
C503 H513 0.948 . S
N504 Co482 2.282 . S
N504 C508 1.332 . S
N504 C509 1.332 . S
C505 C506 1.388 . S
C505 C509 1.382 . S
C505 H528 0.950 . S
C506 C505 1.388 . S
C506 C507 1.386 . S
C507 C506 1.386 . S
C507 C508 1.382 . S
C507 H529 0.950 . S
C508 N504 1.332 . S
C508 C507 1.382 . S
C508 H510 0.952 . S
C509 N504 1.332 . S
C509 C505 1.382 . S
C509 H511 0.948 . S
H510 C508 0.952 . S
H511 C509 0.948 . S
H512 C501 0.952 . S
H513 C503 0.948 . S
C514 C480 1.395 . S
C514 C484 1.391 . S
C515 C477 1.389 . S
C515 C497 1.392 . S
C516 C487 1.392 . S
C516 C489 1.389 . S
C517 C492 1.395 . S
C517 C494 1.391 . S
H518 C478 0.951 . S
H519 C479 0.950 . S
H520 C485 0.949 . S
H521 C486 0.950 . S
H522 C490 0.951 . S
H523 C491 0.950 . S
H524 C495 0.949 . S
H525 C496 0.950 . S
H526 C500 0.950 . S
H527 C502 0.950 . S
H528 C505 0.950 . S
H529 C507 0.950 . S
C530 C531 1.443 . S
C530 N534 1.376 . S
C530 C568 1.389 . S
C531 C530 1.443 . S
C531 C532 1.340 . S
C531 H571 0.951 . S
C532 C531 1.340 . S
C532 C533 1.439 . S
C532 H572 0.950 . S
C533 C532 1.439 . S
C533 N534 1.374 . S
C533 C567 1.395 . S
N534 C530 1.376 . S
N534 C533 1.374 . S
N534 Co535 2.008 . S
Co535 N534 2.008 . S
Co535 N536 1.995 . S
Co535 N541 2.008 . S
Co535 N546 1.995 . S
Co535 N551 2.282 . S
Co535 N557 2.282 . S
N536 Co535 1.995 . S
N536 C537 1.376 . S
N536 C540 1.383 . S
C537 N536 1.376 . S
C537 C538 1.446 . S
C537 C567 1.391 . S
C538 C537 1.446 . S
C538 C539 1.339 . S
C538 H573 0.949 . S
C539 C538 1.339 . S
C539 C540 1.439 . S
C539 H574 0.950 . S
C540 N536 1.383 . S
C540 C539 1.439 . S
C540 C569 1.392 . S
N541 Co535 2.008 . S
N541 C542 1.376 . S
N541 C545 1.374 . S
C542 N541 1.376 . S
C542 C543 1.443 . S
C542 C569 1.389 . S
C543 C542 1.443 . S
C543 C544 1.340 . S
C543 H575 0.951 . S
C544 C543 1.340 . S
C544 C545 1.439 . S
C544 H576 0.950 . S
C545 N541 1.374 . S
C545 C544 1.439 . S
C545 C570 1.395 . S
N546 Co535 1.995 . S
N546 C547 1.376 . S
N546 C550 1.383 . S
C547 N546 1.376 . S
C547 C548 1.446 . S
C547 C570 1.391 . S
C548 C547 1.446 . S
C548 C549 1.339 . S
C548 H577 0.949 . S
C549 C548 1.339 . S
C549 C550 1.439 . S
C549 H578 0.950 . S
C550 N546 1.383 . S
C550 C549 1.439 . S
C550 C568 1.392 . S
N551 Co535 2.282 . S
N551 C554 1.332 . S
N551 C556 1.332 . S
C552 C553 1.386 . S
C552 C555 1.388 . S
C553 C552 1.386 . S
C553 C554 1.382 . S
C553 H579 0.950 . S
C554 N551 1.332 . S
C554 C553 1.382 . S
C554 H565 0.952 . S
C555 C552 1.388 . S
C555 C556 1.382 . S
C555 H580 0.950 . S
C556 N551 1.332 . S
C556 C555 1.382 . S
C556 H566 0.948 . S
N557 Co535 2.282 . S
N557 C561 1.332 . S
N557 C562 1.332 . S
C558 C559 1.388 . S
C558 C562 1.382 . S
C558 H581 0.950 . S
C559 C558 1.388 . S
C559 C560 1.386 . S
C560 C559 1.386 . S
C560 C561 1.382 . S
C560 H582 0.950 . S
C561 N557 1.332 . S
C561 C560 1.382 . S
C561 H563 0.952 . S
C562 N557 1.332 . S
C562 C558 1.382 . S
C562 H564 0.948 . S
H563 C561 0.952 . S
H564 C562 0.948 . S
H565 C554 0.952 . S
H566 C556 0.948 . S
C567 C533 1.395 . S
C567 C537 1.391 . S
C568 C530 1.389 . S
C568 C550 1.392 . S
C569 C540 1.392 . S
C569 C542 1.389 . S
C570 C545 1.395 . S
C570 C547 1.391 . S
H571 C531 0.951 . S
H572 C532 0.950 . S
H573 C538 0.949 . S
H574 C539 0.950 . S
H575 C543 0.951 . S
H576 C544 0.950 . S
H577 C548 0.949 . S
H578 C549 0.950 . S
H579 C553 0.950 . S
H580 C555 0.950 . S
H581 C558 0.950 . S
H582 C560 0.950 . S
C583 C584 1.443 . S
C583 N587 1.376 . S
C583 C621 1.389 . S
C584 C583 1.443 . S
C584 C585 1.340 . S
C584 H624 0.951 . S
C585 C584 1.340 . S
C585 C586 1.439 . S
C585 H625 0.950 . S
C586 C585 1.439 . S
C586 N587 1.374 . S
C586 C620 1.395 . S
N587 C583 1.376 . S
N587 C586 1.374 . S
N587 Co588 2.008 . S
Co588 N587 2.008 . S
Co588 N589 1.995 . S
Co588 N594 2.008 . S
Co588 N599 1.995 . S
Co588 N604 2.282 . S
Co588 N610 2.282 . S
N589 Co588 1.995 . S
N589 C590 1.376 . S
N589 C593 1.383 . S
C590 N589 1.376 . S
C590 C591 1.446 . S
C590 C620 1.391 . S
C591 C590 1.446 . S
C591 C592 1.339 . S
C591 H626 0.949 . S
C592 C591 1.339 . S
C592 C593 1.439 . S
C592 H627 0.950 . S
C593 N589 1.383 . S
C593 C592 1.439 . S
C593 C622 1.392 . S
N594 Co588 2.008 . S
N594 C595 1.376 . S
N594 C598 1.374 . S
C595 N594 1.376 . S
C595 C596 1.443 . S
C595 C622 1.389 . S
C596 C595 1.443 . S
C596 C597 1.340 . S
C596 H628 0.951 . S
C597 C596 1.340 . S
C597 C598 1.439 . S
C597 H629 0.950 . S
C598 N594 1.374 . S
C598 C597 1.439 . S
C598 C623 1.395 . S
N599 Co588 1.995 . S
N599 C600 1.376 . S
N599 C603 1.383 . S
C600 N599 1.376 . S
C600 C601 1.446 . S
C600 C623 1.391 . S
C601 C600 1.446 . S
C601 C602 1.339 . S
C601 H630 0.949 . S
C602 C601 1.339 . S
C602 C603 1.439 . S
C602 H631 0.950 . S
C603 N599 1.383 . S
C603 C602 1.439 . S
C603 C621 1.392 . S
N604 Co588 2.282 . S
N604 C607 1.332 . S
N604 C609 1.332 . S
C605 C606 1.386 . S
C605 C608 1.388 . S
C606 C605 1.386 . S
C606 C607 1.382 . S
C606 H632 0.950 . S
C607 N604 1.332 . S
C607 C606 1.382 . S
C607 H618 0.952 . S
C608 C605 1.388 . S
C608 C609 1.382 . S
C608 H633 0.950 . S
C609 N604 1.332 . S
C609 C608 1.382 . S
C609 H619 0.948 . S
N610 Co588 2.282 . S
N610 C614 1.332 . S
N610 C615 1.332 . S
C611 C612 1.388 . S
C611 C615 1.382 . S
C611 H634 0.950 . S
C612 C611 1.388 . S
C612 C613 1.386 . S
C613 C612 1.386 . S
C613 C614 1.382 . S
C613 H635 0.950 . S
C614 N610 1.332 . S
C614 C613 1.382 . S
C614 H616 0.952 . S
C615 N610 1.332 . S
C615 C611 1.382 . S
C615 H617 0.948 . S
H616 C614 0.952 . S
H617 C615 0.948 . S
H618 C607 0.952 . S
H619 C609 0.948 . S
C620 C586 1.395 . S
C620 C590 1.391 . S
C621 C583 1.389 . S
C621 C603 1.392 . S
C622 C593 1.392 . S
C622 C595 1.389 . S
C623 C598 1.395 . S
C623 C600 1.391 . S
H624 C584 0.951 . S
H625 C585 0.950 . S
H626 C591 0.949 . S
H627 C592 0.950 . S
H628 C596 0.951 . S
H629 C597 0.950 . S
H630 C601 0.949 . S
H631 C602 0.950 . S
H632 C606 0.950 . S
H633 C608 0.950 . S
H634 C611 0.950 . S
H635 C613 0.950 . S
C636 C637 1.443 . S
C636 N640 1.376 . S
C636 C674 1.389 . S
C637 C636 1.443 . S
C637 C638 1.340 . S
C637 H677 0.951 . S
C638 C637 1.340 . S
C638 C639 1.439 . S
C638 H678 0.950 . S
C639 C638 1.439 . S
C639 N640 1.374 . S
C639 C673 1.395 . S
N640 C636 1.376 . S
N640 C639 1.374 . S
N640 Co641 2.008 . S
Co641 N640 2.008 . S
Co641 N642 1.995 . S
Co641 N647 2.008 . S
Co641 N652 1.995 . S
Co641 N657 2.282 . S
Co641 N663 2.282 . S
N642 Co641 1.995 . S
N642 C643 1.376 . S
N642 C646 1.383 . S
C643 N642 1.376 . S
C643 C644 1.446 . S
C643 C673 1.391 . S
C644 C643 1.446 . S
C644 C645 1.339 . S
C644 H679 0.949 . S
C645 C644 1.339 . S
C645 C646 1.439 . S
C645 H680 0.950 . S
C646 N642 1.383 . S
C646 C645 1.439 . S
C646 C675 1.392 . S
N647 Co641 2.008 . S
N647 C648 1.376 . S
N647 C651 1.374 . S
C648 N647 1.376 . S
C648 C649 1.443 . S
C648 C675 1.389 . S
C649 C648 1.443 . S
C649 C650 1.340 . S
C649 H681 0.951 . S
C650 C649 1.340 . S
C650 C651 1.439 . S
C650 H682 0.950 . S
C651 N647 1.374 . S
C651 C650 1.439 . S
C651 C676 1.395 . S
N652 Co641 1.995 . S
N652 C653 1.376 . S
N652 C656 1.383 . S
C653 N652 1.376 . S
C653 C654 1.446 . S
C653 C676 1.391 . S
C654 C653 1.446 . S
C654 C655 1.339 . S
C654 H683 0.949 . S
C655 C654 1.339 . S
C655 C656 1.439 . S
C655 H684 0.950 . S
C656 N652 1.383 . S
C656 C655 1.439 . S
C656 C674 1.392 . S
N657 Co641 2.282 . S
N657 C660 1.332 . S
N657 C662 1.332 . S
C658 C659 1.386 . S
C658 C661 1.388 . S
C659 C658 1.386 . S
C659 C660 1.382 . S
C659 H685 0.950 . S
C660 N657 1.332 . S
C660 C659 1.382 . S
C660 H671 0.952 . S
C661 C658 1.388 . S
C661 C662 1.382 . S
C661 H686 0.950 . S
C662 N657 1.332 . S
C662 C661 1.382 . S
C662 H672 0.948 . S
N663 Co641 2.282 . S
N663 C667 1.332 . S
N663 C668 1.332 . S
C664 C665 1.388 . S
C664 C668 1.382 . S
C664 H687 0.950 . S
C665 C664 1.388 . S
C665 C666 1.386 . S
C666 C665 1.386 . S
C666 C667 1.382 . S
C666 H688 0.950 . S
C667 N663 1.332 . S
C667 C666 1.382 . S
C667 H669 0.952 . S
C668 N663 1.332 . S
C668 C664 1.382 . S
C668 H670 0.948 . S
H669 C667 0.952 . S
H670 C668 0.948 . S
H671 C660 0.952 . S
H672 C662 0.948 . S
C673 C639 1.395 . S
C673 C643 1.391 . S
C674 C636 1.389 . S
C674 C656 1.392 . S
C675 C646 1.392 . S
C675 C648 1.389 . S
C676 C651 1.395 . S
C676 C653 1.391 . S
H677 C637 0.951 . S
H678 C638 0.950 . S
H679 C644 0.949 . S
H680 C645 0.950 . S
H681 C649 0.951 . S
H682 C650 0.950 . S
H683 C654 0.949 . S
H684 C655 0.950 . S
H685 C659 0.950 . S
H686 C661 0.950 . S
H687 C664 0.950 . S
H688 C666 0.950 . S
C689 C690 1.443 . S
C689 N693 1.376 . S
C689 C727 1.389 . S
C690 C689 1.443 . S
C690 C691 1.340 . S
C690 H730 0.951 . S
C691 C690 1.340 . S
C691 C692 1.439 . S
C691 H731 0.950 . S
C692 C691 1.439 . S
C692 N693 1.374 . S
C692 C726 1.395 . S
N693 C689 1.376 . S
N693 C692 1.374 . S
N693 Co694 2.008 . S
Co694 N693 2.008 . S
Co694 N695 1.995 . S
Co694 N700 2.008 . S
Co694 N705 1.995 . S
Co694 N710 2.282 . S
Co694 N716 2.282 . S
N695 Co694 1.995 . S
N695 C696 1.376 . S
N695 C699 1.383 . S
C696 N695 1.376 . S
C696 C697 1.446 . S
C696 C726 1.391 . S
C697 C696 1.446 . S
C697 C698 1.339 . S
C697 H732 0.949 . S
C698 C697 1.339 . S
C698 C699 1.439 . S
C698 H733 0.950 . S
C699 N695 1.383 . S
C699 C698 1.439 . S
C699 C728 1.392 . S
N700 Co694 2.008 . S
N700 C701 1.376 . S
N700 C704 1.374 . S
C701 N700 1.376 . S
C701 C702 1.443 . S
C701 C728 1.389 . S
C702 C701 1.443 . S
C702 C703 1.340 . S
C702 H734 0.951 . S
C703 C702 1.340 . S
C703 C704 1.439 . S
C703 H735 0.950 . S
C704 N700 1.374 . S
C704 C703 1.439 . S
C704 C729 1.395 . S
N705 Co694 1.995 . S
N705 C706 1.376 . S
N705 C709 1.383 . S
C706 N705 1.376 . S
C706 C707 1.446 . S
C706 C729 1.391 . S
C707 C706 1.446 . S
C707 C708 1.339 . S
C707 H736 0.949 . S
C708 C707 1.339 . S
C708 C709 1.439 . S
C708 H737 0.950 . S
C709 N705 1.383 . S
C709 C708 1.439 . S
C709 C727 1.392 . S
N710 Co694 2.282 . S
N710 C713 1.332 . S
N710 C715 1.332 . S
C711 C712 1.386 . S
C711 C714 1.388 . S
C712 C711 1.386 . S
C712 C713 1.382 . S
C712 H738 0.950 . S
C713 N710 1.332 . S
C713 C712 1.382 . S
C713 H724 0.952 . S
C714 C711 1.388 . S
C714 C715 1.382 . S
C714 H739 0.950 . S
C715 N710 1.332 . S
C715 C714 1.382 . S
C715 H725 0.948 . S
N716 Co694 2.282 . S
N716 C720 1.332 . S
N716 C721 1.332 . S
C717 C718 1.388 . S
C717 C721 1.382 . S
C717 H740 0.950 . S
C718 C717 1.388 . S
C718 C719 1.386 . S
C719 C718 1.386 . S
C719 C720 1.382 . S
C719 H741 0.950 . S
C720 N716 1.332 . S
C720 C719 1.382 . S
C720 H722 0.952 . S
C721 N716 1.332 . S
C721 C717 1.382 . S
C721 H723 0.948 . S
H722 C720 0.952 . S
H723 C721 0.948 . S
H724 C713 0.952 . S
H725 C715 0.948 . S
C726 C692 1.395 . S
C726 C696 1.391 . S
C727 C689 1.389 . S
C727 C709 1.392 . S
C728 C699 1.392 . S
C728 C701 1.389 . S
C729 C704 1.395 . S
C729 C706 1.391 . S
H730 C690 0.951 . S
H731 C691 0.950 . S
H732 C697 0.949 . S
H733 C698 0.950 . S
H734 C702 0.951 . S
H735 C703 0.950 . S
H736 C707 0.949 . S
H737 C708 0.950 . S
H738 C712 0.950 . S
H739 C714 0.950 . S
H740 C717 0.950 . S
H741 C719 0.950 . S
C742 C743 1.443 . S
C742 N746 1.376 . S
C742 C780 1.389 . S
C743 C742 1.443 . S
C743 C744 1.340 . S
C743 H783 0.951 . S
C744 C743 1.340 . S
C744 C745 1.439 . S
C744 H784 0.950 . S
C745 C744 1.439 . S
C745 N746 1.374 . S
C745 C779 1.395 . S
N746 C742 1.376 . S
N746 C745 1.374 . S
N746 Co747 2.008 . S
Co747 N746 2.008 . S
Co747 N748 1.995 . S
Co747 N753 2.008 . S
Co747 N758 1.995 . S
Co747 N763 2.282 . S
Co747 N769 2.282 . S
N748 Co747 1.995 . S
N748 C749 1.376 . S
N748 C752 1.383 . S
C749 N748 1.376 . S
C749 C750 1.446 . S
C749 C779 1.391 . S
C750 C749 1.446 . S
C750 C751 1.339 . S
C750 H785 0.949 . S
C751 C750 1.339 . S
C751 C752 1.439 . S
C751 H786 0.950 . S
C752 N748 1.383 . S
C752 C751 1.439 . S
C752 C781 1.392 . S
N753 Co747 2.008 . S
N753 C754 1.376 . S
N753 C757 1.374 . S
C754 N753 1.376 . S
C754 C755 1.443 . S
C754 C781 1.389 . S
C755 C754 1.443 . S
C755 C756 1.340 . S
C755 H787 0.951 . S
C756 C755 1.340 . S
C756 C757 1.439 . S
C756 H788 0.950 . S
C757 N753 1.374 . S
C757 C756 1.439 . S
C757 C782 1.395 . S
N758 Co747 1.995 . S
N758 C759 1.376 . S
N758 C762 1.383 . S
C759 N758 1.376 . S
C759 C760 1.446 . S
C759 C782 1.391 . S
C760 C759 1.446 . S
C760 C761 1.339 . S
C760 H789 0.949 . S
C761 C760 1.339 . S
C761 C762 1.439 . S
C761 H790 0.950 . S
C762 N758 1.383 . S
C762 C761 1.439 . S
C762 C780 1.392 . S
N763 Co747 2.282 . S
N763 C766 1.332 . S
N763 C768 1.332 . S
C764 C765 1.386 . S
C764 C767 1.388 . S
C765 C764 1.386 . S
C765 C766 1.382 . S
C765 H791 0.950 . S
C766 N763 1.332 . S
C766 C765 1.382 . S
C766 H777 0.952 . S
C767 C764 1.388 . S
C767 C768 1.382 . S
C767 H792 0.950 . S
C768 N763 1.332 . S
C768 C767 1.382 . S
C768 H778 0.948 . S
N769 Co747 2.282 . S
N769 C773 1.332 . S
N769 C774 1.332 . S
C770 C771 1.388 . S
C770 C774 1.382 . S
C770 H793 0.950 . S
C771 C770 1.388 . S
C771 C772 1.386 . S
C772 C771 1.386 . S
C772 C773 1.382 . S
C772 H794 0.950 . S
C773 N769 1.332 . S
C773 C772 1.382 . S
C773 H775 0.952 . S
C774 N769 1.332 . S
C774 C770 1.382 . S
C774 H776 0.948 . S
H775 C773 0.952 . S
H776 C774 0.948 . S
H777 C766 0.952 . S
H778 C768 0.948 . S
C779 C745 1.395 . S
C779 C749 1.391 . S
C780 C742 1.389 . S
C780 C762 1.392 . S
C781 C752 1.392 . S
C781 C754 1.389 . S
C782 C757 1.395 . S
C782 C759 1.391 . S
H783 C743 0.951 . S
H784 C744 0.950 . S
H785 C750 0.949 . S
H786 C751 0.950 . S
H787 C755 0.951 . S
H788 C756 0.950 . S
H789 C760 0.949 . S
H790 C761 0.950 . S
H791 C765 0.950 . S
H792 C767 0.950 . S
H793 C770 0.950 . S
H794 C772 0.950 . S
C795 C796 1.443 . S
C795 N799 1.376 . S
C795 C833 1.389 . S
C796 C795 1.443 . S
C796 C797 1.340 . S
C796 H836 0.951 . S
C797 C796 1.340 . S
C797 C798 1.439 . S
C797 H837 0.950 . S
C798 C797 1.439 . S
C798 N799 1.374 . S
C798 C832 1.395 . S
N799 C795 1.376 . S
N799 C798 1.374 . S
N799 Co800 2.008 . S
Co800 N799 2.008 . S
Co800 N801 1.995 . S
Co800 N806 2.008 . S
Co800 N811 1.995 . S
Co800 N816 2.282 . S
Co800 N822 2.282 . S
N801 Co800 1.995 . S
N801 C802 1.376 . S
N801 C805 1.383 . S
C802 N801 1.376 . S
C802 C803 1.446 . S
C802 C832 1.391 . S
C803 C802 1.446 . S
C803 C804 1.339 . S
C803 H838 0.949 . S
C804 C803 1.339 . S
C804 C805 1.439 . S
C804 H839 0.950 . S
C805 N801 1.383 . S
C805 C804 1.439 . S
C805 C834 1.392 . S
N806 Co800 2.008 . S
N806 C807 1.376 . S
N806 C810 1.374 . S
C807 N806 1.376 . S
C807 C808 1.443 . S
C807 C834 1.389 . S
C808 C807 1.443 . S
C808 C809 1.340 . S
C808 H840 0.951 . S
C809 C808 1.340 . S
C809 C810 1.439 . S
C809 H841 0.950 . S
C810 N806 1.374 . S
C810 C809 1.439 . S
C810 C835 1.395 . S
N811 Co800 1.995 . S
N811 C812 1.376 . S
N811 C815 1.383 . S
C812 N811 1.376 . S
C812 C813 1.446 . S
C812 C835 1.391 . S
C813 C812 1.446 . S
C813 C814 1.339 . S
C813 H842 0.949 . S
C814 C813 1.339 . S
C814 C815 1.439 . S
C814 H843 0.950 . S
C815 N811 1.383 . S
C815 C814 1.439 . S
C815 C833 1.392 . S
N816 Co800 2.282 . S
N816 C819 1.332 . S
N816 C821 1.332 . S
C817 C818 1.386 . S
C817 C820 1.388 . S
C818 C817 1.386 . S
C818 C819 1.382 . S
C818 H844 0.950 . S
C819 N816 1.332 . S
C819 C818 1.382 . S
C819 H830 0.952 . S
C820 C817 1.388 . S
C820 C821 1.382 . S
C820 H845 0.950 . S
C821 N816 1.332 . S
C821 C820 1.382 . S
C821 H831 0.948 . S
N822 Co800 2.282 . S
N822 C826 1.332 . S
N822 C827 1.332 . S
C823 C824 1.388 . S
C823 C827 1.382 . S
C823 H846 0.950 . S
C824 C823 1.388 . S
C824 C825 1.386 . S
C825 C824 1.386 . S
C825 C826 1.382 . S
C825 H847 0.950 . S
C826 N822 1.332 . S
C826 C825 1.382 . S
C826 H828 0.952 . S
C827 N822 1.332 . S
C827 C823 1.382 . S
C827 H829 0.948 . S
H828 C826 0.952 . S
H829 C827 0.948 . S
H830 C819 0.952 . S
H831 C821 0.948 . S
C832 C798 1.395 . S
C832 C802 1.391 . S
C833 C795 1.389 . S
C833 C815 1.392 . S
C834 C805 1.392 . S
C834 C807 1.389 . S
C835 C810 1.395 . S
C835 C812 1.391 . S
H836 C796 0.951 . S
H837 C797 0.950 . S
H838 C803 0.949 . S
H839 C804 0.950 . S
H840 C808 0.951 . S
H841 C809 0.950 . S
H842 C813 0.949 . S
H843 C814 0.950 . S
H844 C818 0.950 . S
H845 C820 0.950 . S
H846 C823 0.950 . S
H847 C825 0.950 . S
C848 C849 1.391 . S
C848 C850 1.394 . S
C848 H864 0.931 . S
C849 C848 1.391 . S
C849 C853 1.376 . S
C850 C848 1.394 . S
C850 C851 1.369 . S
C850 C854 1.531 . S
C851 C850 1.369 . S
C851 C852 1.410 . S
C851 C859 1.503 . S
C852 C851 1.410 . S
C852 C853 1.392 . S
C852 C855 1.511 . S
C853 C849 1.376 . S
C853 C852 1.392 . S
C853 H865 0.929 . S
C854 C850 1.531 . S
C854 H866 0.960 . S
C854 H867 0.962 . S
C854 H868 0.960 . S
C855 C852 1.511 . S
C855 H869 0.961 . S
C855 H870 0.961 . S
C855 H871 0.961 . S
C856 C857 1.370 . S
C856 C858 1.363 . S
C856 H872 0.931 . S
C857 C856 1.370 . S
C857 C861 1.408 . S
C858 C856 1.363 . S
C858 C859 1.370 . S
C858 C862 1.524 . S
C859 C851 1.503 . S
C859 C858 1.370 . S
C859 C860 1.403 . S
C860 C859 1.403 . S
C860 C861 1.404 . S
C860 C863 1.539 . S
C861 C857 1.408 . S
C861 C860 1.404 . S
C861 H873 0.930 . S
C862 C858 1.524 . S
C862 H874 0.956 . S
C862 H875 0.961 . S
C862 H876 0.961 . S
C863 C860 1.539 . S
C863 H877 0.958 . S
C863 H878 0.961 . S
C863 H879 0.960 . S
H864 C848 0.931 . S
H865 C853 0.929 . S
H866 C854 0.960 . S
H867 C854 0.962 . S
H868 C854 0.960 . S
H869 C855 0.961 . S
H870 C855 0.961 . S
H871 C855 0.961 . S
H872 C856 0.931 . S
H873 C861 0.930 . S
H874 C862 0.956 . S
H875 C862 0.961 . S
H876 C862 0.961 . S
H877 C863 0.958 . S
H878 C863 0.961 . S
H879 C863 0.960 . S
C880 C881 1.391 . S
C880 C882 1.394 . S
C880 H896 0.931 . S
C881 C880 1.391 . S
C881 C885 1.376 . S
C882 C880 1.394 . S
C882 C883 1.369 . S
C882 C886 1.531 . S
C883 C882 1.369 . S
C883 C884 1.410 . S
C883 C891 1.503 . S
C884 C883 1.410 . S
C884 C885 1.392 . S
C884 C887 1.511 . S
C885 C881 1.376 . S
C885 C884 1.392 . S
C885 H897 0.929 . S
C886 C882 1.531 . S
C886 H898 0.960 . S
C886 H899 0.962 . S
C886 H900 0.960 . S
C887 C884 1.511 . S
C887 H901 0.961 . S
C887 H902 0.961 . S
C887 H903 0.961 . S
C888 C889 1.370 . S
C888 C890 1.363 . S
C888 H904 0.931 . S
C889 C888 1.370 . S
C889 C893 1.408 . S
C890 C888 1.363 . S
C890 C891 1.370 . S
C890 C894 1.524 . S
C891 C883 1.503 . S
C891 C890 1.370 . S
C891 C892 1.403 . S
C892 C891 1.403 . S
C892 C893 1.404 . S
C892 C895 1.539 . S
C893 C889 1.408 . S
C893 C892 1.404 . S
C893 H905 0.930 . S
C894 C890 1.524 . S
C894 H906 0.956 . S
C894 H907 0.961 . S
C894 H908 0.961 . S
C895 C892 1.539 . S
C895 H909 0.958 . S
C895 H910 0.961 . S
C895 H911 0.960 . S
H896 C880 0.931 . S
H897 C885 0.929 . S
H898 C886 0.960 . S
H899 C886 0.962 . S
H900 C886 0.960 . S
H901 C887 0.961 . S
H902 C887 0.961 . S
H903 C887 0.961 . S
H904 C888 0.931 . S
H905 C893 0.930 . S
H906 C894 0.956 . S
H907 C894 0.961 . S
H908 C894 0.961 . S
H909 C895 0.958 . S
H910 C895 0.961 . S
H911 C895 0.960 . S
C912 C913 1.391 . S
C912 C914 1.394 . S
C912 H928 0.931 . S
C913 C912 1.391 . S
C913 C917 1.376 . S
C914 C912 1.394 . S
C914 C915 1.369 . S
C914 C918 1.531 . S
C915 C914 1.369 . S
C915 C916 1.410 . S
C915 C923 1.503 1_554 S
C916 C915 1.410 . S
C916 C917 1.392 . S
C916 C919 1.511 . S
C917 C913 1.376 . S
C917 C916 1.392 . S
C917 H929 0.929 . S
C918 C914 1.531 . S
C918 H930 0.960 1_554 S
C918 H931 0.962 . S
C918 H932 0.960 . S
C919 C916 1.511 . S
C919 H933 0.961 . S
C919 H934 0.961 1_554 S
C919 H935 0.961 . S
C920 C921 1.370 . S
C920 C922 1.363 . S
C920 H936 0.931 . S
C921 C920 1.370 . S
C921 C925 1.408 . S
C922 C920 1.363 . S
C922 C923 1.370 . S
C922 C926 1.524 . S
C923 C915 1.503 1_556 S
C923 C922 1.370 . S
C923 C924 1.403 . S
C924 C923 1.403 . S
C924 C925 1.404 . S
C924 C927 1.539 . S
C925 C921 1.408 . S
C925 C924 1.404 . S
C925 H937 0.930 . S
C926 C922 1.524 . S
C926 H938 0.984 . S
C926 H939 0.961 1_556 S
C926 H940 0.961 . S
C927 C924 1.539 . S
C927 H941 0.958 . S
C927 H942 0.961 . S
C927 H943 0.970 . S
H928 C912 0.931 . S
H929 C917 0.929 . S
H930 C918 0.960 1_556 S
H931 C918 0.962 . S
H932 C918 0.960 . S
H933 C919 0.961 . S
H934 C919 0.961 1_556 S
H935 C919 0.961 . S
H936 C920 0.931 . S
H937 C925 0.930 . S
H938 C926 0.984 . S
H939 C926 0.961 1_554 S
H940 C926 0.961 . S
H941 C927 0.958 . S
H942 C927 0.961 . S
H943 C927 0.970 . S
C944 C945 1.391 . S
C944 C946 1.394 . S
C944 H960 0.931 . S
C945 C944 1.391 . S
C945 C949 1.376 . S
C946 C944 1.394 . S
C946 C947 1.369 . S
C946 C950 1.531 . S
C947 C946 1.369 . S
C947 C948 1.410 . S
C947 C955 1.503 1_556 S
C948 C947 1.410 . S
C948 C949 1.392 . S
C948 C951 1.511 . S
C949 C945 1.376 . S
C949 C948 1.392 . S
C949 H961 0.929 . S
C950 C946 1.531 . S
C950 H962 0.960 1_556 S
C950 H963 0.962 . S
C950 H964 0.960 . S
C951 C948 1.511 . S
C951 H965 0.961 . S
C951 H966 0.961 1_556 S
C951 H967 0.961 . S
C952 C953 1.370 . S
C952 C954 1.363 . S
C952 H968 0.931 . S
C953 C952 1.370 . S
C953 C957 1.408 . S
C954 C952 1.363 . S
C954 C955 1.370 . S
C954 C958 1.524 . S
C955 C947 1.503 1_554 S
C955 C954 1.370 . S
C955 C956 1.403 . S
C956 C955 1.403 . S
C956 C957 1.404 . S
C956 C959 1.539 . S
C957 C953 1.408 . S
C957 C956 1.404 . S
C957 H969 0.930 . S
C958 C954 1.524 . S
C958 H970 0.984 . S
C958 H971 0.961 1_554 S
C958 H972 0.961 . S
C959 C956 1.539 . S
C959 H973 0.958 . S
C959 H974 0.961 . S
C959 H975 0.970 . S
H960 C944 0.931 . S
H961 C949 0.929 . S
H962 C950 0.960 1_554 S
H963 C950 0.962 . S
H964 C950 0.960 . S
H965 C951 0.961 . S
H966 C951 0.961 1_554 S
H967 C951 0.961 . S
H968 C952 0.931 . S
H969 C957 0.930 . S
H970 C958 0.984 . S
H971 C958 0.961 1_556 S
H972 C958 0.961 . S
H973 C959 0.958 . S
H974 C959 0.961 . S
H975 C959 0.970 . S
C976 C977 1.391 . S
C976 C978 1.394 . S
C976 H992 0.931 . S
C977 C976 1.391 . S
C977 C981 1.376 . S
C978 C976 1.394 . S
C978 C979 1.369 . S
C978 C982 1.531 . S
C979 C978 1.369 . S
C979 C980 1.410 . S
C979 C987 1.503 . S
C980 C979 1.410 . S
C980 C981 1.392 . S
C980 C983 1.511 . S
C981 C977 1.376 . S
C981 C980 1.392 . S
C981 H993 0.929 . S
C982 C978 1.531 . S
C982 H994 0.960 . S
C982 H995 0.962 . S
C982 H996 0.960 . S
C983 C980 1.511 . S
C983 H997 0.961 . S
C983 H998 0.961 . S
C983 H999 0.961 . S
C984 C985 1.370 . S
C984 C986 1.363 . S
C984 H1000 0.931 . S
C985 C984 1.370 . S
C985 C989 1.408 . S
C986 C984 1.363 . S
C986 C987 1.370 . S
C986 C990 1.524 . S
C987 C979 1.503 . S
C987 C986 1.370 . S
C987 C988 1.403 . S
C988 C987 1.403 . S
C988 C989 1.404 . S
C988 C991 1.539 . S
C989 C985 1.408 . S
C989 C988 1.404 . S
C989 H1001 0.930 . S
C990 C986 1.524 . S
C990 H1002 0.956 . S
C990 H1003 0.961 . S
C990 H1004 0.961 . S
C991 C988 1.539 . S
C991 H1005 0.958 . S
C991 H1006 0.961 . S
C991 H1007 0.960 . S
H992 C976 0.931 . S
H993 C981 0.929 . S
H994 C982 0.960 . S
H995 C982 0.962 . S
H996 C982 0.960 . S
H997 C983 0.961 . S
H998 C983 0.961 . S
H999 C983 0.961 . S
H1000 C984 0.931 . S
H1001 C989 0.930 . S
H1002 C990 0.956 . S
H1003 C990 0.961 . S
H1004 C990 0.961 . S
H1005 C991 0.958 . S
H1006 C991 0.961 . S
H1007 C991 0.960 . S
C1008 C1009 1.391 . S
C1008 C1010 1.394 . S
C1008 H1024 0.931 . S
C1009 C1008 1.391 . S
C1009 C1013 1.376 . S
C1010 C1008 1.394 . S
C1010 C1011 1.369 . S
C1010 C1014 1.531 . S
C1011 C1010 1.369 . S
C1011 C1012 1.410 . S
C1011 C1019 1.503 . S
C1012 C1011 1.410 . S
C1012 C1013 1.392 . S
C1012 C1015 1.511 . S
C1013 C1009 1.376 . S
C1013 C1012 1.392 . S
C1013 H1025 0.929 . S
C1014 C1010 1.531 . S
C1014 H1026 0.960 . S
C1014 H1027 0.962 . S
C1014 H1028 0.960 . S
C1015 C1012 1.511 . S
C1015 H1029 0.961 . S
C1015 H1030 0.961 . S
C1015 H1031 0.961 . S
C1016 C1017 1.370 . S
C1016 C1018 1.363 . S
C1016 H1032 0.931 . S
C1017 C1016 1.370 . S
C1017 C1021 1.408 . S
C1018 C1016 1.363 . S
C1018 C1019 1.370 . S
C1018 C1022 1.524 . S
C1019 C1011 1.503 . S
C1019 C1018 1.370 . S
C1019 C1020 1.403 . S
C1020 C1019 1.403 . S
C1020 C1021 1.404 . S
C1020 C1023 1.539 . S
C1021 C1017 1.408 . S
C1021 C1020 1.404 . S
C1021 H1033 0.930 . S
C1022 C1018 1.524 . S
C1022 H1034 0.956 . S
C1022 H1035 0.961 . S
C1022 H1036 0.961 . S
C1023 C1020 1.539 . S
C1023 H1037 0.958 . S
C1023 H1038 0.961 . S
C1023 H1039 0.960 . S
H1024 C1008 0.931 . S
H1025 C1013 0.929 . S
H1026 C1014 0.960 . S
H1027 C1014 0.962 . S
H1028 C1014 0.960 . S
H1029 C1015 0.961 . S
H1030 C1015 0.961 . S
H1031 C1015 0.961 . S
H1032 C1016 0.931 . S
H1033 C1021 0.930 . S
H1034 C1022 0.956 . S
H1035 C1022 0.961 . S
H1036 C1022 0.961 . S
H1037 C1023 0.958 . S
H1038 C1023 0.961 . S
H1039 C1023 0.960 . S
C1040 C1041 1.391 . S
C1040 C1042 1.394 . S
C1040 H1056 0.931 . S
C1041 C1040 1.391 . S
C1041 C1045 1.376 . S
C1042 C1040 1.394 . S
C1042 C1043 1.369 . S
C1042 C1046 1.531 . S
C1043 C1042 1.369 . S
C1043 C1044 1.410 . S
C1043 C1051 1.503 1_556 S
C1044 C1043 1.410 . S
C1044 C1045 1.392 . S
C1044 C1047 1.511 . S
C1045 C1041 1.376 . S
C1045 C1044 1.392 . S
C1045 H1057 0.929 . S
C1046 C1042 1.531 . S
C1046 H1058 0.960 1_556 S
C1046 H1059 0.962 . S
C1046 H1060 0.960 . S
C1047 C1044 1.511 . S
C1047 H1061 0.961 . S
C1047 H1062 0.961 1_556 S
C1047 H1063 0.961 . S
C1048 C1049 1.370 . S
C1048 C1050 1.363 . S
C1048 H1064 0.931 . S
C1049 C1048 1.370 . S
C1049 C1053 1.408 . S
C1050 C1048 1.363 . S
C1050 C1051 1.370 . S
C1050 C1054 1.524 . S
C1051 C1043 1.503 1_554 S
C1051 C1050 1.370 . S
C1051 C1052 1.403 . S
C1052 C1051 1.403 . S
C1052 C1053 1.404 . S
C1052 C1055 1.539 . S
C1053 C1049 1.408 . S
C1053 C1052 1.404 . S
C1053 H1065 0.930 . S
C1054 C1050 1.524 . S
C1054 H1066 0.984 . S
C1054 H1067 0.961 1_554 S
C1054 H1068 0.961 . S
C1055 C1052 1.539 . S
C1055 H1069 0.958 . S
C1055 H1070 0.961 . S
C1055 H1071 0.970 . S
H1056 C1040 0.931 . S
H1057 C1045 0.929 . S
H1058 C1046 0.960 1_554 S
H1059 C1046 0.962 . S
H1060 C1046 0.960 . S
H1061 C1047 0.961 . S
H1062 C1047 0.961 1_554 S
H1063 C1047 0.961 . S
H1064 C1048 0.931 . S
H1065 C1053 0.930 . S
H1066 C1054 0.984 . S
H1067 C1054 0.961 1_556 S
H1068 C1054 0.961 . S
H1069 C1055 0.958 . S
H1070 C1055 0.961 . S
H1071 C1055 0.970 . S
C1072 C1073 1.391 . S
C1072 C1074 1.394 . S
C1072 H1088 0.931 . S
C1073 C1072 1.391 . S
C1073 C1077 1.376 . S
C1074 C1072 1.394 . S
C1074 C1075 1.369 . S
C1074 C1078 1.531 . S
C1075 C1074 1.369 . S
C1075 C1076 1.410 . S
C1075 C1083 1.503 1_554 S
C1076 C1075 1.410 . S
C1076 C1077 1.392 . S
C1076 C1079 1.511 . S
C1077 C1073 1.376 . S
C1077 C1076 1.392 . S
C1077 H1089 0.929 . S
C1078 C1074 1.531 . S
C1078 H1090 0.960 1_554 S
C1078 H1091 0.962 . S
C1078 H1092 0.960 . S
C1079 C1076 1.511 . S
C1079 H1093 0.961 . S
C1079 H1094 0.961 1_554 S
C1079 H1095 0.961 . S
C1080 C1081 1.370 . S
C1080 C1082 1.363 . S
C1080 H1096 0.931 . S
C1081 C1080 1.370 . S
C1081 C1085 1.408 . S
C1082 C1080 1.363 . S
C1082 C1083 1.370 . S
C1082 C1086 1.524 . S
C1083 C1075 1.503 1_556 S
C1083 C1082 1.370 . S
C1083 C1084 1.403 . S
C1084 C1083 1.403 . S
C1084 C1085 1.404 . S
C1084 C1087 1.539 . S
C1085 C1081 1.408 . S
C1085 C1084 1.404 . S
C1085 H1097 0.930 . S
C1086 C1082 1.524 . S
C1086 H1098 0.984 . S
C1086 H1099 0.961 1_556 S
C1086 H1100 0.961 . S
C1087 C1084 1.539 . S
C1087 H1101 0.958 . S
C1087 H1102 0.961 . S
C1087 H1103 0.970 . S
H1088 C1072 0.931 . S
H1089 C1077 0.929 . S
H1090 C1078 0.960 1_556 S
H1091 C1078 0.962 . S
H1092 C1078 0.960 . S
H1093 C1079 0.961 . S
H1094 C1079 0.961 1_556 S
H1095 C1079 0.961 . S
H1096 C1080 0.931 . S
H1097 C1085 0.930 . S
H1098 C1086 0.984 . S
H1099 C1086 0.961 1_554 S
H1100 C1086 0.961 . S
H1101 C1087 0.958 . S
H1102 C1087 0.961 . S
H1103 C1087 0.970 . S
C1104 C1105 1.391 . S
C1104 C1106 1.394 . S
C1104 H1120 0.931 . S
C1105 C1104 1.391 . S
C1105 C1109 1.376 . S
C1106 C1104 1.394 . S
C1106 C1107 1.369 . S
C1106 C1110 1.531 . S
C1107 C1106 1.369 . S
C1107 C1108 1.410 . S
C1107 C1115 1.503 1_565 S
C1108 C1107 1.410 . S
C1108 C1109 1.392 . S
C1108 C1111 1.511 1_565 S
C1109 C1105 1.376 . S
C1109 C1108 1.392 . S
C1109 H1121 0.929 . S
C1110 C1106 1.531 . S
C1110 H1122 0.960 . S
C1110 H1123 0.962 . S
C1110 H1124 0.960 . S
C1111 C1108 1.511 1_545 S
C1111 H1125 0.961 . S
C1111 H1126 0.961 . S
C1111 H1127 0.961 1_545 S
C1112 C1113 1.370 . S
C1112 C1114 1.363 . S
C1112 H1128 0.931 . S
C1113 C1112 1.370 . S
C1113 C1117 1.408 1_545 S
C1114 C1112 1.363 . S
C1114 C1115 1.370 . S
C1114 C1118 1.524 . S
C1115 C1107 1.503 1_545 S
C1115 C1114 1.370 . S
C1115 C1116 1.403 1_545 S
C1116 C1115 1.403 1_565 S
C1116 C1117 1.404 . S
C1116 C1119 1.539 . S
C1117 C1113 1.408 1_565 S
C1117 C1116 1.404 . S
C1117 H1129 0.930 . S
C1118 C1114 1.524 . S
C1118 H1130 0.956 . S
C1118 H1131 0.961 . S
C1118 H1132 0.961 . S
C1119 C1116 1.539 . S
C1119 H1133 0.958 . S
C1119 H1134 0.961 . S
C1119 H1135 0.960 . S
H1120 C1104 0.931 . S
H1121 C1109 0.929 . S
H1122 C1110 0.960 . S
H1123 C1110 0.962 . S
H1124 C1110 0.960 . S
H1125 C1111 0.961 . S
H1126 C1111 0.961 . S
H1127 C1111 0.961 1_565 S
H1128 C1112 0.931 . S
H1129 C1117 0.930 . S
H1130 C1118 0.956 . S
H1131 C1118 0.961 . S
H1132 C1118 0.961 . S
H1133 C1119 0.958 . S
H1134 C1119 0.961 . S
H1135 C1119 0.960 . S
C1136 C1137 1.391 . S
C1136 C1138 1.394 1_565 S
C1136 H1152 0.929 1_565 S
C1137 C1136 1.391 . S
C1137 C1141 1.376 . S
C1138 C1136 1.394 1_545 S
C1138 C1139 1.361 1_545 S
C1138 C1142 1.531 . S
C1139 C1138 1.361 1_565 S
C1139 C1140 1.430 . S
C1139 C1147 1.494 1_565 S
C1140 C1139 1.430 . S
C1140 C1141 1.392 . S
C1140 C1143 1.511 . S
C1141 C1137 1.376 . S
C1141 C1140 1.392 . S
C1141 H1153 0.929 . S
C1142 C1138 1.531 . S
C1142 H1154 0.960 . S
C1142 H1155 0.962 . S
C1142 H1156 0.960 . S
C1143 C1140 1.511 . S
C1143 H1157 0.961 . S
C1143 H1158 0.961 . S
C1143 H1159 0.961 . S
C1144 C1145 1.370 . S
C1144 C1146 1.363 1_545 S
C1144 H1160 0.931 1_545 S
C1145 C1144 1.370 . S
C1145 C1149 1.408 . S
C1146 C1144 1.363 1_565 S
C1146 C1147 1.370 1_565 S
C1146 C1150 1.524 . S
C1147 C1139 1.494 1_545 S
C1147 C1146 1.370 1_545 S
C1147 C1148 1.403 . S
C1148 C1147 1.403 . S
C1148 C1149 1.404 . S
C1148 C1151 1.539 . S
C1149 C1145 1.408 . S
C1149 C1148 1.404 . S
C1149 H1161 0.930 . S
C1150 C1146 1.524 . S
C1150 H1162 0.956 . S
C1150 H1163 0.961 . S
C1150 H1164 0.961 . S
C1151 C1148 1.539 . S
C1151 H1165 0.958 . S
C1151 H1166 0.961 . S
C1151 H1167 0.960 . S
H1152 C1136 0.929 1_545 S
H1153 C1141 0.929 . S
H1154 C1142 0.960 . S
H1155 C1142 0.962 . S
H1156 C1142 0.960 . S
H1157 C1143 0.961 . S
H1158 C1143 0.961 . S
H1159 C1143 0.961 . S
H1160 C1144 0.931 1_565 S
H1161 C1149 0.930 . S
H1162 C1150 0.956 . S
H1163 C1150 0.961 . S
H1164 C1150 0.961 . S
H1165 C1151 0.958 . S
H1166 C1151 0.961 . S
H1167 C1151 0.960 . S
C1168 C1169 1.391 . S
C1168 C1170 1.394 . S
C1168 H1184 0.931 . S
C1169 C1168 1.391 . S
C1169 C1173 1.376 . S
C1170 C1168 1.394 . S
C1170 C1171 1.369 . S
C1170 C1174 1.531 . S
C1171 C1170 1.369 . S
C1171 C1172 1.410 . S
C1171 C1179 1.503 1_565 S
C1172 C1171 1.410 . S
C1172 C1173 1.392 . S
C1172 C1175 1.511 1_565 S
C1173 C1169 1.376 . S
C1173 C1172 1.392 . S
C1173 H1185 0.929 . S
C1174 C1170 1.531 . S
C1174 H1186 0.960 . S
C1174 H1187 0.962 . S
C1174 H1188 0.960 . S
C1175 C1172 1.511 1_545 S
C1175 H1189 0.961 . S
C1175 H1190 0.961 . S
C1175 H1191 0.961 . S
C1176 C1177 1.370 . S
C1176 C1178 1.363 . S
C1176 H1192 0.931 . S
C1177 C1176 1.370 . S
C1177 C1181 1.408 . S
C1178 C1176 1.363 . S
C1178 C1179 1.370 . S
C1178 C1182 1.524 . S
C1179 C1171 1.503 1_545 S
C1179 C1178 1.370 . S
C1179 C1180 1.403 1_545 S
C1180 C1179 1.403 1_565 S
C1180 C1181 1.404 1_565 S
C1180 C1183 1.539 . S
C1181 C1177 1.408 . S
C1181 C1180 1.404 1_545 S
C1181 H1193 0.930 1_545 S
C1182 C1178 1.524 . S
C1182 H1194 0.956 . S
C1182 H1195 0.961 . S
C1182 H1196 0.961 . S
C1183 C1180 1.539 . S
C1183 H1197 0.958 . S
C1183 H1198 0.961 . S
C1183 H1199 0.960 . S
H1184 C1168 0.931 . S
H1185 C1173 0.929 . S
H1186 C1174 0.960 . S
H1187 C1174 0.962 . S
H1188 C1174 0.960 . S
H1189 C1175 0.961 . S
H1190 C1175 0.961 . S
H1191 C1175 0.961 . S
H1192 C1176 0.931 . S
H1193 C1181 0.930 1_565 S
H1194 C1182 0.956 . S
H1195 C1182 0.961 . S
H1196 C1182 0.961 . S
H1197 C1183 0.958 . S
H1198 C1183 0.961 . S
H1199 C1183 0.960 . S
C1200 C1201 1.391 1_565 S
C1200 C1202 1.394 . S
C1200 H1216 0.931 . S
C1201 C1200 1.391 1_545 S
C1201 C1205 1.376 . S
C1202 C1200 1.394 . S
C1202 C1203 1.369 1_565 S
C1202 C1206 1.531 . S
C1203 C1202 1.369 1_545 S
C1203 C1204 1.410 . S
C1203 C1211 1.503 1_545 S
C1204 C1203 1.410 . S
C1204 C1205 1.392 . S
C1204 C1207 1.511 . S
C1205 C1201 1.376 . S
C1205 C1204 1.392 . S
C1205 H1217 0.929 . S
C1206 C1202 1.531 . S
C1206 H1218 0.960 . S
C1206 H1219 0.962 . S
C1206 H1220 0.960 . S
C1207 C1204 1.511 . S
C1207 H1221 0.961 . S
C1207 H1222 0.961 . S
C1207 H1223 0.961 . S
C1208 C1209 1.370 . S
C1208 C1210 1.363 . S
C1208 H1224 0.931 . S
C1209 C1208 1.370 . S
C1209 C1213 1.408 . S
C1210 C1208 1.363 . S
C1210 C1211 1.370 . S
C1210 C1214 1.524 1_565 S
C1211 C1203 1.503 1_565 S
C1211 C1210 1.370 . S
C1211 C1212 1.403 . S
C1212 C1211 1.403 . S
C1212 C1213 1.404 . S
C1212 C1215 1.539 . S
C1213 C1209 1.408 . S
C1213 C1212 1.404 . S
C1213 H1225 0.930 . S
C1214 C1210 1.524 1_545 S
C1214 H1226 0.956 1_545 S
C1214 H1227 0.961 . S
C1214 H1228 0.961 . S
C1215 C1212 1.539 . S
C1215 H1229 0.958 . S
C1215 H1230 0.961 . S
C1215 H1231 0.960 . S
H1216 C1200 0.931 . S
H1217 C1205 0.929 . S
H1218 C1206 0.960 . S
H1219 C1206 0.962 . S
H1220 C1206 0.960 . S
H1221 C1207 0.961 . S
H1222 C1207 0.961 . S
H1223 C1207 0.961 . S
H1224 C1208 0.931 . S
H1225 C1213 0.930 . S
H1226 C1214 0.956 1_565 S
H1227 C1214 0.961 . S
H1228 C1214 0.961 . S
H1229 C1215 0.958 . S
H1230 C1215 0.961 . S
H1231 C1215 0.960 . S
C1232 C1233 1.391 . S
C1232 C1234 1.394 . S
C1232 H1248 0.931 . S
C1233 C1232 1.391 . S
C1233 C1237 1.376 . S
C1234 C1232 1.394 . S
C1234 C1235 1.369 . S
C1234 C1238 1.531 . S
C1235 C1234 1.369 . S
C1235 C1236 1.410 . S
C1235 C1243 1.503 1_655 S
C1236 C1235 1.410 . S
C1236 C1237 1.392 . S
C1236 C1239 1.511 1_655 S
C1237 C1233 1.376 . S
C1237 C1236 1.392 . S
C1237 H1249 0.929 . S
C1238 C1234 1.531 . S
C1238 H1250 0.960 . S
C1238 H1251 0.962 . S
C1238 H1252 0.960 . S
C1239 C1236 1.511 1_455 S
C1239 H1253 0.961 1_455 S
C1239 H1254 0.961 . S
C1239 H1255 0.961 . S
C1240 C1241 1.370 . S
C1240 C1242 1.363 . S
C1240 H1256 0.931 . S
C1241 C1240 1.370 . S
C1241 C1245 1.408 . S
C1242 C1240 1.363 . S
C1242 C1243 1.370 . S
C1242 C1246 1.524 . S
C1243 C1235 1.503 1_455 S
C1243 C1242 1.370 . S
C1243 C1244 1.403 . S
C1244 C1243 1.403 . S
C1244 C1245 1.404 . S
C1244 C1247 1.539 . S
C1245 C1241 1.408 . S
C1245 C1244 1.404 . S
C1245 H1257 0.930 . S
C1246 C1242 1.524 . S
C1246 H1258 0.999 . S
C1246 H1259 0.961 . S
C1246 H1260 0.961 . S
C1247 C1244 1.539 . S
C1247 H1261 0.959 . S
C1247 H1262 0.961 . S
C1247 H1263 0.960 1_455 S
H1248 C1232 0.931 . S
H1249 C1237 0.929 . S
H1250 C1238 0.960 . S
H1251 C1238 0.962 . S
H1252 C1238 0.960 . S
H1253 C1239 0.961 1_655 S
H1254 C1239 0.961 . S
H1255 C1239 0.961 . S
H1256 C1240 0.931 . S
H1257 C1245 0.930 . S
H1258 C1246 0.999 . S
H1259 C1246 0.961 . S
H1260 C1246 0.961 . S
H1261 C1247 0.959 . S
H1262 C1247 0.961 . S
H1263 C1247 0.960 1_655 S
C1264 C1265 1.391 . S
C1264 C1266 1.394 . S
C1264 H1280 0.931 . S
C1265 C1264 1.391 . S
C1265 C1269 1.376 . S
C1266 C1264 1.394 . S
C1266 C1267 1.369 . S
C1266 C1270 1.531 . S
C1267 C1266 1.369 . S
C1267 C1268 1.410 . S
C1267 C1275 1.503 1_455 S
C1268 C1267 1.410 . S
C1268 C1269 1.392 . S
C1268 C1271 1.511 . S
C1269 C1265 1.376 . S
C1269 C1268 1.392 . S
C1269 H1281 0.929 . S
C1270 C1266 1.531 . S
C1270 H1282 0.960 1_455 S
C1270 H1283 0.962 . S
C1270 H1284 0.960 . S
C1271 C1268 1.511 . S
C1271 H1285 0.961 . S
C1271 H1286 0.961 . S
C1271 H1287 0.961 . S
C1272 C1273 1.370 . S
C1272 C1274 1.363 . S
C1272 H1288 0.931 . S
C1273 C1272 1.370 . S
C1273 C1277 1.408 . S
C1274 C1272 1.363 . S
C1274 C1275 1.370 . S
C1274 C1278 1.524 1_655 S
C1275 C1267 1.503 1_655 S
C1275 C1274 1.370 . S
C1275 C1276 1.403 . S
C1276 C1275 1.403 . S
C1276 C1277 1.404 . S
C1276 C1279 1.539 . S
C1277 C1273 1.408 . S
C1277 C1276 1.404 . S
C1277 H1289 0.930 . S
C1278 C1274 1.524 1_455 S
C1278 H1290 0.956 . S
C1278 H1291 0.961 . S
C1278 H1292 0.976 . S
C1279 C1276 1.539 . S
C1279 H1293 0.958 . S
C1279 H1294 0.961 . S
C1279 H1295 0.960 . S
H1280 C1264 0.931 . S
H1281 C1269 0.929 . S
H1282 C1270 0.960 1_655 S
H1283 C1270 0.962 . S
H1284 C1270 0.960 . S
H1285 C1271 0.961 . S
H1286 C1271 0.961 . S
H1287 C1271 0.961 . S
H1288 C1272 0.931 . S
H1289 C1277 0.930 . S
H1290 C1278 0.956 . S
H1291 C1278 0.961 . S
H1292 C1278 0.976 . S
H1293 C1279 0.958 . S
H1294 C1279 0.961 . S
H1295 C1279 0.960 . S
C1296 C1297 1.391 . S
C1296 C1298 1.394 . S
C1296 H1312 0.931 . S
C1297 C1296 1.391 . S
C1297 C1301 1.376 . S
C1298 C1296 1.394 . S
C1298 C1299 1.369 . S
C1298 C1302 1.531 . S
C1299 C1298 1.369 . S
C1299 C1300 1.410 . S
C1299 C1307 1.503 1_655 S
C1300 C1299 1.410 . S
C1300 C1301 1.392 . S
C1300 C1303 1.511 1_655 S
C1301 C1297 1.376 . S
C1301 C1300 1.392 . S
C1301 H1313 0.929 . S
C1302 C1298 1.531 . S
C1302 H1314 0.960 . S
C1302 H1315 0.962 . S
C1302 H1316 0.960 . S
C1303 C1300 1.511 1_455 S
C1303 H1317 0.968 . S
C1303 H1318 0.961 . S
C1303 H1319 0.961 . S
C1304 C1305 1.370 . S
C1304 C1306 1.363 . S
C1304 H1320 0.931 . S
C1305 C1304 1.370 . S
C1305 C1309 1.408 . S
C1306 C1304 1.363 . S
C1306 C1307 1.370 . S
C1306 C1310 1.524 . S
C1307 C1299 1.503 1_455 S
C1307 C1306 1.370 . S
C1307 C1308 1.403 . S
C1308 C1307 1.403 . S
C1308 C1309 1.404 . S
C1308 C1311 1.539 . S
C1309 C1305 1.408 . S
C1309 C1308 1.404 . S
C1309 H1321 0.930 . S
C1310 C1306 1.524 . S
C1310 H1322 0.956 1_455 S
C1310 H1323 0.961 . S
C1310 H1324 0.961 . S
C1311 C1308 1.539 . S
C1311 H1325 0.958 . S
C1311 H1326 0.961 . S
C1311 H1327 0.964 1_455 S
H1312 C1296 0.931 . S
H1313 C1301 0.929 . S
H1314 C1302 0.960 . S
H1315 C1302 0.962 . S
H1316 C1302 0.960 . S
H1317 C1303 0.968 . S
H1318 C1303 0.961 . S
H1319 C1303 0.961 . S
H1320 C1304 0.931 . S
H1321 C1309 0.930 . S
H1322 C1310 0.956 1_655 S
H1323 C1310 0.961 . S
H1324 C1310 0.961 . S
H1325 C1311 0.958 . S
H1326 C1311 0.961 . S
H1327 C1311 0.964 1_655 S
C1328 C1329 1.391 . S
C1328 C1330 1.394 . S
C1328 H1344 0.931 . S
C1329 C1328 1.391 . S
C1329 C1333 1.376 . S
C1330 C1328 1.394 . S
C1330 C1331 1.369 . S
C1330 C1334 1.531 1_455 S
C1331 C1330 1.369 . S
C1331 C1332 1.410 . S
C1331 C1339 1.503 1_455 S
C1332 C1331 1.410 . S
C1332 C1333 1.392 . S
C1332 C1335 1.511 . S
C1333 C1329 1.376 . S
C1333 C1332 1.392 . S
C1333 H1345 0.929 . S
C1334 C1330 1.531 1_655 S
C1334 H1346 0.960 . S
C1334 H1347 0.962 . S
C1334 H1348 0.960 1_655 S
C1335 C1332 1.511 . S
C1335 H1349 0.961 . S
C1335 H1350 0.961 . S
C1335 H1351 0.961 . S
C1336 C1337 1.370 . S
C1336 C1338 1.363 . S
C1336 H1352 0.931 . S
C1337 C1336 1.370 . S
C1337 C1341 1.408 . S
C1338 C1336 1.363 . S
C1338 C1339 1.370 . S
C1338 C1342 1.524 . S
C1339 C1331 1.503 1_655 S
C1339 C1338 1.370 . S
C1339 C1340 1.403 . S
C1340 C1339 1.403 . S
C1340 C1341 1.404 . S
C1340 C1343 1.539 . S
C1341 C1337 1.408 . S
C1341 C1340 1.404 . S
C1341 H1353 0.930 . S
C1342 C1338 1.524 . S
C1342 H1354 0.956 . S
C1342 H1355 0.961 . S
C1342 H1356 0.961 . S
C1343 C1340 1.539 . S
C1343 H1357 0.958 . S
C1343 H1358 0.961 . S
C1343 H1359 0.960 1_655 S
H1344 C1328 0.931 . S
H1345 C1333 0.929 . S
H1346 C1334 0.960 . S
H1347 C1334 0.962 . S
H1348 C1334 0.960 1_455 S
H1349 C1335 0.961 . S
H1350 C1335 0.961 . S
H1351 C1335 0.961 . S
H1352 C1336 0.931 . S
H1353 C1341 0.930 . S
H1354 C1342 0.956 . S
H1355 C1342 0.961 . S
H1356 C1342 0.961 . S
H1357 C1343 0.958 . S
H1358 C1343 0.961 . S
H1359 C1343 0.960 1_455 S
C1360 C1361 1.391 . S
C1360 C1362 1.394 . S
C1360 H1376 0.931 . S
C1361 C1360 1.391 . S
C1361 C1365 1.376 . S
C1362 C1360 1.394 . S
C1362 C1363 1.369 . S
C1362 C1366 1.531 . S
C1363 C1362 1.369 . S
C1363 C1364 1.410 . S
C1363 C1371 1.503 . S
C1364 C1363 1.410 . S
C1364 C1365 1.392 . S
C1364 C1367 1.511 . S
C1365 C1361 1.376 . S
C1365 C1364 1.392 . S
C1365 H1377 0.929 . S
C1366 C1362 1.531 . S
C1366 H1378 0.960 . S
C1366 H1379 0.962 . S
C1366 H1380 0.960 . S
C1367 C1364 1.511 . S
C1367 H1381 0.961 . S
C1367 H1382 0.961 . S
C1367 H1383 0.961 . S
C1368 C1369 1.370 . S
C1368 C1370 1.363 . S
C1368 H1384 0.931 . S
C1369 C1368 1.370 . S
C1369 C1373 1.408 . S
C1370 C1368 1.363 . S
C1370 C1371 1.370 . S
C1370 C1374 1.524 . S
C1371 C1363 1.503 . S
C1371 C1370 1.370 . S
C1371 C1372 1.403 . S
C1372 C1371 1.403 . S
C1372 C1373 1.404 . S
C1372 C1375 1.539 . S
C1373 C1369 1.408 . S
C1373 C1372 1.404 . S
C1373 H1385 0.930 . S
C1374 C1370 1.524 . S
C1374 H1386 0.956 . S
C1374 H1387 0.961 . S
C1374 H1388 0.961 . S
C1375 C1372 1.539 . S
C1375 H1389 0.958 . S
C1375 H1390 0.961 . S
C1375 H1391 0.960 . S
H1376 C1360 0.931 . S
H1377 C1365 0.929 . S
H1378 C1366 0.960 . S
H1379 C1366 0.962 . S
H1380 C1366 0.960 . S
H1381 C1367 0.961 . S
H1382 C1367 0.961 . S
H1383 C1367 0.961 . S
H1384 C1368 0.931 . S
H1385 C1373 0.930 . S
H1386 C1374 0.956 . S
H1387 C1374 0.961 . S
H1388 C1374 0.961 . S
H1389 C1375 0.958 . S
H1390 C1375 0.961 . S
H1391 C1375 0.960 . S
C1392 C1393 1.391 . S
C1392 C1394 1.394 . S
C1392 H1408 0.931 . S
C1393 C1392 1.391 . S
C1393 C1397 1.376 . S
C1394 C1392 1.394 . S
C1394 C1395 1.369 . S
C1394 C1398 1.531 . S
C1395 C1394 1.369 . S
C1395 C1396 1.410 . S
C1395 C1403 1.503 . S
C1396 C1395 1.410 . S
C1396 C1397 1.392 . S
C1396 C1399 1.511 . S
C1397 C1393 1.376 . S
C1397 C1396 1.392 . S
C1397 H1409 0.929 . S
C1398 C1394 1.531 . S
C1398 H1410 0.960 . S
C1398 H1411 0.962 . S
C1398 H1412 0.960 . S
C1399 C1396 1.511 . S
C1399 H1413 0.961 . S
C1399 H1414 0.961 . S
C1399 H1415 0.961 . S
C1400 C1401 1.370 . S
C1400 C1402 1.363 . S
C1400 H1416 0.931 . S
C1401 C1400 1.370 . S
C1401 C1405 1.408 . S
C1402 C1400 1.363 . S
C1402 C1403 1.370 . S
C1402 C1406 1.524 . S
C1403 C1395 1.503 . S
C1403 C1402 1.370 . S
C1403 C1404 1.403 . S
C1404 C1403 1.403 . S
C1404 C1405 1.404 . S
C1404 C1407 1.539 . S
C1405 C1401 1.408 . S
C1405 C1404 1.404 . S
C1405 H1417 0.930 . S
C1406 C1402 1.524 . S
C1406 H1418 0.956 . S
C1406 H1419 0.961 . S
C1406 H1420 0.961 . S
C1407 C1404 1.539 . S
C1407 H1421 0.958 . S
C1407 H1422 0.961 . S
C1407 H1423 0.960 . S
H1408 C1392 0.931 . S
H1409 C1397 0.929 . S
H1410 C1398 0.960 . S
H1411 C1398 0.962 . S
H1412 C1398 0.960 . S
H1413 C1399 0.961 . S
H1414 C1399 0.961 . S
H1415 C1399 0.961 . S
H1416 C1400 0.931 . S
H1417 C1405 0.930 . S
H1418 C1406 0.956 . S
H1419 C1406 0.961 . S
H1420 C1406 0.961 . S
H1421 C1407 0.958 . S
H1422 C1407 0.961 . S
H1423 C1407 0.960 . S
C1424 C1425 1.391 . S
C1424 C1426 1.394 . S
C1424 H1440 0.931 . S
C1425 C1424 1.391 . S
C1425 C1429 1.376 . S
C1426 C1424 1.394 . S
C1426 C1427 1.369 . S
C1426 C1430 1.531 . S
C1427 C1426 1.369 . S
C1427 C1428 1.410 . S
C1427 C1435 1.503 . S
C1428 C1427 1.410 . S
C1428 C1429 1.392 . S
C1428 C1431 1.511 . S
C1429 C1425 1.376 . S
C1429 C1428 1.392 . S
C1429 H1441 0.929 . S
C1430 C1426 1.531 . S
C1430 H1442 0.960 . S
C1430 H1443 0.962 . S
C1430 H1444 0.960 . S
C1431 C1428 1.511 . S
C1431 H1445 0.961 . S
C1431 H1446 0.961 . S
C1431 H1447 0.961 . S
C1432 C1433 1.370 . S
C1432 C1434 1.363 . S
C1432 H1448 0.931 . S
C1433 C1432 1.370 . S
C1433 C1437 1.408 . S
C1434 C1432 1.363 . S
C1434 C1435 1.370 . S
C1434 C1438 1.524 . S
C1435 C1427 1.503 . S
C1435 C1434 1.370 . S
C1435 C1436 1.403 . S
C1436 C1435 1.403 . S
C1436 C1437 1.404 . S
C1436 C1439 1.539 . S
C1437 C1433 1.408 . S
C1437 C1436 1.404 . S
C1437 H1449 0.930 . S
C1438 C1434 1.524 . S
C1438 H1450 0.956 . S
C1438 H1451 0.961 . S
C1438 H1452 0.961 . S
C1439 C1436 1.539 . S
C1439 H1453 0.958 . S
C1439 H1454 0.961 . S
C1439 H1455 0.960 . S
H1440 C1424 0.931 . S
H1441 C1429 0.929 . S
H1442 C1430 0.960 . S
H1443 C1430 0.962 . S
H1444 C1430 0.960 . S
H1445 C1431 0.961 . S
H1446 C1431 0.961 . S
H1447 C1431 0.961 . S
H1448 C1432 0.931 . S
H1449 C1437 0.930 . S
H1450 C1438 0.956 . S
H1451 C1438 0.961 . S
H1452 C1438 0.961 . S
H1453 C1439 0.958 . S
H1454 C1439 0.961 . S
H1455 C1439 0.960 . S
C1456 C1457 1.391 . S
C1456 C1458 1.394 . S
C1456 H1472 0.931 . S
C1457 C1456 1.391 . S
C1457 C1461 1.376 . S
C1458 C1456 1.394 . S
C1458 C1459 1.369 . S
C1458 C1462 1.531 . S
C1459 C1458 1.369 . S
C1459 C1460 1.410 . S
C1459 C1467 1.503 . S
C1460 C1459 1.410 . S
C1460 C1461 1.392 . S
C1460 C1463 1.511 . S
C1461 C1457 1.376 . S
C1461 C1460 1.392 . S
C1461 H1473 0.929 . S
C1462 C1458 1.531 . S
C1462 H1474 0.960 . S
C1462 H1475 0.962 . S
C1462 H1476 0.960 . S
C1463 C1460 1.511 . S
C1463 H1477 0.961 . S
C1463 H1478 0.961 . S
C1463 H1479 0.961 . S
C1464 C1465 1.370 . S
C1464 C1466 1.363 . S
C1464 H1480 0.931 . S
C1465 C1464 1.370 . S
C1465 C1469 1.408 . S
C1466 C1464 1.363 . S
C1466 C1467 1.370 . S
C1466 C1470 1.524 . S
C1467 C1459 1.503 . S
C1467 C1466 1.370 . S
C1467 C1468 1.403 . S
C1468 C1467 1.403 . S
C1468 C1469 1.404 . S
C1468 C1471 1.539 . S
C1469 C1465 1.408 . S
C1469 C1468 1.404 . S
C1469 H1481 0.930 . S
C1470 C1466 1.524 . S
C1470 H1482 0.956 . S
C1470 H1483 0.961 . S
C1470 H1484 0.961 . S
C1471 C1468 1.539 . S
C1471 H1485 0.958 . S
C1471 H1486 0.961 . S
C1471 H1487 0.960 . S
H1472 C1456 0.931 . S
H1473 C1461 0.929 . S
H1474 C1462 0.960 . S
H1475 C1462 0.962 . S
H1476 C1462 0.960 . S
H1477 C1463 0.961 . S
H1478 C1463 0.961 . S
H1479 C1463 0.961 . S
H1480 C1464 0.931 . S
H1481 C1469 0.930 . S
H1482 C1470 0.956 . S
H1483 C1470 0.961 . S
H1484 C1470 0.961 . S
H1485 C1471 0.958 . S
H1486 C1471 0.961 . S
H1487 C1471 0.960 . S
C1488 C1489 1.391 . S
C1488 C1490 1.394 . S
C1488 H1504 0.931 . S
C1489 C1488 1.391 . S
C1489 C1493 1.376 . S
C1490 C1488 1.394 . S
C1490 C1491 1.369 . S
C1490 C1494 1.531 . S
C1491 C1490 1.369 . S
C1491 C1492 1.410 . S
C1491 C1499 1.503 . S
C1492 C1491 1.410 . S
C1492 C1493 1.392 . S
C1492 C1495 1.511 . S
C1493 C1489 1.376 . S
C1493 C1492 1.392 . S
C1493 H1505 0.929 . S
C1494 C1490 1.531 . S
C1494 H1506 0.960 . S
C1494 H1507 0.962 . S
C1494 H1508 0.960 . S
C1495 C1492 1.511 . S
C1495 H1509 0.961 . S
C1495 H1510 0.961 . S
C1495 H1511 0.961 . S
C1496 C1497 1.370 . S
C1496 C1498 1.363 . S
C1496 H1512 0.931 . S
C1497 C1496 1.370 . S
C1497 C1501 1.408 . S
C1498 C1496 1.363 . S
C1498 C1499 1.370 . S
C1498 C1502 1.524 . S
C1499 C1491 1.503 . S
C1499 C1498 1.370 . S
C1499 C1500 1.403 . S
C1500 C1499 1.403 . S
C1500 C1501 1.404 . S
C1500 C1503 1.539 . S
C1501 C1497 1.408 . S
C1501 C1500 1.404 . S
C1501 H1513 0.930 . S
C1502 C1498 1.524 . S
C1502 H1514 0.956 . S
C1502 H1515 0.961 . S
C1502 H1516 0.961 . S
C1503 C1500 1.539 . S
C1503 H1517 0.958 . S
C1503 H1518 0.961 . S
C1503 H1519 0.960 . S
H1504 C1488 0.931 . S
H1505 C1493 0.929 . S
H1506 C1494 0.960 . S
H1507 C1494 0.962 . S
H1508 C1494 0.960 . S
H1509 C1495 0.961 . S
H1510 C1495 0.961 . S
H1511 C1495 0.961 . S
H1512 C1496 0.931 . S
H1513 C1501 0.930 . S
H1514 C1502 0.956 . S
H1515 C1502 0.961 . S
H1516 C1502 0.961 . S
H1517 C1503 0.958 . S
H1518 C1503 0.961 . S
H1519 C1503 0.960 . S
C1520 C1521 1.391 . S
C1520 C1522 1.394 . S
C1520 H1536 0.931 . S
C1521 C1520 1.391 . S
C1521 C1525 1.376 . S
C1522 C1520 1.394 . S
C1522 C1523 1.369 . S
C1522 C1526 1.531 . S
C1523 C1522 1.369 . S
C1523 C1524 1.410 . S
C1523 C1531 1.503 . S
C1524 C1523 1.410 . S
C1524 C1525 1.392 . S
C1524 C1527 1.511 . S
C1525 C1521 1.376 . S
C1525 C1524 1.392 . S
C1525 H1537 0.929 . S
C1526 C1522 1.531 . S
C1526 H1538 0.960 . S
C1526 H1539 0.962 . S
C1526 H1540 0.960 . S
C1527 C1524 1.511 . S
C1527 H1541 0.961 . S
C1527 H1542 0.961 . S
C1527 H1543 0.961 . S
C1528 C1529 1.370 . S
C1528 C1530 1.363 . S
C1528 H1544 0.931 . S
C1529 C1528 1.370 . S
C1529 C1533 1.408 . S
C1530 C1528 1.363 . S
C1530 C1531 1.370 . S
C1530 C1534 1.524 . S
C1531 C1523 1.503 . S
C1531 C1530 1.370 . S
C1531 C1532 1.403 . S
C1532 C1531 1.403 . S
C1532 C1533 1.404 . S
C1532 C1535 1.539 . S
C1533 C1529 1.408 . S
C1533 C1532 1.404 . S
C1533 H1545 0.930 . S
C1534 C1530 1.524 . S
C1534 H1546 0.956 . S
C1534 H1547 0.961 . S
C1534 H1548 0.961 . S
C1535 C1532 1.539 . S
C1535 H1549 0.958 . S
C1535 H1550 0.961 . S
C1535 H1551 0.960 . S
H1536 C1520 0.931 . S
H1537 C1525 0.929 . S
H1538 C1526 0.960 . S
H1539 C1526 0.962 . S
H1540 C1526 0.960 . S
H1541 C1527 0.961 . S
H1542 C1527 0.961 . S
H1543 C1527 0.961 . S
H1544 C1528 0.931 . S
H1545 C1533 0.930 . S
H1546 C1534 0.956 . S
H1547 C1534 0.961 . S
H1548 C1534 0.961 . S
H1549 C1535 0.958 . S
H1550 C1535 0.961 . S
H1551 C1535 0.960 . S
C1552 C1553 1.391 . S
C1552 C1554 1.394 . S
C1552 H1568 0.931 . S
C1553 C1552 1.391 . S
C1553 C1557 1.376 . S
C1554 C1552 1.394 . S
C1554 C1555 1.369 . S
C1554 C1558 1.531 . S
C1555 C1554 1.369 . S
C1555 C1556 1.410 . S
C1555 C1563 1.503 . S
C1556 C1555 1.410 . S
C1556 C1557 1.392 . S
C1556 C1559 1.511 . S
C1557 C1553 1.376 . S
C1557 C1556 1.392 . S
C1557 H1569 0.929 . S
C1558 C1554 1.531 . S
C1558 H1570 0.960 . S
C1558 H1571 0.962 . S
C1558 H1572 0.960 . S
C1559 C1556 1.511 . S
C1559 H1573 0.961 . S
C1559 H1574 0.961 . S
C1559 H1575 0.961 . S
C1560 C1561 1.370 . S
C1560 C1562 1.363 . S
C1560 H1576 0.931 . S
C1561 C1560 1.370 . S
C1561 C1565 1.408 . S
C1562 C1560 1.363 . S
C1562 C1563 1.370 . S
C1562 C1566 1.524 . S
C1563 C1555 1.503 . S
C1563 C1562 1.370 . S
C1563 C1564 1.403 . S
C1564 C1563 1.403 . S
C1564 C1565 1.404 . S
C1564 C1567 1.539 . S
C1565 C1561 1.408 . S
C1565 C1564 1.404 . S
C1565 H1577 0.930 . S
C1566 C1562 1.524 . S
C1566 H1578 0.956 . S
C1566 H1579 0.961 . S
C1566 H1580 0.961 . S
C1567 C1564 1.539 . S
C1567 H1581 0.958 . S
C1567 H1582 0.961 . S
C1567 H1583 0.960 . S
H1568 C1552 0.931 . S
H1569 C1557 0.929 . S
H1570 C1558 0.960 . S
H1571 C1558 0.962 . S
H1572 C1558 0.960 . S
H1573 C1559 0.961 . S
H1574 C1559 0.961 . S
H1575 C1559 0.961 . S
H1576 C1560 0.931 . S
H1577 C1565 0.930 . S
H1578 C1566 0.956 . S
H1579 C1566 0.961 . S
H1580 C1566 0.961 . S
H1581 C1567 0.958 . S
H1582 C1567 0.961 . S
H1583 C1567 0.960 . S
C1584 C1585 1.391 . S
C1584 C1586 1.394 . S
C1584 H1600 0.931 . S
C1585 C1584 1.391 . S
C1585 C1589 1.376 . S
C1586 C1584 1.394 . S
C1586 C1587 1.369 . S
C1586 C1590 1.531 . S
C1587 C1586 1.369 . S
C1587 C1588 1.410 . S
C1587 C1595 1.503 . S
C1588 C1587 1.410 . S
C1588 C1589 1.392 . S
C1588 C1591 1.511 . S
C1589 C1585 1.376 . S
C1589 C1588 1.392 . S
C1589 H1601 0.929 . S
C1590 C1586 1.531 . S
C1590 H1602 0.960 . S
C1590 H1603 0.962 . S
C1590 H1604 0.960 . S
C1591 C1588 1.511 . S
C1591 H1605 0.961 . S
C1591 H1606 0.961 . S
C1591 H1607 0.961 . S
C1592 C1593 1.370 . S
C1592 C1594 1.363 . S
C1592 H1608 0.931 . S
C1593 C1592 1.370 . S
C1593 C1597 1.408 . S
C1594 C1592 1.363 . S
C1594 C1595 1.370 . S
C1594 C1598 1.524 . S
C1595 C1587 1.503 . S
C1595 C1594 1.370 . S
C1595 C1596 1.403 . S
C1596 C1595 1.403 . S
C1596 C1597 1.404 . S
C1596 C1599 1.539 . S
C1597 C1593 1.408 . S
C1597 C1596 1.404 . S
C1597 H1609 0.930 . S
C1598 C1594 1.524 . S
C1598 H1610 0.956 . S
C1598 H1611 0.961 . S
C1598 H1612 0.961 . S
C1599 C1596 1.539 . S
C1599 H1613 0.958 . S
C1599 H1614 0.961 . S
C1599 H1615 0.960 . S
H1600 C1584 0.931 . S
H1601 C1589 0.929 . S
H1602 C1590 0.960 . S
H1603 C1590 0.962 . S
H1604 C1590 0.960 . S
H1605 C1591 0.961 . S
H1606 C1591 0.961 . S
H1607 C1591 0.961 . S
H1608 C1592 0.931 . S
H1609 C1597 0.930 . S
H1610 C1598 0.956 . S
H1611 C1598 0.961 . S
H1612 C1598 0.961 . S
H1613 C1599 0.958 . S
H1614 C1599 0.961 . S
H1615 C1599 0.960 . S
C1616 C1617 1.391 . S
C1616 C1618 1.394 . S
C1616 H1632 0.931 . S
C1617 C1616 1.391 . S
C1617 C1621 1.376 . S
C1618 C1616 1.394 . S
C1618 C1619 1.369 . S
C1618 C1622 1.543 . S
C1619 C1618 1.369 . S
C1619 C1620 1.410 . S
C1619 C1627 1.503 1_545 S
C1620 C1619 1.410 . S
C1620 C1621 1.392 . S
C1620 C1623 1.511 . S
C1621 C1617 1.376 . S
C1621 C1620 1.392 . S
C1621 H1633 0.929 . S
C1622 C1618 1.543 . S
C1622 H1634 0.935 1_545 S
C1622 H1635 0.975 . S
C1622 H1636 0.961 . S
C1623 C1620 1.511 . S
C1623 H1637 0.961 . S
C1623 H1638 0.961 . S
C1623 H1639 0.961 1_545 S
C1624 C1625 1.370 . S
C1624 C1626 1.363 . S
C1624 H1640 0.931 . S
C1625 C1624 1.370 . S
C1625 C1629 1.408 . S
C1626 C1624 1.363 . S
C1626 C1627 1.370 . S
C1626 C1630 1.524 1_565 S
C1627 C1619 1.503 1_565 S
C1627 C1626 1.370 . S
C1627 C1628 1.403 . S
C1628 C1627 1.403 . S
C1628 C1629 1.404 . S
C1628 C1631 1.539 . S
C1629 C1625 1.408 . S
C1629 C1628 1.404 . S
C1629 H1641 0.930 . S
C1630 C1626 1.524 1_545 S
C1630 H1642 0.956 . S
C1630 H1643 0.961 . S
C1630 H1644 0.961 . S
C1631 C1628 1.539 . S
C1631 H1645 0.958 . S
C1631 H1646 0.961 . S
C1631 H1647 0.960 . S
H1632 C1616 0.931 . S
H1633 C1621 0.929 . S
H1634 C1622 0.935 1_565 S
H1635 C1622 0.975 . S
H1636 C1622 0.961 . S
H1637 C1623 0.961 . S
H1638 C1623 0.961 . S
H1639 C1623 0.961 1_565 S
H1640 C1624 0.931 . S
H1641 C1629 0.930 . S
H1642 C1630 0.956 . S
H1643 C1630 0.961 . S
H1644 C1630 0.961 . S
H1645 C1631 0.958 . S
H1646 C1631 0.961 . S
H1647 C1631 0.960 . S
C1648 C1649 1.391 . S
C1648 C1650 1.394 . S
C1648 H1664 0.931 . S
C1649 C1648 1.391 . S
C1649 C1653 1.376 . S
C1650 C1648 1.394 . S
C1650 C1651 1.369 . S
C1650 C1654 1.531 1_545 S
C1651 C1650 1.369 . S
C1651 C1652 1.410 . S
C1651 C1659 1.503 1_545 S
C1652 C1651 1.410 . S
C1652 C1653 1.392 . S
C1652 C1655 1.511 . S
C1653 C1649 1.376 . S
C1653 C1652 1.392 . S
C1653 H1665 0.929 . S
C1654 C1650 1.531 1_565 S
C1654 H1666 0.960 . S
C1654 H1667 0.962 1_565 S
C1654 H1668 0.960 . S
C1655 C1652 1.511 . S
C1655 H1669 0.961 . S
C1655 H1670 0.961 . S
C1655 H1671 0.961 . S
C1656 C1657 1.370 . S
C1656 C1658 1.363 . S
C1656 H1672 0.931 . S
C1657 C1656 1.370 . S
C1657 C1661 1.408 . S
C1658 C1656 1.363 . S
C1658 C1659 1.370 . S
C1658 C1662 1.524 1_565 S
C1659 C1651 1.503 1_565 S
C1659 C1658 1.370 . S
C1659 C1660 1.403 . S
C1660 C1659 1.403 . S
C1660 C1661 1.404 . S
C1660 C1663 1.539 . S
C1661 C1657 1.408 . S
C1661 C1660 1.404 . S
C1661 H1673 0.930 . S
C1662 C1658 1.524 1_545 S
C1662 H1674 0.956 . S
C1662 H1675 0.961 . S
C1662 H1676 0.961 . S
C1663 C1660 1.539 . S
C1663 H1677 0.958 . S
C1663 H1678 0.961 . S
C1663 H1679 0.960 . S
H1664 C1648 0.931 . S
H1665 C1653 0.929 . S
H1666 C1654 0.960 . S
H1667 C1654 0.962 1_545 S
H1668 C1654 0.960 . S
H1669 C1655 0.961 . S
H1670 C1655 0.961 . S
H1671 C1655 0.961 . S
H1672 C1656 0.931 . S
H1673 C1661 0.930 . S
H1674 C1662 0.956 . S
H1675 C1662 0.961 . S
H1676 C1662 0.961 . S
H1677 C1663 0.958 . S
H1678 C1663 0.961 . S
H1679 C1663 0.960 . S
C1680 C1681 1.391 . S
C1680 C1682 1.394 . S
C1680 H1696 0.931 . S
C1681 C1680 1.391 . S
C1681 C1685 1.376 . S
C1682 C1680 1.394 . S
C1682 C1683 1.369 . S
C1682 C1686 1.531 . S
C1683 C1682 1.369 . S
C1683 C1684 1.410 . S
C1683 C1691 1.503 1_545 S
C1684 C1683 1.410 . S
C1684 C1685 1.392 . S
C1684 C1687 1.511 1_545 S
C1685 C1681 1.376 . S
C1685 C1684 1.392 . S
C1685 H1697 0.929 . S
C1686 C1682 1.531 . S
C1686 H1698 0.960 . S
C1686 H1699 0.962 . S
C1686 H1700 0.960 . S
C1687 C1684 1.511 1_565 S
C1687 H1701 0.961 . S
C1687 H1702 0.961 . S
C1687 H1703 0.961 . S
C1688 C1689 1.370 . S
C1688 C1690 1.363 . S
C1688 H1704 0.931 . S
C1689 C1688 1.370 . S
C1689 C1693 1.408 . S
C1690 C1688 1.363 . S
C1690 C1691 1.370 . S
C1690 C1694 1.524 . S
C1691 C1683 1.503 1_565 S
C1691 C1690 1.370 . S
C1691 C1692 1.403 . S
C1692 C1691 1.403 . S
C1692 C1693 1.404 . S
C1692 C1695 1.539 1_565 S
C1693 C1689 1.408 . S
C1693 C1692 1.404 . S
C1693 H1705 0.930 . S
C1694 C1690 1.524 . S
C1694 H1706 0.956 . S
C1694 H1707 0.961 . S
C1694 H1708 0.961 . S
C1695 C1692 1.539 1_545 S
C1695 H1709 0.958 . S
C1695 H1710 0.961 . S
C1695 H1711 0.960 . S
H1696 C1680 0.931 . S
H1697 C1685 0.929 . S
H1698 C1686 0.960 . S
H1699 C1686 0.962 . S
H1700 C1686 0.960 . S
H1701 C1687 0.961 . S
H1702 C1687 0.961 . S
H1703 C1687 0.961 . S
H1704 C1688 0.931 . S
H1705 C1693 0.930 . S
H1706 C1694 0.956 . S
H1707 C1694 0.961 . S
H1708 C1694 0.961 . S
H1709 C1695 0.958 . S
H1710 C1695 0.961 . S
H1711 C1695 0.960 . S
C1712 C1713 1.391 . S
C1712 C1714 1.394 . S
C1712 H1728 0.931 . S
C1713 C1712 1.391 . S
C1713 C1717 1.376 . S
C1714 C1712 1.394 . S
C1714 C1715 1.369 . S
C1714 C1718 1.531 . S
C1715 C1714 1.369 . S
C1715 C1716 1.410 . S
C1715 C1723 1.503 1_565 S
C1716 C1715 1.410 . S
C1716 C1717 1.392 . S
C1716 C1719 1.511 1_565 S
C1717 C1713 1.376 . S
C1717 C1716 1.392 . S
C1717 H1729 0.929 . S
C1718 C1714 1.531 . S
C1718 H1730 0.960 . S
C1718 H1731 0.962 . S
C1718 H1732 0.960 . S
C1719 C1716 1.511 1_545 S
C1719 H1733 0.961 . S
C1719 H1734 0.961 . S
C1719 H1735 0.961 . S
C1720 C1721 1.370 . S
C1720 C1722 1.363 . S
C1720 H1736 0.931 . S
C1721 C1720 1.370 . S
C1721 C1725 1.408 . S
C1722 C1720 1.363 . S
C1722 C1723 1.370 . S
C1722 C1726 1.524 . S
C1723 C1715 1.503 1_545 S
C1723 C1722 1.370 . S
C1723 C1724 1.403 . S
C1724 C1723 1.403 . S
C1724 C1725 1.404 . S
C1724 C1727 1.539 1_545 S
C1725 C1721 1.408 . S
C1725 C1724 1.404 . S
C1725 H1737 0.930 . S
C1726 C1722 1.524 . S
C1726 H1738 0.956 . S
C1726 H1739 0.961 . S
C1726 H1740 0.961 . S
C1727 C1724 1.539 1_565 S
C1727 H1741 0.958 . S
C1727 H1742 0.961 . S
C1727 H1743 0.960 . S
H1728 C1712 0.931 . S
H1729 C1717 0.929 . S
H1730 C1718 0.960 . S
H1731 C1718 0.962 . S
H1732 C1718 0.960 . S
H1733 C1719 0.961 . S
H1734 C1719 0.961 . S
H1735 C1719 0.961 . S
H1736 C1720 0.931 . S
H1737 C1725 0.930 . S
H1738 C1726 0.956 . S
H1739 C1726 0.961 . S
H1740 C1726 0.961 . S
H1741 C1727 0.958 . S
H1742 C1727 0.961 . S
H1743 C1727 0.960 . S
C1744 C1745 1.391 . S
C1744 C1746 1.394 . S
C1744 H1760 0.931 . S
C1745 C1744 1.391 . S
C1745 C1749 1.376 . S
C1746 C1744 1.394 . S
C1746 C1747 1.369 . S
C1746 C1750 1.531 . S
C1747 C1746 1.369 . S
C1747 C1748 1.410 . S
C1747 C1755 1.503 . S
C1748 C1747 1.410 . S
C1748 C1749 1.392 . S
C1748 C1751 1.511 . S
C1749 C1745 1.376 . S
C1749 C1748 1.392 . S
C1749 H1761 0.929 . S
C1750 C1746 1.531 . S
C1750 H1762 0.960 . S
C1750 H1763 0.962 . S
C1750 H1764 0.960 . S
C1751 C1748 1.511 . S
C1751 H1765 0.961 . S
C1751 H1766 0.961 . S
C1751 H1767 0.961 . S
C1752 C1753 1.370 . S
C1752 C1754 1.363 . S
C1752 H1768 0.931 . S
C1753 C1752 1.370 . S
C1753 C1757 1.408 . S
C1754 C1752 1.363 . S
C1754 C1755 1.370 . S
C1754 C1758 1.524 . S
C1755 C1747 1.503 . S
C1755 C1754 1.370 . S
C1755 C1756 1.403 . S
C1756 C1755 1.403 . S
C1756 C1757 1.404 . S
C1756 C1759 1.539 . S
C1757 C1753 1.408 . S
C1757 C1756 1.404 . S
C1757 H1769 0.930 . S
C1758 C1754 1.524 . S
C1758 H1770 0.956 . S
C1758 H1771 0.961 . S
C1758 H1772 0.961 . S
C1759 C1756 1.539 . S
C1759 H1773 0.958 . S
C1759 H1774 0.961 . S
C1759 H1775 0.960 . S
H1760 C1744 0.931 . S
H1761 C1749 0.929 . S
H1762 C1750 0.960 . S
H1763 C1750 0.962 . S
H1764 C1750 0.960 . S
H1765 C1751 0.961 . S
H1766 C1751 0.961 . S
H1767 C1751 0.961 . S
H1768 C1752 0.931 . S
H1769 C1757 0.930 . S
H1770 C1758 0.956 . S
H1771 C1758 0.961 . S
H1772 C1758 0.961 . S
H1773 C1759 0.958 . S
H1774 C1759 0.961 . S
H1775 C1759 0.960 . S
C1776 C1777 1.391 . S
C1776 C1778 1.394 . S
C1776 H1792 0.931 . S
C1777 C1776 1.391 . S
C1777 C1781 1.376 . S
C1778 C1776 1.394 . S
C1778 C1779 1.369 . S
C1778 C1782 1.531 . S
C1779 C1778 1.369 . S
C1779 C1780 1.410 . S
C1779 C1787 1.503 . S
C1780 C1779 1.410 . S
C1780 C1781 1.392 . S
C1780 C1783 1.511 . S
C1781 C1777 1.376 . S
C1781 C1780 1.392 . S
C1781 H1793 0.929 . S
C1782 C1778 1.531 . S
C1782 H1794 0.960 . S
C1782 H1795 0.962 . S
C1782 H1796 0.960 . S
C1783 C1780 1.511 . S
C1783 H1797 0.961 . S
C1783 H1798 0.961 . S
C1783 H1799 0.961 . S
C1784 C1785 1.370 . S
C1784 C1786 1.363 . S
C1784 H1800 0.931 . S
C1785 C1784 1.370 . S
C1785 C1789 1.408 . S
C1786 C1784 1.363 . S
C1786 C1787 1.370 . S
C1786 C1790 1.524 . S
C1787 C1779 1.503 . S
C1787 C1786 1.370 . S
C1787 C1788 1.403 . S
C1788 C1787 1.403 . S
C1788 C1789 1.404 . S
C1788 C1791 1.539 . S
C1789 C1785 1.408 . S
C1789 C1788 1.404 . S
C1789 H1801 0.930 . S
C1790 C1786 1.524 . S
C1790 H1802 0.956 . S
C1790 H1803 0.961 . S
C1790 H1804 0.961 . S
C1791 C1788 1.539 . S
C1791 H1805 0.958 . S
C1791 H1806 0.961 . S
C1791 H1807 0.960 . S
H1792 C1776 0.931 . S
H1793 C1781 0.929 . S
H1794 C1782 0.960 . S
H1795 C1782 0.962 . S
H1796 C1782 0.960 . S
H1797 C1783 0.961 . S
H1798 C1783 0.961 . S
H1799 C1783 0.961 . S
H1800 C1784 0.931 . S
H1801 C1789 0.930 . S
H1802 C1790 0.956 . S
H1803 C1790 0.961 . S
H1804 C1790 0.961 . S
H1805 C1791 0.958 . S
H1806 C1791 0.961 . S
H1807 C1791 0.960 . S
C1808 C1809 1.391 . S
C1808 C1810 1.394 . S
C1808 H1824 0.931 . S
C1809 C1808 1.391 . S
C1809 C1813 1.376 . S
C1810 C1808 1.394 . S
C1810 C1811 1.369 . S
C1810 C1814 1.531 . S
C1811 C1810 1.369 . S
C1811 C1812 1.410 . S
C1811 C1819 1.503 . S
C1812 C1811 1.410 . S
C1812 C1813 1.392 . S
C1812 C1815 1.511 . S
C1813 C1809 1.376 . S
C1813 C1812 1.392 . S
C1813 H1825 0.929 . S
C1814 C1810 1.531 . S
C1814 H1826 0.960 . S
C1814 H1827 0.962 . S
C1814 H1828 0.960 . S
C1815 C1812 1.511 . S
C1815 H1829 0.961 . S
C1815 H1830 0.961 . S
C1815 H1831 0.961 . S
C1816 C1817 1.370 . S
C1816 C1818 1.363 . S
C1816 H1832 0.931 . S
C1817 C1816 1.370 . S
C1817 C1821 1.408 . S
C1818 C1816 1.363 . S
C1818 C1819 1.370 . S
C1818 C1822 1.524 . S
C1819 C1811 1.503 . S
C1819 C1818 1.370 . S
C1819 C1820 1.403 . S
C1820 C1819 1.403 . S
C1820 C1821 1.404 . S
C1820 C1823 1.539 . S
C1821 C1817 1.408 . S
C1821 C1820 1.404 . S
C1821 H1833 0.930 . S
C1822 C1818 1.524 . S
C1822 H1834 0.956 . S
C1822 H1835 0.961 . S
C1822 H1836 0.961 . S
C1823 C1820 1.539 . S
C1823 H1837 0.958 . S
C1823 H1838 0.961 . S
C1823 H1839 0.960 . S
H1824 C1808 0.931 . S
H1825 C1813 0.929 . S
H1826 C1814 0.960 . S
H1827 C1814 0.962 . S
H1828 C1814 0.960 . S
H1829 C1815 0.961 . S
H1830 C1815 0.961 . S
H1831 C1815 0.961 . S
H1832 C1816 0.931 . S
H1833 C1821 0.930 . S
H1834 C1822 0.956 . S
H1835 C1822 0.961 . S
H1836 C1822 0.961 . S
H1837 C1823 0.958 . S
H1838 C1823 0.961 . S
H1839 C1823 0.960 . S
C1840 C1841 1.391 . S
C1840 C1842 1.394 . S
C1840 H1856 0.931 . S
C1841 C1840 1.391 . S
C1841 C1845 1.376 . S
C1842 C1840 1.394 . S
C1842 C1843 1.369 . S
C1842 C1846 1.531 . S
C1843 C1842 1.369 . S
C1843 C1844 1.410 . S
C1843 C1851 1.503 . S
C1844 C1843 1.410 . S
C1844 C1845 1.392 . S
C1844 C1847 1.511 . S
C1845 C1841 1.376 . S
C1845 C1844 1.392 . S
C1845 H1857 0.929 . S
C1846 C1842 1.531 . S
C1846 H1858 0.960 . S
C1846 H1859 0.962 . S
C1846 H1860 0.960 . S
C1847 C1844 1.511 . S
C1847 H1861 0.961 . S
C1847 H1862 0.961 . S
C1847 H1863 0.961 . S
C1848 C1849 1.370 . S
C1848 C1850 1.363 . S
C1848 H1864 0.931 . S
C1849 C1848 1.370 . S
C1849 C1853 1.408 . S
C1850 C1848 1.363 . S
C1850 C1851 1.370 . S
C1850 C1854 1.524 . S
C1851 C1843 1.503 . S
C1851 C1850 1.370 . S
C1851 C1852 1.403 . S
C1852 C1851 1.403 . S
C1852 C1853 1.404 . S
C1852 C1855 1.539 . S
C1853 C1849 1.408 . S
C1853 C1852 1.404 . S
C1853 H1865 0.930 . S
C1854 C1850 1.524 . S
C1854 H1866 0.956 . S
C1854 H1867 0.961 . S
C1854 H1868 0.961 . S
C1855 C1852 1.539 . S
C1855 H1869 0.958 . S
C1855 H1870 0.961 . S
C1855 H1871 0.960 . S
H1856 C1840 0.931 . S
H1857 C1845 0.929 . S
H1858 C1846 0.960 . S
H1859 C1846 0.962 . S
H1860 C1846 0.960 . S
H1861 C1847 0.961 . S
H1862 C1847 0.961 . S
H1863 C1847 0.961 . S
H1864 C1848 0.931 . S
H1865 C1853 0.930 . S
H1866 C1854 0.956 . S
H1867 C1854 0.961 . S
H1868 C1854 0.961 . S
H1869 C1855 0.958 . S
H1870 C1855 0.961 . S
H1871 C1855 0.960 . S
C849 C39 1.853 . S
C857 C304 1.862 . S
C881 C251 1.876 . S
C889 C92 1.877 . S
C913 C145 1.853 . S
C921 C410 1.862 . S
C945 C357 1.877 . S
C953 C198 1.878 . S
C977 C728 1.856 . S
C985 C463 1.872 . S
C1009 C675 1.876 . S
C1017 C516 1.877 . S
C1041 C834 1.857 . S
C1049 C569 1.873 . S
C1073 C622 1.882 . S
C1081 C781 1.873 . S
C1105 C82 1.530 . S
C1113 C29 1.548 . S
C1137 C135 1.554 . S
C1145 C188 1.545 . S
C1169 C241 1.541 . S
C1177 C294 1.552 . S
C1201 C347 1.539 . S
C1209 C400 1.544 . S
C1233 C453 1.552 . S
C1241 C506 1.548 . S
C1265 C612 1.530 . S
C1273 C559 1.549 . S
C1297 C718 1.538 . S
C1305 C665 1.545 . S
C1329 C771 1.554 . S
C1337 C824 1.548 . S
C1361 C499 1.532 . S
C1369 C22 1.533 . S
C1393 C75 1.524 . S
C1401 C446 1.534 . S
C1425 C605 1.525 . S
C1433 C128 1.531 . S
C1457 C181 1.538 . S
C1465 C552 1.537 . S
C1489 C234 1.538 . S
C1497 C711 1.534 . S
C1521 C658 1.538 . S
C1529 C287 1.535 . S
C1553 C340 1.538 . S
C1561 C817 1.534 . S
C1585 C764 1.535 . S
C1593 C393 1.531 . S
C1617 C38 1.909 . S
C1625 C144 1.941 . S
C1649 C197 1.909 . S
C1657 C91 1.940 . S
C1681 C356 1.946 . S
C1689 C250 1.937 . S
C1713 C409 1.947 . S
C1721 C303 1.936 . S
C1745 C568 1.949 . S
C1753 C462 1.927 . S
C1777 C515 1.909 . S
C1785 C621 1.940 . S
C1809 C780 1.922 . S
C1817 C674 1.950 . S
C1841 C727 1.927 . S
C1849 C833 1.949 . S
