# Generated by pormake.
# Topology pcb, (4)-cn, num edge types: 1
# Building blocks:
#     Node 0, Type 0, BuildingBlock: KUFVIS_clean_sbu_0, # of connection points: 4
#     Node 1, Type 0, BuildingBlock: KUFVIS_clean_sbu_0, # of connection points: 4
#     Node 2, Type 0, BuildingBlock: KUFVIS_clean_sbu_0, # of connection points: 4
#     Node 3, Type 0, BuildingBlock: KUFVIS_clean_sbu_0, # of connection points: 4
#     Node 4, Type 0, BuildingBlock: KUFVIS_clean_sbu_0, # of connection points: 4
#     Node 5, Type 0, BuildingBlock: KUFVIS_clean_sbu_0, # of connection points: 4
#     Node 6, Type 0, BuildingBlock: KUFVIS_clean_sbu_0, # of connection points: 4
#     Node 7, Type 0, BuildingBlock: KUFVIS_clean_sbu_0, # of connection points: 4
#     Node 8, Type 0, BuildingBlock: KUFVIS_clean_sbu_0, # of connection points: 4
#     Node 9, Type 0, BuildingBlock: KUFVIS_clean_sbu_0, # of connection points: 4
#     Node 10, Type 0, BuildingBlock: KUFVIS_clean_sbu_0, # of connection points: 4
#     Node 11, Type 0, BuildingBlock: KUFVIS_clean_sbu_0, # of connection points: 4
#     Node 12, Type 0, BuildingBlock: KUFVIS_clean_sbu_0, # of connection points: 4
#     Node 13, Type 0, BuildingBlock: KUFVIS_clean_sbu_0, # of connection points: 4
#     Node 14, Type 0, BuildingBlock: KUFVIS_clean_sbu_0, # of connection points: 4
#     Node 15, Type 0, BuildingBlock: KUFVIS_clean_sbu_0, # of connection points: 4
#     Edge 16, Type (0, 0), BuildingBlock: CIFDUS_clean_linker_0, # of connection points: 2
#     Edge 17, Type (0, 0), BuildingBlock: CIFDUS_clean_linker_0, # of connection points: 2
#     Edge 18, Type (0, 0), BuildingBlock: CIFDUS_clean_linker_0, # of connection points: 2
#     Edge 19, Type (0, 0), BuildingBlock: CIFDUS_clean_linker_0, # of connection points: 2
#     Edge 20, Type (0, 0), BuildingBlock: CIFDUS_clean_linker_0, # of connection points: 2
#     Edge 21, Type (0, 0), BuildingBlock: CIFDUS_clean_linker_0, # of connection points: 2
#     Edge 22, Type (0, 0), BuildingBlock: CIFDUS_clean_linker_0, # of connection points: 2
#     Edge 23, Type (0, 0), BuildingBlock: CIFDUS_clean_linker_0, # of connection points: 2
#     Edge 24, Type (0, 0), BuildingBlock: CIFDUS_clean_linker_0, # of connection points: 2
#     Edge 25, Type (0, 0), BuildingBlock: CIFDUS_clean_linker_0, # of connection points: 2
#     Edge 26, Type (0, 0), BuildingBlock: CIFDUS_clean_linker_0, # of connection points: 2
#     Edge 27, Type (0, 0), BuildingBlock: CIFDUS_clean_linker_0, # of connection points: 2
#     Edge 28, Type (0, 0), BuildingBlock: CIFDUS_clean_linker_0, # of connection points: 2
#     Edge 29, Type (0, 0), BuildingBlock: CIFDUS_clean_linker_0, # of connection points: 2
#     Edge 30, Type (0, 0), BuildingBlock: CIFDUS_clean_linker_0, # of connection points: 2
#     Edge 31, Type (0, 0), BuildingBlock: CIFDUS_clean_linker_0, # of connection points: 2
#     Edge 32, Type (0, 0), BuildingBlock: CIFDUS_clean_linker_0, # of connection points: 2
#     Edge 33, Type (0, 0), BuildingBlock: CIFDUS_clean_linker_0, # of connection points: 2
#     Edge 34, Type (0, 0), BuildingBlock: CIFDUS_clean_linker_0, # of connection points: 2
#     Edge 35, Type (0, 0), BuildingBlock: CIFDUS_clean_linker_0, # of connection points: 2
#     Edge 36, Type (0, 0), BuildingBlock: CIFDUS_clean_linker_0, # of connection points: 2
#     Edge 37, Type (0, 0), BuildingBlock: CIFDUS_clean_linker_0, # of connection points: 2
#     Edge 38, Type (0, 0), BuildingBlock: CIFDUS_clean_linker_0, # of connection points: 2
#     Edge 39, Type (0, 0), BuildingBlock: CIFDUS_clean_linker_0, # of connection points: 2
#     Edge 40, Type (0, 0), BuildingBlock: CIFDUS_clean_linker_0, # of connection points: 2
#     Edge 41, Type (0, 0), BuildingBlock: CIFDUS_clean_linker_0, # of connection points: 2
#     Edge 42, Type (0, 0), BuildingBlock: CIFDUS_clean_linker_0, # of connection points: 2
#     Edge 43, Type (0, 0), BuildingBlock: CIFDUS_clean_linker_0, # of connection points: 2
#     Edge 44, Type (0, 0), BuildingBlock: CIFDUS_clean_linker_0, # of connection points: 2
#     Edge 45, Type (0, 0), BuildingBlock: CIFDUS_clean_linker_0, # of connection points: 2
#     Edge 46, Type (0, 0), BuildingBlock: CIFDUS_clean_linker_0, # of connection points: 2
#     Edge 47, Type (0, 0), BuildingBlock: CIFDUS_clean_linker_0, # of connection points: 2
# Relax obj value: 0.288
# Max RMSD: 0.150
# Mean RMSD: 0.150
data_MOF--net-pcb--node1-KUFVIS_clean_sbu_0--edge1-CIFDUS_clean_linker_0
_symmetry_space_group_name_H-M    P1
_symmetry_Int_Tables_number       1
_symmetry_cell_setting            triclinic
loop_
_symmetry_equiv_pos_as_xyz
'x, y, z'
_cell_length_a     34.060315
_cell_length_b     42.561071
_cell_length_c     42.521031
_cell_angle_alpha  90.047456
_cell_angle_beta   90.159733
_cell_angle_gamma 90.022236
loop_
_atom_site_label
_atom_site_type_symbol
_atom_site_fract_x
_atom_site_fract_y
_atom_site_fract_z
_atom_type_partial_charge
Mn0 Mn 0.17375 0.16427 0.15077 0.0
Mn1 Mn 0.12606 0.22087 0.11023 0.0
C2 C 0.10893 0.1766 0.16256 0.0
C3 C 0.19386 0.11239 0.15813 0.0
C4 C 0.18802 0.23476 0.15977 0.0
O5 O 0.20604 0.16832 0.11039 0.0
O6 O 0.16849 0.20317 0.08383 0.0
C7 C 0.09076 0.1814 0.06009 0.0
N8 N 0.08641 0.20195 0.08443 0.0
C9 C 0.01609 0.20139 0.0786 0.0
C10 C 0.01985 0.18037 0.05339 0.0
C11 C 0.05735 0.17031 0.04412 0.0
C12 C 0.05043 0.21164 0.09363 0.0
H13 H 0.11947 0.17346 0.05292 0.0
C14 C 0.19704 0.18365 0.08548 0.0
O15 O 0.21272 0.13571 0.17068 0.0
O16 O 0.16369 0.11909 0.14062 0.0
N17 N 0.08334 0.23909 0.13309 0.0
C18 C 0.08463 0.25908 0.15813 0.0
C19 C 0.04955 0.27167 0.16999 0.0
C20 C 0.01354 0.26371 0.15592 0.0
C21 C 0.01292 0.24321 0.1301 0.0
C22 C 0.04885 0.23168 0.11907 0.0
H23 H 0.11219 0.26547 0.16896 0.0
O24 O 0.13106 0.16296 0.18337 0.0
O25 O 0.12571 0.18274 0.13598 0.0
O26 O 0.1932 0.2063 0.16796 0.0
O27 O 0.16551 0.24286 0.13706 0.0
C28 C 0.978 0.23339 0.1152 0.0
C29 C 0.97958 0.21237 0.08957 0.0
H30 H 0.99416 0.17172 0.04104 0.0
H31 H 0.06049 0.15402 0.02473 0.0
H32 H 0.05026 0.28743 0.18997 0.0
H33 H 0.98652 0.27324 0.16532 0.0
H34 H 0.94976 0.24162 0.12346 0.0
H35 H 0.95252 0.20477 0.07848 0.0
Mn36 Mn 0.8146 0.15161 0.16689 0.0
Mn37 Mn 0.86525 0.11524 0.22506 0.0
C38 C 0.8771 0.16849 0.18059 0.0
C39 C 0.79516 0.15721 0.11443 0.0
C40 C 0.79934 0.16129 0.23738 0.0
O41 O 0.78604 0.10948 0.1712 0.0
O42 O 0.82398 0.08685 0.20849 0.0
C43 C 0.90283 0.06595 0.18616 0.0
N44 N 0.90605 0.09056 0.20652 0.0
C45 C 0.97658 0.08696 0.20627 0.0
C46 C 0.97398 0.06146 0.18546 0.0
C47 C 0.93694 0.05097 0.17532 0.0
C48 C 0.94156 0.101 0.21622 0.0
H49 H 0.87447 0.05785 0.17817 0.0
C50 C 0.79559 0.08628 0.18872 0.0
O51 O 0.77443 0.16852 0.1373 0.0
O52 O 0.82673 0.1418 0.12191 0.0
N53 N 0.90685 0.1398 0.24292 0.0
C54 C 0.90433 0.16484 0.26283 0.0
C55 C 0.93882 0.17799 0.27536 0.0
C56 C 0.9755 0.16514 0.26751 0.0
C57 C 0.97734 0.13913 0.24732 0.0
C58 C 0.94196 0.1268 0.23584 0.0
H59 H 0.87624 0.17473 0.26911 0.0
O60 O 0.85323 0.18725 0.16595 0.0
O61 O 0.86382 0.14054 0.18645 0.0
O62 O 0.79269 0.16774 0.20859 0.0
O63 O 0.82462 0.141 0.24638 0.0
C64 C 0.01291 0.12514 0.2379 0.0
C65 C 0.01254 0.09919 0.21725 0.0
H66 H 1.00023 0.04987 0.17701 0.0
H67 H 0.9347 0.03138 0.15916 0.0
H68 H 0.93715 0.19803 0.29097 0.0
H69 H 0.00205 0.17554 0.27699 0.0
H70 H 0.04075 0.13437 0.24614 0.0
H71 H 0.0401 0.08889 0.20987 0.0
Mn72 Mn 0.82285 0.85423 0.15046 0.0
Mn73 Mn 0.86948 0.79355 0.11582 0.0
C74 C 0.88667 0.84138 0.16525 0.0
C75 C 0.80599 0.90748 0.14957 0.0
C76 C 0.80465 0.7854 0.16399 0.0
O77 O 0.79093 0.8466 0.11044 0.0
O78 O 0.82941 0.81052 0.08671 0.0
C79 C 0.90958 0.82863 0.06505 0.0
N80 N 0.91146 0.80931 0.09054 0.0
C81 C 0.98192 0.80674 0.08733 0.0
C82 C 0.98071 0.82641 0.06091 0.0
C83 C 0.94438 0.83747 0.04978 0.0
C84 C 0.94628 0.79881 0.10163 0.0
H85 H 0.88175 0.83731 0.05648 0.0
C86 C 0.80039 0.82958 0.08689 0.0
O87 O 0.78519 0.88725 0.16521 0.0
O88 O 0.83636 0.89679 0.13471 0.0
N89 N 0.90982 0.77549 0.14153 0.0
C90 C 0.90602 0.75732 0.16772 0.0
C91 C 0.93962 0.74405 0.18157 0.0
C92 C 0.97671 0.74942 0.16826 0.0
C93 C 0.9799 0.76809 0.14123 0.0
C94 C 0.94535 0.78043 0.12828 0.0
H95 H 0.87759 0.75283 0.17791 0.0
O96 O 0.86469 0.858 0.1838 0.0
O97 O 0.87025 0.83301 0.13909 0.0
O98 O 0.801 0.81442 0.17113 0.0
O99 O 0.82737 0.77535 0.1423 0.0
C100 C 0.01607 0.77541 0.12699 0.0
C101 C 0.0171 0.79491 0.10019 0.0
H102 H 0.00749 0.83328 0.04906 0.0
H103 H 0.94322 0.85277 0.02948 0.0
H104 H 0.93693 0.7297 0.20245 0.0
H105 H 0.00258 0.73936 0.17917 0.0
H106 H 0.04331 0.76651 0.13671 0.0
H107 H 0.04512 0.8007 0.08969 0.0
Mn108 Mn 0.17898 0.86309 0.16259 0.0
Mn109 Mn 0.13488 0.89887 0.22397 0.0
C110 C 0.11861 0.84539 0.18045 0.0
C111 C 0.19128 0.86141 0.10857 0.0
C112 C 0.20369 0.85408 0.23118 0.0
O113 O 0.20744 0.90527 0.16575 0.0
O114 O 0.17102 0.92882 0.20322 0.0
C115 C 0.08814 0.94567 0.1884 0.0
N116 N 0.08983 0.92135 0.20918 0.0
C117 C 0.01959 0.92156 0.21525 0.0
C118 C 0.01715 0.94674 0.1941 0.0
C119 C 0.05158 0.9588 0.18057 0.0
C120 C 0.05685 0.90941 0.22213 0.0
H121 H 0.11448 0.95493 0.17778 0.0
C122 C 0.19747 0.92932 0.18189 0.0
O123 O 0.21508 0.84829 0.12853 0.0
O124 O 0.16044 0.87515 0.11992 0.0
N125 N 0.09812 0.8726 0.24559 0.0
C126 C 0.10532 0.84762 0.2648 0.0
C127 C 0.07392 0.83286 0.28021 0.0
C128 C 0.03548 0.84401 0.27588 0.0
C129 C 0.02879 0.86991 0.25622 0.0
C130 C 0.06129 0.88388 0.24174 0.0
H131 H 0.13479 0.83901 0.2684 0.0
O132 O 0.14054 0.8272 0.16341 0.0
O133 O 0.13262 0.87315 0.18594 0.0
O134 O 0.20602 0.84613 0.20226 0.0
O135 O 0.18022 0.87521 0.24139 0.0
C136 C 0.99108 0.88205 0.25002 0.0
C137 C 0.98646 0.90774 0.2294 0.0
H138 H 0.98899 0.95686 0.18791 0.0
H139 H 0.04992 0.97814 0.16411 0.0
H140 H 0.07933 0.81289 0.29535 0.0
H141 H 0.0113 0.83237 0.28757 0.0
H142 H 0.96537 0.87153 0.26064 0.0
H143 H 0.95726 0.91655 0.22442 0.0
Mn144 Mn 0.17817 0.85331 0.86567 0.0
Mn145 Mn 0.13387 0.7872 0.89165 0.0
C146 C 0.11782 0.83821 0.84536 0.0
C147 C 0.19137 0.90696 0.87011 0.0
C148 C 0.20132 0.7867 0.84518 0.0
O149 O 0.20641 0.84449 0.90711 0.0
O150 O 0.17254 0.80201 0.92347 0.0
C151 C 0.09125 0.81594 0.94514 0.0
N152 N 0.09073 0.7992 0.9178 0.0
C153 C 0.02023 0.79535 0.91915 0.0
C154 C 0.02008 0.81234 0.94741 0.0
C155 C 0.05575 0.82272 0.96042 0.0
C156 C 0.05652 0.78938 0.90493 0.0
H157 H 0.11852 0.82421 0.95516 0.0
C158 C 0.1983 0.82356 0.92759 0.0
O159 O 0.215 0.88821 0.85528 0.0
O160 O 0.16032 0.8945 0.88262 0.0
N161 N 0.09481 0.77056 0.86373 0.0
C162 C 0.09996 0.7544 0.83636 0.0
C163 C 0.06717 0.74183 0.82068 0.0
C164 C 0.02947 0.74579 0.83339 0.0
C165 C 0.02493 0.76211 0.86181 0.0
C166 C 0.05875 0.77373 0.8766 0.0
H167 H 0.12885 0.75107 0.82653 0.0
O168 O 0.14016 0.85732 0.82973 0.0
O169 O 0.1314 0.82895 0.87232 0.0
O170 O 0.20508 0.81649 0.84371 0.0
O171 O 0.17703 0.77303 0.86359 0.0
C172 C 0.98814 0.76755 0.87586 0.0
C173 C 0.98577 0.78437 0.90438 0.0
H174 H 0.99275 0.81767 0.95925 0.0
H175 H 0.05586 0.83598 0.98216 0.0
H176 H 0.07093 0.72919 0.7988 0.0
H177 H 0.00422 0.73634 0.82106 0.0
H178 H 0.96145 0.75918 0.86476 0.0
H179 H 0.95728 0.78875 0.91476 0.0
Mn180 Mn 0.18406 0.15246 0.85036 0.0
Mn181 Mn 0.13387 0.1146 0.79285 0.0
C182 C 0.12203 0.16943 0.83533 0.0
C183 C 0.20251 0.15958 0.90286 0.0
C184 C 0.2015 0.15898 0.77981 0.0
O185 O 0.21176 0.10989 0.848 0.0
O186 O 0.17389 0.08617 0.81124 0.0
C187 C 0.09383 0.06722 0.83251 0.0
N188 N 0.09187 0.09127 0.81144 0.0
C189 C 0.02127 0.0888 0.81043 0.0
C190 C 0.02256 0.0639 0.83198 0.0
C191 C 0.05901 0.05312 0.8431 0.0
C192 C 0.05694 0.10195 0.80074 0.0
H193 H 0.12172 0.05888 0.84122 0.0
C194 C 0.20189 0.0861 0.83139 0.0
O195 O 0.22394 0.16992 0.87995 0.0
O196 O 0.17071 0.14442 0.89543 0.0
N197 N 0.09346 0.13932 0.77357 0.0
C198 C 0.0972 0.16395 0.75334 0.0
C199 C 0.06341 0.17749 0.74005 0.0
C200 C 0.02619 0.16545 0.74752 0.0
C201 C 0.02308 0.13988 0.76814 0.0
C202 C 0.0578 0.12716 0.78041 0.0
H203 H 0.12572 0.17325 0.74739 0.0
O204 O 0.14601 0.18853 0.84945 0.0
O205 O 0.13507 0.14121 0.83057 0.0
O206 O 0.20744 0.1665 0.80846 0.0
O207 O 0.17577 0.13881 0.77126 0.0
C208 C 0.98687 0.12678 0.77728 0.0
C209 C 0.98596 0.10135 0.79852 0.0
H210 H 0.99577 0.053 0.84026 0.0
H211 H 0.06026 0.03398 0.85982 0.0
H212 H 0.06606 0.1972 0.72414 0.0
H213 H 1.00019 0.17614 0.73745 0.0
H214 H 0.95953 0.13632 0.7684 0.0
H215 H 0.95792 0.09175 0.80569 0.0
Mn216 Mn 0.82553 0.16381 0.86596 0.0
Mn217 Mn 0.87308 0.2194 0.90822 0.0
C218 C 0.89022 0.17689 0.85445 0.0
C219 C 0.80585 0.11209 0.85647 0.0
C220 C 0.8106 0.23455 0.85965 0.0
O221 O 0.79358 0.16622 0.9067 0.0
O222 O 0.83078 0.20079 0.93412 0.0
C223 C 0.90877 0.17874 0.95713 0.0
N224 N 0.91293 0.19989 0.93333 0.0
C225 C 0.98329 0.19934 0.93887 0.0
C226 C 0.97972 0.17768 0.96353 0.0
C227 C 0.9423 0.16733 0.97267 0.0
C228 C 0.94883 0.20992 0.92428 0.0
H229 H 0.88011 0.17057 0.9642 0.0
C230 C 0.80242 0.1811 0.93196 0.0
O231 O 0.78668 0.13576 0.845 0.0
O232 O 0.836 0.11828 0.87419 0.0
N233 N 0.91563 0.23834 0.88575 0.0
C234 C 0.91416 0.25874 0.86108 0.0
C235 C 0.94917 0.27149 0.84925 0.0
C236 C 0.98529 0.26324 0.86294 0.0
C237 C 0.98609 0.24229 0.88836 0.0
C238 C 0.95022 0.2306 0.89938 0.0
H239 H 0.88652 0.26529 0.8505 0.0
O240 O 0.86806 0.16396 0.83317 0.0
O241 O 0.87351 0.18204 0.88127 0.0
O242 O 0.80561 0.20632 0.85055 0.0
O243 O 0.83339 0.24214 0.88234 0.0
C244 C 0.02111 0.23214 0.90284 0.0
C245 C 0.01972 0.21058 0.92799 0.0
H246 H 0.00551 0.16877 0.97552 0.0
H247 H 0.93931 0.15056 0.99163 0.0
H248 H 0.94832 0.28757 0.82957 0.0
H249 H 0.01225 0.27288 0.85355 0.0
H250 H 0.0493 0.2405 0.89458 0.0
H251 H 0.04686 0.20272 0.93873 0.0
Mn252 Mn 0.82267 0.86659 0.85497 0.0
Mn253 Mn 0.86245 0.89742 0.78952 0.0
C254 C 0.8854 0.85139 0.83942 0.0
C255 C 0.80942 0.86929 0.90856 0.0
C256 C 0.79839 0.84768 0.78851 0.0
O257 O 0.79005 0.90602 0.84738 0.0
O258 O 0.82423 0.92768 0.80762 0.0
C259 C 0.90536 0.95065 0.81875 0.0
N260 N 0.90556 0.92399 0.80095 0.0
C261 C 0.97553 0.92739 0.79392 0.0
C262 C 0.976 0.95498 0.81197 0.0
C263 C 0.94076 0.9666 0.8245 0.0
C264 C 0.93938 0.91241 0.78911 0.0
H265 H 0.87843 0.95965 0.8286 0.0
C266 C 0.79837 0.92909 0.8294 0.0
O267 O 0.78747 0.853 0.88963 0.0
O268 O 0.83911 0.88401 0.89638 0.0
N269 N 0.90118 0.87098 0.77044 0.0
C270 C 0.89589 0.84389 0.75382 0.0
C271 C 0.92819 0.82964 0.73913 0.0
C272 C 0.96554 0.84342 0.7415 0.0
C273 C 0.97027 0.87138 0.75856 0.0
C274 C 0.93692 0.88472 0.7724 0.0
H275 H 0.86725 0.83328 0.75156 0.0
O276 O 0.86477 0.83372 0.85798 0.0
O277 O 0.86814 0.87702 0.83052 0.0
O278 O 0.79763 0.84366 0.81815 0.0
O279 O 0.81911 0.86902 0.77532 0.0
C280 C 0.00687 0.88628 0.76273 0.0
C281 C 0.00955 0.91411 0.78064 0.0
H282 H 0.00324 0.96737 0.81643 0.0
H283 H 0.9409 0.98781 0.83856 0.0
H284 H 0.92429 0.80807 0.72599 0.0
H285 H 0.99043 0.83222 0.73034 0.0
H286 H 0.03322 0.87631 0.7526 0.0
H287 H 0.03792 0.92514 0.78399 0.0
Mn288 Mn 0.6856 0.66007 0.65467 0.0
Mn289 Mn 0.63797 0.7168 0.61398 0.0
C290 C 0.62088 0.67296 0.66657 0.0
C291 C 0.70463 0.60765 0.66186 0.0
C292 C 0.70054 0.73063 0.66294 0.0
O293 O 0.7181 0.66409 0.61432 0.0
O294 O 0.68023 0.69884 0.5878 0.0
C295 C 0.60205 0.67713 0.5643 0.0
N296 N 0.59804 0.69798 0.5884 0.0
C297 C 0.52778 0.69863 0.58213 0.0
C298 C 0.53121 0.67729 0.55715 0.0
C299 C 0.56851 0.66644 0.54826 0.0
C300 C 0.56225 0.70836 0.59731 0.0
H301 H 0.63062 0.66871 0.55737 0.0
C302 C 0.70926 0.67986 0.58966 0.0
O303 O 0.72399 0.63067 0.67452 0.0
O304 O 0.67472 0.61497 0.64436 0.0
N305 N 0.59554 0.73554 0.63673 0.0
C306 C 0.59718 0.75577 0.66156 0.0
C307 C 0.56237 0.76917 0.67304 0.0
C308 C 0.52629 0.76183 0.65876 0.0
C309 C 0.52531 0.74105 0.63316 0.0
C310 C 0.56099 0.72866 0.62255 0.0
H311 H 0.62483 0.76178 0.67248 0.0
O312 O 0.64283 0.65905 0.68731 0.0
O313 O 0.6377 0.67894 0.64 0.0
O314 O 0.70556 0.70223 0.67163 0.0
O315 O 0.67772 0.73857 0.6404 0.0
C316 C 0.49028 0.7318 0.61807 0.0
C317 C 0.49149 0.71046 0.59269 0.0
H318 H 0.50541 0.66902 0.54469 0.0
H319 H 0.57141 0.64991 0.52905 0.0
H320 H 0.56336 0.78514 0.69285 0.0
H321 H 0.49948 0.77202 0.66784 0.0
H322 H 0.46221 0.7407 0.62601 0.0
H323 H 0.46434 0.70329 0.58147 0.0
Mn324 Mn 0.32758 0.65385 0.66138 0.0
Mn325 Mn 0.37232 0.61785 0.72246 0.0
C326 C 0.38859 0.67109 0.67866 0.0
C327 C 0.31353 0.65481 0.60758 0.0
C328 C 0.30377 0.66278 0.72995 0.0
O329 O 0.29862 0.612 0.66501 0.0
O330 O 0.33616 0.58793 0.70156 0.0
C331 C 0.41902 0.57108 0.68698 0.0
N332 N 0.41735 0.59539 0.7078 0.0
C333 C 0.48753 0.59483 0.71458 0.0
C334 C 0.48995 0.56966 0.69339 0.0
C335 C 0.45555 0.5578 0.67947 0.0
C336 C 0.45031 0.60716 0.72111 0.0
H337 H 0.3927 0.56195 0.67609 0.0
C338 C 0.30908 0.58776 0.68063 0.0
O339 O 0.29062 0.66848 0.62776 0.0
O340 O 0.3448 0.64126 0.61857 0.0
N341 N 0.40911 0.6442 0.74416 0.0
C342 C 0.40196 0.66939 0.76312 0.0
C343 C 0.43338 0.68416 0.77868 0.0
C344 C 0.47176 0.67279 0.77476 0.0
C345 C 0.4784 0.6467 0.75534 0.0
C346 C 0.4459 0.63277 0.74066 0.0
H347 H 0.37254 0.67816 0.76642 0.0
O348 O 0.36665 0.68938 0.66165 0.0
O349 O 0.37426 0.64351 0.6844 0.0
O350 O 0.30161 0.67122 0.70118 0.0
O351 O 0.32696 0.64133 0.73992 0.0
C352 C 0.51606 0.63433 0.74954 0.0
C353 C 0.52065 0.60853 0.72903 0.0
H354 H 0.51809 0.55942 0.68744 0.0
H355 H 0.4572 0.53848 0.66296 0.0
H356 H 0.42802 0.70429 0.79362 0.0
H357 H 0.49595 0.68442 0.78658 0.0
H358 H 0.54177 0.6448 0.76034 0.0
H359 H 0.54982 0.59959 0.72433 0.0
Mn360 Mn 0.32672 0.35209 0.65265 0.0
Mn361 Mn 0.37107 0.2905 0.61729 0.0
C362 C 0.391 0.33873 0.66548 0.0
C363 C 0.30841 0.4046 0.65728 0.0
C364 C 0.31039 0.28305 0.66858 0.0
O365 O 0.29383 0.34593 0.6128 0.0
O366 O 0.32754 0.30609 0.59036 0.0
C367 C 0.40449 0.32466 0.5628 0.0
N368 N 0.4097 0.30638 0.58878 0.0
C369 C 0.47974 0.30581 0.58129 0.0
C370 C 0.47506 0.32446 0.55438 0.0
C371 C 0.43727 0.33397 0.54514 0.0
C372 C 0.44598 0.29733 0.59801 0.0
H373 H 0.37558 0.33218 0.55562 0.0
C374 C 0.30041 0.32693 0.59009 0.0
O375 O 0.28885 0.38231 0.67076 0.0
O376 O 0.33817 0.39649 0.63997 0.0
N377 N 0.4146 0.27379 0.64048 0.0
C378 C 0.41413 0.2556 0.66685 0.0
C379 C 0.44951 0.24336 0.67864 0.0
C380 C 0.48496 0.2498 0.66315 0.0
C381 C 0.48473 0.26842 0.63597 0.0
C382 C 0.4485 0.27959 0.62504 0.0
H383 H 0.38698 0.25033 0.67878 0.0
O384 O 0.36957 0.35451 0.68514 0.0
O385 O 0.37389 0.33108 0.6393 0.0
O386 O 0.30567 0.31235 0.67273 0.0
O387 O 0.33273 0.27169 0.64732 0.0
C388 C 0.51906 0.27656 0.61946 0.0
C389 C 0.51659 0.29541 0.59225 0.0
H390 H 0.50027 0.33167 0.54067 0.0
H391 H 0.43342 0.34845 0.52445 0.0
H392 H 0.44946 0.22903 0.69965 0.0
H393 H 0.51223 0.24054 0.67247 0.0
H394 H 0.54754 0.26862 0.6276 0.0
H395 H 0.54321 0.30168 0.57987 0.0
Mn396 Mn 0.6837 0.35777 0.66273 0.0
Mn397 Mn 0.64279 0.39283 0.72601 0.0
C398 C 0.62346 0.34091 0.68177 0.0
C399 C 0.69564 0.35225 0.60909 0.0
C400 C 0.70994 0.34634 0.73101 0.0
O401 O 0.71208 0.40006 0.66456 0.0
O402 O 0.68107 0.42194 0.70602 0.0
C403 C 0.59955 0.44294 0.69204 0.0
N404 N 0.59943 0.41782 0.7119 0.0
C405 C 0.52912 0.42036 0.71702 0.0
C406 C 0.52857 0.44635 0.69679 0.0
C407 C 0.56394 0.45765 0.68423 0.0
C408 C 0.5655 0.40664 0.72396 0.0
H409 H 0.62655 0.45165 0.68208 0.0
C410 C 0.705 0.42328 0.68283 0.0
O411 O 0.71952 0.34108 0.63002 0.0
O412 O 0.66508 0.36751 0.61912 0.0
N413 N 0.60411 0.36768 0.74684 0.0
C414 C 0.60952 0.34215 0.76569 0.0
C415 C 0.57702 0.32829 0.78048 0.0
C416 C 0.53933 0.34087 0.77586 0.0
C417 C 0.5345 0.36733 0.75662 0.0
C418 C 0.56805 0.38041 0.74285 0.0
H419 H 0.63839 0.33237 0.76945 0.0
O420 O 0.64509 0.32213 0.66512 0.0
O421 O 0.63794 0.36863 0.68684 0.0
O422 O 0.71204 0.34148 0.70154 0.0
O423 O 0.68625 0.36628 0.74308 0.0
C424 C 0.49765 0.38096 0.75023 0.0
C425 C 0.49493 0.40733 0.73029 0.0
H426 H 0.50115 0.45771 0.69063 0.0
H427 H 0.56375 0.47762 0.66849 0.0
H428 H 0.581 0.30789 0.79532 0.0
H429 H 0.51429 0.3299 0.78703 0.0
H430 H 0.47116 0.37114 0.76027 0.0
H431 H 0.46638 0.41737 0.72524 0.0
Mn432 Mn 0.66811 0.35759 0.36015 0.0
Mn433 Mn 0.62706 0.29261 0.39162 0.0
C434 C 0.60777 0.33976 0.34202 0.0
C435 C 0.68029 0.41145 0.36147 0.0
C436 C 0.69432 0.29053 0.34495 0.0
O437 O 0.6977 0.35219 0.40152 0.0
O438 O 0.66405 0.31165 0.42236 0.0
C439 C 0.5818 0.32351 0.44244 0.0
N440 N 0.58277 0.30481 0.41642 0.0
C441 C 0.51267 0.2978 0.4178 0.0
C442 C 0.51098 0.31681 0.44471 0.0
C443 C 0.54569 0.32975 0.45704 0.0
C444 C 0.54949 0.29244 0.40422 0.0
H445 H 0.60833 0.33371 0.45194 0.0
C446 C 0.68931 0.33388 0.42431 0.0
O447 O 0.70373 0.39228 0.34703 0.0
O448 O 0.64957 0.39941 0.37491 0.0
N449 N 0.58954 0.27241 0.3647 0.0
C450 C 0.59604 0.25493 0.33835 0.0
C451 C 0.56432 0.24003 0.32334 0.0
C452 C 0.52629 0.24306 0.33565 0.0
C453 C 0.52034 0.26087 0.36298 0.0
C454 C 0.55315 0.27488 0.37714 0.0
H455 H 0.62519 0.25231 0.32882 0.0
O456 O 0.62884 0.3584 0.32476 0.0
O457 O 0.62254 0.33266 0.36921 0.0
O458 O 0.69569 0.32009 0.34031 0.0
O459 O 0.67161 0.27775 0.3652 0.0
C460 C 0.48307 0.26562 0.37646 0.0
C461 C 0.4792 0.28425 0.40373 0.0
H462 H 0.48318 0.32174 0.45601 0.0
H463 H 0.54461 0.34455 0.47773 0.0
H464 H 0.56915 0.22628 0.30228 0.0
H465 H 0.50184 0.23178 0.32383 0.0
H466 H 0.45712 0.25537 0.36583 0.0
H467 H 0.45032 0.28809 0.41362 0.0
Mn468 Mn 0.67897 0.65336 0.35721 0.0
Mn469 Mn 0.63547 0.62631 0.29092 0.0
C470 C 0.61796 0.67237 0.34198 0.0
C471 C 0.69295 0.64824 0.41074 0.0
C472 C 0.70222 0.67359 0.29073 0.0
O473 O 0.70856 0.61273 0.34812 0.0
O474 O 0.67375 0.59492 0.30659 0.0
C475 C 0.59233 0.57321 0.31979 0.0
N476 N 0.59213 0.60019 0.30256 0.0
C477 C 0.52183 0.59818 0.29704 0.0
C478 C 0.52133 0.57027 0.31452 0.0
C479 C 0.55673 0.55779 0.32602 0.0
C480 C 0.55818 0.61261 0.29175 0.0
H481 H 0.61939 0.56358 0.32886 0.0
C482 C 0.70011 0.59168 0.32781 0.0
O483 O 0.71575 0.66407 0.39219 0.0
O484 O 0.66192 0.63555 0.39825 0.0
N485 N 0.59673 0.65385 0.27337 0.0
C486 C 0.60222 0.68095 0.25688 0.0
C487 C 0.56976 0.69607 0.24318 0.0
C488 C 0.53208 0.68305 0.24629 0.0
C489 C 0.52721 0.6549 0.26294 0.0
C490 C 0.5607 0.64069 0.27576 0.0
H491 H 0.63112 0.69096 0.25409 0.0
O492 O 0.63962 0.68829 0.36147 0.0
O493 O 0.63248 0.64585 0.33258 0.0
O494 O 0.7051 0.67606 0.32054 0.0
O495 O 0.67891 0.65426 0.2771 0.0
C496 C 0.49038 0.64058 0.26761 0.0
C497 C 0.48765 0.61239 0.28489 0.0
H498 H 0.49393 0.5583 0.31938 0.0
H499 H 0.55658 0.53633 0.33967 0.0
H500 H 0.57379 0.71772 0.23026 0.0
H501 H 0.50708 0.69493 0.23594 0.0
H502 H 0.46391 0.65124 0.25832 0.0
H503 H 0.45912 0.60183 0.28869 0.0
Mn504 Mn 0.32171 0.66008 0.36693 0.0
Mn505 Mn 0.36399 0.72531 0.3972 0.0
C506 C 0.38531 0.6741 0.35239 0.0
C507 C 0.30646 0.60652 0.36945 0.0
C508 C 0.30177 0.72714 0.346 0.0
O509 O 0.2888 0.66896 0.40608 0.0
O510 O 0.32257 0.71005 0.426 0.0
C511 C 0.40138 0.69549 0.45271 0.0
N512 N 0.40448 0.71277 0.42586 0.0
C513 C 0.47444 0.71746 0.43244 0.0
C514 C 0.47195 0.6999 0.46026 0.0
C515 C 0.43526 0.68879 0.47037 0.0
C516 C 0.43972 0.72315 0.41567 0.0
H517 H 0.37331 0.68678 0.46057 0.0
C518 C 0.29576 0.68907 0.42773 0.0
O519 O 0.28545 0.62592 0.35299 0.0
O520 O 0.33614 0.61824 0.38471 0.0
N521 N 0.40555 0.74237 0.37226 0.0
C522 C 0.4029 0.75938 0.34518 0.0
C523 C 0.4368 0.77327 0.3326 0.0
C524 C 0.47299 0.7698 0.3481 0.0
C525 C 0.47499 0.75242 0.37606 0.0
C526 C 0.44014 0.73948 0.38772 0.0
H527 H 0.37511 0.76258 0.33336 0.0
O528 O 0.36434 0.65574 0.33464 0.0
O529 O 0.36807 0.68367 0.37776 0.0
O530 O 0.29849 0.69743 0.34323 0.0
O531 O 0.32361 0.74022 0.36676 0.0
C532 C 0.51024 0.74725 0.39268 0.0
C533 C 0.51003 0.72952 0.42069 0.0
H534 H 0.498 0.69478 0.47401 0.0
H535 H 0.4331 0.67512 0.49175 0.0
H536 H 0.43501 0.78668 0.31103 0.0
H537 H 0.49911 0.78039 0.33822 0.0
H538 H 0.53773 0.7566 0.38399 0.0
H539 H 0.53737 0.72546 0.43311 0.0
Mn540 Mn 0.31256 0.36497 0.35623 0.0
Mn541 Mn 0.35292 0.39545 0.29055 0.0
C542 C 0.375 0.34926 0.34019 0.0
C543 C 0.30073 0.36702 0.4104 0.0
C544 C 0.28804 0.3465 0.28922 0.0
O545 O 0.28101 0.40523 0.34922 0.0
O546 O 0.31392 0.42537 0.30784 0.0
C547 C 0.39486 0.44887 0.32025 0.0
N548 N 0.3956 0.42226 0.30242 0.0
C549 C 0.46564 0.42606 0.2961 0.0
C550 C 0.46557 0.45361 0.31419 0.0
C551 C 0.43003 0.46501 0.32639 0.0
C552 C 0.42971 0.41088 0.29092 0.0
H553 H 0.36769 0.45768 0.32983 0.0
C554 C 0.28824 0.4273 0.32968 0.0
O555 O 0.27786 0.35141 0.39157 0.0
O556 O 0.33016 0.38164 0.39777 0.0
N557 N 0.3922 0.36919 0.27196 0.0
C558 C 0.38739 0.34205 0.25534 0.0
C559 C 0.42002 0.32797 0.24096 0.0
C560 C 0.4572 0.34201 0.24363 0.0
C561 C 0.46144 0.37002 0.26069 0.0
C562 C 0.42777 0.38316 0.27421 0.0
H563 H 0.35886 0.33128 0.25288 0.0
O564 O 0.3542 0.33153 0.35856 0.0
O565 O 0.35799 0.37505 0.33155 0.0
O566 O 0.28638 0.34278 0.31896 0.0
O567 O 0.31011 0.36698 0.27611 0.0
C568 C 0.49784 0.38513 0.26522 0.0
C569 C 0.49999 0.41297 0.28315 0.0
H570 H 0.49263 0.46615 0.31895 0.0
H571 H 0.42975 0.48618 0.3405 0.0
H572 H 0.41652 0.30636 0.22783 0.0
H573 H 0.48236 0.33095 0.23271 0.0
H574 H 0.52443 0.37531 0.25535 0.0
H575 H 0.52821 0.42416 0.2868 0.0
H576 H 0.27095 0.35101 0.22602 0.0
H577 H 0.25586 0.29062 0.30672 0.0
H578 H 0.22491 0.251 0.27374 0.0
H579 H 0.20345 0.23249 0.22205 0.0
H580 H 0.21396 0.29308 0.14134 0.0
H581 H 0.24534 0.33346 0.17415 0.0
C582 C 0.26063 0.32929 0.23643 0.0
C583 C 0.26593 0.32397 0.26895 0.0
C584 C 0.24228 0.30645 0.21727 0.0
C585 C 0.25212 0.29564 0.28192 0.0
C586 C 0.23454 0.27277 0.26302 0.0
C587 C 0.21281 0.25447 0.21156 0.0
C588 C 0.20697 0.25956 0.17919 0.0
C589 C 0.22981 0.27776 0.23067 0.0
C590 C 0.21836 0.28849 0.16616 0.0
C591 C 0.23627 0.31158 0.18493 0.0
H592 H 0.7122 0.22767 0.35104 0.0
H593 H 0.72787 0.30752 0.2896 0.0
H594 H 0.7602 0.27442 0.25111 0.0
H595 H 0.78269 0.22289 0.23374 0.0
H596 H 0.7723 0.14304 0.29538 0.0
H597 H 0.73923 0.17591 0.33478 0.0
C598 C 0.72297 0.23784 0.32935 0.0
C599 C 0.7174 0.27015 0.32339 0.0
C600 C 0.74219 0.21862 0.30714 0.0
C601 C 0.7318 0.28288 0.29512 0.0
C602 C 0.75017 0.26391 0.27287 0.0
C603 C 0.77293 0.21262 0.25573 0.0
C604 C 0.77919 0.18051 0.26145 0.0
C605 C 0.75514 0.23176 0.27846 0.0
C606 C 0.76745 0.16769 0.29038 0.0
C607 C 0.74861 0.18649 0.31288 0.0
H608 H 0.79004 0.78743 0.22647 0.0
H609 H 0.77298 0.72995 0.14406 0.0
H610 H 0.74013 0.68987 0.17587 0.0
H611 H 0.71623 0.67124 0.22733 0.0
H612 H 0.73763 0.72777 0.31005 0.0
H613 H 0.76913 0.76779 0.27801 0.0
C614 C 0.77878 0.76624 0.21547 0.0
C615 C 0.78336 0.76182 0.18294 0.0
C616 C 0.76107 0.74293 0.23403 0.0
C617 C 0.76954 0.73393 0.16907 0.0
C618 C 0.75086 0.711 0.18725 0.0
C619 C 0.728 0.69221 0.23838 0.0
C620 C 0.72445 0.69633 0.27113 0.0
C621 C 0.74655 0.71519 0.21981 0.0
C622 C 0.74008 0.7237 0.28498 0.0
C623 C 0.75794 0.74679 0.26664 0.0
H624 H 0.2897 0.791 0.34727 0.0
H625 H 0.26925 0.70837 0.29044 0.0
H626 H 0.24024 0.74058 0.24932 0.0
H627 H 0.22003 0.79199 0.22918 0.0
H628 H 0.2355 0.87448 0.28675 0.0
H629 H 0.26741 0.84272 0.32755 0.0
C630 C 0.27874 0.78002 0.32596 0.0
C631 C 0.28169 0.74718 0.32218 0.0
C632 C 0.26153 0.79873 0.30228 0.0
C633 C 0.26719 0.73347 0.29431 0.0
C634 C 0.25075 0.75192 0.27057 0.0
C635 C 0.23093 0.80309 0.25047 0.0
C636 C 0.22605 0.83561 0.25471 0.0
C637 C 0.24788 0.78454 0.27422 0.0
C638 C 0.23927 0.84952 0.28282 0.0
C639 C 0.25735 0.83134 0.30619 0.0
H640 H 0.29067 0.72529 0.73049 0.0
H641 H 0.26833 0.64077 0.7832 0.0
H642 H 0.23483 0.67147 0.82394 0.0
H643 H 0.21234 0.72273 0.84467 0.0
H644 H 0.23972 0.80726 0.79296 0.0
H645 H 0.27113 0.77626 0.75214 0.0
C646 C 0.27801 0.71357 0.75072 0.0
C647 C 0.28126 0.68079 0.75359 0.0
C648 C 0.26015 0.73146 0.77449 0.0
C649 C 0.26579 0.66598 0.78036 0.0
C650 C 0.2468 0.68354 0.80369 0.0
C651 C 0.22541 0.73439 0.82459 0.0
C652 C 0.22356 0.76739 0.82209 0.0
C653 C 0.24397 0.71637 0.8011 0.0
C654 C 0.24083 0.782 0.79583 0.0
C655 C 0.25864 0.76425 0.77224 0.0
H656 H 0.2348 0.21621 0.78566 0.0
H657 H 0.21644 0.14165 0.7185 0.0
H658 H 0.2501 0.17257 0.67798 0.0
H659 H 0.28347 0.22211 0.66136 0.0
H660 H 0.29647 0.29691 0.72931 0.0
H661 H 0.26639 0.26461 0.76955 0.0
C662 C 0.23847 0.20646 0.76227 0.0
C663 C 0.22344 0.1765 0.75528 0.0
C664 C 0.25677 0.22461 0.73904 0.0
C665 C 0.22784 0.16463 0.72458 0.0
C666 C 0.24706 0.18233 0.70139 0.0
C667 C 0.27973 0.23119 0.685 0.0
C668 C 0.292 0.26201 0.69215 0.0
C669 C 0.26144 0.21254 0.70826 0.0
C670 C 0.28685 0.27348 0.72292 0.0
C671 C 0.26978 0.25497 0.74611 0.0
H672 H 0.8021 0.23589 0.79693 0.0
H673 H 0.77756 0.28997 0.88021 0.0
H674 H 0.74477 0.33026 0.84802 0.0
H675 H 0.72119 0.34902 0.79561 0.0
H676 H 0.75137 0.29488 0.71302 0.0
H677 H 0.78392 0.25615 0.74546 0.0
C678 C 0.78944 0.25646 0.80808 0.0
C679 C 0.79156 0.25969 0.8409 0.0
C680 C 0.77174 0.27969 0.78945 0.0
C681 C 0.776 0.28686 0.85496 0.0
C682 C 0.75727 0.30986 0.83654 0.0
C683 C 0.73524 0.32894 0.78471 0.0
C684 C 0.73341 0.3251 0.75173 0.0
C685 C 0.75471 0.30645 0.80366 0.0
C686 C 0.75207 0.29882 0.73818 0.0
C687 C 0.77069 0.27637 0.75675 0.0
H688 H 0.78271 0.84951 0.7248 0.0
H689 H 0.76643 0.79238 0.80775 0.0
H690 H 0.73665 0.75128 0.77619 0.0
H691 H 0.71605 0.73052 0.72522 0.0
H692 H 0.72734 0.78775 0.64219 0.0
H693 H 0.75824 0.82954 0.67344 0.0
C694 C 0.77237 0.82819 0.73599 0.0
C695 C 0.77701 0.82429 0.76874 0.0
C696 C 0.75463 0.80439 0.71763 0.0
C697 C 0.76324 0.79638 0.78272 0.0
C698 C 0.7463 0.77262 0.76465 0.0
C699 C 0.72555 0.75205 0.7139 0.0
C700 C 0.72001 0.75583 0.68138 0.0
C701 C 0.74216 0.77621 0.73211 0.0
C702 C 0.73155 0.78419 0.66719 0.0
C703 C 0.74916 0.8081 0.68507 0.0
H704 H 0.20481 0.12073 0.95375 0.0
H705 H 0.22055 0.21706 0.92538 0.0
H706 H 0.22678 0.23318 0.98042 0.0
H707 H 0.21888 0.22058 0.03661 0.0
H708 H 0.2079 0.1239 0.06527 0.0
H709 H 0.21011 0.107 0.01032 0.0
C710 C 0.21025 0.14512 0.95975 0.0
C711 C 0.21161 0.16781 0.93579 0.0
C712 C 0.21495 0.15409 0.99145 0.0
C713 C 0.21927 0.19928 0.94358 0.0
C714 C 0.22278 0.2085 0.97501 0.0
C715 C 0.21857 0.19574 0.03083 0.0
C716 C 0.21328 0.17354 0.05492 0.0
C717 C 0.21964 0.18622 0.99917 0.0
C718 C 0.2126 0.14142 0.04718 0.0
C719 C 0.21315 0.13178 0.0157 0.0
H720 H 0.7775 0.21724 0.98047 0.0
H721 H 0.79451 0.12107 0.95197 0.0
H722 H 0.79218 0.10413 1.00689 0.0
H723 H 0.79567 0.11812 0.06352 0.0
H724 H 0.77388 0.21383 0.09161 0.0
H725 H 0.76767 0.22958 0.03653 0.0
C726 C 0.77906 0.19244 0.98627 0.0
C727 C 0.78607 0.17044 0.96226 0.0
C728 C 0.77788 0.18292 0.01791 0.0
C729 C 0.78844 0.13839 0.97 0.0
C730 C 0.78781 0.12876 1.00148 0.0
C731 C 0.78889 0.14227 0.05746 0.0
C732 C 0.78583 0.16493 0.0814 0.0
C733 C 0.78425 0.15101 0.0257 0.0
C734 C 0.77646 0.19606 0.07347 0.0
C735 C 0.77298 0.20508 0.04201 0.0
H736 H 0.76963 0.82633 0.94312 0.0
H737 H 0.83299 0.91381 0.95046 0.0
H738 H 0.82684 0.91245 0.00771 0.0
H739 H 0.81179 0.88275 0.05554 0.0
H740 H 0.75733 0.79176 0.04835 0.0
H741 H 0.75025 0.79837 0.99131 0.0
C742 C 0.78146 0.84534 0.95727 0.0
C743 C 0.80197 0.87002 0.94272 0.0
C744 C 0.77907 0.84377 0.99022 0.0
C745 C 0.81745 0.8944 0.96124 0.0
C746 C 0.81383 0.89368 0.99393 0.0
C747 C 0.7969 0.86502 0.04151 0.0
C748 C 0.78412 0.83719 0.0559 0.0
C749 C 0.79571 0.86805 0.00869 0.0
C750 C 0.7664 0.81367 0.03764 0.0
C751 C 0.76296 0.81728 1.00506 0.0
H752 H 0.22296 0.81423 0.07347 0.0
H753 H 0.17485 0.90768 0.06704 0.0
H754 H 0.1807 0.90625 0.00979 0.0
H755 H 0.19215 0.87631 0.96147 0.0
H756 H 0.23084 0.78019 0.96717 0.0
H757 H 0.23705 0.78477 0.02451 0.0
C758 C 0.2144 0.83439 0.05945 0.0
C759 C 0.19849 0.86102 0.07432 0.0
C760 C 0.21632 0.83287 0.02638 0.0
C761 C 0.18694 0.88687 0.05601 0.0
C762 C 0.19036 0.88609 0.02331 0.0
C763 C 0.20327 0.85676 0.97524 0.0
C764 C 0.21198 0.8282 0.96021 0.0
C765 C 0.20414 0.85897 0.0082 0.0
C766 C 0.22478 0.80257 0.9783 0.0
C767 C 0.22786 0.80511 0.01106 0.0
H768 H 0.05484 0.20722 0.19898 0.0
H769 H 0.06823 0.13499 0.12877 0.0
H770 H 0.99756 0.12531 0.12898 0.0
H771 H 0.93202 0.13769 0.14862 0.0
H772 H 0.91581 0.21539 0.21206 0.0
H773 H 0.9873 0.22358 0.21449 0.0
C774 C 0.04201 0.18959 0.18369 0.0
C775 C 0.06626 0.17194 0.16373 0.0
C776 C 0.001 0.1854 0.18258 0.0
C777 C 0.04976 0.14894 0.14409 0.0
C778 C 0.00948 0.14348 0.14413 0.0
C779 C 0.9443 0.15642 0.16293 0.0
C780 C 0.91936 0.17522 0.18107 0.0
C781 C 0.98486 0.16165 0.16313 0.0
C782 C 0.93496 0.20024 0.19855 0.0
C783 C 0.97568 0.20484 0.19994 0.0
H784 H 0.76854 0.94184 0.19457 0.0
H785 H 0.82345 0.94924 0.10362 0.0
H786 H 0.81613 1.00629 0.10489 0.0
H787 H 0.80308 0.05426 0.13504 0.0
H788 H 0.75681 0.04743 0.22884 0.0
H789 H 0.7505 0.99031 0.22314 0.0
C790 C 0.77815 0.95597 0.17482 0.0
C791 C 0.79671 0.94143 0.14913 0.0
C792 C 0.77519 0.98896 0.17625 0.0
C793 C 0.80942 0.95996 0.12379 0.0
C794 C 0.80517 0.99258 0.12447 0.0
C795 C 0.79005 0.04031 0.15365 0.0
C796 C 0.77947 0.05491 0.182 0.0
C797 C 0.7892 0.0074 0.15096 0.0
C798 C 0.76423 0.03662 0.20656 0.0
C799 C 0.7612 1.00396 0.20344 0.0
H800 H 0.94028 0.8114 0.20294 0.0
H801 H 0.92772 0.88142 0.13045 0.0
H802 H 0.99858 0.88982 0.12992 0.0
H803 H 0.06399 0.87641 0.14888 0.0
H804 H 0.07944 0.80054 0.21455 0.0
H805 H 0.00771 0.79442 0.21864 0.0
C806 C 0.95335 0.82829 0.18703 0.0
C807 C 0.92932 0.8456 0.16654 0.0
C808 C 0.99443 0.83167 0.18552 0.0
C809 C 0.94606 0.86771 0.14616 0.0
C810 C 0.98643 0.87244 0.14577 0.0
C811 C 0.05149 0.85851 0.16403 0.0
C812 C 0.07629 0.83961 0.1822 0.0
C813 C 0.01084 0.85435 0.16507 0.0
C814 C 0.0604 0.81573 0.20093 0.0
C815 C 0.01957 0.8123 0.20323 0.0
H816 H 0.19583 0.06159 0.11912 0.0
H817 H 0.21454 0.09019 0.21526 0.0
H818 H 0.2231 0.03539 0.23105 0.0
H819 H 0.2171 0.97913 0.21842 0.0
H820 H 0.20306 0.95029 0.12187 0.0
H821 H 0.20209 1.00524 0.10511 0.0
C822 C 0.20235 0.05571 0.1434 0.0
C823 C 0.20394 0.07966 0.16613 0.0
C824 C 0.20831 0.02417 0.15217 0.0
C825 C 0.21305 0.07202 0.19743 0.0
C826 C 0.21788 0.04072 0.20647 0.0
C827 C 0.21523 0.98494 0.19362 0.0
C828 C 0.21015 0.96078 0.17143 0.0
C829 C 0.2146 0.01656 0.18419 0.0
C830 C 0.20756 0.96849 0.13935 0.0
C831 C 0.20638 0.99994 0.12981 0.0
H832 H 0.94054 0.81808 0.80622 0.0
H833 H 0.92537 0.88354 0.88252 0.0
H834 H 0.99605 0.88391 0.89221 0.0
H835 H 0.06208 0.86618 0.87866 0.0
H836 H 0.08001 0.80964 0.79603 0.0
H837 H 0.00855 0.80573 0.78817 0.0
C838 C 0.95299 0.83283 0.82445 0.0
C839 C 0.92822 0.85116 0.84333 0.0
C840 C 0.99399 0.83462 0.8285 0.0
C841 C 0.94424 0.86959 0.86752 0.0
C842 C 0.98452 0.86987 0.87301 0.0
C843 C 0.05016 0.85315 0.85885 0.0
C844 C 0.07561 0.83717 0.8386 0.0
C845 C 0.00963 0.85263 0.85357 0.0
C846 C 0.06048 0.82137 0.8123 0.0
C847 C 0.01978 0.81927 0.80781 0.0
H848 H 0.2346 0.94228 0.82975 0.0
H849 H 0.16281 0.94852 0.91293 0.0
H850 H 0.16768 1.0058 0.91184 0.0
H851 H 0.18477 0.05396 0.8833 0.0
H852 H 0.24847 0.04785 0.79626 0.0
H853 H 0.25558 0.99088 0.80309 0.0
C854 C 0.22065 0.95621 0.84794 0.0
C855 C 0.19823 0.94125 0.87131 0.0
C856 C 0.22239 0.9892 0.84648 0.0
C857 C 0.17996 0.95954 0.89456 0.0
C858 C 0.1828 0.99227 0.89398 0.0
C859 C 0.20155 0.0402 0.86655 0.0
C860 C 0.21704 0.05491 0.83978 0.0
C861 C 0.20302 0.00737 0.86959 0.0
C862 C 0.23726 0.03693 0.81743 0.0
C863 C 0.24077 1.00437 0.82113 0.0
H864 H 0.06744 0.13891 0.8678 0.0
H865 H 0.08284 0.21585 0.80344 0.0
H866 H 0.01128 0.22391 0.80146 0.0
H867 H 0.9439 0.20766 0.81768 0.0
H868 H 0.93145 0.13554 0.88804 0.0
H869 H 0.00214 0.12625 0.8876 0.0
C870 C 0.05498 0.15743 0.85336 0.0
C871 C 0.07973 0.17609 0.83493 0.0
C872 C 0.0144 0.16247 0.85327 0.0
C873 C 0.06387 0.20082 0.81723 0.0
C874 C 0.02311 0.20533 0.81608 0.0
C875 C 0.95694 0.19009 0.83291 0.0
C876 C 0.93292 0.17242 0.85304 0.0
C877 C 0.99799 0.18601 0.83376 0.0
C878 C 0.94971 0.14954 0.87261 0.0
C879 C 0.99002 0.14429 0.87244 0.0
H880 H 0.78657 0.98014 0.79195 0.0
H881 H 0.78451 0.95003 0.88877 0.0
H882 H 0.78553 1.00462 0.90628 0.0
H883 H 0.7964 0.06086 0.894 0.0
H884 H 0.79364 0.09112 0.79737 0.0
H885 H 0.78535 0.03673 0.77983 0.0
C886 C 0.78502 0.98557 0.81685 0.0
C887 C 0.78564 0.961 0.83895 0.0
C888 C 0.78577 0.01709 0.82682 0.0
C889 C 0.78363 0.96842 0.87118 0.0
C890 C 0.78483 0.99969 0.88127 0.0
C891 C 0.79343 0.05543 0.86918 0.0
C892 C 0.79622 0.07967 0.84691 0.0
C893 C 0.78749 0.02417 0.85932 0.0
C894 C 0.79172 0.07267 0.81485 0.0
C895 C 0.78702 0.04161 0.80482 0.0
H896 H 0.73952 0.6859 0.44674 0.0
H897 H 0.66466 0.60424 0.45113 0.0
H898 H 0.67265 0.6023 0.50819 0.0
H899 H 0.69265 0.6283 0.55707 0.0
H900 H 0.75893 0.71427 0.5533 0.0
H901 H 0.76426 0.70948 0.49598 0.0
C902 C 0.72554 0.66738 0.46018 0.0
C903 C 0.70124 0.64541 0.4448 0.0
C904 C 0.7292 0.66705 0.49315 0.0
C905 C 0.68311 0.62165 0.46248 0.0
C906 C 0.6878 0.62044 0.49509 0.0
C907 C 0.70981 0.64513 0.54372 0.0
C908 C 0.72631 0.67113 0.55923 0.0
C909 C 0.70983 0.64353 0.51075 0.0
C910 C 0.74702 0.69362 0.5418 0.0
C911 C 0.74936 0.69116 0.50902 0.0
H912 H 0.27428 0.69861 0.57279 0.0
H913 H 0.33292 0.60908 0.5662 0.0
H914 H 0.32325 0.60868 0.50928 0.0
H915 H 0.30614 0.63675 0.461 0.0
H916 H 0.25697 0.72972 0.46645 0.0
H917 H 0.25346 0.72558 0.52393 0.0
C918 C 0.28436 0.67886 0.55885 0.0
C919 C 0.3045 0.65401 0.57356 0.0
C920 C 0.28001 0.67936 0.52588 0.0
C921 C 0.31776 0.62864 0.55531 0.0
C922 C 0.31208 0.62833 0.52279 0.0
C923 C 0.29309 0.65551 0.47477 0.0
C924 C 0.2808 0.68314 0.45963 0.0
C925 C 0.29415 0.65389 0.50774 0.0
C926 C 0.26562 0.70794 0.47767 0.0
C927 C 0.26426 0.70574 0.51052 0.0
H928 H 0.26527 0.32222 0.44612 0.0
H929 H 0.32362 0.41198 0.452 0.0
H930 H 0.32017 0.41025 0.50938 0.0
H931 H 0.30843 0.38025 0.55768 0.0
H932 H 0.25911 0.2873 0.55189 0.0
H933 H 0.24992 0.29341 0.49498 0.0
C934 C 0.27657 0.34162 0.46001 0.0
C935 C 0.29476 0.36717 0.44488 0.0
C936 C 0.27584 0.33988 0.49309 0.0
C937 C 0.30974 0.39197 0.46312 0.0
C938 C 0.3077 0.39103 0.49593 0.0
C939 C 0.29419 0.3619 0.54406 0.0
C940 C 0.28341 0.33371 0.55892 0.0
C941 C 0.29173 0.36476 0.51118 0.0
C942 C 0.26666 0.30947 0.54095 0.0
C943 C 0.26198 0.31283 0.50839 0.0
H944 H 0.7045 0.29473 0.4732 0.0
H945 H 0.70076 0.3927 0.44763 0.0
H946 H 0.70277 0.40766 0.50311 0.0
H947 H 0.69762 0.39247 0.55929 0.0
H948 H 0.70604 0.29468 0.58445 0.0
H949 H 0.70983 0.27998 0.52892 0.0
C950 C 0.70529 0.31936 0.47978 0.0
C951 C 0.70241 0.34252 0.45636 0.0
C952 C 0.70632 0.32779 0.51172 0.0
C953 C 0.70345 0.37438 0.46519 0.0
C954 C 0.70399 0.38297 0.49696 0.0
C955 C 0.70063 0.36804 0.55244 0.0
C956 C 0.70091 0.34457 0.57562 0.0
C957 C 0.70405 0.35984 0.52046 0.0
C958 C 0.70555 0.31302 0.5668 0.0
C959 C 0.70774 0.30463 0.53511 0.0
H960 H 0.56705 0.70439 0.70265 0.0
H961 H 0.57986 0.63173 0.63277 0.0
H962 H 0.50889 0.62407 0.63125 0.0
H963 H 0.44332 0.63888 0.6485 0.0
H964 H 0.42788 0.71654 0.71211 0.0
H965 H 0.49962 0.72227 0.71697 0.0
C966 C 0.55403 0.68701 0.68716 0.0
C967 C 0.57818 0.66878 0.66765 0.0
C968 C 0.51292 0.68393 0.68511 0.0
C969 C 0.56146 0.64612 0.64775 0.0
C970 C 0.52102 0.64182 0.64678 0.0
C971 C 0.45582 0.65709 0.66337 0.0
C972 C 0.43098 0.67667 0.6807 0.0
C973 C 0.49652 0.66081 0.66505 0.0
C974 C 0.44692 0.70088 0.69909 0.0
C975 C 0.48776 0.70404 0.70189 0.0
H976 H 0.28784 0.53846 0.71678 0.0
H977 H 0.30438 0.56687 0.62051 0.0
H978 H 0.30468 0.51184 0.60376 0.0
H979 H 0.30927 0.45536 0.61793 0.0
H980 H 0.28809 0.42759 0.71388 0.0
H981 H 0.28061 0.48247 0.72939 0.0
C982 C 0.2901 0.53255 0.69202 0.0
C983 C 0.29602 0.55653 0.66992 0.0
C984 C 0.29037 0.50093 0.68262 0.0
C985 C 0.29918 0.54874 0.63789 0.0
C986 C 0.29999 0.51726 0.62837 0.0
C987 C 0.30254 0.46146 0.64209 0.0
C988 C 0.29985 0.43768 0.66487 0.0
C989 C 0.29714 0.49313 0.65072 0.0
C990 C 0.29044 0.44562 0.69601 0.0
C991 C 0.28618 0.47697 0.70491 0.0
H992 H 0.56924 0.37264 0.65001 0.0
H993 H 0.58316 0.29646 0.71553 0.0
H994 H 0.51134 0.29105 0.71936 0.0
H995 H 0.44423 0.30872 0.70353 0.0
H996 H 0.43305 0.37776 0.62999 0.0
H997 H 0.50402 0.38594 0.63007 0.0
C998 C 0.55639 0.35483 0.66508 0.0
C999 C 0.58088 0.3357 0.68336 0.0
C1000 C 0.51563 0.35084 0.66572 0.0
C1001 C 0.56445 0.31189 0.70189 0.0
C1002 C 0.52354 0.30885 0.70403 0.0
C1003 C 0.4576 0.32526 0.68742 0.0
C1004 C 0.43386 0.34243 0.66655 0.0
C1005 C 0.49877 0.32836 0.68613 0.0
C1006 C 0.45109 0.36414 0.64599 0.0
C1007 C 0.49154 0.36877 0.64598 0.0
H1008 H 0.7059 0.55721 0.62229 0.0
H1009 H 0.72383 0.58417 0.71896 0.0
H1010 H 0.73067 0.52897 0.73405 0.0
H1011 H 0.72404 0.47284 0.72048 0.0
H1012 H 0.71112 0.44581 0.62325 0.0
H1013 H 0.71108 0.501 0.60752 0.0
C1014 C 0.71188 0.5509 0.64654 0.0
C1015 C 0.71382 0.57457 0.66959 0.0
C1016 C 0.7169 0.5191 0.65491 0.0
C1017 C 0.72215 0.56628 0.70086 0.0
C1018 C 0.72598 0.53473 0.7095 0.0
C1019 C 0.7225 0.47904 0.69576 0.0
C1020 C 0.71753 0.45521 0.67312 0.0
C1021 C 0.72251 0.5109 0.68685 0.0
C1022 C 0.71548 0.46361 0.64116 0.0
C1023 C 0.71486 0.49524 0.63216 0.0
H1024 H 0.42972 0.3141 0.30835 0.0
H1025 H 0.41555 0.3835 0.38125 0.0
H1026 H 0.48645 0.38539 0.38937 0.0
H1027 H 0.55241 0.36843 0.37498 0.0
H1028 H 0.56906 0.30711 0.29566 0.0
H1029 H 0.49747 0.30126 0.28995 0.0
C1030 C 0.44242 0.32981 0.32565 0.0
C1031 C 0.41785 0.34893 0.34394 0.0
C1032 C 0.4835 0.33234 0.32877 0.0
C1033 C 0.43423 0.36885 0.36677 0.0
C1034 C 0.47464 0.37003 0.37133 0.0
C1035 C 0.54019 0.35391 0.35637 0.0
C1036 C 0.56538 0.33732 0.33642 0.0
C1037 C 0.49951 0.35213 0.3523 0.0
C1038 C 0.54978 0.31945 0.31167 0.0
C1039 C 0.509 0.3162 0.30842 0.0
H1040 H 0.72044 0.44634 0.31883 0.0
H1041 H 0.65715 0.45293 0.40629 0.0
H1042 H 0.66605 0.50993 0.40664 0.0
H1043 H 0.68496 0.55813 0.37912 0.0
H1044 H 0.73919 0.55236 0.28798 0.0
H1045 H 0.74202 0.49489 0.29225 0.0
C1046 C 0.70909 0.46029 0.33813 0.0
C1047 C 0.68802 0.44558 0.36243 0.0
C1048 C 0.71308 0.49318 0.33756 0.0
C1049 C 0.67311 0.46383 0.38718 0.0
C1050 C 0.67834 0.49637 0.38745 0.0
C1051 C 0.69876 0.54425 0.36079 0.0
C1052 C 0.71289 0.55925 0.33368 0.0
C1053 C 0.69751 0.51134 0.36244 0.0
C1054 C 0.7291 0.54118 0.30937 0.0
C1055 C 0.73015 0.50838 0.31165 0.0
H1056 H 0.56281 0.63894 0.37059 0.0
H1057 H 0.57913 0.71967 0.31122 0.0
H1058 H 0.50758 0.72518 0.30543 0.0
H1059 H 0.43998 0.70619 0.31764 0.0
H1060 H 0.42583 0.63266 0.38622 0.0
H1061 H 0.49679 0.62447 0.38781 0.0
C1062 C 0.55051 0.65789 0.35661 0.0
C1063 C 0.5756 0.6782 0.34036 0.0
C1064 C 0.50981 0.66201 0.35513 0.0
C1065 C 0.55992 0.70336 0.32324 0.0
C1066 C 0.51916 0.70654 0.32008 0.0
C1067 C 0.45268 0.68885 0.33325 0.0
C1068 C 0.42814 0.67037 0.35218 0.0
C1069 C 0.49374 0.68583 0.3358 0.0
C1070 C 0.44452 0.64733 0.37177 0.0
C1071 C 0.48495 0.64272 0.37277 0.0
H1072 H 0.30228 0.45921 0.38262 0.0
H1073 H 0.2485 0.46763 0.29129 0.0
H1074 H 0.24499 0.52486 0.29752 0.0
H1075 H 0.26621 0.57264 0.32571 0.0
H1076 H 0.32846 0.56377 0.41372 0.0
H1077 H 0.32 0.50675 0.41214 0.0
C1078 C 0.28835 0.47356 0.36469 0.0
C1079 C 0.27463 0.45933 0.33691 0.0
C1080 C 0.28909 0.50646 0.36754 0.0
C1081 C 0.25827 0.47813 0.31317 0.0
C1082 C 0.25685 0.51083 0.31657 0.0
C1083 C 0.27735 0.55823 0.34477 0.0
C1084 C 0.29806 0.57238 0.36975 0.0
C1085 C 0.27356 0.52532 0.34313 0.0
C1086 C 0.31269 0.55341 0.39413 0.0
C1087 C 0.30776 0.52081 0.39328 0.0
loop_
_geom_bond_atom_site_label_1
_geom_bond_atom_site_label_2
_geom_bond_distance
_geom_bond_site_symmetry_2
_ccdc_geom_bond_type
Mn0 O5 2.095 . S
Mn0 O15 2.162 . S
Mn0 O16 2.297 . S
Mn0 O24 2.385 . S
Mn0 O25 2.209 . S
Mn0 O26 2.094 . S
Mn1 O6 2.121 . S
Mn1 N8 2.257 . S
Mn1 N17 2.282 . S
Mn1 O25 2.215 . S
Mn1 O27 2.117 . S
C2 O24 1.234 . S
C2 O25 1.283 . S
C3 O15 1.281 . S
C3 O16 1.236 . S
C4 O26 1.240 . S
C4 O27 1.264 . S
O5 Mn0 2.095 . S
O5 C14 1.250 . S
O6 Mn1 2.121 . S
O6 C14 1.258 . S
C7 N8 1.326 . S
C7 C11 1.460 . S
C7 H13 0.929 . S
N8 Mn1 2.257 . S
N8 C7 1.326 . S
N8 C12 1.362 . S
C9 C10 1.258 . S
C9 C12 1.431 . S
C9 C29 1.449 . S
C10 C9 1.258 . S
C10 C11 1.477 . S
C10 H30 0.931 . S
C11 C7 1.460 . S
C11 C10 1.477 . S
C11 H31 0.930 . S
C12 N8 1.362 . S
C12 C9 1.431 . S
C12 C22 1.476 . S
H13 C7 0.929 . S
C14 O5 1.250 . S
C14 O6 1.258 . S
O15 Mn0 2.162 . S
O15 C3 1.281 . S
O16 Mn0 2.297 . S
O16 C3 1.236 . S
N17 Mn1 2.282 . S
N17 C18 1.328 . S
N17 C22 1.318 . S
C18 N17 1.328 . S
C18 C19 1.457 . S
C18 H23 0.929 . S
C19 C18 1.457 . S
C19 C20 1.291 . S
C19 H32 0.931 . S
C20 C19 1.291 . S
C20 C21 1.373 . S
C20 H33 0.929 . S
C21 C20 1.373 . S
C21 C22 1.396 . S
C21 C28 1.403 . S
C22 C12 1.476 . S
C22 N17 1.318 . S
C22 C21 1.396 . S
H23 C18 0.929 . S
O24 Mn0 2.385 . S
O24 C2 1.234 . S
O25 Mn0 2.209 . S
O25 Mn1 2.215 . S
O25 C2 1.283 . S
O26 Mn0 2.094 . S
O26 C4 1.240 . S
O27 Mn1 2.117 . S
O27 C4 1.264 . S
C28 C21 1.403 . S
C28 C29 1.399 . S
C28 H34 0.929 1_455 S
C29 C9 1.449 . S
C29 C28 1.399 . S
C29 H35 0.930 1_455 S
H30 C10 0.931 . S
H31 C11 0.930 . S
H32 C19 0.931 . S
H33 C20 0.929 . S
H34 C28 0.929 1_655 S
H35 C29 0.930 1_655 S
Mn36 O41 2.095 . S
Mn36 O51 2.162 . S
Mn36 O52 2.297 . S
Mn36 O60 2.385 . S
Mn36 O61 2.209 . S
Mn36 O62 2.094 . S
Mn37 O42 2.121 . S
Mn37 N44 2.257 . S
Mn37 N53 2.282 . S
Mn37 O61 2.215 . S
Mn37 O63 2.117 . S
C38 O60 1.234 . S
C38 O61 1.283 . S
C39 O51 1.281 . S
C39 O52 1.236 . S
C40 O62 1.240 . S
C40 O63 1.264 . S
O41 Mn36 2.095 . S
O41 C50 1.250 . S
O42 Mn37 2.121 . S
O42 C50 1.258 . S
C43 N44 1.326 . S
C43 C47 1.460 . S
C43 H49 0.929 . S
N44 Mn37 2.257 . S
N44 C43 1.326 . S
N44 C48 1.362 . S
C45 C46 1.258 . S
C45 C48 1.431 . S
C45 C65 1.449 . S
C46 C45 1.258 . S
C46 C47 1.477 . S
C46 H66 0.931 . S
C47 C43 1.460 . S
C47 C46 1.477 . S
C47 H67 0.930 . S
C48 N44 1.362 . S
C48 C45 1.431 . S
C48 C58 1.476 . S
H49 C43 0.929 . S
C50 O41 1.250 . S
C50 O42 1.258 . S
O51 Mn36 2.162 . S
O51 C39 1.281 . S
O52 Mn36 2.297 . S
O52 C39 1.236 . S
N53 Mn37 2.282 . S
N53 C54 1.328 . S
N53 C58 1.318 . S
C54 N53 1.328 . S
C54 C55 1.457 . S
C54 H59 0.929 . S
C55 C54 1.457 . S
C55 C56 1.291 . S
C55 H68 0.931 . S
C56 C55 1.291 . S
C56 C57 1.373 . S
C56 H69 0.929 . S
C57 C56 1.373 . S
C57 C58 1.396 . S
C57 C64 1.403 . S
C58 C48 1.476 . S
C58 N53 1.318 . S
C58 C57 1.396 . S
H59 C54 0.929 . S
O60 Mn36 2.385 . S
O60 C38 1.234 . S
O61 Mn36 2.209 . S
O61 Mn37 2.215 . S
O61 C38 1.283 . S
O62 Mn36 2.094 . S
O62 C40 1.240 . S
O63 Mn37 2.117 . S
O63 C40 1.264 . S
C64 C57 1.403 . S
C64 C65 1.399 . S
C64 H70 0.929 1_655 S
C65 C45 1.449 . S
C65 C64 1.399 . S
C65 H71 0.930 1_655 S
H66 C46 0.931 . S
H67 C47 0.930 . S
H68 C55 0.931 . S
H69 C56 0.929 . S
H70 C64 0.929 1_455 S
H71 C65 0.930 1_455 S
Mn72 O77 2.095 . S
Mn72 O87 2.162 . S
Mn72 O88 2.297 . S
Mn72 O96 2.385 . S
Mn72 O97 2.209 . S
Mn72 O98 2.094 . S
Mn73 O78 2.121 . S
Mn73 N80 2.257 . S
Mn73 N89 2.282 . S
Mn73 O97 2.215 . S
Mn73 O99 2.117 . S
C74 O96 1.234 . S
C74 O97 1.283 . S
C75 O87 1.281 . S
C75 O88 1.236 . S
C76 O98 1.240 . S
C76 O99 1.264 . S
O77 Mn72 2.095 . S
O77 C86 1.250 . S
O78 Mn73 2.121 . S
O78 C86 1.258 . S
C79 N80 1.326 . S
C79 C83 1.460 . S
C79 H85 0.929 . S
N80 Mn73 2.257 . S
N80 C79 1.326 . S
N80 C84 1.362 . S
C81 C82 1.258 . S
C81 C84 1.431 . S
C81 C101 1.449 . S
C82 C81 1.258 . S
C82 C83 1.477 . S
C82 H102 0.931 . S
C83 C79 1.460 . S
C83 C82 1.477 . S
C83 H103 0.930 . S
C84 N80 1.362 . S
C84 C81 1.431 . S
C84 C94 1.476 . S
H85 C79 0.929 . S
C86 O77 1.250 . S
C86 O78 1.258 . S
O87 Mn72 2.162 . S
O87 C75 1.281 . S
O88 Mn72 2.297 . S
O88 C75 1.236 . S
N89 Mn73 2.282 . S
N89 C90 1.328 . S
N89 C94 1.318 . S
C90 N89 1.328 . S
C90 C91 1.457 . S
C90 H95 0.929 . S
C91 C90 1.457 . S
C91 C92 1.291 . S
C91 H104 0.931 . S
C92 C91 1.291 . S
C92 C93 1.373 . S
C92 H105 0.929 . S
C93 C92 1.373 . S
C93 C94 1.396 . S
C93 C100 1.403 . S
C94 C84 1.476 . S
C94 N89 1.318 . S
C94 C93 1.396 . S
H95 C90 0.929 . S
O96 Mn72 2.385 . S
O96 C74 1.234 . S
O97 Mn72 2.209 . S
O97 Mn73 2.215 . S
O97 C74 1.283 . S
O98 Mn72 2.094 . S
O98 C76 1.240 . S
O99 Mn73 2.117 . S
O99 C76 1.264 . S
C100 C93 1.403 . S
C100 C101 1.399 . S
C100 H106 0.929 1_655 S
C101 C81 1.449 . S
C101 C100 1.399 . S
C101 H107 0.930 1_655 S
H102 C82 0.931 . S
H103 C83 0.930 . S
H104 C91 0.931 . S
H105 C92 0.929 . S
H106 C100 0.929 1_455 S
H107 C101 0.930 1_455 S
Mn108 O113 2.095 . S
Mn108 O123 2.162 . S
Mn108 O124 2.297 . S
Mn108 O132 2.385 . S
Mn108 O133 2.209 . S
Mn108 O134 2.094 . S
Mn109 O114 2.121 . S
Mn109 N116 2.257 . S
Mn109 N125 2.282 . S
Mn109 O133 2.215 . S
Mn109 O135 2.117 . S
C110 O132 1.234 . S
C110 O133 1.283 . S
C111 O123 1.281 . S
C111 O124 1.236 . S
C112 O134 1.240 . S
C112 O135 1.264 . S
O113 Mn108 2.095 . S
O113 C122 1.250 . S
O114 Mn109 2.121 . S
O114 C122 1.258 . S
C115 N116 1.326 . S
C115 C119 1.460 . S
C115 H121 0.929 . S
N116 Mn109 2.257 . S
N116 C115 1.326 . S
N116 C120 1.362 . S
C117 C118 1.258 . S
C117 C120 1.431 . S
C117 C137 1.449 . S
C118 C117 1.258 . S
C118 C119 1.477 . S
C118 H138 0.931 . S
C119 C115 1.460 . S
C119 C118 1.477 . S
C119 H139 0.930 . S
C120 N116 1.362 . S
C120 C117 1.431 . S
C120 C130 1.476 . S
H121 C115 0.929 . S
C122 O113 1.250 . S
C122 O114 1.258 . S
O123 Mn108 2.162 . S
O123 C111 1.281 . S
O124 Mn108 2.297 . S
O124 C111 1.236 . S
N125 Mn109 2.282 . S
N125 C126 1.328 . S
N125 C130 1.318 . S
C126 N125 1.328 . S
C126 C127 1.457 . S
C126 H131 0.929 . S
C127 C126 1.457 . S
C127 C128 1.291 . S
C127 H140 0.931 . S
C128 C127 1.291 . S
C128 C129 1.373 . S
C128 H141 0.929 . S
C129 C128 1.373 . S
C129 C130 1.396 . S
C129 C136 1.403 . S
C130 C120 1.476 . S
C130 N125 1.318 . S
C130 C129 1.396 . S
H131 C126 0.929 . S
O132 Mn108 2.385 . S
O132 C110 1.234 . S
O133 Mn108 2.209 . S
O133 Mn109 2.215 . S
O133 C110 1.283 . S
O134 Mn108 2.094 . S
O134 C112 1.240 . S
O135 Mn109 2.117 . S
O135 C112 1.264 . S
C136 C129 1.403 . S
C136 C137 1.399 . S
C136 H142 0.929 1_455 S
C137 C117 1.449 . S
C137 C136 1.399 . S
C137 H143 0.930 1_455 S
H138 C118 0.931 . S
H139 C119 0.930 . S
H140 C127 0.931 . S
H141 C128 0.929 . S
H142 C136 0.929 1_655 S
H143 C137 0.930 1_655 S
Mn144 O149 2.095 . S
Mn144 O159 2.162 . S
Mn144 O160 2.297 . S
Mn144 O168 2.385 . S
Mn144 O169 2.209 . S
Mn144 O170 2.094 . S
Mn145 O150 2.121 . S
Mn145 N152 2.257 . S
Mn145 N161 2.282 . S
Mn145 O169 2.215 . S
Mn145 O171 2.117 . S
C146 O168 1.234 . S
C146 O169 1.283 . S
C147 O159 1.281 . S
C147 O160 1.236 . S
C148 O170 1.240 . S
C148 O171 1.264 . S
O149 Mn144 2.095 . S
O149 C158 1.250 . S
O150 Mn145 2.121 . S
O150 C158 1.258 . S
C151 N152 1.326 . S
C151 C155 1.460 . S
C151 H157 0.929 . S
N152 Mn145 2.257 . S
N152 C151 1.326 . S
N152 C156 1.362 . S
C153 C154 1.258 . S
C153 C156 1.431 . S
C153 C173 1.449 . S
C154 C153 1.258 . S
C154 C155 1.477 . S
C154 H174 0.931 . S
C155 C151 1.460 . S
C155 C154 1.477 . S
C155 H175 0.930 . S
C156 N152 1.362 . S
C156 C153 1.431 . S
C156 C166 1.476 . S
H157 C151 0.929 . S
C158 O149 1.250 . S
C158 O150 1.258 . S
O159 Mn144 2.162 . S
O159 C147 1.281 . S
O160 Mn144 2.297 . S
O160 C147 1.236 . S
N161 Mn145 2.282 . S
N161 C162 1.328 . S
N161 C166 1.318 . S
C162 N161 1.328 . S
C162 C163 1.457 . S
C162 H167 0.929 . S
C163 C162 1.457 . S
C163 C164 1.291 . S
C163 H176 0.931 . S
C164 C163 1.291 . S
C164 C165 1.373 . S
C164 H177 0.929 . S
C165 C164 1.373 . S
C165 C166 1.396 . S
C165 C172 1.403 . S
C166 C156 1.476 . S
C166 N161 1.318 . S
C166 C165 1.396 . S
H167 C162 0.929 . S
O168 Mn144 2.385 . S
O168 C146 1.234 . S
O169 Mn144 2.209 . S
O169 Mn145 2.215 . S
O169 C146 1.283 . S
O170 Mn144 2.094 . S
O170 C148 1.240 . S
O171 Mn145 2.117 . S
O171 C148 1.264 . S
C172 C165 1.403 . S
C172 C173 1.399 . S
C172 H178 0.929 1_455 S
C173 C153 1.449 . S
C173 C172 1.399 . S
C173 H179 0.930 1_455 S
H174 C154 0.931 . S
H175 C155 0.930 . S
H176 C163 0.931 . S
H177 C164 0.929 . S
H178 C172 0.929 1_655 S
H179 C173 0.930 1_655 S
Mn180 O185 2.095 . S
Mn180 O195 2.162 . S
Mn180 O196 2.297 . S
Mn180 O204 2.385 . S
Mn180 O205 2.209 . S
Mn180 O206 2.094 . S
Mn181 O186 2.121 . S
Mn181 N188 2.257 . S
Mn181 N197 2.282 . S
Mn181 O205 2.215 . S
Mn181 O207 2.117 . S
C182 O204 1.234 . S
C182 O205 1.283 . S
C183 O195 1.281 . S
C183 O196 1.236 . S
C184 O206 1.240 . S
C184 O207 1.264 . S
O185 Mn180 2.095 . S
O185 C194 1.250 . S
O186 Mn181 2.121 . S
O186 C194 1.258 . S
C187 N188 1.326 . S
C187 C191 1.460 . S
C187 H193 0.929 . S
N188 Mn181 2.257 . S
N188 C187 1.326 . S
N188 C192 1.362 . S
C189 C190 1.258 . S
C189 C192 1.431 . S
C189 C209 1.449 . S
C190 C189 1.258 . S
C190 C191 1.477 . S
C190 H210 0.931 . S
C191 C187 1.460 . S
C191 C190 1.477 . S
C191 H211 0.930 . S
C192 N188 1.362 . S
C192 C189 1.431 . S
C192 C202 1.476 . S
H193 C187 0.929 . S
C194 O185 1.250 . S
C194 O186 1.258 . S
O195 Mn180 2.162 . S
O195 C183 1.281 . S
O196 Mn180 2.297 . S
O196 C183 1.236 . S
N197 Mn181 2.282 . S
N197 C198 1.328 . S
N197 C202 1.318 . S
C198 N197 1.328 . S
C198 C199 1.457 . S
C198 H203 0.929 . S
C199 C198 1.457 . S
C199 C200 1.291 . S
C199 H212 0.931 . S
C200 C199 1.291 . S
C200 C201 1.373 . S
C200 H213 0.929 . S
C201 C200 1.373 . S
C201 C202 1.396 . S
C201 C208 1.403 . S
C202 C192 1.476 . S
C202 N197 1.318 . S
C202 C201 1.396 . S
H203 C198 0.929 . S
O204 Mn180 2.385 . S
O204 C182 1.234 . S
O205 Mn180 2.209 . S
O205 Mn181 2.215 . S
O205 C182 1.283 . S
O206 Mn180 2.094 . S
O206 C184 1.240 . S
O207 Mn181 2.117 . S
O207 C184 1.264 . S
C208 C201 1.403 . S
C208 C209 1.399 . S
C208 H214 0.929 1_455 S
C209 C189 1.449 . S
C209 C208 1.399 . S
C209 H215 0.930 1_455 S
H210 C190 0.931 . S
H211 C191 0.930 . S
H212 C199 0.931 . S
H213 C200 0.929 . S
H214 C208 0.929 1_655 S
H215 C209 0.930 1_655 S
Mn216 O221 2.095 . S
Mn216 O231 2.162 . S
Mn216 O232 2.297 . S
Mn216 O240 2.385 . S
Mn216 O241 2.209 . S
Mn216 O242 2.094 . S
Mn217 O222 2.121 . S
Mn217 N224 2.257 . S
Mn217 N233 2.282 . S
Mn217 O241 2.215 . S
Mn217 O243 2.117 . S
C218 O240 1.234 . S
C218 O241 1.283 . S
C219 O231 1.281 . S
C219 O232 1.236 . S
C220 O242 1.240 . S
C220 O243 1.264 . S
O221 Mn216 2.095 . S
O221 C230 1.250 . S
O222 Mn217 2.121 . S
O222 C230 1.258 . S
C223 N224 1.326 . S
C223 C227 1.460 . S
C223 H229 0.929 . S
N224 Mn217 2.257 . S
N224 C223 1.326 . S
N224 C228 1.362 . S
C225 C226 1.258 . S
C225 C228 1.431 . S
C225 C245 1.449 . S
C226 C225 1.258 . S
C226 C227 1.477 . S
C226 H246 0.931 . S
C227 C223 1.460 . S
C227 C226 1.477 . S
C227 H247 0.930 . S
C228 N224 1.362 . S
C228 C225 1.431 . S
C228 C238 1.476 . S
H229 C223 0.929 . S
C230 O221 1.250 . S
C230 O222 1.258 . S
O231 Mn216 2.162 . S
O231 C219 1.281 . S
O232 Mn216 2.297 . S
O232 C219 1.236 . S
N233 Mn217 2.282 . S
N233 C234 1.328 . S
N233 C238 1.318 . S
C234 N233 1.328 . S
C234 C235 1.457 . S
C234 H239 0.929 . S
C235 C234 1.457 . S
C235 C236 1.291 . S
C235 H248 0.931 . S
C236 C235 1.291 . S
C236 C237 1.373 . S
C236 H249 0.929 . S
C237 C236 1.373 . S
C237 C238 1.396 . S
C237 C244 1.403 . S
C238 C228 1.476 . S
C238 N233 1.318 . S
C238 C237 1.396 . S
H239 C234 0.929 . S
O240 Mn216 2.385 . S
O240 C218 1.234 . S
O241 Mn216 2.209 . S
O241 Mn217 2.215 . S
O241 C218 1.283 . S
O242 Mn216 2.094 . S
O242 C220 1.240 . S
O243 Mn217 2.117 . S
O243 C220 1.264 . S
C244 C237 1.403 . S
C244 C245 1.399 . S
C244 H250 0.929 1_655 S
C245 C225 1.449 . S
C245 C244 1.399 . S
C245 H251 0.930 1_655 S
H246 C226 0.931 . S
H247 C227 0.930 . S
H248 C235 0.931 . S
H249 C236 0.929 . S
H250 C244 0.929 1_455 S
H251 C245 0.930 1_455 S
Mn252 O257 2.095 . S
Mn252 O267 2.162 . S
Mn252 O268 2.297 . S
Mn252 O276 2.385 . S
Mn252 O277 2.209 . S
Mn252 O278 2.094 . S
Mn253 O258 2.121 . S
Mn253 N260 2.257 . S
Mn253 N269 2.282 . S
Mn253 O277 2.215 . S
Mn253 O279 2.117 . S
C254 O276 1.234 . S
C254 O277 1.283 . S
C255 O267 1.281 . S
C255 O268 1.236 . S
C256 O278 1.240 . S
C256 O279 1.264 . S
O257 Mn252 2.095 . S
O257 C266 1.250 . S
O258 Mn253 2.121 . S
O258 C266 1.258 . S
C259 N260 1.326 . S
C259 C263 1.460 . S
C259 H265 0.929 . S
N260 Mn253 2.257 . S
N260 C259 1.326 . S
N260 C264 1.362 . S
C261 C262 1.258 . S
C261 C264 1.431 . S
C261 C281 1.449 . S
C262 C261 1.258 . S
C262 C263 1.477 . S
C262 H282 0.931 . S
C263 C259 1.460 . S
C263 C262 1.477 . S
C263 H283 0.930 . S
C264 N260 1.362 . S
C264 C261 1.431 . S
C264 C274 1.476 . S
H265 C259 0.929 . S
C266 O257 1.250 . S
C266 O258 1.258 . S
O267 Mn252 2.162 . S
O267 C255 1.281 . S
O268 Mn252 2.297 . S
O268 C255 1.236 . S
N269 Mn253 2.282 . S
N269 C270 1.328 . S
N269 C274 1.318 . S
C270 N269 1.328 . S
C270 C271 1.457 . S
C270 H275 0.929 . S
C271 C270 1.457 . S
C271 C272 1.291 . S
C271 H284 0.931 . S
C272 C271 1.291 . S
C272 C273 1.373 . S
C272 H285 0.929 . S
C273 C272 1.373 . S
C273 C274 1.396 . S
C273 C280 1.403 . S
C274 C264 1.476 . S
C274 N269 1.318 . S
C274 C273 1.396 . S
H275 C270 0.929 . S
O276 Mn252 2.385 . S
O276 C254 1.234 . S
O277 Mn252 2.209 . S
O277 Mn253 2.215 . S
O277 C254 1.283 . S
O278 Mn252 2.094 . S
O278 C256 1.240 . S
O279 Mn253 2.117 . S
O279 C256 1.264 . S
C280 C273 1.403 . S
C280 C281 1.399 . S
C280 H286 0.929 1_655 S
C281 C261 1.449 . S
C281 C280 1.399 . S
C281 H287 0.930 1_655 S
H282 C262 0.931 . S
H283 C263 0.930 . S
H284 C271 0.931 . S
H285 C272 0.929 . S
H286 C280 0.929 1_455 S
H287 C281 0.930 1_455 S
Mn288 O293 2.095 . S
Mn288 O303 2.162 . S
Mn288 O304 2.297 . S
Mn288 O312 2.385 . S
Mn288 O313 2.209 . S
Mn288 O314 2.094 . S
Mn289 O294 2.121 . S
Mn289 N296 2.257 . S
Mn289 N305 2.282 . S
Mn289 O313 2.215 . S
Mn289 O315 2.117 . S
C290 O312 1.234 . S
C290 O313 1.283 . S
C291 O303 1.281 . S
C291 O304 1.236 . S
C292 O314 1.240 . S
C292 O315 1.264 . S
O293 Mn288 2.095 . S
O293 C302 1.250 . S
O294 Mn289 2.121 . S
O294 C302 1.258 . S
C295 N296 1.326 . S
C295 C299 1.460 . S
C295 H301 0.929 . S
N296 Mn289 2.257 . S
N296 C295 1.326 . S
N296 C300 1.362 . S
C297 C298 1.258 . S
C297 C300 1.431 . S
C297 C317 1.449 . S
C298 C297 1.258 . S
C298 C299 1.477 . S
C298 H318 0.931 . S
C299 C295 1.460 . S
C299 C298 1.477 . S
C299 H319 0.930 . S
C300 N296 1.362 . S
C300 C297 1.431 . S
C300 C310 1.476 . S
H301 C295 0.929 . S
C302 O293 1.250 . S
C302 O294 1.258 . S
O303 Mn288 2.162 . S
O303 C291 1.281 . S
O304 Mn288 2.297 . S
O304 C291 1.236 . S
N305 Mn289 2.282 . S
N305 C306 1.328 . S
N305 C310 1.318 . S
C306 N305 1.328 . S
C306 C307 1.457 . S
C306 H311 0.929 . S
C307 C306 1.457 . S
C307 C308 1.291 . S
C307 H320 0.931 . S
C308 C307 1.291 . S
C308 C309 1.373 . S
C308 H321 0.929 . S
C309 C308 1.373 . S
C309 C310 1.396 . S
C309 C316 1.403 . S
C310 C300 1.476 . S
C310 N305 1.318 . S
C310 C309 1.396 . S
H311 C306 0.929 . S
O312 Mn288 2.385 . S
O312 C290 1.234 . S
O313 Mn288 2.209 . S
O313 Mn289 2.215 . S
O313 C290 1.283 . S
O314 Mn288 2.094 . S
O314 C292 1.240 . S
O315 Mn289 2.117 . S
O315 C292 1.264 . S
C316 C309 1.403 . S
C316 C317 1.399 . S
C316 H322 0.929 . S
C317 C297 1.449 . S
C317 C316 1.399 . S
C317 H323 0.930 . S
H318 C298 0.931 . S
H319 C299 0.930 . S
H320 C307 0.931 . S
H321 C308 0.929 . S
H322 C316 0.929 . S
H323 C317 0.930 . S
Mn324 O329 2.095 . S
Mn324 O339 2.162 . S
Mn324 O340 2.297 . S
Mn324 O348 2.385 . S
Mn324 O349 2.209 . S
Mn324 O350 2.094 . S
Mn325 O330 2.121 . S
Mn325 N332 2.257 . S
Mn325 N341 2.282 . S
Mn325 O349 2.215 . S
Mn325 O351 2.117 . S
C326 O348 1.234 . S
C326 O349 1.283 . S
C327 O339 1.281 . S
C327 O340 1.236 . S
C328 O350 1.240 . S
C328 O351 1.264 . S
O329 Mn324 2.095 . S
O329 C338 1.250 . S
O330 Mn325 2.121 . S
O330 C338 1.258 . S
C331 N332 1.326 . S
C331 C335 1.460 . S
C331 H337 0.929 . S
N332 Mn325 2.257 . S
N332 C331 1.326 . S
N332 C336 1.362 . S
C333 C334 1.258 . S
C333 C336 1.431 . S
C333 C353 1.449 . S
C334 C333 1.258 . S
C334 C335 1.477 . S
C334 H354 0.931 . S
C335 C331 1.460 . S
C335 C334 1.477 . S
C335 H355 0.930 . S
C336 N332 1.362 . S
C336 C333 1.431 . S
C336 C346 1.476 . S
H337 C331 0.929 . S
C338 O329 1.250 . S
C338 O330 1.258 . S
O339 Mn324 2.162 . S
O339 C327 1.281 . S
O340 Mn324 2.297 . S
O340 C327 1.236 . S
N341 Mn325 2.282 . S
N341 C342 1.328 . S
N341 C346 1.318 . S
C342 N341 1.328 . S
C342 C343 1.457 . S
C342 H347 0.929 . S
C343 C342 1.457 . S
C343 C344 1.291 . S
C343 H356 0.931 . S
C344 C343 1.291 . S
C344 C345 1.373 . S
C344 H357 0.929 . S
C345 C344 1.373 . S
C345 C346 1.396 . S
C345 C352 1.403 . S
C346 C336 1.476 . S
C346 N341 1.318 . S
C346 C345 1.396 . S
H347 C342 0.929 . S
O348 Mn324 2.385 . S
O348 C326 1.234 . S
O349 Mn324 2.209 . S
O349 Mn325 2.215 . S
O349 C326 1.283 . S
O350 Mn324 2.094 . S
O350 C328 1.240 . S
O351 Mn325 2.117 . S
O351 C328 1.264 . S
C352 C345 1.403 . S
C352 C353 1.399 . S
C352 H358 0.929 . S
C353 C333 1.449 . S
C353 C352 1.399 . S
C353 H359 0.930 . S
H354 C334 0.931 . S
H355 C335 0.930 . S
H356 C343 0.931 . S
H357 C344 0.929 . S
H358 C352 0.929 . S
H359 C353 0.930 . S
Mn360 O365 2.095 . S
Mn360 O375 2.162 . S
Mn360 O376 2.297 . S
Mn360 O384 2.385 . S
Mn360 O385 2.209 . S
Mn360 O386 2.094 . S
Mn361 O366 2.121 . S
Mn361 N368 2.257 . S
Mn361 N377 2.282 . S
Mn361 O385 2.215 . S
Mn361 O387 2.117 . S
C362 O384 1.234 . S
C362 O385 1.283 . S
C363 O375 1.281 . S
C363 O376 1.236 . S
C364 O386 1.240 . S
C364 O387 1.264 . S
O365 Mn360 2.095 . S
O365 C374 1.250 . S
O366 Mn361 2.121 . S
O366 C374 1.258 . S
C367 N368 1.326 . S
C367 C371 1.460 . S
C367 H373 0.929 . S
N368 Mn361 2.257 . S
N368 C367 1.326 . S
N368 C372 1.362 . S
C369 C370 1.258 . S
C369 C372 1.431 . S
C369 C389 1.449 . S
C370 C369 1.258 . S
C370 C371 1.477 . S
C370 H390 0.931 . S
C371 C367 1.460 . S
C371 C370 1.477 . S
C371 H391 0.930 . S
C372 N368 1.362 . S
C372 C369 1.431 . S
C372 C382 1.476 . S
H373 C367 0.929 . S
C374 O365 1.250 . S
C374 O366 1.258 . S
O375 Mn360 2.162 . S
O375 C363 1.281 . S
O376 Mn360 2.297 . S
O376 C363 1.236 . S
N377 Mn361 2.282 . S
N377 C378 1.328 . S
N377 C382 1.318 . S
C378 N377 1.328 . S
C378 C379 1.457 . S
C378 H383 0.929 . S
C379 C378 1.457 . S
C379 C380 1.291 . S
C379 H392 0.931 . S
C380 C379 1.291 . S
C380 C381 1.373 . S
C380 H393 0.929 . S
C381 C380 1.373 . S
C381 C382 1.396 . S
C381 C388 1.403 . S
C382 C372 1.476 . S
C382 N377 1.318 . S
C382 C381 1.396 . S
H383 C378 0.929 . S
O384 Mn360 2.385 . S
O384 C362 1.234 . S
O385 Mn360 2.209 . S
O385 Mn361 2.215 . S
O385 C362 1.283 . S
O386 Mn360 2.094 . S
O386 C364 1.240 . S
O387 Mn361 2.117 . S
O387 C364 1.264 . S
C388 C381 1.403 . S
C388 C389 1.399 . S
C388 H394 0.929 . S
C389 C369 1.449 . S
C389 C388 1.399 . S
C389 H395 0.930 . S
H390 C370 0.931 . S
H391 C371 0.930 . S
H392 C379 0.931 . S
H393 C380 0.929 . S
H394 C388 0.929 . S
H395 C389 0.930 . S
Mn396 O401 2.095 . S
Mn396 O411 2.162 . S
Mn396 O412 2.297 . S
Mn396 O420 2.385 . S
Mn396 O421 2.209 . S
Mn396 O422 2.094 . S
Mn397 O402 2.121 . S
Mn397 N404 2.257 . S
Mn397 N413 2.282 . S
Mn397 O421 2.215 . S
Mn397 O423 2.117 . S
C398 O420 1.234 . S
C398 O421 1.283 . S
C399 O411 1.281 . S
C399 O412 1.236 . S
C400 O422 1.240 . S
C400 O423 1.264 . S
O401 Mn396 2.095 . S
O401 C410 1.250 . S
O402 Mn397 2.121 . S
O402 C410 1.258 . S
C403 N404 1.326 . S
C403 C407 1.460 . S
C403 H409 0.929 . S
N404 Mn397 2.257 . S
N404 C403 1.326 . S
N404 C408 1.362 . S
C405 C406 1.258 . S
C405 C408 1.431 . S
C405 C425 1.449 . S
C406 C405 1.258 . S
C406 C407 1.477 . S
C406 H426 0.931 . S
C407 C403 1.460 . S
C407 C406 1.477 . S
C407 H427 0.930 . S
C408 N404 1.362 . S
C408 C405 1.431 . S
C408 C418 1.476 . S
H409 C403 0.929 . S
C410 O401 1.250 . S
C410 O402 1.258 . S
O411 Mn396 2.162 . S
O411 C399 1.281 . S
O412 Mn396 2.297 . S
O412 C399 1.236 . S
N413 Mn397 2.282 . S
N413 C414 1.328 . S
N413 C418 1.318 . S
C414 N413 1.328 . S
C414 C415 1.457 . S
C414 H419 0.929 . S
C415 C414 1.457 . S
C415 C416 1.291 . S
C415 H428 0.931 . S
C416 C415 1.291 . S
C416 C417 1.373 . S
C416 H429 0.929 . S
C417 C416 1.373 . S
C417 C418 1.396 . S
C417 C424 1.403 . S
C418 C408 1.476 . S
C418 N413 1.318 . S
C418 C417 1.396 . S
H419 C414 0.929 . S
O420 Mn396 2.385 . S
O420 C398 1.234 . S
O421 Mn396 2.209 . S
O421 Mn397 2.215 . S
O421 C398 1.283 . S
O422 Mn396 2.094 . S
O422 C400 1.240 . S
O423 Mn397 2.117 . S
O423 C400 1.264 . S
C424 C417 1.403 . S
C424 C425 1.399 . S
C424 H430 0.929 . S
C425 C405 1.449 . S
C425 C424 1.399 . S
C425 H431 0.930 . S
H426 C406 0.931 . S
H427 C407 0.930 . S
H428 C415 0.931 . S
H429 C416 0.929 . S
H430 C424 0.929 . S
H431 C425 0.930 . S
Mn432 O437 2.095 . S
Mn432 O447 2.162 . S
Mn432 O448 2.297 . S
Mn432 O456 2.385 . S
Mn432 O457 2.209 . S
Mn432 O458 2.094 . S
Mn433 O438 2.121 . S
Mn433 N440 2.257 . S
Mn433 N449 2.282 . S
Mn433 O457 2.215 . S
Mn433 O459 2.117 . S
C434 O456 1.234 . S
C434 O457 1.283 . S
C435 O447 1.281 . S
C435 O448 1.236 . S
C436 O458 1.240 . S
C436 O459 1.264 . S
O437 Mn432 2.095 . S
O437 C446 1.250 . S
O438 Mn433 2.121 . S
O438 C446 1.258 . S
C439 N440 1.326 . S
C439 C443 1.460 . S
C439 H445 0.929 . S
N440 Mn433 2.257 . S
N440 C439 1.326 . S
N440 C444 1.362 . S
C441 C442 1.258 . S
C441 C444 1.431 . S
C441 C461 1.449 . S
C442 C441 1.258 . S
C442 C443 1.477 . S
C442 H462 0.931 . S
C443 C439 1.460 . S
C443 C442 1.477 . S
C443 H463 0.930 . S
C444 N440 1.362 . S
C444 C441 1.431 . S
C444 C454 1.476 . S
H445 C439 0.929 . S
C446 O437 1.250 . S
C446 O438 1.258 . S
O447 Mn432 2.162 . S
O447 C435 1.281 . S
O448 Mn432 2.297 . S
O448 C435 1.236 . S
N449 Mn433 2.282 . S
N449 C450 1.328 . S
N449 C454 1.318 . S
C450 N449 1.328 . S
C450 C451 1.457 . S
C450 H455 0.929 . S
C451 C450 1.457 . S
C451 C452 1.291 . S
C451 H464 0.931 . S
C452 C451 1.291 . S
C452 C453 1.373 . S
C452 H465 0.929 . S
C453 C452 1.373 . S
C453 C454 1.396 . S
C453 C460 1.403 . S
C454 C444 1.476 . S
C454 N449 1.318 . S
C454 C453 1.396 . S
H455 C450 0.929 . S
O456 Mn432 2.385 . S
O456 C434 1.234 . S
O457 Mn432 2.209 . S
O457 Mn433 2.215 . S
O457 C434 1.283 . S
O458 Mn432 2.094 . S
O458 C436 1.240 . S
O459 Mn433 2.117 . S
O459 C436 1.264 . S
C460 C453 1.403 . S
C460 C461 1.399 . S
C460 H466 0.929 . S
C461 C441 1.449 . S
C461 C460 1.399 . S
C461 H467 0.930 . S
H462 C442 0.931 . S
H463 C443 0.930 . S
H464 C451 0.931 . S
H465 C452 0.929 . S
H466 C460 0.929 . S
H467 C461 0.930 . S
Mn468 O473 2.095 . S
Mn468 O483 2.162 . S
Mn468 O484 2.297 . S
Mn468 O492 2.385 . S
Mn468 O493 2.209 . S
Mn468 O494 2.094 . S
Mn469 O474 2.121 . S
Mn469 N476 2.257 . S
Mn469 N485 2.282 . S
Mn469 O493 2.215 . S
Mn469 O495 2.117 . S
C470 O492 1.234 . S
C470 O493 1.283 . S
C471 O483 1.281 . S
C471 O484 1.236 . S
C472 O494 1.240 . S
C472 O495 1.264 . S
O473 Mn468 2.095 . S
O473 C482 1.250 . S
O474 Mn469 2.121 . S
O474 C482 1.258 . S
C475 N476 1.326 . S
C475 C479 1.460 . S
C475 H481 0.929 . S
N476 Mn469 2.257 . S
N476 C475 1.326 . S
N476 C480 1.362 . S
C477 C478 1.258 . S
C477 C480 1.431 . S
C477 C497 1.449 . S
C478 C477 1.258 . S
C478 C479 1.477 . S
C478 H498 0.931 . S
C479 C475 1.460 . S
C479 C478 1.477 . S
C479 H499 0.930 . S
C480 N476 1.362 . S
C480 C477 1.431 . S
C480 C490 1.476 . S
H481 C475 0.929 . S
C482 O473 1.250 . S
C482 O474 1.258 . S
O483 Mn468 2.162 . S
O483 C471 1.281 . S
O484 Mn468 2.297 . S
O484 C471 1.236 . S
N485 Mn469 2.282 . S
N485 C486 1.328 . S
N485 C490 1.318 . S
C486 N485 1.328 . S
C486 C487 1.457 . S
C486 H491 0.929 . S
C487 C486 1.457 . S
C487 C488 1.291 . S
C487 H500 0.931 . S
C488 C487 1.291 . S
C488 C489 1.373 . S
C488 H501 0.929 . S
C489 C488 1.373 . S
C489 C490 1.396 . S
C489 C496 1.403 . S
C490 C480 1.476 . S
C490 N485 1.318 . S
C490 C489 1.396 . S
H491 C486 0.929 . S
O492 Mn468 2.385 . S
O492 C470 1.234 . S
O493 Mn468 2.209 . S
O493 Mn469 2.215 . S
O493 C470 1.283 . S
O494 Mn468 2.094 . S
O494 C472 1.240 . S
O495 Mn469 2.117 . S
O495 C472 1.264 . S
C496 C489 1.403 . S
C496 C497 1.399 . S
C496 H502 0.929 . S
C497 C477 1.449 . S
C497 C496 1.399 . S
C497 H503 0.930 . S
H498 C478 0.931 . S
H499 C479 0.930 . S
H500 C487 0.931 . S
H501 C488 0.929 . S
H502 C496 0.929 . S
H503 C497 0.930 . S
Mn504 O509 2.095 . S
Mn504 O519 2.162 . S
Mn504 O520 2.297 . S
Mn504 O528 2.385 . S
Mn504 O529 2.209 . S
Mn504 O530 2.094 . S
Mn505 O510 2.121 . S
Mn505 N512 2.257 . S
Mn505 N521 2.282 . S
Mn505 O529 2.215 . S
Mn505 O531 2.117 . S
C506 O528 1.234 . S
C506 O529 1.283 . S
C507 O519 1.281 . S
C507 O520 1.236 . S
C508 O530 1.240 . S
C508 O531 1.264 . S
O509 Mn504 2.095 . S
O509 C518 1.250 . S
O510 Mn505 2.121 . S
O510 C518 1.258 . S
C511 N512 1.326 . S
C511 C515 1.460 . S
C511 H517 0.929 . S
N512 Mn505 2.257 . S
N512 C511 1.326 . S
N512 C516 1.362 . S
C513 C514 1.258 . S
C513 C516 1.431 . S
C513 C533 1.449 . S
C514 C513 1.258 . S
C514 C515 1.477 . S
C514 H534 0.931 . S
C515 C511 1.460 . S
C515 C514 1.477 . S
C515 H535 0.930 . S
C516 N512 1.362 . S
C516 C513 1.431 . S
C516 C526 1.476 . S
H517 C511 0.929 . S
C518 O509 1.250 . S
C518 O510 1.258 . S
O519 Mn504 2.162 . S
O519 C507 1.281 . S
O520 Mn504 2.297 . S
O520 C507 1.236 . S
N521 Mn505 2.282 . S
N521 C522 1.328 . S
N521 C526 1.318 . S
C522 N521 1.328 . S
C522 C523 1.457 . S
C522 H527 0.929 . S
C523 C522 1.457 . S
C523 C524 1.291 . S
C523 H536 0.931 . S
C524 C523 1.291 . S
C524 C525 1.373 . S
C524 H537 0.929 . S
C525 C524 1.373 . S
C525 C526 1.396 . S
C525 C532 1.403 . S
C526 C516 1.476 . S
C526 N521 1.318 . S
C526 C525 1.396 . S
H527 C522 0.929 . S
O528 Mn504 2.385 . S
O528 C506 1.234 . S
O529 Mn504 2.209 . S
O529 Mn505 2.215 . S
O529 C506 1.283 . S
O530 Mn504 2.094 . S
O530 C508 1.240 . S
O531 Mn505 2.117 . S
O531 C508 1.264 . S
C532 C525 1.403 . S
C532 C533 1.399 . S
C532 H538 0.929 . S
C533 C513 1.449 . S
C533 C532 1.399 . S
C533 H539 0.930 . S
H534 C514 0.931 . S
H535 C515 0.930 . S
H536 C523 0.931 . S
H537 C524 0.929 . S
H538 C532 0.929 . S
H539 C533 0.930 . S
Mn540 O545 2.095 . S
Mn540 O555 2.162 . S
Mn540 O556 2.297 . S
Mn540 O564 2.385 . S
Mn540 O565 2.209 . S
Mn540 O566 2.094 . S
Mn541 O546 2.121 . S
Mn541 N548 2.257 . S
Mn541 N557 2.282 . S
Mn541 O565 2.215 . S
Mn541 O567 2.117 . S
C542 O564 1.234 . S
C542 O565 1.283 . S
C543 O555 1.281 . S
C543 O556 1.236 . S
C544 O566 1.240 . S
C544 O567 1.264 . S
O545 Mn540 2.095 . S
O545 C554 1.250 . S
O546 Mn541 2.121 . S
O546 C554 1.258 . S
C547 N548 1.326 . S
C547 C551 1.460 . S
C547 H553 0.929 . S
N548 Mn541 2.257 . S
N548 C547 1.326 . S
N548 C552 1.362 . S
C549 C550 1.258 . S
C549 C552 1.431 . S
C549 C569 1.449 . S
C550 C549 1.258 . S
C550 C551 1.477 . S
C550 H570 0.931 . S
C551 C547 1.460 . S
C551 C550 1.477 . S
C551 H571 0.930 . S
C552 N548 1.362 . S
C552 C549 1.431 . S
C552 C562 1.476 . S
H553 C547 0.929 . S
C554 O545 1.250 . S
C554 O546 1.258 . S
O555 Mn540 2.162 . S
O555 C543 1.281 . S
O556 Mn540 2.297 . S
O556 C543 1.236 . S
N557 Mn541 2.282 . S
N557 C558 1.328 . S
N557 C562 1.318 . S
C558 N557 1.328 . S
C558 C559 1.457 . S
C558 H563 0.929 . S
C559 C558 1.457 . S
C559 C560 1.291 . S
C559 H572 0.931 . S
C560 C559 1.291 . S
C560 C561 1.373 . S
C560 H573 0.929 . S
C561 C560 1.373 . S
C561 C562 1.396 . S
C561 C568 1.403 . S
C562 C552 1.476 . S
C562 N557 1.318 . S
C562 C561 1.396 . S
H563 C558 0.929 . S
O564 Mn540 2.385 . S
O564 C542 1.234 . S
O565 Mn540 2.209 . S
O565 Mn541 2.215 . S
O565 C542 1.283 . S
O566 Mn540 2.094 . S
O566 C544 1.240 . S
O567 Mn541 2.117 . S
O567 C544 1.264 . S
C568 C561 1.403 . S
C568 C569 1.399 . S
C568 H574 0.929 . S
C569 C549 1.449 . S
C569 C568 1.399 . S
C569 H575 0.930 . S
H570 C550 0.931 . S
H571 C551 0.930 . S
H572 C559 0.931 . S
H573 C560 0.929 . S
H574 C568 0.929 . S
H575 C569 0.930 . S
H576 C582 0.930 . S
H577 C585 0.930 . S
H578 C586 0.930 . S
H579 C587 0.930 . S
H580 C590 0.930 . S
H581 C591 0.930 . S
C582 H576 0.930 . S
C582 C583 1.355 . S
C582 C584 1.415 . S
C583 C582 1.355 . S
C583 C585 1.419 . S
C584 C582 1.415 . S
C584 C589 1.425 . S
C584 C591 1.409 . S
C585 H577 0.930 . S
C585 C583 1.419 . S
C585 C586 1.362 . S
C586 H578 0.930 . S
C586 C585 1.362 . S
C586 C589 1.409 . S
C587 H579 0.930 . S
C587 C588 1.355 . S
C587 C589 1.415 . S
C588 C587 1.355 . S
C588 C590 1.419 . S
C589 C584 1.425 . S
C589 C586 1.409 . S
C589 C587 1.415 . S
C590 H580 0.930 . S
C590 C588 1.419 . S
C590 C591 1.362 . S
C591 H581 0.930 . S
C591 C584 1.409 . S
C591 C590 1.362 . S
H592 C598 0.930 . S
H593 C601 0.930 . S
H594 C602 0.930 . S
H595 C603 0.930 . S
H596 C606 0.930 . S
H597 C607 0.930 . S
C598 H592 0.930 . S
C598 C599 1.355 . S
C598 C600 1.415 . S
C599 C598 1.355 . S
C599 C601 1.419 . S
C600 C598 1.415 . S
C600 C605 1.425 . S
C600 C607 1.409 . S
C601 H593 0.930 . S
C601 C599 1.419 . S
C601 C602 1.362 . S
C602 H594 0.930 . S
C602 C601 1.362 . S
C602 C605 1.409 . S
C603 H595 0.930 . S
C603 C604 1.355 . S
C603 C605 1.415 . S
C604 C603 1.355 . S
C604 C606 1.419 . S
C605 C600 1.425 . S
C605 C602 1.409 . S
C605 C603 1.415 . S
C606 H596 0.930 . S
C606 C604 1.419 . S
C606 C607 1.362 . S
C607 H597 0.930 . S
C607 C600 1.409 . S
C607 C606 1.362 . S
H608 C614 0.930 . S
H609 C617 0.930 . S
H610 C618 0.930 . S
H611 C619 0.930 . S
H612 C622 0.930 . S
H613 C623 0.930 . S
C614 H608 0.930 . S
C614 C615 1.355 . S
C614 C616 1.415 . S
C615 C614 1.355 . S
C615 C617 1.419 . S
C616 C614 1.415 . S
C616 C621 1.425 . S
C616 C623 1.409 . S
C617 H609 0.930 . S
C617 C615 1.419 . S
C617 C618 1.362 . S
C618 H610 0.930 . S
C618 C617 1.362 . S
C618 C621 1.409 . S
C619 H611 0.930 . S
C619 C620 1.355 . S
C619 C621 1.415 . S
C620 C619 1.355 . S
C620 C622 1.419 . S
C621 C616 1.425 . S
C621 C618 1.409 . S
C621 C619 1.415 . S
C622 H612 0.930 . S
C622 C620 1.419 . S
C622 C623 1.362 . S
C623 H613 0.930 . S
C623 C616 1.409 . S
C623 C622 1.362 . S
H624 C630 0.930 . S
H625 C633 0.930 . S
H626 C634 0.930 . S
H627 C635 0.930 . S
H628 C638 0.930 . S
H629 C639 0.930 . S
C630 H624 0.930 . S
C630 C631 1.355 . S
C630 C632 1.415 . S
C631 C630 1.355 . S
C631 C633 1.419 . S
C632 C630 1.415 . S
C632 C637 1.425 . S
C632 C639 1.409 . S
C633 H625 0.930 . S
C633 C631 1.419 . S
C633 C634 1.362 . S
C634 H626 0.930 . S
C634 C633 1.362 . S
C634 C637 1.409 . S
C635 H627 0.930 . S
C635 C636 1.355 . S
C635 C637 1.415 . S
C636 C635 1.355 . S
C636 C638 1.419 . S
C637 C632 1.425 . S
C637 C634 1.409 . S
C637 C635 1.415 . S
C638 H628 0.930 . S
C638 C636 1.419 . S
C638 C639 1.362 . S
C639 H629 0.930 . S
C639 C632 1.409 . S
C639 C638 1.362 . S
H640 C646 0.930 . S
H641 C649 0.930 . S
H642 C650 0.930 . S
H643 C651 0.930 . S
H644 C654 0.930 . S
H645 C655 0.930 . S
C646 H640 0.930 . S
C646 C647 1.355 . S
C646 C648 1.415 . S
C647 C646 1.355 . S
C647 C649 1.419 . S
C648 C646 1.415 . S
C648 C653 1.425 . S
C648 C655 1.409 . S
C649 H641 0.930 . S
C649 C647 1.419 . S
C649 C650 1.362 . S
C650 H642 0.930 . S
C650 C649 1.362 . S
C650 C653 1.409 . S
C651 H643 0.930 . S
C651 C652 1.355 . S
C651 C653 1.415 . S
C652 C651 1.355 . S
C652 C654 1.419 . S
C653 C648 1.425 . S
C653 C650 1.409 . S
C653 C651 1.415 . S
C654 H644 0.930 . S
C654 C652 1.419 . S
C654 C655 1.362 . S
C655 H645 0.930 . S
C655 C648 1.409 . S
C655 C654 1.362 . S
H656 C662 0.930 . S
H657 C665 0.930 . S
H658 C666 0.930 . S
H659 C667 0.930 . S
H660 C670 0.930 . S
H661 C671 0.930 . S
C662 H656 0.930 . S
C662 C663 1.355 . S
C662 C664 1.415 . S
C663 C662 1.355 . S
C663 C665 1.419 . S
C664 C662 1.415 . S
C664 C669 1.425 . S
C664 C671 1.409 . S
C665 H657 0.930 . S
C665 C663 1.419 . S
C665 C666 1.362 . S
C666 H658 0.930 . S
C666 C665 1.362 . S
C666 C669 1.409 . S
C667 H659 0.930 . S
C667 C668 1.355 . S
C667 C669 1.415 . S
C668 C667 1.355 . S
C668 C670 1.419 . S
C669 C664 1.425 . S
C669 C666 1.409 . S
C669 C667 1.415 . S
C670 H660 0.930 . S
C670 C668 1.419 . S
C670 C671 1.362 . S
C671 H661 0.930 . S
C671 C664 1.409 . S
C671 C670 1.362 . S
H672 C678 0.930 . S
H673 C681 0.930 . S
H674 C682 0.930 . S
H675 C683 0.930 . S
H676 C686 0.930 . S
H677 C687 0.930 . S
C678 H672 0.930 . S
C678 C679 1.355 . S
C678 C680 1.415 . S
C679 C678 1.355 . S
C679 C681 1.419 . S
C680 C678 1.415 . S
C680 C685 1.425 . S
C680 C687 1.409 . S
C681 H673 0.930 . S
C681 C679 1.419 . S
C681 C682 1.362 . S
C682 H674 0.930 . S
C682 C681 1.362 . S
C682 C685 1.409 . S
C683 H675 0.930 . S
C683 C684 1.355 . S
C683 C685 1.415 . S
C684 C683 1.355 . S
C684 C686 1.419 . S
C685 C680 1.425 . S
C685 C682 1.409 . S
C685 C683 1.415 . S
C686 H676 0.930 . S
C686 C684 1.419 . S
C686 C687 1.362 . S
C687 H677 0.930 . S
C687 C680 1.409 . S
C687 C686 1.362 . S
H688 C694 0.930 . S
H689 C697 0.930 . S
H690 C698 0.930 . S
H691 C699 0.930 . S
H692 C702 0.930 . S
H693 C703 0.930 . S
C694 H688 0.930 . S
C694 C695 1.355 . S
C694 C696 1.415 . S
C695 C694 1.355 . S
C695 C697 1.419 . S
C696 C694 1.415 . S
C696 C701 1.425 . S
C696 C703 1.409 . S
C697 H689 0.930 . S
C697 C695 1.419 . S
C697 C698 1.362 . S
C698 H690 0.930 . S
C698 C697 1.362 . S
C698 C701 1.409 . S
C699 H691 0.930 . S
C699 C700 1.355 . S
C699 C701 1.415 . S
C700 C699 1.355 . S
C700 C702 1.419 . S
C701 C696 1.425 . S
C701 C698 1.409 . S
C701 C699 1.415 . S
C702 H692 0.930 . S
C702 C700 1.419 . S
C702 C703 1.362 . S
C703 H693 0.930 . S
C703 C696 1.409 . S
C703 C702 1.362 . S
H704 C710 0.930 . S
H705 C713 0.930 . S
H706 C714 0.930 . S
H707 C715 0.930 . S
H708 C718 0.930 . S
H709 C719 0.930 . S
C710 H704 0.930 . S
C710 C711 1.355 . S
C710 C712 1.415 . S
C711 C710 1.355 . S
C711 C713 1.419 . S
C712 C710 1.415 . S
C712 C717 1.425 1_556 S
C712 C719 1.409 1_556 S
C713 H705 0.930 . S
C713 C711 1.419 . S
C713 C714 1.362 . S
C714 H706 0.930 . S
C714 C713 1.362 . S
C714 C717 1.409 1_556 S
C715 H707 0.930 . S
C715 C716 1.355 . S
C715 C717 1.415 . S
C716 C715 1.355 . S
C716 C718 1.419 . S
C717 C712 1.425 1_554 S
C717 C714 1.409 1_554 S
C717 C715 1.415 . S
C718 H708 0.930 . S
C718 C716 1.419 . S
C718 C719 1.362 . S
C719 H709 0.930 . S
C719 C712 1.409 1_554 S
C719 C718 1.362 . S
H720 C726 0.930 . S
H721 C729 0.930 . S
H722 C730 0.930 . S
H723 C731 0.930 . S
H724 C734 0.930 . S
H725 C735 0.930 . S
C726 H720 0.930 . S
C726 C727 1.355 . S
C726 C728 1.415 . S
C727 C726 1.355 . S
C727 C729 1.419 . S
C728 C726 1.415 . S
C728 C733 1.425 1_556 S
C728 C735 1.409 1_556 S
C729 H721 0.930 . S
C729 C727 1.419 . S
C729 C730 1.362 . S
C730 H722 0.930 . S
C730 C729 1.362 . S
C730 C733 1.409 1_556 S
C731 H723 0.930 . S
C731 C732 1.355 . S
C731 C733 1.415 . S
C732 C731 1.355 . S
C732 C734 1.419 . S
C733 C728 1.425 1_554 S
C733 C730 1.409 1_554 S
C733 C731 1.415 . S
C734 H724 0.930 . S
C734 C732 1.419 . S
C734 C735 1.362 . S
C735 H725 0.930 . S
C735 C728 1.409 1_554 S
C735 C734 1.362 . S
H736 C742 0.930 . S
H737 C745 0.930 . S
H738 C746 0.930 1_554 S
H739 C747 0.930 . S
H740 C750 0.930 . S
H741 C751 0.930 . S
C742 H736 0.930 . S
C742 C743 1.355 . S
C742 C744 1.415 . S
C743 C742 1.355 . S
C743 C745 1.419 . S
C744 C742 1.415 . S
C744 C749 1.425 1_556 S
C744 C751 1.409 1_556 S
C745 H737 0.930 . S
C745 C743 1.419 . S
C745 C746 1.362 . S
C746 H738 0.930 1_556 S
C746 C745 1.362 . S
C746 C749 1.409 1_556 S
C747 H739 0.930 . S
C747 C748 1.355 . S
C747 C749 1.415 . S
C748 C747 1.355 . S
C748 C750 1.419 . S
C749 C744 1.425 1_554 S
C749 C746 1.409 1_554 S
C749 C747 1.415 . S
C750 H740 0.930 . S
C750 C748 1.419 . S
C750 C751 1.362 . S
C751 H741 0.930 . S
C751 C744 1.409 1_554 S
C751 C750 1.362 . S
H752 C758 0.930 . S
H753 C761 0.930 . S
H754 C762 0.930 . S
H755 C763 0.930 . S
H756 C766 0.930 . S
H757 C767 0.930 . S
C758 H752 0.930 . S
C758 C759 1.355 . S
C758 C760 1.415 . S
C759 C758 1.355 . S
C759 C761 1.419 . S
C760 C758 1.415 . S
C760 C765 1.425 1_554 S
C760 C767 1.409 1_554 S
C761 H753 0.930 . S
C761 C759 1.419 . S
C761 C762 1.362 . S
C762 H754 0.930 . S
C762 C761 1.362 . S
C762 C765 1.409 1_554 S
C763 H755 0.930 . S
C763 C764 1.355 . S
C763 C765 1.415 . S
C764 C763 1.355 . S
C764 C766 1.419 . S
C765 C760 1.425 1_556 S
C765 C762 1.409 1_556 S
C765 C763 1.415 . S
C766 H756 0.930 . S
C766 C764 1.419 . S
C766 C767 1.362 . S
C767 H757 0.930 . S
C767 C760 1.409 1_556 S
C767 C766 1.362 . S
H768 C774 0.930 . S
H769 C777 0.930 . S
H770 C778 0.930 . S
H771 C779 0.930 . S
H772 C782 0.930 . S
H773 C783 0.930 . S
C774 H768 0.930 . S
C774 C775 1.355 . S
C774 C776 1.415 . S
C775 C774 1.355 . S
C775 C777 1.419 . S
C776 C774 1.415 . S
C776 C781 1.425 1_455 S
C776 C783 1.409 1_455 S
C777 H769 0.930 . S
C777 C775 1.419 . S
C777 C778 1.362 . S
C778 H770 0.930 . S
C778 C777 1.362 . S
C778 C781 1.409 1_455 S
C779 H771 0.930 . S
C779 C780 1.355 . S
C779 C781 1.415 . S
C780 C779 1.355 . S
C780 C782 1.419 . S
C781 C776 1.425 1_655 S
C781 C778 1.409 1_655 S
C781 C779 1.415 . S
C782 H772 0.930 . S
C782 C780 1.419 . S
C782 C783 1.362 . S
C783 H773 0.930 . S
C783 C776 1.409 1_655 S
C783 C782 1.362 . S
H784 C790 0.930 . S
H785 C793 0.930 . S
H786 C794 0.930 . S
H787 C795 0.930 . S
H788 C798 0.930 . S
H789 C799 0.930 . S
C790 H784 0.930 . S
C790 C791 1.355 . S
C790 C792 1.415 . S
C791 C790 1.355 . S
C791 C793 1.419 . S
C792 C790 1.415 . S
C792 C797 1.425 1_565 S
C792 C799 1.409 1_565 S
C793 H785 0.930 . S
C793 C791 1.419 . S
C793 C794 1.362 . S
C794 H786 0.930 . S
C794 C793 1.362 . S
C794 C797 1.409 1_565 S
C795 H787 0.930 . S
C795 C796 1.355 . S
C795 C797 1.415 . S
C796 C795 1.355 . S
C796 C798 1.419 . S
C797 C792 1.425 1_545 S
C797 C794 1.409 1_545 S
C797 C795 1.415 . S
C798 H788 0.930 . S
C798 C796 1.419 . S
C798 C799 1.362 . S
C799 H789 0.930 . S
C799 C792 1.409 1_545 S
C799 C798 1.362 . S
H800 C806 0.930 . S
H801 C809 0.930 . S
H802 C810 0.930 . S
H803 C811 0.930 . S
H804 C814 0.930 . S
H805 C815 0.930 . S
C806 H800 0.930 . S
C806 C807 1.355 . S
C806 C808 1.415 . S
C807 C806 1.355 . S
C807 C809 1.419 . S
C808 C806 1.415 . S
C808 C813 1.425 1_655 S
C808 C815 1.409 1_655 S
C809 H801 0.930 . S
C809 C807 1.419 . S
C809 C810 1.362 . S
C810 H802 0.930 . S
C810 C809 1.362 . S
C810 C813 1.409 1_655 S
C811 H803 0.930 . S
C811 C812 1.355 . S
C811 C813 1.415 . S
C812 C811 1.355 . S
C812 C814 1.419 . S
C813 C808 1.425 1_455 S
C813 C810 1.409 1_455 S
C813 C811 1.415 . S
C814 H804 0.930 . S
C814 C812 1.419 . S
C814 C815 1.362 . S
C815 H805 0.930 . S
C815 C808 1.409 1_455 S
C815 C814 1.362 . S
H816 C822 0.930 . S
H817 C825 0.930 . S
H818 C826 0.930 . S
H819 C827 0.930 . S
H820 C830 0.930 . S
H821 C831 0.930 . S
C822 H816 0.930 . S
C822 C823 1.355 . S
C822 C824 1.411 1_545 S
C823 C822 1.355 . S
C823 C825 1.419 . S
C824 C822 1.411 1_565 S
C824 C829 1.426 . S
C824 C831 1.412 . S
C825 H817 0.930 . S
C825 C823 1.419 . S
C825 C826 1.362 . S
C826 H818 0.930 . S
C826 C825 1.362 . S
C826 C829 1.409 1_545 S
C827 H819 0.930 . S
C827 C828 1.355 . S
C827 C829 1.415 . S
C828 C827 1.355 . S
C828 C830 1.419 . S
C829 C824 1.426 . S
C829 C826 1.409 1_565 S
C829 C827 1.415 . S
C830 H820 0.930 . S
C830 C828 1.419 . S
C830 C831 1.362 . S
C831 H821 0.930 . S
C831 C824 1.412 . S
C831 C830 1.362 . S
H832 C838 0.930 . S
H833 C841 0.930 . S
H834 C842 0.930 . S
H835 C843 0.930 . S
H836 C846 0.930 . S
H837 C847 0.930 . S
C838 H832 0.930 . S
C838 C839 1.355 . S
C838 C840 1.415 . S
C839 C838 1.355 . S
C839 C841 1.419 . S
C840 C838 1.415 . S
C840 C845 1.425 1_655 S
C840 C847 1.409 1_655 S
C841 H833 0.930 . S
C841 C839 1.419 . S
C841 C842 1.362 . S
C842 H834 0.930 . S
C842 C841 1.362 . S
C842 C845 1.409 1_655 S
C843 H835 0.930 . S
C843 C844 1.355 . S
C843 C845 1.415 . S
C844 C843 1.355 . S
C844 C846 1.419 . S
C845 C840 1.425 1_455 S
C845 C842 1.409 1_455 S
C845 C843 1.415 . S
C846 H836 0.930 . S
C846 C844 1.419 . S
C846 C847 1.362 . S
C847 H837 0.930 . S
C847 C840 1.409 1_455 S
C847 C846 1.362 . S
H848 C854 0.930 . S
H849 C857 0.930 . S
H850 C858 0.930 . S
H851 C859 0.930 . S
H852 C862 0.930 . S
H853 C863 0.930 . S
C854 H848 0.930 . S
C854 C855 1.355 . S
C854 C856 1.415 . S
C855 C854 1.355 . S
C855 C857 1.419 . S
C856 C854 1.415 . S
C856 C861 1.425 1_565 S
C856 C863 1.409 1_565 S
C857 H849 0.930 . S
C857 C855 1.419 . S
C857 C858 1.362 . S
C858 H850 0.930 . S
C858 C857 1.362 . S
C858 C861 1.409 1_565 S
C859 H851 0.930 . S
C859 C860 1.355 . S
C859 C861 1.415 . S
C860 C859 1.355 . S
C860 C862 1.419 . S
C861 C856 1.425 1_545 S
C861 C858 1.409 1_545 S
C861 C859 1.415 . S
C862 H852 0.930 . S
C862 C860 1.419 . S
C862 C863 1.362 . S
C863 H853 0.930 . S
C863 C856 1.409 1_545 S
C863 C862 1.362 . S
H864 C870 0.930 . S
H865 C873 0.930 . S
H866 C874 0.930 . S
H867 C875 0.930 . S
H868 C878 0.930 . S
H869 C879 0.930 . S
C870 H864 0.930 . S
C870 C871 1.355 . S
C870 C872 1.415 . S
C871 C870 1.355 . S
C871 C873 1.419 . S
C872 C870 1.415 . S
C872 C877 1.425 1_455 S
C872 C879 1.409 1_455 S
C873 H865 0.930 . S
C873 C871 1.419 . S
C873 C874 1.362 . S
C874 H866 0.930 . S
C874 C873 1.362 . S
C874 C877 1.409 1_455 S
C875 H867 0.930 . S
C875 C876 1.355 . S
C875 C877 1.415 . S
C876 C875 1.355 . S
C876 C878 1.419 . S
C877 C872 1.425 1_655 S
C877 C874 1.409 1_655 S
C877 C875 1.415 . S
C878 H868 0.930 . S
C878 C876 1.419 . S
C878 C879 1.362 . S
C879 H869 0.930 . S
C879 C872 1.409 1_655 S
C879 C878 1.362 . S
H880 C886 0.930 . S
H881 C889 0.930 . S
H882 C890 0.930 . S
H883 C891 0.930 . S
H884 C894 0.930 . S
H885 C895 0.930 . S
C886 H880 0.930 . S
C886 C887 1.355 . S
C886 C888 1.415 . S
C887 C886 1.355 . S
C887 C889 1.419 . S
C888 C886 1.415 . S
C888 C893 1.425 . S
C888 C895 1.409 1_565 S
C889 H881 0.930 . S
C889 C887 1.419 . S
C889 C890 1.362 . S
C890 H882 0.930 . S
C890 C889 1.362 . S
C890 C893 1.409 . S
C891 H883 0.930 . S
C891 C892 1.355 . S
C891 C893 1.415 1_545 S
C892 C891 1.355 . S
C892 C894 1.419 . S
C893 C888 1.425 . S
C893 C890 1.409 . S
C893 C891 1.415 1_565 S
C894 H884 0.930 . S
C894 C892 1.419 . S
C894 C895 1.362 . S
C895 H885 0.930 . S
C895 C888 1.409 1_545 S
C895 C894 1.362 . S
H896 C902 0.930 . S
H897 C905 0.930 . S
H898 C906 0.930 . S
H899 C907 0.930 . S
H900 C910 0.930 . S
H901 C911 0.930 . S
C902 H896 0.930 . S
C902 C903 1.355 . S
C902 C904 1.415 . S
C903 C902 1.355 . S
C903 C905 1.419 . S
C904 C902 1.415 . S
C904 C909 1.425 . S
C904 C911 1.409 . S
C905 H897 0.930 . S
C905 C903 1.419 . S
C905 C906 1.362 . S
C906 H898 0.930 . S
C906 C905 1.362 . S
C906 C909 1.409 . S
C907 H899 0.930 . S
C907 C908 1.355 . S
C907 C909 1.415 . S
C908 C907 1.355 . S
C908 C910 1.419 . S
C909 C904 1.425 . S
C909 C906 1.409 . S
C909 C907 1.415 . S
C910 H900 0.930 . S
C910 C908 1.419 . S
C910 C911 1.362 . S
C911 H901 0.930 . S
C911 C904 1.409 . S
C911 C910 1.362 . S
H912 C918 0.930 . S
H913 C921 0.930 . S
H914 C922 0.930 . S
H915 C923 0.930 . S
H916 C926 0.930 . S
H917 C927 0.930 . S
C918 H912 0.930 . S
C918 C919 1.355 . S
C918 C920 1.415 . S
C919 C918 1.355 . S
C919 C921 1.419 . S
C920 C918 1.415 . S
C920 C925 1.425 . S
C920 C927 1.409 . S
C921 H913 0.930 . S
C921 C919 1.419 . S
C921 C922 1.362 . S
C922 H914 0.930 . S
C922 C921 1.362 . S
C922 C925 1.409 . S
C923 H915 0.930 . S
C923 C924 1.355 . S
C923 C925 1.415 . S
C924 C923 1.355 . S
C924 C926 1.419 . S
C925 C920 1.425 . S
C925 C922 1.409 . S
C925 C923 1.415 . S
C926 H916 0.930 . S
C926 C924 1.419 . S
C926 C927 1.362 . S
C927 H917 0.930 . S
C927 C920 1.409 . S
C927 C926 1.362 . S
H928 C934 0.930 . S
H929 C937 0.930 . S
H930 C938 0.930 . S
H931 C939 0.930 . S
H932 C942 0.930 . S
H933 C943 0.930 . S
C934 H928 0.930 . S
C934 C935 1.355 . S
C934 C936 1.415 . S
C935 C934 1.355 . S
C935 C937 1.419 . S
C936 C934 1.415 . S
C936 C941 1.425 . S
C936 C943 1.409 . S
C937 H929 0.930 . S
C937 C935 1.419 . S
C937 C938 1.362 . S
C938 H930 0.930 . S
C938 C937 1.362 . S
C938 C941 1.409 . S
C939 H931 0.930 . S
C939 C940 1.355 . S
C939 C941 1.415 . S
C940 C939 1.355 . S
C940 C942 1.419 . S
C941 C936 1.425 . S
C941 C938 1.409 . S
C941 C939 1.415 . S
C942 H932 0.930 . S
C942 C940 1.419 . S
C942 C943 1.362 . S
C943 H933 0.930 . S
C943 C936 1.409 . S
C943 C942 1.362 . S
H944 C950 0.930 . S
H945 C953 0.930 . S
H946 C954 0.930 . S
H947 C955 0.930 . S
H948 C958 0.930 . S
H949 C959 0.930 . S
C950 H944 0.930 . S
C950 C951 1.355 . S
C950 C952 1.415 . S
C951 C950 1.355 . S
C951 C953 1.419 . S
C952 C950 1.415 . S
C952 C957 1.425 . S
C952 C959 1.409 . S
C953 H945 0.930 . S
C953 C951 1.419 . S
C953 C954 1.362 . S
C954 H946 0.930 . S
C954 C953 1.362 . S
C954 C957 1.409 . S
C955 H947 0.930 . S
C955 C956 1.355 . S
C955 C957 1.415 . S
C956 C955 1.355 . S
C956 C958 1.419 . S
C957 C952 1.425 . S
C957 C954 1.409 . S
C957 C955 1.415 . S
C958 H948 0.930 . S
C958 C956 1.419 . S
C958 C959 1.362 . S
C959 H949 0.930 . S
C959 C952 1.409 . S
C959 C958 1.362 . S
H960 C966 0.930 . S
H961 C969 0.930 . S
H962 C970 0.930 . S
H963 C971 0.930 . S
H964 C974 0.930 . S
H965 C975 0.930 . S
C966 H960 0.930 . S
C966 C967 1.355 . S
C966 C968 1.415 . S
C967 C966 1.355 . S
C967 C969 1.419 . S
C968 C966 1.415 . S
C968 C973 1.425 . S
C968 C975 1.409 . S
C969 H961 0.930 . S
C969 C967 1.419 . S
C969 C970 1.362 . S
C970 H962 0.930 . S
C970 C969 1.362 . S
C970 C973 1.409 . S
C971 H963 0.930 . S
C971 C972 1.355 . S
C971 C973 1.415 . S
C972 C971 1.355 . S
C972 C974 1.419 . S
C973 C968 1.425 . S
C973 C970 1.409 . S
C973 C971 1.415 . S
C974 H964 0.930 . S
C974 C972 1.419 . S
C974 C975 1.362 . S
C975 H965 0.930 . S
C975 C968 1.409 . S
C975 C974 1.362 . S
H976 C982 0.930 . S
H977 C985 0.930 . S
H978 C986 0.930 . S
H979 C987 0.930 . S
H980 C990 0.930 . S
H981 C991 0.930 . S
C982 H976 0.930 . S
C982 C983 1.355 . S
C982 C984 1.415 . S
C983 C982 1.355 . S
C983 C985 1.419 . S
C984 C982 1.415 . S
C984 C989 1.425 . S
C984 C991 1.409 . S
C985 H977 0.930 . S
C985 C983 1.419 . S
C985 C986 1.362 . S
C986 H978 0.930 . S
C986 C985 1.362 . S
C986 C989 1.409 . S
C987 H979 0.930 . S
C987 C988 1.355 . S
C987 C989 1.415 . S
C988 C987 1.355 . S
C988 C990 1.419 . S
C989 C984 1.425 . S
C989 C986 1.409 . S
C989 C987 1.415 . S
C990 H980 0.930 . S
C990 C988 1.419 . S
C990 C991 1.362 . S
C991 H981 0.930 . S
C991 C984 1.409 . S
C991 C990 1.362 . S
H992 C998 0.930 . S
H993 C1001 0.930 . S
H994 C1002 0.930 . S
H995 C1003 0.930 . S
H996 C1006 0.930 . S
H997 C1007 0.930 . S
C998 H992 0.930 . S
C998 C999 1.355 . S
C998 C1000 1.415 . S
C999 C998 1.355 . S
C999 C1001 1.419 . S
C1000 C998 1.415 . S
C1000 C1005 1.425 . S
C1000 C1007 1.409 . S
C1001 H993 0.930 . S
C1001 C999 1.419 . S
C1001 C1002 1.362 . S
C1002 H994 0.930 . S
C1002 C1001 1.362 . S
C1002 C1005 1.409 . S
C1003 H995 0.930 . S
C1003 C1004 1.355 . S
C1003 C1005 1.415 . S
C1004 C1003 1.355 . S
C1004 C1006 1.419 . S
C1005 C1000 1.425 . S
C1005 C1002 1.409 . S
C1005 C1003 1.415 . S
C1006 H996 0.930 . S
C1006 C1004 1.419 . S
C1006 C1007 1.362 . S
C1007 H997 0.930 . S
C1007 C1000 1.409 . S
C1007 C1006 1.362 . S
H1008 C1014 0.930 . S
H1009 C1017 0.930 . S
H1010 C1018 0.930 . S
H1011 C1019 0.930 . S
H1012 C1022 0.930 . S
H1013 C1023 0.930 . S
C1014 H1008 0.930 . S
C1014 C1015 1.355 . S
C1014 C1016 1.415 . S
C1015 C1014 1.355 . S
C1015 C1017 1.419 . S
C1016 C1014 1.415 . S
C1016 C1021 1.425 . S
C1016 C1023 1.409 . S
C1017 H1009 0.930 . S
C1017 C1015 1.419 . S
C1017 C1018 1.362 . S
C1018 H1010 0.930 . S
C1018 C1017 1.362 . S
C1018 C1021 1.409 . S
C1019 H1011 0.930 . S
C1019 C1020 1.355 . S
C1019 C1021 1.415 . S
C1020 C1019 1.355 . S
C1020 C1022 1.419 . S
C1021 C1016 1.425 . S
C1021 C1018 1.409 . S
C1021 C1019 1.415 . S
C1022 H1012 0.930 . S
C1022 C1020 1.419 . S
C1022 C1023 1.362 . S
C1023 H1013 0.930 . S
C1023 C1016 1.409 . S
C1023 C1022 1.362 . S
H1024 C1030 0.930 . S
H1025 C1033 0.930 . S
H1026 C1034 0.930 . S
H1027 C1035 0.930 . S
H1028 C1038 0.930 . S
H1029 C1039 0.930 . S
C1030 H1024 0.930 . S
C1030 C1031 1.355 . S
C1030 C1032 1.415 . S
C1031 C1030 1.355 . S
C1031 C1033 1.419 . S
C1032 C1030 1.415 . S
C1032 C1037 1.425 . S
C1032 C1039 1.409 . S
C1033 H1025 0.930 . S
C1033 C1031 1.419 . S
C1033 C1034 1.362 . S
C1034 H1026 0.930 . S
C1034 C1033 1.362 . S
C1034 C1037 1.409 . S
C1035 H1027 0.930 . S
C1035 C1036 1.355 . S
C1035 C1037 1.415 . S
C1036 C1035 1.355 . S
C1036 C1038 1.419 . S
C1037 C1032 1.425 . S
C1037 C1034 1.409 . S
C1037 C1035 1.415 . S
C1038 H1028 0.930 . S
C1038 C1036 1.419 . S
C1038 C1039 1.362 . S
C1039 H1029 0.930 . S
C1039 C1032 1.409 . S
C1039 C1038 1.362 . S
H1040 C1046 0.930 . S
H1041 C1049 0.930 . S
H1042 C1050 0.930 . S
H1043 C1051 0.930 . S
H1044 C1054 0.930 . S
H1045 C1055 0.930 . S
C1046 H1040 0.930 . S
C1046 C1047 1.355 . S
C1046 C1048 1.415 . S
C1047 C1046 1.355 . S
C1047 C1049 1.419 . S
C1048 C1046 1.415 . S
C1048 C1053 1.425 . S
C1048 C1055 1.409 . S
C1049 H1041 0.930 . S
C1049 C1047 1.419 . S
C1049 C1050 1.362 . S
C1050 H1042 0.930 . S
C1050 C1049 1.362 . S
C1050 C1053 1.409 . S
C1051 H1043 0.930 . S
C1051 C1052 1.355 . S
C1051 C1053 1.415 . S
C1052 C1051 1.355 . S
C1052 C1054 1.419 . S
C1053 C1048 1.425 . S
C1053 C1050 1.409 . S
C1053 C1051 1.415 . S
C1054 H1044 0.930 . S
C1054 C1052 1.419 . S
C1054 C1055 1.362 . S
C1055 H1045 0.930 . S
C1055 C1048 1.409 . S
C1055 C1054 1.362 . S
H1056 C1062 0.930 . S
H1057 C1065 0.930 . S
H1058 C1066 0.930 . S
H1059 C1067 0.930 . S
H1060 C1070 0.930 . S
H1061 C1071 0.930 . S
C1062 H1056 0.930 . S
C1062 C1063 1.355 . S
C1062 C1064 1.415 . S
C1063 C1062 1.355 . S
C1063 C1065 1.419 . S
C1064 C1062 1.415 . S
C1064 C1069 1.425 . S
C1064 C1071 1.409 . S
C1065 H1057 0.930 . S
C1065 C1063 1.419 . S
C1065 C1066 1.362 . S
C1066 H1058 0.930 . S
C1066 C1065 1.362 . S
C1066 C1069 1.409 . S
C1067 H1059 0.930 . S
C1067 C1068 1.355 . S
C1067 C1069 1.415 . S
C1068 C1067 1.355 . S
C1068 C1070 1.419 . S
C1069 C1064 1.425 . S
C1069 C1066 1.409 . S
C1069 C1067 1.415 . S
C1070 H1060 0.930 . S
C1070 C1068 1.419 . S
C1070 C1071 1.362 . S
C1071 H1061 0.930 . S
C1071 C1064 1.409 . S
C1071 C1070 1.362 . S
H1072 C1078 0.930 . S
H1073 C1081 0.930 . S
H1074 C1082 0.930 . S
H1075 C1083 0.930 . S
H1076 C1086 0.930 . S
H1077 C1087 0.930 . S
C1078 H1072 0.930 . S
C1078 C1079 1.355 . S
C1078 C1080 1.415 . S
C1079 C1078 1.355 . S
C1079 C1081 1.419 . S
C1080 C1078 1.415 . S
C1080 C1085 1.425 . S
C1080 C1087 1.409 . S
C1081 H1073 0.930 . S
C1081 C1079 1.419 . S
C1081 C1082 1.362 . S
C1082 H1074 0.930 . S
C1082 C1081 1.362 . S
C1082 C1085 1.409 . S
C1083 H1075 0.930 . S
C1083 C1084 1.355 . S
C1083 C1085 1.415 . S
C1084 C1083 1.355 . S
C1084 C1086 1.419 . S
C1085 C1080 1.425 . S
C1085 C1082 1.409 . S
C1085 C1083 1.415 . S
C1086 H1076 0.930 . S
C1086 C1084 1.419 . S
C1086 C1087 1.362 . S
C1087 H1077 0.930 . S
C1087 C1080 1.409 . S
C1087 C1086 1.362 . S
C583 C544 1.068 . S
C588 C4 1.073 . S
C599 C436 1.097 . S
C604 C40 1.098 . S
C615 C76 1.085 . S
C620 C472 1.081 . S
C631 C508 1.070 . S
C636 C112 1.075 . S
C647 C328 1.035 . S
C652 C148 1.033 . S
C663 C184 1.037 . S
C668 C364 1.034 . S
C679 C220 1.049 . S
C684 C400 1.044 . S
C695 C256 1.039 . S
C700 C292 1.043 . S
C711 C183 1.477 . S
C716 C14 1.444 . S
C727 C230 1.435 . S
C732 C39 1.476 . S
C743 C255 1.473 . S
C748 C86 1.406 . S
C759 C111 1.468 . S
C764 C158 1.364 . S
C775 C2 1.546 . S
C780 C38 1.559 . S
C791 C75 1.468 . S
C796 C50 1.364 . S
C807 C74 1.548 . S
C812 C110 1.557 . S
C823 C3 1.471 . S
C828 C122 1.400 . S
C839 C254 1.550 . S
C844 C146 1.555 . S
C855 C147 1.468 . S
C860 C194 1.365 . S
C871 C182 1.553 . S
C876 C218 1.552 . S
C887 C266 1.383 . S
C892 C219 1.470 . S
C903 C471 1.469 . S
C908 C302 1.373 . S
C919 C327 1.475 . S
C924 C518 1.421 . S
C935 C543 1.470 . S
C940 C374 1.378 . S
C951 C446 1.400 . S
C956 C399 1.471 . S
C967 C290 1.548 . S
C972 C326 1.557 . S
C983 C338 1.440 . S
C988 C363 1.476 . S
C999 C398 1.552 . S
C1004 C362 1.553 . S
C1015 C291 1.473 . S
C1020 C410 1.412 . S
C1031 C542 1.548 . S
C1036 C434 1.557 . S
C1047 C435 1.472 . S
C1052 C482 1.391 . S
C1063 C470 1.558 . S
C1068 C506 1.547 . S
C1079 C554 1.399 . S
C1084 C507 1.473 . S
