# Generated by pormake.
# Topology rac, (4)-cn, num edge types: 1
# Building blocks:
#     Node 0, Type 0, BuildingBlock: GALJAG_clean_sbu_0, # of connection points: 4
#     Node 1, Type 0, BuildingBlock: GALJAG_clean_sbu_0, # of connection points: 4
#     Node 2, Type 0, BuildingBlock: GALJAG_clean_sbu_0, # of connection points: 4
#     Node 3, Type 0, BuildingBlock: GALJAG_clean_sbu_0, # of connection points: 4
#     Node 4, Type 0, BuildingBlock: GALJAG_clean_sbu_0, # of connection points: 4
#     Node 5, Type 0, BuildingBlock: GALJAG_clean_sbu_0, # of connection points: 4
#     Node 6, Type 0, BuildingBlock: GALJAG_clean_sbu_0, # of connection points: 4
#     Node 7, Type 0, BuildingBlock: GALJAG_clean_sbu_0, # of connection points: 4
#     Edge 8, Type (0, 0), BuildingBlock: TEMPAE_clean_linker_10, # of connection points: 2
#     Edge 9, Type (0, 0), BuildingBlock: TEMPAE_clean_linker_10, # of connection points: 2
#     Edge 10, Type (0, 0), BuildingBlock: TEMPAE_clean_linker_10, # of connection points: 2
#     Edge 11, Type (0, 0), BuildingBlock: TEMPAE_clean_linker_10, # of connection points: 2
#     Edge 12, Type (0, 0), BuildingBlock: TEMPAE_clean_linker_10, # of connection points: 2
#     Edge 13, Type (0, 0), BuildingBlock: TEMPAE_clean_linker_10, # of connection points: 2
#     Edge 14, Type (0, 0), BuildingBlock: TEMPAE_clean_linker_10, # of connection points: 2
#     Edge 15, Type (0, 0), BuildingBlock: TEMPAE_clean_linker_10, # of connection points: 2
#     Edge 16, Type (0, 0), BuildingBlock: TEMPAE_clean_linker_10, # of connection points: 2
#     Edge 17, Type (0, 0), BuildingBlock: TEMPAE_clean_linker_10, # of connection points: 2
#     Edge 18, Type (0, 0), BuildingBlock: TEMPAE_clean_linker_10, # of connection points: 2
#     Edge 19, Type (0, 0), BuildingBlock: TEMPAE_clean_linker_10, # of connection points: 2
#     Edge 20, Type (0, 0), BuildingBlock: TEMPAE_clean_linker_10, # of connection points: 2
#     Edge 21, Type (0, 0), BuildingBlock: TEMPAE_clean_linker_10, # of connection points: 2
#     Edge 22, Type (0, 0), BuildingBlock: TEMPAE_clean_linker_10, # of connection points: 2
#     Edge 23, Type (0, 0), BuildingBlock: TEMPAE_clean_linker_10, # of connection points: 2
# Relax obj value: 0.254
# Max RMSD: 0.115
# Mean RMSD: 0.115
data_MOF--net-rac--node1-GALJAG_clean_sbu_0--edge1-TEMPAE_clean_linker_10
_symmetry_space_group_name_H-M    P1
_symmetry_Int_Tables_number       1
_symmetry_cell_setting            triclinic
loop_
_symmetry_equiv_pos_as_xyz
'x, y, z'
_cell_length_a     36.326079
_cell_length_b     23.380401
_cell_length_c     39.732602
_cell_angle_alpha  89.999948
_cell_angle_beta   89.989179
_cell_angle_gamma 89.788077
loop_
_atom_site_label
_atom_site_type_symbol
_atom_site_fract_x
_atom_site_fract_y
_atom_site_fract_z
_atom_type_partial_charge
In0 In 0.35401 0.28837 0.04957 0.0
O1 O 0.3401 0.31038 0.10331 0.0
O2 O 0.3862 0.2547 0.09435 0.0
C3 C 0.31154 0.33705 0.00383 0.0
C4 C 0.32026 0.18766 0.04238 0.0
C5 C 0.40314 0.37127 0.03814 0.0
O6 O 0.30397 0.33788 0.03506 0.0
O7 O 0.34042 0.30985 0.99553 0.0
O8 O 0.4093 0.32017 0.02808 0.0
O9 O 0.37373 0.37812 0.05476 0.0
C10 C 0.36609 0.28064 0.11563 0.0
O11 O 0.35345 0.1939 0.03239 0.0
O12 O 0.30581 0.23139 0.05569 0.0
In13 In 0.15668 0.71059 0.06945 0.0
O14 O 0.15035 0.80136 0.04698 0.0
O15 O 0.19518 0.78247 0.08016 0.0
C16 C 0.10768 0.62769 0.05522 0.0
C17 C 0.14504 0.71304 0.13594 0.0
C18 C 0.20769 0.66952 0.02778 0.0
O19 O 0.10148 0.67945 0.0468 0.0
O20 O 0.13753 0.61961 0.07081 0.0
O21 O 0.21073 0.66627 0.05952 0.0
O22 O 0.17886 0.69406 0.01721 0.0
C23 C 0.17948 0.81877 0.06151 0.0
O24 O 0.17262 0.68829 0.12283 0.0
O25 O 0.12313 0.73668 0.11528 0.0
In26 In 0.36312 0.23109 0.43364 0.0
O27 O 0.36881 0.31713 0.46228 0.0
O28 O 0.32996 0.30961 0.42221 0.0
C29 C 0.41109 0.14484 0.44613 0.0
C30 C 0.37359 0.23521 0.36705 0.0
C31 C 0.30828 0.1913 0.47129 0.0
O32 O 0.41868 0.19608 0.45455 0.0
O33 O 0.38042 0.13895 0.43169 0.0
O34 O 0.30641 0.19395 0.43952 0.0
O35 O 0.33808 0.20856 0.48405 0.0
C36 C 0.34304 0.34029 0.44532 0.0
O37 O 0.34666 0.20965 0.38051 0.0
O38 O 0.39572 0.25884 0.38745 0.0
In39 In 0.13608 0.77314 0.45458 0.0
O40 O 0.14191 0.67851 0.47276 0.0
O41 O 0.1898 0.72811 0.4638 0.0
C42 C 0.07215 0.82703 0.47032 0.0
C43 C 0.1315 0.75777 0.3877 0.0
C44 C 0.17604 0.8552 0.48282 0.0
O45 O 0.086 0.78932 0.48958 0.0
O46 O 0.08859 0.83263 0.44261 0.0
O47 O 0.17907 0.8417 0.45211 0.0
O48 O 0.15297 0.82668 0.49958 0.0
C49 C 0.17687 0.68034 0.47208 0.0
O50 O 0.15037 0.79694 0.40111 0.0
O51 O 0.11446 0.7259 0.40822 0.0
In52 In 0.62274 0.73983 0.93529 0.0
O53 O 0.63417 0.70633 0.88315 0.0
O54 O 0.59941 0.77975 0.88689 0.0
C55 C 0.65971 0.64675 0.95513 0.0
C56 C 0.66793 0.83075 0.94596 0.0
C57 C 0.55938 0.706 0.96558 0.0
O58 O 0.64249 0.64922 0.92761 0.0
O59 O 0.65873 0.69179 0.97259 0.0
O60 O 0.58741 0.72113 0.98201 0.0
O61 O 0.56168 0.7157 0.93447 0.0
C62 C 0.61501 0.74333 0.86797 0.0
O63 O 0.63401 0.83318 0.95349 0.0
O64 O 0.67788 0.78383 0.93339 0.0
In65 In 0.8922 0.25281 0.94697 0.0
O66 O 0.87967 0.16258 0.96947 0.0
O67 O 0.84582 0.19531 0.93047 0.0
C68 C 0.94955 0.29373 0.98383 0.0
C69 C 0.91225 0.25568 0.88191 0.0
C70 C 0.84341 0.33558 0.96049 0.0
O71 O 0.91772 0.2873 0.99574 0.0
O72 O 0.95365 0.27239 0.95494 0.0
O73 O 0.8657 0.33821 0.93621 0.0
O74 O 0.84553 0.29072 0.97801 0.0
C75 C 0.85179 0.15513 0.95077 0.0
O76 O 0.89216 0.29327 0.89557 0.0
O77 O 0.92294 0.21595 0.90136 0.0
In78 In 0.62214 0.76383 0.54682 0.0
O79 O 0.63185 0.66699 0.53643 0.0
O80 O 0.67516 0.72485 0.5265 0.0
C81 C 0.56335 0.79786 0.50966 0.0
C82 C 0.61825 0.75065 0.61436 0.0
C83 C 0.65049 0.86874 0.54259 0.0
O84 O 0.59469 0.78924 0.49688 0.0
O85 O 0.56049 0.78022 0.53953 0.0
O86 O 0.62077 0.85866 0.5578 0.0
O87 O 0.66671 0.82547 0.53054 0.0
C88 C 0.66504 0.67349 0.52752 0.0
O89 O 0.64317 0.77863 0.59982 0.0
O90 O 0.5954 0.72735 0.59472 0.0
In91 In 0.86943 0.24705 0.56774 0.0
O92 O 0.86195 0.22458 0.62225 0.0
O93 O 0.91178 0.26702 0.6092 0.0
C94 C 0.80089 0.20792 0.56026 0.0
C95 C 0.85132 0.35555 0.54881 0.0
C96 C 0.91298 0.1635 0.54048 0.0
O97 O 0.81593 0.21376 0.58868 0.0
O98 O 0.82052 0.22229 0.53545 0.0
O99 O 0.92376 0.21496 0.54213 0.0
O100 O 0.8809 0.15594 0.55136 0.0
C101 C 0.89223 0.24473 0.63213 0.0
O102 O 0.85653 0.34075 0.5789 0.0
O103 O 0.85948 0.31727 0.52761 0.0
C104 C 0.2622 0.13355 0.0512 0.0
C105 C 0.2988 0.13386 0.03973 0.0
C106 C 0.24124 0.0834 0.05141 0.0
C107 C 0.25703 0.03181 0.03966 0.0
C108 C 0.29347 0.03205 0.02671 0.0
C109 C 0.31404 0.08315 0.02698 0.0
C110 C 0.20272 0.08523 0.06578 0.0
C111 C 0.31113 0.97793 0.01366 0.0
C112 C 0.22122 0.89619 0.08038 0.0
C113 C 0.19642 0.87559 0.05623 0.0
C114 C 0.24118 0.94654 0.07507 0.0
C115 C 0.23671 0.97704 0.04457 0.0
C116 C 0.21147 0.95681 0.02009 0.0
C117 C 0.19134 0.90641 0.02632 0.0
C118 C 0.26706 0.96712 0.10224 0.0
C119 C 0.20616 0.98796 0.98718 0.0
H120 H 0.24994 0.17256 0.06088 0.0
H121 H 0.34217 0.08311 0.01788 0.0
H122 H 0.18292 0.06569 0.04797 0.0
H123 H 0.20176 0.0599 0.08938 0.0
H124 H 0.19346 0.12953 0.07145 0.0
H125 H 0.3379 0.98628 0.00109 0.0
H126 H 0.31591 0.94791 0.03486 0.0
H127 H 0.29253 0.95632 0.99557 0.0
H128 H 0.22525 0.87253 0.10357 0.0
H129 H 0.17261 0.89015 0.0074 0.0
H130 H 0.25872 0.01048 0.11074 0.0
H131 H 0.29543 0.97038 0.09212 0.0
H132 H 0.2675 0.93823 0.12443 0.0
H133 H 0.19644 0.03225 0.99196 0.0
H134 H 0.18602 0.96625 0.97053 0.0
H135 H 0.23287 0.99113 0.97376 0.0
C136 C 0.24014 0.63963 0.47702 0.0
C137 C 0.2019 0.63053 0.4771 0.0
C138 C 0.2652 0.59387 0.47616 0.0
C139 C 0.25191 0.53712 0.47565 0.0
C140 C 0.21341 0.52741 0.47797 0.0
C141 C 0.18879 0.57428 0.47854 0.0
C142 C 0.30585 0.60651 0.47347 0.0
C143 C 0.19812 0.46752 0.47801 0.0
C144 C 0.30767 0.42608 0.42758 0.0
C145 C 0.32532 0.39577 0.45343 0.0
C146 C 0.28437 0.47256 0.43455 0.0
C147 C 0.27791 0.48885 0.46838 0.0
C148 C 0.29656 0.45954 0.49465 0.0
C149 C 0.32031 0.41348 0.48684 0.0
C150 C 0.26589 0.50328 0.40563 0.0
C151 C 0.29024 0.47529 0.53101 0.0
H152 H 0.25067 0.68294 0.47618 0.0
H153 H 0.15936 0.56683 0.47868 0.0
H154 H 0.3217 0.58051 0.49181 0.0
H155 H 0.31576 0.59481 0.44794 0.0
H156 H 0.31201 0.65242 0.47787 0.0
H157 H 0.16833 0.46682 0.48433 0.0
H158 H 0.20188 0.44812 0.45274 0.0
H159 H 0.21324 0.44037 0.49631 0.0
H160 H 0.31134 0.41232 0.40172 0.0
H161 H 0.33331 0.38941 0.50693 0.0
H162 H 0.27206 0.54969 0.40675 0.0
H163 H 0.23559 0.49856 0.40758 0.0
H164 H 0.27488 0.48663 0.38076 0.0
H165 H 0.29511 0.52162 0.53493 0.0
H166 H 0.30835 0.45071 0.54834 0.0
H167 H 0.26114 0.46682 0.53781 0.0
C168 C 0.68484 0.93021 0.96572 0.0
C169 C 0.69475 0.87813 0.95066 0.0
C170 C 0.71064 0.97491 0.96903 0.0
C171 C 0.74708 0.96748 0.95676 0.0
C172 C 0.75728 0.91453 0.94219 0.0
C173 C 0.73116 0.8707 0.93945 0.0
C174 C 0.69872 0.03055 0.98494 0.0
C175 C 0.79554 0.9047 0.92838 0.0
C176 C 0.80071 0.09722 0.92667 0.0
C177 C 0.82639 0.10545 0.95263 0.0
C178 C 0.77464 0.05314 0.92802 0.0
C179 C 0.77372 0.01625 0.95625 0.0
C180 C 0.7995 0.02426 0.98268 0.0
C181 C 0.82571 0.0686 0.98048 0.0
C182 C 0.74825 0.04579 0.89896 0.0
C183 C 0.79927 0.98611 0.01329 0.0
H184 H 0.65688 0.93622 0.97462 0.0
H185 H 0.73925 0.83062 0.92786 0.0
H186 H 0.71827 0.0429 0.00509 0.0
H187 H 0.69905 0.06508 0.96579 0.0
H188 H 0.6706 0.028 0.99582 0.0
H189 H 0.79974 0.86007 0.91954 0.0
H190 H 0.80051 0.93409 0.90694 0.0
H191 H 0.81648 0.91431 0.94787 0.0
H192 H 0.80098 0.12543 0.90502 0.0
H193 H 0.84518 0.07505 0.00078 0.0
H194 H 0.71943 0.04834 0.90809 0.0
H195 H 0.75207 0.0029 0.88749 0.0
H196 H 0.75217 0.07865 0.8791 0.0
H197 H 0.77167 0.98705 0.02526 0.0
H198 H 0.82014 0.9991 0.03221 0.0
H199 H 0.80482 0.94122 0.00574 0.0
C200 C 0.68274 0.56935 0.5317 0.0
C201 C 0.69181 0.62567 0.52293 0.0
C202 C 0.70977 0.52588 0.53228 0.0
C203 C 0.74679 0.53893 0.52388 0.0
C204 C 0.75564 0.5951 0.5134 0.0
C205 C 0.72815 0.63763 0.51309 0.0
C206 C 0.69903 0.46654 0.54343 0.0
C207 C 0.79457 0.61106 0.50408 0.0
C208 C 0.82067 0.44711 0.56576 0.0
C209 C 0.82972 0.40786 0.54031 0.0
C210 C 0.79448 0.49062 0.56041 0.0
C211 C 0.77668 0.49529 0.52879 0.0
C212 C 0.78691 0.45745 0.50247 0.0
C213 C 0.8133 0.41423 0.50853 0.0
C214 C 0.78482 0.53025 0.58913 0.0
C215 C 0.76886 0.46107 0.46834 0.0
H216 H 0.65483 0.5597 0.53943 0.0
H217 H 0.7355 0.68097 0.5062 0.0
H218 H 0.70892 0.4343 0.52501 0.0
H219 H 0.71232 0.45669 0.56792 0.0
H220 H 0.66877 0.46197 0.54636 0.0
H221 H 0.79631 0.65485 0.49337 0.0
H222 H 0.81231 0.60898 0.52678 0.0
H223 H 0.80593 0.58026 0.48552 0.0
H224 H 0.83306 0.44249 0.59043 0.0
H225 H 0.81979 0.3838 0.4888 0.0
H226 H 0.75558 0.5242 0.59633 0.0
H227 H 0.78801 0.57545 0.5812 0.0
H228 H 0.80227 0.52268 0.61167 0.0
H229 H 0.7393 0.44996 0.47062 0.0
H230 H 0.78185 0.4317 0.4498 0.0
H231 H 0.77031 0.5054 0.45848 0.0
C232 C 0.39737 0.23652 0.1655 0.0
C233 C 0.37178 0.27564 0.15237 0.0
C234 C 0.40134 0.22931 0.20042 0.0
C235 C 0.37935 0.26226 0.22262 0.0
C236 C 0.3543 0.30304 0.20946 0.0
C237 C 0.35073 0.30909 0.1745 0.0
C238 C 0.42821 0.18523 0.21353 0.0
C239 C 0.3305 0.33926 0.2323 0.0
C240 C 0.35459 0.20652 0.30924 0.0
C241 C 0.37758 0.239 0.3301 0.0
C242 C 0.35589 0.21225 0.27415 0.0
C243 C 0.38059 0.25179 0.25953 0.0
C244 C 0.40466 0.28355 0.28038 0.0
C245 C 0.40296 0.2766 0.31549 0.0
C246 C 0.33 0.17721 0.25279 0.0
C247 C 0.43126 0.32625 0.26568 0.0
H248 H 0.41373 0.21059 0.14848 0.0
H249 H 0.33107 0.33966 0.1645 0.0
H250 H 0.447 0.20484 0.23224 0.0
H251 H 0.41299 0.15068 0.2266 0.0
H252 H 0.44498 0.16582 0.1931 0.0
H253 H 0.31409 0.37143 0.21814 0.0
H254 H 0.3113 0.31147 0.24652 0.0
H255 H 0.34783 0.36192 0.25099 0.0
H256 H 0.33509 0.17708 0.32039 0.0
H257 H 0.42078 0.3018 0.33153 0.0
H258 H 0.3456 0.15388 0.23306 0.0
H259 H 0.31019 0.20592 0.23982 0.0
H260 H 0.31422 0.1457 0.2679 0.0
H261 H 0.44822 0.30582 0.24579 0.0
H262 H 0.44986 0.34454 0.28505 0.0
H263 H 0.4157 0.36174 0.2537 0.0
C264 C 0.11073 0.70441 0.33637 0.0
C265 C 0.1301 0.75003 0.35077 0.0
C266 C 0.11047 0.69613 0.30131 0.0
C267 C 0.13002 0.73442 0.2803 0.0
C268 C 0.1491 0.78104 0.29473 0.0
C269 C 0.14892 0.78822 0.32975 0.0
C270 C 0.08982 0.64596 0.28679 0.0
C271 C 0.17023 0.82289 0.27322 0.0
C272 C 0.1646 0.68811 0.19438 0.0
C273 C 0.13957 0.71548 0.17282 0.0
C274 C 0.16108 0.6924 0.22944 0.0
C275 C 0.13184 0.72495 0.2433 0.0
C276 C 0.10588 0.75141 0.22168 0.0
C277 C 0.11006 0.74634 0.18665 0.0
C278 C 0.1893 0.66349 0.25165 0.0
C279 C 0.07436 0.78648 0.23553 0.0
H280 H 0.0961 0.67481 0.3525 0.0
H281 H 0.16387 0.82369 0.3407 0.0
H282 H 0.06978 0.66098 0.26764 0.0
H283 H 0.10935 0.61666 0.2739 0.0
H284 H 0.0748 0.62146 0.30639 0.0
H285 H 0.18264 0.85789 0.28828 0.0
H286 H 0.19257 0.80017 0.25958 0.0
H287 H 0.15178 0.84208 0.25401 0.0
H288 H 0.18739 0.66397 0.18385 0.0
H289 H 0.09057 0.76746 0.1701 0.0
H290 H 0.17545 0.63587 0.27045 0.0
H291 H 0.20503 0.69626 0.26575 0.0
H292 H 0.20902 0.63693 0.23701 0.0
H293 H 0.05867 0.76124 0.25429 0.0
H294 H 0.05516 0.801 0.21549 0.0
H295 H 0.08527 0.82466 0.2487 0.0
C296 C 0.59159 0.78569 0.81393 0.0
C297 C 0.61182 0.74338 0.83083 0.0
C298 C 0.58985 0.78651 0.77856 0.0
C299 C 0.60883 0.74407 0.7598 0.0
C300 C 0.62858 0.7006 0.77684 0.0
C301 C 0.62983 0.7008 0.81208 0.0
C302 C 0.56848 0.83351 0.76123 0.0
C303 C 0.64925 0.65465 0.75782 0.0
C304 C 0.58689 0.71838 0.66732 0.0
C305 C 0.6155 0.74817 0.65149 0.0
C306 C 0.58392 0.71739 0.70262 0.0
C307 C 0.61016 0.74692 0.7224 0.0
C308 C 0.63893 0.77729 0.70646 0.0
C309 C 0.64125 0.77748 0.67126 0.0
C310 C 0.55294 0.68443 0.71875 0.0
C311 C 0.66753 0.80918 0.72662 0.0
H312 H 0.57753 0.81857 0.8283 0.0
H313 H 0.6454 0.66778 0.82497 0.0
H314 H 0.58758 0.86064 0.74646 0.0
H315 H 0.54843 0.81492 0.74328 0.0
H316 H 0.5534 0.86114 0.77937 0.0
H317 H 0.66167 0.6222 0.77485 0.0
H318 H 0.63055 0.63263 0.74001 0.0
H319 H 0.67157 0.67434 0.74272 0.0
H320 H 0.56682 0.69588 0.65214 0.0
H321 H 0.66335 0.80083 0.65919 0.0
H322 H 0.53673 0.71297 0.73549 0.0
H323 H 0.56436 0.64963 0.73466 0.0
H324 H 0.53411 0.66532 0.69985 0.0
H325 H 0.65397 0.84071 0.74345 0.0
H326 H 0.68749 0.83212 0.71034 0.0
H327 H 0.68297 0.77881 0.74284 0.0
C328 C 0.93576 0.26709 0.67957 0.0
C329 C 0.90265 0.24336 0.66811 0.0
C330 C 0.94413 0.26832 0.71417 0.0
C331 C 0.91863 0.24574 0.73762 0.0
C332 C 0.88577 0.22015 0.72597 0.0
C333 C 0.87829 0.21914 0.69144 0.0
C334 C 0.97962 0.29532 0.72569 0.0
C335 C 0.85769 0.19581 0.75006 0.0
C336 C 0.93721 0.21048 0.8293 0.0
C337 C 0.91984 0.25666 0.84534 0.0
C338 C 0.93962 0.20817 0.79399 0.0
C339 C 0.92409 0.25291 0.77448 0.0
C340 C 0.90875 0.30129 0.79073 0.0
C341 C 0.90688 0.3026 0.82592 0.0
C342 C 0.95665 0.15625 0.77757 0.0
C343 C 0.89179 0.34989 0.77096 0.0
H344 H 0.95478 0.28555 0.66161 0.0
H345 H 0.85274 0.20039 0.68278 0.0
H346 H 0.97352 0.33599 0.73898 0.0
H347 H 0.99404 0.26689 0.74379 0.0
H348 H 0.9984 0.3046 0.70432 0.0
H349 H 0.83442 0.17489 0.73681 0.0
H350 H 0.87083 0.16395 0.76694 0.0
H351 H 0.84643 0.23051 0.76615 0.0
H352 H 0.94752 0.17506 0.8442 0.0
H353 H 0.89378 0.33876 0.83818 0.0
H354 H 0.97488 0.16903 0.75648 0.0
H355 H 0.93459 0.12898 0.76693 0.0
H356 H 0.97283 0.13025 0.79576 0.0
H357 H 0.91082 0.36444 0.7509 0.0
H358 H 0.88474 0.38703 0.7872 0.0
H359 H 0.86625 0.33486 0.75851 0.0
C360 C 0.45963 0.41573 0.01192 0.0
C361 C 0.42634 0.4215 0.02944 0.0
C362 C 0.48028 0.46429 0.0027 0.0
C363 C 0.46715 0.51986 0.01093 0.0
C364 C 0.4336 0.52573 0.02867 0.0
C365 C 0.41377 0.47669 0.03775 0.0
C366 C 0.516 0.4562 0.98388 0.0
C367 C 0.41826 0.58391 0.03764 0.0
C368 C 0.53634 0.6423 0.01168 0.0
C369 C 0.53138 0.6663 0.97961 0.0
C370 C 0.51521 0.59538 0.02244 0.0
C371 C 0.48825 0.57195 0.00071 0.0
C372 C 0.48175 0.59796 0.96904 0.0
C373 C 0.50342 0.64465 0.95886 0.0
C374 C 0.5228 0.56937 0.05653 0.0
C375 C 0.45291 0.57499 0.9453 0.0
H376 H 0.46944 0.37337 0.00529 0.0
H377 H 0.38789 0.48185 0.05102 0.0
H378 H 0.51429 0.47751 0.95897 0.0
H379 H 0.53885 0.47659 0.99794 0.0
H380 H 0.52283 0.41033 0.97994 0.0
H381 H 0.39271 0.58108 0.0529 0.0
H382 H 0.43895 0.60885 0.05194 0.0
H383 H 0.41201 0.60815 0.01431 0.0
H384 H 0.55805 0.65833 0.02781 0.0
H385 H 0.49948 0.66265 0.93397 0.0
H386 H 0.53317 0.525 0.05336 0.0
H387 H 0.497 0.56698 0.07141 0.0
H388 H 0.54342 0.59415 0.07107 0.0
H389 H 0.46061 0.5311 0.93726 0.0
H390 H 0.44966 0.60207 0.92251 0.0
H391 H 0.42591 0.57208 0.95823 0.0
C392 C 0.09209 0.52401 0.05942 0.0
C393 C 0.08334 0.57862 0.04687 0.0
C394 C 0.07119 0.47575 0.05089 0.0
C395 C 0.04065 0.48177 0.0291 0.0
C396 C 0.03129 0.53687 0.01662 0.0
C397 C 0.05271 0.5847 0.02571 0.0
C398 C 0.08215 0.4181 0.06492 0.0
C399 C 0.99895 0.5451 0.99327 0.0
C400 C 0.00767 0.351 0.9803 0.0
C401 C 0.97617 0.3351 0.99844 0.0
C402 C 0.02912 0.39811 0.99022 0.0
C403 C 0.01895 0.43019 0.01905 0.0
C404 C 0.9881 0.41282 0.03829 0.0
C405 C 0.96711 0.36559 0.02776 0.0
C406 C 0.06196 0.41478 0.96913 0.0
C407 C 0.97651 0.4453 0.0694 0.0
H408 H 0.11568 0.5187 0.07584 0.0
H409 H 0.04583 0.6266 0.01582 0.0
H410 H 0.05866 0.39883 0.07865 0.0
H411 H 0.08941 0.38863 0.04405 0.0
H412 H 0.10601 0.42087 0.08232 0.0
H413 H 0.99484 0.59066 0.9862 0.0
H414 H 0.00319 0.51971 0.96998 0.0
H415 H 0.97343 0.52922 0.00537 0.0
H416 H 0.01474 0.32808 0.95747 0.0
H417 H 0.94269 0.35397 0.04183 0.0
H418 H 0.08705 0.4167 0.98499 0.0
H419 H 0.05755 0.45811 0.95843 0.0
H420 H 0.06699 0.38438 0.94812 0.0
H421 H 0.99986 0.44825 0.08731 0.0
H422 H 0.95288 0.42492 0.08241 0.0
H423 H 0.96861 0.48963 0.06245 0.0
C424 C 0.54608 0.87103 0.46611 0.0
C425 C 0.53713 0.84068 0.49548 0.0
C426 C 0.52624 0.92032 0.45655 0.0
C427 C 0.49671 0.94004 0.47684 0.0
C428 C 0.48653 0.90814 0.50569 0.0
C429 C 0.50674 0.85892 0.51459 0.0
C430 C 0.53775 0.95248 0.42536 0.0
C431 C 0.4551 0.92721 0.52794 0.0
C432 C 0.46663 0.09725 0.4729 0.0
C433 C 0.43484 0.09398 0.45298 0.0
C434 C 0.4874 0.04767 0.48052 0.0
C435 C 0.47617 0.99364 0.46783 0.0
C436 C 0.44453 0.99052 0.44718 0.0
C437 C 0.42435 0.04043 0.44011 0.0
C438 C 0.52099 0.05287 0.50264 0.0
C439 C 0.43156 0.93417 0.43294 0.0
H440 H 0.56971 0.85777 0.45133 0.0
H441 H 0.49975 0.83621 0.53748 0.0
H442 H 0.51385 0.95846 0.40833 0.0
H443 H 0.54767 0.99566 0.43245 0.0
H444 H 0.55998 0.93006 0.41133 0.0
H445 H 0.44994 0.89689 0.54893 0.0
H446 H 0.46127 0.96989 0.53873 0.0
H447 H 0.42951 0.93159 0.51292 0.0
H448 H 0.47492 0.13829 0.48299 0.0
H449 H 0.39991 0.03723 0.42459 0.0
H450 H 0.54545 0.03501 0.48957 0.0
H451 H 0.51704 0.02756 0.52598 0.0
H452 H 0.52678 0.09792 0.5097 0.0
H453 H 0.45402 0.91355 0.41834 0.0
H454 H 0.4072 0.93924 0.41629 0.0
H455 H 0.42425 0.90467 0.45374 0.0
C456 C 0.9737 0.11929 0.52291 0.0
C457 C 0.93575 0.11429 0.52864 0.0
C458 C 0.99516 0.07111 0.51395 0.0
C459 C 0.97824 0.01674 0.51042 0.0
C460 C 0.93987 0.01182 0.51577 0.0
C461 C 0.91924 0.06038 0.52485 0.0
C462 C 0.036 0.07823 0.50855 0.0
C463 C 0.92053 0.9551 0.512 0.0
C464 C 0.02694 0.9044 0.45667 0.0
C465 C 0.0438 0.86944 0.48097 0.0
C466 C 0.0052 0.95175 0.46591 0.0
C467 C 1.00035 0.96516 0.50039 0.0
C468 C 0.01639 0.92902 0.52512 0.0
C469 C 0.03778 0.88144 0.51512 0.0
C470 C 0.9882 0.98833 0.43868 0.0
C471 C 0.01199 0.94173 0.56214 0.0
H472 H 0.98673 0.16058 0.52599 0.0
H473 H 0.88993 0.05591 0.52919 0.0
H474 H 0.05144 0.04993 0.52602 0.0
H475 H 0.04345 0.06518 0.48257 0.0
H476 H 0.0451 0.12302 0.51257 0.0
H477 H 0.89049 0.95842 0.51694 0.0
H478 H 0.92463 0.93825 0.48616 0.0
H479 H 0.93253 0.92338 0.52967 0.0
H480 H 0.0316 0.89563 0.43021 0.0
H481 H 0.05119 0.85528 0.53404 0.0
H482 H 0.99951 0.03228 0.44001 0.0
H483 H 0.95802 0.99171 0.44251 0.0
H484 H 0.99344 0.97098 0.41308 0.0
H485 H 0.02441 0.98387 0.56799 0.0
H486 H 0.02524 0.90871 0.57824 0.0
H487 H 0.98237 0.94445 0.56876 0.0
C488 C 0.22179 0.62589 0.97197 0.0
C489 C 0.23246 0.63784 0.00517 0.0
C490 C 0.23817 0.58056 0.95427 0.0
C491 C 0.26494 0.54658 0.97066 0.0
C492 C 0.28024 0.56543 0.0016 0.0
C493 C 0.26363 0.61106 0.01854 0.0
C494 C 0.22374 0.56547 0.91985 0.0
C495 C 0.31062 0.53271 0.01924 0.0
C496 C 0.25679 0.39294 0.98837 0.0
C497 C 0.2928 0.3764 0.98081 0.0
C498 C 0.24403 0.44714 0.97922 0.0
C499 C 0.26839 0.48503 0.9625 0.0
C500 C 0.30154 0.46366 0.94865 0.0
C501 C 0.31367 0.40899 0.95821 0.0
C502 C 0.2072 0.4668 0.99272 0.0
C503 C 0.32666 0.50084 0.92794 0.0
H504 H 0.1985 0.64816 0.96094 0.0
H505 H 0.27285 0.62203 0.04368 0.0
H506 H 0.24297 0.53715 0.90586 0.0
H507 H 0.19686 0.54349 0.92237 0.0
H508 H 0.2189 0.60496 0.90493 0.0
H509 H 0.32098 0.55563 0.0418 0.0
H510 H 0.30033 0.49026 0.02738 0.0
H511 H 0.33409 0.52553 0.00192 0.0
H512 H 0.24034 0.36653 0.00499 0.0
H513 H 0.34131 0.39539 0.95156 0.0
H514 H 0.19144 0.48959 0.97295 0.0
H515 H 0.21147 0.49689 0.01397 0.0
H516 H 0.1903 0.4305 0.00193 0.0
H517 H 0.31185 0.538 0.91694 0.0
H518 H 0.33929 0.47539 0.90732 0.0
H519 H 0.34944 0.51683 0.94395 0.0
C520 C 0.29075 0.13214 0.52057 0.0
C521 C 0.28048 0.16081 0.49102 0.0
C522 C 0.26949 0.08661 0.53257 0.0
C523 C 0.23781 0.07032 0.51437 0.0
C524 C 0.22391 0.10638 0.48869 0.0
C525 C 0.2458 0.15114 0.47697 0.0
C526 C 0.28389 0.05098 0.56135 0.0
C527 C 0.189 0.09223 0.4699 0.0
C528 C 0.22872 0.92103 0.48168 0.0
C529 C 0.196 0.90382 0.49694 0.0
C530 C 0.24469 0.97332 0.48988 0.0
C531 C 0.22697 0.0095 0.5136 0.0
C532 C 0.1958 0.98983 0.53144 0.0
C533 C 0.1806 0.9367 0.5229 0.0
C534 C 0.27873 0.99174 0.47084 0.0
C535 C 0.1766 0.02617 0.55748 0.0
H536 H 0.31723 0.14075 0.53206 0.0
H537 H 0.23734 0.17487 0.4548 0.0
H538 H 0.261 0.0319 0.57599 0.0
H539 H 0.30101 0.01554 0.5512 0.0
H540 H 0.30135 0.07687 0.57847 0.0
H541 H 0.17865 0.12941 0.45523 0.0
H542 H 0.19449 0.05655 0.45213 0.0
H543 H 0.16718 0.07824 0.48756 0.0
H544 H 0.2409 0.89475 0.4621 0.0
H545 H 0.15532 0.92291 0.53489 0.0
H546 H 0.30019 0.00683 0.48854 0.0
H547 H 0.27177 0.02775 0.45376 0.0
H548 H 0.29059 0.95654 0.45545 0.0
H549 H 0.1954 0.05777 0.56914 0.0
H550 H 0.16461 0.99897 0.57759 0.0
H551 H 0.15359 0.04974 0.54536 0.0
C552 C 0.70757 0.59992 0.99057 0.0
C553 C 0.68144 0.59635 0.96474 0.0
C554 C 0.73241 0.55499 0.9962 0.0
C555 C 0.73067 0.50577 0.97558 0.0
C556 C 0.70228 0.50011 0.95146 0.0
C557 C 0.67802 0.54574 0.94623 0.0
C558 C 0.76224 0.56218 0.02229 0.0
C559 C 0.69931 0.44786 0.92928 0.0
C560 C 0.81795 0.43179 0.94855 0.0
C561 C 0.81632 0.38094 0.96703 0.0
C562 C 0.79096 0.47393 0.95235 0.0
C563 C 0.7616 0.46468 0.9751 0.0
C564 C 0.76056 0.41445 0.99488 0.0
C565 C 0.78812 0.37295 0.99062 0.0
C566 C 0.79309 0.5273 0.93096 0.0
C567 C 0.72962 0.40349 0.01938 0.0
H568 H 0.70996 0.63896 0.00512 0.0
H569 H 0.65735 0.54265 0.92663 0.0
H570 H 0.76616 0.52221 0.03691 0.0
H571 H 0.78868 0.57173 0.00951 0.0
H572 H 0.75597 0.59769 0.04 0.0
H573 H 0.67292 0.44684 0.91516 0.0
H574 H 0.72227 0.44769 0.91084 0.0
H575 H 0.70166 0.40822 0.94448 0.0
H576 H 0.83998 0.43823 0.93053 0.0
H577 H 0.78697 0.33362 0.00502 0.0
H578 H 0.79113 0.566 0.94702 0.0
H579 H 0.76956 0.52844 0.91316 0.0
H580 H 0.81903 0.52947 0.9162 0.0
H581 H 0.72472 0.44159 0.03543 0.0
H582 H 0.73535 0.36608 0.03584 0.0
H583 H 0.70383 0.39523 0.00527 0.0
C584 C 0.6424 0.97431 0.54367 0.0
C585 C 0.66549 0.92657 0.53992 0.0
C586 C 0.65691 0.02972 0.5434 0.0
C587 C 0.6954 0.03682 0.54041 0.0
C588 C 0.71856 0.98868 0.53521 0.0
C589 C 0.70316 0.93405 0.53461 0.0
C590 C 0.63122 0.08007 0.54772 0.0
C591 C 0.75987 0.99449 0.53208 0.0
C592 C 0.75131 0.16821 0.52402 0.0
C593 C 0.76601 0.17718 0.55618 0.0
C594 C 0.72425 0.12661 0.51887 0.0
C595 C 0.71256 0.09302 0.54643 0.0
C596 C 0.72411 0.10681 0.57944 0.0
C597 C 0.75058 0.1493 0.58396 0.0
C598 C 0.71109 0.11475 0.48355 0.0
C599 C 0.71201 0.07218 0.60955 0.0
H600 H 0.61305 0.96833 0.54713 0.0
H601 H 0.72087 0.89698 0.5315 0.0
H602 H 0.63082 0.09311 0.57456 0.0
H603 H 0.64045 0.11733 0.53267 0.0
H604 H 0.60261 0.06911 0.54027 0.0
H605 H 0.77368 0.95285 0.52716 0.0
H606 H 0.76683 0.02426 0.51134 0.0
H607 H 0.77129 0.01267 0.55567 0.0
H608 H 0.76266 0.19078 0.50258 0.0
H609 H 0.76146 0.15699 0.60896 0.0
H610 H 0.68143 0.10352 0.48339 0.0
H611 H 0.72661 0.07787 0.47307 0.0
H612 H 0.71549 0.15212 0.46677 0.0
H613 H 0.68179 0.06585 0.60926 0.0
H614 H 0.71976 0.09285 0.6337 0.0
H615 H 0.72516 0.02927 0.60854 0.0
loop_
_geom_bond_atom_site_label_1
_geom_bond_atom_site_label_2
_geom_bond_distance
_geom_bond_site_symmetry_2
_ccdc_geom_bond_type
In0 O1 2.294 . S
In0 O2 2.326 . S
In0 O6 2.266 . S
In0 O7 2.326 . S
In0 O8 2.266 . S
In0 O9 2.326 . S
In0 O11 2.294 . S
In0 O12 2.326 . S
O1 In0 2.294 . S
O1 C10 1.240 . S
O2 In0 2.326 . S
O2 C10 1.252 . S
C3 O6 1.252 . S
C3 O7 1.260 . S
C4 O11 1.240 . S
C4 O12 1.252 . S
C5 O8 1.252 . S
C5 O9 1.260 . S
O6 In0 2.266 . S
O6 C3 1.252 . S
O7 In0 2.326 . S
O7 C3 1.260 . S
O8 In0 2.266 . S
O8 C5 1.252 . S
O9 In0 2.326 . S
O9 C5 1.260 . S
C10 O1 1.240 . S
C10 O2 1.252 . S
O11 In0 2.294 . S
O11 C4 1.240 . S
O12 In0 2.326 . S
O12 C4 1.252 . S
In13 O14 2.294 . S
In13 O15 2.326 . S
In13 O19 2.266 . S
In13 O20 2.326 . S
In13 O21 2.266 . S
In13 O22 2.326 . S
In13 O24 2.294 . S
In13 O25 2.326 . S
O14 In13 2.294 . S
O14 C23 1.240 . S
O15 In13 2.326 . S
O15 C23 1.252 . S
C16 O19 1.252 . S
C16 O20 1.260 . S
C17 O24 1.240 . S
C17 O25 1.252 . S
C18 O21 1.252 . S
C18 O22 1.260 . S
O19 In13 2.266 . S
O19 C16 1.252 . S
O20 In13 2.326 . S
O20 C16 1.260 . S
O21 In13 2.266 . S
O21 C18 1.252 . S
O22 In13 2.326 . S
O22 C18 1.260 . S
C23 O14 1.240 . S
C23 O15 1.252 . S
O24 In13 2.294 . S
O24 C17 1.240 . S
O25 In13 2.326 . S
O25 C17 1.252 . S
In26 O27 2.294 . S
In26 O28 2.326 . S
In26 O32 2.266 . S
In26 O33 2.326 . S
In26 O34 2.266 . S
In26 O35 2.326 . S
In26 O37 2.294 . S
In26 O38 2.326 . S
O27 In26 2.294 . S
O27 C36 1.240 . S
O28 In26 2.326 . S
O28 C36 1.252 . S
C29 O32 1.252 . S
C29 O33 1.260 . S
C30 O37 1.240 . S
C30 O38 1.252 . S
C31 O34 1.252 . S
C31 O35 1.260 . S
O32 In26 2.266 . S
O32 C29 1.252 . S
O33 In26 2.326 . S
O33 C29 1.260 . S
O34 In26 2.266 . S
O34 C31 1.252 . S
O35 In26 2.326 . S
O35 C31 1.260 . S
C36 O27 1.240 . S
C36 O28 1.252 . S
O37 In26 2.294 . S
O37 C30 1.240 . S
O38 In26 2.326 . S
O38 C30 1.252 . S
In39 O40 2.294 . S
In39 O41 2.326 . S
In39 O45 2.266 . S
In39 O46 2.326 . S
In39 O47 2.266 . S
In39 O48 2.326 . S
In39 O50 2.294 . S
In39 O51 2.326 . S
O40 In39 2.294 . S
O40 C49 1.240 . S
O41 In39 2.326 . S
O41 C49 1.252 . S
C42 O45 1.252 . S
C42 O46 1.260 . S
C43 O50 1.240 . S
C43 O51 1.252 . S
C44 O47 1.252 . S
C44 O48 1.260 . S
O45 In39 2.266 . S
O45 C42 1.252 . S
O46 In39 2.326 . S
O46 C42 1.260 . S
O47 In39 2.266 . S
O47 C44 1.252 . S
O48 In39 2.326 . S
O48 C44 1.260 . S
C49 O40 1.240 . S
C49 O41 1.252 . S
O50 In39 2.294 . S
O50 C43 1.240 . S
O51 In39 2.326 . S
O51 C43 1.252 . S
In52 O53 2.294 . S
In52 O54 2.326 . S
In52 O58 2.266 . S
In52 O59 2.326 . S
In52 O60 2.266 . S
In52 O61 2.326 . S
In52 O63 2.294 . S
In52 O64 2.326 . S
O53 In52 2.294 . S
O53 C62 1.240 . S
O54 In52 2.326 . S
O54 C62 1.252 . S
C55 O58 1.252 . S
C55 O59 1.260 . S
C56 O63 1.240 . S
C56 O64 1.252 . S
C57 O60 1.252 . S
C57 O61 1.260 . S
O58 In52 2.266 . S
O58 C55 1.252 . S
O59 In52 2.326 . S
O59 C55 1.260 . S
O60 In52 2.266 . S
O60 C57 1.252 . S
O61 In52 2.326 . S
O61 C57 1.260 . S
C62 O53 1.240 . S
C62 O54 1.252 . S
O63 In52 2.294 . S
O63 C56 1.240 . S
O64 In52 2.326 . S
O64 C56 1.252 . S
In65 O66 2.294 . S
In65 O67 2.326 . S
In65 O71 2.266 . S
In65 O72 2.326 . S
In65 O73 2.266 . S
In65 O74 2.326 . S
In65 O76 2.294 . S
In65 O77 2.326 . S
O66 In65 2.294 . S
O66 C75 1.240 . S
O67 In65 2.326 . S
O67 C75 1.252 . S
C68 O71 1.252 . S
C68 O72 1.260 . S
C69 O76 1.240 . S
C69 O77 1.252 . S
C70 O73 1.252 . S
C70 O74 1.260 . S
O71 In65 2.266 . S
O71 C68 1.252 . S
O72 In65 2.326 . S
O72 C68 1.260 . S
O73 In65 2.266 . S
O73 C70 1.252 . S
O74 In65 2.326 . S
O74 C70 1.260 . S
C75 O66 1.240 . S
C75 O67 1.252 . S
O76 In65 2.294 . S
O76 C69 1.240 . S
O77 In65 2.326 . S
O77 C69 1.252 . S
In78 O79 2.294 . S
In78 O80 2.326 . S
In78 O84 2.266 . S
In78 O85 2.326 . S
In78 O86 2.266 . S
In78 O87 2.326 . S
In78 O89 2.294 . S
In78 O90 2.326 . S
O79 In78 2.294 . S
O79 C88 1.240 . S
O80 In78 2.326 . S
O80 C88 1.252 . S
C81 O84 1.252 . S
C81 O85 1.260 . S
C82 O89 1.240 . S
C82 O90 1.252 . S
C83 O86 1.252 . S
C83 O87 1.260 . S
O84 In78 2.266 . S
O84 C81 1.252 . S
O85 In78 2.326 . S
O85 C81 1.260 . S
O86 In78 2.266 . S
O86 C83 1.252 . S
O87 In78 2.326 . S
O87 C83 1.260 . S
C88 O79 1.240 . S
C88 O80 1.252 . S
O89 In78 2.294 . S
O89 C82 1.240 . S
O90 In78 2.326 . S
O90 C82 1.252 . S
In91 O92 2.294 . S
In91 O93 2.326 . S
In91 O97 2.266 . S
In91 O98 2.326 . S
In91 O99 2.266 . S
In91 O100 2.326 . S
In91 O102 2.294 . S
In91 O103 2.326 . S
O92 In91 2.294 . S
O92 C101 1.240 . S
O93 In91 2.326 . S
O93 C101 1.252 . S
C94 O97 1.252 . S
C94 O98 1.260 . S
C95 O102 1.240 . S
C95 O103 1.252 . S
C96 O99 1.252 . S
C96 O100 1.260 . S
O97 In91 2.266 . S
O97 C94 1.252 . S
O98 In91 2.326 . S
O98 C94 1.260 . S
O99 In91 2.266 . S
O99 C96 1.252 . S
O100 In91 2.326 . S
O100 C96 1.260 . S
C101 O92 1.240 . S
C101 O93 1.252 . S
O102 In91 2.294 . S
O102 C95 1.240 . S
O103 In91 2.326 . S
O103 C95 1.252 . S
C104 C105 1.391 . S
C104 C106 1.394 . S
C104 H120 0.931 . S
C105 C104 1.391 . S
C105 C109 1.376 . S
C106 C104 1.394 . S
C106 C107 1.369 . S
C106 C110 1.531 . S
C107 C106 1.369 . S
C107 C108 1.410 . S
C107 C115 1.503 1_545 S
C108 C107 1.410 . S
C108 C109 1.392 . S
C108 C111 1.511 1_545 S
C109 C105 1.376 . S
C109 C108 1.392 . S
C109 H121 0.929 . S
C110 C106 1.531 . S
C110 H122 0.960 . S
C110 H123 0.962 . S
C110 H124 0.960 . S
C111 C108 1.511 1_565 S
C111 H125 0.961 . S
C111 H126 0.961 . S
C111 H127 0.961 . S
C112 C113 1.370 . S
C112 C114 1.363 . S
C112 H128 0.931 . S
C113 C112 1.370 . S
C113 C117 1.408 . S
C114 C112 1.363 . S
C114 C115 1.370 . S
C114 C118 1.524 . S
C115 C107 1.503 1_565 S
C115 C114 1.370 . S
C115 C116 1.403 . S
C116 C115 1.403 . S
C116 C117 1.404 . S
C116 C119 1.539 1_554 S
C117 C113 1.408 . S
C117 C116 1.404 . S
C117 H129 0.930 1_554 S
C118 C114 1.524 . S
C118 H130 0.956 1_565 S
C118 H131 0.961 . S
C118 H132 0.961 . S
C119 C116 1.539 1_556 S
C119 H133 0.958 . S
C119 H134 0.961 . S
C119 H135 0.960 . S
H120 C104 0.931 . S
H121 C109 0.929 . S
H122 C110 0.960 . S
H123 C110 0.962 . S
H124 C110 0.960 . S
H125 C111 0.961 . S
H126 C111 0.961 . S
H127 C111 0.961 . S
H128 C112 0.931 . S
H129 C117 0.930 1_556 S
H130 C118 0.956 1_545 S
H131 C118 0.961 . S
H132 C118 0.961 . S
H133 C119 0.958 . S
H134 C119 0.961 . S
H135 C119 0.960 . S
C136 C137 1.391 . S
C136 C138 1.394 . S
C136 H152 0.931 . S
C137 C136 1.391 . S
C137 C141 1.376 . S
C138 C136 1.394 . S
C138 C139 1.369 . S
C138 C142 1.531 . S
C139 C138 1.369 . S
C139 C140 1.410 . S
C139 C147 1.503 . S
C140 C139 1.410 . S
C140 C141 1.392 . S
C140 C143 1.511 . S
C141 C137 1.376 . S
C141 C140 1.392 . S
C141 H153 0.929 . S
C142 C138 1.531 . S
C142 H154 0.960 . S
C142 H155 0.962 . S
C142 H156 0.960 . S
C143 C140 1.511 . S
C143 H157 0.961 . S
C143 H158 0.961 . S
C143 H159 0.961 . S
C144 C145 1.370 . S
C144 C146 1.363 . S
C144 H160 0.931 . S
C145 C144 1.370 . S
C145 C149 1.408 . S
C146 C144 1.363 . S
C146 C147 1.370 . S
C146 C150 1.524 . S
C147 C139 1.503 . S
C147 C146 1.370 . S
C147 C148 1.403 . S
C148 C147 1.403 . S
C148 C149 1.404 . S
C148 C151 1.539 . S
C149 C145 1.408 . S
C149 C148 1.404 . S
C149 H161 0.930 . S
C150 C146 1.524 . S
C150 H162 0.956 . S
C150 H163 0.961 . S
C150 H164 0.961 . S
C151 C148 1.539 . S
C151 H165 0.958 . S
C151 H166 0.961 . S
C151 H167 0.960 . S
H152 C136 0.931 . S
H153 C141 0.929 . S
H154 C142 0.960 . S
H155 C142 0.962 . S
H156 C142 0.960 . S
H157 C143 0.961 . S
H158 C143 0.961 . S
H159 C143 0.961 . S
H160 C144 0.931 . S
H161 C149 0.930 . S
H162 C150 0.956 . S
H163 C150 0.961 . S
H164 C150 0.961 . S
H165 C151 0.958 . S
H166 C151 0.961 . S
H167 C151 0.960 . S
C168 C169 1.391 . S
C168 C170 1.394 . S
C168 H184 0.931 . S
C169 C168 1.391 . S
C169 C173 1.376 . S
C170 C168 1.394 . S
C170 C171 1.369 . S
C170 C174 1.531 1_565 S
C171 C170 1.369 . S
C171 C172 1.410 . S
C171 C179 1.503 1_565 S
C172 C171 1.410 . S
C172 C173 1.392 . S
C172 C175 1.511 . S
C173 C169 1.376 . S
C173 C172 1.392 . S
C173 H185 0.929 . S
C174 C170 1.531 1_545 S
C174 H186 0.960 1_556 S
C174 H187 0.962 . S
C174 H188 0.960 1_556 S
C175 C172 1.511 . S
C175 H189 0.961 . S
C175 H190 0.961 . S
C175 H191 0.961 . S
C176 C177 1.370 . S
C176 C178 1.363 . S
C176 H192 0.931 . S
C177 C176 1.370 . S
C177 C181 1.408 . S
C178 C176 1.363 . S
C178 C179 1.370 . S
C178 C182 1.524 . S
C179 C171 1.503 1_545 S
C179 C178 1.370 . S
C179 C180 1.403 . S
C180 C179 1.403 . S
C180 C181 1.404 . S
C180 C183 1.539 1_546 S
C181 C177 1.408 . S
C181 C180 1.404 . S
C181 H193 0.952 . S
C182 C178 1.524 . S
C182 H194 0.956 . S
C182 H195 0.961 . S
C182 H196 0.961 . S
C183 C180 1.539 1_564 S
C183 H197 0.958 . S
C183 H198 0.961 . S
C183 H199 0.960 . S
H184 C168 0.931 . S
H185 C173 0.929 . S
H186 C174 0.960 1_554 S
H187 C174 0.962 . S
H188 C174 0.960 1_554 S
H189 C175 0.961 . S
H190 C175 0.961 . S
H191 C175 0.961 . S
H192 C176 0.931 . S
H193 C181 0.952 . S
H194 C182 0.956 . S
H195 C182 0.961 . S
H196 C182 0.961 . S
H197 C183 0.958 . S
H198 C183 0.961 . S
H199 C183 0.960 . S
C200 C201 1.391 . S
C200 C202 1.394 . S
C200 H216 0.931 . S
C201 C200 1.391 . S
C201 C205 1.376 . S
C202 C200 1.394 . S
C202 C203 1.369 . S
C202 C206 1.531 . S
C203 C202 1.369 . S
C203 C204 1.410 . S
C203 C211 1.503 . S
C204 C203 1.410 . S
C204 C205 1.392 . S
C204 C207 1.511 . S
C205 C201 1.376 . S
C205 C204 1.392 . S
C205 H217 0.929 . S
C206 C202 1.531 . S
C206 H218 0.960 . S
C206 H219 0.962 . S
C206 H220 0.960 . S
C207 C204 1.511 . S
C207 H221 0.961 . S
C207 H222 0.961 . S
C207 H223 0.961 . S
C208 C209 1.370 . S
C208 C210 1.363 . S
C208 H224 0.931 . S
C209 C208 1.370 . S
C209 C213 1.408 . S
C210 C208 1.363 . S
C210 C211 1.370 . S
C210 C214 1.524 . S
C211 C203 1.503 . S
C211 C210 1.370 . S
C211 C212 1.403 . S
C212 C211 1.403 . S
C212 C213 1.404 . S
C212 C215 1.539 . S
C213 C209 1.408 . S
C213 C212 1.404 . S
C213 H225 0.930 . S
C214 C210 1.524 . S
C214 H226 0.956 . S
C214 H227 0.961 . S
C214 H228 0.961 . S
C215 C212 1.539 . S
C215 H229 0.958 . S
C215 H230 0.961 . S
C215 H231 0.960 . S
H216 C200 0.931 . S
H217 C205 0.929 . S
H218 C206 0.960 . S
H219 C206 0.962 . S
H220 C206 0.960 . S
H221 C207 0.961 . S
H222 C207 0.961 . S
H223 C207 0.961 . S
H224 C208 0.931 . S
H225 C213 0.930 . S
H226 C214 0.956 . S
H227 C214 0.961 . S
H228 C214 0.961 . S
H229 C215 0.958 . S
H230 C215 0.961 . S
H231 C215 0.960 . S
C232 C233 1.391 . S
C232 C234 1.394 . S
C232 H248 0.931 . S
C233 C232 1.391 . S
C233 C237 1.376 . S
C234 C232 1.394 . S
C234 C235 1.369 . S
C234 C238 1.531 . S
C235 C234 1.369 . S
C235 C236 1.410 . S
C235 C243 1.503 . S
C236 C235 1.410 . S
C236 C237 1.392 . S
C236 C239 1.511 . S
C237 C233 1.376 . S
C237 C236 1.392 . S
C237 H249 0.929 . S
C238 C234 1.531 . S
C238 H250 0.960 . S
C238 H251 0.962 . S
C238 H252 0.960 . S
C239 C236 1.511 . S
C239 H253 0.961 . S
C239 H254 0.961 . S
C239 H255 0.961 . S
C240 C241 1.370 . S
C240 C242 1.363 . S
C240 H256 0.931 . S
C241 C240 1.370 . S
C241 C245 1.408 . S
C242 C240 1.363 . S
C242 C243 1.370 . S
C242 C246 1.524 . S
C243 C235 1.503 . S
C243 C242 1.370 . S
C243 C244 1.403 . S
C244 C243 1.403 . S
C244 C245 1.404 . S
C244 C247 1.539 . S
C245 C241 1.408 . S
C245 C244 1.404 . S
C245 H257 0.930 . S
C246 C242 1.524 . S
C246 H258 0.956 . S
C246 H259 0.961 . S
C246 H260 0.961 . S
C247 C244 1.539 . S
C247 H261 0.958 . S
C247 H262 0.961 . S
C247 H263 0.960 . S
H248 C232 0.931 . S
H249 C237 0.929 . S
H250 C238 0.960 . S
H251 C238 0.962 . S
H252 C238 0.960 . S
H253 C239 0.961 . S
H254 C239 0.961 . S
H255 C239 0.961 . S
H256 C240 0.931 . S
H257 C245 0.930 . S
H258 C246 0.956 . S
H259 C246 0.961 . S
H260 C246 0.961 . S
H261 C247 0.958 . S
H262 C247 0.961 . S
H263 C247 0.960 . S
C264 C265 1.391 . S
C264 C266 1.394 . S
C264 H280 0.931 . S
C265 C264 1.391 . S
C265 C269 1.376 . S
C266 C264 1.394 . S
C266 C267 1.369 . S
C266 C270 1.531 . S
C267 C266 1.369 . S
C267 C268 1.410 . S
C267 C275 1.503 . S
C268 C267 1.410 . S
C268 C269 1.392 . S
C268 C271 1.511 . S
C269 C265 1.376 . S
C269 C268 1.392 . S
C269 H281 0.929 . S
C270 C266 1.531 . S
C270 H282 0.960 . S
C270 H283 0.962 . S
C270 H284 0.960 . S
C271 C268 1.511 . S
C271 H285 0.961 . S
C271 H286 0.961 . S
C271 H287 0.961 . S
C272 C273 1.370 . S
C272 C274 1.363 . S
C272 H288 0.931 . S
C273 C272 1.370 . S
C273 C277 1.408 . S
C274 C272 1.363 . S
C274 C275 1.370 . S
C274 C278 1.524 . S
C275 C267 1.503 . S
C275 C274 1.370 . S
C275 C276 1.403 . S
C276 C275 1.403 . S
C276 C277 1.404 . S
C276 C279 1.539 . S
C277 C273 1.408 . S
C277 C276 1.404 . S
C277 H289 0.930 . S
C278 C274 1.524 . S
C278 H290 0.956 . S
C278 H291 0.961 . S
C278 H292 0.961 . S
C279 C276 1.539 . S
C279 H293 0.958 . S
C279 H294 0.961 . S
C279 H295 0.960 . S
H280 C264 0.931 . S
H281 C269 0.929 . S
H282 C270 0.960 . S
H283 C270 0.962 . S
H284 C270 0.960 . S
H285 C271 0.961 . S
H286 C271 0.961 . S
H287 C271 0.961 . S
H288 C272 0.931 . S
H289 C277 0.930 . S
H290 C278 0.956 . S
H291 C278 0.961 . S
H292 C278 0.961 . S
H293 C279 0.958 . S
H294 C279 0.961 . S
H295 C279 0.960 . S
C296 C297 1.391 . S
C296 C298 1.394 . S
C296 H312 0.931 . S
C297 C296 1.391 . S
C297 C301 1.376 . S
C298 C296 1.394 . S
C298 C299 1.369 . S
C298 C302 1.531 . S
C299 C298 1.369 . S
C299 C300 1.410 . S
C299 C307 1.503 . S
C300 C299 1.410 . S
C300 C301 1.392 . S
C300 C303 1.511 . S
C301 C297 1.376 . S
C301 C300 1.392 . S
C301 H313 0.929 . S
C302 C298 1.531 . S
C302 H314 0.960 . S
C302 H315 0.962 . S
C302 H316 0.960 . S
C303 C300 1.511 . S
C303 H317 0.961 . S
C303 H318 0.961 . S
C303 H319 0.961 . S
C304 C305 1.370 . S
C304 C306 1.363 . S
C304 H320 0.931 . S
C305 C304 1.370 . S
C305 C309 1.408 . S
C306 C304 1.363 . S
C306 C307 1.370 . S
C306 C310 1.524 . S
C307 C299 1.503 . S
C307 C306 1.370 . S
C307 C308 1.403 . S
C308 C307 1.403 . S
C308 C309 1.404 . S
C308 C311 1.539 . S
C309 C305 1.408 . S
C309 C308 1.404 . S
C309 H321 0.930 . S
C310 C306 1.524 . S
C310 H322 0.956 . S
C310 H323 0.961 . S
C310 H324 0.961 . S
C311 C308 1.539 . S
C311 H325 0.958 . S
C311 H326 0.961 . S
C311 H327 0.960 . S
H312 C296 0.931 . S
H313 C301 0.929 . S
H314 C302 0.960 . S
H315 C302 0.962 . S
H316 C302 0.960 . S
H317 C303 0.961 . S
H318 C303 0.961 . S
H319 C303 0.961 . S
H320 C304 0.931 . S
H321 C309 0.930 . S
H322 C310 0.956 . S
H323 C310 0.961 . S
H324 C310 0.961 . S
H325 C311 0.958 . S
H326 C311 0.961 . S
H327 C311 0.960 . S
C328 C329 1.391 . S
C328 C330 1.394 . S
C328 H344 0.931 . S
C329 C328 1.391 . S
C329 C333 1.376 . S
C330 C328 1.394 . S
C330 C331 1.369 . S
C330 C334 1.531 . S
C331 C330 1.369 . S
C331 C332 1.410 . S
C331 C339 1.503 . S
C332 C331 1.410 . S
C332 C333 1.392 . S
C332 C335 1.511 . S
C333 C329 1.376 . S
C333 C332 1.392 . S
C333 H345 0.929 . S
C334 C330 1.531 . S
C334 H346 0.960 . S
C334 H347 0.962 . S
C334 H348 0.960 . S
C335 C332 1.511 . S
C335 H349 0.961 . S
C335 H350 0.961 . S
C335 H351 0.961 . S
C336 C337 1.370 . S
C336 C338 1.363 . S
C336 H352 0.931 . S
C337 C336 1.370 . S
C337 C341 1.408 . S
C338 C336 1.363 . S
C338 C339 1.370 . S
C338 C342 1.524 . S
C339 C331 1.503 . S
C339 C338 1.370 . S
C339 C340 1.403 . S
C340 C339 1.403 . S
C340 C341 1.404 . S
C340 C343 1.539 . S
C341 C337 1.408 . S
C341 C340 1.404 . S
C341 H353 0.930 . S
C342 C338 1.524 . S
C342 H354 0.956 . S
C342 H355 0.961 . S
C342 H356 0.961 . S
C343 C340 1.539 . S
C343 H357 0.958 . S
C343 H358 0.961 . S
C343 H359 0.960 . S
H344 C328 0.931 . S
H345 C333 0.929 . S
H346 C334 0.960 . S
H347 C334 0.962 . S
H348 C334 0.960 . S
H349 C335 0.961 . S
H350 C335 0.961 . S
H351 C335 0.961 . S
H352 C336 0.931 . S
H353 C341 0.930 . S
H354 C342 0.956 . S
H355 C342 0.961 . S
H356 C342 0.961 . S
H357 C343 0.958 . S
H358 C343 0.961 . S
H359 C343 0.960 . S
C360 C361 1.391 . S
C360 C362 1.394 1_554 S
C360 H376 0.931 . S
C361 C360 1.391 . S
C361 C365 1.376 . S
C362 C360 1.394 1_556 S
C362 C363 1.369 . S
C362 C366 1.531 . S
C363 C362 1.369 . S
C363 C364 1.410 1_556 S
C363 C371 1.503 . S
C364 C363 1.410 1_554 S
C364 C365 1.392 . S
C364 C367 1.511 . S
C365 C361 1.376 . S
C365 C364 1.392 . S
C365 H377 0.929 . S
C366 C362 1.531 . S
C366 H378 0.960 . S
C366 H379 0.962 1_556 S
C366 H380 0.960 . S
C367 C364 1.511 . S
C367 H381 0.961 . S
C367 H382 0.961 . S
C367 H383 0.961 1_554 S
C368 C369 1.370 1_554 S
C368 C370 1.363 . S
C368 H384 0.931 . S
C369 C368 1.370 1_556 S
C369 C373 1.408 . S
C370 C368 1.363 . S
C370 C371 1.370 1_554 S
C370 C374 1.524 . S
C371 C363 1.503 . S
C371 C370 1.370 1_556 S
C371 C372 1.403 . S
C372 C371 1.403 . S
C372 C373 1.404 . S
C372 C375 1.539 . S
C373 C369 1.408 . S
C373 C372 1.404 . S
C373 H385 0.930 . S
C374 C370 1.524 . S
C374 H386 0.956 . S
C374 H387 0.961 . S
C374 H388 0.961 . S
C375 C372 1.539 . S
C375 H389 0.958 . S
C375 H390 0.961 . S
C375 H391 0.960 . S
H376 C360 0.931 . S
H377 C365 0.929 . S
H378 C366 0.960 . S
H379 C366 0.962 1_554 S
H380 C366 0.960 . S
H381 C367 0.961 . S
H382 C367 0.961 . S
H383 C367 0.961 1_556 S
H384 C368 0.931 . S
H385 C373 0.930 . S
H386 C374 0.956 . S
H387 C374 0.961 . S
H388 C374 0.961 . S
H389 C375 0.958 . S
H390 C375 0.961 . S
H391 C375 0.960 . S
C392 C393 1.391 . S
C392 C394 1.394 . S
C392 H408 0.931 . S
C393 C392 1.391 . S
C393 C397 1.376 1_554 S
C394 C392 1.394 . S
C394 C395 1.369 . S
C394 C398 1.531 1_455 S
C395 C394 1.369 . S
C395 C396 1.410 1_554 S
C395 C403 1.503 1_454 S
C396 C395 1.410 1_556 S
C396 C397 1.392 . S
C396 C399 1.511 . S
C397 C393 1.376 1_556 S
C397 C396 1.392 . S
C397 H409 0.929 . S
C398 C394 1.531 1_655 S
C398 H410 0.960 . S
C398 H411 0.962 1_655 S
C398 H412 0.960 . S
C399 C396 1.511 . S
C399 H413 0.961 . S
C399 H414 0.961 . S
C399 H415 0.961 1_455 S
C400 C401 1.370 . S
C400 C402 1.363 1_655 S
C400 H416 0.931 1_655 S
C401 C400 1.370 . S
C401 C405 1.408 . S
C402 C400 1.363 1_455 S
C402 C403 1.370 1_455 S
C402 C406 1.524 . S
C403 C395 1.503 1_656 S
C403 C402 1.370 1_655 S
C403 C404 1.403 . S
C404 C403 1.403 . S
C404 C405 1.404 . S
C404 C407 1.539 . S
C405 C401 1.408 . S
C405 C404 1.404 . S
C405 H417 0.930 . S
C406 C402 1.524 . S
C406 H418 0.956 1_556 S
C406 H419 0.961 . S
C406 H420 0.961 . S
C407 C404 1.539 . S
C407 H421 0.958 1_556 S
C407 H422 0.961 . S
C407 H423 0.960 . S
H408 C392 0.931 . S
H409 C397 0.929 . S
H410 C398 0.960 . S
H411 C398 0.962 1_455 S
H412 C398 0.960 . S
H413 C399 0.961 . S
H414 C399 0.961 . S
H415 C399 0.961 1_655 S
H416 C400 0.931 1_455 S
H417 C405 0.930 . S
H418 C406 0.956 1_554 S
H419 C406 0.961 . S
H420 C406 0.961 . S
H421 C407 0.958 1_554 S
H422 C407 0.961 . S
H423 C407 0.960 . S
C424 C425 1.391 . S
C424 C426 1.394 . S
C424 H440 0.931 . S
C425 C424 1.391 . S
C425 C429 1.376 . S
C426 C424 1.394 . S
C426 C427 1.369 . S
C426 C430 1.531 1_565 S
C427 C426 1.369 . S
C427 C428 1.410 . S
C427 C435 1.503 1_565 S
C428 C427 1.410 . S
C428 C429 1.392 . S
C428 C431 1.511 . S
C429 C425 1.376 . S
C429 C428 1.392 . S
C429 H441 0.929 . S
C430 C426 1.531 1_545 S
C430 H442 0.960 . S
C430 H443 0.962 . S
C430 H444 0.960 1_545 S
C431 C428 1.511 . S
C431 H445 0.961 . S
C431 H446 0.961 . S
C431 H447 0.961 . S
C432 C433 1.370 . S
C432 C434 1.363 . S
C432 H448 0.931 . S
C433 C432 1.370 . S
C433 C437 1.408 . S
C434 C432 1.363 . S
C434 C435 1.370 . S
C434 C438 1.524 . S
C435 C427 1.503 1_545 S
C435 C434 1.370 . S
C435 C436 1.403 . S
C436 C435 1.403 . S
C436 C437 1.404 . S
C436 C439 1.539 1_545 S
C437 C433 1.408 . S
C437 C436 1.404 . S
C437 H449 0.930 . S
C438 C434 1.524 . S
C438 H450 0.956 . S
C438 H451 0.961 . S
C438 H452 0.961 . S
C439 C436 1.539 1_565 S
C439 H453 0.958 . S
C439 H454 0.961 . S
C439 H455 0.960 . S
H440 C424 0.931 . S
H441 C429 0.929 . S
H442 C430 0.960 . S
H443 C430 0.962 . S
H444 C430 0.960 1_565 S
H445 C431 0.961 . S
H446 C431 0.961 . S
H447 C431 0.961 . S
H448 C432 0.931 . S
H449 C437 0.930 . S
H450 C438 0.956 . S
H451 C438 0.961 . S
H452 C438 0.961 . S
H453 C439 0.958 . S
H454 C439 0.961 . S
H455 C439 0.960 . S
C456 C457 1.391 . S
C456 C458 1.394 1_655 S
C456 H472 0.931 . S
C457 C456 1.391 . S
C457 C461 1.376 . S
C458 C456 1.394 1_455 S
C458 C459 1.369 1_455 S
C458 C462 1.531 . S
C459 C458 1.369 1_655 S
C459 C460 1.410 . S
C459 C467 1.503 1_645 S
C460 C459 1.410 . S
C460 C461 1.392 . S
C460 C463 1.511 1_545 S
C461 C457 1.376 . S
C461 C460 1.392 . S
C461 H473 0.929 . S
C462 C458 1.531 . S
C462 H474 0.960 . S
C462 H475 0.962 . S
C462 H476 0.960 . S
C463 C460 1.511 1_565 S
C463 H477 0.961 . S
C463 H478 0.961 . S
C463 H479 0.961 . S
C464 C465 1.370 . S
C464 C466 1.363 . S
C464 H480 0.931 . S
C465 C464 1.370 . S
C465 C469 1.408 . S
C466 C464 1.363 . S
C466 C467 1.370 . S
C466 C470 1.524 1_455 S
C467 C459 1.503 1_465 S
C467 C466 1.370 . S
C467 C468 1.403 . S
C468 C467 1.403 . S
C468 C469 1.404 . S
C468 C471 1.539 . S
C469 C465 1.408 . S
C469 C468 1.404 . S
C469 H481 0.930 . S
C470 C466 1.524 1_655 S
C470 H482 0.956 1_565 S
C470 H483 0.961 . S
C470 H484 0.961 . S
C471 C468 1.539 . S
C471 H485 0.958 1_565 S
C471 H486 0.961 . S
C471 H487 0.960 . S
H472 C456 0.931 . S
H473 C461 0.929 . S
H474 C462 0.960 . S
H475 C462 0.962 . S
H476 C462 0.960 . S
H477 C463 0.961 . S
H478 C463 0.961 . S
H479 C463 0.961 . S
H480 C464 0.931 . S
H481 C469 0.930 . S
H482 C470 0.956 1_545 S
H483 C470 0.961 . S
H484 C470 0.961 . S
H485 C471 0.958 1_545 S
H486 C471 0.961 . S
H487 C471 0.960 . S
C488 C489 1.391 1_556 S
C488 C490 1.394 . S
C488 H504 0.931 . S
C489 C488 1.391 1_554 S
C489 C493 1.376 . S
C490 C488 1.394 . S
C490 C491 1.369 1_556 S
C490 C494 1.531 . S
C491 C490 1.369 1_554 S
C491 C492 1.410 . S
C491 C499 1.503 . S
C492 C491 1.410 . S
C492 C493 1.392 . S
C492 C495 1.511 . S
C493 C489 1.376 . S
C493 C492 1.392 . S
C493 H505 0.929 . S
C494 C490 1.531 . S
C494 H506 0.960 . S
C494 H507 0.962 . S
C494 H508 0.960 . S
C495 C492 1.511 . S
C495 H509 0.961 . S
C495 H510 0.961 . S
C495 H511 0.961 . S
C496 C497 1.370 . S
C496 C498 1.363 . S
C496 H512 0.931 . S
C497 C496 1.370 . S
C497 C501 1.408 . S
C498 C496 1.363 . S
C498 C499 1.370 . S
C498 C502 1.524 . S
C499 C491 1.503 . S
C499 C498 1.370 . S
C499 C500 1.403 . S
C500 C499 1.403 . S
C500 C501 1.404 . S
C500 C503 1.539 . S
C501 C497 1.408 . S
C501 C500 1.404 . S
C501 H513 0.930 . S
C502 C498 1.524 . S
C502 H514 0.956 . S
C502 H515 0.961 . S
C502 H516 0.961 . S
C503 C500 1.539 . S
C503 H517 0.958 . S
C503 H518 0.961 . S
C503 H519 0.960 . S
H504 C488 0.931 . S
H505 C493 0.929 . S
H506 C494 0.960 . S
H507 C494 0.962 . S
H508 C494 0.960 . S
H509 C495 0.961 . S
H510 C495 0.961 . S
H511 C495 0.961 . S
H512 C496 0.931 . S
H513 C501 0.930 . S
H514 C502 0.956 . S
H515 C502 0.961 . S
H516 C502 0.961 . S
H517 C503 0.958 . S
H518 C503 0.961 . S
H519 C503 0.960 . S
C520 C521 1.391 . S
C520 C522 1.394 . S
C520 H536 0.931 . S
C521 C520 1.391 . S
C521 C525 1.376 . S
C522 C520 1.394 . S
C522 C523 1.369 . S
C522 C526 1.531 1_545 S
C523 C522 1.369 . S
C523 C524 1.410 . S
C523 C531 1.503 1_545 S
C524 C523 1.410 . S
C524 C525 1.392 . S
C524 C527 1.511 . S
C525 C521 1.376 . S
C525 C524 1.392 . S
C525 H537 0.929 . S
C526 C522 1.531 1_565 S
C526 H538 0.960 . S
C526 H539 0.962 . S
C526 H540 0.960 . S
C527 C524 1.511 . S
C527 H541 0.961 . S
C527 H542 0.961 . S
C527 H543 0.961 . S
C528 C529 1.370 . S
C528 C530 1.363 . S
C528 H544 0.931 . S
C529 C528 1.370 . S
C529 C533 1.408 . S
C530 C528 1.363 . S
C530 C531 1.370 . S
C530 C534 1.524 . S
C531 C523 1.503 1_565 S
C531 C530 1.370 . S
C531 C532 1.403 . S
C532 C531 1.403 . S
C532 C533 1.404 . S
C532 C535 1.539 . S
C533 C529 1.408 . S
C533 C532 1.404 . S
C533 H545 0.930 . S
C534 C530 1.524 . S
C534 H546 0.956 . S
C534 H547 0.961 1_565 S
C534 H548 0.961 . S
C535 C532 1.539 . S
C535 H549 0.958 . S
C535 H550 0.961 . S
C535 H551 0.960 1_565 S
H536 C520 0.931 . S
H537 C525 0.929 . S
H538 C526 0.960 . S
H539 C526 0.962 . S
H540 C526 0.960 . S
H541 C527 0.961 . S
H542 C527 0.961 . S
H543 C527 0.961 . S
H544 C528 0.931 . S
H545 C533 0.930 . S
H546 C534 0.956 . S
H547 C534 0.961 1_545 S
H548 C534 0.961 . S
H549 C535 0.958 . S
H550 C535 0.961 . S
H551 C535 0.960 1_545 S
C552 C553 1.391 . S
C552 C554 1.394 . S
C552 H568 0.931 . S
C553 C552 1.391 . S
C553 C557 1.376 . S
C554 C552 1.394 . S
C554 C555 1.369 . S
C554 C558 1.531 1_556 S
C555 C554 1.369 . S
C555 C556 1.410 . S
C555 C563 1.503 . S
C556 C555 1.410 . S
C556 C557 1.392 . S
C556 C559 1.511 . S
C557 C553 1.376 . S
C557 C556 1.392 . S
C557 H569 0.929 . S
C558 C554 1.531 1_554 S
C558 H570 0.960 . S
C558 H571 0.962 1_554 S
C558 H572 0.960 . S
C559 C556 1.511 . S
C559 H573 0.961 . S
C559 H574 0.961 . S
C559 H575 0.961 . S
C560 C561 1.370 . S
C560 C562 1.363 . S
C560 H576 0.931 . S
C561 C560 1.370 . S
C561 C565 1.408 1_556 S
C562 C560 1.363 . S
C562 C563 1.370 . S
C562 C566 1.524 . S
C563 C555 1.503 . S
C563 C562 1.370 . S
C563 C564 1.403 1_556 S
C564 C563 1.403 1_554 S
C564 C565 1.404 . S
C564 C567 1.539 . S
C565 C561 1.408 1_554 S
C565 C564 1.404 . S
C565 H577 0.930 . S
C566 C562 1.524 . S
C566 H578 0.956 . S
C566 H579 0.961 . S
C566 H580 0.961 . S
C567 C564 1.539 . S
C567 H581 0.958 . S
C567 H582 0.961 . S
C567 H583 0.960 . S
H568 C552 0.931 . S
H569 C557 0.929 . S
H570 C558 0.960 . S
H571 C558 0.962 1_556 S
H572 C558 0.960 . S
H573 C559 0.961 . S
H574 C559 0.961 . S
H575 C559 0.961 . S
H576 C560 0.931 . S
H577 C565 0.930 . S
H578 C566 0.956 . S
H579 C566 0.961 . S
H580 C566 0.961 . S
H581 C567 0.958 . S
H582 C567 0.961 . S
H583 C567 0.960 . S
C584 C585 1.391 . S
C584 C586 1.394 . S
C584 H600 0.931 . S
C585 C584 1.391 . S
C585 C589 1.376 . S
C586 C584 1.394 . S
C586 C587 1.369 . S
C586 C590 1.531 1_565 S
C587 C586 1.369 . S
C587 C588 1.410 . S
C587 C595 1.503 1_565 S
C588 C587 1.410 . S
C588 C589 1.392 . S
C588 C591 1.511 . S
C589 C585 1.376 . S
C589 C588 1.392 . S
C589 H601 0.929 . S
C590 C586 1.531 1_545 S
C590 H602 0.960 . S
C590 H603 0.962 . S
C590 H604 0.960 . S
C591 C588 1.511 . S
C591 H605 0.961 . S
C591 H606 0.961 . S
C591 H607 0.961 . S
C592 C593 1.370 . S
C592 C594 1.363 . S
C592 H608 0.931 . S
C593 C592 1.370 . S
C593 C597 1.408 . S
C594 C592 1.363 . S
C594 C595 1.370 . S
C594 C598 1.524 . S
C595 C587 1.503 1_545 S
C595 C594 1.370 . S
C595 C596 1.403 . S
C596 C595 1.403 . S
C596 C597 1.404 . S
C596 C599 1.539 1_545 S
C597 C593 1.408 . S
C597 C596 1.404 . S
C597 H609 0.930 . S
C598 C594 1.524 . S
C598 H610 0.956 . S
C598 H611 0.961 . S
C598 H612 0.961 . S
C599 C596 1.539 1_565 S
C599 H613 0.958 . S
C599 H614 0.961 . S
C599 H615 0.960 . S
H600 C584 0.931 . S
H601 C589 0.929 . S
H602 C590 0.960 . S
H603 C590 0.962 . S
H604 C590 0.960 . S
H605 C591 0.961 . S
H606 C591 0.961 . S
H607 C591 0.961 . S
H608 C592 0.931 . S
H609 C597 0.930 . S
H610 C598 0.956 . S
H611 C598 0.961 . S
H612 C598 0.961 . S
H613 C599 0.958 . S
H614 C599 0.961 . S
H615 C599 0.960 . S
C105 C4 1.797 . S
C113 C23 1.794 . S
C137 C49 1.799 . S
C145 C36 1.793 . S
C169 C56 1.789 . S
C177 C75 1.797 . S
C201 C88 1.801 . S
C209 C95 1.793 . S
C233 C10 1.715 . S
C241 C30 1.745 . S
C265 C43 1.744 . S
C273 C17 1.752 . S
C297 C62 1.759 . S
C305 C82 1.735 . S
C329 C101 1.736 . S
C337 C69 1.732 . S
C361 C5 1.387 . S
C369 C57 1.379 . S
C393 C16 1.405 . S
C401 C68 1.369 . S
C425 C81 1.404 . S
C433 C29 1.369 . S
C457 C96 1.377 . S
C465 C42 1.384 . S
C489 C18 0.915 . S
C497 C3 0.911 . S
C521 C31 0.944 . S
C529 C44 0.927 . S
C553 C55 0.940 . S
C561 C70 0.926 . S
C585 C83 0.889 . S
C593 C94 0.904 . S
