# Generated by pormake.
# Topology lcs, (4)-cn, num edge types: 1
# Building blocks:
#     Node 0, Type 0, BuildingBlock: KUFVIS_clean_sbu_0, # of connection points: 4
#     Node 1, Type 0, BuildingBlock: KUFVIS_clean_sbu_0, # of connection points: 4
#     Node 2, Type 0, BuildingBlock: KUFVIS_clean_sbu_0, # of connection points: 4
#     Node 3, Type 0, BuildingBlock: KUFVIS_clean_sbu_0, # of connection points: 4
#     Node 4, Type 0, BuildingBlock: KUFVIS_clean_sbu_0, # of connection points: 4
#     Node 5, Type 0, BuildingBlock: KUFVIS_clean_sbu_0, # of connection points: 4
#     Node 6, Type 0, BuildingBlock: KUFVIS_clean_sbu_0, # of connection points: 4
#     Node 7, Type 0, BuildingBlock: KUFVIS_clean_sbu_0, # of connection points: 4
#     Node 8, Type 0, BuildingBlock: KUFVIS_clean_sbu_0, # of connection points: 4
#     Node 9, Type 0, BuildingBlock: KUFVIS_clean_sbu_0, # of connection points: 4
#     Node 10, Type 0, BuildingBlock: KUFVIS_clean_sbu_0, # of connection points: 4
#     Node 11, Type 0, BuildingBlock: KUFVIS_clean_sbu_0, # of connection points: 4
#     Node 12, Type 0, BuildingBlock: KUFVIS_clean_sbu_0, # of connection points: 4
#     Node 13, Type 0, BuildingBlock: KUFVIS_clean_sbu_0, # of connection points: 4
#     Node 14, Type 0, BuildingBlock: KUFVIS_clean_sbu_0, # of connection points: 4
#     Node 15, Type 0, BuildingBlock: KUFVIS_clean_sbu_0, # of connection points: 4
#     Node 16, Type 0, BuildingBlock: KUFVIS_clean_sbu_0, # of connection points: 4
#     Node 17, Type 0, BuildingBlock: KUFVIS_clean_sbu_0, # of connection points: 4
#     Node 18, Type 0, BuildingBlock: KUFVIS_clean_sbu_0, # of connection points: 4
#     Node 19, Type 0, BuildingBlock: KUFVIS_clean_sbu_0, # of connection points: 4
#     Node 20, Type 0, BuildingBlock: KUFVIS_clean_sbu_0, # of connection points: 4
#     Node 21, Type 0, BuildingBlock: KUFVIS_clean_sbu_0, # of connection points: 4
#     Node 22, Type 0, BuildingBlock: KUFVIS_clean_sbu_0, # of connection points: 4
#     Node 23, Type 0, BuildingBlock: KUFVIS_clean_sbu_0, # of connection points: 4
#     Edge 24, Type (0, 0), BuildingBlock: EZIPEK_clean_linker_0, # of connection points: 2
#     Edge 25, Type (0, 0), BuildingBlock: EZIPEK_clean_linker_0, # of connection points: 2
#     Edge 26, Type (0, 0), BuildingBlock: EZIPEK_clean_linker_0, # of connection points: 2
#     Edge 27, Type (0, 0), BuildingBlock: EZIPEK_clean_linker_0, # of connection points: 2
#     Edge 28, Type (0, 0), BuildingBlock: EZIPEK_clean_linker_0, # of connection points: 2
#     Edge 29, Type (0, 0), BuildingBlock: EZIPEK_clean_linker_0, # of connection points: 2
#     Edge 30, Type (0, 0), BuildingBlock: EZIPEK_clean_linker_0, # of connection points: 2
#     Edge 31, Type (0, 0), BuildingBlock: EZIPEK_clean_linker_0, # of connection points: 2
#     Edge 32, Type (0, 0), BuildingBlock: EZIPEK_clean_linker_0, # of connection points: 2
#     Edge 33, Type (0, 0), BuildingBlock: EZIPEK_clean_linker_0, # of connection points: 2
#     Edge 34, Type (0, 0), BuildingBlock: EZIPEK_clean_linker_0, # of connection points: 2
#     Edge 35, Type (0, 0), BuildingBlock: EZIPEK_clean_linker_0, # of connection points: 2
#     Edge 36, Type (0, 0), BuildingBlock: EZIPEK_clean_linker_0, # of connection points: 2
#     Edge 37, Type (0, 0), BuildingBlock: EZIPEK_clean_linker_0, # of connection points: 2
#     Edge 38, Type (0, 0), BuildingBlock: EZIPEK_clean_linker_0, # of connection points: 2
#     Edge 39, Type (0, 0), BuildingBlock: EZIPEK_clean_linker_0, # of connection points: 2
#     Edge 40, Type (0, 0), BuildingBlock: EZIPEK_clean_linker_0, # of connection points: 2
#     Edge 41, Type (0, 0), BuildingBlock: EZIPEK_clean_linker_0, # of connection points: 2
#     Edge 42, Type (0, 0), BuildingBlock: EZIPEK_clean_linker_0, # of connection points: 2
#     Edge 43, Type (0, 0), BuildingBlock: EZIPEK_clean_linker_0, # of connection points: 2
#     Edge 44, Type (0, 0), BuildingBlock: EZIPEK_clean_linker_0, # of connection points: 2
#     Edge 45, Type (0, 0), BuildingBlock: EZIPEK_clean_linker_0, # of connection points: 2
#     Edge 46, Type (0, 0), BuildingBlock: EZIPEK_clean_linker_0, # of connection points: 2
#     Edge 47, Type (0, 0), BuildingBlock: EZIPEK_clean_linker_0, # of connection points: 2
#     Edge 48, Type (0, 0), BuildingBlock: EZIPEK_clean_linker_0, # of connection points: 2
#     Edge 49, Type (0, 0), BuildingBlock: EZIPEK_clean_linker_0, # of connection points: 2
#     Edge 50, Type (0, 0), BuildingBlock: EZIPEK_clean_linker_0, # of connection points: 2
#     Edge 51, Type (0, 0), BuildingBlock: EZIPEK_clean_linker_0, # of connection points: 2
#     Edge 52, Type (0, 0), BuildingBlock: EZIPEK_clean_linker_0, # of connection points: 2
#     Edge 53, Type (0, 0), BuildingBlock: EZIPEK_clean_linker_0, # of connection points: 2
#     Edge 54, Type (0, 0), BuildingBlock: EZIPEK_clean_linker_0, # of connection points: 2
#     Edge 55, Type (0, 0), BuildingBlock: EZIPEK_clean_linker_0, # of connection points: 2
#     Edge 56, Type (0, 0), BuildingBlock: EZIPEK_clean_linker_0, # of connection points: 2
#     Edge 57, Type (0, 0), BuildingBlock: EZIPEK_clean_linker_0, # of connection points: 2
#     Edge 58, Type (0, 0), BuildingBlock: EZIPEK_clean_linker_0, # of connection points: 2
#     Edge 59, Type (0, 0), BuildingBlock: EZIPEK_clean_linker_0, # of connection points: 2
#     Edge 60, Type (0, 0), BuildingBlock: EZIPEK_clean_linker_0, # of connection points: 2
#     Edge 61, Type (0, 0), BuildingBlock: EZIPEK_clean_linker_0, # of connection points: 2
#     Edge 62, Type (0, 0), BuildingBlock: EZIPEK_clean_linker_0, # of connection points: 2
#     Edge 63, Type (0, 0), BuildingBlock: EZIPEK_clean_linker_0, # of connection points: 2
#     Edge 64, Type (0, 0), BuildingBlock: EZIPEK_clean_linker_0, # of connection points: 2
#     Edge 65, Type (0, 0), BuildingBlock: EZIPEK_clean_linker_0, # of connection points: 2
#     Edge 66, Type (0, 0), BuildingBlock: EZIPEK_clean_linker_0, # of connection points: 2
#     Edge 67, Type (0, 0), BuildingBlock: EZIPEK_clean_linker_0, # of connection points: 2
#     Edge 68, Type (0, 0), BuildingBlock: EZIPEK_clean_linker_0, # of connection points: 2
#     Edge 69, Type (0, 0), BuildingBlock: EZIPEK_clean_linker_0, # of connection points: 2
#     Edge 70, Type (0, 0), BuildingBlock: EZIPEK_clean_linker_0, # of connection points: 2
#     Edge 71, Type (0, 0), BuildingBlock: EZIPEK_clean_linker_0, # of connection points: 2
# Relax obj value: 0.012
# Max RMSD: 0.065
# Mean RMSD: 0.054
data_MOF--net-lcs--node1-KUFVIS_clean_sbu_0--edge1-EZIPEK_clean_linker_0
_symmetry_space_group_name_H-M    P1
_symmetry_Int_Tables_number       1
_symmetry_cell_setting            triclinic
loop_
_symmetry_equiv_pos_as_xyz
'x, y, z'
_cell_length_a     35.208533
_cell_length_b     35.945086
_cell_length_c     35.972734
_cell_angle_alpha  89.839747
_cell_angle_beta   91.199338
_cell_angle_gamma 91.18629
loop_
_atom_site_label
_atom_site_type_symbol
_atom_site_fract_x
_atom_site_fract_y
_atom_site_fract_z
_atom_type_partial_charge
Mn0 Mn 0.02072 0.27027 0.38495 0.0
Mn1 Mn 0.04225 0.31173 0.46632 0.0
C2 C 0.07705 0.25498 0.41548 0.0
C3 C 0.98737 0.22047 0.35642 0.0
C4 C 0.05052 0.35069 0.39056 0.0
O5 O 0.97177 0.29623 0.39817 0.0
O6 O 0.98671 0.31431 0.45608 0.0
C7 C 1.00281 0.25485 0.51184 0.0
N8 N 0.03497 0.27485 0.50406 0.0
C9 C 0.07041 0.24305 0.55191 0.0
C10 C 0.03759 0.22236 0.56069 0.0
C11 C 1.00369 0.22815 0.54041 0.0
C12 C 0.06798 0.26862 0.52256 0.0
H13 H 0.97673 0.25907 0.4962 0.0
C14 C 0.96305 0.3111 0.42881 0.0
O15 O 0.99582 0.25062 0.33793 0.0
O16 O 0.99748 0.21992 0.39111 0.0
N17 N 0.09451 0.31228 0.48228 0.0
C18 C 0.12199 0.33789 0.47366 0.0
C19 C 0.15636 0.33906 0.49412 0.0
C20 C 0.16225 0.31382 0.52343 0.0
C21 C 0.1334 0.28814 0.53239 0.0
C22 C 0.09922 0.28928 0.51181 0.0
H23 H 0.11788 0.35699 0.45105 0.0
O24 O 0.07142 0.24655 0.38082 0.0
O25 O 0.04897 0.27137 0.43122 0.0
O26 O 0.04271 0.32176 0.3707 0.0
O27 O 0.05095 0.34994 0.42638 0.0
C28 C 0.13664 0.26257 0.56199 0.0
C29 C 0.1053 0.23961 0.57139 0.0
H30 H 0.03808 0.20204 0.58299 0.0
H31 H 0.97829 0.21216 0.54686 0.0
H32 H 0.17841 0.35914 0.48709 0.0
H33 H 0.18896 0.31454 0.53893 0.0
H34 H 0.16293 0.26068 0.57801 0.0
H35 H 0.10806 0.2201 0.59424 0.0
Mn36 Mn 0.02836 0.77598 0.63598 0.0
Mn37 Mn 0.97778 0.81046 0.70643 0.0
C38 C 0.04675 0.83269 0.66289 0.0
C39 C 0.07741 0.73981 0.61391 0.0
C40 C 0.95064 0.81176 0.62549 0.0
O41 O 0.9979 0.73057 0.6539 0.0
O42 O 0.96993 0.75468 0.70426 0.0
C43 C 0.01419 0.77741 0.77345 0.0
N44 N 1.00557 0.80792 0.7527 0.0
C45 C 0.03181 0.84874 0.80007 0.0
C46 C 0.04213 0.81764 0.82127 0.0
C47 C 0.03314 0.7818 0.80793 0.0
C48 C 0.01341 0.84258 0.76567 0.0
H49 H 1.00584 0.75005 0.76417 0.0
C50 C 0.97753 0.72728 0.68279 0.0
O51 O 0.04825 0.74804 0.59305 0.0
O52 O 0.07745 0.75121 0.6481 0.0
N53 N 0.98381 0.86338 0.71131 0.0
C54 C 0.97082 0.89062 0.68817 0.0
C55 C 0.97726 0.92812 0.69767 0.0
C56 C 0.99655 0.93728 0.73105 0.0
C57 C 1.00894 0.90883 0.7548 0.0
C58 C 1.00192 0.87193 0.74375 0.0
H59 H 0.95593 0.88389 0.66246 0.0
O60 O 0.05707 0.82422 0.6296 0.0
O61 O 0.02547 0.80773 0.67926 0.0
O62 O 0.98021 0.79768 0.61178 0.0
O63 O 0.9465 0.81617 0.66038 0.0
C64 C 0.02772 0.91565 0.78913 0.0
C65 C 0.03883 0.88563 0.8119 0.0
H66 H 0.05651 0.82097 0.84802 0.0
H67 H 0.04028 0.75763 0.82445 0.0
H68 H 0.96743 0.94991 0.67925 0.0
H69 H 1.00148 0.96624 0.73828 0.0
H70 H 0.03353 0.94388 0.79842 0.0
H71 H 0.0527 0.89119 0.83847 0.0
Mn72 Mn 0.51506 0.75616 0.88259 0.0
Mn73 Mn 0.54789 0.79476 0.96227 0.0
C74 C 0.57184 0.73548 0.90845 0.0
C75 C 0.47752 0.71094 0.85249 0.0
C76 C 0.55131 0.83392 0.88664 0.0
O77 O 0.4695 0.78449 0.90207 0.0
O78 O 0.49182 0.79968 0.95923 0.0
C79 C 0.51305 0.74391 0.01737 0.0
N80 N 0.54453 0.76059 1.0029 0.0
C81 C 0.58478 0.73426 0.05056 0.0
C82 C 0.55278 0.71688 0.06608 0.0
C83 C 0.5168 0.72156 0.04927 0.0
C84 C 0.57932 0.75584 0.01852 0.0
H85 H 0.48531 0.74774 1.0047 0.0
C86 C 0.46516 0.79814 0.9345 0.0
O87 O 0.48707 0.74167 0.83572 0.0
O88 O 0.48761 0.70755 0.88716 0.0
N89 N 0.60165 0.79174 0.96942 0.0
C90 C 0.62978 0.80822 0.94947 0.0
C91 C 0.66761 0.80539 0.96184 0.0
C92 C 0.67619 0.78581 0.99473 0.0
C93 C 0.64678 0.76877 0.01464 0.0
C94 C 0.60957 0.77254 1.0009 0.0
H95 H 0.62345 0.82293 0.92404 0.0
O96 O 0.5628 0.72887 0.87396 0.0
O97 O 0.54659 0.75318 0.92722 0.0
O98 O 0.54052 0.80579 0.86714 0.0
O99 O 0.55307 0.83257 0.92211 0.0
C100 C 0.65292 0.74796 0.0474 0.0
C101 C 0.62192 0.73074 0.06538 0.0
H102 H 0.55554 0.69974 0.09076 0.0
H103 H 0.49198 0.70815 0.06102 0.0
H104 H 0.68992 0.81833 0.94589 0.0
H105 H 0.70539 0.78384 1.00441 0.0
H106 H 0.6814 0.74457 0.05871 0.0
H107 H 0.62703 0.71435 0.09023 0.0
Mn108 Mn 0.52311 0.2659 0.13675 0.0
Mn109 Mn 0.4764 0.30843 0.20494 0.0
C110 C 0.54432 0.32405 0.15799 0.0
C111 C 0.57147 0.22679 0.1176 0.0
C112 C 0.44664 0.30268 0.12494 0.0
O113 O 0.49045 0.22382 0.1594 0.0
O114 O 0.46769 0.25356 0.20921 0.0
C115 C 0.51791 0.28093 0.27166 0.0
N116 N 0.50632 0.3098 0.2499 0.0
C117 C 0.53311 0.35456 0.29313 0.0
C118 C 0.54515 0.32534 0.31614 0.0
C119 C 0.53776 0.28835 0.3052 0.0
C120 C 0.51386 0.34546 0.25985 0.0
H121 H 0.51194 0.25246 0.26356 0.0
C122 C 0.47217 0.22405 0.18991 0.0
O123 O 0.54225 0.23376 0.09626 0.0
O124 O 0.57101 0.24013 0.15102 0.0
N125 N 0.48335 0.36139 0.20422 0.0
C126 C 0.47009 0.38643 0.17883 0.0
C127 C 0.47667 0.42463 0.18485 0.0
C128 C 0.49624 0.43672 0.21717 0.0
C129 C 0.5089 0.41049 0.24327 0.0
C130 C 0.50184 0.37277 0.23561 0.0
H131 H 0.45478 0.37738 0.15406 0.0
O132 O 0.55391 0.31209 0.12561 0.0
O133 O 0.52248 0.30153 0.17669 0.0
O134 O 0.47582 0.28776 0.11138 0.0
O135 O 0.44322 0.30946 0.15958 0.0
C136 C 0.52787 0.42031 0.27679 0.0
C137 C 0.53947 0.39238 0.3019 0.0
H138 H 0.5603 0.33096 0.3421 0.0
H139 H 0.5471 0.26564 0.32272 0.0
H140 H 0.46661 0.44471 0.16465 0.0
H141 H 0.50117 0.46622 0.22176 0.0
H142 H 0.53339 0.44926 0.28367 0.0
H143 H 0.55308 0.40032 0.32797 0.0
Mn144 Mn 0.01609 0.76677 0.1449 0.0
Mn145 Mn 0.98574 0.83605 0.08849 0.0
C146 C 0.9564 0.75521 0.11463 0.0
C147 C 0.05182 0.71366 0.1614 0.0
C148 C 0.98879 0.84014 0.17272 0.0
O149 O 0.06401 0.79931 0.1339 0.0
O150 O 0.04178 0.83522 0.08744 0.0
C151 C 0.01279 0.83853 0.01045 0.0
N152 N 0.98336 0.83358 0.03429 0.0
C153 C 0.94119 0.82186 0.97562 0.0
C154 C 0.97274 0.82733 0.95404 0.0
C155 C 1.00759 0.83675 0.97134 0.0
C156 C 0.94744 0.83266 0.02126 0.0
H157 H 0.04112 0.8442 0.02125 0.0
C158 C 0.06926 0.82246 0.10719 0.0
O159 O 0.04319 0.7389 0.18504 0.0
O160 O 0.04156 0.72006 0.12705 0.0
N161 N 0.932 0.83587 0.08925 0.0
C162 C 0.90901 0.8387 0.11918 0.0
C163 C 0.87087 0.82643 0.11754 0.0
C164 C 0.85623 0.80578 0.0874 0.0
C165 C 0.87919 0.79841 0.05742 0.0
C166 C 0.9189 0.8234 0.05662 0.0
H167 H 0.91943 0.85091 0.14479 0.0
O168 O 0.96684 0.7397 0.14565 0.0
O169 O 0.98227 0.7791 0.10029 0.0
O170 O 0.99525 0.80641 0.17992 0.0
O171 O 0.98797 0.85229 0.1399 0.0
C172 C 0.86208 0.77666 0.01948 0.0
C173 C 0.90323 0.79446 0.9608 0.0
H174 H 0.97126 0.82172 0.92449 0.0
H175 H 0.03178 0.8408 0.95378 0.0
H176 H 0.85302 0.83105 0.14115 0.0
H177 H 0.82694 0.79623 0.08725 0.0
H178 H 0.83559 0.76072 0.02279 0.0
H179 H 0.90047 0.78685 0.93143 0.0
Mn180 Mn 0.52999 0.75947 0.3795 0.0
Mn181 Mn 0.51285 0.81263 0.45439 0.0
C182 C 0.57887 0.79597 0.40599 0.0
C183 C 0.54874 0.7024 0.35457 0.0
C184 C 0.48733 0.83294 0.37563 0.0
O185 O 0.48003 0.73752 0.39801 0.0
O186 O 0.47428 0.77106 0.45055 0.0
C187 C 0.52857 0.75787 0.5141 0.0
N188 N 0.53591 0.79143 0.49782 0.0
C189 C 0.58181 0.80779 0.54575 0.0
C190 C 0.5749 0.77332 0.56294 0.0
C191 C 0.54823 0.74821 0.54697 0.0
C192 C 0.56174 0.81566 0.51279 0.0
H193 H 0.50775 0.73874 0.50222 0.0
C194 C 0.4635 0.74492 0.42827 0.0
O195 O 0.52986 0.7264 0.3349 0.0
O196 O 0.55478 0.71112 0.3891 0.0
N197 N 0.54785 0.85346 0.46191 0.0
C198 C 0.55092 0.88579 0.44218 0.0
C199 C 0.57666 0.91376 0.45433 0.0
C200 C 0.5983 0.90859 0.48708 0.0
C201 C 0.59374 0.87561 0.50753 0.0
C202 C 0.56784 0.84862 0.49395 0.0
H203 H 0.5341 0.89017 0.41718 0.0
O204 O 0.58095 0.78399 0.37218 0.0
O205 O 0.54831 0.78595 0.42349 0.0
O206 O 0.50189 0.80531 0.35918 0.0
O207 O 0.48951 0.83742 0.41084 0.0
C208 C 0.61381 0.86852 0.54093 0.0
C209 C 0.60792 0.83457 0.55999 0.0
H210 H 0.58989 0.76586 0.5884 0.0
H211 H 0.54265 0.72158 0.56009 0.0
H212 H 0.57976 0.93926 0.43852 0.0
H213 H 0.61816 0.9302 0.49637 0.0
H214 H 0.63388 0.88905 0.55196 0.0
H215 H 0.62373 0.82906 0.58543 0.0
Mn216 Mn 0.50817 0.25706 0.64423 0.0
Mn217 Mn 0.48587 0.32281 0.58143 0.0
C218 C 0.45016 0.24575 0.61203 0.0
C219 C 0.5395 0.2041 0.66881 0.0
C220 C 0.48586 0.33587 0.66385 0.0
O221 O 0.55938 0.28253 0.6306 0.0
O222 O 0.54136 0.31804 0.58179 0.0
C223 C 0.51387 0.32476 0.5044 0.0
N224 N 0.48427 0.31817 0.52758 0.0
C225 C 0.44422 0.30323 0.46877 0.0
C226 C 0.47654 0.30768 0.44787 0.0
C227 C 0.51042 0.32003 0.46544 0.0
C228 C 0.44888 0.31705 0.51361 0.0
H229 H 0.54076 0.33455 0.51577 0.0
C230 C 0.56692 0.30264 0.60211 0.0
O231 O 0.53259 0.23311 0.68841 0.0
O232 O 0.52981 0.20632 0.63382 0.0
N233 N 0.43176 0.32499 0.58088 0.0
C234 C 0.40825 0.32814 0.61045 0.0
C235 C 0.36955 0.31804 0.60788 0.0
C236 C 0.35474 0.29743 0.57788 0.0
C237 C 0.37833 0.28766 0.54923 0.0
C238 C 0.4189 0.31133 0.54837 0.0
H239 H 0.41856 0.3386 0.63673 0.0
O240 O 0.45733 0.23384 0.64548 0.0
O241 O 0.4781 0.26668 0.59682 0.0
O242 O 0.48721 0.30204 0.67356 0.0
O243 O 0.49076 0.34427 0.63067 0.0
C244 C 0.36192 0.26375 0.51226 0.0
C245 C 0.40616 0.27593 0.45438 0.0
H246 H 0.47615 0.3002 0.41874 0.0
H247 H 0.53531 0.32452 0.44872 0.0
H248 H 0.35141 0.32371 0.63103 0.0
H249 H 0.32504 0.28932 0.57707 0.0
H250 H 0.33467 0.24909 0.5154 0.0
H251 H 0.40429 0.26643 0.42553 0.0
Mn252 Mn 0.02333 0.26825 0.88061 0.0
Mn253 Mn 0.99786 0.32193 0.95289 0.0
C254 C 0.06846 0.30615 0.91023 0.0
C255 C 0.04496 0.21223 0.85725 0.0
C256 C 0.97986 0.34134 0.87178 0.0
O257 O 0.97266 0.2447 0.89575 0.0
O258 O 0.95989 0.2806 0.9451 0.0
C259 C 1.00782 0.26548 0.01239 0.0
N260 N 0.01692 0.29939 0.99767 0.0
C261 C 0.06039 0.31292 0.04863 0.0
C262 C 0.05154 0.27812 0.06422 0.0
C263 C 0.02523 0.25424 0.04593 0.0
C264 C 0.0427 0.32227 0.01473 0.0
H265 H 0.98739 0.24713 0.99872 0.0
C266 C 0.95237 0.25314 0.92338 0.0
O267 O 0.02613 0.23521 0.83636 0.0
O268 O 0.0501 0.22102 0.89195 0.0
N269 N 0.03201 0.36247 0.96502 0.0
C270 C 0.0334 0.39701 0.94954 0.0
C271 C 0.05856 0.42426 0.96414 0.0
C272 C 0.08011 0.41656 0.99634 0.0
C273 C 0.07529 0.38211 0.01411 0.0
C274 C 0.0506 0.35571 0.9975 0.0
H275 H 0.01396 0.40421 0.9276 0.0
O276 O 0.0737 0.29421 0.87677 0.0
O277 O 0.0367 0.29564 0.92537 0.0
O278 O 0.996 0.31323 0.85785 0.0
O279 O 0.97854 0.34739 0.90689 0.0
C280 C 0.0929 0.37355 0.04839 0.0
C281 C 0.08578 0.33886 0.06555 0.0
H282 H 0.06465 0.2695 0.09027 0.0
H283 H 0.0182 0.22733 0.05779 0.0
H284 H 0.06032 0.45152 0.95137 0.0
H285 H 0.09901 0.43783 1.00805 0.0
H286 H 0.11124 0.39396 0.06201 0.0
H287 H 0.09961 0.33258 0.09194 0.0
Mn288 Mn 0.39039 0.02192 0.25913 0.0
Mn289 Mn 0.32147 0.95512 0.26455 0.0
C290 C 0.37146 0.98884 0.20645 0.0
C291 C 0.4111 0.08326 0.2475 0.0
C292 C 0.40231 0.94502 0.29386 0.0
O293 O 0.36373 0.03402 0.30778 0.0
O294 O 0.31589 0.99091 0.30629 0.0
C295 C 0.25298 0.99984 0.25007 0.0
N296 N 0.27568 0.9713 0.2406 0.0
C297 C 0.23269 0.95278 0.1908 0.0
C298 C 0.2089 0.98202 0.20001 0.0
C299 C 0.21918 1.00573 0.22969 0.0
C300 C 0.26618 0.94847 0.21194 0.0
H301 H 0.26049 0.01785 0.27314 0.0
C302 C 0.3336 0.01885 0.32111 0.0
O303 O 0.43134 0.0606 0.26742 0.0
O304 O 0.3776 0.07133 0.23683 0.0
N305 N 0.32323 0.91923 0.2254 0.0
C306 C 0.34975 0.89294 0.21945 0.0
C307 C 0.34435 0.86777 0.18992 0.0
C308 C 0.3115 0.8695 0.16719 0.0
C309 C 0.2843 0.89639 0.17423 0.0
C310 C 0.29135 0.9209 0.20388 0.0
H311 H 0.37496 0.89134 0.23694 0.0
O312 O 0.40466 1.00515 0.20847 0.0
O313 O 0.35066 0.99178 0.23572 0.0
O314 O 0.41564 0.97652 0.28343 0.0
O315 O 0.36746 0.93506 0.28946 0.0
C316 C 0.25055 0.89992 0.15289 0.0
C317 C 0.2247 0.92801 0.16123 0.0
H318 H 0.18277 0.98661 0.18439 0.0
H319 H 0.20097 0.02837 0.23697 0.0
H320 H 0.36545 0.84705 0.18471 0.0
H321 H 0.30744 0.85005 0.14443 0.0
H322 H 0.24432 0.88139 0.12983 0.0
H323 H 0.19902 0.93063 0.14438 0.0
Mn324 Mn 0.2646 0.13877 0.51785 0.0
Mn325 Mn 0.2986 0.19147 0.44624 0.0
C326 C 0.32735 0.16268 0.5254 0.0
C327 C 0.23518 0.11882 0.57422 0.0
C328 C 0.2855 0.10886 0.44158 0.0
O329 O 0.21647 0.16053 0.49454 0.0
O330 O 0.24171 0.19452 0.44741 0.0
C331 C 0.27717 0.27001 0.43294 0.0
N332 N 0.30318 0.24558 0.44639 0.0
C333 C 0.34585 0.30263 0.46185 0.0
C334 C 0.31592 0.32527 0.45202 0.0
C335 C 0.28291 0.30906 0.43573 0.0
C336 C 0.33915 0.25731 0.45057 0.0
H337 H 0.25151 0.25943 0.41948 0.0
C338 C 0.21341 0.18307 0.46701 0.0
O339 O 0.23495 0.09935 0.54435 0.0
O340 O 0.24988 0.1521 0.57095 0.0
N341 N 0.35243 0.1891 0.4471 0.0
C342 C 0.37442 0.15835 0.44509 0.0
C343 C 0.4123 0.15892 0.45832 0.0
C344 C 0.42726 0.18858 0.47962 0.0
C345 C 0.40494 0.21916 0.48668 0.0
C346 C 0.36618 0.22121 0.46048 0.0
H347 H 0.3632 0.13279 0.43318 0.0
O348 O 0.31643 0.13012 0.53745 0.0
O349 O 0.30181 0.18028 0.50373 0.0
O350 O 0.27239 0.10352 0.47354 0.0
O351 O 0.29577 0.14051 0.43092 0.0
C352 C 0.42224 0.25655 0.50944 0.0
C353 C 0.38301 0.31643 0.49086 0.0
H354 H 0.31764 0.35488 0.45732 0.0
H355 H 0.2604 0.32706 0.42623 0.0
H356 H 0.42949 0.1347 0.4543 0.0
H357 H 0.45612 0.18756 0.49038 0.0
H358 H 0.44824 0.25258 0.52598 0.0
H359 H 0.3864 0.34574 0.49853 0.0
Mn360 Mn 0.14133 0.02563 0.77785 0.0
Mn361 Mn 0.21772 0.97407 0.75693 0.0
C362 C 0.16887 0.98752 0.82366 0.0
C363 C 0.11426 0.08106 0.79702 0.0
C364 C 0.13632 0.95096 0.73567 0.0
O365 O 0.15865 0.04896 0.72854 0.0
O366 O 0.20995 0.01436 0.71937 0.0
C367 C 0.27521 0.03424 0.76992 0.0
N368 N 0.26192 0.99916 0.7772 0.0
C369 C 0.31469 0.98775 0.81901 0.0
C370 C 0.32907 0.02362 0.81171 0.0
C371 C 0.30911 0.04704 0.78723 0.0
C372 C 0.28041 0.97676 0.80143 0.0
H373 H 0.26008 0.05236 0.75105 0.0
C374 C 0.18788 0.04084 0.70998 0.0
O375 O 0.095 0.05665 0.77755 0.0
O376 O 0.14967 0.07408 0.80439 0.0
N377 N 0.23086 0.93416 0.79 0.0
C378 C 0.21589 0.89894 0.79073 0.0
C379 C 0.23247 0.87196 0.81384 0.0
C380 C 0.26564 0.88084 0.8345 0.0
C381 C 0.28248 0.9163 0.83095 0.0
C382 C 0.2642 0.94221 0.80791 0.0
H383 H 0.19252 0.89102 0.77261 0.0
O384 O 0.13502 1.00038 0.82708 0.0
O385 O 0.18672 0.99894 0.79412 0.0
O386 O 0.12058 0.97915 0.74996 0.0
O387 O 0.17236 0.94611 0.73639 0.0
C388 C 0.31715 0.92663 0.84869 0.0
C389 C 0.33314 0.96241 0.84288 0.0
H390 H 0.3554 0.03347 0.82474 0.0
H391 H 0.31994 0.07483 0.78156 0.0
H392 H 0.22019 0.84415 0.81505 0.0
H393 H 0.27857 0.85989 0.85208 0.0
H394 H 0.33179 0.90723 0.86678 0.0
H395 H 0.35978 0.97007 0.85671 0.0
Mn396 Mn 0.26871 0.90273 0.02398 0.0
Mn397 Mn 0.23474 0.82336 0.98589 0.0
C398 C 0.21239 0.87682 0.04625 0.0
C399 C 0.30773 0.93279 0.06821 0.0
C400 C 0.23137 0.89918 0.94693 0.0
O401 O 0.31339 0.88282 0.9945 0.0
O402 O 0.29085 0.8252 0.98127 0.0
C403 C 0.26809 0.7662 0.03542 0.0
N404 N 0.23701 0.7821 0.0194 0.0
C405 C 0.19551 0.73456 0.04416 0.0
C406 C 0.22707 0.71763 0.06091 0.0
C407 C 0.26349 0.73365 0.05671 0.0
C408 C 0.20183 0.76713 0.0236 0.0
H409 H 0.29617 0.7782 0.03184 0.0
C410 C 0.31764 0.84986 0.982 0.0
O411 O 0.29731 0.94955 0.03776 0.0
O412 O 0.29761 0.89814 0.07186 0.0
N413 N 0.1809 0.81781 0.98918 0.0
C414 C 0.15335 0.83976 0.97459 0.0
C415 C 0.11516 0.82901 0.97816 0.0
C416 C 0.10558 0.79559 0.9964 0.0
C417 C 0.13446 0.77369 0.01172 0.0
C418 C 0.17208 0.78608 1.00759 0.0
H419 H 0.16041 0.86567 0.96103 0.0
O420 O 0.22172 0.91132 0.05262 0.0
O421 O 0.23709 0.85811 0.02774 0.0
O422 O 0.24189 0.91861 0.97515 0.0
O423 O 0.23048 0.86369 0.94806 0.0
C424 C 0.12742 0.7404 0.03141 0.0
C425 C 0.15796 0.72073 0.04747 0.0
H426 H 0.22366 0.69248 0.07727 0.0
H427 H 0.28798 0.7208 0.06962 0.0
H428 H 0.09343 0.84676 0.96694 0.0
H429 H 0.07604 0.78721 0.99893 0.0
H430 H 0.09861 0.73002 0.03494 0.0
H431 H 0.15217 0.6955 0.06309 0.0
Mn432 Mn 0.25218 0.39669 0.01788 0.0
Mn433 Mn 0.26684 0.31968 0.96839 0.0
C434 C 0.20157 0.37031 0.98478 0.0
C435 C 0.23698 0.42203 0.07586 0.0
C436 C 0.29557 0.39715 0.94587 0.0
O437 O 0.30391 0.37856 0.03642 0.0
O438 O 0.30289 0.32068 0.01192 0.0
C439 C 0.244 0.25978 0.02046 0.0
N440 N 0.2395 0.27735 0.98713 0.0
C441 C 0.19208 0.23218 0.96694 0.0
C442 C 0.19607 0.21375 1.00115 0.0
C443 C 0.22208 0.22768 0.02806 0.0
C444 C 0.2145 0.26421 0.96107 0.0
H445 H 0.26431 0.27006 0.04098 0.0
C446 C 0.31716 0.34587 0.03354 0.0
O447 O 0.25417 0.44178 0.05069 0.0
O448 O 0.23122 0.38731 0.06787 0.0
N449 N 0.23321 0.31552 0.92582 0.0
C450 C 0.23091 0.33775 0.89515 0.0
C451 C 0.20543 0.32823 0.86598 0.0
C452 C 0.18251 0.29595 0.86859 0.0
C453 C 0.18523 0.27351 0.9004 0.0
C454 C 0.21123 0.28436 0.92856 0.0
H455 H 0.2477 0.36304 0.89322 0.0
O456 O 0.19988 0.40404 0.99706 0.0
O457 O 0.2324 0.35261 0.99366 0.0
O458 O 0.27583 0.41528 0.96897 0.0
O459 O 0.29631 0.3617 0.94638 0.0
C460 C 0.16281 0.24103 0.90546 0.0
C461 C 0.16635 0.2203 0.93864 0.0
H462 H 0.17923 0.18897 1.00711 0.0
H463 H 0.22537 0.21359 0.05453 0.0
H464 H 0.20321 0.34595 0.8417 0.0
H465 H 0.16266 0.28885 0.84617 0.0
H466 H 0.14245 0.23199 0.88419 0.0
H467 H 0.14864 0.19563 0.9424 0.0
Mn468 Mn 0.75248 0.1432 0.01061 0.0
Mn469 Mn 0.80347 0.07459 0.97295 0.0
C470 C 0.73334 0.11755 0.9538 0.0
C471 C 0.70296 0.16235 0.04838 0.0
C472 C 0.8291 0.15607 0.97335 0.0
O473 O 0.78471 0.12489 0.05458 0.0
O474 O 0.81241 0.07529 0.02849 0.0
C475 C 0.76913 1.00584 1.0046 0.0
N476 N 0.77656 0.02775 0.97461 0.0
C477 C 0.75057 0.98105 0.93286 0.0
C478 C 0.74142 0.95865 0.96347 0.0
C479 C 0.75089 0.97106 0.99951 0.0
C480 C 0.76829 0.01568 0.93973 0.0
H481 H 0.77794 0.01441 0.03204 0.0
C482 C 0.80541 0.0961 0.05655 0.0
O483 O 0.73106 0.18461 0.04005 0.0
O484 O 0.70476 0.12844 0.03647 0.0
N485 N 0.7964 0.07124 0.92006 0.0
C486 C 0.80852 0.09538 0.8933 0.0
C487 C 0.80157 0.08686 0.85566 0.0
C488 C 0.78273 0.05341 0.84586 0.0
C489 C 0.7713 0.0286 0.8738 0.0
C490 C 0.77876 0.03871 0.91087 0.0
H491 H 0.8231 0.12114 0.90053 0.0
O492 O 0.72226 0.15024 0.96349 0.0
O493 O 0.75562 0.10095 0.97768 0.0
O494 O 0.79955 0.16914 0.98822 0.0
O495 O 0.83365 0.12133 0.96812 0.0
C496 C 0.75312 0.99409 0.86628 0.0
C497 C 0.7431 0.97019 0.89579 0.0
H498 H 0.72764 0.93166 0.9596 0.0
H499 H 0.74471 0.95361 0.02329 0.0
H500 H 0.8107 0.10608 0.83426 0.0
H501 H 0.77743 0.04693 0.8168 0.0
H502 H 0.74699 0.98552 0.8379 0.0
H503 H 0.72976 0.94346 0.88967 0.0
Mn504 Mn 0.14481 0.51305 0.26075 0.0
Mn505 Mn 0.06773 0.54015 0.30808 0.0
C506 C 0.11397 0.47025 0.29961 0.0
C507 C 0.17224 0.49047 0.20683 0.0
C508 C 0.14941 0.55823 0.3333 0.0
O509 O 0.13095 0.56213 0.235 0.0
O510 O 0.07844 0.57561 0.26635 0.0
C511 C 0.01167 0.52655 0.24674 0.0
N512 N 0.02379 0.52003 0.28233 0.0
C513 C 0.97107 0.47774 0.29253 0.0
C514 C 0.95808 0.48407 0.25601 0.0
C515 C 0.97854 0.50852 0.23299 0.0
C516 C 1.00462 0.49609 0.3045 0.0
H517 H 0.02712 0.54539 0.22894 0.0
C518 C 0.10227 0.58233 0.24066 0.0
O519 O 0.19194 0.5096 0.23122 0.0
O520 O 0.1363 0.48547 0.21322 0.0
N521 N 0.0518 0.50965 0.34897 0.0
C522 C 0.06379 0.51195 0.38514 0.0
C523 C 0.04564 0.4903 0.41232 0.0
C524 C 0.01383 0.46804 0.40244 0.0
C525 C 0.99955 0.46901 0.36583 0.0
C526 C 0.01916 0.49096 0.33992 0.0
H527 H 0.08572 0.5316 0.3935 0.0
O528 O 0.14791 0.46457 0.28794 0.0
O529 O 0.09793 0.5002 0.28644 0.0
O530 O 0.16539 0.54138 0.30676 0.0
O531 O 0.11319 0.56005 0.33654 0.0
C532 C 0.96591 0.45007 0.35433 0.0
C533 C 0.95187 0.45417 0.31759 0.0
H534 H 0.93235 0.47044 0.24542 0.0
H535 H 0.96871 0.51358 0.20476 0.0
H536 H 0.05561 0.49145 0.44096 0.0
H537 H 0.99972 0.45153 0.42349 0.0
H538 H 0.95044 0.43254 0.37363 0.0
H539 H 0.92599 0.43948 0.30904 0.0
Mn540 Mn 0.75481 0.90101 0.51408 0.0
Mn541 Mn 0.78178 0.83022 0.45929 0.0
C542 C 0.70951 0.87014 0.47676 0.0
C543 C 0.73481 0.9214 0.57287 0.0
C544 C 0.79693 0.91247 0.44092 0.0
O545 O 0.80721 0.88824 0.53531 0.0
O546 O 0.81915 0.83744 0.5012 0.0
C547 C 0.77204 0.76906 0.51397 0.0
N548 N 0.76322 0.78449 0.48033 0.0
C549 C 0.72053 0.73337 0.46503 0.0
C550 C 0.72916 0.71699 0.4995 0.0
C551 C 0.75492 0.735 0.52414 0.0
C552 C 0.73794 0.7677 0.45674 0.0
H553 H 0.79197 0.7826 0.53294 0.0
C554 C 0.82714 0.86008 0.52777 0.0
O555 O 0.75006 0.94396 0.54888 0.0
O556 O 0.73211 0.887 0.56252 0.0
N557 N 0.74829 0.81871 0.41811 0.0
C558 C 0.74712 0.83513 0.38404 0.0
C559 C 0.72248 0.82095 0.35613 0.0
C560 C 0.70124 0.78827 0.36272 0.0
C561 C 0.70592 0.7696 0.3967 0.0
C562 C 0.73015 0.78575 0.42375 0.0
H563 H 0.76636 0.85753 0.37772 0.0
O564 O 0.70298 0.9027 0.4903 0.0
O565 O 0.7423 0.85629 0.48602 0.0
O566 O 0.77911 0.92582 0.46835 0.0
O567 O 0.80051 0.87741 0.43542 0.0
C568 C 0.68855 0.73492 0.40418 0.0
C569 C 0.69555 0.71689 0.43844 0.0
H570 H 0.71623 0.69057 0.50731 0.0
H571 H 0.76173 0.72256 0.55082 0.0
H572 H 0.72086 0.83446 0.32924 0.0
H573 H 0.68269 0.77694 0.34098 0.0
H574 H 0.67041 0.72176 0.38332 0.0
H575 H 0.68188 0.69023 0.44393 0.0
Mn576 Mn 0.89539 0.0354 0.25885 0.0
Mn577 Mn 0.9685 0.02122 0.32029 0.0
C578 C 0.92134 0.08505 0.29223 0.0
C579 C 0.87214 0.04879 0.19853 0.0
C580 C 0.88573 1.00083 0.33672 0.0
O581 O 0.91396 0.98397 0.24431 0.0
O582 O 0.964 0.97901 0.28421 0.0
C583 C 0.03301 0.02608 0.2687 0.0
N584 N 0.01426 0.03986 0.29819 0.0
C585 C 0.06174 0.08847 0.30685 0.0
C586 C 0.08066 0.07556 0.27566 0.0
C587 C 0.06633 0.04407 0.25664 0.0
C588 C 0.02819 0.0698 0.31705 0.0
H589 H 0.02306 1.00113 0.25498 0.0
C590 C 0.94261 0.96667 0.2575 0.0
O591 O 0.85122 0.03216 0.22307 0.0
O592 O 0.90721 0.0559 0.2084 0.0
N593 N 0.9774 0.05987 0.35634 0.0
C594 C 0.96094 0.0637 0.38992 0.0
C595 C 0.973 0.09256 0.41388 0.0
C596 C 1.00368 0.11582 0.40408 0.0
C597 C 0.02287 0.10896 0.37115 0.0
C598 C 1.00891 0.08017 0.34809 0.0
H599 H 0.94017 0.04375 0.39899 0.0
O600 O 0.88779 0.08697 0.27689 0.0
O601 O 0.9393 0.05419 0.28701 0.0
O602 O 0.87186 0.0133 0.30611 0.0
O603 O 0.92139 1.00245 0.34521 0.0
C604 C 0.05603 0.12872 0.36095 0.0
C605 C 0.0754 0.11853 0.32873 0.0
H606 H 0.10665 0.08909 0.26659 0.0
H607 H 0.08124 0.03335 0.23307 0.0
H608 H 0.95933 0.09624 0.44024 0.0
H609 H 0.01316 0.13784 0.42273 0.0
H610 H 0.06723 0.15136 0.37801 0.0
H611 H 0.10116 0.13357 0.32142 0.0
Mn612 Mn 0.25689 0.64767 0.51325 0.0
Mn613 Mn 0.30376 0.57586 0.47622 0.0
C614 C 0.23867 0.62475 0.45492 0.0
C615 C 0.20825 0.67106 0.54911 0.0
C616 C 0.33584 0.65503 0.47972 0.0
O617 O 0.28485 0.62548 0.55818 0.0
O618 O 0.30984 0.57451 0.53199 0.0
C619 C 0.2616 0.50963 0.50421 0.0
N620 N 0.27274 0.53141 0.47527 0.0
C621 C 0.2454 0.48777 0.43107 0.0
C622 C 0.23252 0.46561 0.46053 0.0
C623 C 0.24073 0.47658 0.49728 0.0
C624 C 0.26541 0.52081 0.43974 0.0
H625 H 0.26943 0.51695 0.53224 0.0
C626 C 0.30301 0.59506 0.56026 0.0
O627 O 0.23896 0.69043 0.54283 0.0
O628 O 0.20645 0.63742 0.53615 0.0
N629 N 0.29933 0.57426 0.42301 0.0
C630 C 0.31545 0.59759 0.39759 0.0
C631 C 0.31032 0.59022 0.35948 0.0
C632 C 0.28922 0.55865 0.34785 0.0
C633 C 0.27375 0.53453 0.37448 0.0
C634 C 0.2795 0.54347 0.41209 0.0
H635 H 0.33191 0.62184 0.4062 0.0
O636 O 0.23002 0.65817 0.46477 0.0
O637 O 0.25808 0.60593 0.47948 0.0
O638 O 0.30693 0.66988 0.49389 0.0
O639 O 0.33813 0.62011 0.47402 0.0
C640 C 0.25346 0.50159 0.36515 0.0
C641 C 0.23974 0.47802 0.39345 0.0
H642 H 0.21679 0.43987 0.45524 0.0
H643 H 0.2316 0.45926 0.52022 0.0
H644 H 0.32263 0.60885 0.33912 0.0
H645 H 0.2854 0.553 0.31843 0.0
H646 H 0.24877 0.49381 0.33632 0.0
H647 H 0.22539 0.45215 0.38596 0.0
Mn648 Mn 0.38698 0.52429 0.76137 0.0
Mn649 Mn 0.46023 0.51236 0.82256 0.0
C650 C 0.41128 0.57452 0.79462 0.0
C651 C 0.3643 0.53901 0.70119 0.0
C652 C 0.37877 0.48778 0.83809 0.0
O653 O 0.40822 0.47433 0.74639 0.0
O654 O 0.45895 0.47068 0.78576 0.0
C655 C 0.5242 0.52287 0.77111 0.0
N656 N 0.50566 0.53336 0.80212 0.0
C657 C 0.55295 0.581 0.81568 0.0
C658 C 0.57256 0.57065 0.78393 0.0
C659 C 0.55804 0.54154 0.76149 0.0
C660 C 0.51921 0.56156 0.82371 0.0
H661 H 0.51331 0.50038 0.75387 0.0
C662 C 0.43791 0.45809 0.75889 0.0
O663 O 0.34341 0.52081 0.72473 0.0
O664 O 0.39906 0.5463 0.71178 0.0
N665 N 0.46554 0.55091 0.85917 0.0
C666 C 0.44373 0.55713 0.88923 0.0
C667 C 0.45372 0.58609 0.9139 0.0
C668 C 0.48675 0.60769 0.90806 0.0
C669 C 0.50969 0.59982 0.87782 0.0
C670 C 0.49801 0.57083 0.85394 0.0
H671 H 0.41913 0.5399 0.8945 0.0
O672 O 0.37728 0.57512 0.78012 0.0
O673 O 0.43008 0.5442 0.78941 0.0
O674 O 0.36377 0.50012 0.80793 0.0
O675 O 0.4143 0.49057 0.84612 0.0
C676 C 0.54374 0.61953 0.8705 0.0
C677 C 0.56541 0.61005 0.83951 0.0
H678 H 0.5987 0.58493 0.77644 0.0
H679 H 0.57297 0.53342 0.7369 0.0
H680 H 0.43619 0.59153 0.93755 0.0
H681 H 0.49446 0.62995 0.92719 0.0
H682 H 0.55344 0.64211 0.88844 0.0
H683 H 0.5914 0.62557 0.83401 0.0
Mn684 Mn 0.64118 1.00332 0.76111 0.0
Mn685 Mn 0.56377 0.02318 0.81142 0.0
C686 C 0.61339 0.95686 0.7982 0.0
C687 C 0.66825 0.98461 0.70556 0.0
C688 C 0.64482 0.04495 0.83553 0.0
O689 O 0.62471 0.05336 0.73898 0.0
O690 O 0.57139 0.06038 0.77096 0.0
C691 C 0.50695 0.00895 0.75099 0.0
N692 N 0.52007 1.00211 0.7862 0.0
C693 C 0.46759 0.95997 0.79769 0.0
C694 C 0.45338 0.96678 0.76167 0.0
C695 C 0.47329 0.9912 0.73815 0.0
C696 C 0.50166 0.97794 0.80871 0.0
H697 H 0.52202 0.02781 0.73283 0.0
C698 C 0.59451 0.07093 0.74582 0.0
O699 O 0.68763 1.00369 0.73023 0.0
O700 O 0.6327 0.97784 0.71238 0.0
N701 N 0.55082 0.99027 0.85148 0.0
C702 C 0.56549 0.99015 0.88681 0.0
C703 C 0.54885 0.96728 0.91394 0.0
C704 C 0.51594 0.9462 0.90507 0.0
C705 C 0.49939 0.94912 0.86945 0.0
C706 C 0.51769 0.97197 0.8434 0.0
H707 H 0.58861 1.00861 0.89469 0.0
O708 O 0.64725 0.95354 0.78543 0.0
O709 O 0.59562 0.98654 0.78706 0.0
O710 O 0.66134 0.03023 0.80807 0.0
O711 O 0.60864 0.04455 0.83947 0.0
C712 C 0.46493 0.93098 0.85909 0.0
C713 C 0.44915 0.93625 0.82315 0.0
H714 H 0.42722 0.95344 0.75179 0.0
H715 H 0.46259 0.99651 0.71026 0.0
H716 H 0.56087 0.96659 0.94186 0.0
H717 H 0.50296 0.92883 0.92614 0.0
H718 H 0.45028 0.91302 0.87859 0.0
H719 H 0.42267 0.92212 0.81548 0.0
Mn720 Mn 0.77456 0.64181 0.01266 0.0
Mn721 Mn 0.79782 0.7071 0.95153 0.0
C722 C 0.83124 0.67443 0.02895 0.0
C723 C 0.73974 0.61495 0.06216 0.0
C724 C 0.79938 0.6252 0.93595 0.0
O725 O 0.72587 0.65311 0.9808 0.0
O726 O 0.74236 0.70818 0.95558 0.0
C727 C 0.7712 0.7847 0.95504 0.0
N728 N 0.80082 0.76082 0.95801 0.0
C729 C 0.84267 0.81866 0.973 0.0
C730 C 0.81088 0.84038 0.96989 0.0
C731 C 0.77598 0.82358 0.95974 0.0
C732 C 0.83661 0.77399 0.95855 0.0
H733 H 0.74303 0.77404 0.94857 0.0
C734 C 0.71744 0.68323 0.96347 0.0
O735 O 0.7495 0.59635 0.03335 0.0
O736 O 0.74779 0.65044 0.06115 0.0
N737 N 0.85201 0.70621 0.94987 0.0
C738 C 0.87515 0.67639 0.94604 0.0
C739 C 0.91356 0.67772 0.95729 0.0
C740 C 0.92846 0.70666 0.97922 0.0
C741 C 0.90535 0.73568 0.989 0.0
C742 C 0.86538 0.73813 0.96442 0.0
H743 H 0.86506 0.65089 0.93384 0.0
O744 O 0.82302 0.64111 0.04055 0.0
O745 O 0.80427 0.69004 1.00703 0.0
O746 O 0.80105 0.61518 0.9696 0.0
O747 O 0.79102 0.65802 0.92835 0.0
C748 C 0.92241 0.77185 0.01367 0.0
C749 C 0.88069 0.83142 1.00116 0.0
H750 H 0.81226 0.86939 0.9779 0.0
H751 H 0.75138 0.84101 0.9575 0.0
H752 H 0.93136 0.65438 0.95124 0.0
H753 H 0.9579 0.70646 0.98825 0.0
H754 H 0.94918 0.76758 0.02886 0.0
H755 H 0.88333 0.86011 0.01111 0.0
Mn756 Mn 0.88863 0.52314 0.74271 0.0
Mn757 Mn 0.81263 0.46702 0.76185 0.0
C758 C 0.85961 0.48845 0.69551 0.0
C759 C 0.91381 0.58247 0.72686 0.0
C760 C 0.89439 0.44646 0.78108 0.0
O761 O 0.87228 0.54118 0.79345 0.0
O762 O 0.82046 0.50455 0.80204 0.0
C763 C 0.75408 0.52476 0.75403 0.0
N764 N 0.76819 0.49149 0.74345 0.0
C765 C 0.71689 0.48207 0.69895 0.0
C766 C 0.70178 0.51615 0.70949 0.0
C767 C 0.72055 0.53765 0.73705 0.0
C768 C 0.7507 0.47095 0.71648 0.0
H769 H 0.76825 0.54138 0.77528 0.0
C770 C 0.84351 0.53075 0.81217 0.0
O771 O 0.93429 0.55751 0.74346 0.0
O772 O 0.8785 0.57324 0.72026 0.0
N773 N 0.79995 0.42957 0.72565 0.0
C774 C 0.81497 0.39525 0.72228 0.0
C775 C 0.80004 0.3704 0.6955 0.0
C776 C 0.76804 0.38022 0.6741 0.0
C777 C 0.75047 0.41409 0.68074 0.0
C778 C 0.76741 0.43808 0.70719 0.0
H779 H 0.83713 0.38649 0.74086 0.0
O780 O 0.89379 0.50193 0.69193 0.0
O781 O 0.84294 0.49638 0.72645 0.0
O782 O 0.90992 0.47567 0.76702 0.0
O783 O 0.85834 0.44006 0.78059 0.0
C784 C 0.7164 0.42462 0.66278 0.0
C785 C 0.69963 0.45863 0.67187 0.0
H786 H 0.67577 0.52605 0.69665 0.0
H787 H 0.7091 0.56401 0.74531 0.0
H788 H 0.81261 0.34346 0.69196 0.0
H789 H 0.75659 0.36105 0.65352 0.0
H790 H 0.70278 0.40669 0.64209 0.0
H791 H 0.67345 0.46648 0.65788 0.0
Mn792 Mn 0.75314 0.39297 0.51519 0.0
Mn793 Mn 0.73708 0.31547 0.46495 0.0
C794 C 0.69893 0.35643 0.52938 0.0
C795 C 0.78631 0.42025 0.56562 0.0
C796 C 0.7255 0.39512 0.43536 0.0
O797 O 0.80234 0.38552 0.48658 0.0
O798 O 0.79222 0.32641 0.4698 0.0
C799 C 0.77116 0.26333 0.51936 0.0
N800 N 0.74122 0.27329 0.49715 0.0
C801 C 0.70356 0.22108 0.51817 0.0
C802 C 0.73407 0.21006 0.54102 0.0
C803 C 0.76795 0.23142 0.54178 0.0
C804 C 0.70807 0.25374 0.49728 0.0
H805 H 0.79721 0.27974 0.52012 0.0
C806 C 0.81365 0.35535 0.47246 0.0
O807 O 0.77511 0.43985 0.5372 0.0
O808 O 0.77907 0.38479 0.56425 0.0
N809 N 0.68584 0.29875 0.45605 0.0
C810 C 0.66313 0.30821 0.42645 0.0
C811 C 0.62941 0.28785 0.41894 0.0
C812 C 0.62052 0.25636 0.44042 0.0
C813 C 0.64599 0.24501 0.4685 0.0
C814 C 0.67915 0.26656 0.47463 0.0
H815 H 0.67129 0.33042 0.40795 0.0
O816 O 0.70299 0.39038 0.54104 0.0
O817 O 0.72697 0.34504 0.5095 0.0
O818 O 0.72884 0.41152 0.46676 0.0
O819 O 0.73043 0.35994 0.431 0.0
C820 C 0.64059 0.21222 0.48946 0.0
C821 C 0.66913 0.20058 0.51475 0.0
H822 H 0.73188 0.18515 0.55793 0.0
H823 H 0.79158 0.2232 0.55946 0.0
H824 H 0.61083 0.29587 0.39606 0.0
H825 H 0.59468 0.24045 0.43436 0.0
H826 H 0.61489 0.19541 0.48584 0.0
H827 H 0.66479 0.1752 0.53055 0.0
Mn828 Mn 0.64258 0.51934 0.26287 0.0
Mn829 Mn 0.71927 0.46869 0.24122 0.0
C830 C 0.6717 0.48327 0.30906 0.0
C831 C 0.61585 0.57464 0.28257 0.0
C832 C 0.63753 0.44354 0.22344 0.0
O833 O 0.65693 0.54082 0.21216 0.0
O834 O 0.70955 0.50831 0.20333 0.0
C835 C 0.77656 0.52971 0.25052 0.0
N836 N 0.76389 0.49475 0.25926 0.0
C837 C 0.81867 0.48472 0.29891 0.0
C838 C 0.83241 0.52048 0.29009 0.0
C839 C 0.81113 0.54314 0.26596 0.0
C840 C 0.78376 0.47303 0.28306 0.0
H841 H 0.76046 0.54725 0.23187 0.0
C842 C 0.68629 0.53368 0.19353 0.0
O843 O 0.59595 0.54983 0.26414 0.0
O844 O 0.65182 0.56839 0.28735 0.0
N845 N 0.73418 0.42978 0.27476 0.0
C846 C 0.71968 0.39447 0.27706 0.0
C847 C 0.73702 0.36855 0.30083 0.0
C848 C 0.77087 0.3783 0.31995 0.0
C849 C 0.78746 0.41358 0.31437 0.0
C850 C 0.76812 0.43861 0.29117 0.0
H851 H 0.69641 0.38552 0.25935 0.0
O852 O 0.63802 0.49627 0.3128 0.0
O853 O 0.68899 0.49377 0.27879 0.0
O854 O 0.62156 0.47169 0.23754 0.0
O855 O 0.67368 0.43962 0.2228 0.0
C856 C 0.82282 0.42457 0.33029 0.0
C857 C 0.83829 0.46023 0.32276 0.0
H858 H 0.85921 0.53082 0.30171 0.0
H859 H 0.82147 0.57083 0.2591 0.0
H860 H 0.72509 0.34068 0.30332 0.0
H861 H 0.78462 0.35801 0.33763 0.0
H862 H 0.8383 0.40585 0.34844 0.0
H863 H 0.86532 0.46853 0.33543 0.0
C864 C 0.11098 0.43265 0.359 0.0
C865 C 0.09492 0.44162 0.3237 0.0
C866 C 0.04476 0.39379 0.33426 0.0
C867 C 0.0608 0.38636 0.37024 0.0
N868 N 0.09533 0.4162 0.42137 0.0
N869 N 0.04993 0.42586 0.27461 0.0
C870 C 0.08987 0.41069 0.38413 0.0
C871 C 0.06244 0.42098 0.31051 0.0
N872 N 0.14715 0.44352 0.36864 0.0
N873 N 0.01081 0.37713 0.32431 0.0
H874 H 0.06235 0.44512 0.25659 0.0
H875 H 0.02886 0.40955 0.26166 0.0
H876 H 0.99518 0.36083 0.34279 0.0
H877 H 0.99581 0.38259 0.29977 0.0
H878 H 0.16057 0.43404 0.3929 0.0
H879 H 0.16463 0.45939 0.35153 0.0
H880 H 0.11508 0.43564 0.43202 0.0
H881 H 0.07606 0.4069 0.44102 0.0
C882 C 0.92702 0.8487 0.56954 0.0
C883 C 0.91927 0.82423 0.59986 0.0
C884 C 0.85079 0.82912 0.58602 0.0
C885 C 0.85887 0.85012 0.55358 0.0
N886 N 0.9046 0.87606 0.51146 0.0
N887 N 0.87372 0.78534 0.63206 0.0
C888 C 0.897 0.85867 0.5444 0.0
C889 C 0.88109 0.81298 0.60687 0.0
N890 N 0.96256 0.86405 0.56574 0.0
N891 N 0.81406 0.82469 0.59714 0.0
H892 H 0.89492 0.77183 0.64718 0.0
H893 H 0.84692 0.77308 0.63527 0.0
H894 H 0.79093 0.83515 0.58218 0.0
H895 H 0.80677 0.81336 0.62277 0.0
H896 H 0.96881 0.88516 0.54681 0.0
H897 H 0.98521 0.85829 0.58372 0.0
H898 H 0.93187 0.87913 0.50106 0.0
H899 H 0.88329 0.8852 0.49323 0.0
C900 C 0.40967 0.63036 0.83581 0.0
C901 C 0.42879 0.60977 0.80859 0.0
C902 C 0.47833 0.65877 0.80587 0.0
C903 C 0.45862 0.67932 0.83267 0.0
N904 N 0.39927 0.69145 0.86095 0.0
N905 N 0.47449 0.61028 0.75923 0.0
C906 C 0.42245 0.66701 0.84422 0.0
C907 C 0.46112 0.62572 0.79095 0.0
N908 N 0.37967 0.6148 0.85412 0.0
N909 N 0.5138 0.67016 0.79539 0.0
H910 H 0.46225 0.58669 0.74677 0.0
H911 H 0.49559 0.62278 0.7433 0.0
H912 H 0.52719 0.69435 0.80541 0.0
H913 H 0.53104 0.65433 0.77869 0.0
H914 H 0.3674 0.62728 0.87692 0.0
H915 H 0.36929 0.58797 0.84868 0.0
H916 H 0.37125 0.68514 0.8678 0.0
H917 H 0.40667 0.71962 0.86248 0.0
C918 C 0.60039 0.17704 0.0784 0.0
C919 C 0.60539 0.20758 0.10306 0.0
C920 C 0.67452 0.2013 0.09854 0.0
C921 C 0.66926 0.17584 0.06871 0.0
N922 N 0.625 0.14622 0.0248 0.0
N923 N 0.64886 0.25444 0.1292 0.0
C924 C 0.6316 0.16528 0.0572 0.0
C925 C 0.64291 0.22122 0.11139 0.0
N926 N 0.56612 0.15864 0.07566 0.0
N927 N 0.70944 0.206 0.11532 0.0
H928 H 0.62712 0.27205 0.13639 0.0
H929 H 0.67579 0.2667 0.13265 0.0
H930 H 0.73288 0.19051 0.10811 0.0
H931 H 0.71381 0.22195 0.13926 0.0
H932 H 0.56211 0.13421 0.06038 0.0
H933 H 0.54314 0.16519 0.09209 0.0
H934 H 0.59773 0.14108 0.01391 0.0
H935 H 0.64628 0.13952 1.00646 0.0
C936 C 0.07304 0.61066 0.18264 0.0
C937 C 0.09505 0.61516 0.21591 0.0
C938 C 0.09915 0.68235 0.2036 0.0
C939 C 0.07091 0.67887 0.17491 0.0
N940 N 0.02754 0.63827 0.13996 0.0
N941 N 0.12503 0.65654 0.26073 0.0
C942 C 0.05731 0.64258 0.16466 0.0
C943 C 0.10719 0.65136 0.22703 0.0
N944 N 0.06684 0.57585 0.16833 0.0
N945 N 0.11884 0.71523 0.20809 0.0
H946 H 0.13036 0.63465 0.279 0.0
H947 H 0.13117 0.68276 0.27188 0.0
H948 H 0.11491 0.73789 0.19031 0.0
H949 H 0.14191 0.71846 0.22651 0.0
H950 H 0.05413 0.57107 0.14232 0.0
H951 H 0.07767 0.55202 0.18095 0.0
H952 H 0.01379 0.61276 0.13503 0.0
H953 H 0.01422 0.66032 0.12668 0.0
C954 C 0.62772 0.84807 0.40857 0.0
C955 C 0.61263 0.81464 0.42403 0.0
C956 C 0.6619 0.81678 0.4735 0.0
C957 C 0.67814 0.84925 0.45708 0.0
N958 N 0.67864 0.89461 0.40774 0.0
N959 N 0.62035 0.76257 0.46582 0.0
C960 C 0.66162 0.86447 0.42419 0.0
C961 C 0.63122 0.79761 0.45492 0.0
N962 N 0.60844 0.86521 0.38012 0.0
N963 N 0.67469 0.80509 0.50765 0.0
H964 H 0.59864 0.74721 0.45255 0.0
H965 H 0.63493 0.74724 0.48591 0.0
H966 H 0.69663 0.81851 0.52255 0.0
H967 H 0.66168 0.78381 0.52274 0.0
H968 H 0.6153 0.89157 0.37 0.0
H969 H 0.58317 0.85451 0.36852 0.0
H970 H 0.67137 0.90442 0.38136 0.0
H971 H 0.70202 0.90864 0.4196 0.0
C972 C 0.47595 0.3634 0.72923 0.0
C973 C 0.47506 0.36743 0.68958 0.0
C974 C 0.46011 0.43361 0.6989 0.0
C975 C 0.45252 0.42691 0.73655 0.0
N976 N 0.44948 0.38355 0.78756 0.0
N977 N 0.45434 0.40902 0.63795 0.0
C978 C 0.45924 0.39119 0.75179 0.0
C979 C 0.46392 0.40318 0.67461 0.0
N980 N 0.49476 0.33478 0.74589 0.0
N981 N 0.46403 0.46928 0.68592 0.0
H982 H 0.44255 0.43385 0.62866 0.0
H983 H 0.45251 0.38948 0.61697 0.0
H984 H 0.46208 0.49266 0.70285 0.0
H985 H 0.47362 0.47535 0.65928 0.0
H986 H 0.49819 0.33252 0.77465 0.0
H987 H 0.51165 0.31653 0.73152 0.0
H988 H 0.45027 0.35683 0.79884 0.0
H989 H 0.43753 0.40331 0.80474 0.0
C990 C 0.88235 0.2376 0.92669 0.0
C991 C 0.92056 0.22764 0.93388 0.0
C992 C 0.89858 0.17439 0.97114 0.0
C993 C 0.86022 0.18205 0.96102 0.0
N994 N 0.8164 0.21724 0.9228 0.0
N995 N 0.96532 0.1831 0.95769 0.0
C996 C 0.85225 0.21279 0.93718 0.0
C997 C 0.92871 0.19486 0.95432 0.0
N998 N 0.87476 0.27092 0.91001 0.0
N999 N 0.90635 0.14887 0.99838 0.0
H1000 H 0.98844 0.19789 0.94702 0.0
H1001 H 0.97244 0.15715 0.96841 0.0
H1002 H 0.88533 0.134 0.01238 0.0
H1003 H 0.93342 0.14517 0.00985 0.0
H1004 H 0.8476 0.28179 0.90795 0.0
H1005 H 0.89604 0.28897 0.90047 0.0
H1006 H 0.80989 0.23653 0.90209 0.0
H1007 H 0.79365 0.1995 0.92891 0.0
C1008 C 0.27706 0.08821 0.3761 0.0
C1009 C 0.28812 0.07894 0.41316 0.0
C1010 C 0.31705 0.0227 0.38918 0.0
C1011 C 0.31503 0.03759 0.3526 0.0
N1012 N 0.29236 0.08539 0.31092 0.0
N1013 N 0.32106 0.03707 0.45488 0.0
C1014 C 0.29461 0.07055 0.3459 0.0
C1015 C 0.30837 0.04578 0.41989 0.0
N1016 N 0.24945 0.11381 0.36998 0.0
N1017 N 0.326 0.98636 0.39456 0.0
H1018 H 0.31527 0.05295 0.47817 0.0
H1019 H 0.33956 0.01533 0.46023 0.0
H1020 H 0.32875 0.96814 0.37236 0.0
H1021 H 0.32546 0.97345 0.42053 0.0
H1022 H 0.238 0.1196 0.3437 0.0
H1023 H 0.2351 0.12608 0.39176 0.0
H1024 H 0.28144 0.1116 0.3054 0.0
H1025 H 0.30366 0.07264 0.28772 0.0
C1026 C 0.20938 0.04244 0.64361 0.0
C1027 C 0.19742 0.0622 0.67518 0.0
C1028 C 0.20625 0.12061 0.63961 0.0
C1029 C 0.2235 0.10084 0.61038 0.0
N1030 N 0.25425 0.04337 0.59423 0.0
N1031 N 0.19532 0.12178 0.70591 0.0
C1032 C 0.22872 0.06184 0.61508 0.0
C1033 C 0.19872 0.10186 0.674 0.0
N1034 N 0.20197 1.00514 0.64029 0.0
N1035 N 0.19601 0.15671 0.63467 0.0
H1036 H 0.1932 0.10912 0.73191 0.0
H1037 H 0.1992 0.15059 0.70696 0.0
H1038 H 0.19944 0.17099 0.6097 0.0
H1039 H 0.18047 0.17103 0.65419 0.0
H1040 H 0.20786 0.9904 0.61621 0.0
H1041 H 0.186 0.99006 0.65949 0.0
H1042 H 0.26049 0.01547 0.59878 0.0
H1043 H 0.27318 0.05692 0.57659 0.0
C1044 C 0.21919 0.97705 0.87403 0.0
C1045 C 0.18612 0.96432 0.85413 0.0
C1046 C 0.1871 0.9058 0.88957 0.0
C1047 C 0.21872 0.91907 0.91167 0.0
N1048 N 0.27158 0.96265 0.91642 0.0
N1049 N 0.13146 0.92235 0.85395 0.0
C1050 C 0.23643 0.95371 0.90174 0.0
C1051 C 0.16792 0.93063 0.86527 0.0
N1052 N 0.23289 0.01238 0.8679 0.0
N1053 N 0.1766 0.86896 0.88875 0.0
H1054 H 0.11573 0.93854 0.83551 0.0
H1055 H 0.11557 0.9007 0.8657 0.0
H1056 H 0.19171 0.84774 0.90129 0.0
H1057 H 0.15598 0.85832 0.87022 0.0
H1058 H 0.25418 0.02526 0.88403 0.0
H1059 H 0.22089 0.03031 0.8483 0.0
H1060 H 0.28769 0.98585 0.90866 0.0
H1061 H 0.28706 0.94434 0.93305 0.0
C1062 C 0.36353 0.94335 0.11108 0.0
C1063 C 0.32643 0.953 0.09975 0.0
C1064 C 0.32241 0.99293 0.15455 0.0
C1065 C 0.35585 0.97653 0.16967 0.0
N1066 N 0.40788 0.93454 0.16229 0.0
N1067 N 0.26954 0.9873 0.11047 0.0
C1068 C 0.3765 0.95146 0.14779 0.0
C1069 C 0.30564 0.9782 0.12124 0.0
N1070 N 0.38715 0.92858 0.08578 0.0
N1071 N 0.30748 0.02338 0.17109 0.0
H1072 H 0.25652 0.97762 0.08597 0.0
H1073 H 0.25154 1.00249 0.12697 0.0
H1074 H 0.31954 0.03597 0.19468 0.0
H1075 H 0.2853 0.03848 0.15939 0.0
H1076 H 0.41568 0.92325 0.09136 0.0
H1077 H 0.3792 0.92713 0.05775 0.0
H1078 H 0.42151 0.91312 0.14881 0.0
H1079 H 0.41812 0.93945 0.18923 0.0
C1080 C 0.38732 0.34959 0.04823 0.0
C1081 C 0.35051 0.33592 0.05711 0.0
C1082 C 0.37808 0.29592 0.10536 0.0
C1083 C 0.41438 0.31246 0.09951 0.0
N1084 N 0.45318 0.35822 0.06792 0.0
N1085 N 0.30992 0.30217 0.09911 0.0
C1086 C 0.41897 0.34011 0.07151 0.0
C1087 C 0.34561 0.31081 0.08714 0.0
N1088 N 0.39218 0.37078 0.01699 0.0
N1089 N 0.3749 0.26477 0.12698 0.0
H1090 H 0.28555 0.31368 0.08722 0.0
H1091 H 0.3048 0.28675 0.12312 0.0
H1092 H 0.39858 0.25173 0.13847 0.0
H1093 H 0.34962 0.24953 0.12974 0.0
H1094 H 0.41871 0.37812 1.00666 0.0
H1095 H 0.36961 0.37885 0.99974 0.0
H1096 H 0.45715 0.38168 0.0513 0.0
H1097 H 0.47722 0.35126 0.08353 0.0
C1098 C 1.00069 0.90334 0.19807 0.0
C1099 C 0.98178 0.86838 0.20203 0.0
C1100 C 0.94026 0.89673 0.24784 0.0
C1101 C 0.95491 0.93253 0.23818 0.0
N1102 N 0.99305 0.96984 0.19677 0.0
N1103 N 0.93 0.83262 0.22834 0.0
C1104 C 0.98353 0.93584 0.21129 0.0
C1105 C 0.95077 0.86505 0.22665 0.0
N1106 N 0.0352 0.90538 0.18148 0.0
N1107 N 0.91653 0.89297 0.27719 0.0
H1108 H 0.93678 0.80887 0.21355 0.0
H1109 H 0.90456 0.83012 0.24251 0.0
H1110 H 0.90839 0.91563 0.293 0.0
H1111 H 0.90767 0.86723 0.28765 0.0
H1112 H 0.05151 0.92989 0.18026 0.0
H1113 H 0.04917 0.88164 0.1729 0.0
H1114 H 0.01142 0.97314 0.17459 0.0
H1115 H 0.97971 0.99424 0.20441 0.0
C1116 C 0.15882 0.72023 0.54946 0.0
C1117 C 0.17485 0.68826 0.56631 0.0
C1118 C 0.12468 0.68787 0.61288 0.0
C1119 C 0.1111 0.72189 0.59806 0.0
N1120 N 0.12093 0.77479 0.55756 0.0
N1121 N 0.17661 0.64446 0.61715 0.0
C1122 C 0.12975 0.73929 0.56783 0.0
C1123 C 0.15872 0.67276 0.59889 0.0
N1124 N 0.17006 0.73155 0.51498 0.0
N1125 N 0.10435 0.66934 0.63936 0.0
H1126 H 0.2016 0.63291 0.6078 0.0
H1127 H 0.16854 0.63455 0.6431 0.0
H1128 H 0.07927 0.67947 0.65006 0.0
H1129 H 0.11052 0.64258 0.64847 0.0
H1130 H 0.1563 0.75214 0.49971 0.0
H1131 H 0.19048 0.7179 0.49985 0.0
H1132 H 0.13656 0.79024 0.53843 0.0
H1133 H 0.10057 0.79035 0.57084 0.0
C1134 C 0.97673 0.67072 0.72444 0.0
C1135 C 0.96239 0.68933 0.69253 0.0
C1136 C 0.92081 0.63483 0.67944 0.0
C1137 C 0.93031 0.61945 0.71497 0.0
N1138 N 0.96207 0.62857 0.77471 0.0
N1139 N 0.91797 0.69014 0.64066 0.0
C1140 C 0.95685 0.639 0.73846 0.0
C1141 C 0.9335 0.67171 0.67034 0.0
N1142 N 0.0106 0.68198 0.74023 0.0
N1143 N 0.90185 0.61358 0.65332 0.0
H1144 H 0.92768 0.71634 0.63213 0.0
H1145 H 0.89379 0.68051 0.62618 0.0
H1146 H 0.89455 0.58567 0.65744 0.0
H1147 H 0.89737 0.62229 0.62596 0.0
H1148 H 0.02389 0.66742 0.7618 0.0
H1149 H 0.02742 0.70307 0.72863 0.0
H1150 H 0.97883 0.64407 0.7935 0.0
H1151 H 0.94628 0.60725 0.78712 0.0
C1152 C 0.17642 0.24037 0.45452 0.0
C1153 C 0.17616 0.20141 0.45994 0.0
C1154 C 0.10703 0.20161 0.44941 0.0
C1155 C 0.10988 0.23872 0.43569 0.0
N1156 N 0.15118 0.28918 0.41597 0.0
N1157 N 0.13995 0.14356 0.45905 0.0
C1158 C 0.14577 0.25688 0.43529 0.0
C1159 C 0.14097 0.18148 0.45694 0.0
N1160 N 0.20478 0.26195 0.46985 0.0
N1161 N 0.07213 0.18549 0.45467 0.0
H1162 H 0.16425 0.12787 0.46316 0.0
H1163 H 0.11546 0.12764 0.45334 0.0
H1164 H 0.04695 0.19951 0.44933 0.0
H1165 H 0.06842 0.15972 0.46759 0.0
H1166 H 0.20619 0.29071 0.46637 0.0
H1167 H 0.22521 0.25111 0.48811 0.0
H1168 H 0.17807 0.30144 0.41295 0.0
H1169 H 0.12924 0.30225 0.40137 0.0
C1170 C 0.60908 0.37858 0.22525 0.0
C1171 C 0.61258 0.41349 0.20698 0.0
C1172 C 0.56753 0.39118 0.15836 0.0
C1173 C 0.56646 0.35543 0.17547 0.0
N1174 N 0.59507 0.31289 0.21959 0.0
N1175 N 0.59895 0.45189 0.1536 0.0
C1176 C 0.58965 0.3485 0.20736 0.0
C1177 C 0.59271 0.41954 0.17283 0.0
N1178 N 0.62338 0.37432 0.2604 0.0
N1179 N 0.54389 0.39823 0.12872 0.0
H1180 H 0.61687 0.47329 0.16352 0.0
H1181 H 0.58873 0.45657 0.12668 0.0
H1182 H 0.52559 0.37804 0.11729 0.0
H1183 H 0.53999 0.4246 0.11743 0.0
H1184 H 0.6179 0.35108 0.27697 0.0
H1185 H 0.63823 0.39558 0.27397 0.0
H1186 H 0.615 0.3061 0.24018 0.0
H1187 H 0.58271 0.28953 0.20685 0.0
C1188 C 0.358 0.8125 0.93872 0.0
C1189 C 0.35558 0.8386 0.96817 0.0
C1190 C 0.425 0.84413 0.96872 0.0
C1191 C 0.42732 0.81285 0.94486 0.0
N1192 N 0.39304 0.75943 0.91973 0.0
N1193 N 0.38983 0.86729 0.0199 0.0
C1194 C 0.39299 0.79479 0.93307 0.0
C1195 C 0.38992 0.85141 0.98563 0.0
N1196 N 0.32759 0.80484 0.91567 0.0
N1197 N 0.4556 0.86734 0.97503 0.0
H1198 H 0.36536 0.86834 0.03564 0.0
H1199 H 0.41496 0.87404 0.03446 0.0
H1200 H 0.48095 0.86506 0.96081 0.0
H1201 H 0.45375 0.89148 0.99088 0.0
H1202 H 0.32954 0.78718 0.89283 0.0
H1203 H 0.30242 0.81959 0.91647 0.0
H1204 H 0.36791 0.74456 0.91367 0.0
H1205 H 0.4175 0.74356 0.92017 0.0
C1206 C 0.91734 0.38106 0.79348 0.0
C1207 C 0.91935 0.41969 0.80155 0.0
C1208 C 0.97001 0.40644 0.84679 0.0
C1209 C 0.96057 0.3679 0.84576 0.0
N1210 N 0.92046 0.31896 0.81899 0.0
N1211 N 0.94546 0.46836 0.84168 0.0
C1212 C 0.93274 0.35522 0.81937 0.0
C1213 C 0.94506 0.43227 0.82994 0.0
N1214 N 0.90413 0.36922 0.75967 0.0
N1215 N 1.00439 0.41824 0.86059 0.0
H1216 H 0.92654 0.48806 0.83154 0.0
H1217 H 0.96221 0.47743 0.86428 0.0
H1218 H 0.02519 0.39934 0.8681 0.0
H1219 H 0.01366 0.44597 0.8595 0.0
H1220 H 0.90441 0.34142 0.75147 0.0
H1221 H 0.89862 0.38809 0.73835 0.0
H1222 H 0.89798 0.30965 0.80186 0.0
H1223 H 0.93021 0.29919 0.83797 0.0
C1224 C 0.39661 0.16878 0.55212 0.0
C1225 C 0.35865 0.18207 0.55007 0.0
C1226 C 0.37968 0.22368 0.60249 0.0
C1227 C 0.41847 0.22285 0.5912 0.0
N1228 N 0.46317 0.18116 0.56329 0.0
N1229 N 0.31274 0.2164 0.58412 0.0
C1230 C 0.42675 0.1913 0.56883 0.0
C1231 C 0.34972 0.20747 0.57896 0.0
N1232 N 0.40475 0.13496 0.53752 0.0
N1233 N 0.37121 0.23941 0.63572 0.0
H1234 H 0.29084 0.20735 0.56635 0.0
H1235 H 0.30402 0.23496 0.60423 0.0
H1236 H 0.3915 0.25277 0.65275 0.0
H1237 H 0.34447 0.23715 0.64745 0.0
H1238 H 0.43206 0.12418 0.5389 0.0
H1239 H 0.38423 0.11773 0.5247 0.0
H1240 H 0.4869 0.19595 0.57354 0.0
H1241 H 0.4869 0.19595 0.57354 0.0
C1242 C 0.54788 0.65288 0.30424 0.0
C1243 C 0.56435 0.66771 0.33775 0.0
C1244 C 0.6082 0.61539 0.33849 0.0
C1245 C 0.59756 0.60636 0.30133 0.0
N1246 N 0.56075 0.6222 0.24628 0.0
N1247 N 0.61805 0.66512 0.38197 0.0
C1248 C 0.56841 0.62676 0.28336 0.0
C1249 C 0.59668 0.64961 0.35369 0.0
N1250 N 0.51182 0.66172 0.29323 0.0
N1251 N 0.62796 0.59085 0.36016 0.0
H1252 H 0.61412 0.69141 0.39278 0.0
H1253 H 0.6434 0.65359 0.3915 0.0
H1254 H 0.63465 0.56422 0.35136 0.0
H1255 H 0.63318 0.59515 0.38849 0.0
H1256 H 0.49808 0.64941 0.27029 0.0
H1257 H 0.49376 0.67677 0.30984 0.0
H1258 H 0.54177 0.63894 0.23159 0.0
H1259 H 0.5763 0.60475 0.22951 0.0
C1260 C 0.14188 0.81474 0.09999 0.0
C1261 C 0.10848 0.83668 0.09734 0.0
C1262 C 0.14295 0.88158 0.05829 0.0
C1263 C 0.1767 0.8611 0.06238 0.0
N1264 N 0.21086 0.81509 0.09798 0.0
N1265 N 0.0855 0.89914 0.08802 0.0
C1266 C 0.17707 0.82983 0.08672 0.0
C1267 C 0.11157 0.87262 0.08079 0.0
N1268 N 0.14036 0.77919 0.11347 0.0
N1269 N 0.14027 0.90928 0.03233 0.0
H1270 H 0.06409 0.89515 0.10731 0.0
H1271 H 0.08836 0.92656 0.07879 0.0
H1272 H 0.16207 0.91601 0.01413 0.0
H1273 H 0.11483 0.92254 0.02617 0.0
H1274 H 0.16368 0.76186 0.11416 0.0
H1275 H 0.11547 0.76525 0.12067 0.0
H1276 H 0.21308 0.79497 0.11876 0.0
H1277 H 0.23702 0.82537 0.08903 0.0
C1278 C 0.73367 0.97014 0.62366 0.0
C1279 C 0.72047 0.93494 0.60971 0.0
C1280 C 0.68053 0.92949 0.66506 0.0
C1281 C 0.68687 0.96771 0.67301 0.0
N1282 N 0.71616 0.02627 0.65533 0.0
N1283 N 0.67552 0.88263 0.61801 0.0
C1284 C 0.71247 0.98864 0.651 0.0
C1285 C 0.6924 0.91487 0.6306 0.0
N1286 N 0.76775 0.985 0.61294 0.0
N1287 N 0.66476 0.9064 0.69107 0.0
H1288 H 0.68183 0.86897 0.59372 0.0
H1289 H 0.65187 0.87073 0.63075 0.0
H1290 H 0.65751 0.91528 0.7175 0.0
H1291 H 0.66341 0.87755 0.68813 0.0
H1292 H 0.7794 0.00939 0.62441 0.0
H1293 H 0.7869 0.97025 0.59725 0.0
H1294 H 0.73217 0.04294 0.63749 0.0
H1295 H 0.70016 0.04116 0.67405 0.0
C1296 C 0.83278 0.95371 0.35039 0.0
C1297 C 0.85918 0.98158 0.36303 0.0
C1298 C 0.84366 0.9655 0.42743 0.0
C1299 C 0.81598 0.93901 0.41464 0.0
N1300 N 0.77261 0.92439 0.36398 0.0
N1301 N 0.87283 0.02483 0.41265 0.0
C1302 C 0.80709 0.93771 0.37606 0.0
C1303 C 0.86004 0.99065 0.40142 0.0
N1304 N 0.83232 0.94159 0.31446 0.0
N1305 N 0.85484 0.96672 0.46396 0.0
H1306 H 0.8787 0.04571 0.39333 0.0
H1307 H 0.87178 0.03374 0.44017 0.0
H1308 H 0.84416 0.94845 0.48392 0.0
H1309 H 0.87718 0.98395 0.47345 0.0
H1310 H 0.81524 0.91913 0.30556 0.0
H1311 H 0.85121 0.95129 0.29459 0.0
H1312 H 0.76363 0.92549 0.33619 0.0
H1313 H 0.7516 0.91697 0.38267 0.0
C1314 C 0.80838 0.05256 0.1114 0.0
C1315 C 0.82158 0.08546 0.09372 0.0
C1316 C 0.86422 0.09748 0.14756 0.0
C1317 C 0.85577 0.0612 0.16181 0.0
N1318 N 0.82496 1.0012 0.1515 0.0
N1319 N 0.86482 0.13834 0.09374 0.0
C1320 C 0.8293 0.03785 0.14207 0.0
C1321 C 0.85044 0.10762 0.11139 0.0
N1322 N 0.77454 0.03652 0.10043 0.0
N1323 N 0.883 0.1233 0.16932 0.0
H1324 H 0.85412 0.14774 0.06824 0.0
H1325 H 0.88897 0.15293 0.10326 0.0
H1326 H 0.89108 0.11846 0.19689 0.0
H1327 H 0.88662 0.15106 0.1615 0.0
H1328 H 0.76207 0.01414 0.11445 0.0
H1329 H 0.75693 0.04857 0.08024 0.0
H1330 H 0.8082 0.98257 0.1358 0.0
H1331 H 0.84139 0.98851 0.17217 0.0
C1332 C 0.67333 0.04546 0.90019 0.0
C1333 C 0.66913 0.06295 0.86503 0.0
C1334 C 0.71169 0.11395 0.8865 0.0
C1335 C 0.71292 0.09786 0.92269 0.0
N1336 N 0.68603 0.05329 0.96588 0.0
N1337 N 0.68065 0.11598 0.8255 0.0
C1338 C 0.69127 0.065 0.93011 0.0
C1339 C 0.68742 0.0978 0.85833 0.0
N1340 N 0.66132 0.00949 0.90473 0.0
N1341 N 0.73442 0.14414 0.87883 0.0
H1342 H 0.66357 0.10472 0.80414 0.0
H1343 H 0.6896 0.14325 0.82034 0.0
H1344 H 0.75254 0.15648 0.89868 0.0
H1345 H 0.73802 0.15489 0.85221 0.0
H1346 H 0.66678 0.99389 0.92864 0.0
H1347 H 0.64892 0.99428 0.88303 0.0
H1348 H 0.66723 0.03173 0.97282 0.0
H1349 H 0.69728 0.06722 0.98906 0.0
C1350 C 0.60888 0.69557 0.95436 0.0
C1351 C 0.60823 0.72101 0.92397 0.0
C1352 C 0.67492 0.70796 0.91328 0.0
C1353 C 0.6781 0.69003 0.94843 0.0
N1354 N 0.64674 0.66783 1.00382 0.0
N1355 N 0.64307 0.75499 0.87721 0.0
C1356 C 0.64463 0.6837 0.96933 0.0
C1357 C 0.64195 0.72812 0.90415 0.0
N1358 N 0.57554 0.68195 0.96821 0.0
N1359 N 0.70288 0.70444 0.88781 0.0
H1360 H 0.61994 0.77158 0.87044 0.0
H1361 H 0.66819 0.76355 0.86462 0.0
H1362 H 0.7261 0.68729 0.89226 0.0
H1363 H 0.70043 0.71453 0.86068 0.0
H1364 H 0.57422 0.66062 0.98782 0.0
H1365 H 0.54901 0.68968 0.95772 0.0
H1366 H 0.62352 0.66508 0.02113 0.0
H1367 H 0.67209 0.65993 0.01657 0.0
C1368 C 0.10486 0.15017 0.79719 0.0
C1369 C 0.09586 0.11455 0.81194 0.0
C1370 C 0.05028 0.14266 0.85383 0.0
C1371 C 0.06214 0.17851 0.84156 0.0
N1372 N 0.10587 0.21686 0.80666 0.0
N1373 N 0.06379 0.0768 0.85763 0.0
C1374 C 0.09085 0.18243 0.81461 0.0
C1375 C 0.06954 0.11074 0.84119 0.0
N1376 N 0.12547 0.15308 0.76555 0.0
N1377 N 0.01975 0.13902 0.87653 0.0
H1378 H 0.07704 0.05274 0.84892 0.0
H1379 H 0.04826 0.07295 0.8817 0.0
H1380 H 1.00488 0.16176 0.88613 0.0
H1381 H 1.00712 0.11352 0.88331 0.0
H1382 H 0.12989 0.17802 0.75132 0.0
H1383 H 0.13476 0.12983 0.75142 0.0
H1384 H 0.12973 0.22095 0.79039 0.0
H1385 H 0.09675 0.2412 0.81907 0.0
C1386 C 0.89068 0.3122 0.41717 0.0
C1387 C 0.92459 0.32776 0.43349 0.0
C1388 C 0.88598 0.3687 0.47171 0.0
C1389 C 0.85226 0.35245 0.45583 0.0
N1390 N 0.82532 0.32401 0.40028 0.0
N1391 N 0.95226 0.38343 0.46148 0.0
C1392 C 0.85556 0.32913 0.42426 0.0
C1393 C 0.92161 0.35995 0.45626 0.0
N1394 N 0.89089 0.28056 0.3963 0.0
N1395 N 0.88488 0.3916 0.50182 0.0
H1396 H 0.97769 0.38011 0.44759 0.0
H1397 H 0.95066 0.40879 0.4753 0.0
H1398 H 0.85998 0.40092 0.51316 0.0
H1399 H 0.90929 0.39988 0.51677 0.0
H1400 H 0.86597 0.26651 0.38788 0.0
H1401 H 0.91517 0.26645 0.38976 0.0
H1402 H 0.82724 0.3097 0.37524 0.0
H1403 H 0.80001 0.33825 0.40311 0.0
C1404 C 0.61413 0.91566 0.85523 0.0
C1405 C 0.59621 0.9264 0.82131 0.0
C1406 C 0.54601 0.87874 0.83186 0.0
C1407 C 0.56345 0.8693 0.86674 0.0
N1408 N 0.6042 0.89363 0.91715 0.0
N1409 N 0.5499 0.91217 0.77299 0.0
C1410 C 0.59464 0.89181 0.88015 0.0
C1411 C 0.56333 0.90631 0.80844 0.0
N1412 N 0.65053 0.927 0.86372 0.0
N1413 N 0.51101 0.86379 0.82276 0.0
H1414 H 0.56203 0.93169 0.75506 0.0
H1415 H 0.52871 0.89596 0.76008 0.0
H1416 H 0.49536 0.8475 0.84122 0.0
H1417 H 0.49515 0.87106 0.79924 0.0
H1418 H 0.66607 0.91567 0.88584 0.0
H1419 H 0.6665 0.94505 0.84732 0.0
H1420 H 0.58798 0.88224 0.93822 0.0
H1421 H 0.62484 0.91219 0.92772 0.0
C1422 C 0.98561 0.17074 0.30697 0.0
C1423 C 0.96911 0.18682 0.3388 0.0
C1424 C 0.92231 0.13478 0.34096 0.0
C1425 C 0.93892 0.119 0.30924 0.0
N1426 N 0.97999 0.12602 0.25674 0.0
N1427 N 0.92408 0.1822 0.38866 0.0
C1428 C 0.96871 0.13817 0.29072 0.0
C1429 C 0.93794 0.16838 0.35636 0.0
N1430 N 0.01933 0.18463 0.29403 0.0
N1431 N 0.89075 0.11803 0.35572 0.0
H1432 H 0.93225 0.20787 0.3997 0.0
H1433 H 0.90571 0.16762 0.40595 0.0
H1434 H 0.87982 0.09239 0.34663 0.0
H1435 H 0.87393 0.13002 0.37565 0.0
H1436 H 0.03506 0.17146 0.27392 0.0
H1437 H 0.03407 0.20716 0.30595 0.0
H1438 H 0.99802 0.1413 0.23963 0.0
H1439 H 0.96896 0.10201 0.24401 0.0
C1440 C 0.56754 0.1351 0.74479 0.0
C1441 C 0.58507 0.10616 0.72511 0.0
C1442 C 0.57918 0.1447 0.66839 0.0
C1443 C 0.555 0.16958 0.68707 0.0
N1444 N 0.51658 0.17836 0.74155 0.0
N1445 N 0.60071 0.08124 0.66485 0.0
C1446 C 0.54646 0.16199 0.72488 0.0
C1447 C 0.58917 0.11029 0.68591 0.0
N1448 N 0.57146 0.1376 0.78255 0.0
N1449 N 0.59392 0.15413 0.63478 0.0
H1450 H 0.60647 0.05506 0.67574 0.0
H1451 H 0.60063 0.08214 0.63588 0.0
H1452 H 0.58948 0.17976 0.62202 0.0
H1453 H 0.6142 0.13822 0.62181 0.0
H1454 H 0.56105 0.15992 0.79747 0.0
H1455 H 0.58914 0.12024 0.79809 0.0
H1456 H 0.50835 0.17139 0.76842 0.0
H1457 H 0.49678 0.19431 0.72707 0.0
C1458 C 0.14825 0.32281 0.98214 0.0
C1459 C 0.16778 0.35337 0.96567 0.0
C1460 C 0.11828 0.35668 0.91669 0.0
C1461 C 0.10088 0.32385 0.93107 0.0
N1462 N 0.10328 0.27157 0.97346 0.0
N1463 N 0.17312 0.39869 0.91638 0.0
C1464 C 0.1169 0.30579 0.96275 0.0
C1465 C 0.15299 0.3704 0.93292 0.0
N1466 N 0.15892 0.31076 0.01684 0.0
N1467 N 0.10123 0.37503 0.88771 0.0
H1468 H 0.19895 0.40915 0.92702 0.0
H1469 H 0.16631 0.4097 0.89037 0.0
H1470 H 0.07698 0.36474 0.8739 0.0
H1471 H 0.10937 0.40153 0.87885 0.0
H1472 H 0.14366 0.29089 0.03181 0.0
H1473 H 0.18132 0.32282 0.03224 0.0
H1474 H 0.11586 0.25563 0.99435 0.0
H1475 H 0.08125 0.25734 0.95951 0.0
C1476 C 0.39329 0.73089 0.42907 0.0
C1477 C 0.43078 0.72098 0.43944 0.0
C1478 C 0.40587 0.67104 0.47933 0.0
C1479 C 0.3682 0.67939 0.46747 0.0
N1480 N 0.3264 0.71396 0.42648 0.0
N1481 N 0.47334 0.67708 0.46768 0.0
C1482 C 0.36195 0.70863 0.44129 0.0
C1483 C 0.43722 0.6897 0.46259 0.0
N1484 N 0.3877 0.7617 0.40746 0.0
N1485 N 0.4117 0.64634 0.50775 0.0
H1486 H 0.49691 0.68984 0.45552 0.0
H1487 H 0.47956 0.65211 0.48099 0.0
H1488 H 0.3896 0.63243 0.52114 0.0
H1489 H 0.43814 0.64221 0.52044 0.0
H1490 H 0.36135 0.77377 0.40313 0.0
H1491 H 0.40998 0.77622 0.39495 0.0
H1492 H 0.32082 0.73133 0.40391 0.0
H1493 H 0.30244 0.69917 0.43494 0.0
C1494 C 0.82561 0.53839 0.87957 0.0
C1495 C 0.83248 0.55405 0.84409 0.0
C1496 C 0.82194 0.61596 0.86891 0.0
C1497 C 0.81041 0.60033 0.90407 0.0
N1498 N 0.79 0.54383 0.93586 0.0
N1499 N 0.82308 0.60606 0.80268 0.0
C1500 C 0.80916 0.56068 0.90757 0.0
C1501 C 0.82624 0.59221 0.83807 0.0
N1502 N 0.83497 0.50238 0.88677 0.0
N1503 N 0.83088 0.65292 0.86413 0.0
H1504 H 0.82483 0.58966 0.77894 0.0
H1505 H 0.81421 0.63305 0.79704 0.0
H1506 H 0.83081 0.67343 0.88419 0.0
H1507 H 0.84339 0.66302 0.83998 0.0
H1508 H 0.83388 0.49072 0.9133 0.0
H1509 H 0.84722 0.48543 0.86699 0.0
H1510 H 0.78613 0.51506 0.93768 0.0
H1511 H 0.77336 0.55822 0.95433 0.0
C1512 C 0.68989 0.59437 0.15503 0.0
C1513 C 0.69493 0.55516 0.15852 0.0
C1514 C 0.73335 0.55736 0.10267 0.0
C1515 C 0.72382 0.59513 0.09568 0.0
N1516 N 0.68311 0.64587 0.11191 0.0
N1517 N 0.70955 0.49865 0.12588 0.0
C1518 C 0.69902 0.61262 0.1208 0.0
C1519 C 0.71266 0.53644 0.12911 0.0
N1520 N 0.67854 0.61489 0.18453 0.0
N1521 N 0.76396 0.54174 0.08654 0.0
H1522 H 0.69218 0.48243 0.14293 0.0
H1523 H 0.72029 0.48442 0.10327 0.0
H1524 H 0.78393 0.55703 0.07157 0.0
H1525 H 0.77265 0.51488 0.09307 0.0
H1526 H 0.67792 0.64388 0.18386 0.0
H1527 H 0.67392 0.60377 0.21082 0.0
H1528 H 0.66247 0.65791 0.12811 0.0
H1529 H 0.68693 0.65909 0.08643 0.0
C1530 C 0.67512 0.41432 0.38916 0.0
C1531 C 0.71292 0.41801 0.4027 0.0
C1532 C 0.72266 0.46949 0.3583 0.0
C1533 C 0.68779 0.45966 0.33966 0.0
N1534 N 0.63069 0.42059 0.33842 0.0
N1535 N 0.77346 0.45024 0.40068 0.0
C1536 C 0.66427 0.4312 0.35519 0.0
C1537 C 0.73704 0.44596 0.38735 0.0
N1538 N 0.64816 0.39832 0.41095 0.0
N1539 N 0.74076 0.50235 0.35001 0.0
H1540 H 0.7847 0.43345 0.42173 0.0
H1541 H 0.79322 0.4687 0.38932 0.0
H1542 H 0.7306 0.52068 0.32981 0.0
H1543 H 0.76412 0.51286 0.36512 0.0
H1544 H 0.61916 0.39801 0.40445 0.0
H1545 H 0.65458 0.39039 0.43796 0.0
H1546 H 0.61632 0.39612 0.34585 0.0
H1547 H 0.61877 0.43385 0.31539 0.0
C1548 C 0.85467 0.43718 0.64834 0.0
C1549 C 0.84009 0.4704 0.66309 0.0
C1550 C 0.78957 0.46998 0.61504 0.0
C1551 C 0.80521 0.43772 0.59895 0.0
N1552 N 0.85659 0.39415 0.59683 0.0
N1553 N 0.79965 0.52334 0.65537 0.0
C1554 C 0.83876 0.42215 0.61476 0.0
C1555 C 0.80937 0.48832 0.64486 0.0
N1556 N 0.88332 0.41945 0.66699 0.0
N1557 N 0.75464 0.48195 0.60344 0.0
H1558 H 0.81315 0.5377 0.67722 0.0
H1559 H 0.78043 0.53953 0.64044 0.0
H1560 H 0.73762 0.46789 0.58381 0.0
H1561 H 0.74042 0.50335 0.61629 0.0
H1562 H 0.89178 0.39263 0.66082 0.0
H1563 H 0.89683 0.43046 0.69066 0.0
H1564 H 0.8835 0.38489 0.60433 0.0
H1565 H 0.84617 0.38194 0.57241 0.0
C1566 C 0.46267 0.1209 0.21597 0.0
C1567 C 0.42707 0.11957 0.23395 0.0
C1568 C 0.41887 0.18579 0.21922 0.0
C1569 C 0.45642 0.18806 0.20501 0.0
N1570 N 0.51746 0.1589 0.20031 0.0
N1571 N 0.37487 0.15284 0.25928 0.0
C1572 C 0.47931 0.15593 0.20634 0.0
C1573 C 0.40617 0.15263 0.23745 0.0
N1574 N 0.48 0.08876 0.20633 0.0
N1575 N 0.39456 0.2146 0.21418 0.0
H1576 H 0.36521 0.12942 0.27375 0.0
H1577 H 0.36085 0.17706 0.26608 0.0
H1578 H 0.40202 0.23933 0.20087 0.0
H1579 H 0.36576 0.21262 0.22011 0.0
H1580 H 0.50398 0.08843 0.18982 0.0
H1581 H 0.46825 0.06237 0.21109 0.0
H1582 H 0.53583 0.13683 0.20445 0.0
H1583 H 0.53153 0.18421 0.19561 0.0
C1584 C 0.06751 0.90043 0.66766 0.0
C1585 C 0.06706 0.86385 0.683 0.0
C1586 C 0.10749 0.88615 0.73502 0.0
C1587 C 0.11123 0.92161 0.71796 0.0
N1588 N 0.09802 0.96173 0.66577 0.0
N1589 N 0.09531 0.82039 0.72648 0.0
C1590 C 0.09196 0.92861 0.68367 0.0
C1591 C 0.08944 0.85626 0.71536 0.0
N1592 N 0.04385 0.90846 0.63828 0.0
N1593 N 0.11999 0.88127 0.77076 0.0
H1594 H 0.08407 0.79726 0.71242 0.0
H1595 H 0.11457 0.81337 0.74761 0.0
H1596 H 0.13214 0.90298 0.78615 0.0
H1597 H 0.11505 0.85707 0.78608 0.0
H1598 H 0.03968 0.93527 0.6282 0.0
H1599 H 0.02554 0.88867 0.62612 0.0
H1600 H 0.08842 0.96711 0.63877 0.0
H1601 H 0.11513 0.98313 0.67693 0.0
C1602 C 0.47984 0.8751 0.31859 0.0
C1603 C 0.46636 0.86174 0.35348 0.0
C1604 C 0.41896 0.91074 0.35201 0.0
C1605 C 0.42752 0.91921 0.3148 0.0
N1606 N 0.46433 0.9068 0.26073 0.0
N1607 N 0.41551 0.86257 0.39822 0.0
C1608 C 0.45746 0.90059 0.29743 0.0
C1609 C 0.43373 0.87833 0.36875 0.0
N1610 N 0.51483 0.86552 0.3065 0.0
N1611 N 0.398 0.93469 0.37204 0.0
H1612 H 0.42316 0.83736 0.41017 0.0
H1613 H 0.38985 0.8724 0.40784 0.0
H1614 H 0.39023 0.96045 0.36124 0.0
H1615 H 0.39329 0.93129 0.40038 0.0
H1616 H 0.52718 0.87738 0.28309 0.0
H1617 H 0.53344 0.84909 0.32184 0.0
H1618 H 0.48284 0.89083 0.24551 0.0
H1619 H 0.4495 0.92629 0.24498 0.0
C1620 C 0.85516 0.7165 0.08377 0.0
C1621 C 0.86336 0.69426 0.0522 0.0
C1622 C 0.9323 0.70389 0.06874 0.0
C1623 C 0.92405 0.73346 0.09354 0.0
N1624 N 0.87888 0.74611 0.1412 0.0
N1625 N 0.9092 0.64831 0.03565 0.0
C1626 C 0.88587 0.73247 0.10668 0.0
C1627 C 0.90174 0.68167 0.05174 0.0
N1628 N 0.8181 0.72189 0.09244 0.0
N1629 N 0.96934 0.69661 0.06152 0.0
H1630 H 0.88855 0.63226 0.0216 0.0
H1631 H 0.93538 0.63549 0.03812 0.0
H1632 H 0.99196 0.7121 0.07299 0.0
H1633 H 0.97771 0.67661 0.04269 0.0
H1634 H 0.80967 0.73898 0.11392 0.0
H1635 H 0.79546 0.71036 0.07696 0.0
H1636 H 0.85287 0.74278 0.15418 0.0
H1637 H 0.89987 0.75893 0.15787 0.0
C1638 C 0.63919 0.31541 0.60654 0.0
C1639 C 0.60592 0.30398 0.58645 0.0
C1640 C 0.63524 0.322 0.52872 0.0
C1641 C 0.66969 0.33178 0.54732 0.0
N1642 N 0.70735 0.3265 0.60376 0.0
N1643 N 0.58214 0.27857 0.52857 0.0
C1644 C 0.67273 0.32452 0.58625 0.0
C1645 C 0.60784 0.30057 0.54753 0.0
N1646 N 0.63853 0.31963 0.64416 0.0
N1647 N 0.6265 0.33658 0.49496 0.0
H1648 H 0.56262 0.26135 0.54224 0.0
H1649 H 0.58191 0.2762 0.49976 0.0
H1650 H 0.64479 0.35546 0.48251 0.0
H1651 H 0.60013 0.33241 0.48172 0.0
H1652 H 0.66106 0.3317 0.6594 0.0
H1653 H 0.61461 0.31312 0.65965 0.0
H1654 H 0.71146 0.31784 0.6312 0.0
H1655 H 0.73219 0.33257 0.58944 0.0
C1656 C 0.23841 0.47206 0.12597 0.0
C1657 C 0.22201 0.43864 0.11091 0.0
C1658 C 0.17988 0.43575 0.16452 0.0
C1659 C 0.19044 0.47267 0.17448 0.0
N1660 N 0.2257 0.52887 0.15887 0.0
N1661 N 0.16844 0.39438 0.11329 0.0
C1662 C 0.21858 0.49176 0.15359 0.0
C1663 C 0.19037 0.42191 0.12944 0.0
N1664 N 0.27366 0.48422 0.1157 0.0
N1665 N 0.16084 0.4132 0.18881 0.0
H1666 H 0.17092 0.38574 0.08597 0.0
H1667 H 0.1438 0.38386 0.12543 0.0
H1668 H 0.15477 0.42119 0.21585 0.0
H1669 H 0.15561 0.38499 0.18368 0.0
H1670 H 0.28754 0.50702 0.12815 0.0
H1671 H 0.29114 0.46874 0.09891 0.0
H1672 H 0.24374 0.54437 0.14187 0.0
H1673 H 0.21051 0.54493 0.17725 0.0
C1674 C 0.34566 0.47946 0.89884 0.0
C1675 C 0.35477 0.4652 0.86371 0.0
C1676 C 0.32791 0.40394 0.88153 0.0
C1677 C 0.31909 0.41846 0.91767 0.0
N1678 N 0.33658 0.46538 0.96348 0.0
N1679 N 0.34952 0.41606 0.81868 0.0
C1680 C 0.33256 0.45501 0.92704 0.0
C1681 C 0.34455 0.42805 0.85433 0.0
N1682 N 0.34772 0.51691 0.90482 0.0
N1683 N 0.32359 0.36686 0.87338 0.0
H1684 H 0.36358 0.43178 0.79863 0.0
H1685 H 0.337 0.39191 0.80768 0.0
H1686 H 0.3116 0.34654 0.89003 0.0
H1687 H 0.33553 0.35447 0.85042 0.0
H1688 H 0.338 0.52935 0.92887 0.0
H1689 H 0.3547 0.53563 0.88375 0.0
H1690 H 0.34928 0.49056 0.97174 0.0
H1691 H 0.33279 0.44686 0.98551 0.0
C1692 C 0.30175 0.54961 0.61364 0.0
C1693 C 0.31703 0.58253 0.59762 0.0
C1694 C 0.3582 0.59059 0.65306 0.0
C1695 C 0.34825 0.55389 0.66527 0.0
N1696 N 0.31507 0.49572 0.65149 0.0
N1697 N 0.36285 0.63328 0.60098 0.0
C1698 C 0.32125 0.53257 0.64398 0.0
C1699 C 0.34627 0.60268 0.61696 0.0
N1700 N 0.26736 0.5358 0.60144 0.0
N1701 N 0.3766 0.61503 0.67666 0.0
H1702 H 0.35382 0.64397 0.57539 0.0
H1703 H 0.38726 0.64637 0.61198 0.0
H1704 H 0.38273 0.60904 0.70445 0.0
H1705 H 0.38141 0.64295 0.67005 0.0
H1706 H 0.25352 0.5134 0.61419 0.0
H1707 H 0.25077 0.54983 0.58175 0.0
H1708 H 0.29778 0.47864 0.63461 0.0
H1709 H 0.3305 0.48131 0.67173 0.0
C1710 C 0.19822 0.60601 0.35665 0.0
C1711 C 0.17439 0.57445 0.36351 0.0
C1712 C 0.19238 0.57657 0.42981 0.0
C1713 C 0.21778 0.60686 0.42298 0.0
N1714 N 0.24641 0.65001 0.38001 0.0
N1715 N 0.15738 0.52404 0.40437 0.0
C1716 C 0.22092 0.62165 0.38638 0.0
C1717 C 0.17398 0.5582 0.39946 0.0
N1718 N 0.19889 0.62109 0.32175 0.0
N1719 N 0.18397 0.5664 0.46543 0.0
H1720 H 0.14363 0.51004 0.38265 0.0
H1721 H 0.16011 0.50843 0.42869 0.0
H1722 H 0.19563 0.5795 0.48891 0.0
H1723 H 0.16244 0.54727 0.47183 0.0
H1724 H 0.21184 0.64645 0.31521 0.0
H1725 H 0.18533 0.60851 0.29891 0.0
H1726 H 0.25299 0.66035 0.35386 0.0
H1727 H 0.26334 0.66177 0.40108 0.0
loop_
_geom_bond_atom_site_label_1
_geom_bond_atom_site_label_2
_geom_bond_distance
_geom_bond_site_symmetry_2
_ccdc_geom_bond_type
Mn0 O5 2.095 1_455 S
Mn0 O15 2.162 1_455 S
Mn0 O16 2.297 1_455 S
Mn0 O24 2.385 . S
Mn0 O25 2.209 . S
Mn0 O26 2.094 . S
Mn1 O6 2.121 1_455 S
Mn1 N8 2.257 . S
Mn1 N17 2.282 . S
Mn1 O25 2.215 . S
Mn1 O27 2.117 . S
C2 O24 1.234 . S
C2 O25 1.283 . S
C3 O15 1.281 . S
C3 O16 1.236 . S
C4 O26 1.240 . S
C4 O27 1.264 . S
O5 Mn0 2.095 1_655 S
O5 C14 1.250 . S
O6 Mn1 2.121 1_655 S
O6 C14 1.258 . S
C7 N8 1.326 . S
C7 C11 1.460 . S
C7 H13 0.929 1_455 S
N8 Mn1 2.257 . S
N8 C7 1.326 . S
N8 C12 1.362 . S
C9 C10 1.258 . S
C9 C12 1.431 . S
C9 C29 1.449 . S
C10 C9 1.258 . S
C10 C11 1.477 . S
C10 H30 0.931 . S
C11 C7 1.460 . S
C11 C10 1.477 . S
C11 H31 0.930 . S
C12 N8 1.362 . S
C12 C9 1.431 . S
C12 C22 1.476 . S
H13 C7 0.929 1_655 S
C14 O5 1.250 . S
C14 O6 1.258 . S
O15 Mn0 2.162 1_655 S
O15 C3 1.281 . S
O16 Mn0 2.297 1_655 S
O16 C3 1.236 . S
N17 Mn1 2.282 . S
N17 C18 1.328 . S
N17 C22 1.318 . S
C18 N17 1.328 . S
C18 C19 1.457 . S
C18 H23 0.929 . S
C19 C18 1.457 . S
C19 C20 1.291 . S
C19 H32 0.931 . S
C20 C19 1.291 . S
C20 C21 1.373 . S
C20 H33 0.929 . S
C21 C20 1.373 . S
C21 C22 1.396 . S
C21 C28 1.403 . S
C22 C12 1.476 . S
C22 N17 1.318 . S
C22 C21 1.396 . S
H23 C18 0.929 . S
O24 Mn0 2.385 . S
O24 C2 1.234 . S
O25 Mn0 2.209 . S
O25 Mn1 2.215 . S
O25 C2 1.283 . S
O26 Mn0 2.094 . S
O26 C4 1.240 . S
O27 Mn1 2.117 . S
O27 C4 1.264 . S
C28 C21 1.403 . S
C28 C29 1.399 . S
C28 H34 0.929 . S
C29 C9 1.449 . S
C29 C28 1.399 . S
C29 H35 0.930 . S
H30 C10 0.931 . S
H31 C11 0.930 . S
H32 C19 0.931 . S
H33 C20 0.929 . S
H34 C28 0.929 . S
H35 C29 0.930 . S
Mn36 O41 2.095 1_455 S
Mn36 O51 2.162 . S
Mn36 O52 2.297 . S
Mn36 O60 2.385 . S
Mn36 O61 2.209 . S
Mn36 O62 2.094 1_455 S
Mn37 O42 2.121 . S
Mn37 N44 2.257 . S
Mn37 N53 2.282 . S
Mn37 O61 2.215 1_655 S
Mn37 O63 2.117 . S
C38 O60 1.234 . S
C38 O61 1.283 . S
C39 O51 1.281 . S
C39 O52 1.236 . S
C40 O62 1.240 . S
C40 O63 1.264 . S
O41 Mn36 2.095 1_655 S
O41 C50 1.250 . S
O42 Mn37 2.121 . S
O42 C50 1.258 . S
C43 N44 1.326 . S
C43 C47 1.460 . S
C43 H49 0.929 . S
N44 Mn37 2.257 . S
N44 C43 1.326 . S
N44 C48 1.362 . S
C45 C46 1.258 . S
C45 C48 1.431 . S
C45 C65 1.449 . S
C46 C45 1.258 . S
C46 C47 1.477 . S
C46 H66 0.931 . S
C47 C43 1.460 . S
C47 C46 1.477 . S
C47 H67 0.930 . S
C48 N44 1.362 . S
C48 C45 1.431 . S
C48 C58 1.476 . S
H49 C43 0.929 . S
C50 O41 1.250 . S
C50 O42 1.258 . S
O51 Mn36 2.162 . S
O51 C39 1.281 . S
O52 Mn36 2.297 . S
O52 C39 1.236 . S
N53 Mn37 2.282 . S
N53 C54 1.328 . S
N53 C58 1.318 . S
C54 N53 1.328 . S
C54 C55 1.457 . S
C54 H59 0.929 . S
C55 C54 1.457 . S
C55 C56 1.291 . S
C55 H68 0.931 . S
C56 C55 1.291 . S
C56 C57 1.373 . S
C56 H69 0.929 . S
C57 C56 1.373 . S
C57 C58 1.396 . S
C57 C64 1.403 . S
C58 C48 1.476 . S
C58 N53 1.318 . S
C58 C57 1.396 . S
H59 C54 0.929 . S
O60 Mn36 2.385 . S
O60 C38 1.234 . S
O61 Mn36 2.209 . S
O61 Mn37 2.215 1_455 S
O61 C38 1.283 . S
O62 Mn36 2.094 1_655 S
O62 C40 1.240 . S
O63 Mn37 2.117 . S
O63 C40 1.264 . S
C64 C57 1.403 . S
C64 C65 1.399 . S
C64 H70 0.929 . S
C65 C45 1.449 . S
C65 C64 1.399 . S
C65 H71 0.930 . S
H66 C46 0.931 . S
H67 C47 0.930 . S
H68 C55 0.931 . S
H69 C56 0.929 . S
H70 C64 0.929 . S
H71 C65 0.930 . S
Mn72 O77 2.095 . S
Mn72 O87 2.162 . S
Mn72 O88 2.297 . S
Mn72 O96 2.385 . S
Mn72 O97 2.209 . S
Mn72 O98 2.094 . S
Mn73 O78 2.121 . S
Mn73 N80 2.257 . S
Mn73 N89 2.282 . S
Mn73 O97 2.215 . S
Mn73 O99 2.117 . S
C74 O96 1.234 . S
C74 O97 1.283 . S
C75 O87 1.281 . S
C75 O88 1.236 . S
C76 O98 1.240 . S
C76 O99 1.264 . S
O77 Mn72 2.095 . S
O77 C86 1.250 . S
O78 Mn73 2.121 . S
O78 C86 1.258 . S
C79 N80 1.326 1_554 S
C79 C83 1.460 . S
C79 H85 0.929 . S
N80 Mn73 2.257 . S
N80 C79 1.326 1_556 S
N80 C84 1.362 1_556 S
C81 C82 1.258 . S
C81 C84 1.431 . S
C81 C101 1.449 . S
C82 C81 1.258 . S
C82 C83 1.477 . S
C82 H102 0.931 . S
C83 C79 1.460 . S
C83 C82 1.477 . S
C83 H103 0.930 . S
C84 N80 1.362 1_554 S
C84 C81 1.431 . S
C84 C94 1.476 1_554 S
H85 C79 0.929 . S
C86 O77 1.250 . S
C86 O78 1.258 . S
O87 Mn72 2.162 . S
O87 C75 1.281 . S
O88 Mn72 2.297 . S
O88 C75 1.236 . S
N89 Mn73 2.282 . S
N89 C90 1.328 . S
N89 C94 1.318 . S
C90 N89 1.328 . S
C90 C91 1.457 . S
C90 H95 0.929 . S
C91 C90 1.457 . S
C91 C92 1.291 . S
C91 H104 0.931 . S
C92 C91 1.291 . S
C92 C93 1.373 . S
C92 H105 0.929 . S
C93 C92 1.373 . S
C93 C94 1.396 . S
C93 C100 1.403 1_556 S
C94 C84 1.476 1_556 S
C94 N89 1.318 . S
C94 C93 1.396 . S
H95 C90 0.929 . S
O96 Mn72 2.385 . S
O96 C74 1.234 . S
O97 Mn72 2.209 . S
O97 Mn73 2.215 . S
O97 C74 1.283 . S
O98 Mn72 2.094 . S
O98 C76 1.240 . S
O99 Mn73 2.117 . S
O99 C76 1.264 . S
C100 C93 1.403 1_554 S
C100 C101 1.399 . S
C100 H106 0.929 . S
C101 C81 1.449 . S
C101 C100 1.399 . S
C101 H107 0.930 . S
H102 C82 0.931 . S
H103 C83 0.930 . S
H104 C91 0.931 . S
H105 C92 0.929 . S
H106 C100 0.929 . S
H107 C101 0.930 . S
Mn108 O113 2.095 . S
Mn108 O123 2.162 . S
Mn108 O124 2.297 . S
Mn108 O132 2.385 . S
Mn108 O133 2.209 . S
Mn108 O134 2.094 . S
Mn109 O114 2.121 . S
Mn109 N116 2.257 . S
Mn109 N125 2.282 . S
Mn109 O133 2.215 . S
Mn109 O135 2.117 . S
C110 O132 1.234 . S
C110 O133 1.283 . S
C111 O123 1.281 . S
C111 O124 1.236 . S
C112 O134 1.240 . S
C112 O135 1.264 . S
O113 Mn108 2.095 . S
O113 C122 1.250 . S
O114 Mn109 2.121 . S
O114 C122 1.258 . S
C115 N116 1.326 . S
C115 C119 1.460 . S
C115 H121 0.929 . S
N116 Mn109 2.257 . S
N116 C115 1.326 . S
N116 C120 1.362 . S
C117 C118 1.258 . S
C117 C120 1.431 . S
C117 C137 1.449 . S
C118 C117 1.258 . S
C118 C119 1.477 . S
C118 H138 0.931 . S
C119 C115 1.460 . S
C119 C118 1.477 . S
C119 H139 0.930 . S
C120 N116 1.362 . S
C120 C117 1.431 . S
C120 C130 1.476 . S
H121 C115 0.929 . S
C122 O113 1.250 . S
C122 O114 1.258 . S
O123 Mn108 2.162 . S
O123 C111 1.281 . S
O124 Mn108 2.297 . S
O124 C111 1.236 . S
N125 Mn109 2.282 . S
N125 C126 1.328 . S
N125 C130 1.318 . S
C126 N125 1.328 . S
C126 C127 1.457 . S
C126 H131 0.929 . S
C127 C126 1.457 . S
C127 C128 1.291 . S
C127 H140 0.931 . S
C128 C127 1.291 . S
C128 C129 1.373 . S
C128 H141 0.929 . S
C129 C128 1.373 . S
C129 C130 1.396 . S
C129 C136 1.403 . S
C130 C120 1.476 . S
C130 N125 1.318 . S
C130 C129 1.396 . S
H131 C126 0.929 . S
O132 Mn108 2.385 . S
O132 C110 1.234 . S
O133 Mn108 2.209 . S
O133 Mn109 2.215 . S
O133 C110 1.283 . S
O134 Mn108 2.094 . S
O134 C112 1.240 . S
O135 Mn109 2.117 . S
O135 C112 1.264 . S
C136 C129 1.403 . S
C136 C137 1.399 . S
C136 H142 0.929 . S
C137 C117 1.449 . S
C137 C136 1.399 . S
C137 H143 0.930 . S
H138 C118 0.931 . S
H139 C119 0.930 . S
H140 C127 0.931 . S
H141 C128 0.929 . S
H142 C136 0.929 . S
H143 C137 0.930 . S
Mn144 O149 2.095 . S
Mn144 O159 2.162 . S
Mn144 O160 2.297 . S
Mn144 O168 2.385 1_455 S
Mn144 O169 2.209 1_455 S
Mn144 O170 2.094 1_455 S
Mn145 O150 2.121 1_655 S
Mn145 N152 2.257 . S
Mn145 N161 2.282 . S
Mn145 O169 2.215 . S
Mn145 O171 2.117 . S
C146 O168 1.234 . S
C146 O169 1.283 . S
C147 O159 1.281 . S
C147 O160 1.236 . S
C148 O170 1.240 . S
C148 O171 1.264 . S
O149 Mn144 2.095 . S
O149 C158 1.250 . S
O150 Mn145 2.121 1_455 S
O150 C158 1.258 . S
C151 N152 1.326 1_556 S
C151 C155 1.460 . S
C151 H157 0.929 1_655 S
N152 Mn145 2.257 . S
N152 C151 1.326 1_554 S
N152 C156 1.368 . S
C153 C154 1.258 . S
C153 C156 1.413 1_556 S
C153 C173 1.449 . S
C154 C153 1.258 . S
C154 C155 1.477 . S
C154 H174 0.931 . S
C155 C151 1.460 . S
C155 C154 1.477 . S
C155 H175 0.920 1_655 S
C156 N152 1.368 . S
C156 C153 1.413 1_554 S
C156 C166 1.490 . S
H157 C151 0.929 1_455 S
C158 O149 1.250 . S
C158 O150 1.258 . S
O159 Mn144 2.162 . S
O159 C147 1.281 . S
O160 Mn144 2.297 . S
O160 C147 1.236 . S
N161 Mn145 2.282 . S
N161 C162 1.328 . S
N161 C166 1.318 . S
C162 N161 1.328 . S
C162 C163 1.457 . S
C162 H167 0.929 . S
C163 C162 1.457 . S
C163 C164 1.291 . S
C163 H176 0.931 . S
C164 C163 1.291 . S
C164 C165 1.373 . S
C164 H177 0.929 . S
C165 C164 1.373 . S
C165 C166 1.396 . S
C165 C172 1.403 1_554 S
C166 C156 1.490 . S
C166 N161 1.318 . S
C166 C165 1.396 . S
H167 C162 0.929 . S
O168 Mn144 2.385 1_655 S
O168 C146 1.234 . S
O169 Mn144 2.209 1_655 S
O169 Mn145 2.215 . S
O169 C146 1.283 . S
O170 Mn144 2.094 1_655 S
O170 C148 1.240 . S
O171 Mn145 2.117 . S
O171 C148 1.264 . S
C172 C165 1.403 1_556 S
C172 C173 1.399 . S
C172 H178 0.929 . S
C173 C153 1.449 . S
C173 C172 1.399 . S
C173 H179 0.930 . S
H174 C154 0.931 . S
H175 C155 0.920 1_455 S
H176 C163 0.931 . S
H177 C164 0.929 . S
H178 C172 0.929 . S
H179 C173 0.930 . S
Mn180 O185 2.095 . S
Mn180 O195 2.162 . S
Mn180 O196 2.297 . S
Mn180 O204 2.385 . S
Mn180 O205 2.209 . S
Mn180 O206 2.094 . S
Mn181 O186 2.121 . S
Mn181 N188 2.257 . S
Mn181 N197 2.282 . S
Mn181 O205 2.215 . S
Mn181 O207 2.117 . S
C182 O204 1.234 . S
C182 O205 1.283 . S
C183 O195 1.281 . S
C183 O196 1.236 . S
C184 O206 1.240 . S
C184 O207 1.264 . S
O185 Mn180 2.095 . S
O185 C194 1.250 . S
O186 Mn181 2.121 . S
O186 C194 1.258 . S
C187 N188 1.326 . S
C187 C191 1.460 . S
C187 H193 0.929 . S
N188 Mn181 2.257 . S
N188 C187 1.326 . S
N188 C192 1.362 . S
C189 C190 1.258 . S
C189 C192 1.431 . S
C189 C209 1.449 . S
C190 C189 1.258 . S
C190 C191 1.477 . S
C190 H210 0.931 . S
C191 C187 1.460 . S
C191 C190 1.477 . S
C191 H211 0.930 . S
C192 N188 1.362 . S
C192 C189 1.431 . S
C192 C202 1.476 . S
H193 C187 0.929 . S
C194 O185 1.250 . S
C194 O186 1.258 . S
O195 Mn180 2.162 . S
O195 C183 1.281 . S
O196 Mn180 2.297 . S
O196 C183 1.236 . S
N197 Mn181 2.282 . S
N197 C198 1.328 . S
N197 C202 1.318 . S
C198 N197 1.328 . S
C198 C199 1.457 . S
C198 H203 0.929 . S
C199 C198 1.457 . S
C199 C200 1.291 . S
C199 H212 0.931 . S
C200 C199 1.291 . S
C200 C201 1.373 . S
C200 H213 0.929 . S
C201 C200 1.373 . S
C201 C202 1.396 . S
C201 C208 1.403 . S
C202 C192 1.476 . S
C202 N197 1.318 . S
C202 C201 1.396 . S
H203 C198 0.929 . S
O204 Mn180 2.385 . S
O204 C182 1.234 . S
O205 Mn180 2.209 . S
O205 Mn181 2.215 . S
O205 C182 1.283 . S
O206 Mn180 2.094 . S
O206 C184 1.240 . S
O207 Mn181 2.117 . S
O207 C184 1.264 . S
C208 C201 1.403 . S
C208 C209 1.399 . S
C208 H214 0.929 . S
C209 C189 1.449 . S
C209 C208 1.399 . S
C209 H215 0.930 . S
H210 C190 0.931 . S
H211 C191 0.930 . S
H212 C199 0.931 . S
H213 C200 0.929 . S
H214 C208 0.929 . S
H215 C209 0.930 . S
Mn216 O221 2.095 . S
Mn216 O231 2.162 . S
Mn216 O232 2.297 . S
Mn216 O240 2.385 . S
Mn216 O241 2.209 . S
Mn216 O242 2.094 . S
Mn217 O222 2.121 . S
Mn217 N224 2.257 . S
Mn217 N233 2.282 . S
Mn217 O241 2.215 . S
Mn217 O243 2.117 . S
C218 O240 1.234 . S
C218 O241 1.283 . S
C219 O231 1.281 . S
C219 O232 1.236 . S
C220 O242 1.240 . S
C220 O243 1.264 . S
O221 Mn216 2.095 . S
O221 C230 1.250 . S
O222 Mn217 2.121 . S
O222 C230 1.258 . S
C223 N224 1.326 . S
C223 C227 1.460 . S
C223 H229 0.929 . S
N224 Mn217 2.257 . S
N224 C223 1.326 . S
N224 C228 1.362 . S
C225 C226 1.258 . S
C225 C228 1.431 . S
C225 C245 1.449 . S
C226 C225 1.258 . S
C226 C227 1.477 . S
C226 H246 0.931 . S
C227 C223 1.460 . S
C227 C226 1.477 . S
C227 H247 0.930 . S
C228 N224 1.362 . S
C228 C225 1.431 . S
C228 C238 1.476 . S
H229 C223 0.929 . S
C230 O221 1.250 . S
C230 O222 1.258 . S
O231 Mn216 2.162 . S
O231 C219 1.281 . S
O232 Mn216 2.297 . S
O232 C219 1.236 . S
N233 Mn217 2.282 . S
N233 C234 1.328 . S
N233 C238 1.318 . S
C234 N233 1.328 . S
C234 C235 1.457 . S
C234 H239 0.929 . S
C235 C234 1.457 . S
C235 C236 1.291 . S
C235 H248 0.931 . S
C236 C235 1.291 . S
C236 C237 1.373 . S
C236 H249 0.929 . S
C237 C236 1.373 . S
C237 C238 1.396 . S
C237 C244 1.403 . S
C238 C228 1.476 . S
C238 N233 1.318 . S
C238 C237 1.396 . S
H239 C234 0.929 . S
O240 Mn216 2.385 . S
O240 C218 1.234 . S
O241 Mn216 2.209 . S
O241 Mn217 2.215 . S
O241 C218 1.283 . S
O242 Mn216 2.094 . S
O242 C220 1.240 . S
O243 Mn217 2.117 . S
O243 C220 1.264 . S
C244 C237 1.403 . S
C244 C245 1.399 . S
C244 H250 0.929 . S
C245 C225 1.449 . S
C245 C244 1.399 . S
C245 H251 0.930 . S
H246 C226 0.931 . S
H247 C227 0.930 . S
H248 C235 0.931 . S
H249 C236 0.929 . S
H250 C244 0.929 . S
H251 C245 0.930 . S
Mn252 O257 2.095 1_455 S
Mn252 O267 2.162 . S
Mn252 O268 2.297 . S
Mn252 O276 2.385 . S
Mn252 O277 2.209 . S
Mn252 O278 2.094 1_455 S
Mn253 O258 2.121 . S
Mn253 N260 2.257 1_656 S
Mn253 N269 2.282 1_655 S
Mn253 O277 2.215 1_655 S
Mn253 O279 2.117 . S
C254 O276 1.234 . S
C254 O277 1.283 . S
C255 O267 1.281 . S
C255 O268 1.236 . S
C256 O278 1.240 . S
C256 O279 1.264 . S
O257 Mn252 2.095 1_655 S
O257 C266 1.250 . S
O258 Mn253 2.121 . S
O258 C266 1.258 . S
C259 N260 1.326 1_655 S
C259 C263 1.460 1_655 S
C259 H265 0.929 . S
N260 Mn253 2.257 1_454 S
N260 C259 1.326 1_455 S
N260 C264 1.362 . S
C261 C262 1.258 . S
C261 C264 1.431 . S
C261 C281 1.449 . S
C262 C261 1.258 . S
C262 C263 1.477 . S
C262 H282 0.931 . S
C263 C259 1.460 1_455 S
C263 C262 1.477 . S
C263 H283 0.930 . S
C264 N260 1.362 . S
C264 C261 1.431 . S
C264 C274 1.476 1_554 S
H265 C259 0.929 . S
C266 O257 1.250 . S
C266 O258 1.258 . S
O267 Mn252 2.162 . S
O267 C255 1.281 . S
O268 Mn252 2.297 . S
O268 C255 1.236 . S
N269 Mn253 2.282 1_455 S
N269 C270 1.328 . S
N269 C274 1.318 . S
C270 N269 1.328 . S
C270 C271 1.457 . S
C270 H275 0.929 . S
C271 C270 1.457 . S
C271 C272 1.291 . S
C271 H284 0.931 . S
C272 C271 1.291 . S
C272 C273 1.373 . S
C272 H285 0.929 . S
C273 C272 1.373 . S
C273 C274 1.396 . S
C273 C280 1.403 1_556 S
C274 C264 1.476 1_556 S
C274 N269 1.318 . S
C274 C273 1.396 . S
H275 C270 0.929 . S
O276 Mn252 2.385 . S
O276 C254 1.234 . S
O277 Mn252 2.209 . S
O277 Mn253 2.215 1_455 S
O277 C254 1.283 . S
O278 Mn252 2.094 1_655 S
O278 C256 1.240 . S
O279 Mn253 2.117 . S
O279 C256 1.264 . S
C280 C273 1.403 1_554 S
C280 C281 1.399 . S
C280 H286 0.929 . S
C281 C261 1.449 . S
C281 C280 1.399 . S
C281 H287 0.930 . S
H282 C262 0.931 . S
H283 C263 0.930 . S
H284 C271 0.931 . S
H285 C272 0.929 . S
H286 C280 0.929 . S
H287 C281 0.930 . S
Mn288 O293 2.095 . S
Mn288 O303 2.162 . S
Mn288 O304 2.297 . S
Mn288 O312 2.385 1_545 S
Mn288 O313 2.209 1_545 S
Mn288 O314 2.094 1_545 S
Mn289 O294 2.121 1_565 S
Mn289 N296 2.257 . S
Mn289 N305 2.282 . S
Mn289 O313 2.215 . S
Mn289 O315 2.117 . S
C290 O312 1.234 . S
C290 O313 1.283 . S
C291 O303 1.281 . S
C291 O304 1.236 . S
C292 O314 1.240 . S
C292 O315 1.264 . S
O293 Mn288 2.095 . S
O293 C302 1.250 . S
O294 Mn289 2.121 1_545 S
O294 C302 1.258 . S
C295 N296 1.326 . S
C295 C299 1.460 . S
C295 H301 0.924 1_565 S
N296 Mn289 2.257 . S
N296 C295 1.326 . S
N296 C300 1.362 . S
C297 C298 1.258 . S
C297 C300 1.431 . S
C297 C317 1.449 . S
C298 C297 1.258 . S
C298 C299 1.477 . S
C298 H318 0.931 . S
C299 C295 1.460 . S
C299 C298 1.477 . S
C299 H319 0.930 . S
C300 N296 1.362 . S
C300 C297 1.431 . S
C300 C310 1.476 . S
H301 C295 0.924 1_545 S
C302 O293 1.250 . S
C302 O294 1.258 . S
O303 Mn288 2.162 . S
O303 C291 1.281 . S
O304 Mn288 2.297 . S
O304 C291 1.236 . S
N305 Mn289 2.282 . S
N305 C306 1.328 . S
N305 C310 1.318 . S
C306 N305 1.328 . S
C306 C307 1.457 . S
C306 H311 0.929 . S
C307 C306 1.457 . S
C307 C308 1.291 . S
C307 H320 0.931 . S
C308 C307 1.291 . S
C308 C309 1.373 . S
C308 H321 0.929 . S
C309 C308 1.373 . S
C309 C310 1.396 . S
C309 C316 1.403 . S
C310 C300 1.476 . S
C310 N305 1.318 . S
C310 C309 1.396 . S
H311 C306 0.929 . S
O312 Mn288 2.385 1_565 S
O312 C290 1.234 . S
O313 Mn288 2.209 1_565 S
O313 Mn289 2.215 . S
O313 C290 1.283 . S
O314 Mn288 2.094 1_565 S
O314 C292 1.240 . S
O315 Mn289 2.117 . S
O315 C292 1.264 . S
C316 C309 1.403 . S
C316 C317 1.399 . S
C316 H322 0.929 . S
C317 C297 1.449 . S
C317 C316 1.399 . S
C317 H323 0.930 . S
H318 C298 0.931 . S
H319 C299 0.930 . S
H320 C307 0.931 . S
H321 C308 0.929 . S
H322 C316 0.929 . S
H323 C317 0.930 . S
Mn324 O329 2.095 . S
Mn324 O339 2.162 . S
Mn324 O340 2.297 . S
Mn324 O348 2.385 . S
Mn324 O349 2.209 . S
Mn324 O350 2.094 . S
Mn325 O330 2.121 . S
Mn325 N332 2.257 . S
Mn325 N341 2.282 . S
Mn325 O349 2.215 . S
Mn325 O351 2.117 . S
C326 O348 1.234 . S
C326 O349 1.283 . S
C327 O339 1.281 . S
C327 O340 1.236 . S
C328 O350 1.240 . S
C328 O351 1.264 . S
O329 Mn324 2.095 . S
O329 C338 1.250 . S
O330 Mn325 2.121 . S
O330 C338 1.258 . S
C331 N332 1.326 . S
C331 C335 1.460 . S
C331 H337 0.929 . S
N332 Mn325 2.257 . S
N332 C331 1.326 . S
N332 C336 1.362 . S
C333 C334 1.258 . S
C333 C336 1.431 . S
C333 C353 1.449 . S
C334 C333 1.258 . S
C334 C335 1.477 . S
C334 H354 0.931 . S
C335 C331 1.460 . S
C335 C334 1.477 . S
C335 H355 0.930 . S
C336 N332 1.362 . S
C336 C333 1.431 . S
C336 C346 1.476 . S
H337 C331 0.929 . S
C338 O329 1.250 . S
C338 O330 1.258 . S
O339 Mn324 2.162 . S
O339 C327 1.281 . S
O340 Mn324 2.297 . S
O340 C327 1.236 . S
N341 Mn325 2.282 . S
N341 C342 1.328 . S
N341 C346 1.318 . S
C342 N341 1.328 . S
C342 C343 1.457 . S
C342 H347 0.929 . S
C343 C342 1.457 . S
C343 C344 1.291 . S
C343 H356 0.931 . S
C344 C343 1.291 . S
C344 C345 1.373 . S
C344 H357 0.929 . S
C345 C344 1.373 . S
C345 C346 1.396 . S
C345 C352 1.403 . S
C346 C336 1.476 . S
C346 N341 1.318 . S
C346 C345 1.396 . S
H347 C342 0.929 . S
O348 Mn324 2.385 . S
O348 C326 1.234 . S
O349 Mn324 2.209 . S
O349 Mn325 2.215 . S
O349 C326 1.283 . S
O350 Mn324 2.094 . S
O350 C328 1.240 . S
O351 Mn325 2.117 . S
O351 C328 1.264 . S
C352 C345 1.403 . S
C352 C353 1.399 . S
C352 H358 0.929 . S
C353 C333 1.449 . S
C353 C352 1.399 . S
C353 H359 0.930 . S
H354 C334 0.931 . S
H355 C335 0.930 . S
H356 C343 0.931 . S
H357 C344 0.929 . S
H358 C352 0.929 . S
H359 C353 0.930 . S
Mn360 O365 2.095 . S
Mn360 O375 2.162 . S
Mn360 O376 2.297 . S
Mn360 O384 2.385 1_545 S
Mn360 O385 2.209 1_545 S
Mn360 O386 2.094 1_545 S
Mn361 O366 2.121 1_565 S
Mn361 N368 2.257 . S
Mn361 N377 2.282 . S
Mn361 O385 2.215 . S
Mn361 O387 2.117 . S
C362 O384 1.234 . S
C362 O385 1.283 . S
C363 O375 1.281 . S
C363 O376 1.236 . S
C364 O386 1.240 . S
C364 O387 1.264 . S
O365 Mn360 2.095 . S
O365 C374 1.250 . S
O366 Mn361 2.121 1_545 S
O366 C374 1.258 . S
C367 N368 1.326 . S
C367 C371 1.460 . S
C367 H373 0.929 . S
N368 Mn361 2.257 . S
N368 C367 1.326 . S
N368 C372 1.362 . S
C369 C370 1.258 . S
C369 C372 1.431 . S
C369 C389 1.449 . S
C370 C369 1.258 . S
C370 C371 1.477 . S
C370 H390 0.931 . S
C371 C367 1.460 . S
C371 C370 1.477 . S
C371 H391 0.930 . S
C372 N368 1.362 . S
C372 C369 1.431 . S
C372 C382 1.476 . S
H373 C367 0.929 . S
C374 O365 1.250 . S
C374 O366 1.258 . S
O375 Mn360 2.162 . S
O375 C363 1.281 . S
O376 Mn360 2.297 . S
O376 C363 1.236 . S
N377 Mn361 2.282 . S
N377 C378 1.328 . S
N377 C382 1.318 . S
C378 N377 1.328 . S
C378 C379 1.457 . S
C378 H383 0.929 . S
C379 C378 1.457 . S
C379 C380 1.291 . S
C379 H392 0.931 . S
C380 C379 1.291 . S
C380 C381 1.373 . S
C380 H393 0.929 . S
C381 C380 1.373 . S
C381 C382 1.396 . S
C381 C388 1.403 . S
C382 C372 1.476 . S
C382 N377 1.318 . S
C382 C381 1.396 . S
H383 C378 0.929 . S
O384 Mn360 2.385 1_565 S
O384 C362 1.234 . S
O385 Mn360 2.209 1_565 S
O385 Mn361 2.215 . S
O385 C362 1.283 . S
O386 Mn360 2.094 1_565 S
O386 C364 1.240 . S
O387 Mn361 2.117 . S
O387 C364 1.264 . S
C388 C381 1.403 . S
C388 C389 1.399 . S
C388 H394 0.929 . S
C389 C369 1.449 . S
C389 C388 1.399 . S
C389 H395 0.930 . S
H390 C370 0.931 . S
H391 C371 0.930 . S
H392 C379 0.931 . S
H393 C380 0.929 . S
H394 C388 0.929 . S
H395 C389 0.930 . S
Mn396 O401 2.095 1_554 S
Mn396 O411 2.162 . S
Mn396 O412 2.297 . S
Mn396 O420 2.385 . S
Mn396 O421 2.209 . S
Mn396 O422 2.094 1_554 S
Mn397 O402 2.121 . S
Mn397 N404 2.257 . S
Mn397 N413 2.282 . S
Mn397 O421 2.215 1_556 S
Mn397 O423 2.117 . S
C398 O420 1.234 . S
C398 O421 1.283 . S
C399 O411 1.281 . S
C399 O412 1.236 . S
C400 O422 1.240 . S
C400 O423 1.264 . S
O401 Mn396 2.095 1_556 S
O401 C410 1.250 . S
O402 Mn397 2.121 . S
O402 C410 1.258 . S
C403 N404 1.326 . S
C403 C407 1.460 . S
C403 H409 0.929 . S
N404 Mn397 2.257 . S
N404 C403 1.326 . S
N404 C408 1.362 . S
C405 C406 1.258 . S
C405 C408 1.431 . S
C405 C425 1.449 . S
C406 C405 1.258 . S
C406 C407 1.477 . S
C406 H426 0.931 . S
C407 C403 1.460 . S
C407 C406 1.477 . S
C407 H427 0.930 . S
C408 N404 1.362 . S
C408 C405 1.431 . S
C408 C418 1.476 . S
H409 C403 0.929 . S
C410 O401 1.250 . S
C410 O402 1.258 . S
O411 Mn396 2.162 . S
O411 C399 1.281 . S
O412 Mn396 2.297 . S
O412 C399 1.236 . S
N413 Mn397 2.282 . S
N413 C414 1.328 . S
N413 C418 1.318 . S
C414 N413 1.328 . S
C414 C415 1.457 . S
C414 H419 0.929 . S
C415 C414 1.457 . S
C415 C416 1.291 . S
C415 H428 0.931 . S
C416 C415 1.291 . S
C416 C417 1.373 . S
C416 H429 0.929 . S
C417 C416 1.373 . S
C417 C418 1.396 . S
C417 C424 1.403 . S
C418 C408 1.476 . S
C418 N413 1.318 . S
C418 C417 1.396 . S
H419 C414 0.929 . S
O420 Mn396 2.385 . S
O420 C398 1.234 . S
O421 Mn396 2.209 . S
O421 Mn397 2.215 1_554 S
O421 C398 1.283 . S
O422 Mn396 2.094 1_556 S
O422 C400 1.240 . S
O423 Mn397 2.117 . S
O423 C400 1.264 . S
C424 C417 1.403 . S
C424 C425 1.399 . S
C424 H430 0.929 . S
C425 C405 1.449 . S
C425 C424 1.399 . S
C425 H431 0.930 . S
H426 C406 0.931 . S
H427 C407 0.930 . S
H428 C415 0.931 . S
H429 C416 0.929 . S
H430 C424 0.929 . S
H431 C425 0.930 . S
Mn432 O437 2.095 . S
Mn432 O447 2.162 . S
Mn432 O448 2.297 . S
Mn432 O456 2.385 1_554 S
Mn432 O457 2.209 1_554 S
Mn432 O458 2.094 1_554 S
Mn433 O438 2.114 1_556 S
Mn433 N440 2.257 . S
Mn433 N449 2.282 . S
Mn433 O457 2.215 . S
Mn433 O459 2.117 . S
C434 O456 1.234 . S
C434 O457 1.283 . S
C435 O447 1.281 . S
C435 O448 1.236 . S
C436 O458 1.240 . S
C436 O459 1.264 . S
O437 Mn432 2.095 . S
O437 C446 1.250 . S
O438 Mn433 2.114 1_554 S
O438 C446 1.264 . S
C439 N440 1.326 . S
C439 C443 1.460 . S
C439 H445 0.929 . S
N440 Mn433 2.257 . S
N440 C439 1.326 . S
N440 C444 1.362 . S
C441 C442 1.258 . S
C441 C444 1.431 . S
C441 C461 1.449 . S
C442 C441 1.258 . S
C442 C443 1.477 . S
C442 H462 0.931 . S
C443 C439 1.460 . S
C443 C442 1.477 . S
C443 H463 0.930 . S
C444 N440 1.362 . S
C444 C441 1.431 . S
C444 C454 1.476 . S
H445 C439 0.929 . S
C446 O437 1.250 . S
C446 O438 1.264 . S
O447 Mn432 2.162 . S
O447 C435 1.281 . S
O448 Mn432 2.297 . S
O448 C435 1.236 . S
N449 Mn433 2.282 . S
N449 C450 1.328 . S
N449 C454 1.318 . S
C450 N449 1.328 . S
C450 C451 1.457 . S
C450 H455 0.929 . S
C451 C450 1.457 . S
C451 C452 1.291 . S
C451 H464 0.931 . S
C452 C451 1.291 . S
C452 C453 1.373 . S
C452 H465 0.929 . S
C453 C452 1.373 . S
C453 C454 1.396 . S
C453 C460 1.403 . S
C454 C444 1.476 . S
C454 N449 1.318 . S
C454 C453 1.396 . S
H455 C450 0.929 . S
O456 Mn432 2.385 1_556 S
O456 C434 1.234 . S
O457 Mn432 2.209 1_556 S
O457 Mn433 2.215 . S
O457 C434 1.283 . S
O458 Mn432 2.094 1_556 S
O458 C436 1.240 . S
O459 Mn433 2.117 . S
O459 C436 1.264 . S
C460 C453 1.403 . S
C460 C461 1.399 . S
C460 H466 0.929 . S
C461 C441 1.449 . S
C461 C460 1.399 . S
C461 H467 0.930 . S
H462 C442 0.931 . S
H463 C443 0.930 . S
H464 C451 0.931 . S
H465 C452 0.929 . S
H466 C460 0.929 . S
H467 C461 0.930 . S
Mn468 O473 2.095 . S
Mn468 O483 2.162 . S
Mn468 O484 2.297 . S
Mn468 O492 2.385 1_554 S
Mn468 O493 2.209 1_554 S
Mn468 O494 2.094 1_554 S
Mn469 O474 2.121 1_556 S
Mn469 N476 2.257 . S
Mn469 N485 2.282 . S
Mn469 O493 2.215 . S
Mn469 O495 2.117 . S
C470 O492 1.234 . S
C470 O493 1.283 . S
C471 O483 1.281 . S
C471 O484 1.236 . S
C472 O494 1.240 . S
C472 O495 1.264 . S
O473 Mn468 2.095 . S
O473 C482 1.250 . S
O474 Mn469 2.121 1_554 S
O474 C482 1.258 . S
C475 N476 1.326 1_565 S
C475 C479 1.460 . S
C475 H481 0.929 1_566 S
N476 Mn469 2.257 . S
N476 C475 1.326 1_545 S
N476 C480 1.362 . S
C477 C478 1.258 . S
C477 C480 1.431 1_565 S
C477 C497 1.449 . S
C478 C477 1.258 . S
C478 C479 1.477 . S
C478 H498 0.931 . S
C479 C475 1.460 . S
C479 C478 1.477 . S
C479 H499 0.930 . S
C480 N476 1.362 . S
C480 C477 1.431 1_545 S
C480 C490 1.476 . S
H481 C475 0.929 1_544 S
C482 O473 1.250 . S
C482 O474 1.258 . S
O483 Mn468 2.162 . S
O483 C471 1.281 . S
O484 Mn468 2.297 . S
O484 C471 1.236 . S
N485 Mn469 2.282 . S
N485 C486 1.328 . S
N485 C490 1.318 . S
C486 N485 1.328 . S
C486 C487 1.457 . S
C486 H491 0.929 . S
C487 C486 1.457 . S
C487 C488 1.291 . S
C487 H500 0.931 . S
C488 C487 1.291 . S
C488 C489 1.373 . S
C488 H501 0.929 . S
C489 C488 1.373 . S
C489 C490 1.396 . S
C489 C496 1.403 1_545 S
C490 C480 1.476 . S
C490 N485 1.318 . S
C490 C489 1.396 . S
H491 C486 0.929 . S
O492 Mn468 2.385 1_556 S
O492 C470 1.234 . S
O493 Mn468 2.209 1_556 S
O493 Mn469 2.215 . S
O493 C470 1.283 . S
O494 Mn468 2.094 1_556 S
O494 C472 1.240 . S
O495 Mn469 2.117 . S
O495 C472 1.264 . S
C496 C489 1.403 1_565 S
C496 C497 1.399 . S
C496 H502 0.929 . S
C497 C477 1.449 . S
C497 C496 1.399 . S
C497 H503 0.930 . S
H498 C478 0.931 . S
H499 C479 0.930 . S
H500 C487 0.931 . S
H501 C488 0.929 . S
H502 C496 0.929 . S
H503 C497 0.930 . S
Mn504 O509 2.095 . S
Mn504 O519 2.162 . S
Mn504 O520 2.297 . S
Mn504 O528 2.385 . S
Mn504 O529 2.209 . S
Mn504 O530 2.094 . S
Mn505 O510 2.121 . S
Mn505 N512 2.257 . S
Mn505 N521 2.282 . S
Mn505 O529 2.215 . S
Mn505 O531 2.117 . S
C506 O528 1.234 . S
C506 O529 1.283 . S
C507 O519 1.281 . S
C507 O520 1.236 . S
C508 O530 1.240 . S
C508 O531 1.264 . S
O509 Mn504 2.095 . S
O509 C518 1.250 . S
O510 Mn505 2.121 . S
O510 C518 1.258 . S
C511 N512 1.326 1_655 S
C511 C515 1.460 . S
C511 H517 0.929 . S
N512 Mn505 2.257 . S
N512 C511 1.326 1_455 S
N512 C516 1.366 . S
C513 C514 1.258 . S
C513 C516 1.420 1_655 S
C513 C533 1.449 . S
C514 C513 1.258 . S
C514 C515 1.477 . S
C514 H534 0.931 . S
C515 C511 1.460 . S
C515 C514 1.477 . S
C515 H535 0.930 . S
C516 N512 1.366 . S
C516 C513 1.420 1_455 S
C516 C526 1.484 . S
H517 C511 0.929 . S
C518 O509 1.250 . S
C518 O510 1.258 . S
O519 Mn504 2.162 . S
O519 C507 1.281 . S
O520 Mn504 2.297 . S
O520 C507 1.236 . S
N521 Mn505 2.282 . S
N521 C522 1.328 . S
N521 C526 1.318 . S
C522 N521 1.328 . S
C522 C523 1.457 . S
C522 H527 0.929 . S
C523 C522 1.457 . S
C523 C524 1.291 . S
C523 H536 0.931 . S
C524 C523 1.291 . S
C524 C525 1.373 . S
C524 H537 0.929 . S
C525 C524 1.373 . S
C525 C526 1.396 . S
C525 C532 1.403 1_455 S
C526 C516 1.484 . S
C526 N521 1.318 . S
C526 C525 1.396 . S
H527 C522 0.929 . S
O528 Mn504 2.385 . S
O528 C506 1.234 . S
O529 Mn504 2.209 . S
O529 Mn505 2.215 . S
O529 C506 1.283 . S
O530 Mn504 2.094 . S
O530 C508 1.240 . S
O531 Mn505 2.117 . S
O531 C508 1.264 . S
C532 C525 1.403 1_655 S
C532 C533 1.399 . S
C532 H538 0.929 . S
C533 C513 1.449 . S
C533 C532 1.399 . S
C533 H539 0.930 . S
H534 C514 0.931 . S
H535 C515 0.930 . S
H536 C523 0.931 . S
H537 C524 0.929 . S
H538 C532 0.929 . S
H539 C533 0.930 . S
Mn540 O545 2.095 . S
Mn540 O555 2.162 . S
Mn540 O556 2.297 . S
Mn540 O564 2.385 . S
Mn540 O565 2.209 . S
Mn540 O566 2.094 . S
Mn541 O546 2.121 . S
Mn541 N548 2.257 . S
Mn541 N557 2.282 . S
Mn541 O565 2.215 . S
Mn541 O567 2.117 . S
C542 O564 1.234 . S
C542 O565 1.283 . S
C543 O555 1.281 . S
C543 O556 1.236 . S
C544 O566 1.240 . S
C544 O567 1.264 . S
O545 Mn540 2.095 . S
O545 C554 1.250 . S
O546 Mn541 2.121 . S
O546 C554 1.258 . S
C547 N548 1.326 . S
C547 C551 1.460 . S
C547 H553 0.929 . S
N548 Mn541 2.257 . S
N548 C547 1.326 . S
N548 C552 1.362 . S
C549 C550 1.258 . S
C549 C552 1.431 . S
C549 C569 1.449 . S
C550 C549 1.258 . S
C550 C551 1.477 . S
C550 H570 0.931 . S
C551 C547 1.460 . S
C551 C550 1.477 . S
C551 H571 0.930 . S
C552 N548 1.362 . S
C552 C549 1.431 . S
C552 C562 1.476 . S
H553 C547 0.929 . S
C554 O545 1.250 . S
C554 O546 1.258 . S
O555 Mn540 2.162 . S
O555 C543 1.281 . S
O556 Mn540 2.297 . S
O556 C543 1.236 . S
N557 Mn541 2.282 . S
N557 C558 1.328 . S
N557 C562 1.318 . S
C558 N557 1.328 . S
C558 C559 1.457 . S
C558 H563 0.929 . S
C559 C558 1.457 . S
C559 C560 1.291 . S
C559 H572 0.931 . S
C560 C559 1.291 . S
C560 C561 1.373 . S
C560 H573 0.929 . S
C561 C560 1.373 . S
C561 C562 1.396 . S
C561 C568 1.403 . S
C562 C552 1.476 . S
C562 N557 1.318 . S
C562 C561 1.396 . S
H563 C558 0.929 . S
O564 Mn540 2.385 . S
O564 C542 1.234 . S
O565 Mn540 2.209 . S
O565 Mn541 2.215 . S
O565 C542 1.283 . S
O566 Mn540 2.094 . S
O566 C544 1.240 . S
O567 Mn541 2.117 . S
O567 C544 1.264 . S
C568 C561 1.403 . S
C568 C569 1.399 . S
C568 H574 0.929 . S
C569 C549 1.449 . S
C569 C568 1.399 . S
C569 H575 0.930 . S
H570 C550 0.931 . S
H571 C551 0.930 . S
H572 C559 0.931 . S
H573 C560 0.929 . S
H574 C568 0.929 . S
H575 C569 0.930 . S
Mn576 O581 2.095 1_545 S
Mn576 O591 2.162 . S
Mn576 O592 2.297 . S
Mn576 O600 2.385 . S
Mn576 O601 2.209 . S
Mn576 O602 2.094 1_545 S
Mn577 O582 2.121 . S
Mn577 N584 2.257 1_665 S
Mn577 N593 2.282 1_565 S
Mn577 O601 2.215 1_565 S
Mn577 O603 2.117 . S
C578 O600 1.234 . S
C578 O601 1.283 . S
C579 O591 1.281 . S
C579 O592 1.236 . S
C580 O602 1.240 . S
C580 O603 1.264 . S
O581 Mn576 2.095 1_565 S
O581 C590 1.250 . S
O582 Mn577 2.121 . S
O582 C590 1.258 . S
C583 N584 1.326 1_565 S
C583 C587 1.460 1_565 S
C583 H589 0.929 . S
N584 Mn577 2.257 1_445 S
N584 C583 1.326 1_545 S
N584 C588 1.362 . S
C585 C586 1.258 . S
C585 C588 1.431 . S
C585 C605 1.449 . S
C586 C585 1.258 . S
C586 C587 1.477 . S
C586 H606 0.931 . S
C587 C583 1.460 1_545 S
C587 C586 1.477 . S
C587 H607 0.930 1_545 S
C588 N584 1.362 . S
C588 C585 1.431 . S
C588 C598 1.476 1_455 S
H589 C583 0.929 . S
C590 O581 1.250 . S
C590 O582 1.258 . S
O591 Mn576 2.162 . S
O591 C579 1.281 . S
O592 Mn576 2.297 . S
O592 C579 1.236 . S
N593 Mn577 2.282 1_545 S
N593 C594 1.328 . S
N593 C598 1.318 . S
C594 N593 1.328 . S
C594 C595 1.457 . S
C594 H599 0.929 . S
C595 C594 1.457 . S
C595 C596 1.291 . S
C595 H608 0.931 . S
C596 C595 1.291 . S
C596 C597 1.373 . S
C596 H609 0.929 . S
C597 C596 1.373 . S
C597 C598 1.396 . S
C597 C604 1.403 1_655 S
C598 C588 1.476 1_655 S
C598 N593 1.318 . S
C598 C597 1.396 . S
H599 C594 0.929 . S
O600 Mn576 2.385 . S
O600 C578 1.234 . S
O601 Mn576 2.209 . S
O601 Mn577 2.215 1_545 S
O601 C578 1.283 . S
O602 Mn576 2.094 1_565 S
O602 C580 1.240 . S
O603 Mn577 2.117 . S
O603 C580 1.264 . S
C604 C597 1.403 1_455 S
C604 C605 1.399 . S
C604 H610 0.929 . S
C605 C585 1.449 . S
C605 C604 1.399 . S
C605 H611 0.930 . S
H606 C586 0.931 . S
H607 C587 0.930 1_565 S
H608 C595 0.931 . S
H609 C596 0.929 . S
H610 C604 0.929 . S
H611 C605 0.930 . S
Mn612 O617 2.095 . S
Mn612 O627 2.162 . S
Mn612 O628 2.297 . S
Mn612 O636 2.385 . S
Mn612 O637 2.209 . S
Mn612 O638 2.094 . S
Mn613 O618 2.121 . S
Mn613 N620 2.257 . S
Mn613 N629 2.282 . S
Mn613 O637 2.215 . S
Mn613 O639 2.117 . S
C614 O636 1.234 . S
C614 O637 1.283 . S
C615 O627 1.281 . S
C615 O628 1.236 . S
C616 O638 1.240 . S
C616 O639 1.264 . S
O617 Mn612 2.095 . S
O617 C626 1.250 . S
O618 Mn613 2.121 . S
O618 C626 1.258 . S
C619 N620 1.326 . S
C619 C623 1.460 . S
C619 H625 0.929 . S
N620 Mn613 2.257 . S
N620 C619 1.326 . S
N620 C624 1.362 . S
C621 C622 1.258 . S
C621 C624 1.431 . S
C621 C641 1.449 . S
C622 C621 1.258 . S
C622 C623 1.477 . S
C622 H642 0.931 . S
C623 C619 1.460 . S
C623 C622 1.477 . S
C623 H643 0.930 . S
C624 N620 1.362 . S
C624 C621 1.431 . S
C624 C634 1.476 . S
H625 C619 0.929 . S
C626 O617 1.250 . S
C626 O618 1.258 . S
O627 Mn612 2.162 . S
O627 C615 1.281 . S
O628 Mn612 2.297 . S
O628 C615 1.236 . S
N629 Mn613 2.282 . S
N629 C630 1.328 . S
N629 C634 1.318 . S
C630 N629 1.328 . S
C630 C631 1.457 . S
C630 H635 0.929 . S
C631 C630 1.457 . S
C631 C632 1.291 . S
C631 H644 0.931 . S
C632 C631 1.291 . S
C632 C633 1.373 . S
C632 H645 0.929 . S
C633 C632 1.373 . S
C633 C634 1.396 . S
C633 C640 1.403 . S
C634 C624 1.476 . S
C634 N629 1.318 . S
C634 C633 1.396 . S
H635 C630 0.929 . S
O636 Mn612 2.385 . S
O636 C614 1.234 . S
O637 Mn612 2.209 . S
O637 Mn613 2.215 . S
O637 C614 1.283 . S
O638 Mn612 2.094 . S
O638 C616 1.240 . S
O639 Mn613 2.117 . S
O639 C616 1.264 . S
C640 C633 1.403 . S
C640 C641 1.399 . S
C640 H646 0.929 . S
C641 C621 1.449 . S
C641 C640 1.399 . S
C641 H647 0.930 . S
H642 C622 0.931 . S
H643 C623 0.930 . S
H644 C631 0.931 . S
H645 C632 0.929 . S
H646 C640 0.929 . S
H647 C641 0.930 . S
Mn648 O653 2.095 . S
Mn648 O663 2.162 . S
Mn648 O664 2.297 . S
Mn648 O672 2.385 . S
Mn648 O673 2.209 . S
Mn648 O674 2.094 . S
Mn649 O654 2.121 . S
Mn649 N656 2.257 . S
Mn649 N665 2.282 . S
Mn649 O673 2.215 . S
Mn649 O675 2.117 . S
C650 O672 1.234 . S
C650 O673 1.283 . S
C651 O663 1.281 . S
C651 O664 1.236 . S
C652 O674 1.240 . S
C652 O675 1.264 . S
O653 Mn648 2.095 . S
O653 C662 1.250 . S
O654 Mn649 2.121 . S
O654 C662 1.258 . S
C655 N656 1.326 . S
C655 C659 1.460 . S
C655 H661 0.929 . S
N656 Mn649 2.257 . S
N656 C655 1.326 . S
N656 C660 1.362 . S
C657 C658 1.258 . S
C657 C660 1.431 . S
C657 C677 1.449 . S
C658 C657 1.258 . S
C658 C659 1.477 . S
C658 H678 0.931 . S
C659 C655 1.460 . S
C659 C658 1.477 . S
C659 H679 0.930 . S
C660 N656 1.362 . S
C660 C657 1.431 . S
C660 C670 1.476 . S
H661 C655 0.929 . S
C662 O653 1.250 . S
C662 O654 1.258 . S
O663 Mn648 2.162 . S
O663 C651 1.281 . S
O664 Mn648 2.297 . S
O664 C651 1.236 . S
N665 Mn649 2.282 . S
N665 C666 1.328 . S
N665 C670 1.318 . S
C666 N665 1.328 . S
C666 C667 1.457 . S
C666 H671 0.929 . S
C667 C666 1.457 . S
C667 C668 1.291 . S
C667 H680 0.931 . S
C668 C667 1.291 . S
C668 C669 1.373 . S
C668 H681 0.929 . S
C669 C668 1.373 . S
C669 C670 1.396 . S
C669 C676 1.403 . S
C670 C660 1.476 . S
C670 N665 1.318 . S
C670 C669 1.396 . S
H671 C666 0.929 . S
O672 Mn648 2.385 . S
O672 C650 1.234 . S
O673 Mn648 2.209 . S
O673 Mn649 2.215 . S
O673 C650 1.283 . S
O674 Mn648 2.094 . S
O674 C652 1.240 . S
O675 Mn649 2.117 . S
O675 C652 1.264 . S
C676 C669 1.403 . S
C676 C677 1.399 . S
C676 H682 0.929 . S
C677 C657 1.449 . S
C677 C676 1.399 . S
C677 H683 0.930 . S
H678 C658 0.931 . S
H679 C659 0.930 . S
H680 C667 0.931 . S
H681 C668 0.929 . S
H682 C676 0.929 . S
H683 C677 0.930 . S
Mn684 O689 2.095 . S
Mn684 O699 2.162 1_545 S
Mn684 O700 2.297 1_545 S
Mn684 O708 2.385 1_545 S
Mn684 O709 2.209 1_545 S
Mn684 O710 2.094 . S
Mn685 O690 2.121 . S
Mn685 N692 2.257 . S
Mn685 N701 2.282 1_545 S
Mn685 O709 2.215 1_545 S
Mn685 O711 2.117 . S
C686 O708 1.234 . S
C686 O709 1.283 . S
C687 O699 1.281 . S
C687 O700 1.236 . S
C688 O710 1.240 . S
C688 O711 1.264 . S
O689 Mn684 2.095 . S
O689 C698 1.250 . S
O690 Mn685 2.121 . S
O690 C698 1.258 . S
C691 N692 1.326 . S
C691 C695 1.460 . S
C691 H697 0.929 . S
N692 Mn685 2.257 . S
N692 C691 1.326 . S
N692 C696 1.362 1_545 S
C693 C694 1.258 . S
C693 C696 1.431 . S
C693 C713 1.449 . S
C694 C693 1.258 . S
C694 C695 1.477 1_565 S
C694 H714 0.931 . S
C695 C691 1.460 . S
C695 C694 1.477 1_545 S
C695 H715 0.930 . S
C696 N692 1.362 1_565 S
C696 C693 1.431 . S
C696 C706 1.476 . S
H697 C691 0.929 . S
C698 O689 1.250 . S
C698 O690 1.258 . S
O699 Mn684 2.162 1_565 S
O699 C687 1.281 . S
O700 Mn684 2.297 1_565 S
O700 C687 1.236 . S
N701 Mn685 2.282 1_565 S
N701 C702 1.328 . S
N701 C706 1.318 . S
C702 N701 1.328 . S
C702 C703 1.457 . S
C702 H707 0.929 . S
C703 C702 1.457 . S
C703 C704 1.291 . S
C703 H716 0.931 . S
C704 C703 1.291 . S
C704 C705 1.373 . S
C704 H717 0.929 . S
C705 C704 1.373 . S
C705 C706 1.396 . S
C705 C712 1.403 . S
C706 C696 1.476 . S
C706 N701 1.318 . S
C706 C705 1.396 . S
H707 C702 0.929 . S
O708 Mn684 2.385 1_565 S
O708 C686 1.234 . S
O709 Mn684 2.209 1_565 S
O709 Mn685 2.215 1_565 S
O709 C686 1.283 . S
O710 Mn684 2.094 . S
O710 C688 1.240 . S
O711 Mn685 2.117 . S
O711 C688 1.264 . S
C712 C705 1.403 . S
C712 C713 1.399 . S
C712 H718 0.929 . S
C713 C693 1.449 . S
C713 C712 1.399 . S
C713 H719 0.930 . S
H714 C694 0.931 . S
H715 C695 0.930 . S
H716 C703 0.931 . S
H717 C704 0.929 . S
H718 C712 0.929 . S
H719 C713 0.930 . S
Mn720 O725 2.095 1_554 S
Mn720 O735 2.162 . S
Mn720 O736 2.297 . S
Mn720 O744 2.385 . S
Mn720 O745 2.209 . S
Mn720 O746 2.094 1_554 S
Mn721 O726 2.121 . S
Mn721 N728 2.257 . S
Mn721 N737 2.282 . S
Mn721 O745 2.215 1_556 S
Mn721 O747 2.117 . S
C722 O744 1.234 . S
C722 O745 1.283 . S
C723 O735 1.281 . S
C723 O736 1.236 . S
C724 O746 1.240 . S
C724 O747 1.264 . S
O725 Mn720 2.095 1_556 S
O725 C734 1.250 . S
O726 Mn721 2.121 . S
O726 C734 1.258 . S
C727 N728 1.326 . S
C727 C731 1.460 . S
C727 H733 0.929 . S
N728 Mn721 2.257 . S
N728 C727 1.326 . S
N728 C732 1.362 . S
C729 C730 1.258 . S
C729 C732 1.431 . S
C729 C749 1.449 . S
C730 C729 1.258 . S
C730 C731 1.477 . S
C730 H750 0.931 . S
C731 C727 1.460 . S
C731 C730 1.477 . S
C731 H751 0.930 . S
C732 N728 1.362 . S
C732 C729 1.431 . S
C732 C742 1.476 . S
H733 C727 0.929 . S
C734 O725 1.250 . S
C734 O726 1.258 . S
O735 Mn720 2.162 . S
O735 C723 1.281 . S
O736 Mn720 2.297 . S
O736 C723 1.236 . S
N737 Mn721 2.282 . S
N737 C738 1.328 . S
N737 C742 1.318 . S
C738 N737 1.328 . S
C738 C739 1.457 . S
C738 H743 0.929 . S
C739 C738 1.457 . S
C739 C740 1.291 . S
C739 H752 0.931 . S
C740 C739 1.291 . S
C740 C741 1.373 . S
C740 H753 0.929 . S
C741 C740 1.373 . S
C741 C742 1.396 . S
C741 C748 1.403 . S
C742 C732 1.476 . S
C742 N737 1.318 . S
C742 C741 1.396 . S
H743 C738 0.929 . S
O744 Mn720 2.385 . S
O744 C722 1.234 . S
O745 Mn720 2.209 . S
O745 Mn721 2.215 1_554 S
O745 C722 1.283 . S
O746 Mn720 2.094 1_556 S
O746 C724 1.240 . S
O747 Mn721 2.117 . S
O747 C724 1.264 . S
C748 C741 1.403 . S
C748 C749 1.399 . S
C748 H754 0.929 . S
C749 C729 1.449 . S
C749 C748 1.399 . S
C749 H755 0.930 . S
H750 C730 0.931 . S
H751 C731 0.930 . S
H752 C739 0.931 . S
H753 C740 0.929 . S
H754 C748 0.929 . S
H755 C749 0.930 . S
Mn756 O761 2.095 . S
Mn756 O771 2.162 . S
Mn756 O772 2.297 . S
Mn756 O780 2.385 . S
Mn756 O781 2.209 . S
Mn756 O782 2.094 . S
Mn757 O762 2.121 . S
Mn757 N764 2.257 . S
Mn757 N773 2.282 . S
Mn757 O781 2.215 . S
Mn757 O783 2.117 . S
C758 O780 1.234 . S
C758 O781 1.283 . S
C759 O771 1.281 . S
C759 O772 1.236 . S
C760 O782 1.240 . S
C760 O783 1.264 . S
O761 Mn756 2.095 . S
O761 C770 1.250 . S
O762 Mn757 2.121 . S
O762 C770 1.258 . S
C763 N764 1.326 . S
C763 C767 1.460 . S
C763 H769 0.929 . S
N764 Mn757 2.257 . S
N764 C763 1.326 . S
N764 C768 1.362 . S
C765 C766 1.258 . S
C765 C768 1.431 . S
C765 C785 1.449 . S
C766 C765 1.258 . S
C766 C767 1.477 . S
C766 H786 0.931 . S
C767 C763 1.460 . S
C767 C766 1.477 . S
C767 H787 0.930 . S
C768 N764 1.362 . S
C768 C765 1.431 . S
C768 C778 1.476 . S
H769 C763 0.929 . S
C770 O761 1.250 . S
C770 O762 1.258 . S
O771 Mn756 2.162 . S
O771 C759 1.281 . S
O772 Mn756 2.297 . S
O772 C759 1.236 . S
N773 Mn757 2.282 . S
N773 C774 1.328 . S
N773 C778 1.318 . S
C774 N773 1.328 . S
C774 C775 1.457 . S
C774 H779 0.929 . S
C775 C774 1.457 . S
C775 C776 1.291 . S
C775 H788 0.931 . S
C776 C775 1.291 . S
C776 C777 1.373 . S
C776 H789 0.929 . S
C777 C776 1.373 . S
C777 C778 1.396 . S
C777 C784 1.403 . S
C778 C768 1.476 . S
C778 N773 1.318 . S
C778 C777 1.396 . S
H779 C774 0.929 . S
O780 Mn756 2.385 . S
O780 C758 1.234 . S
O781 Mn756 2.209 . S
O781 Mn757 2.215 . S
O781 C758 1.283 . S
O782 Mn756 2.094 . S
O782 C760 1.240 . S
O783 Mn757 2.117 . S
O783 C760 1.264 . S
C784 C777 1.403 . S
C784 C785 1.399 . S
C784 H790 0.929 . S
C785 C765 1.449 . S
C785 C784 1.399 . S
C785 H791 0.930 . S
H786 C766 0.931 . S
H787 C767 0.930 . S
H788 C775 0.931 . S
H789 C776 0.929 . S
H790 C784 0.929 . S
H791 C785 0.930 . S
Mn792 O797 2.095 . S
Mn792 O807 2.162 . S
Mn792 O808 2.297 . S
Mn792 O816 2.385 . S
Mn792 O817 2.209 . S
Mn792 O818 2.094 . S
Mn793 O798 2.121 . S
Mn793 N800 2.257 . S
Mn793 N809 2.282 . S
Mn793 O817 2.215 . S
Mn793 O819 2.117 . S
C794 O816 1.234 . S
C794 O817 1.283 . S
C795 O807 1.281 . S
C795 O808 1.236 . S
C796 O818 1.240 . S
C796 O819 1.264 . S
O797 Mn792 2.095 . S
O797 C806 1.250 . S
O798 Mn793 2.121 . S
O798 C806 1.258 . S
C799 N800 1.326 . S
C799 C803 1.460 . S
C799 H805 0.929 . S
N800 Mn793 2.257 . S
N800 C799 1.326 . S
N800 C804 1.362 . S
C801 C802 1.258 . S
C801 C804 1.431 . S
C801 C821 1.449 . S
C802 C801 1.258 . S
C802 C803 1.477 . S
C802 H822 0.931 . S
C803 C799 1.460 . S
C803 C802 1.477 . S
C803 H823 0.930 . S
C804 N800 1.362 . S
C804 C801 1.431 . S
C804 C814 1.476 . S
H805 C799 0.929 . S
C806 O797 1.250 . S
C806 O798 1.258 . S
O807 Mn792 2.162 . S
O807 C795 1.281 . S
O808 Mn792 2.297 . S
O808 C795 1.236 . S
N809 Mn793 2.282 . S
N809 C810 1.328 . S
N809 C814 1.318 . S
C810 N809 1.328 . S
C810 C811 1.457 . S
C810 H815 0.929 . S
C811 C810 1.457 . S
C811 C812 1.291 . S
C811 H824 0.931 . S
C812 C811 1.291 . S
C812 C813 1.373 . S
C812 H825 0.929 . S
C813 C812 1.373 . S
C813 C814 1.396 . S
C813 C820 1.403 . S
C814 C804 1.476 . S
C814 N809 1.318 . S
C814 C813 1.396 . S
H815 C810 0.929 . S
O816 Mn792 2.385 . S
O816 C794 1.234 . S
O817 Mn792 2.209 . S
O817 Mn793 2.215 . S
O817 C794 1.283 . S
O818 Mn792 2.094 . S
O818 C796 1.240 . S
O819 Mn793 2.117 . S
O819 C796 1.264 . S
C820 C813 1.403 . S
C820 C821 1.399 . S
C820 H826 0.929 . S
C821 C801 1.449 . S
C821 C820 1.399 . S
C821 H827 0.930 . S
H822 C802 0.931 . S
H823 C803 0.930 . S
H824 C811 0.931 . S
H825 C812 0.929 . S
H826 C820 0.929 . S
H827 C821 0.930 . S
Mn828 O833 2.095 . S
Mn828 O843 2.162 . S
Mn828 O844 2.297 . S
Mn828 O852 2.385 . S
Mn828 O853 2.209 . S
Mn828 O854 2.094 . S
Mn829 O834 2.121 . S
Mn829 N836 2.257 . S
Mn829 N845 2.282 . S
Mn829 O853 2.215 . S
Mn829 O855 2.117 . S
C830 O852 1.234 . S
C830 O853 1.283 . S
C831 O843 1.281 . S
C831 O844 1.236 . S
C832 O854 1.240 . S
C832 O855 1.264 . S
O833 Mn828 2.095 . S
O833 C842 1.250 . S
O834 Mn829 2.121 . S
O834 C842 1.258 . S
C835 N836 1.326 . S
C835 C839 1.460 . S
C835 H841 0.929 . S
N836 Mn829 2.257 . S
N836 C835 1.326 . S
N836 C840 1.362 . S
C837 C838 1.258 . S
C837 C840 1.431 . S
C837 C857 1.449 . S
C838 C837 1.258 . S
C838 C839 1.477 . S
C838 H858 0.931 . S
C839 C835 1.460 . S
C839 C838 1.477 . S
C839 H859 0.930 . S
C840 N836 1.362 . S
C840 C837 1.431 . S
C840 C850 1.476 . S
H841 C835 0.929 . S
C842 O833 1.250 . S
C842 O834 1.258 . S
O843 Mn828 2.162 . S
O843 C831 1.281 . S
O844 Mn828 2.297 . S
O844 C831 1.236 . S
N845 Mn829 2.282 . S
N845 C846 1.328 . S
N845 C850 1.318 . S
C846 N845 1.328 . S
C846 C847 1.457 . S
C846 H851 0.929 . S
C847 C846 1.457 . S
C847 C848 1.291 . S
C847 H860 0.931 . S
C848 C847 1.291 . S
C848 C849 1.373 . S
C848 H861 0.929 . S
C849 C848 1.373 . S
C849 C850 1.396 . S
C849 C856 1.403 . S
C850 C840 1.476 . S
C850 N845 1.318 . S
C850 C849 1.396 . S
H851 C846 0.929 . S
O852 Mn828 2.385 . S
O852 C830 1.234 . S
O853 Mn828 2.209 . S
O853 Mn829 2.215 . S
O853 C830 1.283 . S
O854 Mn828 2.094 . S
O854 C832 1.240 . S
O855 Mn829 2.117 . S
O855 C832 1.264 . S
C856 C849 1.403 . S
C856 C857 1.399 . S
C856 H862 0.929 . S
C857 C837 1.449 . S
C857 C856 1.399 . S
C857 H863 0.930 . S
H858 C838 0.931 . S
H859 C839 0.930 . S
H860 C847 0.931 . S
H861 C848 0.929 . S
H862 C856 0.929 . S
H863 C857 0.930 . S
C864 C865 1.363 . S
C864 C870 1.379 . S
C864 N872 1.356 . S
C865 C864 1.363 . S
C865 C871 1.363 . S
C866 C867 1.363 . S
C866 C871 1.379 . S
C866 N873 1.356 . S
C867 C866 1.363 . S
C867 C870 1.363 . S
N868 C870 1.356 . S
N868 H880 0.984 . S
N868 H881 0.985 . S
N869 C871 1.356 . S
N869 H874 0.984 . S
N869 H875 0.985 . S
C870 C864 1.379 . S
C870 C867 1.363 . S
C870 N868 1.356 . S
C871 C865 1.363 . S
C871 C866 1.379 . S
C871 N869 1.356 . S
N872 C864 1.356 . S
N872 H878 0.984 . S
N872 H879 0.984 . S
N873 C866 1.356 . S
N873 H876 0.984 . S
N873 H877 0.985 1_455 S
H874 N869 0.984 . S
H875 N869 0.985 . S
H876 N873 0.984 . S
H877 N873 0.985 1_655 S
H878 N872 0.984 . S
H879 N872 0.984 . S
H880 N868 0.984 . S
H881 N868 0.985 . S
C882 C883 1.363 . S
C882 C888 1.379 . S
C882 N890 1.356 . S
C883 C882 1.363 . S
C883 C889 1.363 . S
C884 C885 1.363 . S
C884 C889 1.379 . S
C884 N891 1.356 . S
C885 C884 1.363 . S
C885 C888 1.363 . S
N886 C888 1.356 . S
N886 H898 0.984 . S
N886 H899 0.985 . S
N887 C889 1.356 . S
N887 H892 0.984 . S
N887 H893 0.985 . S
C888 C882 1.379 . S
C888 C885 1.363 . S
C888 N886 1.356 . S
C889 C883 1.363 . S
C889 C884 1.379 . S
C889 N887 1.356 . S
N890 C882 1.356 . S
N890 H896 0.984 . S
N890 H897 0.984 . S
N891 C884 1.356 . S
N891 H894 0.984 . S
N891 H895 0.985 . S
H892 N887 0.984 . S
H893 N887 0.985 . S
H894 N891 0.984 . S
H895 N891 0.985 . S
H896 N890 0.984 . S
H897 N890 0.984 . S
H898 N886 0.984 . S
H899 N886 0.985 . S
C900 C901 1.363 . S
C900 C906 1.379 . S
C900 N908 1.356 . S
C901 C900 1.363 . S
C901 C907 1.363 . S
C902 C903 1.363 . S
C902 C907 1.379 . S
C902 N909 1.356 . S
C903 C902 1.363 . S
C903 C906 1.363 . S
N904 C906 1.356 . S
N904 H916 0.984 . S
N904 H917 0.985 . S
N905 C907 1.356 . S
N905 H910 0.984 . S
N905 H911 0.985 . S
C906 C900 1.379 . S
C906 C903 1.363 . S
C906 N904 1.356 . S
C907 C901 1.363 . S
C907 C902 1.379 . S
C907 N905 1.356 . S
N908 C900 1.356 . S
N908 H914 0.984 . S
N908 H915 0.984 . S
N909 C902 1.356 . S
N909 H912 0.984 . S
N909 H913 0.985 . S
H910 N905 0.984 . S
H911 N905 0.985 . S
H912 N909 0.984 . S
H913 N909 0.985 . S
H914 N908 0.984 . S
H915 N908 0.984 . S
H916 N904 0.984 . S
H917 N904 0.985 . S
C918 C919 1.363 . S
C918 C924 1.379 . S
C918 N926 1.356 . S
C919 C918 1.363 . S
C919 C925 1.363 . S
C920 C921 1.363 . S
C920 C925 1.379 . S
C920 N927 1.356 . S
C921 C920 1.363 . S
C921 C924 1.363 . S
N922 C924 1.356 1_556 S
N922 H934 0.984 . S
N922 H935 0.985 . S
N923 C925 1.356 . S
N923 H928 0.984 . S
N923 H929 0.985 . S
C924 C918 1.379 . S
C924 C921 1.363 . S
C924 N922 1.356 1_554 S
C925 C919 1.363 . S
C925 C920 1.379 . S
C925 N923 1.356 . S
N926 C918 1.356 . S
N926 H932 0.984 . S
N926 H933 0.984 . S
N927 C920 1.356 . S
N927 H930 0.984 . S
N927 H931 0.985 . S
H928 N923 0.984 . S
H929 N923 0.985 . S
H930 N927 0.984 . S
H931 N927 0.985 . S
H932 N926 0.984 . S
H933 N926 0.984 . S
H934 N922 0.984 . S
H935 N922 0.985 . S
C936 C937 1.363 . S
C936 C942 1.379 . S
C936 N944 1.356 . S
C937 C936 1.363 . S
C937 C943 1.363 . S
C938 C939 1.363 . S
C938 C943 1.379 . S
C938 N945 1.356 . S
C939 C938 1.363 . S
C939 C942 1.363 . S
N940 C942 1.356 . S
N940 H952 0.984 . S
N940 H953 0.985 . S
N941 C943 1.356 . S
N941 H946 0.984 . S
N941 H947 0.985 . S
C942 C936 1.379 . S
C942 C939 1.363 . S
C942 N940 1.356 . S
C943 C937 1.363 . S
C943 C938 1.379 . S
C943 N941 1.356 . S
N944 C936 1.356 . S
N944 H950 0.984 . S
N944 H951 0.984 . S
N945 C938 1.356 . S
N945 H948 0.984 . S
N945 H949 0.985 . S
H946 N941 0.984 . S
H947 N941 0.985 . S
H948 N945 0.984 . S
H949 N945 0.985 . S
H950 N944 0.984 . S
H951 N944 0.984 . S
H952 N940 0.984 . S
H953 N940 0.985 . S
C954 C955 1.363 . S
C954 C960 1.379 . S
C954 N962 1.356 . S
C955 C954 1.363 . S
C955 C961 1.363 . S
C956 C957 1.363 . S
C956 C961 1.379 . S
C956 N963 1.356 . S
C957 C956 1.363 . S
C957 C960 1.363 . S
N958 C960 1.356 . S
N958 H970 0.984 . S
N958 H971 0.985 . S
N959 C961 1.356 . S
N959 H964 0.984 . S
N959 H965 0.985 . S
C960 C954 1.379 . S
C960 C957 1.363 . S
C960 N958 1.356 . S
C961 C955 1.363 . S
C961 C956 1.379 . S
C961 N959 1.356 . S
N962 C954 1.356 . S
N962 H968 0.984 . S
N962 H969 0.984 . S
N963 C956 1.356 . S
N963 H966 0.984 . S
N963 H967 0.985 . S
H964 N959 0.984 . S
H965 N959 0.985 . S
H966 N963 0.984 . S
H967 N963 0.985 . S
H968 N962 0.984 . S
H969 N962 0.984 . S
H970 N958 0.984 . S
H971 N958 0.985 . S
C972 C973 1.363 . S
C972 C978 1.379 . S
C972 N980 1.356 . S
C973 C972 1.363 . S
C973 C979 1.363 . S
C974 C975 1.363 . S
C974 C979 1.379 . S
C974 N981 1.356 . S
C975 C974 1.363 . S
C975 C978 1.363 . S
N976 C978 1.356 . S
N976 H988 0.984 . S
N976 H989 0.985 . S
N977 C979 1.356 . S
N977 H982 0.984 . S
N977 H983 0.985 . S
C978 C972 1.379 . S
C978 C975 1.363 . S
C978 N976 1.356 . S
C979 C973 1.363 . S
C979 C974 1.379 . S
C979 N977 1.356 . S
N980 C972 1.356 . S
N980 H986 0.984 . S
N980 H987 0.984 . S
N981 C974 1.356 . S
N981 H984 0.984 . S
N981 H985 0.985 . S
H982 N977 0.984 . S
H983 N977 0.985 . S
H984 N981 0.984 . S
H985 N981 0.985 . S
H986 N980 0.984 . S
H987 N980 0.984 . S
H988 N976 0.984 . S
H989 N976 0.985 . S
C990 C991 1.363 . S
C990 C996 1.379 . S
C990 N998 1.356 . S
C991 C990 1.363 . S
C991 C997 1.363 . S
C992 C993 1.363 . S
C992 C997 1.379 . S
C992 N999 1.356 1_556 S
C993 C992 1.363 . S
C993 C996 1.363 . S
N994 C996 1.356 . S
N994 H1006 0.984 . S
N994 H1007 0.985 . S
N995 C997 1.356 . S
N995 H1000 0.984 . S
N995 H1001 0.985 1_556 S
C996 C990 1.379 . S
C996 C993 1.363 . S
C996 N994 1.356 . S
C997 C991 1.363 . S
C997 C992 1.379 . S
C997 N995 1.356 . S
N998 C990 1.356 . S
N998 H1004 0.984 . S
N998 H1005 0.984 . S
N999 C992 1.356 1_554 S
N999 H1002 0.984 . S
N999 H1003 0.985 . S
H1000 N995 0.984 . S
H1001 N995 0.985 1_554 S
H1002 N999 0.984 . S
H1003 N999 0.985 . S
H1004 N998 0.984 . S
H1005 N998 0.984 . S
H1006 N994 0.984 . S
H1007 N994 0.985 . S
C1008 C1009 1.363 . S
C1008 C1014 1.379 . S
C1008 N1016 1.356 . S
C1009 C1008 1.363 . S
C1009 C1015 1.363 . S
C1010 C1011 1.363 . S
C1010 C1015 1.379 . S
C1010 N1017 1.356 . S
C1011 C1010 1.363 . S
C1011 C1014 1.363 . S
N1012 C1014 1.356 . S
N1012 H1024 0.984 . S
N1012 H1025 0.985 . S
N1013 C1015 1.356 . S
N1013 H1018 0.984 . S
N1013 H1019 0.985 . S
C1014 C1008 1.379 . S
C1014 C1011 1.363 . S
C1014 N1012 1.356 . S
C1015 C1009 1.363 . S
C1015 C1010 1.379 . S
C1015 N1013 1.356 . S
N1016 C1008 1.356 . S
N1016 H1022 0.984 . S
N1016 H1023 0.984 . S
N1017 C1010 1.356 . S
N1017 H1020 0.984 . S
N1017 H1021 0.985 . S
H1018 N1013 0.984 . S
H1019 N1013 0.985 . S
H1020 N1017 0.984 . S
H1021 N1017 0.985 . S
H1022 N1016 0.984 . S
H1023 N1016 0.984 . S
H1024 N1012 0.984 . S
H1025 N1012 0.985 . S
C1026 C1027 1.363 . S
C1026 C1032 1.379 . S
C1026 N1034 1.356 . S
C1027 C1026 1.363 . S
C1027 C1033 1.363 . S
C1028 C1029 1.363 . S
C1028 C1033 1.379 . S
C1028 N1035 1.356 . S
C1029 C1028 1.363 . S
C1029 C1032 1.363 . S
N1030 C1032 1.356 . S
N1030 H1042 0.984 . S
N1030 H1043 0.985 . S
N1031 C1033 1.356 . S
N1031 H1036 0.984 . S
N1031 H1037 0.985 . S
C1032 C1026 1.379 . S
C1032 C1029 1.363 . S
C1032 N1030 1.356 . S
C1033 C1027 1.363 . S
C1033 C1028 1.379 . S
C1033 N1031 1.356 . S
N1034 C1026 1.356 . S
N1034 H1040 0.984 1_545 S
N1034 H1041 0.984 . S
N1035 C1028 1.356 . S
N1035 H1038 0.984 . S
N1035 H1039 0.985 . S
H1036 N1031 0.984 . S
H1037 N1031 0.985 . S
H1038 N1035 0.984 . S
H1039 N1035 0.985 . S
H1040 N1034 0.984 1_565 S
H1041 N1034 0.984 . S
H1042 N1030 0.984 . S
H1043 N1030 0.985 . S
C1044 C1045 1.363 . S
C1044 C1050 1.379 . S
C1044 N1052 1.356 1_565 S
C1045 C1044 1.363 . S
C1045 C1051 1.363 . S
C1046 C1047 1.363 . S
C1046 C1051 1.379 . S
C1046 N1053 1.356 . S
C1047 C1046 1.363 . S
C1047 C1050 1.363 . S
N1048 C1050 1.356 . S
N1048 H1060 0.984 . S
N1048 H1061 0.985 . S
N1049 C1051 1.356 . S
N1049 H1054 0.984 . S
N1049 H1055 0.985 . S
C1050 C1044 1.379 . S
C1050 C1047 1.363 . S
C1050 N1048 1.356 . S
C1051 C1045 1.363 . S
C1051 C1046 1.379 . S
C1051 N1049 1.356 . S
N1052 C1044 1.356 1_545 S
N1052 H1058 0.984 . S
N1052 H1059 0.984 . S
N1053 C1046 1.356 . S
N1053 H1056 0.984 . S
N1053 H1057 0.985 . S
H1054 N1049 0.984 . S
H1055 N1049 0.985 . S
H1056 N1053 0.984 . S
H1057 N1053 0.985 . S
H1058 N1052 0.984 . S
H1059 N1052 0.984 . S
H1060 N1048 0.984 . S
H1061 N1048 0.985 . S
C1062 C1063 1.363 . S
C1062 C1068 1.379 . S
C1062 N1070 1.356 . S
C1063 C1062 1.363 . S
C1063 C1069 1.363 . S
C1064 C1065 1.363 . S
C1064 C1069 1.379 . S
C1064 N1071 1.356 . S
C1065 C1064 1.363 . S
C1065 C1068 1.363 . S
N1066 C1068 1.356 . S
N1066 H1078 0.984 . S
N1066 H1079 0.985 . S
N1067 C1069 1.356 . S
N1067 H1072 0.984 . S
N1067 H1073 0.985 . S
C1068 C1062 1.379 . S
C1068 C1065 1.363 . S
C1068 N1066 1.356 . S
C1069 C1063 1.363 . S
C1069 C1064 1.379 . S
C1069 N1067 1.356 . S
N1070 C1062 1.356 . S
N1070 H1076 0.984 . S
N1070 H1077 0.984 . S
N1071 C1064 1.356 . S
N1071 H1074 0.984 . S
N1071 H1075 0.985 . S
H1072 N1067 0.984 . S
H1073 N1067 0.985 . S
H1074 N1071 0.984 . S
H1075 N1071 0.985 . S
H1076 N1070 0.984 . S
H1077 N1070 0.984 . S
H1078 N1066 0.984 . S
H1079 N1066 0.985 . S
C1080 C1081 1.363 . S
C1080 C1086 1.379 . S
C1080 N1088 1.356 . S
C1081 C1080 1.363 . S
C1081 C1087 1.363 . S
C1082 C1083 1.363 . S
C1082 C1087 1.379 . S
C1082 N1089 1.356 . S
C1083 C1082 1.363 . S
C1083 C1086 1.363 . S
N1084 C1086 1.356 . S
N1084 H1096 0.984 . S
N1084 H1097 0.985 . S
N1085 C1087 1.356 . S
N1085 H1090 0.984 . S
N1085 H1091 0.985 . S
C1086 C1080 1.379 . S
C1086 C1083 1.363 . S
C1086 N1084 1.356 . S
C1087 C1081 1.363 . S
C1087 C1082 1.379 . S
C1087 N1085 1.356 . S
N1088 C1080 1.356 . S
N1088 H1094 0.984 . S
N1088 H1095 0.984 . S
N1089 C1082 1.356 . S
N1089 H1092 0.984 . S
N1089 H1093 0.985 . S
H1090 N1085 0.984 . S
H1091 N1085 0.985 . S
H1092 N1089 0.984 . S
H1093 N1089 0.985 . S
H1094 N1088 0.984 . S
H1095 N1088 0.984 . S
H1096 N1084 0.984 . S
H1097 N1084 0.985 . S
C1098 C1099 1.363 . S
C1098 C1104 1.379 . S
C1098 N1106 1.356 1_655 S
C1099 C1098 1.363 . S
C1099 C1105 1.363 . S
C1100 C1101 1.363 . S
C1100 C1105 1.379 . S
C1100 N1107 1.356 . S
C1101 C1100 1.363 . S
C1101 C1104 1.363 . S
N1102 C1104 1.356 . S
N1102 H1114 0.984 . S
N1102 H1115 0.985 . S
N1103 C1105 1.356 . S
N1103 H1108 0.984 . S
N1103 H1109 0.985 . S
C1104 C1098 1.379 . S
C1104 C1101 1.363 . S
C1104 N1102 1.356 . S
C1105 C1099 1.363 . S
C1105 C1100 1.379 . S
C1105 N1103 1.356 . S
N1106 C1098 1.356 1_455 S
N1106 H1112 0.984 . S
N1106 H1113 0.984 . S
N1107 C1100 1.356 . S
N1107 H1110 0.984 . S
N1107 H1111 0.985 . S
H1108 N1103 0.984 . S
H1109 N1103 0.985 . S
H1110 N1107 0.984 . S
H1111 N1107 0.985 . S
H1112 N1106 0.984 . S
H1113 N1106 0.984 . S
H1114 N1102 0.984 . S
H1115 N1102 0.985 . S
C1116 C1117 1.363 . S
C1116 C1122 1.379 . S
C1116 N1124 1.356 . S
C1117 C1116 1.363 . S
C1117 C1123 1.363 . S
C1118 C1119 1.363 . S
C1118 C1123 1.379 . S
C1118 N1125 1.356 . S
C1119 C1118 1.363 . S
C1119 C1122 1.363 . S
N1120 C1122 1.356 . S
N1120 H1132 0.984 . S
N1120 H1133 0.985 . S
N1121 C1123 1.356 . S
N1121 H1126 0.984 . S
N1121 H1127 0.985 . S
C1122 C1116 1.379 . S
C1122 C1119 1.363 . S
C1122 N1120 1.356 . S
C1123 C1117 1.363 . S
C1123 C1118 1.379 . S
C1123 N1121 1.356 . S
N1124 C1116 1.356 . S
N1124 H1130 0.984 . S
N1124 H1131 0.984 . S
N1125 C1118 1.356 . S
N1125 H1128 0.984 . S
N1125 H1129 0.985 . S
H1126 N1121 0.984 . S
H1127 N1121 0.985 . S
H1128 N1125 0.984 . S
H1129 N1125 0.985 . S
H1130 N1124 0.984 . S
H1131 N1124 0.984 . S
H1132 N1120 0.984 . S
H1133 N1120 0.985 . S
C1134 C1135 1.363 . S
C1134 C1140 1.379 . S
C1134 N1142 1.356 . S
C1135 C1134 1.363 . S
C1135 C1141 1.363 . S
C1136 C1137 1.363 . S
C1136 C1141 1.379 . S
C1136 N1143 1.356 . S
C1137 C1136 1.363 . S
C1137 C1140 1.363 . S
N1138 C1140 1.356 . S
N1138 H1150 0.984 . S
N1138 H1151 0.985 . S
N1139 C1141 1.356 . S
N1139 H1144 0.984 . S
N1139 H1145 0.985 . S
C1140 C1134 1.379 . S
C1140 C1137 1.363 . S
C1140 N1138 1.356 . S
C1141 C1135 1.363 . S
C1141 C1136 1.379 . S
C1141 N1139 1.356 . S
N1142 C1134 1.356 . S
N1142 H1148 0.984 1_655 S
N1142 H1149 0.982 1_655 S
N1143 C1136 1.356 . S
N1143 H1146 0.984 . S
N1143 H1147 0.985 . S
H1144 N1139 0.984 . S
H1145 N1139 0.985 . S
H1146 N1143 0.984 . S
H1147 N1143 0.985 . S
H1148 N1142 0.984 1_455 S
H1149 N1142 0.982 1_455 S
H1150 N1138 0.984 . S
H1151 N1138 0.985 . S
C1152 C1153 1.363 . S
C1152 C1158 1.379 . S
C1152 N1160 1.356 . S
C1153 C1152 1.363 . S
C1153 C1159 1.363 . S
C1154 C1155 1.363 . S
C1154 C1159 1.379 . S
C1154 N1161 1.356 . S
C1155 C1154 1.363 . S
C1155 C1158 1.363 . S
N1156 C1158 1.356 . S
N1156 H1168 0.984 . S
N1156 H1169 0.985 . S
N1157 C1159 1.356 . S
N1157 H1162 0.984 . S
N1157 H1163 0.985 . S
C1158 C1152 1.379 . S
C1158 C1155 1.363 . S
C1158 N1156 1.356 . S
C1159 C1153 1.363 . S
C1159 C1154 1.379 . S
C1159 N1157 1.356 . S
N1160 C1152 1.356 . S
N1160 H1166 0.984 . S
N1160 H1167 0.984 . S
N1161 C1154 1.356 . S
N1161 H1164 0.984 . S
N1161 H1165 0.985 . S
H1162 N1157 0.984 . S
H1163 N1157 0.985 . S
H1164 N1161 0.984 . S
H1165 N1161 0.985 . S
H1166 N1160 0.984 . S
H1167 N1160 0.984 . S
H1168 N1156 0.984 . S
H1169 N1156 0.985 . S
C1170 C1171 1.363 . S
C1170 C1176 1.379 . S
C1170 N1178 1.356 . S
C1171 C1170 1.363 . S
C1171 C1177 1.363 . S
C1172 C1173 1.363 . S
C1172 C1177 1.379 . S
C1172 N1179 1.356 . S
C1173 C1172 1.363 . S
C1173 C1176 1.363 . S
N1174 C1176 1.356 . S
N1174 H1186 0.984 . S
N1174 H1187 0.985 . S
N1175 C1177 1.356 . S
N1175 H1180 0.984 . S
N1175 H1181 0.985 . S
C1176 C1170 1.379 . S
C1176 C1173 1.363 . S
C1176 N1174 1.356 . S
C1177 C1171 1.363 . S
C1177 C1172 1.379 . S
C1177 N1175 1.356 . S
N1178 C1170 1.356 . S
N1178 H1184 0.984 . S
N1178 H1185 0.984 . S
N1179 C1172 1.356 . S
N1179 H1182 0.984 . S
N1179 H1183 0.985 . S
H1180 N1175 0.984 . S
H1181 N1175 0.985 . S
H1182 N1179 0.984 . S
H1183 N1179 0.985 . S
H1184 N1178 0.984 . S
H1185 N1178 0.984 . S
H1186 N1174 0.984 . S
H1187 N1174 0.985 . S
C1188 C1189 1.363 . S
C1188 C1194 1.379 . S
C1188 N1196 1.356 . S
C1189 C1188 1.363 . S
C1189 C1195 1.363 . S
C1190 C1191 1.363 . S
C1190 C1195 1.379 . S
C1190 N1197 1.356 . S
C1191 C1190 1.363 . S
C1191 C1194 1.363 . S
N1192 C1194 1.356 . S
N1192 H1204 0.984 . S
N1192 H1205 0.985 . S
N1193 C1195 1.356 . S
N1193 H1198 0.984 . S
N1193 H1199 0.985 . S
C1194 C1188 1.379 . S
C1194 C1191 1.363 . S
C1194 N1192 1.356 . S
C1195 C1189 1.363 . S
C1195 C1190 1.379 . S
C1195 N1193 1.356 . S
N1196 C1188 1.356 . S
N1196 H1202 0.984 . S
N1196 H1203 0.984 . S
N1197 C1190 1.356 . S
N1197 H1200 0.984 . S
N1197 H1201 0.985 . S
H1198 N1193 0.984 . S
H1199 N1193 0.985 . S
H1200 N1197 0.984 . S
H1201 N1197 0.985 . S
H1202 N1196 0.984 . S
H1203 N1196 0.984 . S
H1204 N1192 0.984 . S
H1205 N1192 0.985 . S
C1206 C1207 1.363 . S
C1206 C1212 1.379 . S
C1206 N1214 1.356 . S
C1207 C1206 1.363 . S
C1207 C1213 1.363 . S
C1208 C1209 1.363 . S
C1208 C1213 1.379 . S
C1208 N1215 1.356 1_655 S
C1209 C1208 1.363 . S
C1209 C1212 1.363 . S
N1210 C1212 1.356 . S
N1210 H1222 0.984 . S
N1210 H1223 0.985 . S
N1211 C1213 1.356 . S
N1211 H1216 0.984 . S
N1211 H1217 0.985 . S
C1212 C1206 1.379 . S
C1212 C1209 1.363 . S
C1212 N1210 1.356 . S
C1213 C1207 1.363 . S
C1213 C1208 1.379 . S
C1213 N1211 1.356 . S
N1214 C1206 1.356 . S
N1214 H1220 0.984 . S
N1214 H1221 0.984 . S
N1215 C1208 1.356 1_455 S
N1215 H1218 0.984 . S
N1215 H1219 0.985 . S
H1216 N1211 0.984 . S
H1217 N1211 0.985 . S
H1218 N1215 0.984 . S
H1219 N1215 0.985 . S
H1220 N1214 0.984 . S
H1221 N1214 0.984 . S
H1222 N1210 0.984 . S
H1223 N1210 0.985 . S
C1224 C1225 1.363 . S
C1224 C1230 1.379 . S
C1224 N1232 1.356 . S
C1225 C1224 1.363 . S
C1225 C1231 1.363 . S
C1226 C1227 1.363 . S
C1226 C1231 1.379 . S
C1226 N1233 1.356 . S
C1227 C1226 1.363 . S
C1227 C1230 1.363 . S
N1228 C1230 1.356 . S
N1228 H1240 0.984 . S
N1228 H1241 0.985 . S
N1229 C1231 1.356 . S
N1229 H1234 0.984 . S
N1229 H1235 0.985 . S
C1230 C1224 1.379 . S
C1230 C1227 1.363 . S
C1230 N1228 1.356 . S
C1231 C1225 1.363 . S
C1231 C1226 1.379 . S
C1231 N1229 1.356 . S
N1232 C1224 1.356 . S
N1232 H1238 0.984 . S
N1232 H1239 0.984 . S
N1233 C1226 1.356 . S
N1233 H1236 0.984 . S
N1233 H1237 0.985 . S
H1234 N1229 0.984 . S
H1235 N1229 0.985 . S
H1236 N1233 0.984 . S
H1237 N1233 0.985 . S
H1238 N1232 0.984 . S
H1239 N1232 0.984 . S
H1240 N1228 0.984 . S
H1241 N1228 0.985 . S
C1242 C1243 1.363 . S
C1242 C1248 1.379 . S
C1242 N1250 1.356 . S
C1243 C1242 1.363 . S
C1243 C1249 1.363 . S
C1244 C1245 1.363 . S
C1244 C1249 1.379 . S
C1244 N1251 1.356 . S
C1245 C1244 1.363 . S
C1245 C1248 1.363 . S
N1246 C1248 1.356 . S
N1246 H1258 0.984 . S
N1246 H1259 0.985 . S
N1247 C1249 1.356 . S
N1247 H1252 0.984 . S
N1247 H1253 0.985 . S
C1248 C1242 1.379 . S
C1248 C1245 1.363 . S
C1248 N1246 1.356 . S
C1249 C1243 1.363 . S
C1249 C1244 1.379 . S
C1249 N1247 1.356 . S
N1250 C1242 1.356 . S
N1250 H1256 0.984 . S
N1250 H1257 0.984 . S
N1251 C1244 1.356 . S
N1251 H1254 0.984 . S
N1251 H1255 0.985 . S
H1252 N1247 0.984 . S
H1253 N1247 0.985 . S
H1254 N1251 0.984 . S
H1255 N1251 0.985 . S
H1256 N1250 0.984 . S
H1257 N1250 0.984 . S
H1258 N1246 0.984 . S
H1259 N1246 0.985 . S
C1260 C1261 1.363 . S
C1260 C1266 1.379 . S
C1260 N1268 1.356 . S
C1261 C1260 1.363 . S
C1261 C1267 1.363 . S
C1262 C1263 1.363 . S
C1262 C1267 1.379 . S
C1262 N1269 1.356 . S
C1263 C1262 1.363 . S
C1263 C1266 1.363 . S
N1264 C1266 1.356 1_556 S
N1264 H1276 0.984 . S
N1264 H1277 0.985 . S
N1265 C1267 1.356 . S
N1265 H1270 0.984 . S
N1265 H1271 0.985 . S
C1266 C1260 1.379 . S
C1266 C1263 1.363 . S
C1266 N1264 1.356 1_554 S
C1267 C1261 1.363 . S
C1267 C1262 1.379 . S
C1267 N1265 1.356 . S
N1268 C1260 1.356 . S
N1268 H1274 0.984 . S
N1268 H1275 0.984 . S
N1269 C1262 1.356 . S
N1269 H1272 0.984 . S
N1269 H1273 0.985 . S
H1270 N1265 0.984 . S
H1271 N1265 0.985 . S
H1272 N1269 0.984 . S
H1273 N1269 0.985 . S
H1274 N1268 0.984 . S
H1275 N1268 0.984 . S
H1276 N1264 0.984 . S
H1277 N1264 0.985 . S
C1278 C1279 1.363 . S
C1278 C1284 1.379 . S
C1278 N1286 1.356 . S
C1279 C1278 1.363 . S
C1279 C1285 1.363 . S
C1280 C1281 1.363 . S
C1280 C1285 1.379 . S
C1280 N1287 1.356 . S
C1281 C1280 1.363 . S
C1281 C1284 1.363 . S
N1282 C1284 1.356 1_545 S
N1282 H1294 0.984 . S
N1282 H1295 0.985 . S
N1283 C1285 1.356 . S
N1283 H1288 0.984 . S
N1283 H1289 0.985 . S
C1284 C1278 1.379 . S
C1284 C1281 1.363 . S
C1284 N1282 1.356 1_565 S
C1285 C1279 1.363 . S
C1285 C1280 1.379 . S
C1285 N1283 1.356 . S
N1286 C1278 1.356 . S
N1286 H1292 0.984 1_565 S
N1286 H1293 0.984 . S
N1287 C1280 1.356 . S
N1287 H1290 0.984 . S
N1287 H1291 0.985 . S
H1288 N1283 0.984 . S
H1289 N1283 0.985 . S
H1290 N1287 0.984 . S
H1291 N1287 0.985 . S
H1292 N1286 0.984 1_545 S
H1293 N1286 0.984 . S
H1294 N1282 0.984 . S
H1295 N1282 0.985 . S
C1296 C1297 1.363 . S
C1296 C1302 1.379 . S
C1296 N1304 1.356 . S
C1297 C1296 1.363 . S
C1297 C1303 1.363 . S
C1298 C1299 1.363 . S
C1298 C1303 1.379 . S
C1298 N1305 1.356 . S
C1299 C1298 1.363 . S
C1299 C1302 1.363 . S
N1300 C1302 1.356 . S
N1300 H1312 0.984 . S
N1300 H1313 0.985 . S
N1301 C1303 1.356 . S
N1301 H1306 0.990 . S
N1301 H1307 0.985 1_565 S
C1302 C1296 1.379 . S
C1302 C1299 1.363 . S
C1302 N1300 1.356 . S
C1303 C1297 1.363 . S
C1303 C1298 1.379 . S
C1303 N1301 1.356 . S
N1304 C1296 1.356 . S
N1304 H1310 0.984 . S
N1304 H1311 0.984 . S
N1305 C1298 1.356 . S
N1305 H1308 0.984 . S
N1305 H1309 0.985 . S
H1306 N1301 0.990 . S
H1307 N1301 0.985 1_545 S
H1308 N1305 0.984 . S
H1309 N1305 0.985 . S
H1310 N1304 0.984 . S
H1311 N1304 0.984 . S
H1312 N1300 0.984 . S
H1313 N1300 0.985 . S
C1314 C1315 1.363 . S
C1314 C1320 1.379 . S
C1314 N1322 1.356 . S
C1315 C1314 1.363 . S
C1315 C1321 1.363 . S
C1316 C1317 1.363 . S
C1316 C1321 1.379 . S
C1316 N1323 1.356 . S
C1317 C1316 1.363 . S
C1317 C1320 1.363 . S
N1318 C1320 1.356 . S
N1318 H1330 0.984 . S
N1318 H1331 0.985 . S
N1319 C1321 1.356 . S
N1319 H1324 0.984 . S
N1319 H1325 0.985 . S
C1320 C1314 1.379 . S
C1320 C1317 1.363 . S
C1320 N1318 1.356 . S
C1321 C1315 1.363 . S
C1321 C1316 1.379 . S
C1321 N1319 1.356 . S
N1322 C1314 1.356 . S
N1322 H1328 0.984 . S
N1322 H1329 0.984 . S
N1323 C1316 1.356 . S
N1323 H1326 0.984 . S
N1323 H1327 0.985 . S
H1324 N1319 0.984 . S
H1325 N1319 0.985 . S
H1326 N1323 0.984 . S
H1327 N1323 0.985 . S
H1328 N1322 0.984 . S
H1329 N1322 0.984 . S
H1330 N1318 0.984 . S
H1331 N1318 0.985 . S
C1332 C1333 1.363 . S
C1332 C1338 1.379 . S
C1332 N1340 1.356 . S
C1333 C1332 1.363 . S
C1333 C1339 1.363 . S
C1334 C1335 1.363 . S
C1334 C1339 1.379 . S
C1334 N1341 1.356 . S
C1335 C1334 1.363 . S
C1335 C1338 1.363 . S
N1336 C1338 1.356 . S
N1336 H1348 0.984 . S
N1336 H1349 0.985 . S
N1337 C1339 1.356 . S
N1337 H1342 0.984 . S
N1337 H1343 0.985 . S
C1338 C1332 1.379 . S
C1338 C1335 1.363 . S
C1338 N1336 1.356 . S
C1339 C1333 1.363 . S
C1339 C1334 1.379 . S
C1339 N1337 1.356 . S
N1340 C1332 1.356 . S
N1340 H1346 0.984 1_545 S
N1340 H1347 0.984 . S
N1341 C1334 1.356 . S
N1341 H1344 0.984 . S
N1341 H1345 0.985 . S
H1342 N1337 0.984 . S
H1343 N1337 0.985 . S
H1344 N1341 0.984 . S
H1345 N1341 0.985 . S
H1346 N1340 0.984 1_565 S
H1347 N1340 0.984 . S
H1348 N1336 0.984 . S
H1349 N1336 0.985 . S
C1350 C1351 1.363 . S
C1350 C1356 1.379 . S
C1350 N1358 1.356 . S
C1351 C1350 1.363 . S
C1351 C1357 1.363 . S
C1352 C1353 1.363 . S
C1352 C1357 1.379 . S
C1352 N1359 1.356 . S
C1353 C1352 1.363 . S
C1353 C1356 1.363 . S
N1354 C1356 1.356 1_554 S
N1354 H1366 0.985 . S
N1354 H1367 0.985 . S
N1355 C1357 1.356 . S
N1355 H1360 0.984 . S
N1355 H1361 0.985 . S
C1356 C1350 1.379 . S
C1356 C1353 1.363 . S
C1356 N1354 1.356 1_556 S
C1357 C1351 1.363 . S
C1357 C1352 1.379 . S
C1357 N1355 1.356 . S
N1358 C1350 1.356 . S
N1358 H1364 0.984 . S
N1358 H1365 0.984 . S
N1359 C1352 1.356 . S
N1359 H1362 0.984 . S
N1359 H1363 0.985 . S
H1360 N1355 0.984 . S
H1361 N1355 0.985 . S
H1362 N1359 0.984 . S
H1363 N1359 0.985 . S
H1364 N1358 0.984 . S
H1365 N1358 0.984 . S
H1366 N1354 0.985 . S
H1367 N1354 0.985 . S
C1368 C1369 1.363 . S
C1368 C1374 1.379 . S
C1368 N1376 1.356 . S
C1369 C1368 1.363 . S
C1369 C1375 1.363 . S
C1370 C1371 1.363 . S
C1370 C1375 1.379 . S
C1370 N1377 1.356 . S
C1371 C1370 1.363 . S
C1371 C1374 1.363 . S
N1372 C1374 1.356 . S
N1372 H1384 0.984 . S
N1372 H1385 0.985 . S
N1373 C1375 1.356 . S
N1373 H1378 0.984 . S
N1373 H1379 0.985 . S
C1374 C1368 1.379 . S
C1374 C1371 1.363 . S
C1374 N1372 1.356 . S
C1375 C1369 1.363 . S
C1375 C1370 1.379 . S
C1375 N1373 1.356 . S
N1376 C1368 1.356 . S
N1376 H1382 0.984 . S
N1376 H1383 0.984 . S
N1377 C1370 1.356 . S
N1377 H1380 0.984 . S
N1377 H1381 0.985 . S
H1378 N1373 0.984 . S
H1379 N1373 0.985 . S
H1380 N1377 0.984 . S
H1381 N1377 0.985 . S
H1382 N1376 0.984 . S
H1383 N1376 0.984 . S
H1384 N1372 0.984 . S
H1385 N1372 0.985 . S
C1386 C1387 1.363 . S
C1386 C1392 1.379 . S
C1386 N1394 1.356 . S
C1387 C1386 1.363 . S
C1387 C1393 1.363 . S
C1388 C1389 1.363 . S
C1388 C1393 1.379 . S
C1388 N1395 1.356 . S
C1389 C1388 1.363 . S
C1389 C1392 1.363 . S
N1390 C1392 1.356 . S
N1390 H1402 0.984 . S
N1390 H1403 0.985 . S
N1391 C1393 1.356 . S
N1391 H1396 0.984 . S
N1391 H1397 0.985 . S
C1392 C1386 1.379 . S
C1392 C1389 1.363 . S
C1392 N1390 1.356 . S
C1393 C1387 1.363 . S
C1393 C1388 1.379 . S
C1393 N1391 1.356 . S
N1394 C1386 1.356 . S
N1394 H1400 0.984 . S
N1394 H1401 0.984 . S
N1395 C1388 1.356 . S
N1395 H1398 0.984 . S
N1395 H1399 0.985 . S
H1396 N1391 0.984 . S
H1397 N1391 0.985 . S
H1398 N1395 0.984 . S
H1399 N1395 0.985 . S
H1400 N1394 0.984 . S
H1401 N1394 0.984 . S
H1402 N1390 0.984 . S
H1403 N1390 0.985 . S
C1404 C1405 1.363 . S
C1404 C1410 1.379 . S
C1404 N1412 1.356 . S
C1405 C1404 1.363 . S
C1405 C1411 1.363 . S
C1406 C1407 1.363 . S
C1406 C1411 1.379 . S
C1406 N1413 1.356 . S
C1407 C1406 1.363 . S
C1407 C1410 1.363 . S
N1408 C1410 1.356 . S
N1408 H1420 0.984 . S
N1408 H1421 0.985 . S
N1409 C1411 1.356 . S
N1409 H1414 0.984 . S
N1409 H1415 0.985 . S
C1410 C1404 1.379 . S
C1410 C1407 1.363 . S
C1410 N1408 1.356 . S
C1411 C1405 1.363 . S
C1411 C1406 1.379 . S
C1411 N1409 1.356 . S
N1412 C1404 1.356 . S
N1412 H1418 0.984 . S
N1412 H1419 0.984 . S
N1413 C1406 1.356 . S
N1413 H1416 0.984 . S
N1413 H1417 0.985 . S
H1414 N1409 0.984 . S
H1415 N1409 0.985 . S
H1416 N1413 0.984 . S
H1417 N1413 0.985 . S
H1418 N1412 0.984 . S
H1419 N1412 0.984 . S
H1420 N1408 0.984 . S
H1421 N1408 0.985 . S
C1422 C1423 1.363 . S
C1422 C1428 1.379 . S
C1422 N1430 1.356 . S
C1423 C1422 1.363 . S
C1423 C1429 1.363 . S
C1424 C1425 1.363 . S
C1424 C1429 1.379 . S
C1424 N1431 1.356 . S
C1425 C1424 1.363 . S
C1425 C1428 1.363 . S
N1426 C1428 1.356 . S
N1426 H1438 0.984 . S
N1426 H1439 0.985 . S
N1427 C1429 1.356 . S
N1427 H1432 0.984 . S
N1427 H1433 0.985 . S
C1428 C1422 1.379 . S
C1428 C1425 1.363 . S
C1428 N1426 1.356 . S
C1429 C1423 1.363 . S
C1429 C1424 1.379 . S
C1429 N1427 1.356 . S
N1430 C1422 1.356 . S
N1430 H1436 0.985 1_655 S
N1430 H1437 0.985 1_655 S
N1431 C1424 1.356 . S
N1431 H1434 0.984 . S
N1431 H1435 0.985 . S
H1432 N1427 0.984 . S
H1433 N1427 0.985 . S
H1434 N1431 0.984 . S
H1435 N1431 0.985 . S
H1436 N1430 0.985 1_455 S
H1437 N1430 0.985 1_455 S
H1438 N1426 0.984 . S
H1439 N1426 0.985 . S
C1440 C1441 1.363 . S
C1440 C1446 1.379 . S
C1440 N1448 1.356 . S
C1441 C1440 1.363 . S
C1441 C1447 1.363 . S
C1442 C1443 1.363 . S
C1442 C1447 1.379 . S
C1442 N1449 1.356 . S
C1443 C1442 1.363 . S
C1443 C1446 1.363 . S
N1444 C1446 1.356 . S
N1444 H1456 0.984 . S
N1444 H1457 0.985 . S
N1445 C1447 1.356 . S
N1445 H1450 0.984 . S
N1445 H1451 0.985 . S
C1446 C1440 1.379 . S
C1446 C1443 1.363 . S
C1446 N1444 1.356 . S
C1447 C1441 1.363 . S
C1447 C1442 1.379 . S
C1447 N1445 1.356 . S
N1448 C1440 1.356 . S
N1448 H1454 0.984 . S
N1448 H1455 0.984 . S
N1449 C1442 1.356 . S
N1449 H1452 0.984 . S
N1449 H1453 0.985 . S
H1450 N1445 0.984 . S
H1451 N1445 0.985 . S
H1452 N1449 0.984 . S
H1453 N1449 0.985 . S
H1454 N1448 0.984 . S
H1455 N1448 0.984 . S
H1456 N1444 0.984 . S
H1457 N1444 0.985 . S
C1458 C1459 1.363 . S
C1458 C1464 1.379 . S
C1458 N1466 1.356 . S
C1459 C1458 1.363 . S
C1459 C1465 1.363 . S
C1460 C1461 1.363 . S
C1460 C1465 1.379 . S
C1460 N1467 1.356 . S
C1461 C1460 1.363 . S
C1461 C1464 1.363 . S
N1462 C1464 1.356 . S
N1462 H1474 0.984 . S
N1462 H1475 0.985 . S
N1463 C1465 1.356 . S
N1463 H1468 0.984 . S
N1463 H1469 0.985 . S
C1464 C1458 1.379 . S
C1464 C1461 1.363 . S
C1464 N1462 1.356 . S
C1465 C1459 1.363 . S
C1465 C1460 1.379 . S
C1465 N1463 1.356 . S
N1466 C1458 1.356 . S
N1466 H1472 0.984 . S
N1466 H1473 0.984 . S
N1467 C1460 1.356 . S
N1467 H1470 0.984 . S
N1467 H1471 0.985 . S
H1468 N1463 0.984 . S
H1469 N1463 0.985 . S
H1470 N1467 0.984 . S
H1471 N1467 0.985 . S
H1472 N1466 0.984 . S
H1473 N1466 0.984 . S
H1474 N1462 0.984 . S
H1475 N1462 0.985 . S
C1476 C1477 1.363 . S
C1476 C1482 1.379 . S
C1476 N1484 1.356 . S
C1477 C1476 1.363 . S
C1477 C1483 1.363 . S
C1478 C1479 1.363 . S
C1478 C1483 1.379 . S
C1478 N1485 1.356 . S
C1479 C1478 1.363 . S
C1479 C1482 1.363 . S
N1480 C1482 1.356 . S
N1480 H1492 0.984 . S
N1480 H1493 0.985 . S
N1481 C1483 1.356 . S
N1481 H1486 0.984 . S
N1481 H1487 0.985 . S
C1482 C1476 1.379 . S
C1482 C1479 1.363 . S
C1482 N1480 1.356 . S
C1483 C1477 1.363 . S
C1483 C1478 1.379 . S
C1483 N1481 1.356 . S
N1484 C1476 1.356 . S
N1484 H1490 0.984 . S
N1484 H1491 0.984 . S
N1485 C1478 1.356 . S
N1485 H1488 0.984 . S
N1485 H1489 0.985 . S
H1486 N1481 0.984 . S
H1487 N1481 0.985 . S
H1488 N1485 0.984 . S
H1489 N1485 0.985 . S
H1490 N1484 0.984 . S
H1491 N1484 0.984 . S
H1492 N1480 0.984 . S
H1493 N1480 0.985 . S
C1494 C1495 1.363 . S
C1494 C1500 1.379 . S
C1494 N1502 1.356 . S
C1495 C1494 1.363 . S
C1495 C1501 1.363 . S
C1496 C1497 1.363 . S
C1496 C1501 1.379 . S
C1496 N1503 1.356 . S
C1497 C1496 1.363 . S
C1497 C1500 1.363 . S
N1498 C1500 1.356 . S
N1498 H1510 0.984 . S
N1498 H1511 0.985 . S
N1499 C1501 1.356 . S
N1499 H1504 0.984 . S
N1499 H1505 0.985 . S
C1500 C1494 1.379 . S
C1500 C1497 1.363 . S
C1500 N1498 1.356 . S
C1501 C1495 1.363 . S
C1501 C1496 1.379 . S
C1501 N1499 1.356 . S
N1502 C1494 1.356 . S
N1502 H1508 0.984 . S
N1502 H1509 0.984 . S
N1503 C1496 1.356 . S
N1503 H1506 0.984 . S
N1503 H1507 0.985 . S
H1504 N1499 0.984 . S
H1505 N1499 0.985 . S
H1506 N1503 0.984 . S
H1507 N1503 0.985 . S
H1508 N1502 0.984 . S
H1509 N1502 0.984 . S
H1510 N1498 0.984 . S
H1511 N1498 0.985 . S
C1512 C1513 1.363 . S
C1512 C1518 1.379 . S
C1512 N1520 1.356 . S
C1513 C1512 1.363 . S
C1513 C1519 1.363 . S
C1514 C1515 1.363 . S
C1514 C1519 1.379 . S
C1514 N1521 1.356 . S
C1515 C1514 1.363 . S
C1515 C1518 1.363 . S
N1516 C1518 1.356 . S
N1516 H1528 0.984 . S
N1516 H1529 0.985 . S
N1517 C1519 1.356 . S
N1517 H1522 0.984 . S
N1517 H1523 0.985 . S
C1518 C1512 1.379 . S
C1518 C1515 1.363 . S
C1518 N1516 1.356 . S
C1519 C1513 1.363 . S
C1519 C1514 1.379 . S
C1519 N1517 1.356 . S
N1520 C1512 1.356 . S
N1520 H1526 0.984 . S
N1520 H1527 0.984 . S
N1521 C1514 1.356 . S
N1521 H1524 0.984 . S
N1521 H1525 0.985 . S
H1522 N1517 0.984 . S
H1523 N1517 0.985 . S
H1524 N1521 0.984 . S
H1525 N1521 0.985 . S
H1526 N1520 0.984 . S
H1527 N1520 0.984 . S
H1528 N1516 0.984 . S
H1529 N1516 0.985 . S
C1530 C1531 1.363 . S
C1530 C1536 1.379 . S
C1530 N1538 1.356 . S
C1531 C1530 1.363 . S
C1531 C1537 1.363 . S
C1532 C1533 1.363 . S
C1532 C1537 1.379 . S
C1532 N1539 1.356 . S
C1533 C1532 1.363 . S
C1533 C1536 1.363 . S
N1534 C1536 1.356 . S
N1534 H1546 0.984 . S
N1534 H1547 0.985 . S
N1535 C1537 1.356 . S
N1535 H1540 0.984 . S
N1535 H1541 0.985 . S
C1536 C1530 1.379 . S
C1536 C1533 1.363 . S
C1536 N1534 1.356 . S
C1537 C1531 1.363 . S
C1537 C1532 1.379 . S
C1537 N1535 1.356 . S
N1538 C1530 1.356 . S
N1538 H1544 0.984 . S
N1538 H1545 0.984 . S
N1539 C1532 1.356 . S
N1539 H1542 0.984 . S
N1539 H1543 0.985 . S
H1540 N1535 0.984 . S
H1541 N1535 0.985 . S
H1542 N1539 0.984 . S
H1543 N1539 0.985 . S
H1544 N1538 0.984 . S
H1545 N1538 0.984 . S
H1546 N1534 0.984 . S
H1547 N1534 0.985 . S
C1548 C1549 1.363 . S
C1548 C1554 1.379 . S
C1548 N1556 1.356 . S
C1549 C1548 1.363 . S
C1549 C1555 1.363 . S
C1550 C1551 1.363 . S
C1550 C1555 1.379 . S
C1550 N1557 1.356 . S
C1551 C1550 1.363 . S
C1551 C1554 1.363 . S
N1552 C1554 1.356 . S
N1552 H1564 0.984 . S
N1552 H1565 0.985 . S
N1553 C1555 1.356 . S
N1553 H1558 0.984 . S
N1553 H1559 0.985 . S
C1554 C1548 1.379 . S
C1554 C1551 1.363 . S
C1554 N1552 1.356 . S
C1555 C1549 1.363 . S
C1555 C1550 1.379 . S
C1555 N1553 1.356 . S
N1556 C1548 1.356 . S
N1556 H1562 0.984 . S
N1556 H1563 0.984 . S
N1557 C1550 1.356 . S
N1557 H1560 0.984 . S
N1557 H1561 0.985 . S
H1558 N1553 0.984 . S
H1559 N1553 0.985 . S
H1560 N1557 0.984 . S
H1561 N1557 0.985 . S
H1562 N1556 0.984 . S
H1563 N1556 0.984 . S
H1564 N1552 0.984 . S
H1565 N1552 0.985 . S
C1566 C1567 1.363 . S
C1566 C1572 1.379 . S
C1566 N1574 1.356 . S
C1567 C1566 1.363 . S
C1567 C1573 1.363 . S
C1568 C1569 1.363 . S
C1568 C1573 1.379 . S
C1568 N1575 1.356 . S
C1569 C1568 1.363 . S
C1569 C1572 1.363 . S
N1570 C1572 1.356 . S
N1570 H1582 0.984 . S
N1570 H1583 0.985 . S
N1571 C1573 1.356 . S
N1571 H1576 0.984 . S
N1571 H1577 0.985 . S
C1572 C1566 1.379 . S
C1572 C1569 1.363 . S
C1572 N1570 1.356 . S
C1573 C1567 1.363 . S
C1573 C1568 1.379 . S
C1573 N1571 1.356 . S
N1574 C1566 1.356 . S
N1574 H1580 0.984 . S
N1574 H1581 0.984 . S
N1575 C1568 1.356 . S
N1575 H1578 0.984 . S
N1575 H1579 0.985 . S
H1576 N1571 0.984 . S
H1577 N1571 0.985 . S
H1578 N1575 0.984 . S
H1579 N1575 0.985 . S
H1580 N1574 0.984 . S
H1581 N1574 0.984 . S
H1582 N1570 0.984 . S
H1583 N1570 0.985 . S
C1584 C1585 1.363 . S
C1584 C1590 1.379 . S
C1584 N1592 1.356 . S
C1585 C1584 1.363 . S
C1585 C1591 1.363 . S
C1586 C1587 1.363 . S
C1586 C1591 1.379 . S
C1586 N1593 1.356 . S
C1587 C1586 1.363 . S
C1587 C1590 1.363 . S
N1588 C1590 1.356 . S
N1588 H1600 0.984 . S
N1588 H1601 0.985 . S
N1589 C1591 1.341 1_655 S
N1589 H1594 0.987 . S
N1589 H1595 0.998 . S
C1590 C1584 1.379 . S
C1590 C1587 1.363 . S
C1590 N1588 1.356 . S
C1591 C1585 1.363 . S
C1591 C1586 1.379 . S
C1591 N1589 1.341 1_455 S
N1592 C1584 1.356 . S
N1592 H1598 0.984 . S
N1592 H1599 0.984 . S
N1593 C1586 1.356 . S
N1593 H1596 0.984 . S
N1593 H1597 0.985 . S
H1594 N1589 0.987 . S
H1595 N1589 0.998 . S
H1596 N1593 0.984 . S
H1597 N1593 0.985 . S
H1598 N1592 0.984 . S
H1599 N1592 0.984 . S
H1600 N1588 0.984 . S
H1601 N1588 0.985 . S
C1602 C1603 1.363 . S
C1602 C1608 1.379 . S
C1602 N1610 1.356 . S
C1603 C1602 1.363 . S
C1603 C1609 1.363 . S
C1604 C1605 1.363 . S
C1604 C1609 1.379 . S
C1604 N1611 1.356 . S
C1605 C1604 1.363 . S
C1605 C1608 1.363 . S
N1606 C1608 1.356 . S
N1606 H1618 0.984 . S
N1606 H1619 0.985 . S
N1607 C1609 1.356 . S
N1607 H1612 0.984 . S
N1607 H1613 0.985 . S
C1608 C1602 1.379 . S
C1608 C1605 1.363 . S
C1608 N1606 1.356 . S
C1609 C1603 1.363 . S
C1609 C1604 1.379 . S
C1609 N1607 1.356 . S
N1610 C1602 1.356 . S
N1610 H1616 0.984 . S
N1610 H1617 0.984 . S
N1611 C1604 1.356 . S
N1611 H1614 0.984 . S
N1611 H1615 0.985 . S
H1612 N1607 0.984 . S
H1613 N1607 0.985 . S
H1614 N1611 0.984 . S
H1615 N1611 0.985 . S
H1616 N1610 0.984 . S
H1617 N1610 0.984 . S
H1618 N1606 0.984 . S
H1619 N1606 0.985 . S
C1620 C1621 1.363 . S
C1620 C1626 1.379 . S
C1620 N1628 1.356 . S
C1621 C1620 1.363 . S
C1621 C1627 1.363 . S
C1622 C1623 1.363 . S
C1622 C1627 1.379 . S
C1622 N1629 1.356 . S
C1623 C1622 1.363 . S
C1623 C1626 1.363 . S
N1624 C1626 1.356 . S
N1624 H1636 0.984 . S
N1624 H1637 0.985 . S
N1625 C1627 1.356 . S
N1625 H1630 0.984 . S
N1625 H1631 0.985 . S
C1626 C1620 1.379 . S
C1626 C1623 1.363 . S
C1626 N1624 1.356 . S
C1627 C1621 1.363 . S
C1627 C1622 1.379 . S
C1627 N1625 1.356 . S
N1628 C1620 1.356 . S
N1628 H1634 0.984 . S
N1628 H1635 0.984 . S
N1629 C1622 1.356 . S
N1629 H1632 0.984 . S
N1629 H1633 0.985 . S
H1630 N1625 0.984 . S
H1631 N1625 0.985 . S
H1632 N1629 0.984 . S
H1633 N1629 0.985 . S
H1634 N1628 0.984 . S
H1635 N1628 0.984 . S
H1636 N1624 0.984 . S
H1637 N1624 0.985 . S
C1638 C1639 1.363 . S
C1638 C1644 1.379 . S
C1638 N1646 1.356 . S
C1639 C1638 1.363 . S
C1639 C1645 1.363 . S
C1640 C1641 1.363 . S
C1640 C1645 1.379 . S
C1640 N1647 1.356 . S
C1641 C1640 1.363 . S
C1641 C1644 1.363 . S
N1642 C1644 1.356 . S
N1642 H1654 0.984 . S
N1642 H1655 0.985 . S
N1643 C1645 1.356 . S
N1643 H1648 0.984 . S
N1643 H1649 0.985 . S
C1644 C1638 1.379 . S
C1644 C1641 1.363 . S
C1644 N1642 1.356 . S
C1645 C1639 1.363 . S
C1645 C1640 1.379 . S
C1645 N1643 1.356 . S
N1646 C1638 1.356 . S
N1646 H1652 0.984 . S
N1646 H1653 0.984 . S
N1647 C1640 1.356 . S
N1647 H1650 0.984 . S
N1647 H1651 0.985 . S
H1648 N1643 0.984 . S
H1649 N1643 0.985 . S
H1650 N1647 0.984 . S
H1651 N1647 0.985 . S
H1652 N1646 0.984 . S
H1653 N1646 0.984 . S
H1654 N1642 0.984 . S
H1655 N1642 0.985 . S
C1656 C1657 1.363 . S
C1656 C1662 1.379 . S
C1656 N1664 1.356 . S
C1657 C1656 1.363 . S
C1657 C1663 1.363 . S
C1658 C1659 1.363 . S
C1658 C1663 1.379 . S
C1658 N1665 1.356 . S
C1659 C1658 1.363 . S
C1659 C1662 1.363 . S
N1660 C1662 1.356 . S
N1660 H1672 0.984 . S
N1660 H1673 0.985 . S
N1661 C1663 1.356 . S
N1661 H1666 0.984 . S
N1661 H1667 0.985 . S
C1662 C1656 1.379 . S
C1662 C1659 1.363 . S
C1662 N1660 1.356 . S
C1663 C1657 1.363 . S
C1663 C1658 1.379 . S
C1663 N1661 1.356 . S
N1664 C1656 1.356 . S
N1664 H1670 0.984 . S
N1664 H1671 0.984 . S
N1665 C1658 1.356 . S
N1665 H1668 0.984 . S
N1665 H1669 0.985 . S
H1666 N1661 0.984 . S
H1667 N1661 0.985 . S
H1668 N1665 0.984 . S
H1669 N1665 0.985 . S
H1670 N1664 0.984 . S
H1671 N1664 0.984 . S
H1672 N1660 0.984 . S
H1673 N1660 0.985 . S
C1674 C1675 1.363 . S
C1674 C1680 1.379 . S
C1674 N1682 1.356 . S
C1675 C1674 1.363 . S
C1675 C1681 1.363 . S
C1676 C1677 1.363 . S
C1676 C1681 1.379 . S
C1676 N1683 1.356 . S
C1677 C1676 1.363 . S
C1677 C1680 1.363 . S
N1678 C1680 1.356 . S
N1678 H1690 0.984 . S
N1678 H1691 0.985 . S
N1679 C1681 1.356 . S
N1679 H1684 0.984 . S
N1679 H1685 0.985 . S
C1680 C1674 1.379 . S
C1680 C1677 1.363 . S
C1680 N1678 1.356 . S
C1681 C1675 1.363 . S
C1681 C1676 1.379 . S
C1681 N1679 1.356 . S
N1682 C1674 1.356 . S
N1682 H1688 0.984 . S
N1682 H1689 0.984 . S
N1683 C1676 1.356 . S
N1683 H1686 0.984 . S
N1683 H1687 0.985 . S
H1684 N1679 0.984 . S
H1685 N1679 0.985 . S
H1686 N1683 0.984 . S
H1687 N1683 0.985 . S
H1688 N1682 0.984 . S
H1689 N1682 0.984 . S
H1690 N1678 0.984 . S
H1691 N1678 0.985 . S
C1692 C1693 1.363 . S
C1692 C1698 1.379 . S
C1692 N1700 1.356 . S
C1693 C1692 1.363 . S
C1693 C1699 1.363 . S
C1694 C1695 1.363 . S
C1694 C1699 1.379 . S
C1694 N1701 1.356 . S
C1695 C1694 1.363 . S
C1695 C1698 1.363 . S
N1696 C1698 1.356 . S
N1696 H1708 0.984 . S
N1696 H1709 0.985 . S
N1697 C1699 1.356 . S
N1697 H1702 0.984 . S
N1697 H1703 0.985 . S
C1698 C1692 1.379 . S
C1698 C1695 1.363 . S
C1698 N1696 1.356 . S
C1699 C1693 1.363 . S
C1699 C1694 1.379 . S
C1699 N1697 1.356 . S
N1700 C1692 1.356 . S
N1700 H1706 0.984 . S
N1700 H1707 0.984 . S
N1701 C1694 1.356 . S
N1701 H1704 0.984 . S
N1701 H1705 0.985 . S
H1702 N1697 0.984 . S
H1703 N1697 0.985 . S
H1704 N1701 0.984 . S
H1705 N1701 0.985 . S
H1706 N1700 0.984 . S
H1707 N1700 0.984 . S
H1708 N1696 0.984 . S
H1709 N1696 0.985 . S
C1710 C1711 1.363 . S
C1710 C1716 1.379 . S
C1710 N1718 1.356 . S
C1711 C1710 1.363 . S
C1711 C1717 1.363 . S
C1712 C1713 1.363 . S
C1712 C1717 1.379 . S
C1712 N1719 1.356 . S
C1713 C1712 1.363 . S
C1713 C1716 1.363 . S
N1714 C1716 1.356 . S
N1714 H1726 0.984 . S
N1714 H1727 0.985 . S
N1715 C1717 1.356 . S
N1715 H1720 0.984 . S
N1715 H1721 0.985 . S
C1716 C1710 1.379 . S
C1716 C1713 1.363 . S
C1716 N1714 1.356 . S
C1717 C1711 1.363 . S
C1717 C1712 1.379 . S
C1717 N1715 1.356 . S
N1718 C1710 1.356 . S
N1718 H1724 0.984 . S
N1718 H1725 0.984 . S
N1719 C1712 1.356 . S
N1719 H1722 0.984 . S
N1719 H1723 0.985 . S
H1720 N1715 0.984 . S
H1721 N1715 0.985 . S
H1722 N1719 0.984 . S
H1723 N1719 0.985 . S
H1724 N1718 0.984 . S
H1725 N1718 0.984 . S
H1726 N1714 0.984 . S
H1727 N1714 0.985 . S
C865 C506 1.459 . S
C867 C4 1.480 . S
C883 C40 1.329 . S
C885 C554 1.297 . S
C901 C650 1.452 . S
C903 C75 1.479 . S
C919 C111 1.353 . S
C921 C471 1.353 . S
C937 C518 1.457 . S
C939 C147 1.494 . S
C955 C182 1.343 . S
C957 C542 1.343 . S
C973 C220 1.464 . S
C975 C662 1.430 . S
C991 C266 1.297 . S
C993 C472 1.329 . S
C1009 C328 1.464 . S
C1011 C302 1.430 . S
C1027 C374 1.457 . S
C1029 C327 1.494 . S
C1045 C362 1.459 . S
C1047 C400 1.480 . S
C1063 C399 1.479 . S
C1065 C290 1.452 . S
C1081 C446 1.297 . S
C1083 C112 1.329 . S
C1099 C148 1.464 . S
C1101 C590 1.430 . S
C1117 C615 1.353 . S
C1119 C39 1.353 . S
C1135 C50 1.374 . S
C1137 C759 1.405 . S
C1153 C338 1.591 . S
C1155 C2 1.601 . S
C1171 C832 1.445 . S
C1173 C110 1.439 . S
C1189 C410 1.588 . S
C1191 C86 1.588 . S
C1207 C760 1.439 . S
C1209 C256 1.440 . S
C1225 C326 1.574 . S
C1227 C218 1.574 . S
C1243 C183 1.448 . S
C1245 C831 1.448 . S
C1261 C158 1.591 . S
C1263 C398 1.601 . S
C1279 C543 1.448 . S
C1281 C687 1.448 . S
C1297 C580 1.439 . S
C1299 C544 1.440 . S
C1315 C482 1.374 . S
C1317 C579 1.405 . S
C1333 C688 1.445 . S
C1335 C470 1.439 . S
C1351 C74 1.601 . S
C1353 C734 1.591 . S
C1369 C363 1.448 . S
C1371 C255 1.448 . S
C1387 C14 1.588 . S
C1389 C806 1.588 . S
C1405 C686 1.459 . S
C1407 C76 1.480 . S
C1423 C3 1.479 . S
C1425 C578 1.452 . S
C1441 C698 1.457 . S
C1443 C219 1.494 . S
C1459 C434 1.343 . S
C1461 C254 1.343 . S
C1477 C194 1.297 . S
C1479 C616 1.329 . S
C1495 C770 1.430 . S
C1497 C724 1.464 . S
C1513 C842 1.457 . S
C1515 C723 1.494 . S
C1531 C796 1.480 . S
C1533 C830 1.459 . S
C1549 C758 1.452 . S
C1551 C795 1.479 . S
C1567 C291 1.405 . S
C1569 C122 1.374 . S
C1585 C38 1.439 . S
C1587 C364 1.445 . S
C1603 C184 1.440 . S
C1605 C292 1.439 . S
C1621 C722 1.574 . S
C1623 C146 1.574 . S
C1639 C230 1.591 . S
C1641 C794 1.601 . S
C1657 C435 1.448 . S
C1659 C507 1.448 . S
C1675 C652 1.439 . S
C1677 C436 1.440 . S
C1693 C626 1.374 . S
C1695 C651 1.405 . S
C1711 C508 1.445 . S
C1713 C614 1.439 . S
