# Generated by pormake.
# Topology uon, (4)-cn, num edge types: 1
# Building blocks:
#     Node 0, Type 0, BuildingBlock: ESEHIV_clean_sbu_0, # of connection points: 4
#     Node 1, Type 0, BuildingBlock: ESEHIV_clean_sbu_0, # of connection points: 4
#     Node 2, Type 0, BuildingBlock: ESEHIV_clean_sbu_0, # of connection points: 4
#     Node 3, Type 0, BuildingBlock: ESEHIV_clean_sbu_0, # of connection points: 4
#     Node 4, Type 0, BuildingBlock: ESEHIV_clean_sbu_0, # of connection points: 4
#     Node 5, Type 0, BuildingBlock: ESEHIV_clean_sbu_0, # of connection points: 4
#     Edge 6, Type (0, 0), BuildingBlock: XUDNAN_clean_linker_2, # of connection points: 2
#     Edge 7, Type (0, 0), BuildingBlock: XUDNAN_clean_linker_2, # of connection points: 2
#     Edge 8, Type (0, 0), BuildingBlock: XUDNAN_clean_linker_2, # of connection points: 2
#     Edge 9, Type (0, 0), BuildingBlock: XUDNAN_clean_linker_2, # of connection points: 2
#     Edge 10, Type (0, 0), BuildingBlock: XUDNAN_clean_linker_2, # of connection points: 2
#     Edge 11, Type (0, 0), BuildingBlock: XUDNAN_clean_linker_2, # of connection points: 2
#     Edge 12, Type (0, 0), BuildingBlock: XUDNAN_clean_linker_2, # of connection points: 2
#     Edge 13, Type (0, 0), BuildingBlock: XUDNAN_clean_linker_2, # of connection points: 2
#     Edge 14, Type (0, 0), BuildingBlock: XUDNAN_clean_linker_2, # of connection points: 2
#     Edge 15, Type (0, 0), BuildingBlock: XUDNAN_clean_linker_2, # of connection points: 2
#     Edge 16, Type (0, 0), BuildingBlock: XUDNAN_clean_linker_2, # of connection points: 2
#     Edge 17, Type (0, 0), BuildingBlock: XUDNAN_clean_linker_2, # of connection points: 2
# Relax obj value: 0.074
# Max RMSD: 0.073
# Mean RMSD: 0.073
data_MOF--net-uon--node1-ESEHIV_clean_sbu_0--edge1-XUDNAN_clean_linker_2
_symmetry_space_group_name_H-M    P1
_symmetry_Int_Tables_number       1
_symmetry_cell_setting            triclinic
loop_
_symmetry_equiv_pos_as_xyz
'x, y, z'
_cell_length_a     34.869721
_cell_length_b     34.667259
_cell_length_c     27.520593
_cell_angle_alpha  90.444283
_cell_angle_beta   89.785334
_cell_angle_gamma 120.41923
loop_
_atom_site_label
_atom_site_type_symbol
_atom_site_fract_x
_atom_site_fract_y
_atom_site_fract_z
_atom_type_partial_charge
Cu0 Cu 0.2345 0.45296 1.01584 0.0
N1 N 0.25961 0.49239 0.96317 0.0
N2 N 0.30965 0.54712 0.91521 0.0
C3 C 0.30153 0.52745 0.95942 0.0
C4 C 0.2711 0.52339 0.89046 0.0
C5 C 0.24049 0.48979 0.92 0.0
O6 O 0.24718 0.40449 1.00587 0.0
C7 C 0.23731 0.4766 0.11574 0.0
O8 O 0.2019 0.43667 0.11947 0.0
H9 H 0.32589 0.53746 0.98818 0.0
H10 H 0.20675 0.46481 0.91046 0.0
N11 N 0.17244 0.42896 1.01801 0.0
N12 N 0.10196 0.38795 0.04435 0.0
C13 C 0.1417 0.39024 0.0388 0.0
C14 C 0.15115 0.4515 1.00932 0.0
C15 C 0.10783 0.42639 0.0254 0.0
C16 C 0.28645 0.4112 1.00046 0.0
O17 O 0.32048 0.45177 1.00697 0.0
H18 H 0.14946 0.36606 0.05332 0.0
H19 H 0.16683 0.4851 0.99507 0.0
O20 O 0.25861 0.488 0.07564 0.0
H21 H 0.26521 0.52981 0.85363 0.0
H22 H 0.08311 0.43648 0.02483 0.0
Cu23 Cu 0.82727 0.25331 0.34807 0.0
N24 N 0.86345 0.31527 0.34389 0.0
N25 N 0.88663 0.37768 0.30026 0.0
C26 C 0.8517 0.338 0.31391 0.0
C27 C 0.92201 0.38019 0.32331 0.0
C28 C 0.90766 0.34147 0.34988 0.0
O29 O 0.83528 0.23596 0.28274 0.0
C30 C 0.76685 0.25625 0.40795 0.0
O31 O 0.80484 0.281 0.43066 0.0
H32 H 0.81893 0.32297 0.29781 0.0
H33 H 0.9286 0.33138 0.36801 0.0
N34 N 0.84185 0.22535 0.39717 0.0
N35 N 0.82825 0.176 0.45643 0.0
C36 C 0.81057 0.19118 0.42355 0.0
C37 C 0.88103 0.23211 0.41399 0.0
C38 C 0.87269 0.20135 0.45036 0.0
C39 C 0.8602 0.21966 0.27404 0.0
O40 O 0.86979 0.20075 0.30938 0.0
H41 H 0.77521 0.17712 0.41813 0.0
H42 H 0.91327 0.25715 0.40049 0.0
O43 O 0.76767 0.24094 0.36583 0.0
H44 H 0.95623 0.40656 0.31885 0.0
H45 H 0.8973 0.19815 0.47098 0.0
Cu46 Cu 0.60906 0.79982 0.63987 0.0
N47 N 0.57942 0.78557 0.58016 0.0
N48 N 0.54176 0.78999 0.51684 0.0
C49 C 0.56289 0.80899 0.55899 0.0
C50 C 0.54518 0.75311 0.51134 0.0
C51 C 0.5682 0.75034 0.55059 0.0
O52 O 0.64163 0.86542 0.6429 0.0
C53 C 0.56906 0.77766 0.73549 0.0
O54 O 0.60762 0.81005 0.7513 0.0
H55 H 0.56597 0.8392 0.57459 0.0
H56 H 0.57528 0.72392 0.55762 0.0
N57 N 0.64853 0.77786 0.64248 0.0
N58 N 0.6927 0.7536 0.67147 0.0
C59 C 0.66578 0.77011 0.6825 0.0
C60 C 0.66515 0.76602 0.6048 0.0
C61 C 0.69221 0.75107 0.62243 0.0
C62 C 0.67694 0.88684 0.61749 0.0
O63 O 0.69251 0.86425 0.59466 0.0
H64 H 0.65882 0.77678 0.71889 0.0
H65 H 0.65821 0.76822 0.56699 0.0
O66 O 0.56335 0.76993 0.68998 0.0
H67 H 0.53057 0.72889 0.4821 0.0
H68 H 0.70953 0.73867 0.60052 0.0
Cu69 Cu 0.8062 0.6003 1.01062 0.0
N70 N 0.7439 0.56538 1.00874 0.0
N71 N 0.67787 0.52126 0.97286 0.0
C72 C 0.72258 0.54154 0.96887 0.0
C73 C 0.67094 0.53311 1.0176 0.0
C74 C 0.71174 0.56048 0.03956 0.0
O75 O 0.82004 0.63168 0.94848 0.0
C76 C 0.81326 0.53737 0.0613 0.0
O77 O 0.78103 0.53946 0.08371 0.0
H78 H 0.74019 0.5407 0.93685 0.0
H79 H 0.71751 0.57621 0.07498 0.0
N80 N 0.83082 0.64254 0.06114 0.0
N81 N 0.88416 0.68787 0.11325 0.0
C82 C 0.87129 0.65524 0.07954 0.0
C83 C 0.81724 0.66785 0.08446 0.0
C84 C 0.85038 0.6962 0.11645 0.0
C85 C 0.80041 0.6542 0.94456 0.0
O86 O 0.77965 0.65751 0.98284 0.0
H87 H 0.89153 0.64152 0.06737 0.0
H88 H 0.78587 0.66629 0.07837 0.0
O89 O 0.82973 0.56067 0.02303 0.0
H90 H 0.63884 0.52307 0.03349 0.0
H91 H 0.84961 0.72076 0.14033 0.0
Cu92 Cu 0.22411 0.79949 0.36445 0.0
N93 N 0.21266 0.74064 0.36879 0.0
N94 N 0.21922 0.68224 0.34536 0.0
C95 C 0.23196 0.72545 0.33772 0.0
C96 C 0.19039 0.66945 0.38296 0.0
C97 C 0.18669 0.70582 0.39772 0.0
O98 O 0.18969 0.80228 0.30958 0.0
C99 C 0.30788 0.83028 0.39682 0.0
O100 O 0.28341 0.81127 0.43543 0.0
H101 H 0.25433 0.74576 0.30911 0.0
H102 H 0.16615 0.70659 0.42681 0.0
N103 N 0.20917 0.82177 0.41942 0.0
N104 N 0.21388 0.87242 0.47387 0.0
C105 C 0.23553 0.86229 0.44 0.0
C106 C 0.16922 0.80585 0.44082 0.0
C107 C 0.17202 0.83708 0.47445 0.0
C108 C 0.15071 0.76861 0.30305 0.0
O109 O 0.13663 0.73397 0.33174 0.0
H110 H 0.26943 0.88495 0.42866 0.0
H111 H 0.13972 0.77462 0.43124 0.0
O112 O 0.28874 0.83228 0.35823 0.0
H113 H 0.17342 0.63639 0.39875 0.0
H114 H 0.14525 0.83431 0.49701 0.0
Cu115 Cu 0.44486 0.22293 0.71416 0.0
N116 N 0.4909 0.21174 0.69769 0.0
N117 N 0.53889 0.20417 0.64973 0.0
C118 C 0.5054 0.21306 0.65185 0.0
C119 C 0.54529 0.19633 0.69615 0.0
C120 C 0.51549 0.20069 0.72556 0.0
O121 O 0.39385 0.18125 0.67412 0.0
C122 C 0.50764 0.31494 0.70963 0.0
O123 O 0.53533 0.30291 0.69284 0.0
H124 H 0.49235 0.22171 0.62083 0.0
H125 H 0.51198 0.19579 0.76436 0.0
N126 N 0.42869 0.21552 0.77992 0.0
N127 N 0.39961 0.23377 0.84289 0.0
C128 C 0.3942 0.21946 0.79621 0.0
C129 C 0.45676 0.2276 0.81797 0.0
C130 C 0.43882 0.23852 0.8568 0.0
C131 C 0.38626 0.14111 0.67391 0.0
O132 O 0.40996 0.13106 0.70254 0.0
H133 H 0.36886 0.21796 0.77234 0.0
H134 H 0.49043 0.23404 0.81599 0.0
O135 O 0.466 0.28675 0.70793 0.0
H136 H 0.56955 0.18771 0.70806 0.0
H137 H 0.45518 0.25257 0.89115 0.0
H138 H 0.36541 0.41152 0.99295 0.0
H139 H 0.2242 0.32957 0.96278 0.0
H140 H 0.23735 0.27329 0.92268 0.0
H141 H 0.40493 0.39173 0.88264 0.0
H142 H 0.45071 0.39 0.91062 0.0
H143 H 0.42895 0.42201 0.93843 0.0
H144 H 0.41704 0.37759 1.01816 0.0
H145 H 0.43798 0.34514 0.98918 0.0
H146 H 0.38367 0.31739 1.01689 0.0
H147 H 0.26708 0.22916 0.87882 0.0
H148 H 0.31044 0.19864 0.83987 0.0
H149 H 0.43165 0.30786 0.90098 0.0
C150 C 0.33711 0.38145 0.97854 0.0
C151 C 0.2937 0.3751 0.98112 0.0
C152 C 0.25771 0.33523 0.9616 0.0
C153 C 0.26488 0.30305 0.93859 0.0
C154 C 0.30818 0.31079 0.93586 0.0
C155 C 0.34362 0.34875 0.95591 0.0
C156 C 0.38699 0.34944 0.94735 0.0
C157 C 0.41978 0.39075 0.91797 0.0
C158 C 0.40762 0.34725 0.99578 0.0
C159 C 0.37066 0.30666 0.91807 0.0
C160 C 0.32506 0.28476 0.91192 0.0
C161 C 0.30271 0.24572 0.88403 0.0
C162 C 0.32755 0.22868 0.8619 0.0
C163 C 0.37425 0.25037 0.86793 0.0
C164 C 0.39587 0.2898 0.8967 0.0
H165 H 0.89629 0.29964 0.22634 0.0
H166 H 0.8912 0.17212 0.22521 0.0
H167 H 0.94887 0.19975 0.16102 0.0
H168 H 0.92015 0.32715 0.09635 0.0
H169 H 0.95885 0.38541 0.10881 0.0
H170 H 0.913 0.35365 0.14951 0.0
H171 H 0.96765 0.37448 0.22201 0.0
H172 H 1.01312 0.40732 0.18133 0.0
H173 H 1.01312 0.36405 0.21725 0.0
H174 H 1.01219 0.24371 0.1027 0.0
H175 H 0.07549 0.30008 0.05431 0.0
H176 H 0.04159 0.40012 0.09588 0.0
C177 C 0.90607 0.27697 0.21119 0.0
C178 C 0.88833 0.23319 0.22974 0.0
C179 C 0.90368 0.20536 0.21077 0.0
C180 C 0.93653 0.22086 0.17443 0.0
C181 C 0.95422 0.26458 0.15782 0.0
C182 C 0.93951 0.29226 0.17558 0.0
C183 C 0.9671 0.33919 0.15535 0.0
C184 C 0.93802 0.35208 0.12573 0.0
C185 C 0.99172 0.37328 0.19641 0.0
C186 C 0.99937 0.3335 0.12311 0.0
C187 C 0.9914 0.29023 0.12508 0.0
C188 C 1.01843 0.27757 0.10052 0.0
C189 C 0.05452 0.30989 0.07334 0.0
C190 C 0.06352 0.35453 0.07078 0.0
C191 C 0.03519 0.36616 0.09597 0.0
H192 H 0.84782 0.11254 0.48318 0.0
H193 H 0.75258 0.1564 0.50421 0.0
H194 H 0.70695 0.09075 0.55614 0.0
H195 H 0.76941 0.99887 0.47023 0.0
H196 H 0.80146 0.97898 0.50123 0.0
H197 H 0.82928 0.03223 0.47124 0.0
H198 H 0.86934 0.07069 0.55164 0.0
H199 H 0.84152 1.01743 0.58194 0.0
H200 H 0.83694 0.06357 0.60557 0.0
H201 H 0.66886 1.01696 0.60132 0.0
H202 H 0.63968 0.93975 0.63094 0.0
H203 H 0.75876 0.94313 0.57829 0.0
C204 C 0.81793 0.10879 0.49973 0.0
C205 C 0.80387 0.13968 0.48994 0.0
C206 C 0.76387 0.13304 0.51115 0.0
C207 C 0.73789 0.096 0.54094 0.0
C208 C 0.75221 0.06564 0.54917 0.0
C209 C 0.79129 0.07162 0.52908 0.0
C210 C 0.7973 0.03221 0.54005 0.0
C211 C 0.79946 1.00922 0.49289 0.0
C212 C 0.83874 0.04686 0.57169 0.0
C213 C 0.75503 1.00263 0.56827 0.0
C214 C 0.72981 0.0228 0.57403 0.0
C215 C 0.68858 1.00105 0.5974 0.0
C216 C 0.6723 0.95722 0.61432 0.0
C217 C 0.69692 0.93534 0.60715 0.0
C218 C 0.73917 0.95892 0.58461 0.0
H219 H 0.74371 0.68432 0.9263 0.0
H220 H 0.84151 0.66059 0.85584 0.0
H221 H 0.82635 0.68578 0.77756 0.0
H222 H 0.66554 0.6428 0.83006 0.0
H223 H 0.64784 0.68289 0.84001 0.0
H224 H 0.66867 0.66559 0.88998 0.0
H225 H 0.72786 0.74834 0.90792 0.0
H226 H 0.7072 0.76592 0.85801 0.0
H227 H 0.76511 0.78212 0.86024 0.0
H228 H 0.79871 0.71362 0.70669 0.0
H229 H 0.76074 0.73823 0.65035 0.0
H230 H 0.67862 0.73881 0.76916 0.0
C231 C 0.76255 0.68482 0.89471 0.0
C232 C 0.79428 0.67092 0.89739 0.0
C233 C 0.81734 0.6714 0.85474 0.0
C234 C 0.80888 0.68564 0.8102 0.0
C235 C 0.77703 0.69884 0.80904 0.0
C236 C 0.75417 0.69825 0.85033 0.0
C237 C 0.72018 0.71196 0.83978 0.0
C238 C 0.67276 0.67352 0.85059 0.0
C239 C 0.73075 0.75462 0.86817 0.0
C240 C 0.72744 0.72075 0.78591 0.0
C241 C 0.76044 0.71325 0.76871 0.0
C242 C 0.77271 0.71932 0.71991 0.0
C243 C 0.7506 0.73314 0.68802 0.0
C244 C 0.71617 0.74048 0.70478 0.0
C245 C 0.70485 0.73416 0.75466 0.0
H246 H 0.92804 0.64817 0.14792 0.0
H247 H 0.93443 0.77586 0.13738 0.0
H248 H 1.00776 0.81278 0.17892 0.0
H249 H 0.97382 0.66615 0.26716 0.0
H250 H 1.00321 0.63669 0.25545 0.0
H251 H 0.95308 0.62179 0.22248 0.0
H252 H 0.99546 0.63437 0.14131 0.0
H253 H 0.04597 0.64986 0.174 0.0
H254 H 0.04487 0.68755 0.13002 0.0
H255 H 0.08174 0.83539 0.22159 0.0
H256 H 0.14347 0.83971 0.27068 0.0
H257 H 0.08534 0.69621 0.25587 0.0
C258 C 0.9451 0.68397 0.15404 0.0
C259 C 0.92587 0.70931 0.13915 0.0
C260 C 0.94863 0.75591 0.14871 0.0
C261 C 0.9904 0.77713 0.17187 0.0
C262 C 1.00867 0.75115 0.18571 0.0
C263 C 0.98629 0.70542 0.17773 0.0
C264 C 1.01137 0.68437 0.19878 0.0
C265 C 0.98373 0.65026 0.23832 0.0
C266 C 1.02524 0.66278 0.15862 0.0
C267 C 0.05133 0.72529 0.22017 0.0
C268 C 0.04977 0.7637 0.21161 0.0
C269 C 0.08321 0.80547 0.22847 0.0
C270 C 0.11833 0.80773 0.25597 0.0
C271 C 0.11917 0.76835 0.26696 0.0
C272 C 0.0856 0.72691 0.24797 0.0
H273 H 0.39571 0.07616 0.6302 0.0
H274 H 0.30536 0.12722 0.64097 0.0
H275 H 0.25053 0.06367 0.58986 0.0
H276 H 0.37032 0.0393 0.50381 0.0
H277 H 0.37647 0.99135 0.51354 0.0
H278 H 0.40797 0.04119 0.54975 0.0
H279 H 0.37619 0.9945 0.62809 0.0
H280 H 0.34434 0.94463 0.59213 0.0
H281 H 0.31678 0.96116 0.63602 0.0
H282 H 0.20323 0.98957 0.54298 0.0
H283 H 0.17177 0.91795 0.49716 0.0
H284 H 0.29611 0.91971 0.51339 0.0
C285 C 0.36446 0.07416 0.62157 0.0
C286 C 0.35451 0.10633 0.63981 0.0
C287 C 0.3136 0.10294 0.62723 0.0
C288 C 0.28228 0.06687 0.59844 0.0
C289 C 0.29291 0.03516 0.5818 0.0
C290 C 0.3335 0.03915 0.59223 0.0
C291 C 0.33756 1.00138 0.56962 0.0
C292 C 0.37531 1.01939 0.53194 0.0
C293 C 0.34409 0.9738 0.60881 0.0
C294 C 0.29252 0.97474 0.54554 0.0
C295 C 0.26697 0.99441 0.55321 0.0
C296 C 0.22326 0.97434 0.53631 0.0
C297 C 0.20554 0.93355 0.51063 0.0
C298 C 0.23163 0.91353 0.50148 0.0
C299 C 0.27567 0.93463 0.51922 0.0
H300 H 0.1702 0.59324 0.32323 0.0
H301 H 0.29933 0.71206 0.30266 0.0
H302 H 0.32083 0.67016 0.24695 0.0
H303 H 0.20938 0.51146 0.31702 0.0
H304 H 0.16059 0.47077 0.28445 0.0
H305 H 0.15694 0.50884 0.3266 0.0
H306 H 0.12436 0.53513 0.2586 0.0
H307 H 0.12799 0.49725 0.21635 0.0
H308 H 0.15474 0.55601 0.20258 0.0
H309 H 0.32555 0.61784 0.18676 0.0
H310 H 0.31335 0.55823 0.1281 0.0
H311 H 0.18228 0.47245 0.1894 0.0
C312 C 0.20336 0.61004 0.30796 0.0
C313 C 0.23303 0.656 0.31725 0.0
C314 C 0.27585 0.67706 0.29567 0.0
C315 C 0.28849 0.65344 0.2642 0.0
C316 C 0.25811 0.60853 0.25476 0.0
C317 C 0.21653 0.58688 0.27627 0.0
C318 C 0.18921 0.53917 0.2576 0.0
C319 C 0.17841 0.50558 0.29888 0.0
C320 C 0.14657 0.53147 0.23228 0.0
C321 C 0.22153 0.53781 0.2215 0.0
C322 C 0.26119 0.57807 0.2206 0.0
C323 C 0.29492 0.58588 0.18772 0.0
C324 C 0.28772 0.55185 0.1545 0.0
C325 C 0.24717 0.51043 0.15448 0.0
C326 C 0.21407 0.50331 0.18909 0.0
H327 H 0.62505 0.22427 0.64691 0.0
H328 H 0.51028 0.18763 0.55578 0.0
H329 H 0.5547 0.19364 0.48287 0.0
H330 H 0.70487 0.30554 0.56964 0.0
H331 H 0.74739 0.29207 0.58257 0.0
H332 H 0.70555 0.28162 0.62735 0.0
H333 H 0.68411 0.19831 0.63111 0.0
H334 H 0.72607 0.20858 0.58641 0.0
H335 H 0.66919 0.16547 0.57596 0.0
H336 H 0.61384 0.20555 0.41885 0.0
H337 H 0.68216 0.22535 0.37135 0.0
H338 H 0.7568 0.25557 0.50577 0.0
C339 C 0.60893 0.2167 0.61178 0.0
C340 C 0.56406 0.20538 0.60725 0.0
C341 C 0.54469 0.19675 0.56026 0.0
C342 C 0.5696 0.19979 0.51861 0.0
C343 C 0.61396 0.21155 0.5244 0.0
C344 C 0.63334 0.21982 0.56994 0.0
C345 C 0.68199 0.23381 0.56656 0.0
C346 C 0.71168 0.28107 0.58777 0.0
C347 C 0.69084 0.1995 0.59149 0.0
C348 C 0.6873 0.23307 0.51203 0.0
C349 C 0.6477 0.2195 0.48809 0.0
C350 C 0.64501 0.21625 0.43736 0.0
C351 C 0.68388 0.2275 0.41063 0.0
C352 C 0.72488 0.24252 0.43474 0.0
C353 C 0.72615 0.24486 0.48608 0.0
H354 H 0.48694 0.70337 0.71593 0.0
H355 H 0.57054 0.78561 0.83484 0.0
H356 H 0.51319 0.7361 0.89352 0.0
H357 H 0.38153 0.67861 0.76884 0.0
H358 H 0.35214 0.62193 0.7461 0.0
H359 H 0.39938 0.66441 0.71338 0.0
H360 H 0.43698 0.61643 0.71727 0.0
H361 H 0.38992 0.57385 0.75007 0.0
H362 H 0.44499 0.59793 0.77542 0.0
H363 H 0.44688 0.67633 0.93981 0.0
H364 H 0.37681 0.61223 0.96952 0.0
H365 H 0.3367 0.56829 0.82067 0.0
C366 C 0.49313 0.71122 0.75428 0.0
C367 C 0.53342 0.74868 0.77059 0.0
C368 C 0.54007 0.75734 0.82123 0.0
C369 C 0.50763 0.72932 0.85495 0.0
C370 C 0.46851 0.69259 0.83767 0.0
C371 C 0.46109 0.68354 0.7885 0.0
C372 C 0.41644 0.64156 0.7795 0.0
C373 C 0.38555 0.65228 0.75023 0.0
C374 C 0.42246 0.6053 0.75407 0.0
C375 C 0.39993 0.62839 0.83124 0.0
C376 C 0.43046 0.65823 0.86427 0.0
C377 C 0.42276 0.65277 0.9142 0.0
C378 C 0.38285 0.61598 0.93079 0.0
C379 C 0.35083 0.58486 0.89769 0.0
C380 C 0.35988 0.5915 0.84717 0.0
H381 H 0.77183 0.46932 0.1249 0.0
H382 H 0.89911 0.55256 0.05494 0.0
H383 H 0.93293 0.52002 0.10803 0.0
H384 H 0.81182 0.48127 0.24269 0.0
H385 H 0.77262 0.42478 0.26075 0.0
H386 H 0.75807 0.45094 0.21385 0.0
H387 H 0.74143 0.38591 0.15436 0.0
H388 H 0.75521 0.35911 0.20138 0.0
H389 H 0.78333 0.37098 0.1436 0.0
H390 H 0.95313 0.48109 0.17511 0.0
H391 H 0.95652 0.43742 0.24384 0.0
H392 H 0.81554 0.38306 0.26956 0.0
C393 C 0.80666 0.48011 0.11991 0.0
C394 C 0.83278 0.5132 0.08552 0.0
C395 C 0.8783 0.52665 0.08047 0.0
C396 C 0.89781 0.50859 0.11077 0.0
C397 C 0.87118 0.47695 0.14552 0.0
C398 C 0.8264 0.46254 0.14959 0.0
C399 C 0.80494 0.42978 0.19074 0.0
C400 C 0.78576 0.4478 0.22927 0.0
C401 C 0.76912 0.38372 0.17135 0.0
C402 C 0.84467 0.42834 0.21005 0.0
C403 C 0.88264 0.45546 0.18359 0.0
C404 C 0.92341 0.45957 0.19571 0.0
C405 C 0.92506 0.43477 0.23518 0.0
C406 C 0.88616 0.40611 0.26218 0.0
C407 C 0.84579 0.40374 0.24943 0.0
H408 H 0.36415 0.86186 0.47298 0.0
H409 H 0.35354 0.81584 0.32427 0.0
H410 H 0.42086 0.80997 0.33585 0.0
H411 H 0.49043 0.92306 0.48196 0.0
H412 H 0.48705 0.90533 0.54401 0.0
H413 H 0.44508 0.91574 0.52007 0.0
H414 H 0.38429 0.83597 0.54533 0.0
H415 H 0.42583 0.82487 0.56835 0.0
H416 H 0.38706 0.78845 0.52285 0.0
H417 H 0.47919 0.79413 0.36955 0.0
H418 H 0.52704 0.77638 0.41956 0.0
H419 H 0.49875 0.83302 0.54606 0.0
C420 C 0.37732 0.85261 0.44218 0.0
C421 C 0.35425 0.84 0.39753 0.0
C422 C 0.37149 0.8268 0.35834 0.0
C423 C 0.40949 0.82302 0.36481 0.0
C424 C 0.4301 0.83335 0.41036 0.0
C425 C 0.41511 0.84891 0.44805 0.0
C426 C 0.43956 0.85306 0.49492 0.0
C427 C 0.46718 0.90223 0.51118 0.0
C428 C 0.40725 0.82383 0.53518 0.0
C429 C 0.46916 0.83527 0.47854 0.0
C430 C 0.46371 0.82451 0.42958 0.0
C431 C 0.48446 0.80346 0.4076 0.0
C432 C 0.51125 0.79311 0.43638 0.0
C433 C 0.51701 0.80367 0.48667 0.0
C434 C 0.49607 0.82562 0.50755 0.0
H435 H 0.59445 0.37225 0.73368 0.0
H436 H 0.46038 0.34187 0.7677 0.0
H437 H 0.48977 0.39546 0.83651 0.0
H438 H 0.62631 0.3729 0.85263 0.0
H439 H 0.6831 0.41718 0.84472 0.0
H440 H 0.65256 0.38226 0.79392 0.0
H441 H 0.66821 0.45218 0.74459 0.0
H442 H 0.69937 0.48747 0.79508 0.0
H443 H 0.65365 0.49115 0.77003 0.0
H444 H 0.53443 0.44785 0.90761 0.0
H445 H 0.58906 0.4945 0.97043 0.0
H446 H 0.69175 0.48482 0.89084 0.0
C447 C 0.57119 0.37761 0.75465 0.0
C448 C 0.52505 0.35304 0.7447 0.0
C449 C 0.49593 0.36067 0.77397 0.0
C450 C 0.51233 0.39087 0.81346 0.0
C451 C 0.55787 0.41309 0.82339 0.0
C452 C 0.58683 0.40694 0.79442 0.0
C453 C 0.63366 0.43168 0.81453 0.0
C454 C 0.64982 0.39906 0.8272 0.0
C455 C 0.6656 0.46777 0.77894 0.0
C456 C 0.62665 0.45236 0.85979 0.0
C457 C 0.58292 0.44175 0.86428 0.0
C458 C 0.56879 0.45646 0.90414 0.0
C459 C 0.60018 0.48281 0.93998 0.0
C460 C 0.64531 0.494 0.93613 0.0
C461 C 0.65814 0.47811 0.89521 0.0
loop_
_geom_bond_atom_site_label_1
_geom_bond_atom_site_label_2
_geom_bond_distance
_geom_bond_site_symmetry_2
_ccdc_geom_bond_type
Cu0 N1 1.999 . S
Cu0 O6 1.974 . S
Cu0 N11 1.985 1_556 S
Cu0 O20 1.959 1_556 S
N1 Cu0 1.999 . S
N1 C3 1.263 . S
N1 C5 1.389 . S
N2 C3 1.358 . S
N2 C4 1.400 . S
C3 N1 1.263 . S
C3 N2 1.358 . S
C3 H9 0.930 . S
C4 N2 1.400 . S
C4 C5 1.351 . S
C4 H21 0.930 . S
C5 N1 1.389 . S
C5 C4 1.351 . S
C5 H10 0.930 . S
O6 Cu0 1.974 . S
O6 C16 1.282 . S
C7 O8 1.261 . S
C7 O20 1.251 . S
O8 C7 1.261 . S
H9 C3 0.930 . S
H10 C5 0.930 . S
N11 Cu0 1.985 1_554 S
N11 C13 1.335 . S
N11 C14 1.390 . S
N12 C13 1.345 . S
N12 C15 1.336 . S
C13 N11 1.335 . S
C13 N12 1.345 . S
C13 H18 0.930 . S
C14 N11 1.390 . S
C14 C15 1.346 . S
C14 H19 0.930 . S
C15 N12 1.336 . S
C15 C14 1.346 . S
C15 H22 0.929 . S
C16 O6 1.282 . S
C16 O17 1.216 . S
O17 C16 1.216 . S
H18 C13 0.930 . S
H19 C14 0.930 . S
O20 Cu0 1.959 1_554 S
O20 C7 1.251 . S
H21 C4 0.930 . S
H22 C15 0.929 . S
Cu23 N24 1.999 . S
Cu23 O29 1.974 . S
Cu23 N34 1.985 . S
Cu23 O43 1.959 . S
N24 Cu23 1.999 . S
N24 C26 1.263 . S
N24 C28 1.389 . S
N25 C26 1.358 . S
N25 C27 1.400 . S
C26 N24 1.263 . S
C26 N25 1.358 . S
C26 H32 0.930 . S
C27 N25 1.400 . S
C27 C28 1.351 . S
C27 H44 0.930 . S
C28 N24 1.389 . S
C28 C27 1.351 . S
C28 H33 0.930 . S
O29 Cu23 1.974 . S
O29 C39 1.282 . S
C30 O31 1.261 . S
C30 O43 1.251 . S
O31 C30 1.261 . S
H32 C26 0.930 . S
H33 C28 0.930 . S
N34 Cu23 1.985 . S
N34 C36 1.335 . S
N34 C37 1.390 . S
N35 C36 1.345 . S
N35 C38 1.336 . S
C36 N34 1.335 . S
C36 N35 1.345 . S
C36 H41 0.930 . S
C37 N34 1.390 . S
C37 C38 1.346 . S
C37 H42 0.930 . S
C38 N35 1.336 . S
C38 C37 1.346 . S
C38 H45 0.929 . S
C39 O29 1.282 . S
C39 O40 1.216 . S
O40 C39 1.216 . S
H41 C36 0.930 . S
H42 C37 0.930 . S
O43 Cu23 1.959 . S
O43 C30 1.251 . S
H44 C27 0.930 . S
H45 C38 0.929 . S
Cu46 N47 1.999 . S
Cu46 O52 1.974 . S
Cu46 N57 1.985 . S
Cu46 O66 1.959 . S
N47 Cu46 1.999 . S
N47 C49 1.263 . S
N47 C51 1.389 . S
N48 C49 1.358 . S
N48 C50 1.400 . S
C49 N47 1.263 . S
C49 N48 1.358 . S
C49 H55 0.930 . S
C50 N48 1.400 . S
C50 C51 1.351 . S
C50 H67 0.930 . S
C51 N47 1.389 . S
C51 C50 1.351 . S
C51 H56 0.930 . S
O52 Cu46 1.974 . S
O52 C62 1.282 . S
C53 O54 1.261 . S
C53 O66 1.251 . S
O54 C53 1.261 . S
H55 C49 0.930 . S
H56 C51 0.930 . S
N57 Cu46 1.985 . S
N57 C59 1.335 . S
N57 C60 1.390 . S
N58 C59 1.345 . S
N58 C61 1.336 . S
C59 N57 1.335 . S
C59 N58 1.345 . S
C59 H64 0.930 . S
C60 N57 1.390 . S
C60 C61 1.346 . S
C60 H65 0.930 . S
C61 N58 1.336 . S
C61 C60 1.346 . S
C61 H68 0.929 . S
C62 O52 1.282 . S
C62 O63 1.216 . S
O63 C62 1.216 . S
H64 C59 0.930 . S
H65 C60 0.930 . S
O66 Cu46 1.959 . S
O66 C53 1.251 . S
H67 C50 0.930 . S
H68 C61 0.929 . S
Cu69 N70 1.999 . S
Cu69 O75 1.974 . S
Cu69 N80 1.985 1_556 S
Cu69 O89 1.959 1_556 S
N70 Cu69 1.999 . S
N70 C72 1.263 . S
N70 C74 1.389 . S
N71 C72 1.358 . S
N71 C73 1.400 . S
C72 N70 1.263 . S
C72 N71 1.358 . S
C72 H78 0.930 . S
C73 N71 1.400 . S
C73 C74 1.351 . S
C73 H90 0.930 . S
C74 N70 1.389 . S
C74 C73 1.351 . S
C74 H79 0.930 . S
O75 Cu69 1.974 . S
O75 C85 1.282 . S
C76 O77 1.261 . S
C76 O89 1.251 . S
O77 C76 1.261 . S
H78 C72 0.930 . S
H79 C74 0.930 . S
N80 Cu69 1.985 1_554 S
N80 C82 1.335 . S
N80 C83 1.390 . S
N81 C82 1.345 . S
N81 C84 1.336 . S
C82 N80 1.335 . S
C82 N81 1.345 . S
C82 H87 0.930 . S
C83 N80 1.390 . S
C83 C84 1.346 . S
C83 H88 0.930 . S
C84 N81 1.336 . S
C84 C83 1.346 . S
C84 H91 0.929 . S
C85 O75 1.282 . S
C85 O86 1.216 . S
O86 C85 1.216 . S
H87 C82 0.930 . S
H88 C83 0.930 . S
O89 Cu69 1.959 1_554 S
O89 C76 1.251 . S
H90 C73 0.930 . S
H91 C84 0.929 . S
Cu92 N93 1.999 . S
Cu92 O98 1.974 . S
Cu92 N103 1.985 . S
Cu92 O112 1.959 . S
N93 Cu92 1.999 . S
N93 C95 1.263 . S
N93 C97 1.389 . S
N94 C95 1.358 . S
N94 C96 1.400 . S
C95 N93 1.263 . S
C95 N94 1.358 . S
C95 H101 0.930 . S
C96 N94 1.400 . S
C96 C97 1.351 . S
C96 H113 0.930 . S
C97 N93 1.389 . S
C97 C96 1.351 . S
C97 H102 0.930 . S
O98 Cu92 1.974 . S
O98 C108 1.282 . S
C99 O100 1.261 . S
C99 O112 1.251 . S
O100 C99 1.261 . S
H101 C95 0.930 . S
H102 C97 0.930 . S
N103 Cu92 1.985 . S
N103 C105 1.335 . S
N103 C106 1.390 . S
N104 C105 1.345 . S
N104 C107 1.336 . S
C105 N103 1.335 . S
C105 N104 1.345 . S
C105 H110 0.930 . S
C106 N103 1.390 . S
C106 C107 1.346 . S
C106 H111 0.930 . S
C107 N104 1.336 . S
C107 C106 1.346 . S
C107 H114 0.929 . S
C108 O98 1.282 . S
C108 O109 1.216 . S
O109 C108 1.216 . S
H110 C105 0.930 . S
H111 C106 0.930 . S
O112 Cu92 1.959 . S
O112 C99 1.251 . S
H113 C96 0.930 . S
H114 C107 0.929 . S
Cu115 N116 1.999 . S
Cu115 O121 1.974 . S
Cu115 N126 1.985 . S
Cu115 O135 1.959 . S
N116 Cu115 1.999 . S
N116 C118 1.263 . S
N116 C120 1.389 . S
N117 C118 1.358 . S
N117 C119 1.400 . S
C118 N116 1.263 . S
C118 N117 1.358 . S
C118 H124 0.930 . S
C119 N117 1.400 . S
C119 C120 1.351 . S
C119 H136 0.930 . S
C120 N116 1.389 . S
C120 C119 1.351 . S
C120 H125 0.930 . S
O121 Cu115 1.974 . S
O121 C131 1.282 . S
C122 O123 1.261 . S
C122 O135 1.251 . S
O123 C122 1.261 . S
H124 C118 0.930 . S
H125 C120 0.930 . S
N126 Cu115 1.985 . S
N126 C128 1.335 . S
N126 C129 1.390 . S
N127 C128 1.345 . S
N127 C130 1.336 . S
C128 N126 1.335 . S
C128 N127 1.345 . S
C128 H133 0.930 . S
C129 N126 1.390 . S
C129 C130 1.346 . S
C129 H134 0.930 . S
C130 N127 1.336 . S
C130 C129 1.346 . S
C130 H137 0.929 . S
C131 O121 1.282 . S
C131 O132 1.216 . S
O132 C131 1.216 . S
H133 C128 0.930 . S
H134 C129 0.930 . S
O135 Cu115 1.959 . S
O135 C122 1.251 . S
H136 C119 0.930 . S
H137 C130 0.929 . S
H138 C150 0.930 . S
H139 C152 0.930 . S
H140 C153 0.930 . S
H141 C157 0.959 . S
H142 C157 0.959 . S
H143 C157 0.961 . S
H144 C158 0.960 . S
H145 C158 0.961 . S
H146 C158 0.959 . S
H147 C161 0.929 . S
H148 C162 0.931 . S
H149 C164 0.930 . S
C150 H138 0.930 . S
C150 C151 1.399 . S
C150 C155 1.399 . S
C151 C150 1.399 . S
C151 C152 1.376 . S
C152 H139 0.930 . S
C152 C151 1.376 . S
C152 C153 1.388 . S
C153 H140 0.930 . S
C153 C152 1.388 . S
C153 C154 1.390 . S
C154 C153 1.390 . S
C154 C155 1.394 . S
C154 C160 1.465 . S
C155 C150 1.399 . S
C155 C154 1.394 . S
C155 C156 1.516 . S
C156 C155 1.516 . S
C156 C157 1.502 . S
C156 C158 1.561 . S
C156 C159 1.526 . S
C157 H141 0.959 . S
C157 H142 0.959 . S
C157 H143 0.961 . S
C157 C156 1.502 . S
C158 H144 0.960 . S
C158 H145 0.961 . S
C158 H146 0.959 . S
C158 C156 1.561 . S
C159 C156 1.526 . S
C159 C160 1.396 . S
C159 C164 1.390 . S
C160 C154 1.465 . S
C160 C159 1.396 . S
C160 C161 1.399 . S
C161 H147 0.929 . S
C161 C160 1.399 . S
C161 C162 1.385 . S
C162 H148 0.931 . S
C162 C161 1.385 . S
C162 C163 1.389 . S
C163 C162 1.389 . S
C163 C164 1.387 . S
C164 H149 0.930 . S
C164 C159 1.390 . S
C164 C163 1.387 . S
H165 C177 0.930 . S
H166 C179 0.930 . S
H167 C180 0.930 . S
H168 C184 0.959 . S
H169 C184 0.959 . S
H170 C184 0.961 . S
H171 C185 0.960 . S
H172 C185 0.961 . S
H173 C185 0.959 . S
H174 C188 0.929 . S
H175 C189 0.931 . S
H176 C191 0.930 . S
C177 H165 0.930 . S
C177 C178 1.399 . S
C177 C182 1.399 . S
C178 C177 1.399 . S
C178 C179 1.376 . S
C179 H166 0.930 . S
C179 C178 1.376 . S
C179 C180 1.388 . S
C180 H167 0.930 . S
C180 C179 1.388 . S
C180 C181 1.390 . S
C181 C180 1.390 . S
C181 C182 1.394 . S
C181 C187 1.465 1_655 S
C182 C177 1.399 . S
C182 C181 1.394 . S
C182 C183 1.516 . S
C183 C182 1.516 . S
C183 C184 1.502 . S
C183 C185 1.561 . S
C183 C186 1.526 1_655 S
C184 H168 0.959 . S
C184 H169 0.959 . S
C184 H170 0.961 . S
C184 C183 1.502 . S
C185 H171 0.960 . S
C185 H172 0.961 . S
C185 H173 0.959 . S
C185 C183 1.561 . S
C186 C183 1.526 1_455 S
C186 C187 1.396 . S
C186 C191 1.390 . S
C187 C181 1.465 1_455 S
C187 C186 1.396 . S
C187 C188 1.399 . S
C188 H174 0.929 . S
C188 C187 1.399 . S
C188 C189 1.385 . S
C189 H175 0.931 . S
C189 C188 1.385 . S
C189 C190 1.389 . S
C190 C189 1.389 . S
C190 C191 1.387 . S
C191 H176 0.930 . S
C191 C186 1.390 . S
C191 C190 1.387 . S
H192 C204 0.930 . S
H193 C206 0.930 . S
H194 C207 0.930 . S
H195 C211 0.959 . S
H196 C211 0.959 . S
H197 C211 0.961 . S
H198 C212 0.960 . S
H199 C212 0.961 . S
H200 C212 0.959 . S
H201 C215 0.929 . S
H202 C216 0.931 . S
H203 C218 0.930 . S
C204 H192 0.930 . S
C204 C205 1.399 . S
C204 C209 1.399 . S
C205 C204 1.399 . S
C205 C206 1.376 . S
C206 H193 0.930 . S
C206 C205 1.376 . S
C206 C207 1.388 1_545 S
C207 H194 0.930 . S
C207 C206 1.388 1_565 S
C207 C208 1.390 . S
C208 C207 1.390 . S
C208 C209 1.394 1_565 S
C208 C214 1.465 . S
C209 C204 1.399 . S
C209 C208 1.394 1_545 S
C209 C210 1.516 . S
C210 C209 1.516 . S
C210 C211 1.502 . S
C210 C212 1.561 . S
C210 C213 1.526 1_545 S
C211 H195 0.959 . S
C211 H196 0.959 . S
C211 H197 0.961 . S
C211 C210 1.502 . S
C212 H198 0.960 . S
C212 H199 0.961 . S
C212 H200 0.959 . S
C212 C210 1.561 . S
C213 C210 1.526 1_565 S
C213 C214 1.396 . S
C213 C218 1.390 . S
C214 C208 1.465 . S
C214 C213 1.396 . S
C214 C215 1.399 . S
C215 H201 0.929 . S
C215 C214 1.399 . S
C215 C216 1.385 . S
C216 H202 0.931 . S
C216 C215 1.385 . S
C216 C217 1.389 . S
C217 C216 1.389 . S
C217 C218 1.387 . S
C218 H203 0.930 . S
C218 C213 1.390 . S
C218 C217 1.387 . S
H219 C231 0.930 . S
H220 C233 0.930 . S
H221 C234 0.930 . S
H222 C238 0.959 . S
H223 C238 0.959 . S
H224 C238 0.961 . S
H225 C239 0.960 . S
H226 C239 0.961 . S
H227 C239 0.959 . S
H228 C242 0.929 . S
H229 C243 0.931 . S
H230 C245 0.930 . S
C231 H219 0.930 . S
C231 C232 1.399 . S
C231 C236 1.399 . S
C232 C231 1.399 . S
C232 C233 1.376 . S
C233 H220 0.930 . S
C233 C232 1.376 . S
C233 C234 1.388 . S
C234 H221 0.930 . S
C234 C233 1.388 . S
C234 C235 1.390 . S
C235 C234 1.390 . S
C235 C236 1.394 . S
C235 C241 1.465 . S
C236 C231 1.399 . S
C236 C235 1.394 . S
C236 C237 1.516 . S
C237 C236 1.516 . S
C237 C238 1.502 . S
C237 C239 1.561 . S
C237 C240 1.526 . S
C238 H222 0.959 . S
C238 H223 0.959 . S
C238 H224 0.961 . S
C238 C237 1.502 . S
C239 H225 0.960 . S
C239 H226 0.961 . S
C239 H227 0.959 . S
C239 C237 1.561 . S
C240 C237 1.526 . S
C240 C241 1.396 . S
C240 C245 1.390 . S
C241 C235 1.465 . S
C241 C240 1.396 . S
C241 C242 1.399 . S
C242 H228 0.929 . S
C242 C241 1.399 . S
C242 C243 1.385 . S
C243 H229 0.931 . S
C243 C242 1.385 . S
C243 C244 1.389 . S
C244 C243 1.389 . S
C244 C245 1.387 . S
C245 H230 0.930 . S
C245 C240 1.390 . S
C245 C244 1.387 . S
H246 C258 0.930 . S
H247 C260 0.930 . S
H248 C261 0.930 . S
H249 C265 0.959 . S
H250 C265 0.959 . S
H251 C265 0.961 . S
H252 C266 0.960 . S
H253 C266 0.961 . S
H254 C266 0.959 . S
H255 C269 0.929 . S
H256 C270 0.931 . S
H257 C272 0.930 . S
C258 H246 0.930 . S
C258 C259 1.399 . S
C258 C263 1.399 . S
C259 C258 1.399 . S
C259 C260 1.376 . S
C260 H247 0.930 . S
C260 C259 1.376 . S
C260 C261 1.388 . S
C261 H248 0.930 . S
C261 C260 1.388 . S
C261 C262 1.390 . S
C262 C261 1.390 . S
C262 C263 1.394 . S
C262 C268 1.465 1_655 S
C263 C258 1.399 . S
C263 C262 1.394 . S
C263 C264 1.516 1_655 S
C264 C263 1.516 1_455 S
C264 C265 1.502 . S
C264 C266 1.561 . S
C264 C267 1.526 . S
C265 H249 0.959 . S
C265 H250 0.959 . S
C265 H251 0.961 . S
C265 C264 1.502 . S
C266 H252 0.960 . S
C266 H253 0.961 . S
C266 H254 0.959 . S
C266 C264 1.561 . S
C267 C264 1.526 . S
C267 C268 1.396 . S
C267 C272 1.390 . S
C268 C262 1.465 1_455 S
C268 C267 1.396 . S
C268 C269 1.399 . S
C269 H255 0.929 . S
C269 C268 1.399 . S
C269 C270 1.385 . S
C270 H256 0.931 . S
C270 C269 1.385 . S
C270 C271 1.389 . S
C271 C270 1.389 . S
C271 C272 1.387 . S
C272 H257 0.930 . S
C272 C267 1.390 . S
C272 C271 1.387 . S
H273 C285 0.930 . S
H274 C287 0.930 . S
H275 C288 0.930 . S
H276 C292 0.959 . S
H277 C292 0.959 . S
H278 C292 0.961 . S
H279 C293 0.960 . S
H280 C293 0.961 . S
H281 C293 0.959 . S
H282 C296 0.929 . S
H283 C297 0.931 . S
H284 C299 0.930 . S
C285 H273 0.930 . S
C285 C286 1.399 . S
C285 C290 1.399 . S
C286 C285 1.399 . S
C286 C287 1.376 . S
C287 H274 0.930 . S
C287 C286 1.376 . S
C287 C288 1.388 . S
C288 H275 0.930 . S
C288 C287 1.388 . S
C288 C289 1.390 . S
C289 C288 1.390 . S
C289 C290 1.394 . S
C289 C295 1.447 1_545 S
C290 C285 1.399 . S
C290 C289 1.394 . S
C290 C291 1.516 . S
C291 C290 1.516 . S
C291 C292 1.502 . S
C291 C293 1.561 1_545 S
C291 C294 1.526 1_545 S
C292 H276 0.959 . S
C292 H277 0.959 . S
C292 H278 0.961 . S
C292 C291 1.502 . S
C293 H279 0.960 . S
C293 H280 0.961 . S
C293 H281 0.959 . S
C293 C291 1.561 1_565 S
C294 C291 1.526 1_565 S
C294 C295 1.418 . S
C294 C299 1.390 . S
C295 C289 1.447 1_565 S
C295 C294 1.418 . S
C295 C296 1.398 . S
C296 H282 0.929 . S
C296 C295 1.398 . S
C296 C297 1.385 . S
C297 H283 0.931 . S
C297 C296 1.385 . S
C297 C298 1.389 . S
C298 C297 1.389 . S
C298 C299 1.387 . S
C299 H284 0.930 . S
C299 C294 1.390 . S
C299 C298 1.387 . S
H300 C312 0.930 . S
H301 C314 0.930 . S
H302 C315 0.930 . S
H303 C319 0.959 . S
H304 C319 0.959 . S
H305 C319 0.961 . S
H306 C320 0.960 . S
H307 C320 0.961 . S
H308 C320 0.959 . S
H309 C323 0.929 . S
H310 C324 0.931 . S
H311 C326 0.930 . S
C312 H300 0.930 . S
C312 C313 1.399 . S
C312 C317 1.399 . S
C313 C312 1.399 . S
C313 C314 1.376 . S
C314 H301 0.930 . S
C314 C313 1.376 . S
C314 C315 1.388 . S
C315 H302 0.930 . S
C315 C314 1.388 . S
C315 C316 1.390 . S
C316 C315 1.390 . S
C316 C317 1.394 . S
C316 C322 1.465 . S
C317 C312 1.399 . S
C317 C316 1.394 . S
C317 C318 1.516 . S
C318 C317 1.516 . S
C318 C319 1.502 . S
C318 C320 1.561 . S
C318 C321 1.526 . S
C319 H303 0.959 . S
C319 H304 0.959 . S
C319 H305 0.961 . S
C319 C318 1.502 . S
C320 H306 0.960 . S
C320 H307 0.961 . S
C320 H308 0.959 . S
C320 C318 1.561 . S
C321 C318 1.526 . S
C321 C322 1.396 . S
C321 C326 1.390 . S
C322 C316 1.465 . S
C322 C321 1.396 . S
C322 C323 1.399 . S
C323 H309 0.929 . S
C323 C322 1.399 . S
C323 C324 1.385 . S
C324 H310 0.931 . S
C324 C323 1.385 . S
C324 C325 1.389 . S
C325 C324 1.389 . S
C325 C326 1.387 . S
C326 H311 0.930 . S
C326 C321 1.390 . S
C326 C325 1.387 . S
H327 C339 0.930 . S
H328 C341 0.930 . S
H329 C342 0.930 . S
H330 C346 0.959 . S
H331 C346 0.959 . S
H332 C346 0.961 . S
H333 C347 0.960 . S
H334 C347 0.961 . S
H335 C347 0.959 . S
H336 C350 0.929 . S
H337 C351 0.931 . S
H338 C353 0.930 . S
C339 H327 0.930 . S
C339 C340 1.399 . S
C339 C344 1.399 . S
C340 C339 1.399 . S
C340 C341 1.376 . S
C341 H328 0.930 . S
C341 C340 1.376 . S
C341 C342 1.388 . S
C342 H329 0.930 . S
C342 C341 1.388 . S
C342 C343 1.390 . S
C343 C342 1.390 . S
C343 C344 1.394 . S
C343 C349 1.465 . S
C344 C339 1.399 . S
C344 C343 1.394 . S
C344 C345 1.516 . S
C345 C344 1.516 . S
C345 C346 1.502 . S
C345 C347 1.561 . S
C345 C348 1.526 . S
C346 H330 0.959 . S
C346 H331 0.959 . S
C346 H332 0.961 . S
C346 C345 1.502 . S
C347 H333 0.960 . S
C347 H334 0.961 . S
C347 H335 0.959 . S
C347 C345 1.561 . S
C348 C345 1.526 . S
C348 C349 1.396 . S
C348 C353 1.390 . S
C349 C343 1.465 . S
C349 C348 1.396 . S
C349 C350 1.399 . S
C350 H336 0.929 . S
C350 C349 1.399 . S
C350 C351 1.385 . S
C351 H337 0.931 . S
C351 C350 1.385 . S
C351 C352 1.389 . S
C352 C351 1.389 . S
C352 C353 1.387 . S
C353 H338 0.930 . S
C353 C348 1.390 . S
C353 C352 1.387 . S
H354 C366 0.930 . S
H355 C368 0.930 . S
H356 C369 0.930 . S
H357 C373 0.959 . S
H358 C373 0.959 . S
H359 C373 0.961 . S
H360 C374 0.960 . S
H361 C374 0.961 . S
H362 C374 0.959 . S
H363 C377 0.929 . S
H364 C378 0.931 . S
H365 C380 0.930 . S
C366 H354 0.930 . S
C366 C367 1.399 . S
C366 C371 1.399 . S
C367 C366 1.399 . S
C367 C368 1.376 . S
C368 H355 0.930 . S
C368 C367 1.376 . S
C368 C369 1.388 . S
C369 H356 0.930 . S
C369 C368 1.388 . S
C369 C370 1.390 . S
C370 C369 1.390 . S
C370 C371 1.394 . S
C370 C376 1.465 . S
C371 C366 1.399 . S
C371 C370 1.394 . S
C371 C372 1.516 . S
C372 C371 1.516 . S
C372 C373 1.502 . S
C372 C374 1.561 . S
C372 C375 1.526 . S
C373 H357 0.959 . S
C373 H358 0.959 . S
C373 H359 0.961 . S
C373 C372 1.502 . S
C374 H360 0.960 . S
C374 H361 0.961 . S
C374 H362 0.959 . S
C374 C372 1.561 . S
C375 C372 1.526 . S
C375 C376 1.396 . S
C375 C380 1.390 . S
C376 C370 1.465 . S
C376 C375 1.396 . S
C376 C377 1.399 . S
C377 H363 0.929 . S
C377 C376 1.399 . S
C377 C378 1.385 . S
C378 H364 0.931 . S
C378 C377 1.385 . S
C378 C379 1.389 . S
C379 C378 1.389 . S
C379 C380 1.387 . S
C380 H365 0.930 . S
C380 C375 1.390 . S
C380 C379 1.387 . S
H381 C393 0.930 . S
H382 C395 0.930 . S
H383 C396 0.930 . S
H384 C400 0.959 . S
H385 C400 0.959 . S
H386 C400 0.961 . S
H387 C401 0.960 . S
H388 C401 0.961 . S
H389 C401 0.959 . S
H390 C404 0.929 . S
H391 C405 0.931 . S
H392 C407 0.930 . S
C393 H381 0.930 . S
C393 C394 1.399 . S
C393 C398 1.399 . S
C394 C393 1.399 . S
C394 C395 1.376 . S
C395 H382 0.930 . S
C395 C394 1.376 . S
C395 C396 1.388 . S
C396 H383 0.930 . S
C396 C395 1.388 . S
C396 C397 1.390 . S
C397 C396 1.390 . S
C397 C398 1.394 . S
C397 C403 1.465 . S
C398 C393 1.399 . S
C398 C397 1.394 . S
C398 C399 1.516 . S
C399 C398 1.516 . S
C399 C400 1.502 . S
C399 C401 1.561 . S
C399 C402 1.526 . S
C400 H384 0.959 . S
C400 H385 0.959 . S
C400 H386 0.961 . S
C400 C399 1.502 . S
C401 H387 0.960 . S
C401 H388 0.961 . S
C401 H389 0.959 . S
C401 C399 1.561 . S
C402 C399 1.526 . S
C402 C403 1.396 . S
C402 C407 1.390 . S
C403 C397 1.465 . S
C403 C402 1.396 . S
C403 C404 1.399 . S
C404 H390 0.929 . S
C404 C403 1.399 . S
C404 C405 1.385 . S
C405 H391 0.931 . S
C405 C404 1.385 . S
C405 C406 1.389 . S
C406 C405 1.389 . S
C406 C407 1.387 . S
C407 H392 0.930 . S
C407 C402 1.390 . S
C407 C406 1.387 . S
H408 C420 0.930 . S
H409 C422 0.930 . S
H410 C423 0.930 . S
H411 C427 0.959 . S
H412 C427 0.959 . S
H413 C427 0.961 . S
H414 C428 0.960 . S
H415 C428 0.961 . S
H416 C428 0.959 . S
H417 C431 0.929 . S
H418 C432 0.931 . S
H419 C434 0.930 . S
C420 H408 0.930 . S
C420 C421 1.399 . S
C420 C425 1.399 . S
C421 C420 1.399 . S
C421 C422 1.376 . S
C422 H409 0.930 . S
C422 C421 1.376 . S
C422 C423 1.388 . S
C423 H410 0.930 . S
C423 C422 1.388 . S
C423 C424 1.390 . S
C424 C423 1.390 . S
C424 C425 1.394 . S
C424 C430 1.465 . S
C425 C420 1.399 . S
C425 C424 1.394 . S
C425 C426 1.516 . S
C426 C425 1.516 . S
C426 C427 1.502 . S
C426 C428 1.561 . S
C426 C429 1.526 . S
C427 H411 0.959 . S
C427 H412 0.959 . S
C427 H413 0.961 . S
C427 C426 1.502 . S
C428 H414 0.960 . S
C428 H415 0.961 . S
C428 H416 0.959 . S
C428 C426 1.561 . S
C429 C426 1.526 . S
C429 C430 1.396 . S
C429 C434 1.390 . S
C430 C424 1.465 . S
C430 C429 1.396 . S
C430 C431 1.399 . S
C431 H417 0.929 . S
C431 C430 1.399 . S
C431 C432 1.385 . S
C432 H418 0.931 . S
C432 C431 1.385 . S
C432 C433 1.389 . S
C433 C432 1.389 . S
C433 C434 1.387 . S
C434 H419 0.930 . S
C434 C429 1.390 . S
C434 C433 1.387 . S
H435 C447 0.930 . S
H436 C449 0.930 . S
H437 C450 0.930 . S
H438 C454 0.959 . S
H439 C454 0.959 . S
H440 C454 0.961 . S
H441 C455 0.960 . S
H442 C455 0.961 . S
H443 C455 0.959 . S
H444 C458 0.929 . S
H445 C459 0.931 . S
H446 C461 0.930 . S
C447 H435 0.930 . S
C447 C448 1.399 . S
C447 C452 1.399 . S
C448 C447 1.399 . S
C448 C449 1.376 . S
C449 H436 0.930 . S
C449 C448 1.376 . S
C449 C450 1.388 . S
C450 H437 0.930 . S
C450 C449 1.388 . S
C450 C451 1.390 . S
C451 C450 1.390 . S
C451 C452 1.394 . S
C451 C457 1.465 . S
C452 C447 1.399 . S
C452 C451 1.394 . S
C452 C453 1.516 . S
C453 C452 1.516 . S
C453 C454 1.502 . S
C453 C455 1.561 . S
C453 C456 1.526 . S
C454 H438 0.959 . S
C454 H439 0.959 . S
C454 H440 0.961 . S
C454 C453 1.502 . S
C455 H441 0.960 . S
C455 H442 0.961 . S
C455 H443 0.959 . S
C455 C453 1.561 . S
C456 C453 1.526 . S
C456 C457 1.396 . S
C456 C461 1.390 . S
C457 C451 1.465 . S
C457 C456 1.396 . S
C457 C458 1.399 . S
C458 H444 0.929 . S
C458 C457 1.399 . S
C458 C459 1.385 . S
C459 H445 0.931 . S
C459 C458 1.385 . S
C459 C460 1.389 . S
C460 C459 1.389 . S
C460 C461 1.387 . S
C461 H446 0.930 . S
C461 C456 1.390 . S
C461 C460 1.387 . S
C151 C16 1.418 . S
C163 N127 1.403 . S
C178 C39 1.388 . S
C190 N12 1.402 . S
C205 N35 1.412 . S
C217 C62 1.409 . S
C232 C85 1.394 . S
C244 N58 1.400 . S
C259 N81 1.397 . S
C271 C108 1.409 . S
C286 C131 1.408 . S
C298 N104 1.398 . S
C313 N94 1.429 . S
C325 C7 1.458 . S
C340 N117 1.446 . S
C352 C30 1.476 . S
C367 C53 1.478 . S
C379 N2 1.441 . S
C394 C76 1.475 . S
C406 N25 1.396 . S
C421 C99 1.455 . S
C433 N48 1.357 . S
C448 C122 1.472 . S
C460 N71 1.446 . S
