# Generated by pormake.
# Topology dia, (4)-cn, num edge types: 1
# Building blocks:
#     Node 0, Type 0, BuildingBlock: AZAVOO_clean_sbu_0, # of connection points: 4
#     Node 1, Type 0, BuildingBlock: AZAVOO_clean_sbu_0, # of connection points: 4
#     Node 2, Type 0, BuildingBlock: AZAVOO_clean_sbu_0, # of connection points: 4
#     Node 3, Type 0, BuildingBlock: AZAVOO_clean_sbu_0, # of connection points: 4
#     Node 4, Type 0, BuildingBlock: AZAVOO_clean_sbu_0, # of connection points: 4
#     Node 5, Type 0, BuildingBlock: AZAVOO_clean_sbu_0, # of connection points: 4
#     Node 6, Type 0, BuildingBlock: AZAVOO_clean_sbu_0, # of connection points: 4
#     Node 7, Type 0, BuildingBlock: AZAVOO_clean_sbu_0, # of connection points: 4
#     Edge 8, Type (0, 0), BuildingBlock: FUNLAD_clean_linker_0, # of connection points: 2
#     Edge 9, Type (0, 0), BuildingBlock: FUNLAD_clean_linker_0, # of connection points: 2
#     Edge 10, Type (0, 0), BuildingBlock: FUNLAD_clean_linker_0, # of connection points: 2
#     Edge 11, Type (0, 0), BuildingBlock: FUNLAD_clean_linker_0, # of connection points: 2
#     Edge 12, Type (0, 0), BuildingBlock: FUNLAD_clean_linker_0, # of connection points: 2
#     Edge 13, Type (0, 0), BuildingBlock: FUNLAD_clean_linker_0, # of connection points: 2
#     Edge 14, Type (0, 0), BuildingBlock: FUNLAD_clean_linker_0, # of connection points: 2
#     Edge 15, Type (0, 0), BuildingBlock: FUNLAD_clean_linker_0, # of connection points: 2
#     Edge 16, Type (0, 0), BuildingBlock: FUNLAD_clean_linker_0, # of connection points: 2
#     Edge 17, Type (0, 0), BuildingBlock: FUNLAD_clean_linker_0, # of connection points: 2
#     Edge 18, Type (0, 0), BuildingBlock: FUNLAD_clean_linker_0, # of connection points: 2
#     Edge 19, Type (0, 0), BuildingBlock: FUNLAD_clean_linker_0, # of connection points: 2
#     Edge 20, Type (0, 0), BuildingBlock: FUNLAD_clean_linker_0, # of connection points: 2
#     Edge 21, Type (0, 0), BuildingBlock: FUNLAD_clean_linker_0, # of connection points: 2
#     Edge 22, Type (0, 0), BuildingBlock: FUNLAD_clean_linker_0, # of connection points: 2
#     Edge 23, Type (0, 0), BuildingBlock: FUNLAD_clean_linker_0, # of connection points: 2
# Relax obj value: 0.001
# Max RMSD: 0.028
# Mean RMSD: 0.028
data_MOF--net-dia--node1-AZAVOO_clean_sbu_0--edge1-FUNLAD_clean_linker_0
_symmetry_space_group_name_H-M    P1
_symmetry_Int_Tables_number       1
_symmetry_cell_setting            triclinic
loop_
_symmetry_equiv_pos_as_xyz
'x, y, z'
_cell_length_a     40.423889
_cell_length_b     41.86809
_cell_length_c     40.691597
_cell_angle_alpha  95.212181
_cell_angle_beta   94.626727
_cell_angle_gamma 95.60617
loop_
_atom_site_label
_atom_site_type_symbol
_atom_site_fract_x
_atom_site_fract_y
_atom_site_fract_z
_atom_type_partial_charge
Mg0 Mg 0.14439 0.14247 0.65802 0.0
O1 O 0.112 0.11025 0.61612 0.0
O2 O 0.0757 0.14115 0.59392 0.0
Mg3 Mg 0.08242 0.19145 0.62218 0.0
C4 C 0.08795 0.11421 0.59494 0.0
C5 C 0.17378 0.07737 0.66789 0.0
O6 O 0.14177 0.06826 0.66821 0.0
O7 O 0.17225 0.16928 0.6201 0.0
O8 O 0.13397 0.20133 0.60423 0.0
O9 O 0.10795 0.12979 0.69518 0.0
O10 O 0.10522 0.16999 0.66389 0.0
C11 C 0.16326 0.19238 0.60411 0.0
C12 C 0.09224 0.15315 0.68527 0.0
O13 O 0.1829 0.10618 0.66237 0.0
Mg14 Mg 0.84371 0.35438 0.84086 0.0
O15 O 0.87989 0.38585 0.88104 0.0
O16 O 0.89626 0.35279 0.91796 0.0
Mg17 Mg 0.87236 0.30167 0.90267 0.0
C18 C 0.89692 0.38071 0.90762 0.0
C19 C 0.83207 0.42136 0.81646 0.0
O20 O 0.82563 0.42625 0.84755 0.0
O21 O 0.88825 0.33338 0.81857 0.0
O22 O 0.90244 0.30162 0.8578 0.0
O23 O 0.80013 0.36036 0.87126 0.0
O24 O 0.83261 0.32122 0.87412 0.0
C25 C 0.90666 0.31315 0.83028 0.0
C26 C 0.80803 0.33498 0.88474 0.0
O27 O 0.84264 0.39484 0.8065 0.0
Mg28 Mg 0.63695 0.14789 0.14643 0.0
O29 O 0.5999 0.119 0.10597 0.0
O30 O 0.56583 0.15316 0.08632 0.0
Mg31 Mg 0.57952 0.20313 0.11442 0.0
C32 C 0.5755 0.12502 0.08629 0.0
C33 C 0.69328 0.1102 0.17138 0.0
O34 O 0.69865 0.13808 0.18962 0.0
O35 O 0.66547 0.17161 0.10681 0.0
O36 O 0.62981 0.20693 0.09291 0.0
O37 O 0.60102 0.13949 0.18514 0.0
O38 O 0.60301 0.18088 0.15533 0.0
C39 C 0.6577 0.19528 0.09097 0.0
C40 C 0.58908 0.16567 0.17736 0.0
O41 O 0.6694 0.10618 0.14854 0.0
Mg42 Mg 0.85543 0.86047 0.36158 0.0
O43 O 0.89144 0.89384 0.39967 0.0
O44 O 0.9158 0.86304 0.43446 0.0
Mg45 Mg 0.89567 0.81053 0.41963 0.0
C46 C 0.91177 0.89059 0.4246 0.0
C47 C 0.82911 0.89676 0.30337 0.0
O48 O 0.81466 0.86735 0.29487 0.0
O49 O 0.89936 0.84403 0.33482 0.0
O50 O 0.92049 0.81278 0.37138 0.0
O51 O 0.8142 0.86169 0.39539 0.0
O52 O 0.85067 0.82584 0.39482 0.0
C53 C 0.92053 0.82498 0.34374 0.0
C54 C 0.82554 0.83692 0.40749 0.0
O55 O 0.84889 0.9021 0.32967 0.0
Mg56 Mg 0.12152 0.63788 0.13722 0.0
O57 O 0.08534 0.60806 0.09609 0.0
O58 O 0.05439 0.64329 0.0734 0.0
Mg59 Mg 0.06807 0.69376 0.09995 0.0
C60 C 0.06244 0.61466 0.07489 0.0
C61 C 0.18269 0.60552 0.15956 0.0
O62 O 0.19123 0.63639 0.16835 0.0
O63 O 0.15267 0.65941 0.09851 0.0
O64 O 0.1196 0.69531 0.08079 0.0
O65 O 0.08467 0.63177 0.17523 0.0
O66 O 0.08714 0.67109 0.14266 0.0
C67 C 0.14699 0.68248 0.08101 0.0
C68 C 0.07268 0.65714 0.16526 0.0
O69 O 0.15443 0.59694 0.14344 0.0
Mg70 Mg 0.33764 0.35916 0.35398 0.0
O71 O 0.37885 0.38837 0.39069 0.0
O72 O 0.39812 0.35378 0.42446 0.0
Mg73 Mg 0.37062 0.30367 0.41047 0.0
C74 C 0.39844 0.38206 0.41502 0.0
C75 C 0.32744 0.42757 0.33285 0.0
O76 O 0.32462 0.43227 0.36483 0.0
O77 O 0.37732 0.33615 0.32546 0.0
O78 O 0.39363 0.30187 0.36114 0.0
O79 O 0.29899 0.3671 0.38985 0.0
O80 O 0.3291 0.32596 0.38787 0.0
C81 C 0.395 0.31385 0.33346 0.0
C82 C 0.30709 0.34107 0.40189 0.0
O83 O 0.33494 0.40039 0.32084 0.0
Mg84 Mg 0.35573 0.85623 0.86833 0.0
O85 O 0.39767 0.88911 0.9004 0.0
O86 O 0.42204 0.85769 0.93459 0.0
Mg87 Mg 0.39525 0.80668 0.92698 0.0
C88 C 0.41987 0.88502 0.92344 0.0
C89 C 0.33476 0.88312 0.80324 0.0
O90 O 0.32835 0.85175 0.79622 0.0
O91 O 0.39381 0.83202 0.83879 0.0
O92 O 0.41307 0.79981 0.87522 0.0
O93 O 0.31897 0.86585 0.90548 0.0
O94 O 0.35098 0.82617 0.90583 0.0
C95 C 0.41178 0.80984 0.84647 0.0
C96 C 0.32869 0.84134 0.9194 0.0
O97 O 0.34881 0.89388 0.83173 0.0
Mg98 Mg 0.6257 0.64083 0.63909 0.0
O99 O 0.59351 0.60945 0.59601 0.0
O100 O 0.55744 0.64155 0.5756 0.0
Mg101 Mg 0.56335 0.69063 0.60587 0.0
C102 C 0.56961 0.6145 0.57511 0.0
C103 C 0.69171 0.61642 0.6605 0.0
O104 O 0.69564 0.64739 0.67057 0.0
O105 O 0.65356 0.66978 0.60249 0.0
O106 O 0.61476 0.7018 0.58817 0.0
O107 O 0.58986 0.62637 0.67591 0.0
O108 O 0.58624 0.66805 0.64697 0.0
C109 C 0.64423 0.6934 0.58748 0.0
C110 C 0.57409 0.65051 0.66831 0.0
O111 O 0.66482 0.60493 0.64324 0.0
C112 C 0.29857 0.29819 0.43985 0.0
C113 C 0.29217 0.32876 0.43081 0.0
C114 C 0.2833 0.28516 0.46579 0.0
C115 C 0.26124 0.30248 0.48348 0.0
C116 C 0.255 0.33317 0.47464 0.0
C117 C 0.2704 0.34628 0.44859 0.0
C118 C 0.24209 0.28807 0.50907 0.0
C119 C 0.25184 0.26374 0.5259 0.0
C120 C 0.23043 0.24664 0.54819 0.0
C121 C 0.23626 0.21518 0.55489 0.0
C122 C 0.21498 0.19744 0.57369 0.0
C123 C 0.1874 0.2109 0.58589 0.0
H124 H 0.19931 0.28522 0.55913 0.0
C125 C 0.18247 0.24281 0.5804 0.0
C126 C 0.20388 0.2606 0.56212 0.0
H127 H 0.16198 0.25422 0.59033 0.0
H128 H 0.31458 0.28367 0.42618 0.0
H129 H 0.28787 0.26097 0.47081 0.0
H130 H 0.23779 0.34686 0.48763 0.0
H131 H 0.26486 0.36982 0.44208 0.0
H132 H 0.21844 0.29734 0.51291 0.0
H133 H 0.27562 0.25469 0.52203 0.0
H134 H 0.25681 0.20398 0.54483 0.0
H135 H 0.21954 0.173 0.57785 0.0
C136 C 0.70898 0.56128 0.669 0.0
C137 C 0.71582 0.59505 0.67361 0.0
C138 C 0.72953 0.54157 0.68554 0.0
C139 C 0.75749 0.5553 0.70693 0.0
C140 C 0.76498 0.58894 0.71031 0.0
C141 C 0.74455 0.60855 0.6938 0.0
C142 C 0.77744 0.53599 0.72862 0.0
C143 C 0.77874 0.50392 0.72301 0.0
C144 C 0.79579 0.48478 0.74717 0.0
C145 C 0.80703 0.4554 0.7358 0.0
C146 C 0.8204 0.43547 0.75816 0.0
C147 C 0.82231 0.44426 0.79252 0.0
H148 H 0.78953 0.516 0.79146 0.0
C149 C 0.81179 0.47401 0.80387 0.0
C150 C 0.79869 0.49402 0.78153 0.0
H151 H 0.81273 0.48146 0.83016 0.0
H152 H 0.68695 0.55009 0.65377 0.0
H153 H 0.72243 0.51582 0.68269 0.0
H154 H 0.78626 0.60024 0.7266 0.0
H155 H 0.75071 0.63445 0.69787 0.0
H156 H 0.79172 0.54906 0.7503 0.0
H157 H 0.76717 0.49106 0.69994 0.0
H158 H 0.80491 0.44754 0.70953 0.0
H159 H 0.82807 0.41263 0.74854 0.0
C160 C 0.56576 0.06673 0.06325 0.0
C161 C 0.55726 0.09849 0.06309 0.0
C162 C 0.5477 0.04163 0.04218 0.0
C163 C 0.52079 0.04776 0.02021 0.0
C164 C 0.51249 0.07952 0.01998 0.0
C165 C 0.53051 0.10458 0.04103 0.0
C166 C 0.49955 0.02169 -0.00138 0.0
C167 C 0.50908 0.99231 0.99021 0.0
C168 C 0.48654 0.96551 0.97126 0.0
C169 C 0.49238 0.93372 0.97606 0.0
C170 C 0.47102 0.90771 0.96017 0.0
C171 C 0.44344 0.91281 0.93863 0.0
H172 H 0.45485 0.99483 0.94368 0.0
C173 C 0.43827 0.94461 0.93275 0.0
C174 C 0.45956 0.97072 0.94892 0.0
H175 H 0.41745 0.9494 0.9161 0.0
H176 H 0.58605 0.06109 0.08007 0.0
H177 H 0.55445 0.01747 0.04405 0.0
H178 H 0.49178 0.08498 0.00355 0.0
H179 H 0.52317 0.12871 0.04017 0.0
H180 H 0.47476 0.027 0.98994 0.0
H181 H 0.53377 0.98679 -0.00116 0.0
H182 H 0.51314 0.92896 0.99283 0.0
H183 H 0.47603 0.88356 0.96506 0.0
C184 C 0.93426 0.80855 0.2862 0.0
C185 C 0.94369 0.81324 0.32041 0.0
C186 C 0.9527 0.79039 0.26521 0.0
C187 C 0.98094 0.7769 0.27823 0.0
C188 C 0.99185 0.78414 0.3119 0.0
C189 C 0.9733 0.80189 0.33284 0.0
C190 C -0.00098 0.75411 0.25829 0.0
C191 C 0.98523 0.73564 0.2309 0.0
C192 C 0.00396 0.71153 0.2138 0.0
C193 C 0.00291 0.70874 0.17917 0.0
C194 C 0.02389 0.68924 0.16293 0.0
C195 C 0.04558 0.6717 0.18109 0.0
H196 H 0.02426 0.69311 0.25848 0.0
C197 C 0.04437 0.6722 0.21546 0.0
C198 C 0.02386 0.69215 0.23176 0.0
H199 H 0.06081 0.65882 0.22998 0.0
H200 H 0.91157 0.81715 0.27599 0.0
H201 H 0.94426 0.78635 0.23912 0.0
H202 H 0.01384 0.77456 0.32246 0.0
H203 H 0.98132 0.80547 0.35909 0.0
H204 H 0.02425 0.75087 0.26787 0.0
H205 H 0.96036 0.73853 0.22022 0.0
H206 H 0.98724 0.72297 0.16484 0.0
H207 H 0.02383 0.68868 0.13631 0.0
C208 C 0.32302 0.93852 0.78947 0.0
C209 C 0.3214 0.9052 0.78016 0.0
C210 C 0.30644 0.95854 0.76942 0.0
C211 C 0.28802 0.94562 0.73947 0.0
C212 C 0.28758 0.91255 0.72966 0.0
C213 C 0.30415 0.8926 0.74964 0.0
C214 C 0.26638 0.9649 0.71948 0.0
C215 C 0.26992 0.99737 0.72121 0.0
C216 C 0.24548 0.01623 0.70417 0.0
C217 C 0.2558 0.0478 0.69746 0.0
C218 C 0.23282 0.06725 0.6843 0.0
C219 C 0.19884 0.05568 0.678 0.0
H220 H 0.20235 0.98052 0.7026 0.0
C221 C 0.18862 0.02383 0.68399 0.0
C222 C 0.21161 0.00435 0.69697 0.0
H223 H 0.16262 0.01419 0.67959 0.0
H224 H 0.33597 0.94899 0.81289 0.0
H225 H 0.30691 0.98372 0.77834 0.0
H226 H 0.27357 0.90187 0.70682 0.0
H227 H 0.30242 0.86706 0.74162 0.0
H228 H 0.24654 0.9515 0.70268 0.0
H229 H 0.29146 0.01088 0.73549 0.0
H230 H 0.28165 0.05768 0.70297 0.0
H231 H 0.24154 0.09171 0.68011 0.0
C232 C 0.91963 0.43937 0.91871 0.0
C233 C 0.91923 0.40741 0.92685 0.0
C234 C 0.94135 0.46408 0.9369 0.0
C235 C 0.96312 0.45725 0.9636 0.0
C236 C 0.96289 0.4253 0.97136 0.0
C237 C 0.94115 0.40076 0.95344 0.0
C238 C 0.98693 0.48232 0.98366 0.0
C239 C 0.982 0.51374 0.98781 0.0
C240 C 0.00458 0.53876 0.00953 0.0
C241 C 0.00093 0.57131 0.00612 0.0
C242 C 0.02015 0.59579 0.02687 0.0
C243 C 0.04357 0.58841 0.0518 0.0
H244 H 0.03154 0.50666 0.03858 0.0
C245 C 0.04764 0.55586 0.05506 0.0
C246 C 0.02829 0.53129 0.0343 0.0
H247 H 0.06525 0.54929 0.07413 0.0
H248 H 0.9033 0.44531 0.89823 0.0
H249 H 0.94139 0.48825 0.9295 0.0
H250 H 0.97949 0.41927 0.99162 0.0
H251 H 0.94182 0.37644 0.96036 0.0
H252 H 0.00859 0.47397 -0.00365 0.0
H253 H 0.96009 0.52174 0.97514 0.0
H254 H 0.98288 0.5779 0.98744 0.0
H255 H 0.0163 0.62057 0.02351 0.0
C256 C 0.44058 0.27998 0.32108 0.0
C257 C 0.41668 0.29966 0.30979 0.0
C258 C 0.45906 0.26367 0.29892 0.0
C259 C 0.45387 0.26632 0.26477 0.0
C260 C 0.43106 0.28706 0.25351 0.0
C261 C 0.4125 0.30357 0.27583 0.0
C262 C 0.47327 0.24901 0.24079 0.0
C263 C 0.48614 0.22131 0.24671 0.0
C264 C 0.51008 0.2061 0.226 0.0
C265 C 0.51749 0.17466 0.231 0.0
C266 C 0.54259 0.16088 0.21463 0.0
C267 C 0.56071 0.17839 0.19296 0.0
H268 H 0.52407 0.24786 0.19988 0.0
C269 C 0.55281 0.20952 0.18747 0.0
C270 C 0.52795 0.22328 0.20382 0.0
H271 H 0.5667 0.22398 0.17144 0.0
H272 H 0.44493 0.27691 0.34717 0.0
H273 H 0.47759 0.24926 0.30882 0.0
H274 H 0.42714 0.29004 0.22736 0.0
H275 H 0.39433 0.31862 0.26639 0.0
H276 H 0.47676 0.25952 0.21776 0.0
H277 H 0.47954 0.20941 0.26827 0.0
H278 H 0.50435 0.16097 0.2482 0.0
H279 H 0.54821 0.13687 0.21942 0.0
C280 C 0.78217 0.83247 0.448 0.0
C281 C 0.80994 0.82095 0.43417 0.0
C282 C 0.7655 0.81521 0.47071 0.0
C283 C 0.77651 0.78615 0.48022 0.0
C284 C 0.80473 0.77518 0.46691 0.0
C285 C 0.82128 0.79235 0.44421 0.0
C286 C 0.75781 0.76517 0.50154 0.0
C287 C 0.73551 0.77566 0.52163 0.0
C288 C 0.71334 0.75375 0.5389 0.0
C289 C 0.68187 0.76296 0.54497 0.0
C290 C 0.65952 0.743 0.56018 0.0
C291 C 0.66825 0.71342 0.57028 0.0
H292 H 0.74688 0.71681 0.54556 0.0
C293 C 0.70006 0.70433 0.5648 0.0
C294 C 0.72244 0.72429 0.54913 0.0
H295 H 0.70767 0.68189 0.57262 0.0
H296 H 0.77264 0.85425 0.44051 0.0
H297 H 0.74329 0.82418 0.47949 0.0
H298 H 0.81361 0.7528 0.4735 0.0
H299 H 0.84231 0.78247 0.43375 0.0
H300 H 0.76178 0.73981 0.49945 0.0
H301 H 0.7314 0.80096 0.5239 0.0
H302 H 0.67429 0.78555 0.53749 0.0
H303 H 0.63541 0.75109 0.56429 0.0
C304 C 0.23459 0.59162 0.19048 0.0
C305 C 0.20389 0.58137 0.17196 0.0
C306 C 0.25309 0.56951 0.2055 0.0
C307 C 0.24121 0.53655 0.20256 0.0
C308 C 0.21144 0.52607 0.18258 0.0
C309 C 0.19288 0.54823 0.16753 0.0
C310 C 0.25884 0.51268 0.22046 0.0
C311 C 0.27783 0.52074 0.24942 0.0
C312 C 0.29258 0.49689 0.26969 0.0
C313 C 0.29921 0.5049 0.30401 0.0
C314 C 0.31144 0.48274 0.32436 0.0
C315 C 0.3178 0.45211 0.31079 0.0
H316 H 0.29632 0.45996 0.22942 0.0
C317 C 0.31261 0.44454 0.27623 0.0
C318 C 0.30008 0.46666 0.25587 0.0
H319 H 0.31742 0.42121 0.26494 0.0
H320 H 0.24409 0.6169 0.19402 0.0
H321 H 0.27655 0.57845 0.21955 0.0
H322 H 0.20191 0.50078 0.17949 0.0
H323 H 0.16944 0.53948 0.15327 0.0
H324 H 0.25353 0.48746 0.21095 0.0
H325 H 0.28043 0.54558 0.26041 0.0
H326 H 0.29406 0.52812 0.31532 0.0
H327 H 0.31533 0.48945 0.35083 0.0
C328 C 0.79647 0.29167 0.92152 0.0
C329 C 0.79039 0.3221 0.91185 0.0
C330 C 0.77949 0.27843 0.94634 0.0
C331 C 0.75603 0.29542 0.96228 0.0
C332 C 0.7498 0.32582 0.95252 0.0
C333 C 0.76686 0.33911 0.92756 0.0
C334 C 0.73615 0.28138 0.98757 0.0
C335 C 0.74557 0.25763 0.00545 0.0
C336 C 0.72423 0.24249 0.02904 0.0
C337 C 0.72843 0.21093 0.03665 0.0
C338 C 0.70737 0.19541 0.05735 0.0
C339 C 0.68171 0.21128 0.07063 0.0
H340 H 0.69657 0.28363 0.04017 0.0
C341 C 0.67851 0.24329 0.06411 0.0
C342 C 0.69965 0.25881 0.04388 0.0
H343 H 0.6596 0.25657 0.07476 0.0
H344 H 0.81382 0.27753 0.90934 0.0
H345 H 0.78417 0.25446 0.95203 0.0
H346 H 0.73155 0.33927 0.96415 0.0
H347 H 0.76152 0.36252 0.92048 0.0
H348 H 0.71248 0.29087 0.99087 0.0
H349 H 0.76915 0.24797 0.00208 0.0
H350 H 0.74754 0.19798 0.02593 0.0
H351 H 0.7106 0.17085 0.06224 0.0
C352 C 0.79795 0.91747 0.25526 0.0
C353 C 0.82026 0.92358 0.28401 0.0
C354 C 0.78758 0.94284 0.23825 0.0
C355 C 0.79912 0.97507 0.24976 0.0
C356 C 0.82243 0.98102 0.27775 0.0
C357 C 0.83282 0.95563 0.29475 0.0
C358 C 0.7873 0.00317 0.23387 0.0
C359 C 0.75851 0.00183 0.2142 0.0
C360 C 0.74469 0.03059 0.20149 0.0
C361 C 0.71967 0.02589 0.17491 0.0
C362 C 0.70377 0.05184 0.16417 0.0
C363 C 0.71237 0.08313 0.18001 0.0
H364 H 0.77228 0.06698 0.23783 0.0
C365 C 0.73797 0.08801 0.20603 0.0
C366 C 0.75387 0.06212 0.21674 0.0
H367 H 0.74515 0.11178 0.21891 0.0
H368 H 0.7881 0.89302 0.24604 0.0
H369 H 0.77058 0.9369 0.21616 0.0
H370 H 0.83205 0.00551 0.28706 0.0
H371 H 0.85018 0.96123 0.31669 0.0
H372 H 0.80239 0.02613 0.24009 0.0
H373 H 0.74348 0.97888 0.20773 0.0
H374 H 0.71189 0.0019 0.16277 0.0
H375 H 0.68409 0.04719 0.14411 0.0
C376 C 0.95592 0.91617 0.46852 0.0
C377 C 0.93179 0.9195 0.44248 0.0
C378 C 0.97506 0.94319 0.48537 0.0
C379 C 0.97064 0.9743 0.47651 0.0
C380 C 0.94628 0.97769 0.45078 0.0
C381 C 0.92719 0.95062 0.43381 0.0
C382 C 0.98969 0.00377 0.49458 0.0
C383 C 0.02008 0.00397 0.51108 0.0
C384 C 0.03842 0.03295 0.53086 0.0
C385 C 0.06374 0.02859 0.55532 0.0
C386 C 0.0805 0.05496 0.57562 0.0
C387 C 0.07236 0.08638 0.57182 0.0
H388 H 0.01302 0.06932 0.50682 0.0
C389 C 0.04795 0.09087 0.54649 0.0
C390 C 0.0313 0.06455 0.52615 0.0
H391 H 0.04138 0.11477 0.54248 0.0
H392 H 0.96004 0.89262 0.47608 0.0
H393 H 0.99269 0.93951 0.50577 0.0
H394 H 0.94207 0.00139 0.44368 0.0
H395 H 0.90877 0.95414 0.41398 0.0
H396 H 0.97782 0.02587 0.49415 0.0
H397 H 0.03183 0.98174 0.51111 0.0
H398 H 0.07007 0.0046 0.55928 0.0
H399 H 0.09926 0.05059 0.59476 0.0
C400 C 0.92656 0.29112 0.77709 0.0
C401 C 0.93267 0.30041 0.81121 0.0
C402 C 0.94827 0.27229 0.76088 0.0
C403 C 0.97649 0.26289 0.77867 0.0
C404 C 0.9838 0.27448 0.81211 0.0
C405 C 0.96194 0.29276 0.82833 0.0
C406 C -0.00142 0.24051 0.76379 0.0
C407 C 0.98827 0.21753 0.7388 0.0
C408 C 0.0114 0.19538 0.72556 0.0
C409 C 0.01086 0.18823 0.69122 0.0
C410 C 0.036 0.17194 0.67794 0.0
C411 C 0.06152 0.162 0.69888 0.0
H412 H 0.03553 0.18717 0.77326 0.0
C413 C 0.06013 0.16614 0.73327 0.0
C414 C 0.03528 0.18291 0.74658 0.0
H415 H 0.07958 0.15859 0.74983 0.0
H416 H 0.90408 0.29673 0.76344 0.0
H417 H 0.94256 0.2647 0.73474 0.0
H418 H 0.00566 0.26804 0.82621 0.0
H419 H 0.96725 0.29983 0.85466 0.0
H420 H 0.02406 0.24203 0.77511 0.0
H421 H 0.96311 0.21578 0.72675 0.0
H422 H 0.99228 0.19704 0.67462 0.0
H423 H 0.03625 0.16834 0.65129 0.0
C424 C 0.52541 0.6825 0.67308 0.0
C425 C 0.54509 0.65967 0.68547 0.0
C426 C 0.50242 0.69622 0.69224 0.0
C427 C 0.49894 0.68766 0.72447 0.0
C428 C 0.51644 0.66277 0.73572 0.0
C429 C 0.53937 0.64888 0.7164 0.0
C430 C 0.47914 0.70544 0.7477 0.0
C431 C 0.47381 0.73656 0.74573 0.0
C432 C 0.4586 0.75571 0.77182 0.0
C433 C 0.44078 0.7814 0.76339 0.0
C434 C 0.42622 0.79978 0.78767 0.0
C435 C 0.42967 0.79299 0.82091 0.0
H436 H 0.47791 0.73111 0.81288 0.0
C437 C 0.44875 0.76811 0.8294 0.0
C438 C 0.46307 0.74973 0.8052 0.0
H439 H 0.45235 0.76241 0.8548 0.0
H440 H 0.52847 0.69077 0.64906 0.0
H441 H 0.48815 0.7141 0.68196 0.0
H442 H 0.51377 0.65531 0.76026 0.0
H443 H 0.55401 0.63115 0.72655 0.0
H444 H 0.47104 0.69323 0.76856 0.0
H445 H 0.48155 0.74903 0.72494 0.0
H446 H 0.43758 0.78686 0.73788 0.0
H447 H 0.41177 0.81883 0.78029 0.0
C448 C 0.16696 0.72269 0.04353 0.0
C449 C 0.1736 0.69718 0.06247 0.0
C450 C 0.1924 0.73947 0.02899 0.0
C451 C 0.22521 0.73121 0.03301 0.0
C452 C 0.23171 0.70472 0.05043 0.0
C453 C 0.20616 0.68794 0.0653 0.0
C454 C 0.25246 0.74916 0.01783 0.0
C455 C 0.2531 0.78106 0.01486 0.0
C456 C 0.2761 0.79886 0.99456 0.0
C457 C 0.26683 0.82752 0.98273 0.0
C458 C 0.28508 0.84261 0.95966 0.0
C459 C 0.31305 0.82932 0.94811 0.0
H460 H 0.31452 0.76589 0.99448 0.0
C461 C 0.32373 0.80205 0.96183 0.0
C462 C 0.30562 0.78708 0.98497 0.0
H463 H 0.34533 0.7913 0.95377 0.0
H464 H 0.14212 0.73023 0.04034 0.0
H465 H 0.1862 0.75881 0.01443 0.0
H466 H 0.25673 0.69751 0.05322 0.0
H467 H 0.21208 0.66833 0.0796 0.0
H468 H 0.27143 0.73531 0.0081 0.0
H469 H 0.23406 0.79428 0.02555 0.0
H470 H 0.24444 0.83741 0.99006 0.0
H471 H 0.27631 0.86371 0.94971 0.0
C472 C 0.4231 0.44016 0.42532 0.0
C473 C 0.42226 0.40815 0.43337 0.0
C474 C 0.44514 0.46461 0.44346 0.0
C475 C 0.467 0.4575 0.46998 0.0
C476 C 0.46616 0.42551 0.47782 0.0
C477 C 0.44423 0.40116 0.45976 0.0
C478 C 0.48972 0.48264 0.49133 0.0
C479 C 0.49915 0.51224 0.48262 0.0
C480 C 0.51951 0.5378 0.50554 0.0
C481 C 0.51545 0.57012 0.5015 0.0
C482 C 0.53233 0.59493 0.52365 0.0
C483 C 0.55415 0.58806 0.5502 0.0
H484 H 0.54706 0.50629 0.53456 0.0
C485 C 0.55952 0.55577 0.55338 0.0
C486 C 0.54235 0.53085 0.5313 0.0
H487 H 0.57636 0.54965 0.57337 0.0
H488 H 0.4064 0.44646 0.40531 0.0
H489 H 0.44418 0.48901 0.43704 0.0
H490 H 0.48247 0.41927 0.49818 0.0
H491 H 0.44439 0.37683 0.46676 0.0
H492 H 0.49853 0.47639 0.5156 0.0
H493 H 0.49029 0.51888 0.45856 0.0
H494 H 0.49838 0.57622 0.48167 0.0
H495 H 0.52786 0.61954 0.52015 0.0
loop_
_geom_bond_atom_site_label_1
_geom_bond_atom_site_label_2
_geom_bond_distance
_geom_bond_site_symmetry_2
_ccdc_geom_bond_type
Mg0 O1 2.028 . S
Mg0 O7 1.986 . S
Mg0 O9 2.114 . S
Mg0 O10 2.251 . S
Mg0 O13 2.010 . S
O1 Mg0 2.028 . S
O1 C4 1.250 . S
O2 Mg3 2.028 . S
O2 C4 1.248 . S
Mg3 O2 2.028 . S
Mg3 O8 2.032 . S
Mg3 O10 2.079 . S
C4 O1 1.250 . S
C4 O2 1.248 . S
C5 O6 1.264 . S
C5 O13 1.249 . S
O6 C5 1.264 . S
O7 Mg0 1.986 . S
O7 C11 1.246 . S
O8 Mg3 2.032 . S
O8 C11 1.259 . S
O9 Mg0 2.114 . S
O9 C12 1.252 . S
O10 Mg0 2.251 . S
O10 Mg3 2.079 . S
O10 C12 1.273 . S
C11 O7 1.246 . S
C11 O8 1.259 . S
C12 O9 1.252 . S
C12 O10 1.273 . S
O13 Mg0 2.010 . S
O13 C5 1.249 . S
Mg14 O15 2.028 . S
Mg14 O21 1.986 . S
Mg14 O23 2.114 . S
Mg14 O24 2.251 . S
Mg14 O27 2.010 . S
O15 Mg14 2.028 . S
O15 C18 1.250 . S
O16 Mg17 2.028 . S
O16 C18 1.248 . S
Mg17 O16 2.028 . S
Mg17 O22 2.032 . S
Mg17 O24 2.079 . S
C18 O15 1.250 . S
C18 O16 1.248 . S
C19 O20 1.264 . S
C19 O27 1.249 . S
O20 C19 1.264 . S
O21 Mg14 1.986 . S
O21 C25 1.246 . S
O22 Mg17 2.032 . S
O22 C25 1.259 . S
O23 Mg14 2.114 . S
O23 C26 1.252 . S
O24 Mg14 2.251 . S
O24 Mg17 2.079 . S
O24 C26 1.273 . S
C25 O21 1.246 . S
C25 O22 1.259 . S
C26 O23 1.252 . S
C26 O24 1.273 . S
O27 Mg14 2.010 . S
O27 C19 1.249 . S
Mg28 O29 2.028 . S
Mg28 O35 1.986 . S
Mg28 O37 2.114 . S
Mg28 O38 2.251 . S
Mg28 O41 2.010 . S
O29 Mg28 2.028 . S
O29 C32 1.250 . S
O30 Mg31 2.028 . S
O30 C32 1.248 . S
Mg31 O30 2.028 . S
Mg31 O36 2.032 . S
Mg31 O38 2.079 . S
C32 O29 1.250 . S
C32 O30 1.248 . S
C33 O34 1.264 . S
C33 O41 1.249 . S
O34 C33 1.264 . S
O35 Mg28 1.986 . S
O35 C39 1.246 . S
O36 Mg31 2.032 . S
O36 C39 1.259 . S
O37 Mg28 2.114 . S
O37 C40 1.252 . S
O38 Mg28 2.251 . S
O38 Mg31 2.079 . S
O38 C40 1.273 . S
C39 O35 1.246 . S
C39 O36 1.259 . S
C40 O37 1.252 . S
C40 O38 1.273 . S
O41 Mg28 2.010 . S
O41 C33 1.249 . S
Mg42 O43 2.028 . S
Mg42 O49 1.986 . S
Mg42 O51 2.114 . S
Mg42 O52 2.251 . S
Mg42 O55 2.010 . S
O43 Mg42 2.028 . S
O43 C46 1.250 . S
O44 Mg45 2.028 . S
O44 C46 1.248 . S
Mg45 O44 2.028 . S
Mg45 O50 2.032 . S
Mg45 O52 2.079 . S
C46 O43 1.250 . S
C46 O44 1.248 . S
C47 O48 1.264 . S
C47 O55 1.249 . S
O48 C47 1.264 . S
O49 Mg42 1.986 . S
O49 C53 1.246 . S
O50 Mg45 2.032 . S
O50 C53 1.259 . S
O51 Mg42 2.114 . S
O51 C54 1.252 . S
O52 Mg42 2.251 . S
O52 Mg45 2.079 . S
O52 C54 1.273 . S
C53 O49 1.246 . S
C53 O50 1.259 . S
C54 O51 1.252 . S
C54 O52 1.273 . S
O55 Mg42 2.010 . S
O55 C47 1.249 . S
Mg56 O57 2.028 . S
Mg56 O63 1.986 . S
Mg56 O65 2.114 . S
Mg56 O66 2.251 . S
Mg56 O69 2.010 . S
O57 Mg56 2.028 . S
O57 C60 1.250 . S
O58 Mg59 2.028 . S
O58 C60 1.248 . S
Mg59 O58 2.028 . S
Mg59 O64 2.032 . S
Mg59 O66 2.079 . S
C60 O57 1.250 . S
C60 O58 1.248 . S
C61 O62 1.264 . S
C61 O69 1.249 . S
O62 C61 1.264 . S
O63 Mg56 1.986 . S
O63 C67 1.246 . S
O64 Mg59 2.032 . S
O64 C67 1.259 . S
O65 Mg56 2.114 . S
O65 C68 1.252 . S
O66 Mg56 2.251 . S
O66 Mg59 2.079 . S
O66 C68 1.273 . S
C67 O63 1.246 . S
C67 O64 1.259 . S
C68 O65 1.252 . S
C68 O66 1.273 . S
O69 Mg56 2.010 . S
O69 C61 1.249 . S
Mg70 O71 2.028 . S
Mg70 O77 1.986 . S
Mg70 O79 2.114 . S
Mg70 O80 2.251 . S
Mg70 O83 2.010 . S
O71 Mg70 2.028 . S
O71 C74 1.250 . S
O72 Mg73 2.028 . S
O72 C74 1.248 . S
Mg73 O72 2.028 . S
Mg73 O78 2.032 . S
Mg73 O80 2.079 . S
C74 O71 1.250 . S
C74 O72 1.248 . S
C75 O76 1.264 . S
C75 O83 1.249 . S
O76 C75 1.264 . S
O77 Mg70 1.986 . S
O77 C81 1.246 . S
O78 Mg73 2.032 . S
O78 C81 1.259 . S
O79 Mg70 2.114 . S
O79 C82 1.252 . S
O80 Mg70 2.251 . S
O80 Mg73 2.079 . S
O80 C82 1.273 . S
C81 O77 1.246 . S
C81 O78 1.259 . S
C82 O79 1.252 . S
C82 O80 1.273 . S
O83 Mg70 2.010 . S
O83 C75 1.249 . S
Mg84 O85 2.028 . S
Mg84 O91 1.986 . S
Mg84 O93 2.114 . S
Mg84 O94 2.251 . S
Mg84 O97 2.010 . S
O85 Mg84 2.028 . S
O85 C88 1.250 . S
O86 Mg87 2.028 . S
O86 C88 1.248 . S
Mg87 O86 2.028 . S
Mg87 O92 2.032 . S
Mg87 O94 2.079 . S
C88 O85 1.250 . S
C88 O86 1.248 . S
C89 O90 1.264 . S
C89 O97 1.249 . S
O90 C89 1.264 . S
O91 Mg84 1.986 . S
O91 C95 1.246 . S
O92 Mg87 2.032 . S
O92 C95 1.259 . S
O93 Mg84 2.114 . S
O93 C96 1.252 . S
O94 Mg84 2.251 . S
O94 Mg87 2.079 . S
O94 C96 1.273 . S
C95 O91 1.246 . S
C95 O92 1.259 . S
C96 O93 1.252 . S
C96 O94 1.273 . S
O97 Mg84 2.010 . S
O97 C89 1.249 . S
Mg98 O99 2.028 . S
Mg98 O105 1.986 . S
Mg98 O107 2.114 . S
Mg98 O108 2.251 . S
Mg98 O111 2.010 . S
O99 Mg98 2.028 . S
O99 C102 1.250 . S
O100 Mg101 2.028 . S
O100 C102 1.248 . S
Mg101 O100 2.028 . S
Mg101 O106 2.032 . S
Mg101 O108 2.079 . S
C102 O99 1.250 . S
C102 O100 1.248 . S
C103 O104 1.264 . S
C103 O111 1.249 . S
O104 C103 1.264 . S
O105 Mg98 1.986 . S
O105 C109 1.246 . S
O106 Mg101 2.032 . S
O106 C109 1.259 . S
O107 Mg98 2.114 . S
O107 C110 1.252 . S
O108 Mg98 2.251 . S
O108 Mg101 2.079 . S
O108 C110 1.273 . S
C109 O105 1.246 . S
C109 O106 1.259 . S
C110 O107 1.252 . S
C110 O108 1.273 . S
O111 Mg98 2.010 . S
O111 C103 1.249 . S
C112 C113 1.386 . S
C112 C114 1.383 . S
C112 H128 0.951 . S
C113 C112 1.386 . S
C113 C117 1.383 . S
C114 C112 1.383 . S
C114 C115 1.402 . S
C114 H129 0.951 . S
C115 C114 1.402 . S
C115 C116 1.375 . S
C115 C118 1.481 . S
C116 C115 1.375 . S
C116 C117 1.367 . S
C116 H130 0.951 . S
C117 C113 1.383 . S
C117 C116 1.367 . S
C117 H131 0.950 . S
C118 C115 1.481 . S
C118 C119 1.297 . S
C118 H132 0.950 . S
C119 C118 1.297 . S
C119 C120 1.479 . S
C119 H133 0.950 . S
C120 C119 1.479 . S
C120 C121 1.375 . S
C120 C126 1.404 . S
C121 C120 1.375 . S
C121 C122 1.369 . S
C121 H134 0.950 . S
C122 C121 1.369 . S
C122 C123 1.392 . S
C122 H135 0.951 . S
C123 C122 1.392 . S
C123 C125 1.384 . S
H124 C126 0.949 . S
C125 C123 1.384 . S
C125 C126 1.385 . S
C125 H127 0.950 . S
C126 C120 1.404 . S
C126 H124 0.949 . S
C126 C125 1.385 . S
H127 C125 0.950 . S
H128 C112 0.951 . S
H129 C114 0.951 . S
H130 C116 0.951 . S
H131 C117 0.950 . S
H132 C118 0.950 . S
H133 C119 0.950 . S
H134 C121 0.950 . S
H135 C122 0.951 . S
C136 C137 1.386 . S
C136 C138 1.383 . S
C136 H152 0.951 . S
C137 C136 1.386 . S
C137 C141 1.383 . S
C138 C136 1.383 . S
C138 C139 1.402 . S
C138 H153 0.951 . S
C139 C138 1.402 . S
C139 C140 1.375 . S
C139 C142 1.481 . S
C140 C139 1.375 . S
C140 C141 1.367 . S
C140 H154 0.951 . S
C141 C137 1.383 . S
C141 C140 1.367 . S
C141 H155 0.950 . S
C142 C139 1.481 . S
C142 C143 1.297 . S
C142 H156 0.950 . S
C143 C142 1.297 . S
C143 C144 1.479 . S
C143 H157 0.950 . S
C144 C143 1.479 . S
C144 C145 1.375 . S
C144 C150 1.404 . S
C145 C144 1.375 . S
C145 C146 1.369 . S
C145 H158 0.950 . S
C146 C145 1.369 . S
C146 C147 1.392 . S
C146 H159 0.951 . S
C147 C146 1.392 . S
C147 C149 1.384 . S
H148 C150 0.949 . S
C149 C147 1.384 . S
C149 C150 1.385 . S
C149 H151 0.950 . S
C150 C144 1.404 . S
C150 H148 0.949 . S
C150 C149 1.385 . S
H151 C149 0.950 . S
H152 C136 0.951 . S
H153 C138 0.951 . S
H154 C140 0.951 . S
H155 C141 0.950 . S
H156 C142 0.950 . S
H157 C143 0.950 . S
H158 C145 0.950 . S
H159 C146 0.951 . S
C160 C161 1.386 . S
C160 C162 1.383 . S
C160 H176 0.951 . S
C161 C160 1.386 . S
C161 C165 1.383 . S
C162 C160 1.383 . S
C162 C163 1.402 . S
C162 H177 0.951 . S
C163 C162 1.402 . S
C163 C164 1.375 . S
C163 C166 1.481 . S
C164 C163 1.375 . S
C164 C165 1.367 . S
C164 H178 0.951 . S
C165 C161 1.383 . S
C165 C164 1.367 . S
C165 H179 0.950 . S
C166 C163 1.481 . S
C166 C167 1.307 1_545 S
C166 H180 0.950 . S
C167 C166 1.307 1_565 S
C167 C168 1.471 1_554 S
C167 H181 0.949 1_554 S
C168 C167 1.471 1_556 S
C168 C169 1.375 . S
C168 C174 1.404 . S
C169 C168 1.375 . S
C169 C170 1.369 . S
C169 H182 0.950 . S
C170 C169 1.369 . S
C170 C171 1.392 . S
C170 H183 0.951 . S
C171 C170 1.392 . S
C171 C173 1.384 . S
H172 C174 0.949 1_554 S
C173 C171 1.384 . S
C173 C174 1.385 . S
C173 H175 0.950 . S
C174 C168 1.404 . S
C174 H172 0.949 1_556 S
C174 C173 1.385 . S
H175 C173 0.950 . S
H176 C160 0.951 . S
H177 C162 0.951 . S
H178 C164 0.951 . S
H179 C165 0.950 . S
H180 C166 0.950 . S
H181 C167 0.949 1_556 S
H182 C169 0.950 . S
H183 C170 0.951 . S
C184 C185 1.386 . S
C184 C186 1.383 . S
C184 H200 0.951 . S
C185 C184 1.386 . S
C185 C189 1.383 . S
C186 C184 1.383 . S
C186 C187 1.402 . S
C186 H201 0.951 . S
C187 C186 1.402 . S
C187 C188 1.375 . S
C187 C190 1.481 1_655 S
C188 C187 1.375 . S
C188 C189 1.367 . S
C188 H202 0.951 . S
C189 C185 1.383 . S
C189 C188 1.367 . S
C189 H203 0.950 . S
C190 C187 1.481 1_455 S
C190 C191 1.297 . S
C190 H204 0.950 . S
C191 C190 1.297 . S
C191 C192 1.479 . S
C191 H205 0.950 . S
C192 C191 1.479 . S
C192 C193 1.375 . S
C192 C198 1.404 . S
C193 C192 1.375 . S
C193 C194 1.369 . S
C193 H206 0.950 . S
C194 C193 1.369 . S
C194 C195 1.392 . S
C194 H207 0.951 . S
C195 C194 1.392 . S
C195 C197 1.384 . S
H196 C198 0.949 . S
C197 C195 1.384 . S
C197 C198 1.385 . S
C197 H199 0.950 . S
C198 C192 1.404 . S
C198 H196 0.949 . S
C198 C197 1.385 . S
H199 C197 0.950 . S
H200 C184 0.951 . S
H201 C186 0.951 . S
H202 C188 0.951 . S
H203 C189 0.950 . S
H204 C190 0.950 . S
H205 C191 0.950 . S
H206 C193 0.950 . S
H207 C194 0.951 . S
C208 C209 1.386 . S
C208 C210 1.383 . S
C208 H224 0.951 . S
C209 C208 1.386 . S
C209 C213 1.383 . S
C210 C208 1.383 . S
C210 C211 1.402 . S
C210 H225 0.951 . S
C211 C210 1.402 . S
C211 C212 1.375 . S
C211 C214 1.481 . S
C212 C211 1.375 . S
C212 C213 1.367 . S
C212 H226 0.951 . S
C213 C209 1.383 . S
C213 C212 1.367 . S
C213 H227 0.950 . S
C214 C211 1.481 . S
C214 C215 1.297 . S
C214 H228 0.950 . S
C215 C214 1.297 . S
C215 C216 1.479 1_565 S
C215 H229 0.950 . S
C216 C215 1.479 1_545 S
C216 C217 1.375 . S
C216 C222 1.404 . S
C217 C216 1.375 . S
C217 C218 1.369 . S
C217 H230 0.950 . S
C218 C217 1.369 . S
C218 C219 1.392 . S
C218 H231 0.951 . S
C219 C218 1.392 . S
C219 C221 1.384 . S
H220 C222 0.948 1_565 S
C221 C219 1.384 . S
C221 C222 1.385 . S
C221 H223 0.950 . S
C222 C216 1.404 . S
C222 H220 0.948 1_545 S
C222 C221 1.385 . S
H223 C221 0.950 . S
H224 C208 0.951 . S
H225 C210 0.951 . S
H226 C212 0.951 . S
H227 C213 0.950 . S
H228 C214 0.950 . S
H229 C215 0.950 . S
H230 C217 0.950 . S
H231 C218 0.951 . S
C232 C233 1.386 . S
C232 C234 1.383 . S
C232 H248 0.951 . S
C233 C232 1.386 . S
C233 C237 1.383 . S
C234 C232 1.383 . S
C234 C235 1.402 . S
C234 H249 0.951 . S
C235 C234 1.402 . S
C235 C236 1.375 . S
C235 C238 1.494 1_556 S
C236 C235 1.375 . S
C236 C237 1.367 . S
C236 H250 0.951 1_655 S
C237 C233 1.383 . S
C237 C236 1.367 . S
C237 H251 0.950 . S
C238 C235 1.494 1_554 S
C238 C239 1.302 . S
C238 H252 0.931 1_655 S
C239 C238 1.302 . S
C239 C240 1.479 1_655 S
C239 H253 0.950 . S
C240 C239 1.479 1_455 S
C240 C241 1.375 . S
C240 C246 1.404 . S
C241 C240 1.375 . S
C241 C242 1.369 . S
C241 H254 0.950 1_455 S
C242 C241 1.369 . S
C242 C243 1.392 . S
C242 H255 0.951 . S
C243 C242 1.392 . S
C243 C245 1.384 . S
H244 C246 0.949 . S
C245 C243 1.384 . S
C245 C246 1.385 . S
C245 H247 0.950 . S
C246 C240 1.404 . S
C246 H244 0.949 . S
C246 C245 1.385 . S
H247 C245 0.950 . S
H248 C232 0.951 . S
H249 C234 0.951 . S
H250 C236 0.951 1_455 S
H251 C237 0.950 . S
H252 C238 0.931 1_455 S
H253 C239 0.950 . S
H254 C241 0.950 1_655 S
H255 C242 0.951 . S
C256 C257 1.386 . S
C256 C258 1.383 . S
C256 H272 0.951 . S
C257 C256 1.386 . S
C257 C261 1.383 . S
C258 C256 1.383 . S
C258 C259 1.402 . S
C258 H273 0.951 . S
C259 C258 1.402 . S
C259 C260 1.375 . S
C259 C262 1.481 . S
C260 C259 1.375 . S
C260 C261 1.367 . S
C260 H274 0.951 . S
C261 C257 1.383 . S
C261 C260 1.367 . S
C261 H275 0.950 . S
C262 C259 1.481 . S
C262 C263 1.297 . S
C262 H276 0.950 . S
C263 C262 1.297 . S
C263 C264 1.479 . S
C263 H277 0.950 . S
C264 C263 1.479 . S
C264 C265 1.375 . S
C264 C270 1.404 . S
C265 C264 1.375 . S
C265 C266 1.369 . S
C265 H278 0.950 . S
C266 C265 1.369 . S
C266 C267 1.392 . S
C266 H279 0.951 . S
C267 C266 1.392 . S
C267 C269 1.384 . S
H268 C270 0.949 . S
C269 C267 1.384 . S
C269 C270 1.385 . S
C269 H271 0.950 . S
C270 C264 1.404 . S
C270 H268 0.949 . S
C270 C269 1.385 . S
H271 C269 0.950 . S
H272 C256 0.951 . S
H273 C258 0.951 . S
H274 C260 0.951 . S
H275 C261 0.950 . S
H276 C262 0.950 . S
H277 C263 0.950 . S
H278 C265 0.950 . S
H279 C266 0.951 . S
C280 C281 1.386 . S
C280 C282 1.383 . S
C280 H296 0.951 . S
C281 C280 1.386 . S
C281 C285 1.383 . S
C282 C280 1.383 . S
C282 C283 1.402 . S
C282 H297 0.951 . S
C283 C282 1.402 . S
C283 C284 1.375 . S
C283 C286 1.481 . S
C284 C283 1.375 . S
C284 C285 1.367 . S
C284 H298 0.951 . S
C285 C281 1.383 . S
C285 C284 1.367 . S
C285 H299 0.950 . S
C286 C283 1.481 . S
C286 C287 1.297 . S
C286 H300 0.950 . S
C287 C286 1.297 . S
C287 C288 1.479 . S
C287 H301 0.950 . S
C288 C287 1.479 . S
C288 C289 1.375 . S
C288 C294 1.404 . S
C289 C288 1.375 . S
C289 C290 1.369 . S
C289 H302 0.950 . S
C290 C289 1.369 . S
C290 C291 1.392 . S
C290 H303 0.951 . S
C291 C290 1.392 . S
C291 C293 1.384 . S
H292 C294 0.949 . S
C293 C291 1.384 . S
C293 C294 1.385 . S
C293 H295 0.950 . S
C294 C288 1.404 . S
C294 H292 0.949 . S
C294 C293 1.385 . S
H295 C293 0.950 . S
H296 C280 0.951 . S
H297 C282 0.951 . S
H298 C284 0.951 . S
H299 C285 0.950 . S
H300 C286 0.950 . S
H301 C287 0.950 . S
H302 C289 0.950 . S
H303 C290 0.951 . S
C304 C305 1.386 . S
C304 C306 1.383 . S
C304 H320 0.951 . S
C305 C304 1.386 . S
C305 C309 1.383 . S
C306 C304 1.383 . S
C306 C307 1.402 . S
C306 H321 0.951 . S
C307 C306 1.402 . S
C307 C308 1.375 . S
C307 C310 1.481 . S
C308 C307 1.375 . S
C308 C309 1.367 . S
C308 H322 0.951 . S
C309 C305 1.383 . S
C309 C308 1.367 . S
C309 H323 0.950 . S
C310 C307 1.481 . S
C310 C311 1.297 . S
C310 H324 0.950 . S
C311 C310 1.297 . S
C311 C312 1.479 . S
C311 H325 0.950 . S
C312 C311 1.479 . S
C312 C313 1.375 . S
C312 C318 1.404 . S
C313 C312 1.375 . S
C313 C314 1.369 . S
C313 H326 0.950 . S
C314 C313 1.369 . S
C314 C315 1.392 . S
C314 H327 0.951 . S
C315 C314 1.392 . S
C315 C317 1.384 . S
H316 C318 0.949 . S
C317 C315 1.384 . S
C317 C318 1.385 . S
C317 H319 0.950 . S
C318 C312 1.404 . S
C318 H316 0.949 . S
C318 C317 1.385 . S
H319 C317 0.950 . S
H320 C304 0.951 . S
H321 C306 0.951 . S
H322 C308 0.951 . S
H323 C309 0.950 . S
H324 C310 0.950 . S
H325 C311 0.950 . S
H326 C313 0.950 . S
H327 C314 0.951 . S
C328 C329 1.386 . S
C328 C330 1.383 . S
C328 H344 0.951 . S
C329 C328 1.386 . S
C329 C333 1.383 . S
C330 C328 1.383 . S
C330 C331 1.402 . S
C330 H345 0.951 . S
C331 C330 1.402 . S
C331 C332 1.375 . S
C331 C334 1.481 1_556 S
C332 C331 1.375 . S
C332 C333 1.367 . S
C332 H346 0.951 1_556 S
C333 C329 1.383 . S
C333 C332 1.367 . S
C333 H347 0.950 . S
C334 C331 1.481 1_554 S
C334 C335 1.297 . S
C334 H348 0.950 . S
C335 C334 1.297 . S
C335 C336 1.479 . S
C335 H349 0.950 1_554 S
C336 C335 1.479 . S
C336 C337 1.375 . S
C336 C342 1.404 . S
C337 C336 1.375 . S
C337 C338 1.369 . S
C337 H350 0.969 . S
C338 C337 1.369 . S
C338 C339 1.392 . S
C338 H351 0.951 . S
C339 C338 1.392 . S
C339 C341 1.384 . S
H340 C342 0.949 . S
C341 C339 1.384 . S
C341 C342 1.385 . S
C341 H343 0.950 . S
C342 C336 1.404 . S
C342 H340 0.949 . S
C342 C341 1.385 . S
H343 C341 0.950 . S
H344 C328 0.951 . S
H345 C330 0.951 . S
H346 C332 0.951 1_554 S
H347 C333 0.950 . S
H348 C334 0.950 . S
H349 C335 0.950 1_556 S
H350 C337 0.969 . S
H351 C338 0.951 . S
C352 C353 1.386 . S
C352 C354 1.383 . S
C352 H368 0.951 . S
C353 C352 1.386 . S
C353 C357 1.383 . S
C354 C352 1.383 . S
C354 C355 1.402 . S
C354 H369 0.951 . S
C355 C354 1.402 . S
C355 C356 1.375 . S
C355 C358 1.481 1_565 S
C356 C355 1.375 . S
C356 C357 1.367 . S
C356 H370 0.951 1_565 S
C357 C353 1.383 . S
C357 C356 1.367 . S
C357 H371 0.950 . S
C358 C355 1.481 1_545 S
C358 C359 1.297 . S
C358 H372 0.950 . S
C359 C358 1.297 . S
C359 C360 1.479 . S
C359 H373 0.950 1_545 S
C360 C359 1.479 . S
C360 C361 1.375 . S
C360 C366 1.404 . S
C361 C360 1.375 . S
C361 C362 1.369 . S
C361 H374 0.950 1_545 S
C362 C361 1.369 . S
C362 C363 1.392 . S
C362 H375 0.951 . S
C363 C362 1.392 . S
C363 C365 1.384 . S
H364 C366 0.949 . S
C365 C363 1.384 . S
C365 C366 1.385 . S
C365 H367 0.950 . S
C366 C360 1.404 . S
C366 H364 0.949 . S
C366 C365 1.385 . S
H367 C365 0.950 . S
H368 C352 0.951 . S
H369 C354 0.951 . S
H370 C356 0.951 1_545 S
H371 C357 0.950 . S
H372 C358 0.950 . S
H373 C359 0.950 1_565 S
H374 C361 0.950 1_565 S
H375 C362 0.951 . S
C376 C377 1.386 . S
C376 C378 1.383 . S
C376 H392 0.951 . S
C377 C376 1.386 . S
C377 C381 1.383 . S
C378 C376 1.383 . S
C378 C379 1.402 . S
C378 H393 0.951 . S
C379 C378 1.402 . S
C379 C380 1.375 . S
C379 C382 1.481 1_565 S
C380 C379 1.375 . S
C380 C381 1.367 . S
C380 H394 0.951 1_565 S
C381 C377 1.383 . S
C381 C380 1.367 . S
C381 H395 0.950 . S
C382 C379 1.481 1_545 S
C382 C383 1.297 1_655 S
C382 H396 0.950 . S
C383 C382 1.297 1_455 S
C383 C384 1.479 . S
C383 H397 0.950 1_545 S
C384 C383 1.479 . S
C384 C385 1.375 . S
C384 C390 1.404 . S
C385 C384 1.375 . S
C385 C386 1.369 . S
C385 H398 0.950 1_545 S
C386 C385 1.369 . S
C386 C387 1.392 . S
C386 H399 0.951 . S
C387 C386 1.392 . S
C387 C389 1.384 . S
H388 C390 0.949 . S
C389 C387 1.384 . S
C389 C390 1.385 . S
C389 H391 0.950 . S
C390 C384 1.404 . S
C390 H388 0.949 . S
C390 C389 1.385 . S
H391 C389 0.950 . S
H392 C376 0.951 . S
H393 C378 0.951 . S
H394 C380 0.951 1_545 S
H395 C381 0.950 . S
H396 C382 0.950 . S
H397 C383 0.950 1_565 S
H398 C385 0.950 1_565 S
H399 C386 0.951 . S
C400 C401 1.386 . S
C400 C402 1.383 . S
C400 H416 0.951 . S
C401 C400 1.386 . S
C401 C405 1.383 . S
C402 C400 1.383 . S
C402 C403 1.402 . S
C402 H417 0.951 . S
C403 C402 1.402 . S
C403 C404 1.375 . S
C403 C406 1.481 1_655 S
C404 C403 1.375 . S
C404 C405 1.367 . S
C404 H418 0.951 1_655 S
C405 C401 1.383 . S
C405 C404 1.367 . S
C405 H419 0.950 . S
C406 C403 1.481 1_455 S
C406 C407 1.297 . S
C406 H420 0.950 . S
C407 C406 1.297 . S
C407 C408 1.479 . S
C407 H421 0.950 1_455 S
C408 C407 1.479 . S
C408 C409 1.375 . S
C408 C414 1.404 . S
C409 C408 1.375 . S
C409 C410 1.369 . S
C409 H422 0.950 . S
C410 C409 1.369 . S
C410 C411 1.392 . S
C410 H423 0.951 . S
C411 C410 1.392 . S
C411 C413 1.384 . S
H412 C414 0.949 . S
C413 C411 1.384 . S
C413 C414 1.385 . S
C413 H415 0.950 . S
C414 C408 1.404 . S
C414 H412 0.949 . S
C414 C413 1.385 . S
H415 C413 0.950 . S
H416 C400 0.951 . S
H417 C402 0.951 . S
H418 C404 0.951 1_455 S
H419 C405 0.950 . S
H420 C406 0.950 . S
H421 C407 0.950 1_655 S
H422 C409 0.950 . S
H423 C410 0.951 . S
C424 C425 1.386 . S
C424 C426 1.383 . S
C424 H440 0.951 . S
C425 C424 1.386 . S
C425 C429 1.383 . S
C426 C424 1.383 . S
C426 C427 1.402 . S
C426 H441 0.951 . S
C427 C426 1.402 . S
C427 C428 1.375 . S
C427 C430 1.481 . S
C428 C427 1.375 . S
C428 C429 1.367 . S
C428 H442 0.951 . S
C429 C425 1.383 . S
C429 C428 1.367 . S
C429 H443 0.950 . S
C430 C427 1.481 . S
C430 C431 1.297 . S
C430 H444 0.950 . S
C431 C430 1.297 . S
C431 C432 1.479 . S
C431 H445 0.950 . S
C432 C431 1.479 . S
C432 C433 1.375 . S
C432 C438 1.404 . S
C433 C432 1.375 . S
C433 C434 1.369 . S
C433 H446 0.950 . S
C434 C433 1.369 . S
C434 C435 1.392 . S
C434 H447 0.951 . S
C435 C434 1.392 . S
C435 C437 1.384 . S
H436 C438 0.949 . S
C437 C435 1.384 . S
C437 C438 1.385 . S
C437 H439 0.950 . S
C438 C432 1.404 . S
C438 H436 0.949 . S
C438 C437 1.385 . S
H439 C437 0.950 . S
H440 C424 0.951 . S
H441 C426 0.951 . S
H442 C428 0.951 . S
H443 C429 0.950 . S
H444 C430 0.950 . S
H445 C431 0.950 . S
H446 C433 0.950 . S
H447 C434 0.951 . S
C448 C449 1.386 . S
C448 C450 1.383 . S
C448 H464 0.951 . S
C449 C448 1.386 . S
C449 C453 1.383 . S
C450 C448 1.383 . S
C450 C451 1.402 . S
C450 H465 0.951 1_554 S
C451 C450 1.402 . S
C451 C452 1.375 . S
C451 C454 1.481 . S
C452 C451 1.375 . S
C452 C453 1.367 . S
C452 H466 0.951 . S
C453 C449 1.383 . S
C453 C452 1.367 . S
C453 H467 0.950 . S
C454 C451 1.481 . S
C454 C455 1.297 1_554 S
C454 H468 0.950 . S
C455 C454 1.297 1_556 S
C455 C456 1.479 . S
C455 H469 0.950 . S
C456 C455 1.479 . S
C456 C457 1.375 . S
C456 C462 1.404 . S
C457 C456 1.375 . S
C457 C458 1.369 . S
C457 H470 0.950 . S
C458 C457 1.369 . S
C458 C459 1.392 . S
C458 H471 0.951 . S
C459 C458 1.392 . S
C459 C461 1.384 . S
H460 C462 0.949 1_554 S
C461 C459 1.384 . S
C461 C462 1.385 . S
C461 H463 0.950 . S
C462 C456 1.404 . S
C462 H460 0.949 1_556 S
C462 C461 1.385 . S
H463 C461 0.950 . S
H464 C448 0.951 . S
H465 C450 0.951 1_556 S
H466 C452 0.951 . S
H467 C453 0.950 . S
H468 C454 0.950 . S
H469 C455 0.950 . S
H470 C457 0.950 . S
H471 C458 0.951 . S
C472 C473 1.386 . S
C472 C474 1.383 . S
C472 H488 0.951 . S
C473 C472 1.386 . S
C473 C477 1.383 . S
C474 C472 1.383 . S
C474 C475 1.402 . S
C474 H489 0.951 . S
C475 C474 1.402 . S
C475 C476 1.375 . S
C475 C478 1.481 . S
C476 C475 1.375 . S
C476 C477 1.367 . S
C476 H490 0.951 . S
C477 C473 1.383 . S
C477 C476 1.367 . S
C477 H491 0.950 . S
C478 C475 1.481 . S
C478 C479 1.297 . S
C478 H492 0.950 . S
C479 C478 1.297 . S
C479 C480 1.479 . S
C479 H493 0.950 . S
C480 C479 1.479 . S
C480 C481 1.375 . S
C480 C486 1.404 . S
C481 C480 1.375 . S
C481 C482 1.369 . S
C481 H494 0.950 . S
C482 C481 1.369 . S
C482 C483 1.392 . S
C482 H495 0.951 . S
C483 C482 1.392 . S
C483 C485 1.384 . S
H484 C486 0.949 . S
C485 C483 1.384 . S
C485 C486 1.385 . S
C485 H487 0.950 . S
C486 C480 1.404 . S
C486 H484 0.949 . S
C486 C485 1.385 . S
H487 C485 0.950 . S
H488 C472 0.951 . S
H489 C474 0.951 . S
H490 C476 0.951 . S
H491 C477 0.950 . S
H492 C478 0.950 . S
H493 C479 0.950 . S
H494 C481 0.950 . S
H495 C482 0.951 . S
C113 C82 1.497 . S
C123 C11 1.492 . S
C137 C103 1.206 . S
C147 C19 1.343 . S
C161 C32 1.463 . S
C171 C88 1.410 . S
C185 C53 1.451 . S
C195 C68 1.486 . S
C209 C89 1.206 . S
C219 C5 1.343 . S
C233 C18 1.432 . S
C243 C60 1.472 . S
C257 C81 1.482 . S
C267 C40 1.490 . S
C281 C54 1.494 . S
C291 C109 1.428 . S
C305 C61 1.277 . S
C315 C75 1.160 . S
C329 C26 1.498 . S
C339 C39 1.497 . S
C353 C47 1.313 . S
C363 C33 1.239 . S
C377 C46 1.478 . S
C387 C4 1.449 . S
C401 C25 1.460 . S
C411 C12 1.487 . S
C425 C110 1.495 . S
C435 C95 1.442 . S
C449 C67 1.468 . S
C459 C96 1.487 . S
C473 C74 1.463 . S
C483 C102 1.410 . S
