# Generated by pormake.
# Topology umh, (4)-cn, num edge types: 1
# Building blocks:
#     Node 0, Type 0, BuildingBlock: GALJAG_clean_sbu_0, # of connection points: 4
#     Node 1, Type 0, BuildingBlock: GALJAG_clean_sbu_0, # of connection points: 4
#     Node 2, Type 0, BuildingBlock: GALJAG_clean_sbu_0, # of connection points: 4
#     Node 3, Type 0, BuildingBlock: GALJAG_clean_sbu_0, # of connection points: 4
#     Node 4, Type 0, BuildingBlock: GALJAG_clean_sbu_0, # of connection points: 4
#     Node 5, Type 0, BuildingBlock: GALJAG_clean_sbu_0, # of connection points: 4
#     Node 6, Type 0, BuildingBlock: GALJAG_clean_sbu_0, # of connection points: 4
#     Node 7, Type 0, BuildingBlock: GALJAG_clean_sbu_0, # of connection points: 4
#     Node 8, Type 0, BuildingBlock: GALJAG_clean_sbu_0, # of connection points: 4
#     Node 9, Type 0, BuildingBlock: GALJAG_clean_sbu_0, # of connection points: 4
#     Node 10, Type 0, BuildingBlock: GALJAG_clean_sbu_0, # of connection points: 4
#     Node 11, Type 0, BuildingBlock: GALJAG_clean_sbu_0, # of connection points: 4
#     Node 12, Type 0, BuildingBlock: GALJAG_clean_sbu_0, # of connection points: 4
#     Node 13, Type 0, BuildingBlock: GALJAG_clean_sbu_0, # of connection points: 4
#     Node 14, Type 0, BuildingBlock: GALJAG_clean_sbu_0, # of connection points: 4
#     Node 15, Type 0, BuildingBlock: GALJAG_clean_sbu_0, # of connection points: 4
#     Edge 16, Type (0, 0), BuildingBlock: EYOCIG_clean_linker_4, # of connection points: 2
#     Edge 17, Type (0, 0), BuildingBlock: EYOCIG_clean_linker_4, # of connection points: 2
#     Edge 18, Type (0, 0), BuildingBlock: EYOCIG_clean_linker_4, # of connection points: 2
#     Edge 19, Type (0, 0), BuildingBlock: EYOCIG_clean_linker_4, # of connection points: 2
#     Edge 20, Type (0, 0), BuildingBlock: EYOCIG_clean_linker_4, # of connection points: 2
#     Edge 21, Type (0, 0), BuildingBlock: EYOCIG_clean_linker_4, # of connection points: 2
#     Edge 22, Type (0, 0), BuildingBlock: EYOCIG_clean_linker_4, # of connection points: 2
#     Edge 23, Type (0, 0), BuildingBlock: EYOCIG_clean_linker_4, # of connection points: 2
#     Edge 24, Type (0, 0), BuildingBlock: EYOCIG_clean_linker_4, # of connection points: 2
#     Edge 25, Type (0, 0), BuildingBlock: EYOCIG_clean_linker_4, # of connection points: 2
#     Edge 26, Type (0, 0), BuildingBlock: EYOCIG_clean_linker_4, # of connection points: 2
#     Edge 27, Type (0, 0), BuildingBlock: EYOCIG_clean_linker_4, # of connection points: 2
#     Edge 28, Type (0, 0), BuildingBlock: EYOCIG_clean_linker_4, # of connection points: 2
#     Edge 29, Type (0, 0), BuildingBlock: EYOCIG_clean_linker_4, # of connection points: 2
#     Edge 30, Type (0, 0), BuildingBlock: EYOCIG_clean_linker_4, # of connection points: 2
#     Edge 31, Type (0, 0), BuildingBlock: EYOCIG_clean_linker_4, # of connection points: 2
#     Edge 32, Type (0, 0), BuildingBlock: EYOCIG_clean_linker_4, # of connection points: 2
#     Edge 33, Type (0, 0), BuildingBlock: EYOCIG_clean_linker_4, # of connection points: 2
#     Edge 34, Type (0, 0), BuildingBlock: EYOCIG_clean_linker_4, # of connection points: 2
#     Edge 35, Type (0, 0), BuildingBlock: EYOCIG_clean_linker_4, # of connection points: 2
#     Edge 36, Type (0, 0), BuildingBlock: EYOCIG_clean_linker_4, # of connection points: 2
#     Edge 37, Type (0, 0), BuildingBlock: EYOCIG_clean_linker_4, # of connection points: 2
#     Edge 38, Type (0, 0), BuildingBlock: EYOCIG_clean_linker_4, # of connection points: 2
#     Edge 39, Type (0, 0), BuildingBlock: EYOCIG_clean_linker_4, # of connection points: 2
#     Edge 40, Type (0, 0), BuildingBlock: EYOCIG_clean_linker_4, # of connection points: 2
#     Edge 41, Type (0, 0), BuildingBlock: EYOCIG_clean_linker_4, # of connection points: 2
#     Edge 42, Type (0, 0), BuildingBlock: EYOCIG_clean_linker_4, # of connection points: 2
#     Edge 43, Type (0, 0), BuildingBlock: EYOCIG_clean_linker_4, # of connection points: 2
#     Edge 44, Type (0, 0), BuildingBlock: EYOCIG_clean_linker_4, # of connection points: 2
#     Edge 45, Type (0, 0), BuildingBlock: EYOCIG_clean_linker_4, # of connection points: 2
#     Edge 46, Type (0, 0), BuildingBlock: EYOCIG_clean_linker_4, # of connection points: 2
#     Edge 47, Type (0, 0), BuildingBlock: EYOCIG_clean_linker_4, # of connection points: 2
# Relax obj value: 0.114
# Max RMSD: 0.279
# Mean RMSD: 0.279
data_MOF--net-umh--node1-GALJAG_clean_sbu_0--edge1-EYOCIG_clean_linker_4
_symmetry_space_group_name_H-M    P1
_symmetry_Int_Tables_number       1
_symmetry_cell_setting            triclinic
loop_
_symmetry_equiv_pos_as_xyz
'x, y, z'
_cell_length_a     32.9363
_cell_length_b     32.956152
_cell_length_c     42.10786
_cell_angle_alpha  89.953548
_cell_angle_beta   90.002906
_cell_angle_gamma 90.006817
loop_
_atom_site_label
_atom_site_type_symbol
_atom_site_fract_x
_atom_site_fract_y
_atom_site_fract_z
_atom_type_partial_charge
In0 In 0.33112 0.07969 0.14678 0.0
O1 O 0.31681 0.06105 0.09543 0.0
O2 O 0.36054 0.1081 0.10369 0.0
C3 C 0.28701 0.04414 0.19251 0.0
C4 C 0.40145 0.0417 0.15846 0.0
C5 C 0.29188 0.1501 0.15346 0.0
O6 O 0.28211 0.03475 0.1635 0.0
O7 O 0.31429 0.07007 0.19808 0.0
O8 O 0.32811 0.14583 0.16324 0.0
O9 O 0.27625 0.11954 0.14016 0.0
C10 C 0.34152 0.08666 0.08381 0.0
O11 O 0.39646 0.07877 0.16559 0.0
O12 O 0.37132 0.02427 0.14589 0.0
In13 In 0.38434 0.33048 0.64655 0.0
O14 O 0.38488 0.39572 0.66548 0.0
O15 O 0.43963 0.37092 0.64588 0.0
C16 C 0.31386 0.29113 0.65296 0.0
C17 C 0.37776 0.34107 0.58357 0.0
C18 C 0.41986 0.28624 0.69224 0.0
O19 O 0.31807 0.32729 0.66284 0.0
O20 O 0.34453 0.27562 0.6397 0.0
O21 O 0.42938 0.28153 0.66323 0.0
O22 O 0.39381 0.3134 0.69783 0.0
C23 C 0.42198 0.40091 0.65843 0.0
O24 O 0.40338 0.31641 0.59525 0.0
O25 O 0.35612 0.35994 0.60341 0.0
In26 In 0.13335 0.3839 0.14663 0.0
O27 O 0.06803 0.38484 0.16548 0.0
O28 O 0.09309 0.4393 0.14556 0.0
C29 C 0.17259 0.31349 0.15344 0.0
C30 C 0.12285 0.37669 0.0837 0.0
C31 C 0.17758 0.41957 0.1922 0.0
O32 O 0.13639 0.3178 0.16329 0.0
O33 O 0.18818 0.34401 0.14003 0.0
O34 O 0.18241 0.42889 0.16316 0.0
O35 O 0.1503 0.39366 0.19788 0.0
C36 C 0.06299 0.42187 0.1582 0.0
O37 O 0.14756 0.40236 0.09521 0.0
O38 O 0.10387 0.35531 0.10368 0.0
In39 In 0.0796 0.13282 0.64668 0.0
O40 O 0.06087 0.14711 0.59534 0.0
O41 O 0.10791 0.10336 0.60363 0.0
C42 C 0.04408 0.17682 0.69243 0.0
C43 C 0.04161 0.0625 0.65834 0.0
C44 C 0.1501 0.17207 0.65314 0.0
O45 O 0.03462 0.18172 0.66343 0.0
O46 O 0.07011 0.14962 0.69799 0.0
O47 O 0.14587 0.13588 0.663 0.0
O48 O 0.11945 0.18767 0.6399 0.0
C49 C 0.08645 0.12238 0.58374 0.0
O50 O 0.07869 0.06751 0.66553 0.0
O51 O 0.02416 0.09261 0.64576 0.0
In52 In 0.33094 0.38398 0.36643 0.0
O53 O 0.3963 0.38424 0.34762 0.0
O54 O 0.3716 0.43908 0.36709 0.0
C55 C 0.29126 0.31372 0.36012 0.0
C56 C 0.34136 0.37748 0.42943 0.0
C57 C 0.28704 0.41957 0.32058 0.0
O58 O 0.32749 0.31774 0.35028 0.0
O59 O 0.27583 0.34447 0.3733 0.0
O60 O 0.28223 0.42917 0.34956 0.0
O61 O 0.31412 0.39341 0.3151 0.0
C62 C 0.4016 0.42131 0.35462 0.0
O63 O 0.31681 0.40316 0.41769 0.0
O64 O 0.36019 0.35574 0.40964 0.0
In65 In 0.07924 0.32992 0.8667 0.0
O66 O 0.06048 0.31532 0.918 0.0
O67 O 0.10757 0.35908 0.90988 0.0
C68 C 0.04373 0.28591 0.82093 0.0
C69 C 0.04132 0.40034 0.85522 0.0
C70 C 0.14983 0.2909 0.85999 0.0
O71 O 0.03433 0.28093 0.84993 0.0
O72 O 0.06965 0.31323 0.81538 0.0
O73 O 0.14546 0.32712 0.85024 0.0
O74 O 0.11927 0.27516 0.87325 0.0
C75 C 0.08608 0.33996 0.9297 0.0
O76 O 0.0784 0.39533 0.84805 0.0
O77 O 0.02382 0.37018 0.86769 0.0
In78 In 0.13337 0.07928 0.36671 0.0
O79 O 0.14787 0.06046 0.41801 0.0
O80 O 0.10392 0.10736 0.40986 0.0
C81 C 0.1776 0.04399 0.32096 0.0
C82 C 0.06308 0.04119 0.35508 0.0
C83 C 0.17226 0.14997 0.36018 0.0
O84 O 0.18252 0.03454 0.34997 0.0
O85 O 0.15026 0.06988 0.3154 0.0
O86 O 0.13606 0.14554 0.35036 0.0
O87 O 0.18804 0.11941 0.3734 0.0
C88 C 0.12307 0.08592 0.42969 0.0
O89 O 0.06801 0.07828 0.34794 0.0
O90 O 0.09325 0.02377 0.36761 0.0
In91 In 0.38414 0.13279 0.86651 0.0
O92 O 0.38453 0.06739 0.8479 0.0
O93 O 0.43935 0.09224 0.86733 0.0
C94 C 0.31367 0.17207 0.85992 0.0
C95 C 0.37765 0.1228 0.92957 0.0
C96 C 0.41973 0.17671 0.82066 0.0
O97 O 0.31786 0.13584 0.85021 0.0
O98 O 0.34434 0.1877 0.87309 0.0
O99 O 0.42924 0.18159 0.84964 0.0
O100 O 0.39366 0.14954 0.81516 0.0
C101 C 0.42163 0.06218 0.85494 0.0
O102 O 0.40329 0.14732 0.91772 0.0
O103 O 0.35595 0.10378 0.90986 0.0
In104 In 0.63298 0.88425 0.86668 0.0
O105 O 0.56758 0.88459 0.84796 0.0
O106 O 0.59236 0.93937 0.86748 0.0
C107 C 0.67267 0.81402 0.86023 0.0
C108 C 0.62271 0.87754 0.92967 0.0
C109 C 0.67675 0.91991 0.82079 0.0
O110 O 0.63641 0.81803 0.85044 0.0
O111 O 0.68813 0.84476 0.8734 0.0
O112 O 0.68164 0.92947 0.84976 0.0
O113 O 0.64965 0.89374 0.81533 0.0
C114 C 0.56232 0.92165 0.85502 0.0
O115 O 0.64724 0.90326 0.91795 0.0
O116 O 0.60382 0.85587 0.90987 0.0
In117 In 0.57923 0.63267 0.36638 0.0
O118 O 0.56008 0.64686 0.41765 0.0
O119 O 0.6076 0.60357 0.40962 0.0
C120 C 0.54343 0.67638 0.32053 0.0
C121 C 0.54206 0.56195 0.35467 0.0
C122 C 0.64946 0.67245 0.35992 0.0
O123 O 0.53385 0.68118 0.34951 0.0
O124 O 0.5697 0.64941 0.31504 0.0
O125 O 0.6455 0.63621 0.35015 0.0
O126 O 0.61866 0.68785 0.37308 0.0
C127 C 0.58584 0.6224 0.4294 0.0
O128 O 0.57913 0.56735 0.34762 0.0
O129 O 0.52422 0.59187 0.36715 0.0
In130 In 0.83054 0.5796 0.86669 0.0
O131 O 0.81577 0.56076 0.91794 0.0
O132 O 0.85979 0.60764 0.90995 0.0
C133 C 0.78658 0.54433 0.82077 0.0
C134 C 0.90087 0.54148 0.85527 0.0
C135 C 0.79166 0.65028 0.86012 0.0
O136 O 0.78152 0.53484 0.84975 0.0
O137 O 0.81392 0.57025 0.81532 0.0
O138 O 0.82791 0.64589 0.85042 0.0
O139 O 0.77581 0.61968 0.87324 0.0
C140 C 0.84052 0.5862 0.92972 0.0
O141 O 0.896 0.57858 0.84812 0.0
O142 O 0.87062 0.52408 0.86772 0.0
In143 In 0.88397 0.83023 0.3667 0.0
O144 O 0.90258 0.81579 0.41806 0.0
O145 O 0.85571 0.85972 0.40977 0.0
C146 C 0.9194 0.78597 0.32105 0.0
C147 C 0.92219 0.90045 0.35507 0.0
C148 C 0.81324 0.79144 0.36005 0.0
O149 O 0.92874 0.78105 0.35007 0.0
O150 O 0.89356 0.81333 0.31543 0.0
O151 O 0.81775 0.8276 0.35021 0.0
O152 O 0.84373 0.77564 0.37336 0.0
C153 C 0.87708 0.8406 0.42967 0.0
O154 O 0.8851 0.89555 0.34787 0.0
O155 O 0.93955 0.87028 0.36766 0.0
In156 In 0.63295 0.57947 0.64653 0.0
O157 O 0.64713 0.56059 0.59521 0.0
O158 O 0.60348 0.60772 0.6034 0.0
C159 C 0.67726 0.54404 0.69222 0.0
C160 C 0.56255 0.54166 0.6584 0.0
C161 C 0.67211 0.64998 0.65304 0.0
O162 O 0.68205 0.53458 0.66321 0.0
O163 O 0.64998 0.56997 0.69781 0.0
O164 O 0.63592 0.64565 0.6629 0.0
O165 O 0.68775 0.61942 0.63975 0.0
C166 C 0.62242 0.58617 0.58355 0.0
O167 O 0.56765 0.57874 0.66545 0.0
O168 O 0.59262 0.52411 0.64584 0.0
In169 In 0.88389 0.63274 0.14682 0.0
O170 O 0.88493 0.56737 0.16552 0.0
O171 O 0.9394 0.59264 0.14575 0.0
C172 C 0.81337 0.67185 0.15352 0.0
C173 C 0.87684 0.62248 0.08386 0.0
C174 C 0.91938 0.67671 0.19261 0.0
O175 O 0.81769 0.63564 0.16329 0.0
O176 O 0.84395 0.68754 0.14023 0.0
O177 O 0.92878 0.68172 0.1636 0.0
O178 O 0.89346 0.64939 0.19814 0.0
C179 C 0.92201 0.56245 0.15829 0.0
O180 O 0.90245 0.64719 0.09546 0.0
O181 O 0.85544 0.6034 0.10376 0.0
In182 In 0.83005 0.88435 0.64662 0.0
O183 O 0.81574 0.90308 0.59527 0.0
O184 O 0.85945 0.85601 0.60356 0.0
C185 C 0.78585 0.91994 0.69225 0.0
C186 C 0.9005 0.92213 0.6583 0.0
C187 C 0.79089 0.81384 0.65324 0.0
O188 O 0.78105 0.92935 0.66323 0.0
O189 O 0.81307 0.89395 0.69789 0.0
O190 O 0.82709 0.81817 0.66309 0.0
O191 O 0.77524 0.84441 0.63994 0.0
C192 C 0.84044 0.87747 0.58366 0.0
O193 O 0.89537 0.88509 0.6655 0.0
O194 O 0.87045 0.93967 0.64569 0.0
In195 In 0.57917 0.83002 0.14668 0.0
O196 O 0.56043 0.816 0.09529 0.0
O197 O 0.60766 0.8595 0.10365 0.0
C198 C 0.54331 0.78569 0.19214 0.0
C199 C 0.54157 0.90049 0.15848 0.0
C200 C 0.64964 0.79077 0.1534 0.0
O201 O 0.53401 0.78102 0.16309 0.0
O202 O 0.56931 0.81285 0.19788 0.0
O203 O 0.64531 0.82691 0.16329 0.0
O204 O 0.6191 0.77523 0.13998 0.0
C205 C 0.58613 0.84066 0.08372 0.0
O206 O 0.57862 0.89523 0.16566 0.0
O207 O 0.52395 0.87055 0.14584 0.0
C208 C 0.36553 0.10892 0.99077 0.0
C209 C 0.3726 0.11666 0.96324 0.0
C210 C 0.35571 0.09911 0.02268 0.0
C211 C 0.34787 0.09195 0.05018 0.0
C212 C 0.35562 0.36532 0.49057 0.0
C213 C 0.34772 0.37241 0.46307 0.0
C214 C 0.36551 0.35543 0.52245 0.0
C215 C 0.37262 0.3475 0.54994 0.0
C216 C 0.09854 0.354 0.99082 0.0
C217 C 0.09131 0.34617 0.96333 0.0
C218 C 0.10851 0.36396 0.02265 0.0
C219 C 0.11643 0.37126 0.05011 0.0
C220 C 0.09894 0.10812 0.52265 0.0
C221 C 0.09172 0.11602 0.55012 0.0
C222 C 0.10888 0.09822 0.49081 0.0
C223 C 0.11677 0.09107 0.46332 0.0
C224 C 0.59862 0.85516 0.02264 0.0
C225 C 0.5914 0.84717 0.05011 0.0
C226 C 0.60854 0.86515 0.9908 0.0
C227 C 0.61641 0.87236 0.96331 0.0
C228 C 0.60806 0.59846 0.52243 0.0
C229 C 0.616 0.59134 0.54992 0.0
C230 C 0.59813 0.6083 0.49055 0.0
C231 C 0.59097 0.61612 0.46304 0.0
C232 C 0.85441 0.59848 0.99089 0.0
C233 C 0.84665 0.59134 0.96337 0.0
C234 C 0.86428 0.60834 0.02275 0.0
C235 C 0.87151 0.61617 0.05024 0.0
C236 C 0.8646 0.85489 0.49075 0.0
C237 C 0.87181 0.84696 0.46328 0.0
C238 C 0.85466 0.8649 0.52257 0.0
C239 C 0.84677 0.87216 0.55004 0.0
C240 C 0.21823 0.24806 0.15895 0.0
C241 C 0.19551 0.27673 0.15736 0.0
C242 C 0.24621 0.21551 0.15894 0.0
C243 C 0.26893 0.18685 0.15735 0.0
C244 C 0.24835 0.2455 0.65825 0.0
C245 C 0.27708 0.26815 0.65672 0.0
C246 C 0.21569 0.21762 0.6583 0.0
C247 C 0.18694 0.19498 0.65684 0.0
C248 C 0.24542 0.24836 0.35493 0.0
C249 C 0.26814 0.27704 0.35643 0.0
C250 C 0.21755 0.2157 0.35491 0.0
C251 C 0.19499 0.18689 0.35641 0.0
C252 C 0.24813 0.21765 0.85455 0.0
C253 C 0.27686 0.19499 0.85611 0.0
C254 C 0.21546 0.24551 0.85455 0.0
C255 C 0.1867 0.26811 0.85613 0.0
C256 C 0.71852 0.74868 0.85493 0.0
C257 C 0.69579 0.77735 0.85648 0.0
C258 C 0.74639 0.71602 0.85488 0.0
C259 C 0.76895 0.68721 0.85637 0.0
C260 C 0.71481 0.71834 0.35466 0.0
C261 C 0.68614 0.6956 0.3562 0.0
C262 C 0.74748 0.7462 0.35466 0.0
C263 C 0.7763 0.76874 0.3562 0.0
C264 C 0.74545 0.74822 0.65851 0.0
C265 C 0.76805 0.77699 0.657 0.0
C266 C 0.71762 0.71553 0.65845 0.0
C267 C 0.69501 0.68678 0.65687 0.0
C268 C 0.7478 0.71733 0.15893 0.0
C269 C 0.77654 0.6947 0.15736 0.0
C270 C 0.71515 0.7452 0.1589 0.0
C271 C 0.68642 0.76785 0.15729 0.0
C272 C 0.22183 0.02284 0.27144 0.0
C273 C 0.20364 0.03003 0.29574 0.0
C274 C 0.2428 0.02285 0.24203 0.0
C275 C 0.26097 0.03009 0.21772 0.0
C276 C 0.4411 0.24188 0.74169 0.0
C277 C 0.4339 0.26013 0.71741 0.0
C278 C 0.44105 0.22084 0.77109 0.0
C279 C 0.43379 0.20268 0.7954 0.0
C280 C 0.22193 0.4409 0.24161 0.0
C281 C 0.2037 0.43365 0.21734 0.0
C282 C 0.24294 0.4409 0.27101 0.0
C283 C 0.26109 0.43367 0.29533 0.0
C284 C 0.02267 0.22086 0.74196 0.0
C285 C 0.02997 0.20276 0.71765 0.0
C286 C 0.02258 0.24177 0.77138 0.0
C287 C 0.02975 0.25991 0.7957 0.0
C288 C 0.7207 0.94129 0.77115 0.0
C289 C 0.70263 0.93403 0.7955 0.0
C290 C 0.74162 0.94129 0.74171 0.0
C291 C 0.7598 0.93404 0.71742 0.0
C292 C 0.52188 0.72031 0.27092 0.0
C293 C 0.5292 0.70224 0.29526 0.0
C294 C 0.52184 0.74128 0.2415 0.0
C295 C 0.52912 0.75953 0.21723 0.0
C296 C 0.74258 0.52308 0.77113 0.0
C297 C 0.76068 0.53034 0.79546 0.0
C298 C 0.72162 0.52296 0.7417 0.0
C299 C 0.70339 0.53008 0.7174 0.0
C300 C 0.94061 0.74171 0.27159 0.0
C301 C 0.9334 0.7599 0.29587 0.0
C302 C 0.94061 0.72078 0.24217 0.0
C303 C 0.93339 0.70267 0.21785 0.0
C304 C 0.46764 -0.00247 0.16574 0.0
C305 C 0.43895 0.0202 0.16345 0.0
C306 C 0.4979 0.96699 0.16575 0.0
C307 C 0.52033 0.93813 0.16347 0.0
C308 C 0.49619 0.49773 0.66575 0.0
C309 C 0.52497 0.52029 0.66342 0.0
C310 C 0.4658 0.46731 0.66576 0.0
C311 C 0.44328 0.43852 0.66346 0.0
C312 C -0.00335 0.46588 0.16535 0.0
C313 C 0.02544 0.44333 0.16312 0.0
C314 C 0.9662 0.49624 0.16537 0.0
C315 C 0.94356 0.52495 0.16316 0.0
C316 C 0.96695 0.96597 0.66552 0.0
C317 C 0.93811 0.94349 0.66326 0.0
C318 C -0.00255 -0.00372 0.66554 0.0
C319 C 0.02011 0.02499 0.6633 0.0
C320 C 0.49855 0.49535 0.34737 0.0
C321 C 0.52097 0.52423 0.34965 0.0
C322 C 0.46817 0.46493 0.34735 0.0
C323 C 0.43932 0.44246 0.34963 0.0
C324 C -0.00261 0.46675 0.84819 0.0
C325 C 0.0199 0.43793 0.85039 0.0
C326 C 0.96707 0.49724 0.8482 0.0
C327 C 0.93837 0.51991 0.85041 0.0
C328 C 0.9664 0.96665 0.34792 0.0
C329 C 0.94377 0.93793 0.35016 0.0
C330 C -0.00318 -0.00295 0.34792 0.0
C331 C 0.02556 0.01966 0.35017 0.0
C332 C 0.49577 0.96531 0.84781 0.0
C333 C 0.52462 0.94284 0.85006 0.0
C334 C 0.46535 -0.0043 0.84779 0.0
C335 C 0.44286 0.02452 0.85002 0.0
loop_
_geom_bond_atom_site_label_1
_geom_bond_atom_site_label_2
_geom_bond_distance
_geom_bond_site_symmetry_2
_ccdc_geom_bond_type
In0 O1 2.294 . S
In0 O2 2.326 . S
In0 O6 2.266 . S
In0 O7 2.326 . S
In0 O8 2.266 . S
In0 O9 2.326 . S
In0 O11 2.294 . S
In0 O12 2.326 . S
O1 In0 2.294 . S
O1 C10 1.240 . S
O2 In0 2.326 . S
O2 C10 1.252 . S
C3 O6 1.252 . S
C3 O7 1.260 . S
C4 O11 1.240 . S
C4 O12 1.252 . S
C5 O8 1.252 . S
C5 O9 1.260 . S
O6 In0 2.266 . S
O6 C3 1.252 . S
O7 In0 2.326 . S
O7 C3 1.260 . S
O8 In0 2.266 . S
O8 C5 1.252 . S
O9 In0 2.326 . S
O9 C5 1.260 . S
C10 O1 1.240 . S
C10 O2 1.252 . S
O11 In0 2.294 . S
O11 C4 1.240 . S
O12 In0 2.326 . S
O12 C4 1.252 . S
In13 O14 2.294 . S
In13 O15 2.326 . S
In13 O19 2.266 . S
In13 O20 2.326 . S
In13 O21 2.266 . S
In13 O22 2.326 . S
In13 O24 2.294 . S
In13 O25 2.326 . S
O14 In13 2.294 . S
O14 C23 1.240 . S
O15 In13 2.326 . S
O15 C23 1.252 . S
C16 O19 1.252 . S
C16 O20 1.260 . S
C17 O24 1.240 . S
C17 O25 1.252 . S
C18 O21 1.252 . S
C18 O22 1.260 . S
O19 In13 2.266 . S
O19 C16 1.252 . S
O20 In13 2.326 . S
O20 C16 1.260 . S
O21 In13 2.266 . S
O21 C18 1.252 . S
O22 In13 2.326 . S
O22 C18 1.260 . S
C23 O14 1.240 . S
C23 O15 1.252 . S
O24 In13 2.294 . S
O24 C17 1.240 . S
O25 In13 2.326 . S
O25 C17 1.252 . S
In26 O27 2.294 . S
In26 O28 2.326 . S
In26 O32 2.266 . S
In26 O33 2.326 . S
In26 O34 2.266 . S
In26 O35 2.326 . S
In26 O37 2.294 . S
In26 O38 2.326 . S
O27 In26 2.294 . S
O27 C36 1.240 . S
O28 In26 2.326 . S
O28 C36 1.252 . S
C29 O32 1.252 . S
C29 O33 1.260 . S
C30 O37 1.240 . S
C30 O38 1.252 . S
C31 O34 1.252 . S
C31 O35 1.260 . S
O32 In26 2.266 . S
O32 C29 1.252 . S
O33 In26 2.326 . S
O33 C29 1.260 . S
O34 In26 2.266 . S
O34 C31 1.252 . S
O35 In26 2.326 . S
O35 C31 1.260 . S
C36 O27 1.240 . S
C36 O28 1.252 . S
O37 In26 2.294 . S
O37 C30 1.240 . S
O38 In26 2.326 . S
O38 C30 1.252 . S
In39 O40 2.294 . S
In39 O41 2.326 . S
In39 O45 2.266 . S
In39 O46 2.326 . S
In39 O47 2.266 . S
In39 O48 2.326 . S
In39 O50 2.294 . S
In39 O51 2.326 . S
O40 In39 2.294 . S
O40 C49 1.240 . S
O41 In39 2.326 . S
O41 C49 1.252 . S
C42 O45 1.252 . S
C42 O46 1.260 . S
C43 O50 1.240 . S
C43 O51 1.252 . S
C44 O47 1.252 . S
C44 O48 1.260 . S
O45 In39 2.266 . S
O45 C42 1.252 . S
O46 In39 2.326 . S
O46 C42 1.260 . S
O47 In39 2.266 . S
O47 C44 1.252 . S
O48 In39 2.326 . S
O48 C44 1.260 . S
C49 O40 1.240 . S
C49 O41 1.252 . S
O50 In39 2.294 . S
O50 C43 1.240 . S
O51 In39 2.326 . S
O51 C43 1.252 . S
In52 O53 2.294 . S
In52 O54 2.326 . S
In52 O58 2.266 . S
In52 O59 2.326 . S
In52 O60 2.266 . S
In52 O61 2.326 . S
In52 O63 2.294 . S
In52 O64 2.326 . S
O53 In52 2.294 . S
O53 C62 1.240 . S
O54 In52 2.326 . S
O54 C62 1.252 . S
C55 O58 1.252 . S
C55 O59 1.260 . S
C56 O63 1.240 . S
C56 O64 1.252 . S
C57 O60 1.252 . S
C57 O61 1.260 . S
O58 In52 2.266 . S
O58 C55 1.252 . S
O59 In52 2.326 . S
O59 C55 1.260 . S
O60 In52 2.266 . S
O60 C57 1.252 . S
O61 In52 2.326 . S
O61 C57 1.260 . S
C62 O53 1.240 . S
C62 O54 1.252 . S
O63 In52 2.294 . S
O63 C56 1.240 . S
O64 In52 2.326 . S
O64 C56 1.252 . S
In65 O66 2.294 . S
In65 O67 2.326 . S
In65 O71 2.266 . S
In65 O72 2.326 . S
In65 O73 2.266 . S
In65 O74 2.326 . S
In65 O76 2.294 . S
In65 O77 2.326 . S
O66 In65 2.294 . S
O66 C75 1.240 . S
O67 In65 2.326 . S
O67 C75 1.252 . S
C68 O71 1.252 . S
C68 O72 1.260 . S
C69 O76 1.240 . S
C69 O77 1.252 . S
C70 O73 1.252 . S
C70 O74 1.260 . S
O71 In65 2.266 . S
O71 C68 1.252 . S
O72 In65 2.326 . S
O72 C68 1.260 . S
O73 In65 2.266 . S
O73 C70 1.252 . S
O74 In65 2.326 . S
O74 C70 1.260 . S
C75 O66 1.240 . S
C75 O67 1.252 . S
O76 In65 2.294 . S
O76 C69 1.240 . S
O77 In65 2.326 . S
O77 C69 1.252 . S
In78 O79 2.294 . S
In78 O80 2.326 . S
In78 O84 2.266 . S
In78 O85 2.326 . S
In78 O86 2.266 . S
In78 O87 2.326 . S
In78 O89 2.294 . S
In78 O90 2.326 . S
O79 In78 2.294 . S
O79 C88 1.240 . S
O80 In78 2.326 . S
O80 C88 1.252 . S
C81 O84 1.252 . S
C81 O85 1.260 . S
C82 O89 1.240 . S
C82 O90 1.252 . S
C83 O86 1.252 . S
C83 O87 1.260 . S
O84 In78 2.266 . S
O84 C81 1.252 . S
O85 In78 2.326 . S
O85 C81 1.260 . S
O86 In78 2.266 . S
O86 C83 1.252 . S
O87 In78 2.326 . S
O87 C83 1.260 . S
C88 O79 1.240 . S
C88 O80 1.252 . S
O89 In78 2.294 . S
O89 C82 1.240 . S
O90 In78 2.326 . S
O90 C82 1.252 . S
In91 O92 2.294 . S
In91 O93 2.326 . S
In91 O97 2.266 . S
In91 O98 2.326 . S
In91 O99 2.266 . S
In91 O100 2.326 . S
In91 O102 2.294 . S
In91 O103 2.326 . S
O92 In91 2.294 . S
O92 C101 1.240 . S
O93 In91 2.326 . S
O93 C101 1.252 . S
C94 O97 1.252 . S
C94 O98 1.260 . S
C95 O102 1.240 . S
C95 O103 1.252 . S
C96 O99 1.252 . S
C96 O100 1.260 . S
O97 In91 2.266 . S
O97 C94 1.252 . S
O98 In91 2.326 . S
O98 C94 1.260 . S
O99 In91 2.266 . S
O99 C96 1.252 . S
O100 In91 2.326 . S
O100 C96 1.260 . S
C101 O92 1.240 . S
C101 O93 1.252 . S
O102 In91 2.294 . S
O102 C95 1.240 . S
O103 In91 2.326 . S
O103 C95 1.252 . S
In104 O105 2.294 . S
In104 O106 2.326 . S
In104 O110 2.266 . S
In104 O111 2.326 . S
In104 O112 2.266 . S
In104 O113 2.326 . S
In104 O115 2.294 . S
In104 O116 2.326 . S
O105 In104 2.294 . S
O105 C114 1.240 . S
O106 In104 2.326 . S
O106 C114 1.252 . S
C107 O110 1.252 . S
C107 O111 1.260 . S
C108 O115 1.240 . S
C108 O116 1.252 . S
C109 O112 1.252 . S
C109 O113 1.260 . S
O110 In104 2.266 . S
O110 C107 1.252 . S
O111 In104 2.326 . S
O111 C107 1.260 . S
O112 In104 2.266 . S
O112 C109 1.252 . S
O113 In104 2.326 . S
O113 C109 1.260 . S
C114 O105 1.240 . S
C114 O106 1.252 . S
O115 In104 2.294 . S
O115 C108 1.240 . S
O116 In104 2.326 . S
O116 C108 1.252 . S
In117 O118 2.294 . S
In117 O119 2.326 . S
In117 O123 2.266 . S
In117 O124 2.326 . S
In117 O125 2.266 . S
In117 O126 2.326 . S
In117 O128 2.294 . S
In117 O129 2.326 . S
O118 In117 2.294 . S
O118 C127 1.240 . S
O119 In117 2.326 . S
O119 C127 1.252 . S
C120 O123 1.252 . S
C120 O124 1.260 . S
C121 O128 1.240 . S
C121 O129 1.252 . S
C122 O125 1.252 . S
C122 O126 1.260 . S
O123 In117 2.266 . S
O123 C120 1.252 . S
O124 In117 2.326 . S
O124 C120 1.260 . S
O125 In117 2.266 . S
O125 C122 1.252 . S
O126 In117 2.326 . S
O126 C122 1.260 . S
C127 O118 1.240 . S
C127 O119 1.252 . S
O128 In117 2.294 . S
O128 C121 1.240 . S
O129 In117 2.326 . S
O129 C121 1.252 . S
In130 O131 2.294 . S
In130 O132 2.326 . S
In130 O136 2.266 . S
In130 O137 2.326 . S
In130 O138 2.266 . S
In130 O139 2.326 . S
In130 O141 2.294 . S
In130 O142 2.326 . S
O131 In130 2.294 . S
O131 C140 1.240 . S
O132 In130 2.326 . S
O132 C140 1.252 . S
C133 O136 1.252 . S
C133 O137 1.260 . S
C134 O141 1.240 . S
C134 O142 1.252 . S
C135 O138 1.252 . S
C135 O139 1.260 . S
O136 In130 2.266 . S
O136 C133 1.252 . S
O137 In130 2.326 . S
O137 C133 1.260 . S
O138 In130 2.266 . S
O138 C135 1.252 . S
O139 In130 2.326 . S
O139 C135 1.260 . S
C140 O131 1.240 . S
C140 O132 1.252 . S
O141 In130 2.294 . S
O141 C134 1.240 . S
O142 In130 2.326 . S
O142 C134 1.252 . S
In143 O144 2.294 . S
In143 O145 2.326 . S
In143 O149 2.266 . S
In143 O150 2.326 . S
In143 O151 2.266 . S
In143 O152 2.326 . S
In143 O154 2.294 . S
In143 O155 2.326 . S
O144 In143 2.294 . S
O144 C153 1.240 . S
O145 In143 2.326 . S
O145 C153 1.252 . S
C146 O149 1.252 . S
C146 O150 1.260 . S
C147 O154 1.240 . S
C147 O155 1.252 . S
C148 O151 1.252 . S
C148 O152 1.260 . S
O149 In143 2.266 . S
O149 C146 1.252 . S
O150 In143 2.326 . S
O150 C146 1.260 . S
O151 In143 2.266 . S
O151 C148 1.252 . S
O152 In143 2.326 . S
O152 C148 1.260 . S
C153 O144 1.240 . S
C153 O145 1.252 . S
O154 In143 2.294 . S
O154 C147 1.240 . S
O155 In143 2.326 . S
O155 C147 1.252 . S
In156 O157 2.294 . S
In156 O158 2.326 . S
In156 O162 2.266 . S
In156 O163 2.326 . S
In156 O164 2.266 . S
In156 O165 2.326 . S
In156 O167 2.294 . S
In156 O168 2.326 . S
O157 In156 2.294 . S
O157 C166 1.240 . S
O158 In156 2.326 . S
O158 C166 1.252 . S
C159 O162 1.252 . S
C159 O163 1.260 . S
C160 O167 1.240 . S
C160 O168 1.252 . S
C161 O164 1.252 . S
C161 O165 1.260 . S
O162 In156 2.266 . S
O162 C159 1.252 . S
O163 In156 2.326 . S
O163 C159 1.260 . S
O164 In156 2.266 . S
O164 C161 1.252 . S
O165 In156 2.326 . S
O165 C161 1.260 . S
C166 O157 1.240 . S
C166 O158 1.252 . S
O167 In156 2.294 . S
O167 C160 1.240 . S
O168 In156 2.326 . S
O168 C160 1.252 . S
In169 O170 2.294 . S
In169 O171 2.326 . S
In169 O175 2.266 . S
In169 O176 2.326 . S
In169 O177 2.266 . S
In169 O178 2.326 . S
In169 O180 2.294 . S
In169 O181 2.326 . S
O170 In169 2.294 . S
O170 C179 1.240 . S
O171 In169 2.326 . S
O171 C179 1.252 . S
C172 O175 1.252 . S
C172 O176 1.260 . S
C173 O180 1.240 . S
C173 O181 1.252 . S
C174 O177 1.252 . S
C174 O178 1.260 . S
O175 In169 2.266 . S
O175 C172 1.252 . S
O176 In169 2.326 . S
O176 C172 1.260 . S
O177 In169 2.266 . S
O177 C174 1.252 . S
O178 In169 2.326 . S
O178 C174 1.260 . S
C179 O170 1.240 . S
C179 O171 1.252 . S
O180 In169 2.294 . S
O180 C173 1.240 . S
O181 In169 2.326 . S
O181 C173 1.252 . S
In182 O183 2.294 . S
In182 O184 2.326 . S
In182 O188 2.266 . S
In182 O189 2.326 . S
In182 O190 2.266 . S
In182 O191 2.326 . S
In182 O193 2.294 . S
In182 O194 2.326 . S
O183 In182 2.294 . S
O183 C192 1.240 . S
O184 In182 2.326 . S
O184 C192 1.252 . S
C185 O188 1.252 . S
C185 O189 1.260 . S
C186 O193 1.240 . S
C186 O194 1.252 . S
C187 O190 1.252 . S
C187 O191 1.260 . S
O188 In182 2.266 . S
O188 C185 1.252 . S
O189 In182 2.326 . S
O189 C185 1.260 . S
O190 In182 2.266 . S
O190 C187 1.252 . S
O191 In182 2.326 . S
O191 C187 1.260 . S
C192 O183 1.240 . S
C192 O184 1.252 . S
O193 In182 2.294 . S
O193 C186 1.240 . S
O194 In182 2.326 . S
O194 C186 1.252 . S
In195 O196 2.294 . S
In195 O197 2.326 . S
In195 O201 2.266 . S
In195 O202 2.326 . S
In195 O203 2.266 . S
In195 O204 2.326 . S
In195 O206 2.294 . S
In195 O207 2.326 . S
O196 In195 2.294 . S
O196 C205 1.240 . S
O197 In195 2.326 . S
O197 C205 1.252 . S
C198 O201 1.252 . S
C198 O202 1.260 . S
C199 O206 1.240 . S
C199 O207 1.252 . S
C200 O203 1.252 . S
C200 O204 1.260 . S
O201 In195 2.266 . S
O201 C198 1.252 . S
O202 In195 2.326 . S
O202 C198 1.260 . S
O203 In195 2.266 . S
O203 C200 1.252 . S
O204 In195 2.326 . S
O204 C200 1.260 . S
C205 O196 1.240 . S
C205 O197 1.252 . S
O206 In195 2.294 . S
O206 C199 1.240 . S
O207 In195 2.326 . S
O207 C199 1.252 . S
C208 C209 1.170 . S
C208 C210 1.380 1_556 S
C209 C208 1.170 . S
C210 C208 1.380 1_554 S
C210 C211 1.170 . S
C211 C210 1.170 . S
C212 C213 1.170 . S
C212 C214 1.380 . S
C213 C212 1.170 . S
C214 C212 1.380 . S
C214 C215 1.170 . S
C215 C214 1.170 . S
C216 C217 1.170 . S
C216 C218 1.380 1_556 S
C217 C216 1.170 . S
C218 C216 1.380 1_554 S
C218 C219 1.170 . S
C219 C218 1.170 . S
C220 C221 1.170 . S
C220 C222 1.380 . S
C221 C220 1.170 . S
C222 C220 1.380 . S
C222 C223 1.170 . S
C223 C222 1.170 . S
C224 C225 1.170 . S
C224 C226 1.380 1_554 S
C225 C224 1.170 . S
C226 C224 1.380 1_556 S
C226 C227 1.170 . S
C227 C226 1.170 . S
C228 C229 1.170 . S
C228 C230 1.380 . S
C229 C228 1.170 . S
C230 C228 1.380 . S
C230 C231 1.170 . S
C231 C230 1.170 . S
C232 C233 1.170 . S
C232 C234 1.380 1_556 S
C233 C232 1.170 . S
C234 C232 1.380 1_554 S
C234 C235 1.170 . S
C235 C234 1.170 . S
C236 C237 1.170 . S
C236 C238 1.380 . S
C237 C236 1.170 . S
C238 C236 1.380 . S
C238 C239 1.170 . S
C239 C238 1.170 . S
C240 C241 1.170 . S
C240 C242 1.380 . S
C241 C240 1.170 . S
C242 C240 1.380 . S
C242 C243 1.170 . S
C243 C242 1.170 . S
C244 C245 1.170 . S
C244 C246 1.380 . S
C245 C244 1.170 . S
C246 C244 1.380 . S
C246 C247 1.170 . S
C247 C246 1.170 . S
C248 C249 1.170 . S
C248 C250 1.380 . S
C249 C248 1.170 . S
C250 C248 1.380 . S
C250 C251 1.170 . S
C251 C250 1.170 . S
C252 C253 1.170 . S
C252 C254 1.380 . S
C253 C252 1.170 . S
C254 C252 1.380 . S
C254 C255 1.170 . S
C255 C254 1.170 . S
C256 C257 1.170 . S
C256 C258 1.380 . S
C257 C256 1.170 . S
C258 C256 1.380 . S
C258 C259 1.170 . S
C259 C258 1.170 . S
C260 C261 1.170 . S
C260 C262 1.380 . S
C261 C260 1.170 . S
C262 C260 1.380 . S
C262 C263 1.170 . S
C263 C262 1.170 . S
C264 C265 1.170 . S
C264 C266 1.380 . S
C265 C264 1.170 . S
C266 C264 1.380 . S
C266 C267 1.170 . S
C267 C266 1.170 . S
C268 C269 1.170 . S
C268 C270 1.380 . S
C269 C268 1.170 . S
C270 C268 1.380 . S
C270 C271 1.170 . S
C271 C270 1.170 . S
C272 C273 1.170 . S
C272 C274 1.380 . S
C273 C272 1.170 . S
C274 C272 1.380 . S
C274 C275 1.170 . S
C275 C274 1.170 . S
C276 C277 1.170 . S
C276 C278 1.380 . S
C277 C276 1.170 . S
C278 C276 1.380 . S
C278 C279 1.170 . S
C279 C278 1.170 . S
C280 C281 1.170 . S
C280 C282 1.380 . S
C281 C280 1.170 . S
C282 C280 1.380 . S
C282 C283 1.170 . S
C283 C282 1.170 . S
C284 C285 1.170 . S
C284 C286 1.380 . S
C285 C284 1.170 . S
C286 C284 1.380 . S
C286 C287 1.170 . S
C287 C286 1.170 . S
C288 C289 1.170 . S
C288 C290 1.380 . S
C289 C288 1.170 . S
C290 C288 1.380 . S
C290 C291 1.170 . S
C291 C290 1.170 . S
C292 C293 1.170 . S
C292 C294 1.380 . S
C293 C292 1.170 . S
C294 C292 1.380 . S
C294 C295 1.170 . S
C295 C294 1.170 . S
C296 C297 1.170 . S
C296 C298 1.380 . S
C297 C296 1.170 . S
C298 C296 1.380 . S
C298 C299 1.170 . S
C299 C298 1.170 . S
C300 C301 1.170 . S
C300 C302 1.380 . S
C301 C300 1.170 . S
C302 C300 1.380 . S
C302 C303 1.170 . S
C303 C302 1.170 . S
C304 C305 1.170 . S
C304 C306 1.380 1_545 S
C305 C304 1.170 . S
C306 C304 1.380 1_565 S
C306 C307 1.170 . S
C307 C306 1.170 . S
C308 C309 1.170 . S
C308 C310 1.380 . S
C309 C308 1.170 . S
C310 C308 1.380 . S
C310 C311 1.170 . S
C311 C310 1.170 . S
C312 C313 1.170 . S
C312 C314 1.380 1_455 S
C313 C312 1.170 . S
C314 C312 1.380 1_655 S
C314 C315 1.170 . S
C315 C314 1.170 . S
C316 C317 1.170 . S
C316 C318 1.380 1_665 S
C317 C316 1.170 . S
C318 C316 1.380 1_445 S
C318 C319 1.170 . S
C319 C318 1.170 . S
C320 C321 1.170 . S
C320 C322 1.380 . S
C321 C320 1.170 . S
C322 C320 1.380 . S
C322 C323 1.170 . S
C323 C322 1.170 . S
C324 C325 1.170 . S
C324 C326 1.380 1_455 S
C325 C324 1.170 . S
C326 C324 1.380 1_655 S
C326 C327 1.170 . S
C327 C326 1.170 . S
C328 C329 1.170 . S
C328 C330 1.380 1_665 S
C329 C328 1.170 . S
C330 C328 1.380 1_445 S
C330 C331 1.170 . S
C331 C330 1.170 . S
C332 C333 1.170 . S
C332 C334 1.380 1_565 S
C333 C332 1.170 . S
C334 C332 1.380 1_545 S
C334 C335 1.170 . S
C335 C334 1.170 . S
C209 C95 1.602 . S
C211 C10 1.563 . S
C213 C56 1.597 . S
C215 C17 1.588 . S
C217 C75 1.602 . S
C219 C30 1.563 . S
C221 C49 1.577 . S
C223 C88 1.604 . S
C225 C205 1.580 . S
C227 C108 1.580 . S
C229 C166 1.576 . S
C231 C127 1.598 . S
C233 C140 1.603 . S
C235 C173 1.569 . S
C237 C153 1.584 . S
C239 C192 1.590 . S
C241 C29 1.335 . S
C243 C5 1.352 . S
C245 C16 1.302 . S
C247 C44 1.338 . S
C249 C55 1.311 . S
C251 C83 1.357 . S
C253 C94 1.336 . S
C255 C70 1.351 . S
C257 C107 1.306 . S
C259 C135 1.355 . S
C261 C122 1.305 . S
C263 C148 1.355 . S
C265 C187 1.338 . S
C267 C161 1.325 . S
C269 C172 1.336 . S
C271 C200 1.321 . S
C273 C81 1.431 . S
C275 C3 1.405 . S
C277 C18 1.422 . S
C279 C96 1.410 . S
C281 C31 1.420 . S
C283 C57 1.412 . S
C285 C42 1.414 . S
C287 C68 1.440 . S
C289 C109 1.435 . S
C291 C185 1.439 . S
C293 C120 1.424 . S
C295 C198 1.439 . S
C297 C133 1.408 . S
C299 C159 1.426 . S
C301 C146 1.422 . S
C303 C174 1.406 . S
C305 C4 1.348 . S
C307 C199 1.354 . S
C309 C160 1.365 . S
C311 C23 1.362 . S
C313 C36 1.346 . S
C315 C179 1.344 . S
C317 C186 1.347 . S
C319 C43 1.344 . S
C321 C121 1.365 . S
C323 C62 1.364 . S
C325 C69 1.345 . S
C327 C134 1.344 . S
C329 C147 1.344 . S
C331 C82 1.345 . S
C333 C114 1.359 . S
C335 C101 1.364 . S
