# Generated by pormake.
# Topology snp, (6)-cn, num edge types: 1
# Building blocks:
#     Node 0, Type 0, BuildingBlock: UKALOJ_clean_sbu_0, # of connection points: 6
#     Node 1, Type 0, BuildingBlock: UKALOJ_clean_sbu_0, # of connection points: 6
#     Node 2, Type 0, BuildingBlock: UKALOJ_clean_sbu_0, # of connection points: 6
#     Node 3, Type 0, BuildingBlock: UKALOJ_clean_sbu_0, # of connection points: 6
#     Edge 4, Type (0, 0), BuildingBlock: TEMPAE_clean_linker_10, # of connection points: 2
#     Edge 5, Type (0, 0), BuildingBlock: TEMPAE_clean_linker_10, # of connection points: 2
#     Edge 6, Type (0, 0), BuildingBlock: TEMPAE_clean_linker_10, # of connection points: 2
#     Edge 7, Type (0, 0), BuildingBlock: TEMPAE_clean_linker_10, # of connection points: 2
#     Edge 8, Type (0, 0), BuildingBlock: TEMPAE_clean_linker_10, # of connection points: 2
#     Edge 9, Type (0, 0), BuildingBlock: TEMPAE_clean_linker_10, # of connection points: 2
#     Edge 10, Type (0, 0), BuildingBlock: TEMPAE_clean_linker_10, # of connection points: 2
#     Edge 11, Type (0, 0), BuildingBlock: TEMPAE_clean_linker_10, # of connection points: 2
#     Edge 12, Type (0, 0), BuildingBlock: TEMPAE_clean_linker_10, # of connection points: 2
#     Edge 13, Type (0, 0), BuildingBlock: TEMPAE_clean_linker_10, # of connection points: 2
#     Edge 14, Type (0, 0), BuildingBlock: TEMPAE_clean_linker_10, # of connection points: 2
#     Edge 15, Type (0, 0), BuildingBlock: TEMPAE_clean_linker_10, # of connection points: 2
# Relax obj value: 0.883
# Max RMSD: 0.249
# Mean RMSD: 0.247
data_MOF--net-snp--node1-UKALOJ_clean_sbu_0--edge1-TEMPAE_clean_linker_10
_symmetry_space_group_name_H-M    P1
_symmetry_Int_Tables_number       1
_symmetry_cell_setting            triclinic
loop_
_symmetry_equiv_pos_as_xyz
'x, y, z'
_cell_length_a     34.024583
_cell_length_b     33.393898
_cell_length_c     21.76317
_cell_angle_alpha  96.183528
_cell_angle_beta   96.398713
_cell_angle_gamma 90.049642
loop_
_atom_site_label
_atom_site_type_symbol
_atom_site_fract_x
_atom_site_fract_y
_atom_site_fract_z
_atom_type_partial_charge
Zn0 Zn 0.27628 0.02928 0.10568 0.0
O1 O 0.25133 0.99106 1.02304 0.0
C2 C 0.27036 0.09666 0.02611 0.0
Zn3 Zn 0.21823 0.05908 0.10652 0.0
C4 C 0.2146 0.99267 1.00253 0.0
O5 O 0.19275 0.01864 0.02945 0.0
C6 C 0.27498 0.09491 0.21046 0.0
O7 O 0.19874 0.02123 0.16841 0.0
O8 O 0.25351 0.98675 0.16302 0.0
N9 N 0.17177 0.09714 0.11141 0.0
C10 C 0.14784 0.10823 0.15569 0.0
C11 C 0.14812 0.15562 0.09802 0.0
N12 N 0.17229 0.12722 0.07677 0.0
N13 N 0.13177 0.14489 0.14767 0.0
C14 C 0.36093 1.00047 0.07544 0.0
C15 C 0.38176 0.97489 0.1583 0.0
N16 N 0.33052 1.00087 0.11053 0.0
N17 N 0.34361 0.9847 0.16177 0.0
N18 N 0.39373 0.98482 0.10485 0.0
H19 H 0.32679 1.00792 0.9882 0.0
H20 H 0.37822 0.99572 0.98263 0.0
H21 H 0.36486 0.04548 1.01334 0.0
C22 C 0.35749 0.01296 1.011 0.0
C23 C 0.14677 0.08718 0.213 0.0
H24 H 0.13078 0.05795 0.20061 0.0
H25 H 0.13257 0.10558 0.24952 0.0
H26 H 0.1773 0.0812 0.23296 0.0
O27 O 0.24191 0.0982 0.17964 0.0
O28 O 0.29804 0.06731 0.19187 0.0
C29 C 0.21998 0.99184 0.1837 0.0
O30 O 0.29683 0.07255 0.04515 0.0
O31 O 0.23694 0.09529 0.04506 0.0
Zn32 Zn 0.04618 0.22834 0.59399 0.0
O33 O 0.09471 0.23012 0.53549 0.0
C34 C 0.99746 0.18314 0.48635 0.0
Zn35 Zn 0.05822 0.16225 0.59223 0.0
C36 C 0.11435 0.19848 0.52121 0.0
O37 O 0.10494 0.16518 0.53898 0.0
C38 C 0.9896 0.18905 0.66621 0.0
O39 O 0.098 0.16743 0.67047 0.0
O40 O 0.09119 0.23321 0.67767 0.0
N41 N 0.06167 0.1008 0.58587 0.0
C42 C 0.03995 0.08323 0.62356 0.0
C43 C 0.02201 0.05695 0.53233 0.0
N44 N 0.05198 0.08266 0.52918 0.0
N45 N 0.01275 0.05767 0.59117 0.0
C46 C 0.04571 0.32072 0.56645 0.0
C47 C 0.02881 0.34875 0.6519 0.0
N48 N 0.04074 0.29104 0.60286 0.0
N49 N 0.03029 0.30881 0.65583 0.0
N50 N 0.03847 0.35742 0.59635 0.0
H51 H 0.04508 0.28271 0.47999 0.0
H52 H 0.08803 0.31475 0.5008 0.0
H53 H 0.04182 0.33623 0.4724 0.0
C54 C 0.05547 0.31317 0.50087 0.0
C55 C 0.04975 0.08592 0.69279 0.0
H56 H 0.05491 0.11748 0.71341 0.0
H57 H 0.0778 0.06979 0.7032 0.0
H58 H 0.02629 0.0715 0.71475 0.0
O59 O 0.01075 0.1602 0.64695 0.0
O60 O 0.9971 0.22416 0.6523 0.0
C61 C 0.10761 0.20192 0.69787 0.0
O62 O 0.0022 0.21976 0.51036 0.0
O63 O 0.01767 0.15625 0.51165 0.0
Zn64 Zn 0.86533 0.98619 0.99127 0.0
O65 O 0.85572 0.94153 0.91833 0.0
C66 C 0.82802 0.04937 0.91685 0.0
Zn67 Zn 0.80106 0.98936 0.99952 0.0
C68 C 0.82178 0.92868 0.89562 0.0
O69 O 0.79149 0.94346 0.91868 0.0
C70 C 0.84888 0.04697 0.09721 0.0
O71 O 0.80812 0.94083 0.06122 0.0
O72 O 0.8719 0.94275 0.05303 0.0
N73 N 0.74026 0.9917 0.99964 0.0
C74 C 0.7127 0.98842 0.03927 0.0
C75 C 0.68185 0.9941 0.94997 0.0
N76 N 0.72072 0.99544 0.94451 0.0
N77 N 0.67563 0.98961 1.00889 0.0
C78 C 0.94103 0.9953 0.93356 0.0
C79 C 0.98368 0.99703 1.01177 0.0
N80 N 0.92319 0.98272 0.98031 0.0
N81 N 0.95033 0.98186 0.02836 0.0
N82 N 0.97803 1.00839 0.95362 0.0
H83 H 0.89597 0.97814 0.85624 0.0
H84 H 0.94405 0.9905 0.83526 0.0
H85 H 0.91314 0.02967 0.86312 0.0
C86 C 0.92206 0.99831 0.86853 0.0
C87 C 0.72228 0.98243 0.10643 0.0
H88 H 0.75324 0.97278 0.11628 0.0
H89 H 0.70169 0.95994 0.11981 0.0
H90 H 0.71875 0.01142 0.13522 0.0
O91 O 0.81315 0.03462 0.08122 0.0
O92 O 0.87613 0.03191 0.06669 0.0
C93 C 0.84309 0.9284 0.07625 0.0
O94 O 0.85972 0.03144 0.9316 0.0
O95 O 0.79656 0.03859 0.93771 0.0
Zn96 Zn 0.00983 0.83604 0.52637 0.0
O97 O 0.04268 0.85093 0.45651 0.0
C98 C 0.96042 0.78763 0.42421 0.0
Zn99 Zn 0.02864 0.7735 0.51834 0.0
C100 C 0.06949 0.82713 0.43975 0.0
O101 O 0.07309 0.79299 0.46129 0.0
C102 C 0.96828 0.78712 0.60578 0.0
O103 O 0.07037 0.79048 0.60437 0.0
O104 O 0.05697 0.85377 0.5924 0.0
N105 N 0.04797 0.71368 0.50756 0.0
C106 C 0.04554 0.68189 0.54094 0.0
C107 C 0.06567 0.65932 0.45483 0.0
N108 N 0.0608 0.69936 0.45435 0.0
N109 N 0.05636 0.64732 0.50865 0.0
C110 C 0.96033 0.90909 0.49791 0.0
C111 C 0.95018 0.93103 0.59033 0.0
N112 N 0.98625 0.89102 0.53724 0.0
N113 N 0.98029 0.90522 0.59456 0.0
N114 N 0.93655 0.93315 0.53035 0.0
H115 H 0.97794 0.87911 0.41177 0.0
H116 H 0.96145 0.92965 0.40839 0.0
H117 H 0.9257 0.89084 0.41129 0.0
C118 C 0.9563 0.90124 0.42842 0.0
C119 C 0.02903 0.68436 0.60221 0.0
H120 H 0.03621 0.71416 0.62891 0.0
H121 H 0.0407 0.66038 0.63027 0.0
H122 H 0.99641 0.68056 0.59372 0.0
O123 O 0.98287 0.75718 0.57523 0.0
O124 O 0.97754 0.82226 0.59617 0.0
C125 C 0.07682 0.82817 0.62141 0.0
O126 O 0.96204 0.81914 0.46193 0.0
O127 O 0.98687 0.76104 0.43231 0.0
C128 C 0.9634 0.08003 0.96134 0.0
C129 C 0.98975 0.04871 0.94681 0.0
C130 C 0.97751 0.11688 0.99229 0.0
C131 C 0.01846 0.1219 1.00839 0.0
C132 C 0.04462 0.09455 0.9797 0.0
C133 C 0.02983 0.05765 0.94955 0.0
C134 C 0.94893 0.14641 1.01933 0.0
C135 C 0.08862 0.09999 0.99194 0.0
C136 C 0.07877 0.19157 0.12854 0.0
C137 C 0.09364 0.16001 0.16219 0.0
C138 C 0.05051 0.18152 0.07692 0.0
C139 C 0.03256 0.1429 0.07027 0.0
C140 C 0.03609 0.1201 0.12205 0.0
C141 C 0.06546 0.13128 0.17105 0.0
C142 C 0.04552 0.20882 1.02595 0.0
C143 C 0.01443 0.08055 0.12146 0.0
H144 H 0.932 0.07364 0.95818 0.0
H145 H 0.05001 0.03378 0.93713 0.0
H146 H 0.95421 0.17674 1.00541 0.0
H147 H 0.91774 0.13717 1.00486 0.0
H148 H 0.95384 0.14895 0.07063 0.0
H149 H 0.10379 0.08329 0.95458 0.0
H150 H 0.09678 0.13233 0.99575 0.0
H151 H 0.09886 0.0877 0.0362 0.0
H152 H 0.09711 0.2182 0.12906 0.0
H153 H 0.07145 0.11129 0.20665 0.0
H154 H 0.01713 0.20311 0.99594 0.0
H155 H 0.06999 0.20357 0.99641 0.0
H156 H 0.04718 0.2409 0.04593 0.0
H157 H 0.98341 0.08205 0.10016 0.0
H158 H 0.01423 0.07163 0.16917 0.0
H159 H 0.02967 0.05668 0.09393 0.0
C160 C 0.86896 0.95648 0.53878 0.0
C161 C 0.90386 0.95693 0.50967 0.0
C162 C 0.84827 0.99262 0.54891 0.0
C163 C 0.86681 0.02831 0.53702 0.0
C164 C 0.88728 0.02336 0.48329 0.0
C165 C 0.91004 0.98874 0.47494 0.0
C166 C 0.81158 0.99388 0.58144 0.0
C167 C 0.89099 0.05629 0.44253 0.0
C168 C 0.94824 0.09109 0.58269 0.0
C169 C 0.97214 0.05953 0.60274 0.0
C170 C 0.90702 0.08858 0.58175 0.0
C171 C 0.89035 0.05166 0.59254 0.0
C172 C 0.91437 0.02909 0.63414 0.0
C173 C 0.95562 0.0309 0.63453 0.0
C174 C 0.88147 0.12252 0.56137 0.0
C175 C 0.89719 1.00396 0.67824 0.0
H176 H 0.86095 0.93011 0.55983 0.0
H177 H 0.9343 0.98851 0.44674 0.0
H178 H 0.81572 0.97705 0.62289 0.0
H179 H 0.80276 0.02531 0.59496 0.0
H180 H 0.78714 0.97856 0.54943 0.0
H181 H 0.86652 0.07798 0.44629 0.0
H182 H 0.91988 0.07214 0.45521 0.0
H183 H 0.89033 0.04303 0.39345 0.0
H184 H 0.96138 0.11622 0.56451 0.0
H185 H 0.97453 0.01022 0.65882 0.0
H186 H 0.88251 0.14682 0.6005 0.0
H187 H 0.85013 0.11278 0.5486 0.0
H188 H 0.893 0.13557 0.52197 0.0
H189 H 0.89596 0.97191 0.65934 0.0
H190 H 0.86722 0.01408 0.68748 0.0
H191 H 0.91651 1.00565 0.72305 0.0
C192 C 0.627 1.00313 0.08588 0.0
C193 C 0.63687 0.98467 0.02874 0.0
C194 C 0.58784 1.00176 0.10127 0.0
C195 C 0.55774 0.98209 0.05808 0.0
C196 C 0.56779 0.96279 1.00095 0.0
C197 C 0.60706 0.96423 0.98721 0.0
C198 C 0.57844 0.02246 0.16292 0.0
C199 C 0.5368 0.94172 0.95326 0.0
C200 C 0.45887 0.95204 0.10836 0.0
C201 C 0.43419 0.98332 0.09008 0.0
C202 C 0.49919 0.95152 0.09922 0.0
C203 C 0.5154 0.98305 0.07092 0.0
C204 C 0.4907 0.01482 0.0526 0.0
C205 C 0.45063 0.01482 0.06307 0.0
C206 C 0.52447 0.91728 0.12002 0.0
C207 C 0.50663 0.04896 1.022 0.0
H208 H 0.64936 0.02002 0.11748 0.0
H209 H 0.61445 0.94992 0.94295 0.0
H210 H 0.55916 0.04861 0.15504 0.0
H211 H 0.56195 1.00162 0.18748 0.0
H212 H 0.60552 0.03332 0.19352 0.0
H213 H 0.54967 0.92701 0.91195 0.0
H214 H 0.52094 0.91851 0.97424 0.0
H215 H 0.51453 0.96378 0.9375 0.0
H216 H 0.44652 0.92798 0.13019 0.0
H217 H 0.43253 0.04014 0.05165 0.0
H218 H 0.55009 0.9293 0.1529 0.0
H219 H 0.53647 0.90065 0.07943 0.0
H220 H 0.50772 0.89574 0.14305 0.0
H221 H 0.53104 0.06479 0.05338 0.0
H222 H 0.48354 0.07122 1.01003 0.0
H223 H 0.51905 0.0369 0.97882 0.0
C224 C 0.01217 0.42635 0.59659 0.0
C225 C 0.03989 0.39778 0.57759 0.0
C226 C 0.01466 0.46684 0.58467 0.0
C227 C 0.04589 0.47963 0.55315 0.0
C228 C 0.07383 0.45088 0.53319 0.0
C229 C 0.07059 0.41042 0.54581 0.0
C230 C 0.98406 0.4961 0.60669 0.0
C231 C 0.10766 0.46305 0.49959 0.0
C232 C 0.03227 0.57757 0.47701 0.0
C233 C 0.05317 0.60577 0.52123 0.0
C234 C 0.02991 0.53659 0.48652 0.0
C235 C 0.04922 0.52309 0.54154 0.0
C236 C 0.07082 0.55143 0.58609 0.0
C237 C 0.07272 0.59231 0.57524 0.0
C238 C 0.00655 0.50774 0.4377 0.0
C239 C 0.09201 0.53855 0.64526 0.0
H240 H 0.9885 0.41692 0.62148 0.0
H241 H 0.09288 0.38906 0.53268 0.0
H242 H 0.99864 0.52049 0.64016 0.0
H243 H 0.96917 0.51044 0.56682 0.0
H244 H 0.96122 0.48132 0.62958 0.0
H245 H 0.12612 0.43702 0.48522 0.0
H246 H 0.09615 0.47737 0.45762 0.0
H247 H 0.12673 0.48571 0.53016 0.0
H248 H 0.01752 0.5878 0.43489 0.0
H249 H 0.09009 0.61366 0.60844 0.0
H250 H 0.9821 0.49385 0.45813 0.0
H251 H 0.02579 0.48297 0.42119 0.0
H252 H 0.99379 0.52279 0.39705 0.0
H253 H 0.07053 0.52514 0.67225 0.0
H254 H 0.10769 0.56406 0.67507 0.0
H255 H 0.11382 0.51497 0.63399 0.0
C256 C 0.18619 0.19197 0.51131 0.0
C257 C 0.14791 0.1989 0.48382 0.0
C258 C 0.21704 0.18185 0.47467 0.0
C259 C 0.2089 0.17646 0.40901 0.0
C260 C 0.1708 0.18641 0.38124 0.0
C261 C 0.14088 0.19782 0.41916 0.0
C262 C 0.25788 0.17517 0.50635 0.0
C263 C 0.16065 0.1842 0.3116 0.0
C264 C 0.27962 0.15623 0.2857 0.0
C265 C 0.27765 0.11408 0.27494 0.0
C266 C 0.26094 0.17714 0.33401 0.0
C267 C 0.23795 0.15543 0.37005 0.0
C268 C 0.23857 0.11268 0.36232 0.0
C269 C 0.2596 0.09267 0.31637 0.0
C270 C 0.26252 0.22252 0.34194 0.0
C271 C 0.21271 0.08789 0.39635 0.0
H272 H 0.19162 0.19288 0.56151 0.0
H273 H 0.11124 0.20325 0.398 0.0
H274 H 0.26326 0.14242 0.50627 0.0
H275 H 0.28076 0.18789 0.4811 0.0
H276 H 0.2615 0.1891 0.5554 0.0
H277 H 0.1657 0.21432 0.29661 0.0
H278 H 0.17887 0.16228 0.28575 0.0
H279 H 0.12892 0.17629 0.298 0.0
H280 H 0.29256 0.17302 0.25282 0.0
H281 H 0.25678 0.06015 0.30677 0.0
H282 H 0.26213 0.23455 0.39145 0.0
H283 H 0.23631 0.23416 0.31471 0.0
H284 H 0.28941 0.23407 0.32466 0.0
H285 H 0.21763 0.09678 0.44715 0.0
H286 H 0.21814 0.05507 0.38753 0.0
H287 H 0.18115 0.09339 0.38088 0.0
C288 C 0.92175 0.20079 0.70528 0.0
C289 C 0.9576 0.17987 0.70491 0.0
C290 C 0.89067 0.18758 0.73723 0.0
C291 C 0.89559 0.1527 0.76947 0.0
C292 C 0.93207 0.13231 0.76952 0.0
C293 C 0.96222 0.14625 0.73821 0.0
C294 C 0.85221 0.20993 0.73366 0.0
C295 C 0.93919 0.09482 0.80169 0.0
C296 C 0.84917 0.11945 0.90584 0.0
C297 C 0.83023 0.08347 0.87858 0.0
C298 C 0.86575 0.14618 0.86937 0.0
C299 C 0.86402 0.13641 0.80419 0.0
C300 C 0.83968 0.10343 0.77615 0.0
C301 C 0.82383 0.07675 0.81354 0.0
C302 C 0.88831 0.18299 0.9008 0.0
C303 C 0.83281 0.09499 0.70663 0.0
H304 H 0.91742 0.22649 0.67895 0.0
H305 H 0.98974 0.13025 0.73948 0.0
H306 H 0.8322 0.19574 0.69344 0.0
H307 H 0.8372 0.20875 0.77615 0.0
H308 H 0.85685 0.24194 0.72637 0.0
H309 H 0.96968 0.08321 0.79991 0.0
H310 H 0.93373 0.10115 0.85087 0.0
H311 H 0.91795 0.071 0.77957 0.0
H312 H 0.85355 0.12516 0.95609 0.0
H313 H 0.80901 0.04919 0.79197 0.0
H314 H 0.88063 0.20943 0.87524 0.0
H315 H 0.92048 0.17794 0.89987 0.0
H316 H 0.88206 0.19013 0.94976 0.0
H317 H 0.81819 0.12116 0.68682 0.0
H318 H 0.8142 0.06766 0.69145 0.0
H319 H 0.86158 0.09137 0.68795 0.0
C320 C 0.89672 0.80939 0.3723 0.0
C321 C 0.93194 0.78794 0.36722 0.0
C322 C 0.87672 0.82606 0.32122 0.0
C323 C 0.89149 0.82016 0.26268 0.0
C324 C 0.92409 0.79411 0.25551 0.0
C325 C 0.94419 0.77852 0.30803 0.0
C326 C 0.8428 0.85409 0.33218 0.0
C327 C 0.9406 0.78653 0.1939 0.0
C328 C 0.83187 0.86458 0.12577 0.0
C329 C 0.85241 0.90091 0.12503 0.0
C330 C 0.84465 0.83732 0.16923 0.0
C331 C 0.87805 0.84717 0.21369 0.0
C332 C 0.8982 0.88432 0.2133 0.0
C333 C 0.88532 0.91033 0.16898 0.0
C334 C 0.82294 0.79771 0.16694 0.0
C335 C 0.93259 0.89785 0.26108 0.0
H336 H 0.88709 0.81687 0.41798 0.0
H337 H 0.97157 0.76243 0.30365 0.0
H338 H 0.8534 0.88571 0.33432 0.0
H339 H 0.81858 0.84924 0.29355 0.0
H340 H 0.8307 0.85022 0.37656 0.0
H341 H 0.96031 0.76002 0.19238 0.0
H342 H 0.91638 0.78166 0.15515 0.0
H343 H 0.95801 0.81334 0.18634 0.0
H344 H 0.80677 0.85692 0.09124 0.0
H345 H 0.90107 0.93859 0.16893 0.0
H346 H 0.84369 0.7725 0.15935 0.0
H347 H 0.79787 0.79424 0.12934 0.0
H348 H 0.81138 0.79509 0.21204 0.0
H349 H 0.95052 0.92195 0.24568 0.0
H350 H 0.95242 0.87265 0.27203 0.0
H351 H 0.92068 0.91024 0.30444 0.0
C352 C 0.12412 0.88136 0.67415 0.0
C353 C 0.10518 0.84414 0.67588 0.0
C354 C 0.14458 0.90234 0.72772 0.0
C355 C 0.14605 0.88614 0.78545 0.0
C356 C 0.12864 0.84758 0.78709 0.0
C357 C 0.10853 0.82693 0.73223 0.0
C358 C 0.16288 0.94296 0.72296 0.0
C359 C 0.12934 0.82913 0.84746 0.0
C360 C 0.22058 0.9361 0.91678 0.0
C361 C 0.19709 0.9643 0.9482 0.0
C362 C 0.20426 0.90964 0.86515 0.0
C363 C 0.16335 0.91114 0.84406 0.0
C364 C 0.13939 0.93905 0.87631 0.0
C365 C 0.15646 0.96518 0.92759 0.0
C366 C 0.23105 0.88068 0.83224 0.0
C367 C 0.0957 0.94199 0.85582 0.0
H368 H 0.1217 0.89493 0.63081 0.0
H369 H 0.0935 0.79855 0.7343 0.0
H370 H 0.14666 0.96686 0.74881 0.0
H371 H 0.19405 0.94431 0.74445 0.0
H372 H 0.16215 0.94979 0.674 0.0
H373 H 0.11847 0.79741 0.8402 0.0
H374 H 0.15977 0.83009 0.87197 0.0
H375 H 0.11037 0.84687 0.87835 0.0
H376 H 0.25193 0.93491 0.93213 0.0
H377 H 0.13783 0.98661 0.95134 0.0
H378 H 0.23251 0.88848 0.78425 0.0
H379 H 0.21893 0.84954 0.82835 0.0
H380 H 0.26155 0.88121 0.8566 0.0
H381 H 0.09129 0.95248 0.80889 0.0
H382 H 0.08058 0.96314 0.88821 0.0
H383 H 0.08129 0.91189 0.85237 0.0
C384 C 0.83067 0.90746 0.78649 0.0
C385 C 0.81984 0.89698 0.84285 0.0
C386 C 0.84699 0.87896 0.74462 0.0
C387 C 0.85298 0.83901 0.75991 0.0
C388 C 0.83768 0.82723 0.8133 0.0
C389 C 0.82157 0.85653 0.85459 0.0
C390 C 0.86234 0.89319 0.68816 0.0
C391 C 0.8422 0.78479 0.83046 0.0
C392 C 0.90045 0.77537 0.63302 0.0
C393 C 0.94055 0.78381 0.65237 0.0
C394 C 0.87108 0.78956 0.67061 0.0
C395 C 0.88229 0.81337 0.72792 0.0
C396 C 0.923 0.81828 0.75002 0.0
C397 C 0.95152 0.80324 0.71208 0.0
C398 C 0.82816 0.7826 0.64598 0.0
C399 C 0.93668 0.84345 0.81058 0.0
H400 H 0.83017 0.93892 0.77805 0.0
H401 H 0.814 0.84852 0.89885 0.0
H402 H 0.89467 0.89904 0.69818 0.0
H403 H 0.85743 0.87016 0.64735 0.0
H404 H 0.84785 0.92143 0.67576 0.0
H405 H 0.82067 0.77788 0.86278 0.0
H406 H 0.83817 0.76257 0.78843 0.0
H407 H 0.87244 0.78116 0.85394 0.0
H408 H 0.89183 0.76117 0.58625 0.0
H409 H 0.98252 0.81043 0.72649 0.0
H410 H 0.81683 0.80935 0.62384 0.0
H411 H 0.81 0.77824 0.68411 0.0
H412 H 0.82422 0.75596 0.6105 0.0
H413 H 0.92979 0.87557 0.80609 0.0
H414 H 0.96902 0.84106 0.82388 0.0
H415 H 0.92093 0.83414 0.84876 0.0
C416 C 0.20924 0.92205 0.21245 0.0
C417 C 0.20482 0.96381 0.2243 0.0
C418 C 0.19046 0.89526 0.24615 0.0
C419 C 0.16775 0.91069 0.29407 0.0
C420 C 0.1651 0.953 0.3082 0.0
C421 C 0.18306 0.97893 0.27252 0.0
C422 C 0.19327 0.8505 0.22841 0.0
C423 C 0.14231 0.97101 0.35995 0.0
C424 C 0.08029 0.85486 0.34146 0.0
C425 C 0.09639 0.84078 0.39709 0.0
C426 C 0.10387 0.87521 0.3054 0.0
C427 C 0.14434 0.88312 0.32663 0.0
C428 C 0.16104 0.86771 0.38191 0.0
C429 C 0.13692 0.84627 0.41614 0.0
C430 C 0.08488 0.89001 0.24608 0.0
C431 C 0.20367 0.87626 0.40723 0.0
H432 H 0.22576 0.91027 0.17479 0.0
H433 H 0.17985 0.01123 0.28214 0.0
H434 H 0.20272 0.83496 0.27002 0.0
H435 H 0.16365 0.83821 0.20879 0.0
H436 H 0.21432 0.84322 0.19341 0.0
H437 H 0.14665 1.00418 0.36935 0.0
H438 H 0.11028 0.96451 0.34737 0.0
H439 H 0.15155 0.95724 0.40338 0.0
H440 H 0.04883 0.85093 0.32707 0.0
H441 H 0.14917 0.83615 0.4599 0.0
H442 H 0.10329 0.88212 0.20762 0.0
H443 H 0.08272 0.92331 0.25254 0.0
H444 H 0.05469 0.87712 0.23206 0.0
H445 H 0.22338 0.86921 0.37034 0.0
H446 H 0.21327 0.85877 0.44677 0.0
H447 H 0.20751 0.90883 0.42353 0.0
C448 C 0.12973 0.18256 0.80225 0.0
C449 C 0.13776 0.20344 0.75259 0.0
C450 C 0.16018 0.17158 0.84607 0.0
C451 C 0.20006 0.1813 0.83999 0.0
C452 C 0.20819 0.20446 0.79176 0.0
C453 C 0.1769 0.21511 0.74835 0.0
C454 C 0.14964 0.14737 0.89672 0.0
C455 C 0.25004 0.21575 0.78353 0.0
C456 C 0.26432 0.16336 0.9881 0.0
C457 C 0.27333 0.12246 0.97576 0.0
C458 C 0.24425 0.1847 0.94199 0.0
C459 C 0.23258 0.16456 0.88206 0.0
C460 C 0.24616 0.12485 0.86731 0.0
C461 C 0.26656 0.10434 0.91433 0.0
C462 C 0.23129 0.22713 0.95992 0.0
C463 C 0.23477 0.10207 0.80412 0.0
H464 H 0.0996 0.17268 0.80465 0.0
H465 H 0.18338 0.23011 0.70879 0.0
H466 H 0.16325 0.11718 0.89149 0.0
H467 H 0.16135 0.16252 0.94303 0.0
H468 H 0.11717 0.14335 0.89544 0.0
H469 H 0.251 0.23932 0.75135 0.0
H470 H 0.26677 0.22674 0.82893 0.0
H471 H 0.26531 0.18873 0.76412 0.0
H472 H 0.2687 0.17732 0.03577 0.0
H473 H 0.27249 0.0725 0.90472 0.0
H474 H 0.20004 0.22652 0.97002 0.0
H475 H 0.23298 0.24605 0.92137 0.0
H476 H 0.24958 0.2414 1.00208 0.0
H477 H 0.20319 0.09269 0.80011 0.0
H478 H 0.25284 0.07465 0.79653 0.0
H479 H 0.23817 0.12148 0.76672 0.0
C480 C 0.89318 0.10274 0.15233 0.0
C481 C 0.8602 0.07733 0.15206 0.0
C482 C 0.90875 0.12718 0.20639 0.0
C483 C 0.89226 0.12502 0.26292 0.0
C484 C 0.85679 0.10215 0.26158 0.0
C485 C 0.84109 0.0788 0.20612 0.0
C486 C 0.94388 0.15406 0.20246 0.0
C487 C 0.83554 0.10064 0.31843 0.0
C488 C 0.97221 0.13034 0.40069 0.0
C489 C 0.96927 0.16981 0.42977 0.0
C490 C 0.94652 0.11536 0.34828 0.0
C491 C 0.91636 0.14009 0.32336 0.0
C492 C 0.91269 0.17988 0.3526 0.0
C493 C 0.93921 0.19436 0.40536 0.0
C494 C 0.95302 0.07334 0.31801 0.0
C495 C 0.88144 0.2074 0.32687 0.0
H496 H 0.90758 0.10283 0.11037 0.0
H497 H 0.81517 0.05993 0.20633 0.0
H498 H 0.95362 0.17343 0.24606 0.0
H499 H 0.96906 0.13534 0.18939 0.0
H500 H 0.93631 0.17414 0.16561 0.0
H501 H 0.83373 0.069 0.32921 0.0
H502 H 0.8496 0.11971 0.35988 0.0
H503 H 0.80465 0.11078 0.3082 0.0
H504 H 0.99527 0.11087 0.4184 0.0
H505 H 0.93637 0.22474 0.42739 0.0
H506 H 0.9674 0.07545 0.27509 0.0
H507 H 0.92452 0.05689 0.30434 0.0
H508 H 0.97228 0.05541 0.34909 0.0
H509 H 0.88704 0.21314 0.27927 0.0
H510 H 0.88089 0.23671 0.35622 0.0
H511 H 0.85189 0.19265 0.32311 0.0
loop_
_geom_bond_atom_site_label_1
_geom_bond_atom_site_label_2
_geom_bond_distance
_geom_bond_site_symmetry_2
_ccdc_geom_bond_type
Zn0 O1 2.055 1_544 S
Zn0 O8 2.046 1_545 S
Zn0 N16 2.036 . S
Zn0 O28 2.053 . S
Zn0 O30 2.066 . S
O1 Zn0 2.055 1_566 S
O1 C4 1.259 . S
C2 O30 1.256 1_556 S
C2 O31 1.244 . S
Zn3 O5 2.046 1_544 S
Zn3 O7 2.055 1_545 S
Zn3 N9 2.036 . S
Zn3 O27 2.066 . S
Zn3 O31 2.053 1_554 S
C4 O1 1.259 . S
C4 O5 1.254 . S
O5 Zn3 2.046 1_566 S
O5 C4 1.254 . S
C6 O27 1.256 . S
C6 O28 1.244 . S
O7 Zn3 2.055 1_565 S
O7 C29 1.259 . S
O8 Zn0 2.046 1_565 S
O8 C29 1.254 . S
N9 Zn3 2.036 . S
N9 C10 1.298 . S
N9 N12 1.398 1_554 S
C10 N9 1.298 . S
C10 N13 1.367 . S
C10 C23 1.481 1_545 S
C11 N12 1.299 . S
C11 N13 1.379 1_556 S
N12 N9 1.398 1_556 S
N12 C11 1.299 . S
N13 C10 1.367 . S
N13 C11 1.379 1_554 S
C14 N16 1.298 . S
C14 N18 1.367 . S
C14 C22 1.481 1_544 S
C15 N17 1.299 . S
C15 N18 1.379 . S
N16 Zn0 2.036 . S
N16 C14 1.298 . S
N16 N17 1.398 . S
N17 C15 1.299 . S
N17 N16 1.398 . S
N18 C14 1.367 . S
N18 C15 1.379 . S
H19 C22 0.980 . S
H20 C22 0.981 . S
H21 C22 0.981 1_545 S
C22 C14 1.481 1_566 S
C22 H19 0.980 . S
C22 H20 0.981 . S
C22 H21 0.981 1_565 S
C23 C10 1.481 1_565 S
C23 H24 0.980 . S
C23 H25 0.981 . S
C23 H26 0.981 1_565 S
H24 C23 0.980 . S
H25 C23 0.981 . S
H26 C23 0.981 1_545 S
O27 Zn3 2.066 . S
O27 C6 1.256 . S
O28 Zn0 2.053 . S
O28 C6 1.244 . S
C29 O7 1.259 . S
C29 O8 1.254 . S
O30 Zn0 2.066 . S
O30 C2 1.256 1_554 S
O31 C2 1.244 . S
O31 Zn3 2.053 1_556 S
Zn32 O33 2.055 . S
Zn32 O40 2.046 . S
Zn32 N48 2.036 . S
Zn32 O60 2.053 1_455 S
Zn32 O62 2.066 1_455 S
O33 Zn32 2.055 . S
O33 C36 1.259 . S
C34 O62 1.256 . S
C34 O63 1.244 . S
Zn35 O37 2.046 . S
Zn35 O39 2.055 . S
Zn35 N41 2.036 . S
Zn35 O59 2.066 1_455 S
Zn35 O63 2.053 1_455 S
C36 O33 1.259 . S
C36 O37 1.254 . S
O37 Zn35 2.046 . S
O37 C36 1.254 . S
C38 O59 1.256 . S
C38 O60 1.244 . S
O39 Zn35 2.055 . S
O39 C61 1.259 . S
O40 Zn32 2.046 . S
O40 C61 1.254 . S
N41 Zn35 2.036 . S
N41 C42 1.298 . S
N41 N44 1.398 . S
C42 N41 1.298 . S
C42 N45 1.367 . S
C42 C55 1.481 . S
C43 N44 1.299 . S
C43 N45 1.379 . S
N44 N41 1.398 . S
N44 C43 1.299 . S
N45 C42 1.367 . S
N45 C43 1.379 . S
C46 N48 1.298 . S
C46 N50 1.367 . S
C46 C54 1.481 . S
C47 N49 1.299 . S
C47 N50 1.379 . S
N48 Zn32 2.036 . S
N48 C46 1.298 . S
N48 N49 1.398 . S
N49 C47 1.299 . S
N49 N48 1.398 . S
N50 C46 1.367 . S
N50 C47 1.379 . S
H51 C54 0.980 . S
H52 C54 0.981 . S
H53 C54 0.981 . S
C54 C46 1.481 . S
C54 H51 0.980 . S
C54 H52 0.981 . S
C54 H53 0.981 . S
C55 C42 1.481 . S
C55 H56 0.980 . S
C55 H57 0.981 . S
C55 H58 0.981 . S
H56 C55 0.980 . S
H57 C55 0.981 . S
H58 C55 0.981 . S
O59 Zn35 2.066 1_655 S
O59 C38 1.256 . S
O60 Zn32 2.053 1_655 S
O60 C38 1.244 . S
C61 O39 1.259 . S
C61 O40 1.254 . S
O62 Zn32 2.066 1_655 S
O62 C34 1.256 . S
O63 C34 1.244 . S
O63 Zn35 2.053 1_655 S
Zn64 O65 2.055 1_554 S
Zn64 O72 2.046 . S
Zn64 N80 2.036 1_565 S
Zn64 O92 2.053 1_565 S
Zn64 O94 2.066 1_564 S
O65 Zn64 2.055 1_556 S
O65 C68 1.259 . S
C66 O94 1.256 . S
C66 O95 1.244 . S
Zn67 O69 2.046 . S
Zn67 O71 2.055 1_556 S
Zn67 N73 2.036 1_565 S
Zn67 O91 2.066 1_566 S
Zn67 O95 2.053 1_565 S
C68 O65 1.259 . S
C68 O69 1.254 . S
O69 Zn67 2.046 . S
O69 C68 1.254 . S
C70 O91 1.256 . S
C70 O92 1.244 . S
O71 Zn67 2.055 1_554 S
O71 C93 1.259 . S
O72 Zn64 2.046 . S
O72 C93 1.254 . S
N73 Zn67 2.036 1_545 S
N73 C74 1.295 1_546 S
N73 N76 1.398 . S
C74 N73 1.295 1_564 S
C74 N77 1.359 1_564 S
C74 C87 1.491 . S
C75 N76 1.299 . S
C75 N77 1.379 . S
N76 N73 1.398 . S
N76 C75 1.299 . S
N77 C74 1.359 1_546 S
N77 C75 1.379 . S
C78 N80 1.298 1_556 S
C78 N82 1.367 1_556 S
C78 C86 1.481 1_545 S
C79 N81 1.299 . S
C79 N82 1.379 . S
N80 Zn64 2.036 1_545 S
N80 C78 1.298 1_554 S
N80 N81 1.398 . S
N81 C79 1.299 . S
N81 N80 1.398 . S
N82 C78 1.367 1_554 S
N82 C79 1.379 . S
H83 C86 0.980 . S
H84 C86 0.981 . S
H85 C86 0.981 1_545 S
C86 C78 1.481 1_565 S
C86 H83 0.980 . S
C86 H84 0.981 . S
C86 H85 0.981 1_565 S
C87 C74 1.491 . S
C87 H88 0.980 . S
C87 H89 0.981 . S
C87 H90 0.981 1_565 S
H88 C87 0.980 . S
H89 C87 0.981 . S
H90 C87 0.981 1_545 S
O91 Zn67 2.066 1_544 S
O91 C70 1.256 . S
O92 Zn64 2.053 1_545 S
O92 C70 1.244 . S
C93 O71 1.259 . S
C93 O72 1.254 . S
O94 Zn64 2.066 1_546 S
O94 C66 1.256 . S
O95 C66 1.244 . S
O95 Zn67 2.053 1_545 S
Zn96 O97 2.055 . S
Zn96 O104 2.046 . S
Zn96 N112 2.036 . S
Zn96 O124 2.053 1_455 S
Zn96 O126 2.066 1_455 S
O97 Zn96 2.055 . S
O97 C100 1.259 . S
C98 O126 1.256 . S
C98 O127 1.244 . S
Zn99 O101 2.046 . S
Zn99 O103 2.055 . S
Zn99 N105 2.036 . S
Zn99 O123 2.066 1_455 S
Zn99 O127 2.053 1_455 S
C100 O97 1.259 . S
C100 O101 1.254 . S
O101 Zn99 2.046 . S
O101 C100 1.254 . S
C102 O123 1.256 . S
C102 O124 1.244 . S
O103 Zn99 2.055 . S
O103 C125 1.259 . S
O104 Zn96 2.046 . S
O104 C125 1.254 . S
N105 Zn99 2.036 . S
N105 C106 1.298 . S
N105 N108 1.398 . S
C106 N105 1.298 . S
C106 N109 1.367 . S
C106 C119 1.481 . S
C107 N108 1.300 1_655 S
C107 N109 1.379 1_655 S
N108 N105 1.398 . S
N108 C107 1.300 1_455 S
N109 C106 1.367 . S
N109 C107 1.379 1_455 S
C110 N112 1.298 . S
C110 N114 1.367 . S
C110 C118 1.481 . S
C111 N113 1.297 1_655 S
C111 N114 1.373 1_655 S
N112 Zn96 2.036 . S
N112 C110 1.298 . S
N112 N113 1.398 . S
N113 C111 1.297 1_455 S
N113 N112 1.398 . S
N114 C110 1.367 . S
N114 C111 1.373 1_455 S
H115 C118 0.980 . S
H116 C118 0.981 . S
H117 C118 0.981 . S
C118 C110 1.481 . S
C118 H115 0.980 . S
C118 H116 0.981 . S
C118 H117 0.981 . S
C119 C106 1.481 . S
C119 H120 0.980 . S
C119 H121 0.981 . S
C119 H122 0.981 . S
H120 C119 0.980 . S
H121 C119 0.981 . S
H122 C119 0.981 . S
O123 Zn99 2.066 1_655 S
O123 C102 1.256 . S
O124 Zn96 2.053 1_655 S
O124 C102 1.244 . S
C125 O103 1.259 . S
C125 O104 1.254 . S
O126 Zn96 2.066 1_655 S
O126 C98 1.256 . S
O127 C98 1.244 . S
O127 Zn99 2.053 1_655 S
C128 C129 1.391 . S
C128 C130 1.394 1_556 S
C128 H144 0.931 . S
C129 C128 1.391 . S
C129 C133 1.376 . S
C130 C128 1.394 1_554 S
C130 C131 1.369 1_655 S
C130 C134 1.531 . S
C131 C130 1.369 1_455 S
C131 C132 1.410 1_554 S
C131 C139 1.503 . S
C132 C131 1.410 1_556 S
C132 C133 1.392 1_455 S
C132 C135 1.511 . S
C133 C129 1.376 . S
C133 C132 1.392 1_655 S
C133 H145 0.931 . S
C134 C130 1.531 . S
C134 H146 0.960 1_545 S
C134 H147 0.962 . S
C134 H148 0.960 1_545 S
C135 C132 1.511 . S
C135 H149 0.961 . S
C135 H150 0.961 . S
C135 H151 0.961 1_545 S
C136 C137 1.370 . S
C136 C138 1.363 . S
C136 H152 0.931 . S
C137 C136 1.370 . S
C137 C141 1.408 1_545 S
C138 C136 1.363 . S
C138 C139 1.370 . S
C138 C142 1.524 . S
C139 C131 1.503 . S
C139 C138 1.370 . S
C139 C140 1.403 1_545 S
C140 C139 1.403 1_565 S
C140 C141 1.404 . S
C140 C143 1.539 . S
C141 C137 1.408 1_565 S
C141 C140 1.404 . S
C141 H153 0.930 . S
C142 C138 1.524 . S
C142 H154 0.956 . S
C142 H155 0.961 . S
C142 H156 0.961 . S
C143 C140 1.539 . S
C143 H157 0.958 . S
C143 H158 0.961 . S
C143 H159 0.960 . S
H144 C128 0.931 . S
H145 C133 0.931 . S
H146 C134 0.960 1_565 S
H147 C134 0.962 . S
H148 C134 0.960 1_565 S
H149 C135 0.961 . S
H150 C135 0.961 . S
H151 C135 0.961 1_565 S
H152 C136 0.931 . S
H153 C141 0.930 . S
H154 C142 0.956 . S
H155 C142 0.961 . S
H156 C142 0.961 . S
H157 C143 0.958 . S
H158 C143 0.961 . S
H159 C143 0.960 . S
C160 C161 1.370 1_655 S
C160 C162 1.394 . S
C160 H176 0.931 . S
C161 C160 1.370 1_455 S
C161 C165 1.396 . S
C162 C160 1.394 . S
C162 C163 1.369 1_655 S
C162 C166 1.531 . S
C163 C162 1.369 1_455 S
C163 C164 1.410 . S
C163 C171 1.503 1_565 S
C164 C163 1.410 . S
C164 C165 1.392 . S
C164 C167 1.511 . S
C165 C161 1.396 . S
C165 C164 1.392 . S
C165 H177 0.929 . S
C166 C162 1.531 . S
C166 H178 0.960 . S
C166 H179 0.962 1_565 S
C166 H180 0.960 . S
C167 C164 1.511 . S
C167 H181 0.961 . S
C167 H182 0.961 1_565 S
C167 H183 0.961 . S
C168 C169 1.370 . S
C168 C170 1.363 . S
C168 H184 0.931 . S
C169 C168 1.370 . S
C169 C173 1.408 . S
C170 C168 1.363 . S
C170 C171 1.370 . S
C170 C174 1.524 . S
C171 C163 1.503 1_545 S
C171 C170 1.370 . S
C171 C172 1.403 . S
C172 C171 1.403 . S
C172 C173 1.404 . S
C172 C175 1.539 1_545 S
C173 C169 1.408 . S
C173 C172 1.404 . S
C173 H185 0.930 . S
C174 C170 1.524 . S
C174 H186 0.956 1_455 S
C174 H187 0.961 . S
C174 H188 0.961 . S
C175 C172 1.539 1_565 S
C175 H189 0.958 1_455 S
C175 H190 0.961 . S
C175 H191 0.960 . S
H176 C160 0.931 . S
H177 C165 0.929 . S
H178 C166 0.960 . S
H179 C166 0.962 1_545 S
H180 C166 0.960 . S
H181 C167 0.961 . S
H182 C167 0.961 1_545 S
H183 C167 0.961 . S
H184 C168 0.931 . S
H185 C173 0.930 . S
H186 C174 0.956 1_655 S
H187 C174 0.961 . S
H188 C174 0.961 . S
H189 C175 0.958 1_655 S
H190 C175 0.961 . S
H191 C175 0.960 . S
C192 C193 1.391 . S
C192 C194 1.394 . S
C192 H208 0.931 . S
C193 C192 1.391 . S
C193 C197 1.376 1_544 S
C194 C192 1.394 . S
C194 C195 1.369 . S
C194 C198 1.531 . S
C195 C194 1.369 . S
C195 C196 1.410 1_544 S
C195 C203 1.503 . S
C196 C195 1.410 1_566 S
C196 C197 1.392 . S
C196 C199 1.511 . S
C197 C193 1.376 1_566 S
C197 C196 1.392 . S
C197 H209 0.929 . S
C198 C194 1.531 . S
C198 H210 0.960 . S
C198 H211 0.962 . S
C198 H212 0.960 . S
C199 C196 1.511 . S
C199 H213 0.961 . S
C199 H214 0.961 . S
C199 H215 0.961 . S
C200 C201 1.370 . S
C200 C202 1.363 . S
C200 H216 0.931 1_545 S
C201 C200 1.370 . S
C201 C205 1.399 1_554 S
C202 C200 1.363 . S
C202 C203 1.370 . S
C202 C206 1.524 1_545 S
C203 C195 1.503 . S
C203 C202 1.370 . S
C203 C204 1.403 1_554 S
C204 C203 1.403 1_556 S
C204 C205 1.407 . S
C204 C207 1.539 . S
C205 C201 1.399 1_556 S
C205 C204 1.407 . S
C205 H217 0.936 . S
C206 C202 1.524 1_565 S
C206 H218 0.956 1_565 S
C206 H219 0.961 . S
C206 H220 0.961 . S
C207 C204 1.539 . S
C207 H221 0.958 . S
C207 H222 0.961 . S
C207 H223 0.960 . S
H208 C192 0.931 . S
H209 C197 0.929 . S
H210 C198 0.960 . S
H211 C198 0.962 . S
H212 C198 0.960 . S
H213 C199 0.961 . S
H214 C199 0.961 . S
H215 C199 0.961 . S
H216 C200 0.931 1_565 S
H217 C205 0.936 . S
H218 C206 0.956 1_545 S
H219 C206 0.961 . S
H220 C206 0.961 . S
H221 C207 0.958 . S
H222 C207 0.961 . S
H223 C207 0.960 . S
C224 C225 1.391 1_655 S
C224 C226 1.394 . S
C224 H240 0.931 . S
C225 C224 1.391 1_455 S
C225 C229 1.376 . S
C226 C224 1.394 . S
C226 C227 1.364 1_655 S
C226 C230 1.535 . S
C227 C226 1.364 1_455 S
C227 C228 1.410 . S
C227 C235 1.503 . S
C228 C227 1.410 . S
C228 C229 1.392 . S
C228 C231 1.511 . S
C229 C225 1.376 . S
C229 C228 1.392 . S
C229 H241 0.929 . S
C230 C226 1.535 . S
C230 H242 0.960 . S
C230 H243 0.962 . S
C230 H244 0.960 . S
C231 C228 1.511 . S
C231 H245 0.961 . S
C231 H246 0.961 . S
C231 H247 0.961 . S
C232 C233 1.370 1_655 S
C232 C234 1.363 . S
C232 H248 0.931 . S
C233 C232 1.370 1_455 S
C233 C237 1.408 . S
C234 C232 1.363 . S
C234 C235 1.370 1_655 S
C234 C238 1.524 . S
C235 C227 1.503 . S
C235 C234 1.370 1_455 S
C235 C236 1.403 . S
C236 C235 1.403 . S
C236 C237 1.404 . S
C236 C239 1.539 . S
C237 C233 1.408 . S
C237 C236 1.404 . S
C237 H249 0.930 . S
C238 C234 1.524 . S
C238 H250 0.956 . S
C238 H251 0.961 . S
C238 H252 0.961 . S
C239 C236 1.539 . S
C239 H253 0.958 . S
C239 H254 0.961 . S
C239 H255 0.960 . S
H240 C224 0.931 . S
H241 C229 0.929 . S
H242 C230 0.960 . S
H243 C230 0.962 . S
H244 C230 0.960 . S
H245 C231 0.961 . S
H246 C231 0.961 . S
H247 C231 0.961 . S
H248 C232 0.931 . S
H249 C237 0.930 . S
H250 C238 0.956 . S
H251 C238 0.961 . S
H252 C238 0.961 . S
H253 C239 0.958 . S
H254 C239 0.961 . S
H255 C239 0.960 . S
C256 C257 1.391 . S
C256 C258 1.394 . S
C256 H272 0.931 . S
C257 C256 1.391 . S
C257 C261 1.376 . S
C258 C256 1.394 . S
C258 C259 1.369 . S
C258 C262 1.531 . S
C259 C258 1.369 . S
C259 C260 1.410 . S
C259 C267 1.503 . S
C260 C259 1.410 . S
C260 C261 1.392 . S
C260 C263 1.511 . S
C261 C257 1.376 . S
C261 C260 1.392 . S
C261 H273 0.929 . S
C262 C258 1.531 . S
C262 H274 0.960 . S
C262 H275 0.962 . S
C262 H276 0.960 . S
C263 C260 1.511 . S
C263 H277 0.961 . S
C263 H278 0.961 . S
C263 H279 0.961 . S
C264 C265 1.370 . S
C264 C266 1.363 . S
C264 H280 0.931 . S
C265 C264 1.370 . S
C265 C269 1.408 . S
C266 C264 1.363 . S
C266 C267 1.370 . S
C266 C270 1.524 . S
C267 C259 1.503 . S
C267 C266 1.370 . S
C267 C268 1.403 . S
C268 C267 1.403 . S
C268 C269 1.404 . S
C268 C271 1.539 . S
C269 C265 1.408 . S
C269 C268 1.404 . S
C269 H281 0.930 . S
C270 C266 1.524 . S
C270 H282 0.956 . S
C270 H283 0.961 . S
C270 H284 0.961 . S
C271 C268 1.539 . S
C271 H285 0.958 . S
C271 H286 0.961 . S
C271 H287 0.960 . S
H272 C256 0.931 . S
H273 C261 0.929 . S
H274 C262 0.960 . S
H275 C262 0.962 . S
H276 C262 0.960 . S
H277 C263 0.961 . S
H278 C263 0.961 . S
H279 C263 0.961 . S
H280 C264 0.931 . S
H281 C269 0.930 . S
H282 C270 0.956 . S
H283 C270 0.961 . S
H284 C270 0.961 . S
H285 C271 0.958 . S
H286 C271 0.961 . S
H287 C271 0.960 . S
C288 C289 1.391 . S
C288 C290 1.394 . S
C288 H304 0.931 . S
C289 C288 1.391 . S
C289 C293 1.376 . S
C290 C288 1.394 . S
C290 C291 1.369 . S
C290 C294 1.531 . S
C291 C290 1.369 . S
C291 C292 1.410 . S
C291 C299 1.503 . S
C292 C291 1.410 . S
C292 C293 1.392 . S
C292 C295 1.511 . S
C293 C289 1.376 . S
C293 C292 1.392 . S
C293 H305 0.929 . S
C294 C290 1.531 . S
C294 H306 0.960 . S
C294 H307 0.962 . S
C294 H308 0.960 . S
C295 C292 1.511 . S
C295 H309 0.961 . S
C295 H310 0.961 . S
C295 H311 0.961 . S
C296 C297 1.370 . S
C296 C298 1.363 . S
C296 H312 0.931 . S
C297 C296 1.370 . S
C297 C301 1.408 . S
C298 C296 1.363 . S
C298 C299 1.370 . S
C298 C302 1.524 . S
C299 C291 1.503 . S
C299 C298 1.370 . S
C299 C300 1.403 . S
C300 C299 1.403 . S
C300 C301 1.404 . S
C300 C303 1.539 . S
C301 C297 1.408 . S
C301 C300 1.404 . S
C301 H313 0.930 . S
C302 C298 1.524 . S
C302 H314 0.956 . S
C302 H315 0.961 . S
C302 H316 0.961 . S
C303 C300 1.539 . S
C303 H317 0.958 . S
C303 H318 0.961 . S
C303 H319 0.960 . S
H304 C288 0.931 . S
H305 C293 0.929 . S
H306 C294 0.960 . S
H307 C294 0.962 . S
H308 C294 0.960 . S
H309 C295 0.961 . S
H310 C295 0.961 . S
H311 C295 0.961 . S
H312 C296 0.931 . S
H313 C301 0.930 . S
H314 C302 0.956 . S
H315 C302 0.961 . S
H316 C302 0.961 . S
H317 C303 0.958 . S
H318 C303 0.961 . S
H319 C303 0.960 . S
C320 C321 1.391 . S
C320 C322 1.394 . S
C320 H336 0.931 . S
C321 C320 1.391 . S
C321 C325 1.376 . S
C322 C320 1.394 . S
C322 C323 1.369 . S
C322 C326 1.531 . S
C323 C322 1.369 . S
C323 C324 1.410 . S
C323 C331 1.503 . S
C324 C323 1.410 . S
C324 C325 1.392 . S
C324 C327 1.511 . S
C325 C321 1.376 . S
C325 C324 1.392 . S
C325 H337 0.929 . S
C326 C322 1.531 . S
C326 H338 0.960 . S
C326 H339 0.962 . S
C326 H340 0.960 . S
C327 C324 1.511 . S
C327 H341 0.961 . S
C327 H342 0.961 . S
C327 H343 0.961 . S
C328 C329 1.370 . S
C328 C330 1.363 . S
C328 H344 0.931 . S
C329 C328 1.370 . S
C329 C333 1.408 . S
C330 C328 1.363 . S
C330 C331 1.370 . S
C330 C334 1.524 . S
C331 C323 1.503 . S
C331 C330 1.370 . S
C331 C332 1.403 . S
C332 C331 1.403 . S
C332 C333 1.404 . S
C332 C335 1.539 . S
C333 C329 1.408 . S
C333 C332 1.404 . S
C333 H345 0.930 . S
C334 C330 1.524 . S
C334 H346 0.956 . S
C334 H347 0.961 . S
C334 H348 0.961 . S
C335 C332 1.539 . S
C335 H349 0.958 . S
C335 H350 0.961 . S
C335 H351 0.960 . S
H336 C320 0.931 . S
H337 C325 0.929 . S
H338 C326 0.960 . S
H339 C326 0.962 . S
H340 C326 0.960 . S
H341 C327 0.961 . S
H342 C327 0.961 . S
H343 C327 0.961 . S
H344 C328 0.931 . S
H345 C333 0.930 . S
H346 C334 0.956 . S
H347 C334 0.961 . S
H348 C334 0.961 . S
H349 C335 0.958 . S
H350 C335 0.961 . S
H351 C335 0.960 . S
C352 C353 1.391 . S
C352 C354 1.394 . S
C352 H368 0.931 . S
C353 C352 1.391 . S
C353 C357 1.376 . S
C354 C352 1.394 . S
C354 C355 1.369 . S
C354 C358 1.531 . S
C355 C354 1.369 . S
C355 C356 1.410 . S
C355 C363 1.503 . S
C356 C355 1.410 . S
C356 C357 1.392 . S
C356 C359 1.511 . S
C357 C353 1.376 . S
C357 C356 1.392 . S
C357 H369 0.929 . S
C358 C354 1.531 . S
C358 H370 0.960 . S
C358 H371 0.962 . S
C358 H372 0.960 . S
C359 C356 1.511 . S
C359 H373 0.961 . S
C359 H374 0.961 . S
C359 H375 0.961 . S
C360 C361 1.370 . S
C360 C362 1.363 . S
C360 H376 0.931 . S
C361 C360 1.370 . S
C361 C365 1.408 . S
C362 C360 1.363 . S
C362 C363 1.370 . S
C362 C366 1.524 . S
C363 C355 1.503 . S
C363 C362 1.370 . S
C363 C364 1.403 . S
C364 C363 1.403 . S
C364 C365 1.404 . S
C364 C367 1.539 . S
C365 C361 1.408 . S
C365 C364 1.404 . S
C365 H377 0.930 . S
C366 C362 1.524 . S
C366 H378 0.956 . S
C366 H379 0.961 . S
C366 H380 0.961 . S
C367 C364 1.539 . S
C367 H381 0.958 . S
C367 H382 0.961 . S
C367 H383 0.960 . S
H368 C352 0.931 . S
H369 C357 0.929 . S
H370 C358 0.960 . S
H371 C358 0.962 . S
H372 C358 0.960 . S
H373 C359 0.961 . S
H374 C359 0.961 . S
H375 C359 0.961 . S
H376 C360 0.931 . S
H377 C365 0.930 . S
H378 C366 0.956 . S
H379 C366 0.961 . S
H380 C366 0.961 . S
H381 C367 0.958 . S
H382 C367 0.961 . S
H383 C367 0.960 . S
C384 C385 1.391 . S
C384 C386 1.394 . S
C384 H400 0.931 . S
C385 C384 1.391 . S
C385 C389 1.376 . S
C386 C384 1.394 . S
C386 C387 1.369 . S
C386 C390 1.531 . S
C387 C386 1.369 . S
C387 C388 1.410 . S
C387 C395 1.503 . S
C388 C387 1.410 . S
C388 C389 1.392 . S
C388 C391 1.511 . S
C389 C385 1.376 . S
C389 C388 1.392 . S
C389 H401 0.929 . S
C390 C386 1.531 . S
C390 H402 0.960 . S
C390 H403 0.962 . S
C390 H404 0.960 . S
C391 C388 1.511 . S
C391 H405 0.961 . S
C391 H406 0.961 . S
C391 H407 0.961 . S
C392 C393 1.370 . S
C392 C394 1.363 . S
C392 H408 0.931 . S
C393 C392 1.370 . S
C393 C397 1.408 . S
C394 C392 1.363 . S
C394 C395 1.370 . S
C394 C398 1.524 . S
C395 C387 1.503 . S
C395 C394 1.370 . S
C395 C396 1.403 . S
C396 C395 1.403 . S
C396 C397 1.404 . S
C396 C399 1.539 . S
C397 C393 1.408 . S
C397 C396 1.404 . S
C397 H409 0.930 . S
C398 C394 1.524 . S
C398 H410 0.956 . S
C398 H411 0.961 . S
C398 H412 0.961 . S
C399 C396 1.539 . S
C399 H413 0.958 . S
C399 H414 0.961 . S
C399 H415 0.960 . S
H400 C384 0.931 . S
H401 C389 0.929 . S
H402 C390 0.960 . S
H403 C390 0.962 . S
H404 C390 0.960 . S
H405 C391 0.961 . S
H406 C391 0.961 . S
H407 C391 0.961 . S
H408 C392 0.931 . S
H409 C397 0.930 . S
H410 C398 0.956 . S
H411 C398 0.961 . S
H412 C398 0.961 . S
H413 C399 0.958 . S
H414 C399 0.961 . S
H415 C399 0.960 . S
C416 C417 1.391 . S
C416 C418 1.394 . S
C416 H432 0.931 . S
C417 C416 1.391 . S
C417 C421 1.376 . S
C418 C416 1.394 . S
C418 C419 1.369 . S
C418 C422 1.531 . S
C419 C418 1.369 . S
C419 C420 1.410 . S
C419 C427 1.503 . S
C420 C419 1.410 . S
C420 C421 1.392 . S
C420 C423 1.511 . S
C421 C417 1.376 . S
C421 C420 1.392 . S
C421 H433 0.929 . S
C422 C418 1.531 . S
C422 H434 0.960 . S
C422 H435 0.962 . S
C422 H436 0.960 . S
C423 C420 1.511 . S
C423 H437 0.961 . S
C423 H438 0.961 . S
C423 H439 0.961 . S
C424 C425 1.370 . S
C424 C426 1.363 . S
C424 H440 0.931 . S
C425 C424 1.370 . S
C425 C429 1.408 . S
C426 C424 1.363 . S
C426 C427 1.370 . S
C426 C430 1.524 . S
C427 C419 1.503 . S
C427 C426 1.370 . S
C427 C428 1.403 . S
C428 C427 1.403 . S
C428 C429 1.404 . S
C428 C431 1.539 . S
C429 C425 1.408 . S
C429 C428 1.404 . S
C429 H441 0.930 . S
C430 C426 1.524 . S
C430 H442 0.956 . S
C430 H443 0.961 . S
C430 H444 0.961 . S
C431 C428 1.539 . S
C431 H445 0.958 . S
C431 H446 0.961 . S
C431 H447 0.960 . S
H432 C416 0.931 . S
H433 C421 0.929 . S
H434 C422 0.960 . S
H435 C422 0.962 . S
H436 C422 0.960 . S
H437 C423 0.961 . S
H438 C423 0.961 . S
H439 C423 0.961 . S
H440 C424 0.931 . S
H441 C429 0.930 . S
H442 C430 0.956 . S
H443 C430 0.961 . S
H444 C430 0.961 . S
H445 C431 0.958 . S
H446 C431 0.961 . S
H447 C431 0.960 . S
C448 C449 1.391 . S
C448 C450 1.394 . S
C448 H464 0.931 . S
C449 C448 1.391 . S
C449 C453 1.376 . S
C450 C448 1.394 . S
C450 C451 1.369 . S
C450 C454 1.531 . S
C451 C450 1.369 . S
C451 C452 1.410 . S
C451 C459 1.503 . S
C452 C451 1.410 . S
C452 C453 1.392 . S
C452 C455 1.511 . S
C453 C449 1.376 . S
C453 C452 1.392 . S
C453 H465 0.929 . S
C454 C450 1.531 . S
C454 H466 0.960 . S
C454 H467 0.962 . S
C454 H468 0.960 . S
C455 C452 1.511 . S
C455 H469 0.961 . S
C455 H470 0.961 . S
C455 H471 0.961 . S
C456 C457 1.370 . S
C456 C458 1.363 . S
C456 H472 0.931 . S
C457 C456 1.370 . S
C457 C461 1.408 . S
C458 C456 1.363 . S
C458 C459 1.370 . S
C458 C462 1.524 . S
C459 C451 1.503 . S
C459 C458 1.370 . S
C459 C460 1.403 . S
C460 C459 1.403 . S
C460 C461 1.404 . S
C460 C463 1.539 . S
C461 C457 1.408 . S
C461 C460 1.404 . S
C461 H473 0.930 . S
C462 C458 1.524 . S
C462 H474 0.956 . S
C462 H475 0.961 . S
C462 H476 0.961 . S
C463 C460 1.539 . S
C463 H477 0.958 . S
C463 H478 0.961 . S
C463 H479 0.960 . S
H464 C448 0.931 . S
H465 C453 0.929 . S
H466 C454 0.960 . S
H467 C454 0.962 . S
H468 C454 0.960 . S
H469 C455 0.961 . S
H470 C455 0.961 . S
H471 C455 0.961 . S
H472 C456 0.931 . S
H473 C461 0.930 . S
H474 C462 0.956 . S
H475 C462 0.961 . S
H476 C462 0.961 . S
H477 C463 0.958 . S
H478 C463 0.961 . S
H479 C463 0.960 . S
C480 C481 1.391 . S
C480 C482 1.394 . S
C480 H496 0.931 . S
C481 C480 1.391 . S
C481 C485 1.376 . S
C482 C480 1.394 . S
C482 C483 1.369 . S
C482 C486 1.531 . S
C483 C482 1.369 . S
C483 C484 1.410 . S
C483 C491 1.503 . S
C484 C483 1.410 . S
C484 C485 1.392 . S
C484 C487 1.511 . S
C485 C481 1.376 . S
C485 C484 1.392 . S
C485 H497 0.929 . S
C486 C482 1.531 . S
C486 H498 0.960 . S
C486 H499 0.962 . S
C486 H500 0.960 . S
C487 C484 1.511 . S
C487 H501 0.961 . S
C487 H502 0.961 . S
C487 H503 0.961 . S
C488 C489 1.370 . S
C488 C490 1.363 . S
C488 H504 0.931 . S
C489 C488 1.370 . S
C489 C493 1.408 . S
C490 C488 1.363 . S
C490 C491 1.370 . S
C490 C494 1.524 . S
C491 C483 1.503 . S
C491 C490 1.370 . S
C491 C492 1.403 . S
C492 C491 1.403 . S
C492 C493 1.404 . S
C492 C495 1.539 . S
C493 C489 1.408 . S
C493 C492 1.404 . S
C493 H505 0.930 . S
C494 C490 1.524 . S
C494 H506 0.956 . S
C494 H507 0.961 . S
C494 H508 0.961 . S
C495 C492 1.539 . S
C495 H509 0.958 . S
C495 H510 0.961 . S
C495 H511 0.960 . S
H496 C480 0.931 . S
H497 C485 0.929 . S
H498 C486 0.960 . S
H499 C486 0.962 . S
H500 C486 0.960 . S
H501 C487 0.961 . S
H502 C487 0.961 . S
H503 C487 0.961 . S
H504 C488 0.931 . S
H505 C493 0.930 . S
H506 C494 0.956 . S
H507 C494 0.961 . S
H508 C494 0.961 . S
H509 C495 0.958 . S
H510 C495 0.961 . S
H511 C495 0.960 . S
C129 N82 2.604 1_556 S
C137 N13 2.605 . S
C161 N114 2.587 . S
C169 N45 2.609 . S
C193 N77 1.044 1_554 S
C201 N18 1.081 . S
C225 N50 1.044 . S
C233 N109 1.070 . S
C257 C36 1.737 . S
C265 C6 1.758 . S
C289 C38 2.107 . S
C297 C66 2.113 . S
C321 C98 1.740 . S
C329 C93 1.756 . S
C353 C125 1.464 . S
C361 C4 1.453 . S
C385 C68 1.859 . S
C393 C102 1.872 . S
C417 C29 2.044 . S
C425 C100 2.042 . S
C449 C61 1.852 . S
C457 C2 1.888 . S
C481 C70 1.750 . S
C489 C34 1.742 . S
