# Generated by pormake.
# Topology xfk, (7)-cn, num edge types: 1
# Building blocks:
#     Node 0, Type 0, BuildingBlock: HICVOG_clean_sbu_0, # of connection points: 7
#     Node 1, Type 0, BuildingBlock: HICVOG_clean_sbu_0, # of connection points: 7
#     Node 2, Type 0, BuildingBlock: HICVOG_clean_sbu_0, # of connection points: 7
#     Node 3, Type 0, BuildingBlock: HICVOG_clean_sbu_0, # of connection points: 7
#     Node 4, Type 0, BuildingBlock: HICVOG_clean_sbu_0, # of connection points: 7
#     Node 5, Type 0, BuildingBlock: HICVOG_clean_sbu_0, # of connection points: 7
#     Node 6, Type 0, BuildingBlock: HICVOG_clean_sbu_0, # of connection points: 7
#     Node 7, Type 0, BuildingBlock: HICVOG_clean_sbu_0, # of connection points: 7
#     Node 8, Type 0, BuildingBlock: HICVOG_clean_sbu_0, # of connection points: 7
#     Node 9, Type 0, BuildingBlock: HICVOG_clean_sbu_0, # of connection points: 7
#     Node 10, Type 0, BuildingBlock: HICVOG_clean_sbu_0, # of connection points: 7
#     Node 11, Type 0, BuildingBlock: HICVOG_clean_sbu_0, # of connection points: 7
#     Node 12, Type 0, BuildingBlock: HICVOG_clean_sbu_0, # of connection points: 7
#     Node 13, Type 0, BuildingBlock: HICVOG_clean_sbu_0, # of connection points: 7
#     Node 14, Type 0, BuildingBlock: HICVOG_clean_sbu_0, # of connection points: 7
#     Node 15, Type 0, BuildingBlock: HICVOG_clean_sbu_0, # of connection points: 7
#     Edge 16, Type (0, 0), BuildingBlock: OJICUG_clean_linker_0, # of connection points: 2
#     Edge 17, Type (0, 0), BuildingBlock: OJICUG_clean_linker_0, # of connection points: 2
#     Edge 18, Type (0, 0), BuildingBlock: OJICUG_clean_linker_0, # of connection points: 2
#     Edge 19, Type (0, 0), BuildingBlock: OJICUG_clean_linker_0, # of connection points: 2
#     Edge 20, Type (0, 0), BuildingBlock: OJICUG_clean_linker_0, # of connection points: 2
#     Edge 21, Type (0, 0), BuildingBlock: OJICUG_clean_linker_0, # of connection points: 2
#     Edge 22, Type (0, 0), BuildingBlock: OJICUG_clean_linker_0, # of connection points: 2
#     Edge 23, Type (0, 0), BuildingBlock: OJICUG_clean_linker_0, # of connection points: 2
#     Edge 24, Type (0, 0), BuildingBlock: OJICUG_clean_linker_0, # of connection points: 2
#     Edge 25, Type (0, 0), BuildingBlock: OJICUG_clean_linker_0, # of connection points: 2
#     Edge 26, Type (0, 0), BuildingBlock: OJICUG_clean_linker_0, # of connection points: 2
#     Edge 27, Type (0, 0), BuildingBlock: OJICUG_clean_linker_0, # of connection points: 2
#     Edge 28, Type (0, 0), BuildingBlock: OJICUG_clean_linker_0, # of connection points: 2
#     Edge 29, Type (0, 0), BuildingBlock: OJICUG_clean_linker_0, # of connection points: 2
#     Edge 30, Type (0, 0), BuildingBlock: OJICUG_clean_linker_0, # of connection points: 2
#     Edge 31, Type (0, 0), BuildingBlock: OJICUG_clean_linker_0, # of connection points: 2
#     Edge 32, Type (0, 0), BuildingBlock: OJICUG_clean_linker_0, # of connection points: 2
#     Edge 33, Type (0, 0), BuildingBlock: OJICUG_clean_linker_0, # of connection points: 2
#     Edge 34, Type (0, 0), BuildingBlock: OJICUG_clean_linker_0, # of connection points: 2
#     Edge 35, Type (0, 0), BuildingBlock: OJICUG_clean_linker_0, # of connection points: 2
#     Edge 36, Type (0, 0), BuildingBlock: OJICUG_clean_linker_0, # of connection points: 2
#     Edge 37, Type (0, 0), BuildingBlock: OJICUG_clean_linker_0, # of connection points: 2
#     Edge 38, Type (0, 0), BuildingBlock: OJICUG_clean_linker_0, # of connection points: 2
#     Edge 39, Type (0, 0), BuildingBlock: OJICUG_clean_linker_0, # of connection points: 2
#     Edge 40, Type (0, 0), BuildingBlock: OJICUG_clean_linker_0, # of connection points: 2
#     Edge 41, Type (0, 0), BuildingBlock: OJICUG_clean_linker_0, # of connection points: 2
#     Edge 42, Type (0, 0), BuildingBlock: OJICUG_clean_linker_0, # of connection points: 2
#     Edge 43, Type (0, 0), BuildingBlock: OJICUG_clean_linker_0, # of connection points: 2
#     Edge 44, Type (0, 0), BuildingBlock: OJICUG_clean_linker_0, # of connection points: 2
#     Edge 45, Type (0, 0), BuildingBlock: OJICUG_clean_linker_0, # of connection points: 2
#     Edge 46, Type (0, 0), BuildingBlock: OJICUG_clean_linker_0, # of connection points: 2
#     Edge 47, Type (0, 0), BuildingBlock: OJICUG_clean_linker_0, # of connection points: 2
#     Edge 48, Type (0, 0), BuildingBlock: OJICUG_clean_linker_0, # of connection points: 2
#     Edge 49, Type (0, 0), BuildingBlock: OJICUG_clean_linker_0, # of connection points: 2
#     Edge 50, Type (0, 0), BuildingBlock: OJICUG_clean_linker_0, # of connection points: 2
#     Edge 51, Type (0, 0), BuildingBlock: OJICUG_clean_linker_0, # of connection points: 2
#     Edge 52, Type (0, 0), BuildingBlock: OJICUG_clean_linker_0, # of connection points: 2
#     Edge 53, Type (0, 0), BuildingBlock: OJICUG_clean_linker_0, # of connection points: 2
#     Edge 54, Type (0, 0), BuildingBlock: OJICUG_clean_linker_0, # of connection points: 2
#     Edge 55, Type (0, 0), BuildingBlock: OJICUG_clean_linker_0, # of connection points: 2
#     Edge 56, Type (0, 0), BuildingBlock: OJICUG_clean_linker_0, # of connection points: 2
#     Edge 57, Type (0, 0), BuildingBlock: OJICUG_clean_linker_0, # of connection points: 2
#     Edge 58, Type (0, 0), BuildingBlock: OJICUG_clean_linker_0, # of connection points: 2
#     Edge 59, Type (0, 0), BuildingBlock: OJICUG_clean_linker_0, # of connection points: 2
#     Edge 60, Type (0, 0), BuildingBlock: OJICUG_clean_linker_0, # of connection points: 2
#     Edge 61, Type (0, 0), BuildingBlock: OJICUG_clean_linker_0, # of connection points: 2
#     Edge 62, Type (0, 0), BuildingBlock: OJICUG_clean_linker_0, # of connection points: 2
#     Edge 63, Type (0, 0), BuildingBlock: OJICUG_clean_linker_0, # of connection points: 2
#     Edge 64, Type (0, 0), BuildingBlock: OJICUG_clean_linker_0, # of connection points: 2
#     Edge 65, Type (0, 0), BuildingBlock: OJICUG_clean_linker_0, # of connection points: 2
#     Edge 66, Type (0, 0), BuildingBlock: OJICUG_clean_linker_0, # of connection points: 2
#     Edge 67, Type (0, 0), BuildingBlock: OJICUG_clean_linker_0, # of connection points: 2
#     Edge 68, Type (0, 0), BuildingBlock: OJICUG_clean_linker_0, # of connection points: 2
#     Edge 69, Type (0, 0), BuildingBlock: OJICUG_clean_linker_0, # of connection points: 2
#     Edge 70, Type (0, 0), BuildingBlock: OJICUG_clean_linker_0, # of connection points: 2
#     Edge 71, Type (0, 0), BuildingBlock: OJICUG_clean_linker_0, # of connection points: 2
# Relax obj value: 0.552
# Max RMSD: 0.291
# Mean RMSD: 0.291
data_MOF--net-xfk--node1-HICVOG_clean_sbu_0--edge1-OJICUG_clean_linker_0
_symmetry_space_group_name_H-M    P1
_symmetry_Int_Tables_number       1
_symmetry_cell_setting            triclinic
loop_
_symmetry_equiv_pos_as_xyz
'x, y, z'
_cell_length_a     28.995536
_cell_length_b     28.968803
_cell_length_c     25.236523
_cell_angle_alpha  90.097283
_cell_angle_beta   90.075381
_cell_angle_gamma 89.771414
loop_
_atom_site_label
_atom_site_type_symbol
_atom_site_fract_x
_atom_site_fract_y
_atom_site_fract_z
_atom_type_partial_charge
Zn0 Zn 0.30905 1.03469 0.18992 0.0
C1 C 0.25187 0.10734 1.06608 0.0
N2 N 0.29207 0.12586 1.05219 0.0
C3 C 0.32253 0.11 1.08783 0.0
N4 N 0.29984 0.07978 0.12406 0.0
N5 N 0.25525 0.08107 0.11012 0.0
C6 C 0.18921 0.99461 1.07047 0.0
O7 O 0.23138 0.99349 1.08952 0.0
O8 O 0.33226 0.07758 0.24475 0.0
Zn9 Zn 0.19672 0.05658 0.14544 0.0
N10 N 0.36229 0.99713 0.17414 0.0
C11 C 0.39845 0.92369 0.16656 0.0
C12 C 0.35864 0.95046 0.1718 0.0
C13 C 0.40394 1.01832 0.17039 0.0
N14 N 0.44018 0.94475 0.16391 0.0
C15 C 0.44426 0.99158 0.16515 0.0
O16 O 0.18945 1.00267 0.19986 0.0
C17 C 0.21303 0.97881 0.23231 0.0
O18 O 0.25721 0.98664 0.23294 0.0
H19 H 0.32524 0.93426 0.17534 0.0
H20 H 0.40548 0.05551 0.17387 0.0
C21 C 0.14178 0.14307 0.16013 0.0
C22 C 0.12082 0.17634 0.19339 0.0
C23 C 0.14636 0.13476 0.26867 0.0
C24 C 0.16756 0.10252 0.23596 0.0
N25 N 0.16484 0.10682 0.18234 0.0
N26 N 0.12355 0.17081 0.2468 0.0
H27 H 0.13906 0.14554 0.11757 0.0
C28 C 0.3104 0.11541 0.24686 0.0
O29 O 0.26979 0.11803 0.22399 0.0
O30 O 0.16121 1.02521 1.08746 0.0
H31 H 0.18658 0.07436 0.25356 0.0
H32 H 0.39631 0.88644 0.16526 0.0
H33 H 0.14842 0.13135 0.31115 0.0
Zn34 Zn 0.19436 0.63947 1.00345 0.0
C35 C 0.16177 0.62165 0.15955 0.0
N36 N 0.19472 0.58999 0.16801 0.0
C37 C 0.21547 0.58372 0.12101 0.0
N38 N 0.19406 0.61269 1.08251 0.0
N39 N 0.16023 0.63491 0.10817 0.0
C40 C 0.04465 0.73319 0.11951 0.0
O41 O 1.02458 0.70611 1.08477 0.0
O42 O 0.25637 0.66634 0.99287 0.0
Zn43 Zn 0.1279 0.69153 1.07849 0.0
N44 N 0.18709 0.58852 0.95538 0.0
C45 C 0.21078 0.52803 0.89749 0.0
C46 C 0.22149 0.56174 0.93531 0.0
C47 C 0.14296 0.58351 0.93891 0.0
N48 N 0.16633 0.523 0.88107 0.0
C49 C 0.13206 0.55055 0.90035 0.0
O50 O 0.08548 0.69 1.01111 0.0
C51 C 0.10411 0.70552 0.96933 0.0
O52 O 0.14738 0.69492 0.96389 0.0
H53 H 0.25673 0.5667 0.94806 0.0
H54 H 0.11652 0.60494 0.95661 0.0
C55 C 0.1612 0.77692 1.04493 0.0
C56 C 0.1934 0.81196 1.03679 0.0
C57 C 0.2526 0.76235 1.0687 0.0
C58 C 0.22019 0.72795 1.07776 0.0
N59 N 0.1754 0.73559 1.06442 0.0
N60 N 0.2385 0.80347 1.04862 0.0
H61 H 0.12489 0.78262 1.03727 0.0
C62 C 0.29392 0.64994 1.01052 0.0
O63 O 0.29425 0.60959 1.03398 0.0
O64 O 0.08763 0.72841 0.12873 0.0
H65 H 0.2307 0.69576 1.09562 0.0
H66 H 0.23757 0.50614 0.8812 0.0
H67 H 0.28844 0.75696 1.07897 0.0
Zn68 Zn 0.87431 1.01608 0.14599 0.0
C69 C 0.74835 0.96277 1.0884 0.0
N70 N 0.77865 0.94687 1.05262 0.0
C71 C 0.81892 0.96532 1.06656 0.0
N72 N 0.81573 0.99155 0.11073 0.0
N73 N 0.77119 0.99289 0.12472 0.0
C74 C 0.76157 0.95665 0.24713 0.0
O75 O 0.80189 0.95388 0.22373 0.0
O76 O 0.9098 0.04729 1.0881 0.0
Zn77 Zn 0.76203 0.03775 0.19076 0.0
N78 N 0.90638 0.96611 0.18314 0.0
C79 C 0.92568 0.93892 0.26951 0.0
C80 C 0.9041 0.97084 0.23675 0.0
C81 C 0.92932 0.92972 0.16099 0.0
N82 N 0.94837 0.90273 0.24769 0.0
C83 C 0.95062 0.89675 0.19431 0.0
O84 O 0.8136 0.08643 0.23328 0.0
C85 C 0.85777 0.09423 0.23251 0.0
O86 O 0.88125 0.07018 0.20017 0.0
H87 H 0.88518 0.99909 0.25432 0.0
H88 H 0.9317 0.92692 0.11843 0.0
C89 C 0.66714 0.05123 0.17133 0.0
C90 C 0.62571 0.07632 0.16616 0.0
C91 C 0.66899 0.14596 0.1674 0.0
C92 C 0.70974 0.12081 0.17351 0.0
N93 N 0.70786 0.07406 0.17562 0.0
N94 N 0.62814 0.12326 0.16426 0.0
H95 H 0.66755 1.01395 0.17249 0.0
C96 C 0.88185 0.0779 1.07107 0.0
O97 O 0.83967 0.07911 1.08999 0.0
O98 O 0.73994 0.99463 0.24572 0.0
H99 H 0.74246 0.1383 0.17738 0.0
H100 H 0.92403 0.9427 0.31199 0.0
H101 H 0.66969 0.18327 0.16578 0.0
Zn102 Zn 0.87678 0.43306 1.00258 0.0
C103 C 0.90939 0.451 0.15886 0.0
N104 N 0.87644 0.48267 0.16729 0.0
C105 C 0.85569 0.48889 0.12024 0.0
N106 N 0.87711 0.4599 1.08173 0.0
N107 N 0.91093 0.4377 0.10743 0.0
C108 C 1.02658 0.33965 0.11875 0.0
O109 O 0.04657 0.36669 1.08407 0.0
O110 O 0.81478 0.40619 0.9918 0.0
Zn111 Zn 0.94325 0.38108 1.07767 0.0
N112 N 0.88405 0.48396 0.95464 0.0
C113 C 0.86034 0.54442 0.89689 0.0
C114 C 0.84964 0.51073 0.93457 0.0
C115 C 0.92817 0.48894 0.93829 0.0
N116 N 0.90479 0.54944 0.88061 0.0
C117 C 0.93907 0.52189 0.89988 0.0
O118 O 0.98561 0.38259 1.0104 0.0
C119 C 0.96697 0.367 0.96854 0.0
O120 O 0.92369 0.37756 0.96301 0.0
H121 H 0.81441 0.50578 0.94721 0.0
H122 H 0.95463 0.46751 0.95598 0.0
C123 C 0.91 0.29548 1.04418 0.0
C124 C 0.8778 0.26037 1.03616 0.0
C125 C 0.81859 0.31018 1.06764 0.0
C126 C 0.851 0.34464 1.07664 0.0
N127 N 0.89579 0.33693 1.06347 0.0
N128 N 0.8327 0.26893 1.04781 0.0
H129 H 0.94631 0.28974 1.03665 0.0
C130 C 0.77726 0.42268 1.00938 0.0
O131 O 0.77698 0.46312 1.03279 0.0
O132 O 0.98362 0.3444 0.12794 0.0
H133 H 0.84048 0.37693 1.09435 0.0
H134 H 0.83355 0.5663 0.88059 0.0
H135 H 0.78276 0.31562 1.0778 0.0
Zn136 Zn 0.38017 0.44393 0.32849 0.0
C137 C 0.48796 0.35635 0.37117 0.0
N138 N 0.4816 0.37706 0.41824 0.0
C139 C 0.44991 0.40999 0.40978 0.0
N140 N 0.4367 0.41152 0.35834 0.0
N141 N 0.45905 0.37778 0.33262 0.0
C142 C 0.42193 0.27787 0.26035 0.0
O143 O 0.46229 0.27766 0.28385 0.0
O144 O 0.3433 0.48424 0.37871 0.0
Zn145 Zn 0.43232 0.37744 0.25344 0.0
N146 N 0.33608 0.39645 0.3141 0.0
C147 C 0.30924 0.31922 0.31809 0.0
C148 C 0.3437 0.3516 0.32723 0.0
C149 C 0.29473 0.41074 0.29473 0.0
N150 N 0.26809 0.33341 0.29818 0.0
C151 C 0.25964 0.37858 0.28656 0.0
O152 O 0.3769 0.42441 0.21383 0.0
C153 C 0.36627 0.46772 0.21939 0.0
O154 O 0.38177 0.48638 0.26128 0.0
H155 H 0.37591 0.34103 0.34501 0.0
H156 H 0.28907 0.4471 0.28725 0.0
C157 C 0.48819 0.42871 0.189 0.0
C158 C 0.52105 0.43949 0.15046 0.0
C159 C 0.54354 0.36068 0.14771 0.0
C160 C 0.50992 0.35009 0.1855 0.0
N161 N 0.48321 0.3846 0.20552 0.0
N162 N 0.54853 0.40511 0.13125 0.0
H163 H 0.4668 0.45524 0.20664 0.0
C164 C 0.33844 0.52725 0.36961 0.0
O165 O 0.36546 0.54737 0.33503 0.0
O166 O 0.40547 0.31539 0.24267 0.0
H167 H 0.50497 0.31487 0.19826 0.0
H168 H 0.31461 0.28334 0.32821 0.0
H169 H 0.56537 0.3338 0.13147 0.0
Zn170 Zn 0.53696 0.76313 0.94015 0.0
C171 C 0.4647 0.82027 0.81599 0.0
N172 N 0.44614 0.78001 0.80209 0.0
C173 C 0.46194 0.74967 0.83787 0.0
N174 N 0.49211 0.77245 0.87418 0.0
N175 N 0.49091 0.81702 0.86015 0.0
C176 C 0.57728 0.88308 0.82082 0.0
O177 O 0.57844 0.84091 0.83985 0.0
O178 O 0.49402 0.73989 0.9947 0.0
Zn179 Zn 0.51535 0.8756 0.89555 0.0
N180 N 0.5745 0.70988 0.92426 0.0
C181 C 0.64788 0.67378 0.9164 0.0
C182 C 0.6211 0.71359 0.92182 0.0
C183 C 0.55336 0.66817 0.92045 0.0
N184 N 0.62687 0.63198 0.91369 0.0
C185 C 0.5801 0.62784 0.91504 0.0
O186 O 0.5692 0.88272 0.95006 0.0
C187 C 0.59292 0.85913 0.98261 0.0
O188 O 0.58496 0.81495 0.98329 0.0
H189 H 0.63727 0.74705 0.92539 0.0
H190 H 0.51622 0.66659 0.92402 0.0
C191 C 0.42889 0.93043 0.91025 0.0
C192 C 0.39558 0.95126 0.94351 0.0
C193 C 0.4372 0.92571 1.0188 0.0
C194 C 0.46948 0.90463 0.98608 0.0
N195 N 0.46518 0.90743 0.93247 0.0
N196 N 0.40112 0.94846 0.99692 0.0
H197 H 0.42641 0.93319 0.86769 0.0
C198 C 0.45615 0.76166 0.99667 0.0
O199 O 0.4534 0.80223 0.9738 0.0
O200 O 0.54668 0.91111 0.83774 0.0
H201 H 0.49765 0.88562 1.00368 0.0
H202 H 0.68509 0.67596 0.915 0.0
H203 H 0.4406 0.92359 1.06127 0.0
Zn204 Zn 0.63877 0.69506 0.25268 0.0
C205 C 0.62105 0.66251 0.40884 0.0
N206 N 0.58938 0.69547 0.41728 0.0
C207 C 0.58308 0.71617 0.37026 0.0
N208 N 0.61203 0.69474 0.33176 0.0
N209 N 0.63427 0.66093 0.35743 0.0
C210 C 0.73226 0.54527 0.36866 0.0
O211 O 0.70525 0.52522 0.33384 0.0
O212 O 0.6656 0.7571 0.24212 0.0
Zn213 Zn 0.69082 0.62862 0.3277 0.0
N214 N 0.58788 0.68775 0.20464 0.0
C215 C 0.52738 0.71141 0.14685 0.0
C216 C 0.56112 0.72217 0.18458 0.0
C217 C 0.58285 0.64356 0.18823 0.0
N218 N 0.5223 0.6669 0.13053 0.0
C219 C 0.54983 0.63261 0.14979 0.0
O220 O 0.68935 0.58618 0.26029 0.0
C221 C 0.70485 0.60485 0.21852 0.0
O222 O 0.69422 0.64814 0.21308 0.0
H223 H 0.5661 0.75745 0.19728 0.0
H224 H 0.60427 0.6171 0.20591 0.0
C225 C 0.77626 0.66197 0.2944 0.0
C226 C 0.81127 0.69424 0.28647 0.0
C227 C 0.76156 0.75344 0.31823 0.0
C228 C 0.72719 0.72097 0.3271 0.0
N229 N 0.73489 0.67616 0.31375 0.0
N230 N 0.80273 0.73937 0.29832 0.0
H231 H 0.782 0.62564 0.28672 0.0
C232 C 0.64924 0.7947 0.25975 0.0
O233 O 0.60891 0.79509 0.28318 0.0
O234 O 0.7275 0.58827 0.37795 0.0
H235 H 0.69496 0.73147 0.34485 0.0
H236 H 0.5055 0.73822 0.13057 0.0
H237 H 0.75612 0.7893 0.32854 0.0
Zn238 Zn 0.53424 0.3099 0.94061 0.0
C239 C 0.60654 0.25285 0.81649 0.0
N240 N 0.62503 0.29309 0.80259 0.0
C241 C 0.60922 0.32357 0.83828 0.0
N242 N 0.57909 0.30083 0.87456 0.0
N243 N 0.58034 0.25621 0.86057 0.0
C244 C 0.49381 0.1903 0.82064 0.0
O245 O 0.49281 0.23254 0.83963 0.0
O246 O 0.57739 0.33209 0.99567 0.0
Zn247 Zn 0.55568 0.19764 0.89575 0.0
N248 N 0.49787 0.36403 0.92557 0.0
C249 C 0.42597 0.4029 0.9177 0.0
C250 C 0.45114 0.36214 0.92367 0.0
C251 C 0.52063 0.40478 0.92117 0.0
N252 N 0.44862 0.44378 0.91446 0.0
C253 C 0.49553 0.44622 0.91613 0.0
O254 O 0.50162 0.19057 0.94985 0.0
C255 C 0.47771 0.21411 0.98228 0.0
O256 O 0.48562 0.25832 0.98314 0.0
H257 H 0.43371 0.32938 0.92763 0.0
H258 H 0.55789 0.40438 0.92216 0.0
C259 C 0.64191 0.14242 0.91073 0.0
C260 C 0.67481 0.121 0.94404 0.0
C261 C 0.63267 0.14587 1.01923 0.0
C262 C 0.60085 0.1676 0.98647 0.0
N263 N 0.60558 0.1654 0.93286 0.0
N264 N 0.66881 0.12315 0.99742 0.0
H265 H 0.64472 0.14011 0.86817 0.0
C266 C 0.6153 0.31037 0.9971 0.0
O267 O 0.61791 0.26993 0.97374 0.0
O268 O 0.52431 0.16222 0.83768 0.0
H269 H 0.57266 0.18657 1.00406 0.0
H270 H 0.38869 0.40218 0.91625 0.0
H271 H 0.62888 0.14743 1.0617 0.0
Zn272 Zn 0.80906 0.53472 0.68995 0.0
C273 C 0.75189 0.60731 0.56606 0.0
N274 N 0.79208 0.62583 0.55216 0.0
C275 C 0.82254 0.60997 0.58781 0.0
N276 N 0.79985 0.57978 0.62406 0.0
N277 N 0.75526 0.58106 0.61012 0.0
C278 C 0.68914 0.49464 0.5705 0.0
O279 O 0.73132 0.49349 0.58954 0.0
O280 O 0.83228 0.57762 0.74475 0.0
Zn281 Zn 0.69673 0.5566 0.64547 0.0
N282 N 0.8623 0.49714 0.67418 0.0
C283 C 0.89846 0.42371 0.66659 0.0
C284 C 0.85865 0.45048 0.67184 0.0
C285 C 0.90395 0.51834 0.67042 0.0
N286 N 0.94019 0.44477 0.66395 0.0
C287 C 0.94427 0.4916 0.66518 0.0
O288 O 0.68946 0.50269 0.69989 0.0
C289 C 0.71304 0.47884 0.73235 0.0
O290 O 0.75722 0.48668 0.73297 0.0
H291 H 0.82525 0.43428 0.67538 0.0
H292 H 0.90548 0.55553 0.6739 0.0
C293 C 0.64183 0.64311 0.66017 0.0
C294 C 0.62091 0.6764 0.69344 0.0
C295 C 0.6465 0.63484 0.76871 0.0
C296 C 0.66766 0.60258 0.73599 0.0
N297 N 0.6649 0.60686 0.68238 0.0
N298 N 0.62368 0.67089 0.74684 0.0
H299 H 0.63908 0.64557 0.61761 0.0
C300 C 0.81045 0.61548 0.7468 0.0
O301 O 0.76985 0.61811 0.72391 0.0
O302 O 0.66117 0.52526 0.58751 0.0
H303 H 0.68669 0.57442 0.75358 0.0
H304 H 0.89632 0.38646 0.66529 0.0
H305 H 0.64859 0.63146 0.81119 0.0
Zn306 Zn 0.69436 0.13949 0.50346 0.0
C307 C 0.66181 0.12169 0.65959 0.0
N308 N 0.69477 0.09003 0.66803 0.0
C309 C 0.71551 0.08376 0.62102 0.0
N310 N 0.69408 0.11272 0.58253 0.0
N311 N 0.66026 0.13494 0.6082 0.0
C312 C 0.54465 0.23318 0.61957 0.0
O313 O 0.52458 0.20609 0.58484 0.0
O314 O 0.75636 0.16638 0.49287 0.0
Zn315 Zn 0.62791 0.19155 0.57852 0.0
N316 N 0.68711 0.08852 0.4554 0.0
C317 C 0.71083 1.028 0.39757 0.0
C318 C 0.72152 0.06174 0.43537 0.0
C319 C 0.64299 0.0835 0.43892 0.0
N320 N 0.66638 1.02296 0.38114 0.0
C321 C 0.6321 0.05052 0.40038 0.0
O322 O 0.58547 0.19001 0.51116 0.0
C323 C 0.60409 0.20552 0.46937 0.0
O324 O 0.64736 0.19492 0.4639 0.0
H325 H 0.75675 0.0667 0.44813 0.0
H326 H 0.61653 0.10494 0.4566 0.0
C327 C 0.66116 0.27696 0.54496 0.0
C328 C 0.69334 0.312 0.53681 0.0
C329 C 0.75257 0.26242 0.56868 0.0
C330 C 0.72018 0.22801 0.57775 0.0
N331 N 0.67538 0.23563 0.56443 0.0
N332 N 0.73845 0.30354 0.54861 0.0
H333 H 0.62485 0.28264 0.53732 0.0
C334 C 0.79391 0.14999 0.51055 0.0
O335 O 0.79425 0.10965 0.53402 0.0
O336 O 0.58763 0.22842 0.62877 0.0
H337 H 0.73071 0.19581 0.59561 0.0
H338 H 0.73763 1.00611 0.3813 0.0
H339 H 0.78841 0.25704 0.57893 0.0
Zn340 Zn 0.37432 0.51606 0.64602 0.0
C341 C 0.24836 0.46278 0.5884 0.0
N342 N 0.27867 0.44686 0.55263 0.0
C343 C 0.31893 0.46531 0.56658 0.0
N344 N 0.31574 0.49156 0.61074 0.0
N345 N 0.2712 0.49291 0.62472 0.0
C346 C 0.26159 0.45669 0.74714 0.0
O347 O 0.30191 0.45393 0.72374 0.0
O348 O 0.40985 0.54726 0.58813 0.0
Zn349 Zn 0.26204 0.53778 0.69074 0.0
N350 N 0.40637 0.4661 0.68318 0.0
C351 C 0.42567 0.43892 0.76956 0.0
C352 C 0.40409 0.47083 0.73679 0.0
C353 C 0.4293 0.42969 0.66105 0.0
N354 N 0.44834 0.40272 0.74775 0.0
C355 C 0.4506 0.39672 0.69437 0.0
O356 O 0.31361 0.58646 0.73326 0.0
C357 C 0.35778 0.59425 0.7325 0.0
O358 O 0.38127 0.57017 0.70018 0.0
H359 H 0.38518 0.4991 0.75436 0.0
H360 H 0.43168 0.42688 0.61849 0.0
C361 C 0.16714 0.55126 0.67132 0.0
C362 C 0.12572 0.57634 0.66616 0.0
C363 C 0.16899 0.64599 0.6674 0.0
C364 C 0.20974 0.62084 0.67349 0.0
N365 N 0.20787 0.57409 0.67561 0.0
N366 N 0.12815 0.62329 0.66426 0.0
H367 H 0.16756 0.51398 0.67248 0.0
C368 C 0.38191 0.57788 0.5711 0.0
O369 O 0.33973 0.5791 0.58999 0.0
O370 O 0.23995 0.49467 0.74572 0.0
H371 H 0.24247 0.63833 0.67736 0.0
H372 H 0.42401 0.44271 0.81203 0.0
H373 H 0.1697 0.6833 0.66577 0.0
Zn374 Zn 0.4433 0.8811 0.57769 0.0
C375 C 0.35572 0.98891 0.62025 0.0
N376 N 0.37647 0.98269 0.6673 0.0
C377 C 0.40941 0.951 0.65888 0.0
N378 N 0.41091 0.93768 0.60746 0.0
N379 N 0.37715 0.95993 0.58173 0.0
C380 C 0.27727 0.92268 0.5094 0.0
O381 O 0.27699 0.96313 0.53278 0.0
O382 O 0.48369 0.84444 0.62796 0.0
Zn383 Zn 0.3768 0.93305 0.5026 0.0
N384 N 0.39587 0.8369 0.56349 0.0
C385 C 0.31868 0.81014 0.5676 0.0
C386 C 0.35107 0.84461 0.57662 0.0
C387 C 0.4101 0.79545 0.54423 0.0
N388 N 0.3328 0.76889 0.5478 0.0
C389 C 0.37791 0.76034 0.53618 0.0
O390 O 0.42371 0.87755 0.46304 0.0
C391 C 0.46699 0.867 0.46856 0.0
O392 O 0.48564 0.88261 0.5104 0.0
H393 H 0.34054 0.87691 0.59431 0.0
H394 H 0.44641 0.78972 0.53673 0.0
C395 C 0.4282 0.98891 0.43832 0.0
C396 C 0.43911 1.02183 0.39987 0.0
C397 C 0.36038 0.04432 0.39677 0.0
C398 C 0.34967 1.01066 0.43449 0.0
N399 N 0.38407 0.98393 0.45464 0.0
N400 N 0.40483 0.04934 0.38053 0.0
H401 H 0.45466 0.96751 0.45605 0.0
C402 C 0.52665 0.83969 0.61876 0.0
O403 O 0.54662 0.86671 0.58406 0.0
O404 O 0.3148 0.90619 0.49183 0.0
H405 H 0.31443 1.00571 0.4471 0.0
H406 H 0.28284 0.81558 0.57774 0.0
H407 H 0.33359 0.06617 0.38043 0.0
Zn408 Zn 0.88019 0.94393 0.82846 0.0
C409 C 0.98799 0.85636 0.87116 0.0
N410 N 0.9816 0.87706 0.91823 0.0
C411 C 0.9499 0.90998 0.90977 0.0
N412 N 0.93671 0.91152 0.85832 0.0
N413 N 0.95908 0.8778 0.83259 0.0
C414 C 0.92205 0.77791 0.76023 0.0
O415 O 0.96239 0.77769 0.78376 0.0
O416 O 0.84328 0.98421 0.87867 0.0
Zn417 Zn 0.93239 0.87749 0.7534 0.0
N418 N 0.83612 0.89644 0.81402 0.0
C419 C 0.80931 0.8192 0.81794 0.0
C420 C 0.84375 0.85158 0.8271 0.0
C421 C 0.79476 0.91073 0.79467 0.0
N422 N 0.76815 0.83339 0.79805 0.0
C423 C 0.75967 0.87856 0.78648 0.0
O424 O 0.87696 0.92445 0.71379 0.0
C425 C 0.86632 0.96775 0.71937 0.0
O426 O 0.8818 0.9864 0.76127 0.0
H427 H 0.87597 0.84101 0.84487 0.0
H428 H 0.78909 0.94709 0.78721 0.0
C429 C 0.98826 0.9288 0.68898 0.0
C430 C 1.02112 0.93959 0.65044 0.0
C431 C 0.04366 0.86079 0.64772 0.0
C432 C 1.01004 0.85019 0.68551 0.0
N433 N 0.9833 0.88468 0.7055 0.0
N434 N 0.04863 0.90522 0.63125 0.0
H435 H 0.96685 0.95532 0.7066 0.0
C436 C 0.83843 1.02722 0.86959 0.0
O437 O 0.86546 0.04736 0.83503 0.0
O438 O 0.90558 0.81543 0.74257 0.0
H439 H 1.00511 0.81497 0.69826 0.0
H440 H 0.81468 0.78331 0.82802 0.0
H441 H 0.06551 0.83392 0.63149 0.0
Zn442 Zn 0.03695 0.26313 0.44015 0.0
C443 C 0.9647 0.32025 0.31597 0.0
N444 N 0.94614 0.27999 0.30208 0.0
C445 C 0.96193 0.24965 0.33787 0.0
N446 N 0.99209 0.27244 0.37417 0.0
N447 N 0.9909 0.31701 0.36014 0.0
C448 C 0.07725 0.38309 0.32079 0.0
O449 O 0.07841 0.34091 0.33981 0.0
O450 O 0.99401 0.23992 0.49471 0.0
Zn451 Zn 1.01534 0.3756 0.39553 0.0
N452 N 0.07448 0.20987 0.42428 0.0
C453 C 0.14785 0.17376 0.4164 0.0
C454 C 0.12108 0.21358 0.42182 0.0
C455 C 0.05333 0.16817 0.42048 0.0
N456 N 0.12684 0.13197 0.41371 0.0
C457 C 0.08007 0.12783 0.41507 0.0
O458 O 0.0692 0.38272 0.45003 0.0
C459 C 0.09293 0.35914 0.48259 0.0
O460 O 0.08497 0.31496 0.48328 0.0
H461 H 0.13725 0.24703 0.42537 0.0
H462 H 1.0162 0.16659 0.42406 0.0
C463 C 0.92887 0.43042 0.41025 0.0
C464 C 0.89558 0.45125 0.44351 0.0
C465 C 0.93723 0.42575 0.5188 0.0
C466 C 0.96949 0.40466 0.48608 0.0
N467 N 0.96517 0.40743 0.43247 0.0
N468 N 0.90114 0.44849 0.49692 0.0
H469 H 0.92637 0.43315 0.3677 0.0
C470 C 0.95614 0.2617 0.49668 0.0
O471 O 0.9534 0.30227 0.47379 0.0
O472 O 0.04665 0.41111 0.33772 0.0
H473 H 0.99767 0.38566 0.50368 0.0
H474 H 0.18506 0.17594 0.41498 0.0
H475 H 0.94065 0.42366 0.56128 0.0
Zn476 Zn 0.1388 0.19509 0.75269 0.0
C477 C 0.12104 0.16252 0.90883 0.0
N478 N 0.08937 0.19548 0.91727 0.0
C479 C 0.08308 0.21619 0.87025 0.0
N480 N 0.11204 0.19476 0.83176 0.0
N481 N 0.13427 0.16095 0.85743 0.0
C482 C 0.23227 0.0453 0.86867 0.0
O483 O 0.20526 1.02526 0.83385 0.0
O484 O 0.16565 0.25713 0.74216 0.0
Zn485 Zn 0.19084 0.12865 0.82771 0.0
N486 N 0.08792 0.18782 0.70462 0.0
C487 C 1.02744 0.21152 0.64683 0.0
C488 C 0.06117 0.22226 0.68457 0.0
C489 C 0.08289 0.14364 0.68819 0.0
N490 N 1.02235 0.16701 0.63049 0.0
C491 C 0.04988 0.13271 0.64974 0.0
O492 O 0.18938 0.08622 0.76029 0.0
C493 C 0.20488 0.10488 0.71852 0.0
O494 O 0.19425 0.14818 0.71309 0.0
H495 H 0.06616 0.25753 0.69728 0.0
H496 H 0.10431 0.11717 0.70587 0.0
C497 C 0.27625 0.16206 0.7944 0.0
C498 C 0.31126 0.19434 0.78649 0.0
C499 C 0.26154 0.2535 0.81836 0.0
C500 C 0.22718 0.22101 0.8272 0.0
N501 N 0.23489 0.17621 0.81378 0.0
N502 N 0.3027 0.23946 0.7984 0.0
H503 H 0.282 0.12573 0.78668 0.0
C504 C 0.14929 0.29474 0.75981 0.0
O505 O 0.10896 0.29513 0.78323 0.0
O506 O 0.22751 0.08831 0.87796 0.0
H507 H 0.19495 0.23148 0.84497 0.0
H508 H 1.00557 0.23833 0.63055 0.0
H509 H 0.25609 0.28934 0.82871 0.0
Zn510 Zn 0.05568 0.69762 0.39573 0.0
C511 C 0.10918 0.82355 0.33822 0.0
N512 N 0.12497 0.79307 0.30252 0.0
C513 C 0.10649 0.75283 0.31644 0.0
N514 N 0.08033 0.75619 0.36055 0.0
N515 N 0.07907 0.80081 0.37452 0.0
C516 C 0.11531 0.81039 0.49704 0.0
O517 O 0.11794 0.76995 0.47367 0.0
O518 O 1.02434 0.66215 0.33768 0.0
Zn519 Zn 1.03423 0.80988 0.44058 0.0
N520 N 0.10559 0.66542 0.43288 0.0
C521 C 0.1327 0.64594 0.51925 0.0
C522 C 0.10087 0.66764 0.48649 0.0
C523 C 0.14193 0.64244 0.41075 0.0
N524 N 0.16885 0.62323 0.49745 0.0
C525 C 0.17484 0.62105 0.44408 0.0
O526 O 0.98562 0.7583 0.48311 0.0
C527 C 0.97771 0.7141 0.48226 0.0
O528 O 1.00162 0.69055 0.44983 0.0
H529 H 0.07267 0.68661 0.50406 0.0
H530 H 0.14473 0.6401 0.36819 0.0
C531 C 1.02061 0.90477 0.42117 0.0
C532 C 0.99551 0.94621 0.41613 0.0
C533 C 0.92595 0.90287 0.41764 0.0
C534 C 0.95113 0.86211 0.42362 0.0
N535 N 0.99785 0.86402 0.42554 0.0
N536 N 0.94859 0.94376 0.41444 0.0
H537 H 0.05787 0.90438 0.42218 0.0
C538 C 0.99382 0.6902 0.32063 0.0
O539 O 0.99281 0.73246 0.33957 0.0
O540 O 0.07739 0.83209 0.49563 0.0
H541 H 0.9337 0.82936 0.42756 0.0
H542 H 0.12891 0.64753 0.56172 0.0
H543 H 0.88867 0.90215 0.41618 0.0
C544 C 0.57258 1.00933 0.18596 0.0
C545 C 0.57976 0.0534 0.16398 0.0
H546 H 0.52449 0.95558 0.2033 0.0
C547 C 0.54182 0.07665 0.14143 0.0
H548 H 0.60023 0.99052 0.20509 0.0
C549 C 0.49796 0.05669 0.14127 0.0
C550 C 0.49083 1.01287 0.16367 0.0
H551 H 0.54594 0.11045 0.12377 0.0
H552 H 0.4698 0.07557 0.12322 0.0
C553 C 0.5288 0.98924 0.18537 0.0
C554 C 1.00519 0.574 0.88132 0.0
C555 C 0.98769 0.52907 0.8846 0.0
H556 H 0.06548 0.61625 0.8827 0.0
C557 C 1.01835 0.49135 0.88107 0.0
H558 H 0.98232 0.60364 0.88309 0.0
C559 C 0.06594 0.49849 0.88104 0.0
C560 C 0.08343 0.54341 0.88484 0.0
H561 H 1.00563 0.45624 0.88183 0.0
H562 H 0.0888 0.46884 0.88259 0.0
C563 C 0.05277 0.58114 0.88157 0.0
C564 C 0.57304 0.50556 0.13102 0.0
C565 C 0.52817 0.4881 0.13489 0.0
H566 H 0.61531 0.56589 0.13169 0.0
C567 C 0.49049 0.51881 0.1316 0.0
H568 H 0.60265 0.48265 0.13257 0.0
C569 C 0.49766 0.56643 0.13128 0.0
C570 C 0.54257 0.58391 0.1345 0.0
H571 H 0.4554 0.50612 0.13277 0.0
H572 H 0.46807 0.58934 0.13306 0.0
C573 C 0.58022 0.55318 0.13096 0.0
C574 C 0.49506 0.53012 0.89142 0.0
C575 C 0.51841 0.49221 0.91389 0.0
H576 H 0.49603 0.60216 0.87326 0.0
C577 C 0.56255 0.49945 0.93575 0.0
H578 H 0.46121 0.52594 0.87386 0.0
C579 C 0.5826 0.54326 0.93512 0.0
C580 C 0.55887 0.58121 0.91352 0.0
H581 H 0.58143 0.47181 0.95481 0.0
H582 H 0.61631 0.54763 0.95296 0.0
C583 C 0.51499 0.57402 0.89124 0.0
C584 C 0.99797 0.55671 0.64129 0.0
C585 C 0.99084 0.51289 0.6637 0.0
H586 H 0.04594 0.61047 0.62377 0.0
C587 C 1.02881 0.48927 0.68541 0.0
H588 H 0.96981 0.57558 0.62324 0.0
C589 C 0.07259 0.50936 0.68599 0.0
C590 C 0.07976 0.55343 0.664 0.0
H591 H 1.02451 0.45562 0.70334 0.0
H592 H 0.10025 0.49056 0.70513 0.0
C593 C 0.04182 0.57668 0.64144 0.0
C594 C 0.50523 0.07393 0.38129 0.0
C595 C 0.48774 1.029 0.38461 0.0
H596 H 0.56551 0.11619 0.38265 0.0
C597 C 0.5184 0.99128 0.38113 0.0
H598 H 0.48235 0.10357 0.38301 0.0
C599 C 0.56599 0.99843 0.38112 0.0
C600 C 0.58348 0.04335 0.38487 0.0
H601 H 0.50569 0.95617 0.38193 0.0
H602 H 0.58886 0.96879 0.38271 0.0
C603 C 0.55281 0.08108 0.38154 0.0
C604 C 0.99054 1.0189 0.63159 0.0
C605 C 1.02823 0.9882 0.63486 0.0
H606 H 0.96811 0.08943 0.63305 0.0
C607 C 0.0731 1.00567 0.63095 0.0
H608 H 0.95545 1.00621 0.63278 0.0
C609 C 0.08026 0.05329 0.63088 0.0
C610 C 0.04261 0.08401 0.63444 0.0
H611 H 0.10271 0.98277 0.63248 0.0
H612 H 0.11535 0.066 0.63158 0.0
C613 C 0.9977 0.06652 0.63125 0.0
C614 C 0.99503 1.03011 0.39144 0.0
C615 C 1.01837 0.9922 0.41392 0.0
H616 H 0.996 0.10215 0.37329 0.0
C617 C 0.06251 0.99944 0.43579 0.0
H618 H 0.96119 1.02593 0.37386 0.0
C619 C 0.08255 0.04326 0.43518 0.0
C620 C 0.05883 0.08121 0.41357 0.0
H621 H 0.08139 0.97181 0.45486 0.0
H622 H 0.11626 0.04763 0.45303 0.0
C623 C 1.01496 0.07401 0.39127 0.0
C624 C 0.38 0.15596 0.28163 0.0
C625 C 0.33649 0.15783 0.25706 0.0
H626 H 0.44153 0.1927 0.30186 0.0
C627 C 0.32117 0.19945 0.23473 0.0
H628 H 0.39276 0.12409 0.29872 0.0
C629 C 0.3495 0.23799 0.23498 0.0
C630 C 0.39327 0.23615 0.25883 0.0
H631 H 0.28812 0.20186 0.21483 0.0
H632 H 0.33696 0.26926 0.21628 0.0
C633 C 0.40811 0.19497 0.28279 0.0
C634 C 0.3336 0.72247 0.98525 0.0
C635 C 0.33559 0.67866 1.00894 0.0
H636 H 0.36957 0.78391 0.96511 0.0
C637 C 0.37689 0.66382 1.03264 0.0
H638 H 0.30224 0.73502 0.96676 0.0
C639 C 0.41586 0.69195 1.03136 0.0
C640 C 0.41384 0.7355 1.00694 0.0
H641 H 0.37929 0.63036 1.05158 0.0
H642 H 0.44781 0.67918 1.04825 0.0
C643 C 0.3721 0.75083 0.98489 0.0
C644 C 0.69171 0.91646 0.28141 0.0
C645 C 0.73527 0.91435 0.25708 0.0
H646 H 0.62993 0.88008 0.30121 0.0
C647 C 0.75039 0.87263 0.23471 0.0
H648 H 0.67905 0.94841 0.2985 0.0
C649 C 0.72186 0.83424 0.23472 0.0
C650 C 0.67807 0.83632 0.25837 0.0
H651 H 0.78347 0.87003 0.21499 0.0
H652 H 0.73428 0.80288 0.21602 0.0
C653 C 0.66339 0.8776 0.28232 0.0
C654 C 0.65568 0.38032 1.03133 0.0
C655 C 0.65763 0.33668 1.00693 0.0
H656 H 0.69219 0.44214 1.05111 0.0
C657 C 0.69918 0.32149 0.98437 0.0
H658 H 0.62386 0.39303 1.04857 0.0
C659 C 0.73756 0.35001 0.98429 0.0
C660 C 0.73564 0.39387 1.00803 0.0
H661 H 0.70164 0.28835 0.96458 0.0
H662 H 0.76878 0.33753 0.96547 0.0
C663 C 0.69453 0.40864 1.03215 0.0
C664 C 0.82129 0.6995 0.73456 0.0
C665 C 0.83657 0.65789 0.75695 0.0
H666 H 0.83712 0.76928 0.71606 0.0
C667 C 0.88007 0.65602 0.78155 0.0
H668 H 0.78826 0.7019 0.71463 0.0
C669 C 0.90819 0.69502 0.7827 0.0
C670 C 0.89338 0.73618 0.75869 0.0
H671 H 0.89281 0.62415 0.79868 0.0
H672 H 0.94161 0.69274 0.8018 0.0
C673 C 0.84964 0.73802 0.73479 0.0
C674 C 0.8721 0.25087 0.48489 0.0
C675 C 0.91383 0.23555 0.50696 0.0
H676 H 0.80224 0.23506 0.46675 0.0
C677 C 0.91584 0.19201 0.5314 0.0
H678 H 0.86957 0.28394 0.4651 0.0
C679 C 0.87687 0.16388 0.53268 0.0
C680 C 0.83558 0.17872 0.50897 0.0
H681 H 0.94779 0.17924 0.54831 0.0
H682 H 0.87927 0.13042 0.55164 0.0
C683 C 0.8336 0.22252 0.48525 0.0
C684 C 0.22192 0.33427 0.73481 0.0
C685 C 0.17812 0.33635 0.75844 0.0
H686 H 0.28353 0.37006 0.71508 0.0
C687 C 0.16343 0.37764 0.78236 0.0
H688 H 0.23435 0.30291 0.71614 0.0
C689 C 0.19174 0.4165 0.78144 0.0
C690 C 0.2353 0.41439 0.75713 0.0
H691 H 0.12997 0.38012 0.80123 0.0
H692 H 0.17906 0.44846 0.7985 0.0
C693 C 0.25045 0.37266 0.7348 0.0
C694 C 0.1992 0.82149 0.48438 0.0
C695 C 0.15764 0.8367 0.5069 0.0
H696 H 0.26881 0.83752 0.46552 0.0
C697 C 0.15568 0.88034 0.53129 0.0
H698 H 0.20167 0.78835 0.4646 0.0
C699 C 0.19453 0.90865 0.53212 0.0
C700 C 0.23566 0.89387 0.50804 0.0
H701 H 0.12385 0.89306 0.54849 0.0
H702 H 0.19219 0.94216 0.55107 0.0
C703 C 0.23758 0.85001 0.48432 0.0
C704 C 0.20658 0.91142 0.305 0.0
C705 C 0.18599 0.94312 0.26895 0.0
H706 H 0.19929 0.85225 0.35706 0.0
C707 C 0.1367 0.9397 0.26732 0.0
H708 H 0.24374 0.9112 0.3091 0.0
C709 C 0.11048 0.906 0.29672 0.0
C710 C 0.13094 0.87287 0.33115 0.0
H711 H 0.1177 0.96249 0.24119 0.0
H712 H 0.07376 0.90415 0.2896 0.0
C713 C 0.18017 0.87759 0.33431 0.0
C714 C 1.02634 0.73834 0.9305 0.0
C715 C 0.07547 0.73942 0.93215 0.0
H716 H 0.96152 0.77027 0.90781 0.0
C717 C 0.09464 0.77665 0.90262 0.0
H718 H 1.00862 0.71175 0.95255 0.0
C719 C 0.06659 0.81126 0.87612 0.0
C720 C 1.01721 0.81053 0.87507 0.0
H721 H 0.1317 0.78104 0.9028 0.0
H722 H 0.08396 0.84078 0.85922 0.0
C723 C 0.99859 0.77222 0.9032 0.0
C724 C 0.9605 0.16765 0.2956 0.0
C725 C 0.94033 0.20033 0.33082 0.0
H726 H 0.95293 0.11134 0.23974 0.0
C727 C 0.8912 0.19529 0.3348 0.0
H728 H 0.99708 0.16983 0.28786 0.0
C729 C 0.86462 0.16142 0.30559 0.0
C730 C 0.88495 0.13007 0.26889 0.0
H731 H 0.87228 0.22037 0.35817 0.0
H732 H 0.82753 0.1613 0.31033 0.0
C733 C 0.93415 0.13387 0.2664 0.0
C734 C 0.07251 0.30027 0.90261 0.0
C735 C 0.05389 0.26203 0.87417 0.0
H736 H 0.06248 0.36068 0.95225 0.0
C737 C 1.00451 0.26136 0.87492 0.0
H738 H 0.10958 0.30216 0.90744 0.0
C739 C 0.97646 0.29597 0.90147 0.0
C740 C 0.99563 0.33312 0.93133 0.0
H741 H 0.98714 0.23189 0.85775 0.0
H742 H 0.93939 0.29164 0.90141 0.0
C743 C 0.04476 0.33415 0.92995 0.0
C744 C 0.26069 0.50515 0.12579 0.0
C745 C 0.26132 0.55457 0.12499 0.0
H746 H 0.29097 0.44002 0.15234 0.0
C747 C 0.29952 0.57326 0.1534 0.0
H748 H 0.23125 0.48773 0.10867 0.0
C749 C 0.33339 0.54553 0.18074 0.0
C750 C 0.3324 0.49635 0.18216 0.0
H751 H 0.3014 0.61037 0.15819 0.0
H752 H 0.35989 0.5633 0.20301 0.0
C753 C 0.29529 0.47712 0.15235 0.0
C754 C 0.66589 0.96167 1.04715 0.0
C755 C 0.69905 0.94113 1.08146 0.0
H756 H 0.6093 0.95449 0.99164 0.0
C757 C 0.69426 0.89188 1.08462 0.0
H758 H 0.66781 0.99841 1.04009 0.0
C759 C 0.66033 0.86549 1.0553 0.0
C760 C 0.62864 0.88615 1.01931 0.0
H761 H 0.71961 0.87275 0.10734 0.0
H762 H 0.66048 0.8283 1.05933 0.0
C763 C 0.63211 0.93547 1.01773 0.0
C764 C 0.7758 0.59547 0.15162 0.0
C765 C 0.73873 0.57621 0.1813 0.0
H766 H 0.83982 0.58489 0.10806 0.0
C767 C 0.73779 0.52703 0.17975 0.0
H768 H 0.78006 0.63257 0.15171 0.0
C769 C 0.77168 0.49931 0.15242 0.0
C770 C 0.80984 0.51803 0.12414 0.0
H771 H 0.71132 0.50925 0.20191 0.0
H772 H 0.76985 0.46221 0.1571 0.0
C773 C 0.81041 0.56744 0.12507 0.0
C774 C 0.37686 0.18081 1.08452 0.0
C775 C 0.37183 0.13161 1.08063 0.0
H776 H 0.41072 0.24451 1.06002 0.0
C777 C 0.40447 0.11136 1.04544 0.0
H778 H 0.35183 0.19982 0.10783 0.0
C779 C 0.43816 0.13769 1.01623 0.0
C780 C 0.44195 0.18696 1.01866 0.0
H781 H 0.40235 0.07471 1.03776 0.0
H782 H 0.46064 0.11882 0.98963 0.0
C783 C 0.41064 0.20737 1.05531 0.0
C784 C 0.6105 0.40601 0.79676 0.0
C785 C 0.63097 0.3729 0.8312 0.0
H786 H 0.61771 0.46249 0.7412 0.0
C787 C 0.6802 0.37763 0.83437 0.0
H788 H 0.57378 0.40414 0.78962 0.0
C789 C 0.7066 0.41147 0.80505 0.0
C790 C 0.686 0.44315 0.76899 0.0
H791 H 0.69931 0.35231 0.85715 0.0
H792 H 0.74376 0.41126 0.80917 0.0
C793 C 0.63671 0.43971 0.76735 0.0
C794 C 0.49856 0.27227 0.40333 0.0
C795 C 0.51719 0.31052 0.37508 0.0
H796 H 0.50858 0.21186 0.45277 0.0
C797 C 0.56656 0.31119 0.37603 0.0
H798 H 0.46149 0.27038 0.40802 0.0
C799 C 0.59462 0.27658 0.40255 0.0
C800 C 0.57544 0.23941 0.43218 0.0
H801 H 0.58395 0.34066 0.35904 0.0
H802 H 0.63168 0.28091 0.40264 0.0
C803 C 0.5263 0.23839 0.43063 0.0
C804 C 0.43417 0.63385 0.7664 0.0
C805 C 0.38497 0.63008 0.76888 0.0
H806 H 0.49711 0.6698 0.78786 0.0
C807 C 0.36464 0.66146 0.80554 0.0
H808 H 0.45295 0.61131 0.73976 0.0
C809 C 0.39123 0.69532 0.83475 0.0
C810 C 0.44036 0.70034 0.83079 0.0
H811 H 0.32755 0.66136 0.81027 0.0
H812 H 0.37231 0.72042 0.8581 0.0
C813 C 0.46053 0.66763 0.7956 0.0
C814 C 0.50452 0.7613 0.37503 0.0
C815 C 0.55389 0.76202 0.37419 0.0
H816 H 0.43941 0.79153 0.4016 0.0
C817 C 0.57252 0.80032 0.40254 0.0
H818 H 0.48716 0.73179 0.35795 0.0
C819 C 0.54477 0.8342 0.42987 0.0
C820 C 0.49564 0.83311 0.43134 0.0
H821 H 0.60959 0.80226 0.40729 0.0
H822 H 0.56248 0.86078 0.45209 0.0
C823 C 0.47646 0.79591 0.40158 0.0
C824 C 0.79537 0.97715 0.65227 0.0
C825 C 0.83244 0.99639 0.68215 0.0
H826 H 0.73137 0.98774 0.60853 0.0
C827 C 0.83338 0.04557 0.68081 0.0
H828 H 0.7911 0.94004 0.65219 0.0
C829 C 0.79951 0.0733 0.65347 0.0
C830 C 0.76135 0.0546 0.62498 0.0
H831 H 0.85985 0.06335 0.70313 0.0
H832 H 0.80134 0.1104 0.65832 0.0
C833 C 0.76077 1.00518 0.62571 0.0
C834 C 0.19429 0.39191 0.58456 0.0
C835 C 0.19905 0.44116 0.58143 0.0
H836 H 0.16054 0.32832 0.55925 0.0
C837 C 0.16587 0.46169 0.54714 0.0
H838 H 0.21966 0.37278 0.60725 0.0
C839 C 0.13208 0.43549 0.51773 0.0
C840 C 0.12864 0.38617 0.51928 0.0
H841 H 0.16777 0.49844 0.5401 0.0
H842 H 0.10925 0.4545 0.49165 0.0
C843 C 0.16036 0.36552 0.55525 0.0
C844 C 0.23777 1.02707 0.67968 0.0
C845 C 0.23876 0.07625 0.6813 0.0
H846 H 0.26978 0.96224 0.65699 0.0
C847 C 0.27588 0.0955 0.65169 0.0
H848 H 0.21126 1.0093 0.70179 0.0
C849 C 0.3105 0.06746 0.62515 0.0
C850 C 0.30987 1.01805 0.62416 0.0
H851 H 0.28018 0.1326 0.65183 0.0
H852 H 0.33993 0.0849 0.60819 0.0
C853 C 0.27165 0.99935 0.65235 0.0
C854 C 0.93817 0.63768 0.51623 0.0
C855 C 0.94195 0.68694 0.51865 0.0
H856 H 0.90237 0.5747 0.53777 0.0
C857 C 0.91064 0.70736 0.55528 0.0
H858 H 0.96066 0.6188 0.48963 0.0
C859 C 0.87686 0.6808 0.58449 0.0
C860 C 0.87184 0.63159 0.58062 0.0
H861 H 0.91071 0.7445 0.55999 0.0
H862 H 0.85182 0.69981 0.6078 0.0
C863 C 0.90448 0.61135 0.54544 0.0
C864 C 0.16214 0.09893 0.95796 0.0
C865 C 0.14893 0.14524 0.95369 0.0
H866 H 0.20859 0.05119 0.99466 0.0
C867 C 0.16389 0.17677 0.99247 0.0
H868 H 0.15023 0.07392 0.92913 0.0
C869 C 0.19437 0.16295 1.03231 0.0
C870 C 0.20997 0.11721 1.0349 0.0
H871 H 0.15393 0.21282 0.99043 0.0
H872 H 0.20775 0.18863 1.05951 0.0
C873 C 0.19394 0.08543 0.99698 0.0
C874 C 0.09819 0.66287 0.20849 0.0
C875 C 0.14444 0.64955 0.20438 0.0
H876 H 0.05051 0.70955 0.24492 0.0
C877 C 0.17589 0.66454 0.24321 0.0
H878 H 0.07326 0.65094 0.17961 0.0
C879 C 0.16205 0.69516 0.28293 0.0
C880 C 0.11637 0.71087 0.28534 0.0
H881 H 0.21189 0.6545 0.24128 0.0
H882 H 0.18766 0.70854 0.31018 0.0
C883 C 0.08468 0.69482 0.24737 0.0
C884 C 0.90862 0.97358 0.95872 0.0
C885 C 0.92198 0.92731 0.95454 0.0
H886 H 0.86193 1.02127 0.99514 0.0
C887 C 0.90706 0.89584 0.99325 0.0
H888 H 0.92051 0.99854 0.92995 0.0
C889 C 0.87649 0.90968 1.03293 0.0
C890 C 0.86074 0.95539 1.03541 0.0
H891 H 0.91715 0.85981 0.99125 0.0
H892 H 0.86318 0.88407 1.0601 0.0
C893 C 0.87669 0.98709 0.99754 0.0
C894 C 0.89525 0.40821 0.24238 0.0
C895 C 0.92671 0.42314 0.2037 0.0
H896 H 0.88347 0.36439 0.3093 0.0
C897 C 0.97298 0.40991 0.20802 0.0
H898 H 0.85923 0.41819 0.24029 0.0
C899 C 0.9865 0.37811 0.24699 0.0
C900 C 0.95479 0.36211 0.28481 0.0
H901 H 0.99794 0.4218 0.17927 0.0
H902 H 1.02071 0.36345 0.24472 0.0
C903 C 0.90909 0.37775 0.28218 0.0
C904 C 0.40864 0.47358 0.45875 0.0
C905 C 0.42199 0.42731 0.45456 0.0
H906 H 0.36194 0.52127 0.49517 0.0
C907 C 0.40708 0.39584 0.49326 0.0
H908 H 0.42052 0.49854 0.42998 0.0
C909 C 0.3765 0.40968 0.53295 0.0
C910 C 0.36076 0.45538 0.53543 0.0
H911 H 0.41716 0.35981 0.49126 0.0
H912 H 0.3632 0.38406 0.56012 0.0
C913 C 0.37671 0.48709 0.49757 0.0
C914 C 0.47299 0.90994 0.70805 0.0
C915 C 0.42673 0.92315 0.70372 0.0
H916 H 0.52073 0.86348 0.74476 0.0
C917 C 0.39526 0.90821 0.74239 0.0
H918 H 0.49795 0.92184 0.67931 0.0
C919 C 0.4091 0.87775 0.78219 0.0
C920 C 0.45481 0.86213 0.78484 0.0
H921 H 0.35924 0.91818 0.74029 0.0
H922 H 0.38348 0.86439 0.8093 0.0
C923 C 0.48652 0.87814 0.74702 0.0
C924 C 0.66389 0.67675 0.49248 0.0
C925 C 0.64893 0.64522 0.4537 0.0
H926 H 0.70775 0.6886 0.55952 0.0
C927 C 0.66215 0.59892 0.45796 0.0
H928 H 0.65392 0.7128 0.49044 0.0
C929 C 0.69395 0.58541 0.49697 0.0
C930 C 0.70999 0.61719 0.5349 0.0
H931 H 0.65023 0.57391 0.42913 0.0
H932 H 0.7086 0.55117 0.49465 0.0
C933 C 0.69437 0.66293 0.53232 0.0
C934 C 0.59824 0.16289 0.70854 0.0
C935 C 0.64449 0.14959 0.70442 0.0
H936 H 0.55056 0.20956 0.74498 0.0
C937 C 0.67594 0.16459 0.74323 0.0
H938 H 0.5733 0.15095 0.67967 0.0
C939 C 0.66211 0.1952 0.78296 0.0
C940 C 0.61643 0.2109 0.78538 0.0
H941 H 0.71195 0.15456 0.74128 0.0
H942 H 0.68772 0.20859 0.8102 0.0
C943 C 0.58473 0.19483 0.74743 0.0
C944 C 0.20972 0.88832 0.99713 0.0
C945 C 0.17909 0.85965 1.02449 0.0
H946 H 0.23491 0.957 0.98823 0.0
C947 C 0.14115 0.87959 1.05096 0.0
H948 H 0.23872 0.87378 0.97568 0.0
C949 C 0.13888 0.9274 1.0579 0.0
C950 C 0.17462 0.95508 1.03866 0.0
H951 H 0.11683 0.8584 1.07242 0.0
H952 H 0.1135 0.9415 1.08501 0.0
C953 C 0.20723 0.93597 1.00383 0.0
C954 C 0.03735 0.79952 0.18265 0.0
C955 C 1.01951 0.77381 0.14023 0.0
H956 H 1.02896 0.85824 0.23312 0.0
C957 C 0.97908 0.78935 0.11481 0.0
H958 H 0.06868 0.78882 0.2026 0.0
C959 C 0.95728 0.83007 0.13111 0.0
C960 C 0.97503 0.85558 0.17375 0.0
H961 H 0.96472 0.77056 1.08156 0.0
H962 H 0.92605 0.84098 0.11112 0.0
C963 C 1.01489 0.83954 0.19975 0.0
C964 C 0.86387 0.1361 1.00408 0.0
C965 C 0.89646 0.11725 1.03916 0.0
H966 H 0.8325 0.19805 0.97528 0.0
C967 C 0.93218 0.14507 1.05838 0.0
H968 H 0.83621 0.11494 0.98851 0.0
C969 C 0.92997 0.19283 1.05105 0.0
C970 C 0.8921 0.21257 1.02424 0.0
H971 H 0.95752 0.13116 1.0857 0.0
H972 H 0.95429 0.21417 1.07247 0.0
C973 C 0.86147 0.18369 0.99697 0.0
C974 C 0.09195 0.28331 0.11369 0.0
C975 C 0.05175 0.29906 0.13936 0.0
H976 H 0.14484 0.23154 0.1098 0.0
C977 C 1.03415 0.27359 0.18195 0.0
H978 H 0.1061 0.3019 1.08029 0.0
C979 C 0.05667 0.23362 0.19901 0.0
C980 C 0.0963 0.21738 0.1728 0.0
H981 H 1.00299 0.28445 0.20207 0.0
H982 H 0.04283 0.21514 0.23256 0.0
C983 C 0.11378 0.24261 0.12995 0.0
C984 C 0.27204 0.53432 0.43239 0.0
C985 C 0.2978 0.55232 0.39025 0.0
H986 H 0.21322 0.54249 0.4825 0.0
C987 C 0.28229 0.59283 0.36502 0.0
H988 H 0.28272 0.50292 0.45219 0.0
C989 C 0.24155 0.61457 0.38122 0.0
C990 C 0.21599 0.59666 0.42356 0.0
H991 H 0.30112 0.60733 0.33199 0.0
H992 H 0.23067 0.64589 0.36139 0.0
C993 C 0.23197 0.5567 0.44937 0.0
C994 C 0.69225 0.93094 0.8012 0.0
C995 C 0.71196 0.89296 0.77446 0.0
H996 H 0.63064 0.95871 0.8356 0.0
C997 C 0.6831 0.86237 0.74709 0.0
H998 H 0.71358 0.95523 0.82268 0.0
C999 C 0.63554 0.86493 0.754 0.0
C1000 C 0.61669 0.89761 0.78901 0.0
H1001 H 0.69745 0.83334 0.72545 0.0
H1002 H 0.61438 0.83728 0.73836 0.0
C1003 C 0.64452 0.9333 0.80832 0.0
C1004 C 0.78867 0.47995 0.36354 0.0
C1005 C 0.77283 0.52012 0.38933 0.0
H1006 H 0.84051 0.42714 0.35959 0.0
C1007 C 0.7982 0.53774 0.43212 0.0
H1008 H 0.77015 0.46578 0.32998 0.0
C1009 C 0.83816 0.51527 0.44926 0.0
C1010 C 0.8545 0.47569 0.4229 0.0
H1011 H 0.78728 0.5689 0.45234 0.0
H1012 H 0.85655 0.52911 0.48297 0.0
C1013 C 0.82936 0.45818 0.37986 0.0
C1014 C 0.42662 0.13996 0.80799 0.0
C1015 C 0.45429 0.17575 0.78884 0.0
H1016 H 0.35769 0.11777 0.82226 0.0
C1017 C 0.43524 0.20841 0.75401 0.0
H1018 H 0.44069 0.11456 0.83511 0.0
C1019 C 0.38765 0.21082 0.74714 0.0
C1020 C 0.35897 0.18009 0.77436 0.0
H1021 H 0.45628 0.23613 0.73849 0.0
H1022 H 0.37316 0.23983 0.72567 0.0
C1023 C 0.37887 0.14216 0.80088 0.0
C1024 C 0.64108 0.37961 0.55103 0.0
C1025 C 0.67901 0.35969 0.52452 0.0
H1026 H 0.61343 0.44151 0.58511 0.0
C1027 C 0.70961 0.38838 0.49712 0.0
H1028 H 0.61678 0.35841 0.57251 0.0
C1029 C 0.70711 0.43603 0.50383 0.0
C1030 C 0.6745 0.45512 0.5387 0.0
H1031 H 0.73859 0.37386 0.47564 0.0
H1032 H 0.73476 0.45708 0.4882 0.0
C1033 C 0.63879 0.42743 0.55796 0.0
C1034 C 0.45726 0.33004 0.63119 0.0
C1035 C 0.47501 0.35555 0.67382 0.0
H1036 H 0.4647 0.27053 0.58164 0.0
C1037 C 0.51487 0.33953 0.69981 0.0
H1038 H 0.42602 0.34094 0.6112 0.0
C1039 C 0.53734 0.29951 0.68272 0.0
C1040 C 0.5195 0.27379 0.6403 0.0
H1041 H 0.52895 0.35823 0.73318 0.0
H1042 H 0.56868 0.28881 0.70265 0.0
C1043 C 0.47906 0.28931 0.61489 0.0
C1044 C 0.43226 0.64503 0.55846 0.0
C1045 C 0.39655 0.61722 0.53919 0.0
H1046 H 0.45437 0.71412 0.5726 0.0
C1047 C 0.36401 0.63607 0.50406 0.0
H1048 H 0.45756 0.63111 0.58582 0.0
C1049 C 0.36162 0.68367 0.49695 0.0
C1050 C 0.39223 0.71254 0.52428 0.0
H1051 H 0.33635 0.61493 0.48845 0.0
H1052 H 0.33268 0.69804 0.47523 0.0
C1053 C 0.43007 0.69279 0.55114 0.0
C1054 C 0.59202 0.78335 0.61372 0.0
C1055 C 0.55183 0.79911 0.63938 0.0
H1056 H 0.64491 0.73159 0.60983 0.0
C1057 C 0.53424 0.77365 0.68199 0.0
H1058 H 0.60617 0.80193 0.58031 0.0
C1059 C 0.55675 0.73368 0.69906 0.0
C1060 C 0.59638 0.71744 0.67284 0.0
H1061 H 0.50307 0.78451 0.70211 0.0
H1062 H 0.54292 0.71521 0.73262 0.0
C1063 C 0.61385 0.74266 0.62999 0.0
C1064 C 0.772 1.03427 0.93233 0.0
C1065 C 0.79778 0.05229 0.89022 0.0
H1066 H 0.71317 0.04242 0.98243 0.0
C1067 C 0.78227 0.0928 0.86499 0.0
H1068 H 0.78268 1.00286 0.95213 0.0
C1069 C 0.74152 0.11454 0.88119 0.0
C1070 C 0.71596 0.09661 0.92352 0.0
H1071 H 0.80111 0.10731 0.83198 0.0
H1072 H 0.73066 0.14586 0.86138 0.0
C1073 C 0.73193 0.05665 0.94931 0.0
C1074 C 0.1831 0.36239 0.2471 0.0
C1075 C 0.21194 0.39299 0.27451 0.0
H1076 H 0.11439 0.3373 0.23831 0.0
C1077 C 0.19221 0.43096 0.30123 0.0
H1078 H 0.19746 0.33337 0.22547 0.0
C1079 C 0.14447 0.43331 0.30833 0.0
C1080 C 0.11666 0.39762 0.28898 0.0
H1081 H 0.21352 0.45525 0.32274 0.0
H1082 H 0.13056 0.45871 0.3356 0.0
C1083 C 0.13553 0.36495 0.25397 0.0
C1084 C 0.2887 0.98 0.8635 0.0
C1085 C 0.27285 1.02015 0.88933 0.0
H1086 H 0.34055 0.9272 0.85953 0.0
C1087 C 0.2982 0.03774 0.93214 0.0
H1088 H 0.27019 0.96586 0.82992 0.0
C1089 C 0.33816 1.01527 0.94928 0.0
C1090 C 0.35451 0.9757 0.92289 0.0
H1091 H 0.28727 0.06888 0.95238 0.0
H1092 H 0.35653 1.02908 0.98301 0.0
C1093 C 0.32939 0.95822 0.87982 0.0
C1094 C 0.87887 0.64206 0.30095 0.0
C1095 C 0.85899 0.67997 0.27437 0.0
H1096 H 0.94066 0.61446 0.33521 0.0
C1097 C 0.88768 0.71065 0.2471 0.0
H1098 H 0.85766 0.61771 0.32234 0.0
C1099 C 0.93527 0.70823 0.25397 0.0
C1100 C 0.95431 0.6756 0.28885 0.0
H1101 H 0.8732 0.73964 0.22558 0.0
H1102 H 0.95631 0.73593 0.23841 0.0
C1103 C 0.92663 0.63983 0.30804 0.0
loop_
_geom_bond_atom_site_label_1
_geom_bond_atom_site_label_2
_geom_bond_distance
_geom_bond_site_symmetry_2
_ccdc_geom_bond_type
Zn0 N4 2.020 . S
Zn0 O8 2.019 . S
Zn0 N10 2.119 . S
Zn0 O18 1.975 . S
C1 N2 1.334 . S
C1 N5 1.336 1_556 S
N2 C1 1.334 . S
N2 C3 1.314 1_556 S
C3 N2 1.314 1_554 S
C3 N4 1.351 . S
N4 Zn0 2.020 . S
N4 C3 1.351 . S
N4 N5 1.354 . S
N5 C1 1.336 1_554 S
N5 N4 1.354 . S
N5 Zn9 2.020 . S
C6 O7 1.244 . S
C6 O30 1.257 1_565 S
O7 C6 1.244 . S
O8 Zn0 2.019 . S
O8 C28 1.257 . S
Zn9 N5 2.020 . S
Zn9 O16 1.975 . S
Zn9 N25 2.119 . S
Zn9 O30 2.019 . S
N10 Zn0 2.119 . S
N10 C12 1.334 . S
N10 C13 1.328 . S
C11 C12 1.391 1_565 S
C11 N14 1.329 . S
C11 H32 0.930 . S
C12 N10 1.334 . S
C12 C11 1.391 1_545 S
C12 H19 0.930 . S
C13 N10 1.328 . S
C13 C15 1.392 . S
C13 H20 0.930 . S
N14 C11 1.329 . S
N14 C15 1.331 1_565 S
C15 C13 1.392 . S
C15 N14 1.331 1_545 S
O16 Zn9 1.975 . S
O16 C17 1.252 . S
C17 O16 1.252 . S
C17 O18 1.252 . S
O18 Zn0 1.975 . S
O18 C17 1.252 . S
H19 C12 0.930 . S
H20 C13 0.930 . S
C21 C22 1.392 . S
C21 N25 1.328 . S
C21 H27 0.930 . S
C22 C21 1.392 . S
C22 N26 1.331 . S
C23 C24 1.391 . S
C23 N26 1.329 . S
C23 H33 0.930 . S
C24 C23 1.391 . S
C24 N25 1.334 . S
C24 H31 0.930 . S
N25 Zn9 2.119 . S
N25 C21 1.328 . S
N25 C24 1.334 . S
N26 C22 1.331 . S
N26 C23 1.329 . S
H27 C21 0.930 . S
C28 O8 1.257 . S
C28 O29 1.244 . S
O29 C28 1.244 . S
O30 C6 1.257 1_545 S
O30 Zn9 2.019 . S
H31 C24 0.930 . S
H32 C11 0.930 . S
H33 C23 0.930 . S
Zn34 N38 2.020 . S
Zn34 O42 2.019 . S
Zn34 N44 2.119 . S
Zn34 O52 1.975 . S
C35 N36 1.334 . S
C35 N39 1.336 1_554 S
N36 C35 1.334 . S
N36 C37 1.314 1_554 S
C37 N36 1.314 1_556 S
C37 N38 1.351 . S
N38 Zn34 2.020 . S
N38 C37 1.351 . S
N38 N39 1.354 . S
N39 C35 1.336 1_556 S
N39 N38 1.354 . S
N39 Zn43 2.020 . S
C40 O41 1.244 . S
C40 O64 1.257 1_655 S
O41 C40 1.244 . S
O42 Zn34 2.019 . S
O42 C62 1.257 . S
Zn43 N39 2.020 . S
Zn43 O50 1.975 . S
Zn43 N59 2.119 . S
Zn43 O64 2.019 . S
N44 Zn34 2.119 . S
N44 C46 1.334 . S
N44 C47 1.328 . S
C45 C46 1.391 1_655 S
C45 N48 1.329 . S
C45 H66 0.930 . S
C46 N44 1.334 . S
C46 C45 1.391 1_455 S
C46 H53 0.930 . S
C47 N44 1.328 . S
C47 C49 1.392 . S
C47 H54 0.930 . S
N48 C45 1.329 . S
N48 C49 1.331 1_655 S
C49 C47 1.392 . S
C49 N48 1.331 1_455 S
O50 Zn43 1.975 . S
O50 C51 1.252 . S
C51 O50 1.252 . S
C51 O52 1.252 . S
O52 Zn34 1.975 . S
O52 C51 1.252 . S
H53 C46 0.930 . S
H54 C47 0.930 . S
C55 C56 1.392 . S
C55 N59 1.328 . S
C55 H61 0.930 . S
C56 C55 1.392 . S
C56 N60 1.331 . S
C57 C58 1.391 . S
C57 N60 1.329 . S
C57 H67 0.930 . S
C58 C57 1.391 . S
C58 N59 1.334 . S
C58 H65 0.930 . S
N59 Zn43 2.119 . S
N59 C55 1.328 . S
N59 C58 1.334 . S
N60 C56 1.331 . S
N60 C57 1.329 . S
H61 C55 0.930 . S
C62 O42 1.257 . S
C62 O63 1.244 . S
O63 C62 1.244 . S
O64 C40 1.257 1_455 S
O64 Zn43 2.019 . S
H65 C58 0.930 . S
H66 C45 0.930 . S
H67 C57 0.930 . S
Zn68 N72 2.020 . S
Zn68 O76 2.019 . S
Zn68 N78 2.119 . S
Zn68 O86 1.975 . S
C69 N70 1.314 1_554 S
C69 N73 1.351 . S
N70 C69 1.314 1_556 S
N70 C71 1.334 . S
C71 N70 1.334 . S
C71 N72 1.336 1_556 S
N72 Zn68 2.020 . S
N72 C71 1.336 1_554 S
N72 N73 1.354 . S
N73 C69 1.351 . S
N73 N72 1.354 . S
N73 Zn77 2.020 . S
C74 O75 1.244 . S
C74 O98 1.257 . S
O75 C74 1.244 . S
O76 Zn68 2.019 . S
O76 C96 1.257 1_565 S
Zn77 N73 2.020 . S
Zn77 O84 1.975 . S
Zn77 N93 2.119 . S
Zn77 O98 2.019 . S
N78 Zn68 2.119 . S
N78 C80 1.334 . S
N78 C81 1.328 . S
C79 C80 1.391 . S
C79 N82 1.329 . S
C79 H100 0.930 . S
C80 N78 1.334 . S
C80 C79 1.391 . S
C80 H87 0.930 . S
C81 N78 1.328 . S
C81 C83 1.392 . S
C81 H88 0.930 . S
N82 C79 1.329 . S
N82 C83 1.331 . S
C83 C81 1.392 . S
C83 N82 1.331 . S
O84 Zn77 1.975 . S
O84 C85 1.252 . S
C85 O84 1.252 . S
C85 O86 1.252 . S
O86 Zn68 1.975 . S
O86 C85 1.252 . S
H87 C80 0.930 . S
H88 C81 0.930 . S
C89 C90 1.392 . S
C89 N93 1.328 . S
C89 H95 0.930 . S
C90 C89 1.392 . S
C90 N94 1.331 1_565 S
C91 C92 1.391 1_545 S
C91 N94 1.329 . S
C91 H101 0.930 . S
C92 C91 1.391 1_565 S
C92 N93 1.334 . S
C92 H99 0.930 . S
N93 Zn77 2.119 . S
N93 C89 1.328 . S
N93 C92 1.334 . S
N94 C90 1.331 1_545 S
N94 C91 1.329 . S
H95 C89 0.930 . S
C96 O76 1.257 1_545 S
C96 O97 1.244 . S
O97 C96 1.244 . S
O98 C74 1.257 . S
O98 Zn77 2.019 . S
H99 C92 0.930 . S
H100 C79 0.930 . S
H101 C91 0.930 . S
Zn102 N106 2.020 . S
Zn102 O110 2.019 . S
Zn102 N112 2.119 . S
Zn102 O120 1.975 . S
C103 N104 1.334 . S
C103 N107 1.336 1_554 S
N104 C103 1.334 . S
N104 C105 1.314 1_554 S
C105 N104 1.314 1_556 S
C105 N106 1.351 . S
N106 Zn102 2.020 . S
N106 C105 1.351 . S
N106 N107 1.354 . S
N107 C103 1.336 1_556 S
N107 N106 1.354 . S
N107 Zn111 2.020 . S
C108 O109 1.244 . S
C108 O132 1.257 1_455 S
O109 C108 1.244 . S
O110 Zn102 2.019 . S
O110 C130 1.257 . S
Zn111 N107 2.020 . S
Zn111 O118 1.975 . S
Zn111 N127 2.119 . S
Zn111 O132 2.019 . S
N112 Zn102 2.119 . S
N112 C114 1.334 . S
N112 C115 1.328 . S
C113 C114 1.391 1_455 S
C113 N116 1.329 . S
C113 H134 0.930 . S
C114 N112 1.334 . S
C114 C113 1.391 1_655 S
C114 H121 0.930 . S
C115 N112 1.328 . S
C115 C117 1.392 . S
C115 H122 0.930 . S
N116 C113 1.329 . S
N116 C117 1.331 1_455 S
C117 C115 1.392 . S
C117 N116 1.331 1_655 S
O118 Zn111 1.975 . S
O118 C119 1.252 . S
C119 O118 1.252 . S
C119 O120 1.252 . S
O120 Zn102 1.975 . S
O120 C119 1.252 . S
H121 C114 0.930 . S
H122 C115 0.930 . S
C123 C124 1.392 . S
C123 N127 1.328 . S
C123 H129 0.930 . S
C124 C123 1.392 . S
C124 N128 1.331 . S
C125 C126 1.391 . S
C125 N128 1.329 . S
C125 H135 0.930 . S
C126 C125 1.391 . S
C126 N127 1.334 . S
C126 H133 0.930 . S
N127 Zn111 2.119 . S
N127 C123 1.328 . S
N127 C126 1.334 . S
N128 C124 1.331 . S
N128 C125 1.329 . S
H129 C123 0.930 . S
C130 O110 1.257 . S
C130 O131 1.244 . S
O131 C130 1.244 . S
O132 C108 1.257 1_655 S
O132 Zn111 2.019 . S
H133 C126 0.930 . S
H134 C113 0.930 . S
H135 C125 0.930 . S
Zn136 N140 2.020 . S
Zn136 O144 2.019 . S
Zn136 N146 2.119 . S
Zn136 O154 1.975 . S
C137 N138 1.334 . S
C137 N141 1.336 . S
N138 C137 1.334 . S
N138 C139 1.334 . S
C139 N138 1.334 . S
C139 N140 1.336 . S
N140 Zn136 2.020 . S
N140 C139 1.336 . S
N140 N141 1.354 . S
N141 C137 1.336 . S
N141 N140 1.354 . S
N141 Zn145 2.020 . S
C142 O143 1.244 . S
C142 O166 1.257 . S
O143 C142 1.244 . S
O144 Zn136 2.019 . S
O144 C164 1.257 . S
Zn145 N141 2.020 . S
Zn145 O152 1.975 . S
Zn145 N161 2.119 . S
Zn145 O166 2.019 . S
N146 Zn136 2.119 . S
N146 C148 1.334 . S
N146 C149 1.328 . S
C147 C148 1.391 . S
C147 N150 1.329 . S
C147 H168 0.930 . S
C148 N146 1.334 . S
C148 C147 1.391 . S
C148 H155 0.930 . S
C149 N146 1.328 . S
C149 C151 1.392 . S
C149 H156 0.930 . S
N150 C147 1.329 . S
N150 C151 1.331 . S
C151 C149 1.392 . S
C151 N150 1.331 . S
O152 Zn145 1.975 . S
O152 C153 1.252 . S
C153 O152 1.252 . S
C153 O154 1.252 . S
O154 Zn136 1.975 . S
O154 C153 1.252 . S
H155 C148 0.930 . S
H156 C149 0.930 . S
C157 C158 1.392 . S
C157 N161 1.328 . S
C157 H163 0.930 . S
C158 C157 1.392 . S
C158 N162 1.331 . S
C159 C160 1.391 . S
C159 N162 1.329 . S
C159 H169 0.930 . S
C160 C159 1.391 . S
C160 N161 1.334 . S
C160 H167 0.930 . S
N161 Zn145 2.119 . S
N161 C157 1.328 . S
N161 C160 1.334 . S
N162 C158 1.331 . S
N162 C159 1.329 . S
H163 C157 0.930 . S
C164 O144 1.257 . S
C164 O165 1.244 . S
O165 C164 1.244 . S
O166 C142 1.257 . S
O166 Zn145 2.019 . S
H167 C160 0.930 . S
H168 C147 0.930 . S
H169 C159 0.930 . S
Zn170 N174 2.020 . S
Zn170 O178 2.019 . S
Zn170 N180 2.119 . S
Zn170 O188 1.975 . S
C171 N172 1.334 . S
C171 N175 1.336 . S
N172 C171 1.334 . S
N172 C173 1.334 . S
C173 N172 1.334 . S
C173 N174 1.336 . S
N174 Zn170 2.020 . S
N174 C173 1.336 . S
N174 N175 1.354 . S
N175 C171 1.336 . S
N175 N174 1.354 . S
N175 Zn179 2.020 . S
C176 O177 1.244 . S
C176 O200 1.257 . S
O177 C176 1.244 . S
O178 Zn170 2.019 . S
O178 C198 1.257 . S
Zn179 N175 2.020 . S
Zn179 O186 1.975 . S
Zn179 N195 2.119 . S
Zn179 O200 2.019 . S
N180 Zn170 2.119 . S
N180 C182 1.334 . S
N180 C183 1.328 . S
C181 C182 1.391 . S
C181 N184 1.329 . S
C181 H202 0.930 . S
C182 N180 1.334 . S
C182 C181 1.391 . S
C182 H189 0.930 . S
C183 N180 1.328 . S
C183 C185 1.392 . S
C183 H190 0.930 . S
N184 C181 1.329 . S
N184 C185 1.331 . S
C185 C183 1.392 . S
C185 N184 1.331 . S
O186 Zn179 1.975 . S
O186 C187 1.252 . S
C187 O186 1.252 . S
C187 O188 1.252 . S
O188 Zn170 1.975 . S
O188 C187 1.252 . S
H189 C182 0.930 . S
H190 C183 0.930 . S
C191 C192 1.392 . S
C191 N195 1.328 . S
C191 H197 0.930 . S
C192 C191 1.392 . S
C192 N196 1.331 . S
C193 C194 1.391 . S
C193 N196 1.329 . S
C193 H203 0.930 . S
C194 C193 1.391 . S
C194 N195 1.334 . S
C194 H201 0.930 . S
N195 Zn179 2.119 . S
N195 C191 1.328 . S
N195 C194 1.334 . S
N196 C192 1.331 . S
N196 C193 1.329 . S
H197 C191 0.930 . S
C198 O178 1.257 . S
C198 O199 1.244 . S
O199 C198 1.244 . S
O200 C176 1.257 . S
O200 Zn179 2.019 . S
H201 C194 0.930 . S
H202 C181 0.930 . S
H203 C193 0.930 . S
Zn204 N208 2.020 . S
Zn204 O212 2.019 . S
Zn204 N214 2.119 . S
Zn204 O222 1.975 . S
C205 N206 1.334 . S
C205 N209 1.336 . S
N206 C205 1.334 . S
N206 C207 1.334 . S
C207 N206 1.334 . S
C207 N208 1.336 . S
N208 Zn204 2.020 . S
N208 C207 1.336 . S
N208 N209 1.354 . S
N209 C205 1.336 . S
N209 N208 1.354 . S
N209 Zn213 2.020 . S
C210 O211 1.244 . S
C210 O234 1.257 . S
O211 C210 1.244 . S
O212 Zn204 2.019 . S
O212 C232 1.257 . S
Zn213 N209 2.020 . S
Zn213 O220 1.975 . S
Zn213 N229 2.119 . S
Zn213 O234 2.019 . S
N214 Zn204 2.119 . S
N214 C216 1.334 . S
N214 C217 1.328 . S
C215 C216 1.391 . S
C215 N218 1.329 . S
C215 H236 0.930 . S
C216 N214 1.334 . S
C216 C215 1.391 . S
C216 H223 0.930 . S
C217 N214 1.328 . S
C217 C219 1.392 . S
C217 H224 0.930 . S
N218 C215 1.329 . S
N218 C219 1.331 . S
C219 C217 1.392 . S
C219 N218 1.331 . S
O220 Zn213 1.975 . S
O220 C221 1.252 . S
C221 O220 1.252 . S
C221 O222 1.252 . S
O222 Zn204 1.975 . S
O222 C221 1.252 . S
H223 C216 0.930 . S
H224 C217 0.930 . S
C225 C226 1.392 . S
C225 N229 1.328 . S
C225 H231 0.930 . S
C226 C225 1.392 . S
C226 N230 1.331 . S
C227 C228 1.391 . S
C227 N230 1.329 . S
C227 H237 0.930 . S
C228 C227 1.391 . S
C228 N229 1.334 . S
C228 H235 0.930 . S
N229 Zn213 2.119 . S
N229 C225 1.328 . S
N229 C228 1.334 . S
N230 C226 1.331 . S
N230 C227 1.329 . S
H231 C225 0.930 . S
C232 O212 1.257 . S
C232 O233 1.244 . S
O233 C232 1.244 . S
O234 C210 1.257 . S
O234 Zn213 2.019 . S
H235 C228 0.930 . S
H236 C215 0.930 . S
H237 C227 0.930 . S
Zn238 N242 2.020 . S
Zn238 O246 2.019 . S
Zn238 N248 2.119 . S
Zn238 O256 1.975 . S
C239 N240 1.334 . S
C239 N243 1.336 . S
N240 C239 1.334 . S
N240 C241 1.334 . S
C241 N240 1.334 . S
C241 N242 1.336 . S
N242 Zn238 2.020 . S
N242 C241 1.336 . S
N242 N243 1.354 . S
N243 C239 1.336 . S
N243 N242 1.354 . S
N243 Zn247 2.020 . S
C244 O245 1.244 . S
C244 O268 1.257 . S
O245 C244 1.244 . S
O246 Zn238 2.019 . S
O246 C266 1.257 . S
Zn247 N243 2.020 . S
Zn247 O254 1.975 . S
Zn247 N263 2.119 . S
Zn247 O268 2.019 . S
N248 Zn238 2.119 . S
N248 C250 1.334 . S
N248 C251 1.328 . S
C249 C250 1.391 . S
C249 N252 1.329 . S
C249 H270 0.930 . S
C250 N248 1.334 . S
C250 C249 1.391 . S
C250 H257 0.930 . S
C251 N248 1.328 . S
C251 C253 1.392 . S
C251 H258 0.930 . S
N252 C249 1.329 . S
N252 C253 1.331 . S
C253 C251 1.392 . S
C253 N252 1.331 . S
O254 Zn247 1.975 . S
O254 C255 1.252 . S
C255 O254 1.252 . S
C255 O256 1.252 . S
O256 Zn238 1.975 . S
O256 C255 1.252 . S
H257 C250 0.930 . S
H258 C251 0.930 . S
C259 C260 1.392 . S
C259 N263 1.328 . S
C259 H265 0.930 . S
C260 C259 1.392 . S
C260 N264 1.331 . S
C261 C262 1.391 . S
C261 N264 1.329 . S
C261 H271 0.930 . S
C262 C261 1.391 . S
C262 N263 1.334 . S
C262 H269 0.930 . S
N263 Zn247 2.119 . S
N263 C259 1.328 . S
N263 C262 1.334 . S
N264 C260 1.331 . S
N264 C261 1.329 . S
H265 C259 0.930 . S
C266 O246 1.257 . S
C266 O267 1.244 . S
O267 C266 1.244 . S
O268 C244 1.257 . S
O268 Zn247 2.019 . S
H269 C262 0.930 . S
H270 C249 0.930 . S
H271 C261 0.930 . S
Zn272 N276 2.020 . S
Zn272 O280 2.019 . S
Zn272 N282 2.119 . S
Zn272 O290 1.975 . S
C273 N274 1.334 . S
C273 N277 1.336 . S
N274 C273 1.334 . S
N274 C275 1.334 . S
C275 N274 1.334 . S
C275 N276 1.336 . S
N276 Zn272 2.020 . S
N276 C275 1.336 . S
N276 N277 1.354 . S
N277 C273 1.336 . S
N277 N276 1.354 . S
N277 Zn281 2.020 . S
C278 O279 1.244 . S
C278 O302 1.257 . S
O279 C278 1.244 . S
O280 Zn272 2.019 . S
O280 C300 1.257 . S
Zn281 N277 2.020 . S
Zn281 O288 1.975 . S
Zn281 N297 2.119 . S
Zn281 O302 2.019 . S
N282 Zn272 2.119 . S
N282 C284 1.334 . S
N282 C285 1.328 . S
C283 C284 1.391 . S
C283 N286 1.329 . S
C283 H304 0.930 . S
C284 N282 1.334 . S
C284 C283 1.391 . S
C284 H291 0.930 . S
C285 N282 1.328 . S
C285 C287 1.392 . S
C285 H292 0.930 . S
N286 C283 1.329 . S
N286 C287 1.331 . S
C287 C285 1.392 . S
C287 N286 1.331 . S
O288 Zn281 1.975 . S
O288 C289 1.252 . S
C289 O288 1.252 . S
C289 O290 1.252 . S
O290 Zn272 1.975 . S
O290 C289 1.252 . S
H291 C284 0.930 . S
H292 C285 0.930 . S
C293 C294 1.392 . S
C293 N297 1.328 . S
C293 H299 0.930 . S
C294 C293 1.392 . S
C294 N298 1.331 . S
C295 C296 1.391 . S
C295 N298 1.329 . S
C295 H305 0.930 . S
C296 C295 1.391 . S
C296 N297 1.334 . S
C296 H303 0.930 . S
N297 Zn281 2.119 . S
N297 C293 1.328 . S
N297 C296 1.334 . S
N298 C294 1.331 . S
N298 C295 1.329 . S
H299 C293 0.930 . S
C300 O280 1.257 . S
C300 O301 1.244 . S
O301 C300 1.244 . S
O302 C278 1.257 . S
O302 Zn281 2.019 . S
H303 C296 0.930 . S
H304 C283 0.930 . S
H305 C295 0.930 . S
Zn306 N310 2.020 . S
Zn306 O314 2.019 . S
Zn306 N316 2.119 . S
Zn306 O324 1.975 . S
C307 N308 1.334 . S
C307 N311 1.336 . S
N308 C307 1.334 . S
N308 C309 1.334 . S
C309 N308 1.334 . S
C309 N310 1.336 . S
N310 Zn306 2.020 . S
N310 C309 1.336 . S
N310 N311 1.354 . S
N311 C307 1.336 . S
N311 N310 1.354 . S
N311 Zn315 2.020 . S
C312 O313 1.244 . S
C312 O336 1.257 . S
O313 C312 1.244 . S
O314 Zn306 2.019 . S
O314 C334 1.257 . S
Zn315 N311 2.020 . S
Zn315 O322 1.975 . S
Zn315 N331 2.119 . S
Zn315 O336 2.019 . S
N316 Zn306 2.119 . S
N316 C318 1.334 . S
N316 C319 1.328 . S
C317 C318 1.391 . S
C317 N320 1.329 . S
C317 H338 0.930 . S
C318 N316 1.334 . S
C318 C317 1.391 . S
C318 H325 0.930 . S
C319 N316 1.328 . S
C319 C321 1.392 . S
C319 H326 0.930 . S
N320 C317 1.329 . S
N320 C321 1.331 . S
C321 C319 1.392 . S
C321 N320 1.331 . S
O322 Zn315 1.975 . S
O322 C323 1.252 . S
C323 O322 1.252 . S
C323 O324 1.252 . S
O324 Zn306 1.975 . S
O324 C323 1.252 . S
H325 C318 0.930 . S
H326 C319 0.930 . S
C327 C328 1.392 . S
C327 N331 1.328 . S
C327 H333 0.930 . S
C328 C327 1.392 . S
C328 N332 1.331 . S
C329 C330 1.391 . S
C329 N332 1.329 . S
C329 H339 0.930 . S
C330 C329 1.391 . S
C330 N331 1.334 . S
C330 H337 0.930 . S
N331 Zn315 2.119 . S
N331 C327 1.328 . S
N331 C330 1.334 . S
N332 C328 1.331 . S
N332 C329 1.329 . S
H333 C327 0.930 . S
C334 O314 1.257 . S
C334 O335 1.244 . S
O335 C334 1.244 . S
O336 C312 1.257 . S
O336 Zn315 2.019 . S
H337 C330 0.930 . S
H338 C317 0.930 . S
H339 C329 0.930 . S
Zn340 N344 2.020 . S
Zn340 O348 2.019 . S
Zn340 N350 2.119 . S
Zn340 O358 1.975 . S
C341 N342 1.334 . S
C341 N345 1.336 . S
N342 C341 1.334 . S
N342 C343 1.334 . S
C343 N342 1.334 . S
C343 N344 1.336 . S
N344 Zn340 2.020 . S
N344 C343 1.336 . S
N344 N345 1.354 . S
N345 C341 1.336 . S
N345 N344 1.354 . S
N345 Zn349 2.020 . S
C346 O347 1.244 . S
C346 O370 1.257 . S
O347 C346 1.244 . S
O348 Zn340 2.019 . S
O348 C368 1.257 . S
Zn349 N345 2.020 . S
Zn349 O356 1.975 . S
Zn349 N365 2.119 . S
Zn349 O370 2.019 . S
N350 Zn340 2.119 . S
N350 C352 1.334 . S
N350 C353 1.328 . S
C351 C352 1.391 . S
C351 N354 1.329 . S
C351 H372 0.930 . S
C352 N350 1.334 . S
C352 C351 1.391 . S
C352 H359 0.930 . S
C353 N350 1.328 . S
C353 C355 1.392 . S
C353 H360 0.930 . S
N354 C351 1.329 . S
N354 C355 1.331 . S
C355 C353 1.392 . S
C355 N354 1.331 . S
O356 Zn349 1.975 . S
O356 C357 1.252 . S
C357 O356 1.252 . S
C357 O358 1.252 . S
O358 Zn340 1.975 . S
O358 C357 1.252 . S
H359 C352 0.930 . S
H360 C353 0.930 . S
C361 C362 1.392 . S
C361 N365 1.328 . S
C361 H367 0.930 . S
C362 C361 1.392 . S
C362 N366 1.331 . S
C363 C364 1.391 . S
C363 N366 1.329 . S
C363 H373 0.930 . S
C364 C363 1.391 . S
C364 N365 1.334 . S
C364 H371 0.930 . S
N365 Zn349 2.119 . S
N365 C361 1.328 . S
N365 C364 1.334 . S
N366 C362 1.331 . S
N366 C363 1.329 . S
H367 C361 0.930 . S
C368 O348 1.257 . S
C368 O369 1.244 . S
O369 C368 1.244 . S
O370 C346 1.257 . S
O370 Zn349 2.019 . S
H371 C364 0.930 . S
H372 C351 0.930 . S
H373 C363 0.930 . S
Zn374 N378 2.020 . S
Zn374 O382 2.019 . S
Zn374 N384 2.119 . S
Zn374 O392 1.975 . S
C375 N376 1.334 . S
C375 N379 1.336 . S
N376 C375 1.334 . S
N376 C377 1.334 . S
C377 N376 1.334 . S
C377 N378 1.336 . S
N378 Zn374 2.020 . S
N378 C377 1.336 . S
N378 N379 1.354 . S
N379 C375 1.336 . S
N379 N378 1.354 . S
N379 Zn383 2.020 . S
C380 O381 1.244 . S
C380 O404 1.257 . S
O381 C380 1.244 . S
O382 Zn374 2.019 . S
O382 C402 1.257 . S
Zn383 N379 2.020 . S
Zn383 O390 1.975 . S
Zn383 N399 2.119 . S
Zn383 O404 2.019 . S
N384 Zn374 2.119 . S
N384 C386 1.334 . S
N384 C387 1.328 . S
C385 C386 1.391 . S
C385 N388 1.329 . S
C385 H406 0.930 . S
C386 N384 1.334 . S
C386 C385 1.391 . S
C386 H393 0.930 . S
C387 N384 1.328 . S
C387 C389 1.392 . S
C387 H394 0.930 . S
N388 C385 1.329 . S
N388 C389 1.331 . S
C389 C387 1.392 . S
C389 N388 1.331 . S
O390 Zn383 1.975 . S
O390 C391 1.252 . S
C391 O390 1.252 . S
C391 O392 1.252 . S
O392 Zn374 1.975 . S
O392 C391 1.252 . S
H393 C386 0.930 . S
H394 C387 0.930 . S
C395 C396 1.392 . S
C395 N399 1.328 . S
C395 H401 0.930 . S
C396 C395 1.392 . S
C396 N400 1.331 . S
C397 C398 1.391 . S
C397 N400 1.329 . S
C397 H407 0.930 . S
C398 C397 1.391 . S
C398 N399 1.334 . S
C398 H405 0.930 . S
N399 Zn383 2.119 . S
N399 C395 1.328 . S
N399 C398 1.334 . S
N400 C396 1.331 . S
N400 C397 1.329 . S
H401 C395 0.930 . S
C402 O382 1.257 . S
C402 O403 1.244 . S
O403 C402 1.244 . S
O404 C380 1.257 . S
O404 Zn383 2.019 . S
H405 C398 0.930 . S
H406 C385 0.930 . S
H407 C397 0.930 . S
Zn408 N412 2.020 . S
Zn408 O416 2.019 . S
Zn408 N418 2.119 . S
Zn408 O426 1.975 . S
C409 N410 1.334 . S
C409 N413 1.336 . S
N410 C409 1.334 . S
N410 C411 1.334 . S
C411 N410 1.334 . S
C411 N412 1.336 . S
N412 Zn408 2.020 . S
N412 C411 1.336 . S
N412 N413 1.354 . S
N413 C409 1.336 . S
N413 N412 1.354 . S
N413 Zn417 2.020 . S
C414 O415 1.244 . S
C414 O438 1.257 . S
O415 C414 1.244 . S
O416 Zn408 2.019 . S
O416 C436 1.257 1_565 S
Zn417 N413 2.020 . S
Zn417 O424 1.975 . S
Zn417 N433 2.119 . S
Zn417 O438 2.019 . S
N418 Zn408 2.119 . S
N418 C420 1.334 . S
N418 C421 1.328 . S
C419 C420 1.391 . S
C419 N422 1.329 . S
C419 H440 0.930 . S
C420 N418 1.334 . S
C420 C419 1.391 . S
C420 H427 0.930 . S
C421 N418 1.328 . S
C421 C423 1.392 . S
C421 H428 0.930 . S
N422 C419 1.329 . S
N422 C423 1.331 . S
C423 C421 1.392 . S
C423 N422 1.331 . S
O424 Zn417 1.975 . S
O424 C425 1.252 . S
C425 O424 1.252 . S
C425 O426 1.252 . S
O426 Zn408 1.975 . S
O426 C425 1.252 . S
H427 C420 0.930 . S
H428 C421 0.930 . S
C429 C430 1.392 . S
C429 N433 1.328 . S
C429 H435 0.930 . S
C430 C429 1.392 . S
C430 N434 1.331 1_565 S
C431 C432 1.391 1_545 S
C431 N434 1.329 . S
C431 H441 0.930 . S
C432 C431 1.391 1_565 S
C432 N433 1.334 . S
C432 H439 0.930 . S
N433 Zn417 2.119 . S
N433 C429 1.328 . S
N433 C432 1.334 . S
N434 C430 1.331 1_545 S
N434 C431 1.329 . S
H435 C429 0.930 . S
C436 O416 1.257 1_545 S
C436 O437 1.244 . S
O437 C436 1.244 . S
O438 C414 1.257 . S
O438 Zn417 2.019 . S
H439 C432 0.930 . S
H440 C419 0.930 . S
H441 C431 0.930 . S
Zn442 N446 2.020 . S
Zn442 O450 2.019 . S
Zn442 N452 2.119 . S
Zn442 O460 1.975 . S
C443 N444 1.334 . S
C443 N447 1.336 . S
N444 C443 1.334 . S
N444 C445 1.334 . S
C445 N444 1.334 . S
C445 N446 1.336 . S
N446 Zn442 2.020 . S
N446 C445 1.336 . S
N446 N447 1.354 . S
N447 C443 1.336 . S
N447 N446 1.354 . S
N447 Zn451 2.020 . S
C448 O449 1.244 . S
C448 O472 1.257 1_455 S
O449 C448 1.244 . S
O450 Zn442 2.019 . S
O450 C470 1.257 . S
Zn451 N447 2.020 . S
Zn451 O458 1.975 . S
Zn451 N467 2.119 . S
Zn451 O472 2.019 . S
N452 Zn442 2.119 . S
N452 C454 1.334 . S
N452 C455 1.328 . S
C453 C454 1.391 1_455 S
C453 N456 1.329 . S
C453 H474 0.930 . S
C454 N452 1.334 . S
C454 C453 1.391 1_655 S
C454 H461 0.930 . S
C455 N452 1.328 . S
C455 C457 1.392 . S
C455 H462 0.930 . S
N456 C453 1.329 . S
N456 C457 1.331 1_455 S
C457 C455 1.392 . S
C457 N456 1.331 1_655 S
O458 Zn451 1.975 . S
O458 C459 1.252 . S
C459 O458 1.252 . S
C459 O460 1.252 . S
O460 Zn442 1.975 . S
O460 C459 1.252 . S
H461 C454 0.930 . S
H462 C455 0.930 . S
C463 C464 1.392 . S
C463 N467 1.328 . S
C463 H469 0.930 . S
C464 C463 1.392 . S
C464 N468 1.331 . S
C465 C466 1.391 . S
C465 N468 1.329 . S
C465 H475 0.930 . S
C466 C465 1.391 . S
C466 N467 1.334 . S
C466 H473 0.930 . S
N467 Zn451 2.119 . S
N467 C463 1.328 . S
N467 C466 1.334 . S
N468 C464 1.331 . S
N468 C465 1.329 . S
H469 C463 0.930 . S
C470 O450 1.257 . S
C470 O471 1.244 . S
O471 C470 1.244 . S
O472 C448 1.257 1_655 S
O472 Zn451 2.019 . S
H473 C466 0.930 . S
H474 C453 0.930 . S
H475 C465 0.930 . S
Zn476 N480 2.020 . S
Zn476 O484 2.019 . S
Zn476 N486 2.119 . S
Zn476 O494 1.975 . S
C477 N478 1.334 . S
C477 N481 1.336 . S
N478 C477 1.334 . S
N478 C479 1.334 . S
C479 N478 1.334 . S
C479 N480 1.336 . S
N480 Zn476 2.020 . S
N480 C479 1.336 . S
N480 N481 1.354 . S
N481 C477 1.336 . S
N481 N480 1.354 . S
N481 Zn485 2.020 . S
C482 O483 1.244 . S
C482 O506 1.257 1_565 S
O483 C482 1.244 . S
O484 Zn476 2.019 . S
O484 C504 1.257 . S
Zn485 N481 2.020 . S
Zn485 O492 1.975 . S
Zn485 N501 2.119 . S
Zn485 O506 2.019 . S
N486 Zn476 2.119 . S
N486 C488 1.334 . S
N486 C489 1.328 . S
C487 C488 1.391 1_565 S
C487 N490 1.329 . S
C487 H508 0.930 . S
C488 N486 1.334 . S
C488 C487 1.391 1_545 S
C488 H495 0.930 . S
C489 N486 1.328 . S
C489 C491 1.392 . S
C489 H496 0.930 . S
N490 C487 1.329 . S
N490 C491 1.331 1_565 S
C491 C489 1.392 . S
C491 N490 1.331 1_545 S
O492 Zn485 1.975 . S
O492 C493 1.252 . S
C493 O492 1.252 . S
C493 O494 1.252 . S
O494 Zn476 1.975 . S
O494 C493 1.252 . S
H495 C488 0.930 . S
H496 C489 0.930 . S
C497 C498 1.392 . S
C497 N501 1.328 . S
C497 H503 0.930 . S
C498 C497 1.392 . S
C498 N502 1.331 . S
C499 C500 1.391 . S
C499 N502 1.329 . S
C499 H509 0.930 . S
C500 C499 1.391 . S
C500 N501 1.334 . S
C500 H507 0.930 . S
N501 Zn485 2.119 . S
N501 C497 1.328 . S
N501 C500 1.334 . S
N502 C498 1.331 . S
N502 C499 1.329 . S
H503 C497 0.930 . S
C504 O484 1.257 . S
C504 O505 1.244 . S
O505 C504 1.244 . S
O506 C482 1.257 1_545 S
O506 Zn485 2.019 . S
H507 C500 0.930 . S
H508 C487 0.930 . S
H509 C499 0.930 . S
Zn510 N514 2.020 . S
Zn510 O518 2.019 . S
Zn510 N520 2.119 . S
Zn510 O528 1.975 . S
C511 N512 1.334 . S
C511 N515 1.336 . S
N512 C511 1.334 . S
N512 C513 1.334 . S
C513 N512 1.334 . S
C513 N514 1.336 . S
N514 Zn510 2.020 . S
N514 C513 1.336 . S
N514 N515 1.354 . S
N515 C511 1.336 . S
N515 N514 1.354 . S
N515 Zn519 2.020 . S
C516 O517 1.244 . S
C516 O540 1.257 . S
O517 C516 1.244 . S
O518 Zn510 2.019 . S
O518 C538 1.257 1_455 S
Zn519 N515 2.020 . S
Zn519 O526 1.975 . S
Zn519 N535 2.119 . S
Zn519 O540 2.019 . S
N520 Zn510 2.119 . S
N520 C522 1.334 . S
N520 C523 1.328 . S
C521 C522 1.391 . S
C521 N524 1.329 . S
C521 H542 0.930 . S
C522 N520 1.334 . S
C522 C521 1.391 . S
C522 H529 0.930 . S
C523 N520 1.328 . S
C523 C525 1.392 . S
C523 H530 0.930 . S
N524 C521 1.329 . S
N524 C525 1.331 . S
C525 C523 1.392 . S
C525 N524 1.331 . S
O526 Zn519 1.975 . S
O526 C527 1.252 . S
C527 O526 1.252 . S
C527 O528 1.252 . S
O528 Zn510 1.975 . S
O528 C527 1.252 . S
H529 C522 0.930 . S
H530 C523 0.930 . S
C531 C532 1.392 . S
C531 N535 1.328 . S
C531 H537 0.930 . S
C532 C531 1.392 . S
C532 N536 1.331 1_455 S
C533 C534 1.391 1_655 S
C533 N536 1.329 . S
C533 H543 0.930 . S
C534 C533 1.391 1_455 S
C534 N535 1.334 . S
C534 H541 0.930 . S
N535 Zn519 2.119 . S
N535 C531 1.328 . S
N535 C534 1.334 . S
N536 C532 1.331 1_655 S
N536 C533 1.329 . S
H537 C531 0.930 . S
C538 O518 1.257 1_655 S
C538 O539 1.244 . S
O539 C538 1.244 . S
O540 C516 1.257 . S
O540 Zn519 2.019 . S
H541 C534 0.930 . S
H542 C521 0.930 . S
H543 C533 0.930 . S
C544 C545 1.387 . S
C544 H548 0.950 . S
C544 C553 1.390 1_565 S
C545 C544 1.387 . S
C545 C547 1.387 . S
H546 C553 0.950 . S
C547 C545 1.387 . S
C547 C549 1.390 1_565 S
C547 H551 0.950 . S
H548 C544 0.950 . S
C549 C547 1.390 1_545 S
C549 C550 1.387 . S
C549 H552 0.950 . S
C550 C549 1.387 . S
C550 C553 1.387 . S
H551 C547 0.950 . S
H552 C549 0.950 . S
C553 C544 1.390 1_545 S
C553 H546 0.950 . S
C553 C550 1.387 . S
C554 C555 1.387 . S
C554 H558 0.950 . S
C554 C563 1.390 1_655 S
C555 C554 1.387 . S
C555 C557 1.387 . S
H556 C563 0.950 . S
C557 C555 1.387 . S
C557 C559 1.390 1_655 S
C557 H561 0.950 . S
H558 C554 0.950 . S
C559 C557 1.390 1_455 S
C559 C560 1.387 . S
C559 H562 0.950 . S
C560 C559 1.387 . S
C560 C563 1.387 . S
H561 C557 0.950 . S
H562 C559 0.950 . S
C563 C554 1.390 1_455 S
C563 H556 0.950 . S
C563 C560 1.387 . S
C564 C565 1.387 . S
C564 H568 0.950 . S
C564 C573 1.390 . S
C565 C564 1.387 . S
C565 C567 1.387 . S
H566 C573 0.950 . S
C567 C565 1.387 . S
C567 C569 1.390 . S
C567 H571 0.950 . S
H568 C564 0.950 . S
C569 C567 1.390 . S
C569 C570 1.387 . S
C569 H572 0.950 . S
C570 C569 1.387 . S
C570 C573 1.387 . S
H571 C567 0.950 . S
H572 C569 0.950 . S
C573 C564 1.390 . S
C573 H566 0.950 . S
C573 C570 1.387 . S
C574 C575 1.387 . S
C574 H578 0.950 . S
C574 C583 1.390 . S
C575 C574 1.387 . S
C575 C577 1.387 . S
H576 C583 0.950 . S
C577 C575 1.387 . S
C577 C579 1.390 . S
C577 H581 0.950 . S
H578 C574 0.950 . S
C579 C577 1.390 . S
C579 C580 1.387 . S
C579 H582 0.950 . S
C580 C579 1.387 . S
C580 C583 1.387 . S
H581 C577 0.950 . S
H582 C579 0.950 . S
C583 C574 1.390 . S
C583 H576 0.950 . S
C583 C580 1.387 . S
C584 C585 1.387 . S
C584 H588 0.950 . S
C584 C593 1.390 1_655 S
C585 C584 1.387 . S
C585 C587 1.387 . S
H586 C593 0.950 . S
C587 C585 1.387 . S
C587 C589 1.390 1_655 S
C587 H591 0.950 . S
H588 C584 0.950 . S
C589 C587 1.390 1_455 S
C589 C590 1.387 . S
C589 H592 0.950 . S
C590 C589 1.387 . S
C590 C593 1.387 . S
H591 C587 0.950 . S
H592 C589 0.950 . S
C593 C584 1.390 1_455 S
C593 H586 0.950 . S
C593 C590 1.387 . S
C594 C595 1.387 . S
C594 H598 0.950 . S
C594 C603 1.390 1_565 S
C595 C594 1.387 . S
C595 C597 1.387 . S
H596 C603 0.950 . S
C597 C595 1.387 . S
C597 C599 1.390 1_565 S
C597 H601 0.950 . S
H598 C594 0.950 . S
C599 C597 1.390 1_545 S
C599 C600 1.387 . S
C599 H602 0.950 . S
C600 C599 1.387 . S
C600 C603 1.387 . S
H601 C597 0.950 . S
H602 C599 0.950 . S
C603 C594 1.390 1_545 S
C603 H596 0.950 . S
C603 C600 1.387 . S
C604 C605 1.387 . S
C604 H608 0.950 . S
C604 C613 1.390 1_665 S
C605 C604 1.387 . S
C605 C607 1.387 . S
H606 C613 0.950 . S
C607 C605 1.387 . S
C607 C609 1.390 1_665 S
C607 H611 0.950 . S
H608 C604 0.950 . S
C609 C607 1.390 1_445 S
C609 C610 1.387 . S
C609 H612 0.950 . S
C610 C609 1.387 . S
C610 C613 1.387 . S
H611 C607 0.950 . S
H612 C609 0.950 . S
C613 C604 1.390 1_445 S
C613 H606 0.950 . S
C613 C610 1.387 . S
C614 C615 1.387 . S
C614 H618 0.950 . S
C614 C623 1.390 1_465 S
C615 C614 1.387 . S
C615 C617 1.387 . S
H616 C623 0.950 . S
C617 C615 1.387 . S
C617 C619 1.390 1_465 S
C617 H621 0.950 . S
H618 C614 0.950 . S
C619 C617 1.390 1_645 S
C619 C620 1.387 . S
C619 H622 0.950 . S
C620 C619 1.387 . S
C620 C623 1.387 . S
H621 C617 0.950 . S
H622 C619 0.950 . S
C623 C614 1.390 1_645 S
C623 H616 0.950 . S
C623 C620 1.387 . S
C624 C625 1.387 . S
C624 H628 0.950 . S
C624 C633 1.390 . S
C625 C624 1.387 . S
C625 C627 1.387 . S
H626 C633 0.950 . S
C627 C625 1.387 . S
C627 C629 1.390 . S
C627 H631 0.950 . S
H628 C624 0.950 . S
C629 C627 1.390 . S
C629 C630 1.387 . S
C629 H632 0.950 . S
C630 C629 1.387 . S
C630 C633 1.387 . S
H631 C627 0.950 . S
H632 C629 0.950 . S
C633 C624 1.390 . S
C633 H626 0.950 . S
C633 C630 1.387 . S
C634 C635 1.387 . S
C634 H638 0.950 . S
C634 C643 1.390 . S
C635 C634 1.387 . S
C635 C637 1.387 . S
H636 C643 0.950 . S
C637 C635 1.387 . S
C637 C639 1.390 . S
C637 H641 0.950 . S
H638 C634 0.950 . S
C639 C637 1.390 . S
C639 C640 1.387 . S
C639 H642 0.950 . S
C640 C639 1.387 . S
C640 C643 1.387 . S
H641 C637 0.950 . S
H642 C639 0.950 . S
C643 C634 1.390 . S
C643 H636 0.950 . S
C643 C640 1.387 . S
C644 C645 1.387 . S
C644 H648 0.950 . S
C644 C653 1.390 . S
C645 C644 1.387 . S
C645 C647 1.387 . S
H646 C653 0.950 . S
C647 C645 1.387 . S
C647 C649 1.390 . S
C647 H651 0.950 . S
H648 C644 0.950 . S
C649 C647 1.390 . S
C649 C650 1.387 . S
C649 H652 0.950 . S
C650 C649 1.387 . S
C650 C653 1.387 . S
H651 C647 0.950 . S
H652 C649 0.950 . S
C653 C644 1.390 . S
C653 H646 0.950 . S
C653 C650 1.387 . S
C654 C655 1.387 . S
C654 H658 0.950 . S
C654 C663 1.390 . S
C655 C654 1.387 . S
C655 C657 1.387 . S
H656 C663 0.950 . S
C657 C655 1.387 . S
C657 C659 1.390 . S
C657 H661 0.950 . S
H658 C654 0.950 . S
C659 C657 1.390 . S
C659 C660 1.387 . S
C659 H662 0.950 . S
C660 C659 1.387 . S
C660 C663 1.387 . S
H661 C657 0.950 . S
H662 C659 0.950 . S
C663 C654 1.390 . S
C663 H656 0.950 . S
C663 C660 1.387 . S
C664 C665 1.387 . S
C664 H668 0.950 . S
C664 C673 1.390 . S
C665 C664 1.387 . S
C665 C667 1.387 . S
H666 C673 0.950 . S
C667 C665 1.387 . S
C667 C669 1.390 . S
C667 H671 0.950 . S
H668 C664 0.950 . S
C669 C667 1.390 . S
C669 C670 1.387 . S
C669 H672 0.950 . S
C670 C669 1.387 . S
C670 C673 1.387 . S
H671 C667 0.950 . S
H672 C669 0.950 . S
C673 C664 1.390 . S
C673 H666 0.950 . S
C673 C670 1.387 . S
C674 C675 1.387 . S
C674 H678 0.950 . S
C674 C683 1.390 . S
C675 C674 1.387 . S
C675 C677 1.387 . S
H676 C683 0.950 . S
C677 C675 1.387 . S
C677 C679 1.390 . S
C677 H681 0.950 . S
H678 C674 0.950 . S
C679 C677 1.390 . S
C679 C680 1.387 . S
C679 H682 0.950 . S
C680 C679 1.387 . S
C680 C683 1.387 . S
H681 C677 0.950 . S
H682 C679 0.950 . S
C683 C674 1.390 . S
C683 H676 0.950 . S
C683 C680 1.387 . S
C684 C685 1.387 . S
C684 H688 0.950 . S
C684 C693 1.390 . S
C685 C684 1.387 . S
C685 C687 1.387 . S
H686 C693 0.950 . S
C687 C685 1.387 . S
C687 C689 1.390 . S
C687 H691 0.950 . S
H688 C684 0.950 . S
C689 C687 1.390 . S
C689 C690 1.387 . S
C689 H692 0.950 . S
C690 C689 1.387 . S
C690 C693 1.387 . S
H691 C687 0.950 . S
H692 C689 0.950 . S
C693 C684 1.390 . S
C693 H686 0.950 . S
C693 C690 1.387 . S
C694 C695 1.387 . S
C694 H698 0.950 . S
C694 C703 1.390 . S
C695 C694 1.387 . S
C695 C697 1.387 . S
H696 C703 0.950 . S
C697 C695 1.387 . S
C697 C699 1.390 . S
C697 H701 0.950 . S
H698 C694 0.950 . S
C699 C697 1.390 . S
C699 C700 1.387 . S
C699 H702 0.950 . S
C700 C699 1.387 . S
C700 C703 1.387 . S
H701 C697 0.950 . S
H702 C699 0.950 . S
C703 C694 1.390 . S
C703 H696 0.950 . S
C703 C700 1.387 . S
C704 C705 1.387 . S
C704 H708 0.950 1_565 S
C704 C713 1.390 . S
C705 C704 1.387 . S
C705 C707 1.387 . S
H706 C713 0.950 . S
C707 C705 1.387 . S
C707 C709 1.390 . S
C707 H711 0.950 . S
H708 C704 0.950 1_545 S
C709 C707 1.390 . S
C709 C710 1.387 . S
C709 H712 0.950 . S
C710 C709 1.387 . S
C710 C713 1.387 . S
H711 C707 0.950 . S
H712 C709 0.950 . S
C713 C704 1.390 . S
C713 H706 0.950 . S
C713 C710 1.387 . S
C714 C715 1.387 . S
C714 H718 0.950 . S
C714 C723 1.390 . S
C715 C714 1.387 . S
C715 C717 1.387 . S
H716 C723 0.950 . S
C717 C715 1.387 . S
C717 C719 1.390 . S
C717 H721 0.959 . S
H718 C714 0.950 . S
C719 C717 1.390 . S
C719 C720 1.387 . S
C719 H722 0.950 . S
C720 C719 1.387 . S
C720 C723 1.387 . S
H721 C717 0.959 . S
H722 C719 0.950 . S
C723 C714 1.390 . S
C723 H716 0.950 . S
C723 C720 1.387 . S
C724 C725 1.387 . S
C724 H728 0.950 . S
C724 C733 1.390 . S
C725 C724 1.387 . S
C725 C727 1.387 . S
H726 C733 0.950 . S
C727 C725 1.387 . S
C727 C729 1.390 . S
C727 H731 0.950 . S
H728 C724 0.950 . S
C729 C727 1.390 . S
C729 C730 1.387 . S
C729 H732 0.950 . S
C730 C729 1.387 . S
C730 C733 1.387 . S
H731 C727 0.950 . S
H732 C729 0.950 . S
C733 C724 1.390 . S
C733 H726 0.950 . S
C733 C730 1.387 . S
C734 C735 1.387 . S
C734 H738 0.950 . S
C734 C743 1.390 . S
C735 C734 1.387 . S
C735 C737 1.387 . S
H736 C743 0.950 . S
C737 C735 1.387 . S
C737 C739 1.390 . S
C737 H741 0.950 . S
H738 C734 0.950 . S
C739 C737 1.390 . S
C739 C740 1.387 . S
C739 H742 0.950 . S
C740 C739 1.387 . S
C740 C743 1.387 . S
H741 C737 0.950 . S
H742 C739 0.950 . S
C743 C734 1.390 . S
C743 H736 0.950 . S
C743 C740 1.387 . S
C744 C745 1.387 . S
C744 H748 0.950 . S
C744 C753 1.390 . S
C745 C744 1.387 . S
C745 C747 1.387 . S
H746 C753 0.950 . S
C747 C745 1.387 . S
C747 C749 1.390 . S
C747 H751 0.950 1_554 S
H748 C744 0.950 . S
C749 C747 1.390 . S
C749 C750 1.387 . S
C749 H752 0.950 . S
C750 C749 1.387 . S
C750 C753 1.387 . S
H751 C747 0.950 1_556 S
H752 C749 0.950 . S
C753 C744 1.390 . S
C753 H746 0.950 . S
C753 C750 1.387 . S
C754 C755 1.387 . S
C754 H758 0.950 . S
C754 C763 1.390 . S
C755 C754 1.387 . S
C755 C757 1.387 . S
H756 C763 0.950 . S
C757 C755 1.387 . S
C757 C759 1.390 . S
C757 H761 0.950 1_556 S
H758 C754 0.950 . S
C759 C757 1.390 . S
C759 C760 1.387 . S
C759 H762 0.950 . S
C760 C759 1.387 . S
C760 C763 1.387 . S
H761 C757 0.950 1_554 S
H762 C759 0.950 . S
C763 C754 1.390 . S
C763 H756 0.950 . S
C763 C760 1.387 . S
C764 C765 1.387 . S
C764 H768 0.950 . S
C764 C773 1.390 . S
C765 C764 1.387 . S
C765 C767 1.387 . S
H766 C773 0.950 . S
C767 C765 1.387 . S
C767 C769 1.390 . S
C767 H771 0.950 . S
H768 C764 0.950 . S
C769 C767 1.390 . S
C769 C770 1.387 . S
C769 H772 0.950 . S
C770 C769 1.387 . S
C770 C773 1.387 . S
H771 C767 0.950 . S
H772 C769 0.950 . S
C773 C764 1.390 . S
C773 H766 0.950 . S
C773 C770 1.387 . S
C774 C775 1.387 . S
C774 H778 0.950 1_556 S
C774 C783 1.390 . S
C775 C774 1.387 . S
C775 C777 1.387 . S
H776 C783 0.950 . S
C777 C775 1.387 . S
C777 C779 1.390 . S
C777 H781 0.950 . S
H778 C774 0.950 1_554 S
C779 C777 1.390 . S
C779 C780 1.387 . S
C779 H782 0.950 . S
C780 C779 1.387 . S
C780 C783 1.387 . S
H781 C777 0.950 . S
H782 C779 0.950 . S
C783 C774 1.390 . S
C783 H776 0.950 . S
C783 C780 1.387 . S
C784 C785 1.387 . S
C784 H788 0.950 . S
C784 C793 1.390 . S
C785 C784 1.387 . S
C785 C787 1.387 . S
H786 C793 0.950 . S
C787 C785 1.387 . S
C787 C789 1.390 . S
C787 H791 0.950 . S
H788 C784 0.950 . S
C789 C787 1.390 . S
C789 C790 1.387 . S
C789 H792 0.950 . S
C790 C789 1.387 . S
C790 C793 1.387 . S
H791 C787 0.950 . S
H792 C789 0.950 . S
C793 C784 1.390 . S
C793 H786 0.950 . S
C793 C790 1.387 . S
C794 C795 1.387 . S
C794 H798 0.950 . S
C794 C803 1.390 . S
C795 C794 1.387 . S
C795 C797 1.387 . S
H796 C803 0.950 . S
C797 C795 1.387 . S
C797 C799 1.390 . S
C797 H801 0.950 . S
H798 C794 0.950 . S
C799 C797 1.390 . S
C799 C800 1.387 . S
C799 H802 0.950 . S
C800 C799 1.387 . S
C800 C803 1.387 . S
H801 C797 0.950 . S
H802 C799 0.950 . S
C803 C794 1.390 . S
C803 H796 0.950 . S
C803 C800 1.387 . S
C804 C805 1.387 . S
C804 H808 0.950 . S
C804 C813 1.390 . S
C805 C804 1.387 . S
C805 C807 1.387 . S
H806 C813 0.950 . S
C807 C805 1.387 . S
C807 C809 1.390 . S
C807 H811 0.950 . S
H808 C804 0.950 . S
C809 C807 1.390 . S
C809 C810 1.387 . S
C809 H812 0.950 . S
C810 C809 1.387 . S
C810 C813 1.387 . S
H811 C807 0.950 . S
H812 C809 0.950 . S
C813 C804 1.390 . S
C813 H806 0.950 . S
C813 C810 1.387 . S
C814 C815 1.387 . S
C814 H818 0.950 . S
C814 C823 1.390 . S
C815 C814 1.387 . S
C815 C817 1.387 . S
H816 C823 0.950 . S
C817 C815 1.387 . S
C817 C819 1.390 . S
C817 H821 0.950 . S
H818 C814 0.950 . S
C819 C817 1.390 . S
C819 C820 1.387 . S
C819 H822 0.950 . S
C820 C819 1.387 . S
C820 C823 1.387 . S
H821 C817 0.950 . S
H822 C819 0.950 . S
C823 C814 1.390 . S
C823 H816 0.950 . S
C823 C820 1.387 . S
C824 C825 1.387 . S
C824 H828 0.950 1_545 S
C824 C833 1.390 . S
C825 C824 1.387 . S
C825 C827 1.387 . S
H826 C833 0.950 . S
C827 C825 1.387 . S
C827 C829 1.390 . S
C827 H831 0.950 . S
H828 C824 0.950 1_565 S
C829 C827 1.390 . S
C829 C830 1.387 . S
C829 H832 0.950 . S
C830 C829 1.387 . S
C830 C833 1.387 . S
H831 C827 0.950 . S
H832 C829 0.950 . S
C833 C824 1.390 . S
C833 H826 0.950 . S
C833 C830 1.387 . S
C834 C835 1.387 . S
C834 H838 0.950 . S
C834 C843 1.390 . S
C835 C834 1.387 . S
C835 C837 1.387 . S
H836 C843 0.950 . S
C837 C835 1.387 . S
C837 C839 1.390 . S
C837 H841 0.950 . S
H838 C834 0.950 . S
C839 C837 1.390 . S
C839 C840 1.387 . S
C839 H842 0.933 1_455 S
C840 C839 1.387 . S
C840 C843 1.387 . S
H841 C837 0.950 . S
H842 C839 0.933 1_655 S
C843 C834 1.390 . S
C843 H836 0.950 . S
C843 C840 1.387 . S
C844 C845 1.387 . S
C844 H848 0.950 . S
C844 C853 1.390 . S
C845 C844 1.387 . S
C845 C847 1.387 . S
H846 C853 0.950 . S
C847 C845 1.387 . S
C847 C849 1.390 . S
C847 H851 0.950 1_565 S
H848 C844 0.950 . S
C849 C847 1.390 . S
C849 C850 1.387 . S
C849 H852 0.950 . S
C850 C849 1.387 . S
C850 C853 1.387 . S
H851 C847 0.950 1_545 S
H852 C849 0.950 . S
C853 C844 1.390 . S
C853 H846 0.950 . S
C853 C850 1.387 . S
C854 C855 1.387 . S
C854 H858 0.950 . S
C854 C863 1.390 . S
C855 C854 1.387 . S
C855 C857 1.387 . S
H856 C863 0.950 . S
C857 C855 1.387 . S
C857 C859 1.390 . S
C857 H861 0.950 . S
H858 C854 0.950 . S
C859 C857 1.390 . S
C859 C860 1.387 . S
C859 H862 0.950 . S
C860 C859 1.387 . S
C860 C863 1.387 . S
H861 C857 0.950 . S
H862 C859 0.950 . S
C863 C854 1.390 . S
C863 H856 0.950 . S
C863 C860 1.387 . S
C864 C865 1.387 . S
C864 H868 0.950 . S
C864 C873 1.390 . S
C865 C864 1.387 . S
C865 C867 1.387 . S
H866 C873 0.950 . S
C867 C865 1.387 . S
C867 C869 1.390 . S
C867 H871 0.950 . S
H868 C864 0.950 . S
C869 C867 1.390 . S
C869 C870 1.387 . S
C869 H872 0.950 . S
C870 C869 1.387 . S
C870 C873 1.387 . S
H871 C867 0.950 . S
H872 C869 0.950 . S
C873 C864 1.390 . S
C873 H866 0.950 . S
C873 C870 1.387 . S
C874 C875 1.387 . S
C874 H878 0.950 . S
C874 C883 1.390 . S
C875 C874 1.387 . S
C875 C877 1.387 . S
H876 C883 0.950 . S
C877 C875 1.387 . S
C877 C879 1.390 . S
C877 H881 0.950 . S
H878 C874 0.950 . S
C879 C877 1.390 . S
C879 C880 1.387 . S
C879 H882 0.950 . S
C880 C879 1.387 . S
C880 C883 1.387 . S
H881 C877 0.950 . S
H882 C879 0.950 . S
C883 C874 1.390 . S
C883 H876 0.950 . S
C883 C880 1.387 . S
C884 C885 1.387 . S
C884 H888 0.950 . S
C884 C893 1.390 . S
C885 C884 1.387 . S
C885 C887 1.387 . S
H886 C893 0.950 . S
C887 C885 1.387 . S
C887 C889 1.390 . S
C887 H891 0.950 . S
H888 C884 0.950 . S
C889 C887 1.390 . S
C889 C890 1.387 . S
C889 H892 0.950 . S
C890 C889 1.387 . S
C890 C893 1.387 . S
H891 C887 0.950 . S
H892 C889 0.950 . S
C893 C884 1.390 . S
C893 H886 0.950 . S
C893 C890 1.387 . S
C894 C895 1.387 . S
C894 H898 0.950 . S
C894 C903 1.390 . S
C895 C894 1.387 . S
C895 C897 1.387 . S
H896 C903 0.950 . S
C897 C895 1.387 . S
C897 C899 1.390 . S
C897 H901 0.950 . S
H898 C894 0.950 . S
C899 C897 1.390 . S
C899 C900 1.387 . S
C899 H902 0.950 . S
C900 C899 1.387 . S
C900 C903 1.387 . S
H901 C897 0.950 . S
H902 C899 0.950 . S
C903 C894 1.390 . S
C903 H896 0.950 . S
C903 C900 1.387 . S
C904 C905 1.387 . S
C904 H908 0.950 . S
C904 C913 1.390 . S
C905 C904 1.387 . S
C905 C907 1.387 . S
H906 C913 0.950 . S
C907 C905 1.387 . S
C907 C909 1.390 . S
C907 H911 0.950 . S
H908 C904 0.950 . S
C909 C907 1.390 . S
C909 C910 1.387 . S
C909 H912 0.950 . S
C910 C909 1.387 . S
C910 C913 1.387 . S
H911 C907 0.950 . S
H912 C909 0.950 . S
C913 C904 1.390 . S
C913 H906 0.950 . S
C913 C910 1.387 . S
C914 C915 1.387 . S
C914 H918 0.950 . S
C914 C923 1.390 . S
C915 C914 1.387 . S
C915 C917 1.387 . S
H916 C923 0.950 . S
C917 C915 1.387 . S
C917 C919 1.390 . S
C917 H921 0.950 . S
H918 C914 0.950 . S
C919 C917 1.390 . S
C919 C920 1.387 . S
C919 H922 0.950 . S
C920 C919 1.387 . S
C920 C923 1.387 . S
H921 C917 0.950 . S
H922 C919 0.950 . S
C923 C914 1.390 . S
C923 H916 0.950 . S
C923 C920 1.387 . S
C924 C925 1.387 . S
C924 H928 0.950 . S
C924 C933 1.390 . S
C925 C924 1.387 . S
C925 C927 1.387 . S
H926 C933 0.950 . S
C927 C925 1.387 . S
C927 C929 1.390 . S
C927 H931 0.950 . S
H928 C924 0.950 . S
C929 C927 1.390 . S
C929 C930 1.387 . S
C929 H932 0.950 . S
C930 C929 1.387 . S
C930 C933 1.387 . S
H931 C927 0.950 . S
H932 C929 0.950 . S
C933 C924 1.390 . S
C933 H926 0.950 . S
C933 C930 1.387 . S
C934 C935 1.387 . S
C934 H938 0.950 . S
C934 C943 1.390 . S
C935 C934 1.387 . S
C935 C937 1.387 . S
H936 C943 0.950 . S
C937 C935 1.387 . S
C937 C939 1.390 . S
C937 H941 0.950 . S
H938 C934 0.950 . S
C939 C937 1.390 . S
C939 C940 1.387 . S
C939 H942 0.950 . S
C940 C939 1.387 . S
C940 C943 1.387 . S
H941 C937 0.950 . S
H942 C939 0.950 . S
C943 C934 1.390 . S
C943 H936 0.950 . S
C943 C940 1.387 . S
C944 C945 1.387 . S
C944 H948 0.950 . S
C944 C953 1.390 . S
C945 C944 1.387 . S
C945 C947 1.387 1_556 S
H946 C953 0.950 . S
C947 C945 1.387 1_554 S
C947 C949 1.390 . S
C947 H951 0.950 . S
H948 C944 0.950 . S
C949 C947 1.390 . S
C949 C950 1.387 1_554 S
C949 H952 0.950 . S
C950 C949 1.387 1_556 S
C950 C953 1.387 . S
H951 C947 0.950 . S
H952 C949 0.950 . S
C953 C944 1.390 . S
C953 H946 0.950 . S
C953 C950 1.387 . S
C954 C955 1.387 . S
C954 H958 0.950 . S
C954 C963 1.390 . S
C955 C954 1.387 . S
C955 C957 1.387 1_554 S
H956 C963 0.950 . S
C957 C955 1.387 1_556 S
C957 C959 1.390 . S
C957 H961 0.950 . S
H958 C954 0.950 . S
C959 C957 1.390 . S
C959 C960 1.387 1_556 S
C959 H962 0.950 . S
C960 C959 1.387 1_554 S
C960 C963 1.387 . S
H961 C957 0.950 . S
H962 C959 0.950 . S
C963 C954 1.390 . S
C963 H956 0.950 . S
C963 C960 1.387 . S
C964 C965 1.387 . S
C964 H968 0.950 . S
C964 C973 1.390 . S
C965 C964 1.387 . S
C965 C967 1.387 1_556 S
H966 C973 0.950 . S
C967 C965 1.387 1_554 S
C967 C969 1.390 . S
C967 H971 0.950 . S
H968 C964 0.950 . S
C969 C967 1.390 . S
C969 C970 1.387 1_554 S
C969 H972 0.950 . S
C970 C969 1.387 1_556 S
C970 C973 1.387 . S
H971 C967 0.950 . S
H972 C969 0.950 . S
C973 C964 1.390 . S
C973 H966 0.950 . S
C973 C970 1.387 . S
C974 C975 1.387 1_556 S
C974 H978 0.950 . S
C974 C983 1.390 . S
C975 C974 1.387 1_554 S
C975 C977 1.387 . S
H976 C983 0.950 . S
C977 C975 1.387 . S
C977 C979 1.390 . S
C977 H981 0.950 . S
H978 C974 0.950 . S
C979 C977 1.390 . S
C979 C980 1.387 . S
C979 H982 0.950 . S
C980 C979 1.387 . S
C980 C983 1.387 1_554 S
H981 C977 0.950 . S
H982 C979 0.950 . S
C983 C974 1.390 . S
C983 H976 0.950 . S
C983 C980 1.387 1_556 S
C984 C985 1.387 . S
C984 H988 0.950 . S
C984 C993 1.390 . S
C985 C984 1.387 . S
C985 C987 1.387 . S
H986 C993 0.950 . S
C987 C985 1.387 . S
C987 C989 1.390 . S
C987 H991 0.950 . S
H988 C984 0.950 . S
C989 C987 1.390 . S
C989 C990 1.387 . S
C989 H992 0.950 . S
C990 C989 1.387 . S
C990 C993 1.387 . S
H991 C987 0.950 . S
H992 C989 0.950 . S
C993 C984 1.390 . S
C993 H986 0.950 . S
C993 C990 1.387 . S
C994 C995 1.387 . S
C994 H998 0.950 . S
C994 C1003 1.390 . S
C995 C994 1.387 . S
C995 C997 1.387 . S
H996 C1003 0.950 . S
C997 C995 1.387 . S
C997 C999 1.390 . S
C997 H1001 0.950 . S
H998 C994 0.950 . S
C999 C997 1.390 . S
C999 C1000 1.387 . S
C999 H1002 0.950 . S
C1000 C999 1.387 . S
C1000 C1003 1.387 . S
H1001 C997 0.950 . S
H1002 C999 0.950 . S
C1003 C994 1.390 . S
C1003 H996 0.950 . S
C1003 C1000 1.387 . S
C1004 C1005 1.387 . S
C1004 H1008 0.950 . S
C1004 C1013 1.390 . S
C1005 C1004 1.387 . S
C1005 C1007 1.387 . S
H1006 C1013 0.950 . S
C1007 C1005 1.387 . S
C1007 C1009 1.390 . S
C1007 H1011 0.950 . S
H1008 C1004 0.950 . S
C1009 C1007 1.390 . S
C1009 C1010 1.387 . S
C1009 H1012 0.950 . S
C1010 C1009 1.387 . S
C1010 C1013 1.387 . S
H1011 C1007 0.950 . S
H1012 C1009 0.950 . S
C1013 C1004 1.390 . S
C1013 H1006 0.950 . S
C1013 C1010 1.387 . S
C1014 C1015 1.387 . S
C1014 H1018 0.950 . S
C1014 C1023 1.390 . S
C1015 C1014 1.387 . S
C1015 C1017 1.387 . S
H1016 C1023 0.950 . S
C1017 C1015 1.387 . S
C1017 C1019 1.390 . S
C1017 H1021 0.950 . S
H1018 C1014 0.950 . S
C1019 C1017 1.390 . S
C1019 C1020 1.387 . S
C1019 H1022 0.950 . S
C1020 C1019 1.387 . S
C1020 C1023 1.387 . S
H1021 C1017 0.950 . S
H1022 C1019 0.950 . S
C1023 C1014 1.390 . S
C1023 H1016 0.950 . S
C1023 C1020 1.387 . S
C1024 C1025 1.387 . S
C1024 H1028 0.950 . S
C1024 C1033 1.390 . S
C1025 C1024 1.387 . S
C1025 C1027 1.387 . S
H1026 C1033 0.950 . S
C1027 C1025 1.387 . S
C1027 C1029 1.390 . S
C1027 H1031 0.950 . S
H1028 C1024 0.950 . S
C1029 C1027 1.390 . S
C1029 C1030 1.387 . S
C1029 H1032 0.950 . S
C1030 C1029 1.387 . S
C1030 C1033 1.387 . S
H1031 C1027 0.950 . S
H1032 C1029 0.950 . S
C1033 C1024 1.390 . S
C1033 H1026 0.950 . S
C1033 C1030 1.387 . S
C1034 C1035 1.387 . S
C1034 H1038 0.950 . S
C1034 C1043 1.390 . S
C1035 C1034 1.387 . S
C1035 C1037 1.387 . S
H1036 C1043 0.950 . S
C1037 C1035 1.387 . S
C1037 C1039 1.390 . S
C1037 H1041 0.950 . S
H1038 C1034 0.950 . S
C1039 C1037 1.390 . S
C1039 C1040 1.387 . S
C1039 H1042 0.950 . S
C1040 C1039 1.387 . S
C1040 C1043 1.387 . S
H1041 C1037 0.950 . S
H1042 C1039 0.950 . S
C1043 C1034 1.390 . S
C1043 H1036 0.950 . S
C1043 C1040 1.387 . S
C1044 C1045 1.387 . S
C1044 H1048 0.950 . S
C1044 C1053 1.390 . S
C1045 C1044 1.387 . S
C1045 C1047 1.387 . S
H1046 C1053 0.950 . S
C1047 C1045 1.387 . S
C1047 C1049 1.390 . S
C1047 H1051 0.950 . S
H1048 C1044 0.950 . S
C1049 C1047 1.390 . S
C1049 C1050 1.387 . S
C1049 H1052 0.950 . S
C1050 C1049 1.387 . S
C1050 C1053 1.387 . S
H1051 C1047 0.950 . S
H1052 C1049 0.950 . S
C1053 C1044 1.390 . S
C1053 H1046 0.950 . S
C1053 C1050 1.387 . S
C1054 C1055 1.387 . S
C1054 H1058 0.950 . S
C1054 C1063 1.390 . S
C1055 C1054 1.387 . S
C1055 C1057 1.387 . S
H1056 C1063 0.950 . S
C1057 C1055 1.387 . S
C1057 C1059 1.390 . S
C1057 H1061 0.950 . S
H1058 C1054 0.950 . S
C1059 C1057 1.390 . S
C1059 C1060 1.387 . S
C1059 H1062 0.950 . S
C1060 C1059 1.387 . S
C1060 C1063 1.387 . S
H1061 C1057 0.950 . S
H1062 C1059 0.950 . S
C1063 C1054 1.390 . S
C1063 H1056 0.950 . S
C1063 C1060 1.387 . S
C1064 C1065 1.387 . S
C1064 H1068 0.948 . S
C1064 C1073 1.390 . S
C1065 C1064 1.387 . S
C1065 C1067 1.387 . S
H1066 C1073 0.950 . S
C1067 C1065 1.387 . S
C1067 C1069 1.390 . S
C1067 H1071 0.950 . S
H1068 C1064 0.948 . S
C1069 C1067 1.390 . S
C1069 C1070 1.387 . S
C1069 H1072 0.950 . S
C1070 C1069 1.387 . S
C1070 C1073 1.387 . S
H1071 C1067 0.950 . S
H1072 C1069 0.950 . S
C1073 C1064 1.390 . S
C1073 H1066 0.950 . S
C1073 C1070 1.387 . S
C1074 C1075 1.387 . S
C1074 H1078 0.950 . S
C1074 C1083 1.390 . S
C1075 C1074 1.387 . S
C1075 C1077 1.387 . S
H1076 C1083 0.950 . S
C1077 C1075 1.387 . S
C1077 C1079 1.390 . S
C1077 H1081 0.950 . S
H1078 C1074 0.950 . S
C1079 C1077 1.390 . S
C1079 C1080 1.387 . S
C1079 H1082 0.950 . S
C1080 C1079 1.387 . S
C1080 C1083 1.387 . S
H1081 C1077 0.950 . S
H1082 C1079 0.950 . S
C1083 C1074 1.390 . S
C1083 H1076 0.950 . S
C1083 C1080 1.387 . S
C1084 C1085 1.387 . S
C1084 H1088 0.950 . S
C1084 C1093 1.390 . S
C1085 C1084 1.387 . S
C1085 C1087 1.387 . S
H1086 C1093 0.950 . S
C1087 C1085 1.387 . S
C1087 C1089 1.390 . S
C1087 H1091 0.950 1_565 S
H1088 C1084 0.950 . S
C1089 C1087 1.390 . S
C1089 C1090 1.387 . S
C1089 H1092 0.950 . S
C1090 C1089 1.387 . S
C1090 C1093 1.387 . S
H1091 C1087 0.950 1_545 S
H1092 C1089 0.950 . S
C1093 C1084 1.390 . S
C1093 H1086 0.950 . S
C1093 C1090 1.387 . S
C1094 C1095 1.387 . S
C1094 H1098 0.950 . S
C1094 C1103 1.390 . S
C1095 C1094 1.387 . S
C1095 C1097 1.387 . S
H1096 C1103 0.950 . S
C1097 C1095 1.387 . S
C1097 C1099 1.390 . S
C1097 H1101 0.950 . S
H1098 C1094 0.950 . S
C1099 C1097 1.390 . S
C1099 C1100 1.387 . S
C1099 H1102 0.950 . S
C1100 C1099 1.387 . S
C1100 C1103 1.387 . S
H1101 C1097 0.950 . S
H1102 C1099 0.950 . S
C1103 C1094 1.390 . S
C1103 H1096 0.950 . S
C1103 C1100 1.387 . S
C545 C90 0.803 . S
C550 C15 0.803 . S
C555 C117 0.795 . S
C560 C49 0.795 . S
C565 C158 0.803 . S
C570 C219 0.803 . S
C575 C253 0.795 . S
C580 C185 0.795 . S
C585 C287 0.795 . S
C590 C362 0.795 . S
C595 C396 0.795 . S
C600 C321 0.795 . S
C605 C430 0.795 . S
C610 C491 0.795 . S
C615 C532 0.803 . S
C620 C457 0.803 . S
C625 C28 1.082 . S
C630 C142 1.082 . S
C635 C62 1.082 . S
C640 C198 1.082 . S
C645 C74 1.082 . S
C650 C232 1.082 . S
C655 C266 1.075 . S
C660 C130 1.075 . S
C665 C300 1.075 . S
C670 C414 1.075 . S
C675 C470 1.082 . S
C680 C334 1.082 . S
C685 C504 1.075 . S
C690 C346 1.075 . S
C695 C516 1.082 . S
C700 C380 1.082 . S
C705 C17 2.975 1_565 S
C710 C511 2.969 . S
C715 C51 2.975 1_655 S
C720 C409 2.969 . S
C725 C445 2.969 . S
C730 C85 2.975 1_545 S
C735 C479 2.969 . S
C740 C119 2.975 1_455 S
C745 C37 2.963 1_554 S
C750 C153 2.975 . S
C755 C69 2.964 1_556 S
C760 C187 2.974 . S
C765 C221 2.975 . S
C770 C105 2.963 1_554 S
C775 C3 2.963 1_556 S
C780 C255 2.975 . S
C785 C241 2.970 . S
C790 C289 2.974 . S
C795 C137 2.969 . S
C800 C323 2.975 . S
C805 C357 2.975 . S
C810 C173 2.970 . S
C815 C207 2.970 . S
C820 C391 2.974 . S
C825 C425 2.975 1_545 S
C830 C309 2.969 . S
C835 C341 2.969 . S
C840 C459 2.975 1_455 S
C845 C493 2.974 1_565 S
C850 C375 2.970 . S
C855 C527 2.974 1_655 S
C860 C275 2.970 . S
C865 C477 1.724 . S
C870 C1 1.724 . S
C875 C35 1.725 . S
C880 C513 1.725 . S
C885 C411 1.724 . S
C890 C71 1.724 . S
C895 C103 1.724 . S
C900 C443 1.724 . S
C905 C139 1.724 . S
C910 C343 1.724 . S
C915 C377 1.725 . S
C920 C171 1.725 . S
C925 C205 1.725 . S
C930 C273 1.725 . S
C935 C307 1.725 . S
C940 C239 1.725 . S
C945 C56 0.896 . S
C950 C6 1.000 1_556 S
C955 C40 1.004 1_554 S
C960 C83 0.904 . S
C965 C96 1.000 1_556 S
C970 C124 0.896 . S
C975 C108 1.000 1_554 S
C980 C22 0.896 . S
C985 C164 1.000 . S
C990 C525 0.896 . S
C995 C423 0.896 . S
C1000 C176 1.000 . S
C1005 C210 1.004 . S
C1010 C464 0.904 . S
C1015 C244 1.000 . S
C1020 C498 0.896 . S
C1025 C328 0.905 . S
C1030 C278 1.005 . S
C1035 C355 0.902 . S
C1040 C312 1.003 . S
C1045 C368 1.005 . S
C1050 C389 0.905 . S
C1055 C402 1.000 . S
C1060 C294 0.896 . S
C1065 C436 1.000 . S
C1070 C260 0.896 . S
C1075 C151 0.904 . S
C1080 C448 1.004 . S
C1085 C482 1.004 . S
C1090 C192 0.904 . S
C1095 C226 0.897 . S
C1100 C538 1.001 . S
