# Generated by pormake.
# Topology ukd, (4)-cn, num edge types: 1
# Building blocks:
#     Node 0, Type 0, BuildingBlock: NAHDIM_clean_sbu_0, # of connection points: 4
#     Node 1, Type 0, BuildingBlock: NAHDIM_clean_sbu_0, # of connection points: 4
#     Node 2, Type 0, BuildingBlock: NAHDIM_clean_sbu_0, # of connection points: 4
#     Node 3, Type 0, BuildingBlock: NAHDIM_clean_sbu_0, # of connection points: 4
#     Node 4, Type 0, BuildingBlock: NAHDIM_clean_sbu_0, # of connection points: 4
#     Node 5, Type 0, BuildingBlock: NAHDIM_clean_sbu_0, # of connection points: 4
#     Node 6, Type 0, BuildingBlock: NAHDIM_clean_sbu_0, # of connection points: 4
#     Node 7, Type 0, BuildingBlock: NAHDIM_clean_sbu_0, # of connection points: 4
#     Node 8, Type 0, BuildingBlock: NAHDIM_clean_sbu_0, # of connection points: 4
#     Node 9, Type 0, BuildingBlock: NAHDIM_clean_sbu_0, # of connection points: 4
#     Node 10, Type 0, BuildingBlock: NAHDIM_clean_sbu_0, # of connection points: 4
#     Node 11, Type 0, BuildingBlock: NAHDIM_clean_sbu_0, # of connection points: 4
#     Node 12, Type 0, BuildingBlock: NAHDIM_clean_sbu_0, # of connection points: 4
#     Node 13, Type 0, BuildingBlock: NAHDIM_clean_sbu_0, # of connection points: 4
#     Node 14, Type 0, BuildingBlock: NAHDIM_clean_sbu_0, # of connection points: 4
#     Node 15, Type 0, BuildingBlock: NAHDIM_clean_sbu_0, # of connection points: 4
#     Node 16, Type 0, BuildingBlock: NAHDIM_clean_sbu_0, # of connection points: 4
#     Node 17, Type 0, BuildingBlock: NAHDIM_clean_sbu_0, # of connection points: 4
#     Node 18, Type 0, BuildingBlock: NAHDIM_clean_sbu_0, # of connection points: 4
#     Node 19, Type 0, BuildingBlock: NAHDIM_clean_sbu_0, # of connection points: 4
#     Node 20, Type 0, BuildingBlock: NAHDIM_clean_sbu_0, # of connection points: 4
#     Node 21, Type 0, BuildingBlock: NAHDIM_clean_sbu_0, # of connection points: 4
#     Node 22, Type 0, BuildingBlock: NAHDIM_clean_sbu_0, # of connection points: 4
#     Node 23, Type 0, BuildingBlock: NAHDIM_clean_sbu_0, # of connection points: 4
#     Node 24, Type 0, BuildingBlock: NAHDIM_clean_sbu_0, # of connection points: 4
#     Node 25, Type 0, BuildingBlock: NAHDIM_clean_sbu_0, # of connection points: 4
#     Node 26, Type 0, BuildingBlock: NAHDIM_clean_sbu_0, # of connection points: 4
#     Node 27, Type 0, BuildingBlock: NAHDIM_clean_sbu_0, # of connection points: 4
#     Node 28, Type 0, BuildingBlock: NAHDIM_clean_sbu_0, # of connection points: 4
#     Node 29, Type 0, BuildingBlock: NAHDIM_clean_sbu_0, # of connection points: 4
#     Node 30, Type 0, BuildingBlock: NAHDIM_clean_sbu_0, # of connection points: 4
#     Node 31, Type 0, BuildingBlock: NAHDIM_clean_sbu_0, # of connection points: 4
#     Edge 32, Type (0, 0), BuildingBlock: CIFDUS_clean_linker_0, # of connection points: 2
#     Edge 33, Type (0, 0), BuildingBlock: CIFDUS_clean_linker_0, # of connection points: 2
#     Edge 34, Type (0, 0), BuildingBlock: CIFDUS_clean_linker_0, # of connection points: 2
#     Edge 35, Type (0, 0), BuildingBlock: CIFDUS_clean_linker_0, # of connection points: 2
#     Edge 36, Type (0, 0), BuildingBlock: CIFDUS_clean_linker_0, # of connection points: 2
#     Edge 37, Type (0, 0), BuildingBlock: CIFDUS_clean_linker_0, # of connection points: 2
#     Edge 38, Type (0, 0), BuildingBlock: CIFDUS_clean_linker_0, # of connection points: 2
#     Edge 39, Type (0, 0), BuildingBlock: CIFDUS_clean_linker_0, # of connection points: 2
#     Edge 40, Type (0, 0), BuildingBlock: CIFDUS_clean_linker_0, # of connection points: 2
#     Edge 41, Type (0, 0), BuildingBlock: CIFDUS_clean_linker_0, # of connection points: 2
#     Edge 42, Type (0, 0), BuildingBlock: CIFDUS_clean_linker_0, # of connection points: 2
#     Edge 43, Type (0, 0), BuildingBlock: CIFDUS_clean_linker_0, # of connection points: 2
#     Edge 44, Type (0, 0), BuildingBlock: CIFDUS_clean_linker_0, # of connection points: 2
#     Edge 45, Type (0, 0), BuildingBlock: CIFDUS_clean_linker_0, # of connection points: 2
#     Edge 46, Type (0, 0), BuildingBlock: CIFDUS_clean_linker_0, # of connection points: 2
#     Edge 47, Type (0, 0), BuildingBlock: CIFDUS_clean_linker_0, # of connection points: 2
#     Edge 48, Type (0, 0), BuildingBlock: CIFDUS_clean_linker_0, # of connection points: 2
#     Edge 49, Type (0, 0), BuildingBlock: CIFDUS_clean_linker_0, # of connection points: 2
#     Edge 50, Type (0, 0), BuildingBlock: CIFDUS_clean_linker_0, # of connection points: 2
#     Edge 51, Type (0, 0), BuildingBlock: CIFDUS_clean_linker_0, # of connection points: 2
#     Edge 52, Type (0, 0), BuildingBlock: CIFDUS_clean_linker_0, # of connection points: 2
#     Edge 53, Type (0, 0), BuildingBlock: CIFDUS_clean_linker_0, # of connection points: 2
#     Edge 54, Type (0, 0), BuildingBlock: CIFDUS_clean_linker_0, # of connection points: 2
#     Edge 55, Type (0, 0), BuildingBlock: CIFDUS_clean_linker_0, # of connection points: 2
#     Edge 56, Type (0, 0), BuildingBlock: CIFDUS_clean_linker_0, # of connection points: 2
#     Edge 57, Type (0, 0), BuildingBlock: CIFDUS_clean_linker_0, # of connection points: 2
#     Edge 58, Type (0, 0), BuildingBlock: CIFDUS_clean_linker_0, # of connection points: 2
#     Edge 59, Type (0, 0), BuildingBlock: CIFDUS_clean_linker_0, # of connection points: 2
#     Edge 60, Type (0, 0), BuildingBlock: CIFDUS_clean_linker_0, # of connection points: 2
#     Edge 61, Type (0, 0), BuildingBlock: CIFDUS_clean_linker_0, # of connection points: 2
#     Edge 62, Type (0, 0), BuildingBlock: CIFDUS_clean_linker_0, # of connection points: 2
#     Edge 63, Type (0, 0), BuildingBlock: CIFDUS_clean_linker_0, # of connection points: 2
#     Edge 64, Type (0, 0), BuildingBlock: CIFDUS_clean_linker_0, # of connection points: 2
#     Edge 65, Type (0, 0), BuildingBlock: CIFDUS_clean_linker_0, # of connection points: 2
#     Edge 66, Type (0, 0), BuildingBlock: CIFDUS_clean_linker_0, # of connection points: 2
#     Edge 67, Type (0, 0), BuildingBlock: CIFDUS_clean_linker_0, # of connection points: 2
#     Edge 68, Type (0, 0), BuildingBlock: CIFDUS_clean_linker_0, # of connection points: 2
#     Edge 69, Type (0, 0), BuildingBlock: CIFDUS_clean_linker_0, # of connection points: 2
#     Edge 70, Type (0, 0), BuildingBlock: CIFDUS_clean_linker_0, # of connection points: 2
#     Edge 71, Type (0, 0), BuildingBlock: CIFDUS_clean_linker_0, # of connection points: 2
#     Edge 72, Type (0, 0), BuildingBlock: CIFDUS_clean_linker_0, # of connection points: 2
#     Edge 73, Type (0, 0), BuildingBlock: CIFDUS_clean_linker_0, # of connection points: 2
#     Edge 74, Type (0, 0), BuildingBlock: CIFDUS_clean_linker_0, # of connection points: 2
#     Edge 75, Type (0, 0), BuildingBlock: CIFDUS_clean_linker_0, # of connection points: 2
#     Edge 76, Type (0, 0), BuildingBlock: CIFDUS_clean_linker_0, # of connection points: 2
#     Edge 77, Type (0, 0), BuildingBlock: CIFDUS_clean_linker_0, # of connection points: 2
#     Edge 78, Type (0, 0), BuildingBlock: CIFDUS_clean_linker_0, # of connection points: 2
#     Edge 79, Type (0, 0), BuildingBlock: CIFDUS_clean_linker_0, # of connection points: 2
#     Edge 80, Type (0, 0), BuildingBlock: CIFDUS_clean_linker_0, # of connection points: 2
#     Edge 81, Type (0, 0), BuildingBlock: CIFDUS_clean_linker_0, # of connection points: 2
#     Edge 82, Type (0, 0), BuildingBlock: CIFDUS_clean_linker_0, # of connection points: 2
#     Edge 83, Type (0, 0), BuildingBlock: CIFDUS_clean_linker_0, # of connection points: 2
#     Edge 84, Type (0, 0), BuildingBlock: CIFDUS_clean_linker_0, # of connection points: 2
#     Edge 85, Type (0, 0), BuildingBlock: CIFDUS_clean_linker_0, # of connection points: 2
#     Edge 86, Type (0, 0), BuildingBlock: CIFDUS_clean_linker_0, # of connection points: 2
#     Edge 87, Type (0, 0), BuildingBlock: CIFDUS_clean_linker_0, # of connection points: 2
#     Edge 88, Type (0, 0), BuildingBlock: CIFDUS_clean_linker_0, # of connection points: 2
#     Edge 89, Type (0, 0), BuildingBlock: CIFDUS_clean_linker_0, # of connection points: 2
#     Edge 90, Type (0, 0), BuildingBlock: CIFDUS_clean_linker_0, # of connection points: 2
#     Edge 91, Type (0, 0), BuildingBlock: CIFDUS_clean_linker_0, # of connection points: 2
#     Edge 92, Type (0, 0), BuildingBlock: CIFDUS_clean_linker_0, # of connection points: 2
#     Edge 93, Type (0, 0), BuildingBlock: CIFDUS_clean_linker_0, # of connection points: 2
#     Edge 94, Type (0, 0), BuildingBlock: CIFDUS_clean_linker_0, # of connection points: 2
#     Edge 95, Type (0, 0), BuildingBlock: CIFDUS_clean_linker_0, # of connection points: 2
# Relax obj value: 0.151
# Max RMSD: 0.184
# Mean RMSD: 0.184
data_MOF--net-ukd--node1-NAHDIM_clean_sbu_0--edge1-CIFDUS_clean_linker_0
_symmetry_space_group_name_H-M    P1
_symmetry_Int_Tables_number       1
_symmetry_cell_setting            triclinic
loop_
_symmetry_equiv_pos_as_xyz
'x, y, z'
_cell_length_a     38.111005
_cell_length_b     38.116301
_cell_length_c     64.735226
_cell_angle_alpha  89.956435
_cell_angle_beta   90.028909
_cell_angle_gamma 90.038756
loop_
_atom_site_label
_atom_site_type_symbol
_atom_site_fract_x
_atom_site_fract_y
_atom_site_fract_z
_atom_type_partial_charge
C0 C 0.2964 0.1901 0.35412 0.0
O1 O 0.29558 0.1968 0.33422 0.0
O2 O 0.22883 0.21273 0.32084 0.0
Zn3 Zn 0.22161 0.2018 0.35099 0.0
O4 O 0.19107 0.15905 0.35409 0.0
C5 C 0.20468 0.27307 0.3653 0.0
O6 O 0.23311 0.2831 0.35545 0.0
O7 O 0.26815 0.19185 0.36452 0.0
C8 C 0.16023 0.15932 0.34661 0.0
O9 O 0.14987 0.18682 0.33601 0.0
C10 C 0.21067 0.23423 0.31032 0.0
O11 O 0.18447 0.25083 0.31914 0.0
O12 O 0.19623 0.24084 0.36537 0.0
C13 C 0.05937 0.01244 0.60718 0.0
O14 O 0.0538 0.01119 0.58718 0.0
O15 O 0.02105 0.94807 0.57562 0.0
Zn16 Zn 0.0343 0.94099 0.60546 0.0
O17 O 0.07311 0.90578 0.60775 0.0
C18 C 0.96201 0.93218 0.61827 0.0
O19 O 0.9567 0.95987 0.60658 0.0
O20 O 0.05143 0.98603 0.61825 0.0
C21 C 0.06704 0.874 0.6031 0.0
O22 O 0.03582 0.86536 0.59612 0.0
C23 C 0.04294 0.94378 0.56104 0.0
O24 O 0.07521 0.93425 0.56547 0.0
O25 O 0.99305 0.92076 0.6206 0.0
C26 C 0.22282 0.81811 0.85544 0.0
O27 O 0.21935 0.81191 0.83559 0.0
O28 O 0.28027 0.78803 0.81801 0.0
Zn29 Zn 0.295 0.80074 0.84695 0.0
O30 O 0.32538 0.8438 0.8464 0.0
C31 C 0.31299 0.73259 0.86598 0.0
O32 O 0.27993 0.724 0.86323 0.0
O33 O 0.2525 0.81317 0.86395 0.0
C34 C 0.35604 0.84325 0.83872 0.0
O35 O 0.36728 0.81436 0.82987 0.0
C36 C 0.29132 0.76199 0.80766 0.0
O37 O 0.31517 0.7412 0.81571 0.0
O38 O 0.32366 0.76265 0.86028 0.0
C39 C 0.43154 0.94592 0.10376 0.0
O40 O 0.43299 0.95531 0.08426 0.0
O41 O 0.49043 0.00496 0.07923 0.0
Zn42 Zn 0.47011 0.0096 0.10787 0.0
O43 O 0.43294 0.04691 0.10847 0.0
C44 C 0.54027 0.01887 0.12424 0.0
O45 O 0.5488 0.99653 0.10963 0.0
O46 O 0.44742 0.96449 0.11715 0.0
C47 C 0.44141 0.07882 0.10579 0.0
O48 O 0.47426 0.08658 0.10162 0.0
C49 C 0.47437 0.01547 0.06317 0.0
O50 O 0.44305 0.02948 0.06507 0.0
O51 O 0.50813 0.02622 0.12706 0.0
C52 C 0.26809 0.82076 0.1211 0.0
O53 O 0.24511 0.80966 0.10745 0.0
O54 O 0.21748 0.7897 0.17986 0.0
Zn55 Zn 0.21267 0.80586 0.15048 0.0
O56 O 0.18022 0.84721 0.14832 0.0
C57 C 0.19908 0.73535 0.13469 0.0
O58 O 0.22405 0.72567 0.14748 0.0
O59 O 0.26002 0.82046 0.14012 0.0
C60 C 0.14954 0.8457 0.15593 0.0
O61 O 0.14028 0.81767 0.16643 0.0
C62 C 0.22341 0.81155 0.19425 0.0
O63 O 0.2253 0.84513 0.18976 0.0
O64 O 0.19123 0.76763 0.13325 0.0
C65 C 0.45443 0.06771 0.3848 0.0
O66 O 0.45142 0.05878 0.40431 0.0
O67 O 0.5003 0.00286 0.41316 0.0
Zn68 Zn 0.48358 -0.00049 0.38368 0.0
O69 O 0.44045 0.96938 0.3814 0.0
C70 C 0.55359 0.98112 0.37149 0.0
O71 O 0.5619 0.00515 0.3852 0.0
O72 O 0.47017 0.04698 0.37254 0.0
C73 C 0.44056 0.93706 0.38618 0.0
O74 O 0.46934 0.92307 0.39373 0.0
C75 C 0.48116 0.9961 0.42872 0.0
O76 O 0.4483 0.98687 0.42587 0.0
O77 O 0.52145 0.97592 0.36729 0.0
C78 C 0.19351 0.16466 0.6358 0.0
O79 O 0.20258 0.1628 0.65535 0.0
O80 O 0.23325 0.22962 0.66492 0.0
Zn81 Zn 0.24909 0.21356 0.63667 0.0
O82 O 0.29189 0.18241 0.63932 0.0
C83 C 0.26421 0.28568 0.624 0.0
O84 O 0.25121 0.2942 0.64209 0.0
O85 O 0.21006 0.18551 0.62396 0.0
C86 C 0.32221 0.19642 0.63922 0.0
O87 O 0.32488 0.2307 0.63782 0.0
C88 C 0.25439 0.24043 0.6787 0.0
O89 O 0.28794 0.24278 0.67437 0.0
O90 O 0.26326 0.25382 0.61826 0.0
C91 C 0.08133 0.95581 0.89239 0.0
O92 O 0.08929 0.96755 0.91089 0.0
O93 O 0.02926 0.0164 0.9213 0.0
Zn94 Zn 0.04549 0.02086 0.89174 0.0
O95 O 0.08661 0.05377 0.88942 0.0
C96 C 0.97567 0.04475 0.88054 0.0
O97 O 0.96705 0.03134 0.89854 0.0
O98 O 0.06111 0.97396 0.881 0.0
C99 C 0.08119 0.08663 0.89015 0.0
O100 O 0.04921 0.09802 0.89366 0.0
C101 C 0.0473 0.0267 0.93667 0.0
O102 O 0.07822 0.04094 0.93349 0.0
O103 O 0.00704 0.04161 0.87416 0.0
C104 C 0.70966 0.83375 0.64829 0.0
O105 O 0.735 0.84144 0.66127 0.0
O106 O 0.73763 0.75442 0.68015 0.0
Zn107 Zn 0.74678 0.77141 0.65125 0.0
O108 O 0.79058 0.80084 0.65011 0.0
C109 C 0.74319 0.69942 0.63727 0.0
O110 O 0.72061 0.69623 0.65248 0.0
O111 O 0.7072 0.80255 0.64147 0.0
C112 C 0.82125 0.79064 0.65482 0.0
O113 O 0.82594 0.75841 0.66148 0.0
C114 C 0.74768 0.77055 0.69626 0.0
O115 O 0.76482 0.80029 0.69438 0.0
O116 O 0.7556 0.72956 0.6331 0.0
C117 C 0.93673 0.92565 0.4037 0.0
O118 O 0.92851 0.93296 0.42292 0.0
O119 O 0.9803 0.98625 0.43691 0.0
Zn120 Zn 0.96764 0.99342 0.40694 0.0
O121 O 0.92535 0.0246 0.40402 0.0
C122 C 0.03958 0.01172 0.39696 0.0
O123 O 0.04717 0.98908 0.41161 0.0
O124 O 0.9553 0.94739 0.39358 0.0
C125 C 0.92551 0.05654 0.40961 0.0
O126 O 0.95385 0.06955 0.41828 0.0
C127 C 0.9588 0.99155 0.45159 0.0
O128 O 0.92687 0.00227 0.4473 0.0
O129 O 0.00766 0.01686 0.39217 0.0
C130 C 0.79519 0.18554 0.15455 0.0
O131 O 0.79574 0.1898 0.17467 0.0
O132 O 0.73443 0.22964 0.18709 0.0
Zn133 Zn 0.72399 0.21096 0.15869 0.0
O134 O 0.69069 0.17006 0.15975 0.0
C135 C 0.71294 0.2803 0.14225 0.0
O136 O 0.74279 0.28668 0.15169 0.0
O137 O 0.76789 0.19429 0.1445 0.0
C138 C 0.65989 0.17275 0.16706 0.0
O139 O 0.64995 0.20275 0.17515 0.0
C140 C 0.73295 0.21123 0.20343 0.0
O141 O 0.72453 0.17787 0.20209 0.0
O142 O 0.70055 0.24936 0.14256 0.0
C143 C 0.57254 0.08 0.90371 0.0
O144 O 0.57643 0.06828 0.92266 0.0
O145 O 0.51877 0.01725 0.92921 0.0
Zn146 Zn 0.53843 0.01416 0.90035 0.0
O147 O 0.57937 0.98096 0.8991 0.0
C148 C 0.46886 8e-05 0.88441 0.0
O149 O 0.45929 0.02259 0.89869 0.0
O150 O 0.55539 0.06155 0.89083 0.0
C151 C 0.57521 0.94867 0.9033 0.0
O152 O 0.54424 0.9377 0.90949 0.0
C153 C 0.5355 0.00789 0.94529 0.0
O154 O 0.56757 0.99572 0.94341 0.0
O155 O 0.50132 0.99406 0.88171 0.0
C156 C 0.69545 0.21434 0.84531 0.0
O157 O 0.69678 0.22211 0.82556 0.0
O158 O 0.76816 0.23705 0.81416 0.0
Zn159 Zn 0.77063 0.22954 0.84488 0.0
O160 O 0.80161 0.18832 0.85172 0.0
C161 C 0.81463 0.27266 0.87124 0.0
O162 O 0.82617 0.24213 0.87775 0.0
O163 O 0.72293 0.21764 0.8563 0.0
C164 C 0.83061 0.1811 0.84305 0.0
O165 O 0.84212 0.20128 0.82804 0.0
C166 C 0.76669 0.2122 0.8011 0.0
O167 O 0.76701 0.17958 0.80768 0.0
O168 O 0.79023 0.27359 0.85784 0.0
C169 C 0.57366 0.97086 0.60159 0.0
O170 O 0.59099 0.99454 0.59095 0.0
O171 O 0.50767 0.01344 0.56372 0.0
Zn172 Zn 0.52184 0.0207 0.59327 0.0
O173 O 0.56006 0.0573 0.59581 0.0
C174 C 0.47975 0.06393 0.6203 0.0
O175 O 0.51023 0.07837 0.62449 0.0
O176 O 0.54106 0.97528 0.60482 0.0
C177 C 0.56323 0.08567 0.58568 0.0
O178 O 0.53964 0.0938 0.57166 0.0
C179 C 0.52841 0.0143 0.54838 0.0
O180 O 0.56195 0.02031 0.55146 0.0
O181 O 0.47863 0.03748 0.60836 0.0
C182 C 0.80032 0.79045 0.35791 0.0
O183 O 0.80452 0.78558 0.33798 0.0
O184 O 0.73907 0.76078 0.32001 0.0
Zn185 Zn 0.72738 0.77259 0.34946 0.0
O186 O 0.69566 0.8146 0.34976 0.0
C187 C 0.70892 0.70066 0.35853 0.0
O188 O 0.73581 0.69374 0.34651 0.0
O189 O 0.77041 0.78492 0.36597 0.0
C190 C 0.66651 0.81433 0.34024 0.0
O191 O 0.65725 0.78608 0.32997 0.0
C192 C 0.743 0.78484 0.3066 0.0
O193 O 0.7403 0.81779 0.31232 0.0
O194 O 0.70119 0.73242 0.36232 0.0
C195 C 0.91017 0.05491 0.0875 0.0
O196 O 0.90386 0.04378 0.06866 0.0
O197 O 0.96722 0.99791 0.05866 0.0
Zn198 Zn 0.95131 0.99238 0.0882 0.0
O199 O 0.9145 0.95484 0.09082 0.0
C200 C 0.02374 0.98383 0.10158 0.0
O201 O 0.0308 0.00482 0.08602 0.0
O202 O 0.93099 0.03749 0.09892 0.0
C203 C 0.92224 0.92332 0.08637 0.0
O204 O 0.95357 0.91643 0.07895 0.0
C205 C 0.94898 0.98811 0.04326 0.0
O206 O 0.91805 0.97386 0.04643 0.0
O207 O 0.99197 0.97642 0.10561 0.0
C208 C 0.78694 0.70106 0.86104 0.0
O209 O 0.7883 0.71699 0.84306 0.0
O210 O 0.72011 0.73674 0.83023 0.0
Zn211 Zn 0.71255 0.7173 0.85875 0.0
O212 O 0.67993 0.67596 0.85779 0.0
C213 C 0.69676 0.78642 0.87454 0.0
O214 O 0.722 0.79606 0.86193 0.0
O215 O 0.75801 0.69998 0.8708 0.0
C216 C 0.64915 0.67819 0.85037 0.0
O217 O 0.63868 0.70814 0.84242 0.0
C218 C 0.71901 0.71738 0.81429 0.0
O219 O 0.71252 0.68371 0.81641 0.0
O220 O 0.6895 0.75404 0.87632 0.0
C221 C 0.58259 0.54621 0.10669 0.0
O222 O 0.58453 0.5328 0.08804 0.0
O223 O 0.51822 0.49323 0.08291 0.0
Zn224 Zn 0.53993 0.48624 0.11106 0.0
O225 O 0.57621 0.44798 0.11036 0.0
C226 C 0.47049 0.47105 0.12675 0.0
O227 O 0.4605 0.48725 0.10982 0.0
O228 O 0.56364 0.53091 0.12012 0.0
C229 C 0.56647 0.41654 0.1072 0.0
O230 O 0.53321 0.41026 0.1033 0.0
C231 C 0.53232 0.48242 0.06631 0.0
O232 O 0.56241 0.46569 0.06722 0.0
O233 O 0.50298 0.46975 0.13109 0.0
C234 C 0.69586 0.2989 0.36463 0.0
O235 O 0.70414 0.30239 0.34505 0.0
O236 O 0.7613 0.25383 0.33654 0.0
Zn237 Zn 0.76591 0.27408 0.36522 0.0
O238 O 0.79332 0.31919 0.36524 0.0
C239 C 0.78923 0.20684 0.38032 0.0
O240 O 0.76582 0.19516 0.3671 0.0
O241 O 0.71814 0.28527 0.37687 0.0
C242 C 0.82468 0.32112 0.35869 0.0
O243 O 0.83939 0.29309 0.35067 0.0
C244 C 0.76535 0.27144 0.32003 0.0
O245 O 0.77313 0.30495 0.32125 0.0
O246 O 0.7926 0.23973 0.38281 0.0
C247 C 0.9055 0.45674 0.58324 0.0
O248 O 0.89955 0.46987 0.5648 0.0
O249 O 0.9616 0.519 0.55841 0.0
Zn250 Zn 0.94243 0.52166 0.5874 0.0
O251 O 0.90394 0.55797 0.58872 0.0
C252 C 0.01259 0.53065 0.60483 0.0
O253 O 0.02239 0.50954 0.58987 0.0
O254 O 0.92399 0.47421 0.59595 0.0
C255 C 0.87416 0.55303 0.59709 0.0
O256 O 0.86682 0.52221 0.60508 0.0
C257 C 0.94378 0.52963 0.54302 0.0
O258 O 0.91244 0.54292 0.54614 0.0
O259 O 0.98028 0.53815 0.6068 0.0
C260 C 0.80599 0.30109 0.63996 0.0
O261 O 0.80867 0.29101 0.6593 0.0
O262 O 0.74211 0.26249 0.67321 0.0
Zn263 Zn 0.73444 0.27436 0.64321 0.0
O264 O 0.69769 0.31175 0.64115 0.0
C265 C 0.71531 0.2019 0.63504 0.0
O266 O 0.73201 0.19581 0.65243 0.0
O267 O 0.77793 0.29453 0.63005 0.0
C268 C 0.66633 0.30577 0.64676 0.0
O269 O 0.65847 0.27507 0.65477 0.0
C270 C 0.74184 0.28671 0.68669 0.0
O271 O 0.73709 0.31931 0.6807 0.0
O272 O 0.71494 0.23286 0.62776 0.0
C273 C 0.91273 0.55266 0.90502 0.0
O274 O 0.90836 0.53317 0.92156 0.0
O275 O 0.9876 0.5051 0.92587 0.0
Zn276 Zn 0.96373 0.50028 0.89815 0.0
O277 O 0.93113 0.45869 0.89811 0.0
C278 C 0.03225 0.49383 0.87903 0.0
O279 O 0.0433 0.50843 0.89622 0.0
O280 O 0.93608 0.54397 0.89198 0.0
C281 C 0.94394 0.42853 0.90175 0.0
O282 O 0.97746 0.42589 0.90627 0.0
C283 C 0.97466 0.49222 0.9423 0.0
O284 O 0.94475 0.47516 0.94136 0.0
O285 O -0.00051 0.49005 0.87616 0.0
C286 C 0.7326 0.68864 0.12141 0.0
O287 O 0.75846 0.6954 0.10859 0.0
O288 O 0.77626 0.72957 0.18043 0.0
Zn289 Zn 0.78158 0.71591 0.15074 0.0
O290 O 0.81714 0.67745 0.14844 0.0
C291 C 0.78778 0.78786 0.13624 0.0
O292 O 0.76219 0.79391 0.14936 0.0
O293 O 0.73596 0.6969 0.1403 0.0
C294 C 0.84803 0.68134 0.15542 0.0
O295 O 0.85645 0.7109 0.16462 0.0
C296 C 0.77237 0.7056 0.19388 0.0
O297 O 0.77207 0.67266 0.1879 0.0
O298 O 0.79904 0.75674 0.13405 0.0
C299 C 0.54595 0.4338 0.39238 0.0
O300 O 0.53877 0.43445 0.41221 0.0
O301 O 0.50961 0.50149 0.42341 0.0
Zn302 Zn 0.52247 0.50645 0.39339 0.0
O303 O 0.56148 0.54162 0.39066 0.0
C304 C 0.44992 0.52197 0.38285 0.0
O305 O 0.44264 0.50149 0.39862 0.0
O306 O 0.53953 0.46073 0.38141 0.0
C307 C 0.55698 0.57269 0.39723 0.0
O308 O 0.52718 0.58076 0.40625 0.0
C309 C 0.5332 0.50256 0.43727 0.0
O310 O 0.56614 0.50652 0.43174 0.0
O311 O 0.48172 0.52622 0.37753 0.0
C312 C 0.20097 0.2999 0.14963 0.0
O313 O 0.20476 0.30445 0.16962 0.0
O314 O 0.26382 0.26921 0.18403 0.0
Zn315 Zn 0.27215 0.27879 0.15386 0.0
O316 O 0.2998 0.32321 0.1501 0.0
C317 C 0.28797 0.20797 0.14031 0.0
O318 O 0.25697 0.20067 0.14808 0.0
O319 O 0.22621 0.28681 0.13939 0.0
C320 C 0.32687 0.33166 0.16042 0.0
O321 O 0.33809 0.31068 0.17511 0.0
C322 C 0.28328 0.24953 0.19497 0.0
O323 O 0.31084 0.23464 0.18653 0.0
O324 O 0.29911 0.23937 0.14087 0.0
C325 C 0.4271 0.44172 0.90788 0.0
O326 O 0.42225 0.45445 0.92651 0.0
O327 O 0.48441 0.5001 0.93335 0.0
Zn328 Zn 0.46425 0.50544 0.90483 0.0
O329 O 0.42447 0.54023 0.90406 0.0
C330 C 0.53411 0.51771 0.88886 0.0
O331 O 0.54319 0.49436 0.90281 0.0
O332 O 0.44584 0.45892 0.89517 0.0
C333 C 0.4317 0.57278 0.90406 0.0
O334 O 0.46459 0.58255 0.90612 0.0
C335 C 0.46957 0.51054 0.9498 0.0
O336 O 0.43904 0.5264 0.94862 0.0
O337 O 0.50181 0.52455 0.88623 0.0
C338 C 0.31173 0.67043 0.64388 0.0
O339 O 0.31478 0.67635 0.66379 0.0
O340 O 0.24865 0.68072 0.68236 0.0
Zn341 Zn 0.2371 0.67583 0.65209 0.0
O342 O 0.20642 0.63382 0.64679 0.0
C343 C 0.22174 0.74875 0.64064 0.0
O344 O 0.25347 0.756 0.64735 0.0
O345 O 0.28141 0.66994 0.6357 0.0
C346 C 0.17451 0.63457 0.65247 0.0
O347 O 0.16329 0.6616 0.66318 0.0
C348 C 0.23413 0.70311 0.6941 0.0
O349 O 0.20908 0.72315 0.68669 0.0
O350 O 0.21053 0.71741 0.64148 0.0
C351 C 0.06412 0.56342 0.38962 0.0
O352 O 0.06945 0.55652 0.40925 0.0
O353 O 0.02214 0.49968 0.42088 0.0
Zn354 Zn 0.03755 0.49382 0.39126 0.0
O355 O 0.08081 0.46387 0.38951 0.0
C356 C 0.96806 0.46819 0.38043 0.0
O357 O 0.95766 0.48887 0.39546 0.0
O358 O 0.04895 0.54055 0.37846 0.0
C359 C 0.07836 0.43166 0.39434 0.0
O360 O 0.04829 0.41974 0.40139 0.0
C361 C 0.04206 0.49356 0.43622 0.0
O362 O 0.07442 0.48311 0.43295 0.0
O363 O 0.00029 0.46779 0.37546 0.0
C364 C 0.20086 0.70402 0.35104 0.0
O365 O 0.19935 0.7086 0.33095 0.0
O366 O 0.26537 0.73685 0.3162 0.0
Zn367 Zn 0.27453 0.72067 0.34537 0.0
O368 O 0.30358 0.67672 0.34548 0.0
C369 C 0.30067 0.78955 0.35746 0.0
O370 O 0.27697 0.80146 0.34449 0.0
O371 O 0.22964 0.70957 0.36042 0.0
C372 C 0.33352 0.67601 0.3369 0.0
O373 O 0.34444 0.70385 0.32678 0.0
C374 C 0.26189 0.7151 0.30147 0.0
O375 O 0.26433 0.68135 0.30537 0.0
O376 O 0.30306 0.75673 0.36051 0.0
C377 C 0.06632 0.43908 0.10766 0.0
O378 O 0.06862 0.44203 0.08748 0.0
O379 O 0.02529 0.50103 0.07504 0.0
Zn380 Zn 0.04199 0.50992 0.10404 0.0
O381 O 0.08424 0.54152 0.10502 0.0
C382 C 0.97148 0.52655 0.11666 0.0
O383 O 0.96348 0.49992 0.10466 0.0
O384 O 0.05441 0.46468 0.11807 0.0
C385 C 0.08123 0.57363 0.10006 0.0
O386 O 0.051 0.58491 0.09289 0.0
C387 C 0.04201 0.50862 0.05867 0.0
O388 O 0.07318 0.52316 0.06005 0.0
O389 O 0.00351 0.53461 0.11925 0.0
C390 C 0.30477 0.31348 0.84584 0.0
O391 O 0.30599 0.30506 0.82619 0.0
O392 O 0.23921 0.30406 0.80928 0.0
Zn393 Zn 0.22956 0.31195 0.83938 0.0
O394 O 0.20517 0.358 0.84372 0.0
C395 C 0.20672 0.24286 0.85431 0.0
O396 O 0.23865 0.23236 0.84984 0.0
O397 O 0.27516 0.3154 0.85481 0.0
C398 C 0.17701 0.36661 0.83453 0.0
O399 O 0.16367 0.34534 0.82064 0.0
C400 C 0.21898 0.28811 0.79684 0.0
O401 O 0.18878 0.27592 0.8035 0.0
O402 O 0.1982 0.27458 0.85105 0.0
C403 C 0.45557 0.54825 0.59742 0.0
O404 O 0.45471 0.5466 0.57717 0.0
O405 O 0.47695 0.47752 0.56389 0.0
Zn406 Zn 0.46745 0.47341 0.59439 0.0
O407 O 0.4221 0.44806 0.59991 0.0
C408 C 0.53813 0.4554 0.60572 0.0
O409 O 0.54556 0.484 0.59524 0.0
O410 O 0.46279 0.52078 0.6077 0.0
C411 C 0.4121 0.42054 0.59055 0.0
O412 O 0.43192 0.40733 0.57589 0.0
C413 C 0.45286 0.48046 0.55041 0.0
O414 O 0.41991 0.48104 0.55637 0.0
O415 O 0.5063 0.4461 0.60762 0.0
H416 H 0.08052 0.36181 0.40219 0.0
H417 H 0.14218 0.44674 0.37706 0.0
H418 H 0.18808 0.40537 0.36711 0.0
H419 H 0.20869 0.3445 0.3633 0.0
H420 H 0.14596 0.25988 0.38797 0.0
H421 H 0.1027 0.30178 0.40041 0.0
C422 C 0.10411 0.37138 0.3947 0.0
C423 C 0.10772 0.40727 0.39022 0.0
C424 C 0.1302 0.34746 0.38882 0.0
C425 C 0.13862 0.4192 0.38062 0.0
C426 C 0.16487 0.39555 0.37487 0.0
C427 C 0.18576 0.33526 0.37159 0.0
C428 C 0.1805 0.29907 0.37452 0.0
C429 C 0.16065 0.35952 0.37855 0.0
C430 C 0.15061 0.28756 0.38534 0.0
C431 C 0.12578 0.31151 0.39247 0.0
H432 H 0.96406 0.86928 0.63812 0.0
H433 H 0.89245 0.94937 0.61691 0.0
H434 H 0.84265 0.91335 0.62757 0.0
H435 H 0.81949 0.85778 0.6408 0.0
H436 H 0.89094 0.7769 0.66111 0.0
H437 H 0.94082 0.81479 0.65299 0.0
C438 C 0.93758 0.87907 0.63601 0.0
C439 C 0.93202 0.91194 0.62661 0.0
C440 C 0.90905 0.85801 0.64189 0.0
C441 C 0.89751 0.92414 0.62401 0.0
C442 C 0.869 0.90352 0.63007 0.0
C443 C 0.84595 0.84845 0.64359 0.0
C444 C 0.85145 0.8144 0.6514 0.0
C445 C 0.87447 0.87018 0.63868 0.0
C446 C 0.88593 0.8029 0.65502 0.0
C447 C 0.91448 0.82454 0.65036 0.0
H448 H 0.44044 0.64272 0.89833 0.0
H449 H 0.36115 0.56181 0.899 0.0
H450 H 0.31694 0.60444 0.88814 0.0
H451 H 0.30151 0.66413 0.8766 0.0
H452 H 0.38174 0.7442 0.87527 0.0
H453 H 0.42472 0.70242 0.88823 0.0
C454 C 0.41344 0.6344 0.8963 0.0
C455 C 0.40421 0.59907 0.8994 0.0
C456 C 0.38829 0.65888 0.88977 0.0
C457 C 0.36904 0.58883 0.89667 0.0
C458 C 0.34373 0.61318 0.89041 0.0
C459 C 0.32834 0.67249 0.87927 0.0
C460 C 0.33834 0.70724 0.87484 0.0
C461 C 0.35317 0.64819 0.88661 0.0
C462 C 0.37326 0.7176 0.87842 0.0
C463 C 0.39793 0.69372 0.88586 0.0
H464 H 0.53087 0.07364 0.15059 0.0
H465 H 0.61145 0.01222 0.12082 0.0
H466 H 0.65618 0.05292 0.13327 0.0
H467 H 0.67157 0.10906 0.14941 0.0
H468 H 0.59067 0.17151 0.17811 0.0
H469 H 0.54699 0.12706 0.16939 0.0
C470 C 0.55827 0.06878 0.14708 0.0
C471 C 0.56771 0.04009 0.13458 0.0
C472 C 0.58378 0.09268 0.15392 0.0
C473 C 0.60338 0.0342 0.13028 0.0
C474 C 0.62899 0.05755 0.13734 0.0
C475 C 0.64446 0.11281 0.15399 0.0
C476 C 0.63437 0.14383 0.16417 0.0
C477 C 0.61937 0.08739 0.14866 0.0
C478 C 0.59916 0.14805 0.17012 0.0
C479 C 0.57412 0.12265 0.16511 0.0
H480 H 0.20533 0.66411 0.13611 0.0
H481 H 0.14361 0.74722 0.10896 0.0
H482 H 0.10337 0.70419 0.09436 0.0
H483 H 0.08279 0.64349 0.09178 0.0
H484 H 0.14382 0.56021 0.11921 0.0
H485 H 0.18734 0.60276 0.13097 0.0
C486 C 0.18331 0.67281 0.12681 0.0
C487 C 0.17733 0.70888 0.12387 0.0
C488 C 0.15997 0.6479 0.11857 0.0
C489 C 0.14877 0.71964 0.11164 0.0
C490 C 0.12564 0.69505 0.10328 0.0
C491 C 0.10579 0.63456 0.10013 0.0
C492 C 0.10977 0.59875 0.1048 0.0
C493 C 0.13054 0.65918 0.10704 0.0
C494 C 0.13994 0.58764 0.11549 0.0
C495 C 0.16483 0.61198 0.12229 0.0
H496 H 0.54358 0.924 0.34701 0.0
H497 H 0.62406 0.98205 0.37925 0.0
H498 H 0.66676 0.93639 0.3712 0.0
H499 H 0.67991 0.87776 0.35771 0.0
H500 H 0.59914 0.81918 0.32609 0.0
H501 H 0.55794 0.86741 0.33117 0.0
C502 C 0.57057 0.92695 0.35204 0.0
C503 C 0.58049 0.95628 0.3639 0.0
C504 C 0.59486 0.90033 0.34767 0.0
C505 C 0.61563 0.95969 0.3702 0.0
C506 C 0.64006 0.93351 0.36568 0.0
C507 C 0.65336 0.8756 0.3518 0.0
C508 C 0.64252 0.84471 0.34176 0.0
C509 C 0.62974 0.90333 0.35488 0.0
C510 C 0.60814 0.84255 0.33399 0.0
C511 C 0.58453 0.87012 0.3369 0.0
H512 H 0.28307 0.35159 0.63566 0.0
H513 H 0.29642 0.27584 0.58674 0.0
H514 H 0.34176 0.31241 0.57112 0.0
H515 H 0.38194 0.36267 0.5734 0.0
H516 H 0.36931 0.43765 0.62281 0.0
H517 H 0.31939 0.40464 0.63608 0.0
C518 C 0.29542 0.34333 0.62138 0.0
C519 C 0.28661 0.3108 0.61255 0.0
C520 C 0.32201 0.36413 0.61269 0.0
C521 C 0.30285 0.30064 0.59398 0.0
C522 C 0.32893 0.32146 0.58507 0.0
C523 C 0.36808 0.37197 0.58696 0.0
C524 C 0.37972 0.40231 0.59724 0.0
C525 C 0.33948 0.35271 0.59464 0.0
C526 C 0.36116 0.41421 0.61466 0.0
C527 C 0.33257 0.39533 0.62229 0.0
H528 H 0.90835 0.06 0.89103 0.0
H529 H 0.98704 0.08108 0.84469 0.0
H530 H 0.94835 0.12386 0.82832 0.0
H531 H 0.8938 0.15829 0.82857 0.0
H532 H 0.81564 0.13748 0.87529 0.0
H533 H 0.85249 0.09163 0.88999 0.0
C534 C 0.91694 0.07365 0.87722 0.0
C535 C 0.95067 0.06747 0.86922 0.0
C536 C 0.89475 0.09854 0.86801 0.0
C537 C 0.96126 0.08535 0.85125 0.0
C538 C 0.93919 0.10995 0.84189 0.0
C539 C 0.88472 0.14357 0.84188 0.0
C540 C 0.85212 0.1516 0.85089 0.0
C541 C 0.90615 0.11725 0.85038 0.0
C542 C 0.84068 0.13206 0.86807 0.0
C543 C 0.86176 0.10579 0.87653 0.0
H544 H 0.81118 0.55318 0.617 0.0
H545 H 0.88203 0.62003 0.58287 0.0
H546 H 0.84522 0.67073 0.59033 0.0
H547 H 0.79635 0.69697 0.60931 0.0
H548 H 0.72639 0.63068 0.64441 0.0
H549 H 0.75912 0.57888 0.63348 0.0
C550 C 0.81838 0.57876 0.61099 0.0
C551 C 0.8496 0.58282 0.59963 0.0
C552 C 0.79731 0.60797 0.61555 0.0
C553 C 0.85835 0.61615 0.59183 0.0
C554 C 0.83731 0.64521 0.59609 0.0
C555 C 0.78787 0.67117 0.61434 0.0
C556 C 0.75917 0.66781 0.62787 0.0
C557 C 0.80722 0.64157 0.60836 0.0
C558 C 0.74851 0.6341 0.63411 0.0
C559 C 0.76731 0.60444 0.62793 0.0
H560 H 0.17092 0.10273 0.3716 0.0
H561 H 0.09269 0.15254 0.33324 0.0
H562 H 0.04911 0.10969 0.3444 0.0
H563 H 0.0321 0.06088 0.36686 0.0
H564 H 0.10979 0.01161 0.40581 0.0
H565 H 0.1547 0.05133 0.39246 0.0
C566 C 0.14444 0.10401 0.3655 0.0
C567 C 0.13506 0.13103 0.35173 0.0
C568 C 0.11933 0.07952 0.37217 0.0
C569 C 0.10063 0.13218 0.34395 0.0
C570 C 0.07563 0.10771 0.35035 0.0
C571 C 0.0589 0.05858 0.37233 0.0
C572 C 0.06745 0.03348 0.38746 0.0
C573 C 0.08451 0.08171 0.36475 0.0
C574 C 0.1024 0.03078 0.39424 0.0
C575 C 0.12812 0.05354 0.38664 0.0
H576 H 0.63539 0.42038 0.11807 0.0
H577 H 0.55355 0.34655 0.10255 0.0
H578 H 0.59274 0.29779 0.11047 0.0
H579 H 0.64854 0.27621 0.12431 0.0
H580 H 0.72998 0.34994 0.14068 0.0
H581 H 0.69269 0.39859 0.12973 0.0
C582 C 0.62621 0.39363 0.11622 0.0
C583 C 0.59145 0.38718 0.10991 0.0
C584 C 0.64875 0.36567 0.12104 0.0
C585 C 0.58009 0.35233 0.1075 0.0
C586 C 0.60247 0.32438 0.11205 0.0
C587 C 0.65833 0.30288 0.12529 0.0
C588 C 0.69191 0.30939 0.13349 0.0
C589 C 0.6366 0.33076 0.11923 0.0
C590 C 0.70417 0.34414 0.13455 0.0
C591 C 0.68283 0.37202 0.12832 0.0
H592 H 0.48056 0.94705 0.85715 0.0
H593 H 0.39752 0.00276 0.88843 0.0
H594 H 0.35462 0.96075 0.8753 0.0
H595 H 0.34163 0.90509 0.85791 0.0
H596 H 0.42498 0.84846 0.8275 0.0
H597 H 0.46671 0.89419 0.83718 0.0
C598 C 0.45302 0.95034 0.86088 0.0
C599 C 0.44237 0.97783 0.87396 0.0
C600 C 0.42855 0.92575 0.85357 0.0
C601 C 0.40652 0.98174 0.87851 0.0
C602 C 0.38195 0.95765 0.87106 0.0
C603 C 0.36884 0.9029 0.85317 0.0
C604 C 0.38021 0.87313 0.8422 0.0
C605 C 0.39282 0.92904 0.85904 0.0
C606 C 0.41552 0.87094 0.83606 0.0
C607 C 0.43945 0.89705 0.84164 0.0
H608 H 0.87804 0.42354 0.88577 0.0
H609 H 0.96102 0.36171 0.9129 0.0
H610 H 0.92707 0.30829 0.90723 0.0
H611 H 0.87554 0.27879 0.89271 0.0
H612 H 0.79359 0.3402 0.8642 0.0
H613 H 0.82533 0.39412 0.87241 0.0
C614 C 0.88857 0.39841 0.89062 0.0
C615 C 0.9221 0.39663 0.89966 0.0
C616 C 0.86915 0.36769 0.88699 0.0
C617 C 0.93537 0.36384 0.9058 0.0
C618 C 0.91597 0.33324 0.90256 0.0
C619 C 0.8644 0.30397 0.88848 0.0
C620 C 0.83228 0.30542 0.87779 0.0
C621 C 0.88308 0.33481 0.89289 0.0
C622 C 0.81834 0.3383 0.87236 0.0
C623 C 0.83649 0.36916 0.87703 0.0
H624 H 0.32783 0.12621 0.63184 0.0
H625 H 0.38884 0.21814 0.647 0.0
H626 H 0.44279 0.18411 0.64459 0.0
H627 H 0.47293 0.12969 0.6356 0.0
H628 H 0.41269 0.03836 0.61837 0.0
H629 H 0.35819 0.07057 0.62443 0.0
C630 C 0.35291 0.13866 0.63485 0.0
C631 C 0.35432 0.17469 0.63948 0.0
C632 C 0.384 0.11908 0.63302 0.0
C633 C 0.38703 0.1905 0.64326 0.0
C634 C 0.41793 0.17106 0.6419 0.0
C635 C 0.44791 0.1166 0.63347 0.0
C636 C 0.4469 0.0817 0.62649 0.0
C637 C 0.41677 0.13552 0.63642 0.0
C638 C 0.4142 0.06526 0.62367 0.0
C639 C 0.38302 0.08369 0.62708 0.0
H640 H 0.6505 0.70675 0.38233 0.0
H641 H 0.71572 0.6302 0.35171 0.0
H642 H 0.67536 0.58355 0.36195 0.0
H643 H 0.61995 0.565 0.37792 0.0
H644 H 0.55439 0.64184 0.40805 0.0
H645 H 0.59666 0.68781 0.39974 0.0
C646 C 0.65608 0.67984 0.378 0.0
C647 C 0.68601 0.67206 0.36614 0.0
C648 C 0.63262 0.65319 0.38378 0.0
C649 C 0.69284 0.63699 0.36077 0.0
C650 C 0.66973 0.61028 0.36659 0.0
C651 C 0.61499 0.59176 0.3828 0.0
C652 C 0.58389 0.59997 0.39347 0.0
C653 C 0.63928 0.61816 0.37783 0.0
C654 C 0.57801 0.63477 0.39974 0.0
C655 C 0.60216 0.66112 0.39497 0.0
H656 H 0.15863 0.90315 0.13148 0.0
H657 H 0.08115 0.84911 0.16835 0.0
H658 H 0.0359 0.88937 0.15616 0.0
H659 H 0.01737 0.93627 0.13269 0.0
H660 H 0.09443 0.9893 0.09502 0.0
H661 H 0.14082 0.95325 0.11006 0.0
C662 C 0.13194 0.90041 0.13706 0.0
C663 C 0.12326 0.87287 0.15064 0.0
C664 C 0.1059 0.92333 0.12975 0.0
C665 C 0.08856 0.86988 0.15779 0.0
C666 C 0.06261 0.89286 0.15079 0.0
C667 C 0.04436 0.94028 0.12792 0.0
C668 C 0.05232 0.96523 0.11257 0.0
C669 C 0.07083 0.91912 0.13639 0.0
C670 C 0.08749 0.97016 0.1067 0.0
C671 C 0.11405 0.94948 0.11526 0.0
H672 H 0.70273 0.85754 0.87252 0.0
H673 H 0.63884 0.77491 0.89844 0.0
H674 H 0.59679 0.81816 0.9109 0.0
H675 H 0.57568 0.87888 0.91196 0.0
H676 H 0.6392 0.96154 0.88581 0.0
H677 H 0.6839 0.91884 0.87609 0.0
C678 C 0.67982 0.84899 0.8811 0.0
C679 C 0.67382 0.81299 0.88433 0.0
C680 C 0.6555 0.87399 0.88807 0.0
C681 C 0.64408 0.80243 0.89561 0.0
C682 C 0.61992 0.82715 0.90271 0.0
C683 C 0.59943 0.88762 0.9043 0.0
C684 C 0.60385 0.92331 0.89942 0.0
C685 C 0.62496 0.86291 0.89862 0.0
C686 C 0.63498 0.93421 0.88966 0.0
C687 C 0.66056 0.90979 0.88405 0.0
H688 H 0.40165 0.46 0.11802 0.0
H689 H 0.48304 0.43169 0.16134 0.0
H690 H 0.44443 0.38788 0.17687 0.0
H691 H 0.38985 0.3535 0.17576 0.0
H692 H 0.30946 0.38084 0.13156 0.0
H693 H 0.34538 0.42916 0.11889 0.0
C694 C 0.41082 0.44467 0.13107 0.0
C695 C 0.44533 0.44891 0.13834 0.0
C696 C 0.38878 0.419 0.13965 0.0
C697 C 0.45666 0.42885 0.15533 0.0
C698 C 0.43464 0.40366 0.16418 0.0
C699 C 0.38 0.37027 0.16352 0.0
C700 C 0.34719 0.36322 0.15447 0.0
C701 C 0.40101 0.39782 0.15608 0.0
C702 C 0.33477 0.38539 0.13869 0.0
C703 C 0.35529 0.41308 0.13141 0.0
H704 H 0.9172 0.12558 0.41923 0.0
H705 H 0.86511 0.03853 0.38952 0.0
H706 H 0.817 0.07688 0.37923 0.0
H707 H 0.7917 0.13582 0.37654 0.0
H708 H 0.84403 0.22309 0.40587 0.0
H709 H 0.88975 0.18385 0.41859 0.0
C710 C 0.89521 0.11492 0.41064 0.0
C711 C 0.89501 0.07929 0.40499 0.0
C712 C 0.86764 0.13717 0.40464 0.0
C713 C 0.86612 0.06589 0.39399 0.0
C714 C 0.83855 0.08781 0.38806 0.0
C715 C 0.81288 0.14624 0.3859 0.0
C716 C 0.81453 0.18241 0.39007 0.0
C717 C 0.83934 0.12361 0.39299 0.0
C718 C 0.84213 0.19538 0.40233 0.0
C719 C 0.86839 0.17298 0.40957 0.0
H720 H 0.10453 0.63074 0.66015 0.0
H721 H 0.18786 0.57913 0.6268 0.0
H722 H 0.14522 0.54045 0.61026 0.0
H723 H 0.08384 0.52474 0.603 0.0
H724 H 0.00066 0.57731 0.63601 0.0
H725 H 0.04372 0.61189 0.65498 0.0
C726 C 0.11346 0.61077 0.64945 0.0
C727 C 0.14933 0.60814 0.64459 0.0
C728 C 0.08878 0.5889 0.63978 0.0
C729 C 0.1604 0.58191 0.63077 0.0
C730 C 0.13601 0.55982 0.62124 0.0
C731 C 0.07512 0.54348 0.6145 0.0
C732 C 0.03901 0.54863 0.61788 0.0
C733 C 0.10005 0.56362 0.62526 0.0
C734 C 0.02825 0.57292 0.63295 0.0
C735 C 0.05287 0.59279 0.64382 0.0
H736 H 0.6163 0.07514 0.61298 0.0
H737 H 0.57568 0.15097 0.56955 0.0
H738 H 0.62131 0.1926 0.57976 0.0
H739 H 0.67001 0.20886 0.60272 0.0
H740 H 0.70947 0.13328 0.6467 0.0
H741 H 0.66715 0.09004 0.63436 0.0
C742 C 0.61747 0.1007 0.60563 0.0
C743 C 0.59232 0.11004 0.59067 0.0
C744 C 0.64355 0.12458 0.61169 0.0
C745 C 0.59453 0.14316 0.5812 0.0
C746 C 0.62062 0.167 0.58704 0.0
C747 C 0.66969 0.18279 0.60945 0.0
C748 C 0.69277 0.17445 0.62573 0.0
C749 C 0.64489 0.15819 0.60251 0.0
C750 C 0.69195 0.14051 0.63422 0.0
C751 C 0.66767 0.11576 0.62722 0.0
H752 H 0.11243 0.38815 0.8218 0.0
H753 H 0.19674 0.41469 0.86357 0.0
H754 H 0.16053 0.46006 0.87929 0.0
H755 H 0.10277 0.48705 0.88403 0.0
H756 H 0.01775 0.45909 0.84309 0.0
H757 H 0.0566 0.41996 0.82404 0.0
C758 C 0.12309 0.4042 0.83413 0.0
C759 C 0.15704 0.39759 0.8417 0.0
C760 C 0.10192 0.42991 0.84337 0.0
C761 C 0.17054 0.41889 0.85757 0.0
C762 C 0.14983 0.44486 0.86662 0.0
C763 C 0.09285 0.4729 0.87071 0.0
C764 C 0.05726 0.47562 0.86522 0.0
C765 C 0.11512 0.44982 0.86008 0.0
C766 C 0.04496 0.45725 0.84781 0.0
C767 C 0.06713 0.43473 0.83693 0.0
H768 H 0.85935 0.92799 0.10615 0.0
H769 H 0.9304 0.85355 0.07834 0.0
H770 H 0.89341 0.80518 0.08998 0.0
H771 H 0.84353 0.78387 0.11022 0.0
H772 H 0.77326 0.85802 0.13896 0.0
H773 H 0.8072 0.90665 0.12461 0.0
C774 C 0.86657 0.90122 0.10243 0.0
C775 C 0.89779 0.89443 0.09153 0.0
C776 C 0.84543 0.87345 0.10943 0.0
C777 C 0.90666 0.85955 0.08682 0.0
C778 C 0.88553 0.83184 0.09349 0.0
C779 C 0.83538 0.81065 0.11321 0.0
C780 C 0.80604 0.81725 0.12581 0.0
C781 C 0.85527 0.83846 0.10516 0.0
C782 C 0.79582 0.85215 0.12941 0.0
C783 C 0.81527 0.88 0.12123 0.0
H784 H 0.45781 0.57088 0.35263 0.0
H785 H 0.3798 0.52276 0.39187 0.0
H786 H 0.33586 0.5644 0.37952 0.0
H787 H 0.32114 0.61777 0.36014 0.0
H788 H 0.39983 0.66696 0.32185 0.0
H789 H 0.44185 0.62134 0.33117 0.0
C790 C 0.4311 0.56916 0.35831 0.0
C791 C 0.42224 0.54393 0.37333 0.0
C792 C 0.40612 0.59354 0.35143 0.0
C793 C 0.38743 0.54203 0.38041 0.0
C794 C 0.36228 0.5659 0.3734 0.0
C795 C 0.34735 0.61832 0.35362 0.0
C796 C 0.35741 0.646 0.34049 0.0
C797 C 0.37157 0.5923 0.35931 0.0
C798 C 0.39143 0.64614 0.33211 0.0
C799 C 0.41552 0.62007 0.33746 0.0
H800 H 0.37298 0.07166 0.11712 0.0
H801 H 0.45134 0.14945 0.10201 0.0
H802 H 0.41001 0.1962 0.11028 0.0
H803 H 0.35301 0.21497 0.12368 0.0
H804 H 0.27482 0.1374 0.13942 0.0
H805 H 0.31474 0.0906 0.12889 0.0
C806 C 0.38096 0.09884 0.11547 0.0
C807 C 0.41532 0.107 0.10909 0.0
C808 C 0.35717 0.12564 0.12045 0.0
C809 C 0.42514 0.14238 0.10697 0.0
C810 C 0.40153 0.16917 0.11173 0.0
C811 C 0.34455 0.18785 0.1247 0.0
C812 C 0.31104 0.17973 0.13248 0.0
C813 C 0.36769 0.16109 0.11879 0.0
C814 C 0.3005 0.14442 0.13356 0.0
C815 C 0.32334 0.11762 0.12757 0.0
H816 H 0.52317 0.57411 0.86394 0.0
H817 H 0.60544 0.51293 0.89236 0.0
H818 H 0.64895 0.55598 0.88118 0.0
H819 H 0.66264 0.61376 0.86659 0.0
H820 H 0.58 0.67584 0.83926 0.0
H821 H 0.53766 0.62944 0.84667 0.0
C822 C 0.55068 0.56984 0.86744 0.0
C823 C 0.56095 0.5405 0.87919 0.0
C824 C 0.57545 0.59505 0.86135 0.0
C825 C 0.59675 0.53538 0.88347 0.0
C826 C 0.62165 0.56006 0.87714 0.0
C827 C 0.63544 0.61704 0.86205 0.0
C828 C 0.62444 0.64847 0.85263 0.0
C829 C 0.61114 0.59047 0.86661 0.0
C830 C 0.58916 0.65207 0.84667 0.0
C831 C 0.5649 0.62555 0.85093 0.0
H832 H 0.15872 0.74053 0.62194 0.0
H833 H 0.23192 0.81986 0.64222 0.0
H834 H 0.19108 0.86581 0.63139 0.0
H835 H 0.13344 0.8832 0.6177 0.0
H836 H 0.06053 0.80337 0.59762 0.0
H837 H 0.10267 0.75782 0.60675 0.0
C838 C 0.16587 0.76787 0.62394 0.0
C839 C 0.19821 0.77675 0.63303 0.0
C840 C 0.14231 0.79404 0.61774 0.0
C841 C 0.20715 0.8123 0.63531 0.0
C842 C 0.18379 0.83858 0.62916 0.0
C843 C 0.12684 0.85585 0.61519 0.0
C844 C 0.09375 0.84672 0.60712 0.0
C845 C 0.15113 0.82972 0.62058 0.0
C846 C 0.08573 0.81116 0.60386 0.0
C847 C 0.10978 0.78506 0.60912 0.0
H848 H 0.8982 0.46054 0.38803 0.0
H849 H 0.98369 0.41602 0.35303 0.0
H850 H 0.94608 0.36776 0.34206 0.0
H851 H 0.8905 0.33551 0.34477 0.0
H852 H 0.80507 0.37989 0.37985 0.0
H853 H 0.84102 0.43088 0.38825 0.0
C854 C 0.90851 0.44053 0.3778 0.0
C855 C 0.94384 0.44177 0.37157 0.0
C856 C 0.88683 0.4126 0.37167 0.0
C857 C 0.95665 0.4157 0.35817 0.0
C858 C 0.93519 0.38796 0.35192 0.0
C859 C 0.87963 0.35646 0.3541 0.0
C860 C 0.84529 0.35362 0.36187 0.0
C861 C 0.90049 0.38571 0.35897 0.0
C862 C 0.8315 0.38124 0.37375 0.0
C863 C 0.85206 0.41043 0.37862 0.0
H864 H 0.30464 0.86062 0.35356 0.0
H865 H 0.35608 0.77211 0.38216 0.0
H866 H 0.40282 0.81031 0.39459 0.0
H867 H 0.43123 0.86804 0.39538 0.0
H868 H 0.38001 0.95658 0.3667 0.0
H869 H 0.33106 0.91919 0.35643 0.0
C870 C 0.32589 0.84972 0.36267 0.0
C871 C 0.32694 0.81349 0.36673 0.0
C872 C 0.3529 0.8718 0.36969 0.0
C873 C 0.35462 0.79988 0.37869 0.0
C874 C 0.38147 0.82169 0.38579 0.0
C875 C 0.40926 0.87924 0.38702 0.0
C876 C 0.40952 0.91498 0.38165 0.0
C877 C 0.38122 0.85757 0.38106 0.0
C878 C 0.38064 0.9291 0.37096 0.0
C879 C 0.35261 0.90773 0.36503 0.0
H880 H 0.97983 0.58537 0.13985 0.0
H881 H 0.90051 0.51951 0.11213 0.0
H882 H 0.85504 0.56075 0.12281 0.0
H883 H 0.83834 0.61731 0.13788 0.0
H884 H 0.91781 0.68363 0.16506 0.0
H885 H 0.96269 0.64021 0.15677 0.0
C886 C 0.95257 0.57982 0.1363 0.0
C887 C 0.94365 0.54951 0.12505 0.0
C888 C 0.92661 0.60382 0.14227 0.0
C889 C 0.90816 0.54269 0.12069 0.0
C890 C 0.88213 0.56631 0.12674 0.0
C891 C 0.86544 0.62221 0.14212 0.0
C892 C 0.87473 0.65384 0.1519 0.0
C893 C 0.89114 0.59726 0.13719 0.0
C894 C 0.90993 0.6596 0.15743 0.0
C895 C 0.93564 0.63479 0.15268 0.0
H896 H 0.21432 0.1727 0.86162 0.0
H897 H 0.1395 0.25748 0.86571 0.0
H898 H 0.09491 0.21698 0.87823 0.0
H899 H 0.07625 0.15736 0.88672 0.0
H900 H 0.1502 0.07199 0.88218 0.0
H901 H 0.19601 0.11292 0.87133 0.0
C902 C 0.18831 0.18233 0.86533 0.0
C903 C 0.18031 0.21807 0.86261 0.0
C904 C 0.16257 0.15882 0.87246 0.0
C905 C 0.14644 0.2301 0.86756 0.0
C906 C 0.12085 0.20696 0.87474 0.0
C907 C 0.10244 0.14768 0.88352 0.0
C908 C 0.1097 0.11164 0.88519 0.0
C909 C 0.12851 0.17124 0.87707 0.0
C910 C 0.14383 0.09961 0.88097 0.0
C911 C 0.17005 0.12299 0.87472 0.0
H912 H 0.53108 0.39511 0.62778 0.0
H913 H 0.60894 0.46517 0.60227 0.0
H914 H 0.65559 0.42595 0.61386 0.0
H915 H 0.67404 0.37034 0.62949 0.0
H916 H 0.59611 0.29987 0.65452 0.0
H917 H 0.54972 0.34093 0.64497 0.0
C918 C 0.55825 0.40195 0.62485 0.0
C919 C 0.56646 0.43293 0.61403 0.0
C920 C 0.58493 0.37919 0.63142 0.0
C921 C 0.60184 0.44144 0.61048 0.0
C922 C 0.62856 0.419 0.61709 0.0
C923 C 0.64694 0.36403 0.63301 0.0
C924 C 0.63857 0.33194 0.64258 0.0
C925 C 0.62037 0.38759 0.6273 0.0
C926 C 0.60331 0.32431 0.6471 0.0
C927 C 0.57674 0.34774 0.6416 0.0
H928 H 0.22882 0.27691 0.21674 0.0
H929 H 0.31813 0.20791 0.22256 0.0
H930 H 0.30337 0.19705 0.2587 0.0
H931 H 0.26515 0.20699 0.28855 0.0
H932 H 0.17599 0.27618 0.2828 0.0
H933 H 0.19073 0.28705 0.24665 0.0
C934 C 0.24511 0.2595 0.2259 0.0
C935 C 0.27455 0.24324 0.21693 0.0
C936 C 0.23649 0.25336 0.24666 0.0
C937 C 0.29534 0.22078 0.22905 0.0
C938 C 0.28691 0.21453 0.24972 0.0
C939 C 0.24887 0.22443 0.27941 0.0
C940 C 0.21946 0.24071 0.28838 0.0
C941 C 0.25753 0.23064 0.25866 0.0
C942 C 0.19876 0.2633 0.2763 0.0
C943 C 0.20717 0.26954 0.25562 0.0
H944 H 0.97984 0.96733 0.54721 0.0
H945 H 0.08274 0.9361 0.52625 0.0
H946 H 0.06584 0.94837 0.4906 0.0
H947 H 0.02196 0.96799 0.4654 0.0
H948 H 0.91912 -0.00067 0.48639 0.0
H949 H 0.93603 0.98704 0.52203 0.0
C950 C 0.99859 0.96313 0.53485 0.0
C951 C 0.0325 0.95077 0.53942 0.0
C952 C 0.98876 0.97033 0.5144 0.0
C953 C 0.05646 0.94558 0.5232 0.0
C954 C 0.04683 0.95261 0.50279 0.0
C955 C 0.00322 0.97218 0.47776 0.0
C956 C 0.96931 0.98456 0.4732 0.0
C957 C 0.01308 0.96502 0.49822 0.0
C958 C 0.9454 0.98983 0.48943 0.0
C959 C 0.95502 0.98278 0.50983 0.0
H960 H 0.21453 0.75348 0.72143 0.0
H961 H 0.28341 0.66436 0.71465 0.0
H962 H 0.307 0.67449 0.7492 0.0
H963 H 0.30897 0.70941 0.7811 0.0
H964 H 0.2405 0.79899 0.78748 0.0
H965 H 0.21602 0.7879 0.75333 0.0
C966 C 0.23455 0.73613 0.72753 0.0
C967 C 0.24713 0.70821 0.71545 0.0
C968 C 0.24826 0.74228 0.74733 0.0
C969 C 0.27322 0.68607 0.7236 0.0
C970 C 0.28679 0.69187 0.74336 0.0
C971 C 0.2887 0.72651 0.77503 0.0
C972 C 0.27672 0.75503 0.78685 0.0
C973 C 0.27469 0.72004 0.75531 0.0
C974 C 0.25035 0.77688 0.77873 0.0
C975 C 0.23625 0.77055 0.75919 0.0
H976 H 0.44617 0.03282 0.02597 0.0
H977 H 0.53927 0.98929 0.05407 0.0
H978 H 0.56628 0.98301 0.0201 0.0
H979 H 0.56361 0.99004 0.98246 0.0
H980 H 0.47039 0.03343 0.95441 0.0
H981 H 0.44336 0.03953 0.98835 0.0
C982 C 0.47237 0.02196 0.02469 0.0
C983 C 0.49064 0.01158 0.04255 0.0
C984 C 0.48777 0.01837 0.00512 0.0
C985 C 0.52457 0.9975 0.04058 0.0
C986 C 0.54007 0.99389 0.02116 0.0
C987 C 0.53737 0.00083 0.98375 0.0
C988 C 0.51912 0.01129 0.9659 0.0
C989 C 0.52193 0.00427 0.00333 0.0
C990 C 0.4851 0.02517 0.96788 0.0
C991 C 0.46958 0.02869 0.9873 0.0
H992 H 0.25547 0.78267 0.2884 0.0
H993 H 0.25065 0.67552 0.26695 0.0
H994 H 0.23749 0.69592 0.23207 0.0
H995 H 0.2279 0.74406 0.20759 0.0
H996 H 0.23334 0.85125 0.22889 0.0
H997 H 0.24556 0.83085 0.26393 0.0
C998 C 0.25154 0.76375 0.27611 0.0
C999 C 0.25409 0.72761 0.28031 0.0
C1000 C 0.24403 0.77564 0.25606 0.0
C1001 C 0.24891 0.70349 0.26418 0.0
C1002 C 0.24134 0.71512 0.2442 0.0
C1003 C 0.23162 0.763 0.2199 0.0
C1004 C 0.2297 0.79914 0.2156 0.0
C1005 C 0.23888 0.75112 0.23997 0.0
C1006 C 0.23471 0.82328 0.23174 0.0
C1007 C 0.24173 0.81165 0.25179 0.0
H1008 H 0.44597 0.99051 0.46505 0.0
H1009 H 0.549 0.00976 0.43974 0.0
H1010 H 0.57283 0.01654 0.4745 0.0
H1011 H 0.56431 0.01777 0.51208 0.0
H1012 H 0.46102 -0.0008 0.53726 0.0
H1013 H 0.43752 0.9914 0.50255 0.0
C1014 C 0.47366 0.9961 0.46712 0.0
C1015 C 0.49561 -0.00035 0.44982 0.0
C1016 C 0.48719 0.00016 0.48714 0.0
C1017 C 0.53144 0.00698 0.45279 0.0
C1018 C 0.54513 0.01085 0.47267 0.0
C1019 C 0.53668 0.01195 0.50999 0.0
C1020 C 0.51452 0.00911 0.52727 0.0
C1021 C 0.52323 0.00762 0.48996 0.0
C1022 C 0.47873 0.00158 0.52425 0.0
C1023 C 0.46522 0.9971 0.50439 0.0
H1024 H 0.1803 0.2618 0.76499 0.0
H1025 H 0.28311 0.30201 0.78015 0.0
H1026 H 0.30271 0.29152 0.7449 0.0
H1027 H 0.29132 0.2698 0.71003 0.0
H1028 H 0.18856 0.23011 0.69442 0.0
H1029 H 0.16831 0.24173 0.72955 0.0
C1030 C 0.20696 0.2683 0.76057 0.0
C1031 C 0.23019 0.28252 0.77523 0.0
C1032 C 0.21812 0.26233 0.74019 0.0
C1033 C 0.26462 0.29103 0.7692 0.0
C1034 C 0.27593 0.28501 0.74904 0.0
C1035 C 0.26445 0.26376 0.71427 0.0
C1036 C 0.24157 0.24898 0.69964 0.0
C1037 C 0.25298 0.27051 0.73445 0.0
C1038 C 0.20676 0.24152 0.70538 0.0
C1039 C 0.19516 0.24808 0.72548 0.0
H1040 H 0.98481 0.99837 0.94828 0.0
H1041 H 0.07939 0.04479 0.97287 0.0
H1042 H 0.05729 0.03696 0.00796 0.0
H1043 H 0.01129 0.01681 0.03165 0.0
H1044 H 0.91673 0.97036 0.00704 0.0
H1045 H 0.93876 0.97835 0.97196 0.0
C1046 C 0.00063 0.0068 0.9613 0.0
C1047 C 0.03374 0.02214 0.95792 0.0
C1048 C 0.98779 0.00221 0.98144 0.0
C1049 C 0.05382 0.03291 0.975 0.0
C1050 C 0.04122 0.02844 0.99508 0.0
C1051 C 0.99546 0.00843 0.01862 0.0
C1052 C 0.96239 0.993 0.022 0.0
C1053 C 0.00826 0.01309 0.99848 0.0
C1054 C 0.94227 0.98231 0.00492 0.0
C1055 C 0.95484 0.98686 0.98483 0.0
H1056 H 0.75653 0.80213 0.73352 0.0
H1057 H 0.72224 0.7054 0.70529 0.0
H1058 H 0.71048 0.68042 0.73929 0.0
H1059 H 0.7101 0.6859 0.77703 0.0
H1060 H 0.74315 0.78305 0.80526 0.0
H1061 H 0.75517 0.80797 0.77125 0.0
C1062 C 0.74653 0.77557 0.7348 0.0
C1063 C 0.74036 0.75567 0.7169 0.0
C1064 C 0.73957 0.76142 0.7544 0.0
C1065 C 0.72717 0.72135 0.71882 0.0
C1066 C 0.72047 0.707 0.73827 0.0
C1067 C 0.71996 0.71251 0.77575 0.0
C1068 C 0.72579 0.73252 0.79365 0.0
C1069 C 0.7266 0.72678 0.75615 0.0
C1070 C 0.73837 0.76706 0.79172 0.0
C1071 C 0.74531 0.78134 0.77228 0.0
H1072 H 0.73261 0.17971 0.24118 0.0
H1073 H 0.75099 0.27927 0.21118 0.0
H1074 H 0.76331 0.30639 0.24449 0.0
H1075 H 0.76809 0.3022 0.28216 0.0
H1076 H 0.74943 0.20279 0.31227 0.0
H1077 H 0.73813 0.17534 0.27888 0.0
C1078 C 0.73935 0.20733 0.24191 0.0
C1079 C 0.7408 0.22738 0.22369 0.0
C1080 C 0.74638 0.22284 0.26114 0.0
C1081 C 0.74963 0.26316 0.22495 0.0
C1082 C 0.7567 0.27874 0.24401 0.0
C1083 C 0.76166 0.2745 0.28144 0.0
C1084 C 0.75956 0.25465 0.29971 0.0
C1085 C 0.75505 0.25887 0.2622 0.0
C1086 C 0.75118 0.21876 0.29846 0.0
C1087 C 0.74469 0.20301 0.27936 0.0
H1088 H 0.76086 0.27641 0.78325 0.0
H1089 H 0.76462 0.16589 0.76885 0.0
H1090 H 0.75767 0.1792 0.73215 0.0
H1091 H 0.74978 0.22221 0.70422 0.0
H1092 H 0.74547 0.33264 0.71891 0.0
H1093 H 0.7534 0.31926 0.75545 0.0
C1094 C 0.76026 0.25518 0.77211 0.0
C1095 C 0.76325 0.2202 0.77882 0.0
C1096 C 0.7561 0.26299 0.75108 0.0
C1097 C 0.76235 0.19306 0.76413 0.0
C1098 C 0.75836 0.20064 0.74313 0.0
C1099 C 0.75063 0.24337 0.7154 0.0
C1100 C 0.74701 0.27838 0.70881 0.0
C1101 C 0.75509 0.23551 0.73644 0.0
C1102 C 0.74814 0.30545 0.72353 0.0
C1103 C 0.75269 0.29784 0.74445 0.0
H1104 H 0.74821 0.71968 0.28987 0.0
H1105 H 0.75339 0.82975 0.27429 0.0
H1106 H 0.76351 0.81489 0.23812 0.0
H1107 H 0.76989 0.77076 0.21085 0.0
H1108 H 0.76424 0.66071 0.22641 0.0
H1109 H 0.75534 0.67556 0.26269 0.0
C1110 C 0.75164 0.74046 0.27859 0.0
C1111 C 0.74999 0.77578 0.28479 0.0
C1112 C 0.75731 0.73176 0.25781 0.0
C1113 C 0.7545 0.80234 0.26995 0.0
C1114 C 0.76027 0.79388 0.24925 0.0
C1115 C 0.76679 0.75 0.22217 0.0
C1116 C 0.76766 0.71468 0.2159 0.0
C1117 C 0.76157 0.75869 0.243 0.0
C1118 C 0.76361 0.68812 0.23079 0.0
C1119 C 0.75852 0.69657 0.25155 0.0
H1120 H 0.55799 0.46763 0.02819 0.0
H1121 H 0.46921 0.51424 0.05916 0.0
H1122 H 0.44215 0.52744 0.02587 0.0
H1123 H 0.44367 0.52574 0.98795 0.0
H1124 H 0.53267 0.47917 0.95713 0.0
H1125 H 0.55962 0.46611 0.9904 0.0
C1126 C 0.53269 0.48061 0.02768 0.0
C1127 C 0.51568 0.48989 0.04614 0.0
C1128 C 0.51731 0.48824 0.00851 0.0
C1129 C 0.48293 0.5068 0.04518 0.0
C1130 C 0.46741 0.51439 0.02615 0.0
C1131 C 0.46899 0.51281 0.9885 0.0
C1132 C 0.48606 0.50346 0.97006 0.0
C1133 C 0.48439 0.50527 0.00771 0.0
C1134 C 0.51888 0.48666 0.97108 0.0
C1135 C 0.53435 0.47914 0.9901 0.0
H1136 H 0.97875 0.51949 0.448 0.0
H1137 H 0.07613 0.47895 0.47236 0.0
H1138 H 0.05447 0.48688 0.50754 0.0
H1139 H 0.00775 0.50486 0.53136 0.0
H1140 H 0.91058 0.54576 0.50689 0.0
H1141 H 0.93244 0.53821 0.47177 0.0
C1142 C 0.99528 0.51237 0.46099 0.0
C1143 C 0.02899 0.49857 0.45753 0.0
C1144 C 0.98273 0.51708 0.48116 0.0
C1145 C 0.05007 0.48962 0.47456 0.0
C1146 C 0.03771 0.49413 0.4947 0.0
C1147 C 0.99135 0.51218 0.51836 0.0
C1148 C 0.95755 0.5258 0.52178 0.0
C1149 C 0.00407 0.50779 0.49818 0.0
C1150 C 0.93671 0.53522 0.50473 0.0
C1151 C 0.94916 0.53088 0.48462 0.0
H1152 H 0.06701 0.52695 0.02072 0.0
H1153 H 0.98043 0.47473 0.05089 0.0
H1154 H 0.95253 0.4645 0.01757 0.0
H1155 H 0.95193 0.47129 0.98004 0.0
H1156 H 0.03782 0.52411 0.94961 0.0
H1157 H 0.06673 0.5331 0.98288 0.0
C1158 C 0.04211 0.51322 0.02 0.0
C1159 C 0.02586 0.5017 0.03829 0.0
C1160 C 0.026 0.50758 0.00076 0.0
C1161 C 0.99353 0.48399 0.03707 0.0
C1162 C 0.9775 0.4781 0.01802 0.0
C1163 C 0.97702 0.4847 0.98064 0.0
C1164 C 0.99261 0.49706 0.96236 0.0
C1165 C 0.99339 0.48994 -0.00021 0.0
C1166 C 0.02515 0.51439 0.96346 0.0
C1167 C 0.04173 0.51955 0.98248 0.0
H1168 H 0.46782 0.49672 0.45378 0.0
H1169 H 0.57759 0.49945 0.47031 0.0
H1170 H 0.56235 0.49254 0.50668 0.0
H1171 H 0.51804 0.48581 0.53376 0.0
H1172 H 0.4082 0.48365 0.51741 0.0
H1173 H 0.42339 0.49022 0.48096 0.0
C1174 C 0.48843 0.49579 0.46533 0.0
C1175 C 0.5238 0.49857 0.45931 0.0
C1176 C 0.4795 0.4919 0.48624 0.0
C1177 C 0.55015 0.4974 0.47449 0.0
C1178 C 0.54148 0.49342 0.49531 0.0
C1179 C 0.49738 0.48671 0.52224 0.0
C1180 C 0.46203 0.4842 0.52832 0.0
C1181 C 0.50626 0.49064 0.50135 0.0
C1182 C 0.43562 0.48554 0.51317 0.0
C1183 C 0.44428 0.48929 0.49232 0.0
H1184 H 0.35517 0.16727 0.33456 0.0
H1185 H 0.3094 0.17957 0.39512 0.0
H1186 H 0.35796 0.14689 0.41039 0.0
H1187 H 0.40879 0.10862 0.40596 0.0
H1188 H 0.45248 0.09281 0.34515 0.0
H1189 H 0.40968 0.13367 0.33062 0.0
C1190 C 0.35611 0.16334 0.35114 0.0
C1191 C 0.32845 0.17542 0.36365 0.0
C1192 C 0.3836 0.1437 0.35976 0.0
C1193 C 0.33015 0.1702 0.38512 0.0
C1194 C 0.35789 0.15148 0.39386 0.0
C1195 C 0.40942 0.11453 0.38957 0.0
C1196 C 0.43348 0.09727 0.37662 0.0
C1197 C 0.38409 0.13712 0.38124 0.0
C1198 C 0.43403 0.10549 0.35545 0.0
C1199 C 0.40947 0.12874 0.34711 0.0
H1200 H 0.08888 0.06738 0.58684 0.0
H1201 H 0.07481 0.02378 0.64787 0.0
H1202 H 0.11348 0.06861 0.66225 0.0
H1203 H 0.15465 0.11721 0.65711 0.0
H1204 H 0.17008 0.15978 0.59595 0.0
H1205 H 0.12734 0.11829 0.58203 0.0
C1206 C 0.09391 0.06789 0.60333 0.0
C1207 C 0.07918 0.04207 0.61623 0.0
C1208 C 0.11665 0.09335 0.61145 0.0
C1209 C 0.08595 0.04322 0.63757 0.0
C1210 C 0.10814 0.06879 0.6458 0.0
C1211 C 0.14853 0.11761 0.64075 0.0
C1212 C 0.16581 0.14134 0.62757 0.0
C1213 C 0.12422 0.09349 0.63282 0.0
C1214 C 0.15735 0.14164 0.60643 0.0
C1215 C 0.13291 0.11792 0.59845 0.0
H1216 H 0.1614 0.84288 0.83993 0.0
H1217 H 0.2213 0.83551 0.89641 0.0
H1218 H 0.17992 0.87464 0.91359 0.0
H1219 H 0.13108 0.91623 0.91133 0.0
H1220 H 0.07288 0.92575 0.85436 0.0
H1221 H 0.1091 0.88017 0.8387 0.0
C1222 C 0.16514 0.84934 0.8561 0.0
C1223 C 0.1947 0.83665 0.86677 0.0
C1224 C 0.14174 0.87252 0.86574 0.0
C1225 C 0.19896 0.84515 0.88776 0.0
C1226 C 0.17536 0.86763 0.89759 0.0
C1227 C 0.12596 0.90803 0.89558 0.0
C1228 C 0.09963 0.92476 0.88395 0.0
C1229 C 0.14733 0.88234 0.88653 0.0
C1230 C 0.0932 0.91356 0.86361 0.0
C1231 C 0.11395 0.88753 0.85462 0.0
H1232 H 0.31951 0.84782 0.14546 0.0
H1233 H 0.29103 0.83165 0.08159 0.0
H1234 H 0.34176 0.86603 0.07057 0.0
H1235 H 0.39046 0.90542 0.07914 0.0
H1236 H 0.41774 0.92319 0.14304 0.0
H1237 H 0.37141 0.88299 0.15394 0.0
C1238 C 0.32457 0.85145 0.12911 0.0
C1239 C 0.3012 0.83756 0.11438 0.0
C1240 C 0.35347 0.87168 0.12288 0.0
C1241 C 0.30841 0.84226 0.09327 0.0
C1242 C 0.33738 0.86199 0.08695 0.0
C1243 C 0.38662 0.90019 0.09546 0.0
C1244 C 0.40727 0.91767 0.11026 0.0
C1245 C 0.35953 0.87756 0.10163 0.0
C1246 C 0.40208 0.9103 0.13132 0.0
C1247 C 0.3755 0.8874 0.13757 0.0
H1248 H 0.64111 0.8307 0.63576 0.0
H1249 H 0.72934 0.90083 0.64255 0.0
H1250 H 0.69493 0.94908 0.62859 0.0
H1251 H 0.64045 0.97144 0.61422 0.0
H1252 H 0.54991 0.90413 0.60946 0.0
H1253 H 0.58432 0.85466 0.62302 0.0
C1254 C 0.65263 0.85658 0.63412 0.0
C1255 C 0.68768 0.86225 0.64004 0.0
C1256 C 0.63232 0.88463 0.62653 0.0
C1257 C 0.70234 0.89591 0.63816 0.0
C1258 C 0.68275 0.92351 0.63014 0.0
C1259 C 0.62824 0.9459 0.61613 0.0
C1260 C 0.59296 0.94117 0.61068 0.0
C1261 C 0.64783 0.91815 0.62425 0.0
C1262 C 0.57716 0.90824 0.61358 0.0
C1263 C 0.59683 0.88002 0.62125 0.0
H1264 H 0.88988 0.87965 0.41989 0.0
H1265 H 0.94546 0.90444 0.36363 0.0
H1266 H 0.91074 0.86096 0.34492 0.0
H1267 H 0.85999 0.8213 0.34373 0.0
H1268 H 0.8026 0.79906 0.39972 0.0
H1269 H 0.84296 0.83587 0.41937 0.0
C1270 C 0.89481 0.87522 0.4036 0.0
C1271 C 0.9199 0.89564 0.39312 0.0
C1272 C 0.87422 0.85081 0.39284 0.0
C1273 C 0.92609 0.88932 0.37204 0.0
C1274 C 0.90618 0.86451 0.36131 0.0
C1275 C 0.85666 0.82399 0.36029 0.0
C1276 C 0.82805 0.80781 0.37019 0.0
C1277 C 0.87945 0.84591 0.37142 0.0
C1278 C 0.82418 0.81152 0.39167 0.0
C1279 C 0.84722 0.83263 0.40293 0.0
H1280 H 0.8004 0.16957 0.11373 0.0
H1281 H 0.85392 0.1572 0.17209 0.0
H1282 H 0.89634 0.11792 0.15597 0.0
H1283 H 0.91469 0.08266 0.12616 0.0
H1284 H 0.86028 0.09418 0.06802 0.0
H1285 H 0.822 0.13841 0.08321 0.0
C1286 C 0.82159 0.15865 0.12289 0.0
C1287 C 0.82367 0.16598 0.14415 0.0
C1288 C 0.84561 0.13568 0.1136 0.0
C1289 C 0.85151 0.15183 0.15572 0.0
C1290 C 0.87575 0.12925 0.14653 0.0
C1291 C 0.89473 0.09512 0.11673 0.0
C1292 C 0.89009 0.08475 0.09606 0.0
C1293 C 0.87249 0.12028 0.12562 0.0
C1294 C 0.86428 0.10142 0.08403 0.0
C1295 C 0.84229 0.1267 0.0927 0.0
H1296 H 0.57243 0.11031 0.86552 0.0
H1297 H 0.61708 0.12027 0.92657 0.0
H1298 H 0.65641 0.16613 0.91429 0.0
H1299 H 0.68283 0.19825 0.88548 0.0
H1300 H 0.63907 0.18798 0.82427 0.0
H1301 H 0.59435 0.14793 0.83745 0.0
C1302 C 0.59041 0.12285 0.87621 0.0
C1303 C 0.5922 0.1114 0.89685 0.0
C1304 C 0.61329 0.14905 0.869 0.0
C1305 C 0.61536 0.12826 0.91054 0.0
C1306 C 0.63796 0.15449 0.90353 0.0
C1307 C 0.6632 0.18769 0.87506 0.0
C1308 C 0.66468 0.19565 0.85387 0.0
C1309 C 0.63789 0.16429 0.88267 0.0
C1310 C 0.63871 0.18212 0.84064 0.0
C1311 C 0.61321 0.15904 0.84814 0.0
H1312 H 0.79176 0.66395 0.89674 0.0
H1313 H 0.8493 0.68947 0.84129 0.0
H1314 H 0.8947 0.6472 0.85068 0.0
H1315 H 0.9153 0.59928 0.87308 0.0
H1316 H 0.85694 0.57354 0.92823 0.0
H1317 H 0.81473 0.61965 0.92047 0.0
C1318 C 0.81442 0.66062 0.88681 0.0
C1319 C 0.81688 0.67957 0.86823 0.0
C1320 C 0.84015 0.63593 0.89213 0.0
C1321 C 0.84662 0.67511 0.85565 0.0
C1322 C 0.87255 0.65081 0.86095 0.0
C1323 C 0.8935 0.60393 0.88348 0.0
C1324 C 0.88909 0.58267 0.90106 0.0
C1325 C 0.86913 0.63045 0.8789 0.0
C1326 C 0.86088 0.58931 0.9145 0.0
C1327 C 0.83666 0.61569 0.91008 0.0
H1328 H 0.68014 0.6623 0.14533 0.0
H1329 H 0.71748 0.66609 0.08239 0.0
H1330 H 0.67225 0.6243 0.07205 0.0
H1331 H 0.62567 0.58307 0.0814 0.0
H1332 H 0.58944 0.57765 0.14451 0.0
H1333 H 0.63061 0.62399 0.15422 0.0
C1334 C 0.67813 0.65436 0.12929 0.0
C1335 C 0.7024 0.66709 0.11469 0.0
C1336 C 0.65247 0.62984 0.12351 0.0
C1337 C 0.69931 0.65657 0.09397 0.0
C1338 C 0.6735 0.63259 0.08804 0.0
C1339 C 0.62651 0.59219 0.09726 0.0
C1340 C 0.60476 0.57664 0.11225 0.0
C1341 C 0.65051 0.61845 0.10278 0.0
C1342 C 0.60603 0.58902 0.13268 0.0
C1343 C 0.62961 0.61547 0.13825 0.0
H1344 H 0.64769 0.33588 0.34286 0.0
H1345 H 0.67197 0.30025 0.40455 0.0
H1346 H 0.6241 0.33584 0.41835 0.0
H1347 H 0.58027 0.3823 0.41328 0.0
H1348 H 0.5587 0.42022 0.35171 0.0
H1349 H 0.6004 0.37817 0.33746 0.0
C1350 C 0.64226 0.33546 0.3593 0.0
C1351 C 0.6637 0.31579 0.37268 0.0
C1352 C 0.61534 0.35662 0.36717 0.0
C1353 C 0.65606 0.31538 0.39392 0.0
C1354 C 0.62875 0.33581 0.40183 0.0
C1355 C 0.58421 0.38095 0.39671 0.0
C1356 C 0.56668 0.40464 0.3836 0.0
C1357 C 0.60894 0.35734 0.38867 0.0
C1358 C 0.5721 0.40252 0.36216 0.0
C1359 C 0.596 0.37852 0.354 0.0
H1360 H 0.91381 0.42118 0.61945 0.0
H1361 H 0.85798 0.4182 0.56142 0.0
H1362 H 0.82473 0.36731 0.57313 0.0
H1363 H 0.80785 0.32702 0.60086 0.0
H1364 H 0.86303 0.33013 0.6591 0.0
H1365 H 0.90053 0.37717 0.64613 0.0
C1366 C 0.8946 0.40921 0.6093 0.0
C1367 C 0.8881 0.4238 0.58969 0.0
C1368 C 0.87538 0.37998 0.61616 0.0
C1369 C 0.86337 0.40771 0.57664 0.0
C1370 C 0.84428 0.37859 0.58333 0.0
C1371 C 0.82838 0.33763 0.61065 0.0
C1372 C 0.83229 0.32532 0.63101 0.0
C1373 C 0.84953 0.36499 0.60321 0.0
C1374 C 0.85928 0.33918 0.64339 0.0
C1375 C 0.88066 0.36624 0.63602 0.0
H1376 H 0.10318 0.38552 0.09046 0.0
H1377 H 0.06599 0.42491 0.14902 0.0
H1378 H 0.1009 0.38107 0.1672 0.0
H1379 H 0.14777 0.33731 0.16657 0.0
H1380 H 0.18733 0.29993 0.10811 0.0
H1381 H 0.14517 0.33679 0.08981 0.0
C1382 C 0.10223 0.38417 0.10718 0.0
C1383 C 0.0825 0.40887 0.11836 0.0
C1384 C 0.12299 0.35941 0.11758 0.0
C1385 C 0.08132 0.40651 0.14003 0.0
C1386 C 0.10132 0.38147 0.15046 0.0
C1387 C 0.14681 0.33672 0.14983 0.0
C1388 C 0.17111 0.31638 0.13873 0.0
C1389 C 0.12319 0.35866 0.13941 0.0
C1390 C 0.16919 0.31564 0.11704 0.0
C1391 C 0.14517 0.33683 0.10655 0.0
H1392 H 0.43243 0.40708 0.87124 0.0
H1393 H 0.37616 0.40683 0.92912 0.0
H1394 H 0.33598 0.36253 0.91584 0.0
H1395 H 0.31207 0.33028 0.88634 0.0
H1396 H 0.36753 0.33108 0.82821 0.0
H1397 H 0.41317 0.36805 0.84322 0.0
C1398 C 0.4117 0.39695 0.88105 0.0
C1399 C 0.40685 0.4108 0.90097 0.0
C1400 C 0.38841 0.37167 0.87325 0.0
C1401 C 0.38024 0.39697 0.91362 0.0
C1402 C 0.35717 0.37165 0.90604 0.0
C1403 C 0.33447 0.33799 0.87705 0.0
C1404 C 0.33599 0.32856 0.85608 0.0
C1405 C 0.36026 0.35978 0.88564 0.0
C1406 C 0.3655 0.33824 0.84436 0.0
C1407 C 0.39154 0.35959 0.85288 0.0
H1408 H 0.41216 0.5972 0.58117 0.0
H1409 H 0.46249 0.56612 0.63803 0.0
H1410 H 0.42552 0.60688 0.65735 0.0
H1411 H 0.37258 0.64335 0.6586 0.0
H1412 H 0.3187 0.66956 0.60201 0.0
H1413 H 0.36361 0.63907 0.58202 0.0
C1414 C 0.41569 0.6 0.59772 0.0
C1415 C 0.43968 0.57839 0.60821 0.0
C1416 C 0.39329 0.62225 0.6088 0.0
C1417 C 0.44392 0.58226 0.62965 0.0
C1418 C 0.42268 0.60543 0.64071 0.0
C1419 C 0.37111 0.64308 0.64187 0.0
C1420 C 0.34216 0.65823 0.6318 0.0
C1421 C 0.39625 0.62435 0.63054 0.0
C1422 C 0.34055 0.65767 0.61012 0.0
C1423 C 0.36618 0.64021 0.59868 0.0
H1424 H 0.10606 0.61142 0.40827 0.0
H1425 H 0.05981 0.58511 0.34938 0.0
H1426 H 0.09495 0.6305 0.33259 0.0
H1427 H 0.14411 0.67199 0.334 0.0
H1428 H 0.19272 0.69552 0.39264 0.0
H1429 H 0.15095 0.6572 0.41019 0.0
C1430 C 0.10321 0.61594 0.39181 0.0
C1431 C 0.08073 0.59453 0.38005 0.0
C1432 C 0.12413 0.64142 0.38218 0.0
C1433 C 0.07719 0.60097 0.35877 0.0
C1434 C 0.09734 0.62687 0.34914 0.0
C1435 C 0.14517 0.66929 0.35067 0.0
C1436 C 0.1718 0.68623 0.36196 0.0
C1437 C 0.12173 0.64642 0.36059 0.0
C1438 C 0.17272 0.68249 0.38356 0.0
C1439 C 0.1489 0.6605 0.39361 0.0
loop_
_geom_bond_atom_site_label_1
_geom_bond_atom_site_label_2
_geom_bond_distance
_geom_bond_site_symmetry_2
_ccdc_geom_bond_type
C0 O1 1.160 . S
C0 O7 1.185 . S
O1 C0 1.160 . S
O2 Zn3 1.899 . S
O2 C10 1.284 . S
Zn3 O2 1.899 . S
Zn3 O4 2.032 . S
Zn3 O7 2.086 . S
Zn3 O12 1.977 . S
O4 Zn3 2.032 . S
O4 C8 1.278 . S
C5 O6 1.203 . S
C5 O12 1.267 . S
O6 C5 1.203 . S
O7 C0 1.185 . S
O7 Zn3 2.086 . S
C8 O4 1.278 . S
C8 O9 1.211 . S
O9 C8 1.211 . S
C10 O2 1.284 . S
C10 O11 1.273 . S
O11 C10 1.273 . S
O12 Zn3 1.977 . S
O12 C5 1.267 . S
C13 O14 1.160 . S
C13 O20 1.185 . S
O14 C13 1.160 . S
O15 Zn16 1.899 1_545 S
O15 C23 1.284 1_545 S
Zn16 O15 1.899 1_565 S
Zn16 O17 2.032 . S
Zn16 O20 2.086 1_565 S
Zn16 O25 1.961 1_455 S
O17 Zn16 2.032 . S
O17 C21 1.278 . S
C18 O19 1.203 . S
C18 O25 1.283 . S
O19 C18 1.203 . S
O20 C13 1.185 . S
O20 Zn16 2.086 1_545 S
C21 O17 1.278 . S
C21 O22 1.211 . S
O22 C21 1.211 . S
C23 O15 1.284 1_565 S
C23 O24 1.273 . S
O24 C23 1.273 . S
O25 Zn16 1.961 1_655 S
O25 C18 1.283 . S
C26 O27 1.160 . S
C26 O33 1.185 . S
O27 C26 1.160 . S
O28 Zn29 1.899 . S
O28 C36 1.284 . S
Zn29 O28 1.899 . S
Zn29 O30 2.032 . S
Zn29 O33 2.086 . S
Zn29 O38 1.977 . S
O30 Zn29 2.032 . S
O30 C34 1.278 . S
C31 O32 1.203 . S
C31 O38 1.267 . S
O32 C31 1.203 . S
O33 C26 1.185 . S
O33 Zn29 2.086 . S
C34 O30 1.278 . S
C34 O35 1.211 . S
O35 C34 1.211 . S
C36 O28 1.284 . S
C36 O37 1.273 . S
O37 C36 1.273 . S
O38 Zn29 1.977 . S
O38 C31 1.267 . S
C39 O40 1.160 . S
C39 O46 1.185 . S
O40 C39 1.160 . S
O41 Zn42 1.899 1_565 S
O41 C49 1.284 1_565 S
Zn42 O41 1.899 1_545 S
Zn42 O43 2.032 . S
Zn42 O46 2.086 1_545 S
Zn42 O51 1.977 . S
O43 Zn42 2.032 . S
O43 C47 1.278 . S
C44 O45 1.203 . S
C44 O51 1.267 . S
O45 C44 1.203 . S
O46 C39 1.185 . S
O46 Zn42 2.086 1_565 S
C47 O43 1.278 . S
C47 O48 1.211 . S
O48 C47 1.211 . S
C49 O41 1.284 1_545 S
C49 O50 1.273 . S
O50 C49 1.273 . S
O51 Zn42 1.977 . S
O51 C44 1.267 . S
C52 O53 1.160 . S
C52 O59 1.185 . S
O53 C52 1.160 . S
O54 Zn55 1.899 . S
O54 C62 1.284 . S
Zn55 O54 1.899 . S
Zn55 O56 2.032 . S
Zn55 O59 2.086 . S
Zn55 O64 1.977 . S
O56 Zn55 2.032 . S
O56 C60 1.278 . S
C57 O58 1.203 . S
C57 O64 1.267 . S
O58 C57 1.203 . S
O59 C52 1.185 . S
O59 Zn55 2.086 . S
C60 O56 1.278 . S
C60 O61 1.211 . S
O61 C60 1.211 . S
C62 O54 1.284 . S
C62 O63 1.273 . S
O63 C62 1.273 . S
O64 Zn55 1.977 . S
O64 C57 1.267 . S
C65 O66 1.160 . S
C65 O72 1.185 . S
O66 C65 1.160 . S
O67 Zn68 1.899 1_545 S
O67 C75 1.284 1_545 S
Zn68 O67 1.899 1_565 S
Zn68 O69 2.032 . S
Zn68 O72 2.086 1_565 S
Zn68 O77 1.977 . S
O69 Zn68 2.032 . S
O69 C73 1.278 . S
C70 O71 1.203 . S
C70 O77 1.267 . S
O71 C70 1.203 . S
O72 C65 1.185 . S
O72 Zn68 2.086 1_545 S
C73 O69 1.278 . S
C73 O74 1.211 . S
O74 C73 1.211 . S
C75 O67 1.284 1_565 S
C75 O76 1.273 . S
O76 C75 1.273 . S
O77 Zn68 1.977 . S
O77 C70 1.267 . S
C78 O79 1.160 . S
C78 O85 1.185 . S
O79 C78 1.160 . S
O80 Zn81 1.899 . S
O80 C88 1.284 . S
Zn81 O80 1.899 . S
Zn81 O82 2.032 . S
Zn81 O85 2.086 . S
Zn81 O90 1.977 . S
O82 Zn81 2.032 . S
O82 C86 1.278 . S
C83 O84 1.203 . S
C83 O90 1.267 . S
O84 C83 1.203 . S
O85 C78 1.185 . S
O85 Zn81 2.086 . S
C86 O82 1.278 . S
C86 O87 1.211 . S
O87 C86 1.211 . S
C88 O80 1.284 . S
C88 O89 1.273 . S
O89 C88 1.273 . S
O90 Zn81 1.977 . S
O90 C83 1.267 . S
C91 O92 1.160 . S
C91 O98 1.185 . S
O92 C91 1.160 . S
O93 Zn94 1.899 1_565 S
O93 C101 1.284 1_565 S
Zn94 O93 1.899 1_545 S
Zn94 O95 2.032 . S
Zn94 O98 2.086 1_545 S
Zn94 O103 1.961 1_455 S
O95 Zn94 2.032 . S
O95 C99 1.278 . S
C96 O97 1.203 . S
C96 O103 1.283 . S
O97 C96 1.203 . S
O98 C91 1.185 . S
O98 Zn94 2.086 1_565 S
C99 O95 1.278 . S
C99 O100 1.211 . S
O100 C99 1.211 . S
C101 O93 1.284 1_545 S
C101 O102 1.273 . S
O102 C101 1.273 . S
O103 Zn94 1.961 1_655 S
O103 C96 1.283 . S
C104 O105 1.160 . S
C104 O111 1.185 . S
O105 C104 1.160 . S
O106 Zn107 1.899 . S
O106 C114 1.284 . S
Zn107 O106 1.899 . S
Zn107 O108 2.032 . S
Zn107 O111 2.086 . S
Zn107 O116 1.977 . S
O108 Zn107 2.032 . S
O108 C112 1.278 . S
C109 O110 1.203 . S
C109 O116 1.267 . S
O110 C109 1.203 . S
O111 C104 1.185 . S
O111 Zn107 2.086 . S
C112 O108 1.278 . S
C112 O113 1.211 . S
O113 C112 1.211 . S
C114 O106 1.284 . S
C114 O115 1.273 . S
O115 C114 1.273 . S
O116 Zn107 1.977 . S
O116 C109 1.267 . S
C117 O118 1.160 . S
C117 O124 1.185 . S
O118 C117 1.160 . S
O119 Zn120 1.899 1_565 S
O119 C127 1.284 1_565 S
Zn120 O119 1.899 1_545 S
Zn120 O121 2.032 . S
Zn120 O124 2.086 1_545 S
Zn120 O129 1.961 1_655 S
O121 Zn120 2.032 . S
O121 C125 1.278 . S
C122 O123 1.203 . S
C122 O129 1.283 . S
O123 C122 1.203 . S
O124 C117 1.185 . S
O124 Zn120 2.086 1_565 S
C125 O121 1.278 . S
C125 O126 1.211 . S
O126 C125 1.211 . S
C127 O119 1.284 1_545 S
C127 O128 1.273 . S
O128 C127 1.273 . S
O129 Zn120 1.961 1_455 S
O129 C122 1.283 . S
C130 O131 1.160 . S
C130 O137 1.185 . S
O131 C130 1.160 . S
O132 Zn133 1.899 . S
O132 C140 1.284 . S
Zn133 O132 1.899 . S
Zn133 O134 2.032 . S
Zn133 O137 2.086 . S
Zn133 O142 1.977 . S
O134 Zn133 2.032 . S
O134 C138 1.278 . S
C135 O136 1.203 . S
C135 O142 1.267 . S
O136 C135 1.203 . S
O137 C130 1.185 . S
O137 Zn133 2.086 . S
C138 O134 1.278 . S
C138 O139 1.211 . S
O139 C138 1.211 . S
C140 O132 1.284 . S
C140 O141 1.273 . S
O141 C140 1.273 . S
O142 Zn133 1.977 . S
O142 C135 1.267 . S
C143 O144 1.160 . S
C143 O150 1.185 . S
O144 C143 1.160 . S
O145 Zn146 1.899 1_545 S
O145 C153 1.284 1_545 S
Zn146 O145 1.899 1_565 S
Zn146 O147 2.032 . S
Zn146 O150 2.086 1_565 S
Zn146 O155 1.977 . S
O147 Zn146 2.032 . S
O147 C151 1.278 . S
C148 O149 1.203 . S
C148 O155 1.267 . S
O149 C148 1.203 . S
O150 C143 1.185 . S
O150 Zn146 2.086 1_545 S
C151 O147 1.278 . S
C151 O152 1.211 . S
O152 C151 1.211 . S
C153 O145 1.284 1_565 S
C153 O154 1.273 . S
O154 C153 1.273 . S
O155 Zn146 1.977 . S
O155 C148 1.267 . S
C156 O157 1.160 . S
C156 O163 1.185 . S
O157 C156 1.160 . S
O158 Zn159 1.899 . S
O158 C166 1.284 . S
Zn159 O158 1.899 . S
Zn159 O160 2.032 . S
Zn159 O163 2.086 . S
Zn159 O168 1.977 . S
O160 Zn159 2.032 . S
O160 C164 1.278 . S
C161 O162 1.203 . S
C161 O168 1.267 . S
O162 C161 1.203 . S
O163 C156 1.185 . S
O163 Zn159 2.086 . S
C164 O160 1.278 . S
C164 O165 1.211 . S
O165 C164 1.211 . S
C166 O158 1.284 . S
C166 O167 1.273 . S
O167 C166 1.273 . S
O168 Zn159 1.977 . S
O168 C161 1.267 . S
C169 O170 1.160 . S
C169 O176 1.185 . S
O170 C169 1.160 . S
O171 Zn172 1.899 1_565 S
O171 C179 1.284 1_565 S
Zn172 O171 1.899 1_545 S
Zn172 O173 2.032 . S
Zn172 O176 2.086 1_545 S
Zn172 O181 1.977 . S
O173 Zn172 2.032 . S
O173 C177 1.278 . S
C174 O175 1.203 . S
C174 O181 1.267 . S
O175 C174 1.203 . S
O176 C169 1.185 . S
O176 Zn172 2.086 1_565 S
C177 O173 1.278 . S
C177 O178 1.211 . S
O178 C177 1.211 . S
C179 O171 1.284 1_545 S
C179 O180 1.273 . S
O180 C179 1.273 . S
O181 Zn172 1.977 . S
O181 C174 1.267 . S
C182 O183 1.160 . S
C182 O189 1.185 . S
O183 C182 1.160 . S
O184 Zn185 1.899 . S
O184 C192 1.284 . S
Zn185 O184 1.899 . S
Zn185 O186 2.032 . S
Zn185 O189 2.086 . S
Zn185 O194 1.977 . S
O186 Zn185 2.032 . S
O186 C190 1.278 . S
C187 O188 1.203 . S
C187 O194 1.267 . S
O188 C187 1.203 . S
O189 C182 1.185 . S
O189 Zn185 2.086 . S
C190 O186 1.278 . S
C190 O191 1.211 . S
O191 C190 1.211 . S
C192 O184 1.284 . S
C192 O193 1.273 . S
O193 C192 1.273 . S
O194 Zn185 1.977 . S
O194 C187 1.267 . S
C195 O196 1.160 . S
C195 O202 1.185 . S
O196 C195 1.160 . S
O197 Zn198 1.899 1_545 S
O197 C205 1.284 1_545 S
Zn198 O197 1.899 1_565 S
Zn198 O199 2.032 . S
Zn198 O202 2.086 1_565 S
Zn198 O207 1.961 1_655 S
O199 Zn198 2.032 . S
O199 C203 1.278 . S
C200 O201 1.203 . S
C200 O207 1.283 . S
O201 C200 1.203 . S
O202 C195 1.185 . S
O202 Zn198 2.086 1_545 S
C203 O199 1.278 . S
C203 O204 1.211 . S
O204 C203 1.211 . S
C205 O197 1.284 1_565 S
C205 O206 1.273 . S
O206 C205 1.273 . S
O207 Zn198 1.961 1_455 S
O207 C200 1.283 . S
C208 O209 1.160 . S
C208 O215 1.185 . S
O209 C208 1.160 . S
O210 Zn211 1.899 . S
O210 C218 1.284 . S
Zn211 O210 1.899 . S
Zn211 O212 2.032 . S
Zn211 O215 2.086 . S
Zn211 O220 1.977 . S
O212 Zn211 2.032 . S
O212 C216 1.278 . S
C213 O214 1.203 . S
C213 O220 1.267 . S
O214 C213 1.203 . S
O215 C208 1.185 . S
O215 Zn211 2.086 . S
C216 O212 1.278 . S
C216 O217 1.211 . S
O217 C216 1.211 . S
C218 O210 1.284 . S
C218 O219 1.273 . S
O219 C218 1.273 . S
O220 Zn211 1.977 . S
O220 C213 1.267 . S
C221 O222 1.160 . S
C221 O228 1.185 . S
O222 C221 1.160 . S
O223 Zn224 1.899 . S
O223 C231 1.284 . S
Zn224 O223 1.899 . S
Zn224 O225 2.032 . S
Zn224 O228 2.086 . S
Zn224 O233 1.977 . S
O225 Zn224 2.032 . S
O225 C229 1.278 . S
C226 O227 1.203 . S
C226 O233 1.267 . S
O227 C226 1.203 . S
O228 C221 1.185 . S
O228 Zn224 2.086 . S
C229 O225 1.278 . S
C229 O230 1.211 . S
O230 C229 1.211 . S
C231 O223 1.284 . S
C231 O232 1.273 . S
O232 C231 1.273 . S
O233 Zn224 1.977 . S
O233 C226 1.267 . S
C234 O235 1.160 . S
C234 O241 1.185 . S
O235 C234 1.160 . S
O236 Zn237 1.899 . S
O236 C244 1.284 . S
Zn237 O236 1.899 . S
Zn237 O238 2.032 . S
Zn237 O241 2.086 . S
Zn237 O246 1.977 . S
O238 Zn237 2.032 . S
O238 C242 1.278 . S
C239 O240 1.203 . S
C239 O246 1.267 . S
O240 C239 1.203 . S
O241 C234 1.185 . S
O241 Zn237 2.086 . S
C242 O238 1.278 . S
C242 O243 1.211 . S
O243 C242 1.211 . S
C244 O236 1.284 . S
C244 O245 1.273 . S
O245 C244 1.273 . S
O246 Zn237 1.977 . S
O246 C239 1.267 . S
C247 O248 1.160 . S
C247 O254 1.185 . S
O248 C247 1.160 . S
O249 Zn250 1.899 . S
O249 C257 1.284 . S
Zn250 O249 1.899 . S
Zn250 O251 2.032 . S
Zn250 O254 2.086 . S
Zn250 O259 1.961 1_655 S
O251 Zn250 2.032 . S
O251 C255 1.278 . S
C252 O253 1.203 . S
C252 O259 1.283 . S
O253 C252 1.203 . S
O254 C247 1.185 . S
O254 Zn250 2.086 . S
C255 O251 1.278 . S
C255 O256 1.211 . S
O256 C255 1.211 . S
C257 O249 1.284 . S
C257 O258 1.273 . S
O258 C257 1.273 . S
O259 Zn250 1.961 1_455 S
O259 C252 1.283 . S
C260 O261 1.160 . S
C260 O267 1.185 . S
O261 C260 1.160 . S
O262 Zn263 1.899 . S
O262 C270 1.284 . S
Zn263 O262 1.899 . S
Zn263 O264 2.032 . S
Zn263 O267 2.086 . S
Zn263 O272 1.977 . S
O264 Zn263 2.032 . S
O264 C268 1.278 . S
C265 O266 1.203 . S
C265 O272 1.267 . S
O266 C265 1.203 . S
O267 C260 1.185 . S
O267 Zn263 2.086 . S
C268 O264 1.278 . S
C268 O269 1.211 . S
O269 C268 1.211 . S
C270 O262 1.284 . S
C270 O271 1.273 . S
O271 C270 1.273 . S
O272 Zn263 1.977 . S
O272 C265 1.267 . S
C273 O274 1.160 . S
C273 O280 1.185 . S
O274 C273 1.160 . S
O275 Zn276 1.899 . S
O275 C283 1.284 . S
Zn276 O275 1.899 . S
Zn276 O277 2.032 . S
Zn276 O280 2.086 . S
Zn276 O285 1.961 1_655 S
O277 Zn276 2.032 . S
O277 C281 1.278 . S
C278 O279 1.203 . S
C278 O285 1.283 . S
O279 C278 1.203 . S
O280 C273 1.185 . S
O280 Zn276 2.086 . S
C281 O277 1.278 . S
C281 O282 1.211 . S
O282 C281 1.211 . S
C283 O275 1.284 . S
C283 O284 1.273 . S
O284 C283 1.273 . S
O285 Zn276 1.961 1_455 S
O285 C278 1.283 . S
C286 O287 1.160 . S
C286 O293 1.185 . S
O287 C286 1.160 . S
O288 Zn289 1.899 . S
O288 C296 1.284 . S
Zn289 O288 1.899 . S
Zn289 O290 2.032 . S
Zn289 O293 2.086 . S
Zn289 O298 1.977 . S
O290 Zn289 2.032 . S
O290 C294 1.278 . S
C291 O292 1.203 . S
C291 O298 1.267 . S
O292 C291 1.203 . S
O293 C286 1.185 . S
O293 Zn289 2.086 . S
C294 O290 1.278 . S
C294 O295 1.211 . S
O295 C294 1.211 . S
C296 O288 1.284 . S
C296 O297 1.273 . S
O297 C296 1.273 . S
O298 Zn289 1.977 . S
O298 C291 1.267 . S
C299 O300 1.160 . S
C299 O306 1.185 . S
O300 C299 1.160 . S
O301 Zn302 1.899 . S
O301 C309 1.284 . S
Zn302 O301 1.899 . S
Zn302 O303 2.032 . S
Zn302 O306 2.086 . S
Zn302 O311 1.977 . S
O303 Zn302 2.032 . S
O303 C307 1.278 . S
C304 O305 1.203 . S
C304 O311 1.267 . S
O305 C304 1.203 . S
O306 C299 1.185 . S
O306 Zn302 2.086 . S
C307 O303 1.278 . S
C307 O308 1.211 . S
O308 C307 1.211 . S
C309 O301 1.284 . S
C309 O310 1.273 . S
O310 C309 1.273 . S
O311 Zn302 1.977 . S
O311 C304 1.267 . S
C312 O313 1.160 . S
C312 O319 1.185 . S
O313 C312 1.160 . S
O314 Zn315 1.899 . S
O314 C322 1.284 . S
Zn315 O314 1.899 . S
Zn315 O316 2.032 . S
Zn315 O319 2.086 . S
Zn315 O324 1.977 . S
O316 Zn315 2.032 . S
O316 C320 1.278 . S
C317 O318 1.203 . S
C317 O324 1.267 . S
O318 C317 1.203 . S
O319 C312 1.185 . S
O319 Zn315 2.086 . S
C320 O316 1.278 . S
C320 O321 1.211 . S
O321 C320 1.211 . S
C322 O314 1.284 . S
C322 O323 1.273 . S
O323 C322 1.273 . S
O324 Zn315 1.977 . S
O324 C317 1.267 . S
C325 O326 1.160 . S
C325 O332 1.185 . S
O326 C325 1.160 . S
O327 Zn328 1.899 . S
O327 C335 1.284 . S
Zn328 O327 1.899 . S
Zn328 O329 2.032 . S
Zn328 O332 2.086 . S
Zn328 O337 1.977 . S
O329 Zn328 2.032 . S
O329 C333 1.278 . S
C330 O331 1.203 . S
C330 O337 1.267 . S
O331 C330 1.203 . S
O332 C325 1.185 . S
O332 Zn328 2.086 . S
C333 O329 1.278 . S
C333 O334 1.211 . S
O334 C333 1.211 . S
C335 O327 1.284 . S
C335 O336 1.273 . S
O336 C335 1.273 . S
O337 Zn328 1.977 . S
O337 C330 1.267 . S
C338 O339 1.160 . S
C338 O345 1.185 . S
O339 C338 1.160 . S
O340 Zn341 1.899 . S
O340 C348 1.284 . S
Zn341 O340 1.899 . S
Zn341 O342 2.032 . S
Zn341 O345 2.086 . S
Zn341 O350 1.977 . S
O342 Zn341 2.032 . S
O342 C346 1.278 . S
C343 O344 1.203 . S
C343 O350 1.267 . S
O344 C343 1.203 . S
O345 C338 1.185 . S
O345 Zn341 2.086 . S
C346 O342 1.278 . S
C346 O347 1.211 . S
O347 C346 1.211 . S
C348 O340 1.284 . S
C348 O349 1.273 . S
O349 C348 1.273 . S
O350 Zn341 1.977 . S
O350 C343 1.267 . S
C351 O352 1.160 . S
C351 O358 1.185 . S
O352 C351 1.160 . S
O353 Zn354 1.899 . S
O353 C361 1.284 . S
Zn354 O353 1.899 . S
Zn354 O355 2.032 . S
Zn354 O358 2.086 . S
Zn354 O363 1.961 1_455 S
O355 Zn354 2.032 . S
O355 C359 1.278 . S
C356 O357 1.203 . S
C356 O363 1.283 . S
O357 C356 1.203 . S
O358 C351 1.185 . S
O358 Zn354 2.086 . S
C359 O355 1.278 . S
C359 O360 1.211 . S
O360 C359 1.211 . S
C361 O353 1.284 . S
C361 O362 1.273 . S
O362 C361 1.273 . S
O363 Zn354 1.961 1_655 S
O363 C356 1.283 . S
C364 O365 1.160 . S
C364 O371 1.185 . S
O365 C364 1.160 . S
O366 Zn367 1.899 . S
O366 C374 1.284 . S
Zn367 O366 1.899 . S
Zn367 O368 2.032 . S
Zn367 O371 2.086 . S
Zn367 O376 1.977 . S
O368 Zn367 2.032 . S
O368 C372 1.278 . S
C369 O370 1.203 . S
C369 O376 1.267 . S
O370 C369 1.203 . S
O371 C364 1.185 . S
O371 Zn367 2.086 . S
C372 O368 1.278 . S
C372 O373 1.211 . S
O373 C372 1.211 . S
C374 O366 1.284 . S
C374 O375 1.273 . S
O375 C374 1.273 . S
O376 Zn367 1.977 . S
O376 C369 1.267 . S
C377 O378 1.160 . S
C377 O384 1.185 . S
O378 C377 1.160 . S
O379 Zn380 1.899 . S
O379 C387 1.284 . S
Zn380 O379 1.899 . S
Zn380 O381 2.032 . S
Zn380 O384 2.086 . S
Zn380 O389 1.961 1_455 S
O381 Zn380 2.032 . S
O381 C385 1.278 . S
C382 O383 1.203 . S
C382 O389 1.283 . S
O383 C382 1.203 . S
O384 C377 1.185 . S
O384 Zn380 2.086 . S
C385 O381 1.278 . S
C385 O386 1.211 . S
O386 C385 1.211 . S
C387 O379 1.284 . S
C387 O388 1.273 . S
O388 C387 1.273 . S
O389 Zn380 1.961 1_655 S
O389 C382 1.283 . S
C390 O391 1.160 . S
C390 O397 1.185 . S
O391 C390 1.160 . S
O392 Zn393 1.899 . S
O392 C400 1.284 . S
Zn393 O392 1.899 . S
Zn393 O394 2.032 . S
Zn393 O397 2.086 . S
Zn393 O402 1.977 . S
O394 Zn393 2.032 . S
O394 C398 1.278 . S
C395 O396 1.203 . S
C395 O402 1.267 . S
O396 C395 1.203 . S
O397 C390 1.185 . S
O397 Zn393 2.086 . S
C398 O394 1.278 . S
C398 O399 1.211 . S
O399 C398 1.211 . S
C400 O392 1.284 . S
C400 O401 1.273 . S
O401 C400 1.273 . S
O402 Zn393 1.977 . S
O402 C395 1.267 . S
C403 O404 1.160 . S
C403 O410 1.185 . S
O404 C403 1.160 . S
O405 Zn406 1.899 . S
O405 C413 1.284 . S
Zn406 O405 1.899 . S
Zn406 O407 2.032 . S
Zn406 O410 2.086 . S
Zn406 O415 1.977 . S
O407 Zn406 2.032 . S
O407 C411 1.278 . S
C408 O409 1.203 . S
C408 O415 1.267 . S
O409 C408 1.203 . S
O410 C403 1.185 . S
O410 Zn406 2.086 . S
C411 O407 1.278 . S
C411 O412 1.211 . S
O412 C411 1.211 . S
C413 O405 1.284 . S
C413 O414 1.273 . S
O414 C413 1.273 . S
O415 Zn406 1.977 . S
O415 C408 1.267 . S
H416 C422 0.930 . S
H417 C425 0.930 . S
H418 C426 0.930 . S
H419 C427 0.930 . S
H420 C430 0.930 . S
H421 C431 0.930 . S
C422 H416 0.930 . S
C422 C423 1.355 . S
C422 C424 1.415 . S
C423 C422 1.355 . S
C423 C425 1.419 . S
C424 C422 1.415 . S
C424 C429 1.425 . S
C424 C431 1.409 . S
C425 H417 0.930 . S
C425 C423 1.419 . S
C425 C426 1.362 . S
C426 H418 0.930 . S
C426 C425 1.362 . S
C426 C429 1.409 . S
C427 H419 0.930 . S
C427 C428 1.355 . S
C427 C429 1.415 . S
C428 C427 1.355 . S
C428 C430 1.419 . S
C429 C424 1.425 . S
C429 C426 1.409 . S
C429 C427 1.415 . S
C430 H420 0.930 . S
C430 C428 1.419 . S
C430 C431 1.362 . S
C431 H421 0.930 . S
C431 C424 1.409 . S
C431 C430 1.362 . S
H432 C438 0.930 . S
H433 C441 0.930 . S
H434 C442 0.930 . S
H435 C443 0.930 . S
H436 C446 0.930 . S
H437 C447 0.930 . S
C438 H432 0.930 . S
C438 C439 1.355 . S
C438 C440 1.415 . S
C439 C438 1.355 . S
C439 C441 1.419 . S
C440 C438 1.415 . S
C440 C445 1.425 . S
C440 C447 1.409 . S
C441 H433 0.930 . S
C441 C439 1.419 . S
C441 C442 1.362 . S
C442 H434 0.930 . S
C442 C441 1.362 . S
C442 C445 1.409 . S
C443 H435 0.930 . S
C443 C444 1.355 . S
C443 C445 1.415 . S
C444 C443 1.355 . S
C444 C446 1.419 . S
C445 C440 1.425 . S
C445 C442 1.409 . S
C445 C443 1.415 . S
C446 H436 0.930 . S
C446 C444 1.419 . S
C446 C447 1.362 . S
C447 H437 0.930 . S
C447 C440 1.409 . S
C447 C446 1.362 . S
H448 C454 0.930 . S
H449 C457 0.930 . S
H450 C458 0.930 . S
H451 C459 0.930 . S
H452 C462 0.930 . S
H453 C463 0.930 . S
C454 H448 0.930 . S
C454 C455 1.355 . S
C454 C456 1.415 . S
C455 C454 1.355 . S
C455 C457 1.419 . S
C456 C454 1.415 . S
C456 C461 1.425 . S
C456 C463 1.409 . S
C457 H449 0.930 . S
C457 C455 1.419 . S
C457 C458 1.362 . S
C458 H450 0.930 . S
C458 C457 1.362 . S
C458 C461 1.409 . S
C459 H451 0.930 . S
C459 C460 1.355 . S
C459 C461 1.415 . S
C460 C459 1.355 . S
C460 C462 1.419 . S
C461 C456 1.425 . S
C461 C458 1.409 . S
C461 C459 1.415 . S
C462 H452 0.930 . S
C462 C460 1.419 . S
C462 C463 1.362 . S
C463 H453 0.930 . S
C463 C456 1.409 . S
C463 C462 1.362 . S
H464 C470 0.930 . S
H465 C473 0.930 . S
H466 C474 0.930 . S
H467 C475 0.930 . S
H468 C478 0.930 . S
H469 C479 0.930 . S
C470 H464 0.930 . S
C470 C471 1.355 . S
C470 C472 1.415 . S
C471 C470 1.355 . S
C471 C473 1.419 . S
C472 C470 1.415 . S
C472 C477 1.425 . S
C472 C479 1.409 . S
C473 H465 0.930 . S
C473 C471 1.419 . S
C473 C474 1.362 . S
C474 H466 0.930 . S
C474 C473 1.362 . S
C474 C477 1.409 . S
C475 H467 0.930 . S
C475 C476 1.355 . S
C475 C477 1.415 . S
C476 C475 1.355 . S
C476 C478 1.419 . S
C477 C472 1.425 . S
C477 C474 1.409 . S
C477 C475 1.415 . S
C478 H468 0.930 . S
C478 C476 1.419 . S
C478 C479 1.362 . S
C479 H469 0.930 . S
C479 C472 1.409 . S
C479 C478 1.362 . S
H480 C486 0.930 . S
H481 C489 0.930 . S
H482 C490 0.930 . S
H483 C491 0.930 . S
H484 C494 0.930 . S
H485 C495 0.930 . S
C486 H480 0.930 . S
C486 C487 1.355 . S
C486 C488 1.415 . S
C487 C486 1.355 . S
C487 C489 1.419 . S
C488 C486 1.415 . S
C488 C493 1.425 . S
C488 C495 1.409 . S
C489 H481 0.930 . S
C489 C487 1.419 . S
C489 C490 1.362 . S
C490 H482 0.930 . S
C490 C489 1.362 . S
C490 C493 1.409 . S
C491 H483 0.930 . S
C491 C492 1.355 . S
C491 C493 1.415 . S
C492 C491 1.355 . S
C492 C494 1.419 . S
C493 C488 1.425 . S
C493 C490 1.409 . S
C493 C491 1.415 . S
C494 H484 0.930 . S
C494 C492 1.419 . S
C494 C495 1.362 . S
C495 H485 0.930 . S
C495 C488 1.409 . S
C495 C494 1.362 . S
H496 C502 0.930 . S
H497 C505 0.930 . S
H498 C506 0.930 . S
H499 C507 0.930 . S
H500 C510 0.930 . S
H501 C511 0.930 . S
C502 H496 0.930 . S
C502 C503 1.355 . S
C502 C504 1.415 . S
C503 C502 1.355 . S
C503 C505 1.419 . S
C504 C502 1.415 . S
C504 C509 1.425 . S
C504 C511 1.409 . S
C505 H497 0.930 . S
C505 C503 1.419 . S
C505 C506 1.362 . S
C506 H498 0.930 . S
C506 C505 1.362 . S
C506 C509 1.409 . S
C507 H499 0.930 . S
C507 C508 1.355 . S
C507 C509 1.415 . S
C508 C507 1.355 . S
C508 C510 1.419 . S
C509 C504 1.425 . S
C509 C506 1.409 . S
C509 C507 1.415 . S
C510 H500 0.930 . S
C510 C508 1.419 . S
C510 C511 1.362 . S
C511 H501 0.930 . S
C511 C504 1.409 . S
C511 C510 1.362 . S
H512 C518 0.930 . S
H513 C521 0.930 . S
H514 C522 0.930 . S
H515 C523 0.930 . S
H516 C526 0.930 . S
H517 C527 0.930 . S
C518 H512 0.930 . S
C518 C519 1.355 . S
C518 C520 1.415 . S
C519 C518 1.355 . S
C519 C521 1.419 . S
C520 C518 1.415 . S
C520 C525 1.425 . S
C520 C527 1.409 . S
C521 H513 0.930 . S
C521 C519 1.419 . S
C521 C522 1.362 . S
C522 H514 0.930 . S
C522 C521 1.362 . S
C522 C525 1.409 . S
C523 H515 0.930 . S
C523 C524 1.355 . S
C523 C525 1.415 . S
C524 C523 1.355 . S
C524 C526 1.419 . S
C525 C520 1.425 . S
C525 C522 1.409 . S
C525 C523 1.415 . S
C526 H516 0.930 . S
C526 C524 1.419 . S
C526 C527 1.362 . S
C527 H517 0.930 . S
C527 C520 1.409 . S
C527 C526 1.362 . S
H528 C534 0.930 . S
H529 C537 0.930 . S
H530 C538 0.930 . S
H531 C539 0.930 . S
H532 C542 0.930 . S
H533 C543 0.930 . S
C534 H528 0.930 . S
C534 C535 1.355 . S
C534 C536 1.415 . S
C535 C534 1.355 . S
C535 C537 1.419 . S
C536 C534 1.415 . S
C536 C541 1.425 . S
C536 C543 1.409 . S
C537 H529 0.930 . S
C537 C535 1.419 . S
C537 C538 1.362 . S
C538 H530 0.930 . S
C538 C537 1.362 . S
C538 C541 1.409 . S
C539 H531 0.930 . S
C539 C540 1.355 . S
C539 C541 1.415 . S
C540 C539 1.355 . S
C540 C542 1.419 . S
C541 C536 1.425 . S
C541 C538 1.409 . S
C541 C539 1.415 . S
C542 H532 0.930 . S
C542 C540 1.419 . S
C542 C543 1.362 . S
C543 H533 0.930 . S
C543 C536 1.409 . S
C543 C542 1.362 . S
H544 C550 0.930 . S
H545 C553 0.930 . S
H546 C554 0.930 . S
H547 C555 0.930 . S
H548 C558 0.930 . S
H549 C559 0.930 . S
C550 H544 0.930 . S
C550 C551 1.355 . S
C550 C552 1.415 . S
C551 C550 1.355 . S
C551 C553 1.419 . S
C552 C550 1.415 . S
C552 C557 1.425 . S
C552 C559 1.409 . S
C553 H545 0.930 . S
C553 C551 1.419 . S
C553 C554 1.362 . S
C554 H546 0.930 . S
C554 C553 1.362 . S
C554 C557 1.409 . S
C555 H547 0.930 . S
C555 C556 1.355 . S
C555 C557 1.415 . S
C556 C555 1.355 . S
C556 C558 1.419 . S
C557 C552 1.425 . S
C557 C554 1.409 . S
C557 C555 1.415 . S
C558 H548 0.930 . S
C558 C556 1.419 . S
C558 C559 1.362 . S
C559 H549 0.930 . S
C559 C552 1.409 . S
C559 C558 1.362 . S
H560 C566 0.930 . S
H561 C569 0.930 . S
H562 C570 0.930 . S
H563 C571 0.930 . S
H564 C574 0.930 . S
H565 C575 0.930 . S
C566 H560 0.930 . S
C566 C567 1.355 . S
C566 C568 1.415 . S
C567 C566 1.355 . S
C567 C569 1.419 . S
C568 C566 1.415 . S
C568 C573 1.425 . S
C568 C575 1.409 . S
C569 H561 0.930 . S
C569 C567 1.419 . S
C569 C570 1.362 . S
C570 H562 0.930 . S
C570 C569 1.362 . S
C570 C573 1.409 . S
C571 H563 0.930 . S
C571 C572 1.355 . S
C571 C573 1.415 . S
C572 C571 1.355 . S
C572 C574 1.419 . S
C573 C568 1.425 . S
C573 C570 1.409 . S
C573 C571 1.415 . S
C574 H564 0.930 . S
C574 C572 1.419 . S
C574 C575 1.362 . S
C575 H565 0.930 . S
C575 C568 1.409 . S
C575 C574 1.362 . S
H576 C582 0.930 . S
H577 C585 0.930 . S
H578 C586 0.930 . S
H579 C587 0.930 . S
H580 C590 0.930 . S
H581 C591 0.930 . S
C582 H576 0.930 . S
C582 C583 1.355 . S
C582 C584 1.415 . S
C583 C582 1.355 . S
C583 C585 1.419 . S
C584 C582 1.415 . S
C584 C589 1.425 . S
C584 C591 1.409 . S
C585 H577 0.930 . S
C585 C583 1.419 . S
C585 C586 1.362 . S
C586 H578 0.930 . S
C586 C585 1.362 . S
C586 C589 1.409 . S
C587 H579 0.930 . S
C587 C588 1.355 . S
C587 C589 1.415 . S
C588 C587 1.355 . S
C588 C590 1.419 . S
C589 C584 1.425 . S
C589 C586 1.409 . S
C589 C587 1.415 . S
C590 H580 0.930 . S
C590 C588 1.419 . S
C590 C591 1.362 . S
C591 H581 0.930 . S
C591 C584 1.409 . S
C591 C590 1.362 . S
H592 C598 0.930 . S
H593 C601 0.930 . S
H594 C602 0.930 . S
H595 C603 0.930 . S
H596 C606 0.930 . S
H597 C607 0.930 . S
C598 H592 0.930 . S
C598 C599 1.355 . S
C598 C600 1.415 . S
C599 C598 1.355 . S
C599 C601 1.419 . S
C600 C598 1.415 . S
C600 C605 1.425 . S
C600 C607 1.409 . S
C601 H593 0.930 . S
C601 C599 1.419 . S
C601 C602 1.362 . S
C602 H594 0.930 . S
C602 C601 1.362 . S
C602 C605 1.409 . S
C603 H595 0.930 . S
C603 C604 1.355 . S
C603 C605 1.415 . S
C604 C603 1.355 . S
C604 C606 1.419 . S
C605 C600 1.425 . S
C605 C602 1.409 . S
C605 C603 1.415 . S
C606 H596 0.930 . S
C606 C604 1.419 . S
C606 C607 1.362 . S
C607 H597 0.930 . S
C607 C600 1.409 . S
C607 C606 1.362 . S
H608 C614 0.930 . S
H609 C617 0.930 . S
H610 C618 0.930 . S
H611 C619 0.930 . S
H612 C622 0.930 . S
H613 C623 0.930 . S
C614 H608 0.930 . S
C614 C615 1.355 . S
C614 C616 1.415 . S
C615 C614 1.355 . S
C615 C617 1.419 . S
C616 C614 1.415 . S
C616 C621 1.425 . S
C616 C623 1.409 . S
C617 H609 0.930 . S
C617 C615 1.419 . S
C617 C618 1.362 . S
C618 H610 0.930 . S
C618 C617 1.362 . S
C618 C621 1.409 . S
C619 H611 0.930 . S
C619 C620 1.355 . S
C619 C621 1.415 . S
C620 C619 1.355 . S
C620 C622 1.419 . S
C621 C616 1.425 . S
C621 C618 1.409 . S
C621 C619 1.415 . S
C622 H612 0.930 . S
C622 C620 1.419 . S
C622 C623 1.362 . S
C623 H613 0.930 . S
C623 C616 1.409 . S
C623 C622 1.362 . S
H624 C630 0.930 . S
H625 C633 0.930 . S
H626 C634 0.930 . S
H627 C635 0.930 . S
H628 C638 0.930 . S
H629 C639 0.930 . S
C630 H624 0.930 . S
C630 C631 1.355 . S
C630 C632 1.415 . S
C631 C630 1.355 . S
C631 C633 1.419 . S
C632 C630 1.415 . S
C632 C637 1.425 . S
C632 C639 1.409 . S
C633 H625 0.930 . S
C633 C631 1.419 . S
C633 C634 1.362 . S
C634 H626 0.930 . S
C634 C633 1.362 . S
C634 C637 1.409 . S
C635 H627 0.930 . S
C635 C636 1.355 . S
C635 C637 1.415 . S
C636 C635 1.355 . S
C636 C638 1.419 . S
C637 C632 1.425 . S
C637 C634 1.409 . S
C637 C635 1.415 . S
C638 H628 0.930 . S
C638 C636 1.419 . S
C638 C639 1.362 . S
C639 H629 0.930 . S
C639 C632 1.409 . S
C639 C638 1.362 . S
H640 C646 0.930 . S
H641 C649 0.930 . S
H642 C650 0.930 . S
H643 C651 0.930 . S
H644 C654 0.930 . S
H645 C655 0.930 . S
C646 H640 0.930 . S
C646 C647 1.355 . S
C646 C648 1.415 . S
C647 C646 1.355 . S
C647 C649 1.419 . S
C648 C646 1.415 . S
C648 C653 1.425 . S
C648 C655 1.409 . S
C649 H641 0.930 . S
C649 C647 1.419 . S
C649 C650 1.362 . S
C650 H642 0.930 . S
C650 C649 1.362 . S
C650 C653 1.409 . S
C651 H643 0.930 . S
C651 C652 1.355 . S
C651 C653 1.415 . S
C652 C651 1.355 . S
C652 C654 1.419 . S
C653 C648 1.425 . S
C653 C650 1.409 . S
C653 C651 1.415 . S
C654 H644 0.930 . S
C654 C652 1.419 . S
C654 C655 1.362 . S
C655 H645 0.930 . S
C655 C648 1.409 . S
C655 C654 1.362 . S
H656 C662 0.930 . S
H657 C665 0.930 . S
H658 C666 0.930 . S
H659 C667 0.930 . S
H660 C670 0.930 . S
H661 C671 0.930 . S
C662 H656 0.930 . S
C662 C663 1.355 . S
C662 C664 1.415 . S
C663 C662 1.355 . S
C663 C665 1.419 . S
C664 C662 1.415 . S
C664 C669 1.425 . S
C664 C671 1.409 . S
C665 H657 0.930 . S
C665 C663 1.419 . S
C665 C666 1.362 . S
C666 H658 0.930 . S
C666 C665 1.362 . S
C666 C669 1.409 . S
C667 H659 0.930 . S
C667 C668 1.355 . S
C667 C669 1.415 . S
C668 C667 1.355 . S
C668 C670 1.419 . S
C669 C664 1.425 . S
C669 C666 1.409 . S
C669 C667 1.415 . S
C670 H660 0.930 . S
C670 C668 1.419 . S
C670 C671 1.362 . S
C671 H661 0.930 . S
C671 C664 1.409 . S
C671 C670 1.362 . S
H672 C678 0.930 . S
H673 C681 0.930 . S
H674 C682 0.930 . S
H675 C683 0.930 . S
H676 C686 0.930 . S
H677 C687 0.930 . S
C678 H672 0.930 . S
C678 C679 1.355 . S
C678 C680 1.415 . S
C679 C678 1.355 . S
C679 C681 1.419 . S
C680 C678 1.415 . S
C680 C685 1.425 . S
C680 C687 1.409 . S
C681 H673 0.930 . S
C681 C679 1.419 . S
C681 C682 1.362 . S
C682 H674 0.930 . S
C682 C681 1.362 . S
C682 C685 1.409 . S
C683 H675 0.930 . S
C683 C684 1.355 . S
C683 C685 1.415 . S
C684 C683 1.355 . S
C684 C686 1.419 . S
C685 C680 1.425 . S
C685 C682 1.409 . S
C685 C683 1.415 . S
C686 H676 0.930 . S
C686 C684 1.419 . S
C686 C687 1.362 . S
C687 H677 0.930 . S
C687 C680 1.409 . S
C687 C686 1.362 . S
H688 C694 0.930 . S
H689 C697 0.930 . S
H690 C698 0.930 . S
H691 C699 0.930 . S
H692 C702 0.930 . S
H693 C703 0.930 . S
C694 H688 0.930 . S
C694 C695 1.355 . S
C694 C696 1.415 . S
C695 C694 1.355 . S
C695 C697 1.419 . S
C696 C694 1.415 . S
C696 C701 1.425 . S
C696 C703 1.409 . S
C697 H689 0.930 . S
C697 C695 1.419 . S
C697 C698 1.362 . S
C698 H690 0.930 . S
C698 C697 1.362 . S
C698 C701 1.409 . S
C699 H691 0.930 . S
C699 C700 1.355 . S
C699 C701 1.415 . S
C700 C699 1.355 . S
C700 C702 1.419 . S
C701 C696 1.425 . S
C701 C698 1.409 . S
C701 C699 1.415 . S
C702 H692 0.930 . S
C702 C700 1.419 . S
C702 C703 1.362 . S
C703 H693 0.930 . S
C703 C696 1.409 . S
C703 C702 1.362 . S
H704 C710 0.930 . S
H705 C713 0.930 . S
H706 C714 0.930 . S
H707 C715 0.930 . S
H708 C718 0.930 . S
H709 C719 0.930 . S
C710 H704 0.930 . S
C710 C711 1.355 . S
C710 C712 1.415 . S
C711 C710 1.355 . S
C711 C713 1.419 . S
C712 C710 1.415 . S
C712 C717 1.425 . S
C712 C719 1.409 . S
C713 H705 0.930 . S
C713 C711 1.419 . S
C713 C714 1.362 . S
C714 H706 0.930 . S
C714 C713 1.362 . S
C714 C717 1.409 . S
C715 H707 0.930 . S
C715 C716 1.355 . S
C715 C717 1.415 . S
C716 C715 1.355 . S
C716 C718 1.419 . S
C717 C712 1.425 . S
C717 C714 1.409 . S
C717 C715 1.415 . S
C718 H708 0.930 . S
C718 C716 1.419 . S
C718 C719 1.362 . S
C719 H709 0.930 . S
C719 C712 1.409 . S
C719 C718 1.362 . S
H720 C726 0.930 . S
H721 C729 0.930 . S
H722 C730 0.930 . S
H723 C731 0.930 . S
H724 C734 0.930 . S
H725 C735 0.930 . S
C726 H720 0.930 . S
C726 C727 1.355 . S
C726 C728 1.415 . S
C727 C726 1.355 . S
C727 C729 1.419 . S
C728 C726 1.415 . S
C728 C733 1.425 . S
C728 C735 1.409 . S
C729 H721 0.930 . S
C729 C727 1.419 . S
C729 C730 1.362 . S
C730 H722 0.930 . S
C730 C729 1.362 . S
C730 C733 1.409 . S
C731 H723 0.930 . S
C731 C732 1.355 . S
C731 C733 1.415 . S
C732 C731 1.355 . S
C732 C734 1.419 . S
C733 C728 1.425 . S
C733 C730 1.409 . S
C733 C731 1.415 . S
C734 H724 0.930 . S
C734 C732 1.419 . S
C734 C735 1.362 . S
C735 H725 0.930 . S
C735 C728 1.409 . S
C735 C734 1.362 . S
H736 C742 0.930 . S
H737 C745 0.930 . S
H738 C746 0.930 . S
H739 C747 0.930 . S
H740 C750 0.930 . S
H741 C751 0.930 . S
C742 H736 0.930 . S
C742 C743 1.355 . S
C742 C744 1.415 . S
C743 C742 1.355 . S
C743 C745 1.419 . S
C744 C742 1.415 . S
C744 C749 1.425 . S
C744 C751 1.409 . S
C745 H737 0.930 . S
C745 C743 1.419 . S
C745 C746 1.362 . S
C746 H738 0.930 . S
C746 C745 1.362 . S
C746 C749 1.409 . S
C747 H739 0.930 . S
C747 C748 1.355 . S
C747 C749 1.415 . S
C748 C747 1.355 . S
C748 C750 1.419 . S
C749 C744 1.425 . S
C749 C746 1.409 . S
C749 C747 1.415 . S
C750 H740 0.930 . S
C750 C748 1.419 . S
C750 C751 1.362 . S
C751 H741 0.930 . S
C751 C744 1.409 . S
C751 C750 1.362 . S
H752 C758 0.930 . S
H753 C761 0.930 . S
H754 C762 0.930 . S
H755 C763 0.930 . S
H756 C766 0.930 . S
H757 C767 0.930 . S
C758 H752 0.930 . S
C758 C759 1.355 . S
C758 C760 1.415 . S
C759 C758 1.355 . S
C759 C761 1.419 . S
C760 C758 1.415 . S
C760 C765 1.425 . S
C760 C767 1.409 . S
C761 H753 0.930 . S
C761 C759 1.419 . S
C761 C762 1.362 . S
C762 H754 0.930 . S
C762 C761 1.362 . S
C762 C765 1.409 . S
C763 H755 0.930 . S
C763 C764 1.355 . S
C763 C765 1.415 . S
C764 C763 1.355 . S
C764 C766 1.419 . S
C765 C760 1.425 . S
C765 C762 1.409 . S
C765 C763 1.415 . S
C766 H756 0.930 . S
C766 C764 1.419 . S
C766 C767 1.362 . S
C767 H757 0.930 . S
C767 C760 1.409 . S
C767 C766 1.362 . S
H768 C774 0.930 . S
H769 C777 0.930 . S
H770 C778 0.930 . S
H771 C779 0.930 . S
H772 C782 0.930 . S
H773 C783 0.930 . S
C774 H768 0.930 . S
C774 C775 1.355 . S
C774 C776 1.415 . S
C775 C774 1.355 . S
C775 C777 1.419 . S
C776 C774 1.415 . S
C776 C781 1.425 . S
C776 C783 1.409 . S
C777 H769 0.930 . S
C777 C775 1.419 . S
C777 C778 1.362 . S
C778 H770 0.930 . S
C778 C777 1.362 . S
C778 C781 1.409 . S
C779 H771 0.930 . S
C779 C780 1.355 . S
C779 C781 1.415 . S
C780 C779 1.355 . S
C780 C782 1.419 . S
C781 C776 1.425 . S
C781 C778 1.409 . S
C781 C779 1.415 . S
C782 H772 0.930 . S
C782 C780 1.419 . S
C782 C783 1.362 . S
C783 H773 0.930 . S
C783 C776 1.409 . S
C783 C782 1.362 . S
H784 C790 0.930 . S
H785 C793 0.930 . S
H786 C794 0.930 . S
H787 C795 0.930 . S
H788 C798 0.930 . S
H789 C799 0.930 . S
C790 H784 0.930 . S
C790 C791 1.355 . S
C790 C792 1.415 . S
C791 C790 1.355 . S
C791 C793 1.419 . S
C792 C790 1.415 . S
C792 C797 1.425 . S
C792 C799 1.409 . S
C793 H785 0.930 . S
C793 C791 1.419 . S
C793 C794 1.362 . S
C794 H786 0.930 . S
C794 C793 1.362 . S
C794 C797 1.409 . S
C795 H787 0.930 . S
C795 C796 1.355 . S
C795 C797 1.415 . S
C796 C795 1.355 . S
C796 C798 1.419 . S
C797 C792 1.425 . S
C797 C794 1.409 . S
C797 C795 1.415 . S
C798 H788 0.930 . S
C798 C796 1.419 . S
C798 C799 1.362 . S
C799 H789 0.930 . S
C799 C792 1.409 . S
C799 C798 1.362 . S
H800 C806 0.930 . S
H801 C809 0.930 . S
H802 C810 0.930 . S
H803 C811 0.930 . S
H804 C814 0.930 . S
H805 C815 0.930 . S
C806 H800 0.930 . S
C806 C807 1.355 . S
C806 C808 1.415 . S
C807 C806 1.355 . S
C807 C809 1.419 . S
C808 C806 1.415 . S
C808 C813 1.425 . S
C808 C815 1.409 . S
C809 H801 0.930 . S
C809 C807 1.419 . S
C809 C810 1.362 . S
C810 H802 0.930 . S
C810 C809 1.362 . S
C810 C813 1.409 . S
C811 H803 0.930 . S
C811 C812 1.355 . S
C811 C813 1.415 . S
C812 C811 1.355 . S
C812 C814 1.419 . S
C813 C808 1.425 . S
C813 C810 1.409 . S
C813 C811 1.415 . S
C814 H804 0.930 . S
C814 C812 1.419 . S
C814 C815 1.362 . S
C815 H805 0.930 . S
C815 C808 1.409 . S
C815 C814 1.362 . S
H816 C822 0.930 . S
H817 C825 0.930 . S
H818 C826 0.930 . S
H819 C827 0.930 . S
H820 C830 0.930 . S
H821 C831 0.930 . S
C822 H816 0.930 . S
C822 C823 1.355 . S
C822 C824 1.415 . S
C823 C822 1.355 . S
C823 C825 1.419 . S
C824 C822 1.415 . S
C824 C829 1.425 . S
C824 C831 1.409 . S
C825 H817 0.930 . S
C825 C823 1.419 . S
C825 C826 1.362 . S
C826 H818 0.930 . S
C826 C825 1.362 . S
C826 C829 1.409 . S
C827 H819 0.930 . S
C827 C828 1.355 . S
C827 C829 1.415 . S
C828 C827 1.355 . S
C828 C830 1.419 . S
C829 C824 1.425 . S
C829 C826 1.409 . S
C829 C827 1.415 . S
C830 H820 0.930 . S
C830 C828 1.419 . S
C830 C831 1.362 . S
C831 H821 0.930 . S
C831 C824 1.409 . S
C831 C830 1.362 . S
H832 C838 0.930 . S
H833 C841 0.930 . S
H834 C842 0.930 . S
H835 C843 0.930 . S
H836 C846 0.930 . S
H837 C847 0.930 . S
C838 H832 0.930 . S
C838 C839 1.355 . S
C838 C840 1.415 . S
C839 C838 1.355 . S
C839 C841 1.419 . S
C840 C838 1.415 . S
C840 C845 1.425 . S
C840 C847 1.409 . S
C841 H833 0.930 . S
C841 C839 1.419 . S
C841 C842 1.362 . S
C842 H834 0.930 . S
C842 C841 1.362 . S
C842 C845 1.409 . S
C843 H835 0.930 . S
C843 C844 1.355 . S
C843 C845 1.415 . S
C844 C843 1.355 . S
C844 C846 1.419 . S
C845 C840 1.425 . S
C845 C842 1.409 . S
C845 C843 1.415 . S
C846 H836 0.930 . S
C846 C844 1.419 . S
C846 C847 1.362 . S
C847 H837 0.930 . S
C847 C840 1.409 . S
C847 C846 1.362 . S
H848 C854 0.930 . S
H849 C857 0.930 . S
H850 C858 0.930 . S
H851 C859 0.930 . S
H852 C862 0.930 . S
H853 C863 0.930 . S
C854 H848 0.930 . S
C854 C855 1.355 . S
C854 C856 1.415 . S
C855 C854 1.355 . S
C855 C857 1.419 . S
C856 C854 1.415 . S
C856 C861 1.425 . S
C856 C863 1.409 . S
C857 H849 0.930 . S
C857 C855 1.419 . S
C857 C858 1.362 . S
C858 H850 0.930 . S
C858 C857 1.362 . S
C858 C861 1.409 . S
C859 H851 0.930 . S
C859 C860 1.355 . S
C859 C861 1.415 . S
C860 C859 1.355 . S
C860 C862 1.419 . S
C861 C856 1.425 . S
C861 C858 1.409 . S
C861 C859 1.415 . S
C862 H852 0.930 . S
C862 C860 1.419 . S
C862 C863 1.362 . S
C863 H853 0.930 . S
C863 C856 1.409 . S
C863 C862 1.362 . S
H864 C870 0.930 . S
H865 C873 0.930 . S
H866 C874 0.930 . S
H867 C875 0.930 . S
H868 C878 0.930 . S
H869 C879 0.930 . S
C870 H864 0.930 . S
C870 C871 1.355 . S
C870 C872 1.415 . S
C871 C870 1.355 . S
C871 C873 1.419 . S
C872 C870 1.415 . S
C872 C877 1.425 . S
C872 C879 1.409 . S
C873 H865 0.930 . S
C873 C871 1.419 . S
C873 C874 1.362 . S
C874 H866 0.930 . S
C874 C873 1.362 . S
C874 C877 1.409 . S
C875 H867 0.930 . S
C875 C876 1.355 . S
C875 C877 1.415 . S
C876 C875 1.355 . S
C876 C878 1.419 . S
C877 C872 1.425 . S
C877 C874 1.409 . S
C877 C875 1.415 . S
C878 H868 0.930 . S
C878 C876 1.419 . S
C878 C879 1.362 . S
C879 H869 0.930 . S
C879 C872 1.409 . S
C879 C878 1.362 . S
H880 C886 0.930 . S
H881 C889 0.930 . S
H882 C890 0.930 . S
H883 C891 0.930 . S
H884 C894 0.930 . S
H885 C895 0.930 . S
C886 H880 0.930 . S
C886 C887 1.355 . S
C886 C888 1.415 . S
C887 C886 1.355 . S
C887 C889 1.419 . S
C888 C886 1.415 . S
C888 C893 1.425 . S
C888 C895 1.409 . S
C889 H881 0.930 . S
C889 C887 1.419 . S
C889 C890 1.362 . S
C890 H882 0.930 . S
C890 C889 1.362 . S
C890 C893 1.409 . S
C891 H883 0.930 . S
C891 C892 1.355 . S
C891 C893 1.415 . S
C892 C891 1.355 . S
C892 C894 1.419 . S
C893 C888 1.425 . S
C893 C890 1.409 . S
C893 C891 1.415 . S
C894 H884 0.930 . S
C894 C892 1.419 . S
C894 C895 1.362 . S
C895 H885 0.930 . S
C895 C888 1.409 . S
C895 C894 1.362 . S
H896 C902 0.930 . S
H897 C905 0.930 . S
H898 C906 0.930 . S
H899 C907 0.930 . S
H900 C910 0.930 . S
H901 C911 0.930 . S
C902 H896 0.930 . S
C902 C903 1.355 . S
C902 C904 1.415 . S
C903 C902 1.355 . S
C903 C905 1.419 . S
C904 C902 1.415 . S
C904 C909 1.425 . S
C904 C911 1.409 . S
C905 H897 0.930 . S
C905 C903 1.419 . S
C905 C906 1.362 . S
C906 H898 0.930 . S
C906 C905 1.362 . S
C906 C909 1.409 . S
C907 H899 0.930 . S
C907 C908 1.355 . S
C907 C909 1.415 . S
C908 C907 1.355 . S
C908 C910 1.419 . S
C909 C904 1.425 . S
C909 C906 1.409 . S
C909 C907 1.415 . S
C910 H900 0.930 . S
C910 C908 1.419 . S
C910 C911 1.362 . S
C911 H901 0.930 . S
C911 C904 1.409 . S
C911 C910 1.362 . S
H912 C918 0.930 . S
H913 C921 0.930 . S
H914 C922 0.930 . S
H915 C923 0.930 . S
H916 C926 0.930 . S
H917 C927 0.930 . S
C918 H912 0.930 . S
C918 C919 1.355 . S
C918 C920 1.415 . S
C919 C918 1.355 . S
C919 C921 1.419 . S
C920 C918 1.415 . S
C920 C925 1.425 . S
C920 C927 1.409 . S
C921 H913 0.930 . S
C921 C919 1.419 . S
C921 C922 1.362 . S
C922 H914 0.930 . S
C922 C921 1.362 . S
C922 C925 1.409 . S
C923 H915 0.930 . S
C923 C924 1.355 . S
C923 C925 1.415 . S
C924 C923 1.355 . S
C924 C926 1.419 . S
C925 C920 1.425 . S
C925 C922 1.409 . S
C925 C923 1.415 . S
C926 H916 0.930 . S
C926 C924 1.419 . S
C926 C927 1.362 . S
C927 H917 0.930 . S
C927 C920 1.409 . S
C927 C926 1.362 . S
H928 C934 0.930 . S
H929 C937 0.930 . S
H930 C938 0.930 . S
H931 C939 0.930 . S
H932 C942 0.930 . S
H933 C943 0.930 . S
C934 H928 0.930 . S
C934 C935 1.355 . S
C934 C936 1.415 . S
C935 C934 1.355 . S
C935 C937 1.419 . S
C936 C934 1.415 . S
C936 C941 1.425 . S
C936 C943 1.409 . S
C937 H929 0.930 . S
C937 C935 1.419 . S
C937 C938 1.362 . S
C938 H930 0.930 . S
C938 C937 1.362 . S
C938 C941 1.409 . S
C939 H931 0.930 . S
C939 C940 1.355 . S
C939 C941 1.415 . S
C940 C939 1.355 . S
C940 C942 1.419 . S
C941 C936 1.425 . S
C941 C938 1.409 . S
C941 C939 1.415 . S
C942 H932 0.930 . S
C942 C940 1.419 . S
C942 C943 1.362 . S
C943 H933 0.930 . S
C943 C936 1.409 . S
C943 C942 1.362 . S
H944 C950 0.928 1_545 S
H945 C953 0.930 . S
H946 C954 0.930 . S
H947 C955 0.928 1_565 S
H948 C958 0.930 . S
H949 C959 0.930 . S
C950 H944 0.928 1_565 S
C950 C951 1.356 1_655 S
C950 C952 1.414 1_565 S
C951 C950 1.356 1_455 S
C951 C953 1.419 . S
C952 C950 1.414 1_545 S
C952 C957 1.425 1_645 S
C952 C959 1.409 . S
C953 H945 0.930 . S
C953 C951 1.419 . S
C953 C954 1.362 . S
C954 H946 0.930 . S
C954 C953 1.362 . S
C954 C957 1.409 . S
C955 H947 0.928 1_545 S
C955 C956 1.356 1_455 S
C955 C957 1.414 1_545 S
C956 C955 1.356 1_655 S
C956 C958 1.419 . S
C957 C952 1.425 1_465 S
C957 C954 1.409 . S
C957 C955 1.414 1_565 S
C958 H948 0.930 . S
C958 C956 1.419 . S
C958 C959 1.362 . S
C959 H949 0.930 . S
C959 C952 1.409 . S
C959 C958 1.362 . S
H960 C966 0.930 . S
H961 C969 0.930 . S
H962 C970 0.930 . S
H963 C971 0.930 . S
H964 C974 0.930 . S
H965 C975 0.930 . S
C966 H960 0.930 . S
C966 C967 1.355 . S
C966 C968 1.415 . S
C967 C966 1.355 . S
C967 C969 1.419 . S
C968 C966 1.415 . S
C968 C973 1.425 . S
C968 C975 1.409 . S
C969 H961 0.930 . S
C969 C967 1.419 . S
C969 C970 1.362 . S
C970 H962 0.930 . S
C970 C969 1.362 . S
C970 C973 1.409 . S
C971 H963 0.930 . S
C971 C972 1.355 . S
C971 C973 1.415 . S
C972 C971 1.355 . S
C972 C974 1.419 . S
C973 C968 1.425 . S
C973 C970 1.409 . S
C973 C971 1.415 . S
C974 H964 0.930 . S
C974 C972 1.419 . S
C974 C975 1.362 . S
C975 H965 0.930 . S
C975 C968 1.409 . S
C975 C974 1.362 . S
H976 C982 0.930 . S
H977 C985 0.930 . S
H978 C986 0.930 . S
H979 C987 0.930 . S
H980 C990 0.930 . S
H981 C991 0.930 . S
C982 H976 0.930 . S
C982 C983 1.355 . S
C982 C984 1.415 . S
C983 C982 1.355 . S
C983 C985 1.419 1_545 S
C984 C982 1.415 . S
C984 C989 1.425 1_544 S
C984 C991 1.409 1_554 S
C985 H977 0.930 . S
C985 C983 1.419 1_565 S
C985 C986 1.362 . S
C986 H978 0.930 . S
C986 C985 1.362 . S
C986 C989 1.409 1_554 S
C987 H979 0.930 . S
C987 C988 1.355 . S
C987 C989 1.415 . S
C988 C987 1.355 . S
C988 C990 1.419 1_565 S
C989 C984 1.425 1_566 S
C989 C986 1.409 1_556 S
C989 C987 1.415 . S
C990 H980 0.930 . S
C990 C988 1.419 1_545 S
C990 C991 1.362 . S
C991 H981 0.930 . S
C991 C984 1.409 1_556 S
C991 C990 1.362 . S
H992 C998 0.930 . S
H993 C1001 0.930 . S
H994 C1002 0.930 . S
H995 C1003 0.930 . S
H996 C1006 0.930 . S
H997 C1007 0.930 . S
C998 H992 0.930 . S
C998 C999 1.355 . S
C998 C1000 1.415 . S
C999 C998 1.355 . S
C999 C1001 1.419 . S
C1000 C998 1.415 . S
C1000 C1005 1.425 . S
C1000 C1007 1.409 . S
C1001 H993 0.930 . S
C1001 C999 1.419 . S
C1001 C1002 1.362 . S
C1002 H994 0.930 . S
C1002 C1001 1.362 . S
C1002 C1005 1.409 . S
C1003 H995 0.930 . S
C1003 C1004 1.355 . S
C1003 C1005 1.415 . S
C1004 C1003 1.355 . S
C1004 C1006 1.419 . S
C1005 C1000 1.425 . S
C1005 C1002 1.409 . S
C1005 C1003 1.415 . S
C1006 H996 0.930 . S
C1006 C1004 1.419 . S
C1006 C1007 1.362 . S
C1007 H997 0.930 . S
C1007 C1000 1.409 . S
C1007 C1006 1.362 . S
H1008 C1014 0.930 . S
H1009 C1017 0.930 . S
H1010 C1018 0.930 . S
H1011 C1019 0.930 . S
H1012 C1022 0.930 . S
H1013 C1023 0.930 . S
C1014 H1008 0.930 . S
C1014 C1015 1.355 . S
C1014 C1016 1.415 . S
C1015 C1014 1.355 . S
C1015 C1017 1.419 1_565 S
C1016 C1014 1.415 . S
C1016 C1021 1.425 1_565 S
C1016 C1023 1.409 . S
C1017 H1009 0.930 . S
C1017 C1015 1.419 1_545 S
C1017 C1018 1.362 . S
C1018 H1010 0.930 . S
C1018 C1017 1.362 . S
C1018 C1021 1.409 . S
C1019 H1011 0.930 . S
C1019 C1020 1.355 . S
C1019 C1021 1.415 . S
C1020 C1019 1.355 . S
C1020 C1022 1.419 1_545 S
C1021 C1016 1.425 1_545 S
C1021 C1018 1.409 . S
C1021 C1019 1.415 . S
C1022 H1012 0.930 . S
C1022 C1020 1.419 1_565 S
C1022 C1023 1.362 . S
C1023 H1013 0.930 . S
C1023 C1016 1.409 . S
C1023 C1022 1.362 . S
H1024 C1030 0.930 . S
H1025 C1033 0.930 . S
H1026 C1034 0.930 . S
H1027 C1035 0.930 . S
H1028 C1038 0.930 . S
H1029 C1039 0.930 . S
C1030 H1024 0.930 . S
C1030 C1031 1.355 . S
C1030 C1032 1.415 . S
C1031 C1030 1.355 . S
C1031 C1033 1.419 . S
C1032 C1030 1.415 . S
C1032 C1037 1.425 . S
C1032 C1039 1.409 . S
C1033 H1025 0.930 . S
C1033 C1031 1.419 . S
C1033 C1034 1.362 . S
C1034 H1026 0.930 . S
C1034 C1033 1.362 . S
C1034 C1037 1.409 . S
C1035 H1027 0.930 . S
C1035 C1036 1.355 . S
C1035 C1037 1.415 . S
C1036 C1035 1.355 . S
C1036 C1038 1.419 . S
C1037 C1032 1.425 . S
C1037 C1034 1.409 . S
C1037 C1035 1.415 . S
C1038 H1028 0.930 . S
C1038 C1036 1.419 . S
C1038 C1039 1.362 . S
C1039 H1029 0.930 . S
C1039 C1032 1.409 . S
C1039 C1038 1.362 . S
H1040 C1046 0.930 . S
H1041 C1049 0.930 . S
H1042 C1050 0.930 1_554 S
H1043 C1051 0.930 . S
H1044 C1054 0.930 . S
H1045 C1055 0.930 1_556 S
C1046 H1040 0.930 . S
C1046 C1047 1.355 1_665 S
C1046 C1048 1.415 . S
C1047 C1046 1.355 1_445 S
C1047 C1049 1.419 . S
C1048 C1046 1.415 . S
C1048 C1053 1.425 1_666 S
C1048 C1055 1.409 1_556 S
C1049 H1041 0.930 . S
C1049 C1047 1.419 . S
C1049 C1050 1.362 . S
C1050 H1042 0.930 1_556 S
C1050 C1049 1.362 . S
C1050 C1053 1.409 1_556 S
C1051 H1043 0.930 . S
C1051 C1052 1.355 1_445 S
C1051 C1053 1.415 . S
C1052 C1051 1.355 1_665 S
C1052 C1054 1.419 . S
C1053 C1048 1.425 1_444 S
C1053 C1050 1.409 1_554 S
C1053 C1051 1.415 . S
C1054 H1044 0.930 . S
C1054 C1052 1.419 . S
C1054 C1055 1.362 . S
C1055 H1045 0.930 1_554 S
C1055 C1048 1.409 1_554 S
C1055 C1054 1.362 . S
H1056 C1062 0.930 . S
H1057 C1065 0.930 . S
H1058 C1066 0.930 . S
H1059 C1067 0.930 . S
H1060 C1070 0.930 . S
H1061 C1071 0.930 . S
C1062 H1056 0.930 . S
C1062 C1063 1.355 . S
C1062 C1064 1.415 . S
C1063 C1062 1.355 . S
C1063 C1065 1.419 . S
C1064 C1062 1.415 . S
C1064 C1069 1.425 . S
C1064 C1071 1.409 . S
C1065 H1057 0.930 . S
C1065 C1063 1.419 . S
C1065 C1066 1.362 . S
C1066 H1058 0.930 . S
C1066 C1065 1.362 . S
C1066 C1069 1.409 . S
C1067 H1059 0.930 . S
C1067 C1068 1.355 . S
C1067 C1069 1.415 . S
C1068 C1067 1.355 . S
C1068 C1070 1.419 . S
C1069 C1064 1.425 . S
C1069 C1066 1.409 . S
C1069 C1067 1.415 . S
C1070 H1060 0.930 . S
C1070 C1068 1.419 . S
C1070 C1071 1.362 . S
C1071 H1061 0.930 . S
C1071 C1064 1.409 . S
C1071 C1070 1.362 . S
H1072 C1078 0.930 . S
H1073 C1081 0.930 . S
H1074 C1082 0.930 . S
H1075 C1083 0.930 . S
H1076 C1086 0.930 . S
H1077 C1087 0.930 . S
C1078 H1072 0.930 . S
C1078 C1079 1.355 . S
C1078 C1080 1.415 . S
C1079 C1078 1.355 . S
C1079 C1081 1.419 . S
C1080 C1078 1.415 . S
C1080 C1085 1.425 . S
C1080 C1087 1.409 . S
C1081 H1073 0.930 . S
C1081 C1079 1.419 . S
C1081 C1082 1.362 . S
C1082 H1074 0.930 . S
C1082 C1081 1.362 . S
C1082 C1085 1.409 . S
C1083 H1075 0.930 . S
C1083 C1084 1.355 . S
C1083 C1085 1.415 . S
C1084 C1083 1.355 . S
C1084 C1086 1.419 . S
C1085 C1080 1.425 . S
C1085 C1082 1.409 . S
C1085 C1083 1.415 . S
C1086 H1076 0.930 . S
C1086 C1084 1.419 . S
C1086 C1087 1.362 . S
C1087 H1077 0.930 . S
C1087 C1080 1.409 . S
C1087 C1086 1.362 . S
H1088 C1094 0.930 . S
H1089 C1097 0.930 . S
H1090 C1098 0.930 . S
H1091 C1099 0.930 . S
H1092 C1102 0.930 . S
H1093 C1103 0.930 . S
C1094 H1088 0.930 . S
C1094 C1095 1.355 . S
C1094 C1096 1.415 . S
C1095 C1094 1.355 . S
C1095 C1097 1.419 . S
C1096 C1094 1.415 . S
C1096 C1101 1.425 . S
C1096 C1103 1.409 . S
C1097 H1089 0.930 . S
C1097 C1095 1.419 . S
C1097 C1098 1.362 . S
C1098 H1090 0.930 . S
C1098 C1097 1.362 . S
C1098 C1101 1.409 . S
C1099 H1091 0.930 . S
C1099 C1100 1.355 . S
C1099 C1101 1.415 . S
C1100 C1099 1.355 . S
C1100 C1102 1.419 . S
C1101 C1096 1.425 . S
C1101 C1098 1.409 . S
C1101 C1099 1.415 . S
C1102 H1092 0.930 . S
C1102 C1100 1.419 . S
C1102 C1103 1.362 . S
C1103 H1093 0.930 . S
C1103 C1096 1.409 . S
C1103 C1102 1.362 . S
H1104 C1110 0.930 . S
H1105 C1113 0.930 . S
H1106 C1114 0.930 . S
H1107 C1115 0.930 . S
H1108 C1118 0.930 . S
H1109 C1119 0.930 . S
C1110 H1104 0.930 . S
C1110 C1111 1.355 . S
C1110 C1112 1.415 . S
C1111 C1110 1.355 . S
C1111 C1113 1.419 . S
C1112 C1110 1.415 . S
C1112 C1117 1.425 . S
C1112 C1119 1.409 . S
C1113 H1105 0.930 . S
C1113 C1111 1.419 . S
C1113 C1114 1.362 . S
C1114 H1106 0.930 . S
C1114 C1113 1.362 . S
C1114 C1117 1.409 . S
C1115 H1107 0.930 . S
C1115 C1116 1.355 . S
C1115 C1117 1.415 . S
C1116 C1115 1.355 . S
C1116 C1118 1.419 . S
C1117 C1112 1.425 . S
C1117 C1114 1.409 . S
C1117 C1115 1.415 . S
C1118 H1108 0.930 . S
C1118 C1116 1.419 . S
C1118 C1119 1.362 . S
C1119 H1109 0.930 . S
C1119 C1112 1.409 . S
C1119 C1118 1.362 . S
H1120 C1126 0.930 . S
H1121 C1129 0.930 . S
H1122 C1130 0.930 . S
H1123 C1131 0.930 . S
H1124 C1134 0.930 . S
H1125 C1135 0.930 . S
C1126 H1120 0.930 . S
C1126 C1127 1.355 . S
C1126 C1128 1.425 . S
C1127 C1126 1.355 . S
C1127 C1129 1.419 . S
C1128 C1126 1.425 . S
C1128 C1133 1.425 1_554 S
C1128 C1135 1.399 1_554 S
C1129 H1121 0.930 . S
C1129 C1127 1.419 . S
C1129 C1130 1.362 . S
C1130 H1122 0.930 . S
C1130 C1129 1.362 . S
C1130 C1133 1.399 1_554 S
C1131 H1123 0.930 . S
C1131 C1132 1.355 . S
C1131 C1133 1.425 . S
C1132 C1131 1.355 . S
C1132 C1134 1.419 . S
C1133 C1128 1.425 1_556 S
C1133 C1130 1.399 1_556 S
C1133 C1131 1.425 . S
C1134 H1124 0.930 . S
C1134 C1132 1.419 . S
C1134 C1135 1.362 . S
C1135 H1125 0.930 . S
C1135 C1128 1.399 1_556 S
C1135 C1134 1.362 . S
H1136 C1142 0.930 1_655 S
H1137 C1145 0.930 . S
H1138 C1146 0.930 . S
H1139 C1147 0.930 1_455 S
H1140 C1150 0.930 . S
H1141 C1151 0.930 . S
C1142 H1136 0.930 1_455 S
C1142 C1143 1.355 . S
C1142 C1144 1.415 1_455 S
C1143 C1142 1.355 . S
C1143 C1145 1.419 . S
C1144 C1142 1.415 1_655 S
C1144 C1149 1.425 1_655 S
C1144 C1151 1.409 . S
C1145 H1137 0.930 . S
C1145 C1143 1.419 . S
C1145 C1146 1.362 . S
C1146 H1138 0.930 . S
C1146 C1145 1.362 . S
C1146 C1149 1.409 . S
C1147 H1139 0.930 1_655 S
C1147 C1148 1.355 . S
C1147 C1149 1.415 1_655 S
C1148 C1147 1.355 . S
C1148 C1150 1.419 . S
C1149 C1144 1.425 1_455 S
C1149 C1146 1.409 . S
C1149 C1147 1.415 1_455 S
C1150 H1140 0.930 . S
C1150 C1148 1.419 . S
C1150 C1151 1.362 . S
C1151 H1141 0.930 . S
C1151 C1144 1.409 . S
C1151 C1150 1.362 . S
H1152 C1158 0.930 . S
H1153 C1161 0.930 . S
H1154 C1162 0.930 . S
H1155 C1163 0.930 . S
H1156 C1166 0.930 . S
H1157 C1167 0.930 . S
C1158 H1152 0.930 . S
C1158 C1159 1.355 . S
C1158 C1160 1.415 . S
C1159 C1158 1.355 . S
C1159 C1161 1.419 1_455 S
C1160 C1158 1.415 . S
C1160 C1165 1.425 1_454 S
C1160 C1167 1.409 1_554 S
C1161 H1153 0.930 . S
C1161 C1159 1.419 1_655 S
C1161 C1162 1.362 . S
C1162 H1154 0.930 . S
C1162 C1161 1.362 . S
C1162 C1165 1.409 1_554 S
C1163 H1155 0.930 . S
C1163 C1164 1.355 . S
C1163 C1165 1.415 . S
C1164 C1163 1.355 . S
C1164 C1166 1.419 1_655 S
C1165 C1160 1.425 1_656 S
C1165 C1162 1.409 1_556 S
C1165 C1163 1.415 . S
C1166 H1156 0.930 . S
C1166 C1164 1.419 1_455 S
C1166 C1167 1.362 . S
C1167 H1157 0.930 . S
C1167 C1160 1.409 1_556 S
C1167 C1166 1.362 . S
H1168 C1174 0.930 . S
H1169 C1177 0.930 . S
H1170 C1178 0.930 . S
H1171 C1179 0.930 . S
H1172 C1182 0.930 . S
H1173 C1183 0.930 . S
C1174 H1168 0.930 . S
C1174 C1175 1.355 . S
C1174 C1176 1.415 . S
C1175 C1174 1.355 . S
C1175 C1177 1.419 . S
C1176 C1174 1.415 . S
C1176 C1181 1.425 . S
C1176 C1183 1.409 . S
C1177 H1169 0.930 . S
C1177 C1175 1.419 . S
C1177 C1178 1.362 . S
C1178 H1170 0.930 . S
C1178 C1177 1.362 . S
C1178 C1181 1.409 . S
C1179 H1171 0.930 . S
C1179 C1180 1.355 . S
C1179 C1181 1.415 . S
C1180 C1179 1.355 . S
C1180 C1182 1.419 . S
C1181 C1176 1.425 . S
C1181 C1178 1.409 . S
C1181 C1179 1.415 . S
C1182 H1172 0.930 . S
C1182 C1180 1.419 . S
C1182 C1183 1.362 . S
C1183 H1173 0.930 . S
C1183 C1176 1.409 . S
C1183 C1182 1.362 . S
H1184 C1190 0.930 . S
H1185 C1193 0.930 . S
H1186 C1194 0.930 . S
H1187 C1195 0.930 . S
H1188 C1198 0.930 . S
H1189 C1199 0.930 . S
C1190 H1184 0.930 . S
C1190 C1191 1.355 . S
C1190 C1192 1.415 . S
C1191 C1190 1.355 . S
C1191 C1193 1.419 . S
C1192 C1190 1.415 . S
C1192 C1197 1.425 . S
C1192 C1199 1.409 . S
C1193 H1185 0.930 . S
C1193 C1191 1.419 . S
C1193 C1194 1.362 . S
C1194 H1186 0.930 . S
C1194 C1193 1.362 . S
C1194 C1197 1.409 . S
C1195 H1187 0.930 . S
C1195 C1196 1.355 . S
C1195 C1197 1.415 . S
C1196 C1195 1.355 . S
C1196 C1198 1.419 . S
C1197 C1192 1.425 . S
C1197 C1194 1.409 . S
C1197 C1195 1.415 . S
C1198 H1188 0.930 . S
C1198 C1196 1.419 . S
C1198 C1199 1.362 . S
C1199 H1189 0.930 . S
C1199 C1192 1.409 . S
C1199 C1198 1.362 . S
H1200 C1206 0.930 . S
H1201 C1209 0.930 . S
H1202 C1210 0.930 . S
H1203 C1211 0.930 . S
H1204 C1214 0.930 . S
H1205 C1215 0.930 . S
C1206 H1200 0.930 . S
C1206 C1207 1.355 . S
C1206 C1208 1.415 . S
C1207 C1206 1.355 . S
C1207 C1209 1.419 . S
C1208 C1206 1.415 . S
C1208 C1213 1.425 . S
C1208 C1215 1.409 . S
C1209 H1201 0.930 . S
C1209 C1207 1.419 . S
C1209 C1210 1.362 . S
C1210 H1202 0.930 . S
C1210 C1209 1.362 . S
C1210 C1213 1.409 . S
C1211 H1203 0.930 . S
C1211 C1212 1.355 . S
C1211 C1213 1.415 . S
C1212 C1211 1.355 . S
C1212 C1214 1.419 . S
C1213 C1208 1.425 . S
C1213 C1210 1.409 . S
C1213 C1211 1.415 . S
C1214 H1204 0.930 . S
C1214 C1212 1.419 . S
C1214 C1215 1.362 . S
C1215 H1205 0.930 . S
C1215 C1208 1.409 . S
C1215 C1214 1.362 . S
H1216 C1222 0.930 . S
H1217 C1225 0.930 . S
H1218 C1226 0.930 . S
H1219 C1227 0.930 . S
H1220 C1230 0.930 . S
H1221 C1231 0.930 . S
C1222 H1216 0.930 . S
C1222 C1223 1.355 . S
C1222 C1224 1.415 . S
C1223 C1222 1.355 . S
C1223 C1225 1.419 . S
C1224 C1222 1.415 . S
C1224 C1229 1.425 . S
C1224 C1231 1.409 . S
C1225 H1217 0.930 . S
C1225 C1223 1.419 . S
C1225 C1226 1.362 . S
C1226 H1218 0.930 . S
C1226 C1225 1.362 . S
C1226 C1229 1.409 . S
C1227 H1219 0.930 . S
C1227 C1228 1.355 . S
C1227 C1229 1.415 . S
C1228 C1227 1.355 . S
C1228 C1230 1.419 . S
C1229 C1224 1.425 . S
C1229 C1226 1.409 . S
C1229 C1227 1.415 . S
C1230 H1220 0.930 . S
C1230 C1228 1.419 . S
C1230 C1231 1.362 . S
C1231 H1221 0.930 . S
C1231 C1224 1.409 . S
C1231 C1230 1.362 . S
H1232 C1238 0.930 . S
H1233 C1241 0.930 . S
H1234 C1242 0.930 . S
H1235 C1243 0.930 . S
H1236 C1246 0.930 . S
H1237 C1247 0.930 . S
C1238 H1232 0.930 . S
C1238 C1239 1.355 . S
C1238 C1240 1.415 . S
C1239 C1238 1.355 . S
C1239 C1241 1.419 . S
C1240 C1238 1.415 . S
C1240 C1245 1.425 . S
C1240 C1247 1.409 . S
C1241 H1233 0.930 . S
C1241 C1239 1.419 . S
C1241 C1242 1.362 . S
C1242 H1234 0.930 . S
C1242 C1241 1.362 . S
C1242 C1245 1.409 . S
C1243 H1235 0.930 . S
C1243 C1244 1.355 . S
C1243 C1245 1.415 . S
C1244 C1243 1.355 . S
C1244 C1246 1.419 . S
C1245 C1240 1.425 . S
C1245 C1242 1.409 . S
C1245 C1243 1.415 . S
C1246 H1236 0.930 . S
C1246 C1244 1.419 . S
C1246 C1247 1.362 . S
C1247 H1237 0.930 . S
C1247 C1240 1.409 . S
C1247 C1246 1.362 . S
H1248 C1254 0.930 . S
H1249 C1257 0.930 . S
H1250 C1258 0.930 . S
H1251 C1259 0.930 . S
H1252 C1262 0.930 . S
H1253 C1263 0.930 . S
C1254 H1248 0.930 . S
C1254 C1255 1.355 . S
C1254 C1256 1.415 . S
C1255 C1254 1.355 . S
C1255 C1257 1.419 . S
C1256 C1254 1.415 . S
C1256 C1261 1.425 . S
C1256 C1263 1.409 . S
C1257 H1249 0.930 . S
C1257 C1255 1.419 . S
C1257 C1258 1.362 . S
C1258 H1250 0.930 . S
C1258 C1257 1.362 . S
C1258 C1261 1.409 . S
C1259 H1251 0.930 . S
C1259 C1260 1.355 . S
C1259 C1261 1.415 . S
C1260 C1259 1.355 . S
C1260 C1262 1.419 . S
C1261 C1256 1.425 . S
C1261 C1258 1.409 . S
C1261 C1259 1.415 . S
C1262 H1252 0.930 . S
C1262 C1260 1.419 . S
C1262 C1263 1.362 . S
C1263 H1253 0.930 . S
C1263 C1256 1.409 . S
C1263 C1262 1.362 . S
H1264 C1270 0.930 . S
H1265 C1273 0.930 . S
H1266 C1274 0.930 . S
H1267 C1275 0.930 . S
H1268 C1278 0.930 . S
H1269 C1279 0.930 . S
C1270 H1264 0.930 . S
C1270 C1271 1.355 . S
C1270 C1272 1.415 . S
C1271 C1270 1.355 . S
C1271 C1273 1.419 . S
C1272 C1270 1.415 . S
C1272 C1277 1.425 . S
C1272 C1279 1.409 . S
C1273 H1265 0.930 . S
C1273 C1271 1.419 . S
C1273 C1274 1.362 . S
C1274 H1266 0.930 . S
C1274 C1273 1.362 . S
C1274 C1277 1.409 . S
C1275 H1267 0.930 . S
C1275 C1276 1.355 . S
C1275 C1277 1.415 . S
C1276 C1275 1.355 . S
C1276 C1278 1.419 . S
C1277 C1272 1.425 . S
C1277 C1274 1.409 . S
C1277 C1275 1.415 . S
C1278 H1268 0.930 . S
C1278 C1276 1.419 . S
C1278 C1279 1.362 . S
C1279 H1269 0.930 . S
C1279 C1272 1.409 . S
C1279 C1278 1.362 . S
H1280 C1286 0.930 . S
H1281 C1289 0.930 . S
H1282 C1290 0.930 . S
H1283 C1291 0.930 . S
H1284 C1294 0.930 . S
H1285 C1295 0.930 . S
C1286 H1280 0.930 . S
C1286 C1287 1.355 . S
C1286 C1288 1.415 . S
C1287 C1286 1.355 . S
C1287 C1289 1.419 . S
C1288 C1286 1.415 . S
C1288 C1293 1.425 . S
C1288 C1295 1.409 . S
C1289 H1281 0.930 . S
C1289 C1287 1.419 . S
C1289 C1290 1.362 . S
C1290 H1282 0.930 . S
C1290 C1289 1.362 . S
C1290 C1293 1.409 . S
C1291 H1283 0.930 . S
C1291 C1292 1.355 . S
C1291 C1293 1.415 . S
C1292 C1291 1.355 . S
C1292 C1294 1.419 . S
C1293 C1288 1.425 . S
C1293 C1290 1.409 . S
C1293 C1291 1.415 . S
C1294 H1284 0.930 . S
C1294 C1292 1.419 . S
C1294 C1295 1.362 . S
C1295 H1285 0.930 . S
C1295 C1288 1.409 . S
C1295 C1294 1.362 . S
H1296 C1302 0.930 . S
H1297 C1305 0.930 . S
H1298 C1306 0.930 . S
H1299 C1307 0.930 . S
H1300 C1310 0.930 . S
H1301 C1311 0.930 . S
C1302 H1296 0.930 . S
C1302 C1303 1.355 . S
C1302 C1304 1.415 . S
C1303 C1302 1.355 . S
C1303 C1305 1.419 . S
C1304 C1302 1.415 . S
C1304 C1309 1.425 . S
C1304 C1311 1.409 . S
C1305 H1297 0.930 . S
C1305 C1303 1.419 . S
C1305 C1306 1.362 . S
C1306 H1298 0.930 . S
C1306 C1305 1.362 . S
C1306 C1309 1.409 . S
C1307 H1299 0.930 . S
C1307 C1308 1.355 . S
C1307 C1309 1.415 . S
C1308 C1307 1.355 . S
C1308 C1310 1.419 . S
C1309 C1304 1.425 . S
C1309 C1306 1.409 . S
C1309 C1307 1.415 . S
C1310 H1300 0.930 . S
C1310 C1308 1.419 . S
C1310 C1311 1.362 . S
C1311 H1301 0.930 . S
C1311 C1304 1.409 . S
C1311 C1310 1.362 . S
H1312 C1318 0.930 . S
H1313 C1321 0.930 . S
H1314 C1322 0.930 . S
H1315 C1323 0.930 . S
H1316 C1326 0.930 . S
H1317 C1327 0.930 . S
C1318 H1312 0.930 . S
C1318 C1319 1.355 . S
C1318 C1320 1.415 . S
C1319 C1318 1.355 . S
C1319 C1321 1.419 . S
C1320 C1318 1.415 . S
C1320 C1325 1.425 . S
C1320 C1327 1.409 . S
C1321 H1313 0.930 . S
C1321 C1319 1.419 . S
C1321 C1322 1.362 . S
C1322 H1314 0.930 . S
C1322 C1321 1.362 . S
C1322 C1325 1.409 . S
C1323 H1315 0.930 . S
C1323 C1324 1.355 . S
C1323 C1325 1.415 . S
C1324 C1323 1.355 . S
C1324 C1326 1.419 . S
C1325 C1320 1.425 . S
C1325 C1322 1.409 . S
C1325 C1323 1.415 . S
C1326 H1316 0.930 . S
C1326 C1324 1.419 . S
C1326 C1327 1.362 . S
C1327 H1317 0.930 . S
C1327 C1320 1.409 . S
C1327 C1326 1.362 . S
H1328 C1334 0.930 . S
H1329 C1337 0.930 . S
H1330 C1338 0.930 . S
H1331 C1339 0.930 . S
H1332 C1342 0.930 . S
H1333 C1343 0.930 . S
C1334 H1328 0.930 . S
C1334 C1335 1.355 . S
C1334 C1336 1.415 . S
C1335 C1334 1.355 . S
C1335 C1337 1.419 . S
C1336 C1334 1.415 . S
C1336 C1341 1.425 . S
C1336 C1343 1.409 . S
C1337 H1329 0.930 . S
C1337 C1335 1.419 . S
C1337 C1338 1.362 . S
C1338 H1330 0.930 . S
C1338 C1337 1.362 . S
C1338 C1341 1.409 . S
C1339 H1331 0.930 . S
C1339 C1340 1.355 . S
C1339 C1341 1.415 . S
C1340 C1339 1.355 . S
C1340 C1342 1.419 . S
C1341 C1336 1.425 . S
C1341 C1338 1.409 . S
C1341 C1339 1.415 . S
C1342 H1332 0.930 . S
C1342 C1340 1.419 . S
C1342 C1343 1.362 . S
C1343 H1333 0.930 . S
C1343 C1336 1.409 . S
C1343 C1342 1.362 . S
H1344 C1350 0.930 . S
H1345 C1353 0.930 . S
H1346 C1354 0.930 . S
H1347 C1355 0.930 . S
H1348 C1358 0.930 . S
H1349 C1359 0.930 . S
C1350 H1344 0.930 . S
C1350 C1351 1.355 . S
C1350 C1352 1.415 . S
C1351 C1350 1.355 . S
C1351 C1353 1.419 . S
C1352 C1350 1.415 . S
C1352 C1357 1.425 . S
C1352 C1359 1.409 . S
C1353 H1345 0.930 . S
C1353 C1351 1.419 . S
C1353 C1354 1.362 . S
C1354 H1346 0.930 . S
C1354 C1353 1.362 . S
C1354 C1357 1.409 . S
C1355 H1347 0.930 . S
C1355 C1356 1.355 . S
C1355 C1357 1.415 . S
C1356 C1355 1.355 . S
C1356 C1358 1.419 . S
C1357 C1352 1.425 . S
C1357 C1354 1.409 . S
C1357 C1355 1.415 . S
C1358 H1348 0.930 . S
C1358 C1356 1.419 . S
C1358 C1359 1.362 . S
C1359 H1349 0.930 . S
C1359 C1352 1.409 . S
C1359 C1358 1.362 . S
H1360 C1366 0.930 . S
H1361 C1369 0.930 . S
H1362 C1370 0.930 . S
H1363 C1371 0.930 . S
H1364 C1374 0.930 . S
H1365 C1375 0.930 . S
C1366 H1360 0.930 . S
C1366 C1367 1.355 . S
C1366 C1368 1.415 . S
C1367 C1366 1.355 . S
C1367 C1369 1.419 . S
C1368 C1366 1.415 . S
C1368 C1373 1.425 . S
C1368 C1375 1.409 . S
C1369 H1361 0.930 . S
C1369 C1367 1.419 . S
C1369 C1370 1.362 . S
C1370 H1362 0.930 . S
C1370 C1369 1.362 . S
C1370 C1373 1.409 . S
C1371 H1363 0.930 . S
C1371 C1372 1.355 . S
C1371 C1373 1.415 . S
C1372 C1371 1.355 . S
C1372 C1374 1.419 . S
C1373 C1368 1.425 . S
C1373 C1370 1.409 . S
C1373 C1371 1.415 . S
C1374 H1364 0.930 . S
C1374 C1372 1.419 . S
C1374 C1375 1.362 . S
C1375 H1365 0.930 . S
C1375 C1368 1.409 . S
C1375 C1374 1.362 . S
H1376 C1382 0.930 . S
H1377 C1385 0.930 . S
H1378 C1386 0.930 . S
H1379 C1387 0.930 . S
H1380 C1390 0.930 . S
H1381 C1391 0.930 . S
C1382 H1376 0.930 . S
C1382 C1383 1.355 . S
C1382 C1384 1.415 . S
C1383 C1382 1.355 . S
C1383 C1385 1.419 . S
C1384 C1382 1.415 . S
C1384 C1389 1.425 . S
C1384 C1391 1.409 . S
C1385 H1377 0.930 . S
C1385 C1383 1.419 . S
C1385 C1386 1.362 . S
C1386 H1378 0.930 . S
C1386 C1385 1.362 . S
C1386 C1389 1.409 . S
C1387 H1379 0.930 . S
C1387 C1388 1.355 . S
C1387 C1389 1.415 . S
C1388 C1387 1.355 . S
C1388 C1390 1.419 . S
C1389 C1384 1.425 . S
C1389 C1386 1.409 . S
C1389 C1387 1.415 . S
C1390 H1380 0.930 . S
C1390 C1388 1.419 . S
C1390 C1391 1.362 . S
C1391 H1381 0.930 . S
C1391 C1384 1.409 . S
C1391 C1390 1.362 . S
H1392 C1398 0.930 . S
H1393 C1401 0.930 . S
H1394 C1402 0.930 . S
H1395 C1403 0.930 . S
H1396 C1406 0.930 . S
H1397 C1407 0.930 . S
C1398 H1392 0.930 . S
C1398 C1399 1.355 . S
C1398 C1400 1.415 . S
C1399 C1398 1.355 . S
C1399 C1401 1.419 . S
C1400 C1398 1.415 . S
C1400 C1405 1.425 . S
C1400 C1407 1.409 . S
C1401 H1393 0.930 . S
C1401 C1399 1.419 . S
C1401 C1402 1.362 . S
C1402 H1394 0.930 . S
C1402 C1401 1.362 . S
C1402 C1405 1.409 . S
C1403 H1395 0.930 . S
C1403 C1404 1.355 . S
C1403 C1405 1.415 . S
C1404 C1403 1.355 . S
C1404 C1406 1.419 . S
C1405 C1400 1.425 . S
C1405 C1402 1.409 . S
C1405 C1403 1.415 . S
C1406 H1396 0.930 . S
C1406 C1404 1.419 . S
C1406 C1407 1.362 . S
C1407 H1397 0.930 . S
C1407 C1400 1.409 . S
C1407 C1406 1.362 . S
H1408 C1414 0.930 . S
H1409 C1417 0.930 . S
H1410 C1418 0.930 . S
H1411 C1419 0.930 . S
H1412 C1422 0.930 . S
H1413 C1423 0.930 . S
C1414 H1408 0.930 . S
C1414 C1415 1.355 . S
C1414 C1416 1.415 . S
C1415 C1414 1.355 . S
C1415 C1417 1.419 . S
C1416 C1414 1.415 . S
C1416 C1421 1.425 . S
C1416 C1423 1.409 . S
C1417 H1409 0.930 . S
C1417 C1415 1.419 . S
C1417 C1418 1.362 . S
C1418 H1410 0.930 . S
C1418 C1417 1.362 . S
C1418 C1421 1.409 . S
C1419 H1411 0.930 . S
C1419 C1420 1.355 . S
C1419 C1421 1.415 . S
C1420 C1419 1.355 . S
C1420 C1422 1.419 . S
C1421 C1416 1.425 . S
C1421 C1418 1.409 . S
C1421 C1419 1.415 . S
C1422 H1412 0.930 . S
C1422 C1420 1.419 . S
C1422 C1423 1.362 . S
C1423 H1413 0.930 . S
C1423 C1416 1.409 . S
C1423 C1422 1.362 . S
H1424 C1430 0.930 . S
H1425 C1433 0.930 . S
H1426 C1434 0.930 . S
H1427 C1435 0.930 . S
H1428 C1438 0.930 . S
H1429 C1439 0.930 . S
C1430 H1424 0.930 . S
C1430 C1431 1.355 . S
C1430 C1432 1.415 . S
C1431 C1430 1.355 . S
C1431 C1433 1.419 . S
C1432 C1430 1.415 . S
C1432 C1437 1.425 . S
C1432 C1439 1.409 . S
C1433 H1425 0.930 . S
C1433 C1431 1.419 . S
C1433 C1434 1.362 . S
C1434 H1426 0.930 . S
C1434 C1433 1.362 . S
C1434 C1437 1.409 . S
C1435 H1427 0.930 . S
C1435 C1436 1.355 . S
C1435 C1437 1.415 . S
C1436 C1435 1.355 . S
C1436 C1438 1.419 . S
C1437 C1432 1.425 . S
C1437 C1434 1.409 . S
C1437 C1435 1.415 . S
C1438 H1428 0.930 . S
C1438 C1436 1.419 . S
C1438 C1439 1.362 . S
C1439 H1429 0.930 . S
C1439 C1432 1.409 . S
C1439 C1438 1.362 . S
C423 C359 1.385 . S
C428 C5 1.336 . S
C439 C18 1.364 . S
C444 C112 1.359 . S
C455 C333 1.386 . S
C460 C31 1.333 . S
C471 C44 1.315 . S
C476 C138 1.387 . S
C487 C57 1.296 . S
C492 C385 1.406 . S
C503 C70 1.313 . S
C508 C190 1.388 . S
C519 C83 1.367 . S
C524 C411 1.364 . S
C535 C96 1.322 . S
C540 C164 1.393 . S
C551 C255 1.413 . S
C556 C109 1.280 . S
C567 C8 1.411 . S
C572 C122 1.279 . S
C583 C229 1.361 . S
C588 C135 1.361 . S
C599 C148 1.290 . S
C604 C34 1.403 . S
C615 C281 1.356 . S
C620 C161 1.377 . S
C631 C86 1.355 . S
C636 C174 1.374 . S
C647 C187 1.297 . S
C652 C307 1.398 . S
C663 C60 1.377 . S
C668 C200 1.332 . S
C679 C213 1.286 . S
C684 C151 1.411 . S
C695 C226 1.305 . S
C700 C320 1.402 . S
C711 C125 1.386 . S
C716 C239 1.333 . S
C727 C346 1.376 . S
C732 C252 1.350 . S
C743 C177 1.399 . S
C748 C265 1.296 . S
C759 C398 1.405 . S
C764 C278 1.300 . S
C775 C203 1.355 . S
C780 C291 1.375 . S
C791 C304 1.329 . S
C796 C372 1.379 . S
C807 C47 1.367 . S
C812 C317 1.349 . S
C823 C330 1.343 . S
C828 C216 1.370 . S
C839 C343 1.311 . S
C844 C21 1.389 . S
C855 C356 1.280 . S
C860 C242 1.413 . S
C871 C369 1.286 . S
C876 C73 1.411 . S
C887 C382 1.362 . S
C892 C294 1.361 . S
C903 C395 1.282 . S
C908 C99 1.412 . S
C919 C408 1.364 . S
C924 C268 1.360 . S
C935 C322 1.485 . S
C940 C10 1.485 . S
C951 C23 1.484 . S
C956 C127 1.484 . S
C967 C348 1.504 . S
C972 C36 1.504 . S
C983 C49 1.500 . S
C988 C153 1.500 . S
C999 C374 1.492 . S
C1004 C62 1.492 . S
C1015 C75 1.502 . S
C1020 C179 1.502 . S
C1031 C400 1.505 . S
C1036 C88 1.505 . S
C1047 C101 1.483 . S
C1052 C205 1.483 . S
C1063 C114 1.488 . S
C1068 C218 1.488 . S
C1079 C140 1.508 . S
C1084 C244 1.508 . S
C1095 C166 1.483 . S
C1100 C270 1.483 . S
C1111 C192 1.482 . S
C1116 C296 1.482 . S
C1127 C231 1.508 . S
C1132 C335 1.508 . S
C1143 C361 1.484 . S
C1148 C257 1.484 . S
C1159 C387 1.487 . S
C1164 C283 1.487 . S
C1175 C309 1.482 . S
C1180 C413 1.482 . S
C1191 C0 1.140 . S
C1196 C65 1.130 . S
C1207 C13 1.114 . S
C1212 C78 1.126 . S
C1223 C26 1.087 . S
C1228 C91 1.101 . S
C1239 C52 1.061 . S
C1244 C39 1.072 . S
C1255 C104 1.099 . S
C1260 C169 1.112 . S
C1271 C117 1.070 . S
C1276 C182 1.059 . S
C1287 C130 1.045 . S
C1292 C195 1.051 . S
C1303 C143 1.084 . S
C1308 C156 1.098 . S
C1319 C208 1.086 . S
C1324 C273 1.073 . S
C1335 C286 1.072 . S
C1340 C221 1.085 . S
C1351 C234 1.143 . S
C1356 C299 1.135 . S
C1367 C247 1.069 . S
C1372 C260 1.058 . S
C1383 C377 1.104 . S
C1388 C312 1.090 . S
C1399 C325 1.057 . S
C1404 C390 1.068 . S
C1415 C403 1.151 . S
C1420 C338 1.150 . S
C1431 C351 1.149 . S
C1436 C364 1.144 . S
