# Generated by pormake.
# Topology dmp, (4)-cn, num edge types: 1
# Building blocks:
#     Node 0, Type 0, BuildingBlock: NAHDIM_clean_sbu_0, # of connection points: 4
#     Node 1, Type 0, BuildingBlock: NAHDIM_clean_sbu_0, # of connection points: 4
#     Node 2, Type 0, BuildingBlock: NAHDIM_clean_sbu_0, # of connection points: 4
#     Node 3, Type 0, BuildingBlock: NAHDIM_clean_sbu_0, # of connection points: 4
#     Edge 4, Type (0, 0), BuildingBlock: FUNLAD_clean_linker_1, # of connection points: 2
#     Edge 5, Type (0, 0), BuildingBlock: FUNLAD_clean_linker_1, # of connection points: 2
#     Edge 6, Type (0, 0), BuildingBlock: FUNLAD_clean_linker_1, # of connection points: 2
#     Edge 7, Type (0, 0), BuildingBlock: FUNLAD_clean_linker_1, # of connection points: 2
#     Edge 8, Type (0, 0), BuildingBlock: FUNLAD_clean_linker_1, # of connection points: 2
#     Edge 9, Type (0, 0), BuildingBlock: FUNLAD_clean_linker_1, # of connection points: 2
#     Edge 10, Type (0, 0), BuildingBlock: FUNLAD_clean_linker_1, # of connection points: 2
#     Edge 11, Type (0, 0), BuildingBlock: FUNLAD_clean_linker_1, # of connection points: 2
# Relax obj value: 0.248
# Max RMSD: 0.271
# Mean RMSD: 0.271
data_MOF--net-dmp--node1-NAHDIM_clean_sbu_0--edge1-FUNLAD_clean_linker_1
_symmetry_space_group_name_H-M    P1
_symmetry_Int_Tables_number       1
_symmetry_cell_setting            triclinic
loop_
_symmetry_equiv_pos_as_xyz
'x, y, z'
_cell_length_a     38.817636
_cell_length_b     17.995814
_cell_length_c     19.85603
_cell_angle_alpha  89.848155
_cell_angle_beta   89.966965
_cell_angle_gamma 94.926247
loop_
_atom_site_label
_atom_site_type_symbol
_atom_site_fract_x
_atom_site_fract_y
_atom_site_fract_z
_atom_type_partial_charge
C0 C 0.02952 0.30716 0.3107 0.0
O1 O 0.02017 0.30769 0.24721 0.0
O2 O 0.06328 0.18375 0.18608 0.0
Zn3 Zn 0.08935 0.2461 0.25623 0.0
O4 O 0.11393 0.33749 0.21493 0.0
C5 C 0.12367 0.11787 0.3032 0.0
O6 O 0.09604 0.07865 0.28061 0.0
O7 O 0.05762 0.28053 0.32698 0.0
C8 C 0.14248 0.33363 0.18459 0.0
O9 O 0.15485 0.26846 0.17687 0.0
C10 C 0.05669 0.20905 0.1281 0.0
O11 O 0.06658 0.27861 0.11282 0.0
O12 O 0.1257 0.18855 0.29914 0.0
C13 C 0.43792 0.69667 0.35752 0.0
O14 O 0.43302 0.67383 0.29518 0.0
O15 O 0.42519 0.86706 0.24327 0.0
Zn16 Zn 0.39573 0.80274 0.3075 0.0
O17 O 0.3684 0.72026 0.25827 0.0
C18 C 0.36606 0.93205 0.36536 0.0
O19 O 0.39758 0.96467 0.36211 0.0
O20 O 0.42489 0.75546 0.37671 0.0
C21 C 0.34288 0.73235 0.22118 0.0
O22 O 0.33481 0.80104 0.2117 0.0
C23 C 0.4315 0.84623 0.18385 0.0
O24 O 0.41963 0.7795 0.16351 0.0
O25 O 0.36043 0.86406 0.34855 0.0
C26 C 0.94695 0.62269 0.70617 0.0
O27 O 0.9561 0.62746 0.7697 0.0
O28 O 0.9243 0.78468 0.80691 0.0
Zn29 Zn 0.89409 0.7152 0.74864 0.0
O30 O 0.86428 0.6433 0.80501 0.0
C31 C 0.86346 0.84121 0.68452 0.0
O32 O 0.89151 0.88196 0.70325 0.0
O33 O 0.92177 0.65717 0.68537 0.0
C34 C 0.84268 0.66759 0.84586 0.0
O35 O 0.84259 0.73976 0.85521 0.0
C36 C 0.93336 0.76539 0.86546 0.0
O37 O 0.92359 0.69827 0.88801 0.0
O38 O 0.86045 0.77174 0.69673 0.0
C39 C 0.54398 0.26567 0.61234 0.0
O40 O 0.5307 0.19654 0.61957 0.0
O41 O 0.56838 0.14167 0.74413 0.0
Zn42 Zn 0.59982 0.218 0.69462 0.0
O43 O 0.62843 0.28056 0.76089 0.0
C44 C 0.6425 0.1048 0.65115 0.0
O45 O 0.62481 0.06561 0.69744 0.0
O46 O 0.57289 0.28618 0.63927 0.0
C47 C 0.65012 0.25161 0.79868 0.0
O48 O 0.65225 0.17927 0.79729 0.0
C49 C 0.55736 0.15748 0.80207 0.0
O50 O 0.56551 0.22412 0.82724 0.0
O51 O 0.6345 0.16999 0.63724 0.0
H52 H 0.34215 0.03619 0.38853 0.0
C53 C 0.33671 0.9773 0.37717 0.0
H54 H 0.2981 0.89073 0.35478 0.0
H55 H 0.17003 0.04875 0.45933 0.0
H56 H 0.17589 0.96015 0.55019 0.0
H57 H 0.22702 0.88796 0.5571 0.0
H58 H 0.27269 0.90414 0.47336 0.0
C59 C 0.30396 0.94959 0.36575 0.0
C60 C 0.27465 -0.0024 0.36432 0.0
C61 C 0.24815 0.98721 0.41342 0.0
C62 C 0.2185 0.02822 0.40906 0.0
C63 C 0.19272 0.0178 0.45948 0.0
C64 C 0.19586 0.96747 0.5121 0.0
C65 C 0.22467 0.92686 0.51602 0.0
C66 C 0.25063 0.93652 0.46752 0.0
H67 H 0.1523 0.01913 0.32196 0.0
C68 C 0.15365 0.07954 0.32605 0.0
H69 H 0.1852 0.17791 0.34852 0.0
H70 H 0.31952 0.02762 0.25838 0.0
H71 H 0.314 0.11762 0.16932 0.0
H72 H 0.26359 0.19207 0.1644 0.0
H73 H 0.21822 0.17607 0.24823 0.0
C74 C 0.18318 0.11735 0.34636 0.0
C75 C 0.2153 0.07898 0.35519 0.0
C76 C 0.24229 0.09123 0.30725 0.0
C77 C 0.27176 0.0496 0.31108 0.0
C78 C 0.29718 0.05947 0.25978 0.0
C79 C 0.29421 0.11066 0.20781 0.0
C80 C 0.26582 0.15246 0.20497 0.0
C81 C 0.23998 0.14278 0.25364 0.0
H82 H 0.15255 0.45559 0.1789 0.0
C83 C 0.16374 0.40322 0.16946 0.0
H84 H 0.20942 0.35258 0.1455 0.0
H85 H 0.28925 0.65533 0.04202 0.0
H86 H 0.27802 0.59252 0.93495 0.0
H87 H 0.23996 0.4756 0.92895 0.0
H88 H 0.21304 0.42038 0.02994 0.0
C89 C 0.19753 0.40405 0.15492 0.0
C90 C 0.22023 0.47471 0.15812 0.0
C91 C 0.23549 0.50627 0.09863 0.0
C92 C 0.25726 0.57387 0.10198 0.0
C93 C 0.2725 0.60404 0.04204 0.0
C94 C 0.26622 0.56865 0.98038 0.0
C95 C 0.24478 0.50279 0.977 0.0
C96 C 0.22951 0.47169 0.03528 0.0
H97 H 0.32697 0.61284 0.21174 0.0
C98 C 0.31994 0.66822 0.19835 0.0
H99 H 0.28105 0.73002 0.1565 0.0
H100 H 0.19866 0.42455 0.28366 0.0
H101 H 0.20791 0.4902 0.38915 0.0
H102 H 0.24142 0.61296 0.39309 0.0
H103 H 0.26649 0.66979 0.29151 0.0
C104 C 0.28906 0.67558 0.17003 0.0
C105 C 0.2636 0.60949 0.16474 0.0
C106 C 0.24748 0.57917 0.22399 0.0
C107 C 0.22667 0.51047 0.2211 0.0
C108 C 0.21322 0.47849 0.28204 0.0
C109 C 0.2186 0.51528 0.34325 0.0
C110 C 0.23758 0.5842 0.34552 0.0
C111 C 0.25197 0.61597 0.28682 0.0
H112 H 0.6909 0.118 0.59207 0.0
C113 C 0.67587 0.08164 0.62703 0.0
H114 H 0.67621 0.99004 0.69343 0.0
H115 H 0.81565 0.91778 0.52846 0.0
H116 H 0.77741 0.88392 0.43438 0.0
H117 H 0.71595 0.90932 0.43789 0.0
H118 H 0.69242 0.96944 0.53511 0.0
C119 C 0.69025 0.02406 0.65542 0.0
C120 C 0.72778 0.01554 0.64868 0.0
C121 C 0.7409 0.9801 0.59176 0.0
C122 C 0.7761 0.96376 0.59048 0.0
C123 C 0.78884 0.92942 0.53263 0.0
C124 C 0.76724 0.9102 0.47825 0.0
C125 C 0.73265 0.92464 0.48017 0.0
C126 C 0.71946 0.95914 0.5362 0.0
H127 H 0.80928 0.83938 0.6528 0.0
C128 C 0.83288 0.87576 0.65967 0.0
H129 H 0.85483 0.9871 0.6621 0.0
H130 H 0.71183 0.09441 0.76059 0.0
H131 H 0.7504 0.13183 0.85275 0.0
H132 H 0.81105 0.1005 0.85212 0.0
H133 H 0.83353 0.03237 0.75918 0.0
C134 C 0.8318 0.94977 0.65311 0.0
C135 C 0.79773 0.98139 0.64679 0.0
C136 C 0.78525 0.02215 0.70135 0.0
C137 C 0.7502 0.03924 0.70223 0.0
C138 C 0.73816 0.07921 0.75769 0.0
C139 C 0.76003 0.10117 0.8109 0.0
C140 C 0.79418 0.08362 0.81049 0.0
C141 C 0.80676 0.0444 0.75667 0.0
H142 H 0.79228 0.64259 0.89576 0.0
C143 C 0.81325 0.61769 0.87028 0.0
H144 H 0.82912 0.52139 0.823 0.0
H145 H 0.68994 0.35459 0.96247 0.0
H146 H 0.7243 0.35568 0.06486 0.0
H147 H 0.78184 0.42541 0.06985 0.0
H148 H 0.80532 0.49491 0.97253 0.0
C149 C 0.80897 0.54607 0.85113 0.0
C150 C 0.77403 0.506 0.85021 0.0
C151 C 0.7609 0.46558 0.90721 0.0
C152 C 0.72802 0.42433 0.9039 0.0
C153 C 0.71514 0.38536 0.96187 0.0
C154 C 0.73451 0.3859 0.02099 0.0
C155 C 0.7669 0.42527 0.02383 0.0
C156 C 0.78007 0.46485 0.96773 0.0
H157 H 0.701 0.27459 0.84642 0.0
C158 C 0.67751 0.29952 0.83215 0.0
H159 H 0.65306 0.39879 0.82041 0.0
H160 H 0.79119 0.58155 0.73303 0.0
H161 H 0.7569 0.58132 0.63118 0.0
H162 H 0.70027 0.50829 0.62456 0.0
H163 H 0.67757 0.4355 0.71967 0.0
C164 C 0.67632 0.3737 0.83573 0.0
C165 C 0.70871 0.42311 0.84324 0.0
C166 C 0.7214 0.46579 0.78691 0.0
C167 C 0.75415 0.5072 0.79042 0.0
C168 C 0.76648 0.54878 0.73321 0.0
C169 C 0.74707 0.54918 0.67429 0.0
C170 C 0.71519 0.50815 0.6706 0.0
C171 C 0.70243 0.46667 0.72588 0.0
H172 H 0.03428 0.18395 0.0278 0.0
C173 C 0.0386 0.1607 0.07737 0.0
H174 H 0.03297 0.0646 0.13911 0.0
H175 H 0.91642 0.9794 0.9006 0.0
H176 H 0.8858 0.08023 0.94546 0.0
H177 H 0.9119 0.16257 0.03421 0.0
H178 H 0.96883 0.14489 0.07825 0.0
C179 C 0.02782 0.08926 0.09051 0.0
C180 C 0.01161 0.03979 0.03754 0.0
C181 C 0.97811 0.05072 0.01287 0.0
C182 C 0.96283 0.00248 0.96254 0.0
C183 C 0.9293 0.01436 0.93882 0.0
C184 C 0.91138 0.07196 0.96422 0.0
C185 C 0.92609 0.11838 0.01411 0.0
C186 C 0.95895 0.10791 0.0386 0.0
H187 H 0.95978 0.79994 0.95982 0.0
C188 C 0.9535 0.81841 0.90945 0.0
H189 H 0.95619 0.9088 0.84086 0.0
H190 H 0.07646 0.00465 0.07319 0.0
H191 H 0.10733 0.90474 0.02719 0.0
H192 H 0.08111 0.8223 0.93862 0.0
H193 H 0.02377 0.83904 0.89585 0.0
C194 C 0.96328 0.88864 0.89016 0.0
C195 C 0.98074 0.94258 0.93823 0.0
C196 C 0.01451 0.93266 0.96184 0.0
C197 C 0.02981 0.9809 0.01209 0.0
C198 C 0.06351 0.96954 0.03514 0.0
C199 C 0.08159 0.91252 0.00903 0.0
C200 C 0.06681 0.86605 0.95924 0.0
C201 C 0.03375 0.87593 0.93552 0.0
H202 H 0.52982 0.04637 0.81801 0.0
C203 C 0.53732 0.09969 0.84177 0.0
H204 H 0.53647 0.16337 0.93092 0.0
H205 H 0.40786 0.9748 0.0578 0.0
H206 H 0.38238 0.08885 0.02825 0.0
H207 H 0.41505 0.18672 0.96115 0.0
H208 H 0.47333 0.17091 0.923 0.0
C209 C 0.52966 0.10998 0.90681 0.0
C210 C 0.51028 0.05058 0.94714 0.0
C211 C 0.47643 0.06122 0.96975 0.0
C212 C 0.45779 0.00531 0.00918 0.0
C213 C 0.42358 0.01633 0.02931 0.0
C214 C 0.40852 0.08133 0.01226 0.0
C215 C 0.4269 0.13638 0.97443 0.0
C216 C 0.46039 0.12665 0.95303 0.0
H217 H 0.45994 0.9534 0.1571 0.0
C218 C 0.45045 0.89903 0.13761 0.0
H219 H 0.44644 0.82904 0.05201 0.0
H220 H 0.57586 0.01473 0.9164 0.0
H221 H 0.60091 0.90007 0.94496 0.0
H222 H 0.56785 0.80164 0.01074 0.0
H223 H 0.50957 0.81777 0.04881 0.0
C224 C 0.45508 0.88347 0.07234 0.0
C225 C 0.47335 0.93949 0.02689 0.0
C226 C 0.50692 0.92815 0.00325 0.0
C227 C 0.52566 0.98422 0.96409 0.0
C228 C 0.55991 0.9731 0.94427 0.0
C229 C 0.57476 0.90768 0.96081 0.0
C230 C 0.55618 0.85233 0.99794 0.0
C231 C 0.52272 0.86228 0.01937 0.0
H232 H 0.98749 0.54928 0.67937 0.0
C233 C 0.9651 0.57505 0.66035 0.0
H234 H 0.93087 0.58345 0.57842 0.0
H235 H 0.06815 0.46377 0.42734 0.0
H236 H 0.09631 0.58602 0.45235 0.0
H237 H 0.06742 0.67491 0.52269 0.0
H238 H 0.01028 0.6419 0.56868 0.0
C239 C 0.95411 0.56084 0.59722 0.0
C240 C 0.97136 0.50847 0.55344 0.0
C241 C 0.0047 0.529 0.52671 0.0
C242 C 0.02115 0.47812 0.48548 0.0
C243 C 0.05443 0.50008 0.45914 0.0
C244 C 0.07089 0.57021 0.47295 0.0
C245 C 0.05465 0.62022 0.5126 0.0
C246 C 0.0219 0.60031 0.53905 0.0
H247 H 0.98618 0.36942 0.34447 0.0
C248 C 0.00948 0.34525 0.36101 0.0
H249 H 0.0449 0.33561 0.4407 0.0
H250 H 0.90734 0.45208 0.59673 0.0
H251 H 0.87917 0.32965 0.57178 0.0
H252 H 0.90799 0.24093 0.5011 0.0
H253 H 0.9651 0.27423 0.45472 0.0
C254 C 0.02079 0.35646 0.42438 0.0
C255 C 0.00393 0.4075 0.47013 0.0
C256 C 0.97066 0.38685 0.49709 0.0
C257 C 0.95424 0.43768 0.53843 0.0
C258 C 0.921 0.41571 0.56487 0.0
C259 C 0.90455 0.34553 0.55108 0.0
C260 C 0.92077 0.29561 0.51123 0.0
C261 C 0.95347 0.31561 0.48459 0.0
H262 H 0.46322 0.67587 0.45481 0.0
C263 C 0.4568 0.65256 0.40549 0.0
H264 H 0.45878 0.56022 0.34065 0.0
H265 H 0.58192 0.41177 0.47168 0.0
H266 H 0.60768 0.45823 0.36683 0.0
H267 H 0.5774 0.54242 0.29364 0.0
H268 H 0.5211 0.58029 0.32467 0.0
C269 C 0.46478 0.58337 0.3902 0.0
C270 C 0.48375 0.53739 0.43751 0.0
C271 C 0.51694 0.51687 0.41916 0.0
C272 C 0.53464 0.46931 0.46183 0.0
C273 C 0.56747 0.44847 0.44157 0.0
C274 C 0.58256 0.47465 0.38143 0.0
C275 C 0.56549 0.52196 0.34019 0.0
C276 C 0.53311 0.54307 0.35857 0.0
H277 H 0.50114 0.29869 0.54891 0.0
C278 C 0.52532 0.31886 0.5729 0.0
H279 H 0.56199 0.41117 0.58793 0.0
H280 H 0.41894 0.5597 0.48523 0.0
H281 H 0.39454 0.51801 0.59247 0.0
H282 H 0.42739 0.4441 0.6706 0.0
H283 H 0.48459 0.41011 0.64109 0.0
C284 C 0.53739 0.39072 0.56581 0.0
C285 C 0.51921 0.44275 0.52296 0.0
C286 C 0.4865 0.46508 0.54242 0.0
C287 C 0.46832 0.51093 0.49887 0.0
C288 C 0.43466 0.52801 0.51754 0.0
C289 C 0.42019 0.50391 0.57885 0.0
C290 C 0.43862 0.46206 0.62272 0.0
C291 C 0.47136 0.4426 0.60496 0.0
loop_
_geom_bond_atom_site_label_1
_geom_bond_atom_site_label_2
_geom_bond_distance
_geom_bond_site_symmetry_2
_ccdc_geom_bond_type
C0 O1 1.160 . S
C0 O7 1.185 . S
O1 C0 1.160 . S
O2 Zn3 1.899 . S
O2 C10 1.284 . S
Zn3 O2 1.899 . S
Zn3 O4 2.032 . S
Zn3 O7 2.086 . S
Zn3 O12 1.977 . S
O4 Zn3 2.032 . S
O4 C8 1.278 . S
C5 O6 1.203 . S
C5 O12 1.267 . S
O6 C5 1.203 . S
O7 C0 1.185 . S
O7 Zn3 2.086 . S
C8 O4 1.278 . S
C8 O9 1.211 . S
O9 C8 1.211 . S
C10 O2 1.284 . S
C10 O11 1.273 . S
O11 C10 1.273 . S
O12 Zn3 1.977 . S
O12 C5 1.267 . S
C13 O14 1.160 . S
C13 O20 1.185 . S
O14 C13 1.160 . S
O15 Zn16 1.899 . S
O15 C23 1.284 . S
Zn16 O15 1.899 . S
Zn16 O17 2.032 . S
Zn16 O20 2.086 . S
Zn16 O25 1.977 . S
O17 Zn16 2.032 . S
O17 C21 1.278 . S
C18 O19 1.203 . S
C18 O25 1.267 . S
O19 C18 1.203 . S
O20 C13 1.185 . S
O20 Zn16 2.086 . S
C21 O17 1.278 . S
C21 O22 1.211 . S
O22 C21 1.211 . S
C23 O15 1.284 . S
C23 O24 1.273 . S
O24 C23 1.273 . S
O25 Zn16 1.977 . S
O25 C18 1.267 . S
C26 O27 1.160 . S
C26 O33 1.185 . S
O27 C26 1.160 . S
O28 Zn29 1.899 . S
O28 C36 1.284 . S
Zn29 O28 1.899 . S
Zn29 O30 2.032 . S
Zn29 O33 2.086 . S
Zn29 O38 1.977 . S
O30 Zn29 2.032 . S
O30 C34 1.278 . S
C31 O32 1.203 . S
C31 O38 1.267 . S
O32 C31 1.203 . S
O33 C26 1.185 . S
O33 Zn29 2.086 . S
C34 O30 1.278 . S
C34 O35 1.211 . S
O35 C34 1.211 . S
C36 O28 1.284 . S
C36 O37 1.273 . S
O37 C36 1.273 . S
O38 Zn29 1.977 . S
O38 C31 1.267 . S
C39 O40 1.160 . S
C39 O46 1.185 . S
O40 C39 1.160 . S
O41 Zn42 1.899 . S
O41 C49 1.284 . S
Zn42 O41 1.899 . S
Zn42 O43 2.032 . S
Zn42 O46 2.086 . S
Zn42 O51 1.977 . S
O43 Zn42 2.032 . S
O43 C47 1.278 . S
C44 O45 1.203 . S
C44 O51 1.267 . S
O45 C44 1.203 . S
O46 C39 1.185 . S
O46 Zn42 2.086 . S
C47 O43 1.278 . S
C47 O48 1.211 . S
O48 C47 1.211 . S
C49 O41 1.284 . S
C49 O50 1.273 . S
O50 C49 1.273 . S
O51 Zn42 1.977 . S
O51 C44 1.267 . S
H52 C53 0.951 . S
C53 H52 0.951 . S
C53 C59 1.265 . S
H54 C59 0.950 . S
H55 C63 0.949 . S
H56 C64 0.950 . S
H57 C65 0.951 . S
H58 C66 0.951 . S
C59 C53 1.265 . S
C59 H54 0.950 . S
C59 C60 1.478 . S
C60 C59 1.478 . S
C60 C61 1.397 . S
C60 C77 1.394 . S
C61 C60 1.397 . S
C61 C62 1.438 1_565 S
C61 C66 1.429 . S
C62 C61 1.438 1_545 S
C62 C63 1.428 . S
C62 C75 1.394 . S
C63 H55 0.949 . S
C63 C62 1.428 . S
C63 C64 1.345 1_545 S
C64 H56 0.950 . S
C64 C63 1.345 1_565 S
C64 C65 1.424 . S
C65 H57 0.951 . S
C65 C64 1.424 . S
C65 C66 1.347 . S
C66 H58 0.951 . S
C66 C61 1.429 . S
C66 C65 1.347 . S
H67 C68 0.951 . S
C68 H67 0.951 . S
C68 C74 1.265 . S
H69 C74 0.950 . S
H70 C78 0.949 . S
H71 C79 0.950 . S
H72 C80 0.951 . S
H73 C81 0.951 . S
C74 C68 1.265 . S
C74 H69 0.950 . S
C74 C75 1.478 . S
C75 C62 1.394 . S
C75 C74 1.478 . S
C75 C76 1.397 . S
C76 C75 1.397 . S
C76 C77 1.438 1_545 S
C76 C81 1.429 . S
C77 C60 1.394 . S
C77 C76 1.438 1_565 S
C77 C78 1.428 . S
C78 H70 0.949 . S
C78 C77 1.428 . S
C78 C79 1.345 1_565 S
C79 H71 0.950 . S
C79 C78 1.345 1_545 S
C79 C80 1.424 . S
C80 H72 0.951 . S
C80 C79 1.424 . S
C80 C81 1.347 . S
C81 H73 0.951 . S
C81 C76 1.429 . S
C81 C80 1.347 . S
H82 C83 0.951 . S
C83 H82 0.951 . S
C83 C89 1.265 . S
H84 C89 0.950 . S
H85 C93 0.949 . S
H86 C94 0.950 1_556 S
H87 C95 0.951 1_556 S
H88 C96 0.951 . S
C89 C83 1.265 . S
C89 H84 0.950 . S
C89 C90 1.478 . S
C90 C89 1.478 . S
C90 C91 1.397 . S
C90 C107 1.394 . S
C91 C90 1.397 . S
C91 C92 1.438 . S
C91 C96 1.429 . S
C92 C91 1.438 . S
C92 C93 1.428 . S
C92 C105 1.394 . S
C93 H85 0.949 . S
C93 C92 1.428 . S
C93 C94 1.345 . S
C94 H86 0.950 1_554 S
C94 C93 1.345 . S
C94 C95 1.424 . S
C95 H87 0.951 1_554 S
C95 C94 1.424 . S
C95 C96 1.347 . S
C96 H88 0.951 . S
C96 C91 1.429 . S
C96 C95 1.347 . S
H97 C98 0.951 . S
C98 H97 0.951 . S
C98 C104 1.265 . S
H99 C104 0.950 . S
H100 C108 0.949 . S
H101 C109 0.950 . S
H102 C110 0.951 . S
H103 C111 0.951 . S
C104 C98 1.265 . S
C104 H99 0.950 . S
C104 C105 1.478 . S
C105 C92 1.394 . S
C105 C104 1.478 . S
C105 C106 1.397 . S
C106 C105 1.397 . S
C106 C107 1.438 . S
C106 C111 1.429 . S
C107 C90 1.394 . S
C107 C106 1.438 . S
C107 C108 1.428 . S
C108 H100 0.949 . S
C108 C107 1.428 . S
C108 C109 1.345 . S
C109 H101 0.950 . S
C109 C108 1.345 . S
C109 C110 1.424 . S
C110 H102 0.951 . S
C110 C109 1.424 . S
C110 C111 1.347 . S
C111 H103 0.951 . S
C111 C106 1.429 . S
C111 C110 1.347 . S
H112 C113 0.951 . S
C113 H112 0.951 . S
C113 C119 1.265 . S
H114 C119 0.950 1_565 S
H115 C123 0.949 . S
H116 C124 0.950 . S
H117 C125 0.951 . S
H118 C126 0.951 . S
C119 C113 1.265 . S
C119 H114 0.950 1_545 S
C119 C120 1.478 . S
C120 C119 1.478 . S
C120 C121 1.397 1_545 S
C120 C137 1.394 . S
C121 C120 1.397 1_565 S
C121 C122 1.438 . S
C121 C126 1.429 . S
C122 C121 1.438 . S
C122 C123 1.428 . S
C122 C135 1.394 . S
C123 H115 0.949 . S
C123 C122 1.428 . S
C123 C124 1.345 . S
C124 H116 0.950 . S
C124 C123 1.345 . S
C124 C125 1.424 . S
C125 H117 0.951 . S
C125 C124 1.424 . S
C125 C126 1.347 . S
C126 H118 0.951 . S
C126 C121 1.429 . S
C126 C125 1.347 . S
H127 C128 0.951 . S
C128 H127 0.951 . S
C128 C134 1.265 . S
H129 C134 0.950 1_545 S
H130 C138 0.949 . S
H131 C139 0.950 . S
H132 C140 0.951 . S
H133 C141 0.951 . S
C134 C128 1.265 . S
C134 H129 0.950 1_565 S
C134 C135 1.478 . S
C135 C122 1.394 . S
C135 C134 1.478 . S
C135 C136 1.397 1_565 S
C136 C135 1.397 1_545 S
C136 C137 1.438 . S
C136 C141 1.429 . S
C137 C120 1.394 . S
C137 C136 1.438 . S
C137 C138 1.428 . S
C138 H130 0.949 . S
C138 C137 1.428 . S
C138 C139 1.345 . S
C139 H131 0.950 . S
C139 C138 1.345 . S
C139 C140 1.424 . S
C140 H132 0.951 . S
C140 C139 1.424 . S
C140 C141 1.347 . S
C141 H133 0.951 . S
C141 C136 1.429 . S
C141 C140 1.347 . S
H142 C143 0.951 . S
C143 H142 0.951 . S
C143 C149 1.265 . S
H144 C149 0.950 . S
H145 C153 0.949 . S
H146 C154 0.950 . S
H147 C155 0.951 . S
H148 C156 0.951 . S
C149 C143 1.265 . S
C149 H144 0.950 . S
C149 C150 1.478 . S
C150 C149 1.478 . S
C150 C151 1.397 . S
C150 C167 1.394 . S
C151 C150 1.397 . S
C151 C152 1.438 . S
C151 C156 1.429 . S
C152 C151 1.438 . S
C152 C153 1.428 . S
C152 C165 1.394 . S
C153 H145 0.949 . S
C153 C152 1.428 . S
C153 C154 1.345 . S
C154 H146 0.950 . S
C154 C153 1.345 . S
C154 C155 1.424 . S
C155 H147 0.951 . S
C155 C154 1.424 . S
C155 C156 1.347 . S
C156 H148 0.951 . S
C156 C151 1.429 . S
C156 C155 1.347 . S
H157 C158 0.951 . S
C158 H157 0.951 . S
C158 C164 1.265 . S
H159 C164 0.950 . S
H160 C168 0.949 . S
H161 C169 0.950 . S
H162 C170 0.951 . S
H163 C171 0.951 . S
C164 C158 1.265 . S
C164 H159 0.950 . S
C164 C165 1.478 . S
C165 C152 1.394 . S
C165 C164 1.478 . S
C165 C166 1.397 . S
C166 C165 1.397 . S
C166 C167 1.438 . S
C166 C171 1.429 . S
C167 C150 1.394 . S
C167 C166 1.438 . S
C167 C168 1.428 . S
C168 H160 0.949 . S
C168 C167 1.428 . S
C168 C169 1.345 . S
C169 H161 0.950 . S
C169 C168 1.345 . S
C169 C170 1.424 . S
C170 H162 0.951 . S
C170 C169 1.424 . S
C170 C171 1.347 . S
C171 H163 0.951 . S
C171 C166 1.429 . S
C171 C170 1.347 . S
H172 C173 0.951 . S
C173 H172 0.951 . S
C173 C179 1.265 . S
H174 C179 0.950 . S
H175 C183 0.949 1_565 S
H176 C184 0.950 . S
H177 C185 0.951 . S
H178 C186 0.948 1_554 S
C179 C173 1.265 . S
C179 H174 0.950 . S
C179 C180 1.478 . S
C180 C179 1.478 . S
C180 C181 1.397 1_454 S
C180 C197 1.394 1_545 S
C181 C180 1.397 1_656 S
C181 C182 1.438 . S
C181 C186 1.429 . S
C182 C181 1.438 . S
C182 C183 1.428 . S
C182 C195 1.394 1_545 S
C183 H175 0.949 1_545 S
C183 C182 1.428 . S
C183 C184 1.345 . S
C184 H176 0.950 . S
C184 C183 1.345 . S
C184 C185 1.424 . S
C185 H177 0.951 . S
C185 C184 1.424 . S
C185 C186 1.347 . S
C186 H178 0.948 1_556 S
C186 C181 1.429 . S
C186 C185 1.347 . S
H187 C188 0.951 . S
C188 H187 0.951 . S
C188 C194 1.265 . S
H189 C194 0.950 . S
H190 C198 0.949 1_545 S
H191 C199 0.950 . S
H192 C200 0.951 . S
H193 C201 0.948 1_556 S
C194 C188 1.265 . S
C194 H189 0.950 . S
C194 C195 1.478 . S
C195 C182 1.394 1_565 S
C195 C194 1.478 . S
C195 C196 1.397 1_656 S
C196 C195 1.397 1_454 S
C196 C197 1.438 . S
C196 C201 1.429 . S
C197 C180 1.394 1_565 S
C197 C196 1.438 . S
C197 C198 1.428 . S
C198 H190 0.949 1_565 S
C198 C197 1.428 . S
C198 C199 1.345 . S
C199 H191 0.950 . S
C199 C198 1.345 . S
C199 C200 1.424 . S
C200 H192 0.951 . S
C200 C199 1.424 . S
C200 C201 1.347 . S
C201 H193 0.948 1_554 S
C201 C196 1.429 . S
C201 C200 1.347 . S
H202 C203 0.951 . S
C203 H202 0.951 . S
C203 C209 1.265 . S
H204 C209 0.950 . S
H205 C213 0.949 1_565 S
H206 C214 0.950 . S
H207 C215 0.951 . S
H208 C216 0.951 . S
C209 C203 1.265 . S
C209 H204 0.950 . S
C209 C210 1.478 . S
C210 C209 1.478 . S
C210 C211 1.397 1_556 S
C210 C227 1.394 1_545 S
C211 C210 1.397 1_554 S
C211 C212 1.438 . S
C211 C216 1.429 . S
C212 C211 1.438 . S
C212 C213 1.428 . S
C212 C225 1.394 1_545 S
C213 H205 0.949 1_545 S
C213 C212 1.428 . S
C213 C214 1.345 . S
C214 H206 0.950 . S
C214 C213 1.345 . S
C214 C215 1.424 . S
C215 H207 0.951 . S
C215 C214 1.424 . S
C215 C216 1.347 . S
C216 H208 0.951 . S
C216 C211 1.429 . S
C216 C215 1.347 . S
H217 C218 0.951 . S
C218 H217 0.951 . S
C218 C224 1.265 . S
H219 C224 0.950 . S
H220 C228 0.949 1_545 S
H221 C229 0.950 . S
H222 C230 0.951 . S
H223 C231 0.951 . S
C224 C218 1.265 . S
C224 H219 0.950 . S
C224 C225 1.478 . S
C225 C212 1.394 1_565 S
C225 C224 1.478 . S
C225 C226 1.397 1_554 S
C226 C225 1.397 1_556 S
C226 C227 1.438 . S
C226 C231 1.429 . S
C227 C210 1.394 1_565 S
C227 C226 1.438 . S
C227 C228 1.428 . S
C228 H220 0.949 1_565 S
C228 C227 1.428 . S
C228 C229 1.345 . S
C229 H221 0.950 . S
C229 C228 1.345 . S
C229 C230 1.424 . S
C230 H222 0.951 . S
C230 C229 1.424 . S
C230 C231 1.347 . S
C231 H223 0.951 . S
C231 C226 1.429 . S
C231 C230 1.347 . S
H232 C233 0.951 . S
C233 H232 0.951 . S
C233 C239 1.265 . S
H234 C239 0.950 . S
H235 C243 0.949 . S
H236 C244 0.950 . S
H237 C245 0.951 . S
H238 C246 0.951 . S
C239 C233 1.265 . S
C239 H234 0.950 . S
C239 C240 1.478 . S
C240 C239 1.478 . S
C240 C241 1.397 1_655 S
C240 C257 1.394 . S
C241 C240 1.397 1_455 S
C241 C242 1.438 . S
C241 C246 1.429 . S
C242 C241 1.438 . S
C242 C243 1.428 . S
C242 C255 1.394 . S
C243 H235 0.949 . S
C243 C242 1.428 . S
C243 C244 1.345 . S
C244 H236 0.950 . S
C244 C243 1.345 . S
C244 C245 1.424 . S
C245 H237 0.951 . S
C245 C244 1.424 . S
C245 C246 1.347 . S
C246 H238 0.951 . S
C246 C241 1.429 . S
C246 C245 1.347 . S
H247 C248 0.951 . S
C248 H247 0.951 . S
C248 C254 1.265 . S
H249 C254 0.950 . S
H250 C258 0.949 . S
H251 C259 0.950 . S
H252 C260 0.951 . S
H253 C261 0.951 . S
C254 C248 1.265 . S
C254 H249 0.950 . S
C254 C255 1.478 . S
C255 C242 1.394 . S
C255 C254 1.478 . S
C255 C256 1.397 1_455 S
C256 C255 1.397 1_655 S
C256 C257 1.438 . S
C256 C261 1.429 . S
C257 C240 1.394 . S
C257 C256 1.438 . S
C257 C258 1.428 . S
C258 H250 0.949 . S
C258 C257 1.428 . S
C258 C259 1.345 . S
C259 H251 0.950 . S
C259 C258 1.345 . S
C259 C260 1.424 . S
C260 H252 0.951 . S
C260 C259 1.424 . S
C260 C261 1.347 . S
C261 H253 0.951 . S
C261 C256 1.429 . S
C261 C260 1.347 . S
H262 C263 0.951 . S
C263 H262 0.951 . S
C263 C269 1.265 . S
H264 C269 0.950 . S
H265 C273 0.949 . S
H266 C274 0.950 . S
H267 C275 0.951 . S
H268 C276 0.951 . S
C269 C263 1.265 . S
C269 H264 0.950 . S
C269 C270 1.478 . S
C270 C269 1.478 . S
C270 C271 1.397 . S
C270 C287 1.394 . S
C271 C270 1.397 . S
C271 C272 1.438 . S
C271 C276 1.429 . S
C272 C271 1.438 . S
C272 C273 1.428 . S
C272 C285 1.394 . S
C273 H265 0.949 . S
C273 C272 1.428 . S
C273 C274 1.345 . S
C274 H266 0.950 . S
C274 C273 1.345 . S
C274 C275 1.424 . S
C275 H267 0.951 . S
C275 C274 1.424 . S
C275 C276 1.347 . S
C276 H268 0.951 . S
C276 C271 1.429 . S
C276 C275 1.347 . S
H277 C278 0.951 . S
C278 H277 0.951 . S
C278 C284 1.265 . S
H279 C284 0.950 . S
H280 C288 0.949 . S
H281 C289 0.950 . S
H282 C290 0.951 . S
H283 C291 0.951 . S
C284 C278 1.265 . S
C284 H279 0.950 . S
C284 C285 1.478 . S
C285 C272 1.394 . S
C285 C284 1.478 . S
C285 C286 1.397 . S
C286 C285 1.397 . S
C286 C287 1.438 . S
C286 C291 1.429 . S
C287 C270 1.394 . S
C287 C286 1.438 . S
C287 C288 1.428 . S
C288 H280 0.949 . S
C288 C287 1.428 . S
C288 C289 1.345 . S
C289 H281 0.950 . S
C289 C288 1.345 . S
C289 C290 1.424 . S
C290 H282 0.951 . S
C290 C289 1.424 . S
C290 C291 1.347 . S
C291 H283 0.951 . S
C291 C286 1.429 . S
C291 C290 1.347 . S
C53 C18 0.886 . S
C68 C5 0.885 . S
C83 C8 0.792 . S
C98 C21 0.806 . S
C113 C44 0.798 . S
C128 C31 0.805 . S
C143 C34 0.536 . S
C158 C47 0.529 . S
C173 C10 1.551 . S
C188 C36 1.551 . S
C203 C49 1.564 . S
C218 C23 1.564 . S
C233 C26 1.487 . S
C248 C0 1.487 . S
C263 C13 1.534 . S
C278 C39 1.534 . S
