# Generated by pormake.
# Topology unn, (4)-cn, num edge types: 1
# Building blocks:
#     Node 0, Type 0, BuildingBlock: KOZSID_clean_sbu_0, # of connection points: 4
#     Node 1, Type 0, BuildingBlock: KOZSID_clean_sbu_0, # of connection points: 4
#     Node 2, Type 0, BuildingBlock: KOZSID_clean_sbu_0, # of connection points: 4
#     Node 3, Type 0, BuildingBlock: KOZSID_clean_sbu_0, # of connection points: 4
#     Node 4, Type 0, BuildingBlock: KOZSID_clean_sbu_0, # of connection points: 4
#     Node 5, Type 0, BuildingBlock: KOZSID_clean_sbu_0, # of connection points: 4
#     Node 6, Type 0, BuildingBlock: KOZSID_clean_sbu_0, # of connection points: 4
#     Node 7, Type 0, BuildingBlock: KOZSID_clean_sbu_0, # of connection points: 4
#     Node 8, Type 0, BuildingBlock: KOZSID_clean_sbu_0, # of connection points: 4
#     Node 9, Type 0, BuildingBlock: KOZSID_clean_sbu_0, # of connection points: 4
#     Node 10, Type 0, BuildingBlock: KOZSID_clean_sbu_0, # of connection points: 4
#     Node 11, Type 0, BuildingBlock: KOZSID_clean_sbu_0, # of connection points: 4
#     Node 12, Type 0, BuildingBlock: KOZSID_clean_sbu_0, # of connection points: 4
#     Node 13, Type 0, BuildingBlock: KOZSID_clean_sbu_0, # of connection points: 4
#     Node 14, Type 0, BuildingBlock: KOZSID_clean_sbu_0, # of connection points: 4
#     Node 15, Type 0, BuildingBlock: KOZSID_clean_sbu_0, # of connection points: 4
#     Node 16, Type 0, BuildingBlock: KOZSID_clean_sbu_0, # of connection points: 4
#     Node 17, Type 0, BuildingBlock: KOZSID_clean_sbu_0, # of connection points: 4
#     Edge 18, Type (0, 0), BuildingBlock: KIFKEQ_clean_linker_1, # of connection points: 2
#     Edge 19, Type (0, 0), BuildingBlock: KIFKEQ_clean_linker_1, # of connection points: 2
#     Edge 20, Type (0, 0), BuildingBlock: KIFKEQ_clean_linker_1, # of connection points: 2
#     Edge 21, Type (0, 0), BuildingBlock: KIFKEQ_clean_linker_1, # of connection points: 2
#     Edge 22, Type (0, 0), BuildingBlock: KIFKEQ_clean_linker_1, # of connection points: 2
#     Edge 23, Type (0, 0), BuildingBlock: KIFKEQ_clean_linker_1, # of connection points: 2
#     Edge 24, Type (0, 0), BuildingBlock: KIFKEQ_clean_linker_1, # of connection points: 2
#     Edge 25, Type (0, 0), BuildingBlock: KIFKEQ_clean_linker_1, # of connection points: 2
#     Edge 26, Type (0, 0), BuildingBlock: KIFKEQ_clean_linker_1, # of connection points: 2
#     Edge 27, Type (0, 0), BuildingBlock: KIFKEQ_clean_linker_1, # of connection points: 2
#     Edge 28, Type (0, 0), BuildingBlock: KIFKEQ_clean_linker_1, # of connection points: 2
#     Edge 29, Type (0, 0), BuildingBlock: KIFKEQ_clean_linker_1, # of connection points: 2
#     Edge 30, Type (0, 0), BuildingBlock: KIFKEQ_clean_linker_1, # of connection points: 2
#     Edge 31, Type (0, 0), BuildingBlock: KIFKEQ_clean_linker_1, # of connection points: 2
#     Edge 32, Type (0, 0), BuildingBlock: KIFKEQ_clean_linker_1, # of connection points: 2
#     Edge 33, Type (0, 0), BuildingBlock: KIFKEQ_clean_linker_1, # of connection points: 2
#     Edge 34, Type (0, 0), BuildingBlock: KIFKEQ_clean_linker_1, # of connection points: 2
#     Edge 35, Type (0, 0), BuildingBlock: KIFKEQ_clean_linker_1, # of connection points: 2
#     Edge 36, Type (0, 0), BuildingBlock: KIFKEQ_clean_linker_1, # of connection points: 2
#     Edge 37, Type (0, 0), BuildingBlock: KIFKEQ_clean_linker_1, # of connection points: 2
#     Edge 38, Type (0, 0), BuildingBlock: KIFKEQ_clean_linker_1, # of connection points: 2
#     Edge 39, Type (0, 0), BuildingBlock: KIFKEQ_clean_linker_1, # of connection points: 2
#     Edge 40, Type (0, 0), BuildingBlock: KIFKEQ_clean_linker_1, # of connection points: 2
#     Edge 41, Type (0, 0), BuildingBlock: KIFKEQ_clean_linker_1, # of connection points: 2
#     Edge 42, Type (0, 0), BuildingBlock: KIFKEQ_clean_linker_1, # of connection points: 2
#     Edge 43, Type (0, 0), BuildingBlock: KIFKEQ_clean_linker_1, # of connection points: 2
#     Edge 44, Type (0, 0), BuildingBlock: KIFKEQ_clean_linker_1, # of connection points: 2
#     Edge 45, Type (0, 0), BuildingBlock: KIFKEQ_clean_linker_1, # of connection points: 2
#     Edge 46, Type (0, 0), BuildingBlock: KIFKEQ_clean_linker_1, # of connection points: 2
#     Edge 47, Type (0, 0), BuildingBlock: KIFKEQ_clean_linker_1, # of connection points: 2
#     Edge 48, Type (0, 0), BuildingBlock: KIFKEQ_clean_linker_1, # of connection points: 2
#     Edge 49, Type (0, 0), BuildingBlock: KIFKEQ_clean_linker_1, # of connection points: 2
#     Edge 50, Type (0, 0), BuildingBlock: KIFKEQ_clean_linker_1, # of connection points: 2
#     Edge 51, Type (0, 0), BuildingBlock: KIFKEQ_clean_linker_1, # of connection points: 2
#     Edge 52, Type (0, 0), BuildingBlock: KIFKEQ_clean_linker_1, # of connection points: 2
#     Edge 53, Type (0, 0), BuildingBlock: KIFKEQ_clean_linker_1, # of connection points: 2
# Relax obj value: 0.035
# Max RMSD: 0.228
# Mean RMSD: 0.203
data_MOF--net-unn--node1-KOZSID_clean_sbu_0--edge1-KIFKEQ_clean_linker_1
_symmetry_space_group_name_H-M    P1
_symmetry_Int_Tables_number       1
_symmetry_cell_setting            triclinic
loop_
_symmetry_equiv_pos_as_xyz
'x, y, z'
_cell_length_a     55.589157
_cell_length_b     55.571542
_cell_length_c     51.168578
_cell_angle_alpha  89.989492
_cell_angle_beta   90.147729
_cell_angle_gamma 119.90007
loop_
_atom_site_label
_atom_site_type_symbol
_atom_site_fract_x
_atom_site_fract_y
_atom_site_fract_z
_atom_type_partial_charge
C0 C 0.99937 0.7239 0.33002 0.0
C1 C 1.00176 0.74689 0.34304 0.0
C2 C 0.01525 0.76907 0.32651 0.0
C3 C 0.02032 0.75853 0.30427 0.0
N4 N 0.0103 0.7309 0.3054 0.0
Co5 Co 0.0166 0.70896 0.27792 0.0
N6 N 0.03002 0.7394 0.25138 0.0
C7 C 0.03752 0.76595 0.25658 0.0
C8 C 0.04541 0.78236 0.23463 0.0
C9 C 0.04282 0.76509 0.21429 0.0
C10 C 0.03354 0.73899 0.22493 0.0
N11 N 0.02356 0.68723 0.2508 0.0
C12 C 0.028 0.69126 0.22457 0.0
C13 C 0.03219 0.67087 0.21345 0.0
C14 C 0.03004 0.65334 0.2332 0.0
C15 C 0.0248 0.66399 0.25525 0.0
N16 N 1.00266 0.67788 0.30397 0.0
C17 C 1.0049 0.65492 0.30152 0.0
C18 C 0.99428 0.6371 0.32227 0.0
C19 C 0.98519 0.64972 0.33932 0.0
C20 C 0.99084 0.67474 0.32804 0.0
N21 N 0.9785 0.69474 0.26438 0.0
C22 C 0.92658 0.67799 0.24028 0.0
C23 C 0.93599 0.65898 0.24452 0.0
C24 C 0.96197 0.66777 0.25656 0.0
C25 C 0.94343 0.70516 0.24935 0.0
C26 C 0.96897 0.713 0.26119 0.0
N27 N 0.05507 0.72462 0.29157 0.0
C28 C 0.08558 0.74304 0.32906 0.0
C29 C 0.10845 0.75981 0.31321 0.0
C30 C 0.10426 0.75673 0.28597 0.0
C31 C 0.0776 0.73887 0.2756 0.0
C32 C 0.05951 0.72561 0.31799 0.0
H33 H 0.07507 0.73766 0.25465 0.0
H34 H 0.04273 0.71433 0.33127 0.0
H35 H 0.9689 0.65291 0.25902 0.0
H36 H 0.98124 0.73426 0.2672 0.0
C37 C 0.03312 0.77352 0.2815 0.0
C38 C 0.98915 0.69662 0.34285 0.0
C39 C 0.02973 0.71469 0.20965 0.0
C40 C 0.01616 0.65028 0.27909 0.0
H41 H 0.99522 0.74767 0.36277 0.0
H42 H 0.02087 0.79039 0.33035 0.0
H43 H 0.05144 0.80409 0.23339 0.0
H44 H 0.04728 0.77103 0.19398 0.0
H45 H 0.03626 0.66879 0.19315 0.0
H46 H 0.03096 0.6344 0.23147 0.0
H47 H 0.99358 0.61743 0.32487 0.0
H48 H 0.97664 0.64194 0.35847 0.0
H49 H 0.92379 0.63769 0.23794 0.0
H50 H 0.93702 0.72055 0.24726 0.0
H51 H 0.08721 0.74431 0.35016 0.0
H52 H 0.1213 0.76843 0.27267 0.0
C53 C 0.28513 0.29605 0.2221 0.0
C54 C 0.26494 0.27272 0.20919 0.0
C55 C 0.25643 0.25088 0.22611 0.0
C56 C 0.27174 0.26196 0.24845 0.0
N57 N 0.28897 0.28962 0.24706 0.0
Co58 Co 0.31689 0.31223 0.2747 0.0
N59 N 0.30049 0.2819 0.30146 0.0
C60 C 0.28184 0.25521 0.2963 0.0
C61 C 0.27412 0.23866 0.31812 0.0
C62 C 0.2889 0.25594 0.33839 0.0
C63 C 0.30486 0.28225 0.32787 0.0
N64 N 0.3453 0.33468 0.30201 0.0
C65 C 0.34594 0.33088 0.32834 0.0
C66 C 0.36887 0.35333 0.33973 0.0
C67 C 0.38349 0.3712 0.32005 0.0
C68 C 0.36859 0.35913 0.29779 0.0
N69 N 0.33323 0.34317 0.24833 0.0
C70 C 0.35763 0.36691 0.25103 0.0
C71 C 0.36439 0.38451 0.23014 0.0
C72 C 0.34324 0.37094 0.21268 0.0
C73 C 0.32462 0.34565 0.22392 0.0
N74 N 0.2922 0.32573 0.28786 0.0
C75 C 0.25627 0.34155 0.31195 0.0
C76 C 0.28444 0.36097 0.30754 0.0
C77 C 0.30199 0.35267 0.29551 0.0
C78 C 0.24653 0.31441 0.30299 0.0
C79 C 0.26458 0.30703 0.29113 0.0
N80 N 0.34052 0.2973 0.2615 0.0
C81 C 0.35336 0.27924 0.2243 0.0
C82 C 0.35969 0.26268 0.24034 0.0
C83 C 0.35836 0.26574 0.26754 0.0
C84 C 0.34909 0.28334 0.27767 0.0
C85 C 0.34426 0.29641 0.23514 0.0
H86 H 0.34766 0.28455 0.29859 0.0
H87 H 0.3387 0.30755 0.22169 0.0
H88 H 0.32355 0.36793 0.29296 0.0
H89 H 0.25605 0.28579 0.2852 0.0
C90 C 0.26991 0.24735 0.27139 0.0
C91 C 0.30188 0.32312 0.20888 0.0
C92 C 0.32574 0.30628 0.34323 0.0
C93 C 0.3731 0.37254 0.27387 0.0
H94 H 0.25779 0.27149 0.18928 0.0
H95 H 0.24113 0.22939 0.22242 0.0
H96 H 0.25911 0.21673 0.31927 0.0
H97 H 0.28833 0.24978 0.35854 0.0
H98 H 0.37435 0.35698 0.3602 0.0
H99 H 0.40191 0.3914 0.32198 0.0
H100 H 0.38272 0.40469 0.22775 0.0
H101 H 0.34237 0.37838 0.19336 0.0
H102 H 0.29313 0.38226 0.31401 0.0
H103 H 0.22493 0.29868 0.30517 0.0
H104 H 0.3539 0.27801 0.20322 0.0
H105 H 0.36388 0.25423 0.28099 0.0
C106 C 0.72007 0.99517 0.22421 0.0
C107 C 0.73668 0.98527 0.21426 0.0
C108 C 0.75133 0.98326 0.23494 0.0
C109 C 0.7429 0.99195 0.25638 0.0
N110 N 0.72393 0.99945 0.25061 0.0
Co111 Co 0.70663 0.01331 0.27653 0.0
N112 N 0.73391 0.01881 0.30497 0.0
C113 C 0.75128 0.00845 0.30431 0.0
C114 C 0.76528 0.01181 0.32734 0.0
C115 C 0.75577 0.02449 0.34395 0.0
C116 C 0.73645 0.02836 0.33011 0.0
N117 N 0.68968 0.02824 0.3018 0.0
C118 C 0.69817 0.04009 0.32588 0.0
C119 C 0.68102 0.04964 0.33528 0.0
C120 C 0.66026 0.04219 0.31739 0.0
C121 C 0.66614 0.02907 0.29787 0.0
N122 N 0.67861 0.00688 0.24861 0.0
C123 C 0.65529 0.00828 0.25198 0.0
C124 C 0.64052 0.00454 0.22943 0.0
C125 C 0.65529 1.00052 0.21043 0.0
C126 C 0.67822 1.00159 0.22253 0.0
N127 N 0.68293 0.97482 0.28996 0.0
C128 C 0.66622 0.92222 0.31295 0.0
C129 C 0.66845 0.94455 0.32774 0.0
C130 C 0.67682 0.97034 0.31605 0.0
C131 C 0.66942 0.92621 0.28569 0.0
C132 C 0.67704 0.95229 0.27464 0.0
N133 N 0.73148 0.05139 0.26318 0.0
C134 C 0.73948 0.09414 0.24271 0.0
C135 C 0.76781 0.10304 0.2392 0.0
C136 C 0.77749 0.08582 0.24889 0.0
C137 C 0.75924 0.06048 0.26075 0.0
C138 C 0.72173 0.06833 0.25462 0.0
H139 H 0.76779 0.04799 0.2674 0.0
H140 H 0.70007 0.06195 0.25637 0.0
H141 H 0.67967 0.98684 0.32877 0.0
H142 H 0.67972 0.95444 0.25376 0.0
C143 C 0.75407 0.99597 0.2816 0.0
C144 C 0.69895 0.99744 0.20841 0.0
C145 C 0.71893 0.03831 0.34247 0.0
C146 C 0.65081 0.01858 0.27507 0.0
H147 H 0.73769 0.9796 0.19423 0.0
H148 H 0.76664 0.97665 0.23431 0.0
H149 H 0.78019 0.00524 0.33174 0.0
H150 H 0.76164 0.02928 0.36425 0.0
H151 H 0.68259 0.05975 0.3538 0.0
H152 H 0.64286 0.0458 0.31854 0.0
H153 H 0.62214 0.00634 0.2268 0.0
H154 H 0.65 0.99794 0.18989 0.0
H155 H 0.66458 0.94263 0.34855 0.0
H156 H 0.6674 0.90984 0.27286 0.0
H157 H 0.73085 0.1066 0.23562 0.0
H158 H 0.7992 0.09183 0.24732 0.0
C159 C 0.96482 0.21011 0.7502 0.0
C160 C 0.95058 0.18149 0.74644 0.0
C161 C 0.96488 0.17125 0.75969 0.0
C162 C 0.98677 0.19395 0.77102 0.0
N163 N 0.98735 0.21798 0.76573 0.0
Co164 Co 0.01416 0.25489 0.78074 0.0
N165 N 0.0405 0.24197 0.79102 0.0
C166 C 0.03463 0.21536 0.79199 0.0
C167 C 0.05668 0.21242 0.79958 0.0
C168 C 0.07782 0.23882 0.80407 0.0
C169 C 0.06733 0.25645 0.79913 0.0
N170 N 0.04072 0.29145 0.79676 0.0
C171 C 0.06711 0.30145 0.80569 0.0
C172 C 0.07716 0.32742 0.81701 0.0
C173 C 0.05626 0.3337 0.8154 0.0
C174 C 0.03463 0.3113 0.80327 0.0
N175 N 0.98787 0.26766 0.7698 0.0
C176 C 0.98828 0.29073 0.77843 0.0
C177 C 0.96821 0.29478 0.76698 0.0
C178 C 0.9541 0.27272 0.7503 0.0
C179 C 0.96614 0.25615 0.75268 0.0
N180 N 0.9953 0.24338 0.81484 0.0
C181 C 0.97174 0.24469 0.86315 0.0
C182 C 0.95546 0.23521 0.84035 0.0
C183 C 0.96748 0.23419 0.81661 0.0
C184 C 0.99923 0.25008 0.86155 0.0
C185 C 0.01058 0.24944 0.83735 0.0
N186 N 0.03292 0.26764 0.7468 0.0
C187 C 0.05382 0.30471 0.71527 0.0
C188 C 0.05709 0.28752 0.69753 0.0
C189 C 0.04814 0.25998 0.70495 0.0
C190 C 0.03647 0.25054 0.72991 0.0
C191 C 0.04148 0.29438 0.7394 0.0
H192 H 0.02997 0.22942 0.73539 0.0
H193 H 0.0384 0.30818 0.75177 0.0
H194 H 0.95461 0.22799 0.79935 0.0
H195 H 0.0323 0.25582 0.83677 0.0
C196 C 0.00905 0.19396 0.78349 0.0
C197 C 0.95514 0.22862 0.74019 0.0
C198 C 0.08237 0.28609 0.80585 0.0
C199 C 0.00987 0.30962 0.79461 0.0
H200 H 0.9316 0.16908 0.73557 0.0
H201 H 0.96022 0.14988 0.76044 0.0
H202 H 0.0574 0.19338 0.8014 0.0
H203 H 0.09835 0.24437 0.81103 0.0
H204 H 0.09733 0.34026 0.82586 0.0
H205 H 0.05698 0.3526 0.82186 0.0
H206 H 0.96473 0.31211 0.76983 0.0
H207 H 0.93679 0.2692 0.738 0.0
H208 H 0.93402 0.2303 0.84025 0.0
H209 H 0.01248 0.25608 0.87864 0.0
H210 H 0.05998 0.32594 0.71018 0.0
H211 H 0.05023 0.24597 0.69166 0.0
C212 C 0.81732 0.76343 0.74735 0.0
C213 C 0.84485 0.77968 0.73974 0.0
C214 C 0.85384 0.80568 0.74936 0.0
C215 C 0.83153 0.80388 0.7624 0.0
N216 N 0.80884 0.7784 0.76167 0.0
Co217 Co 0.77283 0.7671 0.77953 0.0
N218 N 0.78301 0.80659 0.78588 0.0
C219 C 0.8081 0.82909 0.78176 0.0
C220 C 0.80885 0.85376 0.78615 0.0
C221 C 0.78269 0.84654 0.79404 0.0
C222 C 0.76753 0.8177 0.7945 0.0
N223 N 0.73722 0.75603 0.7983 0.0
C224 C 0.72654 0.77163 0.80796 0.0
C225 C 0.70245 0.75531 0.82201 0.0
C226 C 0.69809 0.72878 0.82149 0.0
C227 C 0.7197 0.7303 0.80729 0.0
N228 N 0.76269 0.72774 0.77244 0.0
C229 C 0.74176 0.70521 0.78382 0.0
C230 C 0.73967 0.68077 0.77541 0.0
C231 C 0.76079 0.68835 0.7578 0.0
C232 C 0.77477 0.71711 0.75653 0.0
N233 N 0.78909 0.76545 0.8134 0.0
C234 C 0.79019 0.74395 0.86294 0.0
C235 C 0.79992 0.73666 0.84066 0.0
C236 C 0.79989 0.74821 0.81628 0.0
C237 C 0.78417 0.76558 0.86019 0.0
C238 C 0.78374 0.77599 0.83538 0.0
N239 N 0.75535 0.76727 0.74596 0.0
C240 C 0.71574 0.74372 0.71728 0.0
C241 C 0.72958 0.7625 0.69701 0.0
C242 C 0.75653 0.78456 0.70226 0.0
C243 C 0.76898 0.78662 0.72687 0.0
C244 C 0.7289 0.74628 0.74115 0.0
H245 H 0.78977 0.80349 0.73022 0.0
H246 H 0.71755 0.73065 0.75552 0.0
H247 H 0.80615 0.74104 0.79946 0.0
H248 H 0.77674 0.79081 0.83399 0.0
C249 C 0.82993 0.82642 0.77197 0.0
C250 C 0.80073 0.73361 0.74182 0.0
C251 C 0.74015 0.80215 0.8069 0.0
C252 C 0.72314 0.70782 0.80032 0.0
H253 H 0.85733 0.77347 0.72852 0.0
H254 H 0.87398 0.82392 0.74648 0.0
H255 H 0.82627 0.87452 0.78372 0.0
H256 H 0.77585 0.86091 0.79974 0.0
H257 H 0.6898 0.762 0.83225 0.0
H258 H 0.68118 0.71057 0.83045 0.0
H259 H 0.72435 0.6599 0.78109 0.0
H260 H 0.76566 0.67435 0.74744 0.0
H261 H 0.8056 0.72068 0.84144 0.0
H262 H 0.77824 0.77344 0.87684 0.0
H263 H 0.69469 0.72679 0.71481 0.0
H264 H 0.76822 0.79972 0.68734 0.0
C265 C 0.2083 0.96447 0.80626 0.0
C266 C 0.18037 0.95255 0.81264 0.0
C267 C 0.17072 0.968 0.80059 0.0
C268 C 0.19314 0.98841 0.78758 0.0
N269 N 0.21649 0.98701 0.7907 0.0
Co270 Co 0.25324 0.01258 0.77462 0.0
N271 N 0.24182 0.04048 0.76567 0.0
C272 C 0.21574 0.03619 0.76642 0.0
C273 C 0.21381 0.05899 0.75951 0.0
C274 C 0.24029 0.07898 0.75364 0.0
C275 C 0.25694 0.06711 0.75714 0.0
N276 N 0.28964 0.03797 0.75771 0.0
C277 C 0.30032 0.06438 0.74857 0.0
C278 C 0.32563 0.07322 0.73639 0.0
C279 C 0.33076 0.05152 0.73758 0.0
C280 C 0.30839 0.03066 0.75035 0.0
N281 N 0.2645 0.98473 0.78418 0.0
C282 C 0.28642 0.98377 0.77431 0.0
C283 C 0.28884 0.96197 0.78388 0.0
C284 C 0.26691 0.94816 0.80067 0.0
C285 C 0.25224 0.96231 0.8004 0.0
N286 N 0.23982 0.99404 0.74042 0.0
C287 C 0.24097 0.97096 0.69168 0.0
C288 C 0.23087 0.9543 0.71415 0.0
C289 C 0.22985 0.9661 0.7381 0.0
C290 C 0.24664 0.99853 0.69375 0.0
C291 C 0.24603 0.00962 0.71814 0.0
N292 N 0.26798 0.03097 0.80855 0.0
C293 C 0.30617 0.04993 0.8392 0.0
C294 C 0.29035 0.05427 0.85769 0.0
C295 C 0.26298 0.04694 0.85111 0.0
C296 C 0.2523 0.03569 0.82622 0.0
C297 C 0.2946 0.03804 0.81512 0.0
H298 H 0.23133 0.03044 0.82144 0.0
H299 H 0.30731 0.03407 0.80208 0.0
H300 H 0.22322 0.95295 0.75512 0.0
H301 H 0.25277 0.03141 0.71905 0.0
C302 C 0.19401 0.01141 0.77587 0.0
C303 C 0.22553 0.95246 0.8139 0.0
C304 C 0.28605 0.08072 0.7488 0.0
C305 C 0.30551 0.00515 0.75817 0.0
H306 H 0.16812 0.93446 0.82464 0.0
H307 H 0.15006 0.96525 0.8019 0.0
H308 H 0.19539 0.06094 0.75904 0.0
H309 H 0.24649 0.09969 0.74679 0.0
H310 H 0.3387 0.09306 0.72714 0.0
H311 H 0.34882 0.05115 0.73024 0.0
H312 H 0.30485 0.95691 0.77949 0.0
H313 H 0.26195 0.92953 0.8115 0.0
H314 H 0.22553 0.93274 0.71388 0.0
H315 H 0.25296 0.01208 0.6769 0.0
H316 H 0.32724 0.05494 0.84363 0.0
H317 H 0.25004 0.04995 0.86499 0.0
C318 C 0.66639 0.0558 0.66373 0.0
C319 C 0.66855 0.07829 0.67755 0.0
C320 C 0.68031 0.10065 0.6611 0.0
C321 C 0.68489 0.0908 0.63818 0.0
N322 N 0.67616 0.06339 0.63878 0.0
Co323 Co 0.6834 0.04292 0.61038 0.0
N324 N 0.69496 0.07372 0.58439 0.0
C325 C 0.70033 0.09957 0.59003 0.0
C326 C 0.70621 0.11603 0.56829 0.0
C327 C 0.70462 0.0996 0.54759 0.0
C328 C 0.69815 0.07396 0.55784 0.0
N329 N 0.6918 0.02286 0.58264 0.0
C330 C 0.6973 0.02824 0.55671 0.0
C331 C 0.70395 0.0096 0.54535 0.0
C332 C 0.70181 0.99154 0.56451 0.0
C333 C 0.69439 1.00028 0.58652 0.0
N334 N 0.67078 0.01134 0.63569 0.0
C335 C 0.6728 0.98841 0.63202 0.0
C336 C 0.66126 0.96931 0.65171 0.0
C337 C 0.65186 0.98109 0.66939 0.0
C338 C 0.65873 0.0071 0.65973 0.0
N339 N 0.64494 0.02726 0.59713 0.0
C340 C 0.59274 0.00902 0.57291 0.0
C341 C 0.60426 0.99153 0.57477 0.0
C342 C 0.63019 1.00094 0.58711 0.0
C343 C 0.60783 0.03552 0.58401 0.0
C344 C 0.63355 0.04413 0.59584 0.0
N345 N 0.72217 0.05993 0.62351 0.0
C346 C 0.75353 0.0762 0.66053 0.0
C347 C 0.77536 0.09611 0.64521 0.0
C348 C 0.77039 0.09525 0.61811 0.0
C349 C 0.74406 0.07667 0.60769 0.0
C350 C 0.72737 0.05878 0.64952 0.0
H351 H 0.74122 0.07701 0.58688 0.0
H352 H 0.71122 0.04536 0.66261 0.0
H353 H 0.63849 0.98708 0.58803 0.0
H354 H 0.64452 0.06497 0.60318 0.0
C355 C 0.6961 0.10627 0.61533 0.0
C356 C 0.65779 0.02855 0.67599 0.0
C357 C 0.69699 0.05095 0.54218 0.0
C358 C 0.68507 0.9852 0.6096 0.0
H359 H 0.66311 0.07882 0.69773 0.0
H360 H 0.68527 0.12169 0.66546 0.0
H361 H 0.71024 0.13719 0.56745 0.0
H362 H 0.70787 0.10591 0.52733 0.0
H363 H 0.70956 0.00891 0.52525 0.0
H364 H 0.70425 0.97349 0.56236 0.0
H365 H 0.66009 0.94932 0.65319 0.0
H366 H 0.64229 0.97211 0.68795 0.0
H367 H 0.59335 0.97072 0.56679 0.0
H368 H 0.60033 0.05011 0.58283 0.0
H369 H 0.75609 0.07427 0.68124 0.0
H370 H 0.78619 0.10952 0.60486 0.0
C371 C 0.95347 0.63441 0.55432 0.0
C372 C 0.93299 0.61186 0.54072 0.0
C373 C 0.92347 0.58936 0.55696 0.0
C374 C 0.93862 0.59923 0.57957 0.0
N375 N 0.95669 0.62675 0.57897 0.0
Co376 Co 0.98484 0.64752 0.60701 0.0
N377 N 0.96702 0.61654 0.63298 0.0
C378 C 0.94726 0.59041 0.62729 0.0
C379 C 0.93745 0.57381 0.64902 0.0
C380 C 0.95203 0.59046 0.66973 0.0
C381 C 0.9703 0.6164 0.65953 0.0
N382 N 0.0135 0.66802 0.63454 0.0
C383 C 0.01392 0.66298 0.66056 0.0
C384 C 0.03907 0.68213 0.67179 0.0
C385 C 0.05457 0.70014 0.65245 0.0
C386 C 0.03829 0.69087 0.63047 0.0
N387 N 1.00266 0.6792 0.58168 0.0
C388 C 0.02764 0.70215 0.58494 0.0
C389 C 0.03481 0.72094 0.565 0.0
C390 C 0.01336 0.70894 0.54757 0.0
C391 C 0.99436 0.68318 0.5577 0.0
N392 N 0.96149 0.66223 0.62091 0.0
C393 C 0.92704 0.67916 0.64605 0.0
C394 C 0.95552 0.69783 0.64226 0.0
C395 C 0.97237 0.68895 0.62974 0.0
C396 C 0.91626 0.65232 0.63596 0.0
C397 C 0.93359 0.64441 0.62355 0.0
N398 N 0.0071 0.63138 0.59306 0.0
C399 C 0.02033 0.61454 0.55522 0.0
C400 C 0.02548 0.59671 0.57061 0.0
C401 C 0.0232 0.59829 0.59787 0.0
C402 C 0.01441 0.61598 0.60867 0.0
C403 C 0.01145 0.6316 0.5667 0.0
H404 H 0.01237 0.61618 0.62962 0.0
H405 H 0.0067 0.64373 0.55371 0.0
H406 H 0.99425 0.70348 0.62776 0.0
H407 H 0.92422 0.62339 0.61675 0.0
C408 C 0.93566 0.58368 0.60216 0.0
C409 C 0.97153 0.66168 0.54188 0.0
C410 C 0.99147 0.63999 0.67527 0.0
C411 C 0.04349 0.70567 0.60724 0.0
H412 H 0.92631 0.61148 0.52076 0.0
H413 H 0.90763 0.56823 0.55265 0.0
H414 H 0.92082 0.55245 0.64988 0.0
H415 H 0.94926 0.58414 0.68998 0.0
H416 H 0.04555 0.68317 0.69191 0.0
H417 H 0.0748 0.71849 0.65446 0.0
H418 H 0.0536 0.74085 0.56316 0.0
H419 H 0.01246 0.71758 0.52887 0.0
H420 H 0.9649 0.71888 0.64961 0.0
H421 H 0.89439 0.63725 0.63773 0.0
H422 H 0.02169 0.61438 0.53412 0.0
H423 H 0.02771 0.58561 0.6108 0.0
C424 C 0.40596 0.36357 0.66051 0.0
C425 C 0.43182 0.37103 0.67085 0.0
C426 C 0.44826 0.3724 0.65024 0.0
C427 C 0.43163 0.36567 0.62844 0.0
N428 N 0.40574 0.36011 0.63399 0.0
Co429 Co 0.3751 0.34862 0.60781 0.0
N430 N 0.39493 0.33997 0.57992 0.0
C431 C 0.42209 0.34774 0.58085 0.0
C432 C 0.43113 0.34069 0.55877 0.0
C433 C 0.40851 0.32836 0.54251 0.0
C434 C 0.38679 0.32878 0.55542 0.0
N435 N 0.34381 0.33675 0.58208 0.0
C436 C 0.33954 0.32518 0.55768 0.0
C437 C 0.31543 0.32246 0.54659 0.0
C438 C 0.30453 0.33287 0.56412 0.0
C439 C 0.32242 0.3415 0.58492 0.0
N440 N 0.3555 0.35786 0.63536 0.0
C441 C 0.33351 0.36133 0.63131 0.0
C442 C 0.32403 0.36749 0.65363 0.0
C443 C 0.34105 0.36786 0.67316 0.0
C444 C 0.35995 0.36177 0.66162 0.0
N445 N 0.39312 0.38727 0.59415 0.0
C446 C 0.43105 0.43973 0.5727 0.0
C447 C 0.41332 0.41736 0.55673 0.0
C448 C 0.39452 0.39171 0.56771 0.0
C449 C 0.42748 0.43592 0.59989 0.0
C450 C 0.40837 0.40962 0.61019 0.0
N451 N 0.3586 0.31029 0.62153 0.0
C452 C 0.3222 0.27023 0.64392 0.0
C453 C 0.34 0.25937 0.64822 0.0
C454 C 0.36669 0.27399 0.63762 0.0
C455 C 0.37544 0.29901 0.62447 0.0
C456 C 0.33191 0.29571 0.63058 0.0
H457 H 0.39641 0.30965 0.61754 0.0
H458 H 0.31811 0.30398 0.6283 0.0
H459 H 0.38236 0.37519 0.55437 0.0
H460 H 0.40706 0.40708 0.63114 0.0
C461 C 0.43793 0.36006 0.60344 0.0
C462 C 0.38249 0.36119 0.67618 0.0
C463 C 0.35986 0.32102 0.54255 0.0
C464 C 0.31943 0.35368 0.60756 0.0
H465 H 0.4381 0.37498 0.69115 0.0
H466 H 0.4695 0.3767 0.65123 0.0
H467 H 0.45175 0.34414 0.55489 0.0
H468 H 0.40829 0.32071 0.52302 0.0
H469 H 0.30713 0.31519 0.52725 0.0
H470 H 0.28607 0.33455 0.56171 0.0
H471 H 0.3061 0.37011 0.65568 0.0
H472 H 0.3396 0.37199 0.69359 0.0
H473 H 0.41445 0.41937 0.53564 0.0
H474 H 0.44031 0.45269 0.61315 0.0
H475 H 0.30128 0.25968 0.65157 0.0
H476 H 0.38108 0.26631 0.63969 0.0
C477 C 0.73273 0.59321 0.13854 0.0
C478 C 0.74531 0.57763 0.14455 0.0
C479 C 0.73015 0.55257 0.13244 0.0
C480 C 0.70932 0.5542 0.11969 0.0
N481 N 0.71014 0.57865 0.12304 0.0
Co482 Co 0.68434 0.58949 0.10659 0.0
N483 N 0.65698 0.55016 0.09739 0.0
C484 C 0.66187 0.52873 0.09788 0.0
C485 C 0.63961 0.504 0.09023 0.0
C486 C 0.61935 0.51012 0.08414 0.0
C487 C 0.63045 0.53843 0.08842 0.0
N488 N 0.65877 0.60017 0.08924 0.0
C489 C 0.63249 0.58426 0.07983 0.0
C490 C 0.62329 0.60058 0.06777 0.0
C491 C 0.64467 0.62746 0.06916 0.0
C492 C 0.66569 0.62616 0.08202 0.0
N493 N 0.71167 0.62863 0.11636 0.0
C494 C 0.71222 0.65139 0.10659 0.0
C495 C 0.73354 0.67566 0.11652 0.0
C496 C 0.74752 0.66773 0.13342 0.0
C497 C 0.73399 0.63896 0.13278 0.0
N498 N 0.70327 0.5949 0.07268 0.0
C499 C 0.72682 0.61898 1.02415 0.0
C500 C 0.74322 0.62568 0.04687 0.0
C501 C 0.73119 0.61295 0.07073 0.0
C502 C 0.69929 0.59707 1.02591 0.0
C503 C 0.68796 0.58545 0.05021 0.0
N504 N 0.66551 0.58545 0.14028 0.0
C505 C 0.64542 0.60386 0.17048 0.0
C506 C 0.64105 0.58361 0.18895 0.0
C507 C 0.64904 0.564 0.18255 0.0
C508 C 0.66087 0.56502 0.1579 0.0
C509 C 0.65789 0.60465 0.14667 0.0
H510 H 0.66655 0.54958 0.15326 0.0
H511 H 0.6618 0.62135 0.13367 0.0
H512 H 0.74414 0.61956 0.08793 0.0
H513 H 0.6662 0.57037 0.05086 0.0
C514 C 0.68674 0.53207 0.10755 0.0
C515 C 0.74432 0.62237 0.1462 0.0
C516 C 0.61647 0.55368 0.0801 0.0
C517 C 0.69086 0.64891 0.0902 0.0
H518 H 0.76377 0.58378 0.15616 0.0
H519 H 0.73352 0.535 0.13337 0.0
H520 H 0.63824 0.4839 0.08925 0.0
H521 H 0.59906 0.49549 0.07647 0.0
H522 H 0.60337 0.5937 0.05854 0.0
H523 H 0.64471 0.64581 0.06199 0.0
H524 H 0.73814 0.69662 0.11232 0.0
H525 H 0.76585 0.68155 0.14457 0.0
H526 H 0.76474 0.64195 0.04683 0.0
H527 H 0.68596 0.58979 1.00887 0.0
H528 H 0.63998 0.61965 0.17474 0.0
H529 H 0.64605 0.54799 0.19638 0.0
C530 C 0.43125 0.14387 0.13834 0.0
C531 C 0.44756 0.1718 0.14472 0.0
C532 C 0.47245 0.18109 0.13251 0.0
C533 C 0.47002 0.15847 0.1194 0.0
N534 N 0.4452 0.13535 0.12261 0.0
Co535 Co 0.43341 0.09838 0.10655 0.0
N536 N 0.47245 0.1091 0.09766 0.0
C537 C 0.4944 0.13506 0.09812 0.0
C538 C 0.51886 0.13651 0.09116 0.0
C539 C 0.51201 0.10982 0.08556 0.0
C540 C 0.48355 0.09352 0.0893 0.0
N541 N 0.42179 0.06166 0.08988 0.0
C542 C 0.43715 0.05041 0.08107 0.0
C543 C 0.42038 0.02506 0.06898 0.0
C544 C 0.39377 0.02051 0.06986 0.0
C545 C 0.39569 0.04325 0.0824 0.0
N546 N 0.39456 0.08795 0.11584 0.0
C547 C 0.37152 0.0664 0.10573 0.0
C548 C 0.34754 0.06456 0.11516 0.0
C549 C 0.35602 0.08649 0.13213 0.0
C550 C 0.38479 0.10057 0.13208 0.0
N551 N 0.42853 0.11183 0.07231 0.0
C552 C 0.40364 0.11079 1.02413 0.0
C553 C 0.39907 0.12292 0.04623 0.0
C554 C 0.41194 0.12348 0.07007 0.0
C555 C 0.42377 0.10271 1.02597 0.0
C556 C 0.43628 0.10384 0.05005 0.0
N557 N 0.43683 0.08362 0.14051 0.0
C558 C 0.41694 0.04574 0.1713 0.0
C559 C 0.4378 0.06101 0.18954 0.0
C560 C 0.45846 0.08803 0.18266 0.0
C561 C 0.4578 0.09883 0.15788 0.0
C562 C 0.41667 0.0574 0.14729 0.0
H563 H 0.47397 0.11951 0.15291 0.0
H564 H 0.39959 0.0451 0.13443 0.0
H565 H 0.40653 0.13116 0.08711 0.0
H566 H 0.45036 0.09586 0.05091 0.0
C567 C 0.4918 0.15714 0.10753 0.0
C568 C 0.40206 0.12699 0.146 0.0
C569 C 0.4677 0.06426 0.08136 0.0
C570 C 0.37339 0.04686 0.08979 0.0
H571 H 0.44203 0.18428 0.1568 0.0
H572 H 0.4905 0.20163 0.13378 0.0
H573 H 0.53931 0.15474 0.09051 0.0
H574 H 0.52624 0.10324 0.07873 0.0
H575 H 0.42684 0.0116 0.05992 0.0
H576 H 0.37522 1.00263 0.06244 0.0
H577 H 0.32641 0.04886 0.11066 0.0
H578 H 0.34261 0.09177 0.14298 0.0
H579 H 0.38413 0.13002 0.04566 0.0
H580 H 0.42882 0.0942 1.00919 0.0
H581 H 0.40024 0.02507 0.17586 0.0
H582 H 0.47498 0.10062 0.19625 0.0
C583 C 0.87849 0.29785 0.13912 0.0
C584 C 0.85078 0.28635 0.14623 0.0
C585 C 0.84158 0.30297 0.13591 0.0
C586 C 0.86398 0.32351 0.12303 0.0
N587 N 0.88691 0.32114 0.12458 0.0
Co588 Co 0.92305 0.34602 0.10709 0.0
N589 N 0.91265 0.37514 0.10037 0.0
C590 C 0.88695 0.37164 0.1026 0.0
C591 C 0.88539 0.39477 0.09633 0.0
C592 C 0.91169 0.41418 0.0893 0.0
C593 C 0.92796 0.40173 0.09168 0.0
N594 N 0.95878 0.37071 0.08873 0.0
C595 C 0.9698 0.39731 0.07995 0.0
C596 C 0.99447 0.40556 0.06674 0.0
C597 C 0.99867 0.38326 0.06665 0.0
C598 C 0.9765 0.36267 0.07985 0.0
N599 N 0.93333 0.31692 0.11438 0.0
C600 C 0.95436 0.31539 0.10308 0.0
C601 C 0.95653 0.29309 0.11154 0.0
C602 C 0.93533 0.2795 0.12909 0.0
C603 C 0.92123 0.2942 0.13027 0.0
N604 N 0.90732 0.32825 0.07309 0.0
C605 C 0.90684 0.30579 1.02367 0.0
C606 C 0.89675 0.28872 0.04587 0.0
C607 C 0.89649 0.30023 0.07019 0.0
C608 C 0.91293 0.33344 1.02637 0.0
C609 C 0.9131 0.34423 0.05112 0.0
N610 N 0.94007 0.36353 0.14079 0.0
C611 C 0.97936 0.37924 0.16978 0.0
C612 C 0.96521 0.38375 0.19004 0.0
C613 C 0.93831 0.37901 0.1846 0.0
C614 C 0.92615 0.36899 0.15981 0.0
C615 C 0.9665 0.36899 0.14577 0.0
H616 H 0.90537 0.3651 0.15623 0.0
H617 H 0.97806 0.3649 0.13147 0.0
H618 H 0.89 0.28679 0.087 0.0
H619 H 0.92033 0.36609 0.05252 0.0
C620 C 0.8652 0.34707 0.11233 0.0
C621 C 0.89515 0.28468 0.1449 0.0
C622 C 0.95654 0.41457 0.08179 0.0
C623 C 0.97308 0.33672 0.08671 0.0
H624 H 0.83826 0.26766 0.15738 0.0
H625 H 0.82118 0.30068 0.13807 0.0
H626 H 0.86727 0.39724 0.09679 0.0
H627 H 0.91782 0.43478 0.08224 0.0
H628 H 0.00778 0.42546 0.05768 0.0
H629 H 0.01604 0.38232 0.05824 0.0
H630 H 0.97195 0.2876 0.10597 0.0
H631 H 0.93052 0.26067 0.13947 0.0
H632 H 0.89102 0.26706 0.04511 0.0
H633 H 0.91918 0.34729 1.00975 0.0
H634 H 1.00041 0.38333 0.1724 0.0
H635 H 0.92644 0.38225 0.19953 0.0
C636 C 0.33192 0.38221 0.9964 0.0
C637 C 0.33419 0.40501 1.00969 0.0
C638 C 0.34756 0.42738 0.99338 0.0
C639 C 0.35284 0.4172 0.97102 0.0
N640 N 0.34304 0.38959 0.97184 0.0
Co641 Co 0.35016 0.36831 0.94419 0.0
N642 N 0.36391 0.39923 0.9181 0.0
C643 C 0.37107 0.42562 0.92364 0.0
C644 C 0.37923 0.44241 0.90195 0.0
C645 C 0.37716 0.42556 0.88141 0.0
C646 C 0.3679 0.39932 0.89169 0.0
N647 N 0.35789 0.34724 0.91691 0.0
C648 C 0.36279 0.3518 0.89077 0.0
C649 C 0.36714 0.3316 0.87942 0.0
C650 C 0.36453 0.31363 0.89891 0.0
C651 C 0.35889 0.32384 0.92105 0.0
N652 N 0.33585 0.33676 0.96975 0.0
C653 C 0.33754 0.31355 0.96679 0.0
C654 C 0.32585 0.29502 0.9869 0.0
C655 C 0.31671 0.30746 1.00411 0.0
C656 C 0.32368 0.3332 0.99368 0.0
N657 N 0.31236 0.35409 0.92993 0.0
C658 C 0.26156 0.33751 0.90379 0.0
C659 C 0.27085 0.31853 0.90857 0.0
C660 C 0.29629 0.32723 0.92159 0.0
C661 C 0.27781 0.36453 0.91342 0.0
C662 C 0.30279 0.37227 0.92638 0.0
N663 N 0.38836 0.38389 0.95848 0.0
C664 C 0.4182 0.40078 0.99654 0.0
C665 C 0.44127 0.41815 0.98122 0.0
C666 C 0.43761 0.41629 0.95393 0.0
C667 C 0.41118 0.39877 0.94298 0.0
C668 C 0.39231 0.38391 0.98492 0.0
H669 H 0.40906 0.39831 0.922 0.0
H670 H 0.37534 0.37218 0.99784 0.0
H671 H 0.30322 0.31242 0.92431 0.0
H672 H 0.31467 0.39342 0.93285 0.0
C673 C 0.36602 0.43261 0.94855 0.0
C674 C 0.32238 0.35497 1.00912 0.0
C675 C 0.36452 0.37537 0.87609 0.0
C676 C 0.34933 0.3094 0.94446 0.0
H677 H 0.32783 0.40565 0.02953 0.0
H678 H 0.35316 0.44865 0.99751 0.0
H679 H 0.38505 0.46411 0.90099 0.0
H680 H 0.38194 0.43187 0.86121 0.0
H681 H 0.37147 0.32988 0.85911 0.0
H682 H 0.36528 0.29462 0.8969 0.0
H683 H 0.3244 0.27495 0.98895 0.0
H684 H 0.30714 0.29908 1.02282 0.0
H685 H 0.25902 0.29735 0.9016 0.0
H686 H 0.27137 0.37985 0.91086 0.0
H687 H 0.4196 0.40119 1.01766 0.0
H688 H 0.4549 0.42863 0.94108 0.0
C689 C 0.62465 0.97053 0.88934 0.0
C690 C 0.60505 0.94706 0.87612 0.0
C691 C 0.59642 0.92521 0.89301 0.0
C692 C 0.61119 0.93634 0.91558 0.0
N693 N 0.6282 0.96407 0.91439 0.0
Co694 Co 0.65621 0.98655 0.94205 0.0
N695 N 0.64003 0.95589 0.96849 0.0
C696 C 0.62127 0.92926 0.96327 0.0
C697 C 0.6136 0.91259 0.98501 0.0
C698 C 0.62854 0.92975 1.00529 0.0
C699 C 0.64454 0.95608 0.99483 0.0
N700 N 0.68489 0.00881 0.9692 0.0
C701 C 0.68596 0.00452 0.99533 0.0
C702 C 0.70909 0.02671 1.00678 0.0
C703 C 0.72328 0.04507 0.98729 0.0
C704 C 0.70798 0.03349 0.96512 0.0
N705 N 0.67205 0.01789 0.91619 0.0
C706 C 0.69567 0.04231 0.91934 0.0
C707 C 0.70098 0.06075 0.89941 0.0
C708 C 0.67975 0.04699 0.88206 0.0
C709 C 0.66285 0.02062 0.89221 0.0
N710 N 0.63144 0.99961 0.95594 0.0
C711 C 0.59574 0.01461 0.98168 0.0
C712 C 0.62377 0.03425 0.97708 0.0
C713 C 0.64122 0.02634 0.96428 0.0
C714 C 0.58594 0.98771 0.97205 0.0
C715 C 0.60388 0.98076 0.95929 0.0
N716 N 0.67995 0.97201 0.92817 0.0
C717 C 0.69402 0.95605 0.89026 0.0
C718 C 0.69749 0.93682 0.90523 0.0
C719 C 0.69505 0.93811 0.93253 0.0
C720 C 0.68695 0.95622 0.94355 0.0
C721 C 0.68524 0.97314 0.90193 0.0
H722 H 0.68484 0.95611 0.96449 0.0
H723 H 0.68143 0.98609 0.88913 0.0
H724 H 0.66272 0.04175 0.96175 0.0
H725 H 0.59533 0.9597 0.95279 0.0
C726 C 0.60936 0.92156 0.93838 0.0
C727 C 0.64153 0.99772 0.87637 0.0
C728 C 0.66568 0.97993 1.01007 0.0
C729 C 0.71169 0.0477 0.94178 0.0
H730 H 0.59842 0.94557 0.85601 0.0
H731 H 0.58156 0.90364 0.88908 0.0
H732 H 0.59855 0.89067 0.98611 0.0
H733 H 0.62809 0.92351 1.0254 0.0
H734 H 0.71488 0.02992 0.02719 0.0
H735 H 0.74159 0.06533 0.98938 0.0
H736 H 0.71835 0.08165 0.89761 0.0
H737 H 0.67767 0.05498 0.86342 0.0
H738 H 0.63244 0.05537 0.98405 0.0
H739 H 0.5644 0.97187 0.97445 0.0
H740 H 0.69721 0.95753 0.86934 0.0
H741 H 0.69804 0.92439 0.94542 0.0
C742 C 0.05153 0.66492 0.88899 0.0
C743 C 0.07426 0.66752 0.87535 0.0
C744 C 0.09662 0.67999 0.89187 0.0
C745 C 0.08655 0.68451 0.91466 0.0
N746 N 0.05901 0.67507 0.91394 0.0
Co747 Co 0.03818 0.68208 0.94218 0.0
N748 N 0.06919 0.69497 0.96818 0.0
C749 C 0.09537 0.70157 0.96251 0.0
C750 C 0.11228 0.7092 0.98416 0.0
C751 C 0.09574 0.70736 1.00483 0.0
C752 C 0.06955 0.69878 0.99466 0.0
N753 N 0.01758 0.68988 0.9699 0.0
C754 C 0.0225 0.69475 0.99601 0.0
C755 C 1.00266 0.69938 1.00769 0.0
C756 C 0.98447 0.69692 0.98845 0.0
C757 C 0.99424 0.69111 0.96613 0.0
N758 N 1.00648 0.66846 0.91676 0.0
C759 C 0.98309 0.66963 0.92041 0.0
C760 C 0.96399 0.65749 0.90073 0.0
C761 C 0.97624 0.64862 0.88305 0.0
C762 C 1.00252 0.6564 0.89269 0.0
N763 N 0.02355 0.64387 0.95579 0.0
C764 C 0.00662 0.5922 0.98061 0.0
C765 C 0.98844 0.60284 0.97808 0.0
C766 C 0.99718 0.62849 0.96546 0.0
C767 C 0.03317 0.60788 0.96983 0.0
C768 C 0.04113 0.63335 0.95772 0.0
N769 N 0.05425 0.72065 0.92867 0.0
C770 C 0.07221 0.75127 0.89129 0.0
C771 C 0.08973 0.77399 0.90712 0.0
C772 C 0.08723 0.76969 0.93434 0.0
C773 C 0.06926 0.74309 0.94466 0.0
C774 C 0.05462 0.72523 0.90233 0.0
H775 H 0.06853 0.74052 0.96559 0.0
H776 H 0.04255 0.70861 0.88907 0.0
H777 H 0.98276 0.63605 0.96405 0.0
H778 H 0.06204 0.64486 0.95067 0.0
C779 C 0.10208 0.69689 0.93736 0.0
C780 C 0.02425 0.65602 0.8764 0.0
C781 C 0.04598 0.69594 1.01042 0.0
C782 C 0.97931 0.6814 0.94295 0.0
H783 H 0.075 0.6621 0.8552 0.0
H784 H 0.11784 0.6856 0.88756 0.0
H785 H 0.13387 0.71462 0.98498 0.0
H786 H 0.10221 0.71191 1.02504 0.0
H787 H 1.00125 0.70373 0.02807 0.0
H788 H 0.96558 0.69781 0.99076 0.0
H789 H 0.94365 0.65551 0.8993 0.0
H790 H 0.96733 0.63871 0.86455 0.0
H791 H 0.96756 0.59146 0.98577 0.0
H792 H 0.04826 0.60104 0.97148 0.0
H793 H 0.07292 0.75297 0.8702 0.0
H794 H 0.09943 0.78659 0.94769 0.0
C795 C 0.29834 0.87902 0.41482 0.0
C796 C 0.28707 0.85138 0.40744 0.0
C797 C 0.30294 0.84188 0.41891 0.0
C798 C 0.32293 0.86409 0.43259 0.0
N799 N 0.32087 0.88716 0.43044 0.0
Co800 Co 0.34556 0.92346 0.44782 0.0
N801 N 0.37431 0.91288 0.45556 0.0
C802 C 0.37059 0.88703 0.45413 0.0
C803 C 0.39361 0.88548 0.46095 0.0
C804 C 0.41316 0.91197 0.46746 0.0
C805 C 0.40089 0.92832 0.46425 0.0
N806 N 0.37008 0.95938 0.46598 0.0
C807 C 0.39666 0.97055 0.47485 0.0
C808 C 0.40486 0.99538 0.48785 0.0
C809 C 0.38254 0.99955 0.48764 0.0
C810 C 0.36197 0.97719 0.47448 0.0
N811 N 0.3168 0.93386 0.4395 0.0
C812 C 0.31495 0.95482 0.45061 0.0
C813 C 0.29271 0.95681 0.44158 0.0
C814 C 0.27957 0.93561 0.42383 0.0
C815 C 0.29453 0.92176 0.42303 0.0
N816 N 0.32728 0.9083 0.48171 0.0
C817 C 0.30422 0.90821 0.53073 0.0
C818 C 0.28746 0.89808 0.50826 0.0
C819 C 0.29926 0.89764 0.48415 0.0
C820 C 0.33191 0.91432 0.52848 0.0
C821 C 0.34298 0.9143 0.50394 0.0
N822 N 0.3636 0.93993 0.41426 0.0
C823 C 0.3798 0.9788 0.38481 0.0
C824 C 0.3847 0.96435 0.36508 0.0
C825 C 0.37989 0.93754 0.37104 0.0
C826 C 0.36942 0.92574 0.3958 0.0
C827 C 0.36911 0.96628 0.40879 0.0
H828 H 0.36548 0.90501 0.39978 0.0
H829 H 0.36474 0.97803 0.42268 0.0
H830 H 0.28604 0.89108 0.46712 0.0
H831 H 0.36487 0.92153 0.50291 0.0
C832 C 0.34611 0.86519 0.44417 0.0
C833 C 0.28566 0.89591 0.40818 0.0
C834 C 0.4139 0.95725 0.47328 0.0
C835 C 0.33605 0.97369 0.46722 0.0
H836 H 0.26908 0.83919 0.39523 0.0
H837 H 0.3007 0.82148 0.41683 0.0
H838 H 0.39597 0.86728 0.46105 0.0
H839 H 0.43377 0.91823 0.47467 0.0
H840 H 0.42475 0.00882 0.49695 0.0
H841 H 0.38158 0.01703 0.49577 0.0
H842 H 0.28698 0.97213 0.44691 0.0
H843 H 0.26087 0.93059 0.41305 0.0
H844 H 0.2658 0.89237 0.50865 0.0
H845 H 0.34555 0.92063 0.5453 0.0
H846 H 0.38392 0.9998 0.38179 0.0
H847 H 0.38341 0.92546 0.35654 0.0
C848 C 0.1464 0.42452 0.41646 0.0
C849 C 0.17452 0.44057 0.41079 0.0
C850 C 0.18383 0.46544 0.42315 0.0
C851 C 0.16107 0.46323 0.43569 0.0
N852 N 0.13783 0.4386 0.43199 0.0
Co853 Co 0.10088 0.42699 0.4479 0.0
N854 N 0.11191 0.46606 0.45726 0.0
C855 C 0.13803 0.48774 0.45738 0.0
C856 C 0.13988 0.51218 0.46516 0.0
C857 C 0.11329 0.50561 0.47068 0.0
C858 C 0.09658 0.47732 0.46594 0.0
N859 N 0.06418 0.41557 0.46443 0.0
C860 C 0.05308 0.43104 0.47333 0.0
C861 C 0.02747 0.41429 0.48487 0.0
C862 C 0.02266 0.38759 0.48367 0.0
C863 C 0.04547 0.38943 0.47144 0.0
N864 N 0.09016 0.38809 0.43822 0.0
C865 C 0.0683 0.36508 0.4479 0.0
C866 C 0.0661 0.34105 0.43812 0.0
C867 C 0.08814 0.34943 0.42142 0.0
C868 C 0.10272 0.37822 0.42202 0.0
N869 N 0.11415 0.42171 0.48206 0.0
C870 C 0.11335 0.39667 0.52995 0.0
C871 C 0.1255 0.39229 0.50782 0.0
C872 C 0.12589 0.40519 0.4841 0.0
C873 C 0.10503 0.41663 0.52834 0.0
C874 C 0.1061 0.42926 0.5044 0.0
N875 N 0.0863 0.43088 0.41398 0.0
C876 C 0.04837 0.41169 0.38308 0.0
C877 C 0.06362 0.43291 0.36524 0.0
C878 C 0.09071 0.45332 0.37234 0.0
C879 C 0.10155 0.45213 0.39698 0.0
C880 C 0.06005 0.41091 0.40694 0.0
H881 H 0.12226 0.46814 0.40216 0.0
H882 H 0.0477 0.39363 0.41949 0.0
H883 H 0.13356 0.39989 0.46699 0.0
H884 H 0.09803 0.44327 0.50371 0.0
C885 C 0.15996 0.48495 0.44798 0.0
C886 C 0.12945 0.39534 0.4086 0.0
C887 C 0.06717 0.46163 0.47338 0.0
C888 C 0.0488 0.36704 0.46374 0.0
H889 H 0.18719 0.43484 0.39928 0.0
H890 H 0.20456 0.48325 0.42252 0.0
H891 H 0.15834 0.53242 0.46653 0.0
H892 H 0.10715 0.51993 0.47821 0.0
H893 H 0.01395 0.42078 0.49372 0.0
H894 H 1.00452 0.36903 0.4906 0.0
H895 H 0.05009 0.31995 0.4422 0.0
H896 H 0.09313 0.3359 0.41037 0.0
H897 H 0.13275 0.37745 0.50829 0.0
H898 H 0.0964 0.42142 0.54518 0.0
H899 H 0.02765 0.39515 0.37833 0.0
H900 H 0.10331 0.4701 0.35906 0.0
C901 C 0.54841 0.6291 0.46979 0.0
C902 C 0.5206 0.61734 0.47659 0.0
C903 C 0.51103 0.63316 0.46518 0.0
C904 C 0.53336 0.65358 0.45208 0.0
N905 N 0.55657 0.6518 0.45445 0.0
Co906 Co 0.59324 0.67732 0.4381 0.0
N907 N 0.58203 0.70553 0.42985 0.0
C908 C 0.55626 0.70186 0.43204 0.0
C909 C 0.55472 0.72519 0.42666 0.0
C910 C 0.58109 0.74487 0.42015 0.0
C911 C 0.59722 0.7322 0.42144 0.0
N912 N 0.62967 0.70278 0.42107 0.0
C913 C 0.64023 0.72909 0.41157 0.0
C914 C 0.66532 0.73767 0.39904 0.0
C915 C 0.67045 0.71599 0.40035 0.0
C916 C 0.64827 0.69534 0.4135 0.0
N917 N 0.60419 0.64905 0.44689 0.0
C918 C 0.6259 0.64797 0.43665 0.0
C919 C 0.62819 0.62596 0.44581 0.0
C920 C 0.60641 0.61215 0.46276 0.0
C921 C 0.59196 0.62652 0.46297 0.0
N922 N 0.57941 0.65914 0.40382 0.0
C923 C 0.58098 0.63579 0.35559 0.0
C924 C 0.56897 0.61892 0.37755 0.0
C925 C 0.56817 0.63098 0.40145 0.0
C926 C 0.58857 0.66385 0.35752 0.0
C927 C 0.58702 0.67493 0.3816 0.0
N928 N 0.60841 0.6953 0.47212 0.0
C929 C 0.64669 0.71313 0.50263 0.0
C930 C 0.63144 0.71808 0.52136 0.0
C931 C 0.60423 0.71153 0.51483 0.0
C932 C 0.59322 0.70047 0.48997 0.0
C933 C 0.63485 0.70162 0.47852 0.0
H934 H 0.57238 0.69577 0.48537 0.0
H935 H 0.64718 0.6973 0.46532 0.0
H936 H 0.56069 0.61779 0.41842 0.0
H937 H 0.59444 0.69685 0.38251 0.0
C938 C 0.53448 0.67708 0.44139 0.0
C939 C 0.56561 0.61697 0.47705 0.0
C940 C 0.6256 0.74513 0.41103 0.0
C941 C 0.64509 0.66958 0.42079 0.0
H942 H 0.50842 0.59919 0.48854 0.0
H943 H 0.49054 0.63072 0.4671 0.0
H944 H 0.53664 0.72771 0.42766 0.0
H945 H 0.5875 0.76592 0.41428 0.0
H946 H 0.67814 0.75722 0.38921 0.0
H947 H 0.68821 0.71536 0.39257 0.0
H948 H 0.64408 0.62083 0.44113 0.0
H949 H 0.60148 0.59345 0.47345 0.0
H950 H 0.56221 0.59697 0.37685 0.0
H951 H 0.597 0.6775 0.3408 0.0
H952 H 0.66752 0.71727 0.50687 0.0
H953 H 0.59163 0.71499 0.52876 0.0
H954 H 0.99003 0.68268 0.17351 0.0
H955 H 0.07605 0.74565 0.17879 0.0
H956 H 0.99491 0.6786 0.12651 0.0
H957 H 0.08155 0.74121 0.13182 0.0
H958 H 0.07801 0.74228 0.04109 0.0
H959 H 0.0743 0.74821 0.08811 0.0
H960 H 0.01108 0.66184 0.09382 0.0
H961 H 0.01443 0.65654 0.04678 0.0
C962 C 0.01 0.69594 0.16451 0.0
C963 C 0.03245 0.71491 0.18003 0.0
C964 C 0.01302 0.69333 0.13742 0.0
C965 C 0.03879 0.70934 0.12465 0.0
C966 C 0.0612 0.72864 0.14031 0.0
C967 C 0.05809 0.73131 0.16744 0.0
C968 C 0.06371 0.72446 0.05254 0.0
C969 C 0.04689 0.69878 0.04006 0.0
C970 C 0.06145 0.72782 0.07971 0.0
C971 C 0.04217 0.70563 0.09548 0.0
C972 C 0.02581 0.67979 0.08282 0.0
C973 C 0.028 0.67652 0.0557 0.0
H974 H 0.35596 0.34873 0.04476 0.0
H975 H 0.28109 0.35345 0.04077 0.0
H976 H 0.3497 0.34038 0.0918 0.0
H977 H 0.27445 0.34487 0.08805 0.0
H978 H 0.28505 0.35362 0.179 0.0
H979 H 0.28956 0.36187 0.13166 0.0
H980 H 0.32349 0.30723 0.12429 0.0
H981 H 0.31926 0.29951 0.17158 0.0
C982 C 0.33809 0.34801 0.05397 0.0
C983 C 0.31901 0.3517 0.03873 0.0
C984 C 0.3343 0.34296 0.08111 0.0
C985 C 0.31131 0.34152 0.09429 0.0
C986 C 0.29254 0.34591 0.07905 0.0
C987 C 0.29629 0.35083 0.05177 0.0
C988 C 0.2931 0.34308 0.16716 0.0
C989 C 0.30155 0.32568 0.17924 0.0
C990 C 0.29572 0.3478 0.13986 0.0
C991 C 0.30714 0.33548 0.12357 0.0
C992 C 0.31506 0.31762 0.13579 0.0
C993 C 0.31231 0.31284 0.16304 0.0
H994 H 0.65521 0.95436 0.18224 0.0
H995 H 0.73481 0.02671 0.16819 0.0
H996 H 0.64648 0.94817 0.13502 0.0
H997 H 0.72662 0.01991 0.12077 0.0
H998 H 0.71025 0.98214 0.03626 0.0
H999 H 0.71918 0.98514 0.08347 0.0
H1000 H 0.63825 0.97498 0.09778 0.0
H1001 H 0.62985 0.97317 0.05038 0.0
C1002 C 0.67102 0.96882 0.16904 0.0
C1003 C 0.69555 0.99136 0.1792 0.0
C1004 C 0.66595 0.96532 0.14189 0.0
C1005 C 0.68563 0.98368 0.12382 0.0
C1006 C 0.71089 0.00531 0.13394 0.0
C1007 C 0.71567 0.0092 0.16118 0.0
C1008 C 0.69434 0.98058 0.04947 0.0
C1009 C 0.6695 0.97795 0.03932 0.0
C1010 C 0.69952 0.98238 0.07661 0.0
C1011 C 0.67964 0.98064 0.0947 0.0
C1012 C 0.65414 0.97645 0.0846 0.0
C1013 C 0.64924 0.97533 0.05736 0.0
H1014 H 0.66218 0.01148 0.50745 0.0
H1015 H 0.738 0.09009 0.50965 0.0
H1016 H 0.66834 0.00732 0.46125 0.0
H1017 H 0.74307 0.08785 0.46263 0.0
H1018 H 0.7592 0.07174 0.37881 0.0
H1019 H 0.75431 0.07503 0.42583 0.0
H1020 H 0.66722 0.01324 0.41945 0.0
H1021 H 0.67334 0.00826 0.37349 0.0
C1022 C 0.67981 0.02843 0.49778 0.0
C1023 C 0.69919 0.05137 0.5125 0.0
C1024 C 0.68341 0.02622 0.47081 0.0
C1025 C 0.70628 0.04728 0.45696 0.0
C1026 C 0.72533 0.07068 0.4718 0.0
C1027 C 0.72208 0.07245 0.49903 0.0
C1028 C 0.7392 0.05845 0.3877 0.0
C1029 C 0.71675 0.03968 0.37209 0.0
C1030 C 0.73609 0.06064 0.41492 0.0
C1031 C 0.71016 0.04461 0.42759 0.0
C1032 C 0.68782 0.02579 0.4116 0.0
C1033 C 0.69119 0.02307 0.38469 0.0
H1034 H 0.01198 0.66763 0.50748 0.0
H1035 H 0.93282 0.66399 0.50909 0.0
H1036 H 0.01546 0.67669 0.46052 0.0
H1037 H 0.93614 0.67319 0.46183 0.0
H1038 H 0.94094 0.66523 0.37091 0.0
H1039 H 0.93557 0.65615 0.41814 0.0
H1040 H 0.02354 0.71118 0.42865 0.0
H1041 H 0.02864 0.71981 0.3815 0.0
C1042 C 0.99521 0.6687 0.49775 0.0
C1043 C 0.97215 0.66513 0.51229 0.0
C1044 C 0.99729 0.67416 0.47068 0.0
C1045 C 0.97628 0.67611 0.45688 0.0
C1046 C 0.95279 0.67178 0.47138 0.0
C1047 C 0.95082 0.66649 0.49861 0.0
C1048 C 0.95902 0.67568 0.38342 0.0
C1049 C 0.98518 0.69349 0.37232 0.0
C1050 C 0.95599 0.67048 0.41064 0.0
C1051 C 0.97909 0.68268 0.42773 0.0
C1052 C 1.00519 0.70091 0.41647 0.0
C1053 C 0.00815 0.7062 0.38933 0.0
H1054 H 0.31788 0.27643 0.51568 0.0
H1055 H 0.39198 0.3548 0.50208 0.0
H1056 H 0.3085 0.27103 0.46839 0.0
H1057 H 0.38348 0.34866 0.45478 0.0
H1058 H 0.37122 0.31075 0.36988 0.0
H1059 H 0.37979 0.31355 0.41712 0.0
H1060 H 0.29696 0.29828 0.43116 0.0
H1061 H 0.28893 0.29702 0.38364 0.0
C1062 C 0.33244 0.29234 0.50262 0.0
C1063 C 0.3558 0.31603 0.51303 0.0
C1064 C 0.32697 0.28929 0.47542 0.0
C1065 C 0.34514 0.3094 0.45747 0.0
C1066 C 0.36901 0.33261 0.4678 0.0
C1067 C 0.37403 0.33605 0.49503 0.0
C1068 C 0.35482 0.30816 0.38297 0.0
C1069 C 0.32956 0.30434 0.37264 0.0
C1070 C 0.35977 0.30976 0.41018 0.0
C1071 C 0.33925 0.30647 0.42826 0.0
C1072 C 0.31337 0.30101 0.41801 0.0
C1073 C 0.3087 0.30021 0.39068 0.0
H1074 H 1.00128 0.28527 0.8997 0.0
H1075 H 0.91784 0.21973 0.88239 0.0
H1076 H 0.9846 0.29782 0.93784 0.0
H1077 H 0.90072 0.2341 0.91956 0.0
H1078 H 0.88179 0.25254 1.00249 0.0
H1079 H 0.89697 0.23646 0.96511 0.0
H1080 H 0.96156 0.32071 0.94996 0.0
H1081 H 0.94821 0.33631 0.9883 0.0
C1082 C 0.97934 0.27326 0.90399 0.0
C1083 C 0.96109 0.25125 0.88761 0.0
C1084 C 0.96958 0.28098 0.92578 0.0
C1085 C 0.9411 0.26745 0.93181 0.0
C1086 C 0.92281 0.24508 0.91579 0.0
C1087 C 0.93266 0.23703 0.89411 0.0
C1088 C 0.89942 0.26767 0.9914 0.0
C1089 C 0.91366 0.29587 0.99886 0.0
C1090 C 0.90795 0.25842 0.9696 0.0
C1091 C 0.93083 0.27711 0.95443 0.0
C1092 C 0.94434 0.30539 0.96136 0.0
C1093 C 0.93614 0.31453 0.98327 0.0
H1094 H 0.78059 0.6477 1.00452 0.0
H1095 H 0.69707 0.63019 0.98793 0.0
H1096 H 0.79742 0.67904 0.96722 0.0
H1097 H 0.71344 0.65928 0.94972 0.0
H1098 H 0.74941 0.73373 0.89883 0.0
H1099 H 0.73647 0.70511 0.93739 0.0
H1100 H 0.80066 0.68488 0.92158 0.0
H1101 H 0.81541 0.71577 0.88396 0.0
C1102 C 0.76569 0.65022 0.99293 0.0
C1103 C 0.73731 0.63613 0.99965 0.0
C1104 C 0.77537 0.66804 0.97119 0.0
C1105 C 0.75696 0.67218 0.95534 0.0
C1106 C 0.72854 0.6574 0.96162 0.0
C1107 C 0.71896 0.63999 0.98346 0.0
C1108 C 0.76147 0.72396 0.90376 0.0
C1109 C 0.78369 0.72749 0.88789 0.0
C1110 C 0.75352 0.70682 0.9258 0.0
C1111 C 0.76703 0.69197 0.93262 0.0
C1112 C 0.78968 0.69591 0.91718 0.0
C1113 C 0.79796 0.71348 0.89525 0.0
H1114 H 0.37893 0.06222 0.99674 0.0
H1115 H 0.38745 0.14378 0.99769 0.0
H1116 H 0.34908 0.05009 0.95828 0.0
H1117 H 0.35747 0.13157 0.95886 0.0
H1118 H 0.33449 0.10504 0.86928 0.0
H1119 H 0.36032 0.12001 0.91059 0.0
H1120 H 0.30129 0.04213 0.94588 0.0
H1121 H 0.27525 0.02748 0.9046 0.0
C1122 C 0.37459 0.07767 0.98861 0.0
C1123 C 0.38586 0.1041 1.0002 0.0
C1124 C 0.35717 0.07057 0.96673 0.0
C1125 C 0.35072 0.08978 0.95553 0.0
C1126 C 0.36207 0.1163 0.96698 0.0
C1127 C 0.37918 0.12328 0.98924 0.0
C1128 C 0.32667 0.0915 0.88612 0.0
C1129 C 0.30271 0.06524 0.88386 0.0
C1130 C 0.34146 0.10003 0.90976 0.0
C1131 C 0.33299 0.08221 0.93151 0.0
C1132 C 0.30847 0.05628 0.92945 0.0
C1133 C 0.29338 0.04798 0.90594 0.0
H1134 H 0.21625 0.91731 0.67139 0.0
H1135 H 0.28218 1.00098 0.65596 0.0
H1136 H 0.23107 0.9008 0.63405 0.0
H1137 H 0.2952 0.98494 0.6177 0.0
H1138 H 0.33419 0.94935 0.56673 0.0
H1139 H 0.31813 0.96217 0.60509 0.0
H1140 H 0.23412 0.8977 0.5885 0.0
H1141 H 0.25066 0.88306 0.55107 0.0
C1142 C 0.23373 0.93232 0.66006 0.0
C1143 C 0.24788 0.96065 0.66714 0.0
C1144 C 0.24205 0.92282 0.63827 0.0
C1145 C 0.26466 0.94135 0.62271 0.0
C1146 C 0.27817 0.96972 0.62935 0.0
C1147 C 0.27017 0.97912 0.65123 0.0
C1148 C 0.31236 0.9372 0.57143 0.0
C1149 C 0.29393 0.91489 0.55542 0.0
C1150 C 0.30295 0.9451 0.59337 0.0
C1151 C 0.2746 0.93145 0.59996 0.0
C1152 C 0.25612 0.90878 0.58432 0.0
C1153 C 0.26564 0.90056 0.56248 0.0
H1154 H 0.10723 0.33246 0.68606 0.0
H1155 H 0.03206 0.26896 0.64998 0.0
H1156 H 0.12228 0.35673 0.64417 0.0
H1157 H 0.04688 0.29344 0.60802 0.0
H1158 H 0.06408 0.36966 0.55561 0.0
H1159 H 0.05227 0.34009 0.59418 0.0
H1160 H 0.13558 0.35321 0.59659 0.0
H1161 H 0.14739 0.38277 0.55755 0.0
C1162 C 0.09427 0.32336 0.66896 0.0
C1163 C 0.06856 0.29873 0.67122 0.0
C1164 C 0.10287 0.33725 0.64498 0.0
C1165 C 0.08569 0.32715 0.62279 0.0
C1166 C 0.06049 0.30186 0.6248 0.0
C1167 C 0.05212 0.28768 0.64872 0.0
C1168 C 0.07994 0.36632 0.56439 0.0
C1169 C 0.10678 0.37882 0.55366 0.0
C1170 C 0.07306 0.34909 0.58632 0.0
C1171 C 0.09292 0.34415 0.59841 0.0
C1172 C 0.11982 0.35663 0.58773 0.0
C1173 C 0.12657 0.37351 0.56539 0.0
H1174 H 0.68311 0.76151 0.53276 0.0
H1175 H 0.60856 0.6981 0.56952 0.0
H1176 H 0.70654 0.77414 0.57519 0.0
H1177 H 0.63196 0.71081 0.61209 0.0
H1178 H 0.69528 0.71316 0.67224 0.0
H1179 H 0.67021 0.70527 0.63137 0.0
H1180 H 0.70782 0.79366 0.61996 0.0
H1181 H 0.73251 0.80178 0.66169 0.0
C1182 C 0.67159 0.75055 0.55 0.0
C1183 C 0.64397 0.72869 0.54771 0.0
C1184 C 0.685 0.75789 0.57436 0.0
C1185 C 0.67128 0.74333 0.59707 0.0
C1186 C 0.64328 0.72224 0.59494 0.0
C1187 C 0.62974 0.71513 0.57059 0.0
C1188 C 0.69798 0.73107 0.66141 0.0
C1189 C 0.71573 0.75819 0.67078 0.0
C1190 C 0.68352 0.72646 0.63783 0.0
C1191 C 0.68659 0.74878 0.62249 0.0
C1192 C 0.70492 0.77597 0.63131 0.0
C1193 C 0.71922 0.78062 0.6552 0.0
H1194 H 0.325 0.34439 0.83937 0.0
H1195 H 0.41122 0.40647 0.84572 0.0
H1196 H 0.33016 0.34136 0.79227 0.0
H1197 H 0.41704 0.403 0.79867 0.0
H1198 H 0.4151 0.40625 0.70811 0.0
H1199 H 0.41094 0.41105 0.75524 0.0
H1200 H 0.34562 0.32533 0.75867 0.0
H1201 H 0.34939 0.32125 0.71151 0.0
C1202 C 0.34509 0.35765 0.8306 0.0
C1203 C 0.3675 0.37608 0.84646 0.0
C1204 C 0.34827 0.35565 0.80342 0.0
C1205 C 0.37419 0.37171 0.79088 0.0
C1206 C 0.39658 0.39042 0.80692 0.0
C1207 C 0.39329 0.39252 0.83413 0.0
C1208 C 0.40021 0.38832 0.71908 0.0
C1209 C 0.38296 0.36319 0.7059 0.0
C1210 C 0.3977 0.39102 0.74633 0.0
C1211 C 0.37774 0.36869 0.76155 0.0
C1212 C 0.3609 0.3434 0.74817 0.0
C1213 C 0.36332 0.34081 0.72096 0.0
H1214 H 0.62013 0.03114 0.70992 0.0
H1215 H 0.68974 0.01736 0.70937 0.0
H1216 H 0.6159 0.02394 0.75725 0.0
H1217 H 0.68436 0.00774 0.75581 0.0
H1218 H 0.68566 0.0113 0.84386 0.0
H1219 H 0.68988 0.02036 0.79734 0.0
H1220 H 0.60333 0.99767 0.79396 0.0
H1221 H 0.60019 0.991 0.84137 0.0
C1222 C 0.63451 0.02646 0.71991 0.0
C1223 C 0.65529 0.02489 0.70559 0.0
C1224 C 0.63189 0.02187 0.74725 0.0
C1225 C 0.64968 0.01504 0.76132 0.0
C1226 C 0.67042 0.01348 0.74665 0.0
C1227 C 0.67338 0.01868 0.71956 0.0
C1228 C 0.66751 0.00833 0.83321 0.0
C1229 C 0.64261 1.00048 0.84668 0.0
C1230 C 0.66977 0.01324 0.80608 0.0
C1231 C 0.64696 0.00977 0.79085 0.0
C1232 C 0.62175 1.00123 0.8044 0.0
C1233 C 0.6197 0.99691 0.83178 0.0
H1234 H 0.02896 0.62009 0.84144 0.0
H1235 H 0.01092 0.68684 0.84353 0.0
H1236 H 0.02127 0.61589 0.79438 0.0
H1237 H 1.00045 0.68129 0.79746 0.0
H1238 H 0.99499 0.67955 0.70939 0.0
H1239 H 1.00455 0.68435 0.75571 0.0
H1240 H 1.00113 0.60475 0.75602 0.0
H1241 H 0.99442 0.6019 0.70895 0.0
C1242 C 0.02325 0.63389 0.83183 0.0
C1243 C 0.02062 0.65381 0.84666 0.0
C1244 C 0.01828 0.63125 0.80449 0.0
C1245 C 0.00979 0.64801 0.79074 0.0
C1246 C 0.00731 0.66798 0.80599 0.0
C1247 C 0.01303 0.67107 0.83304 0.0
C1248 C 0.99606 0.66294 0.71944 0.0
C1249 C 0.99321 0.64004 0.7051 0.0
C1250 C 1.00146 0.66552 0.74658 0.0
C1251 C 1.00367 0.64493 0.76109 0.0
C1252 C 1.00014 0.6216 0.74655 0.0
C1253 C 0.99549 0.61946 0.71918 0.0
H1254 H 0.63074 0.65882 0.33069 0.0
H1255 H 0.54779 0.58845 0.32694 0.0
H1256 H 0.6436 0.6419 0.29211 0.0
H1257 H 0.5606 0.57166 0.28782 0.0
H1258 H 0.59145 0.58063 0.19884 0.0
H1259 H 0.57551 0.59007 0.24018 0.0
H1260 H 0.64911 0.60002 0.27861 0.0
H1261 H 0.66474 0.58998 0.23725 0.0
C1262 C 0.61518 0.63979 0.3215 0.0
C1263 C 0.58815 0.62512 0.33176 0.0
C1264 C 0.62265 0.62994 0.29955 0.0
C1265 C 0.60319 0.60536 0.28692 0.0
C1266 C 0.57607 0.59067 0.29709 0.0
C1267 C 0.56874 0.60025 0.31947 0.0
C1268 C 0.60385 0.58414 0.21629 0.0
C1269 C 0.62924 0.58438 0.21487 0.0
C1270 C 0.59473 0.58955 0.23996 0.0
C1271 C 0.61111 0.59597 0.26267 0.0
C1272 C 0.63609 0.5953 0.26143 0.0
C1273 C 0.64493 0.58931 0.23784 0.0
H1274 H 0.43016 0.00952 0.20077 0.0
H1275 H 0.44127 0.08419 0.23766 0.0
H1276 H 0.41968 0.9862 0.24322 0.0
H1277 H 0.43078 0.06088 0.28019 0.0
H1278 H 0.3688 0.99732 0.33911 0.0
H1279 H 0.38618 0.02207 0.29826 0.0
H1280 H 0.43822 0.9855 0.28871 0.0
H1281 H 0.42147 0.96117 0.33054 0.0
C1282 C 0.43085 0.0211 0.21806 0.0
C1283 C 0.43645 0.0487 0.21583 0.0
C1284 C 0.42494 0.00776 0.24239 0.0
C1285 C 0.42408 0.02153 0.2651 0.0
C1286 C 0.43095 0.04955 0.26303 0.0
C1287 C 0.43724 0.06303 0.23872 0.0
C1288 C 0.38432 0.99479 0.3287 0.0
C1289 C 0.39407 0.97753 0.33865 0.0
C1290 C 0.39428 0.00906 0.30514 0.0
C1291 C 0.41399 0.00624 0.29039 0.0
C1292 C 0.42311 0.98824 0.29967 0.0
C1293 C 0.41337 0.97414 0.32359 0.0
H1294 H 0.08637 0.4373 0.31677 0.0
H1295 H 0.01221 0.42585 0.35475 0.0
H1296 H 0.06273 0.42783 0.27437 0.0
H1297 H 0.98855 0.41637 0.31245 0.0
H1298 H 0.96248 0.4198 0.22592 0.0
H1299 H 0.98732 0.43568 0.26773 0.0
H1300 H 0.02381 0.38392 0.25544 0.0
H1301 H 0.99858 0.36741 0.21461 0.0
C1302 C 0.06525 0.43341 0.316 0.0
C1303 C 0.05116 0.43222 0.33914 0.0
C1304 C 0.05158 0.4277 0.29175 0.0
C1305 C 0.02359 0.42102 0.29001 0.0
C1306 C 0.01007 0.42149 0.31301 0.0
C1307 C 0.02362 0.42683 0.33727 0.0
C1308 C 0.97555 0.41157 0.23227 0.0
C1309 C 0.97876 0.39261 0.21645 0.0
C1310 C 0.98994 0.42082 0.25617 0.0
C1311 C 0.00806 0.41153 0.2647 0.0
C1312 C 0.01071 0.39216 0.24918 0.0
C1313 C 0.99616 0.38269 0.22562 0.0
H1314 H 0.27907 0.88984 0.35513 0.0
H1315 H 0.23274 0.86868 0.42691 0.0
H1316 H 0.23665 0.85816 0.33098 0.0
H1317 H 0.19031 0.83695 0.40302 0.0
H1318 H 0.13234 0.75605 0.35933 0.0
H1319 H 0.17373 0.79166 0.38116 0.0
H1320 H 0.18906 0.84748 0.31671 0.0
H1321 H 0.14694 0.81202 0.29499 0.0
C1322 C 0.25958 0.87908 0.36557 0.0
C1323 C 0.25909 0.88216 0.39281 0.0
C1324 C 0.23529 0.86077 0.35179 0.0
C1325 C 0.20998 0.84466 0.36501 0.0
C1326 C 0.20941 0.84867 0.39217 0.0
C1327 C 0.23361 0.86718 0.40586 0.0
C1328 C 0.1442 0.77594 0.34977 0.0
C1329 C 0.13572 0.78095 0.32533 0.0
C1330 C 0.1681 0.79649 0.3624 0.0
C1331 C 0.18468 0.82273 0.35098 0.0
C1332 C 0.17688 0.82754 0.32614 0.0
C1333 C 0.15272 0.80703 0.31357 0.0
H1334 H 0.2534 0.38984 0.30915 0.0
H1335 H 0.21525 0.30996 0.34723 0.0
H1336 H 0.22122 0.40078 0.3316 0.0
H1337 H 0.18261 0.32044 0.36883 0.0
H1338 H 0.14879 0.36136 0.42569 0.0
H1339 H 0.17898 0.34826 0.40246 0.0
H1340 H 0.17341 0.38978 0.33326 0.0
H1341 H 0.14345 0.40304 0.35686 0.0
C1342 C 0.23823 0.37459 0.3223 0.0
C1343 C 0.23703 0.34891 0.32611 0.0
C1344 C 0.21945 0.38073 0.33498 0.0
C1345 C 0.19898 0.36147 0.35205 0.0
C1346 C 0.19806 0.33596 0.35606 0.0
C1347 C 0.21671 0.3298 0.34335 0.0
C1348 C 0.15339 0.36695 0.40529 0.0
C1349 C 0.14323 0.3827 0.39293 0.0
C1350 C 0.17088 0.3596 0.39193 0.0
C1351 C 0.17896 0.36802 0.36586 0.0
C1352 C 0.16811 0.3832 0.35336 0.0
C1353 C 0.15054 0.39045 0.36672 0.0
H1354 H 0.64198 0.86838 0.2929 0.0
H1355 H 0.68057 0.91516 0.36316 0.0
H1356 H 0.63639 0.82681 0.31377 0.0
H1357 H 0.67224 0.87322 0.38482 0.0
H1358 H 0.67077 0.7975 0.41775 0.0
H1359 H 0.68278 0.8395 0.39273 0.0
H1360 H 0.61244 0.7916 0.34182 0.0
H1361 H 0.60225 0.7498 0.36567 0.0
C1362 C 0.6492 0.87004 0.31282 0.0
C1363 C 0.6616 0.89574 0.32607 0.0
C1364 C 0.64552 0.84575 0.32513 0.0
C1365 C 0.6536 0.84598 0.35139 0.0
C1366 C 0.66601 0.87169 0.36457 0.0
C1367 C 0.67021 0.89602 0.35212 0.0
C1368 C 0.65837 0.79603 0.40082 0.0
C1369 C 0.63547 0.77037 0.39384 0.0
C1370 C 0.66489 0.82024 0.3866 0.0
C1371 C 0.64838 0.81963 0.36519 0.0
C1372 C 0.62608 0.7935 0.35776 0.0
C1373 C 0.62 0.76931 0.37162 0.0
H1374 H 0.80919 0.11254 0.20431 0.0
H1375 H 0.77086 0.15418 0.24233 0.0
H1376 H 0.84206 0.1558 0.18293 0.0
H1377 H 0.80348 0.19748 0.22044 0.0
H1378 H 0.88242 0.27725 0.19691 0.0
H1379 H 0.85236 0.23367 0.21986 0.0
H1380 H 0.84498 0.18797 0.14921 0.0
H1381 H 0.87502 0.23165 0.12647 0.0
C1382 C 0.80776 0.13094 0.20822 0.0
C1383 C 0.78729 0.12968 0.2253 0.0
C1384 C 0.82656 0.1558 0.19569 0.0
C1385 C 0.82571 0.18041 0.19992 0.0
C1386 C 0.80515 0.17916 0.2169 0.0
C1387 C 0.78615 0.15417 0.22927 0.0
C1388 C 0.87491 0.25779 0.18654 0.0
C1389 C 0.88158 0.25788 0.16002 0.0
C1390 C 0.85731 0.23279 0.19955 0.0
C1391 C 0.8459 0.20708 0.18645 0.0
C1392 C 0.85348 0.20719 0.16013 0.0
C1393 C 0.87091 0.23224 0.14707 0.0
H1394 H 0.79696 0.65635 0.1282 0.0
H1395 H 0.75178 0.61592 0.19801 0.0
H1396 H 0.84076 0.66984 0.15072 0.0
H1397 H 0.79554 0.62958 0.22091 0.0
H1398 H 0.87591 0.62948 0.24363 0.0
H1399 H 0.83229 0.61823 0.22179 0.0
H1400 H 0.87285 0.6982 0.18382 0.0
H1401 H 0.91639 0.70897 0.20482 0.0
C1402 C 0.79651 0.65116 0.14867 0.0
C1403 C 0.77098 0.63562 0.1615 0.0
C1404 C 0.82162 0.65871 0.16161 0.0
C1405 C 0.82193 0.6507 0.18773 0.0
C1406 C 0.79628 0.63582 0.20075 0.0
C1407 C 0.77118 0.62837 0.1878 0.0
C1408 C 0.8756 0.64455 0.23042 0.0
C1409 C 0.89984 0.67024 0.22624 0.0
C1410 C 0.85043 0.63825 0.21811 0.0
C1411 C 0.84876 0.65735 0.20106 0.0
C1412 C 0.87313 0.68282 0.19661 0.0
C1413 C 0.89818 0.68914 0.20895 0.0
H1414 H 0.34685 0.21071 0.25882 0.0
H1415 H 0.38753 0.26668 0.19442 0.0
H1416 H 0.35414 0.17551 0.23733 0.0
H1417 H 0.39385 0.23128 0.1728 0.0
H1418 H 0.37587 0.15391 0.12733 0.0
H1419 H 0.36509 0.18564 0.15113 0.0
H1420 H 0.39175 0.16551 0.2231 0.0
H1421 H 0.40262 0.13387 0.19902 0.0
C1422 C 0.3576 0.21576 0.24027 0.0
C1423 C 0.36628 0.24175 0.22843 0.0
C1424 C 0.36161 0.1954 0.22784 0.0
C1425 C 0.37415 0.20026 0.20304 0.0
C1426 C 0.38345 0.22643 0.19154 0.0
C1427 C 0.37977 0.24683 0.20405 0.0
C1428 C 0.3786 0.15567 0.14835 0.0
C1429 C 0.38954 0.14099 0.1614 0.0
C1430 C 0.37285 0.17417 0.16197 0.0
C1431 C 0.37778 0.17844 0.18909 0.0
C1432 C 0.3875 0.16268 0.20232 0.0
C1433 C 0.39357 0.1444 0.18859 0.0
H1434 H 0.78487 0.11631 0.69604 0.0
H1435 H 0.82809 0.12684 0.62304 0.0
H1436 H 0.82748 0.1494 0.71651 0.0
H1437 H 0.87022 0.1629 0.64278 0.0
H1438 H 0.95 0.20663 0.6915 0.0
H1439 H 0.90755 0.17607 0.66793 0.0
H1440 H 0.86053 0.19224 0.72568 0.0
H1441 H 0.90287 0.22016 0.75042 0.0
C1442 C 0.80332 0.1255 0.68409 0.0
C1443 C 0.80235 0.11788 0.65762 0.0
C1444 C 0.82811 0.14549 0.6959 0.0
C1445 C 0.85302 0.15962 0.68162 0.0
C1446 C 0.85199 0.15251 0.65497 0.0
C1447 C 0.8273 0.13185 0.64332 0.0
C1448 C 0.93055 0.20396 0.69881 0.0
C1449 C 0.92996 0.21613 0.72271 0.0
C1450 C 0.90593 0.18633 0.68522 0.0
C1451 C 0.87982 0.1808 0.69474 0.0
C1452 C 0.87968 0.19477 0.71781 0.0
C1453 C 0.90423 0.21166 0.73181 0.0
H1454 H 0.88698 0.64805 0.68204 0.0
H1455 H 0.9245 0.72755 0.64334 0.0
H1456 H 0.85446 0.65862 0.70393 0.0
H1457 H 0.89215 0.73843 0.66574 0.0
H1458 H 0.81253 0.73822 0.68965 0.0
H1459 H 0.84284 0.72502 0.66659 0.0
H1460 H 0.85201 0.68823 0.73754 0.0
H1461 H 0.82171 0.70153 0.76038 0.0
C1462 C 0.88833 0.66785 0.67816 0.0
C1463 C 0.90838 0.68684 0.66067 0.0
C1464 C 0.86974 0.67401 0.69095 0.0
C1465 C 0.87039 0.69934 0.6866 0.0
C1466 C 0.89066 0.71853 0.66935 0.0
C1467 C 0.90949 0.71244 0.6567 0.0
C1468 C 0.82048 0.72665 0.70006 0.0
C1469 C 0.81426 0.7204 0.72668 0.0
C1470 C 0.83823 0.71947 0.68699 0.0
C1471 C 0.8502 0.70571 0.70016 0.0
C1472 C 0.84307 0.69855 0.7266 0.0
C1473 C 0.8255 0.70596 0.73971 0.0
H1474 H 0.31844 0.13418 0.7662 0.0
H1475 H 0.27718 0.08683 0.69739 0.0
H1476 H 0.33094 0.17735 0.7427 0.0
H1477 H 0.28967 0.12979 0.67362 0.0
H1478 H 0.29026 0.20963 0.64781 0.0
H1479 H 0.2784 0.16699 0.67187 0.0
H1480 H 0.35944 0.20775 0.70803 0.0
H1481 H 0.37096 0.25026 0.68455 0.0
C1482 C 0.31256 0.13312 0.74586 0.0
C1483 C 0.29721 0.10723 0.73351 0.0
C1484 C 0.31961 0.15782 0.73234 0.0
C1485 C 0.31121 0.15727 0.70616 0.0
C1486 C 0.2962 0.1312 0.69379 0.0
C1487 C 0.28935 0.10657 0.70726 0.0
C1488 C 0.30543 0.20957 0.6611 0.0
C1489 C 0.33167 0.23349 0.66397 0.0
C1490 C 0.29876 0.18498 0.67472 0.0
C1491 C 0.318 0.18364 0.69189 0.0
C1492 C 0.34395 0.20781 0.69519 0.0
C1493 C 0.35067 0.23224 0.68146 0.0
H1494 H 0.2192 0.94525 0.86689 0.0
H1495 H 0.19851 0.89971 0.7945 0.0
H1496 H 0.18766 0.90247 0.89048 0.0
H1497 H 0.16685 0.85693 0.81781 0.0
H1498 H 0.08591 0.79817 0.86115 0.0
H1499 H 0.12139 0.83977 0.83968 0.0
H1500 H 0.17745 0.85471 0.90397 0.0
H1501 H 0.14221 0.81234 0.92528 0.0
C1502 C 0.20856 0.92587 0.85619 0.0
C1503 C 0.21176 0.9257 0.82894 0.0
C1504 C 0.19032 0.90136 0.86964 0.0
C1505 C 0.17437 0.87615 0.85609 0.0
C1506 C 0.17845 0.87593 0.82891 0.0
C1507 C 0.19692 0.90034 0.81556 0.0
C1508 C 0.10584 0.80994 0.87074 0.0
C1509 C 0.11093 0.80127 0.89504 0.0
C1510 C 0.1263 0.83399 0.85831 0.0
C1511 C 0.15256 0.85058 0.86982 0.0
C1512 C 0.1575 0.84255 0.89448 0.0
C1513 C 0.13709 0.81822 0.90682 0.0
H1514 H 0.08952 0.28087 0.85778 0.0
H1515 H 0.13531 0.3145 0.78661 0.0
H1516 H 0.13271 0.29304 0.88107 0.0
H1517 H 0.17872 0.32673 0.8097 0.0
H1518 H 0.25347 0.3681 0.86633 0.0
H1519 H 0.21082 0.35732 0.84324 0.0
H1520 H 0.16783 0.27855 0.88312 0.0
H1521 H 0.21056 0.28961 0.90667 0.0
C1522 C 0.10899 0.29132 0.84727 0.0
C1523 C 0.10919 0.29711 0.82051 0.0
C1524 C 0.13371 0.29797 0.86049 0.0
C1525 C 0.15934 0.31073 0.84731 0.0
C1526 C 0.15949 0.31715 0.8206 0.0
C1527 C 0.13468 0.31025 0.80734 0.0
C1528 C 0.23491 0.34849 0.87031 0.0
C1529 C 0.23554 0.32983 0.8886 0.0
C1530 C 0.21044 0.3422 0.85683 0.0
C1531 C 0.18568 0.3171 0.86131 0.0
C1532 C 0.18635 0.29825 0.87937 0.0
C1533 C 0.21096 0.30445 0.8927 0.0
H1534 H 0.76619 0.8334 0.85001 0.0
H1535 H 0.693 0.8064 0.8027 0.0
H1536 H 0.75547 0.86457 0.87409 0.0
H1537 H 0.68068 0.83599 0.82804 0.0
H1538 H 0.68097 0.91339 0.85609 0.0
H1539 H 0.69004 0.88027 0.83437 0.0
H1540 H 0.73143 0.87451 0.90373 0.0
H1541 H 0.72486 0.90998 0.92457 0.0
C1542 C 0.74739 0.83377 0.84516 0.0
C1543 C 0.73065 0.81772 0.8242 0.0
C1544 C 0.74102 0.85156 0.85916 0.0
C1545 C 0.71723 0.85346 0.85314 0.0
C1546 C 0.69964 0.83606 0.83301 0.0
C1547 C 0.70639 0.81864 0.81863 0.0
C1548 C 0.69266 0.90576 0.86669 0.0
C1549 C 0.70254 0.91525 0.89223 0.0
C1550 C 0.69732 0.88594 0.85426 0.0
C1551 C 0.71152 0.87418 0.86699 0.0
C1552 C 0.72087 0.88316 0.89277 0.0
C1553 C 0.71667 0.90344 0.90505 0.0
H1554 H 0.46595 0.44482 0.53279 0.0
H1555 H 0.44779 0.49433 0.58528 0.0
H1556 H 0.50143 0.48664 0.51162 0.0
H1557 H 0.48276 0.5365 0.56347 0.0
H1558 H 0.55914 0.61104 0.53009 0.0
H1559 H 0.52913 0.56867 0.55465 0.0
H1560 H 0.50849 0.52148 0.48279 0.0
H1561 H 0.53941 0.56373 0.45886 0.0
C1562 C 0.46935 0.46471 0.5397 0.0
C1563 C 0.45365 0.46603 0.56065 0.0
C1564 C 0.48978 0.48888 0.52741 0.0
C1565 C 0.49514 0.51539 0.53539 0.0
C1566 C 0.47976 0.51672 0.55677 0.0
C1567 C 0.45949 0.49244 0.5693 0.0
C1568 C 0.54885 0.59137 0.51982 0.0
C1569 C 0.55219 0.59058 0.49267 0.0
C1570 C 0.53115 0.56705 0.53379 0.0
C1571 C 0.51591 0.54123 0.52093 0.0
C1572 C 0.52003 0.54056 0.49375 0.0
C1573 C 0.5379 0.56483 0.47989 0.0
H1574 H 0.57256 0.97885 0.52727 0.0
H1575 H 0.55147 0.02015 0.58682 0.0
H1576 H 0.53004 0.96785 0.50351 0.0
H1577 H 0.50969 0.01011 0.56272 0.0
H1578 H 0.42214 0.96229 0.52612 0.0
H1579 H 0.4646 0.97404 0.55037 0.0
H1580 H 0.50887 0.9885 0.47753 0.0
H1581 H 0.46605 0.97627 0.45347 0.0
C1582 C 0.55882 0.98544 0.53543 0.0
C1583 C 0.56572 1.00051 0.55903 0.0
C1584 C 0.53454 0.97948 0.52157 0.0
C1585 C 0.51628 0.98823 0.53094 0.0
C1586 C 0.52295 1.00279 0.55482 0.0
C1587 C 0.5472 0.00881 0.56859 0.0
C1588 C 0.44115 0.96863 0.51538 0.0
C1589 C 0.44091 0.96888 0.48792 0.0
C1590 C 0.46554 0.97528 0.52925 0.0
C1591 C 0.49042 0.98218 0.51605 0.0
C1592 C 0.49018 0.98294 0.48849 0.0
C1593 C 0.46576 0.97635 0.47464 0.0
H1594 H 0.0501 0.49634 0.45352 0.0
H1595 H 0.05981 0.46292 0.52614 0.0
H1596 H 0.03929 0.52786 0.47757 0.0
H1597 H 0.04936 0.4946 0.55046 0.0
H1598 H 0.00835 0.54266 0.58528 0.0
H1599 H 0.01542 0.5081 0.56231 0.0
H1600 H 0.06379 0.56908 0.50381 0.0
H1601 H 0.05694 0.60352 0.52673 0.0
C1602 C 0.04927 0.49534 0.47466 0.0
C1603 C 0.05535 0.47687 0.48792 0.0
C1604 C 0.04349 0.51369 0.48853 0.0
C1605 C 0.04372 0.51418 0.51611 0.0
C1606 C 0.04872 0.49481 0.52932 0.0
C1607 C 0.05459 0.47651 0.5154 0.0
C1608 C 0.02085 0.54887 0.56773 0.0
C1609 C 0.03186 0.57605 0.55792 0.0
C1610 C 0.02481 0.52892 0.55444 0.0
C1611 C 0.03986 0.53549 0.53086 0.0
C1612 C 0.05145 0.56286 0.52146 0.0
C1613 C 0.04757 0.58276 0.53474 0.0
H1614 H 0.46553 0.4113 1.02549 0.0
H1615 H 0.47832 0.47201 0.96642 0.0
H1616 H 0.50657 0.44573 0.04874 0.0
H1617 H 0.51968 0.50657 0.98972 0.0
H1618 H 0.6086 0.55184 0.02717 0.0
H1619 H 0.56692 0.51996 1.00237 0.0
H1620 H 0.52277 0.48705 0.07476 0.0
H1621 H 0.56465 0.51876 0.0993 0.0
C1622 C 0.47701 0.43202 1.01743 0.0
C1623 C 0.46824 0.43872 0.99403 0.0
C1624 C 0.50062 0.45191 0.03089 0.0
C1625 C 0.51644 0.47924 1.02145 0.0
C1626 C 0.50821 0.48578 0.99763 0.0
C1627 C 0.48447 0.46584 0.98415 0.0
C1628 C 0.58972 0.53824 0.03767 0.0
C1629 C 0.58973 0.53804 0.06516 0.0
C1630 C 0.56581 0.51985 1.02349 0.0
C1631 C 0.54135 0.50056 0.03644 0.0
C1632 C 0.54124 0.50117 0.06401 0.0
C1633 C 0.5651 0.51961 0.07815 0.0
H1634 H 0.59134 0.06195 0.97916 0.0
H1635 H 0.55686 0.98297 1.01852 0.0
H1636 H 0.55922 0.07213 1.00284 0.0
H1637 H 0.52452 0.99288 0.04174 0.0
H1638 H 0.49181 0.03485 0.09953 0.0
H1639 H 0.52263 0.02274 0.07578 0.0
H1640 H 0.50971 0.05755 1.00525 0.0
H1641 H 0.47901 0.06958 0.02922 0.0
C1642 C 0.57702 0.04678 0.99291 0.0
C1643 C 0.57674 0.02155 0.99671 0.0
C1644 C 0.55833 0.05248 1.00632 0.0
C1645 C 0.539 0.03328 1.0242 0.0
C1646 C 0.53909 0.00827 0.0283 0.0
C1647 C 0.55755 1.00247 1.01474 0.0
C1648 C 0.49512 0.03927 0.07882 0.0
C1649 C 0.48267 0.05269 0.0661 0.0
C1650 C 0.51287 0.03246 0.06517 0.0
C1651 C 0.51894 0.03928 0.03851 0.0
C1652 C 0.50592 0.05226 1.02577 0.0
C1653 C 0.488 0.05882 0.03937 0.0
H1654 H 0.01927 0.55165 0.96773 0.0
H1655 H 0.97622 0.57197 1.026 0.0
H1656 H 0.00953 0.51012 0.99213 0.0
H1657 H 0.96574 0.52985 0.05012 0.0
H1658 H 0.97512 0.46696 0.10116 0.0
H1659 H 0.98708 0.50948 0.0768 0.0
H1660 H 0.97311 0.46461 1.00426 0.0
H1661 H 0.96141 0.42236 0.02881 0.0
C1662 C 0.00765 0.54729 0.98574 0.0
C1663 C 0.99868 0.56548 0.99481 0.0
C1664 C 1.00182 0.52319 0.99969 0.0
C1665 C 0.9869 0.51642 1.02331 0.0
C1666 C 0.97762 0.53442 0.03225 0.0
C1667 C 0.98332 0.55848 1.01818 0.0
C1668 C 0.97517 0.46643 0.08 0.0
C1669 C 0.96779 0.44143 0.06692 0.0
C1670 C 0.98164 0.4907 0.06597 0.0
C1671 C 0.98097 0.4907 0.0384 0.0
C1672 C 0.97423 0.46572 1.02539 0.0
C1673 C 0.96761 0.44144 0.03944 0.0
loop_
_geom_bond_atom_site_label_1
_geom_bond_atom_site_label_2
_geom_bond_distance
_geom_bond_site_symmetry_2
_ccdc_geom_bond_type
C0 C1 1.450 1_655 S
C0 N4 1.376 1_655 S
C0 C38 1.389 . S
C1 C0 1.450 1_455 S
C1 C2 1.337 . S
C1 H41 0.949 1_455 S
C2 C1 1.337 . S
C2 C3 1.439 . S
C2 H42 0.950 . S
C3 C2 1.439 . S
C3 N4 1.374 . S
C3 C37 1.395 . S
N4 C0 1.376 1_455 S
N4 C3 1.374 . S
N4 Co5 2.008 . S
Co5 N4 2.008 . S
Co5 N6 1.995 . S
Co5 N11 2.008 . S
Co5 N16 1.995 1_455 S
Co5 N21 2.282 1_455 S
Co5 N27 2.282 . S
N6 Co5 1.995 . S
N6 C7 1.376 . S
N6 C10 1.383 . S
C7 N6 1.376 . S
C7 C8 1.446 . S
C7 C37 1.391 . S
C8 C7 1.446 . S
C8 C9 1.339 . S
C8 H43 0.949 . S
C9 C8 1.339 . S
C9 C10 1.439 . S
C9 H44 0.950 . S
C10 N6 1.383 . S
C10 C9 1.439 . S
C10 C39 1.392 . S
N11 Co5 2.008 . S
N11 C12 1.376 . S
N11 C15 1.374 . S
C12 N11 1.376 . S
C12 C13 1.443 . S
C12 C39 1.389 . S
C13 C12 1.443 . S
C13 C14 1.340 . S
C13 H45 0.951 . S
C14 C13 1.340 . S
C14 C15 1.439 . S
C14 H46 0.950 . S
C15 N11 1.374 . S
C15 C14 1.439 . S
C15 C40 1.395 . S
N16 Co5 1.995 1_655 S
N16 C17 1.376 . S
N16 C20 1.383 . S
C17 N16 1.376 . S
C17 C18 1.446 . S
C17 C40 1.379 1_655 S
C18 C17 1.446 . S
C18 C19 1.339 . S
C18 H47 0.949 . S
C19 C18 1.339 . S
C19 C20 1.439 . S
C19 H48 0.950 . S
C20 N16 1.383 . S
C20 C19 1.439 . S
C20 C38 1.392 . S
N21 Co5 2.282 1_655 S
N21 C24 1.332 . S
N21 C26 1.332 . S
C22 C23 1.386 . S
C22 C25 1.388 . S
C23 C22 1.386 . S
C23 C24 1.382 . S
C23 H49 0.950 . S
C24 N21 1.332 . S
C24 C23 1.382 . S
C24 H35 0.952 . S
C25 C22 1.388 . S
C25 C26 1.382 . S
C25 H50 0.950 . S
C26 N21 1.332 . S
C26 C25 1.382 . S
C26 H36 0.948 . S
N27 Co5 2.282 . S
N27 C31 1.332 . S
N27 C32 1.332 . S
C28 C29 1.388 . S
C28 C32 1.382 . S
C28 H51 0.950 . S
C29 C28 1.388 . S
C29 C30 1.386 . S
C30 C29 1.386 . S
C30 C31 1.382 . S
C30 H52 0.950 . S
C31 N27 1.332 . S
C31 C30 1.382 . S
C31 H33 0.952 . S
C32 N27 1.332 . S
C32 C28 1.382 . S
C32 H34 0.948 . S
H33 C31 0.952 . S
H34 C32 0.948 . S
H35 C24 0.952 . S
H36 C26 0.948 . S
C37 C3 1.395 . S
C37 C7 1.391 . S
C38 C0 1.389 . S
C38 C20 1.392 . S
C39 C10 1.392 . S
C39 C12 1.389 . S
C40 C15 1.395 . S
C40 C17 1.379 1_455 S
H41 C1 0.949 1_655 S
H42 C2 0.950 . S
H43 C8 0.949 . S
H44 C9 0.950 . S
H45 C13 0.951 . S
H46 C14 0.950 . S
H47 C18 0.949 . S
H48 C19 0.950 . S
H49 C23 0.950 . S
H50 C25 0.950 . S
H51 C28 0.950 . S
H52 C30 0.950 . S
C53 C54 1.443 . S
C53 N57 1.376 . S
C53 C91 1.389 . S
C54 C53 1.443 . S
C54 C55 1.340 . S
C54 H94 0.951 . S
C55 C54 1.340 . S
C55 C56 1.439 . S
C55 H95 0.950 . S
C56 C55 1.439 . S
C56 N57 1.374 . S
C56 C90 1.395 . S
N57 C53 1.376 . S
N57 C56 1.374 . S
N57 Co58 2.008 . S
Co58 N57 2.008 . S
Co58 N59 1.995 . S
Co58 N64 2.008 . S
Co58 N69 1.995 . S
Co58 N74 2.282 . S
Co58 N80 2.282 . S
N59 Co58 1.995 . S
N59 C60 1.376 . S
N59 C63 1.383 . S
C60 N59 1.376 . S
C60 C61 1.446 . S
C60 C90 1.391 . S
C61 C60 1.446 . S
C61 C62 1.339 . S
C61 H96 0.949 . S
C62 C61 1.339 . S
C62 C63 1.439 . S
C62 H97 0.950 . S
C63 N59 1.383 . S
C63 C62 1.439 . S
C63 C92 1.392 . S
N64 Co58 2.008 . S
N64 C65 1.376 . S
N64 C68 1.374 . S
C65 N64 1.376 . S
C65 C66 1.443 . S
C65 C92 1.389 . S
C66 C65 1.443 . S
C66 C67 1.340 . S
C66 H98 0.951 . S
C67 C66 1.340 . S
C67 C68 1.439 . S
C67 H99 0.950 . S
C68 N64 1.374 . S
C68 C67 1.439 . S
C68 C93 1.395 . S
N69 Co58 1.995 . S
N69 C70 1.376 . S
N69 C73 1.383 . S
C70 N69 1.376 . S
C70 C71 1.446 . S
C70 C93 1.391 . S
C71 C70 1.446 . S
C71 C72 1.339 . S
C71 H100 0.949 . S
C72 C71 1.339 . S
C72 C73 1.439 . S
C72 H101 0.950 . S
C73 N69 1.383 . S
C73 C72 1.439 . S
C73 C91 1.392 . S
N74 Co58 2.282 . S
N74 C77 1.332 . S
N74 C79 1.332 . S
C75 C76 1.386 . S
C75 C78 1.388 . S
C76 C75 1.386 . S
C76 C77 1.382 . S
C76 H102 0.950 . S
C77 N74 1.332 . S
C77 C76 1.382 . S
C77 H88 0.952 . S
C78 C75 1.388 . S
C78 C79 1.382 . S
C78 H103 0.950 . S
C79 N74 1.332 . S
C79 C78 1.382 . S
C79 H89 0.948 . S
N80 Co58 2.282 . S
N80 C84 1.332 . S
N80 C85 1.332 . S
C81 C82 1.388 . S
C81 C85 1.382 . S
C81 H104 0.950 . S
C82 C81 1.388 . S
C82 C83 1.386 . S
C83 C82 1.386 . S
C83 C84 1.382 . S
C83 H105 0.950 . S
C84 N80 1.332 . S
C84 C83 1.382 . S
C84 H86 0.952 . S
C85 N80 1.332 . S
C85 C81 1.382 . S
C85 H87 0.948 . S
H86 C84 0.952 . S
H87 C85 0.948 . S
H88 C77 0.952 . S
H89 C79 0.948 . S
C90 C56 1.395 . S
C90 C60 1.391 . S
C91 C53 1.389 . S
C91 C73 1.392 . S
C92 C63 1.392 . S
C92 C65 1.389 . S
C93 C68 1.395 . S
C93 C70 1.391 . S
H94 C54 0.951 . S
H95 C55 0.950 . S
H96 C61 0.949 . S
H97 C62 0.950 . S
H98 C66 0.951 . S
H99 C67 0.950 . S
H100 C71 0.949 . S
H101 C72 0.950 . S
H102 C76 0.950 . S
H103 C78 0.950 . S
H104 C81 0.950 . S
H105 C83 0.950 . S
C106 C107 1.450 1_565 S
C106 N110 1.376 1_565 S
C106 C144 1.389 . S
C107 C106 1.450 1_545 S
C107 C108 1.337 . S
C107 H147 0.949 1_545 S
C108 C107 1.337 . S
C108 C109 1.439 . S
C108 H148 0.950 . S
C109 C108 1.439 . S
C109 N110 1.374 . S
C109 C143 1.395 . S
N110 C106 1.376 1_545 S
N110 C109 1.374 . S
N110 Co111 2.008 . S
Co111 N110 2.008 . S
Co111 N112 1.995 . S
Co111 N117 2.008 . S
Co111 N122 1.995 1_545 S
Co111 N127 2.282 1_545 S
Co111 N133 2.282 . S
N112 Co111 1.995 . S
N112 C113 1.376 . S
N112 C116 1.383 . S
C113 N112 1.376 . S
C113 C114 1.446 . S
C113 C143 1.391 . S
C114 C113 1.446 . S
C114 C115 1.339 . S
C114 H149 0.949 . S
C115 C114 1.339 . S
C115 C116 1.439 . S
C115 H150 0.950 . S
C116 N112 1.383 . S
C116 C115 1.439 . S
C116 C145 1.392 . S
N117 Co111 2.008 . S
N117 C118 1.376 . S
N117 C121 1.374 . S
C118 N117 1.376 . S
C118 C119 1.443 . S
C118 C145 1.389 . S
C119 C118 1.443 . S
C119 C120 1.340 . S
C119 H151 0.951 . S
C120 C119 1.340 . S
C120 C121 1.439 . S
C120 H152 0.950 . S
C121 N117 1.374 . S
C121 C120 1.439 . S
C121 C146 1.395 . S
N122 Co111 1.995 1_565 S
N122 C123 1.376 . S
N122 C126 1.383 . S
C123 N122 1.376 . S
C123 C124 1.446 . S
C123 C146 1.379 1_565 S
C124 C123 1.446 . S
C124 C125 1.339 . S
C124 H153 0.949 . S
C125 C124 1.339 . S
C125 C126 1.439 . S
C125 H154 0.950 . S
C126 N122 1.383 . S
C126 C125 1.439 . S
C126 C144 1.392 . S
N127 Co111 2.282 1_565 S
N127 C130 1.332 . S
N127 C132 1.332 . S
C128 C129 1.386 . S
C128 C131 1.388 . S
C129 C128 1.386 . S
C129 C130 1.382 . S
C129 H155 0.950 . S
C130 N127 1.332 . S
C130 C129 1.382 . S
C130 H141 0.952 . S
C131 C128 1.388 . S
C131 C132 1.382 . S
C131 H156 0.950 . S
C132 N127 1.332 . S
C132 C131 1.382 . S
C132 H142 0.948 . S
N133 Co111 2.282 . S
N133 C137 1.332 . S
N133 C138 1.332 . S
C134 C135 1.388 . S
C134 C138 1.382 . S
C134 H157 0.950 . S
C135 C134 1.388 . S
C135 C136 1.386 . S
C136 C135 1.386 . S
C136 C137 1.382 . S
C136 H158 0.950 . S
C137 N133 1.332 . S
C137 C136 1.382 . S
C137 H139 0.952 . S
C138 N133 1.332 . S
C138 C134 1.382 . S
C138 H140 0.948 . S
H139 C137 0.952 . S
H140 C138 0.948 . S
H141 C130 0.952 . S
H142 C132 0.948 . S
C143 C109 1.395 . S
C143 C113 1.391 . S
C144 C106 1.389 . S
C144 C126 1.392 . S
C145 C116 1.392 . S
C145 C118 1.389 . S
C146 C121 1.395 . S
C146 C123 1.379 1_545 S
H147 C107 0.949 1_565 S
H148 C108 0.950 . S
H149 C114 0.949 . S
H150 C115 0.950 . S
H151 C119 0.951 . S
H152 C120 0.950 . S
H153 C124 0.949 . S
H154 C125 0.950 . S
H155 C129 0.950 . S
H156 C131 0.950 . S
H157 C134 0.950 . S
H158 C136 0.950 . S
C159 C160 1.443 . S
C159 N163 1.376 . S
C159 C197 1.389 . S
C160 C159 1.443 . S
C160 C161 1.340 . S
C160 H200 0.951 . S
C161 C160 1.340 . S
C161 C162 1.439 . S
C161 H201 0.950 . S
C162 C161 1.439 . S
C162 N163 1.374 . S
C162 C196 1.395 1_655 S
N163 C159 1.376 . S
N163 C162 1.374 . S
N163 Co164 2.008 1_655 S
Co164 N163 2.008 1_455 S
Co164 N165 1.995 . S
Co164 N170 2.008 . S
Co164 N175 1.995 1_455 S
Co164 N180 2.282 1_455 S
Co164 N186 2.282 . S
N165 Co164 1.995 . S
N165 C166 1.376 . S
N165 C169 1.383 . S
C166 N165 1.376 . S
C166 C167 1.446 . S
C166 C196 1.391 . S
C167 C166 1.446 . S
C167 C168 1.339 . S
C167 H202 0.949 . S
C168 C167 1.339 . S
C168 C169 1.439 . S
C168 H203 0.950 . S
C169 N165 1.383 . S
C169 C168 1.439 . S
C169 C198 1.392 . S
N170 Co164 2.008 . S
N170 C171 1.376 . S
N170 C174 1.374 . S
C171 N170 1.376 . S
C171 C172 1.443 . S
C171 C198 1.389 . S
C172 C171 1.443 . S
C172 C173 1.340 . S
C172 H204 0.951 . S
C173 C172 1.340 . S
C173 C174 1.439 . S
C173 H205 0.950 . S
C174 N170 1.374 . S
C174 C173 1.439 . S
C174 C199 1.395 . S
N175 Co164 1.995 1_655 S
N175 C176 1.376 . S
N175 C179 1.383 . S
C176 N175 1.376 . S
C176 C177 1.446 . S
C176 C199 1.391 1_655 S
C177 C176 1.446 . S
C177 C178 1.339 . S
C177 H206 0.949 . S
C178 C177 1.339 . S
C178 C179 1.439 . S
C178 H207 0.950 . S
C179 N175 1.383 . S
C179 C178 1.439 . S
C179 C197 1.392 . S
N180 Co164 2.282 1_655 S
N180 C183 1.332 . S
N180 C185 1.332 . S
C181 C182 1.386 . S
C181 C184 1.388 . S
C182 C181 1.386 . S
C182 C183 1.382 . S
C182 H208 0.950 . S
C183 N180 1.332 . S
C183 C182 1.382 . S
C183 H194 0.952 . S
C184 C181 1.388 . S
C184 C185 1.382 . S
C184 H209 0.950 . S
C185 N180 1.332 . S
C185 C184 1.382 . S
C185 H195 0.948 1_655 S
N186 Co164 2.282 . S
N186 C190 1.332 . S
N186 C191 1.332 . S
C187 C188 1.388 . S
C187 C191 1.382 . S
C187 H210 0.950 . S
C188 C187 1.388 . S
C188 C189 1.386 . S
C189 C188 1.386 . S
C189 C190 1.382 . S
C189 H211 0.950 . S
C190 N186 1.332 . S
C190 C189 1.382 . S
C190 H192 0.952 . S
C191 N186 1.332 . S
C191 C187 1.382 . S
C191 H193 0.948 . S
H192 C190 0.952 . S
H193 C191 0.948 . S
H194 C183 0.952 . S
H195 C185 0.948 1_455 S
C196 C162 1.395 1_455 S
C196 C166 1.391 . S
C197 C159 1.389 . S
C197 C179 1.392 . S
C198 C169 1.392 . S
C198 C171 1.389 . S
C199 C174 1.395 . S
C199 C176 1.391 1_455 S
H200 C160 0.951 . S
H201 C161 0.950 . S
H202 C167 0.949 . S
H203 C168 0.950 . S
H204 C172 0.951 . S
H205 C173 0.950 . S
H206 C177 0.949 . S
H207 C178 0.950 . S
H208 C182 0.950 . S
H209 C184 0.950 . S
H210 C187 0.950 . S
H211 C189 0.950 . S
C212 C213 1.443 . S
C212 N216 1.376 . S
C212 C250 1.389 . S
C213 C212 1.443 . S
C213 C214 1.340 . S
C213 H253 0.951 . S
C214 C213 1.340 . S
C214 C215 1.439 . S
C214 H254 0.950 . S
C215 C214 1.439 . S
C215 N216 1.374 . S
C215 C249 1.395 . S
N216 C212 1.376 . S
N216 C215 1.374 . S
N216 Co217 2.008 . S
Co217 N216 2.008 . S
Co217 N218 1.995 . S
Co217 N223 2.008 . S
Co217 N228 1.995 . S
Co217 N233 2.282 . S
Co217 N239 2.282 . S
N218 Co217 1.995 . S
N218 C219 1.376 . S
N218 C222 1.383 . S
C219 N218 1.376 . S
C219 C220 1.446 . S
C219 C249 1.391 . S
C220 C219 1.446 . S
C220 C221 1.339 . S
C220 H255 0.949 . S
C221 C220 1.339 . S
C221 C222 1.439 . S
C221 H256 0.950 . S
C222 N218 1.383 . S
C222 C221 1.439 . S
C222 C251 1.392 . S
N223 Co217 2.008 . S
N223 C224 1.376 . S
N223 C227 1.374 . S
C224 N223 1.376 . S
C224 C225 1.443 . S
C224 C251 1.389 . S
C225 C224 1.443 . S
C225 C226 1.340 . S
C225 H257 0.951 . S
C226 C225 1.340 . S
C226 C227 1.439 . S
C226 H258 0.950 . S
C227 N223 1.374 . S
C227 C226 1.439 . S
C227 C252 1.395 . S
N228 Co217 1.995 . S
N228 C229 1.376 . S
N228 C232 1.383 . S
C229 N228 1.376 . S
C229 C230 1.446 . S
C229 C252 1.391 . S
C230 C229 1.446 . S
C230 C231 1.339 . S
C230 H259 0.949 . S
C231 C230 1.339 . S
C231 C232 1.439 . S
C231 H260 0.950 . S
C232 N228 1.383 . S
C232 C231 1.439 . S
C232 C250 1.392 . S
N233 Co217 2.282 . S
N233 C236 1.332 . S
N233 C238 1.332 . S
C234 C235 1.386 . S
C234 C237 1.388 . S
C235 C234 1.386 . S
C235 C236 1.382 . S
C235 H261 0.950 . S
C236 N233 1.332 . S
C236 C235 1.382 . S
C236 H247 0.952 . S
C237 C234 1.388 . S
C237 C238 1.382 . S
C237 H262 0.950 . S
C238 N233 1.332 . S
C238 C237 1.382 . S
C238 H248 0.948 . S
N239 Co217 2.282 . S
N239 C243 1.332 . S
N239 C244 1.332 . S
C240 C241 1.388 . S
C240 C244 1.382 . S
C240 H263 0.950 . S
C241 C240 1.388 . S
C241 C242 1.386 . S
C242 C241 1.386 . S
C242 C243 1.382 . S
C242 H264 0.950 . S
C243 N239 1.332 . S
C243 C242 1.382 . S
C243 H245 0.952 . S
C244 N239 1.332 . S
C244 C240 1.382 . S
C244 H246 0.948 . S
H245 C243 0.952 . S
H246 C244 0.948 . S
H247 C236 0.952 . S
H248 C238 0.948 . S
C249 C215 1.395 . S
C249 C219 1.391 . S
C250 C212 1.389 . S
C250 C232 1.392 . S
C251 C222 1.392 . S
C251 C224 1.389 . S
C252 C227 1.395 . S
C252 C229 1.391 . S
H253 C213 0.951 . S
H254 C214 0.950 . S
H255 C220 0.949 . S
H256 C221 0.950 . S
H257 C225 0.951 . S
H258 C226 0.950 . S
H259 C230 0.949 . S
H260 C231 0.950 . S
H261 C235 0.950 . S
H262 C237 0.950 . S
H263 C240 0.950 . S
H264 C242 0.950 . S
C265 C266 1.443 . S
C265 N269 1.376 . S
C265 C303 1.389 . S
C266 C265 1.443 . S
C266 C267 1.340 . S
C266 H306 0.951 . S
C267 C266 1.340 . S
C267 C268 1.439 . S
C267 H307 0.950 . S
C268 C267 1.439 . S
C268 N269 1.374 . S
C268 C302 1.395 1_565 S
N269 C265 1.376 . S
N269 C268 1.374 . S
N269 Co270 2.008 1_565 S
Co270 N269 2.008 1_545 S
Co270 N271 1.995 . S
Co270 N276 2.008 . S
Co270 N281 1.995 1_545 S
Co270 N286 2.282 1_545 S
Co270 N292 2.282 . S
N271 Co270 1.995 . S
N271 C272 1.376 . S
N271 C275 1.383 . S
C272 N271 1.376 . S
C272 C273 1.446 . S
C272 C302 1.391 . S
C273 C272 1.446 . S
C273 C274 1.339 . S
C273 H308 0.949 . S
C274 C273 1.339 . S
C274 C275 1.439 . S
C274 H309 0.950 . S
C275 N271 1.383 . S
C275 C274 1.439 . S
C275 C304 1.392 . S
N276 Co270 2.008 . S
N276 C277 1.376 . S
N276 C280 1.374 . S
C277 N276 1.376 . S
C277 C278 1.443 . S
C277 C304 1.389 . S
C278 C277 1.443 . S
C278 C279 1.340 . S
C278 H310 0.951 . S
C279 C278 1.340 . S
C279 C280 1.439 . S
C279 H311 0.950 . S
C280 N276 1.374 . S
C280 C279 1.439 . S
C280 C305 1.395 . S
N281 Co270 1.995 1_565 S
N281 C282 1.376 . S
N281 C285 1.383 . S
C282 N281 1.376 . S
C282 C283 1.446 . S
C282 C305 1.391 1_565 S
C283 C282 1.446 . S
C283 C284 1.339 . S
C283 H312 0.949 . S
C284 C283 1.339 . S
C284 C285 1.439 . S
C284 H313 0.950 . S
C285 N281 1.383 . S
C285 C284 1.439 . S
C285 C303 1.392 . S
N286 Co270 2.282 1_565 S
N286 C289 1.332 . S
N286 C291 1.332 . S
C287 C288 1.386 . S
C287 C290 1.388 . S
C288 C287 1.386 . S
C288 C289 1.382 . S
C288 H314 0.950 . S
C289 N286 1.332 . S
C289 C288 1.382 . S
C289 H300 0.952 . S
C290 C287 1.388 . S
C290 C291 1.382 . S
C290 H315 0.950 . S
C291 N286 1.332 . S
C291 C290 1.382 . S
C291 H301 0.948 1_565 S
N292 Co270 2.282 . S
N292 C296 1.332 . S
N292 C297 1.332 . S
C293 C294 1.388 . S
C293 C297 1.382 . S
C293 H316 0.950 . S
C294 C293 1.388 . S
C294 C295 1.386 . S
C295 C294 1.386 . S
C295 C296 1.382 . S
C295 H317 0.950 . S
C296 N292 1.332 . S
C296 C295 1.382 . S
C296 H298 0.952 . S
C297 N292 1.332 . S
C297 C293 1.382 . S
C297 H299 0.948 . S
H298 C296 0.952 . S
H299 C297 0.948 . S
H300 C289 0.952 . S
H301 C291 0.948 1_545 S
C302 C268 1.395 1_545 S
C302 C272 1.391 . S
C303 C265 1.389 . S
C303 C285 1.392 . S
C304 C275 1.392 . S
C304 C277 1.389 . S
C305 C280 1.395 . S
C305 C282 1.391 1_545 S
H306 C266 0.951 . S
H307 C267 0.950 . S
H308 C273 0.949 . S
H309 C274 0.950 . S
H310 C278 0.951 . S
H311 C279 0.950 . S
H312 C283 0.949 . S
H313 C284 0.950 . S
H314 C288 0.950 . S
H315 C290 0.950 . S
H316 C293 0.950 . S
H317 C295 0.950 . S
C318 C319 1.443 . S
C318 N322 1.376 . S
C318 C356 1.389 . S
C319 C318 1.443 . S
C319 C320 1.340 . S
C319 H359 0.951 . S
C320 C319 1.340 . S
C320 C321 1.439 . S
C320 H360 0.950 . S
C321 C320 1.439 . S
C321 N322 1.374 . S
C321 C355 1.395 . S
N322 C318 1.376 . S
N322 C321 1.374 . S
N322 Co323 2.008 . S
Co323 N322 2.008 . S
Co323 N324 1.995 . S
Co323 N329 2.008 . S
Co323 N334 1.995 . S
Co323 N339 2.282 . S
Co323 N345 2.282 . S
N324 Co323 1.995 . S
N324 C325 1.376 . S
N324 C328 1.383 . S
C325 N324 1.376 . S
C325 C326 1.446 . S
C325 C355 1.391 . S
C326 C325 1.446 . S
C326 C327 1.339 . S
C326 H361 0.949 . S
C327 C326 1.339 . S
C327 C328 1.439 . S
C327 H362 0.950 . S
C328 N324 1.383 . S
C328 C327 1.439 . S
C328 C357 1.392 . S
N329 Co323 2.008 . S
N329 C330 1.376 . S
N329 C333 1.374 . S
C330 N329 1.376 . S
C330 C331 1.443 . S
C330 C357 1.389 . S
C331 C330 1.443 . S
C331 C332 1.312 1_545 S
C331 H363 0.951 . S
C332 C331 1.312 1_565 S
C332 C333 1.421 1_565 S
C332 H364 0.989 . S
C333 N329 1.374 . S
C333 C332 1.421 1_545 S
C333 C358 1.395 1_545 S
N334 Co323 1.995 . S
N334 C335 1.376 . S
N334 C338 1.383 . S
C335 N334 1.376 . S
C335 C336 1.446 1_545 S
C335 C358 1.391 1_545 S
C336 C335 1.446 1_565 S
C336 C337 1.339 1_565 S
C336 H365 0.949 . S
C337 C336 1.339 1_545 S
C337 C338 1.439 . S
C337 H366 0.950 . S
C338 N334 1.383 . S
C338 C337 1.439 . S
C338 C356 1.392 . S
N339 Co323 2.282 . S
N339 C342 1.332 . S
N339 C344 1.332 . S
C340 C341 1.386 1_545 S
C340 C343 1.388 . S
C341 C340 1.386 1_565 S
C341 C342 1.382 1_565 S
C341 H367 0.950 . S
C342 N339 1.332 . S
C342 C341 1.382 1_545 S
C342 H353 0.952 . S
C343 C340 1.388 . S
C343 C344 1.382 . S
C343 H368 0.950 . S
C344 N339 1.332 . S
C344 C343 1.382 . S
C344 H354 0.948 . S
N345 Co323 2.282 . S
N345 C349 1.332 . S
N345 C350 1.332 . S
C346 C347 1.388 . S
C346 C350 1.382 . S
C346 H369 0.950 . S
C347 C346 1.388 . S
C347 C348 1.386 . S
C348 C347 1.386 . S
C348 C349 1.382 . S
C348 H370 0.950 . S
C349 N345 1.332 . S
C349 C348 1.382 . S
C349 H351 0.952 . S
C350 N345 1.332 . S
C350 C346 1.382 . S
C350 H352 0.948 . S
H351 C349 0.952 . S
H352 C350 0.948 . S
H353 C342 0.952 . S
H354 C344 0.948 . S
C355 C321 1.395 . S
C355 C325 1.391 . S
C356 C318 1.389 . S
C356 C338 1.392 . S
C357 C328 1.392 . S
C357 C330 1.389 . S
C358 C333 1.395 1_565 S
C358 C335 1.391 1_565 S
H359 C319 0.951 . S
H360 C320 0.950 . S
H361 C326 0.949 . S
H362 C327 0.950 . S
H363 C331 0.951 . S
H364 C332 0.989 . S
H365 C336 0.949 . S
H366 C337 0.950 . S
H367 C341 0.950 . S
H368 C343 0.950 . S
H369 C346 0.950 . S
H370 C348 0.950 . S
C371 C372 1.443 . S
C371 N375 1.376 . S
C371 C409 1.389 . S
C372 C371 1.443 . S
C372 C373 1.340 . S
C372 H412 0.951 . S
C373 C372 1.340 . S
C373 C374 1.439 . S
C373 H413 0.950 . S
C374 C373 1.439 . S
C374 N375 1.374 . S
C374 C408 1.395 . S
N375 C371 1.376 . S
N375 C374 1.374 . S
N375 Co376 2.008 . S
Co376 N375 2.008 . S
Co376 N377 1.995 . S
Co376 N382 2.008 . S
Co376 N387 1.995 . S
Co376 N392 2.282 . S
Co376 N398 2.282 . S
N377 Co376 1.995 . S
N377 C378 1.376 . S
N377 C381 1.383 . S
C378 N377 1.376 . S
C378 C379 1.446 . S
C378 C408 1.391 . S
C379 C378 1.446 . S
C379 C380 1.339 . S
C379 H414 0.949 . S
C380 C379 1.339 . S
C380 C381 1.439 . S
C380 H415 0.950 . S
C381 N377 1.383 . S
C381 C380 1.439 . S
C381 C410 1.392 . S
N382 Co376 2.008 . S
N382 C383 1.376 . S
N382 C386 1.374 1_655 S
C383 N382 1.376 . S
C383 C384 1.443 1_655 S
C383 C410 1.389 . S
C384 C383 1.443 1_455 S
C384 C385 1.340 . S
C384 H416 0.951 . S
C385 C384 1.340 . S
C385 C386 1.439 . S
C385 H417 0.950 . S
C386 N382 1.374 1_455 S
C386 C385 1.439 . S
C386 C411 1.395 . S
N387 Co376 1.995 . S
N387 C388 1.376 . S
N387 C391 1.383 . S
C388 N387 1.376 . S
C388 C389 1.446 1_655 S
C388 C411 1.391 1_655 S
C389 C388 1.446 1_455 S
C389 C390 1.339 1_455 S
C389 H418 0.949 . S
C390 C389 1.339 1_655 S
C390 C391 1.439 . S
C390 H419 0.950 . S
C391 N387 1.383 . S
C391 C390 1.439 . S
C391 C409 1.392 . S
N392 Co376 2.282 . S
N392 C395 1.332 . S
N392 C397 1.332 . S
C393 C394 1.386 . S
C393 C396 1.388 . S
C394 C393 1.386 . S
C394 C395 1.382 . S
C394 H420 0.950 . S
C395 N392 1.332 . S
C395 C394 1.382 . S
C395 H406 0.952 . S
C396 C393 1.388 . S
C396 C397 1.382 . S
C396 H421 0.950 . S
C397 N392 1.332 . S
C397 C396 1.382 . S
C397 H407 0.948 . S
N398 Co376 2.282 . S
N398 C402 1.332 . S
N398 C403 1.332 1_655 S
C399 C400 1.388 . S
C399 C403 1.382 . S
C399 H422 0.950 . S
C400 C399 1.388 . S
C400 C401 1.386 1_455 S
C401 C400 1.386 1_655 S
C401 C402 1.382 . S
C401 H423 0.950 . S
C402 N398 1.332 . S
C402 C401 1.382 . S
C402 H404 0.952 . S
C403 N398 1.332 1_455 S
C403 C399 1.382 . S
C403 H405 0.948 . S
H404 C402 0.952 . S
H405 C403 0.948 . S
H406 C395 0.952 . S
H407 C397 0.948 . S
C408 C374 1.395 . S
C408 C378 1.391 . S
C409 C371 1.389 . S
C409 C391 1.392 . S
C410 C381 1.392 . S
C410 C383 1.389 . S
C411 C386 1.395 . S
C411 C388 1.391 1_455 S
H412 C372 0.951 . S
H413 C373 0.950 . S
H414 C379 0.949 . S
H415 C380 0.950 . S
H416 C384 0.951 . S
H417 C385 0.950 . S
H418 C389 0.949 . S
H419 C390 0.950 . S
H420 C394 0.950 . S
H421 C396 0.950 . S
H422 C399 0.950 . S
H423 C401 0.950 . S
C424 C425 1.443 . S
C424 N428 1.376 . S
C424 C462 1.389 . S
C425 C424 1.443 . S
C425 C426 1.340 . S
C425 H465 0.951 . S
C426 C425 1.340 . S
C426 C427 1.439 . S
C426 H466 0.950 . S
C427 C426 1.439 . S
C427 N428 1.374 . S
C427 C461 1.395 . S
N428 C424 1.376 . S
N428 C427 1.374 . S
N428 Co429 2.008 . S
Co429 N428 2.008 . S
Co429 N430 1.995 . S
Co429 N435 2.008 . S
Co429 N440 1.995 . S
Co429 N445 2.282 . S
Co429 N451 2.282 . S
N430 Co429 1.995 . S
N430 C431 1.376 . S
N430 C434 1.383 . S
C431 N430 1.376 . S
C431 C432 1.446 . S
C431 C461 1.391 . S
C432 C431 1.446 . S
C432 C433 1.339 . S
C432 H467 0.949 . S
C433 C432 1.339 . S
C433 C434 1.439 . S
C433 H468 0.950 . S
C434 N430 1.383 . S
C434 C433 1.439 . S
C434 C463 1.392 . S
N435 Co429 2.008 . S
N435 C436 1.376 . S
N435 C439 1.374 . S
C436 N435 1.376 . S
C436 C437 1.443 . S
C436 C463 1.389 . S
C437 C436 1.443 . S
C437 C438 1.340 . S
C437 H469 0.951 . S
C438 C437 1.340 . S
C438 C439 1.439 . S
C438 H470 0.950 . S
C439 N435 1.374 . S
C439 C438 1.439 . S
C439 C464 1.395 . S
N440 Co429 1.995 . S
N440 C441 1.376 . S
N440 C444 1.383 . S
C441 N440 1.376 . S
C441 C442 1.446 . S
C441 C464 1.391 . S
C442 C441 1.446 . S
C442 C443 1.339 . S
C442 H471 0.949 . S
C443 C442 1.339 . S
C443 C444 1.439 . S
C443 H472 0.950 . S
C444 N440 1.383 . S
C444 C443 1.439 . S
C444 C462 1.392 . S
N445 Co429 2.282 . S
N445 C448 1.332 . S
N445 C450 1.332 . S
C446 C447 1.386 . S
C446 C449 1.388 . S
C447 C446 1.386 . S
C447 C448 1.382 . S
C447 H473 0.950 . S
C448 N445 1.332 . S
C448 C447 1.382 . S
C448 H459 0.952 . S
C449 C446 1.388 . S
C449 C450 1.382 . S
C449 H474 0.950 . S
C450 N445 1.332 . S
C450 C449 1.382 . S
C450 H460 0.948 . S
N451 Co429 2.282 . S
N451 C455 1.332 . S
N451 C456 1.332 . S
C452 C453 1.388 . S
C452 C456 1.382 . S
C452 H475 0.950 . S
C453 C452 1.388 . S
C453 C454 1.386 . S
C454 C453 1.386 . S
C454 C455 1.382 . S
C454 H476 0.950 . S
C455 N451 1.332 . S
C455 C454 1.382 . S
C455 H457 0.952 . S
C456 N451 1.332 . S
C456 C452 1.382 . S
C456 H458 0.948 . S
H457 C455 0.952 . S
H458 C456 0.948 . S
H459 C448 0.952 . S
H460 C450 0.948 . S
C461 C427 1.395 . S
C461 C431 1.391 . S
C462 C424 1.389 . S
C462 C444 1.392 . S
C463 C434 1.392 . S
C463 C436 1.389 . S
C464 C439 1.395 . S
C464 C441 1.391 . S
H465 C425 0.951 . S
H466 C426 0.950 . S
H467 C432 0.949 . S
H468 C433 0.950 . S
H469 C437 0.951 . S
H470 C438 0.950 . S
H471 C442 0.949 . S
H472 C443 0.950 . S
H473 C447 0.950 . S
H474 C449 0.950 . S
H475 C452 0.950 . S
H476 C454 0.950 . S
C477 C478 1.443 . S
C477 N481 1.376 . S
C477 C515 1.389 . S
C478 C477 1.443 . S
C478 C479 1.340 . S
C478 H518 0.951 . S
C479 C478 1.340 . S
C479 C480 1.439 . S
C479 H519 0.950 . S
C480 C479 1.439 . S
C480 N481 1.374 . S
C480 C514 1.395 . S
N481 C477 1.376 . S
N481 C480 1.374 . S
N481 Co482 2.008 . S
Co482 N481 2.008 . S
Co482 N483 1.995 . S
Co482 N488 2.008 . S
Co482 N493 1.995 . S
Co482 N498 2.282 . S
Co482 N504 2.282 . S
N483 Co482 1.995 . S
N483 C484 1.376 . S
N483 C487 1.383 . S
C484 N483 1.376 . S
C484 C485 1.446 . S
C484 C514 1.391 . S
C485 C484 1.446 . S
C485 C486 1.339 . S
C485 H520 0.949 . S
C486 C485 1.339 . S
C486 C487 1.439 . S
C486 H521 0.950 . S
C487 N483 1.383 . S
C487 C486 1.439 . S
C487 C516 1.392 . S
N488 Co482 2.008 . S
N488 C489 1.376 . S
N488 C492 1.374 . S
C489 N488 1.376 . S
C489 C490 1.443 . S
C489 C516 1.389 . S
C490 C489 1.443 . S
C490 C491 1.340 . S
C490 H522 0.951 . S
C491 C490 1.340 . S
C491 C492 1.439 . S
C491 H523 0.950 . S
C492 N488 1.374 . S
C492 C491 1.439 . S
C492 C517 1.395 . S
N493 Co482 1.995 . S
N493 C494 1.376 . S
N493 C497 1.383 . S
C494 N493 1.376 . S
C494 C495 1.446 . S
C494 C517 1.391 . S
C495 C494 1.446 . S
C495 C496 1.339 . S
C495 H524 0.949 . S
C496 C495 1.339 . S
C496 C497 1.439 . S
C496 H525 0.950 . S
C497 N493 1.383 . S
C497 C496 1.439 . S
C497 C515 1.392 . S
N498 Co482 2.282 . S
N498 C501 1.332 . S
N498 C503 1.332 . S
C499 C500 1.386 1_556 S
C499 C502 1.388 1_556 S
C500 C499 1.386 1_554 S
C500 C501 1.382 . S
C500 H526 0.950 1_554 S
C501 N498 1.332 . S
C501 C500 1.382 . S
C501 H512 0.952 . S
C502 C499 1.388 1_554 S
C502 C503 1.382 . S
C502 H527 0.950 1_554 S
C503 N498 1.332 . S
C503 C502 1.382 . S
C503 H513 0.948 . S
N504 Co482 2.282 . S
N504 C508 1.332 . S
N504 C509 1.332 . S
C505 C506 1.388 . S
C505 C509 1.382 . S
C505 H528 0.950 . S
C506 C505 1.388 . S
C506 C507 1.386 . S
C507 C506 1.386 . S
C507 C508 1.382 . S
C507 H529 0.950 . S
C508 N504 1.332 . S
C508 C507 1.382 . S
C508 H510 0.952 . S
C509 N504 1.332 . S
C509 C505 1.382 . S
C509 H511 0.948 . S
H510 C508 0.952 . S
H511 C509 0.948 . S
H512 C501 0.952 . S
H513 C503 0.948 . S
C514 C480 1.395 . S
C514 C484 1.391 . S
C515 C477 1.389 . S
C515 C497 1.392 . S
C516 C487 1.392 . S
C516 C489 1.389 . S
C517 C492 1.395 . S
C517 C494 1.391 . S
H518 C478 0.951 . S
H519 C479 0.950 . S
H520 C485 0.949 . S
H521 C486 0.950 . S
H522 C490 0.951 . S
H523 C491 0.950 . S
H524 C495 0.949 . S
H525 C496 0.950 . S
H526 C500 0.950 1_556 S
H527 C502 0.950 1_556 S
H528 C505 0.950 . S
H529 C507 0.950 . S
C530 C531 1.443 . S
C530 N534 1.376 . S
C530 C568 1.389 . S
C531 C530 1.443 . S
C531 C532 1.340 . S
C531 H571 0.951 . S
C532 C531 1.340 . S
C532 C533 1.439 . S
C532 H572 0.950 . S
C533 C532 1.439 . S
C533 N534 1.374 . S
C533 C567 1.395 . S
N534 C530 1.376 . S
N534 C533 1.374 . S
N534 Co535 2.008 . S
Co535 N534 2.008 . S
Co535 N536 1.995 . S
Co535 N541 2.008 . S
Co535 N546 1.995 . S
Co535 N551 2.282 . S
Co535 N557 2.282 . S
N536 Co535 1.995 . S
N536 C537 1.376 . S
N536 C540 1.383 . S
C537 N536 1.376 . S
C537 C538 1.446 . S
C537 C567 1.391 . S
C538 C537 1.446 . S
C538 C539 1.339 . S
C538 H573 0.949 . S
C539 C538 1.339 . S
C539 C540 1.439 . S
C539 H574 0.950 . S
C540 N536 1.383 . S
C540 C539 1.439 . S
C540 C569 1.392 . S
N541 Co535 2.008 . S
N541 C542 1.376 . S
N541 C545 1.374 . S
C542 N541 1.376 . S
C542 C543 1.443 . S
C542 C569 1.389 . S
C543 C542 1.443 . S
C543 C544 1.340 . S
C543 H575 0.930 1_545 S
C544 C543 1.340 . S
C544 C545 1.439 . S
C544 H576 0.950 1_545 S
C545 N541 1.374 . S
C545 C544 1.439 . S
C545 C570 1.395 . S
N546 Co535 1.995 . S
N546 C547 1.376 . S
N546 C550 1.383 . S
C547 N546 1.376 . S
C547 C548 1.446 . S
C547 C570 1.391 . S
C548 C547 1.446 . S
C548 C549 1.339 . S
C548 H577 0.949 . S
C549 C548 1.339 . S
C549 C550 1.439 . S
C549 H578 0.950 . S
C550 N546 1.383 . S
C550 C549 1.439 . S
C550 C568 1.392 . S
N551 Co535 2.282 . S
N551 C554 1.332 . S
N551 C556 1.332 . S
C552 C553 1.386 1_556 S
C552 C555 1.388 1_556 S
C553 C552 1.386 1_554 S
C553 C554 1.382 . S
C553 H579 0.950 1_554 S
C554 N551 1.332 . S
C554 C553 1.382 . S
C554 H565 0.952 . S
C555 C552 1.388 1_554 S
C555 C556 1.382 . S
C555 H580 0.950 1_554 S
C556 N551 1.332 . S
C556 C555 1.382 . S
C556 H566 0.948 . S
N557 Co535 2.282 . S
N557 C561 1.332 . S
N557 C562 1.332 . S
C558 C559 1.388 . S
C558 C562 1.382 . S
C558 H581 0.950 . S
C559 C558 1.388 . S
C559 C560 1.386 . S
C560 C559 1.386 . S
C560 C561 1.382 . S
C560 H582 0.950 . S
C561 N557 1.332 . S
C561 C560 1.382 . S
C561 H563 0.952 . S
C562 N557 1.332 . S
C562 C558 1.382 . S
C562 H564 0.948 . S
H563 C561 0.952 . S
H564 C562 0.948 . S
H565 C554 0.952 . S
H566 C556 0.948 . S
C567 C533 1.395 . S
C567 C537 1.391 . S
C568 C530 1.389 . S
C568 C550 1.392 . S
C569 C540 1.392 . S
C569 C542 1.389 . S
C570 C545 1.395 . S
C570 C547 1.391 . S
H571 C531 0.951 . S
H572 C532 0.950 . S
H573 C538 0.949 . S
H574 C539 0.950 . S
H575 C543 0.930 1_565 S
H576 C544 0.950 1_565 S
H577 C548 0.949 . S
H578 C549 0.950 . S
H579 C553 0.950 1_556 S
H580 C555 0.950 1_556 S
H581 C558 0.950 . S
H582 C560 0.950 . S
C583 C584 1.443 . S
C583 N587 1.376 . S
C583 C621 1.389 . S
C584 C583 1.443 . S
C584 C585 1.340 . S
C584 H624 0.951 . S
C585 C584 1.340 . S
C585 C586 1.439 . S
C585 H625 0.950 . S
C586 C585 1.439 . S
C586 N587 1.374 . S
C586 C620 1.395 . S
N587 C583 1.376 . S
N587 C586 1.374 . S
N587 Co588 2.008 . S
Co588 N587 2.008 . S
Co588 N589 1.995 . S
Co588 N594 2.008 . S
Co588 N599 1.995 . S
Co588 N604 2.282 . S
Co588 N610 2.282 . S
N589 Co588 1.995 . S
N589 C590 1.376 . S
N589 C593 1.383 . S
C590 N589 1.376 . S
C590 C591 1.446 . S
C590 C620 1.391 . S
C591 C590 1.446 . S
C591 C592 1.339 . S
C591 H626 0.949 . S
C592 C591 1.339 . S
C592 C593 1.439 . S
C592 H627 0.950 . S
C593 N589 1.383 . S
C593 C592 1.439 . S
C593 C622 1.392 . S
N594 Co588 2.008 . S
N594 C595 1.376 . S
N594 C598 1.374 . S
C595 N594 1.376 . S
C595 C596 1.443 1_655 S
C595 C622 1.389 . S
C596 C595 1.443 1_455 S
C596 C597 1.340 . S
C596 H628 0.951 . S
C597 C596 1.340 . S
C597 C598 1.439 1_455 S
C597 H629 0.950 . S
C598 N594 1.374 . S
C598 C597 1.439 1_655 S
C598 C623 1.395 . S
N599 Co588 1.995 . S
N599 C600 1.376 . S
N599 C603 1.383 . S
C600 N599 1.376 . S
C600 C601 1.446 . S
C600 C623 1.391 . S
C601 C600 1.446 . S
C601 C602 1.339 . S
C601 H630 0.949 . S
C602 C601 1.339 . S
C602 C603 1.439 . S
C602 H631 0.950 . S
C603 N599 1.383 . S
C603 C602 1.439 . S
C603 C621 1.392 . S
N604 Co588 2.282 . S
N604 C607 1.332 . S
N604 C609 1.332 . S
C605 C606 1.386 1_556 S
C605 C608 1.388 1_556 S
C606 C605 1.386 1_554 S
C606 C607 1.382 . S
C606 H632 0.950 1_554 S
C607 N604 1.332 . S
C607 C606 1.382 . S
C607 H618 0.952 . S
C608 C605 1.388 1_554 S
C608 C609 1.382 . S
C608 H633 0.950 1_554 S
C609 N604 1.332 . S
C609 C608 1.382 . S
C609 H619 0.948 . S
N610 Co588 2.282 . S
N610 C614 1.332 . S
N610 C615 1.332 . S
C611 C612 1.388 . S
C611 C615 1.382 . S
C611 H634 0.950 . S
C612 C611 1.388 . S
C612 C613 1.386 . S
C613 C612 1.386 . S
C613 C614 1.382 . S
C613 H635 0.950 . S
C614 N610 1.332 . S
C614 C613 1.382 . S
C614 H616 0.952 . S
C615 N610 1.332 . S
C615 C611 1.382 . S
C615 H617 0.948 . S
H616 C614 0.952 . S
H617 C615 0.948 . S
H618 C607 0.952 . S
H619 C609 0.948 . S
C620 C586 1.395 . S
C620 C590 1.391 . S
C621 C583 1.389 . S
C621 C603 1.392 . S
C622 C593 1.392 . S
C622 C595 1.389 . S
C623 C598 1.395 . S
C623 C600 1.391 . S
H624 C584 0.951 . S
H625 C585 0.950 . S
H626 C591 0.949 . S
H627 C592 0.950 . S
H628 C596 0.951 . S
H629 C597 0.950 . S
H630 C601 0.949 . S
H631 C602 0.950 . S
H632 C606 0.950 1_556 S
H633 C608 0.950 1_556 S
H634 C611 0.950 . S
H635 C613 0.950 . S
C636 C637 1.443 . S
C636 N640 1.376 . S
C636 C674 1.389 . S
C637 C636 1.443 . S
C637 C638 1.340 . S
C637 H677 0.951 . S
C638 C637 1.340 . S
C638 C639 1.439 . S
C638 H678 0.950 . S
C639 C638 1.439 . S
C639 N640 1.374 . S
C639 C673 1.395 . S
N640 C636 1.376 . S
N640 C639 1.374 . S
N640 Co641 2.008 . S
Co641 N640 2.008 . S
Co641 N642 1.995 . S
Co641 N647 2.008 . S
Co641 N652 1.995 . S
Co641 N657 2.282 . S
Co641 N663 2.282 . S
N642 Co641 1.995 . S
N642 C643 1.376 . S
N642 C646 1.383 . S
C643 N642 1.376 . S
C643 C644 1.446 . S
C643 C673 1.391 . S
C644 C643 1.446 . S
C644 C645 1.339 . S
C644 H679 0.949 . S
C645 C644 1.339 . S
C645 C646 1.439 . S
C645 H680 0.950 . S
C646 N642 1.383 . S
C646 C645 1.439 . S
C646 C675 1.392 . S
N647 Co641 2.008 . S
N647 C648 1.376 . S
N647 C651 1.374 . S
C648 N647 1.376 . S
C648 C649 1.443 . S
C648 C675 1.389 . S
C649 C648 1.443 . S
C649 C650 1.340 . S
C649 H681 0.951 . S
C650 C649 1.340 . S
C650 C651 1.439 . S
C650 H682 0.950 . S
C651 N647 1.374 . S
C651 C650 1.439 . S
C651 C676 1.395 . S
N652 Co641 1.995 . S
N652 C653 1.376 . S
N652 C656 1.383 . S
C653 N652 1.376 . S
C653 C654 1.446 . S
C653 C676 1.391 . S
C654 C653 1.446 . S
C654 C655 1.339 . S
C654 H683 0.949 . S
C655 C654 1.339 . S
C655 C656 1.439 . S
C655 H684 0.950 . S
C656 N652 1.383 . S
C656 C655 1.439 . S
C656 C674 1.392 . S
N657 Co641 2.282 . S
N657 C660 1.332 . S
N657 C662 1.332 . S
C658 C659 1.386 . S
C658 C661 1.388 . S
C659 C658 1.386 . S
C659 C660 1.382 . S
C659 H685 0.950 . S
C660 N657 1.332 . S
C660 C659 1.382 . S
C660 H671 0.952 . S
C661 C658 1.388 . S
C661 C662 1.382 . S
C661 H686 0.950 . S
C662 N657 1.332 . S
C662 C661 1.382 . S
C662 H672 0.948 . S
N663 Co641 2.282 . S
N663 C667 1.332 . S
N663 C668 1.332 . S
C664 C665 1.388 . S
C664 C668 1.382 . S
C664 H687 0.950 . S
C665 C664 1.388 . S
C665 C666 1.386 . S
C666 C665 1.386 . S
C666 C667 1.382 . S
C666 H688 0.950 . S
C667 N663 1.332 . S
C667 C666 1.382 . S
C667 H669 0.952 . S
C668 N663 1.332 . S
C668 C664 1.382 . S
C668 H670 0.948 . S
H669 C667 0.952 . S
H670 C668 0.948 . S
H671 C660 0.952 . S
H672 C662 0.948 . S
C673 C639 1.395 . S
C673 C643 1.391 . S
C674 C636 1.389 . S
C674 C656 1.392 . S
C675 C646 1.392 . S
C675 C648 1.389 . S
C676 C651 1.395 . S
C676 C653 1.391 . S
H677 C637 0.951 . S
H678 C638 0.950 . S
H679 C644 0.949 . S
H680 C645 0.950 . S
H681 C649 0.951 . S
H682 C650 0.950 . S
H683 C654 0.949 . S
H684 C655 0.950 . S
H685 C659 0.950 . S
H686 C661 0.950 . S
H687 C664 0.950 . S
H688 C666 0.950 . S
C689 C690 1.443 . S
C689 N693 1.376 . S
C689 C727 1.389 . S
C690 C689 1.443 . S
C690 C691 1.340 . S
C690 H730 0.951 . S
C691 C690 1.340 . S
C691 C692 1.439 . S
C691 H731 0.950 . S
C692 C691 1.439 . S
C692 N693 1.374 . S
C692 C726 1.395 . S
N693 C689 1.376 . S
N693 C692 1.374 . S
N693 Co694 2.008 . S
Co694 N693 2.008 . S
Co694 N695 1.995 . S
Co694 N700 2.008 . S
Co694 N705 1.995 . S
Co694 N710 2.282 . S
Co694 N716 2.282 . S
N695 Co694 1.995 . S
N695 C696 1.376 . S
N695 C699 1.383 . S
C696 N695 1.376 . S
C696 C697 1.446 . S
C696 C726 1.391 . S
C697 C696 1.446 . S
C697 C698 1.339 . S
C697 H732 0.949 . S
C698 C697 1.339 . S
C698 C699 1.439 . S
C698 H733 0.950 . S
C699 N695 1.383 . S
C699 C698 1.439 . S
C699 C728 1.392 . S
N700 Co694 2.008 . S
N700 C701 1.376 . S
N700 C704 1.374 1_565 S
C701 N700 1.376 . S
C701 C702 1.443 . S
C701 C728 1.389 . S
C702 C701 1.443 . S
C702 C703 1.340 1_565 S
C702 H734 0.951 . S
C703 C702 1.340 1_545 S
C703 C704 1.439 . S
C703 H735 0.950 . S
C704 N700 1.374 1_545 S
C704 C703 1.439 . S
C704 C729 1.395 . S
N705 Co694 1.995 . S
N705 C706 1.376 1_565 S
N705 C709 1.383 . S
C706 N705 1.376 1_545 S
C706 C707 1.446 . S
C706 C729 1.391 . S
C707 C706 1.446 . S
C707 C708 1.339 . S
C707 H736 0.949 . S
C708 C707 1.339 . S
C708 C709 1.439 1_545 S
C708 H737 0.950 . S
C709 N705 1.383 . S
C709 C708 1.439 1_565 S
C709 C727 1.392 . S
N710 Co694 2.282 . S
N710 C713 1.332 1_565 S
N710 C715 1.332 . S
C711 C712 1.391 . S
C711 C714 1.346 1_545 S
C712 C711 1.391 . S
C712 C713 1.382 . S
C712 H738 0.950 . S
C713 N710 1.332 1_545 S
C713 C712 1.382 . S
C713 H724 0.952 . S
C714 C711 1.346 1_565 S
C714 C715 1.382 . S
C714 H739 0.950 . S
C715 N710 1.332 . S
C715 C714 1.382 . S
C715 H725 0.948 . S
N716 Co694 2.282 . S
N716 C720 1.332 . S
N716 C721 1.332 . S
C717 C718 1.388 . S
C717 C721 1.382 . S
C717 H740 0.950 . S
C718 C717 1.388 . S
C718 C719 1.386 . S
C719 C718 1.386 . S
C719 C720 1.382 . S
C719 H741 0.950 . S
C720 N716 1.332 . S
C720 C719 1.382 . S
C720 H722 0.952 . S
C721 N716 1.332 . S
C721 C717 1.382 . S
C721 H723 0.948 . S
H722 C720 0.952 . S
H723 C721 0.948 . S
H724 C713 0.952 . S
H725 C715 0.948 . S
C726 C692 1.395 . S
C726 C696 1.391 . S
C727 C689 1.389 . S
C727 C709 1.392 . S
C728 C699 1.392 . S
C728 C701 1.389 . S
C729 C704 1.395 . S
C729 C706 1.391 . S
H730 C690 0.951 . S
H731 C691 0.950 . S
H732 C697 0.949 . S
H733 C698 0.950 . S
H734 C702 0.951 . S
H735 C703 0.950 . S
H736 C707 0.949 . S
H737 C708 0.950 . S
H738 C712 0.950 . S
H739 C714 0.950 . S
H740 C717 0.950 . S
H741 C719 0.950 . S
C742 C743 1.443 . S
C742 N746 1.376 . S
C742 C780 1.389 . S
C743 C742 1.443 . S
C743 C744 1.340 . S
C743 H783 0.951 . S
C744 C743 1.340 . S
C744 C745 1.439 . S
C744 H784 0.950 . S
C745 C744 1.439 . S
C745 N746 1.374 . S
C745 C779 1.395 . S
N746 C742 1.376 . S
N746 C745 1.374 . S
N746 Co747 2.008 . S
Co747 N746 2.008 . S
Co747 N748 1.995 . S
Co747 N753 2.008 . S
Co747 N758 1.995 . S
Co747 N763 2.282 . S
Co747 N769 2.282 . S
N748 Co747 1.995 . S
N748 C749 1.376 . S
N748 C752 1.383 . S
C749 N748 1.376 . S
C749 C750 1.446 . S
C749 C779 1.391 . S
C750 C749 1.446 . S
C750 C751 1.339 . S
C750 H785 0.949 . S
C751 C750 1.339 . S
C751 C752 1.439 . S
C751 H786 0.950 . S
C752 N748 1.383 . S
C752 C751 1.439 . S
C752 C781 1.392 . S
N753 Co747 2.008 . S
N753 C754 1.376 . S
N753 C757 1.374 . S
C754 N753 1.376 . S
C754 C755 1.443 . S
C754 C781 1.389 . S
C755 C754 1.443 . S
C755 C756 1.312 1_455 S
C755 H787 0.951 . S
C756 C755 1.312 1_655 S
C756 C757 1.421 1_655 S
C756 H788 0.989 . S
C757 N753 1.374 . S
C757 C756 1.421 1_455 S
C757 C782 1.395 1_455 S
N758 Co747 1.995 . S
N758 C759 1.376 . S
N758 C762 1.383 . S
C759 N758 1.376 . S
C759 C760 1.446 1_455 S
C759 C782 1.391 1_455 S
C760 C759 1.446 1_655 S
C760 C761 1.339 1_655 S
C760 H789 0.949 . S
C761 C760 1.339 1_455 S
C761 C762 1.439 . S
C761 H790 0.950 . S
C762 N758 1.383 . S
C762 C761 1.439 . S
C762 C780 1.392 . S
N763 Co747 2.282 . S
N763 C766 1.332 . S
N763 C768 1.332 . S
C764 C765 1.386 1_455 S
C764 C767 1.388 . S
C765 C764 1.386 1_655 S
C765 C766 1.382 1_655 S
C765 H791 0.950 . S
C766 N763 1.332 . S
C766 C765 1.382 1_455 S
C766 H777 0.952 . S
C767 C764 1.388 . S
C767 C768 1.382 . S
C767 H792 0.950 . S
C768 N763 1.332 . S
C768 C767 1.382 . S
C768 H778 0.948 . S
N769 Co747 2.282 . S
N769 C773 1.332 . S
N769 C774 1.332 . S
C770 C771 1.388 . S
C770 C774 1.382 . S
C770 H793 0.950 . S
C771 C770 1.388 . S
C771 C772 1.386 . S
C772 C771 1.386 . S
C772 C773 1.382 . S
C772 H794 0.950 . S
C773 N769 1.332 . S
C773 C772 1.382 . S
C773 H775 0.952 . S
C774 N769 1.332 . S
C774 C770 1.382 . S
C774 H776 0.948 . S
H775 C773 0.952 . S
H776 C774 0.948 . S
H777 C766 0.952 . S
H778 C768 0.948 . S
C779 C745 1.395 . S
C779 C749 1.391 . S
C780 C742 1.389 . S
C780 C762 1.392 . S
C781 C752 1.392 . S
C781 C754 1.389 . S
C782 C757 1.395 1_655 S
C782 C759 1.391 1_655 S
H783 C743 0.951 . S
H784 C744 0.950 . S
H785 C750 0.949 . S
H786 C751 0.950 . S
H787 C755 0.951 . S
H788 C756 0.989 . S
H789 C760 0.949 . S
H790 C761 0.950 . S
H791 C765 0.950 . S
H792 C767 0.950 . S
H793 C770 0.950 . S
H794 C772 0.950 . S
C795 C796 1.443 . S
C795 N799 1.376 . S
C795 C833 1.389 . S
C796 C795 1.443 . S
C796 C797 1.340 . S
C796 H836 0.951 . S
C797 C796 1.340 . S
C797 C798 1.439 . S
C797 H837 0.950 . S
C798 C797 1.439 . S
C798 N799 1.374 . S
C798 C832 1.395 . S
N799 C795 1.376 . S
N799 C798 1.374 . S
N799 Co800 2.008 . S
Co800 N799 2.008 . S
Co800 N801 1.995 . S
Co800 N806 2.008 . S
Co800 N811 1.995 . S
Co800 N816 2.282 . S
Co800 N822 2.282 . S
N801 Co800 1.995 . S
N801 C802 1.376 . S
N801 C805 1.383 . S
C802 N801 1.376 . S
C802 C803 1.446 . S
C802 C832 1.391 . S
C803 C802 1.446 . S
C803 C804 1.339 . S
C803 H838 0.949 . S
C804 C803 1.339 . S
C804 C805 1.439 . S
C804 H839 0.950 . S
C805 N801 1.383 . S
C805 C804 1.439 . S
C805 C834 1.392 . S
N806 Co800 2.008 . S
N806 C807 1.376 . S
N806 C810 1.374 . S
C807 N806 1.376 . S
C807 C808 1.443 1_565 S
C807 C834 1.389 . S
C808 C807 1.443 1_545 S
C808 C809 1.340 . S
C808 H840 0.951 . S
C809 C808 1.340 . S
C809 C810 1.439 1_545 S
C809 H841 0.950 . S
C810 N806 1.374 . S
C810 C809 1.439 1_565 S
C810 C835 1.395 . S
N811 Co800 1.995 . S
N811 C812 1.376 . S
N811 C815 1.383 . S
C812 N811 1.376 . S
C812 C813 1.446 . S
C812 C835 1.391 . S
C813 C812 1.446 . S
C813 C814 1.339 . S
C813 H842 0.949 . S
C814 C813 1.339 . S
C814 C815 1.439 . S
C814 H843 0.950 . S
C815 N811 1.383 . S
C815 C814 1.439 . S
C815 C833 1.392 . S
N816 Co800 2.282 . S
N816 C819 1.332 . S
N816 C821 1.332 . S
C817 C818 1.386 . S
C817 C820 1.388 . S
C818 C817 1.386 . S
C818 C819 1.382 . S
C818 H844 0.950 . S
C819 N816 1.332 . S
C819 C818 1.382 . S
C819 H830 0.952 . S
C820 C817 1.388 . S
C820 C821 1.382 . S
C820 H845 0.950 . S
C821 N816 1.332 . S
C821 C820 1.382 . S
C821 H831 0.948 . S
N822 Co800 2.282 . S
N822 C826 1.332 . S
N822 C827 1.332 . S
C823 C824 1.388 . S
C823 C827 1.382 . S
C823 H846 0.950 . S
C824 C823 1.388 . S
C824 C825 1.386 . S
C825 C824 1.386 . S
C825 C826 1.382 . S
C825 H847 0.950 . S
C826 N822 1.332 . S
C826 C825 1.382 . S
C826 H828 0.952 . S
C827 N822 1.332 . S
C827 C823 1.382 . S
C827 H829 0.948 . S
H828 C826 0.952 . S
H829 C827 0.948 . S
H830 C819 0.952 . S
H831 C821 0.948 . S
C832 C798 1.395 . S
C832 C802 1.391 . S
C833 C795 1.389 . S
C833 C815 1.392 . S
C834 C805 1.392 . S
C834 C807 1.389 . S
C835 C810 1.395 . S
C835 C812 1.391 . S
H836 C796 0.951 . S
H837 C797 0.950 . S
H838 C803 0.949 . S
H839 C804 0.950 . S
H840 C808 0.951 . S
H841 C809 0.950 . S
H842 C813 0.949 . S
H843 C814 0.950 . S
H844 C818 0.950 . S
H845 C820 0.950 . S
H846 C823 0.950 . S
H847 C825 0.950 . S
C848 C849 1.443 . S
C848 N852 1.376 . S
C848 C886 1.389 . S
C849 C848 1.443 . S
C849 C850 1.340 . S
C849 H889 0.951 . S
C850 C849 1.340 . S
C850 C851 1.439 . S
C850 H890 0.950 . S
C851 C850 1.439 . S
C851 N852 1.374 . S
C851 C885 1.395 . S
N852 C848 1.376 . S
N852 C851 1.374 . S
N852 Co853 2.008 . S
Co853 N852 2.008 . S
Co853 N854 1.995 . S
Co853 N859 2.008 . S
Co853 N864 1.995 . S
Co853 N869 2.282 . S
Co853 N875 2.282 . S
N854 Co853 1.995 . S
N854 C855 1.376 . S
N854 C858 1.383 . S
C855 N854 1.376 . S
C855 C856 1.446 . S
C855 C885 1.391 . S
C856 C855 1.446 . S
C856 C857 1.339 . S
C856 H891 0.949 . S
C857 C856 1.339 . S
C857 C858 1.439 . S
C857 H892 0.950 . S
C858 N854 1.383 . S
C858 C857 1.439 . S
C858 C887 1.392 . S
N859 Co853 2.008 . S
N859 C860 1.376 . S
N859 C863 1.374 . S
C860 N859 1.376 . S
C860 C861 1.443 . S
C860 C887 1.389 . S
C861 C860 1.443 . S
C861 C862 1.340 . S
C861 H893 0.930 1_455 S
C862 C861 1.340 . S
C862 C863 1.439 . S
C862 H894 0.950 1_455 S
C863 N859 1.374 . S
C863 C862 1.439 . S
C863 C888 1.395 . S
N864 Co853 1.995 . S
N864 C865 1.376 . S
N864 C868 1.383 . S
C865 N864 1.376 . S
C865 C866 1.446 . S
C865 C888 1.391 . S
C866 C865 1.446 . S
C866 C867 1.339 . S
C866 H895 0.949 . S
C867 C866 1.339 . S
C867 C868 1.439 . S
C867 H896 0.950 . S
C868 N864 1.383 . S
C868 C867 1.439 . S
C868 C886 1.392 . S
N869 Co853 2.282 . S
N869 C872 1.332 . S
N869 C874 1.332 . S
C870 C871 1.386 . S
C870 C873 1.388 . S
C871 C870 1.386 . S
C871 C872 1.382 . S
C871 H897 0.950 . S
C872 N869 1.332 . S
C872 C871 1.382 . S
C872 H883 0.952 . S
C873 C870 1.388 . S
C873 C874 1.382 . S
C873 H898 0.950 . S
C874 N869 1.332 . S
C874 C873 1.382 . S
C874 H884 0.948 . S
N875 Co853 2.282 . S
N875 C879 1.332 . S
N875 C880 1.332 . S
C876 C877 1.388 . S
C876 C880 1.382 . S
C876 H899 0.950 . S
C877 C876 1.388 . S
C877 C878 1.386 . S
C878 C877 1.386 . S
C878 C879 1.382 . S
C878 H900 0.950 . S
C879 N875 1.332 . S
C879 C878 1.382 . S
C879 H881 0.952 . S
C880 N875 1.332 . S
C880 C876 1.382 . S
C880 H882 0.948 . S
H881 C879 0.952 . S
H882 C880 0.948 . S
H883 C872 0.952 . S
H884 C874 0.948 . S
C885 C851 1.395 . S
C885 C855 1.391 . S
C886 C848 1.389 . S
C886 C868 1.392 . S
C887 C858 1.392 . S
C887 C860 1.389 . S
C888 C863 1.395 . S
C888 C865 1.391 . S
H889 C849 0.951 . S
H890 C850 0.950 . S
H891 C856 0.949 . S
H892 C857 0.950 . S
H893 C861 0.930 1_655 S
H894 C862 0.950 1_655 S
H895 C866 0.949 . S
H896 C867 0.950 . S
H897 C871 0.950 . S
H898 C873 0.950 . S
H899 C876 0.950 . S
H900 C878 0.950 . S
C901 C902 1.443 . S
C901 N905 1.376 . S
C901 C939 1.389 . S
C902 C901 1.443 . S
C902 C903 1.340 . S
C902 H942 0.951 . S
C903 C902 1.340 . S
C903 C904 1.439 . S
C903 H943 0.950 . S
C904 C903 1.439 . S
C904 N905 1.374 . S
C904 C938 1.395 . S
N905 C901 1.376 . S
N905 C904 1.374 . S
N905 Co906 2.008 . S
Co906 N905 2.008 . S
Co906 N907 1.995 . S
Co906 N912 2.008 . S
Co906 N917 1.995 . S
Co906 N922 2.282 . S
Co906 N928 2.282 . S
N907 Co906 1.995 . S
N907 C908 1.376 . S
N907 C911 1.383 . S
C908 N907 1.376 . S
C908 C909 1.446 . S
C908 C938 1.391 . S
C909 C908 1.446 . S
C909 C910 1.339 . S
C909 H944 0.949 . S
C910 C909 1.339 . S
C910 C911 1.439 . S
C910 H945 0.950 . S
C911 N907 1.383 . S
C911 C910 1.439 . S
C911 C940 1.392 . S
N912 Co906 2.008 . S
N912 C913 1.376 . S
N912 C916 1.374 . S
C913 N912 1.376 . S
C913 C914 1.443 . S
C913 C940 1.389 . S
C914 C913 1.443 . S
C914 C915 1.340 . S
C914 H946 0.951 . S
C915 C914 1.340 . S
C915 C916 1.439 . S
C915 H947 0.950 . S
C916 N912 1.374 . S
C916 C915 1.439 . S
C916 C941 1.395 . S
N917 Co906 1.995 . S
N917 C918 1.376 . S
N917 C921 1.383 . S
C918 N917 1.376 . S
C918 C919 1.446 . S
C918 C941 1.391 . S
C919 C918 1.446 . S
C919 C920 1.339 . S
C919 H948 0.949 . S
C920 C919 1.339 . S
C920 C921 1.439 . S
C920 H949 0.950 . S
C921 N917 1.383 . S
C921 C920 1.439 . S
C921 C939 1.392 . S
N922 Co906 2.282 . S
N922 C925 1.332 . S
N922 C927 1.332 . S
C923 C924 1.386 . S
C923 C926 1.388 . S
C924 C923 1.386 . S
C924 C925 1.382 . S
C924 H950 0.950 . S
C925 N922 1.332 . S
C925 C924 1.382 . S
C925 H936 0.952 . S
C926 C923 1.388 . S
C926 C927 1.382 . S
C926 H951 0.950 . S
C927 N922 1.332 . S
C927 C926 1.382 . S
C927 H937 0.948 . S
N928 Co906 2.282 . S
N928 C932 1.332 . S
N928 C933 1.332 . S
C929 C930 1.388 . S
C929 C933 1.382 . S
C929 H952 0.950 . S
C930 C929 1.388 . S
C930 C931 1.386 . S
C931 C930 1.386 . S
C931 C932 1.382 . S
C931 H953 0.950 . S
C932 N928 1.332 . S
C932 C931 1.382 . S
C932 H934 0.952 . S
C933 N928 1.332 . S
C933 C929 1.382 . S
C933 H935 0.948 . S
H934 C932 0.952 . S
H935 C933 0.948 . S
H936 C925 0.952 . S
H937 C927 0.948 . S
C938 C904 1.395 . S
C938 C908 1.391 . S
C939 C901 1.389 . S
C939 C921 1.392 . S
C940 C911 1.392 . S
C940 C913 1.389 . S
C941 C916 1.395 . S
C941 C918 1.391 . S
H942 C902 0.951 . S
H943 C903 0.950 . S
H944 C909 0.949 . S
H945 C910 0.950 . S
H946 C914 0.951 . S
H947 C915 0.950 . S
H948 C919 0.949 . S
H949 C920 0.950 . S
H950 C924 0.950 . S
H951 C926 0.950 . S
H952 C929 0.950 . S
H953 C931 0.950 . S
H954 C962 0.950 . S
H955 C967 0.950 . S
H956 C964 0.950 . S
H957 C966 0.950 . S
H958 C968 0.950 . S
H959 C970 0.950 . S
H960 C972 0.950 . S
H961 C973 0.950 . S
C962 H954 0.950 . S
C962 C963 1.386 . S
C962 C964 1.391 . S
C963 C962 1.386 . S
C963 C967 1.393 . S
C964 H956 0.950 . S
C964 C962 1.391 . S
C964 C965 1.400 . S
C965 C964 1.400 . S
C965 C966 1.398 . S
C965 C971 1.491 . S
C966 H957 0.950 . S
C966 C965 1.398 . S
C966 C967 1.391 . S
C967 H955 0.950 . S
C967 C963 1.393 . S
C967 C966 1.391 . S
C968 H958 0.950 . S
C968 C969 1.386 . S
C968 C970 1.391 . S
C969 C968 1.386 . S
C969 C973 1.393 . S
C970 H959 0.950 . S
C970 C968 1.391 . S
C970 C971 1.400 . S
C971 C965 1.491 . S
C971 C970 1.400 . S
C971 C972 1.398 . S
C972 H960 0.950 . S
C972 C971 1.398 . S
C972 C973 1.391 . S
C973 H961 0.950 . S
C973 C969 1.393 . S
C973 C972 1.391 . S
H974 C982 0.950 . S
H975 C987 0.950 . S
H976 C984 0.950 . S
H977 C986 0.950 . S
H978 C988 0.950 . S
H979 C990 0.950 . S
H980 C992 0.950 . S
H981 C993 0.950 . S
C982 H974 0.950 . S
C982 C983 1.386 . S
C982 C984 1.391 . S
C983 C982 1.386 . S
C983 C987 1.393 . S
C984 H976 0.950 . S
C984 C982 1.391 . S
C984 C985 1.400 . S
C985 C984 1.400 . S
C985 C986 1.398 . S
C985 C991 1.491 . S
C986 H977 0.950 . S
C986 C985 1.398 . S
C986 C987 1.391 . S
C987 H975 0.950 . S
C987 C983 1.393 . S
C987 C986 1.391 . S
C988 H978 0.950 . S
C988 C989 1.386 . S
C988 C990 1.391 . S
C989 C988 1.386 . S
C989 C993 1.393 . S
C990 H979 0.950 . S
C990 C988 1.391 . S
C990 C991 1.400 . S
C991 C985 1.491 . S
C991 C990 1.400 . S
C991 C992 1.398 . S
C992 H980 0.950 . S
C992 C991 1.398 . S
C992 C993 1.391 . S
C993 H981 0.950 . S
C993 C989 1.393 . S
C993 C992 1.391 . S
H994 C1002 0.950 . S
H995 C1007 0.950 1_545 S
H996 C1004 0.950 . S
H997 C1006 0.950 . S
H998 C1008 0.950 . S
H999 C1010 0.950 . S
H1000 C1012 0.950 . S
H1001 C1013 0.950 . S
C1002 H994 0.950 . S
C1002 C1003 1.386 . S
C1002 C1004 1.391 . S
C1003 C1002 1.386 . S
C1003 C1007 1.393 . S
C1004 H996 0.950 . S
C1004 C1002 1.391 . S
C1004 C1005 1.400 . S
C1005 C1004 1.400 . S
C1005 C1006 1.398 . S
C1005 C1011 1.491 . S
C1006 H997 0.950 . S
C1006 C1005 1.398 . S
C1006 C1007 1.391 . S
C1007 H995 0.950 1_565 S
C1007 C1003 1.393 . S
C1007 C1006 1.391 . S
C1008 H998 0.950 . S
C1008 C1009 1.386 . S
C1008 C1010 1.391 . S
C1009 C1008 1.386 . S
C1009 C1013 1.393 . S
C1010 H999 0.950 . S
C1010 C1008 1.391 . S
C1010 C1011 1.400 . S
C1011 C1005 1.491 . S
C1011 C1010 1.400 . S
C1011 C1012 1.398 . S
C1012 H1000 0.950 . S
C1012 C1011 1.398 . S
C1012 C1013 1.391 . S
C1013 H1001 0.950 . S
C1013 C1009 1.393 . S
C1013 C1012 1.391 . S
H1014 C1022 0.950 . S
H1015 C1027 0.950 . S
H1016 C1024 0.950 . S
H1017 C1026 0.950 . S
H1018 C1028 0.950 . S
H1019 C1030 0.950 . S
H1020 C1032 0.950 . S
H1021 C1033 0.950 . S
C1022 H1014 0.950 . S
C1022 C1023 1.386 . S
C1022 C1024 1.391 . S
C1023 C1022 1.386 . S
C1023 C1027 1.393 . S
C1024 H1016 0.950 . S
C1024 C1022 1.391 . S
C1024 C1025 1.400 . S
C1025 C1024 1.400 . S
C1025 C1026 1.398 . S
C1025 C1031 1.491 . S
C1026 H1017 0.950 . S
C1026 C1025 1.398 . S
C1026 C1027 1.391 . S
C1027 H1015 0.950 . S
C1027 C1023 1.393 . S
C1027 C1026 1.391 . S
C1028 H1018 0.950 . S
C1028 C1029 1.386 . S
C1028 C1030 1.391 . S
C1029 C1028 1.386 . S
C1029 C1033 1.393 . S
C1030 H1019 0.950 . S
C1030 C1028 1.391 . S
C1030 C1031 1.400 . S
C1031 C1025 1.491 . S
C1031 C1030 1.400 . S
C1031 C1032 1.398 . S
C1032 H1020 0.950 . S
C1032 C1031 1.398 . S
C1032 C1033 1.391 . S
C1033 H1021 0.950 . S
C1033 C1029 1.393 . S
C1033 C1032 1.391 . S
H1034 C1042 0.950 . S
H1035 C1047 0.950 . S
H1036 C1044 0.950 1_455 S
H1037 C1046 0.950 . S
H1038 C1048 0.950 . S
H1039 C1050 0.950 . S
H1040 C1052 0.953 1_455 S
H1041 C1053 0.950 . S
C1042 H1034 0.950 . S
C1042 C1043 1.386 . S
C1042 C1044 1.391 . S
C1043 C1042 1.386 . S
C1043 C1047 1.393 . S
C1044 H1036 0.950 1_655 S
C1044 C1042 1.391 . S
C1044 C1045 1.400 . S
C1045 C1044 1.400 . S
C1045 C1046 1.398 . S
C1045 C1051 1.491 . S
C1046 H1037 0.950 . S
C1046 C1045 1.398 . S
C1046 C1047 1.391 . S
C1047 H1035 0.950 . S
C1047 C1043 1.393 . S
C1047 C1046 1.391 . S
C1048 H1038 0.950 . S
C1048 C1049 1.386 . S
C1048 C1050 1.391 . S
C1049 C1048 1.386 . S
C1049 C1053 1.393 1_655 S
C1050 H1039 0.950 . S
C1050 C1048 1.391 . S
C1050 C1051 1.400 . S
C1051 C1045 1.491 . S
C1051 C1050 1.400 . S
C1051 C1052 1.396 . S
C1052 H1040 0.953 1_655 S
C1052 C1051 1.396 . S
C1052 C1053 1.391 1_655 S
C1053 H1041 0.950 . S
C1053 C1049 1.393 1_455 S
C1053 C1052 1.391 1_455 S
H1054 C1062 0.950 . S
H1055 C1067 0.950 . S
H1056 C1064 0.950 . S
H1057 C1066 0.950 . S
H1058 C1068 0.950 . S
H1059 C1070 0.950 . S
H1060 C1072 0.950 . S
H1061 C1073 0.950 . S
C1062 H1054 0.950 . S
C1062 C1063 1.386 . S
C1062 C1064 1.391 . S
C1063 C1062 1.386 . S
C1063 C1067 1.393 . S
C1064 H1056 0.950 . S
C1064 C1062 1.391 . S
C1064 C1065 1.400 . S
C1065 C1064 1.400 . S
C1065 C1066 1.398 . S
C1065 C1071 1.491 . S
C1066 H1057 0.950 . S
C1066 C1065 1.398 . S
C1066 C1067 1.391 . S
C1067 H1055 0.950 . S
C1067 C1063 1.393 . S
C1067 C1066 1.391 . S
C1068 H1058 0.950 . S
C1068 C1069 1.386 . S
C1068 C1070 1.391 . S
C1069 C1068 1.386 . S
C1069 C1073 1.393 . S
C1070 H1059 0.950 . S
C1070 C1068 1.391 . S
C1070 C1071 1.400 . S
C1071 C1065 1.491 . S
C1071 C1070 1.400 . S
C1071 C1072 1.398 . S
C1072 H1060 0.950 . S
C1072 C1071 1.398 . S
C1072 C1073 1.391 . S
C1073 H1061 0.950 . S
C1073 C1069 1.393 . S
C1073 C1072 1.391 . S
H1074 C1082 0.950 1_455 S
H1075 C1087 0.950 . S
H1076 C1084 0.950 . S
H1077 C1086 0.950 . S
H1078 C1088 0.950 . S
H1079 C1090 0.950 . S
H1080 C1092 0.950 . S
H1081 C1093 0.950 . S
C1082 H1074 0.950 1_655 S
C1082 C1083 1.386 . S
C1082 C1084 1.391 . S
C1083 C1082 1.386 . S
C1083 C1087 1.393 . S
C1084 H1076 0.950 . S
C1084 C1082 1.391 . S
C1084 C1085 1.400 . S
C1085 C1084 1.400 . S
C1085 C1086 1.398 . S
C1085 C1091 1.491 . S
C1086 H1077 0.950 . S
C1086 C1085 1.398 . S
C1086 C1087 1.391 . S
C1087 H1075 0.950 . S
C1087 C1083 1.393 . S
C1087 C1086 1.391 . S
C1088 H1078 0.950 . S
C1088 C1089 1.386 . S
C1088 C1090 1.391 . S
C1089 C1088 1.386 . S
C1089 C1093 1.393 . S
C1090 H1079 0.950 . S
C1090 C1088 1.391 . S
C1090 C1091 1.400 . S
C1091 C1085 1.491 . S
C1091 C1090 1.400 . S
C1091 C1092 1.398 . S
C1092 H1080 0.950 . S
C1092 C1091 1.398 . S
C1092 C1093 1.391 . S
C1093 H1081 0.950 . S
C1093 C1089 1.393 . S
C1093 C1092 1.391 . S
H1094 C1102 0.950 . S
H1095 C1107 0.950 . S
H1096 C1104 0.950 . S
H1097 C1106 0.950 . S
H1098 C1108 0.950 . S
H1099 C1110 0.950 . S
H1100 C1112 0.950 . S
H1101 C1113 0.950 . S
C1102 H1094 0.950 . S
C1102 C1103 1.386 . S
C1102 C1104 1.391 . S
C1103 C1102 1.386 . S
C1103 C1107 1.393 . S
C1104 H1096 0.950 . S
C1104 C1102 1.391 . S
C1104 C1105 1.400 . S
C1105 C1104 1.400 . S
C1105 C1106 1.398 . S
C1105 C1111 1.491 . S
C1106 H1097 0.950 . S
C1106 C1105 1.398 . S
C1106 C1107 1.391 . S
C1107 H1095 0.950 . S
C1107 C1103 1.393 . S
C1107 C1106 1.391 . S
C1108 H1098 0.950 . S
C1108 C1109 1.386 . S
C1108 C1110 1.391 . S
C1109 C1108 1.386 . S
C1109 C1113 1.393 . S
C1110 H1099 0.950 . S
C1110 C1108 1.391 . S
C1110 C1111 1.400 . S
C1111 C1105 1.491 . S
C1111 C1110 1.400 . S
C1111 C1112 1.398 . S
C1112 H1100 0.950 . S
C1112 C1111 1.398 . S
C1112 C1113 1.391 . S
C1113 H1101 0.950 . S
C1113 C1109 1.393 . S
C1113 C1112 1.391 . S
H1114 C1122 0.950 . S
H1115 C1127 0.950 . S
H1116 C1124 0.950 . S
H1117 C1126 0.950 . S
H1118 C1128 0.950 . S
H1119 C1130 0.950 . S
H1120 C1132 0.950 . S
H1121 C1133 0.950 . S
C1122 H1114 0.950 . S
C1122 C1123 1.386 . S
C1122 C1124 1.391 . S
C1123 C1122 1.386 . S
C1123 C1127 1.393 . S
C1124 H1116 0.950 . S
C1124 C1122 1.391 . S
C1124 C1125 1.400 . S
C1125 C1124 1.400 . S
C1125 C1126 1.398 . S
C1125 C1131 1.491 . S
C1126 H1117 0.950 . S
C1126 C1125 1.398 . S
C1126 C1127 1.391 . S
C1127 H1115 0.950 . S
C1127 C1123 1.393 . S
C1127 C1126 1.391 . S
C1128 H1118 0.950 . S
C1128 C1129 1.386 . S
C1128 C1130 1.391 . S
C1129 C1128 1.386 . S
C1129 C1133 1.393 . S
C1130 H1119 0.950 . S
C1130 C1128 1.391 . S
C1130 C1131 1.400 . S
C1131 C1125 1.491 . S
C1131 C1130 1.400 . S
C1131 C1132 1.398 . S
C1132 H1120 0.950 . S
C1132 C1131 1.398 . S
C1132 C1133 1.391 . S
C1133 H1121 0.950 . S
C1133 C1129 1.393 . S
C1133 C1132 1.391 . S
H1134 C1142 0.950 . S
H1135 C1147 0.950 1_545 S
H1136 C1144 0.950 . S
H1137 C1146 0.950 . S
H1138 C1148 0.950 . S
H1139 C1150 0.950 . S
H1140 C1152 0.950 . S
H1141 C1153 0.950 . S
C1142 H1134 0.950 . S
C1142 C1143 1.386 . S
C1142 C1144 1.391 . S
C1143 C1142 1.386 . S
C1143 C1147 1.393 . S
C1144 H1136 0.950 . S
C1144 C1142 1.391 . S
C1144 C1145 1.400 . S
C1145 C1144 1.400 . S
C1145 C1146 1.398 . S
C1145 C1151 1.491 . S
C1146 H1137 0.950 . S
C1146 C1145 1.398 . S
C1146 C1147 1.391 . S
C1147 H1135 0.950 1_565 S
C1147 C1143 1.393 . S
C1147 C1146 1.391 . S
C1148 H1138 0.950 . S
C1148 C1149 1.386 . S
C1148 C1150 1.391 . S
C1149 C1148 1.386 . S
C1149 C1153 1.393 . S
C1150 H1139 0.950 . S
C1150 C1148 1.391 . S
C1150 C1151 1.400 . S
C1151 C1145 1.491 . S
C1151 C1150 1.400 . S
C1151 C1152 1.398 . S
C1152 H1140 0.950 . S
C1152 C1151 1.398 . S
C1152 C1153 1.391 . S
C1153 H1141 0.950 . S
C1153 C1149 1.393 . S
C1153 C1152 1.391 . S
H1154 C1162 0.950 . S
H1155 C1167 0.950 . S
H1156 C1164 0.950 . S
H1157 C1166 0.950 . S
H1158 C1168 0.950 . S
H1159 C1170 0.950 . S
H1160 C1172 0.950 . S
H1161 C1173 0.950 . S
C1162 H1154 0.950 . S
C1162 C1163 1.386 . S
C1162 C1164 1.391 . S
C1163 C1162 1.386 . S
C1163 C1167 1.393 . S
C1164 H1156 0.950 . S
C1164 C1162 1.391 . S
C1164 C1165 1.400 . S
C1165 C1164 1.400 . S
C1165 C1166 1.398 . S
C1165 C1171 1.491 . S
C1166 H1157 0.950 . S
C1166 C1165 1.398 . S
C1166 C1167 1.391 . S
C1167 H1155 0.950 . S
C1167 C1163 1.393 . S
C1167 C1166 1.391 . S
C1168 H1158 0.950 . S
C1168 C1169 1.386 . S
C1168 C1170 1.391 . S
C1169 C1168 1.386 . S
C1169 C1173 1.393 . S
C1170 H1159 0.950 . S
C1170 C1168 1.391 . S
C1170 C1171 1.400 . S
C1171 C1165 1.491 . S
C1171 C1170 1.400 . S
C1171 C1172 1.398 . S
C1172 H1160 0.950 . S
C1172 C1171 1.398 . S
C1172 C1173 1.391 . S
C1173 H1161 0.950 . S
C1173 C1169 1.393 . S
C1173 C1172 1.391 . S
H1174 C1182 0.950 . S
H1175 C1187 0.950 . S
H1176 C1184 0.950 . S
H1177 C1186 0.950 . S
H1178 C1188 0.950 . S
H1179 C1190 0.950 . S
H1180 C1192 0.950 . S
H1181 C1193 0.950 . S
C1182 H1174 0.950 . S
C1182 C1183 1.386 . S
C1182 C1184 1.391 . S
C1183 C1182 1.386 . S
C1183 C1187 1.393 . S
C1184 H1176 0.950 . S
C1184 C1182 1.391 . S
C1184 C1185 1.400 . S
C1185 C1184 1.400 . S
C1185 C1186 1.398 . S
C1185 C1191 1.491 . S
C1186 H1177 0.950 . S
C1186 C1185 1.398 . S
C1186 C1187 1.391 . S
C1187 H1175 0.950 . S
C1187 C1183 1.393 . S
C1187 C1186 1.391 . S
C1188 H1178 0.950 . S
C1188 C1189 1.386 . S
C1188 C1190 1.391 . S
C1189 C1188 1.386 . S
C1189 C1193 1.393 . S
C1190 H1179 0.950 . S
C1190 C1188 1.391 . S
C1190 C1191 1.400 . S
C1191 C1185 1.491 . S
C1191 C1190 1.400 . S
C1191 C1192 1.398 . S
C1192 H1180 0.950 . S
C1192 C1191 1.398 . S
C1192 C1193 1.391 . S
C1193 H1181 0.950 . S
C1193 C1189 1.393 . S
C1193 C1192 1.391 . S
H1194 C1202 0.950 . S
H1195 C1207 0.950 . S
H1196 C1204 0.950 . S
H1197 C1206 0.950 . S
H1198 C1208 0.950 . S
H1199 C1210 0.950 . S
H1200 C1212 0.950 . S
H1201 C1213 0.950 . S
C1202 H1194 0.950 . S
C1202 C1203 1.386 . S
C1202 C1204 1.391 . S
C1203 C1202 1.386 . S
C1203 C1207 1.393 . S
C1204 H1196 0.950 . S
C1204 C1202 1.391 . S
C1204 C1205 1.400 . S
C1205 C1204 1.400 . S
C1205 C1206 1.398 . S
C1205 C1211 1.491 . S
C1206 H1197 0.950 . S
C1206 C1205 1.398 . S
C1206 C1207 1.391 . S
C1207 H1195 0.950 . S
C1207 C1203 1.393 . S
C1207 C1206 1.391 . S
C1208 H1198 0.950 . S
C1208 C1209 1.386 . S
C1208 C1210 1.391 . S
C1209 C1208 1.386 . S
C1209 C1213 1.393 . S
C1210 H1199 0.950 . S
C1210 C1208 1.391 . S
C1210 C1211 1.400 . S
C1211 C1205 1.491 . S
C1211 C1210 1.400 . S
C1211 C1212 1.398 . S
C1212 H1200 0.950 . S
C1212 C1211 1.398 . S
C1212 C1213 1.391 . S
C1213 H1201 0.950 . S
C1213 C1209 1.393 . S
C1213 C1212 1.391 . S
H1214 C1222 0.950 . S
H1215 C1227 0.950 . S
H1216 C1224 0.950 . S
H1217 C1226 0.950 . S
H1218 C1228 0.950 . S
H1219 C1230 0.950 . S
H1220 C1232 0.928 1_545 S
H1221 C1233 0.950 . S
C1222 H1214 0.950 . S
C1222 C1223 1.386 . S
C1222 C1224 1.391 . S
C1223 C1222 1.386 . S
C1223 C1227 1.393 . S
C1224 H1216 0.950 . S
C1224 C1222 1.391 . S
C1224 C1225 1.400 . S
C1225 C1224 1.400 . S
C1225 C1226 1.398 . S
C1225 C1231 1.491 . S
C1226 H1217 0.950 . S
C1226 C1225 1.398 . S
C1226 C1227 1.391 . S
C1227 H1215 0.950 . S
C1227 C1223 1.393 . S
C1227 C1226 1.391 . S
C1228 H1218 0.950 . S
C1228 C1229 1.386 . S
C1228 C1230 1.391 . S
C1229 C1228 1.386 . S
C1229 C1233 1.393 . S
C1230 H1219 0.950 . S
C1230 C1228 1.391 . S
C1230 C1231 1.400 1_565 S
C1231 C1225 1.491 . S
C1231 C1230 1.400 1_545 S
C1231 C1232 1.409 1_545 S
C1232 H1220 0.928 1_565 S
C1232 C1231 1.409 1_565 S
C1232 C1233 1.402 . S
C1233 H1221 0.950 . S
C1233 C1229 1.393 . S
C1233 C1232 1.402 . S
H1234 C1242 0.950 . S
H1235 C1247 0.950 . S
H1236 C1244 0.950 . S
H1237 C1246 0.950 . S
H1238 C1248 0.950 . S
H1239 C1250 0.953 1_455 S
H1240 C1252 0.950 . S
H1241 C1253 0.950 . S
C1242 H1234 0.950 . S
C1242 C1243 1.386 . S
C1242 C1244 1.391 . S
C1243 C1242 1.386 . S
C1243 C1247 1.393 . S
C1244 H1236 0.950 . S
C1244 C1242 1.391 . S
C1244 C1245 1.400 . S
C1245 C1244 1.400 . S
C1245 C1246 1.398 . S
C1245 C1251 1.491 . S
C1246 H1237 0.950 . S
C1246 C1245 1.398 . S
C1246 C1247 1.391 . S
C1247 H1235 0.950 . S
C1247 C1243 1.393 . S
C1247 C1246 1.391 . S
C1248 H1238 0.950 . S
C1248 C1249 1.386 . S
C1248 C1250 1.399 . S
C1249 C1248 1.386 . S
C1249 C1253 1.393 . S
C1250 H1239 0.953 1_655 S
C1250 C1248 1.399 . S
C1250 C1251 1.390 1_655 S
C1251 C1245 1.491 . S
C1251 C1250 1.390 1_455 S
C1251 C1252 1.398 1_455 S
C1252 H1240 0.950 . S
C1252 C1251 1.398 1_655 S
C1252 C1253 1.391 . S
C1253 H1241 0.950 . S
C1253 C1249 1.393 . S
C1253 C1252 1.391 . S
H1254 C1262 0.950 . S
H1255 C1267 0.950 . S
H1256 C1264 0.950 . S
H1257 C1266 0.950 . S
H1258 C1268 0.950 . S
H1259 C1270 0.950 . S
H1260 C1272 0.950 . S
H1261 C1273 0.950 . S
C1262 H1254 0.950 . S
C1262 C1263 1.386 . S
C1262 C1264 1.391 . S
C1263 C1262 1.386 . S
C1263 C1267 1.393 . S
C1264 H1256 0.950 . S
C1264 C1262 1.391 . S
C1264 C1265 1.400 . S
C1265 C1264 1.400 . S
C1265 C1266 1.398 . S
C1265 C1271 1.491 . S
C1266 H1257 0.950 . S
C1266 C1265 1.398 . S
C1266 C1267 1.391 . S
C1267 H1255 0.950 . S
C1267 C1263 1.393 . S
C1267 C1266 1.391 . S
C1268 H1258 0.950 . S
C1268 C1269 1.386 . S
C1268 C1270 1.391 . S
C1269 C1268 1.386 . S
C1269 C1273 1.393 . S
C1270 H1259 0.950 . S
C1270 C1268 1.391 . S
C1270 C1271 1.400 . S
C1271 C1265 1.491 . S
C1271 C1270 1.400 . S
C1271 C1272 1.398 . S
C1272 H1260 0.950 . S
C1272 C1271 1.398 . S
C1272 C1273 1.391 . S
C1273 H1261 0.950 . S
C1273 C1269 1.393 . S
C1273 C1272 1.391 . S
H1274 C1282 0.950 . S
H1275 C1287 0.950 . S
H1276 C1284 0.980 . S
H1277 C1286 0.950 . S
H1278 C1288 0.950 . S
H1279 C1290 0.950 1_545 S
H1280 C1292 0.950 . S
H1281 C1293 0.950 . S
C1282 H1274 0.950 . S
C1282 C1283 1.386 . S
C1282 C1284 1.391 . S
C1283 C1282 1.386 . S
C1283 C1287 1.393 . S
C1284 H1276 0.980 . S
C1284 C1282 1.391 . S
C1284 C1285 1.400 . S
C1285 C1284 1.400 . S
C1285 C1286 1.398 . S
C1285 C1291 1.491 1_545 S
C1286 H1277 0.950 . S
C1286 C1285 1.398 . S
C1286 C1287 1.391 . S
C1287 H1275 0.950 . S
C1287 C1283 1.393 . S
C1287 C1286 1.391 . S
C1288 H1278 0.950 . S
C1288 C1289 1.386 . S
C1288 C1290 1.391 . S
C1289 C1288 1.386 . S
C1289 C1293 1.393 . S
C1290 H1279 0.950 1_565 S
C1290 C1288 1.391 . S
C1290 C1291 1.400 . S
C1291 C1285 1.491 1_565 S
C1291 C1290 1.400 . S
C1291 C1292 1.398 . S
C1292 H1280 0.950 . S
C1292 C1291 1.398 . S
C1292 C1293 1.391 . S
C1293 H1281 0.950 . S
C1293 C1289 1.393 . S
C1293 C1292 1.391 . S
H1294 C1302 0.950 . S
H1295 C1307 0.950 . S
H1296 C1304 0.950 . S
H1297 C1306 0.950 . S
H1298 C1308 0.950 . S
H1299 C1310 0.950 . S
H1300 C1312 0.952 1_455 S
H1301 C1313 0.950 . S
C1302 H1294 0.950 . S
C1302 C1303 1.386 . S
C1302 C1304 1.391 . S
C1303 C1302 1.386 . S
C1303 C1307 1.393 . S
C1304 H1296 0.950 . S
C1304 C1302 1.391 . S
C1304 C1305 1.400 . S
C1305 C1304 1.400 . S
C1305 C1306 1.398 . S
C1305 C1311 1.491 1_455 S
C1306 H1297 0.950 . S
C1306 C1305 1.398 . S
C1306 C1307 1.391 . S
C1307 H1295 0.950 . S
C1307 C1303 1.393 . S
C1307 C1306 1.391 . S
C1308 H1298 0.950 . S
C1308 C1309 1.386 . S
C1308 C1310 1.391 . S
C1309 C1308 1.386 . S
C1309 C1313 1.393 . S
C1310 H1299 0.950 . S
C1310 C1308 1.391 . S
C1310 C1311 1.400 . S
C1311 C1305 1.491 1_655 S
C1311 C1310 1.400 . S
C1311 C1312 1.398 . S
C1312 H1300 0.952 1_655 S
C1312 C1311 1.398 . S
C1312 C1313 1.391 . S
C1313 H1301 0.950 . S
C1313 C1309 1.393 . S
C1313 C1312 1.391 . S
H1314 C1322 0.950 . S
H1315 C1327 0.950 . S
H1316 C1324 0.950 . S
H1317 C1326 0.950 . S
H1318 C1328 0.950 . S
H1319 C1330 0.950 . S
H1320 C1332 0.950 . S
H1321 C1333 0.950 . S
C1322 H1314 0.950 . S
C1322 C1323 1.386 . S
C1322 C1324 1.391 . S
C1323 C1322 1.386 . S
C1323 C1327 1.393 . S
C1324 H1316 0.950 . S
C1324 C1322 1.391 . S
C1324 C1325 1.400 . S
C1325 C1324 1.400 . S
C1325 C1326 1.398 . S
C1325 C1331 1.491 . S
C1326 H1317 0.950 . S
C1326 C1325 1.398 . S
C1326 C1327 1.391 . S
C1327 H1315 0.950 . S
C1327 C1323 1.393 . S
C1327 C1326 1.391 . S
C1328 H1318 0.950 . S
C1328 C1329 1.386 . S
C1328 C1330 1.391 . S
C1329 C1328 1.386 . S
C1329 C1333 1.393 . S
C1330 H1319 0.950 . S
C1330 C1328 1.391 . S
C1330 C1331 1.400 . S
C1331 C1325 1.491 . S
C1331 C1330 1.400 . S
C1331 C1332 1.398 . S
C1332 H1320 0.950 . S
C1332 C1331 1.398 . S
C1332 C1333 1.391 . S
C1333 H1321 0.950 . S
C1333 C1329 1.393 . S
C1333 C1332 1.391 . S
H1334 C1342 0.950 . S
H1335 C1347 0.950 . S
H1336 C1344 0.950 . S
H1337 C1346 0.950 . S
H1338 C1348 0.950 . S
H1339 C1350 0.950 . S
H1340 C1352 0.950 . S
H1341 C1353 0.950 . S
C1342 H1334 0.950 . S
C1342 C1343 1.386 . S
C1342 C1344 1.391 . S
C1343 C1342 1.386 . S
C1343 C1347 1.393 . S
C1344 H1336 0.950 . S
C1344 C1342 1.391 . S
C1344 C1345 1.400 . S
C1345 C1344 1.400 . S
C1345 C1346 1.398 . S
C1345 C1351 1.491 . S
C1346 H1337 0.950 . S
C1346 C1345 1.398 . S
C1346 C1347 1.391 . S
C1347 H1335 0.950 . S
C1347 C1343 1.393 . S
C1347 C1346 1.391 . S
C1348 H1338 0.950 . S
C1348 C1349 1.386 . S
C1348 C1350 1.391 . S
C1349 C1348 1.386 . S
C1349 C1353 1.393 . S
C1350 H1339 0.950 . S
C1350 C1348 1.391 . S
C1350 C1351 1.400 . S
C1351 C1345 1.491 . S
C1351 C1350 1.400 . S
C1351 C1352 1.398 . S
C1352 H1340 0.950 . S
C1352 C1351 1.398 . S
C1352 C1353 1.391 . S
C1353 H1341 0.950 . S
C1353 C1349 1.393 . S
C1353 C1352 1.391 . S
H1354 C1362 0.950 . S
H1355 C1367 0.950 . S
H1356 C1364 0.950 . S
H1357 C1366 0.950 . S
H1358 C1368 0.950 . S
H1359 C1370 0.950 . S
H1360 C1372 0.950 . S
H1361 C1373 0.950 . S
C1362 H1354 0.950 . S
C1362 C1363 1.386 . S
C1362 C1364 1.391 . S
C1363 C1362 1.386 . S
C1363 C1367 1.393 . S
C1364 H1356 0.950 . S
C1364 C1362 1.391 . S
C1364 C1365 1.400 . S
C1365 C1364 1.400 . S
C1365 C1366 1.398 . S
C1365 C1371 1.491 . S
C1366 H1357 0.950 . S
C1366 C1365 1.398 . S
C1366 C1367 1.391 . S
C1367 H1355 0.950 . S
C1367 C1363 1.393 . S
C1367 C1366 1.391 . S
C1368 H1358 0.950 . S
C1368 C1369 1.386 . S
C1368 C1370 1.391 . S
C1369 C1368 1.386 . S
C1369 C1373 1.393 . S
C1370 H1359 0.950 . S
C1370 C1368 1.391 . S
C1370 C1371 1.400 . S
C1371 C1365 1.491 . S
C1371 C1370 1.400 . S
C1371 C1372 1.398 . S
C1372 H1360 0.950 . S
C1372 C1371 1.398 . S
C1372 C1373 1.391 . S
C1373 H1361 0.950 . S
C1373 C1369 1.393 . S
C1373 C1372 1.391 . S
H1374 C1382 0.950 . S
H1375 C1387 0.950 . S
H1376 C1384 0.950 . S
H1377 C1386 0.950 . S
H1378 C1388 0.950 . S
H1379 C1390 0.950 . S
H1380 C1392 0.950 . S
H1381 C1393 0.950 . S
C1382 H1374 0.950 . S
C1382 C1383 1.386 . S
C1382 C1384 1.391 . S
C1383 C1382 1.386 . S
C1383 C1387 1.393 . S
C1384 H1376 0.950 . S
C1384 C1382 1.391 . S
C1384 C1385 1.400 . S
C1385 C1384 1.400 . S
C1385 C1386 1.398 . S
C1385 C1391 1.491 . S
C1386 H1377 0.950 . S
C1386 C1385 1.398 . S
C1386 C1387 1.391 . S
C1387 H1375 0.950 . S
C1387 C1383 1.393 . S
C1387 C1386 1.391 . S
C1388 H1378 0.950 . S
C1388 C1389 1.386 . S
C1388 C1390 1.391 . S
C1389 C1388 1.386 . S
C1389 C1393 1.393 . S
C1390 H1379 0.950 . S
C1390 C1388 1.391 . S
C1390 C1391 1.400 . S
C1391 C1385 1.491 . S
C1391 C1390 1.400 . S
C1391 C1392 1.398 . S
C1392 H1380 0.950 . S
C1392 C1391 1.398 . S
C1392 C1393 1.391 . S
C1393 H1381 0.950 . S
C1393 C1389 1.393 . S
C1393 C1392 1.391 . S
H1394 C1402 0.950 . S
H1395 C1407 0.950 . S
H1396 C1404 0.950 . S
H1397 C1406 0.950 . S
H1398 C1408 0.950 . S
H1399 C1410 0.950 . S
H1400 C1412 0.950 . S
H1401 C1413 0.950 . S
C1402 H1394 0.950 . S
C1402 C1403 1.386 . S
C1402 C1404 1.391 . S
C1403 C1402 1.386 . S
C1403 C1407 1.393 . S
C1404 H1396 0.950 . S
C1404 C1402 1.391 . S
C1404 C1405 1.400 . S
C1405 C1404 1.400 . S
C1405 C1406 1.398 . S
C1405 C1411 1.491 . S
C1406 H1397 0.950 . S
C1406 C1405 1.398 . S
C1406 C1407 1.391 . S
C1407 H1395 0.950 . S
C1407 C1403 1.393 . S
C1407 C1406 1.391 . S
C1408 H1398 0.950 . S
C1408 C1409 1.386 . S
C1408 C1410 1.391 . S
C1409 C1408 1.386 . S
C1409 C1413 1.393 . S
C1410 H1399 0.950 . S
C1410 C1408 1.391 . S
C1410 C1411 1.400 . S
C1411 C1405 1.491 . S
C1411 C1410 1.400 . S
C1411 C1412 1.398 . S
C1412 H1400 0.950 . S
C1412 C1411 1.398 . S
C1412 C1413 1.391 . S
C1413 H1401 0.950 . S
C1413 C1409 1.393 . S
C1413 C1412 1.391 . S
H1414 C1422 0.950 . S
H1415 C1427 0.950 . S
H1416 C1424 0.950 . S
H1417 C1426 0.950 . S
H1418 C1428 0.950 . S
H1419 C1430 0.950 . S
H1420 C1432 0.950 . S
H1421 C1433 0.950 . S
C1422 H1414 0.950 . S
C1422 C1423 1.386 . S
C1422 C1424 1.391 . S
C1423 C1422 1.386 . S
C1423 C1427 1.393 . S
C1424 H1416 0.950 . S
C1424 C1422 1.391 . S
C1424 C1425 1.400 . S
C1425 C1424 1.400 . S
C1425 C1426 1.398 . S
C1425 C1431 1.491 . S
C1426 H1417 0.950 . S
C1426 C1425 1.398 . S
C1426 C1427 1.391 . S
C1427 H1415 0.950 . S
C1427 C1423 1.393 . S
C1427 C1426 1.391 . S
C1428 H1418 0.950 . S
C1428 C1429 1.386 . S
C1428 C1430 1.391 . S
C1429 C1428 1.386 . S
C1429 C1433 1.393 . S
C1430 H1419 0.950 . S
C1430 C1428 1.391 . S
C1430 C1431 1.400 . S
C1431 C1425 1.491 . S
C1431 C1430 1.400 . S
C1431 C1432 1.398 . S
C1432 H1420 0.950 . S
C1432 C1431 1.398 . S
C1432 C1433 1.391 . S
C1433 H1421 0.950 . S
C1433 C1429 1.393 . S
C1433 C1432 1.391 . S
H1434 C1442 0.950 . S
H1435 C1447 0.950 . S
H1436 C1444 0.950 . S
H1437 C1446 0.950 . S
H1438 C1448 0.950 . S
H1439 C1450 0.950 . S
H1440 C1452 0.950 . S
H1441 C1453 0.950 . S
C1442 H1434 0.950 . S
C1442 C1443 1.386 . S
C1442 C1444 1.391 . S
C1443 C1442 1.386 . S
C1443 C1447 1.393 . S
C1444 H1436 0.950 . S
C1444 C1442 1.391 . S
C1444 C1445 1.400 . S
C1445 C1444 1.400 . S
C1445 C1446 1.398 . S
C1445 C1451 1.491 . S
C1446 H1437 0.950 . S
C1446 C1445 1.398 . S
C1446 C1447 1.391 . S
C1447 H1435 0.950 . S
C1447 C1443 1.393 . S
C1447 C1446 1.391 . S
C1448 H1438 0.950 . S
C1448 C1449 1.386 . S
C1448 C1450 1.391 . S
C1449 C1448 1.386 . S
C1449 C1453 1.393 . S
C1450 H1439 0.950 . S
C1450 C1448 1.391 . S
C1450 C1451 1.400 . S
C1451 C1445 1.491 . S
C1451 C1450 1.400 . S
C1451 C1452 1.398 . S
C1452 H1440 0.950 . S
C1452 C1451 1.398 . S
C1452 C1453 1.391 . S
C1453 H1441 0.950 . S
C1453 C1449 1.393 . S
C1453 C1452 1.391 . S
H1454 C1462 0.950 . S
H1455 C1467 0.950 . S
H1456 C1464 0.950 . S
H1457 C1466 0.950 . S
H1458 C1468 0.950 . S
H1459 C1470 0.950 . S
H1460 C1472 0.950 . S
H1461 C1473 0.950 . S
C1462 H1454 0.950 . S
C1462 C1463 1.386 . S
C1462 C1464 1.391 . S
C1463 C1462 1.386 . S
C1463 C1467 1.393 . S
C1464 H1456 0.950 . S
C1464 C1462 1.391 . S
C1464 C1465 1.400 . S
C1465 C1464 1.400 . S
C1465 C1466 1.398 . S
C1465 C1471 1.491 . S
C1466 H1457 0.950 . S
C1466 C1465 1.398 . S
C1466 C1467 1.391 . S
C1467 H1455 0.950 . S
C1467 C1463 1.393 . S
C1467 C1466 1.391 . S
C1468 H1458 0.950 . S
C1468 C1469 1.386 . S
C1468 C1470 1.391 . S
C1469 C1468 1.386 . S
C1469 C1473 1.393 . S
C1470 H1459 0.950 . S
C1470 C1468 1.391 . S
C1470 C1471 1.400 . S
C1471 C1465 1.491 . S
C1471 C1470 1.400 . S
C1471 C1472 1.398 . S
C1472 H1460 0.950 . S
C1472 C1471 1.398 . S
C1472 C1473 1.391 . S
C1473 H1461 0.950 . S
C1473 C1469 1.393 . S
C1473 C1472 1.391 . S
H1474 C1482 0.950 . S
H1475 C1487 0.950 . S
H1476 C1484 0.950 . S
H1477 C1486 0.950 . S
H1478 C1488 0.950 . S
H1479 C1490 0.950 . S
H1480 C1492 0.950 . S
H1481 C1493 0.950 . S
C1482 H1474 0.950 . S
C1482 C1483 1.386 . S
C1482 C1484 1.391 . S
C1483 C1482 1.386 . S
C1483 C1487 1.393 . S
C1484 H1476 0.950 . S
C1484 C1482 1.391 . S
C1484 C1485 1.400 . S
C1485 C1484 1.400 . S
C1485 C1486 1.398 . S
C1485 C1491 1.491 . S
C1486 H1477 0.950 . S
C1486 C1485 1.398 . S
C1486 C1487 1.391 . S
C1487 H1475 0.950 . S
C1487 C1483 1.393 . S
C1487 C1486 1.391 . S
C1488 H1478 0.950 . S
C1488 C1489 1.386 . S
C1488 C1490 1.391 . S
C1489 C1488 1.386 . S
C1489 C1493 1.393 . S
C1490 H1479 0.950 . S
C1490 C1488 1.391 . S
C1490 C1491 1.400 . S
C1491 C1485 1.491 . S
C1491 C1490 1.400 . S
C1491 C1492 1.398 . S
C1492 H1480 0.950 . S
C1492 C1491 1.398 . S
C1492 C1493 1.391 . S
C1493 H1481 0.950 . S
C1493 C1489 1.393 . S
C1493 C1492 1.391 . S
H1494 C1502 0.950 . S
H1495 C1507 0.950 . S
H1496 C1504 0.950 . S
H1497 C1506 0.950 . S
H1498 C1508 0.950 . S
H1499 C1510 0.950 . S
H1500 C1512 0.950 . S
H1501 C1513 0.950 . S
C1502 H1494 0.950 . S
C1502 C1503 1.386 . S
C1502 C1504 1.391 . S
C1503 C1502 1.386 . S
C1503 C1507 1.393 . S
C1504 H1496 0.950 . S
C1504 C1502 1.391 . S
C1504 C1505 1.400 . S
C1505 C1504 1.400 . S
C1505 C1506 1.398 . S
C1505 C1511 1.491 . S
C1506 H1497 0.950 . S
C1506 C1505 1.398 . S
C1506 C1507 1.391 . S
C1507 H1495 0.950 . S
C1507 C1503 1.393 . S
C1507 C1506 1.391 . S
C1508 H1498 0.950 . S
C1508 C1509 1.386 . S
C1508 C1510 1.391 . S
C1509 C1508 1.386 . S
C1509 C1513 1.393 . S
C1510 H1499 0.950 . S
C1510 C1508 1.391 . S
C1510 C1511 1.400 . S
C1511 C1505 1.491 . S
C1511 C1510 1.400 . S
C1511 C1512 1.398 . S
C1512 H1500 0.950 . S
C1512 C1511 1.398 . S
C1512 C1513 1.391 . S
C1513 H1501 0.950 . S
C1513 C1509 1.393 . S
C1513 C1512 1.391 . S
H1514 C1522 0.950 . S
H1515 C1527 0.950 . S
H1516 C1524 0.950 . S
H1517 C1526 0.950 . S
H1518 C1528 0.950 . S
H1519 C1530 0.950 . S
H1520 C1532 0.950 . S
H1521 C1533 0.950 . S
C1522 H1514 0.950 . S
C1522 C1523 1.386 . S
C1522 C1524 1.391 . S
C1523 C1522 1.386 . S
C1523 C1527 1.393 . S
C1524 H1516 0.950 . S
C1524 C1522 1.391 . S
C1524 C1525 1.400 . S
C1525 C1524 1.400 . S
C1525 C1526 1.398 . S
C1525 C1531 1.491 . S
C1526 H1517 0.950 . S
C1526 C1525 1.398 . S
C1526 C1527 1.391 . S
C1527 H1515 0.950 . S
C1527 C1523 1.393 . S
C1527 C1526 1.391 . S
C1528 H1518 0.950 . S
C1528 C1529 1.386 . S
C1528 C1530 1.391 . S
C1529 C1528 1.386 . S
C1529 C1533 1.393 . S
C1530 H1519 0.950 . S
C1530 C1528 1.391 . S
C1530 C1531 1.400 . S
C1531 C1525 1.491 . S
C1531 C1530 1.400 . S
C1531 C1532 1.398 . S
C1532 H1520 0.950 . S
C1532 C1531 1.398 . S
C1532 C1533 1.391 . S
C1533 H1521 0.950 . S
C1533 C1529 1.393 . S
C1533 C1532 1.391 . S
H1534 C1542 0.950 . S
H1535 C1547 0.950 . S
H1536 C1544 0.950 . S
H1537 C1546 0.950 . S
H1538 C1548 0.950 . S
H1539 C1550 0.950 . S
H1540 C1552 0.950 . S
H1541 C1553 0.950 . S
C1542 H1534 0.950 . S
C1542 C1543 1.386 . S
C1542 C1544 1.391 . S
C1543 C1542 1.386 . S
C1543 C1547 1.393 . S
C1544 H1536 0.950 . S
C1544 C1542 1.391 . S
C1544 C1545 1.400 . S
C1545 C1544 1.400 . S
C1545 C1546 1.398 . S
C1545 C1551 1.491 . S
C1546 H1537 0.950 . S
C1546 C1545 1.398 . S
C1546 C1547 1.391 . S
C1547 H1535 0.950 . S
C1547 C1543 1.393 . S
C1547 C1546 1.391 . S
C1548 H1538 0.950 . S
C1548 C1549 1.386 . S
C1548 C1550 1.391 . S
C1549 C1548 1.386 . S
C1549 C1553 1.393 . S
C1550 H1539 0.950 . S
C1550 C1548 1.391 . S
C1550 C1551 1.400 . S
C1551 C1545 1.491 . S
C1551 C1550 1.400 . S
C1551 C1552 1.398 . S
C1552 H1540 0.950 . S
C1552 C1551 1.398 . S
C1552 C1553 1.391 . S
C1553 H1541 0.950 . S
C1553 C1549 1.393 . S
C1553 C1552 1.391 . S
H1554 C1562 0.950 . S
H1555 C1567 0.950 . S
H1556 C1564 0.950 . S
H1557 C1566 0.950 . S
H1558 C1568 0.950 . S
H1559 C1570 0.950 . S
H1560 C1572 0.950 . S
H1561 C1573 0.950 . S
C1562 H1554 0.950 . S
C1562 C1563 1.386 . S
C1562 C1564 1.391 . S
C1563 C1562 1.386 . S
C1563 C1567 1.393 . S
C1564 H1556 0.950 . S
C1564 C1562 1.391 . S
C1564 C1565 1.400 . S
C1565 C1564 1.400 . S
C1565 C1566 1.398 . S
C1565 C1571 1.491 . S
C1566 H1557 0.950 . S
C1566 C1565 1.398 . S
C1566 C1567 1.391 . S
C1567 H1555 0.950 . S
C1567 C1563 1.393 . S
C1567 C1566 1.391 . S
C1568 H1558 0.950 . S
C1568 C1569 1.386 . S
C1568 C1570 1.391 . S
C1569 C1568 1.386 . S
C1569 C1573 1.393 . S
C1570 H1559 0.950 . S
C1570 C1568 1.391 . S
C1570 C1571 1.400 . S
C1571 C1565 1.491 . S
C1571 C1570 1.400 . S
C1571 C1572 1.398 . S
C1572 H1560 0.950 . S
C1572 C1571 1.398 . S
C1572 C1573 1.391 . S
C1573 H1561 0.950 . S
C1573 C1569 1.393 . S
C1573 C1572 1.391 . S
H1574 C1582 0.950 . S
H1575 C1587 0.950 . S
H1576 C1584 0.950 . S
H1577 C1586 0.950 . S
H1578 C1588 0.950 . S
H1579 C1590 0.950 1_545 S
H1580 C1592 0.950 . S
H1581 C1593 0.950 . S
C1582 H1574 0.950 . S
C1582 C1583 1.386 1_565 S
C1582 C1584 1.391 . S
C1583 C1582 1.386 1_545 S
C1583 C1587 1.393 . S
C1584 H1576 0.950 . S
C1584 C1582 1.391 . S
C1584 C1585 1.400 . S
C1585 C1584 1.400 . S
C1585 C1586 1.398 1_565 S
C1585 C1591 1.491 . S
C1586 H1577 0.950 . S
C1586 C1585 1.398 1_545 S
C1586 C1587 1.391 . S
C1587 H1575 0.950 . S
C1587 C1583 1.393 . S
C1587 C1586 1.391 . S
C1588 H1578 0.950 . S
C1588 C1589 1.386 . S
C1588 C1590 1.391 . S
C1589 C1588 1.386 . S
C1589 C1593 1.393 . S
C1590 H1579 0.950 1_565 S
C1590 C1588 1.391 . S
C1590 C1591 1.400 . S
C1591 C1585 1.491 . S
C1591 C1590 1.400 . S
C1591 C1592 1.398 . S
C1592 H1580 0.950 . S
C1592 C1591 1.398 . S
C1592 C1593 1.391 . S
C1593 H1581 0.950 . S
C1593 C1589 1.393 . S
C1593 C1592 1.391 . S
H1594 C1602 0.950 . S
H1595 C1607 0.950 . S
H1596 C1604 0.950 . S
H1597 C1606 0.950 1_655 S
H1598 C1608 0.950 . S
H1599 C1610 0.954 . S
H1600 C1612 0.950 . S
H1601 C1613 0.950 . S
C1602 H1594 0.950 . S
C1602 C1603 1.386 . S
C1602 C1604 1.391 . S
C1603 C1602 1.386 . S
C1603 C1607 1.393 . S
C1604 H1596 0.950 . S
C1604 C1602 1.391 . S
C1604 C1605 1.400 . S
C1605 C1604 1.400 . S
C1605 C1606 1.398 . S
C1605 C1611 1.491 . S
C1606 H1597 0.950 1_455 S
C1606 C1605 1.398 . S
C1606 C1607 1.391 . S
C1607 H1595 0.950 . S
C1607 C1603 1.393 . S
C1607 C1606 1.391 . S
C1608 H1598 0.950 . S
C1608 C1609 1.386 1_655 S
C1608 C1610 1.402 . S
C1609 C1608 1.386 1_455 S
C1609 C1613 1.393 . S
C1610 H1599 0.954 . S
C1610 C1608 1.402 . S
C1610 C1611 1.386 1_655 S
C1611 C1605 1.491 . S
C1611 C1610 1.386 1_455 S
C1611 C1612 1.398 . S
C1612 H1600 0.950 . S
C1612 C1611 1.398 . S
C1612 C1613 1.391 . S
C1613 H1601 0.950 . S
C1613 C1609 1.393 . S
C1613 C1612 1.391 . S
H1614 C1622 0.950 . S
H1615 C1627 0.950 . S
H1616 C1624 0.950 . S
H1617 C1626 0.950 . S
H1618 C1628 0.950 . S
H1619 C1630 0.950 1_556 S
H1620 C1632 0.950 . S
H1621 C1633 0.950 . S
C1622 H1614 0.950 . S
C1622 C1623 1.386 . S
C1622 C1624 1.391 1_556 S
C1623 C1622 1.386 . S
C1623 C1627 1.393 . S
C1624 H1616 0.950 . S
C1624 C1622 1.391 1_554 S
C1624 C1625 1.400 1_554 S
C1625 C1624 1.400 1_556 S
C1625 C1626 1.398 . S
C1625 C1631 1.491 1_556 S
C1626 H1617 0.950 . S
C1626 C1625 1.398 . S
C1626 C1627 1.391 . S
C1627 H1615 0.950 . S
C1627 C1623 1.393 . S
C1627 C1626 1.391 . S
C1628 H1618 0.950 . S
C1628 C1629 1.386 . S
C1628 C1630 1.391 . S
C1629 C1628 1.386 . S
C1629 C1633 1.393 . S
C1630 H1619 0.950 1_554 S
C1630 C1628 1.391 . S
C1630 C1631 1.400 . S
C1631 C1625 1.491 1_554 S
C1631 C1630 1.400 . S
C1631 C1632 1.398 . S
C1632 H1620 0.950 . S
C1632 C1631 1.398 . S
C1632 C1633 1.391 . S
C1633 H1621 0.950 . S
C1633 C1629 1.393 . S
C1633 C1632 1.391 . S
H1634 C1642 0.950 . S
H1635 C1647 0.950 . S
H1636 C1644 0.950 . S
H1637 C1646 0.950 . S
H1638 C1648 0.950 . S
H1639 C1650 0.950 1_565 S
H1640 C1652 0.950 . S
H1641 C1653 0.950 . S
C1642 H1634 0.950 . S
C1642 C1643 1.386 . S
C1642 C1644 1.391 . S
C1643 C1642 1.386 . S
C1643 C1647 1.393 1_545 S
C1644 H1636 0.950 . S
C1644 C1642 1.391 . S
C1644 C1645 1.400 . S
C1645 C1644 1.400 . S
C1645 C1646 1.398 1_545 S
C1645 C1651 1.491 1_556 S
C1646 H1637 0.950 . S
C1646 C1645 1.398 1_565 S
C1646 C1647 1.391 . S
C1647 H1635 0.950 . S
C1647 C1643 1.393 1_565 S
C1647 C1646 1.391 . S
C1648 H1638 0.950 . S
C1648 C1649 1.386 . S
C1648 C1650 1.391 . S
C1649 C1648 1.386 . S
C1649 C1653 1.393 . S
C1650 H1639 0.950 1_545 S
C1650 C1648 1.391 . S
C1650 C1651 1.400 . S
C1651 C1645 1.491 1_554 S
C1651 C1650 1.400 . S
C1651 C1652 1.398 . S
C1652 H1640 0.950 . S
C1652 C1651 1.398 . S
C1652 C1653 1.391 . S
C1653 H1641 0.950 . S
C1653 C1649 1.393 . S
C1653 C1652 1.391 . S
H1654 C1662 0.950 . S
H1655 C1667 0.950 1_554 S
H1656 C1664 0.950 . S
H1657 C1666 0.950 . S
H1658 C1668 0.950 . S
H1659 C1670 0.950 . S
H1660 C1672 0.968 1_556 S
H1661 C1673 0.950 . S
C1662 H1654 0.950 . S
C1662 C1663 1.386 . S
C1662 C1664 1.391 . S
C1663 C1662 1.386 . S
C1663 C1667 1.393 1_455 S
C1664 H1656 0.950 . S
C1664 C1662 1.391 . S
C1664 C1665 1.421 1_455 S
C1665 C1664 1.421 1_655 S
C1665 C1666 1.389 1_556 S
C1665 C1671 1.479 1_556 S
C1666 H1657 0.950 . S
C1666 C1665 1.389 1_554 S
C1666 C1667 1.391 1_554 S
C1667 H1655 0.950 1_556 S
C1667 C1663 1.393 1_655 S
C1667 C1666 1.391 1_556 S
C1668 H1658 0.950 . S
C1668 C1669 1.386 . S
C1668 C1670 1.391 . S
C1669 C1668 1.386 . S
C1669 C1673 1.393 . S
C1670 H1659 0.950 . S
C1670 C1668 1.391 . S
C1670 C1671 1.400 . S
C1671 C1665 1.479 1_554 S
C1671 C1670 1.400 . S
C1671 C1672 1.398 . S
C1672 H1660 0.968 1_554 S
C1672 C1671 1.398 . S
C1672 C1673 1.391 . S
C1673 H1661 0.950 . S
C1673 C1669 1.393 . S
C1673 C1672 1.391 . S
C963 C39 2.512 . S
C969 C781 2.513 1_554 S
C983 C674 2.519 1_554 S
C989 C91 2.520 . S
C1003 C144 2.515 . S
C1009 C728 2.510 1_554 S
C1023 C357 2.512 . S
C1029 C145 2.510 . S
C1043 C409 2.519 . S
C1049 C38 2.521 . S
C1063 C463 2.506 . S
C1069 C92 2.510 . S
C1083 C181 1.623 . S
C1089 C605 1.624 . S
C1103 C499 1.650 . S
C1109 C234 1.650 . S
C1123 C552 1.623 . S
C1129 C294 1.616 . S
C1143 C287 1.647 . S
C1149 C817 1.642 . S
C1163 C188 1.639 . S
C1169 C870 1.643 . S
C1183 C930 1.642 . S
C1189 C241 1.640 . S
C1203 C675 2.512 . S
C1209 C462 2.518 . S
C1223 C356 2.511 . S
C1229 C727 2.511 . S
C1243 C780 2.511 . S
C1249 C410 2.503 . S
C1263 C923 1.626 . S
C1269 C506 1.613 . S
C1283 C559 1.641 . S
C1289 C824 1.636 . S
C1303 C877 1.613 . S
C1309 C612 1.613 . S
C1323 C833 1.578 . S
C1329 C29 1.581 . S
C1343 C75 1.573 . S
C1349 C886 1.573 . S
C1363 C128 1.573 . S
C1369 C940 1.578 . S
C1383 C135 1.584 . S
C1389 C621 1.581 . S
C1403 C515 1.584 . S
C1409 C22 1.585 . S
C1423 C82 1.580 . S
C1429 C568 1.576 . S
C1443 C347 1.588 . S
C1449 C197 1.585 . S
C1463 C393 1.582 . S
C1469 C250 1.583 . S
C1483 C304 1.585 . S
C1489 C453 1.584 . S
C1503 C303 1.579 . S
C1509 C771 1.582 . S
C1523 C198 1.581 . S
C1529 C658 1.578 . S
C1543 C251 1.579 . S
C1549 C718 1.578 . S
C1563 C446 1.585 . S
C1569 C939 1.584 . S
C1583 C340 1.582 . S
C1589 C834 1.585 . S
C1603 C887 1.584 . S
C1609 C400 1.585 . S
C1623 C665 1.584 . S
C1629 C516 1.583 . S
C1643 C711 1.612 . S
C1649 C569 1.581 . S
C1663 C764 1.575 . S
C1669 C622 1.580 . S
