# Generated by pormake.
# Topology vby, (6)-cn, num edge types: 1
# Building blocks:
#     Node 0, Type 0, BuildingBlock: CUKXOW_clean_sbu_0, # of connection points: 6
#     Node 1, Type 0, BuildingBlock: CUKXOW_clean_sbu_0, # of connection points: 6
#     Node 2, Type 0, BuildingBlock: CUKXOW_clean_sbu_0, # of connection points: 6
#     Node 3, Type 0, BuildingBlock: CUKXOW_clean_sbu_0, # of connection points: 6
#     Node 4, Type 0, BuildingBlock: CUKXOW_clean_sbu_0, # of connection points: 6
#     Node 5, Type 0, BuildingBlock: CUKXOW_clean_sbu_0, # of connection points: 6
#     Node 6, Type 0, BuildingBlock: CUKXOW_clean_sbu_0, # of connection points: 6
#     Node 7, Type 0, BuildingBlock: CUKXOW_clean_sbu_0, # of connection points: 6
#     Edge 8, Type (0, 0), BuildingBlock: ZUJKAS_clean_linker_0, # of connection points: 2
#     Edge 9, Type (0, 0), BuildingBlock: ZUJKAS_clean_linker_0, # of connection points: 2
#     Edge 10, Type (0, 0), BuildingBlock: ZUJKAS_clean_linker_0, # of connection points: 2
#     Edge 11, Type (0, 0), BuildingBlock: ZUJKAS_clean_linker_0, # of connection points: 2
#     Edge 12, Type (0, 0), BuildingBlock: ZUJKAS_clean_linker_0, # of connection points: 2
#     Edge 13, Type (0, 0), BuildingBlock: ZUJKAS_clean_linker_0, # of connection points: 2
#     Edge 14, Type (0, 0), BuildingBlock: ZUJKAS_clean_linker_0, # of connection points: 2
#     Edge 15, Type (0, 0), BuildingBlock: ZUJKAS_clean_linker_0, # of connection points: 2
#     Edge 16, Type (0, 0), BuildingBlock: ZUJKAS_clean_linker_0, # of connection points: 2
#     Edge 17, Type (0, 0), BuildingBlock: ZUJKAS_clean_linker_0, # of connection points: 2
#     Edge 18, Type (0, 0), BuildingBlock: ZUJKAS_clean_linker_0, # of connection points: 2
#     Edge 19, Type (0, 0), BuildingBlock: ZUJKAS_clean_linker_0, # of connection points: 2
#     Edge 20, Type (0, 0), BuildingBlock: ZUJKAS_clean_linker_0, # of connection points: 2
#     Edge 21, Type (0, 0), BuildingBlock: ZUJKAS_clean_linker_0, # of connection points: 2
#     Edge 22, Type (0, 0), BuildingBlock: ZUJKAS_clean_linker_0, # of connection points: 2
#     Edge 23, Type (0, 0), BuildingBlock: ZUJKAS_clean_linker_0, # of connection points: 2
#     Edge 24, Type (0, 0), BuildingBlock: ZUJKAS_clean_linker_0, # of connection points: 2
#     Edge 25, Type (0, 0), BuildingBlock: ZUJKAS_clean_linker_0, # of connection points: 2
#     Edge 26, Type (0, 0), BuildingBlock: ZUJKAS_clean_linker_0, # of connection points: 2
#     Edge 27, Type (0, 0), BuildingBlock: ZUJKAS_clean_linker_0, # of connection points: 2
#     Edge 28, Type (0, 0), BuildingBlock: ZUJKAS_clean_linker_0, # of connection points: 2
#     Edge 29, Type (0, 0), BuildingBlock: ZUJKAS_clean_linker_0, # of connection points: 2
#     Edge 30, Type (0, 0), BuildingBlock: ZUJKAS_clean_linker_0, # of connection points: 2
#     Edge 31, Type (0, 0), BuildingBlock: ZUJKAS_clean_linker_0, # of connection points: 2
# Relax obj value: 0.106
# Max RMSD: 0.176
# Mean RMSD: 0.176
data_MOF--net-vby--node1-CUKXOW_clean_sbu_0--edge1-ZUJKAS_clean_linker_0
_symmetry_space_group_name_H-M    P1
_symmetry_Int_Tables_number       1
_symmetry_cell_setting            triclinic
loop_
_symmetry_equiv_pos_as_xyz
'x, y, z'
_cell_length_a     22.667605
_cell_length_b     70.067249
_cell_length_c     38.97092
_cell_angle_alpha  105.49231
_cell_angle_beta   90.028846
_cell_angle_gamma 89.957339
loop_
_atom_site_label
_atom_site_type_symbol
_atom_site_fract_x
_atom_site_fract_y
_atom_site_fract_z
_atom_type_partial_charge
Tb0 Tb 0.99824 0.38381 0.02017 0.0
C1 C 0.05619 0.39256 0.09573 0.0
Tb2 Tb 0.13309 0.39299 0.02899 0.0
O3 O 1.00488 0.3517 0.01878 0.0
O4 O 0.07637 0.36962 0.02552 0.0
O5 O 0.00861 0.39469 0.07731 0.0
C6 C 0.25047 0.39131 0.0268 0.0
O7 O 0.1091 0.38829 0.08069 0.0
C8 C 0.06357 0.42417 0.03946 0.0
C9 C 0.07301 0.38361 0.95166 0.0
O10 O 0.21951 0.40622 0.04465 0.0
O11 O 0.21539 0.37726 0.01011 0.0
O12 O 0.11402 0.42379 0.05503 0.0
O13 O 0.05596 0.40762 0.01688 0.0
O14 O 0.12272 0.38725 0.97072 0.0
O15 O 0.02018 0.38303 0.96594 0.0
C16 C 0.88185 0.38747 0.01726 0.0
O17 O 0.91287 0.37339 0.99675 0.0
O18 O 0.91642 0.3996 0.0394 0.0
C19 C 0.06173 0.35217 0.02311 0.0
Tb20 Tb 0.88614 0.64941 0.00391 0.0
C21 C 0.94268 0.65781 0.08239 0.0
Tb22 Tb 0.01579 0.6576 0.01527 0.0
O23 O 0.90307 0.61879 0.97601 0.0
O24 O 0.95917 0.63343 0.01715 0.0
O25 O 0.89384 0.65647 0.06275 0.0
C26 C 0.134 0.65726 0.01503 0.0
O27 O 0.99617 0.65642 0.06847 0.0
C28 C 0.9468 0.68888 0.02482 0.0
C29 C 0.96454 0.64792 0.93723 0.0
O30 O 0.10098 0.67243 0.01553 0.0
O31 O 0.10047 0.6422 0.01466 0.0
O32 O 0.99459 0.6886 0.04302 0.0
O33 O 0.94233 0.67272 1.0014 0.0
O34 O 0.01082 0.64705 0.95751 0.0
O35 O 0.91057 0.65169 0.95076 0.0
C36 C 0.7682 0.65205 0.00468 0.0
O37 O 0.79848 0.6358 0.99519 0.0
O38 O 0.80432 0.6669 0.01373 0.0
C39 C 0.95098 0.61732 0.99339 0.0
Tb40 Tb 0.99907 0.65579 0.51322 0.0
C41 C 0.05157 0.64573 0.43544 0.0
Tb42 Tb 0.12891 0.64752 0.50272 0.0
O43 O 0.01963 0.68695 0.54013 0.0
O44 O 0.07287 0.67072 0.49929 0.0
O45 O 1.00488 0.64507 0.4555 0.0
C46 C 0.24683 0.64985 0.50406 0.0
O47 O 0.10537 0.64951 0.44924 0.0
C48 C 0.06348 0.61562 0.49227 0.0
C49 C 0.07115 0.65636 0.58094 0.0
O50 O 0.21629 0.63365 0.49495 0.0
O51 O 0.21098 0.66482 0.5124 0.0
O52 O 0.11169 0.61686 0.47503 0.0
O53 O 0.05564 0.63178 0.51587 0.0
O54 O 0.1203 0.65501 0.56158 0.0
O55 O 0.01793 0.65481 0.56662 0.0
C56 C 0.88095 0.65513 0.51233 0.0
O57 O 0.91357 0.6705 0.51367 0.0
O58 O 0.91482 0.64008 0.51148 0.0
C59 C 0.06784 0.68703 0.52223 0.0
Tb60 Tb 0.88091 0.39288 0.52882 0.0
C61 C 0.94201 0.38371 0.45184 0.0
Tb62 Tb 0.01561 0.38304 0.52047 0.0
O63 O 0.9005 0.42356 0.55518 0.0
O64 O 0.95907 0.40721 0.51743 0.0
O65 O 0.89218 0.38763 0.47072 0.0
C66 C 0.13217 0.38616 0.51761 0.0
O67 O 0.99448 0.38259 0.46625 0.0
C68 C 0.9504 0.35173 0.52285 0.0
C69 C 0.95674 0.39182 0.5957 0.0
O70 O 0.10065 0.37231 0.49689 0.0
O71 O 0.09802 0.39834 0.53998 0.0
O72 O 0.00736 0.35096 0.51905 0.0
O73 O 0.93666 0.36923 0.52505 0.0
O74 O 1.00473 0.39384 0.57758 0.0
O75 O 0.90396 0.38773 0.58037 0.0
C76 C 0.76353 0.39147 0.52576 0.0
O77 O 0.79442 0.40598 0.54501 0.0
O78 O 0.79867 0.37769 0.50816 0.0
C79 C 0.9515 0.42371 0.54015 0.0
Tb80 Tb 0.50032 0.88425 0.0214 0.0
C81 C 0.56533 0.89439 0.09325 0.0
Tb82 Tb 0.63215 0.88961 0.02077 0.0
O83 O 0.51357 0.85807 0.04189 0.0
O84 O 0.57468 0.86526 0.00781 0.0
O85 O 0.51712 0.89791 0.07696 0.0
C86 C 0.74895 0.8854 0.01348 0.0
O87 O 0.61446 0.88774 0.07537 0.0
C88 C 0.57308 0.92321 0.03957 0.0
C89 C 0.56154 0.88151 0.9477 0.0
O90 O 0.71745 0.89862 0.00401 0.0
O91 O 0.71462 0.87445 0.02693 0.0
O92 O 0.62477 0.92033 0.05158 0.0
O93 O 0.55785 0.90761 0.0164 0.0
O94 O 0.6143 0.88312 0.96331 0.0
O95 O 0.51147 0.88248 0.96558 0.0
C96 C 0.38286 0.88487 0.01633 0.0
O97 O 0.41667 0.87008 1.00113 0.0
O98 O 0.41524 0.89941 0.03431 0.0
C99 C 0.56412 0.85352 0.02634 0.0
Tb100 Tb 0.3774 0.15409 0.03447 0.0
C101 C 0.45521 0.1568 0.10319 0.0
Tb102 Tb 0.51406 0.15837 0.03116 0.0
O103 O 0.37032 0.12169 0.02077 0.0
O104 O 0.45134 0.13546 0.02469 0.0
O105 O 0.40232 0.16009 0.09091 0.0
C106 C 0.63119 0.15783 0.03488 0.0
O107 O 0.50292 0.15321 0.08291 0.0
C108 C 0.44962 0.19015 0.03313 0.0
C109 C 0.44389 0.14993 0.9607 0.0
O110 O 0.59711 0.171 0.05517 0.0
O111 O 0.59929 0.1448 0.01255 0.0
O112 O 0.50019 0.18654 0.01715 0.0
O113 O 0.43993 0.17704 0.04894 0.0
O114 O 0.49422 0.1468 0.97554 0.0
O115 O 0.3946 0.1555 0.97941 0.0
C116 C 0.2628 0.16266 0.0406 0.0
O117 O 0.29789 0.16674 0.01719 0.0
O118 O 0.29233 0.15392 0.06055 0.0
C119 C 0.42692 0.11877 0.01908 0.0
Tb120 Tb 0.49743 0.15901 0.53356 0.0
C121 C 0.56189 0.14866 0.46165 0.0
Tb122 Tb 0.62896 0.15407 0.53601 0.0
O123 O 0.51079 0.18547 0.51405 0.0
O124 O 0.57077 0.17819 0.5489 0.0
O125 O 0.51172 0.14686 0.47765 0.0
C126 C 0.7463 0.15609 0.531 0.0
O127 O 0.61199 0.15365 0.47975 0.0
C128 C 0.56968 0.12296 0.54132 0.0
C129 C 0.55904 0.16308 0.60795 0.0
O130 O 0.71464 0.14031 0.51913 0.0
O131 O 0.71188 0.17082 0.54559 0.0
O132 O 0.6203 0.12837 0.55624 0.0
O133 O 0.55618 0.13412 0.5217 0.0
O134 O 0.61176 0.16381 0.59335 0.0
O135 O 0.50989 0.15944 0.58895 0.0
C136 C 0.37974 0.15784 0.53751 0.0
O137 O 0.4119 0.17366 0.54697 0.0
O138 O 0.41385 0.14259 0.52601 0.0
C139 C 0.56074 0.19003 0.53045 0.0
Tb140 Tb 0.37859 0.89146 0.52255 0.0
C141 C 0.44203 0.8825 0.44637 0.0
Tb142 Tb 0.51331 0.88213 0.51605 0.0
O143 O 0.39704 0.92202 0.54993 0.0
O144 O 0.45681 0.90623 0.51234 0.0
O145 O 0.39171 0.8866 0.46469 0.0
C146 C 0.6298 0.88553 0.51372 0.0
O147 O 0.49384 0.88111 0.46133 0.0
C148 C 0.44915 0.85066 0.51874 0.0
C149 C 0.45192 0.89033 0.59038 0.0
O150 O 0.59877 0.87151 0.49307 0.0
O151 O 0.5952 0.89773 0.53574 0.0
O152 O 0.50632 0.85029 0.51641 0.0
O153 O 0.43449 0.86786 0.51911 0.0
O154 O 0.5004 0.89279 0.57303 0.0
O155 O 0.39982 0.88615 0.57422 0.0
C156 C 0.26125 0.89019 0.51873 0.0
O157 O 0.29211 0.90467 0.53806 0.0
O158 O 0.2964 0.87633 0.5014 0.0
C159 C 0.44813 0.92259 0.53527 0.0
H160 H 0.32634 0.41965 0.06247 0.0
H161 H 0.43427 0.41902 0.05953 0.0
H162 H 0.42833 0.36111 0.98515 0.0
H163 H 0.32014 0.36164 0.98794 0.0
H164 H 0.51145 0.38922 0.075 0.0
H165 H 0.53249 0.39554 0.9362 0.0
H166 H 0.46574 0.40211 0.96198 0.0
H167 H 0.48366 0.37655 0.94255 0.0
C168 C 0.3481 0.4068 0.04547 0.0
C169 C 0.31521 0.39072 0.02531 0.0
C170 C 0.40958 0.40647 0.04384 0.0
C171 C 0.43894 0.39013 0.02182 0.0
C172 C 0.40622 0.37396 1.00188 0.0
H173 H 0.80622 0.36139 0.97516 0.0
H174 H 0.69827 0.36234 0.97667 0.0
C175 C 0.34465 0.37424 0.00361 0.0
C176 C 0.50396 0.38993 0.0203 0.0
H177 H 0.62046 0.39053 0.96525 0.0
C178 C 0.53544 0.38956 0.05108 0.0
C179 C 0.5347 0.39033 0.98898 0.0
C180 C 0.50263 0.3913 0.95555 0.0
C181 C 0.59727 0.38926 0.05124 0.0
C182 C 0.62813 0.38982 0.01998 0.0
C183 C 0.59655 0.39017 0.98917 0.0
C184 C 0.69327 0.38972 0.01855 0.0
C185 C 0.62891 0.38788 0.08459 0.0
C186 C 0.72601 0.40502 0.04111 0.0
C187 C 0.78761 0.40446 0.0404 0.0
C188 C 0.81716 0.38869 0.01687 0.0
C189 C 0.78436 0.37369 0.99361 0.0
C190 C 0.72284 0.37421 0.99443 0.0
H191 H 0.59938 0.38241 0.10263 0.0
H192 H 0.6677 0.37788 0.07802 0.0
H193 H 0.64477 0.40281 0.09925 0.0
H194 H 0.70393 0.41734 0.05935 0.0
H195 H 0.81203 0.41626 0.05843 0.0
H196 H 0.20769 0.62566 0.00849 0.0
H197 H 0.31601 0.62572 0.00718 0.0
H198 H 0.31517 0.68871 0.01928 0.0
H199 H 0.20704 0.68874 0.0205 0.0
H200 H 0.39006 0.64011 0.95736 0.0
H201 H 0.42804 0.68039 0.09925 0.0
H202 H 0.35918 0.66815 0.08365 0.0
H203 H 0.37644 0.69148 0.0752 0.0
C204 C 0.2307 0.63952 0.01099 0.0
C205 C 0.19913 0.65721 0.01468 0.0
C206 C 0.29244 0.63953 0.01021 0.0
C207 C 0.32351 0.65725 0.01352 0.0
C208 C 0.29201 0.67493 0.01719 0.0
H209 H 0.69961 0.68536 0.02027 0.0
H210 H 0.59137 0.68707 0.02115 0.0
C211 C 0.23032 0.67491 0.01773 0.0
C212 C 0.38887 0.65717 0.01216 0.0
H213 H 0.51192 0.67338 0.06203 0.0
C214 C 0.4168 0.64733 0.98023 0.0
C215 C 0.42346 0.66678 0.04197 0.0
C216 C 0.39552 0.67721 0.07711 0.0
C217 C 0.47856 0.64695 0.97718 0.0
C218 C 0.51333 0.65624 0.0072 0.0
C219 C 0.48528 0.66626 0.03906 0.0
C220 C 0.57883 0.65528 0.00635 0.0
C221 C 0.50586 0.63694 0.94161 0.0
C222 C 0.60772 0.63688 0.99822 0.0
C223 C 0.66929 0.63589 0.9975 0.0
C224 C 0.70319 0.65329 0.00535 0.0
C225 C 0.67443 0.67173 0.01402 0.0
C226 C 0.6127 0.67271 0.01456 0.0
H227 H 0.47433 0.63606 0.9194 0.0
H228 H 0.54602 0.64489 0.93672 0.0
H229 H 0.51854 0.62159 0.94126 0.0
H230 H 0.58262 0.62325 0.99271 0.0
H231 H 0.69036 0.62149 0.99104 0.0
H232 H 0.80822 0.62328 0.50475 0.0
H233 H 0.70003 0.62301 0.50309 0.0
H234 H 0.69912 0.68629 0.51814 0.0
H235 H 0.80711 0.68653 0.51893 0.0
H236 H 0.62061 0.64174 0.55364 0.0
H237 H 0.59319 0.66781 0.43211 0.0
H238 H 0.66324 0.65954 0.44487 0.0
H239 H 0.63688 0.68411 0.46593 0.0
C240 C 0.78483 0.63709 0.50752 0.0
C241 C 0.81587 0.6549 0.51172 0.0
C242 C 0.72311 0.63694 0.50661 0.0
C243 C 0.69146 0.65458 0.50985 0.0
C244 C 0.72255 0.67243 0.51466 0.0
H245 H 0.31589 0.68298 0.51951 0.0
H246 H 0.42417 0.68446 0.52193 0.0
C247 C 0.78422 0.67257 0.51536 0.0
C248 C 0.62594 0.65436 0.50905 0.0
H249 H 0.50634 0.6662 0.46536 0.0
C250 C 0.59565 0.647 0.53423 0.0
C251 C 0.59338 0.66128 0.48374 0.0
C252 C 0.62327 0.66846 0.45491 0.0
C253 C 0.53373 0.64658 0.53507 0.0
C254 C 0.50129 0.65352 0.50982 0.0
C255 C 0.53143 0.66098 0.48477 0.0
C256 C 0.43598 0.65267 0.50842 0.0
C257 C 0.50343 0.63898 0.56325 0.0
C258 C 0.40698 0.63432 0.49956 0.0
C259 C 0.34542 0.63345 0.49802 0.0
C260 C 0.31182 0.65092 0.50531 0.0
C261 C 0.34084 0.6693 0.5139 0.0
C262 C 0.40253 0.67016 0.51526 0.0
H263 H 0.53374 0.63861 0.58549 0.0
H264 H 0.46464 0.6483 0.57424 0.0
H265 H 0.48757 0.62367 0.55118 0.0
H266 H 0.43204 0.62065 0.49362 0.0
H267 H 0.32413 0.61909 0.49121 0.0
H268 H 0.6943 0.36229 0.48523 0.0
H269 H 0.58622 0.36179 0.48185 0.0
H270 H 0.57939 0.41869 0.55942 0.0
H271 H 0.68722 0.41942 0.56242 0.0
H272 H 0.50559 0.36344 0.53623 0.0
H273 H 0.47659 0.42732 0.47885 0.0
H274 H 0.54684 0.41523 0.47928 0.0
H275 H 0.52024 0.43281 0.51873 0.0
C276 C 0.66961 0.37471 0.50139 0.0
C277 C 0.69879 0.39095 0.52391 0.0
C278 C 0.60806 0.37441 0.49946 0.0
C279 C 0.57501 0.39036 0.51992 0.0
C280 C 0.60419 0.40645 0.5428 0.0
H281 H 0.20301 0.41441 0.5593 0.0
H282 H 0.31125 0.4153 0.55932 0.0
C283 C 0.66566 0.40679 0.54467 0.0
C284 C 0.50988 0.38991 0.51821 0.0
H285 H 0.38987 0.41496 0.49987 0.0
C286 C 0.48024 0.37461 0.52804 0.0
C287 C 0.47712 0.40455 0.50757 0.0
C288 C 0.50676 0.42081 0.49518 0.0
C289 C 0.41847 0.37378 0.5282 0.0
C290 C 0.38577 0.3885 0.51785 0.0
C291 C 0.41532 0.40376 0.50789 0.0
C292 C 0.32071 0.38824 0.51709 0.0
C293 C 0.38858 0.35741 0.54014 0.0
C294 C 0.29063 0.37293 0.49289 0.0
C295 C 0.2291 0.37242 0.49278 0.0
C296 C 0.19686 0.38725 0.51683 0.0
C297 C 0.22699 0.40279 0.54057 0.0
C298 C 0.2886 0.40332 0.5406 0.0
H299 H 0.41941 0.3499 0.5545 0.0
H300 H 0.35056 0.36326 0.55778 0.0
H301 H 0.37159 0.34617 0.51647 0.0
H302 H 0.3148 0.36134 0.4742 0.0
H303 H 0.2068 0.36033 0.47411 0.0
H304 H 0.82001 0.85858 0.03297 0.0
H305 H 0.92824 0.85747 0.03195 0.0
H306 H 0.93194 0.90807 0.9887 0.0
H307 H 0.82399 0.90907 0.98921 0.0
H308 H 0.00954 0.87829 0.95475 0.0
H309 H 0.03503 0.89668 0.10173 0.0
H310 H 0.98938 0.8755 0.08301 0.0
H311 H 0.96605 0.89962 0.08055 0.0
C312 C 0.84403 0.86941 0.02316 0.0
C313 C 0.81382 0.88399 0.01137 0.0
C314 C 0.90576 0.86883 0.02278 0.0
C315 C 0.93812 0.8829 0.01081 0.0
C316 C 0.90783 0.89714 0.9982 0.0
H317 H 0.30729 0.91469 0.04798 0.0
H318 H 0.19912 0.91414 0.04549 0.0
C319 C 0.84622 0.89771 0.99852 0.0
C320 C 1.00355 0.88295 0.01152 0.0
H321 H 0.12219 0.88865 0.06741 0.0
C322 C 0.03423 0.88053 0.97936 0.0
C323 C 0.03558 0.88618 0.04374 0.0
C324 C 1.00497 0.88983 0.07929 0.0
C325 C 0.09613 0.88107 0.97849 0.0
C326 C 0.12818 0.88382 0.01061 0.0
C327 C 0.0975 0.88641 0.04281 0.0
C328 C 0.19359 0.88422 0.01145 0.0
C329 C 0.12664 0.87911 0.94331 0.0
C330 C 0.22626 0.86754 0.99335 0.0
C331 C 0.28789 0.86785 0.99468 0.0
C332 C 0.31788 0.8848 0.01433 0.0
C333 C 0.28521 0.90146 0.03255 0.0
C334 C 0.22353 0.90115 0.0312 0.0
H335 H 0.09617 0.88225 0.92314 0.0
H336 H 0.16492 0.88931 0.94646 0.0
H337 H 0.14313 0.86373 0.93295 0.0
H338 H 0.20406 0.8542 0.97853 0.0
H339 H 0.31204 0.85476 0.98057 0.0
H340 H 0.18825 0.1578 0.092 0.0
H341 H 0.08038 0.15846 0.09112 0.0
H342 H 0.08433 0.17312 0.99041 0.0
H343 H 0.19254 0.17311 0.99178 0.0
H344 H 0.99958 0.19372 0.03444 0.0
H345 H 0.98464 0.11394 0.02844 0.0
H346 H 0.02473 0.12792 0.06659 0.0
H347 H 0.05331 0.12568 0.02259 0.0
C348 C 0.16604 0.16136 0.06987 0.0
C349 C 0.19841 0.16521 0.04177 0.0
C350 C 0.10451 0.16158 0.06926 0.0
C351 C 0.07443 0.16528 0.04022 0.0
C352 C 0.10676 0.17003 0.0129 0.0
H353 H 0.70743 0.13371 0.98903 0.0
H354 H 0.81538 0.13592 0.98903 0.0
C355 C 0.16843 0.17004 0.01371 0.0
C356 C 0.00934 0.16374 0.03801 0.0
H357 H 0.89486 0.13222 0.03865 0.0
C358 C 0.97663 0.18026 0.0352 0.0
C359 C 0.97961 0.14602 0.03829 0.0
C360 C 0.01238 0.12732 0.03876 0.0
C361 C 0.91479 0.17969 0.03351 0.0
C362 C 0.88502 0.16228 0.03555 0.0
C363 C 0.9178 0.14562 0.03754 0.0
C364 C 0.81985 0.16098 0.03564 0.0
C365 C 0.88207 0.19763 0.029 0.0
C366 C 0.7868 0.17407 0.06223 0.0
C367 C 0.72533 0.17289 0.06214 0.0
C368 C 0.69602 0.15843 0.03574 0.0
C369 C 0.72909 0.145 0.00965 0.0
C370 C 0.79061 0.14627 0.00961 0.0
H371 H 0.91086 0.20716 0.01747 0.0
H372 H 0.8429 0.19326 0.01155 0.0
H373 H 0.8668 0.20662 0.05543 0.0
H374 H 0.80855 0.18518 0.08311 0.0
H375 H 0.70076 0.18333 0.08269 0.0
H376 H 0.30558 0.18909 0.56132 0.0
H377 H 0.19751 0.18877 0.56066 0.0
H378 H 0.19941 0.12563 0.5134 0.0
H379 H 0.30756 0.12584 0.51454 0.0
H380 H 0.12337 0.17695 0.50231 0.0
H381 H 0.08625 0.13133 0.59688 0.0
H382 H 0.15674 0.14239 0.59239 0.0
H383 H 0.13406 0.12002 0.56038 0.0
C384 C 0.28287 0.17513 0.55108 0.0
C385 C 0.31474 0.15747 0.53814 0.0
C386 C 0.22123 0.17497 0.55065 0.0
C387 C 0.19043 0.15715 0.53741 0.0
C388 C 0.22227 0.13949 0.52441 0.0
H389 H 0.82142 0.12549 0.50427 0.0
H390 H 0.92947 0.12626 0.50468 0.0
C391 C 0.28397 0.13963 0.52491 0.0
C392 C 0.12506 0.15718 0.53618 0.0
H393 H 1.00238 0.13806 0.56547 0.0
C394 C 0.09685 0.16854 0.51626 0.0
C395 C 0.09064 0.14618 0.5544 0.0
C396 C 0.11834 0.13443 0.5775 0.0
C397 C 0.03511 0.16889 0.51353 0.0
C398 C 1.00076 0.15781 0.53161 0.0
C399 C 0.02892 0.14649 0.55157 0.0
C400 C 0.93545 0.15768 0.53013 0.0
C401 C 0.00718 0.18076 0.49072 0.0
C402 C 0.90309 0.1751 0.54435 0.0
C403 C 0.84138 0.17468 0.54414 0.0
C404 C 0.81122 0.15683 0.52983 0.0
C405 C 0.84365 0.13945 0.51538 0.0
C406 C 0.90527 0.13987 0.51566 0.0
H407 H 0.03946 0.18446 0.47203 0.0
H408 H 0.96977 0.17256 0.4751 0.0
H409 H 0.98979 0.19485 0.50812 0.0
H410 H 0.92555 0.18893 0.55619 0.0
H411 H 0.81733 0.18826 0.55557 0.0
H412 H 0.70516 0.85961 0.47106 0.0
H413 H 0.81308 0.86079 0.47161 0.0
H414 H 0.80794 0.91555 0.5549 0.0
H415 H 0.69983 0.91425 0.5549 0.0
H416 H 0.88899 0.8895 0.4598 0.0
H417 H 0.91583 0.88051 0.5963 0.0
H418 H 0.84685 0.87584 0.57238 0.0
H419 H 0.86918 0.90081 0.59375 0.0
C420 C 0.72711 0.87189 0.48947 0.0
C421 C 0.69447 0.88678 0.51312 0.0
C422 C 0.78863 0.87255 0.48973 0.0
C423 C 0.81835 0.88807 0.51369 0.0
C424 C 0.78574 0.90323 0.53675 0.0
H425 H 0.1855 0.91823 0.5555 0.0
H426 H 0.07758 0.91759 0.55303 0.0
C427 C 0.72415 0.90254 0.53658 0.0
C428 C 0.88351 0.88837 0.51439 0.0
H429 H 1.00232 0.88764 0.56782 0.0
C430 C 0.91385 0.88902 0.48334 0.0
C431 C 0.91561 0.88766 0.54516 0.0
C432 C 0.88532 0.88598 0.57871 0.0
C433 C 0.97568 0.88936 0.48244 0.0
C434 C 0.00766 0.88878 0.51327 0.0
C435 C 0.9774 0.8881 0.54429 0.0
C436 C 0.07273 0.88912 0.51408 0.0
C437 C 0.00634 0.89069 0.44881 0.0
C438 C 0.10541 0.8732 0.4932 0.0
C439 C 0.16701 0.8735 0.49463 0.0
C440 C 0.19652 0.88972 0.517 0.0
C441 C 0.16369 0.90558 0.53797 0.0
C442 C 0.10221 0.90524 0.53661 0.0
H443 H 0.97561 0.89518 0.43015 0.0
H444 H 0.04331 0.90146 0.45506 0.0
H445 H 0.02498 0.87599 0.43508 0.0
H446 H 0.08324 0.86049 0.47608 0.0
H447 H 0.19147 0.86107 0.47835 0.0
H448 H 0.93187 0.58183 0.94595 0.0
H449 H 0.94957 0.54891 0.95409 0.0
H450 H 0.03333 0.57526 0.05501 0.0
H451 H 0.01491 0.60842 0.04717 0.0
H452 H 0.05019 0.52868 0.96464 0.0
H453 H 0.90118 0.54197 0.08175 0.0
H454 H 0.90379 0.55827 0.05291 0.0
H455 H 0.96013 0.55955 0.08592 0.0
C456 C 0.95478 0.58062 0.96969 0.0
C457 C 0.97155 0.5977 0.99607 0.0
C458 C 0.96478 0.56178 0.97432 0.0
C459 C 0.99152 0.5596 0.00552 0.0
C460 C 0.01137 0.5766 0.03108 0.0
H461 H 0.07723 0.45999 0.08646 0.0
H462 H 0.05474 0.4924 0.0775 0.0
C463 C 1.00144 0.59553 0.02641 0.0
C464 C 0.99678 0.53953 0.01143 0.0
H465 H 0.95269 0.51146 0.06632 0.0
C466 C 0.02876 0.52489 0.98681 0.0
C467 C 0.96835 0.53454 0.04021 0.0
C468 C 0.93096 0.54932 0.06658 0.0
C469 C 0.03438 0.50557 0.99067 0.0
C470 C 0.00622 0.50061 0.01957 0.0
C471 C 0.97395 0.51523 0.04407 0.0
C472 C 0.01319 0.48076 0.02619 0.0
C473 C 0.07195 0.49082 0.96437 0.0
C474 C 0.99498 0.46334 1.00102 0.0
C475 C 0.00768 0.44468 0.00618 0.0
C476 C 0.03872 0.44322 0.0366 0.0
C477 C 0.05346 0.46067 0.06268 0.0
C478 C 0.04072 0.47922 0.05758 0.0
H479 H 0.10094 0.49815 0.94874 0.0
H480 H 0.09996 0.48217 0.97818 0.0
H481 H 0.04289 0.48031 0.94543 0.0
H482 H 0.97247 0.46418 0.97695 0.0
H483 H 0.99583 0.43148 0.98563 0.0
H484 H 0.01774 0.43105 0.48598 0.0
H485 H 0.0419 0.4638 0.47797 0.0
H486 H 0.96471 0.49169 0.58023 0.0
H487 H 0.94113 0.45922 0.58842 0.0
H488 H 0.95582 0.49213 0.47576 0.0
H489 H 0.11655 0.52305 0.58339 0.0
H490 H 0.10005 0.49692 0.56852 0.0
H491 H 0.0512 0.5135 0.59882 0.0
C492 C 0.00766 0.44418 0.50716 0.0
C493 C 0.97766 0.44264 0.53785 0.0
C494 C 0.02106 0.46286 0.50247 0.0
C495 C 1.00544 0.48022 0.52861 0.0
C496 C 0.97816 0.47857 0.55999 0.0
H497 H 1.00131 0.60703 0.54681 0.0
H498 H 0.9821 0.57392 0.55463 0.0
C499 C 0.96455 0.45998 0.56459 0.0
C500 C 0.01212 0.50002 0.52192 0.0
H501 H 0.0708 0.54608 0.55631 0.0
C502 C 0.98147 0.50387 0.49315 0.0
C503 C 0.04494 0.51541 0.54488 0.0
C504 C 0.08051 0.512 0.57545 0.0
C505 C 0.98183 0.52278 0.48713 0.0
C506 C 0.01447 0.53818 0.51017 0.0
C507 C 0.04531 0.53432 0.53886 0.0
C508 C 0.01984 0.55814 0.50396 0.0
C509 C 0.94614 0.5262 0.45662 0.0
C510 C 0.04644 0.56024 0.47269 0.0
C511 C 0.05722 0.57904 0.46818 0.0
C512 C 0.04195 0.59616 0.49492 0.0
C513 C 0.01312 0.5941 0.52565 0.0
C514 C 1.00252 0.57521 0.53023 0.0
H515 H 0.91077 0.51494 0.44823 0.0
H516 H 0.92568 0.54115 0.46386 0.0
H517 H 0.9756 0.52512 0.43345 0.0
H518 H 0.06111 0.54735 0.45234 0.0
H519 H 0.07973 0.58019 0.44429 0.0
H520 H 0.61701 0.95808 0.07966 0.0
H521 H 0.59469 0.99144 0.07503 0.0
H522 H 0.46288 0.96759 0.99536 0.0
H523 H 0.48528 0.93397 0.99974 0.0
H524 H 0.60406 1.00394 0.00982 0.0
H525 H 0.37932 1.01422 0.069 0.0
H526 H 0.43026 0.99589 0.07646 0.0
H527 H 0.39153 0.99156 0.03491 0.0
C528 C 0.58266 0.95993 0.06147 0.0
C529 C 0.55294 0.94339 0.03999 0.0
C530 C 0.57019 0.97901 0.05876 0.0
C531 C 0.52723 0.98201 0.03486 0.0
C532 C 0.49593 0.96561 0.01419 0.0
H533 H 0.38102 0.084 0.98255 0.0
H534 H 0.41171 0.0509 0.98411 0.0
C535 C 0.50865 0.94643 0.01675 0.0
C536 C 0.51693 1.00224 0.03076 0.0
H537 H 0.41409 0.03903 0.04341 0.0
C538 C 0.56258 1.01168 0.01719 0.0
C539 C 0.46294 1.01228 0.0405 0.0
C540 C 0.4132 1.00311 0.05631 0.0
C541 C 0.55509 0.03072 0.01223 0.0
C542 C 0.50091 0.04077 0.02188 0.0
C543 C 0.4556 0.03135 0.03587 0.0
C544 C 0.48882 0.06075 0.01677 0.0
C545 C 0.60459 0.03962 0.99577 0.0
C546 C 0.52319 0.07741 0.03349 0.0
C547 C 0.50621 0.09647 0.03196 0.0
C548 C 0.45409 0.09909 0.01426 0.0
C549 C 0.42151 0.08237 0.9963 0.0
C550 C 0.43882 0.06344 0.99736 0.0
H551 H 0.63613 0.02814 0.98126 0.0
H552 H 0.58726 0.04773 0.97701 0.0
H553 H 0.62929 0.05026 0.01712 0.0
H554 H 0.56135 0.07581 0.0492 0.0
H555 H 0.53144 0.10919 0.04654 0.0
H556 H 0.59071 0.10049 0.58609 0.0
H557 H 0.57012 0.06534 0.57694 0.0
H558 H 0.47932 0.06401 0.47907 0.0
H559 H 0.49986 0.09962 0.48827 0.0
H560 H 0.42265 0.04231 0.52355 0.0
H561 H 0.65836 0.02215 0.501 0.0
H562 H 0.64608 0.04146 0.54114 0.0
H563 H 0.62948 0.04583 0.49872 0.0
C564 C 0.56576 0.09279 0.56277 0.0
C565 C 0.54738 0.10271 0.53769 0.0
C566 C 0.55444 0.07267 0.55745 0.0
C567 C 0.52475 0.06194 0.52684 0.0
C568 C 0.50309 0.072 0.50265 0.0
H569 H 0.51155 0.9312 0.48095 0.0
H570 H 0.53193 0.96453 0.47414 0.0
C571 C 0.51445 0.09231 0.50801 0.0
C572 C 0.51729 0.04022 0.52062 0.0
H573 H 0.59577 0.99792 0.51616 0.0
C574 C 0.46039 0.03253 0.52133 0.0
C575 C 0.56655 0.02738 0.51712 0.0
C576 C 0.62855 0.03456 0.51407 0.0
C577 C 0.45168 1.01261 0.52089 0.0
C578 C 0.50122 1.00016 0.52024 0.0
C579 C 0.5579 1.00753 0.5172 0.0
C580 C 0.49491 0.97997 0.52522 0.0
C581 C 0.38945 1.00514 0.52181 0.0
C582 C 0.47032 0.97765 0.55686 0.0
C583 C 0.45908 0.95879 0.56084 0.0
C584 C 0.47258 0.94182 0.53338 0.0
C585 C 0.50098 0.94404 0.50261 0.0
C586 C 0.51216 0.96305 0.49859 0.0
H587 H 0.35736 1.01428 0.51156 0.0
H588 H 0.38541 0.98949 0.50584 0.0
H589 H 0.37731 1.00595 0.54975 0.0
H590 H 0.45817 0.99048 0.57814 0.0
H591 H 0.43746 0.95749 0.58492 0.0
H592 H 0.03463 0.31287 0.00486 0.0
H593 H 0.09915 0.28506 0.00699 0.0
H594 H 0.2414 0.3259 0.04632 0.0
H595 H 0.17648 0.35369 0.0452 0.0
H596 H 0.20471 0.27289 0.97202 0.0
H597 H 0.23746 0.29308 0.11833 0.0
H598 H 0.18079 0.30418 0.09738 0.0
H599 H 0.25588 0.31256 0.09823 0.0
C600 C 0.07963 0.31589 0.01406 0.0
C601 C 0.1008 0.33543 0.02447 0.0
C602 C 0.1165 0.29999 0.01518 0.0
C603 C 0.17506 0.30335 0.02712 0.0
C604 C 0.19623 0.3229 0.03748 0.0
H605 H 0.46132 0.21702 0.99414 0.0
H606 H 0.39394 0.2441 0.99209 0.0
C607 C 0.15935 0.33878 0.03635 0.0
C608 C 0.21411 0.28639 0.02825 0.0
H609 H 0.29825 0.26731 0.08404 0.0
C610 C 0.22503 0.27164 0.99653 0.0
C611 C 0.24003 0.28458 0.06031 0.0
C612 C 0.2276 0.29933 0.09558 0.0
C613 C 0.26196 0.25539 0.99588 0.0
C614 C 0.2895 0.25395 0.02773 0.0
C615 C 0.27767 0.2685 0.05956 0.0
C616 C 0.33038 0.23742 0.02868 0.0
C617 C 0.27035 0.23972 0.96119 0.0
C618 C 0.31794 0.2249 0.05054 0.0
C619 C 0.35666 0.20953 0.05196 0.0
C620 C 0.4087 0.20641 0.03162 0.0
C621 C 0.42139 0.21902 0.00997 0.0
C622 C 0.38269 0.23441 0.00859 0.0
H623 H 0.23457 0.24014 0.94191 0.0
H624 H 0.31283 0.24232 0.94904 0.0
H625 H 0.27171 0.22469 0.96553 0.0
H626 H 0.27806 0.22697 0.06643 0.0
H627 H 0.34596 0.20014 0.0691 0.0
H628 H 0.55679 0.83105 0.07381 0.0
H629 H 0.62264 0.80403 0.07863 0.0
H630 H 0.72427 0.81169 0.98969 0.0
H631 H 0.65964 0.83892 0.98544 0.0
H632 H 0.64564 0.7691 0.03312 0.0
H633 H 0.85378 0.81162 0.05952 0.0
H634 H 0.78279 0.82349 0.0613 0.0
H635 H 0.81934 0.81367 0.01925 0.0
C636 C 0.59342 0.827 0.05546 0.0
C637 C 0.60338 0.83715 0.02942 0.0
C638 C 0.63104 0.81157 0.05822 0.0
C639 C 0.6793 0.80601 0.03498 0.0
C640 C 0.68857 0.81602 0.00863 0.0
H641 H 0.8605 0.69317 0.97884 0.0
H642 H 0.7951 0.72151 0.98364 0.0
C643 C 0.65131 0.83151 0.00605 0.0
C644 C 0.71856 0.78929 0.03731 0.0
H645 H 0.86323 0.77624 0.04165 0.0
C646 C 0.69318 0.77073 0.03531 0.0
C647 C 0.78063 0.7914 0.04082 0.0
C648 C 0.81068 0.81117 0.04574 0.0
C649 C 0.72808 0.75414 0.03551 0.0
C650 C 0.79035 0.75599 0.03686 0.0
C651 C 0.81562 0.77469 0.04011 0.0
C652 C 0.83007 0.73865 0.03421 0.0
C653 C 0.69767 0.73485 0.03466 0.0
C654 C 0.87309 0.73899 0.0604 0.0
C655 C 0.91115 0.72284 0.05745 0.0
C656 C 0.90689 0.70604 0.02825 0.0
C657 C 0.86429 0.7058 1.00192 0.0
C658 C 0.82657 0.72196 0.00476 0.0
H659 H 0.652 0.73737 0.04526 0.0
H660 H 0.69477 0.72567 0.0067 0.0
H661 H 0.72234 0.72638 0.05037 0.0
H662 H 0.87704 0.75174 0.08324 0.0
H663 H 0.94371 0.72345 0.07808 0.0
H664 H 0.06863 0.72254 0.57331 0.0
H665 H 0.13268 0.75123 0.57582 0.0
H666 H 0.21831 0.71905 0.47885 0.0
H667 H 0.15482 0.69046 0.4762 0.0
H668 H 0.26632 0.75187 0.57383 0.0
H669 H 0.15635 0.77287 0.4616 0.0
H670 H 0.12072 0.75777 0.48653 0.0
H671 H 0.17571 0.74716 0.45388 0.0
C672 C 0.10119 0.72162 0.5526 0.0
C673 C 0.10671 0.7043 0.52456 0.0
C674 C 0.13777 0.73797 0.5541 0.0
C675 C 0.17987 0.7373 0.52736 0.0
C676 C 0.18577 0.71993 0.49957 0.0
H677 H 0.47824 0.81194 0.51052 0.0
H678 H 0.41269 0.78478 0.51484 0.0
C679 C 0.14959 0.70359 0.49818 0.0
C680 C 0.2175 0.75475 0.52811 0.0
H681 H 0.24488 0.78968 0.48349 0.0
C682 C 0.26154 0.76022 0.55422 0.0
C683 C 0.21085 0.76567 0.50263 0.0
C684 C 0.16312 0.76075 0.47466 0.0
C685 C 0.30004 0.77608 0.55498 0.0
C686 C 0.2944 0.78666 0.52888 0.0
C687 C 0.24942 0.78147 0.50331 0.0
C688 C 0.33473 0.80316 0.52755 0.0
C689 C 0.34623 0.78151 0.58382 0.0
C690 C 0.31265 0.82247 0.53303 0.0
C691 C 0.35004 0.83796 0.53067 0.0
C692 C 0.40996 0.83439 0.52219 0.0
C693 C 0.43217 0.8151 0.51699 0.0
C694 C 0.39484 0.79961 0.51959 0.0
H695 H 0.33664 0.7749 0.60615 0.0
H696 H 0.38981 0.77594 0.57246 0.0
H697 H 0.34941 0.79784 0.59447 0.0
H698 H 0.26648 0.82556 0.5393 0.0
H699 H 0.33211 0.85273 0.53576 0.0
H700 H 0.83461 0.35405 0.54255 0.0
H701 H 0.76716 0.32679 0.54236 0.0
H702 H 0.90908 0.285 0.50802 0.0
H703 H 0.97598 0.3123 0.50657 0.0
H704 H 0.80864 0.27235 0.47118 0.0
H705 H 0.75868 0.29577 0.61552 0.0
H706 H 0.74234 0.31457 0.59343 0.0
H707 H 0.81744 0.3067 0.59599 0.0
C708 C 0.85112 0.33904 0.53441 0.0
C709 C 0.91021 0.33527 0.52399 0.0
C710 C 0.81278 0.32346 0.53488 0.0
C711 C 0.83309 0.3038 0.52563 0.0
C712 C 0.89232 0.30002 0.51532 0.0
H713 H 0.65499 0.20422 0.57274 0.0
H714 H 0.7212 0.23123 0.56966 0.0
C715 C 0.93057 0.31562 0.51462 0.0
C716 C 0.79254 0.28716 0.52631 0.0
H717 H 0.69964 0.26985 0.58019 0.0
C718 C 0.78492 0.27177 0.49504 0.0
C719 C 0.76209 0.28624 0.55756 0.0
C720 C 0.77092 0.30159 0.59262 0.0
C721 C 0.74738 0.25565 0.49406 0.0
C722 C 0.71545 0.25507 0.525 0.0
C723 C 0.72351 0.27037 0.55634 0.0
C724 C 0.67526 0.23839 0.52599 0.0
C725 C 0.74353 0.23914 0.46013 0.0
C726 C 0.62686 0.23344 0.50268 0.0
C727 C 0.58939 0.21773 0.50406 0.0
C728 C 0.59939 0.20682 0.52896 0.0
C729 C 0.64697 0.21207 0.55272 0.0
C730 C 0.68457 0.22763 0.55119 0.0
H731 H 0.78208 0.23912 0.44252 0.0
H732 H 0.74088 0.22447 0.46587 0.0
H733 H 0.7032 0.24116 0.44533 0.0
H734 H 0.61776 0.24181 0.48361 0.0
H735 H 0.55274 0.2141 0.48563 0.0
H736 H 0.1261 0.37739 0.13986 0.0
H737 H 0.10235 0.37604 0.20072 0.0
H738 H 0.94256 0.40905 0.19802 0.0
H739 H 0.96538 0.41032 0.13763 0.0
H740 H 0.07903 0.40652 0.26393 0.0
H741 H 0.88304 0.35854 0.22093 0.0
H742 H 0.93813 0.36239 0.19001 0.0
H743 H 0.88275 0.38091 0.20673 0.0
C744 C 0.08634 0.38456 0.15245 0.0
C745 C 0.04729 0.39374 0.13381 0.0
C746 C 0.07269 0.3837 0.18709 0.0
C747 C 0.01992 0.39201 0.20342 0.0
C748 C 0.98263 0.40207 0.18552 0.0
H749 H 0.86682 0.4014 0.41395 0.0
H750 H 0.88144 0.4034 0.35234 0.0
C751 C 0.99599 0.40285 0.15104 0.0
C752 C 1.00316 0.39007 0.23904 0.0
H753 H 0.89716 0.37128 0.28323 0.0
C754 C 0.0394 0.39877 0.26815 0.0
C755 C 0.95115 0.38004 0.24442 0.0
C756 C 0.91172 0.36978 0.21385 0.0
C757 C 0.02483 0.39782 0.30262 0.0
C758 C 0.97311 0.38768 0.30795 0.0
C759 C 0.93651 0.37914 0.27896 0.0
C760 C 0.95902 0.3847 0.34317 0.0
C761 C 0.06475 0.40773 0.33319 0.0
C762 C 0.99614 0.37283 0.35748 0.0
C763 C 0.98788 0.37164 0.39222 0.0
C764 C 0.9421 0.38223 0.41335 0.0
C765 C 0.90231 0.39305 0.39821 0.0
C766 C 0.91081 0.3943 0.36321 0.0
H767 H 0.09429 0.41877 0.32621 0.0
H768 H 0.03855 0.41525 0.35706 0.0
H769 H 0.09274 0.39634 0.34026 0.0
H770 H 0.03286 0.36503 0.34215 0.0
H771 H 0.01881 0.36295 0.40299 0.0
H772 H 0.85799 0.64336 0.1194 0.0
H773 H 0.86477 0.64199 0.18182 0.0
H774 H 0.02853 0.67442 0.19347 0.0
H775 H 0.02177 0.67598 0.13203 0.0
H776 H 0.95886 0.62363 0.20777 0.0
H777 H 0.94143 0.70224 0.28417 0.0
H778 H 0.91731 0.69347 0.23847 0.0
H779 H 0.99408 0.69866 0.24867 0.0
C780 C 0.8944 0.65066 0.13571 0.0
C781 C 0.9394 0.65973 0.12095 0.0
C782 C 0.89844 0.64977 0.17119 0.0
C783 C 0.9469 0.65828 0.19234 0.0
C784 C 0.99023 0.66809 0.17792 0.0
H785 H 0.12164 0.65888 0.38905 0.0
H786 H 0.09534 0.66044 0.32871 0.0
C787 C 0.98648 0.66884 0.14268 0.0
C788 C 0.95629 0.65538 0.22822 0.0
H789 H 0.98913 0.68042 0.31391 0.0
C790 C 0.96446 0.63601 0.23116 0.0
C791 C 0.96409 0.67157 0.25857 0.0
C792 C 0.95319 0.69264 0.25743 0.0
C793 C 0.9826 0.63246 0.26336 0.0
C794 C 0.99227 0.6487 0.29334 0.0
C795 C 0.98254 0.66802 0.29067 0.0
C796 C 0.01085 0.64599 0.32813 0.0
C797 C 0.99324 0.61143 0.2648 0.0
C798 C 0.9724 0.63712 0.34739 0.0
C799 C 0.9872 0.63624 0.38167 0.0
C800 C 0.04077 0.64424 0.39741 0.0
C801 C 0.08032 0.65246 0.37755 0.0
C802 C 0.06521 0.65346 0.34322 0.0
H803 H 0.9965 0.60105 0.23777 0.0
H804 H 0.03434 0.61039 0.27972 0.0
H805 H 0.95599 0.60657 0.27891 0.0
H806 H 0.92998 0.63149 0.3364 0.0
H807 H 0.95579 0.62976 0.39624 0.0
H808 H 0.06223 0.633 0.89882 0.0
H809 H 0.08805 0.63477 0.839 0.0
H810 H 0.91978 0.66169 0.82973 0.0
H811 H 0.89348 0.66013 0.89003 0.0
H812 H 0.03007 0.61959 0.77206 0.0
H813 H 0.04457 0.70172 0.81239 0.0
H814 H 0.04348 0.68716 0.84426 0.0
H815 H 0.97627 0.69173 0.82333 0.0
C816 C 0.03036 0.63917 0.88402 0.0
C817 C 0.97595 0.64661 0.89931 0.0
C818 C 0.04527 0.64013 0.8498 0.0
C819 C 0.00632 0.64868 0.83028 0.0
C820 C 0.95084 0.65533 0.84472 0.0
H821 H 0.9882 0.67272 0.62958 0.0
H822 H 0.98192 0.67138 0.69115 0.0
C823 C 0.93567 0.65428 0.879 0.0
C824 C 0.02465 0.65106 0.79521 0.0
H825 H 0.05284 0.68589 0.75065 0.0
C826 C 0.03551 0.63406 0.76734 0.0
C827 C 0.03243 0.66998 0.78944 0.0
C828 C 0.02414 0.68873 0.81897 0.0
C829 C 0.0513 0.63547 0.73326 0.0
C830 C 0.05755 0.65441 0.72722 0.0
C831 C 0.04837 0.6714 0.75543 0.0
C832 C 0.06624 0.65688 0.69098 0.0
C833 C 0.05853 0.61671 0.70361 0.0
C834 C 0.11692 0.6498 0.67073 0.0
C835 C 0.12075 0.65057 0.63517 0.0
C836 C 0.07377 0.65835 0.6196 0.0
C837 C 0.02483 0.6664 0.64069 0.0
C838 C 0.02119 0.66571 0.67596 0.0
H839 H 0.04229 0.60347 0.71131 0.0
H840 H 0.03443 0.61783 0.67941 0.0
H841 H 0.10596 0.61443 0.69669 0.0
H842 H 0.15267 0.64325 0.68211 0.0
H843 H 0.15893 0.64427 0.6195 0.0
H844 H 0.04552 0.41024 0.63853 0.0
H845 H 0.06852 0.40849 0.69868 0.0
H846 H 0.91105 0.37413 0.6996 0.0
H847 H 0.88771 0.37565 0.63874 0.0
H848 H 1.00284 0.41999 0.76309 0.0
H849 H 0.04819 0.33908 0.71981 0.0
H850 H 0.04294 0.35409 0.68879 0.0
H851 H 0.97724 0.34665 0.70747 0.0
C852 C 0.01538 0.40241 0.65155 0.0
C853 C 0.96503 0.3929 0.63377 0.0
C854 C 0.02862 0.40148 0.68597 0.0
C855 C 0.9921 0.3909 0.70327 0.0
C856 C 0.94028 0.38211 0.68635 0.0
H857 H 0.99518 0.36334 0.90298 0.0
H858 H 0.98295 0.36481 0.84174 0.0
C859 C 0.92671 0.38314 0.65179 0.0
C860 C 0.00976 0.38868 0.73856 0.0
H861 H 0.05352 0.35456 0.78159 0.0
C862 C 0.0141 0.40571 0.76721 0.0
C863 C 0.02508 0.37005 0.74358 0.0
C864 C 0.0237 0.3514 0.71329 0.0
C865 C 0.03152 0.40453 0.80116 0.0
C866 C 0.04623 0.38585 0.80629 0.0
C867 C 0.04271 0.36886 0.77747 0.0
C868 C 0.05925 0.38338 0.8421 0.0
C869 C 0.03198 0.42317 0.8315 0.0
C870 C 0.10778 0.3927 0.86226 0.0
C871 C 0.11503 0.39187 0.89759 0.0
C872 C 0.07366 0.38175 0.91303 0.0
C873 C 0.02741 0.37146 0.89195 0.0
C874 C 0.02037 0.37224 0.85688 0.0
H875 H 0.00864 0.43558 0.82456 0.0
H876 H 0.01097 0.42052 0.85556 0.0
H877 H 0.07828 0.42779 0.8383 0.0
H878 H 0.13893 0.40107 0.85102 0.0
H879 H 0.15102 0.39993 0.91325 0.0
H880 H 0.62982 0.87499 0.1333 0.0
H881 H 0.60706 0.87336 0.19415 0.0
H882 H 0.46581 0.91537 0.20016 0.0
H883 H 0.48789 0.91703 0.13979 0.0
H884 H 0.59651 0.90373 0.2613 0.0
H885 H 0.38386 0.86574 0.21671 0.0
H886 H 0.44157 0.86784 0.18601 0.0
H887 H 0.39441 0.88861 0.20494 0.0
C888 C 0.59482 0.88419 0.14794 0.0
C889 C 0.5603 0.89599 0.13171 0.0
C890 C 0.5816 0.88315 0.18253 0.0
C891 C 0.53379 0.89387 0.20119 0.0
C892 C 0.50192 0.90662 0.18586 0.0
H893 H 0.37285 0.90212 0.40872 0.0
H894 H 0.39188 0.90472 0.34789 0.0
C895 C 0.51488 0.90762 0.15143 0.0
C896 C 0.51557 0.89133 0.23618 0.0
H897 H 0.40173 0.87533 0.2789 0.0
C898 C 0.55408 0.89746 0.26516 0.0
C899 C 0.45994 0.88325 0.24109 0.0
C900 C 0.41764 0.87581 0.21052 0.0
C901 C 0.53816 0.89592 0.29912 0.0
C902 C 0.48274 0.88769 0.30397 0.0
C903 C 0.44404 0.88169 0.27506 0.0
C904 C 0.46581 0.88441 0.33864 0.0
C905 C 0.58052 0.90336 0.32966 0.0
C906 C 0.49909 0.87141 0.35262 0.0
C907 C 0.48835 0.86991 0.38697 0.0
C908 C 0.44368 0.88123 0.40797 0.0
C909 C 0.40734 0.89316 0.39304 0.0
C910 C 0.41843 0.89475 0.35848 0.0
H911 H 0.6133 0.91384 0.32377 0.0
H912 H 0.55657 0.91087 0.35445 0.0
H913 H 0.60498 0.89061 0.33455 0.0
H914 H 0.53487 0.86293 0.33739 0.0
H915 H 0.51663 0.8604 0.39764 0.0
H916 H 0.5575 0.16312 0.14056 0.0
H917 H 0.57505 0.16133 0.20122 0.0
H918 H 0.39051 0.1496 0.21279 0.0
H919 H 0.37211 0.15142 0.15141 0.0
H920 H 0.51498 0.18422 0.26781 0.0
H921 H 0.48907 0.10227 0.23532 0.0
H922 H 0.50462 0.11496 0.20161 0.0
H923 H 0.43225 0.11627 0.22064 0.0
C924 C 0.52035 0.16022 0.15591 0.0
C925 C 0.46336 0.15724 0.14106 0.0
C926 C 0.53059 0.15927 0.19064 0.0
C927 C 0.48427 0.15514 0.21123 0.0
C928 C 0.42689 0.15264 0.19703 0.0
H929 H 0.47165 0.13322 0.41703 0.0
H930 H 0.45748 0.13455 0.35603 0.0
C931 C 0.41639 0.15378 0.16215 0.0
C932 C 0.49718 0.1531 0.24727 0.0
H933 H 0.51233 0.11888 0.29463 0.0
C934 C 0.51427 0.16997 0.27385 0.0
C935 C 0.49664 0.13446 0.25472 0.0
C936 C 0.48002 0.11586 0.22664 0.0
C937 C 0.52968 0.16877 0.30811 0.0
C938 C 0.52971 0.15007 0.31558 0.0
C939 C 0.51284 0.13318 0.2888 0.0
C940 C 0.54221 0.1479 0.35175 0.0
C941 C 0.54397 0.18764 0.33623 0.0
C942 C 0.59567 0.15433 0.36944 0.0
C943 C 0.60391 0.15378 0.40485 0.0
C944 C 0.5589 0.14661 0.42287 0.0
C945 C 0.50708 0.13909 0.40421 0.0
C946 C 0.49882 0.13976 0.36916 0.0
H947 H 0.52794 0.20095 0.32867 0.0
H948 H 0.52409 0.18756 0.36223 0.0
H949 H 0.59251 0.18896 0.33967 0.0
H950 H 0.63047 0.16018 0.35615 0.0
H951 H 0.64436 0.15961 0.41842 0.0
H952 H 0.37018 0.16773 0.92239 0.0
H953 H 0.3857 0.17002 0.86118 0.0
H954 H 0.54023 0.13308 0.85243 0.0
H955 H 0.52441 0.13033 0.91257 0.0
H956 H 0.48397 0.18628 0.83817 0.0
H957 H 0.45865 0.10837 0.75922 0.0
H958 H 0.43343 0.11702 0.80466 0.0
H959 H 0.50988 0.11081 0.7952 0.0
C960 C 0.40639 0.15964 0.90698 0.0
C961 C 0.44601 0.14884 0.9223 0.0
C962 C 0.41549 0.16109 0.87216 0.0
C963 C 0.46384 0.15156 0.85212 0.0
C964 C 0.50199 0.14022 0.86703 0.0
H965 H 0.63723 0.15217 0.65301 0.0
H966 H 0.61756 0.15111 0.71462 0.0
C967 C 0.49303 0.13878 0.9016 0.0
C968 C 0.47779 0.15463 0.8168 0.0
H969 H 0.50902 0.12997 0.73063 0.0
C970 C 0.48881 0.17399 0.81456 0.0
C971 C 0.48453 0.13857 0.78608 0.0
C972 C 0.47042 0.11755 0.78628 0.0
C973 C 0.50758 0.17766 0.78257 0.0
C974 C 0.51537 0.16156 0.75215 0.0
C975 C 0.50394 0.14224 0.75426 0.0
C976 C 0.53106 0.1645 0.7171 0.0
C977 C 0.51982 0.19865 0.78153 0.0
C978 C 0.48933 0.17264 0.69858 0.0
C979 C 0.5002 0.1731 0.66362 0.0
C980 C 0.5532 0.16554 0.64657 0.0
C981 C 0.59635 0.15828 0.6657 0.0
C982 C 0.58503 0.15757 0.7007 0.0
H983 H 0.52321 0.2089 0.80866 0.0
H984 H 0.56137 0.19939 0.76684 0.0
H985 H 0.48339 0.20384 0.76725 0.0
H986 H 0.44722 0.17786 0.71066 0.0
H987 H 0.46618 0.1788 0.64949 0.0
H988 H 0.37531 0.87682 0.63342 0.0
H989 H 0.39328 0.87532 0.69487 0.0
H990 H 0.56266 0.90313 0.69381 0.0
H991 H 0.54495 0.90501 0.63331 0.0
H992 H 0.48759 0.85539 0.71739 0.0
H993 H 0.4919 0.93545 0.78733 0.0
H994 H 0.46116 0.92608 0.74329 0.0
H995 H 0.53967 0.92895 0.74927 0.0
C996 C 0.41582 0.88294 0.64658 0.0
C997 C 0.45863 0.89103 0.62847 0.0
C998 C 0.42616 0.88199 0.68156 0.0
C999 C 0.47904 0.88933 0.69899 0.0
C1000 C 0.52112 0.89774 0.68116 0.0
H1001 H 0.64224 0.89192 0.90319 0.0
H1002 H 0.62616 0.89224 0.84091 0.0
C1003 C 0.51097 0.89866 0.64638 0.0
C1004 C 0.49239 0.88722 0.73502 0.0
H1005 H 0.53041 0.9135 0.81916 0.0
C1006 C 0.49647 0.86809 0.73974 0.0
C1007 C 0.50457 0.90381 0.764 0.0
C1008 C 0.4986 0.92474 0.76089 0.0
C1009 C 0.51329 0.8651 0.77259 0.0
C1010 C 0.52567 0.88169 0.8015 0.0
C1011 C 0.52161 0.90081 0.79679 0.0
C1012 C 0.53848 0.87966 0.8376 0.0
C1013 C 0.51848 0.84422 0.77601 0.0
C1014 C 0.49479 0.87233 0.85605 0.0
C1015 C 0.50372 0.8722 0.89135 0.0
C1016 C 0.55656 0.87943 0.90904 0.0
C1017 C 0.60129 0.88613 0.89018 0.0
C1018 C 0.59206 0.8864 0.85473 0.0
H1019 H 0.52344 0.83331 0.74962 0.0
H1020 H 0.55669 0.84276 0.79298 0.0
H1021 H 0.4779 0.84043 0.78867 0.0
H1022 H 0.45283 0.86735 0.84352 0.0
H1023 H 0.46841 0.86686 0.90507 0.0
loop_
_geom_bond_atom_site_label_1
_geom_bond_atom_site_label_2
_geom_bond_distance
_geom_bond_site_symmetry_2
_ccdc_geom_bond_type
Tb0 O3 2.450 1_655 S
Tb0 O4 2.596 1_655 S
Tb0 O5 2.374 1_655 S
Tb0 O13 2.343 1_655 S
Tb0 O15 2.353 1_654 S
Tb0 O17 2.427 1_554 S
Tb0 O18 2.513 . S
C1 O5 1.251 . S
C1 O7 1.263 . S
Tb2 O4 2.343 . S
Tb2 O7 2.353 . S
Tb2 O10 2.427 . S
Tb2 O11 2.513 1_554 S
Tb2 O12 2.453 . S
Tb2 O13 2.596 . S
Tb2 O14 2.374 1_554 S
O3 Tb0 2.450 1_455 S
O3 C19 1.250 . S
O4 Tb0 2.596 1_455 S
O4 Tb2 2.343 . S
O4 C19 1.259 . S
O5 Tb0 2.374 1_455 S
O5 C1 1.251 . S
C6 O10 1.275 . S
C6 O11 1.246 1_554 S
O7 C1 1.263 . S
O7 Tb2 2.353 . S
C8 O12 1.245 . S
C8 O13 1.259 . S
C9 O14 1.250 . S
C9 O15 1.263 . S
O10 Tb2 2.427 . S
O10 C6 1.275 . S
O11 Tb2 2.513 1_556 S
O11 C6 1.246 1_556 S
O12 Tb2 2.453 . S
O12 C8 1.245 . S
O13 Tb0 2.343 1_455 S
O13 Tb2 2.596 . S
O13 C8 1.259 . S
O14 Tb2 2.374 1_556 S
O14 C9 1.250 . S
O15 Tb0 2.353 1_456 S
O15 C9 1.263 . S
C16 O17 1.275 1_554 S
C16 O18 1.246 . S
O17 Tb0 2.427 1_556 S
O17 C16 1.275 1_556 S
O18 Tb0 2.513 . S
O18 C16 1.246 . S
C19 O3 1.250 . S
C19 O4 1.259 . S
Tb20 O23 2.453 . S
Tb20 O24 2.596 . S
Tb20 O25 2.374 . S
Tb20 O33 2.343 . S
Tb20 O35 2.353 1_554 S
Tb20 O37 2.427 1_554 S
Tb20 O38 2.513 . S
C21 O25 1.251 . S
C21 O27 1.263 . S
Tb22 O24 2.343 1_455 S
Tb22 O27 2.353 1_455 S
Tb22 O30 2.427 . S
Tb22 O31 2.513 1_554 S
Tb22 O32 2.453 1_455 S
Tb22 O33 2.596 1_455 S
Tb22 O34 2.374 1_454 S
O23 Tb20 2.453 . S
O23 C39 1.245 . S
O24 Tb20 2.596 . S
O24 Tb22 2.343 1_655 S
O24 C39 1.259 . S
O25 Tb20 2.374 . S
O25 C21 1.251 . S
C26 O30 1.275 . S
C26 O31 1.246 1_554 S
O27 C21 1.263 . S
O27 Tb22 2.353 1_655 S
C28 O32 1.245 . S
C28 O33 1.259 . S
C29 O34 1.250 . S
C29 O35 1.263 . S
O30 Tb22 2.427 . S
O30 C26 1.275 . S
O31 Tb22 2.513 1_556 S
O31 C26 1.246 1_556 S
O32 Tb22 2.453 1_655 S
O32 C28 1.245 . S
O33 Tb20 2.343 . S
O33 Tb22 2.596 1_655 S
O33 C28 1.259 . S
O34 Tb22 2.374 1_656 S
O34 C29 1.250 . S
O35 Tb20 2.353 1_556 S
O35 C29 1.263 . S
C36 O37 1.275 1_554 S
C36 O38 1.246 . S
O37 Tb20 2.427 1_556 S
O37 C36 1.275 1_556 S
O38 Tb20 2.513 . S
O38 C36 1.246 . S
C39 O23 1.245 . S
C39 O24 1.259 . S
Tb40 O43 2.453 1_655 S
Tb40 O44 2.596 1_655 S
Tb40 O45 2.374 1_655 S
Tb40 O53 2.343 1_655 S
Tb40 O55 2.353 1_655 S
Tb40 O57 2.427 . S
Tb40 O58 2.513 . S
C41 O45 1.251 . S
C41 O47 1.263 . S
Tb42 O44 2.343 . S
Tb42 O47 2.353 . S
Tb42 O50 2.427 . S
Tb42 O51 2.513 . S
Tb42 O52 2.453 . S
Tb42 O53 2.596 . S
Tb42 O54 2.374 . S
O43 Tb40 2.453 1_455 S
O43 C59 1.245 . S
O44 Tb40 2.596 1_455 S
O44 Tb42 2.343 . S
O44 C59 1.259 . S
O45 Tb40 2.374 1_455 S
O45 C41 1.251 . S
C46 O50 1.275 . S
C46 O51 1.246 . S
O47 C41 1.263 . S
O47 Tb42 2.353 . S
C48 O52 1.245 . S
C48 O53 1.259 . S
C49 O54 1.250 . S
C49 O55 1.263 . S
O50 Tb42 2.427 . S
O50 C46 1.275 . S
O51 Tb42 2.513 . S
O51 C46 1.246 . S
O52 Tb42 2.453 . S
O52 C48 1.245 . S
O53 Tb40 2.343 1_455 S
O53 Tb42 2.596 . S
O53 C48 1.259 . S
O54 Tb42 2.374 . S
O54 C49 1.250 . S
O55 Tb40 2.353 1_455 S
O55 C49 1.263 . S
C56 O57 1.275 . S
C56 O58 1.246 . S
O57 Tb40 2.427 . S
O57 C56 1.275 . S
O58 Tb40 2.513 . S
O58 C56 1.246 . S
C59 O43 1.245 . S
C59 O44 1.259 . S
Tb60 O63 2.453 . S
Tb60 O64 2.596 . S
Tb60 O65 2.374 . S
Tb60 O73 2.343 . S
Tb60 O75 2.353 . S
Tb60 O77 2.427 . S
Tb60 O78 2.513 . S
C61 O65 1.251 . S
C61 O67 1.263 . S
Tb62 O64 2.343 1_455 S
Tb62 O67 2.353 1_455 S
Tb62 O70 2.427 . S
Tb62 O71 2.513 . S
Tb62 O72 2.453 1_455 S
Tb62 O73 2.596 1_455 S
Tb62 O74 2.374 1_455 S
O63 Tb60 2.453 . S
O63 C79 1.245 . S
O64 Tb60 2.596 . S
O64 Tb62 2.343 1_655 S
O64 C79 1.259 . S
O65 Tb60 2.374 . S
O65 C61 1.251 . S
C66 O70 1.275 . S
C66 O71 1.246 . S
O67 C61 1.263 . S
O67 Tb62 2.353 1_655 S
C68 O72 1.245 . S
C68 O73 1.259 . S
C69 O74 1.250 . S
C69 O75 1.263 . S
O70 Tb62 2.427 . S
O70 C66 1.275 . S
O71 Tb62 2.513 . S
O71 C66 1.246 . S
O72 Tb62 2.453 1_655 S
O72 C68 1.245 . S
O73 Tb60 2.343 . S
O73 Tb62 2.596 1_655 S
O73 C68 1.259 . S
O74 Tb62 2.374 1_655 S
O74 C69 1.250 . S
O75 Tb60 2.353 . S
O75 C69 1.263 . S
C76 O77 1.275 . S
C76 O78 1.246 . S
O77 Tb60 2.427 . S
O77 C76 1.275 . S
O78 Tb60 2.513 . S
O78 C76 1.246 . S
C79 O63 1.245 . S
C79 O64 1.259 . S
Tb80 O83 2.450 . S
Tb80 O84 2.596 . S
Tb80 O85 2.374 . S
Tb80 O93 2.343 . S
Tb80 O95 2.353 1_554 S
Tb80 O97 2.427 1_554 S
Tb80 O98 2.513 . S
C81 O85 1.251 . S
C81 O87 1.263 . S
Tb82 O84 2.343 . S
Tb82 O87 2.353 . S
Tb82 O90 2.427 . S
Tb82 O91 2.513 1_554 S
Tb82 O92 2.453 . S
Tb82 O93 2.596 . S
Tb82 O94 2.374 1_554 S
O83 Tb80 2.450 . S
O83 C99 1.250 . S
O84 Tb80 2.596 . S
O84 Tb82 2.343 . S
O84 C99 1.259 . S
O85 Tb80 2.374 . S
O85 C81 1.251 . S
C86 O90 1.275 . S
C86 O91 1.246 1_554 S
O87 C81 1.263 . S
O87 Tb82 2.353 . S
C88 O92 1.245 . S
C88 O93 1.259 . S
C89 O94 1.250 . S
C89 O95 1.263 . S
O90 Tb82 2.427 . S
O90 C86 1.275 . S
O91 Tb82 2.513 1_556 S
O91 C86 1.246 1_556 S
O92 Tb82 2.453 . S
O92 C88 1.245 . S
O93 Tb80 2.343 . S
O93 Tb82 2.596 . S
O93 C88 1.259 . S
O94 Tb82 2.374 1_556 S
O94 C89 1.250 . S
O95 Tb80 2.353 1_556 S
O95 C89 1.263 . S
C96 O97 1.275 1_554 S
C96 O98 1.246 . S
O97 Tb80 2.427 1_556 S
O97 C96 1.275 1_556 S
O98 Tb80 2.513 . S
O98 C96 1.246 . S
C99 O83 1.250 . S
C99 O84 1.259 . S
Tb100 O103 2.453 . S
Tb100 O104 2.596 . S
Tb100 O105 2.374 . S
Tb100 O113 2.343 . S
Tb100 O115 2.353 1_554 S
Tb100 O117 2.427 1_554 S
Tb100 O118 2.513 . S
C101 O105 1.251 . S
C101 O107 1.263 . S
Tb102 O104 2.343 . S
Tb102 O107 2.353 . S
Tb102 O110 2.427 . S
Tb102 O111 2.513 1_554 S
Tb102 O112 2.453 . S
Tb102 O113 2.596 . S
Tb102 O114 2.374 1_554 S
O103 Tb100 2.453 . S
O103 C119 1.245 . S
O104 Tb100 2.596 . S
O104 Tb102 2.343 . S
O104 C119 1.259 . S
O105 Tb100 2.374 . S
O105 C101 1.251 . S
C106 O110 1.275 . S
C106 O111 1.246 1_554 S
O107 C101 1.263 . S
O107 Tb102 2.353 . S
C108 O112 1.245 . S
C108 O113 1.259 . S
C109 O114 1.250 . S
C109 O115 1.263 . S
O110 Tb102 2.427 . S
O110 C106 1.275 . S
O111 Tb102 2.513 1_556 S
O111 C106 1.246 1_556 S
O112 Tb102 2.453 . S
O112 C108 1.245 . S
O113 Tb100 2.343 . S
O113 Tb102 2.596 . S
O113 C108 1.259 . S
O114 Tb102 2.374 1_556 S
O114 C109 1.250 . S
O115 Tb100 2.353 1_556 S
O115 C109 1.263 . S
C116 O117 1.275 1_554 S
C116 O118 1.246 . S
O117 Tb100 2.427 1_556 S
O117 C116 1.275 1_556 S
O118 Tb100 2.513 . S
O118 C116 1.246 . S
C119 O103 1.245 . S
C119 O104 1.259 . S
Tb120 O123 2.453 . S
Tb120 O124 2.596 . S
Tb120 O125 2.374 . S
Tb120 O133 2.343 . S
Tb120 O135 2.353 . S
Tb120 O137 2.427 . S
Tb120 O138 2.513 . S
C121 O125 1.251 . S
C121 O127 1.263 . S
Tb122 O124 2.343 . S
Tb122 O127 2.353 . S
Tb122 O130 2.427 . S
Tb122 O131 2.513 . S
Tb122 O132 2.453 . S
Tb122 O133 2.596 . S
Tb122 O134 2.374 . S
O123 Tb120 2.453 . S
O123 C139 1.245 . S
O124 Tb120 2.596 . S
O124 Tb122 2.343 . S
O124 C139 1.259 . S
O125 Tb120 2.374 . S
O125 C121 1.251 . S
C126 O130 1.275 . S
C126 O131 1.246 . S
O127 C121 1.263 . S
O127 Tb122 2.353 . S
C128 O132 1.245 . S
C128 O133 1.259 . S
C129 O134 1.250 . S
C129 O135 1.263 . S
O130 Tb122 2.427 . S
O130 C126 1.275 . S
O131 Tb122 2.513 . S
O131 C126 1.246 . S
O132 Tb122 2.453 . S
O132 C128 1.245 . S
O133 Tb120 2.343 . S
O133 Tb122 2.596 . S
O133 C128 1.259 . S
O134 Tb122 2.374 . S
O134 C129 1.250 . S
O135 Tb120 2.353 . S
O135 C129 1.263 . S
C136 O137 1.275 . S
C136 O138 1.246 . S
O137 Tb120 2.427 . S
O137 C136 1.275 . S
O138 Tb120 2.513 . S
O138 C136 1.246 . S
C139 O123 1.245 . S
C139 O124 1.259 . S
Tb140 O143 2.453 . S
Tb140 O144 2.596 . S
Tb140 O145 2.374 . S
Tb140 O153 2.343 . S
Tb140 O155 2.353 . S
Tb140 O157 2.427 . S
Tb140 O158 2.513 . S
C141 O145 1.251 . S
C141 O147 1.263 . S
Tb142 O144 2.343 . S
Tb142 O147 2.353 . S
Tb142 O150 2.427 . S
Tb142 O151 2.513 . S
Tb142 O152 2.453 . S
Tb142 O153 2.596 . S
Tb142 O154 2.374 . S
O143 Tb140 2.453 . S
O143 C159 1.245 . S
O144 Tb140 2.596 . S
O144 Tb142 2.343 . S
O144 C159 1.259 . S
O145 Tb140 2.374 . S
O145 C141 1.251 . S
C146 O150 1.275 . S
C146 O151 1.246 . S
O147 C141 1.263 . S
O147 Tb142 2.353 . S
C148 O152 1.245 . S
C148 O153 1.259 . S
C149 O154 1.250 . S
C149 O155 1.263 . S
O150 Tb142 2.427 . S
O150 C146 1.275 . S
O151 Tb142 2.513 . S
O151 C146 1.246 . S
O152 Tb142 2.453 . S
O152 C148 1.245 . S
O153 Tb140 2.343 . S
O153 Tb142 2.596 . S
O153 C148 1.259 . S
O154 Tb142 2.374 . S
O154 C149 1.250 . S
O155 Tb140 2.353 . S
O155 C149 1.263 . S
C156 O157 1.275 . S
C156 O158 1.246 . S
O157 Tb140 2.427 . S
O157 C156 1.275 . S
O158 Tb140 2.513 . S
O158 C156 1.246 . S
C159 O143 1.245 . S
C159 O144 1.259 . S
H160 C168 0.929 . S
H161 C170 0.930 . S
H162 C172 0.930 . S
H163 C175 0.929 . S
H164 C178 0.930 . S
H165 C180 0.960 . S
H166 C180 0.960 . S
H167 C180 0.960 . S
C168 H160 0.929 . S
C168 C169 1.377 . S
C168 C170 1.384 . S
C169 C168 1.377 . S
C169 C175 1.390 1_554 S
C170 H161 0.930 . S
C170 C168 1.384 . S
C170 C171 1.372 . S
C171 C170 1.372 . S
C171 C172 1.400 1_554 S
C171 C176 1.490 . S
C172 H162 0.930 . S
C172 C171 1.400 1_556 S
C172 C175 1.386 . S
H173 C189 0.930 . S
H174 C190 0.931 . S
C175 H163 0.929 . S
C175 C169 1.390 1_556 S
C175 C172 1.386 . S
C176 C171 1.490 . S
C176 C178 1.395 . S
C176 C179 1.403 . S
H177 C183 0.930 1_556 S
C178 H164 0.930 . S
C178 C176 1.395 . S
C178 C181 1.403 . S
C179 C176 1.403 . S
C179 C180 1.524 1_554 S
C179 C183 1.400 . S
C180 H165 0.960 . S
C180 H166 0.960 . S
C180 H167 0.960 . S
C180 C179 1.524 1_556 S
C181 C178 1.403 . S
C181 C182 1.392 . S
C181 C185 1.495 . S
C182 C181 1.392 . S
C182 C183 1.385 . S
C182 C184 1.478 . S
C183 H177 0.930 1_554 S
C183 C179 1.400 . S
C183 C182 1.385 . S
C184 C182 1.478 . S
C184 C186 1.381 . S
C184 C190 1.383 1_554 S
C185 C181 1.495 . S
C185 H191 0.959 . S
C185 H192 0.961 . S
C185 H193 0.960 . S
C186 C184 1.381 . S
C186 C187 1.394 . S
C186 H194 0.930 . S
C187 C186 1.394 . S
C187 C188 1.383 . S
C187 H195 0.929 . S
C188 C187 1.383 . S
C188 C189 1.377 1_554 S
C189 H173 0.930 . S
C189 C188 1.377 1_556 S
C189 C190 1.379 . S
C190 H174 0.931 . S
C190 C184 1.383 1_556 S
C190 C189 1.379 . S
H191 C185 0.959 . S
H192 C185 0.961 . S
H193 C185 0.960 . S
H194 C186 0.930 . S
H195 C187 0.929 . S
H196 C204 0.929 . S
H197 C206 0.930 . S
H198 C208 0.930 . S
H199 C211 0.929 . S
H200 C214 0.930 1_556 S
H201 C216 0.960 . S
H202 C216 0.960 . S
H203 C216 0.960 . S
C204 H196 0.929 . S
C204 C205 1.377 1_556 S
C204 C206 1.384 . S
C205 C204 1.377 1_554 S
C205 C211 1.390 . S
C206 H197 0.930 . S
C206 C204 1.384 . S
C206 C207 1.372 1_556 S
C207 C206 1.372 1_554 S
C207 C208 1.400 . S
C207 C212 1.490 . S
C208 H198 0.930 . S
C208 C207 1.400 . S
C208 C211 1.386 . S
H209 C225 0.930 . S
H210 C226 0.931 . S
C211 H199 0.929 . S
C211 C205 1.390 . S
C211 C208 1.386 . S
C212 C207 1.490 . S
C212 C214 1.395 . S
C212 C215 1.403 . S
H213 C219 0.930 . S
C214 H200 0.930 1_554 S
C214 C212 1.395 . S
C214 C217 1.403 . S
C215 C212 1.403 . S
C215 C216 1.524 . S
C215 C219 1.400 . S
C216 H201 0.960 . S
C216 H202 0.960 . S
C216 H203 0.960 . S
C216 C215 1.524 . S
C217 C214 1.403 . S
C217 C218 1.392 . S
C217 C221 1.495 1_554 S
C218 C217 1.392 . S
C218 C219 1.385 . S
C218 C220 1.478 . S
C219 H213 0.930 . S
C219 C215 1.400 . S
C219 C218 1.385 . S
C220 C218 1.478 . S
C220 C222 1.381 1_554 S
C220 C226 1.383 . S
C221 C217 1.495 1_556 S
C221 H227 0.959 . S
C221 H228 0.961 . S
C221 H229 0.960 . S
C222 C220 1.381 1_556 S
C222 C223 1.394 . S
C222 H230 0.930 . S
C223 C222 1.394 . S
C223 C224 1.383 1_556 S
C223 H231 0.929 . S
C224 C223 1.383 1_554 S
C224 C225 1.377 . S
C225 H209 0.930 . S
C225 C224 1.377 . S
C225 C226 1.379 . S
C226 H210 0.931 . S
C226 C220 1.383 . S
C226 C225 1.379 . S
H227 C221 0.959 . S
H228 C221 0.961 . S
H229 C221 0.960 . S
H230 C222 0.930 . S
H231 C223 0.929 . S
H232 C240 0.929 . S
H233 C242 0.930 . S
H234 C244 0.930 . S
H235 C247 0.929 . S
H236 C250 0.930 . S
H237 C252 0.960 . S
H238 C252 0.960 . S
H239 C252 0.960 . S
C240 H232 0.929 . S
C240 C241 1.377 . S
C240 C242 1.384 . S
C241 C240 1.377 . S
C241 C247 1.390 . S
C242 H233 0.930 . S
C242 C240 1.384 . S
C242 C243 1.372 . S
C243 C242 1.372 . S
C243 C244 1.400 . S
C243 C248 1.490 . S
C244 H234 0.930 . S
C244 C243 1.400 . S
C244 C247 1.386 . S
H245 C261 0.930 . S
H246 C262 0.931 . S
C247 H235 0.929 . S
C247 C241 1.390 . S
C247 C244 1.386 . S
C248 C243 1.490 . S
C248 C250 1.395 . S
C248 C251 1.403 . S
H249 C255 0.930 . S
C250 H236 0.930 . S
C250 C248 1.395 . S
C250 C253 1.403 . S
C251 C248 1.403 . S
C251 C252 1.524 . S
C251 C255 1.400 . S
C252 H237 0.960 . S
C252 H238 0.960 . S
C252 H239 0.960 . S
C252 C251 1.524 . S
C253 C250 1.403 . S
C253 C254 1.392 . S
C253 C257 1.495 . S
C254 C253 1.392 . S
C254 C255 1.385 . S
C254 C256 1.478 . S
C255 H249 0.930 . S
C255 C251 1.400 . S
C255 C254 1.385 . S
C256 C254 1.478 . S
C256 C258 1.381 . S
C256 C262 1.383 . S
C257 C253 1.495 . S
C257 H263 0.959 . S
C257 H264 0.961 . S
C257 H265 0.960 . S
C258 C256 1.381 . S
C258 C259 1.394 . S
C258 H266 0.930 . S
C259 C258 1.394 . S
C259 C260 1.383 . S
C259 H267 0.929 . S
C260 C259 1.383 . S
C260 C261 1.377 . S
C261 H245 0.930 . S
C261 C260 1.377 . S
C261 C262 1.379 . S
C262 H246 0.931 . S
C262 C256 1.383 . S
C262 C261 1.379 . S
H263 C257 0.959 . S
H264 C257 0.961 . S
H265 C257 0.960 . S
H266 C258 0.930 . S
H267 C259 0.929 . S
H268 C276 0.929 . S
H269 C278 0.930 . S
H270 C280 0.930 . S
H271 C283 0.929 . S
H272 C286 0.930 . S
H273 C288 0.960 . S
H274 C288 0.960 . S
H275 C288 0.960 . S
C276 H268 0.929 . S
C276 C277 1.377 . S
C276 C278 1.384 . S
C277 C276 1.377 . S
C277 C283 1.390 . S
C278 H269 0.930 . S
C278 C276 1.384 . S
C278 C279 1.372 . S
C279 C278 1.372 . S
C279 C280 1.400 . S
C279 C284 1.490 . S
C280 H270 0.930 . S
C280 C279 1.400 . S
C280 C283 1.386 . S
H281 C297 0.930 . S
H282 C298 0.931 . S
C283 H271 0.929 . S
C283 C277 1.390 . S
C283 C280 1.386 . S
C284 C279 1.490 . S
C284 C286 1.395 . S
C284 C287 1.403 . S
H285 C291 0.930 . S
C286 H272 0.930 . S
C286 C284 1.395 . S
C286 C289 1.403 . S
C287 C284 1.403 . S
C287 C288 1.524 . S
C287 C291 1.400 . S
C288 H273 0.960 . S
C288 H274 0.960 . S
C288 H275 0.960 . S
C288 C287 1.524 . S
C289 C286 1.403 . S
C289 C290 1.392 . S
C289 C293 1.495 . S
C290 C289 1.392 . S
C290 C291 1.385 . S
C290 C292 1.478 . S
C291 H285 0.930 . S
C291 C287 1.400 . S
C291 C290 1.385 . S
C292 C290 1.478 . S
C292 C294 1.381 . S
C292 C298 1.383 . S
C293 C289 1.495 . S
C293 H299 0.959 . S
C293 H300 0.961 . S
C293 H301 0.960 . S
C294 C292 1.381 . S
C294 C295 1.394 . S
C294 H302 0.930 . S
C295 C294 1.394 . S
C295 C296 1.383 . S
C295 H303 0.929 . S
C296 C295 1.383 . S
C296 C297 1.377 . S
C297 H281 0.930 . S
C297 C296 1.377 . S
C297 C298 1.379 . S
C298 H282 0.931 . S
C298 C292 1.383 . S
C298 C297 1.379 . S
H299 C293 0.959 . S
H300 C293 0.961 . S
H301 C293 0.960 . S
H302 C294 0.930 . S
H303 C295 0.929 . S
H304 C312 0.929 . S
H305 C314 0.930 . S
H306 C316 0.930 . S
H307 C319 0.929 . S
H308 C322 0.930 . S
H309 C324 0.960 . S
H310 C324 0.960 1_655 S
H311 C324 0.960 1_655 S
C312 H304 0.929 . S
C312 C313 1.377 . S
C312 C314 1.384 . S
C313 C312 1.377 . S
C313 C319 1.390 . S
C314 H305 0.930 . S
C314 C312 1.384 . S
C314 C315 1.372 . S
C315 C314 1.372 . S
C315 C316 1.400 . S
C315 C320 1.490 1_655 S
C316 H306 0.930 . S
C316 C315 1.400 . S
C316 C319 1.386 . S
H317 C333 0.930 1_556 S
H318 C334 0.918 1_556 S
C319 H307 0.929 . S
C319 C313 1.390 . S
C319 C316 1.386 . S
C320 C315 1.490 1_455 S
C320 C322 1.395 1_554 S
C320 C323 1.403 . S
H321 C327 0.930 . S
C322 H308 0.930 . S
C322 C320 1.395 1_556 S
C322 C325 1.403 . S
C323 C320 1.403 . S
C323 C324 1.524 . S
C323 C327 1.400 . S
C324 H309 0.960 . S
C324 H310 0.960 1_455 S
C324 H311 0.960 1_455 S
C324 C323 1.524 . S
C325 C322 1.403 . S
C325 C326 1.392 1_556 S
C325 C329 1.495 . S
C326 C325 1.392 1_554 S
C326 C327 1.385 . S
C326 C328 1.478 . S
C327 H321 0.930 . S
C327 C323 1.400 . S
C327 C326 1.385 . S
C328 C326 1.478 . S
C328 C330 1.381 . S
C328 C334 1.397 . S
C329 C325 1.495 . S
C329 H335 0.959 . S
C329 H336 0.961 . S
C329 H337 0.960 . S
C330 C328 1.381 . S
C330 C331 1.394 . S
C330 H338 0.930 . S
C331 C330 1.394 . S
C331 C332 1.383 . S
C331 H339 0.929 . S
C332 C331 1.383 . S
C332 C333 1.377 . S
C333 H317 0.930 1_554 S
C333 C332 1.377 . S
C333 C334 1.379 . S
C334 H318 0.918 1_554 S
C334 C328 1.397 . S
C334 C333 1.379 . S
H335 C329 0.959 . S
H336 C329 0.961 . S
H337 C329 0.960 . S
H338 C330 0.930 . S
H339 C331 0.929 . S
H340 C348 0.929 . S
H341 C350 0.930 . S
H342 C352 0.930 1_556 S
H343 C355 0.929 1_556 S
H344 C358 0.930 1_556 S
H345 C360 0.960 1_655 S
H346 C360 0.960 . S
H347 C360 0.960 . S
C348 H340 0.929 . S
C348 C349 1.377 . S
C348 C350 1.384 . S
C349 C348 1.377 . S
C349 C355 1.390 . S
C350 H341 0.930 . S
C350 C348 1.384 . S
C350 C351 1.372 . S
C351 C350 1.372 . S
C351 C352 1.400 . S
C351 C356 1.490 1_455 S
C352 H342 0.930 1_554 S
C352 C351 1.400 . S
C352 C355 1.386 . S
H353 C369 0.930 1_556 S
H354 C370 0.931 1_556 S
C355 H343 0.929 1_554 S
C355 C349 1.390 . S
C355 C352 1.386 . S
C356 C351 1.490 1_655 S
C356 C358 1.395 . S
C356 C359 1.403 . S
H357 C363 0.930 . S
C358 H344 0.930 1_554 S
C358 C356 1.395 . S
C358 C361 1.403 . S
C359 C356 1.403 . S
C359 C360 1.524 1_655 S
C359 C363 1.400 . S
C360 H345 0.960 1_455 S
C360 H346 0.960 . S
C360 H347 0.960 . S
C360 C359 1.524 1_455 S
C361 C358 1.403 . S
C361 C362 1.392 . S
C361 C365 1.495 1_554 S
C362 C361 1.392 . S
C362 C363 1.385 . S
C362 C364 1.478 . S
C363 H357 0.930 . S
C363 C359 1.400 . S
C363 C362 1.385 . S
C364 C362 1.478 . S
C364 C366 1.381 . S
C364 C370 1.383 . S
C365 C361 1.495 1_556 S
C365 H371 0.959 . S
C365 H372 0.961 . S
C365 H373 0.960 1_556 S
C366 C364 1.381 . S
C366 C367 1.394 . S
C366 H374 0.930 . S
C367 C366 1.394 . S
C367 C368 1.383 . S
C367 H375 0.929 . S
C368 C367 1.383 . S
C368 C369 1.377 . S
C369 H353 0.930 1_554 S
C369 C368 1.377 . S
C369 C370 1.379 . S
C370 H354 0.931 1_554 S
C370 C364 1.383 . S
C370 C369 1.379 . S
H371 C365 0.959 . S
H372 C365 0.961 . S
H373 C365 0.960 1_554 S
H374 C366 0.930 . S
H375 C367 0.929 . S
H376 C384 0.929 . S
H377 C386 0.930 . S
H378 C388 0.930 . S
H379 C391 0.929 . S
H380 C394 0.930 . S
H381 C396 0.960 . S
H382 C396 0.960 . S
H383 C396 0.960 . S
C384 H376 0.929 . S
C384 C385 1.377 . S
C384 C386 1.384 . S
C385 C384 1.377 . S
C385 C391 1.390 . S
C386 H377 0.930 . S
C386 C384 1.384 . S
C386 C387 1.372 . S
C387 C386 1.372 . S
C387 C388 1.400 . S
C387 C392 1.490 . S
C388 H378 0.930 . S
C388 C387 1.400 . S
C388 C391 1.386 . S
H389 C405 0.930 . S
H390 C406 0.931 . S
C391 H379 0.929 . S
C391 C385 1.390 . S
C391 C388 1.386 . S
C392 C387 1.490 . S
C392 C394 1.395 . S
C392 C395 1.403 . S
H393 C399 0.930 1_655 S
C394 H380 0.930 . S
C394 C392 1.395 . S
C394 C397 1.403 . S
C395 C392 1.403 . S
C395 C396 1.524 . S
C395 C399 1.400 . S
C396 H381 0.960 . S
C396 H382 0.960 . S
C396 H383 0.960 . S
C396 C395 1.524 . S
C397 C394 1.403 . S
C397 C398 1.402 . S
C397 C401 1.495 . S
C398 C397 1.402 . S
C398 C399 1.391 . S
C398 C400 1.462 1_455 S
C399 H393 0.930 1_455 S
C399 C395 1.400 . S
C399 C398 1.391 . S
C400 C398 1.462 1_655 S
C400 C402 1.381 . S
C400 C406 1.383 . S
C401 C397 1.495 . S
C401 H407 0.959 . S
C401 H408 0.961 1_455 S
C401 H409 0.960 1_455 S
C402 C400 1.381 . S
C402 C403 1.394 . S
C402 H410 0.930 . S
C403 C402 1.394 . S
C403 C404 1.383 . S
C403 H411 0.929 . S
C404 C403 1.383 . S
C404 C405 1.377 . S
C405 H389 0.930 . S
C405 C404 1.377 . S
C405 C406 1.379 . S
C406 H390 0.931 . S
C406 C400 1.383 . S
C406 C405 1.379 . S
H407 C401 0.959 . S
H408 C401 0.961 1_655 S
H409 C401 0.960 1_655 S
H410 C402 0.930 . S
H411 C403 0.929 . S
H412 C420 0.929 . S
H413 C422 0.930 . S
H414 C424 0.930 . S
H415 C427 0.929 . S
H416 C430 0.930 . S
H417 C432 0.960 . S
H418 C432 0.960 . S
H419 C432 0.960 . S
C420 H412 0.929 . S
C420 C421 1.377 . S
C420 C422 1.384 . S
C421 C420 1.377 . S
C421 C427 1.390 . S
C422 H413 0.930 . S
C422 C420 1.384 . S
C422 C423 1.372 . S
C423 C422 1.372 . S
C423 C424 1.400 . S
C423 C428 1.490 . S
C424 H414 0.930 . S
C424 C423 1.400 . S
C424 C427 1.386 . S
H425 C441 0.930 . S
H426 C442 0.931 . S
C427 H415 0.929 . S
C427 C421 1.390 . S
C427 C424 1.386 . S
C428 C423 1.490 . S
C428 C430 1.395 . S
C428 C431 1.403 . S
H429 C435 0.930 . S
C430 H416 0.930 . S
C430 C428 1.395 . S
C430 C433 1.403 . S
C431 C428 1.403 . S
C431 C432 1.524 . S
C431 C435 1.400 . S
C432 H417 0.960 . S
C432 H418 0.960 . S
C432 H419 0.960 . S
C432 C431 1.524 . S
C433 C430 1.403 . S
C433 C434 1.392 1_655 S
C433 C437 1.495 1_655 S
C434 C433 1.392 1_455 S
C434 C435 1.385 1_455 S
C434 C436 1.478 . S
C435 H429 0.930 . S
C435 C431 1.400 . S
C435 C434 1.385 1_655 S
C436 C434 1.478 . S
C436 C438 1.381 . S
C436 C442 1.383 . S
C437 C433 1.495 1_455 S
C437 H443 0.959 1_455 S
C437 H444 0.961 . S
C437 H445 0.960 . S
C438 C436 1.381 . S
C438 C439 1.394 . S
C438 H446 0.930 . S
C439 C438 1.394 . S
C439 C440 1.383 . S
C439 H447 0.929 . S
C440 C439 1.383 . S
C440 C441 1.377 . S
C441 H425 0.930 . S
C441 C440 1.377 . S
C441 C442 1.379 . S
C442 H426 0.931 . S
C442 C436 1.383 . S
C442 C441 1.379 . S
H443 C437 0.959 1_655 S
H444 C437 0.961 . S
H445 C437 0.960 . S
H446 C438 0.930 . S
H447 C439 0.929 . S
H448 C456 0.929 . S
H449 C458 0.930 . S
H450 C460 0.930 . S
H451 C463 0.929 . S
H452 C466 0.930 . S
H453 C468 0.960 . S
H454 C468 0.960 . S
H455 C468 0.960 . S
C456 H448 0.929 . S
C456 C457 1.387 . S
C456 C458 1.384 . S
C457 C456 1.387 . S
C457 C463 1.380 1_655 S
C458 H449 0.930 . S
C458 C456 1.384 . S
C458 C459 1.372 . S
C459 C458 1.372 . S
C459 C460 1.400 1_655 S
C459 C464 1.490 . S
C460 H450 0.930 . S
C460 C459 1.400 1_455 S
C460 C463 1.386 . S
H461 C477 0.930 . S
H462 C478 0.931 . S
C463 H451 0.929 . S
C463 C457 1.380 1_455 S
C463 C460 1.386 . S
C464 C459 1.490 . S
C464 C466 1.395 1_554 S
C464 C467 1.403 1_655 S
H465 C471 0.930 . S
C466 H452 0.930 . S
C466 C464 1.395 1_556 S
C466 C469 1.403 . S
C467 C464 1.403 1_455 S
C467 C468 1.524 . S
C467 C471 1.400 . S
C468 H453 0.960 . S
C468 H454 0.960 . S
C468 H455 0.960 . S
C468 C467 1.524 . S
C469 C466 1.403 . S
C469 C470 1.392 1_556 S
C469 C473 1.495 . S
C470 C469 1.392 1_554 S
C470 C471 1.385 1_655 S
C470 C472 1.478 . S
C471 H465 0.930 . S
C471 C467 1.400 . S
C471 C470 1.385 1_455 S
C472 C470 1.478 . S
C472 C474 1.381 . S
C472 C478 1.383 1_655 S
C473 C469 1.495 . S
C473 H479 0.959 . S
C473 H480 0.961 . S
C473 H481 0.960 . S
C474 C472 1.381 . S
C474 C475 1.394 . S
C474 H482 0.930 . S
C475 C474 1.394 . S
C475 C476 1.383 . S
C475 H483 0.929 . S
C476 C475 1.383 . S
C476 C477 1.377 1_655 S
C477 H461 0.930 . S
C477 C476 1.377 1_455 S
C477 C478 1.379 . S
C478 H462 0.931 . S
C478 C472 1.383 1_455 S
C478 C477 1.379 . S
H479 C473 0.959 . S
H480 C473 0.961 . S
H481 C473 0.960 . S
H482 C474 0.930 . S
H483 C475 0.929 . S
H484 C492 0.929 . S
H485 C494 0.930 . S
H486 C496 0.930 . S
H487 C499 0.929 . S
H488 C502 0.930 . S
H489 C504 0.960 . S
H490 C504 0.960 . S
H491 C504 0.960 . S
C492 H484 0.929 . S
C492 C493 1.387 . S
C492 C494 1.384 . S
C493 C492 1.387 . S
C493 C499 1.380 1_455 S
C494 H485 0.930 . S
C494 C492 1.384 . S
C494 C495 1.372 . S
C495 C494 1.372 . S
C495 C496 1.400 1_455 S
C495 C500 1.490 . S
C496 H486 0.930 . S
C496 C495 1.400 1_655 S
C496 C499 1.386 . S
H497 C513 0.930 . S
H498 C514 0.931 . S
C499 H487 0.929 . S
C499 C493 1.380 1_655 S
C499 C496 1.386 . S
C500 C495 1.490 . S
C500 C502 1.395 . S
C500 C503 1.403 1_455 S
H501 C507 0.930 . S
C502 H488 0.930 . S
C502 C500 1.395 . S
C502 C505 1.403 . S
C503 C500 1.403 1_655 S
C503 C504 1.524 . S
C503 C507 1.400 . S
C504 H489 0.960 . S
C504 H490 0.960 . S
C504 H491 0.960 . S
C504 C503 1.524 . S
C505 C502 1.403 . S
C505 C506 1.392 . S
C505 C509 1.495 . S
C506 C505 1.392 . S
C506 C507 1.385 1_455 S
C506 C508 1.478 . S
C507 H501 0.930 . S
C507 C503 1.400 . S
C507 C506 1.385 1_655 S
C508 C506 1.478 . S
C508 C510 1.381 . S
C508 C514 1.383 1_455 S
C509 C505 1.495 . S
C509 H515 0.959 . S
C509 H516 0.961 . S
C509 H517 0.960 . S
C510 C508 1.381 . S
C510 C511 1.394 . S
C510 H518 0.930 . S
C511 C510 1.394 . S
C511 C512 1.383 . S
C511 H519 0.929 . S
C512 C511 1.383 . S
C512 C513 1.377 1_455 S
C513 H497 0.930 . S
C513 C512 1.377 1_655 S
C513 C514 1.379 . S
C514 H498 0.931 . S
C514 C508 1.383 1_655 S
C514 C513 1.379 . S
H515 C509 0.959 . S
H516 C509 0.961 . S
H517 C509 0.960 . S
H518 C510 0.930 . S
H519 C511 0.929 . S
H520 C528 0.929 . S
H521 C530 0.930 . S
H522 C532 0.930 . S
H523 C535 0.929 . S
H524 C538 0.930 . S
H525 C540 0.960 1_545 S
H526 C540 0.960 . S
H527 C540 0.960 . S
C528 H520 0.929 . S
C528 C529 1.377 . S
C528 C530 1.384 . S
C529 C528 1.377 . S
C529 C535 1.390 . S
C530 H521 0.930 . S
C530 C528 1.384 . S
C530 C531 1.372 . S
C531 C530 1.372 . S
C531 C532 1.400 . S
C531 C536 1.490 . S
C532 H522 0.930 . S
C532 C531 1.400 . S
C532 C535 1.386 . S
H533 C549 0.930 . S
H534 C550 0.927 1_556 S
C535 H523 0.929 . S
C535 C529 1.390 . S
C535 C532 1.386 . S
C536 C531 1.490 . S
C536 C538 1.395 1_554 S
C536 C539 1.403 . S
H537 C543 0.930 . S
C538 H524 0.930 . S
C538 C536 1.395 1_556 S
C538 C541 1.403 1_565 S
C539 C536 1.403 . S
C539 C540 1.524 . S
C539 C543 1.400 1_565 S
C540 H525 0.960 1_565 S
C540 H526 0.960 . S
C540 H527 0.960 . S
C540 C539 1.524 . S
C541 C538 1.403 1_545 S
C541 C542 1.392 1_556 S
C541 C545 1.495 . S
C542 C541 1.392 1_554 S
C542 C543 1.385 . S
C542 C544 1.478 . S
C543 H537 0.930 . S
C543 C539 1.400 1_545 S
C543 C542 1.385 . S
C544 C542 1.478 . S
C544 C546 1.381 . S
C544 C550 1.383 . S
C545 C541 1.495 . S
C545 H551 0.959 1_545 S
C545 H552 0.961 . S
C545 H553 0.960 . S
C546 C544 1.381 . S
C546 C547 1.394 . S
C546 H554 0.930 . S
C547 C546 1.394 . S
C547 C548 1.383 . S
C547 H555 0.929 . S
C548 C547 1.383 . S
C548 C549 1.377 . S
C549 H533 0.930 . S
C549 C548 1.377 . S
C549 C550 1.379 . S
C550 H534 0.927 1_554 S
C550 C544 1.383 . S
C550 C549 1.379 . S
H551 C545 0.959 1_565 S
H552 C545 0.961 . S
H553 C545 0.960 . S
H554 C546 0.930 . S
H555 C547 0.929 . S
H556 C564 0.929 . S
H557 C566 0.930 . S
H558 C568 0.930 . S
H559 C571 0.929 . S
H560 C574 0.930 . S
H561 C576 0.960 1_565 S
H562 C576 0.960 . S
H563 C576 0.960 . S
C564 H556 0.929 . S
C564 C565 1.377 . S
C564 C566 1.384 . S
C565 C564 1.377 . S
C565 C571 1.390 . S
C566 H557 0.930 . S
C566 C564 1.384 . S
C566 C567 1.372 . S
C567 C566 1.372 . S
C567 C568 1.400 . S
C567 C572 1.490 . S
C568 H558 0.930 . S
C568 C567 1.400 . S
C568 C571 1.386 . S
H569 C585 0.930 . S
H570 C586 0.931 . S
C571 H559 0.929 . S
C571 C565 1.390 . S
C571 C568 1.386 . S
C572 C567 1.490 . S
C572 C574 1.395 . S
C572 C575 1.403 . S
H573 C579 0.930 . S
C574 H560 0.930 . S
C574 C572 1.395 . S
C574 C577 1.403 1_545 S
C575 C572 1.403 . S
C575 C576 1.524 . S
C575 C579 1.400 1_545 S
C576 H561 0.960 1_545 S
C576 H562 0.960 . S
C576 H563 0.960 . S
C576 C575 1.524 . S
C577 C574 1.403 1_565 S
C577 C578 1.392 . S
C577 C581 1.495 . S
C578 C577 1.392 . S
C578 C579 1.385 . S
C578 C580 1.478 . S
C579 H573 0.930 . S
C579 C575 1.400 1_565 S
C579 C578 1.385 . S
C580 C578 1.478 . S
C580 C582 1.381 . S
C580 C586 1.383 . S
C581 C577 1.495 . S
C581 H587 0.959 1_565 S
C581 H588 0.961 . S
C581 H589 0.960 . S
C582 C580 1.381 . S
C582 C583 1.394 . S
C582 H590 0.930 . S
C583 C582 1.394 . S
C583 C584 1.383 . S
C583 H591 0.929 . S
C584 C583 1.383 . S
C584 C585 1.377 . S
C585 H569 0.930 . S
C585 C584 1.377 . S
C585 C586 1.379 . S
C586 H570 0.931 . S
C586 C580 1.383 . S
C586 C585 1.379 . S
H587 C581 0.959 1_545 S
H588 C581 0.961 . S
H589 C581 0.960 . S
H590 C582 0.930 . S
H591 C583 0.929 . S
H592 C600 0.929 . S
H593 C602 0.930 . S
H594 C604 0.930 . S
H595 C607 0.929 . S
H596 C610 0.930 . S
H597 C612 0.960 . S
H598 C612 0.960 . S
H599 C612 0.960 . S
C600 H592 0.929 . S
C600 C601 1.377 . S
C600 C602 1.384 . S
C601 C600 1.377 . S
C601 C607 1.390 . S
C602 H593 0.930 . S
C602 C600 1.384 . S
C602 C603 1.372 . S
C603 C602 1.372 . S
C603 C604 1.400 . S
C603 C608 1.490 . S
C604 H594 0.930 . S
C604 C603 1.400 . S
C604 C607 1.386 . S
H605 C621 0.930 1_556 S
H606 C622 0.931 1_556 S
C607 H595 0.929 . S
C607 C601 1.390 . S
C607 C604 1.386 . S
C608 C603 1.490 . S
C608 C610 1.395 1_554 S
C608 C611 1.403 . S
H609 C615 0.930 . S
C610 H596 0.930 . S
C610 C608 1.395 1_556 S
C610 C613 1.403 . S
C611 C608 1.403 . S
C611 C612 1.524 . S
C611 C615 1.400 . S
C612 H597 0.960 . S
C612 H598 0.960 . S
C612 H599 0.960 . S
C612 C611 1.524 . S
C613 C610 1.403 . S
C613 C614 1.392 1_556 S
C613 C617 1.495 . S
C614 C613 1.392 1_554 S
C614 C615 1.385 . S
C614 C616 1.478 . S
C615 H609 0.930 . S
C615 C611 1.400 . S
C615 C614 1.385 . S
C616 C614 1.478 . S
C616 C618 1.381 . S
C616 C622 1.383 . S
C617 C613 1.495 . S
C617 H623 0.959 . S
C617 H624 0.961 . S
C617 H625 0.960 . S
C618 C616 1.381 . S
C618 C619 1.394 . S
C618 H626 0.930 . S
C619 C618 1.394 . S
C619 C620 1.383 . S
C619 H627 0.929 . S
C620 C619 1.383 . S
C620 C621 1.377 . S
C621 H605 0.930 1_554 S
C621 C620 1.377 . S
C621 C622 1.379 . S
C622 H606 0.931 1_554 S
C622 C616 1.383 . S
C622 C621 1.379 . S
H623 C617 0.959 . S
H624 C617 0.961 . S
H625 C617 0.960 . S
H626 C618 0.930 . S
H627 C619 0.929 . S
H628 C636 0.929 . S
H629 C638 0.930 . S
H630 C640 0.930 . S
H631 C643 0.929 . S
H632 C646 0.930 . S
H633 C648 0.960 . S
H634 C648 0.960 1_554 S
H635 C648 0.960 . S
C636 H628 0.929 . S
C636 C637 1.377 . S
C636 C638 1.384 . S
C637 C636 1.377 . S
C637 C643 1.390 1_554 S
C638 H629 0.930 . S
C638 C636 1.384 . S
C638 C639 1.372 . S
C639 C638 1.372 . S
C639 C640 1.400 1_554 S
C639 C644 1.490 . S
C640 H630 0.930 . S
C640 C639 1.400 1_556 S
C640 C643 1.386 . S
H641 C657 0.930 . S
H642 C658 0.931 . S
C643 H631 0.929 . S
C643 C637 1.390 1_556 S
C643 C640 1.386 . S
C644 C639 1.490 . S
C644 C646 1.395 . S
C644 C647 1.403 . S
H645 C651 0.930 . S
C646 H632 0.930 . S
C646 C644 1.395 . S
C646 C649 1.403 . S
C647 C644 1.403 . S
C647 C648 1.524 1_554 S
C647 C651 1.400 . S
C648 H633 0.960 . S
C648 H634 0.960 1_556 S
C648 H635 0.960 . S
C648 C647 1.524 1_556 S
C649 C646 1.403 . S
C649 C650 1.392 . S
C649 C653 1.495 . S
C650 C649 1.392 . S
C650 C651 1.385 . S
C650 C652 1.478 . S
C651 H645 0.930 . S
C651 C647 1.400 . S
C651 C650 1.385 . S
C652 C650 1.478 . S
C652 C654 1.381 . S
C652 C658 1.383 1_554 S
C653 C649 1.495 . S
C653 H659 0.959 . S
C653 H660 0.961 . S
C653 H661 0.960 . S
C654 C652 1.381 . S
C654 C655 1.394 . S
C654 H662 0.930 . S
C655 C654 1.394 . S
C655 C656 1.383 . S
C655 H663 0.929 . S
C656 C655 1.383 . S
C656 C657 1.377 1_554 S
C657 H641 0.930 . S
C657 C656 1.377 1_556 S
C657 C658 1.379 . S
C658 H642 0.931 . S
C658 C652 1.383 1_556 S
C658 C657 1.379 . S
H659 C653 0.959 . S
H660 C653 0.961 . S
H661 C653 0.960 . S
H662 C654 0.930 . S
H663 C655 0.929 . S
H664 C672 0.929 . S
H665 C674 0.930 . S
H666 C676 0.930 . S
H667 C679 0.929 . S
H668 C682 0.930 . S
H669 C684 0.960 . S
H670 C684 0.960 . S
H671 C684 0.960 . S
C672 H664 0.929 . S
C672 C673 1.377 . S
C672 C674 1.384 . S
C673 C672 1.377 . S
C673 C679 1.390 . S
C674 H665 0.930 . S
C674 C672 1.384 . S
C674 C675 1.372 . S
C675 C674 1.372 . S
C675 C676 1.400 . S
C675 C680 1.490 . S
C676 H666 0.930 . S
C676 C675 1.400 . S
C676 C679 1.386 . S
H677 C693 0.930 . S
H678 C694 0.931 . S
C679 H667 0.929 . S
C679 C673 1.390 . S
C679 C676 1.386 . S
C680 C675 1.490 . S
C680 C682 1.395 . S
C680 C683 1.403 . S
H681 C687 0.930 . S
C682 H668 0.930 . S
C682 C680 1.395 . S
C682 C685 1.403 . S
C683 C680 1.403 . S
C683 C684 1.524 . S
C683 C687 1.400 . S
C684 H669 0.960 . S
C684 H670 0.960 . S
C684 H671 0.960 . S
C684 C683 1.524 . S
C685 C682 1.403 . S
C685 C686 1.392 . S
C685 C689 1.495 . S
C686 C685 1.392 . S
C686 C687 1.385 . S
C686 C688 1.478 . S
C687 H681 0.930 . S
C687 C683 1.400 . S
C687 C686 1.385 . S
C688 C686 1.478 . S
C688 C690 1.381 . S
C688 C694 1.383 . S
C689 C685 1.495 . S
C689 H695 0.959 . S
C689 H696 0.961 . S
C689 H697 0.960 . S
C690 C688 1.381 . S
C690 C691 1.394 . S
C690 H698 0.930 . S
C691 C690 1.394 . S
C691 C692 1.383 . S
C691 H699 0.929 . S
C692 C691 1.383 . S
C692 C693 1.377 . S
C693 H677 0.930 . S
C693 C692 1.377 . S
C693 C694 1.379 . S
C694 H678 0.931 . S
C694 C688 1.383 . S
C694 C693 1.379 . S
H695 C689 0.959 . S
H696 C689 0.961 . S
H697 C689 0.960 . S
H698 C690 0.930 . S
H699 C691 0.929 . S
H700 C708 0.929 . S
H701 C710 0.930 . S
H702 C712 0.930 . S
H703 C715 0.929 . S
H704 C718 0.930 . S
H705 C720 0.960 . S
H706 C720 0.960 . S
H707 C720 0.960 . S
C708 H700 0.929 . S
C708 C709 1.377 . S
C708 C710 1.384 . S
C709 C708 1.377 . S
C709 C715 1.390 . S
C710 H701 0.930 . S
C710 C708 1.384 . S
C710 C711 1.372 . S
C711 C710 1.372 . S
C711 C712 1.400 . S
C711 C716 1.490 . S
C712 H702 0.930 . S
C712 C711 1.400 . S
C712 C715 1.386 . S
H713 C729 0.930 . S
H714 C730 0.931 . S
C715 H703 0.929 . S
C715 C709 1.390 . S
C715 C712 1.386 . S
C716 C711 1.490 . S
C716 C718 1.395 . S
C716 C719 1.403 . S
H717 C723 0.930 . S
C718 H704 0.930 . S
C718 C716 1.395 . S
C718 C721 1.403 . S
C719 C716 1.403 . S
C719 C720 1.524 . S
C719 C723 1.400 . S
C720 H705 0.960 . S
C720 H706 0.960 . S
C720 H707 0.960 . S
C720 C719 1.524 . S
C721 C718 1.403 . S
C721 C722 1.392 . S
C721 C725 1.495 . S
C722 C721 1.392 . S
C722 C723 1.385 . S
C722 C724 1.478 . S
C723 H717 0.930 . S
C723 C719 1.400 . S
C723 C722 1.385 . S
C724 C722 1.478 . S
C724 C726 1.381 . S
C724 C730 1.383 . S
C725 C721 1.495 . S
C725 H731 0.959 . S
C725 H732 0.961 . S
C725 H733 0.960 . S
C726 C724 1.381 . S
C726 C727 1.394 . S
C726 H734 0.930 . S
C727 C726 1.394 . S
C727 C728 1.383 . S
C727 H735 0.929 . S
C728 C727 1.383 . S
C728 C729 1.377 . S
C729 H713 0.930 . S
C729 C728 1.377 . S
C729 C730 1.379 . S
C730 H714 0.931 . S
C730 C724 1.383 . S
C730 C729 1.379 . S
H731 C725 0.959 . S
H732 C725 0.961 . S
H733 C725 0.960 . S
H734 C726 0.930 . S
H735 C727 0.929 . S
H736 C744 0.929 . S
H737 C746 0.930 . S
H738 C748 0.930 . S
H739 C751 0.929 1_655 S
H740 C754 0.930 . S
H741 C756 0.960 . S
H742 C756 0.960 . S
H743 C756 0.960 . S
C744 H736 0.929 . S
C744 C745 1.377 . S
C744 C746 1.384 . S
C745 C744 1.377 . S
C745 C751 1.390 . S
C746 H737 0.930 . S
C746 C744 1.384 . S
C746 C747 1.372 . S
C747 C746 1.372 . S
C747 C748 1.400 1_455 S
C747 C752 1.490 . S
C748 H738 0.930 . S
C748 C747 1.400 1_655 S
C748 C751 1.386 1_655 S
H749 C765 0.930 . S
H750 C766 0.931 . S
C751 H739 0.929 1_455 S
C751 C745 1.390 . S
C751 C748 1.386 1_455 S
C752 C747 1.490 . S
C752 C754 1.395 . S
C752 C755 1.403 1_455 S
H753 C759 0.930 . S
C754 H740 0.930 . S
C754 C752 1.395 . S
C754 C757 1.403 . S
C755 C752 1.403 1_655 S
C755 C756 1.524 . S
C755 C759 1.400 . S
C756 H741 0.960 . S
C756 H742 0.960 . S
C756 H743 0.960 . S
C756 C755 1.524 . S
C757 C754 1.403 . S
C757 C758 1.392 . S
C757 C761 1.495 . S
C758 C757 1.392 . S
C758 C759 1.385 1_455 S
C758 C760 1.478 1_455 S
C759 H753 0.930 . S
C759 C755 1.400 . S
C759 C758 1.385 1_655 S
C760 C758 1.478 1_655 S
C760 C762 1.381 1_655 S
C760 C766 1.383 . S
C761 C757 1.495 . S
C761 H767 0.959 . S
C761 H768 0.961 . S
C761 H769 0.960 . S
C762 C760 1.381 1_455 S
C762 C763 1.394 . S
C762 H770 0.930 . S
C763 C762 1.394 . S
C763 C764 1.383 1_455 S
C763 H771 0.929 . S
C764 C763 1.383 1_655 S
C764 C765 1.377 . S
C765 H749 0.930 . S
C765 C764 1.377 . S
C765 C766 1.379 . S
C766 H750 0.931 . S
C766 C760 1.383 . S
C766 C765 1.379 . S
H767 C761 0.959 . S
H768 C761 0.961 . S
H769 C761 0.960 . S
H770 C762 0.930 . S
H771 C763 0.929 . S
H772 C780 0.929 . S
H773 C782 0.930 . S
H774 C784 0.930 . S
H775 C787 0.929 . S
H776 C790 0.930 . S
H777 C792 0.960 . S
H778 C792 0.960 . S
H779 C792 0.960 1_455 S
C780 H772 0.929 . S
C780 C781 1.377 . S
C780 C782 1.384 . S
C781 C780 1.377 . S
C781 C787 1.390 1_655 S
C782 H773 0.930 . S
C782 C780 1.384 . S
C782 C783 1.372 . S
C783 C782 1.372 . S
C783 C784 1.400 1_655 S
C783 C788 1.490 . S
C784 H774 0.930 . S
C784 C783 1.400 1_455 S
C784 C787 1.386 . S
H785 C801 0.930 . S
H786 C802 0.931 . S
C787 H775 0.929 . S
C787 C781 1.390 1_455 S
C787 C784 1.386 . S
C788 C783 1.490 . S
C788 C790 1.395 . S
C788 C791 1.403 . S
H789 C795 0.930 . S
C790 H776 0.930 . S
C790 C788 1.395 . S
C790 C793 1.403 1_655 S
C791 C788 1.403 . S
C791 C792 1.524 . S
C791 C795 1.400 1_655 S
C792 H777 0.960 . S
C792 H778 0.960 . S
C792 H779 0.960 1_655 S
C792 C791 1.524 . S
C793 C790 1.403 1_455 S
C793 C794 1.392 . S
C793 C797 1.495 . S
C794 C793 1.392 . S
C794 C795 1.385 . S
C794 C796 1.478 . S
C795 H789 0.930 . S
C795 C791 1.400 1_455 S
C795 C794 1.385 . S
C796 C794 1.478 . S
C796 C798 1.381 1_455 S
C796 C802 1.383 . S
C797 C793 1.495 . S
C797 H803 0.959 . S
C797 H804 0.961 . S
C797 H805 0.960 1_455 S
C798 C796 1.381 1_655 S
C798 C799 1.394 1_655 S
C798 H806 0.930 . S
C799 C798 1.394 1_455 S
C799 C800 1.383 . S
C799 H807 0.929 1_455 S
C800 C799 1.383 . S
C800 C801 1.377 . S
C801 H785 0.930 . S
C801 C800 1.377 . S
C801 C802 1.379 . S
C802 H786 0.931 . S
C802 C796 1.383 . S
C802 C801 1.379 . S
H803 C797 0.959 . S
H804 C797 0.961 . S
H805 C797 0.960 1_655 S
H806 C798 0.930 . S
H807 C799 0.929 1_655 S
H808 C816 0.922 1_455 S
H809 C818 0.930 . S
H810 C820 0.930 . S
H811 C823 0.929 . S
H812 C826 0.930 . S
H813 C828 0.960 . S
H814 C828 0.960 . S
H815 C828 0.960 . S
C816 H808 0.922 1_655 S
C816 C817 1.387 . S
C816 C818 1.381 1_655 S
C817 C816 1.387 . S
C817 C823 1.390 . S
C818 H809 0.930 . S
C818 C816 1.381 1_455 S
C818 C819 1.372 1_455 S
C819 C818 1.372 1_655 S
C819 C820 1.400 . S
C819 C824 1.490 . S
C820 H810 0.930 . S
C820 C819 1.400 . S
C820 C823 1.386 . S
H821 C837 0.930 . S
H822 C838 0.931 . S
C823 H811 0.929 . S
C823 C817 1.390 . S
C823 C820 1.386 . S
C824 C819 1.490 . S
C824 C826 1.395 1_655 S
C824 C827 1.403 . S
H825 C831 0.930 . S
C826 H812 0.930 . S
C826 C824 1.395 1_455 S
C826 C829 1.403 . S
C827 C824 1.403 . S
C827 C828 1.524 . S
C827 C831 1.400 . S
C828 H813 0.960 . S
C828 H814 0.960 . S
C828 H815 0.960 . S
C828 C827 1.524 . S
C829 C826 1.403 . S
C829 C830 1.392 . S
C829 C833 1.495 . S
C830 C829 1.392 . S
C830 C831 1.385 1_455 S
C830 C832 1.478 . S
C831 H825 0.930 . S
C831 C827 1.400 . S
C831 C830 1.385 1_655 S
C832 C830 1.478 . S
C832 C834 1.381 . S
C832 C838 1.383 1_455 S
C833 C829 1.495 . S
C833 H839 0.959 . S
C833 H840 0.961 . S
C833 H841 0.960 . S
C834 C832 1.381 . S
C834 C835 1.394 . S
C834 H842 0.930 . S
C835 C834 1.394 . S
C835 C836 1.383 . S
C835 H843 0.929 . S
C836 C835 1.383 . S
C836 C837 1.377 1_455 S
C837 H821 0.930 . S
C837 C836 1.377 1_655 S
C837 C838 1.379 . S
C838 H822 0.931 . S
C838 C832 1.383 1_655 S
C838 C837 1.379 . S
H839 C833 0.959 . S
H840 C833 0.961 . S
H841 C833 0.960 . S
H842 C834 0.930 . S
H843 C835 0.929 . S
H844 C852 0.929 1_455 S
H845 C854 0.930 . S
H846 C856 0.930 . S
H847 C859 0.929 . S
H848 C862 0.930 . S
H849 C864 0.960 . S
H850 C864 0.960 1_455 S
H851 C864 0.960 . S
C852 H844 0.929 1_655 S
C852 C853 1.377 . S
C852 C854 1.384 1_655 S
C853 C852 1.377 . S
C853 C859 1.390 . S
C854 H845 0.930 . S
C854 C852 1.384 1_455 S
C854 C855 1.372 1_455 S
C855 C854 1.372 1_655 S
C855 C856 1.400 . S
C855 C860 1.490 . S
C856 H846 0.930 . S
C856 C855 1.400 . S
C856 C859 1.386 . S
H857 C873 0.930 . S
H858 C874 0.931 . S
C859 H847 0.929 . S
C859 C853 1.390 . S
C859 C856 1.386 . S
C860 C855 1.490 . S
C860 C862 1.395 . S
C860 C863 1.403 . S
H861 C867 0.930 . S
C862 H848 0.930 . S
C862 C860 1.395 . S
C862 C865 1.403 1_655 S
C863 C860 1.403 . S
C863 C864 1.524 . S
C863 C867 1.400 1_655 S
C864 H849 0.960 . S
C864 H850 0.960 1_655 S
C864 H851 0.960 . S
C864 C863 1.524 . S
C865 C862 1.403 1_455 S
C865 C866 1.392 . S
C865 C869 1.495 . S
C866 C865 1.392 . S
C866 C867 1.385 . S
C866 C868 1.478 . S
C867 H861 0.930 . S
C867 C863 1.400 1_455 S
C867 C866 1.385 . S
C868 C866 1.478 . S
C868 C870 1.381 . S
C868 C874 1.383 1_455 S
C869 C865 1.495 . S
C869 H875 0.959 . S
C869 H876 0.961 1_455 S
C869 H877 0.960 . S
C870 C868 1.381 . S
C870 C871 1.394 . S
C870 H878 0.930 . S
C871 C870 1.394 . S
C871 C872 1.383 . S
C871 H879 0.929 . S
C872 C871 1.383 . S
C872 C873 1.377 1_455 S
C873 H857 0.930 . S
C873 C872 1.377 1_655 S
C873 C874 1.379 . S
C874 H858 0.931 . S
C874 C868 1.383 1_655 S
C874 C873 1.379 . S
H875 C869 0.959 . S
H876 C869 0.961 1_655 S
H877 C869 0.960 . S
H878 C870 0.930 . S
H879 C871 0.929 . S
H880 C888 0.929 . S
H881 C890 0.930 . S
H882 C892 0.930 . S
H883 C895 0.929 . S
H884 C898 0.930 . S
H885 C900 0.960 . S
H886 C900 0.960 . S
H887 C900 0.960 . S
C888 H880 0.929 . S
C888 C889 1.377 . S
C888 C890 1.384 . S
C889 C888 1.377 . S
C889 C895 1.390 . S
C890 H881 0.930 . S
C890 C888 1.384 . S
C890 C891 1.372 . S
C891 C890 1.372 . S
C891 C892 1.400 . S
C891 C896 1.490 . S
C892 H882 0.930 . S
C892 C891 1.400 . S
C892 C895 1.386 . S
H893 C909 0.930 . S
H894 C910 0.931 . S
C895 H883 0.929 . S
C895 C889 1.390 . S
C895 C892 1.386 . S
C896 C891 1.490 . S
C896 C898 1.395 . S
C896 C899 1.403 . S
H897 C903 0.930 . S
C898 H884 0.930 . S
C898 C896 1.395 . S
C898 C901 1.403 . S
C899 C896 1.403 . S
C899 C900 1.524 . S
C899 C903 1.400 . S
C900 H885 0.960 . S
C900 H886 0.960 . S
C900 H887 0.960 . S
C900 C899 1.524 . S
C901 C898 1.403 . S
C901 C902 1.392 . S
C901 C905 1.495 . S
C902 C901 1.392 . S
C902 C903 1.385 . S
C902 C904 1.478 . S
C903 H897 0.930 . S
C903 C899 1.400 . S
C903 C902 1.385 . S
C904 C902 1.478 . S
C904 C906 1.381 . S
C904 C910 1.383 . S
C905 C901 1.495 . S
C905 H911 0.959 . S
C905 H912 0.961 . S
C905 H913 0.960 . S
C906 C904 1.381 . S
C906 C907 1.394 . S
C906 H914 0.930 . S
C907 C906 1.394 . S
C907 C908 1.383 . S
C907 H915 0.929 . S
C908 C907 1.383 . S
C908 C909 1.377 . S
C909 H893 0.930 . S
C909 C908 1.377 . S
C909 C910 1.379 . S
C910 H894 0.931 . S
C910 C904 1.383 . S
C910 C909 1.379 . S
H911 C905 0.959 . S
H912 C905 0.961 . S
H913 C905 0.960 . S
H914 C906 0.930 . S
H915 C907 0.929 . S
H916 C924 0.929 . S
H917 C926 0.930 . S
H918 C928 0.930 . S
H919 C931 0.929 . S
H920 C934 0.930 . S
H921 C936 0.960 . S
H922 C936 0.960 . S
H923 C936 0.960 . S
C924 H916 0.929 . S
C924 C925 1.377 . S
C924 C926 1.384 . S
C925 C924 1.377 . S
C925 C931 1.390 . S
C926 H917 0.930 . S
C926 C924 1.384 . S
C926 C927 1.372 . S
C927 C926 1.372 . S
C927 C928 1.400 . S
C927 C932 1.490 . S
C928 H918 0.930 . S
C928 C927 1.400 . S
C928 C931 1.386 . S
H929 C945 0.930 . S
H930 C946 0.931 . S
C931 H919 0.929 . S
C931 C925 1.390 . S
C931 C928 1.386 . S
C932 C927 1.490 . S
C932 C934 1.395 . S
C932 C935 1.403 . S
H933 C939 0.930 . S
C934 H920 0.930 . S
C934 C932 1.395 . S
C934 C937 1.403 . S
C935 C932 1.403 . S
C935 C936 1.524 . S
C935 C939 1.400 . S
C936 H921 0.960 . S
C936 H922 0.960 . S
C936 H923 0.960 . S
C936 C935 1.524 . S
C937 C934 1.403 . S
C937 C938 1.392 . S
C937 C941 1.495 . S
C938 C937 1.392 . S
C938 C939 1.385 . S
C938 C940 1.478 . S
C939 H933 0.930 . S
C939 C935 1.400 . S
C939 C938 1.385 . S
C940 C938 1.478 . S
C940 C942 1.381 . S
C940 C946 1.383 . S
C941 C937 1.495 . S
C941 H947 0.959 . S
C941 H948 0.961 . S
C941 H949 0.960 . S
C942 C940 1.381 . S
C942 C943 1.394 . S
C942 H950 0.930 . S
C943 C942 1.394 . S
C943 C944 1.383 . S
C943 H951 0.929 . S
C944 C943 1.383 . S
C944 C945 1.377 . S
C945 H929 0.930 . S
C945 C944 1.377 . S
C945 C946 1.379 . S
C946 H930 0.931 . S
C946 C940 1.383 . S
C946 C945 1.379 . S
H947 C941 0.959 . S
H948 C941 0.961 . S
H949 C941 0.960 . S
H950 C942 0.930 . S
H951 C943 0.929 . S
H952 C960 0.929 . S
H953 C962 0.930 . S
H954 C964 0.930 . S
H955 C967 0.929 . S
H956 C970 0.930 . S
H957 C972 0.960 . S
H958 C972 0.960 . S
H959 C972 0.960 . S
C960 H952 0.929 . S
C960 C961 1.377 . S
C960 C962 1.384 . S
C961 C960 1.377 . S
C961 C967 1.390 . S
C962 H953 0.930 . S
C962 C960 1.384 . S
C962 C963 1.372 . S
C963 C962 1.372 . S
C963 C964 1.400 . S
C963 C968 1.490 . S
C964 H954 0.930 . S
C964 C963 1.400 . S
C964 C967 1.386 . S
H965 C981 0.930 . S
H966 C982 0.931 . S
C967 H955 0.929 . S
C967 C961 1.390 . S
C967 C964 1.386 . S
C968 C963 1.490 . S
C968 C970 1.395 . S
C968 C971 1.403 . S
H969 C975 0.930 . S
C970 H956 0.930 . S
C970 C968 1.395 . S
C970 C973 1.403 . S
C971 C968 1.403 . S
C971 C972 1.524 . S
C971 C975 1.400 . S
C972 H957 0.960 . S
C972 H958 0.960 . S
C972 H959 0.960 . S
C972 C971 1.524 . S
C973 C970 1.403 . S
C973 C974 1.392 . S
C973 C977 1.495 . S
C974 C973 1.392 . S
C974 C975 1.385 . S
C974 C976 1.478 . S
C975 H969 0.930 . S
C975 C971 1.400 . S
C975 C974 1.385 . S
C976 C974 1.478 . S
C976 C978 1.381 . S
C976 C982 1.383 . S
C977 C973 1.495 . S
C977 H983 0.959 . S
C977 H984 0.961 . S
C977 H985 0.960 . S
C978 C976 1.381 . S
C978 C979 1.394 . S
C978 H986 0.930 . S
C979 C978 1.394 . S
C979 C980 1.383 . S
C979 H987 0.929 . S
C980 C979 1.383 . S
C980 C981 1.377 . S
C981 H965 0.930 . S
C981 C980 1.377 . S
C981 C982 1.379 . S
C982 H966 0.931 . S
C982 C976 1.383 . S
C982 C981 1.379 . S
H983 C977 0.959 . S
H984 C977 0.961 . S
H985 C977 0.960 . S
H986 C978 0.930 . S
H987 C979 0.929 . S
H988 C996 0.929 . S
H989 C998 0.930 . S
H990 C1000 0.930 . S
H991 C1003 0.929 . S
H992 C1006 0.930 . S
H993 C1008 0.960 . S
H994 C1008 0.960 . S
H995 C1008 0.960 . S
C996 H988 0.929 . S
C996 C997 1.377 . S
C996 C998 1.384 . S
C997 C996 1.377 . S
C997 C1003 1.390 . S
C998 H989 0.930 . S
C998 C996 1.384 . S
C998 C999 1.372 . S
C999 C998 1.372 . S
C999 C1000 1.400 . S
C999 C1004 1.490 . S
C1000 H990 0.930 . S
C1000 C999 1.400 . S
C1000 C1003 1.386 . S
H1001 C1017 0.930 . S
H1002 C1018 0.931 . S
C1003 H991 0.929 . S
C1003 C997 1.390 . S
C1003 C1000 1.386 . S
C1004 C999 1.490 . S
C1004 C1006 1.395 . S
C1004 C1007 1.403 . S
H1005 C1011 0.930 . S
C1006 H992 0.930 . S
C1006 C1004 1.395 . S
C1006 C1009 1.403 . S
C1007 C1004 1.403 . S
C1007 C1008 1.524 . S
C1007 C1011 1.400 . S
C1008 H993 0.960 . S
C1008 H994 0.960 . S
C1008 H995 0.960 . S
C1008 C1007 1.524 . S
C1009 C1006 1.403 . S
C1009 C1010 1.392 . S
C1009 C1013 1.495 . S
C1010 C1009 1.392 . S
C1010 C1011 1.385 . S
C1010 C1012 1.478 . S
C1011 H1005 0.930 . S
C1011 C1007 1.400 . S
C1011 C1010 1.385 . S
C1012 C1010 1.478 . S
C1012 C1014 1.381 . S
C1012 C1018 1.383 . S
C1013 C1009 1.495 . S
C1013 H1019 0.959 . S
C1013 H1020 0.961 . S
C1013 H1021 0.960 . S
C1014 C1012 1.381 . S
C1014 C1015 1.394 . S
C1014 H1022 0.930 . S
C1015 C1014 1.394 . S
C1015 C1016 1.383 . S
C1015 H1023 0.929 . S
C1016 C1015 1.383 . S
C1016 C1017 1.377 . S
C1017 H1001 0.930 . S
C1017 C1016 1.377 . S
C1017 C1018 1.379 . S
C1018 H1002 0.931 . S
C1018 C1012 1.383 . S
C1018 C1017 1.379 . S
H1019 C1013 0.959 . S
H1020 C1013 0.961 . S
H1021 C1013 0.960 . S
H1022 C1014 0.930 . S
H1023 C1015 0.929 . S
C169 C6 1.695 . S
C188 C16 1.673 . S
C205 C26 1.704 . S
C224 C36 1.720 . S
C241 C56 1.699 . S
C260 C46 1.672 . S
C277 C76 1.695 . S
C296 C66 1.677 . S
C313 C86 1.703 . S
C332 C96 1.683 . S
C349 C116 1.700 . S
C368 C106 1.675 . S
C385 C136 1.697 . S
C404 C126 1.711 . S
C421 C146 1.696 . S
C440 C156 1.672 . S
C457 C39 1.594 . S
C476 C8 1.615 1_655 S
C493 C79 1.593 1_455 S
C512 C48 1.566 . S
C529 C88 1.588 . S
C548 C119 1.603 . S
C565 C128 1.586 . S
C584 C159 1.557 . S
C601 C19 1.540 . S
C620 C108 1.558 . S
C637 C99 1.544 . S
C656 C28 1.553 . S
C673 C59 1.534 . S
C692 C148 1.529 . S
C709 C68 1.544 . S
C728 C139 1.540 . S
C745 C1 1.582 . S
C764 C61 1.612 . S
C781 C21 1.610 . S
C800 C41 1.568 . S
C817 C29 1.578 . S
C836 C49 1.617 . S
C853 C69 1.577 . S
C872 C9 1.616 . S
C889 C81 1.583 . S
C908 C141 1.614 . S
C925 C101 1.612 . S
C944 C121 1.596 . S
C961 C109 1.578 . S
C980 C129 1.599 . S
C997 C149 1.577 . S
C1016 C89 1.601 . S
