# Generated by pormake.
# Topology wls, (5)-cn, num edge types: 1
# Building blocks:
#     Node 0, Type 0, BuildingBlock: BEQFEK_clean_sbu_0, # of connection points: 5
#     Node 1, Type 0, BuildingBlock: BEQFEK_clean_sbu_0, # of connection points: 5
#     Node 2, Type 0, BuildingBlock: BEQFEK_clean_sbu_0, # of connection points: 5
#     Node 3, Type 0, BuildingBlock: BEQFEK_clean_sbu_0, # of connection points: 5
#     Node 4, Type 0, BuildingBlock: BEQFEK_clean_sbu_0, # of connection points: 5
#     Node 5, Type 0, BuildingBlock: BEQFEK_clean_sbu_0, # of connection points: 5
#     Node 6, Type 0, BuildingBlock: BEQFEK_clean_sbu_0, # of connection points: 5
#     Node 7, Type 0, BuildingBlock: BEQFEK_clean_sbu_0, # of connection points: 5
#     Node 8, Type 0, BuildingBlock: BEQFEK_clean_sbu_0, # of connection points: 5
#     Node 9, Type 0, BuildingBlock: BEQFEK_clean_sbu_0, # of connection points: 5
#     Node 10, Type 0, BuildingBlock: BEQFEK_clean_sbu_0, # of connection points: 5
#     Node 11, Type 0, BuildingBlock: BEQFEK_clean_sbu_0, # of connection points: 5
#     Node 12, Type 0, BuildingBlock: BEQFEK_clean_sbu_0, # of connection points: 5
#     Node 13, Type 0, BuildingBlock: BEQFEK_clean_sbu_0, # of connection points: 5
#     Node 14, Type 0, BuildingBlock: BEQFEK_clean_sbu_0, # of connection points: 5
#     Node 15, Type 0, BuildingBlock: BEQFEK_clean_sbu_0, # of connection points: 5
#     Node 16, Type 0, BuildingBlock: BEQFEK_clean_sbu_0, # of connection points: 5
#     Node 17, Type 0, BuildingBlock: BEQFEK_clean_sbu_0, # of connection points: 5
#     Node 18, Type 0, BuildingBlock: BEQFEK_clean_sbu_0, # of connection points: 5
#     Node 19, Type 0, BuildingBlock: BEQFEK_clean_sbu_0, # of connection points: 5
#     Node 20, Type 0, BuildingBlock: BEQFEK_clean_sbu_0, # of connection points: 5
#     Node 21, Type 0, BuildingBlock: BEQFEK_clean_sbu_0, # of connection points: 5
#     Node 22, Type 0, BuildingBlock: BEQFEK_clean_sbu_0, # of connection points: 5
#     Node 23, Type 0, BuildingBlock: BEQFEK_clean_sbu_0, # of connection points: 5
#     Node 24, Type 0, BuildingBlock: BEQFEK_clean_sbu_0, # of connection points: 5
#     Node 25, Type 0, BuildingBlock: BEQFEK_clean_sbu_0, # of connection points: 5
#     Node 26, Type 0, BuildingBlock: BEQFEK_clean_sbu_0, # of connection points: 5
#     Node 27, Type 0, BuildingBlock: BEQFEK_clean_sbu_0, # of connection points: 5
#     Node 28, Type 0, BuildingBlock: BEQFEK_clean_sbu_0, # of connection points: 5
#     Node 29, Type 0, BuildingBlock: BEQFEK_clean_sbu_0, # of connection points: 5
#     Node 30, Type 0, BuildingBlock: BEQFEK_clean_sbu_0, # of connection points: 5
#     Node 31, Type 0, BuildingBlock: BEQFEK_clean_sbu_0, # of connection points: 5
#     Node 32, Type 0, BuildingBlock: BEQFEK_clean_sbu_0, # of connection points: 5
#     Node 33, Type 0, BuildingBlock: BEQFEK_clean_sbu_0, # of connection points: 5
#     Node 34, Type 0, BuildingBlock: BEQFEK_clean_sbu_0, # of connection points: 5
#     Node 35, Type 0, BuildingBlock: BEQFEK_clean_sbu_0, # of connection points: 5
#     Edge 36, Type (0, 0), BuildingBlock: XIVTED_clean_linker_0, # of connection points: 2
#     Edge 37, Type (0, 0), BuildingBlock: XIVTED_clean_linker_0, # of connection points: 2
#     Edge 38, Type (0, 0), BuildingBlock: XIVTED_clean_linker_0, # of connection points: 2
#     Edge 39, Type (0, 0), BuildingBlock: XIVTED_clean_linker_0, # of connection points: 2
#     Edge 40, Type (0, 0), BuildingBlock: XIVTED_clean_linker_0, # of connection points: 2
#     Edge 41, Type (0, 0), BuildingBlock: XIVTED_clean_linker_0, # of connection points: 2
#     Edge 42, Type (0, 0), BuildingBlock: XIVTED_clean_linker_0, # of connection points: 2
#     Edge 43, Type (0, 0), BuildingBlock: XIVTED_clean_linker_0, # of connection points: 2
#     Edge 44, Type (0, 0), BuildingBlock: XIVTED_clean_linker_0, # of connection points: 2
#     Edge 45, Type (0, 0), BuildingBlock: XIVTED_clean_linker_0, # of connection points: 2
#     Edge 46, Type (0, 0), BuildingBlock: XIVTED_clean_linker_0, # of connection points: 2
#     Edge 47, Type (0, 0), BuildingBlock: XIVTED_clean_linker_0, # of connection points: 2
#     Edge 48, Type (0, 0), BuildingBlock: XIVTED_clean_linker_0, # of connection points: 2
#     Edge 49, Type (0, 0), BuildingBlock: XIVTED_clean_linker_0, # of connection points: 2
#     Edge 50, Type (0, 0), BuildingBlock: XIVTED_clean_linker_0, # of connection points: 2
#     Edge 51, Type (0, 0), BuildingBlock: XIVTED_clean_linker_0, # of connection points: 2
#     Edge 52, Type (0, 0), BuildingBlock: XIVTED_clean_linker_0, # of connection points: 2
#     Edge 53, Type (0, 0), BuildingBlock: XIVTED_clean_linker_0, # of connection points: 2
#     Edge 54, Type (0, 0), BuildingBlock: XIVTED_clean_linker_0, # of connection points: 2
#     Edge 55, Type (0, 0), BuildingBlock: XIVTED_clean_linker_0, # of connection points: 2
#     Edge 56, Type (0, 0), BuildingBlock: XIVTED_clean_linker_0, # of connection points: 2
#     Edge 57, Type (0, 0), BuildingBlock: XIVTED_clean_linker_0, # of connection points: 2
#     Edge 58, Type (0, 0), BuildingBlock: XIVTED_clean_linker_0, # of connection points: 2
#     Edge 59, Type (0, 0), BuildingBlock: XIVTED_clean_linker_0, # of connection points: 2
#     Edge 60, Type (0, 0), BuildingBlock: XIVTED_clean_linker_0, # of connection points: 2
#     Edge 61, Type (0, 0), BuildingBlock: XIVTED_clean_linker_0, # of connection points: 2
#     Edge 62, Type (0, 0), BuildingBlock: XIVTED_clean_linker_0, # of connection points: 2
#     Edge 63, Type (0, 0), BuildingBlock: XIVTED_clean_linker_0, # of connection points: 2
#     Edge 64, Type (0, 0), BuildingBlock: XIVTED_clean_linker_0, # of connection points: 2
#     Edge 65, Type (0, 0), BuildingBlock: XIVTED_clean_linker_0, # of connection points: 2
#     Edge 66, Type (0, 0), BuildingBlock: XIVTED_clean_linker_0, # of connection points: 2
#     Edge 67, Type (0, 0), BuildingBlock: XIVTED_clean_linker_0, # of connection points: 2
#     Edge 68, Type (0, 0), BuildingBlock: XIVTED_clean_linker_0, # of connection points: 2
#     Edge 69, Type (0, 0), BuildingBlock: XIVTED_clean_linker_0, # of connection points: 2
#     Edge 70, Type (0, 0), BuildingBlock: XIVTED_clean_linker_0, # of connection points: 2
#     Edge 71, Type (0, 0), BuildingBlock: XIVTED_clean_linker_0, # of connection points: 2
#     Edge 72, Type (0, 0), BuildingBlock: XIVTED_clean_linker_0, # of connection points: 2
#     Edge 73, Type (0, 0), BuildingBlock: XIVTED_clean_linker_0, # of connection points: 2
#     Edge 74, Type (0, 0), BuildingBlock: XIVTED_clean_linker_0, # of connection points: 2
#     Edge 75, Type (0, 0), BuildingBlock: XIVTED_clean_linker_0, # of connection points: 2
#     Edge 76, Type (0, 0), BuildingBlock: XIVTED_clean_linker_0, # of connection points: 2
#     Edge 77, Type (0, 0), BuildingBlock: XIVTED_clean_linker_0, # of connection points: 2
#     Edge 78, Type (0, 0), BuildingBlock: XIVTED_clean_linker_0, # of connection points: 2
#     Edge 79, Type (0, 0), BuildingBlock: XIVTED_clean_linker_0, # of connection points: 2
#     Edge 80, Type (0, 0), BuildingBlock: XIVTED_clean_linker_0, # of connection points: 2
#     Edge 81, Type (0, 0), BuildingBlock: XIVTED_clean_linker_0, # of connection points: 2
#     Edge 82, Type (0, 0), BuildingBlock: XIVTED_clean_linker_0, # of connection points: 2
#     Edge 83, Type (0, 0), BuildingBlock: XIVTED_clean_linker_0, # of connection points: 2
#     Edge 84, Type (0, 0), BuildingBlock: XIVTED_clean_linker_0, # of connection points: 2
#     Edge 85, Type (0, 0), BuildingBlock: XIVTED_clean_linker_0, # of connection points: 2
#     Edge 86, Type (0, 0), BuildingBlock: XIVTED_clean_linker_0, # of connection points: 2
#     Edge 87, Type (0, 0), BuildingBlock: XIVTED_clean_linker_0, # of connection points: 2
#     Edge 88, Type (0, 0), BuildingBlock: XIVTED_clean_linker_0, # of connection points: 2
#     Edge 89, Type (0, 0), BuildingBlock: XIVTED_clean_linker_0, # of connection points: 2
#     Edge 90, Type (0, 0), BuildingBlock: XIVTED_clean_linker_0, # of connection points: 2
#     Edge 91, Type (0, 0), BuildingBlock: XIVTED_clean_linker_0, # of connection points: 2
#     Edge 92, Type (0, 0), BuildingBlock: XIVTED_clean_linker_0, # of connection points: 2
#     Edge 93, Type (0, 0), BuildingBlock: XIVTED_clean_linker_0, # of connection points: 2
#     Edge 94, Type (0, 0), BuildingBlock: XIVTED_clean_linker_0, # of connection points: 2
#     Edge 95, Type (0, 0), BuildingBlock: XIVTED_clean_linker_0, # of connection points: 2
#     Edge 96, Type (0, 0), BuildingBlock: XIVTED_clean_linker_0, # of connection points: 2
#     Edge 97, Type (0, 0), BuildingBlock: XIVTED_clean_linker_0, # of connection points: 2
#     Edge 98, Type (0, 0), BuildingBlock: XIVTED_clean_linker_0, # of connection points: 2
#     Edge 99, Type (0, 0), BuildingBlock: XIVTED_clean_linker_0, # of connection points: 2
#     Edge 100, Type (0, 0), BuildingBlock: XIVTED_clean_linker_0, # of connection points: 2
#     Edge 101, Type (0, 0), BuildingBlock: XIVTED_clean_linker_0, # of connection points: 2
#     Edge 102, Type (0, 0), BuildingBlock: XIVTED_clean_linker_0, # of connection points: 2
#     Edge 103, Type (0, 0), BuildingBlock: XIVTED_clean_linker_0, # of connection points: 2
#     Edge 104, Type (0, 0), BuildingBlock: XIVTED_clean_linker_0, # of connection points: 2
#     Edge 105, Type (0, 0), BuildingBlock: XIVTED_clean_linker_0, # of connection points: 2
#     Edge 106, Type (0, 0), BuildingBlock: XIVTED_clean_linker_0, # of connection points: 2
#     Edge 107, Type (0, 0), BuildingBlock: XIVTED_clean_linker_0, # of connection points: 2
#     Edge 108, Type (0, 0), BuildingBlock: XIVTED_clean_linker_0, # of connection points: 2
#     Edge 109, Type (0, 0), BuildingBlock: XIVTED_clean_linker_0, # of connection points: 2
#     Edge 110, Type (0, 0), BuildingBlock: XIVTED_clean_linker_0, # of connection points: 2
#     Edge 111, Type (0, 0), BuildingBlock: XIVTED_clean_linker_0, # of connection points: 2
#     Edge 112, Type (0, 0), BuildingBlock: XIVTED_clean_linker_0, # of connection points: 2
#     Edge 113, Type (0, 0), BuildingBlock: XIVTED_clean_linker_0, # of connection points: 2
#     Edge 114, Type (0, 0), BuildingBlock: XIVTED_clean_linker_0, # of connection points: 2
#     Edge 115, Type (0, 0), BuildingBlock: XIVTED_clean_linker_0, # of connection points: 2
#     Edge 116, Type (0, 0), BuildingBlock: XIVTED_clean_linker_0, # of connection points: 2
#     Edge 117, Type (0, 0), BuildingBlock: XIVTED_clean_linker_0, # of connection points: 2
#     Edge 118, Type (0, 0), BuildingBlock: XIVTED_clean_linker_0, # of connection points: 2
#     Edge 119, Type (0, 0), BuildingBlock: XIVTED_clean_linker_0, # of connection points: 2
#     Edge 120, Type (0, 0), BuildingBlock: XIVTED_clean_linker_0, # of connection points: 2
#     Edge 121, Type (0, 0), BuildingBlock: XIVTED_clean_linker_0, # of connection points: 2
#     Edge 122, Type (0, 0), BuildingBlock: XIVTED_clean_linker_0, # of connection points: 2
#     Edge 123, Type (0, 0), BuildingBlock: XIVTED_clean_linker_0, # of connection points: 2
#     Edge 124, Type (0, 0), BuildingBlock: XIVTED_clean_linker_0, # of connection points: 2
#     Edge 125, Type (0, 0), BuildingBlock: XIVTED_clean_linker_0, # of connection points: 2
# Relax obj value: 0.132
# Max RMSD: 0.102
# Mean RMSD: 0.102
data_MOF--net-wls--node1-BEQFEK_clean_sbu_0--edge1-XIVTED_clean_linker_0
_symmetry_space_group_name_H-M    P1
_symmetry_Int_Tables_number       1
_symmetry_cell_setting            triclinic
loop_
_symmetry_equiv_pos_as_xyz
'x, y, z'
_cell_length_a     79.442088
_cell_length_b     79.417963
_cell_length_c     36.314563
_cell_angle_alpha  89.995314
_cell_angle_beta   90.019713
_cell_angle_gamma 119.99024
loop_
_atom_site_label
_atom_site_type_symbol
_atom_site_fract_x
_atom_site_fract_y
_atom_site_fract_z
_atom_type_partial_charge
Co0 Co 0.24147 0.22631 0.07194 0.0
Co1 Co 0.22305 0.18156 0.06589 0.0
C2 C 0.22407 0.20046 0.1381 0.0
O3 O 0.23176 0.21674 0.12169 0.0
O4 O 0.22073 0.18499 0.12109 0.0
C5 C 0.26875 0.26329 0.10034 0.0
O6 O 0.27301 0.25325 0.12349 0.0
C7 C 0.21872 0.14205 0.0686 0.0
C8 C 0.19494 0.1267 0.02839 0.0
C9 C 0.20711 0.12403 0.05197 0.0
N10 N 0.21359 0.15467 0.05518 0.0
N11 N 0.19937 0.14533 0.0312 0.0
C12 C 0.23353 0.14697 0.09826 0.0
H13 H 0.23617 0.16027 0.11317 0.0
H14 H 0.24743 0.14976 0.08582 0.0
H15 H 0.22864 0.13463 0.11777 0.0
C16 C 0.27395 0.22591 0.03313 0.0
N17 N 0.25683 0.21655 0.05108 0.0
N18 N 0.24899 0.19769 0.04608 0.0
C19 C 0.26085 0.19456 0.02369 0.0
C20 C 0.27712 0.2124 1.01467 0.0
C21 C 0.28686 0.24756 0.03313 0.0
H22 H 0.29085 0.25263 0.06186 0.0
H23 H 0.30057 0.25235 0.01783 0.0
H24 H 0.27894 0.25448 0.02121 0.0
O25 O 0.21894 0.21995 0.04066 0.0
O26 O 0.20438 0.18779 0.04018 0.0
H27 H 0.26422 0.17691 0.98222 0.0
H28 H 0.25831 0.16659 0.02774 0.0
C29 C 0.25552 0.17525 1.00726 0.0
H30 H 0.23985 0.16722 1.00018 0.0
H31 H 0.19263 0.15168 0.0167 0.0
O32 O 0.25605 0.25459 0.07556 0.0
C33 C 0.20475 0.20353 0.03143 0.0
Co34 Co 0.77616 0.01831 0.06537 0.0
Co35 Co 0.82137 0.04218 0.0633 0.0
C36 C 0.8002 0.02569 0.13437 0.0
O37 O 0.78436 0.01867 0.11651 0.0
O38 O 0.81651 0.03592 0.11815 0.0
C39 C 0.74042 0.01165 0.09343 0.0
O40 O 0.75161 0.02327 0.1196 0.0
C41 C 0.86168 0.07578 0.06915 0.0
C42 C 0.87632 0.06783 0.02652 0.0
C43 C 0.87951 0.08215 0.05187 0.0
N44 N 0.84861 0.0586 0.05427 0.0
N45 N 0.85754 0.05394 0.02898 0.0
C46 C 0.85736 0.08516 0.10068 0.0
H47 H 0.84393 0.07442 0.1151 0.0
H48 H 0.85514 0.09703 0.09038 0.0
H49 H 0.86978 0.09159 0.12018 0.0
C50 C 0.77993 0.05254 0.02653 0.0
N51 N 0.7879 0.04333 0.04431 0.0
N52 N 0.80696 0.05365 0.04201 0.0
C53 C 0.81164 0.06972 0.02156 0.0
C54 C 0.79462 0.06968 1.01174 0.0
C55 C 0.75854 0.04402 0.02038 0.0
H56 H 0.75209 0.0287 1.01129 0.0
H57 H 0.75158 0.0443 0.04664 0.0
H58 H 0.75539 0.05218 0.99931 0.0
O59 O 0.78185 1.00065 0.03666 0.0
O60 O 0.81408 0.01711 0.03761 0.0
H61 H 0.83958 0.07668 1.00047 0.0
H62 H 0.83175 0.09371 0.98737 0.0
C63 C 0.83182 0.08426 1.0098 0.0
H64 H 0.83978 0.09358 0.03357 0.0
H65 H 0.85075 0.04134 1.01301 0.0
O66 O 0.74796 0.00739 0.06682 0.0
C67 C 0.7981 0.00208 0.02861 0.0
Co68 Co 0.98563 0.75967 0.06432 0.0
Co69 Co 0.96117 0.78039 0.06229 0.0
C70 C 0.97723 0.77549 0.13346 0.0
O71 O 0.98447 0.76688 0.11557 0.0
O72 O 0.96708 0.78165 0.11718 0.0
C73 C 0.9905 0.72851 0.0875 0.0
O74 O 0.97439 0.72345 0.10578 0.0
C75 C 0.92786 0.78779 0.06761 0.0
C76 C 0.93581 0.80955 0.02331 0.0
C77 C 0.92171 0.79923 0.04952 0.0
N78 N 0.94475 0.79116 0.05241 0.0
N79 N 0.94938 0.80425 0.02609 0.0
C80 C 0.9186 0.77486 0.10017 0.0
H81 H 0.92911 0.77171 0.11428 0.0
H82 H 0.90605 0.7609 0.09106 0.0
H83 H 0.9131 0.78179 0.11961 0.0
C84 C 0.95177 0.7291 0.02397 0.0
N85 N 0.96084 0.74619 0.04211 0.0
N86 N 0.95011 0.75454 0.04086 0.0
C87 C 0.93378 0.74284 0.02132 0.0
C88 C 0.93419 0.72618 1.01062 0.0
C89 C 0.9606 0.71666 0.01598 0.0
H90 H 0.97649 0.72585 1.01185 0.0
H91 H 0.95785 0.70673 0.03954 0.0
H92 H 0.9541 0.70767 0.99098 0.0
O93 O 0.00324 0.78324 0.03647 0.0
O94 O 0.98637 0.79858 0.03729 0.0
H95 H 0.92525 0.76277 1.00092 0.0
H96 H 0.908 0.73747 0.99137 0.0
C97 C 0.91842 0.74775 1.01189 0.0
H98 H 0.91032 0.74703 0.03718 0.0
H99 H 0.96178 0.80948 1.0097 0.0
O100 O 0.99768 0.74345 0.06704 0.0
C101 C 1.0016 0.79795 0.02856 0.0
Co102 Co 0.22636 0.24138 0.46891 0.0
Co103 Co 0.1814 0.22206 0.47022 0.0
C104 C 0.20204 0.22336 0.40051 0.0
O105 O 0.21786 0.23132 0.41859 0.0
O106 O 0.18607 0.21979 0.41571 0.0
C107 C 0.2633 0.2678 0.43992 0.0
O108 O 0.25317 0.2676 0.41116 0.0
C109 C 0.14109 0.21566 0.46406 0.0
C110 C 0.12679 0.19414 0.50857 0.0
C111 C 0.12337 0.20455 0.48195 0.0
N112 N 0.1543 0.21198 0.47974 0.0
N113 N 0.14557 0.19906 0.5062 0.0
C114 C 0.14515 0.22855 0.43129 0.0
H115 H 0.15865 0.23115 0.41725 0.0
H116 H 0.14709 0.24275 0.44019 0.0
H117 H 0.1327 0.2219 0.41186 0.0
C118 C 0.22415 0.27381 0.50352 0.0
N119 N 0.21556 0.2562 0.48721 0.0
N120 N 0.19657 0.24818 0.48967 0.0
C121 C 0.19253 0.26045 0.50865 0.0
C122 C 0.20992 0.27726 0.51753 0.0
C123 C 0.24564 0.28616 0.50909 0.0
H124 H 0.25145 0.27719 0.52088 0.0
H125 H 0.25273 0.29183 0.48206 0.0
H126 H 0.24939 0.29859 0.52777 0.0
O127 O 0.22002 0.21903 0.50072 0.0
O128 O 0.1879 0.20393 0.49725 0.0
H129 H 0.16447 0.24091 0.53114 0.0
H130 H 0.17298 0.26637 0.54031 0.0
C131 C 0.17255 0.25584 0.51971 0.0
H132 H 0.16467 0.25646 0.49506 0.0
H133 H 0.15247 0.19366 0.52293 0.0
O134 O 0.25462 0.25747 0.4678 0.0
C135 C 0.20346 0.20452 0.50809 0.0
Co136 Co 0.75961 0.98357 0.46423 0.0
Co137 Co 0.78007 0.95887 0.46542 0.0
C138 C 0.77479 0.97506 0.39454 0.0
O139 O 0.76626 0.98231 0.41263 0.0
O140 O 0.7811 0.96497 0.41063 0.0
C141 C 0.72871 0.98936 0.44266 0.0
O142 O 0.72331 0.97347 0.42335 0.0
C143 C 0.78663 0.92507 0.4591 0.0
C144 C 0.8088 0.93269 0.5025 0.0
C145 C 0.79796 0.91859 0.4766 0.0
N146 N 0.79055 0.94213 0.47437 0.0
N147 N 0.80388 0.94657 0.50013 0.0
C148 C 0.77328 0.91592 0.42702 0.0
H149 H 0.77026 0.9266 0.41325 0.0
H150 H 0.75931 0.90356 0.43657 0.0
H151 H 0.77979 0.91017 0.40716 0.0
C152 C 0.72907 0.94976 0.50475 0.0
N153 N 0.74608 0.95877 0.48637 0.0
N154 N 0.75435 0.94795 0.48738 0.0
C155 C 0.74271 0.93167 0.50708 0.0
C156 C 0.72614 0.93218 0.51807 0.0
C157 C 0.71672 0.95866 0.51295 0.0
H158 H 0.70695 0.95621 0.48925 0.0
H159 H 0.70757 0.95201 0.5377 0.0
H160 H 0.72599 0.9745 0.51761 0.0
O161 O 0.78346 1.00098 0.49162 0.0
O162 O 0.79854 0.98387 0.49071 0.0
H163 H 0.76278 0.92313 0.5266 0.0
H164 H 0.73762 0.90618 0.53771 0.0
C165 C 0.7476 0.91629 0.51651 0.0
H166 H 0.74635 0.90783 0.49142 0.0
H167 H 0.80952 0.95904 0.51645 0.0
O168 O 0.74372 0.99599 0.46289 0.0
C169 C 0.79807 0.99918 0.4995 0.0
Co170 Co 0.01889 0.77657 0.46317 0.0
Co171 Co 0.04374 0.82175 0.46473 0.0
C172 C 0.02756 0.80058 0.39374 0.0
O173 O 0.02023 0.78476 0.41176 0.0
O174 O 0.0377 0.81693 0.40989 0.0
C175 C 0.01333 0.74016 0.44059 0.0
O176 O 0.02943 0.7509 0.42206 0.0
C177 C 0.07718 0.8624 0.45857 0.0
C178 C 0.06969 0.87636 0.50333 0.0
C179 C 0.08351 0.88006 0.47656 0.0
N180 N 0.06044 0.84894 0.47434 0.0
N181 N 0.05609 0.85747 0.50095 0.0
C182 C 0.08614 0.85864 0.42566 0.0
H183 H 0.07549 0.84496 0.4118 0.0
H184 H 0.09875 0.85722 0.43434 0.0
H185 H 0.09149 0.87102 0.40613 0.0
C186 C 0.05267 0.77961 0.50346 0.0
N187 N 0.04368 0.78771 0.48531 0.0
N188 N 0.0546 0.80678 0.48622 0.0
C189 C 0.07098 0.81133 0.50549 0.0
C190 C 0.07039 0.7942 0.51645 0.0
C191 C 0.04367 0.75836 0.5117 0.0
H192 H 0.02781 0.75182 0.51596 0.0
H193 H 0.04626 0.75102 0.4882 0.0
H194 H 0.05016 0.75585 0.5367 0.0
O195 O 1.00151 0.78292 0.49081 0.0
O196 O 0.01871 0.8151 0.49004 0.0
H197 H 0.08006 0.83987 0.52602 0.0
H198 H 0.09739 0.83173 0.53382 0.0
C199 C 0.08661 0.83159 0.51422 0.0
H200 H 0.0942 0.83887 0.48847 0.0
H201 H 0.04385 0.85035 0.51776 0.0
O202 O 0.00646 0.74825 0.46097 0.0
C203 C 0.00338 0.79935 0.49881 0.0
Co204 Co 0.76062 0.77665 0.96357 0.0
Co205 Co 0.78127 0.82181 0.96631 0.0
C206 C 0.77638 0.80109 0.89477 0.0
O207 O 0.76776 0.78518 0.91243 0.0
O208 O 0.78257 0.81734 0.91131 0.0
C209 C 0.72951 0.74073 0.94001 0.0
O210 O 0.72438 0.75186 0.9222 0.0
C211 C 0.78806 0.86228 0.96125 0.0
C212 C 0.81005 0.87641 1.00508 0.0
C213 C 0.79939 0.87994 0.9792 0.0
N214 N 0.79181 0.84897 0.97622 0.0
N215 N 0.80503 0.85761 1.00227 0.0
C216 C 0.77487 0.85839 0.92902 0.0
H217 H 0.77177 0.84473 0.91498 0.0
H218 H 0.76092 0.85688 0.93845 0.0
H219 H 0.78156 0.87076 0.90941 0.0
C220 C 0.7301 0.77969 1.00453 0.0
N221 N 0.7471 0.78781 0.98612 0.0
N222 N 0.75543 0.80689 0.98776 0.0
C223 C 0.74383 0.81141 1.00786 0.0
C224 C 0.72723 0.79427 0.0185 0.0
C225 C 0.71777 0.75839 1.01233 0.0
H226 H 0.72703 0.75174 0.01609 0.0
H227 H 0.70777 0.75125 0.98884 0.0
H228 H 0.70886 0.75576 0.03748 0.0
O229 O 0.78419 0.7826 0.99139 0.0
O230 O 0.7995 0.81482 0.99131 0.0
H231 H 0.76388 0.8397 0.02881 0.0
H232 H 0.73864 0.83163 0.03895 0.0
C233 C 0.74881 0.83162 0.01804 0.0
H234 H 0.74799 0.83921 0.99314 0.0
H235 H 0.81054 0.8506 0.01843 0.0
O236 O 0.74448 0.74839 0.96044 0.0
C237 C 0.79886 0.79891 0.9997 0.0
Co238 Co 0.22718 0.98535 0.96208 0.0
Co239 Co 0.18211 0.96085 0.9665 0.0
C240 C 0.20173 0.97895 0.89549 0.0
O241 O 0.21788 0.98674 0.91243 0.0
O242 O 0.18593 0.96703 0.91177 0.0
C243 C 0.2629 0.99375 0.9299 0.0
O244 O 0.25178 0.9841 0.90188 0.0
C245 C 0.14149 0.92757 0.96226 0.0
C246 C 0.12795 0.93539 1.00727 0.0
C247 C 0.12403 0.92133 0.98085 0.0
N248 N 0.15506 0.94445 0.97737 0.0
N249 N 0.14678 0.94902 1.00413 0.0
C250 C 0.14498 0.91837 0.92937 0.0
H251 H 0.15832 0.92905 0.91465 0.0
H252 H 0.1469 0.90609 0.93825 0.0
H253 H 0.13227 0.91252 0.91055 0.0
C254 C 0.22426 0.95061 0.99772 0.0
N255 N 0.2159 0.95985 0.98141 0.0
N256 N 0.19692 0.94944 0.98511 0.0
C257 C 0.19267 0.9333 1.00488 0.0
C258 C 0.20988 0.93337 1.01298 0.0
C259 C 0.24576 0.95931 1.00248 0.0
H260 H 0.25205 0.9743 1.01341 0.0
H261 H 0.25246 0.96009 0.97528 0.0
H262 H 0.24942 0.95071 0.02154 0.0
O263 O 0.22215 0.0023 0.99408 0.0
O264 O 0.18992 0.98595 0.99297 0.0
H265 H 0.16553 0.92629 0.02994 0.0
H266 H 0.17306 0.9085 0.03808 0.0
C267 C 0.17271 0.91871 0.01767 0.0
H268 H 0.16398 0.91021 0.99372 0.0
H269 H 0.15405 0.96142 0.02051 0.0
O270 O 0.25532 0.99628 0.95861 0.0
C271 C 0.20592 1.00079 1.00259 0.0
Co272 Co 0.01887 0.2429 0.9653 0.0
Co273 Co 0.04256 0.22131 0.96757 0.0
C274 C 0.02647 0.22648 0.8963 0.0
O275 O 0.01948 0.23537 0.91403 0.0
O276 O 0.03643 0.22012 0.91267 0.0
C277 C 0.01166 0.27183 0.9376 0.0
O278 O 0.0229 0.27221 0.91073 0.0
C279 C 0.07583 0.21401 0.96202 0.0
C280 C 0.06719 0.19094 1.00389 0.0
C281 C 0.08173 0.20206 0.97894 0.0
N282 N 0.05868 0.21013 0.97669 0.0
N283 N 0.05362 0.19627 1.00154 0.0
C284 C 0.08559 0.22794 0.93099 0.0
H285 H 0.07507 0.23093 0.91642 0.0
H286 H 0.09746 0.24188 0.94188 0.0
H287 H 0.09206 0.222 0.91147 0.0
C288 C 0.05309 0.27316 1.00443 0.0
N289 N 0.04384 0.256 0.98663 0.0
N290 N 0.05406 0.24714 0.98908 0.0
C291 C 0.07007 0.25843 1.00975 0.0
C292 C 0.07012 0.27546 0.01949 0.0
C293 C 0.04476 0.28623 1.01015 0.0
H294 H 0.02955 0.27756 0.01998 0.0
H295 H 0.04471 0.29304 0.98353 0.0
H296 H 0.05325 0.29787 0.03046 0.0
O297 O 1.00102 0.21941 0.99355 0.0
O298 O 0.01747 0.20363 0.99298 0.0
H299 H 0.07668 0.23713 0.03059 0.0
H300 H 0.09352 0.26183 0.04498 0.0
C301 C 0.0844 0.25259 0.02194 0.0
H302 H 0.09405 0.25422 0.99858 0.0
H303 H 0.04094 0.19053 0.01723 0.0
O304 O 0.00792 0.26019 0.96434 0.0
C305 C 0.00241 0.20457 1.00171 0.0
Co306 Co 0.77731 0.75862 0.56547 0.0
Co307 Co 0.82257 0.78025 0.56369 0.0
C308 C 0.80117 0.77531 0.63463 0.0
O309 O 0.78534 0.76633 0.61675 0.0
O310 O 0.81754 0.78165 0.61846 0.0
C311 C 0.74103 0.72968 0.59281 0.0
O312 O 0.75177 0.72909 0.61971 0.0
C313 C 0.8632 0.78772 0.56965 0.0
C314 C 0.87729 0.8098 0.52596 0.0
C315 C 0.88088 0.79918 0.55185 0.0
N316 N 0.84984 0.79134 0.55453 0.0
N317 N 0.85845 0.80464 0.52863 0.0
C318 C 0.85928 0.77448 0.60181 0.0
H319 H 0.846 0.77195 0.61659 0.0
H320 H 0.85699 0.76026 0.59213 0.0
H321 H 0.87192 0.78078 0.62083 0.0
C322 C 0.78143 0.72822 0.52721 0.0
N323 N 0.78924 0.74547 0.54467 0.0
N324 N 0.80832 0.75431 0.54261 0.0
C325 C 0.81317 0.74291 0.52266 0.0
C326 C 0.79626 0.72582 0.51288 0.0
C327 C 0.76008 0.71518 0.52107 0.0
H328 H 0.75354 0.7239 0.51147 0.0
H329 H 0.75311 0.70813 0.54747 0.0
H330 H 0.75702 0.70373 0.50038 0.0
O331 O 0.78295 0.78197 0.53679 0.0
O332 O 0.81516 0.79782 0.53766 0.0
H333 H 0.8411 0.76379 0.50139 0.0
H334 H 0.83361 0.73881 0.48991 0.0
C335 C 0.83345 0.74859 0.51154 0.0
H336 H 0.84139 0.74773 0.53585 0.0
H337 H 0.85139 0.81004 0.51234 0.0
O338 O 0.74907 0.7414 0.56624 0.0
C339 C 0.79917 0.7968 0.5286 0.0
Co340 Co 0.24265 0.01721 0.56543 0.0
Co341 Co 0.22244 0.04212 0.56282 0.0
C342 C 0.2239 0.02324 0.63292 0.0
O343 O 0.23213 0.01548 0.61539 0.0
O344 O 0.22013 0.03539 0.61726 0.0
C345 C 0.26962 0.00796 0.59635 0.0
O346 O 0.26839 0.01752 0.62476 0.0
C347 C 0.21543 0.07554 0.56958 0.0
C348 C 0.19426 0.06865 0.52454 0.0
C349 C 0.20434 0.08221 0.55178 0.0
N350 N 0.21208 0.0589 0.55325 0.0
N351 N 0.19936 0.05489 0.52648 0.0
C352 C 0.22806 0.0841 0.60277 0.0
H353 H 0.23026 0.07299 0.61704 0.0
H354 H 0.24248 0.09614 0.59425 0.0
H355 H 0.22148 0.0901 0.6219 0.0
C356 C 0.27463 0.05213 0.53068 0.0
N357 N 0.25705 0.04288 0.547 0.0
N358 N 0.24862 0.05347 0.54402 0.0
C359 C 0.2606 0.06975 0.52471 0.0
C360 C 0.27764 0.06957 0.51614 0.0
C361 C 0.28728 0.0433 0.52523 0.0
H362 H 0.29309 0.04212 0.55227 0.0
H363 H 0.29961 0.05206 0.50641 0.0
H364 H 0.27849 0.02846 0.51367 0.0
O365 O 0.22057 1.00083 0.53316 0.0
O366 O 0.20487 0.01735 0.53562 0.0
H367 H 0.24069 0.07725 0.50023 0.0
H368 H 0.26608 0.09505 0.49284 0.0
C369 C 0.25539 0.0846 0.51278 0.0
H370 H 0.25505 0.09276 0.5372 0.0
H371 H 0.19421 0.04278 0.50931 0.0
O372 O 0.25956 0.00587 0.56776 0.0
C373 C 0.20591 0.00255 0.52517 0.0
Co374 Co 0.98436 0.22561 0.56724 0.0
Co375 Co 0.95983 0.18044 0.56474 0.0
C376 C 0.97595 0.20125 0.63613 0.0
O377 O 0.98318 0.21715 0.61842 0.0
O378 O 0.96582 0.18498 0.61967 0.0
C379 C 0.98981 0.26197 0.59037 0.0
O380 O 0.97375 0.25123 0.60903 0.0
C381 C 0.92639 0.13979 0.56983 0.0
C382 C 0.93407 0.12609 0.52488 0.0
C383 C 0.92005 0.12227 0.55131 0.0
N384 N 0.94329 0.15329 0.55464 0.0
N385 N 0.94777 0.14491 0.52794 0.0
C386 C 0.91727 0.1434 0.60268 0.0
H387 H 0.92804 0.15668 0.61747 0.0
H388 H 0.90512 0.14552 0.59375 0.0
H389 H 0.91126 0.13067 0.62146 0.0
C390 C 0.95052 0.22251 0.52705 0.0
N391 N 0.95956 0.21443 0.54512 0.0
N392 N 0.94882 0.19535 0.54359 0.0
C393 C 0.93257 0.19079 0.52388 0.0
C394 C 0.933 0.2079 0.51341 0.0
C395 C 0.95937 0.2438 0.51936 0.0
H396 H 0.97524 0.25047 0.51499 0.0
H397 H 0.95676 0.25093 0.54318 0.0
H398 H 0.95282 0.24643 0.4946 0.0
O399 O 1.00188 0.21959 0.53919 0.0
O400 O 0.98492 0.1874 0.53943 0.0
H401 H 0.92429 0.16256 0.50252 0.0
H402 H 0.90693 0.17053 0.49342 0.0
C403 C 0.91733 0.17056 0.51385 0.0
H404 H 0.90919 0.16291 0.53893 0.0
H405 H 0.96013 0.1521 0.51145 0.0
O406 O 0.99663 0.25388 0.56986 0.0
C407 C 1.00017 0.20326 0.53086 0.0
Co408 Co 0.91065 0.55953 0.398 0.0
Co409 Co 0.89005 0.51436 0.39611 0.0
C410 C 0.89488 0.53541 0.46719 0.0
O411 O 0.90349 0.55126 0.4493 0.0
O412 O 0.88874 0.5191 0.45091 0.0
C413 C 0.94173 0.59567 0.42089 0.0
O414 O 0.94684 0.5847 0.43933 0.0
C415 C 0.88304 0.47385 0.40209 0.0
C416 C 0.86135 0.45971 0.35776 0.0
C417 C 0.87178 0.45617 0.38415 0.0
N418 N 0.87947 0.48718 0.38661 0.0
N419 N 0.86642 0.47854 0.3603 0.0
C420 C 0.89601 0.47778 0.43469 0.0
H421 H 0.89861 0.49118 0.44909 0.0
H422 H 0.91022 0.47984 0.42555 0.0
H423 H 0.88945 0.46523 0.45389 0.0
C424 C 0.94125 0.55625 0.35765 0.0
N425 N 0.92423 0.54825 0.37599 0.0
N426 N 0.91587 0.52916 0.3747 0.0
C427 C 0.92746 0.52451 0.35487 0.0
C428 C 0.94409 0.54157 0.34409 0.0
C429 C 0.9536 0.5775 0.34947 0.0
H430 H 0.94434 0.58413 0.34524 0.0
H431 H 0.96352 0.58477 0.373 0.0
H432 H 0.96259 0.58 0.32448 0.0
O433 O 0.88704 0.55341 0.37004 0.0
O434 O 0.87185 0.52121 0.37068 0.0
H435 H 0.90737 0.49627 0.33381 0.0
H436 H 0.93263 0.50411 0.32436 0.0
C437 C 0.92237 0.50424 0.34493 0.0
H438 H 0.92293 0.49663 0.37 0.0
H439 H 0.86108 0.48556 0.34372 0.0
O440 O 0.92678 0.58781 0.40045 0.0
C441 C 0.87242 0.53703 0.36193 0.0
Co442 Co 0.44493 0.35026 0.40271 0.0
Co443 Co 0.48969 0.37576 0.39495 0.0
C444 C 0.47125 0.35748 0.46745 0.0
O445 O 0.45479 0.34921 0.45166 0.0
O446 O 0.48657 0.36963 0.45011 0.0
C447 C 0.40803 0.33685 0.43605 0.0
O448 O 0.41824 0.34403 0.46628 0.0
C449 C 0.52906 0.4109 0.39653 0.0
C450 C 0.54472 0.4018 0.35844 0.0
C451 C 0.54716 0.41707 0.38054 0.0
N452 N 0.5166 0.39287 0.38415 0.0
N453 N 0.5261 0.38757 0.36145 0.0
C454 C 0.52386 0.42127 0.4247 0.0
H455 H 0.51062 0.4108 0.43998 0.0
H456 H 0.52083 0.43189 0.41078 0.0
H457 H 0.53613 0.42934 0.44409 0.0
C458 C 0.44572 0.38402 0.36805 0.0
N459 N 0.45517 0.37572 0.38362 0.0
N460 N 0.47385 0.3862 0.37651 0.0
C461 C 0.47669 0.40119 0.35436 0.0
C462 C 0.45885 0.40027 0.34808 0.0
C463 C 0.42437 0.3764 0.3725 0.0
H464 H 0.42024 0.37241 0.40168 0.0
H465 H 0.42029 0.38738 0.36461 0.0
H466 H 0.41615 0.36318 0.35533 0.0
O467 O 0.45051 0.33394 0.36987 0.0
O468 O 0.48269 0.35092 0.36852 0.0
H469 H 0.49289 0.4193 0.30846 0.0
H470 H 0.50392 0.42764 0.35287 0.0
C471 C 0.49549 0.41454 0.33556 0.0
H472 H 0.50415 0.40726 0.33157 0.0
H473 H 0.51989 0.37419 0.34796 0.0
O474 O 0.41662 0.33788 0.40598 0.0
C475 C 0.46671 0.33582 0.35992 0.0
Co476 Co 0.65359 0.09462 0.40042 0.0
Co477 Co 0.62782 0.1138 0.39675 0.0
C478 C 0.6461 0.11279 0.46749 0.0
O479 O 0.65425 0.10488 0.4502 0.0
O480 O 0.63386 0.1163 0.45147 0.0
C481 C 0.65907 0.06426 0.42671 0.0
O482 O 0.64272 0.05904 0.44426 0.0
C483 C 0.59439 0.12112 0.40081 0.0
C484 C 0.60144 0.14107 0.35354 0.0
C485 C 0.5879 0.13186 0.38119 0.0
N486 N 0.61095 0.12384 0.38513 0.0
N487 N 0.61503 0.13583 0.35698 0.0
C488 C 0.58572 0.10948 0.43506 0.0
H489 H 0.59646 0.10682 0.44957 0.0
H490 H 0.57298 0.09524 0.42783 0.0
H491 H 0.58063 0.11717 0.4535 0.0
C492 C 0.61949 0.06234 0.36306 0.0
N493 N 0.62828 0.07973 0.38024 0.0
N494 N 0.61714 0.08759 0.37811 0.0
C495 C 0.60081 0.07528 0.35926 0.0
C496 C 0.60166 0.05872 0.34962 0.0
C497 C 0.62899 0.0505 0.35522 0.0
H498 H 0.64483 0.06012 0.3512 0.0
H499 H 0.62653 0.04065 0.3788 0.0
H500 H 0.62278 0.04143 0.33021 0.0
O501 O 0.66997 0.11671 0.36861 0.0
O502 O 0.65284 0.13177 0.37038 0.0
H503 H 0.59145 0.09369 0.33464 0.0
H504 H 0.57372 0.06799 0.33203 0.0
C505 C 0.58508 0.07959 0.3494 0.0
H506 H 0.57823 0.08089 0.37496 0.0
H507 H 0.6271 0.14039 0.33991 0.0
O508 O 0.66614 0.07897 0.40563 0.0
C509 C 0.66791 0.13113 0.36038 0.0
Co510 Co 0.89401 0.57678 0.79674 0.0
Co511 Co 0.84875 0.55548 0.79883 0.0
C512 C 0.86995 0.56044 0.72769 0.0
O513 O 0.88582 0.56923 0.74547 0.0
O514 O 0.85363 0.55418 0.74399 0.0
C515 C 0.93024 0.60547 0.76898 0.0
O516 O 0.91942 0.60591 0.74207 0.0
C517 C 0.80823 0.54834 0.79319 0.0
C518 C 0.79403 0.52614 0.83664 0.0
C519 C 0.79053 0.5369 0.81093 0.0
N520 N 0.82152 0.54456 0.80816 0.0
N521 N 0.81284 0.5312 0.83394 0.0
C522 C 0.81224 0.56171 0.76121 0.0
H523 H 0.82551 0.56422 0.74641 0.0
H524 H 0.8146 0.57592 0.77112 0.0
H525 H 0.79962 0.55553 0.74215 0.0
C526 C 0.89024 0.60741 0.83496 0.0
N527 N 0.88227 0.59007 0.8178 0.0
N528 N 0.86321 0.58137 0.82 0.0
C529 C 0.85853 0.59296 0.8398 0.0
C530 C 0.87554 0.61 0.84927 0.0
C531 C 0.91163 0.6205 0.8405 0.0
H532 H 0.91822 0.61189 0.85042 0.0
H533 H 0.91843 0.62723 0.81379 0.0
H534 H 0.91482 0.63221 0.86067 0.0
O535 O 0.88822 0.55327 0.82511 0.0
O536 O 0.85601 0.53769 0.82441 0.0
H537 H 0.8304 0.5722 0.86053 0.0
H538 H 0.83841 0.59714 0.87331 0.0
C539 C 0.83834 0.58752 0.85108 0.0
H540 H 0.83056 0.58893 0.82704 0.0
H541 H 0.81983 0.52567 0.85009 0.0
O542 O 0.92228 0.5939 0.79579 0.0
C543 C 0.87193 0.53851 0.83323 0.0
Co544 Co 0.42915 0.31945 0.79308 0.0
Co545 Co 0.44839 0.29392 0.80137 0.0
C546 C 0.44828 0.31212 0.72863 0.0
O547 O 0.44006 0.3204 0.74422 0.0
O548 O 0.45147 0.30002 0.74617 0.0
C549 C 0.40575 0.333 0.75959 0.0
O550 O 0.40886 0.32596 0.72928 0.0
C551 C 0.4525 0.25868 0.80021 0.0
C552 C 0.4773 0.26783 0.83819 0.0
C553 C 0.46441 0.25249 0.81628 0.0
N554 N 0.45813 0.27676 0.81237 0.0
N555 N 0.47297 0.28209 0.83501 0.0
C556 C 0.43686 0.24826 0.77217 0.0
H557 H 0.4341 0.25871 0.75678 0.0
H558 H 0.42323 0.23771 0.78621 0.0
H559 H 0.44099 0.2401 0.75285 0.0
C560 C 0.39618 0.2858 0.82787 0.0
N561 N 0.41391 0.29402 0.8123 0.0
N562 N 0.42211 0.28356 0.81968 0.0
C563 C 0.40997 0.26866 0.84201 0.0
C564 C 0.39307 0.26963 0.84813 0.0
C565 C 0.38246 0.29343 0.8232 0.0
H566 H 0.38233 0.29736 0.79397 0.0
H567 H 0.36741 0.28248 0.8311 0.0
H568 H 0.38746 0.30668 0.84026 0.0
O569 O 0.45104 0.3358 0.82592 0.0
O570 O 0.46621 0.31877 0.82779 0.0
H571 H 0.40812 0.2508 0.88831 0.0
H572 H 0.41074 0.24222 0.84413 0.0
C573 C 0.41544 0.25541 0.86116 0.0
H574 H 0.43139 0.2627 0.86511 0.0
H575 H 0.4802 0.29552 0.84833 0.0
O576 O 0.41324 0.33185 0.78967 0.0
C577 C 0.46533 0.33391 0.83614 0.0
Co578 Co 0.68414 0.10976 0.79742 0.0
Co579 Co 0.70908 0.15488 0.80057 0.0
C580 C 0.69044 0.13485 0.73018 0.0
O581 O 0.68262 0.11883 0.7476 0.0
O582 O 0.70261 0.15072 0.74596 0.0
C583 C 0.67529 0.07383 0.76573 0.0
O584 O 0.68516 0.0849 0.73783 0.0
C585 C 0.74281 0.19527 0.79562 0.0
C586 C 0.73515 0.20942 0.83974 0.0
C587 C 0.74923 0.21292 0.81366 0.0
N588 N 0.72578 0.18199 0.81074 0.0
N589 N 0.72132 0.19063 0.83696 0.0
C590 C 0.75194 0.19138 0.76314 0.0
H591 H 0.74139 0.17759 0.74947 0.0
H592 H 0.7646 0.19015 0.77219 0.0
H593 H 0.75727 0.20364 0.74333 0.0
C594 C 0.71885 0.11251 0.83278 0.0
N595 N 0.70971 0.12093 0.81631 0.0
N596 N 0.72032 0.13993 0.81949 0.0
C597 C 0.7365 0.14414 0.83908 0.0
C598 C 0.73624 0.12687 0.84761 0.0
C599 C 0.70992 0.09101 0.8381 0.0
H600 H 0.70905 0.08409 0.81111 0.0
H601 H 0.71843 0.08735 0.85742 0.0
H602 H 0.69496 0.08495 0.849 0.0
O603 O 0.66762 0.1153 0.82957 0.0
O604 O 0.68416 0.14753 0.82736 0.0
H605 H 0.74406 0.1717 0.86294 0.0
H606 H 0.76151 0.16381 0.87178 0.0
C607 C 0.75137 0.16414 0.85118 0.0
H608 H 0.75992 0.1725 0.82697 0.0
H609 H 0.70886 0.18365 0.85323 0.0
O610 O 0.67286 0.08151 0.79438 0.0
C611 C 0.66932 0.13167 0.8376 0.0
Co612 Co 0.42682 0.10958 0.29865 0.0
Co613 Co 0.44737 0.15472 0.30032 0.0
C614 C 0.44234 0.13356 0.22927 0.0
O615 O 0.4338 0.11775 0.24727 0.0
O616 O 0.44851 0.1499 0.24546 0.0
C617 C 0.39585 0.07327 0.27611 0.0
O618 O 0.39051 0.08406 0.25764 0.0
C619 C 0.45448 0.19529 0.29405 0.0
C620 C 0.47656 0.20957 0.33768 0.0
C621 C 0.46604 0.21307 0.31144 0.0
N622 N 0.458 0.18195 0.30965 0.0
N623 N 0.47126 0.19067 0.33559 0.0
C624 C 0.44128 0.19127 0.26179 0.0
H625 H 0.43811 0.17752 0.24806 0.0
H626 H 0.42736 0.18986 0.27119 0.0
H627 H 0.44799 0.20353 0.24195 0.0
C628 C 0.39636 0.11278 0.3395 0.0
N629 N 0.4133 0.12082 0.32089 0.0
N630 N 0.42161 0.1399 0.3221 0.0
C631 C 0.41004 0.14451 0.3421 0.0
C632 C 0.39349 0.12742 0.35317 0.0
C633 C 0.38414 0.09153 0.34781 0.0
H634 H 0.39349 0.085 0.3519 0.0
H635 H 0.37416 0.08418 0.3244 0.0
H636 H 0.37523 0.08901 0.37292 0.0
O637 O 0.45048 0.11576 0.32634 0.0
O638 O 0.46575 0.14796 0.32539 0.0
H639 H 0.43003 0.17285 0.36291 0.0
H640 H 0.40472 0.16494 0.37215 0.0
C641 C 0.41504 0.16479 0.35174 0.0
H642 H 0.4145 0.17232 0.3265 0.0
H643 H 0.47664 0.18367 0.35211 0.0
O644 O 0.41083 0.08132 0.29643 0.0
C645 C 0.46517 0.13213 0.33418 0.0
Co646 Co 0.89337 0.31746 0.29776 0.0
Co647 Co 0.84821 0.29301 0.29916 0.0
C648 C 0.86947 0.3094 0.22833 0.0
O649 O 0.88527 0.31655 0.24637 0.0
O650 O 0.85312 0.29921 0.24443 0.0
C651 C 0.92983 0.3229 0.27547 0.0
O652 O 0.91917 0.30703 0.25624 0.0
C653 C 0.80752 0.25984 0.29269 0.0
C654 C 0.7935 0.2676 0.3369 0.0
C655 C 0.78982 0.25367 0.31034 0.0
N656 N 0.82099 0.27657 0.30846 0.0
N657 N 0.81243 0.28109 0.33472 0.0
C658 C 0.81136 0.25073 0.26009 0.0
H659 H 0.82494 0.2614 0.24601 0.0
H660 H 0.81302 0.23832 0.26919 0.0
H661 H 0.79893 0.24508 0.24062 0.0
C662 C 0.88991 0.28338 0.33763 0.0
N663 N 0.88198 0.29253 0.31948 0.0
N664 N 0.86289 0.28183 0.32054 0.0
C665 C 0.85817 0.26546 0.34001 0.0
C666 C 0.87519 0.2658 0.35083 0.0
C667 C 0.91114 0.29214 0.34579 0.0
H668 H 0.9178 0.30798 0.35056 0.0
H669 H 0.9184 0.28967 0.32202 0.0
H670 H 0.9136 0.28539 0.37045 0.0
O671 O 0.88725 0.33491 0.3258 0.0
O672 O 0.85508 0.318 0.32476 0.0
H673 H 0.8298 0.25714 0.36053 0.0
H674 H 0.83768 0.23974 0.36997 0.0
C675 C 0.83787 0.2502 0.34949 0.0
H676 H 0.83041 0.24214 0.3242 0.0
H677 H 0.81954 0.29337 0.35145 0.0
O678 O 0.92165 0.32964 0.29595 0.0
C679 C 0.87089 0.33319 0.33376 0.0
Co680 Co 0.68731 0.57808 0.29626 0.0
Co681 Co 0.71068 0.55621 0.29802 0.0
C682 C 0.69437 0.5615 0.227 0.0
O683 O 0.68761 0.57057 0.24484 0.0
O684 O 0.70431 0.55506 0.24325 0.0
C685 C 0.67986 0.6072 0.27004 0.0
O686 O 0.69087 0.60783 0.24249 0.0
C687 C 0.74389 0.54887 0.29185 0.0
C688 C 0.73573 0.52631 0.33463 0.0
C689 C 0.75007 0.53726 0.3092 0.0
N690 N 0.7268 0.54501 0.30679 0.0
N691 N 0.72201 0.53143 0.33214 0.0
C692 C 0.75334 0.56249 0.26024 0.0
H693 H 0.74262 0.56508 0.24549 0.0
H694 H 0.76513 0.57664 0.27053 0.0
H695 H 0.75988 0.55647 0.24103 0.0
C696 C 0.7218 0.60823 0.33498 0.0
N697 N 0.71233 0.59103 0.31734 0.0
N698 N 0.72244 0.58206 0.31952 0.0
C699 C 0.73863 0.59331 0.33978 0.0
C700 C 0.7389 0.61044 0.34958 0.0
C701 C 0.71362 0.6214 0.34103 0.0
H702 H 0.71362 0.62834 0.31454 0.0
H703 H 0.72216 0.63294 0.36149 0.0
H704 H 0.69842 0.6128 0.3509 0.0
O705 O 0.66943 0.55459 0.32433 0.0
O706 O 0.68561 0.53856 0.32367 0.0
H707 H 0.74533 0.57205 0.36044 0.0
H708 H 0.76256 0.59682 0.37374 0.0
C709 C 0.75303 0.58742 0.35127 0.0
H710 H 0.76228 0.58875 0.32742 0.0
H711 H 0.70946 0.52581 0.34819 0.0
O712 O 0.67638 0.59534 0.29628 0.0
C713 C 0.67065 0.53965 0.3324 0.0
Co714 Co 0.44347 0.09117 0.90021 0.0
Co715 Co 0.48873 0.11304 0.89827 0.0
C716 C 0.46725 0.1075 0.96943 0.0
O717 O 0.4514 0.09846 0.95164 0.0
O718 O 0.4836 0.11408 0.9531 0.0
C719 C 0.40716 0.06188 0.92675 0.0
O720 O 0.41781 0.06112 0.95367 0.0
C721 C 0.52938 0.12059 0.90458 0.0
C722 C 0.54374 0.14324 0.86196 0.0
C723 C 0.5472 0.13239 0.88751 0.0
N724 N 0.51606 0.12427 0.88942 0.0
N725 N 0.52483 0.13789 0.86413 0.0
C726 C 0.52528 0.10698 0.93617 0.0
H727 H 0.51169 0.10395 0.95039 0.0
H728 H 0.52347 0.09302 0.92596 0.0
H729 H 0.53764 0.11325 0.95584 0.0
C730 C 0.44778 0.06112 0.86095 0.0
N731 N 0.45552 0.07829 0.87871 0.0
N732 N 0.4746 0.08722 0.87662 0.0
C733 C 0.47953 0.07596 0.85638 0.0
C734 C 0.46265 0.05887 0.84641 0.0
C735 C 0.42644 0.04799 0.85483 0.0
H736 H 0.4198 0.05666 0.84551 0.0
H737 H 0.41952 0.0408 0.88118 0.0
H738 H 0.42344 0.03664 0.83395 0.0
O739 O 0.44903 0.11476 0.87252 0.0
O740 O 0.48125 0.13075 0.87294 0.0
H741 H 0.50751 0.09706 0.83569 0.0
H742 H 0.50003 0.07219 0.8232 0.0
C743 C 0.49983 0.08175 0.84526 0.0
H744 H 0.5077 0.08062 0.86944 0.0
H745 H 0.51784 0.14344 0.848 0.0
O746 O 0.41527 0.07386 0.90058 0.0
C747 C 0.46518 0.12971 0.86444 0.0
Co748 Co 0.91092 0.35173 0.89913 0.0
Co749 Co 0.88934 0.37542 0.89644 0.0
C750 C 0.8946 0.35952 0.96793 0.0
O751 O 0.9035 0.35249 0.95038 0.0
O752 O 0.88819 0.36939 0.95136 0.0
C753 C 0.93972 0.34433 0.9269 0.0
O754 O 0.9401 0.35555 0.95384 0.0
C755 C 0.8829 0.4092 0.90186 0.0
C756 C 0.85984 0.40099 0.86013 0.0
C757 C 0.87135 0.41554 0.88482 0.0
N758 N 0.87848 0.39182 0.88746 0.0
N759 N 0.86461 0.38701 0.86272 0.0
C760 C 0.897 0.41879 0.93274 0.0
H761 H 0.89961 0.40807 0.94749 0.0
H762 H 0.91107 0.43034 0.9217 0.0
H763 H 0.89143 0.42567 0.95214 0.0
C764 C 0.94121 0.38589 0.85994 0.0
N765 N 0.92403 0.37665 0.87767 0.0
N766 N 0.91513 0.38681 0.87489 0.0
C767 C 0.92638 0.40275 0.85403 0.0
C768 C 0.94345 0.40284 0.84457 0.0
C769 C 0.95432 0.37759 0.85456 0.0
H770 H 0.94572 0.36238 0.84468 0.0
H771 H 0.96102 0.37754 0.88132 0.0
H772 H 0.96605 0.3861 0.83442 0.0
O773 O 0.88736 0.33389 0.87098 0.0
O774 O 0.87152 0.35029 0.87112 0.0
H775 H 0.90496 0.40914 0.83301 0.0
H776 H 0.92953 0.42577 0.81783 0.0
C777 C 0.92046 0.41695 0.84128 0.0
H778 H 0.92231 0.42692 0.86419 0.0
H779 H 0.85853 0.37425 0.8472 0.0
O780 O 0.92813 0.34068 0.9001 0.0
C781 C 0.87251 0.33522 0.86264 0.0
Co782 Co 0.65231 0.55981 0.89736 0.0
Co783 Co 0.62752 0.51464 0.89599 0.0
C784 C 0.64352 0.53604 0.96699 0.0
O785 O 0.65086 0.55183 0.94893 0.0
O786 O 0.63347 0.51967 0.95084 0.0
C787 C 0.65787 0.59631 0.91916 0.0
O788 O 0.64182 0.58565 0.93787 0.0
C789 C 0.5938 0.47424 0.90245 0.0
C790 C 0.60173 0.45955 0.85987 0.0
C791 C 0.58757 0.45633 0.88558 0.0
N792 N 0.61081 0.48739 0.88708 0.0
N793 N 0.61542 0.47843 0.86177 0.0
C794 C 0.5845 0.47855 0.93411 0.0
H795 H 0.59503 0.49243 0.94754 0.0
H796 H 0.57203 0.47987 0.92414 0.0
H797 H 0.57889 0.46647 0.95437 0.0
C798 C 0.6188 0.55668 0.85599 0.0
N799 N 0.6276 0.54861 0.87484 0.0
N800 N 0.61675 0.52953 0.87375 0.0
C801 C 0.60064 0.52496 0.85355 0.0
C802 C 0.60129 0.54207 0.84228 0.0
C803 C 0.62788 0.57793 0.84763 0.0
H804 H 0.62532 0.58533 0.87106 0.0
H805 H 0.62145 0.58047 0.82256 0.0
H806 H 0.64373 0.5844 0.84344 0.0
O807 O 0.66977 0.55334 0.87025 0.0
O808 O 0.65258 0.52115 0.87101 0.0
H809 H 0.59227 0.49645 0.83365 0.0
H810 H 0.57525 0.50461 0.8226 0.0
C811 C 0.58535 0.50471 0.84382 0.0
H812 H 0.57688 0.49736 0.86881 0.0
H813 H 0.62792 0.48523 0.84554 0.0
O814 O 0.66473 0.58812 0.89901 0.0
C815 C 0.66793 0.5369 0.86239 0.0
Co816 Co 0.5776 0.89295 0.73241 0.0
Co817 Co 0.55599 0.84766 0.73061 0.0
C818 C 0.5606 0.86907 0.80141 0.0
O819 O 0.56957 0.88489 0.78352 0.0
O820 O 0.55446 0.85271 0.78528 0.0
C821 C 0.60631 0.9293 0.76009 0.0
O822 O 0.60672 0.91858 0.78722 0.0
C823 C 0.54876 0.80714 0.73725 0.0
C824 C 0.52623 0.79258 0.69446 0.0
C825 C 0.53711 0.78927 0.72021 0.0
N826 N 0.54497 0.82035 0.72188 0.0
N827 N 0.53143 0.81146 0.69649 0.0
C828 C 0.5623 0.8114 0.76901 0.0
H829 H 0.56524 0.82501 0.78303 0.0
H830 H 0.5763 0.81324 0.75903 0.0
H831 H 0.55603 0.79909 0.78879 0.0
C832 C 0.60822 0.88882 0.69515 0.0
N833 N 0.59085 0.88099 0.71214 0.0
N834 N 0.58199 0.86191 0.70989 0.0
C835 C 0.59349 0.85708 0.69022 0.0
C836 C 0.61065 0.87401 0.6809 0.0
C837 C 0.62142 0.91019 0.68951 0.0
H838 H 0.61291 0.91682 0.67919 0.0
H839 H 0.62804 0.91704 0.71626 0.0
H840 H 0.63321 0.91328 0.66961 0.0
O841 O 0.55441 0.88726 0.70323 0.0
O842 O 0.53844 0.85503 0.70426 0.0
H843 H 0.5725 0.82906 0.66936 0.0
H844 H 0.59737 0.83683 0.6565 0.0
C845 C 0.58783 0.83685 0.67878 0.0
H846 H 0.58915 0.82897 0.70274 0.0
H847 H 0.52583 0.81834 0.6802 0.0
O848 O 0.5948 0.92122 0.73324 0.0
C849 C 0.53956 0.87105 0.69503 0.0
Co850 Co 0.11095 0.68548 0.73026 0.0
Co851 Co 0.15621 0.70943 0.72865 0.0
C852 C 0.1348 0.6926 0.79941 0.0
O853 O 0.119 0.68562 0.78143 0.0
O854 O 0.15115 0.70291 0.78337 0.0
C855 C 0.0747 0.67782 0.75808 0.0
O856 O 0.08551 0.68893 0.78515 0.0
C857 C 0.19653 0.74306 0.73492 0.0
C858 C 0.2113 0.7351 0.69258 0.0
C859 C 0.21442 0.74943 0.71787 0.0
N860 N 0.1835 0.72588 0.71996 0.0
N861 N 0.19251 0.72122 0.69486 0.0
C862 C 0.1921 0.75243 0.76632 0.0
H863 H 0.17863 0.74168 0.78061 0.0
H864 H 0.18991 0.7643 0.7559 0.0
H865 H 0.20446 0.75885 0.78596 0.0
C866 C 0.11482 0.72008 0.69272 0.0
N867 N 0.12275 0.71066 0.70985 0.0
N868 N 0.14182 0.72097 0.7076 0.0
C869 C 0.14653 0.73722 0.68771 0.0
C870 C 0.12954 0.73732 0.67833 0.0
C871 C 0.09343 0.71181 0.68714 0.0
H872 H 0.08659 0.7115 0.71392 0.0
H873 H 0.09027 0.7205 0.66733 0.0
H874 H 0.08688 0.6967 0.67675 0.0
O875 O 0.11681 0.668 0.70132 0.0
O876 O 0.14903 0.68449 0.70257 0.0
H877 H 0.17466 0.74431 0.66738 0.0
H878 H 0.16653 0.76092 0.65294 0.0
C879 C 0.16669 0.7518 0.67594 0.0
H880 H 0.17447 0.76146 0.69945 0.0
H881 H 0.18577 0.70862 0.67888 0.0
O882 O 0.08267 0.67435 0.73111 0.0
C883 C 0.1331 0.66948 0.69334 0.0
Co884 Co 0.32028 0.42932 0.7285 0.0
Co885 Co 0.29481 0.44886 0.72767 0.0
C886 C 0.31426 0.44736 0.79713 0.0
O887 O 0.322 0.43933 0.77891 0.0
O888 O 0.30191 0.45106 0.78208 0.0
C889 C 0.33058 0.40262 0.75695 0.0
O890 O 0.32063 0.40275 0.78573 0.0
C891 C 0.26122 0.45573 0.73464 0.0
C892 C 0.26851 0.47741 0.69041 0.0
C893 C 0.25478 0.46711 0.71722 0.0
N894 N 0.27793 0.45916 0.71854 0.0
N895 N 0.28216 0.47218 0.69223 0.0
C896 C 0.25242 0.4428 0.76736 0.0
H897 H 0.26329 0.44008 0.7812 0.0
H898 H 0.2401 0.42864 0.7584 0.0
H899 H 0.24671 0.44945 0.78697 0.0
C900 C 0.28551 0.39707 0.69394 0.0
N901 N 0.29461 0.41464 0.71036 0.0
N902 N 0.2837 0.42275 0.70813 0.0
C903 C 0.26734 0.41055 0.6892 0.0
C904 C 0.26784 0.39372 0.68011 0.0
C905 C 0.29456 0.38465 0.68809 0.0
H906 H 0.3093 0.39358 0.67623 0.0
H907 H 0.29599 0.37889 0.71502 0.0
H908 H 0.2858 0.37227 0.66935 0.0
O909 O 0.33627 0.45166 0.6967 0.0
O910 O 0.31937 0.46689 0.70046 0.0
H911 H 0.25891 0.43023 0.66692 0.0
H912 H 0.24185 0.40479 0.65777 0.0
C913 C 0.25202 0.41529 0.67833 0.0
H914 H 0.24363 0.41474 0.70308 0.0
H915 H 0.29437 0.47746 0.6753 0.0
O916 O 0.33232 0.4131 0.72926 0.0
C917 C 0.33426 0.46621 0.68944 0.0
Co918 Co 0.56046 0.91087 0.13008 0.0
Co919 Co 0.51526 0.88911 0.13387 0.0
C920 C 0.53585 0.89418 0.0619 0.0
O921 O 0.55189 0.90321 0.07906 0.0
O922 O 0.51969 0.88776 0.07885 0.0
C923 C 0.5962 0.93984 0.10125 0.0
O924 O 0.58503 0.94004 0.07479 0.0
C925 C 0.47485 0.88206 0.12915 0.0
C926 C 0.46058 0.85944 0.17186 0.0
C927 C 0.45714 0.87049 0.14673 0.0
N928 N 0.48809 0.87808 0.14366 0.0
N929 N 0.47938 0.86447 0.16899 0.0
C930 C 0.47894 0.89577 0.09773 0.0
H931 H 0.49208 0.89821 0.08253 0.0
H932 H 0.4816 0.90997 0.10833 0.0
H933 H 0.46626 0.88995 0.07885 0.0
C934 C 0.55669 0.94121 0.16937 0.0
N935 N 0.54871 0.92396 0.15188 0.0
N936 N 0.52967 0.91502 0.15498 0.0
C937 C 0.52504 0.92634 0.17576 0.0
C938 C 0.54203 0.94347 0.1849 0.0
C939 C 0.57811 0.95445 0.17427 0.0
H940 H 0.58488 0.94594 0.18383 0.0
H941 H 0.58464 0.96116 0.1474 0.0
H942 H 0.58139 0.96617 0.19447 0.0
O943 O 0.55516 0.8875 0.15842 0.0
O944 O 0.52294 0.87155 0.15899 0.0
H945 H 0.4974 0.90506 0.19759 0.0
H946 H 0.50526 0.9298 0.21165 0.0
C947 C 0.50497 0.92046 0.18864 0.0
H948 H 0.49668 0.92193 0.16556 0.0
H949 H 0.48634 0.85875 0.1847 0.0
O950 O 0.58865 0.92827 0.1282 0.0
C951 C 0.53906 0.87264 0.16712 0.0
Co952 Co 0.09374 0.65074 0.12874 0.0
Co953 Co 0.11434 0.62617 0.13083 0.0
C954 C 0.10922 0.64212 0.05958 0.0
O955 O 0.10058 0.64936 0.07736 0.0
O956 O 0.11557 0.63216 0.07598 0.0
C957 C 0.06279 0.65629 0.10637 0.0
O958 O 0.05737 0.64022 0.08766 0.0
C959 C 0.12155 0.59277 0.12472 0.0
C960 C 0.14288 0.60015 0.16966 0.0
C961 C 0.13274 0.58632 0.14287 0.0
N962 N 0.12489 0.60954 0.14046 0.0
N963 N 0.13773 0.61384 0.16714 0.0
C964 C 0.10881 0.58385 0.09179 0.0
H965 H 0.10653 0.59479 0.07708 0.0
H966 H 0.09444 0.57185 0.10065 0.0
H967 H 0.11537 0.5777 0.07295 0.0
C968 C 0.06318 0.61698 0.16938 0.0
N969 N 0.0802 0.62597 0.15102 0.0
N970 N 0.08853 0.61522 0.15232 0.0
C971 C 0.07693 0.59899 0.17214 0.0
C972 C 0.06031 0.59945 0.18295 0.0
C973 C 0.05085 0.62591 0.17746 0.0
H974 H 0.06011 0.64178 0.18174 0.0
H975 H 0.04098 0.62329 0.15386 0.0
H976 H 0.04181 0.6194 0.20239 0.0
O977 O 0.11746 0.66826 0.15635 0.0
O978 O 0.13261 0.65122 0.1561 0.0
H979 H 0.09682 0.59069 0.19363 0.0
H980 H 0.07147 0.57312 0.20192 0.0
C981 C 0.08195 0.58374 0.1819 0.0
H982 H 0.08174 0.57586 0.15663 0.0
H983 H 0.14287 0.62609 0.18396 0.0
O984 O 0.07779 0.66309 0.12665 0.0
C985 C 0.13207 0.66651 0.16461 0.0
Co986 Co 0.35101 0.44451 0.12541 0.0
Co987 Co 0.37731 0.48925 0.13163 0.0
C988 C 0.35955 0.47052 0.05937 0.0
O989 O 0.35091 0.45423 0.07575 0.0
O990 O 0.37169 0.48596 0.07641 0.0
C991 C 0.34182 0.40782 0.09646 0.0
O992 O 0.35628 0.41813 0.07381 0.0
C993 C 0.41219 0.529 0.12924 0.0
C994 C 0.40345 0.54397 0.16972 0.0
C995 C 0.41831 0.54694 0.14598 0.0
N996 N 0.39455 0.51614 0.14272 0.0
N997 N 0.38949 0.52524 0.16689 0.0
C998 C 0.42222 0.5244 0.09938 0.0
H999 H 0.41175 0.51094 0.08467 0.0
H1000 H 0.43368 0.52208 0.1116 0.0
H1001 H 0.42927 0.53673 0.07975 0.0
C1002 C 0.38386 0.4449 0.16441 0.0
N1003 N 0.3761 0.45426 0.14643 0.0
N1004 N 0.38715 0.47312 0.15133 0.0
C1005 C 0.40218 0.47626 0.17361 0.0
C1006 C 0.40059 0.45841 0.18271 0.0
C1007 C 0.37505 0.42323 0.1646 0.0
H1008 H 0.3742 0.41813 0.13596 0.0
H1009 H 0.38381 0.4184 0.1804 0.0
H1010 H 0.36012 0.41637 0.17604 0.0
O1011 O 0.33471 0.45068 0.15673 0.0
O1012 O 0.35231 0.48284 0.15711 0.0
H1013 H 0.42364 0.49401 0.21437 0.0
H1014 H 0.42743 0.50429 0.16886 0.0
C1015 C 0.41627 0.4956 0.18976 0.0
H1016 H 0.40862 0.50355 0.19742 0.0
H1017 H 0.37642 0.51869 0.18145 0.0
O1018 O 0.33749 0.41625 0.12124 0.0
C1019 C 0.33695 0.46712 0.16587 0.0
Co1020 Co 0.09485 0.44278 0.63115 0.0
Co1021 Co 0.11388 0.48779 0.63284 0.0
C1022 C 0.11254 0.4676 0.56295 0.0
O1023 O 0.10472 0.45175 0.58092 0.0
O1024 O 0.11612 0.48353 0.5783 0.0
C1025 C 0.06446 0.40654 0.60668 0.0
O1026 O 0.05916 0.4174 0.58836 0.0
C1027 C 0.12052 0.52828 0.62701 0.0
C1028 C 0.14088 0.54203 0.67343 0.0
C1029 C 0.13117 0.54578 0.64586 0.0
N1030 N 0.12375 0.51484 0.64308 0.0
N1031 N 0.13599 0.52326 0.67069 0.0
C1032 C 0.10848 0.52467 0.5931 0.0
H1033 H 0.10585 0.51113 0.57921 0.0
H1034 H 0.09424 0.52309 0.60059 0.0
H1035 H 0.11584 0.5372 0.574 0.0
C1036 C 0.06275 0.44489 0.66847 0.0
N1037 N 0.08 0.45335 0.65084 0.0
N1038 N 0.0878 0.47238 0.65219 0.0
C1039 C 0.07559 0.47654 0.67101 0.0
C1040 C 0.05915 0.45921 0.6814 0.0
C1041 C 0.05109 0.42365 0.67732 0.0
H1042 H 0.06083 0.4176 0.68175 0.0
H1043 H 0.04116 0.41591 0.65405 0.0
H1044 H 0.04214 0.42106 0.70241 0.0
O1045 O 0.11721 0.44905 0.66262 0.0
O1046 O 0.13213 0.48122 0.65961 0.0
H1047 H 0.09422 0.50462 0.69428 0.0
H1048 H 0.06854 0.49653 0.69818 0.0
C1049 C 0.07992 0.49666 0.6803 0.0
H1050 H 0.08074 0.50448 0.65455 0.0
H1051 H 0.14094 0.51613 0.68793 0.0
O1052 O 0.07927 0.4145 0.62745 0.0
C1053 C 0.13163 0.46564 0.6702 0.0
Co1054 Co 0.56087 0.653 0.63012 0.0
Co1055 Co 0.5158 0.62796 0.63338 0.0
C1056 C 0.53573 0.64653 0.56293 0.0
O1057 O 0.55179 0.65447 0.58021 0.0
O1058 O 0.51992 0.63441 0.57888 0.0
C1059 C 0.59667 0.66157 0.59857 0.0
O1060 O 0.58551 0.6515 0.5709 0.0
C1061 C 0.47528 0.59468 0.62716 0.0
C1062 C 0.46142 0.60148 0.6731 0.0
C1063 C 0.45768 0.58804 0.64548 0.0
N1064 N 0.48875 0.6112 0.64354 0.0
N1065 N 0.48028 0.61516 0.67086 0.0
C1066 C 0.47904 0.5862 0.5935 0.0
H1067 H 0.49224 0.59729 0.57902 0.0
H1068 H 0.48141 0.57407 0.6015 0.0
H1069 H 0.46632 0.58032 0.57472 0.0
C1070 C 0.55818 0.61822 0.66529 0.0
N1071 N 0.54976 0.62741 0.64899 0.0
N1072 N 0.53077 0.61674 0.65202 0.0
C1073 C 0.52655 0.60045 0.67121 0.0
C1074 C 0.54382 0.60073 0.67976 0.0
C1075 C 0.57966 0.62714 0.67073 0.0
H1076 H 0.58574 0.64214 0.68151 0.0
H1077 H 0.58661 0.62794 0.64382 0.0
H1078 H 0.58328 0.61866 0.6902 0.0
O1079 O 0.5553 0.66952 0.66229 0.0
O1080 O 0.52309 0.65282 0.66027 0.0
H1081 H 0.49924 0.59261 0.69635 0.0
H1082 H 0.50675 0.57463 0.70185 0.0
C1083 C 0.50652 0.58544 0.68282 0.0
H1084 H 0.49795 0.57773 0.65814 0.0
H1085 H 0.48743 0.62719 0.68819 0.0
O1086 O 0.58908 0.66428 0.62708 0.0
C1087 C 0.53891 0.66772 0.67045 0.0
Co1088 Co 0.35308 0.91023 0.63113 0.0
Co1089 Co 0.37708 0.88896 0.63216 0.0
C1090 C 0.36015 0.89373 0.56159 0.0
O1091 O 0.3532 0.90253 0.57975 0.0
O1092 O 0.37048 0.88764 0.57747 0.0
C1093 C 0.3451 0.93888 0.60442 0.0
O1094 O 0.35622 0.93955 0.57705 0.0
C1095 C 0.41057 0.88196 0.62583 0.0
C1096 C 0.40234 0.85911 0.66804 0.0
C1097 C 0.41671 0.87022 0.64279 0.0
N1098 N 0.39344 0.87799 0.64077 0.0
N1099 N 0.38863 0.86425 0.66581 0.0
C1100 C 0.42007 0.89572 0.59445 0.0
H1101 H 0.40961 0.89912 0.58086 0.0
H1102 H 0.43249 0.90947 0.6047 0.0
H1103 H 0.4258 0.88935 0.57425 0.0
C1104 C 0.38759 0.94079 0.66916 0.0
N1105 N 0.37824 0.92355 0.65165 0.0
N1106 N 0.38861 0.91484 0.65351 0.0
C1107 C 0.40487 0.92632 0.67341 0.0
C1108 C 0.4049 0.94332 0.68334 0.0
C1109 C 0.37914 0.9537 0.67547 0.0
H1110 H 0.37893 0.9606 0.64905 0.0
H1111 H 0.38761 0.96528 0.69591 0.0
H1112 H 0.36398 0.94491 0.68547 0.0
O1113 O 0.33563 0.88678 0.65976 0.0
O1114 O 0.35218 0.87113 0.65821 0.0
H1115 H 0.41222 0.90544 0.69357 0.0
H1116 H 0.42923 0.93032 0.70659 0.0
C1117 C 0.41961 0.9208 0.68434 0.0
H1118 H 0.42874 0.92227 0.66017 0.0
H1119 H 0.37604 0.85849 0.68176 0.0
O1120 O 0.34179 0.92723 0.63095 0.0
C1121 C 0.33715 0.87199 0.66755 0.0
Co1122 Co 0.1103 0.42747 0.23287 0.0
Co1123 Co 0.15525 0.44633 0.23045 0.0
C1124 C 0.13555 0.44524 0.30066 0.0
O1125 O 0.11963 0.43751 0.28291 0.0
O1126 O 0.15137 0.44867 0.2851 0.0
C1127 C 0.07431 0.39711 0.25823 0.0
O1128 O 0.08532 0.39174 0.2758 0.0
C1129 C 0.19602 0.45366 0.23541 0.0
C1130 C 0.20897 0.47329 0.18773 0.0
C1131 C 0.21328 0.46429 0.21583 0.0
N1132 N 0.18219 0.45626 0.21927 0.0
N1133 N 0.19013 0.46805 0.19089 0.0
C1134 C 0.19299 0.44221 0.26994 0.0
H1135 H 0.17979 0.43998 0.28461 0.0
H1136 H 0.19107 0.42776 0.26302 0.0
H1137 H 0.2059 0.44978 0.28813 0.0
C1138 C 0.11211 0.3952 0.19535 0.0
N1139 N 0.12069 0.4125 0.21288 0.0
N1140 N 0.13969 0.4202 0.21139 0.0
C1141 C 0.14373 0.40787 0.19265 0.0
C1142 C 0.12633 0.39147 0.18236 0.0
C1143 C 0.09085 0.38362 0.1867 0.0
H1144 H 0.0848 0.39339 0.18273 0.0
H1145 H 0.08318 0.37357 0.20987 0.0
H1146 H 0.08817 0.37478 0.16142 0.0
O1147 O 0.11637 0.44977 0.20134 0.0
O1148 O 0.14852 0.46453 0.20401 0.0
H1149 H 0.17158 0.42596 0.16819 0.0
H1150 H 0.16362 0.40023 0.16694 0.0
C1151 C 0.1638 0.41205 0.18353 0.0
H1152 H 0.17185 0.41367 0.20939 0.0
H1153 H 0.18263 0.47248 0.17346 0.0
O1154 O 0.08207 0.41193 0.23745 0.0
C1155 C 0.13297 0.46413 0.19363 0.0
Co1156 Co 0.57758 0.68546 0.23454 0.0
Co1157 Co 0.5569 0.70984 0.2299 0.0
C1158 C 0.55874 0.69197 0.30114 0.0
O1159 O 0.56713 0.68416 0.28436 0.0
O1160 O 0.55474 0.70375 0.28463 0.0
C1161 C 0.60471 0.67645 0.26599 0.0
O1162 O 0.60325 0.68571 0.29468 0.0
C1163 C 0.55008 0.74342 0.23421 0.0
C1164 C 0.52791 0.73536 0.19068 0.0
C1165 C 0.53868 0.74965 0.21631 0.0
N1166 N 0.54627 0.7263 0.21946 0.0
N1167 N 0.53295 0.72159 0.19359 0.0
C1168 C 0.56338 0.75283 0.26627 0.0
H1169 H 0.56654 0.74232 0.28036 0.0
H1170 H 0.57729 0.76524 0.25661 0.0
H1171 H 0.55674 0.75856 0.28588 0.0
C1172 C 0.60937 0.72022 0.19903 0.0
N1173 N 0.59173 0.71094 0.21512 0.0
N1174 N 0.58308 0.72126 0.21108 0.0
C1175 C 0.59494 0.73736 0.1912 0.0
C1176 C 0.61215 0.73737 0.18348 0.0
C1177 C 0.62235 0.71169 0.19488 0.0
H1178 H 0.61392 0.69682 0.1833 0.0
H1179 H 0.62785 0.71065 0.22238 0.0
H1180 H 0.63491 0.72055 0.1766 0.0
O1181 O 0.55553 0.66851 0.20273 0.0
O1182 O 0.53951 0.68473 0.20355 0.0
H1183 H 0.57442 0.74418 0.16718 0.0
H1184 H 0.59955 0.76134 0.15613 0.0
C1185 C 0.58951 0.75183 0.1779 0.0
H1186 H 0.5902 0.7611 0.20127 0.0
H1187 H 0.52737 0.70899 0.17765 0.0
O1188 O 0.59471 0.67443 0.23737 0.0
C1189 C 0.54076 0.66991 0.19411 0.0
Co1190 Co 0.31842 0.89286 0.23251 0.0
Co1191 Co 0.29376 0.84773 0.22998 0.0
C1192 C 0.30932 0.86855 0.30156 0.0
O1193 O 0.31669 0.88446 0.28386 0.0
O1194 O 0.29938 0.85228 0.28501 0.0
C1195 C 0.32323 0.92888 0.25523 0.0
O1196 O 0.30692 0.91782 0.27293 0.0
C1197 C 0.2602 0.80719 0.2349 0.0
C1198 C 0.26804 0.7933 0.19057 0.0
C1199 C 0.2539 0.78961 0.21665 0.0
N1200 N 0.27719 0.8206 0.2199 0.0
N1201 N 0.28177 0.81211 0.19357 0.0
C1202 C 0.25093 0.81094 0.26734 0.0
H1203 H 0.26164 0.82423 0.28215 0.0
H1204 H 0.23887 0.8131 0.25794 0.0
H1205 H 0.24476 0.79826 0.28625 0.0
C1206 C 0.28513 0.88993 0.19059 0.0
N1207 N 0.29386 0.88178 0.20946 0.0
N1208 N 0.28303 0.86271 0.20802 0.0
C1209 C 0.267 0.85822 0.18762 0.0
C1210 C 0.26769 0.87537 0.17654 0.0
C1211 C 0.29427 0.91121 0.1824 0.0
H1212 H 0.31019 0.91773 0.17894 0.0
H1213 H 0.29138 0.91851 0.20556 0.0
H1214 H 0.28815 0.91379 0.15695 0.0
O1215 O 0.33613 0.88675 0.2054 0.0
O1216 O 0.31898 0.85456 0.20544 0.0
H1217 H 0.25869 0.82997 0.16641 0.0
H1218 H 0.24138 0.83797 0.15705 0.0
C1219 C 0.25174 0.838 0.17759 0.0
H1220 H 0.24356 0.83037 0.20265 0.0
H1221 H 0.29423 0.81922 0.17731 0.0
O1222 O 0.33059 0.92111 0.23523 0.0
C1223 C 0.33436 0.87037 0.19724 0.0
H1224 H 0.17433 0.00431 0.02135 0.0
H1225 H 0.23844 0.11837 0.06119 0.0
H1226 H 0.23708 0.03562 0.02409 0.0
H1227 H 0.17606 0.08748 0.04936 0.0
H1228 H 0.23801 0.08738 0.05821 0.0
H1229 H 0.17454 0.03365 0.04209 0.0
C1230 C 0.18816 0.01726 0.02676 0.0
C1231 C 0.20572 0.01751 0.02045 0.0
C1232 C 0.22439 0.08736 0.05689 0.0
C1233 C 0.20605 0.0513 0.04397 0.0
C1234 C 0.22461 0.10507 0.05903 0.0
C1235 C 0.20724 0.10552 0.05578 0.0
C1236 C 0.20668 0.07002 0.05135 0.0
C1237 C 0.18981 0.0878 0.05181 0.0
C1238 C 0.18827 0.03405 0.03854 0.0
C1239 C 0.22317 0.03475 0.02821 0.0
N1240 N 0.18998 0.07082 0.04948 0.0
N1241 N 0.2229 0.05099 0.03916 0.0
H1242 H 0.88527 0.11902 0.06287 0.0
H1243 H 0.99902 0.16944 0.01967 0.0
H1244 H 0.91601 0.08762 0.04707 0.0
H1245 H 0.96727 0.20046 0.02234 0.0
H1246 H 0.96985 0.14018 0.04043 0.0
H1247 H 0.91615 0.1496 0.05915 0.0
C1248 C 0.89854 0.11851 0.05976 0.0
C1249 C 0.89807 0.10071 0.05565 0.0
C1250 C 0.96931 0.15343 0.03681 0.0
C1251 C 0.93344 0.1357 0.05025 0.0
C1252 C 0.986 0.17019 0.025 0.0
C1253 C 0.98559 0.18744 0.01876 0.0
C1254 C 0.95201 0.15384 0.04242 0.0
C1255 C 0.96826 0.18748 0.02642 0.0
C1256 C 0.91618 0.13601 0.05714 0.0
C1257 C 0.91573 0.10103 0.05032 0.0
N1258 N 0.95213 0.17091 0.03751 0.0
N1259 N 0.93264 0.11821 0.04757 0.0
H1260 H 0.8022 0.76806 0.02435 0.0
H1261 H 0.91738 0.83093 0.0436 0.0
H1262 H 0.83483 0.83055 1.01346 0.0
H1263 H 0.88455 0.76903 0.06187 0.0
H1264 H 0.887 0.83153 0.03945 0.0
H1265 H 0.83166 0.76853 0.04504 0.0
C1266 C 0.81551 0.78192 0.02666 0.0
C1267 C 0.81604 0.79928 0.01668 0.0
C1268 C 0.88641 0.81785 0.04505 0.0
C1269 C 0.84995 0.79988 0.04021 0.0
C1270 C 0.90376 0.81751 0.04747 0.0
C1271 C 0.90352 0.79994 0.05343 0.0
C1272 C 0.8686 0.80042 0.04796 0.0
C1273 C 0.88548 0.78297 0.05808 0.0
C1274 C 0.83235 0.78217 0.03852 0.0
C1275 C 0.83371 0.81679 0.02057 0.0
N1276 N 0.86873 0.7836 0.05479 0.0
N1277 N 0.84999 0.81661 0.03162 0.0
H1278 H 0.0037 0.17137 0.51479 0.0
H1279 H 0.11699 0.235 0.4677 0.0
H1280 H 0.03491 0.23405 0.50812 0.0
H1281 H 0.08713 0.17326 0.4882 0.0
H1282 H 0.08587 0.23425 0.47081 0.0
H1283 H 0.03285 0.17124 0.49387 0.0
C1284 C 0.01659 0.1851 0.50853 0.0
C1285 C 0.01688 0.20276 0.51373 0.0
C1286 C 0.08609 0.22081 0.47397 0.0
C1287 C 0.0504 0.2027 0.48987 0.0
C1288 C 0.10386 0.22119 0.47171 0.0
C1289 C 0.10465 0.20413 0.4774 0.0
C1290 C 0.06903 0.20325 0.48208 0.0
C1291 C 0.08717 0.18676 0.48376 0.0
C1292 C 0.03326 0.18501 0.49664 0.0
C1293 C 0.03403 0.22008 0.50492 0.0
N1294 N 0.07012 0.18678 0.48617 0.0
N1295 N 0.05013 0.21963 0.49376 0.0
H1296 H 0.83082 0.83193 0.51036 0.0
H1297 H 0.76705 0.88168 0.46522 0.0
H1298 H 0.76808 0.80063 0.50714 0.0
H1299 H 0.82915 0.91338 0.48125 0.0
H1300 H 0.76755 0.85119 0.46919 0.0
H1301 H 0.83077 0.86102 0.48878 0.0
C1302 C 0.81703 0.83108 0.50474 0.0
C1303 C 0.79942 0.81382 0.51108 0.0
C1304 C 0.78112 0.86483 0.47116 0.0
C1305 C 0.79928 0.8472 0.48648 0.0
C1306 C 0.78087 0.88227 0.4684 0.0
C1307 C 0.79812 0.90012 0.47255 0.0
C1308 C 0.79874 0.86526 0.47825 0.0
C1309 C 0.81551 0.89992 0.47796 0.0
C1310 C 0.81701 0.84774 0.49246 0.0
C1311 C 0.78202 0.81363 0.50301 0.0
N1312 N 0.81536 0.8828 0.48088 0.0
N1313 N 0.78238 0.83011 0.49149 0.0
H1314 H 0.08765 0.916 0.48257 0.0
H1315 H 0.20297 0.96899 0.49765 0.0
H1316 H 0.12061 0.88726 0.46225 0.0
H1317 H 0.16994 0.99826 0.51166 0.0
H1318 H 0.17354 0.94005 0.47665 0.0
H1319 H 0.11792 0.94711 0.48546 0.0
C1320 C 0.10127 0.91629 0.47799 0.0
C1321 C 0.10158 0.89901 0.47187 0.0
C1322 C 0.17277 0.95287 0.48386 0.0
C1323 C 0.13641 0.93459 0.47588 0.0
C1324 C 0.1896 0.96945 0.49586 0.0
C1325 C 0.18893 0.98606 0.50696 0.0
C1326 C 0.15505 0.95279 0.48315 0.0
C1327 C 0.17117 0.98578 0.50371 0.0
C1328 C 0.11856 0.93407 0.47969 0.0
C1329 C 0.11962 0.90022 0.46625 0.0
N1330 N 0.15492 0.96934 0.49256 0.0
N1331 N 0.13633 0.91768 0.46886 0.0
H1332 H 0.8308 0.91618 0.98414 0.0
H1333 H 0.76712 0.9676 1.00514 0.0
H1334 H 0.76874 0.88636 0.96795 0.0
H1335 H 0.82972 0.99797 1.01348 0.0
H1336 H 0.76767 0.93859 0.98463 0.0
H1337 H 0.831 0.94697 0.98811 0.0
C1338 C 0.81725 0.91618 0.9807 0.0
C1339 C 0.79976 0.89869 0.97534 0.0
C1340 C 0.7813 0.95166 0.99054 0.0
C1341 C 0.79978 0.93388 0.98063 0.0
C1342 C 0.78102 0.96827 1.00227 0.0
C1343 C 0.79839 0.98525 1.01152 0.0
C1344 C 0.79909 0.95193 0.98823 0.0
C1345 C 0.81594 0.98521 1.00697 0.0
C1346 C 0.81736 0.93376 0.98302 0.0
C1347 C 0.78261 0.8995 0.97126 0.0
N1348 N 0.81581 0.96877 0.99606 0.0
N1349 N 0.78302 0.91678 0.97443 0.0
H1350 H 0.08801 0.91687 0.98818 0.0
H1351 H 0.03583 0.80152 1.00358 0.0
H1352 H 0.11706 0.88426 0.96717 0.0
H1353 H 0.00585 0.83397 0.01577 0.0
H1354 H 0.06481 0.83119 0.98361 0.0
H1355 H 0.05707 0.88642 0.99184 0.0
C1356 C 0.08781 0.90329 0.98365 0.0
C1357 C 0.10513 0.90313 0.97702 0.0
C1358 C 0.05184 0.83179 0.99024 0.0
C1359 C 0.06978 0.86813 0.9819 0.0
C1360 C 0.03524 0.81483 1.00169 0.0
C1361 C 0.01839 0.81525 1.01184 0.0
C1362 C 0.05169 0.84939 0.98916 0.0
C1363 C 0.01851 0.83293 1.00851 0.0
C1364 C 0.07014 0.8859 0.98577 0.0
C1365 C 0.10407 0.88513 0.97151 0.0
N1366 N 0.03496 0.84931 0.99788 0.0
N1367 N 0.08672 0.86834 0.97451 0.0
H1368 H 0.08632 0.17045 0.98361 0.0
H1369 H 0.20139 0.23401 1.00485 0.0
H1370 H 0.11893 0.23258 0.96815 0.0
H1371 H 0.16901 0.17158 0.01711 0.0
H1372 H 0.17194 0.23323 0.98324 0.0
H1373 H 0.11681 0.17005 0.98791 0.0
C1374 C 0.09992 0.18398 0.9804 0.0
C1375 C 0.10005 0.20156 0.9752 0.0
C1376 C 0.1713 0.21967 0.99024 0.0
C1377 C 0.13508 0.20128 0.98078 0.0
C1378 C 0.18814 0.22008 1.00261 0.0
C1379 C 0.18766 0.20284 1.01332 0.0
C1380 C 0.15375 0.20191 0.98875 0.0
C1381 C 0.17007 0.18525 1.00944 0.0
C1382 C 0.11732 0.18374 0.9829 0.0
C1383 C 0.11806 0.21865 0.97135 0.0
N1384 N 0.15378 0.18527 0.99791 0.0
N1385 N 0.13485 0.21811 0.97465 0.0
H1386 H 1.00011 0.83149 0.51407 0.0
H1387 H 0.88722 0.76858 0.56476 0.0
H1388 H 0.9687 0.76886 0.5225 0.0
H1389 H 0.91718 0.83035 0.5445 0.0
H1390 H 0.91817 0.76912 0.56025 0.0
H1391 H 0.9712 0.83195 0.53555 0.0
C1392 C 0.98723 0.81784 0.52082 0.0
C1393 C 0.98681 0.80009 0.51599 0.0
C1394 C 0.91803 0.78262 0.55743 0.0
C1395 C 0.95357 0.80052 0.54051 0.0
C1396 C 0.90035 0.78236 0.56052 0.0
C1397 C 0.89961 0.79949 0.55538 0.0
C1398 C 0.93507 0.80012 0.54898 0.0
C1399 C 0.91709 0.8168 0.54858 0.0
C1400 C 0.97069 0.81811 0.53303 0.0
C1401 C 0.96968 0.78289 0.52541 0.0
N1402 N 0.93406 0.81666 0.54535 0.0
N1403 N 0.95372 0.78353 0.53689 0.0
H1404 H 0.17119 0.16888 0.52096 0.0
H1405 H 0.23423 0.11882 0.56958 0.0
H1406 H 0.23351 0.2005 0.53514 0.0
H1407 H 0.17303 0.08707 0.54398 0.0
H1408 H 0.2332 0.14906 0.5687 0.0
H1409 H 0.17065 0.13922 0.5409 0.0
C1410 C 0.18473 0.16968 0.52878 0.0
C1411 C 0.20246 0.1872 0.52581 0.0
C1412 C 0.21991 0.13544 0.56392 0.0
C1413 C 0.20194 0.1532 0.54842 0.0
C1414 C 0.22045 0.11811 0.56488 0.0
C1415 C 0.20364 0.10034 0.55715 0.0
C1416 C 0.20247 0.135 0.555 0.0
C1417 C 0.18634 0.10047 0.54997 0.0
C1418 C 0.18442 0.1527 0.54006 0.0
C1419 C 0.21951 0.18731 0.53656 0.0
N1420 N 0.18622 0.1175 0.54882 0.0
N1421 N 0.21886 0.17054 0.54697 0.0
H1422 H 0.88312 0.11555 0.56565 0.0
H1423 H 0.83367 0.00275 0.51395 0.0
H1424 H 0.91521 0.08614 0.54285 0.0
H1425 H 0.80209 0.03374 0.52363 0.0
H1426 H 0.86302 0.0318 0.5351 0.0
H1427 H 0.85283 0.08444 0.56141 0.0
C1428 C 0.88386 0.10251 0.56089 0.0
C1429 C 0.90176 0.10344 0.55495 0.0
C1430 C 0.84962 0.03219 0.53292 0.0
C1431 C 0.86709 0.06781 0.54892 0.0
C1432 C 0.83282 0.01556 0.52091 0.0
C1433 C 0.81539 0.01583 0.51652 0.0
C1434 C 0.84903 0.04923 0.54066 0.0
C1435 C 0.81522 0.03288 0.52619 0.0
C1436 C 0.86652 0.08474 0.55797 0.0
C1437 C 0.90172 0.08607 0.54754 0.0
N1438 N 0.8318 0.04892 0.53748 0.0
N1439 N 0.88468 0.06902 0.54451 0.0
H1440 H 0.83891 0.33662 0.34938 0.0
H1441 H 0.90225 0.44977 0.39797 0.0
H1442 H 0.90154 0.36787 0.35715 0.0
H1443 H 0.84053 0.41991 0.37732 0.0
H1444 H 0.90156 0.4187 0.39443 0.0
H1445 H 0.83864 0.36569 0.37051 0.0
C1446 C 0.8526 0.3495 0.35592 0.0
C1447 C 0.87029 0.34984 0.35098 0.0
C1448 C 0.8881 0.4189 0.39133 0.0
C1449 C 0.87008 0.38325 0.37507 0.0
C1450 C 0.88845 0.43664 0.39384 0.0
C1451 C 0.87138 0.43742 0.38828 0.0
C1452 C 0.87057 0.40185 0.38305 0.0
C1453 C 0.85403 0.41995 0.38169 0.0
C1454 C 0.85243 0.36613 0.36793 0.0
C1455 C 0.88755 0.36696 0.36015 0.0
N1456 N 0.85409 0.40292 0.37903 0.0
N1457 N 0.88702 0.38302 0.37141 0.0
H1458 H 0.66692 0.50447 0.35126 0.0
H1459 H 0.55247 0.45408 0.38676 0.0
H1460 H 0.63535 0.53569 0.35118 0.0
H1461 H 0.58385 0.42288 0.37939 0.0
H1462 H 0.58331 0.48473 0.38335 0.0
H1463 H 0.63741 0.47525 0.371 0.0
C1464 C 0.65386 0.50527 0.35579 0.0
C1465 C 0.65362 0.52256 0.34908 0.0
C1466 C 0.58347 0.47117 0.38307 0.0
C1467 C 0.61964 0.48901 0.37148 0.0
C1468 C 0.56584 0.45364 0.38546 0.0
C1469 C 0.56557 0.43586 0.38368 0.0
C1470 C 0.60092 0.4709 0.37871 0.0
C1471 C 0.58338 0.43626 0.38073 0.0
C1472 C 0.63698 0.48854 0.36701 0.0
C1473 C 0.63623 0.52267 0.35568 0.0
N1474 N 0.60029 0.45345 0.37814 0.0
N1475 N 0.61991 0.50612 0.36614 0.0
H1476 H 0.46851 0.10157 0.36056 0.0
H1477 H 0.58392 0.1636 0.37188 0.0
H1478 H 0.5014 0.16381 0.34567 0.0
H1479 H 0.5509 0.10248 0.39766 0.0
H1480 H 0.5537 0.16455 0.36852 0.0
H1481 H 0.49811 0.10213 0.38057 0.0
C1482 C 0.48191 0.1154 0.36187 0.0
C1483 C 0.48246 0.13265 0.35095 0.0
C1484 C 0.55304 0.15099 0.37559 0.0
C1485 C 0.51653 0.13335 0.37366 0.0
C1486 C 0.5703 0.15044 0.37754 0.0
C1487 C 0.56995 0.13297 0.38538 0.0
C1488 C 0.5352 0.13383 0.38084 0.0
C1489 C 0.55192 0.11635 0.39232 0.0
C1490 C 0.49883 0.1157 0.37335 0.0
C1491 C 0.50026 0.15013 0.35356 0.0
N1492 N 0.53524 0.11713 0.38943 0.0
N1493 N 0.5166 0.14999 0.36421 0.0
H1494 H 0.67123 0.50476 0.84741 0.0
H1495 H 0.78432 0.5676 0.79819 0.0
H1496 H 0.70273 0.56739 0.83916 0.0
H1497 H 0.75418 0.50578 0.81799 0.0
H1498 H 0.75339 0.56712 0.80239 0.0
H1499 H 0.70021 0.50429 0.82643 0.0
C1500 C 0.68415 0.51841 0.84081 0.0
C1501 C 0.68457 0.53616 0.84553 0.0
C1502 C 0.75349 0.55359 0.80518 0.0
C1503 C 0.71789 0.53571 0.8216 0.0
C1504 C 0.77116 0.55382 0.80228 0.0
C1505 C 0.77183 0.53666 0.80737 0.0
C1506 C 0.7364 0.53609 0.8134 0.0
C1507 C 0.75432 0.51935 0.81396 0.0
C1508 C 0.70073 0.51812 0.82888 0.0
C1509 C 0.70175 0.55336 0.83632 0.0
N1510 N 0.73736 0.51953 0.81701 0.0
N1511 N 0.71774 0.55271 0.82512 0.0
H1512 H 0.49662 0.16489 0.84561 0.0
H1513 H 0.43265 0.2155 0.81038 0.0
H1514 H 0.43385 0.13379 0.84611 0.0
H1515 H 0.49523 0.24659 0.81754 0.0
H1516 H 0.4328 0.18481 0.814 0.0
H1517 H 0.49634 0.19416 0.82605 0.0
C1518 C 0.48276 0.16413 0.84123 0.0
C1519 C 0.46523 0.14685 0.84798 0.0
C1520 C 0.44652 0.19835 0.81419 0.0
C1521 C 0.46482 0.18046 0.82577 0.0
C1522 C 0.44645 0.2159 0.81168 0.0
C1523 C 0.46398 0.23367 0.81334 0.0
C1524 C 0.46423 0.19858 0.81853 0.0
C1525 C 0.48137 0.23323 0.8163 0.0
C1526 C 0.48261 0.18089 0.83011 0.0
C1527 C 0.44774 0.14679 0.84156 0.0
N1528 N 0.48105 0.21601 0.81899 0.0
N1529 N 0.44798 0.16336 0.83118 0.0
H1530 H 0.86902 0.30054 0.84049 0.0
H1531 H 0.75405 0.24919 0.81784 0.0
H1532 H 0.83686 0.33107 0.84654 0.0
H1533 H 0.78626 0.21924 0.80283 0.0
H1534 H 0.78464 0.27997 0.82171 0.0
H1535 H 0.83952 0.27145 0.82004 0.0
C1536 C 0.85583 0.30123 0.83713 0.0
C1537 C 0.85542 0.31828 0.84572 0.0
C1538 C 0.78507 0.26673 0.8169 0.0
C1539 C 0.82149 0.28488 0.82248 0.0
C1540 C 0.7676 0.24915 0.81464 0.0
C1541 C 0.7676 0.23164 0.80965 0.0
C1542 C 0.80277 0.26681 0.81487 0.0
C1543 C 0.78554 0.2324 0.80586 0.0
C1544 C 0.83897 0.28457 0.82543 0.0
C1545 C 0.83788 0.31826 0.84057 0.0
N1546 N 0.80242 0.24968 0.80901 0.0
N1547 N 0.82161 0.30178 0.8297 0.0
H1548 H 0.49789 0.24907 0.31561 0.0
H1549 H 0.43563 0.30193 0.33476 0.0
H1550 H 0.4359 0.2201 0.29873 0.0
H1551 H 0.49818 0.33159 0.34381 0.0
H1552 H 0.43583 0.27285 0.31367 0.0
H1553 H 0.49871 0.28019 0.31831 0.0
C1554 C 0.48449 0.24931 0.31175 0.0
C1555 C 0.46682 0.23197 0.30665 0.0
C1556 C 0.44954 0.28579 0.3198 0.0
C1557 C 0.46756 0.26755 0.31044 0.0
C1558 C 0.44945 0.30245 0.33185 0.0
C1559 C 0.46691 0.31922 0.3416 0.0
C1560 C 0.46719 0.28579 0.3177 0.0
C1561 C 0.48435 0.319 0.33693 0.0
C1562 C 0.48496 0.26709 0.31332 0.0
C1563 C 0.44989 0.2331 0.30193 0.0
N1564 N 0.48401 0.30248 0.32579 0.0
N1565 N 0.45064 0.25057 0.30442 0.0
H1566 H 0.75388 0.24954 0.31641 0.0
H1567 H 0.70129 0.13423 0.33185 0.0
H1568 H 0.78262 0.21656 0.29614 0.0
H1569 H 0.67198 0.1671 0.34766 0.0
H1570 H 0.72998 0.16369 0.31034 0.0
H1571 H 0.7228 0.21923 0.31966 0.0
C1572 C 0.75359 0.23591 0.31191 0.0
C1573 C 0.77087 0.23561 0.30573 0.0
C1574 C 0.71721 0.16443 0.31808 0.0
C1575 C 0.73535 0.20077 0.31011 0.0
C1576 C 0.70077 0.14758 0.33038 0.0
C1577 C 0.68423 0.1482 0.34211 0.0
C1578 C 0.71722 0.18211 0.3177 0.0
C1579 C 0.68442 0.16593 0.33921 0.0
C1580 C 0.73584 0.2186 0.31381 0.0
C1581 C 0.76967 0.21756 0.30019 0.0
N1582 N 0.70074 0.18221 0.32776 0.0
N1583 N 0.75224 0.20084 0.30298 0.0
H1584 H 0.83713 0.50501 0.34571 0.0
H1585 H 0.787 0.5681 0.29749 0.0
H1586 H 0.86824 0.5677 0.33916 0.0
H1587 H 0.75535 0.50612 0.31538 0.0
H1588 H 0.81746 0.56765 0.30191 0.0
H1589 H 0.8078 0.50467 0.32432 0.0
C1590 C 0.83788 0.5187 0.3394 0.0
C1591 C 0.85517 0.53642 0.34472 0.0
C1592 C 0.80384 0.55409 0.30422 0.0
C1593 C 0.82154 0.53612 0.32033 0.0
C1594 C 0.7864 0.55431 0.30119 0.0
C1595 C 0.76856 0.53708 0.30569 0.0
C1596 C 0.80343 0.53654 0.31196 0.0
C1597 C 0.76879 0.51974 0.3118 0.0
C1598 C 0.82109 0.51849 0.32724 0.0
C1599 C 0.85522 0.55368 0.33585 0.0
N1600 N 0.78592 0.51993 0.31499 0.0
N1601 N 0.83864 0.55311 0.32442 0.0
H1602 H 0.58333 0.16405 0.88282 0.0
H1603 H 0.63554 0.10099 0.86417 0.0
H1604 H 0.55401 0.102 0.89931 0.0
H1605 H 0.66518 0.1634 0.85177 0.0
H1606 H 0.60665 0.10156 0.8852 0.0
H1607 H 0.61429 0.16458 0.87934 0.0
C1608 C 0.58345 0.15057 0.88642 0.0
C1609 C 0.56605 0.13298 0.89168 0.0
C1610 C 0.61954 0.11516 0.87832 0.0
C1611 C 0.60145 0.1334 0.88702 0.0
C1612 C 0.63609 0.11487 0.86631 0.0
C1613 C 0.6528 0.13216 0.85568 0.0
C1614 C 0.61959 0.13286 0.87954 0.0
C1615 C 0.65263 0.14968 0.85935 0.0
C1616 C 0.60114 0.15088 0.88439 0.0
C1617 C 0.56705 0.11595 0.89604 0.0
N1618 N 0.63622 0.14954 0.87053 0.0
N1619 N 0.58443 0.11655 0.89317 0.0
H1620 H 0.90274 0.45236 0.89462 0.0
H1621 H 0.84006 0.50351 0.85131 0.0
H1622 H 0.84052 0.42137 0.88025 0.0
H1623 H 0.9028 0.53412 0.85386 0.0
H1624 H 0.83975 0.47415 0.87221 0.0
H1625 H 0.90273 0.48308 0.8904 0.0
C1626 C 0.88901 0.45197 0.89171 0.0
C1627 C 0.87156 0.43424 0.88817 0.0
C1628 C 0.85359 0.48733 0.86853 0.0
C1629 C 0.87151 0.46938 0.88218 0.0
C1630 C 0.85378 0.50415 0.85665 0.0
C1631 C 0.87149 0.52131 0.85034 0.0
C1632 C 0.87122 0.48759 0.87416 0.0
C1633 C 0.88879 0.52121 0.858 0.0
C1634 C 0.88904 0.46955 0.88881 0.0
C1635 C 0.8543 0.43472 0.88306 0.0
N1636 N 0.88822 0.50458 0.86916 0.0
N1637 N 0.85472 0.45197 0.88002 0.0
H1638 H 0.58315 0.42018 0.88299 0.0
H1639 H 0.46823 0.36801 0.8603 0.0
H1640 H 0.55041 0.44968 0.89656 0.0
H1641 H 0.50085 0.33797 0.85341 0.0
H1642 H 0.49746 0.39704 0.88164 0.0
H1643 H 0.55274 0.38918 0.88004 0.0
C1644 C 0.56953 0.42008 0.88608 0.0
C1645 C 0.56934 0.43754 0.89031 0.0
C1646 C 0.49818 0.38403 0.87592 0.0
C1647 C 0.53437 0.4021 0.8862 0.0
C1648 C 0.48146 0.3674 0.86373 0.0
C1649 C 0.48209 0.35053 0.85453 0.0
C1650 C 0.51575 0.38391 0.87873 0.0
C1651 C 0.49966 0.35065 0.85985 0.0
C1652 C 0.55216 0.40238 0.88435 0.0
C1653 C 0.5513 0.43659 0.89405 0.0
N1654 N 0.51582 0.36714 0.87113 0.0
N1655 N 0.53453 0.41919 0.89143 0.0
H1656 H 0.5695 0.7017 0.69664 0.0
H1657 H 0.50565 0.753 0.71582 0.0
H1658 H 0.50704 0.6715 0.68519 0.0
H1659 H 0.56772 0.78284 0.73213 0.0
H1660 H 0.50543 0.72218 0.7125 0.0
H1661 H 0.56871 0.73047 0.71778 0.0
C1662 C 0.55558 0.701 0.69901 0.0
C1663 C 0.53833 0.68417 0.68861 0.0
C1664 C 0.51907 0.73541 0.71749 0.0
C1665 C 0.53736 0.71724 0.71259 0.0
C1666 C 0.5192 0.75302 0.71943 0.0
C1667 C 0.5367 0.77052 0.72458 0.0
C1668 C 0.53665 0.73528 0.72007 0.0
C1669 C 0.55383 0.76971 0.72894 0.0
C1670 C 0.55515 0.71748 0.71109 0.0
C1671 C 0.52073 0.68416 0.69258 0.0
N1672 N 0.55341 0.75241 0.72614 0.0
N1673 N 0.52074 0.7005 0.70381 0.0
H1674 H 0.33382 0.83676 0.68457 0.0
H1675 H 0.22022 0.78631 0.72907 0.0
H1676 H 0.30219 0.86785 0.68945 0.0
H1677 H 0.25093 0.7549 0.71308 0.0
H1678 H 0.25109 0.81688 0.72539 0.0
H1679 H 0.30472 0.80743 0.70541 0.0
C1680 C 0.32085 0.83751 0.69042 0.0
C1681 C 0.32044 0.8548 0.68476 0.0
C1682 C 0.25112 0.80329 0.72334 0.0
C1683 C 0.28695 0.82113 0.7085 0.0
C1684 C 0.23348 0.78579 0.72593 0.0
C1685 C 0.233 0.76799 0.72175 0.0
C1686 C 0.26837 0.80297 0.71637 0.0
C1687 C 0.25065 0.76831 0.71638 0.0
C1688 C 0.30419 0.82071 0.70227 0.0
C1689 C 0.30318 0.85484 0.69307 0.0
N1690 N 0.26757 0.78549 0.71363 0.0
N1691 N 0.28709 0.83824 0.70416 0.0
H1692 H 0.25044 0.49881 0.71139 0.0
H1693 H 0.13504 0.43571 0.6997 0.0
H1694 H 0.21785 0.43716 0.7326 0.0
H1695 H 0.16765 0.49772 0.68153 0.0
H1696 H 0.16472 0.43674 0.72061 0.0
H1697 H 0.22005 0.49946 0.70907 0.0
C1698 C 0.23688 0.48545 0.71628 0.0
C1699 C 0.23671 0.46792 0.72242 0.0
C1700 C 0.16536 0.45017 0.71249 0.0
C1701 C 0.20176 0.46847 0.71911 0.0
C1702 C 0.14839 0.44961 0.70053 0.0
C1703 C 0.14886 0.46663 0.68829 0.0
C1704 C 0.18302 0.46784 0.71201 0.0
C1705 C 0.16658 0.48421 0.69038 0.0
C1706 C 0.21953 0.48583 0.71491 0.0
C1707 C 0.21875 0.45106 0.72851 0.0
N1708 N 0.18298 0.48431 0.70152 0.0
N1709 N 0.20198 0.45171 0.72623 0.0
H1710 H 0.45107 0.90134 0.135 0.0
H1711 H 0.33769 0.83832 0.18159 0.0
H1712 H 0.42073 0.83938 0.15324 0.0
H1713 H 0.36934 0.90102 0.17514 0.0
H1714 H 0.36678 0.83795 0.16102 0.0
H1715 H 0.42016 0.90091 0.13899 0.0
C1716 C 0.43788 0.88756 0.13873 0.0
C1717 C 0.43848 0.87033 0.14339 0.0
C1718 C 0.3673 0.85178 0.16378 0.0
C1719 C 0.40307 0.86981 0.14918 0.0
C1720 C 0.35067 0.85201 0.17547 0.0
C1721 C 0.35109 0.86974 0.18058 0.0
C1722 C 0.38453 0.86941 0.15712 0.0
C1723 C 0.36835 0.887 0.17198 0.0
C1724 C 0.42022 0.88735 0.1415 0.0
C1725 C 0.42092 0.85301 0.14954 0.0
N1726 N 0.3844 0.8864 0.161 0.0
N1727 N 0.40397 0.8532 0.15247 0.0
H1728 H 0.10273 0.54953 0.12658 0.0
H1729 H 0.16534 0.49966 0.18029 0.0
H1730 H 0.16399 0.58143 0.15161 0.0
H1731 H 0.10302 0.46815 0.16611 0.0
H1732 H 0.16605 0.52917 0.15878 0.0
H1733 H 0.1036 0.51925 0.1296 0.0
C1734 C 0.11649 0.55025 0.13158 0.0
C1735 C 0.13336 0.56808 0.13853 0.0
C1736 C 0.15224 0.51575 0.15999 0.0
C1737 C 0.13434 0.53338 0.1432 0.0
C1738 C 0.15183 0.49885 0.17218 0.0
C1739 C 0.13406 0.48141 0.17555 0.0
C1740 C 0.13477 0.51523 0.15108 0.0
C1741 C 0.11705 0.48129 0.16442 0.0
C1742 C 0.11693 0.5329 0.13378 0.0
C1743 C 0.15063 0.56798 0.14617 0.0
N1744 N 0.11781 0.49796 0.15306 0.0
N1745 N 0.15066 0.55093 0.14856 0.0
H1746 H 0.42289 0.58314 0.14772 0.0
H1747 H 0.53797 0.63579 0.17036 0.0
H1748 H 0.45561 0.55344 0.13716 0.0
H1749 H 0.50494 0.66538 0.17787 0.0
H1750 H 0.50871 0.60648 0.14998 0.0
H1751 H 0.45328 0.6141 0.15078 0.0
C1752 C 0.4365 0.58317 0.14542 0.0
C1753 C 0.43669 0.56567 0.14197 0.0
C1754 C 0.50791 0.61945 0.15565 0.0
C1755 C 0.47165 0.60111 0.14609 0.0
C1756 C 0.52464 0.63624 0.16727 0.0
C1757 C 0.52392 0.65308 0.17635 0.0
C1758 C 0.49024 0.61939 0.15323 0.0
C1759 C 0.50621 0.65275 0.17151 0.0
C1760 C 0.45386 0.60087 0.14718 0.0
C1761 C 0.45473 0.56656 0.13913 0.0
N1762 N 0.49006 0.63612 0.16072 0.0
N1763 N 0.4715 0.58398 0.1417 0.0
H1764 H 0.16485 0.66575 0.67738 0.0
H1765 H 0.10105 0.55242 0.62995 0.0
H1766 H 0.10219 0.63478 0.6704 0.0
H1767 H 0.16247 0.58192 0.6535 0.0
H1768 H 0.10195 0.58365 0.63268 0.0
H1769 H 0.16485 0.63647 0.65689 0.0
C1770 C 0.15109 0.65289 0.67112 0.0
C1771 C 0.13348 0.65271 0.67613 0.0
C1772 C 0.1153 0.58333 0.63659 0.0
C1773 C 0.13339 0.61902 0.65279 0.0
C1774 C 0.11484 0.56551 0.63455 0.0
C1775 C 0.13176 0.56459 0.64117 0.0
C1776 C 0.13279 0.60031 0.64536 0.0
C1777 C 0.14908 0.58199 0.6483 0.0
C1778 C 0.15111 0.63613 0.65949 0.0
C1779 C 0.11613 0.63558 0.66732 0.0
N1780 N 0.14914 0.59909 0.65041 0.0
N1781 N 0.11651 0.61939 0.65642 0.0
H1782 H 0.3378 0.50197 0.67703 0.0
H1783 H 0.45059 0.55142 0.62666 0.0
H1784 H 0.36811 0.47002 0.66169 0.0
H1785 H 0.42168 0.58345 0.65437 0.0
H1786 H 0.41921 0.52133 0.62752 0.0
H1787 H 0.36693 0.53154 0.65697 0.0
C1788 C 0.35046 0.50108 0.66892 0.0
C1789 C 0.35055 0.48349 0.67162 0.0
C1790 C 0.41968 0.53498 0.63277 0.0
C1791 C 0.38405 0.5174 0.64887 0.0
C1792 C 0.43761 0.55223 0.63183 0.0
C1793 C 0.43876 0.57002 0.64015 0.0
C1794 C 0.40281 0.53554 0.64227 0.0
C1795 C 0.42145 0.57003 0.64792 0.0
C1796 C 0.36713 0.51801 0.65758 0.0
C1797 C 0.3674 0.48327 0.66051 0.0
N1798 N 0.40423 0.55307 0.64903 0.0
N1799 N 0.38351 0.49999 0.65003 0.0
H1800 H 0.42152 0.83874 0.64568 0.0
H1801 H 0.53635 0.90223 0.67169 0.0
H1802 H 0.45386 0.90108 0.6336 0.0
H1803 H 0.50393 0.83957 0.67856 0.0
H1804 H 0.50704 0.90189 0.65026 0.0
H1805 H 0.45207 0.83851 0.6502 0.0
C1806 C 0.43508 0.85236 0.64324 0.0
C1807 C 0.43512 0.86993 0.63892 0.0
C1808 C 0.50638 0.8882 0.65605 0.0
C1809 C 0.47024 0.86986 0.64488 0.0
C1810 C 0.52314 0.88837 0.6683 0.0
C1811 C 0.52261 0.8709 0.67742 0.0
C1812 C 0.48888 0.87045 0.65303 0.0
C1813 C 0.50506 0.85341 0.67219 0.0
C1814 C 0.45253 0.85223 0.64589 0.0
C1815 C 0.4531 0.88715 0.63609 0.0
N1816 N 0.48888 0.85366 0.66075 0.0
N1817 N 0.46994 0.88672 0.63958 0.0
H1818 H 0.33325 0.49914 0.17978 0.0
H1819 H 0.22099 0.4352 0.2347 0.0
H1820 H 0.30306 0.43674 0.19257 0.0
H1821 H 0.24897 0.49585 0.20505 0.0
H1822 H 0.25249 0.43675 0.23181 0.0
H1823 H 0.30415 0.49931 0.20119 0.0
C1824 C 0.32063 0.4855 0.18757 0.0
C1825 C 0.32056 0.46787 0.18384 0.0
C1826 C 0.25179 0.44981 0.22659 0.0
C1827 C 0.28713 0.46796 0.20822 0.0
C1828 C 0.23381 0.44898 0.2287 0.0
C1829 C 0.23237 0.46546 0.22038 0.0
C1830 C 0.26841 0.46722 0.216 0.0
C1831 C 0.24945 0.48278 0.21155 0.0
C1832 C 0.30398 0.4856 0.19969 0.0
C1833 C 0.30375 0.45067 0.19454 0.0
N1834 N 0.26671 0.48319 0.20936 0.0
N1835 N 0.28768 0.45113 0.20589 0.0
H1836 H 0.57044 0.86931 0.18859 0.0
H1837 H 0.50718 0.75438 0.2123 0.0
H1838 H 0.50773 0.83703 0.18396 0.0
H1839 H 0.56937 0.78676 0.22655 0.0
H1840 H 0.50689 0.78493 0.20839 0.0
H1841 H 0.57022 0.83989 0.20904 0.0
C1842 C 0.5566 0.85611 0.19226 0.0
C1843 C 0.53908 0.85564 0.18407 0.0
C1844 C 0.52059 0.7854 0.21304 0.0
C1845 C 0.53876 0.82181 0.20729 0.0
C1846 C 0.52075 0.76795 0.21531 0.0
C1847 C 0.53829 0.76801 0.22011 0.0
C1848 C 0.53818 0.80313 0.21487 0.0
C1849 C 0.55546 0.78599 0.22367 0.0
C1850 C 0.5565 0.8393 0.20396 0.0
C1851 C 0.52162 0.8381 0.18962 0.0
N1852 N 0.55501 0.80284 0.22052 0.0
N1853 N 0.52192 0.82187 0.20047 0.0
H1854 H 0.21694 0.78306 0.22997 0.0
H1855 H 0.16752 0.67003 0.18027 0.0
H1856 H 0.24901 0.75341 0.20918 0.0
H1857 H 0.13602 0.70119 0.18781 0.0
H1858 H 0.19679 0.69912 0.20155 0.0
H1859 H 0.18664 0.75196 0.22578 0.0
C1860 C 0.21767 0.76997 0.22566 0.0
C1861 C 0.23557 0.77082 0.22027 0.0
C1862 C 0.18342 0.69954 0.19888 0.0
C1863 C 0.20088 0.73522 0.2143 0.0
C1864 C 0.16667 0.6829 0.18678 0.0
C1865 C 0.1493 0.6832 0.18175 0.0
C1866 C 0.18284 0.71663 0.20604 0.0
C1867 C 0.14911 0.70031 0.19088 0.0
C1868 C 0.20032 0.75221 0.22277 0.0
C1869 C 0.23551 0.7534 0.21344 0.0
N1870 N 0.16565 0.71637 0.20226 0.0
N1871 N 0.21847 0.73636 0.21042 0.0
H1872 H 0.20442 0.21764 0.16378 0.0
H1873 H 0.22679 0.21226 0.37298 0.0
H1874 H 0.22883 0.18265 0.19972 0.0
H1875 H 0.17885 0.21999 0.34058 0.0
H1876 H 0.2294 0.20334 0.30976 0.0
H1877 H 0.19629 0.22041 0.22765 0.0
C1878 C 0.2079 0.21036 0.18519 0.0
C1879 C 0.21735 0.19991 0.17646 0.0
C1880 C 0.2182 0.20682 0.31646 0.0
C1881 C 0.20844 0.20342 0.24989 0.0
C1882 C 0.21676 0.21207 0.35253 0.0
C1883 C 0.20265 0.21706 0.36213 0.0
C1884 C 0.20577 0.20697 0.28926 0.0
C1885 C 0.18994 0.2163 0.33444 0.0
C1886 C 0.20319 0.21192 0.22161 0.0
C1887 C 0.22148 0.19076 0.20525 0.0
N1888 N 0.19201 0.21166 0.29912 0.0
N1889 N 0.21731 0.19302 0.2408 0.0
H1890 H 0.82686 0.02223 0.17881 0.0
H1891 H 0.75207 0.98193 0.3486 0.0
H1892 H 0.76985 0.01631 0.18022 0.0
H1893 H 0.80549 0.98026 0.35004 0.0
H1894 H 0.75942 0.99506 0.28662 0.0
H1895 H 0.82101 0.00858 0.24176 0.0
C1896 C 0.8133 0.0184 0.1925 0.0
C1897 C 0.79883 0.02043 0.17409 0.0
C1898 C 0.76957 0.99174 0.30012 0.0
C1899 C 0.79194 0.00458 0.24561 0.0
C1900 C 0.7653 0.98411 0.33562 0.0
C1901 C 0.77814 0.97991 0.35464 0.0
C1902 C 0.787 0.99552 0.28308 0.0
C1903 C 0.79508 0.9831 0.33625 0.0
C1904 C 0.80988 0.01041 0.22822 0.0
C1905 C 0.78143 0.01496 0.19304 0.0
N1906 N 0.79913 0.99089 0.30156 0.0
N1907 N 0.77851 0.00732 0.22742 0.0
H1908 H 0.98031 0.80536 0.17809 0.0
H1909 H 0.02109 0.77118 0.34766 0.0
H1910 H 0.98663 0.75448 0.1792 0.0
H1911 H 0.02208 0.82596 0.34938 0.0
H1912 H 0.00798 0.76536 0.28565 0.0
H1913 H 0.99389 0.81311 0.24108 0.0
C1914 C 0.98421 0.79566 0.19174 0.0
C1915 C 0.98231 0.77923 0.17325 0.0
C1916 C 0.01114 0.77877 0.29922 0.0
C1917 C 0.9981 0.78816 0.24481 0.0
C1918 C 0.01877 0.78216 0.33473 0.0
C1919 C 0.02276 0.79912 0.35383 0.0
C1920 C 0.00717 0.79231 0.28227 0.0
C1921 C 0.0194 0.81278 0.33552 0.0
C1922 C 0.99216 0.80021 0.22749 0.0
C1923 C 0.98787 0.76734 0.19214 0.0
N1924 N 0.01162 0.80901 0.30082 0.0
N1925 N 0.99548 0.77206 0.22655 0.0
H1926 H 0.77181 0.75269 0.68101 0.0
H1927 H 0.80652 0.82774 0.85045 0.0
H1928 H 0.82653 0.80648 0.67855 0.0
H1929 H 0.75496 0.77109 0.84855 0.0
H1930 H 0.81417 0.82193 0.78736 0.0
H1931 H 0.76603 0.76024 0.74274 0.0
C1932 C 0.78277 0.76606 0.69368 0.0
C1933 C 0.79969 0.77894 0.67441 0.0
C1934 C 0.80113 0.81088 0.80079 0.0
C1935 C 0.79296 0.78802 0.74582 0.0
C1936 C 0.79665 0.81428 0.8366 0.0
C1937 C 0.78006 0.79988 0.8549 0.0
C1938 C 0.78886 0.79302 0.78325 0.0
C1939 C 0.76795 0.7826 0.83576 0.0
C1940 C 0.77941 0.77045 0.72907 0.0
C1941 C 0.81336 0.79605 0.6925 0.0
N1942 N 0.77261 0.77969 0.80133 0.0
N1943 N 0.80963 0.80019 0.72713 0.0
H1944 H 0.21052 0.98694 0.66009 0.0
H1945 H 0.22292 0.01554 0.8688 0.0
H1946 H 0.22295 0.04418 0.69308 0.0
H1947 H 0.18096 0.95734 0.83495 0.0
H1948 H 0.22552 0.02651 0.80502 0.0
H1949 H 0.20199 0.97582 0.72374 0.0
C1950 C 0.21139 0.99718 0.68078 0.0
C1951 C 0.21758 0.01658 0.67129 0.0
C1952 C 0.21558 0.01139 0.81155 0.0
C1953 C 0.20807 0.00392 0.74445 0.0
C1954 C 0.21415 0.00507 0.84789 0.0
C1955 C 0.20175 0.98546 0.85716 0.0
C1956 C 0.20497 0.99793 0.78387 0.0
C1957 C 0.19065 0.97258 0.82899 0.0
C1958 C 0.20639 0.99076 0.71704 0.0
C1959 C 0.21825 0.02913 0.69919 0.0
N1960 N 0.19279 0.97897 0.79345 0.0
N1961 N 0.21389 0.02267 0.73468 0.0
H1962 H 0.97906 0.17437 0.68052 0.0
H1963 H 0.02074 0.24964 0.8495 0.0
H1964 H 0.98522 0.2315 0.68216 0.0
H1965 H 0.02013 0.19507 0.85263 0.0
H1966 H 0.00754 0.24229 0.78765 0.0
H1967 H 0.99262 0.18008 0.74352 0.0
C1968 C 0.98292 0.18793 0.69428 0.0
C1969 C 0.98099 0.20248 0.67593 0.0
C1970 C 0.01035 0.23186 0.80148 0.0
C1971 C 0.99678 0.20921 0.74749 0.0
C1972 C 0.01802 0.23614 0.83694 0.0
C1973 C 0.02159 0.22298 0.85642 0.0
C1974 C 0.00591 0.21413 0.78491 0.0
C1975 C 0.01777 0.20572 0.83849 0.0
C1976 C 0.99086 0.19126 0.73005 0.0
C1977 C 0.98649 0.21987 0.69497 0.0
N1978 N 0.00996 0.20168 0.8038 0.0
N1979 N 0.99411 0.22271 0.72936 0.0
H1980 H 0.86528 0.50841 0.51201 0.0
H1981 H 0.89882 0.58364 0.68096 0.0
H1982 H 0.91561 0.56595 0.51279 0.0
H1983 H 0.84486 0.5291 0.68394 0.0
H1984 H 0.90459 0.57638 0.61897 0.0
H1985 H 0.85753 0.51408 0.57509 0.0
C1986 C 0.87486 0.52206 0.52559 0.0
C1987 C 0.89113 0.53673 0.50698 0.0
C1988 C 0.89137 0.56595 0.63281 0.0
C1989 C 0.8822 0.54341 0.57865 0.0
C1990 C 0.88802 0.57016 0.66834 0.0
C1991 C 0.87131 0.55699 0.68781 0.0
C1992 C 0.87805 0.54825 0.61616 0.0
C1993 C 0.85784 0.53976 0.66981 0.0
C1994 C 0.87031 0.52537 0.5614 0.0
C1995 C 0.90287 0.55423 0.5258 0.0
N1996 N 0.86158 0.53578 0.63505 0.0
N1997 N 0.89816 0.55704 0.56026 0.0
H1998 H 0.49305 0.37956 0.52682 0.0
H1999 H 0.44799 0.28997 0.66937 0.0
H2000 H 0.45094 0.32101 0.4951 0.0
H2001 H 0.46463 0.34859 0.70096 0.0
H2002 H 0.45676 0.30116 0.6051 0.0
H2003 H 0.49047 0.36834 0.59111 0.0
C2004 C 0.48354 0.36435 0.53326 0.0
C2005 C 0.47205 0.35125 0.50571 0.0
C2006 C 0.45868 0.31157 0.62631 0.0
C2007 C 0.46927 0.33828 0.57866 0.0
C2008 C 0.45377 0.30519 0.66291 0.0
C2009 C 0.4554 0.31832 0.69041 0.0
C2010 C 0.46572 0.33126 0.61749 0.0
C2011 C 0.46293 0.33793 0.6805 0.0
C2012 C 0.482 0.35796 0.56986 0.0
C2013 C 0.45989 0.33166 0.5156 0.0
N2014 N 0.4678 0.34379 0.64499 0.0
N2015 N 0.45883 0.32578 0.55112 0.0
H2016 H 0.65411 0.1121 0.70307 0.0
H2017 H 0.68273 0.1285 0.49418 0.0
H2018 H 0.71138 0.1567 0.66993 0.0
H2019 H 0.6244 0.11156 0.5282 0.0
H2020 H 0.69369 0.13686 0.55796 0.0
H2021 H 0.64297 0.1095 0.63945 0.0
C2022 C 0.66435 0.12142 0.68236 0.0
C2023 C 0.68377 0.13458 0.69181 0.0
C2024 C 0.67854 0.13152 0.55148 0.0
C2025 C 0.67107 0.13141 0.61864 0.0
C2026 C 0.67222 0.12662 0.51513 0.0
C2027 C 0.65257 0.11921 0.50589 0.0
C2028 C 0.66505 0.12849 0.57921 0.0
C2029 C 0.63965 0.11724 0.53412 0.0
C2030 C 0.65791 0.11999 0.6461 0.0
C2031 C 0.69632 0.14639 0.66387 0.0
N2032 N 0.64605 0.12152 0.56966 0.0
N2033 N 0.68984 0.14429 0.62838 0.0
H2034 H 0.4721 0.16028 0.1844 0.0
H2035 H 0.43814 0.08459 0.01609 0.0
H2036 H 0.42128 0.10308 0.18373 0.0
H2037 H 0.49241 0.13884 1.01308 0.0
H2038 H 0.43233 0.09213 0.07785 0.0
H2039 H 0.4798 0.15434 0.12147 0.0
C2040 C 0.4624 0.14666 0.17086 0.0
C2041 C 0.44601 0.13216 0.18946 0.0
C2042 C 0.44562 0.10243 0.06405 0.0
C2043 C 0.45487 0.12516 0.11797 0.0
C2044 C 0.449 0.09805 0.02866 0.0
C2045 C 0.46581 0.11107 1.00925 0.0
C2046 C 0.45902 0.12013 0.08061 0.0
C2047 C 0.47934 0.1283 0.02717 0.0
C2048 C 0.46691 0.14319 0.13514 0.0
C2049 C 0.43411 0.11468 0.17071 0.0
N2050 N 0.47558 0.13243 0.06178 0.0
N2051 N 0.4388 0.11171 0.13633 0.0
H2052 H 0.9181 0.35459 0.01517 0.0
H2053 H 0.84241 0.31172 0.18318 0.0
H2054 H 0.86298 0.35277 1.01122 0.0
H2055 H 0.90028 0.31977 0.18312 0.0
H2056 H 0.84812 0.32526 0.12019 0.0
H2057 H 0.91088 0.34161 0.07722 0.0
C2058 C 0.90451 0.35166 0.0276 0.0
C2059 C 0.89116 0.35483 1.00785 0.0
C2060 C 0.85948 0.32393 0.13402 0.0
C2061 C 0.88246 0.33938 0.07952 0.0
C2062 C 0.85615 0.31601 0.16979 0.0
C2063 C 0.87089 0.3146 0.18858 0.0
C2064 C 0.87761 0.33034 0.117 0.0
C2065 C 0.88849 0.32063 0.16998 0.0
C2066 C 0.90031 0.34412 0.06315 0.0
C2067 C 0.87377 0.35074 0.02558 0.0
N2068 N 0.89132 0.32821 0.13556 0.0
N2069 N 0.86982 0.34305 0.06036 0.0
H2070 H 0.65004 0.56548 1.01301 0.0
H2071 H 0.69081 0.53134 0.18264 0.0
H2072 H 0.64888 0.51063 1.01149 0.0
H2073 H 0.68487 0.58243 0.18116 0.0
H2074 H 0.67704 0.52345 0.11981 0.0
H2075 H 0.66316 0.57132 0.07502 0.0
C2076 C 0.65232 0.55449 0.02599 0.0
C2077 C 0.64828 0.53751 1.00693 0.0
C2078 C 0.67888 0.53643 0.1333 0.0
C2079 C 0.66389 0.54434 0.0785 0.0
C2080 C 0.68694 0.54105 0.16896 0.0
C2081 C 0.68902 0.55758 0.18732 0.0
C2082 C 0.67301 0.54851 0.11592 0.0
C2083 C 0.6835 0.56949 0.16838 0.0
C2084 C 0.65995 0.55789 0.0615 0.0
C2085 C 0.65159 0.52383 0.02531 0.0
N2086 N 0.67578 0.56471 0.13405 0.0
N2087 N 0.65938 0.52761 0.06 0.0
H2088 H 0.56362 0.91795 1.01396 0.0
H2089 H 0.5311 0.84194 0.84639 0.0
H2090 H 0.51108 0.86221 0.01922 0.0
H2091 H 0.58075 0.89993 0.84665 0.0
H2092 H 0.52319 0.84762 0.90937 0.0
H2093 H 0.56917 0.91074 0.95178 0.0
C2094 C 0.55307 0.90421 1.00178 0.0
C2095 C 0.53685 0.89069 0.02194 0.0
C2096 C 0.53585 0.85901 0.89555 0.0
C2097 C 0.54335 0.882 0.9501 0.0
C2098 C 0.54048 0.85571 0.85979 0.0
C2099 C 0.55661 0.87049 0.84105 0.0
C2100 C 0.54751 0.87716 0.9126 0.0
C2101 C 0.56811 0.88811 0.85968 0.0
C2102 C 0.5563 0.90003 0.96615 0.0
C2103 C 0.52368 0.87313 1.00453 0.0
N2104 N 0.56332 0.89091 0.89407 0.0
N2105 N 0.5273 0.86919 0.96966 0.0
H2106 H 0.08621 0.64819 1.013 0.0
H2107 H 0.16154 0.68943 0.84416 0.0
H2108 H 0.14028 0.6478 0.01569 0.0
H2109 H 0.1042 0.68272 0.84488 0.0
H2110 H 0.15565 0.67574 0.90707 0.0
H2111 H 0.09355 0.66118 0.95093 0.0
C2112 C 0.09959 0.65062 1.00027 0.0
C2113 C 0.11261 0.64683 0.01966 0.0
C2114 C 0.14446 0.6774 0.89338 0.0
C2115 C 0.12146 0.6623 0.94802 0.0
C2116 C 0.14789 0.6854 0.85767 0.0
C2117 C 0.13334 0.68724 0.83909 0.0
C2118 C 0.12642 0.67135 0.91056 0.0
C2119 C 0.11584 0.68153 0.85782 0.0
C2120 C 0.10385 0.65817 0.96472 0.0
C2121 C 0.12973 0.65032 1.0016 0.0
N2122 N 0.11291 0.67388 0.89218 0.0
N2123 N 0.13377 0.65804 0.96686 0.0
H2124 H 0.32273 0.45411 0.03394 0.0
H2125 H 0.3499 0.45763 0.82478 0.0
H2126 H 0.38216 0.48761 0.99753 0.0
H2127 H 0.29484 0.45147 0.85693 0.0
H2128 H 0.36158 0.46662 0.8879 0.0
H2129 H 0.31178 0.45124 0.97006 0.0
C2130 C 0.33348 0.46105 1.01241 0.0
C2131 C 0.3534 0.47112 0.02102 0.0
C2132 C 0.34701 0.46347 0.88116 0.0
C2133 C 0.34092 0.46746 0.9476 0.0
C2134 C 0.34022 0.45817 0.84516 0.0
C2135 C 0.32125 0.4536 0.8355 0.0
C2136 C 0.33463 0.4638 0.90827 0.0
C2137 C 0.30952 0.45482 0.8631 0.0
C2138 C 0.3272 0.45944 0.97599 0.0
C2139 C 0.36669 0.47983 0.9921 0.0
N2140 N 0.3163 0.4595 0.89838 0.0
N2141 N 0.36023 0.47751 0.95656 0.0
H2142 H 0.11446 0.4609 0.32675 0.0
H2143 H 0.12608 0.44472 0.53625 0.0
H2144 H 0.15566 0.4439 0.36193 0.0
H2145 H 0.11328 0.48915 0.50224 0.0
H2146 H 0.13467 0.44196 0.47279 0.0
H2147 H 0.11153 0.46922 0.39038 0.0
C2148 C 0.12298 0.459 0.34793 0.0
C2149 C 0.13526 0.45158 0.33904 0.0
C2150 C 0.13016 0.45244 0.47921 0.0
C2151 C 0.13168 0.46082 0.4122 0.0
C2152 C 0.12511 0.45396 0.51538 0.0
C2153 C 0.1188 0.46711 0.52456 0.0
C2154 C 0.12843 0.46377 0.45154 0.0
C2155 C 0.11805 0.47883 0.49639 0.0
C2156 C 0.12136 0.46386 0.38419 0.0
C2157 C 0.14605 0.44958 0.36756 0.0
N2158 N 0.12248 0.47664 0.461 0.0
N2159 N 0.14375 0.45384 0.40301 0.0
H2160 H 0.55872 0.71379 0.36052 0.0
H2161 H 0.51395 0.62489 0.50341 0.0
H2162 H 0.54441 0.65574 0.32926 0.0
H2163 H 0.55794 0.68278 0.5349 0.0
H2164 H 0.51712 0.63611 0.43903 0.0
H2165 H 0.55059 0.70263 0.42494 0.0
C2166 C 0.55364 0.69869 0.36712 0.0
C2167 C 0.55243 0.68572 0.33965 0.0
C2168 C 0.5259 0.64634 0.46024 0.0
C2169 C 0.54274 0.67282 0.41265 0.0
C2170 C 0.52405 0.63997 0.49687 0.0
C2171 C 0.53584 0.65287 0.5244 0.0
C2172 C 0.53921 0.66585 0.45142 0.0
C2173 C 0.54874 0.67229 0.51441 0.0
C2174 C 0.54907 0.69236 0.40377 0.0
C2175 C 0.54577 0.66628 0.3497 0.0
N2176 N 0.55004 0.67819 0.47886 0.0
N2177 N 0.54112 0.66042 0.38526 0.0
H2178 H 0.35733 0.86407 0.51653 0.0
H2179 H 0.31484 0.89735 0.34838 0.0
H2180 H 0.3496 0.9141 0.51652 0.0
H2181 H 0.31533 0.84333 0.34533 0.0
H2182 H 0.32785 0.90307 0.41047 0.0
H2183 H 0.34347 0.85615 0.45375 0.0
C2184 C 0.35304 0.87354 0.5032 0.0
C2185 C 0.35465 0.88979 0.52195 0.0
C2186 C 0.32502 0.88984 0.3966 0.0
C2187 C 0.33855 0.88068 0.45061 0.0
C2188 C 0.31745 0.8865 0.36105 0.0
C2189 C 0.3139 0.8698 0.34155 0.0
C2190 C 0.32942 0.87651 0.41319 0.0
C2191 C 0.31764 0.8563 0.35951 0.0
C2192 C 0.34493 0.8689 0.46756 0.0
C2193 C 0.3486 0.90139 0.50344 0.0
N2194 N 0.32539 0.86003 0.39425 0.0
N2195 N 0.34086 0.8966 0.46913 0.0
H2196 H 0.28672 0.23688 0.95617 0.0
H2197 H 0.37113 0.22983 0.86042 0.0
H2198 H 0.30251 0.19811 1.00882 0.0
H2199 H 0.37843 0.28456 0.89809 0.0
H2200 H 0.34208 0.2128 0.9004 0.0
H2201 H 0.31544 0.24895 0.91676 0.0
C2202 C 0.29614 0.23075 0.95917 0.0
C2203 C 0.29254 0.21689 0.98656 0.0
C2204 C 0.3502 0.22854 0.89983 0.0
C2205 C 0.32513 0.23024 0.94061 0.0
C2206 C 0.36676 0.23825 0.87719 0.0
C2207 C 0.37694 0.25867 0.87506 0.0
C2208 C 0.34372 0.2394 0.91975 0.0
C2209 C 0.37066 0.26883 0.89765 0.0
C2210 C 0.31249 0.23764 0.93667 0.0
C2211 C 0.30493 0.20901 0.98836 0.0
N2212 N 0.35432 0.25914 0.91833 0.0
N2213 N 0.32083 0.21589 0.96582 0.0
H2214 H 0.74486 0.13581 0.92058 0.0
H2215 H 0.80273 0.0771 0.93821 0.0
H2216 H 0.7572 0.10957 0.82848 0.0
H2217 H 0.77882 0.09195 0.03071 0.0
H2218 H 0.792 0.09465 0.89737 0.0
H2219 H 0.76296 0.12556 0.96092 0.0
C2220 C 0.75179 0.12829 0.90877 0.0
C2221 C 0.74968 0.12363 0.87118 0.0
C2222 C 0.78939 0.09436 0.92669 0.0
C2223 C 0.77015 0.11158 0.9171 0.0
C2224 C 0.79569 0.08452 0.94998 0.0
C2225 C 0.7918 0.08328 0.98784 0.0
C2226 C 0.77915 0.10304 0.94142 0.0
C2227 C 0.78223 0.09275 1.00167 0.0
C2228 C 0.76198 0.12229 0.93179 0.0
C2229 C 0.75861 0.11352 0.85732 0.0
N2230 N 0.77615 0.10213 0.97851 0.0
N2231 N 0.76836 0.10776 0.88025 0.0
H2232 H 0.91406 0.68844 0.03222 0.0
H2233 H 0.89027 0.64755 0.82765 0.0
H2234 H 0.92347 0.72526 0.93842 0.0
H2235 H 0.86846 0.61057 0.92295 0.0
H2236 H 0.90072 0.67609 0.86732 0.0
H2237 H 0.8956 0.65976 0.99318 0.0
C2238 C 0.91181 0.69043 1.00348 0.0
C2239 C 0.92007 0.70919 0.98855 0.0
C2240 C 0.89331 0.66175 0.87958 0.0
C2241 C 0.89947 0.67644 0.94329 0.0
C2242 C 0.88727 0.64547 0.8569 0.0
C2243 C 0.87831 0.62673 0.87208 0.0
C2244 C 0.89075 0.65931 0.91791 0.0
C2245 C 0.87508 0.62478 0.91019 0.0
C2246 C 0.90135 0.67407 0.98115 0.0
C2247 C 0.91708 0.71102 0.95105 0.0
N2248 N 0.88151 0.64087 0.93185 0.0
N2249 N 0.90723 0.69486 0.92959 0.0
H2250 H 0.24643 0.35592 0.70148 0.0
H2251 H 0.22686 0.31512 0.49616 0.0
H2252 H 0.25945 0.39292 0.60666 0.0
H2253 H 0.20195 0.27816 0.59074 0.0
H2254 H 0.23749 0.34375 0.5357 0.0
H2255 H 0.22866 0.32732 0.66179 0.0
C2256 C 0.24513 0.35798 0.67234 0.0
C2257 C 0.2542 0.37676 0.65733 0.0
C2258 C 0.22941 0.32941 0.54781 0.0
C2259 C 0.23439 0.3441 0.61142 0.0
C2260 C 0.22328 0.31308 0.5252 0.0
C2261 C 0.21336 0.2943 0.5402 0.0
C2262 C 0.22593 0.32698 0.58594 0.0
C2263 C 0.20935 0.29241 0.57807 0.0
C2264 C 0.23507 0.34166 0.64965 0.0
C2265 C 0.25243 0.37867 0.61934 0.0
N2266 N 0.21584 0.30853 0.59971 0.0
N2267 N 0.24294 0.36256 0.59763 0.0
H2268 H 0.68834 0.91191 0.49693 0.0
H2269 H 0.64824 0.88856 0.70209 0.0
H2270 H 0.7255 0.92173 0.59035 0.0
H2271 H 0.61092 0.8668 0.6072 0.0
H2272 H 0.67662 0.89889 0.66206 0.0
H2273 H 0.65982 0.89353 0.53635 0.0
C2274 C 0.69044 0.90977 0.52567 0.0
C2275 C 0.70924 0.91812 0.54039 0.0
C2276 C 0.66223 0.89151 0.64996 0.0
C2277 C 0.67668 0.8976 0.58607 0.0
C2278 C 0.64605 0.88554 0.67285 0.0
C2279 C 0.62726 0.87663 0.6579 0.0
C2280 C 0.65965 0.88893 0.61166 0.0
C2281 C 0.62517 0.87338 0.6198 0.0
C2282 C 0.67417 0.89935 0.54822 0.0
C2283 C 0.71122 0.91526 0.57789 0.0
N2284 N 0.64117 0.87974 0.59793 0.0
N2285 N 0.69515 0.90546 0.59955 0.0
H2286 H 0.11569 0.76095 0.69957 0.0
H2287 H 0.0896 0.77559 0.49511 0.0
H2288 H 0.1357 0.74385 0.60423 0.0
H2289 H 0.08212 0.80489 0.58799 0.0
H2290 H 0.10817 0.76547 0.53404 0.0
H2291 H 0.1051 0.77881 0.65953 0.0
C2292 C 0.11829 0.76141 0.6702 0.0
C2293 C 0.12679 0.75117 0.65514 0.0
C2294 C 0.10282 0.77441 0.54588 0.0
C2295 C 0.11415 0.771 0.60893 0.0
C2296 C 0.09228 0.78024 0.5236 0.0
C2297 C 0.08453 0.79124 0.53832 0.0
C2298 C 0.1053 0.77926 0.58349 0.0
C2299 C 0.0881 0.79663 0.57552 0.0
C2300 C 0.11216 0.7715 0.64732 0.0
C2301 C 0.12946 0.75182 0.6169 0.0
N2302 N 0.09802 0.79038 0.59695 0.0
N2303 N 0.12295 0.76135 0.59507 0.0
H2304 H 0.64996 0.76006 0.20402 0.0
H2305 H 0.68932 0.77655 0.99806 0.0
H2306 H 0.61235 0.74412 0.10949 0.0
H2307 H 0.72686 0.80392 0.09102 0.0
H2308 H 0.66096 0.76621 0.038 0.0
H2309 H 0.67823 0.77781 0.16355 0.0
C2310 C 0.64769 0.7607 0.17475 0.0
C2311 C 0.62885 0.75081 0.16003 0.0
C2312 C 0.67536 0.77478 0.04966 0.0
C2313 C 0.6611 0.77063 0.11334 0.0
C2314 C 0.69153 0.78075 0.02681 0.0
C2315 C 0.7104 0.79128 0.04124 0.0
C2316 C 0.67803 0.77901 0.08752 0.0
C2317 C 0.71253 0.79606 0.07878 0.0
C2318 C 0.6638 0.77075 0.15163 0.0
C2319 C 0.62664 0.75177 0.12191 0.0
N2320 N 0.69655 0.78969 0.10073 0.0
N2321 N 0.64257 0.76129 0.09984 0.0
H2322 H 0.202 0.92593 0.08647 0.0
H2323 H 0.25784 0.8652 0.10418 0.0
H2324 H 0.22611 0.91143 0.99379 0.0
H2325 H 0.24774 0.89362 0.19543 0.0
H2326 H 0.24009 0.87591 0.06372 0.0
H2327 H 0.21244 0.90806 0.12701 0.0
C2328 C 0.20908 0.91857 0.0746 0.0
C2329 C 0.2131 0.92 0.03678 0.0
C2330 C 0.24147 0.87952 0.09273 0.0
C2331 C 0.22535 0.89978 0.08289 0.0
C2332 C 0.25142 0.87325 0.11582 0.0
C2333 C 0.25406 0.8784 0.15317 0.0
C2334 C 0.23404 0.89094 0.10719 0.0
C2335 C 0.24586 0.88924 0.16679 0.0
C2336 C 0.21519 0.90852 0.09773 0.0
C2337 C 0.22266 0.91053 0.02282 0.0
N2338 N 0.2363 0.8952 0.14386 0.0
N2339 N 0.22853 0.9009 0.04583 0.0
H2340 H 0.13875 0.39102 0.11197 0.0
H2341 H 0.07514 0.2746 0.09386 0.0
H2342 H 0.10531 0.35319 0.20091 0.0
H2343 H 0.09431 0.31327 1.00068 0.0
H2344 H 0.09224 0.30282 0.13499 0.0
H2345 H 0.12861 0.36234 0.07246 0.0
C2346 C 0.12964 0.37664 0.12337 0.0
C2347 C 0.12294 0.37441 0.15976 0.0
C2348 C 0.09301 0.30512 0.10551 0.0
C2349 C 0.11111 0.34158 0.11479 0.0
C2350 C 0.08343 0.28901 0.08208 0.0
C2351 C 0.08355 0.29166 0.04391 0.0
C2352 C 0.10281 0.32402 0.0906 0.0
C2353 C 0.09409 0.31066 0.02999 0.0
C2354 C 0.12372 0.3603 0.10079 0.0
C2355 C 0.11084 0.35549 0.17302 0.0
N2356 N 0.10323 0.32611 0.05328 0.0
N2357 N 0.10528 0.33983 0.15059 0.0
H2358 H 0.80547 0.72635 0.44 0.0
H2359 H 0.74671 0.60977 0.4229 0.0
H2360 H 0.77999 0.68775 0.5323 0.0
H2361 H 0.76142 0.64844 0.33025 0.0
H2362 H 0.76473 0.63806 0.46347 0.0
H2363 H 0.79539 0.698 0.39967 0.0
C2364 C 0.79821 0.7119 0.45187 0.0
C2365 C 0.79368 0.70933 0.48949 0.0
C2366 C 0.76432 0.64036 0.43417 0.0
C2367 C 0.78176 0.67683 0.44361 0.0
C2368 C 0.7542 0.62421 0.41103 0.0
C2369 C 0.75276 0.62682 0.37322 0.0
C2370 C 0.77306 0.65927 0.41935 0.0
C2371 C 0.76235 0.64585 0.35926 0.0
C2372 C 0.79229 0.69572 0.42885 0.0
C2373 C 0.78386 0.6903 0.50344 0.0
N2374 N 0.77199 0.66133 0.38229 0.0
N2375 N 0.77814 0.6748 0.48053 0.0
H2376 H 0.27724 0.0774 0.44284 0.0
H2377 H 0.39379 0.13772 0.42542 0.0
H2378 H 0.3158 0.09132 0.53548 0.0
H2379 H 0.35532 0.10932 0.33408 0.0
H2380 H 0.36533 0.12712 0.46575 0.0
H2381 H 0.30558 0.09529 0.40239 0.0
C2382 C 0.29168 0.08465 0.45473 0.0
C2383 C 0.29424 0.08304 0.4925 0.0
C2384 C 0.36311 0.12349 0.43675 0.0
C2385 C 0.32673 0.10328 0.4465 0.0
C2386 C 0.37934 0.12971 0.41372 0.0
C2387 C 0.37684 0.12453 0.37638 0.0
C2388 C 0.34426 0.1121 0.42223 0.0
C2389 C 0.35782 0.11373 0.3627 0.0
C2390 C 0.30785 0.09471 0.43165 0.0
C2391 C 0.31326 0.09236 0.50649 0.0
N2392 N 0.34228 0.10782 0.38557 0.0
N2393 N 0.32877 0.10201 0.48353 0.0
H2394 H 0.89188 0.24472 0.32968 0.0
H2395 H 0.91229 0.225 0.53446 0.0
H2396 H 0.86613 0.25626 0.42356 0.0
H2397 H 0.92327 0.19872 0.44073 0.0
H2398 H 0.89406 0.23528 0.4948 0.0
H2399 H 0.90216 0.22652 0.36939 0.0
C2400 C 0.88799 0.24297 0.35858 0.0
C2401 C 0.87795 0.25175 0.37335 0.0
C2402 C 0.9001 0.22694 0.48293 0.0
C2403 C 0.89021 0.2315 0.41932 0.0
C2404 C 0.91044 0.22102 0.5056 0.0
C2405 C 0.91906 0.21082 0.49086 0.0
C2406 C 0.89875 0.22303 0.44495 0.0
C2407 C 0.91658 0.20632 0.4532 0.0
C2408 C 0.89393 0.23267 0.38129 0.0
C2409 C 0.87361 0.24944 0.41108 0.0
N2410 N 0.90688 0.21268 0.43144 0.0
N2411 N 0.87998 0.23977 0.43286 0.0
H2412 H 0.06047 0.58968 0.25532 0.0
H2413 H 0.94387 0.53177 0.27163 0.0
H2414 H 0.02223 0.57897 0.16329 0.0
H2415 H 0.98217 0.55895 0.36373 0.0
H2416 H 0.97239 0.54215 0.2316 0.0
H2417 H 0.03191 0.57165 0.29533 0.0
C2418 C 0.04605 0.58306 0.24342 0.0
C2419 C 0.04363 0.58562 0.20599 0.0
C2420 C 0.97455 0.54554 0.2607 0.0
C2421 C 0.01096 0.56525 0.25143 0.0
C2422 C 0.95829 0.53947 0.28354 0.0
C2423 C 0.96074 0.54438 0.321 0.0
C2424 C 0.99338 0.55651 0.27553 0.0
C2425 C 0.97973 0.55476 0.33499 0.0
C2426 C 0.02977 0.57294 0.26625 0.0
C2427 C 0.02465 0.57716 0.192 0.0
N2428 N 0.99531 0.56053 0.3123 0.0
N2429 N 0.00905 0.56741 0.21469 0.0
H2430 H 0.38586 0.43433 0.24177 0.0
H2431 H 0.47685 0.44015 0.3366 0.0
H2432 H 0.4402 0.47226 0.18774 0.0
H2433 H 0.42944 0.38571 0.29777 0.0
H2434 H 0.46502 0.45748 0.29694 0.0
H2435 H 0.40246 0.42209 0.28096 0.0
C2436 C 0.40136 0.44026 0.23846 0.0
C2437 C 0.41156 0.45392 0.21074 0.0
C2438 C 0.45737 0.44174 0.29718 0.0
C2439 C 0.43075 0.44038 0.25641 0.0
C2440 C 0.4641 0.43185 0.31963 0.0
C2441 C 0.4538 0.41142 0.32135 0.0
C2442 C 0.44008 0.43104 0.27703 0.0
C2443 C 0.43743 0.40143 0.29853 0.0
C2444 C 0.41079 0.43327 0.26082 0.0
C2445 C 0.43177 0.46153 0.20847 0.0
N2446 N 0.43088 0.41129 0.27804 0.0
N2447 N 0.44077 0.45455 0.23088 0.0
H2448 H 0.58385 0.02068 0.36974 0.0
H2449 H 0.55517 0.98099 0.16491 0.0
H2450 H 0.58928 0.05773 0.27856 0.0
H2451 H 0.53694 0.9433 0.25947 0.0
H2452 H 0.56615 0.00915 0.20586 0.0
H2453 H 0.5653 0.99213 0.33043 0.0
C2454 C 0.58078 0.02274 0.34154 0.0
C2455 C 0.58793 0.04154 0.32742 0.0
C2456 C 0.55941 0.99472 0.21773 0.0
C2457 C 0.5671 0.00895 0.28186 0.0
C2458 C 0.55304 0.97866 0.19434 0.0
C2459 C 0.54492 0.95984 0.2089 0.0
C2460 C 0.55804 0.99199 0.25611 0.0
C2461 C 0.54287 0.95757 0.24721 0.0
C2462 C 0.57023 0.00645 0.31907 0.0
C2463 C 0.5838 0.04346 0.2906 0.0
N2464 N 0.5496 0.97347 0.26952 0.0
N2465 N 0.57386 0.02739 0.26897 0.0
H2466 H 0.47143 0.05947 0.77325 0.0
H2467 H 0.41345 0.94285 0.75632 0.0
H2468 H 0.44688 0.02085 0.86581 0.0
H2469 H 0.42669 0.9814 0.66387 0.0
H2470 H 0.43159 0.97123 0.79665 0.0
H2471 H 0.46118 0.03113 0.73279 0.0
C2472 C 0.46435 0.04502 0.78514 0.0
C2473 C 0.46012 0.04244 0.82288 0.0
C2474 C 0.43083 0.97349 0.76743 0.0
C2475 C 0.44802 0.00995 0.77686 0.0
C2476 C 0.42064 0.95729 0.74442 0.0
C2477 C 0.41875 0.95984 0.70675 0.0
C2478 C 0.43921 0.99238 0.75263 0.0
C2479 C 0.42796 0.97886 0.69277 0.0
C2480 C 0.45833 0.02885 0.76205 0.0
C2481 C 0.45052 0.02341 0.83685 0.0
N2482 N 0.43769 0.99438 0.71567 0.0
N2483 N 0.44471 0.00791 0.81388 0.0
H2484 H 0.94253 0.40804 0.77027 0.0
H2485 H 0.05891 0.47127 0.75215 0.0
H2486 H 0.98128 0.42686 0.86334 0.0
H2487 H 0.0209 0.43876 0.66269 0.0
H2488 H 0.03031 0.46112 0.79181 0.0
H2489 H 0.9707 0.4253 0.72913 0.0
C2490 C 0.95695 0.41627 0.78203 0.0
C2491 C 0.95965 0.41624 0.82017 0.0
C2492 C 0.02821 0.45646 0.76334 0.0
C2493 C 0.99193 0.43569 0.77347 0.0
C2494 C 0.04451 0.46238 0.74067 0.0
C2495 C 0.04219 0.45595 0.70409 0.0
C2496 C 0.00946 0.44408 0.74923 0.0
C2497 C 0.02325 0.4441 0.69073 0.0
C2498 C 0.97303 0.42595 0.7586 0.0
C2499 C 0.97865 0.42673 0.83406 0.0
N2500 N 0.00763 0.43851 0.71326 0.0
N2501 N 0.99406 0.43596 0.81077 0.0
H2502 H 0.53487 0.59194 0.75262 0.0
H2503 H 0.59206 0.53251 0.76959 0.0
H2504 H 0.56106 0.57975 0.66027 0.0
H2505 H 0.58069 0.55959 0.86151 0.0
H2506 H 0.57441 0.54335 0.72916 0.0
H2507 H 0.5452 0.57382 0.79277 0.0
C2508 C 0.5424 0.58504 0.74071 0.0
C2509 C 0.54703 0.5872 0.70312 0.0
C2510 C 0.57548 0.54663 0.7583 0.0
C2511 C 0.55912 0.56668 0.74878 0.0
C2512 C 0.58537 0.54027 0.78136 0.0
C2513 C 0.58761 0.54501 0.81891 0.0
C2514 C 0.56772 0.55771 0.77298 0.0
C2515 C 0.57909 0.55551 0.83273 0.0
C2516 C 0.54843 0.57485 0.76362 0.0
C2517 C 0.55713 0.57829 0.68912 0.0
N2518 N 0.56959 0.56155 0.80982 0.0
N2519 N 0.5629 0.5685 0.71191 0.0
H2520 H 0.35607 0.38411 0.07691 0.0
H2521 H 0.25496 0.28721 0.08229 0.0
H2522 H 0.30414 0.38345 0.11394 0.0
H2523 H 0.30675 0.28743 0.11891 0.0
H2524 H 0.27318 0.32279 0.08063 0.0
H2525 H 0.3384 0.34833 0.0788 0.0
C2526 C 0.34093 0.3764 0.08505 0.0
C2527 C 0.33144 0.38655 0.09526 0.0
C2528 C 0.28049 0.315 0.08912 0.0
C2529 C 0.31139 0.34618 0.09709 0.0
C2530 C 0.27018 0.29481 0.09002 0.0
C2531 C 0.27944 0.28456 0.10098 0.0
C2532 C 0.30026 0.32488 0.09829 0.0
C2533 C 0.29914 0.29495 0.11071 0.0
C2534 C 0.33098 0.35613 0.08642 0.0
C2535 C 0.31191 0.37605 0.106 0.0
N2536 N 0.30904 0.31468 0.10877 0.0
N2537 N 0.30244 0.35636 0.10633 0.0
H2538 H 0.61839 0.95864 0.04128 0.0
H2539 H 0.71827 0.00892 0.15303 0.0
H2540 H 0.62196 0.95072 0.15808 0.0
H2541 H 0.71464 0.99626 0.03672 0.0
H2542 H 0.68281 0.99372 0.15503 0.0
H2543 H 0.65386 0.97873 0.03915 0.0
C2544 C 0.62663 0.96126 0.06648 0.0
C2545 C 0.61734 0.95287 0.09982 0.0
C2546 C 0.68984 0.99439 0.12909 0.0
C2547 C 0.65763 0.97583 0.09761 0.0
C2548 C 0.71001 0.00308 0.12789 0.0
C2549 C 0.71929 0.00361 0.09475 0.0
C2550 C 0.67901 0.98647 0.09681 0.0
C2551 C 0.70798 0.99589 0.06293 0.0
C2552 C 0.64681 0.97265 0.06522 0.0
C2553 C 0.62864 0.95673 0.13173 0.0
N2554 N 0.68838 0.9876 0.06475 0.0
N2555 N 0.64825 0.96795 0.12984 0.0
H2556 H 0.07606 0.69448 0.11989 0.0
H2557 H 0.97465 0.69014 0.10625 0.0
H2558 H 0.02451 0.64138 0.08787 0.0
H2559 H 0.02864 0.74099 0.07545 0.0
H2560 H 0.99186 0.67167 0.11081 0.0
H2561 H 0.05784 0.71167 0.11553 0.0
C2562 C 0.06087 0.68644 0.11208 0.0
C2563 C 0.05174 0.66654 0.10405 0.0
C2564 C 0.99982 0.68686 0.10298 0.0
C2565 C 0.03088 0.68602 0.09944 0.0
C2566 C 0.9901 0.69739 0.10058 0.0
C2567 C 1.0003 0.71706 0.09048 0.0
C2568 C 0.01987 0.69629 0.09608 0.0
C2569 C 0.02025 0.72581 0.08317 0.0
C2570 C 0.05055 0.69626 0.10945 0.0
C2571 C 0.03206 0.65679 0.09397 0.0
N2572 N 0.02944 0.7154 0.08644 0.0
N2573 N 0.02217 0.66663 0.09216 0.0
H2574 H 0.28759 0.27667 0.49874 0.0
H2575 H 0.38365 0.32679 0.377 0.0
H2576 H 0.2874 0.28623 0.3817 0.0
H2577 H 0.38415 0.32747 0.49594 0.0
H2578 H 0.34836 0.31171 0.37807 0.0
H2579 H 0.323 0.29515 0.49827 0.0
C2580 C 0.29502 0.2827 0.47293 0.0
C2581 C 0.2846 0.27979 0.44012 0.0
C2582 C 0.35619 0.31525 0.40393 0.0
C2583 C 0.32506 0.30089 0.43941 0.0
C2584 C 0.37632 0.32376 0.40336 0.0
C2585 C 0.38679 0.32822 0.43648 0.0
C2586 C 0.34646 0.31101 0.43784 0.0
C2587 C 0.37661 0.32419 0.46979 0.0
C2588 C 0.31522 0.29331 0.47272 0.0
C2589 C 0.29491 0.2881 0.40758 0.0
N2590 N 0.35695 0.31567 0.46963 0.0
N2591 N 0.31463 0.29816 0.40798 0.0
H2592 H 0.69061 0.97471 0.42301 0.0
H2593 H 0.6975 0.07733 0.41759 0.0
H2594 H 0.74168 0.02722 0.45898 0.0
H2595 H 0.64322 0.0257 0.44363 0.0
H2596 H 0.71407 0.05851 0.42238 0.0
H2597 H 0.6728 0.99263 0.42054 0.0
C2598 C 0.69804 0.98998 0.4303 0.0
C2599 C 0.7176 0.99957 0.44115 0.0
C2600 C 0.69854 0.05133 0.42716 0.0
C2601 C 0.69756 0.01994 0.438 0.0
C2602 C 0.68909 0.06201 0.4243 0.0
C2603 C 0.66903 0.053 0.43036 0.0
C2604 C 0.68778 0.03145 0.43538 0.0
C2605 C 0.65876 0.03314 0.43907 0.0
C2606 C 0.68788 1.0001 0.4291 0.0
C2607 C 0.72658 0.0193 0.45058 0.0
N2608 N 0.66826 0.0229 0.44101 0.0
N2609 N 0.71653 0.0289 0.44844 0.0
H2610 H 0.97997 0.61833 0.44027 0.0
H2611 H 0.97506 0.71513 0.45291 0.0
H2612 H 0.92918 0.62123 0.40793 0.0
H2613 H 0.02847 0.71695 0.42252 0.0
H2614 H 0.958 0.67973 0.44809 0.0
H2615 H 0.99826 0.65401 0.44484 0.0
C2616 C 0.9727 0.62648 0.43425 0.0
C2617 C 0.95309 0.61694 0.42374 0.0
C2618 C 0.97345 0.6879 0.44246 0.0
C2619 C 0.97366 0.65728 0.42934 0.0
C2620 C 0.98319 0.70804 0.44536 0.0
C2621 C 0.00315 0.71888 0.43795 0.0
C2622 C 0.98382 0.67855 0.43281 0.0
C2623 C 0.01302 0.70903 0.42815 0.0
C2624 C 0.98313 0.64673 0.43666 0.0
C2625 C 0.94431 0.62807 0.41599 0.0
N2626 N 0.00325 0.6893 0.4261 0.0
N2627 N 0.95462 0.64768 0.41927 0.0
H2628 H 0.69111 0.7182 0.92165 0.0
H2629 H 0.69591 0.6214 0.90463 0.0
H2630 H 0.74225 0.71514 0.95038 0.0
H2631 H 0.64289 0.61953 0.93838 0.0
H2632 H 0.71296 0.6568 0.90914 0.0
H2633 H 0.67278 0.68255 0.91621 0.0
C2634 C 0.69845 0.71002 0.92666 0.0
C2635 C 0.71816 0.71949 0.93648 0.0
C2636 C 0.69759 0.64861 0.91555 0.0
C2637 C 0.69756 0.67921 0.92986 0.0
C2638 C 0.68785 0.62847 0.91284 0.0
C2639 C 0.66802 0.61761 0.92135 0.0
C2640 C 0.68735 0.65795 0.92615 0.0
C2641 C 0.65825 0.62745 0.93192 0.0
C2642 C 0.68801 0.68979 0.92376 0.0
C2643 C 0.72704 0.70833 0.94293 0.0
N2644 N 0.66802 0.64718 0.93383 0.0
N2645 N 0.7167 0.68876 0.9392 0.0
H2646 H 0.38397 0.04148 0.98467 0.0
H2647 H 0.28541 0.99902 0.8693 0.0
H2648 H 0.38218 0.05335 0.86912 0.0
H2649 H 0.2882 0.00554 0.98757 0.0
H2650 H 0.32077 0.01316 0.86789 0.0
H2651 H 0.34845 0.02226 0.98503 0.0
C2652 C 0.37611 0.0399 0.95934 0.0
C2653 C 0.38594 0.04917 0.92693 0.0
C2654 C 0.31357 0.0114 0.89411 0.0
C2655 C 0.34553 0.02724 0.92713 0.0
C2656 C 0.29345 0.00332 0.89494 0.0
C2657 C 0.28397 1.00136 0.92854 0.0
C2658 C 0.32414 0.01729 0.92715 0.0
C2659 C 0.29501 0.00707 0.96101 0.0
C2660 C 0.35588 0.029 0.9596 0.0
C2661 C 0.3751 0.04663 0.89482 0.0
N2662 N 0.31456 0.01481 0.95951 0.0
N2663 N 0.35543 0.03592 0.89574 0.0
H2664 H 0.99664 0.28212 0.99511 0.0
H2665 H 0.95003 0.32936 0.86935 0.0
H2666 H 0.00776 0.29072 0.87829 0.0
H2667 H 0.95841 0.3402 0.98628 0.0
H2668 H 0.96984 0.31375 0.87189 0.0
H2669 H 0.98118 0.30206 0.99258 0.0
C2670 C 0.99586 0.28826 0.96895 0.0
C2671 C 0.00331 0.28468 0.93678 0.0
C2672 C 0.96747 0.3197 0.89691 0.0
C2673 C 0.98563 0.30733 0.93371 0.0
C2674 C 0.9561 0.32849 0.89553 0.0
C2675 C 0.95249 0.3359 0.92773 0.0
C2676 C 0.97499 0.31806 0.93082 0.0
C2677 C 0.96084 0.33462 0.96085 0.0
C2678 C 0.98715 0.29971 0.96758 0.0
C2679 C 0.00214 0.29313 0.9037 0.0
N2680 N 0.97155 0.32563 0.96164 0.0
N2681 N 0.99323 0.30391 0.90291 0.0
H2682 H 0.71812 0.7102 0.65164 0.0
H2683 H 0.61896 0.66625 0.53794 0.0
H2684 H 0.71573 0.72066 0.53558 0.0
H2685 H 0.62229 0.67446 0.65582 0.0
H2686 H 0.65431 0.68058 0.53607 0.0
H2687 H 0.68258 0.69121 0.65286 0.0
C2688 C 0.71012 0.70836 0.62638 0.0
C2689 C 0.71979 0.71715 0.59355 0.0
C2690 C 0.64725 0.67916 0.56232 0.0
C2691 C 0.67937 0.69549 0.59473 0.0
C2692 C 0.62712 0.67097 0.56341 0.0
C2693 C 0.61778 0.6694 0.59703 0.0
C2694 C 0.65798 0.68555 0.59511 0.0
C2695 C 0.62899 0.67566 0.62926 0.0
C2696 C 0.68989 0.69761 0.62713 0.0
C2697 C 0.70878 0.71431 0.56157 0.0
N2698 N 0.64854 0.68349 0.62751 0.0
N2699 N 0.6891 0.70372 0.56296 0.0
H2700 H 0.32903 0.9476 0.66241 0.0
H2701 H 0.28238 0.99569 0.53818 0.0
H2702 H 0.34101 0.95829 0.54616 0.0
H2703 H 0.28657 0.00188 0.65649 0.0
H2704 H 0.30293 0.98094 0.54037 0.0
H2705 H 0.31252 0.96656 0.66088 0.0
C2706 C 0.32823 0.954 0.63659 0.0
C2707 C 0.33622 0.95127 0.60427 0.0
C2708 C 0.29947 0.98565 0.56581 0.0
C2709 C 0.31733 0.97282 0.60232 0.0
C2710 C 0.28766 0.99396 0.56462 0.0
C2711 C 0.28266 0.99983 0.59727 0.0
C2712 C 0.30609 0.98297 0.59992 0.0
C2713 C 0.29006 0.99748 0.63071 0.0
C2714 C 0.3189 0.96488 0.63578 0.0
C2715 C 0.33498 0.96003 0.57166 0.0
N2716 N 0.30127 0.98903 0.63123 0.0
N2717 N 0.3255 0.97027 0.57142 0.0
H2718 H 0.97478 0.28523 0.60897 0.0
H2719 H 0.07729 0.3812 0.61948 0.0
H2720 H 0.02802 0.28695 0.57755 0.0
H2721 H 0.02608 0.38365 0.58858 0.0
H2722 H 0.05852 0.34578 0.6157 0.0
H2723 H 0.99263 0.32095 0.61262 0.0
C2724 C 0.9902 0.29313 0.60299 0.0
C2725 C 1.0 0.28325 0.59295 0.0
C2726 C 0.05142 0.3541 0.60969 0.0
C2727 C 0.0203 0.32363 0.59748 0.0
C2728 C 0.06206 0.37425 0.61197 0.0
C2729 C 0.05318 0.38526 0.60413 0.0
C2730 C 0.03169 0.34492 0.60024 0.0
C2731 C 0.03344 0.37559 0.59448 0.0
C2732 C 1.00029 0.3134 0.60486 0.0
C2733 C 0.01993 0.29406 0.58522 0.0
N2734 N 0.02324 0.35585 0.59304 0.0
N2735 N 0.02948 0.3137 0.58796 0.0
H2736 H 0.04939 0.66287 0.70054 0.0
H2737 H 0.95557 0.61556 0.82644 0.0
H2738 H 0.05189 0.67345 0.81758 0.0
H2739 H 0.95304 0.62426 0.70965 0.0
H2740 H 0.99097 0.63534 0.82388 0.0
H2741 H 0.01398 0.64719 0.70315 0.0
C2742 C 0.04246 0.66193 0.72676 0.0
C2743 C 0.0535 0.6693 0.75897 0.0
C2744 C 0.98265 0.63304 0.79889 0.0
C2745 C 0.01315 0.65136 0.76213 0.0
C2746 C 0.96249 0.62168 0.80029 0.0
C2747 C 0.95145 0.61818 0.76813 0.0
C2748 C 0.99179 0.64066 0.76502 0.0
C2749 C 0.96107 0.6266 0.73505 0.0
C2750 C 0.0223 0.65309 0.72818 0.0
C2751 C 0.04387 0.66791 0.79214 0.0
N2752 N 0.98076 0.6373 0.73424 0.0
N2753 N 0.02418 0.65888 0.79296 0.0
H2754 H 0.39123 0.34273 0.81875 0.0
H2755 H 0.34603 0.39393 0.69792 0.0
H2756 H 0.39146 0.34275 0.69981 0.0
H2757 H 0.33592 0.38371 0.81475 0.0
H2758 H 0.36276 0.37525 0.69802 0.0
H2759 H 0.37108 0.35788 0.8179 0.0
C2760 C 0.38703 0.34592 0.79243 0.0
C2761 C 0.39314 0.34165 0.75926 0.0
C2762 C 0.35678 0.37699 0.72359 0.0
C2763 C 0.37009 0.35895 0.75814 0.0
C2764 C 0.3473 0.38771 0.7236 0.0
C2765 C 0.33976 0.3905 0.75648 0.0
C2766 C 0.35889 0.36917 0.75675 0.0
C2767 C 0.3416 0.38195 0.78884 0.0
C2768 C 0.37545 0.35448 0.79199 0.0
C2769 C 0.38711 0.34589 0.726 0.0
N2770 N 0.35115 0.37178 0.78823 0.0
N2771 N 0.37601 0.35446 0.72628 0.0
H2772 H 0.67013 0.05139 0.70505 0.0
H2773 H 0.62574 0.95224 0.81897 0.0
H2774 H 0.66246 0.04825 0.82306 0.0
H2775 H 0.61541 0.95462 0.70284 0.0
H2776 H 0.64485 0.98777 0.82015 0.0
H2777 H 0.65548 0.01599 0.70322 0.0
C2778 C 0.66546 0.04326 0.73056 0.0
C2779 C 0.66729 0.05268 0.7642 0.0
C2780 C 0.63845 0.98047 0.79442 0.0
C2781 C 0.65075 0.0124 0.76232 0.0
C2782 C 0.62762 0.96024 0.79369 0.0
C2783 C 0.61884 0.95055 0.76084 0.0
C2784 C 0.64065 0.991 0.76199 0.0
C2785 C 0.62175 0.96157 0.72885 0.0
C2786 C 0.65708 0.0231 0.72948 0.0
C2787 C 0.66108 0.0415 0.79648 0.0
N2788 N 0.6324 0.98125 0.73022 0.0
N2789 N 0.65305 0.02191 0.79474 0.0
H2790 H 0.40898 0.0482 0.28904 0.0
H2791 H 0.30741 0.95144 0.2738 0.0
H2792 H 0.35759 0.05012 0.25727 0.0
H2793 H 0.36143 0.95449 0.24361 0.0
H2794 H 0.3247 0.9871 0.27873 0.0
H2795 H 0.39067 0.01283 0.28403 0.0
C2796 C 0.3938 0.04114 0.28115 0.0
C2797 C 0.38474 0.052 0.2734 0.0
C2798 C 0.33265 0.97986 0.27094 0.0
C2799 C 0.36379 0.01169 0.26802 0.0
C2800 C 0.32288 0.95961 0.26833 0.0
C2801 C 0.33307 0.95013 0.25832 0.0
C2802 C 0.35272 0.99043 0.26433 0.0
C2803 C 0.35305 0.96129 0.25127 0.0
C2804 C 0.38343 0.02101 0.27814 0.0
C2805 C 0.36508 0.04219 0.26317 0.0
N2806 N 0.36227 0.98088 0.25473 0.0
N2807 N 0.35514 0.02246 0.26099 0.0
H2808 H 0.04907 0.41033 0.24871 0.0
H2809 H 0.953 0.30799 0.25543 0.0
H2810 H 0.05144 0.35856 0.27509 0.0
H2811 H 0.95495 0.36078 0.29115 0.0
H2812 H 0.98871 0.32573 0.25229 0.0
H2813 H 0.0137 0.39167 0.25352 0.0
C2814 C 0.04211 0.39501 0.25547 0.0
C2815 C 0.05308 0.38592 0.26166 0.0
C2816 C 0.98122 0.3333 0.26093 0.0
C2817 C 0.01279 0.36456 0.26672 0.0
C2818 C 0.96095 0.32328 0.26251 0.0
C2819 C 0.95112 0.333 0.27351 0.0
C2820 C 0.99151 0.35317 0.26959 0.0
C2821 C 0.962 0.35276 0.28266 0.0
C2822 C 0.02198 0.38443 0.25835 0.0
C2823 C 0.04341 0.36607 0.27043 0.0
N2824 N 0.98164 0.36226 0.28015 0.0
N2825 N 0.02368 0.35593 0.27242 0.0
H2826 H 0.618 0.66518 0.20722 0.0
H2827 H 0.66428 0.61594 0.32879 0.0
H2828 H 0.62175 0.6701 0.32573 0.0
H2829 H 0.67618 0.62736 0.21266 0.0
H2830 H 0.6482 0.63529 0.3284 0.0
H2831 H 0.63882 0.65075 0.20854 0.0
C2832 C 0.62325 0.66325 0.23353 0.0
C2833 C 0.61801 0.66864 0.26649 0.0
C2834 C 0.65448 0.6337 0.30309 0.0
C2835 C 0.64176 0.65213 0.26815 0.0
C2836 C 0.66356 0.62259 0.30323 0.0
C2837 C 0.67136 0.61991 0.27059 0.0
C2838 C 0.65296 0.64193 0.26997 0.0
C2839 C 0.67027 0.62902 0.23837 0.0
C2840 C 0.63522 0.65513 0.23423 0.0
C2841 C 0.6254 0.66606 0.29974 0.0
N2842 N 0.66101 0.63948 0.23877 0.0
N2843 N 0.63676 0.65777 0.29977 0.0
loop_
_geom_bond_atom_site_label_1
_geom_bond_atom_site_label_2
_geom_bond_distance
_geom_bond_site_symmetry_2
_ccdc_geom_bond_type
Co0 O3 1.970 . S
Co0 N17 1.989 . S
Co0 O25 1.967 . S
Co0 O32 1.920 . S
Co1 O4 1.966 . S
Co1 N10 2.022 . S
Co1 N18 1.993 . S
Co1 O26 1.941 . S
C2 O3 1.258 . S
C2 O4 1.263 . S
O3 Co0 1.970 . S
O3 C2 1.258 . S
O4 Co1 1.966 . S
O4 C2 1.263 . S
C5 O6 1.235 . S
C5 O32 1.289 . S
O6 C5 1.235 . S
C7 C9 1.400 . S
C7 N10 1.351 . S
C7 C12 1.501 . S
C8 C9 1.387 1_556 S
C8 N11 1.341 . S
C9 C7 1.400 . S
C9 C8 1.387 1_554 S
N10 Co1 2.022 . S
N10 C7 1.351 . S
N10 N11 1.365 1_554 S
N11 C8 1.341 . S
N11 N10 1.365 1_556 S
N11 H31 0.862 . S
C12 C7 1.501 . S
C12 H13 0.961 . S
C12 H14 0.961 . S
C12 H15 0.960 . S
H13 C12 0.961 . S
H14 C12 0.961 . S
H15 C12 0.960 . S
C16 N17 1.342 . S
C16 C20 1.401 1_554 S
C16 C21 1.498 1_554 S
N17 Co0 1.989 . S
N17 C16 1.342 . S
N17 N18 1.388 . S
N18 Co1 1.993 . S
N18 N17 1.388 . S
N18 C19 1.346 1_554 S
C19 N18 1.346 1_556 S
C19 C20 1.396 . S
C19 C29 1.510 . S
C20 C16 1.401 1_556 S
C20 C19 1.396 . S
C21 C16 1.498 1_556 S
C21 H22 0.946 1_556 S
C21 H23 0.955 1_556 S
C21 H24 0.980 . S
H22 C21 0.946 1_554 S
H23 C21 0.955 1_554 S
H24 C21 0.980 . S
O25 Co0 1.967 . S
O25 C33 1.258 . S
O26 Co1 1.941 . S
O26 C33 1.266 . S
H27 C29 0.959 . S
H28 C29 0.961 . S
C29 C19 1.510 . S
C29 H27 0.959 . S
C29 H28 0.961 . S
C29 H30 0.960 . S
H30 C29 0.960 . S
H31 N11 0.862 . S
O32 Co0 1.920 . S
O32 C5 1.289 . S
C33 O25 1.258 . S
C33 O26 1.266 . S
Co34 O37 1.970 . S
Co34 N51 1.989 . S
Co34 O59 1.967 1_545 S
Co34 O66 1.920 1_545 S
Co35 O38 1.966 . S
Co35 N44 2.022 . S
Co35 N52 1.993 . S
Co35 O60 1.941 . S
C36 O37 1.258 . S
C36 O38 1.263 . S
O37 Co34 1.970 . S
O37 C36 1.258 . S
O38 Co35 1.966 . S
O38 C36 1.263 . S
C39 O40 1.235 1_565 S
C39 O66 1.289 . S
O40 C39 1.235 1_545 S
C41 C43 1.400 . S
C41 N44 1.351 . S
C41 C46 1.501 . S
C42 C43 1.387 1_556 S
C42 N45 1.341 . S
C43 C41 1.400 . S
C43 C42 1.387 1_554 S
N44 Co35 2.022 . S
N44 C41 1.351 . S
N44 N45 1.365 1_554 S
N45 C42 1.341 . S
N45 N44 1.365 1_556 S
N45 H65 0.862 . S
C46 C41 1.501 . S
C46 H47 0.961 . S
C46 H48 0.961 . S
C46 H49 0.960 . S
H47 C46 0.961 . S
H48 C46 0.961 . S
H49 C46 0.960 . S
C50 N51 1.342 . S
C50 C54 1.401 1_554 S
C50 C55 1.498 1_554 S
N51 Co34 1.989 . S
N51 C50 1.342 . S
N51 N52 1.388 . S
N52 Co35 1.993 . S
N52 N51 1.388 . S
N52 C53 1.346 1_554 S
C53 N52 1.346 1_556 S
C53 C54 1.396 . S
C53 C63 1.510 . S
C54 C50 1.401 1_556 S
C54 C53 1.396 . S
C55 C50 1.498 1_556 S
C55 H56 0.946 1_556 S
C55 H57 0.955 1_556 S
C55 H58 0.980 . S
H56 C55 0.946 1_554 S
H57 C55 0.955 1_554 S
H58 C55 0.980 . S
O59 Co34 1.967 1_565 S
O59 C67 1.258 . S
O60 Co35 1.941 . S
O60 C67 1.266 1_545 S
H61 C63 0.959 . S
H62 C63 0.961 . S
C63 C53 1.510 . S
C63 H61 0.959 . S
C63 H62 0.961 . S
C63 H64 0.960 . S
H64 C63 0.960 . S
H65 N45 0.862 . S
O66 Co34 1.920 1_565 S
O66 C39 1.289 . S
C67 O59 1.258 . S
C67 O60 1.266 1_565 S
Co68 O71 1.970 . S
Co68 N85 1.989 . S
Co68 O93 1.967 1_655 S
Co68 O100 1.920 1_655 S
Co69 O72 1.966 . S
Co69 N78 2.022 . S
Co69 N86 1.993 . S
Co69 O94 1.941 . S
C70 O71 1.258 . S
C70 O72 1.263 . S
O71 Co68 1.970 . S
O71 C70 1.258 . S
O72 Co69 1.966 . S
O72 C70 1.263 . S
C73 O74 1.235 1_455 S
C73 O100 1.289 . S
O74 C73 1.235 1_655 S
C75 C77 1.400 . S
C75 N78 1.351 . S
C75 C80 1.501 . S
C76 C77 1.387 1_556 S
C76 N79 1.341 . S
C77 C75 1.400 . S
C77 C76 1.387 1_554 S
N78 Co69 2.022 . S
N78 C75 1.351 . S
N78 N79 1.365 1_554 S
N79 C76 1.341 . S
N79 N78 1.365 1_556 S
N79 H99 0.862 . S
C80 C75 1.501 . S
C80 H81 0.961 . S
C80 H82 0.961 . S
C80 H83 0.960 . S
H81 C80 0.961 . S
H82 C80 0.961 . S
H83 C80 0.960 . S
C84 N85 1.342 . S
C84 C88 1.401 1_554 S
C84 C89 1.498 1_554 S
N85 Co68 1.989 . S
N85 C84 1.342 . S
N85 N86 1.388 . S
N86 Co69 1.993 . S
N86 N85 1.388 . S
N86 C87 1.346 1_554 S
C87 N86 1.346 1_556 S
C87 C88 1.396 . S
C87 C97 1.510 . S
C88 C84 1.401 1_556 S
C88 C87 1.396 . S
C89 C84 1.498 1_556 S
C89 H90 0.946 1_556 S
C89 H91 0.955 1_556 S
C89 H92 0.981 . S
H90 C89 0.946 1_554 S
H91 C89 0.955 1_554 S
H92 C89 0.981 . S
O93 Co68 1.967 1_455 S
O93 C101 1.258 . S
O94 Co69 1.941 . S
O94 C101 1.266 1_655 S
H95 C97 0.959 . S
H96 C97 0.961 . S
C97 C87 1.510 . S
C97 H95 0.959 . S
C97 H96 0.961 . S
C97 H98 0.960 . S
H98 C97 0.960 . S
H99 N79 0.862 . S
O100 Co68 1.920 1_455 S
O100 C73 1.289 . S
C101 O93 1.258 . S
C101 O94 1.266 1_455 S
Co102 O105 1.970 . S
Co102 N119 1.989 . S
Co102 O127 1.967 . S
Co102 O134 1.920 . S
Co103 O106 1.966 . S
Co103 N112 2.022 . S
Co103 N120 1.993 . S
Co103 O128 1.941 . S
C104 O105 1.258 . S
C104 O106 1.263 . S
O105 Co102 1.970 . S
O105 C104 1.258 . S
O106 Co103 1.966 . S
O106 C104 1.263 . S
C107 O108 1.235 . S
C107 O134 1.289 . S
O108 C107 1.235 . S
C109 C111 1.400 . S
C109 N112 1.351 . S
C109 C114 1.501 . S
C110 C111 1.387 . S
C110 N113 1.341 . S
C111 C109 1.400 . S
C111 C110 1.387 . S
N112 Co103 2.022 . S
N112 C109 1.351 . S
N112 N113 1.365 . S
N113 C110 1.341 . S
N113 N112 1.365 . S
N113 H133 0.862 . S
C114 C109 1.501 . S
C114 H115 0.961 . S
C114 H116 0.961 . S
C114 H117 0.960 . S
H115 C114 0.961 . S
H116 C114 0.961 . S
H117 C114 0.960 . S
C118 N119 1.342 . S
C118 C122 1.401 . S
C118 C123 1.499 . S
N119 Co102 1.989 . S
N119 C118 1.342 . S
N119 N120 1.388 . S
N120 Co103 1.993 . S
N120 N119 1.388 . S
N120 C121 1.346 . S
C121 N120 1.346 . S
C121 C122 1.396 . S
C121 C131 1.510 . S
C122 C118 1.401 . S
C122 C121 1.396 . S
C123 C118 1.499 . S
C123 H124 0.959 . S
C123 H125 0.960 . S
C123 H126 0.961 . S
H124 C123 0.959 . S
H125 C123 0.960 . S
H126 C123 0.961 . S
O127 Co102 1.967 . S
O127 C135 1.258 . S
O128 Co103 1.941 . S
O128 C135 1.266 . S
H129 C131 0.959 . S
H130 C131 0.961 . S
C131 C121 1.510 . S
C131 H129 0.959 . S
C131 H130 0.961 . S
C131 H132 0.960 . S
H132 C131 0.960 . S
H133 N113 0.862 . S
O134 Co102 1.920 . S
O134 C107 1.289 . S
C135 O127 1.258 . S
C135 O128 1.266 . S
Co136 O139 1.970 . S
Co136 N153 1.989 . S
Co136 O161 1.967 1_565 S
Co136 O168 1.920 1_565 S
Co137 O140 1.966 . S
Co137 N146 2.022 . S
Co137 N154 1.993 . S
Co137 O162 1.941 . S
C138 O139 1.258 . S
C138 O140 1.263 . S
O139 Co136 1.970 . S
O139 C138 1.258 . S
O140 Co137 1.966 . S
O140 C138 1.263 . S
C141 O142 1.235 1_545 S
C141 O168 1.289 . S
O142 C141 1.235 1_565 S
C143 C145 1.400 . S
C143 N146 1.351 . S
C143 C148 1.501 . S
C144 C145 1.387 . S
C144 N147 1.341 . S
C145 C143 1.400 . S
C145 C144 1.387 . S
N146 Co137 2.022 . S
N146 C143 1.351 . S
N146 N147 1.365 . S
N147 C144 1.341 . S
N147 N146 1.365 . S
N147 H167 0.862 . S
C148 C143 1.501 . S
C148 H149 0.961 . S
C148 H150 0.961 . S
C148 H151 0.960 . S
H149 C148 0.961 . S
H150 C148 0.961 . S
H151 C148 0.960 . S
C152 N153 1.342 . S
C152 C156 1.401 . S
C152 C157 1.499 . S
N153 Co136 1.989 . S
N153 C152 1.342 . S
N153 N154 1.388 . S
N154 Co137 1.993 . S
N154 N153 1.388 . S
N154 C155 1.346 . S
C155 N154 1.346 . S
C155 C156 1.396 . S
C155 C165 1.510 . S
C156 C152 1.401 . S
C156 C155 1.396 . S
C157 C152 1.499 . S
C157 H158 0.959 . S
C157 H159 0.960 . S
C157 H160 0.961 . S
H158 C157 0.959 . S
H159 C157 0.960 . S
H160 C157 0.961 . S
O161 Co136 1.967 1_545 S
O161 C169 1.258 . S
O162 Co137 1.941 . S
O162 C169 1.266 1_565 S
H163 C165 0.959 . S
H164 C165 0.961 . S
C165 C155 1.510 . S
C165 H163 0.959 . S
C165 H164 0.961 . S
C165 H166 0.960 . S
H166 C165 0.960 . S
H167 N147 0.862 . S
O168 Co136 1.920 1_545 S
O168 C141 1.289 . S
C169 O161 1.258 . S
C169 O162 1.266 1_545 S
Co170 O173 1.970 . S
Co170 N187 1.989 . S
Co170 O195 1.967 1_455 S
Co170 O202 1.920 1_455 S
Co171 O174 1.966 . S
Co171 N180 2.022 . S
Co171 N188 1.993 . S
Co171 O196 1.941 . S
C172 O173 1.258 . S
C172 O174 1.263 . S
O173 Co170 1.970 . S
O173 C172 1.258 . S
O174 Co171 1.966 . S
O174 C172 1.263 . S
C175 O176 1.235 1_655 S
C175 O202 1.289 . S
O176 C175 1.235 1_455 S
C177 C179 1.400 . S
C177 N180 1.351 . S
C177 C182 1.501 . S
C178 C179 1.387 . S
C178 N181 1.341 . S
C179 C177 1.400 . S
C179 C178 1.387 . S
N180 Co171 2.022 . S
N180 C177 1.351 . S
N180 N181 1.365 . S
N181 C178 1.341 . S
N181 N180 1.365 . S
N181 H201 0.862 . S
C182 C177 1.501 . S
C182 H183 0.961 . S
C182 H184 0.961 . S
C182 H185 0.960 . S
H183 C182 0.961 . S
H184 C182 0.961 . S
H185 C182 0.960 . S
C186 N187 1.342 . S
C186 C190 1.401 . S
C186 C191 1.499 . S
N187 Co170 1.989 . S
N187 C186 1.342 . S
N187 N188 1.388 . S
N188 Co171 1.993 . S
N188 N187 1.388 . S
N188 C189 1.346 . S
C189 N188 1.346 . S
C189 C190 1.396 . S
C189 C199 1.510 . S
C190 C186 1.401 . S
C190 C189 1.396 . S
C191 C186 1.499 . S
C191 H192 0.959 . S
C191 H193 0.960 . S
C191 H194 0.961 . S
H192 C191 0.959 . S
H193 C191 0.960 . S
H194 C191 0.961 . S
O195 Co170 1.967 1_655 S
O195 C203 1.258 . S
O196 Co171 1.941 . S
O196 C203 1.266 1_455 S
H197 C199 0.959 . S
H198 C199 0.961 . S
C199 C189 1.510 . S
C199 H197 0.959 . S
C199 H198 0.961 . S
C199 H200 0.960 . S
H200 C199 0.960 . S
H201 N181 0.862 . S
O202 Co170 1.920 1_655 S
O202 C175 1.289 . S
C203 O195 1.258 . S
C203 O196 1.266 1_655 S
Co204 O207 1.970 . S
Co204 N221 1.989 . S
Co204 O229 1.967 . S
Co204 O236 1.920 . S
Co205 O208 1.966 . S
Co205 N214 2.022 . S
Co205 N222 1.993 . S
Co205 O230 1.941 . S
C206 O207 1.258 . S
C206 O208 1.263 . S
O207 Co204 1.970 . S
O207 C206 1.258 . S
O208 Co205 1.966 . S
O208 C206 1.263 . S
C209 O210 1.235 . S
C209 O236 1.289 . S
O210 C209 1.235 . S
C211 C213 1.400 . S
C211 N214 1.351 . S
C211 C216 1.501 . S
C212 C213 1.387 1_554 S
C212 N215 1.341 . S
C213 C211 1.400 . S
C213 C212 1.387 1_556 S
N214 Co205 2.022 . S
N214 C211 1.351 . S
N214 N215 1.365 1_556 S
N215 C212 1.341 . S
N215 N214 1.365 1_554 S
N215 H235 0.862 . S
C216 C211 1.501 . S
C216 H217 0.961 . S
C216 H218 0.961 . S
C216 H219 0.960 . S
H217 C216 0.961 . S
H218 C216 0.961 . S
H219 C216 0.960 . S
C220 N221 1.342 . S
C220 C224 1.401 1_556 S
C220 C225 1.498 1_556 S
N221 Co204 1.989 . S
N221 C220 1.342 . S
N221 N222 1.388 . S
N222 Co205 1.993 . S
N222 N221 1.388 . S
N222 C223 1.346 1_556 S
C223 N222 1.346 1_554 S
C223 C224 1.396 . S
C223 C233 1.510 . S
C224 C220 1.401 1_554 S
C224 C223 1.396 . S
C225 C220 1.498 1_554 S
C225 H226 0.946 1_554 S
C225 H227 0.955 1_554 S
C225 H228 0.980 . S
H226 C225 0.946 1_556 S
H227 C225 0.955 1_556 S
H228 C225 0.980 . S
O229 Co204 1.967 . S
O229 C237 1.258 . S
O230 Co205 1.941 . S
O230 C237 1.266 . S
H231 C233 0.959 . S
H232 C233 0.961 . S
C233 C223 1.510 . S
C233 H231 0.959 . S
C233 H232 0.961 . S
C233 H234 0.960 . S
H234 C233 0.960 . S
H235 N215 0.862 . S
O236 Co204 1.920 . S
O236 C209 1.289 . S
C237 O229 1.258 . S
C237 O230 1.266 . S
Co238 O241 1.970 . S
Co238 N255 1.989 . S
Co238 O263 1.967 1_565 S
Co238 O270 1.920 1_565 S
Co239 O242 1.966 . S
Co239 N248 2.022 . S
Co239 N256 1.993 . S
Co239 O264 1.941 . S
C240 O241 1.258 . S
C240 O242 1.263 . S
O241 Co238 1.970 . S
O241 C240 1.258 . S
O242 Co239 1.966 . S
O242 C240 1.263 . S
C243 O244 1.235 1_545 S
C243 O270 1.289 . S
O244 C243 1.235 1_565 S
C245 C247 1.400 . S
C245 N248 1.351 . S
C245 C250 1.501 . S
C246 C247 1.387 1_554 S
C246 N249 1.341 . S
C247 C245 1.400 . S
C247 C246 1.387 1_556 S
N248 Co239 2.022 . S
N248 C245 1.351 . S
N248 N249 1.365 1_556 S
N249 C246 1.341 . S
N249 N248 1.365 1_554 S
N249 H269 0.862 . S
C250 C245 1.501 . S
C250 H251 0.961 . S
C250 H252 0.961 . S
C250 H253 0.960 . S
H251 C250 0.961 . S
H252 C250 0.961 . S
H253 C250 0.960 . S
C254 N255 1.342 . S
C254 C258 1.401 1_556 S
C254 C259 1.498 1_556 S
N255 Co238 1.989 . S
N255 C254 1.342 . S
N255 N256 1.388 . S
N256 Co239 1.993 . S
N256 N255 1.388 . S
N256 C257 1.346 1_556 S
C257 N256 1.346 1_554 S
C257 C258 1.396 . S
C257 C267 1.510 . S
C258 C254 1.401 1_554 S
C258 C257 1.396 . S
C259 C254 1.498 1_554 S
C259 H260 0.946 1_554 S
C259 H261 0.955 1_554 S
C259 H262 0.980 . S
H260 C259 0.946 1_556 S
H261 C259 0.955 1_556 S
H262 C259 0.980 . S
O263 Co238 1.967 1_545 S
O263 C271 1.258 . S
O264 Co239 1.941 . S
O264 C271 1.266 1_565 S
H265 C267 0.959 . S
H266 C267 0.961 . S
C267 C257 1.510 . S
C267 H265 0.959 . S
C267 H266 0.961 . S
C267 H268 0.960 . S
H268 C267 0.960 . S
H269 N249 0.862 . S
O270 Co238 1.920 1_545 S
O270 C243 1.289 . S
C271 O263 1.258 . S
C271 O264 1.266 1_545 S
Co272 O275 1.970 . S
Co272 N289 1.989 . S
Co272 O297 1.967 1_455 S
Co272 O304 1.920 1_455 S
Co273 O276 1.966 . S
Co273 N282 2.022 . S
Co273 N290 1.993 . S
Co273 O298 1.941 . S
C274 O275 1.258 . S
C274 O276 1.263 . S
O275 Co272 1.970 . S
O275 C274 1.258 . S
O276 Co273 1.966 . S
O276 C274 1.263 . S
C277 O278 1.235 1_655 S
C277 O304 1.289 . S
O278 C277 1.235 1_455 S
C279 C281 1.400 . S
C279 N282 1.351 . S
C279 C284 1.501 . S
C280 C281 1.387 1_554 S
C280 N283 1.341 . S
C281 C279 1.400 . S
C281 C280 1.387 1_556 S
N282 Co273 2.022 . S
N282 C279 1.351 . S
N282 N283 1.365 1_556 S
N283 C280 1.341 . S
N283 N282 1.365 1_554 S
N283 H303 0.862 . S
C284 C279 1.501 . S
C284 H285 0.961 . S
C284 H286 0.961 . S
C284 H287 0.960 . S
H285 C284 0.961 . S
H286 C284 0.961 . S
H287 C284 0.960 . S
C288 N289 1.342 . S
C288 C292 1.401 1_556 S
C288 C293 1.498 1_556 S
N289 Co272 1.989 . S
N289 C288 1.342 . S
N289 N290 1.388 . S
N290 Co273 1.993 . S
N290 N289 1.388 . S
N290 C291 1.346 1_556 S
C291 N290 1.346 1_554 S
C291 C292 1.396 . S
C291 C301 1.510 . S
C292 C288 1.401 1_554 S
C292 C291 1.396 . S
C293 C288 1.498 1_554 S
C293 H294 0.946 1_554 S
C293 H295 0.955 1_554 S
C293 H296 0.981 . S
H294 C293 0.946 1_556 S
H295 C293 0.955 1_556 S
H296 C293 0.981 . S
O297 Co272 1.967 1_655 S
O297 C305 1.258 . S
O298 Co273 1.941 . S
O298 C305 1.266 1_455 S
H299 C301 0.959 . S
H300 C301 0.961 . S
C301 C291 1.510 . S
C301 H299 0.959 . S
C301 H300 0.961 . S
C301 H302 0.960 . S
H302 C301 0.960 . S
H303 N283 0.862 . S
O304 Co272 1.920 1_655 S
O304 C277 1.289 . S
C305 O297 1.258 . S
C305 O298 1.266 1_655 S
Co306 O309 1.970 . S
Co306 N323 1.989 . S
Co306 O331 1.967 . S
Co306 O338 1.920 . S
Co307 O310 1.966 . S
Co307 N316 2.022 . S
Co307 N324 1.993 . S
Co307 O332 1.941 . S
C308 O309 1.258 . S
C308 O310 1.263 . S
O309 Co306 1.970 . S
O309 C308 1.258 . S
O310 Co307 1.966 . S
O310 C308 1.263 . S
C311 O312 1.235 . S
C311 O338 1.289 . S
O312 C311 1.235 . S
C313 C315 1.400 . S
C313 N316 1.351 . S
C313 C318 1.501 . S
C314 C315 1.387 . S
C314 N317 1.341 . S
C315 C313 1.400 . S
C315 C314 1.387 . S
N316 Co307 2.022 . S
N316 C313 1.351 . S
N316 N317 1.365 . S
N317 C314 1.341 . S
N317 N316 1.365 . S
N317 H337 0.862 . S
C318 C313 1.501 . S
C318 H319 0.961 . S
C318 H320 0.961 . S
C318 H321 0.960 . S
H319 C318 0.961 . S
H320 C318 0.961 . S
H321 C318 0.960 . S
C322 N323 1.342 . S
C322 C326 1.401 . S
C322 C327 1.499 . S
N323 Co306 1.989 . S
N323 C322 1.342 . S
N323 N324 1.388 . S
N324 Co307 1.993 . S
N324 N323 1.388 . S
N324 C325 1.346 . S
C325 N324 1.346 . S
C325 C326 1.396 . S
C325 C335 1.510 . S
C326 C322 1.401 . S
C326 C325 1.396 . S
C327 C322 1.499 . S
C327 H328 0.959 . S
C327 H329 0.960 . S
C327 H330 0.961 . S
H328 C327 0.959 . S
H329 C327 0.960 . S
H330 C327 0.961 . S
O331 Co306 1.967 . S
O331 C339 1.258 . S
O332 Co307 1.941 . S
O332 C339 1.266 . S
H333 C335 0.959 . S
H334 C335 0.961 . S
C335 C325 1.510 . S
C335 H333 0.959 . S
C335 H334 0.961 . S
C335 H336 0.960 . S
H336 C335 0.960 . S
H337 N317 0.862 . S
O338 Co306 1.920 . S
O338 C311 1.289 . S
C339 O331 1.258 . S
C339 O332 1.266 . S
Co340 O343 1.970 . S
Co340 N357 1.989 . S
Co340 O365 1.967 1_545 S
Co340 O372 1.920 1_545 S
Co341 O344 1.966 . S
Co341 N350 2.022 . S
Co341 N358 1.993 . S
Co341 O366 1.941 . S
C342 O343 1.258 . S
C342 O344 1.263 . S
O343 Co340 1.970 . S
O343 C342 1.258 . S
O344 Co341 1.966 . S
O344 C342 1.263 . S
C345 O346 1.235 1_565 S
C345 O372 1.289 . S
O346 C345 1.235 1_545 S
C347 C349 1.400 . S
C347 N350 1.351 . S
C347 C352 1.501 . S
C348 C349 1.387 . S
C348 N351 1.341 . S
C349 C347 1.400 . S
C349 C348 1.387 . S
N350 Co341 2.022 . S
N350 C347 1.351 . S
N350 N351 1.365 . S
N351 C348 1.341 . S
N351 N350 1.365 . S
N351 H371 0.862 . S
C352 C347 1.501 . S
C352 H353 0.961 . S
C352 H354 0.961 . S
C352 H355 0.960 . S
H353 C352 0.961 . S
H354 C352 0.961 . S
H355 C352 0.960 . S
C356 N357 1.342 . S
C356 C360 1.401 . S
C356 C361 1.499 . S
N357 Co340 1.989 . S
N357 C356 1.342 . S
N357 N358 1.388 . S
N358 Co341 1.993 . S
N358 N357 1.388 . S
N358 C359 1.346 . S
C359 N358 1.346 . S
C359 C360 1.396 . S
C359 C369 1.510 . S
C360 C356 1.401 . S
C360 C359 1.396 . S
C361 C356 1.499 . S
C361 H362 0.959 . S
C361 H363 0.960 . S
C361 H364 0.961 . S
H362 C361 0.959 . S
H363 C361 0.960 . S
H364 C361 0.961 . S
O365 Co340 1.967 1_565 S
O365 C373 1.258 . S
O366 Co341 1.941 . S
O366 C373 1.266 1_545 S
H367 C369 0.959 . S
H368 C369 0.961 . S
C369 C359 1.510 . S
C369 H367 0.959 . S
C369 H368 0.961 . S
C369 H370 0.960 . S
H370 C369 0.960 . S
H371 N351 0.862 . S
O372 Co340 1.920 1_565 S
O372 C345 1.289 . S
C373 O365 1.258 . S
C373 O366 1.266 1_565 S
Co374 O377 1.970 . S
Co374 N391 1.989 . S
Co374 O399 1.967 1_655 S
Co374 O406 1.920 1_655 S
Co375 O378 1.966 . S
Co375 N384 2.022 . S
Co375 N392 1.993 . S
Co375 O400 1.941 . S
C376 O377 1.258 . S
C376 O378 1.263 . S
O377 Co374 1.970 . S
O377 C376 1.258 . S
O378 Co375 1.966 . S
O378 C376 1.263 . S
C379 O380 1.235 1_455 S
C379 O406 1.289 . S
O380 C379 1.235 1_655 S
C381 C383 1.400 . S
C381 N384 1.351 . S
C381 C386 1.501 . S
C382 C383 1.387 . S
C382 N385 1.341 . S
C383 C381 1.400 . S
C383 C382 1.387 . S
N384 Co375 2.022 . S
N384 C381 1.351 . S
N384 N385 1.365 . S
N385 C382 1.341 . S
N385 N384 1.365 . S
N385 H405 0.862 . S
C386 C381 1.501 . S
C386 H387 0.961 . S
C386 H388 0.961 . S
C386 H389 0.960 . S
H387 C386 0.961 . S
H388 C386 0.961 . S
H389 C386 0.960 . S
C390 N391 1.342 . S
C390 C394 1.401 . S
C390 C395 1.499 . S
N391 Co374 1.989 . S
N391 C390 1.342 . S
N391 N392 1.388 . S
N392 Co375 1.993 . S
N392 N391 1.388 . S
N392 C393 1.346 . S
C393 N392 1.346 . S
C393 C394 1.396 . S
C393 C403 1.510 . S
C394 C390 1.401 . S
C394 C393 1.396 . S
C395 C390 1.499 . S
C395 H396 0.959 . S
C395 H397 0.960 . S
C395 H398 0.961 . S
H396 C395 0.959 . S
H397 C395 0.960 . S
H398 C395 0.961 . S
O399 Co374 1.967 1_455 S
O399 C407 1.258 . S
O400 Co375 1.941 . S
O400 C407 1.266 1_655 S
H401 C403 0.959 . S
H402 C403 0.961 . S
C403 C393 1.510 . S
C403 H401 0.959 . S
C403 H402 0.961 . S
C403 H404 0.960 . S
H404 C403 0.960 . S
H405 N385 0.862 . S
O406 Co374 1.920 1_455 S
O406 C379 1.289 . S
C407 O399 1.258 . S
C407 O400 1.266 1_455 S
Co408 O411 1.970 . S
Co408 N425 1.989 . S
Co408 O433 1.967 . S
Co408 O440 1.920 . S
Co409 O412 1.966 . S
Co409 N418 2.022 . S
Co409 N426 1.993 . S
Co409 O434 1.941 . S
C410 O411 1.258 . S
C410 O412 1.263 . S
O411 Co408 1.970 . S
O411 C410 1.258 . S
O412 Co409 1.966 . S
O412 C410 1.263 . S
C413 O414 1.235 . S
C413 O440 1.289 . S
O414 C413 1.235 . S
C415 C417 1.400 . S
C415 N418 1.351 . S
C415 C420 1.501 . S
C416 C417 1.387 . S
C416 N419 1.341 . S
C417 C415 1.400 . S
C417 C416 1.387 . S
N418 Co409 2.022 . S
N418 C415 1.351 . S
N418 N419 1.365 . S
N419 C416 1.341 . S
N419 N418 1.365 . S
N419 H439 0.862 . S
C420 C415 1.501 . S
C420 H421 0.961 . S
C420 H422 0.961 . S
C420 H423 0.960 . S
H421 C420 0.961 . S
H422 C420 0.961 . S
H423 C420 0.960 . S
C424 N425 1.342 . S
C424 C428 1.401 . S
C424 C429 1.499 . S
N425 Co408 1.989 . S
N425 C424 1.342 . S
N425 N426 1.388 . S
N426 Co409 1.993 . S
N426 N425 1.388 . S
N426 C427 1.346 . S
C427 N426 1.346 . S
C427 C428 1.396 . S
C427 C437 1.510 . S
C428 C424 1.401 . S
C428 C427 1.396 . S
C429 C424 1.499 . S
C429 H430 0.959 . S
C429 H431 0.960 . S
C429 H432 0.961 . S
H430 C429 0.959 . S
H431 C429 0.960 . S
H432 C429 0.961 . S
O433 Co408 1.967 . S
O433 C441 1.258 . S
O434 Co409 1.941 . S
O434 C441 1.266 . S
H435 C437 0.959 . S
H436 C437 0.961 . S
C437 C427 1.510 . S
C437 H435 0.959 . S
C437 H436 0.961 . S
C437 H438 0.960 . S
H438 C437 0.960 . S
H439 N419 0.862 . S
O440 Co408 1.920 . S
O440 C413 1.289 . S
C441 O433 1.258 . S
C441 O434 1.266 . S
Co442 O445 1.970 . S
Co442 N459 1.989 . S
Co442 O467 1.967 . S
Co442 O474 1.920 . S
Co443 O446 1.966 . S
Co443 N452 2.022 . S
Co443 N460 1.993 . S
Co443 O468 1.941 . S
C444 O445 1.258 . S
C444 O446 1.263 . S
O445 Co442 1.970 . S
O445 C444 1.258 . S
O446 Co443 1.966 . S
O446 C444 1.263 . S
C447 O448 1.235 . S
C447 O474 1.289 . S
O448 C447 1.235 . S
C449 C451 1.400 . S
C449 N452 1.351 . S
C449 C454 1.501 . S
C450 C451 1.387 . S
C450 N453 1.341 . S
C451 C449 1.400 . S
C451 C450 1.387 . S
N452 Co443 2.022 . S
N452 C449 1.351 . S
N452 N453 1.365 . S
N453 C450 1.341 . S
N453 N452 1.365 . S
N453 H473 0.862 . S
C454 C449 1.501 . S
C454 H455 0.961 . S
C454 H456 0.961 . S
C454 H457 0.960 . S
H455 C454 0.961 . S
H456 C454 0.961 . S
H457 C454 0.960 . S
C458 N459 1.342 . S
C458 C462 1.401 . S
C458 C463 1.499 . S
N459 Co442 1.989 . S
N459 C458 1.342 . S
N459 N460 1.388 . S
N460 Co443 1.993 . S
N460 N459 1.388 . S
N460 C461 1.346 . S
C461 N460 1.346 . S
C461 C462 1.396 . S
C461 C471 1.510 . S
C462 C458 1.401 . S
C462 C461 1.396 . S
C463 C458 1.499 . S
C463 H464 0.959 . S
C463 H465 0.960 . S
C463 H466 0.961 . S
H464 C463 0.959 . S
H465 C463 0.960 . S
H466 C463 0.961 . S
O467 Co442 1.967 . S
O467 C475 1.258 . S
O468 Co443 1.941 . S
O468 C475 1.266 . S
H469 C471 0.959 . S
H470 C471 0.961 . S
C471 C461 1.510 . S
C471 H469 0.959 . S
C471 H470 0.961 . S
C471 H472 0.960 . S
H472 C471 0.960 . S
H473 N453 0.862 . S
O474 Co442 1.920 . S
O474 C447 1.289 . S
C475 O467 1.258 . S
C475 O468 1.266 . S
Co476 O479 1.970 . S
Co476 N493 1.989 . S
Co476 O501 1.967 . S
Co476 O508 1.920 . S
Co477 O480 1.966 . S
Co477 N486 2.022 . S
Co477 N494 1.993 . S
Co477 O502 1.941 . S
C478 O479 1.258 . S
C478 O480 1.263 . S
O479 Co476 1.970 . S
O479 C478 1.258 . S
O480 Co477 1.966 . S
O480 C478 1.263 . S
C481 O482 1.235 . S
C481 O508 1.289 . S
O482 C481 1.235 . S
C483 C485 1.400 . S
C483 N486 1.351 . S
C483 C488 1.501 . S
C484 C485 1.387 . S
C484 N487 1.341 . S
C485 C483 1.400 . S
C485 C484 1.387 . S
N486 Co477 2.022 . S
N486 C483 1.351 . S
N486 N487 1.365 . S
N487 C484 1.341 . S
N487 N486 1.365 . S
N487 H507 0.862 . S
C488 C483 1.501 . S
C488 H489 0.961 . S
C488 H490 0.961 . S
C488 H491 0.960 . S
H489 C488 0.961 . S
H490 C488 0.961 . S
H491 C488 0.960 . S
C492 N493 1.342 . S
C492 C496 1.401 . S
C492 C497 1.499 . S
N493 Co476 1.989 . S
N493 C492 1.342 . S
N493 N494 1.388 . S
N494 Co477 1.993 . S
N494 N493 1.388 . S
N494 C495 1.346 . S
C495 N494 1.346 . S
C495 C496 1.396 . S
C495 C505 1.510 . S
C496 C492 1.401 . S
C496 C495 1.396 . S
C497 C492 1.499 . S
C497 H498 0.959 . S
C497 H499 0.960 . S
C497 H500 0.961 . S
H498 C497 0.959 . S
H499 C497 0.960 . S
H500 C497 0.961 . S
O501 Co476 1.967 . S
O501 C509 1.258 . S
O502 Co477 1.941 . S
O502 C509 1.266 . S
H503 C505 0.959 . S
H504 C505 0.961 . S
C505 C495 1.510 . S
C505 H503 0.959 . S
C505 H504 0.961 . S
C505 H506 0.960 . S
H506 C505 0.960 . S
H507 N487 0.862 . S
O508 Co476 1.920 . S
O508 C481 1.289 . S
C509 O501 1.258 . S
C509 O502 1.266 . S
Co510 O513 1.970 . S
Co510 N527 1.989 . S
Co510 O535 1.967 . S
Co510 O542 1.920 . S
Co511 O514 1.966 . S
Co511 N520 2.022 . S
Co511 N528 1.993 . S
Co511 O536 1.941 . S
C512 O513 1.258 . S
C512 O514 1.263 . S
O513 Co510 1.970 . S
O513 C512 1.258 . S
O514 Co511 1.966 . S
O514 C512 1.263 . S
C515 O516 1.235 . S
C515 O542 1.289 . S
O516 C515 1.235 . S
C517 C519 1.400 . S
C517 N520 1.351 . S
C517 C522 1.501 . S
C518 C519 1.387 . S
C518 N521 1.341 . S
C519 C517 1.400 . S
C519 C518 1.387 . S
N520 Co511 2.022 . S
N520 C517 1.351 . S
N520 N521 1.365 . S
N521 C518 1.341 . S
N521 N520 1.365 . S
N521 H541 0.862 . S
C522 C517 1.501 . S
C522 H523 0.961 . S
C522 H524 0.961 . S
C522 H525 0.960 . S
H523 C522 0.961 . S
H524 C522 0.961 . S
H525 C522 0.960 . S
C526 N527 1.342 . S
C526 C530 1.401 . S
C526 C531 1.499 . S
N527 Co510 1.989 . S
N527 C526 1.342 . S
N527 N528 1.388 . S
N528 Co511 1.993 . S
N528 N527 1.388 . S
N528 C529 1.346 . S
C529 N528 1.346 . S
C529 C530 1.396 . S
C529 C539 1.510 . S
C530 C526 1.401 . S
C530 C529 1.396 . S
C531 C526 1.499 . S
C531 H532 0.959 . S
C531 H533 0.960 . S
C531 H534 0.961 . S
H532 C531 0.959 . S
H533 C531 0.960 . S
H534 C531 0.961 . S
O535 Co510 1.967 . S
O535 C543 1.258 . S
O536 Co511 1.941 . S
O536 C543 1.266 . S
H537 C539 0.959 . S
H538 C539 0.961 . S
C539 C529 1.510 . S
C539 H537 0.959 . S
C539 H538 0.961 . S
C539 H540 0.960 . S
H540 C539 0.960 . S
H541 N521 0.862 . S
O542 Co510 1.920 . S
O542 C515 1.289 . S
C543 O535 1.258 . S
C543 O536 1.266 . S
Co544 O547 1.970 . S
Co544 N561 1.989 . S
Co544 O569 1.967 . S
Co544 O576 1.920 . S
Co545 O548 1.966 . S
Co545 N554 2.022 . S
Co545 N562 1.993 . S
Co545 O570 1.941 . S
C546 O547 1.258 . S
C546 O548 1.263 . S
O547 Co544 1.970 . S
O547 C546 1.258 . S
O548 Co545 1.966 . S
O548 C546 1.263 . S
C549 O550 1.235 . S
C549 O576 1.289 . S
O550 C549 1.235 . S
C551 C553 1.400 . S
C551 N554 1.351 . S
C551 C556 1.501 . S
C552 C553 1.387 . S
C552 N555 1.341 . S
C553 C551 1.400 . S
C553 C552 1.387 . S
N554 Co545 2.022 . S
N554 C551 1.351 . S
N554 N555 1.365 . S
N555 C552 1.341 . S
N555 N554 1.365 . S
N555 H575 0.862 . S
C556 C551 1.501 . S
C556 H557 0.961 . S
C556 H558 0.961 . S
C556 H559 0.960 . S
H557 C556 0.961 . S
H558 C556 0.961 . S
H559 C556 0.960 . S
C560 N561 1.342 . S
C560 C564 1.401 . S
C560 C565 1.499 . S
N561 Co544 1.989 . S
N561 C560 1.342 . S
N561 N562 1.388 . S
N562 Co545 1.993 . S
N562 N561 1.388 . S
N562 C563 1.346 . S
C563 N562 1.346 . S
C563 C564 1.396 . S
C563 C573 1.510 . S
C564 C560 1.401 . S
C564 C563 1.396 . S
C565 C560 1.499 . S
C565 H566 0.959 . S
C565 H567 0.960 . S
C565 H568 0.961 . S
H566 C565 0.959 . S
H567 C565 0.960 . S
H568 C565 0.961 . S
O569 Co544 1.967 . S
O569 C577 1.258 . S
O570 Co545 1.941 . S
O570 C577 1.266 . S
H571 C573 0.959 . S
H572 C573 0.961 . S
C573 C563 1.510 . S
C573 H571 0.959 . S
C573 H572 0.961 . S
C573 H574 0.960 . S
H574 C573 0.960 . S
H575 N555 0.862 . S
O576 Co544 1.920 . S
O576 C549 1.289 . S
C577 O569 1.258 . S
C577 O570 1.266 . S
Co578 O581 1.970 . S
Co578 N595 1.989 . S
Co578 O603 1.967 . S
Co578 O610 1.920 . S
Co579 O582 1.966 . S
Co579 N588 2.022 . S
Co579 N596 1.993 . S
Co579 O604 1.941 . S
C580 O581 1.258 . S
C580 O582 1.263 . S
O581 Co578 1.970 . S
O581 C580 1.258 . S
O582 Co579 1.966 . S
O582 C580 1.263 . S
C583 O584 1.235 . S
C583 O610 1.289 . S
O584 C583 1.235 . S
C585 C587 1.400 . S
C585 N588 1.351 . S
C585 C590 1.501 . S
C586 C587 1.387 . S
C586 N589 1.341 . S
C587 C585 1.400 . S
C587 C586 1.387 . S
N588 Co579 2.022 . S
N588 C585 1.351 . S
N588 N589 1.365 . S
N589 C586 1.341 . S
N589 N588 1.365 . S
N589 H609 0.862 . S
C590 C585 1.501 . S
C590 H591 0.961 . S
C590 H592 0.961 . S
C590 H593 0.960 . S
H591 C590 0.961 . S
H592 C590 0.961 . S
H593 C590 0.960 . S
C594 N595 1.342 . S
C594 C598 1.401 . S
C594 C599 1.499 . S
N595 Co578 1.989 . S
N595 C594 1.342 . S
N595 N596 1.388 . S
N596 Co579 1.993 . S
N596 N595 1.388 . S
N596 C597 1.346 . S
C597 N596 1.346 . S
C597 C598 1.396 . S
C597 C607 1.510 . S
C598 C594 1.401 . S
C598 C597 1.396 . S
C599 C594 1.499 . S
C599 H600 0.959 . S
C599 H601 0.960 . S
C599 H602 0.961 . S
H600 C599 0.959 . S
H601 C599 0.960 . S
H602 C599 0.961 . S
O603 Co578 1.967 . S
O603 C611 1.258 . S
O604 Co579 1.941 . S
O604 C611 1.266 . S
H605 C607 0.959 . S
H606 C607 0.961 . S
C607 C597 1.510 . S
C607 H605 0.959 . S
C607 H606 0.961 . S
C607 H608 0.960 . S
H608 C607 0.960 . S
H609 N589 0.862 . S
O610 Co578 1.920 . S
O610 C583 1.289 . S
C611 O603 1.258 . S
C611 O604 1.266 . S
Co612 O615 1.970 . S
Co612 N629 1.989 . S
Co612 O637 1.967 . S
Co612 O644 1.920 . S
Co613 O616 1.966 . S
Co613 N622 2.022 . S
Co613 N630 1.993 . S
Co613 O638 1.941 . S
C614 O615 1.258 . S
C614 O616 1.263 . S
O615 Co612 1.970 . S
O615 C614 1.258 . S
O616 Co613 1.966 . S
O616 C614 1.263 . S
C617 O618 1.235 . S
C617 O644 1.289 . S
O618 C617 1.235 . S
C619 C621 1.400 . S
C619 N622 1.351 . S
C619 C624 1.501 . S
C620 C621 1.387 . S
C620 N623 1.341 . S
C621 C619 1.400 . S
C621 C620 1.387 . S
N622 Co613 2.022 . S
N622 C619 1.351 . S
N622 N623 1.365 . S
N623 C620 1.341 . S
N623 N622 1.365 . S
N623 H643 0.862 . S
C624 C619 1.501 . S
C624 H625 0.961 . S
C624 H626 0.961 . S
C624 H627 0.960 . S
H625 C624 0.961 . S
H626 C624 0.961 . S
H627 C624 0.960 . S
C628 N629 1.342 . S
C628 C632 1.401 . S
C628 C633 1.499 . S
N629 Co612 1.989 . S
N629 C628 1.342 . S
N629 N630 1.388 . S
N630 Co613 1.993 . S
N630 N629 1.388 . S
N630 C631 1.346 . S
C631 N630 1.346 . S
C631 C632 1.396 . S
C631 C641 1.510 . S
C632 C628 1.401 . S
C632 C631 1.396 . S
C633 C628 1.499 . S
C633 H634 0.959 . S
C633 H635 0.960 . S
C633 H636 0.961 . S
H634 C633 0.959 . S
H635 C633 0.960 . S
H636 C633 0.961 . S
O637 Co612 1.967 . S
O637 C645 1.258 . S
O638 Co613 1.941 . S
O638 C645 1.266 . S
H639 C641 0.959 . S
H640 C641 0.961 . S
C641 C631 1.510 . S
C641 H639 0.959 . S
C641 H640 0.961 . S
C641 H642 0.960 . S
H642 C641 0.960 . S
H643 N623 0.862 . S
O644 Co612 1.920 . S
O644 C617 1.289 . S
C645 O637 1.258 . S
C645 O638 1.266 . S
Co646 O649 1.970 . S
Co646 N663 1.989 . S
Co646 O671 1.967 . S
Co646 O678 1.920 . S
Co647 O650 1.966 . S
Co647 N656 2.022 . S
Co647 N664 1.993 . S
Co647 O672 1.941 . S
C648 O649 1.258 . S
C648 O650 1.263 . S
O649 Co646 1.970 . S
O649 C648 1.258 . S
O650 Co647 1.966 . S
O650 C648 1.263 . S
C651 O652 1.235 . S
C651 O678 1.289 . S
O652 C651 1.235 . S
C653 C655 1.400 . S
C653 N656 1.351 . S
C653 C658 1.501 . S
C654 C655 1.387 . S
C654 N657 1.341 . S
C655 C653 1.400 . S
C655 C654 1.387 . S
N656 Co647 2.022 . S
N656 C653 1.351 . S
N656 N657 1.365 . S
N657 C654 1.341 . S
N657 N656 1.365 . S
N657 H677 0.862 . S
C658 C653 1.501 . S
C658 H659 0.961 . S
C658 H660 0.961 . S
C658 H661 0.960 . S
H659 C658 0.961 . S
H660 C658 0.961 . S
H661 C658 0.960 . S
C662 N663 1.342 . S
C662 C666 1.401 . S
C662 C667 1.499 . S
N663 Co646 1.989 . S
N663 C662 1.342 . S
N663 N664 1.388 . S
N664 Co647 1.993 . S
N664 N663 1.388 . S
N664 C665 1.346 . S
C665 N664 1.346 . S
C665 C666 1.396 . S
C665 C675 1.510 . S
C666 C662 1.401 . S
C666 C665 1.396 . S
C667 C662 1.499 . S
C667 H668 0.959 . S
C667 H669 0.960 . S
C667 H670 0.961 . S
H668 C667 0.959 . S
H669 C667 0.960 . S
H670 C667 0.961 . S
O671 Co646 1.967 . S
O671 C679 1.258 . S
O672 Co647 1.941 . S
O672 C679 1.266 . S
H673 C675 0.959 . S
H674 C675 0.961 . S
C675 C665 1.510 . S
C675 H673 0.959 . S
C675 H674 0.961 . S
C675 H676 0.960 . S
H676 C675 0.960 . S
H677 N657 0.862 . S
O678 Co646 1.920 . S
O678 C651 1.289 . S
C679 O671 1.258 . S
C679 O672 1.266 . S
Co680 O683 1.970 . S
Co680 N697 1.989 . S
Co680 O705 1.967 . S
Co680 O712 1.920 . S
Co681 O684 1.966 . S
Co681 N690 2.022 . S
Co681 N698 1.993 . S
Co681 O706 1.941 . S
C682 O683 1.258 . S
C682 O684 1.263 . S
O683 Co680 1.970 . S
O683 C682 1.258 . S
O684 Co681 1.966 . S
O684 C682 1.263 . S
C685 O686 1.235 . S
C685 O712 1.289 . S
O686 C685 1.235 . S
C687 C689 1.400 . S
C687 N690 1.351 . S
C687 C692 1.501 . S
C688 C689 1.387 . S
C688 N691 1.341 . S
C689 C687 1.400 . S
C689 C688 1.387 . S
N690 Co681 2.022 . S
N690 C687 1.351 . S
N690 N691 1.365 . S
N691 C688 1.341 . S
N691 N690 1.365 . S
N691 H711 0.862 . S
C692 C687 1.501 . S
C692 H693 0.961 . S
C692 H694 0.961 . S
C692 H695 0.960 . S
H693 C692 0.961 . S
H694 C692 0.961 . S
H695 C692 0.960 . S
C696 N697 1.342 . S
C696 C700 1.401 . S
C696 C701 1.499 . S
N697 Co680 1.989 . S
N697 C696 1.342 . S
N697 N698 1.388 . S
N698 Co681 1.993 . S
N698 N697 1.388 . S
N698 C699 1.346 . S
C699 N698 1.346 . S
C699 C700 1.396 . S
C699 C709 1.510 . S
C700 C696 1.401 . S
C700 C699 1.396 . S
C701 C696 1.499 . S
C701 H702 0.959 . S
C701 H703 0.960 . S
C701 H704 0.961 . S
H702 C701 0.959 . S
H703 C701 0.960 . S
H704 C701 0.961 . S
O705 Co680 1.967 . S
O705 C713 1.258 . S
O706 Co681 1.941 . S
O706 C713 1.266 . S
H707 C709 0.959 . S
H708 C709 0.961 . S
C709 C699 1.510 . S
C709 H707 0.959 . S
C709 H708 0.961 . S
C709 H710 0.960 . S
H710 C709 0.960 . S
H711 N691 0.862 . S
O712 Co680 1.920 . S
O712 C685 1.289 . S
C713 O705 1.258 . S
C713 O706 1.266 . S
Co714 O717 1.970 . S
Co714 N731 1.989 . S
Co714 O739 1.967 . S
Co714 O746 1.920 . S
Co715 O718 1.966 . S
Co715 N724 2.022 . S
Co715 N732 1.993 . S
Co715 O740 1.941 . S
C716 O717 1.258 . S
C716 O718 1.263 . S
O717 Co714 1.970 . S
O717 C716 1.258 . S
O718 Co715 1.966 . S
O718 C716 1.263 . S
C719 O720 1.235 . S
C719 O746 1.289 . S
O720 C719 1.235 . S
C721 C723 1.400 . S
C721 N724 1.351 . S
C721 C726 1.501 . S
C722 C723 1.387 . S
C722 N725 1.341 . S
C723 C721 1.400 . S
C723 C722 1.387 . S
N724 Co715 2.022 . S
N724 C721 1.351 . S
N724 N725 1.365 . S
N725 C722 1.341 . S
N725 N724 1.365 . S
N725 H745 0.862 . S
C726 C721 1.501 . S
C726 H727 0.961 . S
C726 H728 0.961 . S
C726 H729 0.960 . S
H727 C726 0.961 . S
H728 C726 0.961 . S
H729 C726 0.960 . S
C730 N731 1.342 . S
C730 C734 1.401 . S
C730 C735 1.499 . S
N731 Co714 1.989 . S
N731 C730 1.342 . S
N731 N732 1.388 . S
N732 Co715 1.993 . S
N732 N731 1.388 . S
N732 C733 1.346 . S
C733 N732 1.346 . S
C733 C734 1.396 . S
C733 C743 1.510 . S
C734 C730 1.401 . S
C734 C733 1.396 . S
C735 C730 1.499 . S
C735 H736 0.959 . S
C735 H737 0.960 . S
C735 H738 0.961 . S
H736 C735 0.959 . S
H737 C735 0.960 . S
H738 C735 0.961 . S
O739 Co714 1.967 . S
O739 C747 1.258 . S
O740 Co715 1.941 . S
O740 C747 1.266 . S
H741 C743 0.959 . S
H742 C743 0.961 . S
C743 C733 1.510 . S
C743 H741 0.959 . S
C743 H742 0.961 . S
C743 H744 0.960 . S
H744 C743 0.960 . S
H745 N725 0.862 . S
O746 Co714 1.920 . S
O746 C719 1.289 . S
C747 O739 1.258 . S
C747 O740 1.266 . S
Co748 O751 1.970 . S
Co748 N765 1.989 . S
Co748 O773 1.967 . S
Co748 O780 1.920 . S
Co749 O752 1.966 . S
Co749 N758 2.022 . S
Co749 N766 1.993 . S
Co749 O774 1.941 . S
C750 O751 1.258 . S
C750 O752 1.263 . S
O751 Co748 1.970 . S
O751 C750 1.258 . S
O752 Co749 1.966 . S
O752 C750 1.263 . S
C753 O754 1.235 . S
C753 O780 1.289 . S
O754 C753 1.235 . S
C755 C757 1.400 . S
C755 N758 1.351 . S
C755 C760 1.501 . S
C756 C757 1.387 . S
C756 N759 1.341 . S
C757 C755 1.400 . S
C757 C756 1.387 . S
N758 Co749 2.022 . S
N758 C755 1.351 . S
N758 N759 1.365 . S
N759 C756 1.341 . S
N759 N758 1.365 . S
N759 H779 0.862 . S
C760 C755 1.501 . S
C760 H761 0.961 . S
C760 H762 0.961 . S
C760 H763 0.960 . S
H761 C760 0.961 . S
H762 C760 0.961 . S
H763 C760 0.960 . S
C764 N765 1.342 . S
C764 C768 1.401 . S
C764 C769 1.499 . S
N765 Co748 1.989 . S
N765 C764 1.342 . S
N765 N766 1.388 . S
N766 Co749 1.993 . S
N766 N765 1.388 . S
N766 C767 1.346 . S
C767 N766 1.346 . S
C767 C768 1.396 . S
C767 C777 1.510 . S
C768 C764 1.401 . S
C768 C767 1.396 . S
C769 C764 1.499 . S
C769 H770 0.959 . S
C769 H771 0.960 . S
C769 H772 0.961 . S
H770 C769 0.959 . S
H771 C769 0.960 . S
H772 C769 0.961 . S
O773 Co748 1.967 . S
O773 C781 1.258 . S
O774 Co749 1.941 . S
O774 C781 1.266 . S
H775 C777 0.959 . S
H776 C777 0.961 . S
C777 C767 1.510 . S
C777 H775 0.959 . S
C777 H776 0.961 . S
C777 H778 0.960 . S
H778 C777 0.960 . S
H779 N759 0.862 . S
O780 Co748 1.920 . S
O780 C753 1.289 . S
C781 O773 1.258 . S
C781 O774 1.266 . S
Co782 O785 1.970 . S
Co782 N799 1.989 . S
Co782 O807 1.967 . S
Co782 O814 1.920 . S
Co783 O786 1.966 . S
Co783 N792 2.022 . S
Co783 N800 1.993 . S
Co783 O808 1.941 . S
C784 O785 1.258 . S
C784 O786 1.263 . S
O785 Co782 1.970 . S
O785 C784 1.258 . S
O786 Co783 1.966 . S
O786 C784 1.263 . S
C787 O788 1.235 . S
C787 O814 1.289 . S
O788 C787 1.235 . S
C789 C791 1.400 . S
C789 N792 1.351 . S
C789 C794 1.501 . S
C790 C791 1.387 . S
C790 N793 1.341 . S
C791 C789 1.400 . S
C791 C790 1.387 . S
N792 Co783 2.022 . S
N792 C789 1.351 . S
N792 N793 1.365 . S
N793 C790 1.341 . S
N793 N792 1.365 . S
N793 H813 0.862 . S
C794 C789 1.501 . S
C794 H795 0.961 . S
C794 H796 0.961 . S
C794 H797 0.960 . S
H795 C794 0.961 . S
H796 C794 0.961 . S
H797 C794 0.960 . S
C798 N799 1.342 . S
C798 C802 1.401 . S
C798 C803 1.499 . S
N799 Co782 1.989 . S
N799 C798 1.342 . S
N799 N800 1.388 . S
N800 Co783 1.993 . S
N800 N799 1.388 . S
N800 C801 1.346 . S
C801 N800 1.346 . S
C801 C802 1.396 . S
C801 C811 1.510 . S
C802 C798 1.401 . S
C802 C801 1.396 . S
C803 C798 1.499 . S
C803 H804 0.959 . S
C803 H805 0.960 . S
C803 H806 0.961 . S
H804 C803 0.959 . S
H805 C803 0.960 . S
H806 C803 0.961 . S
O807 Co782 1.967 . S
O807 C815 1.258 . S
O808 Co783 1.941 . S
O808 C815 1.266 . S
H809 C811 0.959 . S
H810 C811 0.961 . S
C811 C801 1.510 . S
C811 H809 0.959 . S
C811 H810 0.961 . S
C811 H812 0.960 . S
H812 C811 0.960 . S
H813 N793 0.862 . S
O814 Co782 1.920 . S
O814 C787 1.289 . S
C815 O807 1.258 . S
C815 O808 1.266 . S
Co816 O819 1.970 . S
Co816 N833 1.989 . S
Co816 O841 1.967 . S
Co816 O848 1.920 . S
Co817 O820 1.966 . S
Co817 N826 2.022 . S
Co817 N834 1.993 . S
Co817 O842 1.941 . S
C818 O819 1.258 . S
C818 O820 1.263 . S
O819 Co816 1.970 . S
O819 C818 1.258 . S
O820 Co817 1.966 . S
O820 C818 1.263 . S
C821 O822 1.235 . S
C821 O848 1.289 . S
O822 C821 1.235 . S
C823 C825 1.400 . S
C823 N826 1.351 . S
C823 C828 1.501 . S
C824 C825 1.387 . S
C824 N827 1.341 . S
C825 C823 1.400 . S
C825 C824 1.387 . S
N826 Co817 2.022 . S
N826 C823 1.351 . S
N826 N827 1.365 . S
N827 C824 1.341 . S
N827 N826 1.365 . S
N827 H847 0.862 . S
C828 C823 1.501 . S
C828 H829 0.961 . S
C828 H830 0.961 . S
C828 H831 0.960 . S
H829 C828 0.961 . S
H830 C828 0.961 . S
H831 C828 0.960 . S
C832 N833 1.342 . S
C832 C836 1.401 . S
C832 C837 1.499 . S
N833 Co816 1.989 . S
N833 C832 1.342 . S
N833 N834 1.388 . S
N834 Co817 1.993 . S
N834 N833 1.388 . S
N834 C835 1.346 . S
C835 N834 1.346 . S
C835 C836 1.396 . S
C835 C845 1.510 . S
C836 C832 1.401 . S
C836 C835 1.396 . S
C837 C832 1.499 . S
C837 H838 0.959 . S
C837 H839 0.960 . S
C837 H840 0.961 . S
H838 C837 0.959 . S
H839 C837 0.960 . S
H840 C837 0.961 . S
O841 Co816 1.967 . S
O841 C849 1.258 . S
O842 Co817 1.941 . S
O842 C849 1.266 . S
H843 C845 0.959 . S
H844 C845 0.961 . S
C845 C835 1.510 . S
C845 H843 0.959 . S
C845 H844 0.961 . S
C845 H846 0.960 . S
H846 C845 0.960 . S
H847 N827 0.862 . S
O848 Co816 1.920 . S
O848 C821 1.289 . S
C849 O841 1.258 . S
C849 O842 1.266 . S
Co850 O853 1.970 . S
Co850 N867 1.989 . S
Co850 O875 1.967 . S
Co850 O882 1.920 . S
Co851 O854 1.966 . S
Co851 N860 2.022 . S
Co851 N868 1.993 . S
Co851 O876 1.941 . S
C852 O853 1.258 . S
C852 O854 1.263 . S
O853 Co850 1.970 . S
O853 C852 1.258 . S
O854 Co851 1.966 . S
O854 C852 1.263 . S
C855 O856 1.235 . S
C855 O882 1.289 . S
O856 C855 1.235 . S
C857 C859 1.400 . S
C857 N860 1.351 . S
C857 C862 1.501 . S
C858 C859 1.387 . S
C858 N861 1.341 . S
C859 C857 1.400 . S
C859 C858 1.387 . S
N860 Co851 2.022 . S
N860 C857 1.351 . S
N860 N861 1.365 . S
N861 C858 1.341 . S
N861 N860 1.365 . S
N861 H881 0.862 . S
C862 C857 1.501 . S
C862 H863 0.961 . S
C862 H864 0.961 . S
C862 H865 0.960 . S
H863 C862 0.961 . S
H864 C862 0.961 . S
H865 C862 0.960 . S
C866 N867 1.342 . S
C866 C870 1.401 . S
C866 C871 1.499 . S
N867 Co850 1.989 . S
N867 C866 1.342 . S
N867 N868 1.388 . S
N868 Co851 1.993 . S
N868 N867 1.388 . S
N868 C869 1.346 . S
C869 N868 1.346 . S
C869 C870 1.396 . S
C869 C879 1.510 . S
C870 C866 1.401 . S
C870 C869 1.396 . S
C871 C866 1.499 . S
C871 H872 0.959 . S
C871 H873 0.960 . S
C871 H874 0.961 . S
H872 C871 0.959 . S
H873 C871 0.960 . S
H874 C871 0.961 . S
O875 Co850 1.967 . S
O875 C883 1.258 . S
O876 Co851 1.941 . S
O876 C883 1.266 . S
H877 C879 0.959 . S
H878 C879 0.961 . S
C879 C869 1.510 . S
C879 H877 0.959 . S
C879 H878 0.961 . S
C879 H880 0.960 . S
H880 C879 0.960 . S
H881 N861 0.862 . S
O882 Co850 1.920 . S
O882 C855 1.289 . S
C883 O875 1.258 . S
C883 O876 1.266 . S
Co884 O887 1.970 . S
Co884 N901 1.989 . S
Co884 O909 1.967 . S
Co884 O916 1.920 . S
Co885 O888 1.966 . S
Co885 N894 2.022 . S
Co885 N902 1.993 . S
Co885 O910 1.941 . S
C886 O887 1.258 . S
C886 O888 1.263 . S
O887 Co884 1.970 . S
O887 C886 1.258 . S
O888 Co885 1.966 . S
O888 C886 1.263 . S
C889 O890 1.235 . S
C889 O916 1.289 . S
O890 C889 1.235 . S
C891 C893 1.400 . S
C891 N894 1.351 . S
C891 C896 1.501 . S
C892 C893 1.387 . S
C892 N895 1.341 . S
C893 C891 1.400 . S
C893 C892 1.387 . S
N894 Co885 2.022 . S
N894 C891 1.351 . S
N894 N895 1.365 . S
N895 C892 1.341 . S
N895 N894 1.365 . S
N895 H915 0.862 . S
C896 C891 1.501 . S
C896 H897 0.961 . S
C896 H898 0.961 . S
C896 H899 0.960 . S
H897 C896 0.961 . S
H898 C896 0.961 . S
H899 C896 0.960 . S
C900 N901 1.342 . S
C900 C904 1.401 . S
C900 C905 1.499 . S
N901 Co884 1.989 . S
N901 C900 1.342 . S
N901 N902 1.388 . S
N902 Co885 1.993 . S
N902 N901 1.388 . S
N902 C903 1.346 . S
C903 N902 1.346 . S
C903 C904 1.396 . S
C903 C913 1.510 . S
C904 C900 1.401 . S
C904 C903 1.396 . S
C905 C900 1.499 . S
C905 H906 0.959 . S
C905 H907 0.960 . S
C905 H908 0.961 . S
H906 C905 0.959 . S
H907 C905 0.960 . S
H908 C905 0.961 . S
O909 Co884 1.967 . S
O909 C917 1.258 . S
O910 Co885 1.941 . S
O910 C917 1.266 . S
H911 C913 0.959 . S
H912 C913 0.961 . S
C913 C903 1.510 . S
C913 H911 0.959 . S
C913 H912 0.961 . S
C913 H914 0.960 . S
H914 C913 0.960 . S
H915 N895 0.862 . S
O916 Co884 1.920 . S
O916 C889 1.289 . S
C917 O909 1.258 . S
C917 O910 1.266 . S
Co918 O921 1.970 . S
Co918 N935 1.989 . S
Co918 O943 1.967 . S
Co918 O950 1.920 . S
Co919 O922 1.966 . S
Co919 N928 2.022 . S
Co919 N936 1.993 . S
Co919 O944 1.941 . S
C920 O921 1.258 . S
C920 O922 1.263 . S
O921 Co918 1.970 . S
O921 C920 1.258 . S
O922 Co919 1.966 . S
O922 C920 1.263 . S
C923 O924 1.235 . S
C923 O950 1.289 . S
O924 C923 1.235 . S
C925 C927 1.400 . S
C925 N928 1.351 . S
C925 C930 1.501 . S
C926 C927 1.387 . S
C926 N929 1.341 . S
C927 C925 1.400 . S
C927 C926 1.387 . S
N928 Co919 2.022 . S
N928 C925 1.351 . S
N928 N929 1.365 . S
N929 C926 1.341 . S
N929 N928 1.365 . S
N929 H949 0.862 . S
C930 C925 1.501 . S
C930 H931 0.961 . S
C930 H932 0.961 . S
C930 H933 0.960 . S
H931 C930 0.961 . S
H932 C930 0.961 . S
H933 C930 0.960 . S
C934 N935 1.342 . S
C934 C938 1.401 . S
C934 C939 1.499 . S
N935 Co918 1.989 . S
N935 C934 1.342 . S
N935 N936 1.388 . S
N936 Co919 1.993 . S
N936 N935 1.388 . S
N936 C937 1.346 . S
C937 N936 1.346 . S
C937 C938 1.396 . S
C937 C947 1.510 . S
C938 C934 1.401 . S
C938 C937 1.396 . S
C939 C934 1.499 . S
C939 H940 0.959 . S
C939 H941 0.960 . S
C939 H942 0.961 . S
H940 C939 0.959 . S
H941 C939 0.960 . S
H942 C939 0.961 . S
O943 Co918 1.967 . S
O943 C951 1.258 . S
O944 Co919 1.941 . S
O944 C951 1.266 . S
H945 C947 0.959 . S
H946 C947 0.961 . S
C947 C937 1.510 . S
C947 H945 0.959 . S
C947 H946 0.961 . S
C947 H948 0.960 . S
H948 C947 0.960 . S
H949 N929 0.862 . S
O950 Co918 1.920 . S
O950 C923 1.289 . S
C951 O943 1.258 . S
C951 O944 1.266 . S
Co952 O955 1.970 . S
Co952 N969 1.989 . S
Co952 O977 1.967 . S
Co952 O984 1.920 . S
Co953 O956 1.966 . S
Co953 N962 2.022 . S
Co953 N970 1.993 . S
Co953 O978 1.941 . S
C954 O955 1.258 . S
C954 O956 1.263 . S
O955 Co952 1.970 . S
O955 C954 1.258 . S
O956 Co953 1.966 . S
O956 C954 1.263 . S
C957 O958 1.235 . S
C957 O984 1.289 . S
O958 C957 1.235 . S
C959 C961 1.400 . S
C959 N962 1.351 . S
C959 C964 1.501 . S
C960 C961 1.387 . S
C960 N963 1.341 . S
C961 C959 1.400 . S
C961 C960 1.387 . S
N962 Co953 2.022 . S
N962 C959 1.351 . S
N962 N963 1.365 . S
N963 C960 1.341 . S
N963 N962 1.365 . S
N963 H983 0.862 . S
C964 C959 1.501 . S
C964 H965 0.961 . S
C964 H966 0.961 . S
C964 H967 0.960 . S
H965 C964 0.961 . S
H966 C964 0.961 . S
H967 C964 0.960 . S
C968 N969 1.342 . S
C968 C972 1.401 . S
C968 C973 1.499 . S
N969 Co952 1.989 . S
N969 C968 1.342 . S
N969 N970 1.388 . S
N970 Co953 1.993 . S
N970 N969 1.388 . S
N970 C971 1.346 . S
C971 N970 1.346 . S
C971 C972 1.396 . S
C971 C981 1.510 . S
C972 C968 1.401 . S
C972 C971 1.396 . S
C973 C968 1.499 . S
C973 H974 0.959 . S
C973 H975 0.960 . S
C973 H976 0.961 . S
H974 C973 0.959 . S
H975 C973 0.960 . S
H976 C973 0.961 . S
O977 Co952 1.967 . S
O977 C985 1.258 . S
O978 Co953 1.941 . S
O978 C985 1.266 . S
H979 C981 0.959 . S
H980 C981 0.961 . S
C981 C971 1.510 . S
C981 H979 0.959 . S
C981 H980 0.961 . S
C981 H982 0.960 . S
H982 C981 0.960 . S
H983 N963 0.862 . S
O984 Co952 1.920 . S
O984 C957 1.289 . S
C985 O977 1.258 . S
C985 O978 1.266 . S
Co986 O989 1.970 . S
Co986 N1003 1.989 . S
Co986 O1011 1.967 . S
Co986 O1018 1.920 . S
Co987 O990 1.966 . S
Co987 N996 2.022 . S
Co987 N1004 1.993 . S
Co987 O1012 1.941 . S
C988 O989 1.258 . S
C988 O990 1.263 . S
O989 Co986 1.970 . S
O989 C988 1.258 . S
O990 Co987 1.966 . S
O990 C988 1.263 . S
C991 O992 1.235 . S
C991 O1018 1.289 . S
O992 C991 1.235 . S
C993 C995 1.400 . S
C993 N996 1.351 . S
C993 C998 1.501 . S
C994 C995 1.387 . S
C994 N997 1.341 . S
C995 C993 1.400 . S
C995 C994 1.387 . S
N996 Co987 2.022 . S
N996 C993 1.351 . S
N996 N997 1.365 . S
N997 C994 1.341 . S
N997 N996 1.365 . S
N997 H1017 0.862 . S
C998 C993 1.501 . S
C998 H999 0.961 . S
C998 H1000 0.961 . S
C998 H1001 0.960 . S
H999 C998 0.961 . S
H1000 C998 0.961 . S
H1001 C998 0.960 . S
C1002 N1003 1.342 . S
C1002 C1006 1.401 . S
C1002 C1007 1.499 . S
N1003 Co986 1.989 . S
N1003 C1002 1.342 . S
N1003 N1004 1.388 . S
N1004 Co987 1.993 . S
N1004 N1003 1.388 . S
N1004 C1005 1.346 . S
C1005 N1004 1.346 . S
C1005 C1006 1.396 . S
C1005 C1015 1.510 . S
C1006 C1002 1.401 . S
C1006 C1005 1.396 . S
C1007 C1002 1.499 . S
C1007 H1008 0.959 . S
C1007 H1009 0.960 . S
C1007 H1010 0.961 . S
H1008 C1007 0.959 . S
H1009 C1007 0.960 . S
H1010 C1007 0.961 . S
O1011 Co986 1.967 . S
O1011 C1019 1.258 . S
O1012 Co987 1.941 . S
O1012 C1019 1.266 . S
H1013 C1015 0.959 . S
H1014 C1015 0.961 . S
C1015 C1005 1.510 . S
C1015 H1013 0.959 . S
C1015 H1014 0.961 . S
C1015 H1016 0.960 . S
H1016 C1015 0.960 . S
H1017 N997 0.862 . S
O1018 Co986 1.920 . S
O1018 C991 1.289 . S
C1019 O1011 1.258 . S
C1019 O1012 1.266 . S
Co1020 O1023 1.970 . S
Co1020 N1037 1.989 . S
Co1020 O1045 1.967 . S
Co1020 O1052 1.920 . S
Co1021 O1024 1.966 . S
Co1021 N1030 2.022 . S
Co1021 N1038 1.993 . S
Co1021 O1046 1.941 . S
C1022 O1023 1.258 . S
C1022 O1024 1.263 . S
O1023 Co1020 1.970 . S
O1023 C1022 1.258 . S
O1024 Co1021 1.966 . S
O1024 C1022 1.263 . S
C1025 O1026 1.235 . S
C1025 O1052 1.289 . S
O1026 C1025 1.235 . S
C1027 C1029 1.400 . S
C1027 N1030 1.351 . S
C1027 C1032 1.501 . S
C1028 C1029 1.387 . S
C1028 N1031 1.341 . S
C1029 C1027 1.400 . S
C1029 C1028 1.387 . S
N1030 Co1021 2.022 . S
N1030 C1027 1.351 . S
N1030 N1031 1.365 . S
N1031 C1028 1.341 . S
N1031 N1030 1.365 . S
N1031 H1051 0.862 . S
C1032 C1027 1.501 . S
C1032 H1033 0.961 . S
C1032 H1034 0.961 . S
C1032 H1035 0.960 . S
H1033 C1032 0.961 . S
H1034 C1032 0.961 . S
H1035 C1032 0.960 . S
C1036 N1037 1.342 . S
C1036 C1040 1.401 . S
C1036 C1041 1.499 . S
N1037 Co1020 1.989 . S
N1037 C1036 1.342 . S
N1037 N1038 1.388 . S
N1038 Co1021 1.993 . S
N1038 N1037 1.388 . S
N1038 C1039 1.346 . S
C1039 N1038 1.346 . S
C1039 C1040 1.396 . S
C1039 C1049 1.510 . S
C1040 C1036 1.401 . S
C1040 C1039 1.396 . S
C1041 C1036 1.499 . S
C1041 H1042 0.959 . S
C1041 H1043 0.960 . S
C1041 H1044 0.961 . S
H1042 C1041 0.959 . S
H1043 C1041 0.960 . S
H1044 C1041 0.961 . S
O1045 Co1020 1.967 . S
O1045 C1053 1.258 . S
O1046 Co1021 1.941 . S
O1046 C1053 1.266 . S
H1047 C1049 0.959 . S
H1048 C1049 0.961 . S
C1049 C1039 1.510 . S
C1049 H1047 0.959 . S
C1049 H1048 0.961 . S
C1049 H1050 0.960 . S
H1050 C1049 0.960 . S
H1051 N1031 0.862 . S
O1052 Co1020 1.920 . S
O1052 C1025 1.289 . S
C1053 O1045 1.258 . S
C1053 O1046 1.266 . S
Co1054 O1057 1.970 . S
Co1054 N1071 1.989 . S
Co1054 O1079 1.967 . S
Co1054 O1086 1.920 . S
Co1055 O1058 1.966 . S
Co1055 N1064 2.022 . S
Co1055 N1072 1.993 . S
Co1055 O1080 1.941 . S
C1056 O1057 1.258 . S
C1056 O1058 1.263 . S
O1057 Co1054 1.970 . S
O1057 C1056 1.258 . S
O1058 Co1055 1.966 . S
O1058 C1056 1.263 . S
C1059 O1060 1.235 . S
C1059 O1086 1.289 . S
O1060 C1059 1.235 . S
C1061 C1063 1.400 . S
C1061 N1064 1.351 . S
C1061 C1066 1.501 . S
C1062 C1063 1.387 . S
C1062 N1065 1.341 . S
C1063 C1061 1.400 . S
C1063 C1062 1.387 . S
N1064 Co1055 2.022 . S
N1064 C1061 1.351 . S
N1064 N1065 1.365 . S
N1065 C1062 1.341 . S
N1065 N1064 1.365 . S
N1065 H1085 0.862 . S
C1066 C1061 1.501 . S
C1066 H1067 0.961 . S
C1066 H1068 0.961 . S
C1066 H1069 0.960 . S
H1067 C1066 0.961 . S
H1068 C1066 0.961 . S
H1069 C1066 0.960 . S
C1070 N1071 1.342 . S
C1070 C1074 1.401 . S
C1070 C1075 1.499 . S
N1071 Co1054 1.989 . S
N1071 C1070 1.342 . S
N1071 N1072 1.388 . S
N1072 Co1055 1.993 . S
N1072 N1071 1.388 . S
N1072 C1073 1.346 . S
C1073 N1072 1.346 . S
C1073 C1074 1.396 . S
C1073 C1083 1.510 . S
C1074 C1070 1.401 . S
C1074 C1073 1.396 . S
C1075 C1070 1.499 . S
C1075 H1076 0.959 . S
C1075 H1077 0.960 . S
C1075 H1078 0.961 . S
H1076 C1075 0.959 . S
H1077 C1075 0.960 . S
H1078 C1075 0.961 . S
O1079 Co1054 1.967 . S
O1079 C1087 1.258 . S
O1080 Co1055 1.941 . S
O1080 C1087 1.266 . S
H1081 C1083 0.959 . S
H1082 C1083 0.961 . S
C1083 C1073 1.510 . S
C1083 H1081 0.959 . S
C1083 H1082 0.961 . S
C1083 H1084 0.960 . S
H1084 C1083 0.960 . S
H1085 N1065 0.862 . S
O1086 Co1054 1.920 . S
O1086 C1059 1.289 . S
C1087 O1079 1.258 . S
C1087 O1080 1.266 . S
Co1088 O1091 1.970 . S
Co1088 N1105 1.989 . S
Co1088 O1113 1.967 . S
Co1088 O1120 1.920 . S
Co1089 O1092 1.966 . S
Co1089 N1098 2.022 . S
Co1089 N1106 1.993 . S
Co1089 O1114 1.941 . S
C1090 O1091 1.258 . S
C1090 O1092 1.263 . S
O1091 Co1088 1.970 . S
O1091 C1090 1.258 . S
O1092 Co1089 1.966 . S
O1092 C1090 1.263 . S
C1093 O1094 1.235 . S
C1093 O1120 1.289 . S
O1094 C1093 1.235 . S
C1095 C1097 1.400 . S
C1095 N1098 1.351 . S
C1095 C1100 1.501 . S
C1096 C1097 1.387 . S
C1096 N1099 1.341 . S
C1097 C1095 1.400 . S
C1097 C1096 1.387 . S
N1098 Co1089 2.022 . S
N1098 C1095 1.351 . S
N1098 N1099 1.365 . S
N1099 C1096 1.341 . S
N1099 N1098 1.365 . S
N1099 H1119 0.862 . S
C1100 C1095 1.501 . S
C1100 H1101 0.961 . S
C1100 H1102 0.961 . S
C1100 H1103 0.960 . S
H1101 C1100 0.961 . S
H1102 C1100 0.961 . S
H1103 C1100 0.960 . S
C1104 N1105 1.342 . S
C1104 C1108 1.401 . S
C1104 C1109 1.499 . S
N1105 Co1088 1.989 . S
N1105 C1104 1.342 . S
N1105 N1106 1.388 . S
N1106 Co1089 1.993 . S
N1106 N1105 1.388 . S
N1106 C1107 1.346 . S
C1107 N1106 1.346 . S
C1107 C1108 1.396 . S
C1107 C1117 1.510 . S
C1108 C1104 1.401 . S
C1108 C1107 1.396 . S
C1109 C1104 1.499 . S
C1109 H1110 0.959 . S
C1109 H1111 0.960 . S
C1109 H1112 0.961 . S
H1110 C1109 0.959 . S
H1111 C1109 0.960 . S
H1112 C1109 0.961 . S
O1113 Co1088 1.967 . S
O1113 C1121 1.258 . S
O1114 Co1089 1.941 . S
O1114 C1121 1.266 . S
H1115 C1117 0.959 . S
H1116 C1117 0.961 . S
C1117 C1107 1.510 . S
C1117 H1115 0.959 . S
C1117 H1116 0.961 . S
C1117 H1118 0.960 . S
H1118 C1117 0.960 . S
H1119 N1099 0.862 . S
O1120 Co1088 1.920 . S
O1120 C1093 1.289 . S
C1121 O1113 1.258 . S
C1121 O1114 1.266 . S
Co1122 O1125 1.970 . S
Co1122 N1139 1.989 . S
Co1122 O1147 1.967 . S
Co1122 O1154 1.920 . S
Co1123 O1126 1.966 . S
Co1123 N1132 2.022 . S
Co1123 N1140 1.993 . S
Co1123 O1148 1.941 . S
C1124 O1125 1.258 . S
C1124 O1126 1.263 . S
O1125 Co1122 1.970 . S
O1125 C1124 1.258 . S
O1126 Co1123 1.966 . S
O1126 C1124 1.263 . S
C1127 O1128 1.235 . S
C1127 O1154 1.289 . S
O1128 C1127 1.235 . S
C1129 C1131 1.400 . S
C1129 N1132 1.351 . S
C1129 C1134 1.501 . S
C1130 C1131 1.387 . S
C1130 N1133 1.341 . S
C1131 C1129 1.400 . S
C1131 C1130 1.387 . S
N1132 Co1123 2.022 . S
N1132 C1129 1.351 . S
N1132 N1133 1.365 . S
N1133 C1130 1.341 . S
N1133 N1132 1.365 . S
N1133 H1153 0.862 . S
C1134 C1129 1.501 . S
C1134 H1135 0.961 . S
C1134 H1136 0.961 . S
C1134 H1137 0.960 . S
H1135 C1134 0.961 . S
H1136 C1134 0.961 . S
H1137 C1134 0.960 . S
C1138 N1139 1.342 . S
C1138 C1142 1.401 . S
C1138 C1143 1.499 . S
N1139 Co1122 1.989 . S
N1139 C1138 1.342 . S
N1139 N1140 1.388 . S
N1140 Co1123 1.993 . S
N1140 N1139 1.388 . S
N1140 C1141 1.346 . S
C1141 N1140 1.346 . S
C1141 C1142 1.396 . S
C1141 C1151 1.510 . S
C1142 C1138 1.401 . S
C1142 C1141 1.396 . S
C1143 C1138 1.499 . S
C1143 H1144 0.959 . S
C1143 H1145 0.960 . S
C1143 H1146 0.961 . S
H1144 C1143 0.959 . S
H1145 C1143 0.960 . S
H1146 C1143 0.961 . S
O1147 Co1122 1.967 . S
O1147 C1155 1.258 . S
O1148 Co1123 1.941 . S
O1148 C1155 1.266 . S
H1149 C1151 0.959 . S
H1150 C1151 0.961 . S
C1151 C1141 1.510 . S
C1151 H1149 0.959 . S
C1151 H1150 0.961 . S
C1151 H1152 0.960 . S
H1152 C1151 0.960 . S
H1153 N1133 0.862 . S
O1154 Co1122 1.920 . S
O1154 C1127 1.289 . S
C1155 O1147 1.258 . S
C1155 O1148 1.266 . S
Co1156 O1159 1.970 . S
Co1156 N1173 1.989 . S
Co1156 O1181 1.967 . S
Co1156 O1188 1.920 . S
Co1157 O1160 1.966 . S
Co1157 N1166 2.022 . S
Co1157 N1174 1.993 . S
Co1157 O1182 1.941 . S
C1158 O1159 1.258 . S
C1158 O1160 1.263 . S
O1159 Co1156 1.970 . S
O1159 C1158 1.258 . S
O1160 Co1157 1.966 . S
O1160 C1158 1.263 . S
C1161 O1162 1.235 . S
C1161 O1188 1.289 . S
O1162 C1161 1.235 . S
C1163 C1165 1.400 . S
C1163 N1166 1.351 . S
C1163 C1168 1.501 . S
C1164 C1165 1.387 . S
C1164 N1167 1.341 . S
C1165 C1163 1.400 . S
C1165 C1164 1.387 . S
N1166 Co1157 2.022 . S
N1166 C1163 1.351 . S
N1166 N1167 1.365 . S
N1167 C1164 1.341 . S
N1167 N1166 1.365 . S
N1167 H1187 0.862 . S
C1168 C1163 1.501 . S
C1168 H1169 0.961 . S
C1168 H1170 0.961 . S
C1168 H1171 0.960 . S
H1169 C1168 0.961 . S
H1170 C1168 0.961 . S
H1171 C1168 0.960 . S
C1172 N1173 1.342 . S
C1172 C1176 1.401 . S
C1172 C1177 1.499 . S
N1173 Co1156 1.989 . S
N1173 C1172 1.342 . S
N1173 N1174 1.388 . S
N1174 Co1157 1.993 . S
N1174 N1173 1.388 . S
N1174 C1175 1.346 . S
C1175 N1174 1.346 . S
C1175 C1176 1.396 . S
C1175 C1185 1.510 . S
C1176 C1172 1.401 . S
C1176 C1175 1.396 . S
C1177 C1172 1.499 . S
C1177 H1178 0.959 . S
C1177 H1179 0.960 . S
C1177 H1180 0.961 . S
H1178 C1177 0.959 . S
H1179 C1177 0.960 . S
H1180 C1177 0.961 . S
O1181 Co1156 1.967 . S
O1181 C1189 1.258 . S
O1182 Co1157 1.941 . S
O1182 C1189 1.266 . S
H1183 C1185 0.959 . S
H1184 C1185 0.961 . S
C1185 C1175 1.510 . S
C1185 H1183 0.959 . S
C1185 H1184 0.961 . S
C1185 H1186 0.960 . S
H1186 C1185 0.960 . S
H1187 N1167 0.862 . S
O1188 Co1156 1.920 . S
O1188 C1161 1.289 . S
C1189 O1181 1.258 . S
C1189 O1182 1.266 . S
Co1190 O1193 1.970 . S
Co1190 N1207 1.989 . S
Co1190 O1215 1.967 . S
Co1190 O1222 1.920 . S
Co1191 O1194 1.966 . S
Co1191 N1200 2.022 . S
Co1191 N1208 1.993 . S
Co1191 O1216 1.941 . S
C1192 O1193 1.258 . S
C1192 O1194 1.263 . S
O1193 Co1190 1.970 . S
O1193 C1192 1.258 . S
O1194 Co1191 1.966 . S
O1194 C1192 1.263 . S
C1195 O1196 1.235 . S
C1195 O1222 1.289 . S
O1196 C1195 1.235 . S
C1197 C1199 1.400 . S
C1197 N1200 1.351 . S
C1197 C1202 1.501 . S
C1198 C1199 1.387 . S
C1198 N1201 1.341 . S
C1199 C1197 1.400 . S
C1199 C1198 1.387 . S
N1200 Co1191 2.022 . S
N1200 C1197 1.351 . S
N1200 N1201 1.365 . S
N1201 C1198 1.341 . S
N1201 N1200 1.365 . S
N1201 H1221 0.862 . S
C1202 C1197 1.501 . S
C1202 H1203 0.961 . S
C1202 H1204 0.961 . S
C1202 H1205 0.960 . S
H1203 C1202 0.961 . S
H1204 C1202 0.961 . S
H1205 C1202 0.960 . S
C1206 N1207 1.342 . S
C1206 C1210 1.401 . S
C1206 C1211 1.499 . S
N1207 Co1190 1.989 . S
N1207 C1206 1.342 . S
N1207 N1208 1.388 . S
N1208 Co1191 1.993 . S
N1208 N1207 1.388 . S
N1208 C1209 1.346 . S
C1209 N1208 1.346 . S
C1209 C1210 1.396 . S
C1209 C1219 1.510 . S
C1210 C1206 1.401 . S
C1210 C1209 1.396 . S
C1211 C1206 1.499 . S
C1211 H1212 0.959 . S
C1211 H1213 0.960 . S
C1211 H1214 0.961 . S
H1212 C1211 0.959 . S
H1213 C1211 0.960 . S
H1214 C1211 0.961 . S
O1215 Co1190 1.967 . S
O1215 C1223 1.258 . S
O1216 Co1191 1.941 . S
O1216 C1223 1.266 . S
H1217 C1219 0.959 . S
H1218 C1219 0.961 . S
C1219 C1209 1.510 . S
C1219 H1217 0.959 . S
C1219 H1218 0.961 . S
C1219 H1220 0.960 . S
H1220 C1219 0.960 . S
H1221 N1201 0.862 . S
O1222 Co1190 1.920 . S
O1222 C1195 1.289 . S
C1223 O1215 1.258 . S
C1223 O1216 1.266 . S
H1224 C1230 0.930 . S
H1225 C1234 0.930 . S
H1226 C1239 0.929 . S
H1227 C1237 0.929 . S
H1228 C1232 0.929 . S
H1229 C1238 0.929 . S
C1230 H1224 0.930 . S
C1230 C1231 1.367 1_554 S
C1230 C1238 1.378 . S
C1231 C1230 1.367 1_556 S
C1231 C1239 1.433 . S
C1232 H1228 0.929 . S
C1232 C1234 1.378 . S
C1232 C1236 1.350 1_556 S
C1233 C1236 1.463 . S
C1233 C1238 1.350 . S
C1233 N1241 1.427 1_554 S
C1234 H1225 0.930 . S
C1234 C1232 1.378 . S
C1234 C1235 1.367 1_556 S
C1235 C1234 1.367 1_554 S
C1235 C1237 1.433 . S
C1236 C1232 1.350 1_554 S
C1236 C1233 1.463 . S
C1236 N1240 1.427 . S
C1237 H1227 0.929 . S
C1237 C1235 1.433 . S
C1237 N1240 1.384 . S
C1238 H1229 0.929 . S
C1238 C1230 1.378 . S
C1238 C1233 1.350 . S
C1239 H1226 0.929 . S
C1239 C1231 1.433 . S
C1239 N1241 1.384 . S
N1240 C1236 1.427 . S
N1240 C1237 1.384 . S
N1241 C1233 1.427 1_556 S
N1241 C1239 1.384 . S
H1242 C1248 0.930 . S
H1243 C1252 0.930 . S
H1244 C1257 0.929 . S
H1245 C1255 0.929 . S
H1246 C1250 0.929 . S
H1247 C1256 0.929 . S
C1248 H1242 0.930 . S
C1248 C1249 1.367 . S
C1248 C1256 1.378 . S
C1249 C1248 1.367 . S
C1249 C1257 1.433 1_554 S
C1250 H1246 0.929 . S
C1250 C1252 1.378 . S
C1250 C1254 1.361 . S
C1251 C1254 1.459 1_554 S
C1251 C1256 1.350 . S
C1251 N1259 1.427 1_554 S
C1252 H1243 0.930 . S
C1252 C1250 1.378 . S
C1252 C1253 1.367 . S
C1253 C1252 1.367 . S
C1253 C1255 1.433 1_556 S
C1254 C1250 1.361 . S
C1254 C1251 1.459 1_556 S
C1254 N1258 1.419 1_556 S
C1255 H1245 0.929 . S
C1255 C1253 1.433 1_554 S
C1255 N1258 1.384 . S
C1256 H1247 0.929 . S
C1256 C1248 1.378 . S
C1256 C1251 1.350 . S
C1257 H1244 0.929 . S
C1257 C1249 1.433 1_556 S
C1257 N1259 1.384 . S
N1258 C1254 1.419 1_554 S
N1258 C1255 1.384 . S
N1259 C1251 1.427 1_556 S
N1259 C1257 1.384 . S
H1260 C1266 0.930 . S
H1261 C1270 0.930 . S
H1262 C1275 0.928 1_554 S
H1263 C1273 0.929 . S
H1264 C1268 0.929 . S
H1265 C1274 0.929 . S
C1266 H1260 0.930 . S
C1266 C1267 1.367 . S
C1266 C1274 1.378 . S
C1267 C1266 1.367 . S
C1267 C1275 1.433 . S
C1268 H1264 0.929 . S
C1268 C1270 1.378 . S
C1268 C1272 1.350 . S
C1269 C1272 1.464 . S
C1269 C1274 1.348 1_554 S
C1269 N1277 1.428 . S
C1270 H1261 0.930 . S
C1270 C1268 1.378 . S
C1270 C1271 1.367 . S
C1271 C1270 1.367 . S
C1271 C1273 1.433 . S
C1272 C1268 1.350 . S
C1272 C1269 1.464 . S
C1272 N1276 1.427 . S
C1273 H1263 0.929 . S
C1273 C1271 1.433 . S
C1273 N1276 1.384 . S
C1274 H1265 0.929 . S
C1274 C1266 1.378 . S
C1274 C1269 1.348 1_556 S
C1275 H1262 0.928 1_556 S
C1275 C1267 1.433 . S
C1275 N1277 1.384 1_556 S
N1276 C1272 1.427 . S
N1276 C1273 1.384 . S
N1277 C1269 1.428 . S
N1277 C1275 1.384 1_554 S
H1278 C1284 0.930 . S
H1279 C1288 0.930 . S
H1280 C1293 0.929 . S
H1281 C1291 0.929 . S
H1282 C1286 0.929 . S
H1283 C1292 0.929 . S
C1284 H1278 0.930 . S
C1284 C1285 1.367 . S
C1284 C1292 1.378 . S
C1285 C1284 1.367 . S
C1285 C1293 1.433 . S
C1286 H1282 0.929 . S
C1286 C1288 1.378 . S
C1286 C1290 1.350 . S
C1287 C1290 1.463 . S
C1287 C1292 1.350 . S
C1287 N1295 1.427 . S
C1288 H1279 0.930 . S
C1288 C1286 1.378 . S
C1288 C1289 1.367 . S
C1289 C1288 1.367 . S
C1289 C1291 1.433 . S
C1290 C1286 1.350 . S
C1290 C1287 1.463 . S
C1290 N1294 1.427 . S
C1291 H1281 0.929 . S
C1291 C1289 1.433 . S
C1291 N1294 1.384 . S
C1292 H1283 0.929 . S
C1292 C1284 1.378 . S
C1292 C1287 1.350 . S
C1293 H1280 0.929 . S
C1293 C1285 1.433 . S
C1293 N1295 1.384 . S
N1294 C1290 1.427 . S
N1294 C1291 1.384 . S
N1295 C1287 1.427 . S
N1295 C1293 1.384 . S
H1296 C1302 0.930 . S
H1297 C1306 0.930 . S
H1298 C1311 0.929 . S
H1299 C1309 0.929 . S
H1300 C1304 0.929 . S
H1301 C1310 0.929 . S
C1302 H1296 0.930 . S
C1302 C1303 1.367 . S
C1302 C1310 1.378 . S
C1303 C1302 1.367 . S
C1303 C1311 1.433 . S
C1304 H1300 0.929 . S
C1304 C1306 1.378 . S
C1304 C1308 1.350 . S
C1305 C1308 1.463 . S
C1305 C1310 1.350 . S
C1305 N1313 1.427 . S
C1306 H1297 0.930 . S
C1306 C1304 1.378 . S
C1306 C1307 1.367 . S
C1307 C1306 1.367 . S
C1307 C1309 1.433 . S
C1308 C1304 1.350 . S
C1308 C1305 1.463 . S
C1308 N1312 1.427 . S
C1309 H1299 0.929 . S
C1309 C1307 1.433 . S
C1309 N1312 1.384 . S
C1310 H1301 0.929 . S
C1310 C1302 1.378 . S
C1310 C1305 1.350 . S
C1311 H1298 0.929 . S
C1311 C1303 1.433 . S
C1311 N1313 1.384 . S
N1312 C1308 1.427 . S
N1312 C1309 1.384 . S
N1313 C1305 1.427 . S
N1313 C1311 1.384 . S
H1314 C1320 0.930 . S
H1315 C1324 0.930 . S
H1316 C1329 0.929 . S
H1317 C1327 0.929 . S
H1318 C1322 0.929 . S
H1319 C1328 0.929 . S
C1320 H1314 0.930 . S
C1320 C1321 1.367 . S
C1320 C1328 1.378 . S
C1321 C1320 1.367 . S
C1321 C1329 1.433 . S
C1322 H1318 0.929 . S
C1322 C1324 1.378 . S
C1322 C1326 1.350 . S
C1323 C1326 1.463 . S
C1323 C1328 1.350 . S
C1323 N1331 1.427 . S
C1324 H1315 0.930 . S
C1324 C1322 1.378 . S
C1324 C1325 1.367 . S
C1325 C1324 1.367 . S
C1325 C1327 1.433 . S
C1326 C1322 1.350 . S
C1326 C1323 1.463 . S
C1326 N1330 1.427 . S
C1327 H1317 0.929 . S
C1327 C1325 1.433 . S
C1327 N1330 1.384 . S
C1328 H1319 0.929 . S
C1328 C1320 1.378 . S
C1328 C1323 1.350 . S
C1329 H1316 0.929 . S
C1329 C1321 1.433 . S
C1329 N1331 1.384 . S
N1330 C1326 1.427 . S
N1330 C1327 1.384 . S
N1331 C1323 1.427 . S
N1331 C1329 1.384 . S
H1332 C1338 0.930 . S
H1333 C1342 0.930 . S
H1334 C1347 0.929 . S
H1335 C1345 0.929 . S
H1336 C1340 0.929 . S
H1337 C1346 0.929 . S
C1338 H1332 0.930 . S
C1338 C1339 1.367 1_554 S
C1338 C1346 1.378 . S
C1339 C1338 1.367 1_556 S
C1339 C1347 1.433 . S
C1340 H1336 0.929 . S
C1340 C1342 1.378 . S
C1340 C1344 1.350 . S
C1341 C1344 1.463 . S
C1341 C1346 1.350 1_556 S
C1341 N1349 1.427 . S
C1342 H1333 0.930 . S
C1342 C1340 1.378 . S
C1342 C1343 1.367 1_556 S
C1343 C1342 1.367 1_554 S
C1343 C1345 1.433 . S
C1344 C1340 1.350 . S
C1344 C1341 1.463 . S
C1344 N1348 1.427 1_556 S
C1345 H1335 0.929 . S
C1345 C1343 1.433 . S
C1345 N1348 1.384 . S
C1346 H1337 0.929 . S
C1346 C1338 1.378 . S
C1346 C1341 1.350 1_554 S
C1347 H1334 0.929 . S
C1347 C1339 1.433 . S
C1347 N1349 1.384 . S
N1348 C1344 1.427 1_554 S
N1348 C1345 1.384 . S
N1349 C1341 1.427 . S
N1349 C1347 1.384 . S
H1350 C1356 0.930 . S
H1351 C1360 0.930 . S
H1352 C1365 0.929 . S
H1353 C1363 0.929 . S
H1354 C1358 0.929 . S
H1355 C1364 0.929 . S
C1356 H1350 0.930 . S
C1356 C1357 1.367 1_554 S
C1356 C1364 1.378 . S
C1357 C1356 1.367 1_556 S
C1357 C1365 1.433 . S
C1358 H1354 0.929 . S
C1358 C1360 1.378 . S
C1358 C1362 1.350 . S
C1359 C1362 1.463 . S
C1359 C1364 1.350 1_556 S
C1359 N1367 1.427 . S
C1360 H1351 0.930 . S
C1360 C1358 1.378 . S
C1360 C1361 1.367 1_556 S
C1361 C1360 1.367 1_554 S
C1361 C1363 1.433 . S
C1362 C1358 1.350 . S
C1362 C1359 1.463 . S
C1362 N1366 1.427 1_556 S
C1363 H1353 0.929 . S
C1363 C1361 1.433 . S
C1363 N1366 1.384 . S
C1364 H1355 0.929 . S
C1364 C1356 1.378 . S
C1364 C1359 1.350 1_554 S
C1365 H1352 0.929 . S
C1365 C1357 1.433 . S
C1365 N1367 1.384 . S
N1366 C1362 1.427 1_554 S
N1366 C1363 1.384 . S
N1367 C1359 1.427 . S
N1367 C1365 1.384 . S
H1368 C1374 0.930 . S
H1369 C1378 0.930 . S
H1370 C1383 0.929 . S
H1371 C1381 0.929 . S
H1372 C1376 0.929 . S
H1373 C1382 0.929 . S
C1374 H1368 0.930 . S
C1374 C1375 1.367 . S
C1374 C1382 1.378 . S
C1375 C1374 1.367 . S
C1375 C1383 1.433 . S
C1376 H1372 0.929 . S
C1376 C1378 1.378 . S
C1376 C1380 1.347 1_554 S
C1377 C1380 1.465 . S
C1377 C1382 1.350 . S
C1377 N1385 1.427 . S
C1378 H1369 0.930 . S
C1378 C1376 1.378 . S
C1378 C1379 1.367 . S
C1379 C1378 1.367 . S
C1379 C1381 1.433 . S
C1380 C1376 1.347 1_556 S
C1380 C1377 1.465 . S
C1380 N1384 1.428 . S
C1381 H1371 0.929 . S
C1381 C1379 1.433 . S
C1381 N1384 1.384 1_554 S
C1382 H1373 0.929 . S
C1382 C1374 1.378 . S
C1382 C1377 1.350 . S
C1383 H1370 0.929 . S
C1383 C1375 1.433 . S
C1383 N1385 1.384 . S
N1384 C1380 1.428 . S
N1384 C1381 1.384 1_556 S
N1385 C1377 1.427 . S
N1385 C1383 1.384 . S
H1386 C1392 0.930 . S
H1387 C1396 0.930 . S
H1388 C1401 0.929 . S
H1389 C1399 0.929 . S
H1390 C1394 0.929 . S
H1391 C1400 0.929 . S
C1392 H1386 0.930 . S
C1392 C1393 1.367 . S
C1392 C1400 1.378 . S
C1393 C1392 1.367 . S
C1393 C1401 1.433 . S
C1394 H1390 0.929 . S
C1394 C1396 1.378 . S
C1394 C1398 1.350 . S
C1395 C1398 1.463 . S
C1395 C1400 1.350 . S
C1395 N1403 1.427 . S
C1396 H1387 0.930 . S
C1396 C1394 1.378 . S
C1396 C1397 1.367 . S
C1397 C1396 1.367 . S
C1397 C1399 1.433 . S
C1398 C1394 1.350 . S
C1398 C1395 1.463 . S
C1398 N1402 1.427 . S
C1399 H1389 0.929 . S
C1399 C1397 1.433 . S
C1399 N1402 1.384 . S
C1400 H1391 0.929 . S
C1400 C1392 1.378 . S
C1400 C1395 1.350 . S
C1401 H1388 0.929 . S
C1401 C1393 1.433 . S
C1401 N1403 1.384 . S
N1402 C1398 1.427 . S
N1402 C1399 1.384 . S
N1403 C1395 1.427 . S
N1403 C1401 1.384 . S
H1404 C1410 0.930 . S
H1405 C1414 0.930 . S
H1406 C1419 0.929 . S
H1407 C1417 0.929 . S
H1408 C1412 0.929 . S
H1409 C1418 0.929 . S
C1410 H1404 0.930 . S
C1410 C1411 1.367 . S
C1410 C1418 1.378 . S
C1411 C1410 1.367 . S
C1411 C1419 1.433 . S
C1412 H1408 0.929 . S
C1412 C1414 1.378 . S
C1412 C1416 1.350 . S
C1413 C1416 1.463 . S
C1413 C1418 1.350 . S
C1413 N1421 1.427 . S
C1414 H1405 0.930 . S
C1414 C1412 1.378 . S
C1414 C1415 1.367 . S
C1415 C1414 1.367 . S
C1415 C1417 1.433 . S
C1416 C1412 1.350 . S
C1416 C1413 1.463 . S
C1416 N1420 1.427 . S
C1417 H1407 0.929 . S
C1417 C1415 1.433 . S
C1417 N1420 1.384 . S
C1418 H1409 0.929 . S
C1418 C1410 1.378 . S
C1418 C1413 1.350 . S
C1419 H1406 0.929 . S
C1419 C1411 1.433 . S
C1419 N1421 1.384 . S
N1420 C1416 1.427 . S
N1420 C1417 1.384 . S
N1421 C1413 1.427 . S
N1421 C1419 1.384 . S
H1422 C1428 0.930 . S
H1423 C1432 0.930 . S
H1424 C1437 0.929 . S
H1425 C1435 0.929 . S
H1426 C1430 0.929 . S
H1427 C1436 0.929 . S
C1428 H1422 0.930 . S
C1428 C1429 1.367 . S
C1428 C1436 1.378 . S
C1429 C1428 1.367 . S
C1429 C1437 1.433 . S
C1430 H1426 0.929 . S
C1430 C1432 1.378 . S
C1430 C1434 1.350 . S
C1431 C1434 1.463 . S
C1431 C1436 1.350 . S
C1431 N1439 1.427 . S
C1432 H1423 0.930 . S
C1432 C1430 1.378 . S
C1432 C1433 1.367 . S
C1433 C1432 1.367 . S
C1433 C1435 1.433 . S
C1434 C1430 1.350 . S
C1434 C1431 1.463 . S
C1434 N1438 1.427 . S
C1435 H1425 0.929 . S
C1435 C1433 1.433 . S
C1435 N1438 1.384 . S
C1436 H1427 0.929 . S
C1436 C1428 1.378 . S
C1436 C1431 1.350 . S
C1437 H1424 0.929 . S
C1437 C1429 1.433 . S
C1437 N1439 1.384 . S
N1438 C1434 1.427 . S
N1438 C1435 1.384 . S
N1439 C1431 1.427 . S
N1439 C1437 1.384 . S
H1440 C1446 0.930 . S
H1441 C1450 0.930 . S
H1442 C1455 0.929 . S
H1443 C1453 0.929 . S
H1444 C1448 0.929 . S
H1445 C1454 0.929 . S
C1446 H1440 0.930 . S
C1446 C1447 1.367 . S
C1446 C1454 1.378 . S
C1447 C1446 1.367 . S
C1447 C1455 1.433 . S
C1448 H1444 0.929 . S
C1448 C1450 1.378 . S
C1448 C1452 1.350 . S
C1449 C1452 1.463 . S
C1449 C1454 1.350 . S
C1449 N1457 1.427 . S
C1450 H1441 0.930 . S
C1450 C1448 1.378 . S
C1450 C1451 1.367 . S
C1451 C1450 1.367 . S
C1451 C1453 1.433 . S
C1452 C1448 1.350 . S
C1452 C1449 1.463 . S
C1452 N1456 1.427 . S
C1453 H1443 0.929 . S
C1453 C1451 1.433 . S
C1453 N1456 1.384 . S
C1454 H1445 0.929 . S
C1454 C1446 1.378 . S
C1454 C1449 1.350 . S
C1455 H1442 0.929 . S
C1455 C1447 1.433 . S
C1455 N1457 1.384 . S
N1456 C1452 1.427 . S
N1456 C1453 1.384 . S
N1457 C1449 1.427 . S
N1457 C1455 1.384 . S
H1458 C1464 0.930 . S
H1459 C1468 0.930 . S
H1460 C1473 0.929 . S
H1461 C1471 0.929 . S
H1462 C1466 0.929 . S
H1463 C1472 0.929 . S
C1464 H1458 0.930 . S
C1464 C1465 1.367 . S
C1464 C1472 1.378 . S
C1465 C1464 1.367 . S
C1465 C1473 1.433 . S
C1466 H1462 0.929 . S
C1466 C1468 1.378 . S
C1466 C1470 1.350 . S
C1467 C1470 1.463 . S
C1467 C1472 1.350 . S
C1467 N1475 1.427 . S
C1468 H1459 0.930 . S
C1468 C1466 1.378 . S
C1468 C1469 1.367 . S
C1469 C1468 1.367 . S
C1469 C1471 1.433 . S
C1470 C1466 1.350 . S
C1470 C1467 1.463 . S
C1470 N1474 1.427 . S
C1471 H1461 0.929 . S
C1471 C1469 1.433 . S
C1471 N1474 1.384 . S
C1472 H1463 0.929 . S
C1472 C1464 1.378 . S
C1472 C1467 1.350 . S
C1473 H1460 0.929 . S
C1473 C1465 1.433 . S
C1473 N1475 1.384 . S
N1474 C1470 1.427 . S
N1474 C1471 1.384 . S
N1475 C1467 1.427 . S
N1475 C1473 1.384 . S
H1476 C1482 0.930 . S
H1477 C1486 0.930 . S
H1478 C1491 0.929 . S
H1479 C1489 0.929 . S
H1480 C1484 0.929 . S
H1481 C1490 0.929 . S
C1482 H1476 0.930 . S
C1482 C1483 1.367 . S
C1482 C1490 1.378 . S
C1483 C1482 1.367 . S
C1483 C1491 1.433 . S
C1484 H1480 0.929 . S
C1484 C1486 1.378 . S
C1484 C1488 1.350 . S
C1485 C1488 1.463 . S
C1485 C1490 1.350 . S
C1485 N1493 1.427 . S
C1486 H1477 0.930 . S
C1486 C1484 1.378 . S
C1486 C1487 1.367 . S
C1487 C1486 1.367 . S
C1487 C1489 1.433 . S
C1488 C1484 1.350 . S
C1488 C1485 1.463 . S
C1488 N1492 1.427 . S
C1489 H1479 0.929 . S
C1489 C1487 1.433 . S
C1489 N1492 1.384 . S
C1490 H1481 0.929 . S
C1490 C1482 1.378 . S
C1490 C1485 1.350 . S
C1491 H1478 0.929 . S
C1491 C1483 1.433 . S
C1491 N1493 1.384 . S
N1492 C1488 1.427 . S
N1492 C1489 1.384 . S
N1493 C1485 1.427 . S
N1493 C1491 1.384 . S
H1494 C1500 0.930 . S
H1495 C1504 0.930 . S
H1496 C1509 0.929 . S
H1497 C1507 0.929 . S
H1498 C1502 0.929 . S
H1499 C1508 0.929 . S
C1500 H1494 0.930 . S
C1500 C1501 1.367 . S
C1500 C1508 1.378 . S
C1501 C1500 1.367 . S
C1501 C1509 1.433 . S
C1502 H1498 0.929 . S
C1502 C1504 1.378 . S
C1502 C1506 1.350 . S
C1503 C1506 1.463 . S
C1503 C1508 1.350 . S
C1503 N1511 1.427 . S
C1504 H1495 0.930 . S
C1504 C1502 1.378 . S
C1504 C1505 1.367 . S
C1505 C1504 1.367 . S
C1505 C1507 1.433 . S
C1506 C1502 1.350 . S
C1506 C1503 1.463 . S
C1506 N1510 1.427 . S
C1507 H1497 0.929 . S
C1507 C1505 1.433 . S
C1507 N1510 1.384 . S
C1508 H1499 0.929 . S
C1508 C1500 1.378 . S
C1508 C1503 1.350 . S
C1509 H1496 0.929 . S
C1509 C1501 1.433 . S
C1509 N1511 1.384 . S
N1510 C1506 1.427 . S
N1510 C1507 1.384 . S
N1511 C1503 1.427 . S
N1511 C1509 1.384 . S
H1512 C1518 0.930 . S
H1513 C1522 0.930 . S
H1514 C1527 0.929 . S
H1515 C1525 0.929 . S
H1516 C1520 0.929 . S
H1517 C1526 0.929 . S
C1518 H1512 0.930 . S
C1518 C1519 1.367 . S
C1518 C1526 1.378 . S
C1519 C1518 1.367 . S
C1519 C1527 1.433 . S
C1520 H1516 0.929 . S
C1520 C1522 1.378 . S
C1520 C1524 1.350 . S
C1521 C1524 1.463 . S
C1521 C1526 1.350 . S
C1521 N1529 1.427 . S
C1522 H1513 0.930 . S
C1522 C1520 1.378 . S
C1522 C1523 1.367 . S
C1523 C1522 1.367 . S
C1523 C1525 1.433 . S
C1524 C1520 1.350 . S
C1524 C1521 1.463 . S
C1524 N1528 1.427 . S
C1525 H1515 0.929 . S
C1525 C1523 1.433 . S
C1525 N1528 1.384 . S
C1526 H1517 0.929 . S
C1526 C1518 1.378 . S
C1526 C1521 1.350 . S
C1527 H1514 0.929 . S
C1527 C1519 1.433 . S
C1527 N1529 1.384 . S
N1528 C1524 1.427 . S
N1528 C1525 1.384 . S
N1529 C1521 1.427 . S
N1529 C1527 1.384 . S
H1530 C1536 0.930 . S
H1531 C1540 0.930 . S
H1532 C1545 0.929 . S
H1533 C1543 0.929 . S
H1534 C1538 0.929 . S
H1535 C1544 0.929 . S
C1536 H1530 0.930 . S
C1536 C1537 1.367 . S
C1536 C1544 1.378 . S
C1537 C1536 1.367 . S
C1537 C1545 1.433 . S
C1538 H1534 0.929 . S
C1538 C1540 1.378 . S
C1538 C1542 1.350 . S
C1539 C1542 1.463 . S
C1539 C1544 1.350 . S
C1539 N1547 1.427 . S
C1540 H1531 0.930 . S
C1540 C1538 1.378 . S
C1540 C1541 1.367 . S
C1541 C1540 1.367 . S
C1541 C1543 1.433 . S
C1542 C1538 1.350 . S
C1542 C1539 1.463 . S
C1542 N1546 1.427 . S
C1543 H1533 0.929 . S
C1543 C1541 1.433 . S
C1543 N1546 1.384 . S
C1544 H1535 0.929 . S
C1544 C1536 1.378 . S
C1544 C1539 1.350 . S
C1545 H1532 0.929 . S
C1545 C1537 1.433 . S
C1545 N1547 1.384 . S
N1546 C1542 1.427 . S
N1546 C1543 1.384 . S
N1547 C1539 1.427 . S
N1547 C1545 1.384 . S
H1548 C1554 0.930 . S
H1549 C1558 0.930 . S
H1550 C1563 0.929 . S
H1551 C1561 0.929 . S
H1552 C1556 0.929 . S
H1553 C1562 0.929 . S
C1554 H1548 0.930 . S
C1554 C1555 1.367 . S
C1554 C1562 1.378 . S
C1555 C1554 1.367 . S
C1555 C1563 1.433 . S
C1556 H1552 0.929 . S
C1556 C1558 1.378 . S
C1556 C1560 1.350 . S
C1557 C1560 1.463 . S
C1557 C1562 1.350 . S
C1557 N1565 1.427 . S
C1558 H1549 0.930 . S
C1558 C1556 1.378 . S
C1558 C1559 1.367 . S
C1559 C1558 1.367 . S
C1559 C1561 1.433 . S
C1560 C1556 1.350 . S
C1560 C1557 1.463 . S
C1560 N1564 1.427 . S
C1561 H1551 0.929 . S
C1561 C1559 1.433 . S
C1561 N1564 1.384 . S
C1562 H1553 0.929 . S
C1562 C1554 1.378 . S
C1562 C1557 1.350 . S
C1563 H1550 0.929 . S
C1563 C1555 1.433 . S
C1563 N1565 1.384 . S
N1564 C1560 1.427 . S
N1564 C1561 1.384 . S
N1565 C1557 1.427 . S
N1565 C1563 1.384 . S
H1566 C1572 0.930 . S
H1567 C1576 0.930 . S
H1568 C1581 0.929 . S
H1569 C1579 0.929 . S
H1570 C1574 0.929 . S
H1571 C1580 0.929 . S
C1572 H1566 0.930 . S
C1572 C1573 1.367 . S
C1572 C1580 1.378 . S
C1573 C1572 1.367 . S
C1573 C1581 1.433 . S
C1574 H1570 0.929 . S
C1574 C1576 1.378 . S
C1574 C1578 1.350 . S
C1575 C1578 1.463 . S
C1575 C1580 1.350 . S
C1575 N1583 1.427 . S
C1576 H1567 0.930 . S
C1576 C1574 1.378 . S
C1576 C1577 1.367 . S
C1577 C1576 1.367 . S
C1577 C1579 1.433 . S
C1578 C1574 1.350 . S
C1578 C1575 1.463 . S
C1578 N1582 1.427 . S
C1579 H1569 0.929 . S
C1579 C1577 1.433 . S
C1579 N1582 1.384 . S
C1580 H1571 0.929 . S
C1580 C1572 1.378 . S
C1580 C1575 1.350 . S
C1581 H1568 0.929 . S
C1581 C1573 1.433 . S
C1581 N1583 1.384 . S
N1582 C1578 1.427 . S
N1582 C1579 1.384 . S
N1583 C1575 1.427 . S
N1583 C1581 1.384 . S
H1584 C1590 0.930 . S
H1585 C1594 0.930 . S
H1586 C1599 0.929 . S
H1587 C1597 0.929 . S
H1588 C1592 0.929 . S
H1589 C1598 0.929 . S
C1590 H1584 0.930 . S
C1590 C1591 1.367 . S
C1590 C1598 1.378 . S
C1591 C1590 1.367 . S
C1591 C1599 1.433 . S
C1592 H1588 0.929 . S
C1592 C1594 1.378 . S
C1592 C1596 1.350 . S
C1593 C1596 1.463 . S
C1593 C1598 1.350 . S
C1593 N1601 1.427 . S
C1594 H1585 0.930 . S
C1594 C1592 1.378 . S
C1594 C1595 1.367 . S
C1595 C1594 1.367 . S
C1595 C1597 1.433 . S
C1596 C1592 1.350 . S
C1596 C1593 1.463 . S
C1596 N1600 1.427 . S
C1597 H1587 0.929 . S
C1597 C1595 1.433 . S
C1597 N1600 1.384 . S
C1598 H1589 0.929 . S
C1598 C1590 1.378 . S
C1598 C1593 1.350 . S
C1599 H1586 0.929 . S
C1599 C1591 1.433 . S
C1599 N1601 1.384 . S
N1600 C1596 1.427 . S
N1600 C1597 1.384 . S
N1601 C1593 1.427 . S
N1601 C1599 1.384 . S
H1602 C1608 0.930 . S
H1603 C1612 0.930 . S
H1604 C1617 0.929 . S
H1605 C1615 0.929 . S
H1606 C1610 0.929 . S
H1607 C1616 0.929 . S
C1608 H1602 0.930 . S
C1608 C1609 1.367 . S
C1608 C1616 1.378 . S
C1609 C1608 1.367 . S
C1609 C1617 1.433 . S
C1610 H1606 0.929 . S
C1610 C1612 1.378 . S
C1610 C1614 1.350 . S
C1611 C1614 1.463 . S
C1611 C1616 1.350 . S
C1611 N1619 1.427 . S
C1612 H1603 0.930 . S
C1612 C1610 1.378 . S
C1612 C1613 1.367 . S
C1613 C1612 1.367 . S
C1613 C1615 1.433 . S
C1614 C1610 1.350 . S
C1614 C1611 1.463 . S
C1614 N1618 1.427 . S
C1615 H1605 0.929 . S
C1615 C1613 1.433 . S
C1615 N1618 1.384 . S
C1616 H1607 0.929 . S
C1616 C1608 1.378 . S
C1616 C1611 1.350 . S
C1617 H1604 0.929 . S
C1617 C1609 1.433 . S
C1617 N1619 1.384 . S
N1618 C1614 1.427 . S
N1618 C1615 1.384 . S
N1619 C1611 1.427 . S
N1619 C1617 1.384 . S
H1620 C1626 0.930 . S
H1621 C1630 0.930 . S
H1622 C1635 0.929 . S
H1623 C1633 0.929 . S
H1624 C1628 0.929 . S
H1625 C1634 0.929 . S
C1626 H1620 0.930 . S
C1626 C1627 1.367 . S
C1626 C1634 1.378 . S
C1627 C1626 1.367 . S
C1627 C1635 1.433 . S
C1628 H1624 0.929 . S
C1628 C1630 1.378 . S
C1628 C1632 1.350 . S
C1629 C1632 1.463 . S
C1629 C1634 1.350 . S
C1629 N1637 1.427 . S
C1630 H1621 0.930 . S
C1630 C1628 1.378 . S
C1630 C1631 1.367 . S
C1631 C1630 1.367 . S
C1631 C1633 1.433 . S
C1632 C1628 1.350 . S
C1632 C1629 1.463 . S
C1632 N1636 1.427 . S
C1633 H1623 0.929 . S
C1633 C1631 1.433 . S
C1633 N1636 1.384 . S
C1634 H1625 0.929 . S
C1634 C1626 1.378 . S
C1634 C1629 1.350 . S
C1635 H1622 0.929 . S
C1635 C1627 1.433 . S
C1635 N1637 1.384 . S
N1636 C1632 1.427 . S
N1636 C1633 1.384 . S
N1637 C1629 1.427 . S
N1637 C1635 1.384 . S
H1638 C1644 0.930 . S
H1639 C1648 0.930 . S
H1640 C1653 0.929 . S
H1641 C1651 0.929 . S
H1642 C1646 0.929 . S
H1643 C1652 0.929 . S
C1644 H1638 0.930 . S
C1644 C1645 1.367 . S
C1644 C1652 1.378 . S
C1645 C1644 1.367 . S
C1645 C1653 1.433 . S
C1646 H1642 0.929 . S
C1646 C1648 1.378 . S
C1646 C1650 1.350 . S
C1647 C1650 1.463 . S
C1647 C1652 1.350 . S
C1647 N1655 1.427 . S
C1648 H1639 0.930 . S
C1648 C1646 1.378 . S
C1648 C1649 1.367 . S
C1649 C1648 1.367 . S
C1649 C1651 1.433 . S
C1650 C1646 1.350 . S
C1650 C1647 1.463 . S
C1650 N1654 1.427 . S
C1651 H1641 0.929 . S
C1651 C1649 1.433 . S
C1651 N1654 1.384 . S
C1652 H1643 0.929 . S
C1652 C1644 1.378 . S
C1652 C1647 1.350 . S
C1653 H1640 0.929 . S
C1653 C1645 1.433 . S
C1653 N1655 1.384 . S
N1654 C1650 1.427 . S
N1654 C1651 1.384 . S
N1655 C1647 1.427 . S
N1655 C1653 1.384 . S
H1656 C1662 0.930 . S
H1657 C1666 0.930 . S
H1658 C1671 0.929 . S
H1659 C1669 0.929 . S
H1660 C1664 0.929 . S
H1661 C1670 0.929 . S
C1662 H1656 0.930 . S
C1662 C1663 1.367 . S
C1662 C1670 1.378 . S
C1663 C1662 1.367 . S
C1663 C1671 1.433 . S
C1664 H1660 0.929 . S
C1664 C1666 1.378 . S
C1664 C1668 1.350 . S
C1665 C1668 1.463 . S
C1665 C1670 1.350 . S
C1665 N1673 1.427 . S
C1666 H1657 0.930 . S
C1666 C1664 1.378 . S
C1666 C1667 1.367 . S
C1667 C1666 1.367 . S
C1667 C1669 1.433 . S
C1668 C1664 1.350 . S
C1668 C1665 1.463 . S
C1668 N1672 1.427 . S
C1669 H1659 0.929 . S
C1669 C1667 1.433 . S
C1669 N1672 1.384 . S
C1670 H1661 0.929 . S
C1670 C1662 1.378 . S
C1670 C1665 1.350 . S
C1671 H1658 0.929 . S
C1671 C1663 1.433 . S
C1671 N1673 1.384 . S
N1672 C1668 1.427 . S
N1672 C1669 1.384 . S
N1673 C1665 1.427 . S
N1673 C1671 1.384 . S
H1674 C1680 0.930 . S
H1675 C1684 0.930 . S
H1676 C1689 0.929 . S
H1677 C1687 0.929 . S
H1678 C1682 0.929 . S
H1679 C1688 0.929 . S
C1680 H1674 0.930 . S
C1680 C1681 1.367 . S
C1680 C1688 1.378 . S
C1681 C1680 1.367 . S
C1681 C1689 1.433 . S
C1682 H1678 0.929 . S
C1682 C1684 1.378 . S
C1682 C1686 1.350 . S
C1683 C1686 1.463 . S
C1683 C1688 1.350 . S
C1683 N1691 1.427 . S
C1684 H1675 0.930 . S
C1684 C1682 1.378 . S
C1684 C1685 1.367 . S
C1685 C1684 1.367 . S
C1685 C1687 1.433 . S
C1686 C1682 1.350 . S
C1686 C1683 1.463 . S
C1686 N1690 1.427 . S
C1687 H1677 0.929 . S
C1687 C1685 1.433 . S
C1687 N1690 1.384 . S
C1688 H1679 0.929 . S
C1688 C1680 1.378 . S
C1688 C1683 1.350 . S
C1689 H1676 0.929 . S
C1689 C1681 1.433 . S
C1689 N1691 1.384 . S
N1690 C1686 1.427 . S
N1690 C1687 1.384 . S
N1691 C1683 1.427 . S
N1691 C1689 1.384 . S
H1692 C1698 0.930 . S
H1693 C1702 0.930 . S
H1694 C1707 0.929 . S
H1695 C1705 0.929 . S
H1696 C1700 0.929 . S
H1697 C1706 0.929 . S
C1698 H1692 0.930 . S
C1698 C1699 1.367 . S
C1698 C1706 1.378 . S
C1699 C1698 1.367 . S
C1699 C1707 1.433 . S
C1700 H1696 0.929 . S
C1700 C1702 1.378 . S
C1700 C1704 1.350 . S
C1701 C1704 1.463 . S
C1701 C1706 1.350 . S
C1701 N1709 1.427 . S
C1702 H1693 0.930 . S
C1702 C1700 1.378 . S
C1702 C1703 1.367 . S
C1703 C1702 1.367 . S
C1703 C1705 1.433 . S
C1704 C1700 1.350 . S
C1704 C1701 1.463 . S
C1704 N1708 1.427 . S
C1705 H1695 0.929 . S
C1705 C1703 1.433 . S
C1705 N1708 1.384 . S
C1706 H1697 0.929 . S
C1706 C1698 1.378 . S
C1706 C1701 1.350 . S
C1707 H1694 0.929 . S
C1707 C1699 1.433 . S
C1707 N1709 1.384 . S
N1708 C1704 1.427 . S
N1708 C1705 1.384 . S
N1709 C1701 1.427 . S
N1709 C1707 1.384 . S
H1710 C1716 0.930 . S
H1711 C1720 0.930 . S
H1712 C1725 0.929 . S
H1713 C1723 0.929 . S
H1714 C1718 0.929 . S
H1715 C1724 0.929 . S
C1716 H1710 0.930 . S
C1716 C1717 1.367 . S
C1716 C1724 1.378 . S
C1717 C1716 1.367 . S
C1717 C1725 1.433 . S
C1718 H1714 0.929 . S
C1718 C1720 1.378 . S
C1718 C1722 1.350 . S
C1719 C1722 1.463 . S
C1719 C1724 1.350 . S
C1719 N1727 1.427 . S
C1720 H1711 0.930 . S
C1720 C1718 1.378 . S
C1720 C1721 1.367 . S
C1721 C1720 1.367 . S
C1721 C1723 1.433 . S
C1722 C1718 1.350 . S
C1722 C1719 1.463 . S
C1722 N1726 1.427 . S
C1723 H1713 0.929 . S
C1723 C1721 1.433 . S
C1723 N1726 1.384 . S
C1724 H1715 0.929 . S
C1724 C1716 1.378 . S
C1724 C1719 1.350 . S
C1725 H1712 0.929 . S
C1725 C1717 1.433 . S
C1725 N1727 1.384 . S
N1726 C1722 1.427 . S
N1726 C1723 1.384 . S
N1727 C1719 1.427 . S
N1727 C1725 1.384 . S
H1728 C1734 0.930 . S
H1729 C1738 0.930 . S
H1730 C1743 0.929 . S
H1731 C1741 0.929 . S
H1732 C1736 0.929 . S
H1733 C1742 0.929 . S
C1734 H1728 0.930 . S
C1734 C1735 1.367 . S
C1734 C1742 1.378 . S
C1735 C1734 1.367 . S
C1735 C1743 1.433 . S
C1736 H1732 0.929 . S
C1736 C1738 1.378 . S
C1736 C1740 1.350 . S
C1737 C1740 1.463 . S
C1737 C1742 1.350 . S
C1737 N1745 1.427 . S
C1738 H1729 0.930 . S
C1738 C1736 1.378 . S
C1738 C1739 1.367 . S
C1739 C1738 1.367 . S
C1739 C1741 1.433 . S
C1740 C1736 1.350 . S
C1740 C1737 1.463 . S
C1740 N1744 1.427 . S
C1741 H1731 0.929 . S
C1741 C1739 1.433 . S
C1741 N1744 1.384 . S
C1742 H1733 0.929 . S
C1742 C1734 1.378 . S
C1742 C1737 1.350 . S
C1743 H1730 0.929 . S
C1743 C1735 1.433 . S
C1743 N1745 1.384 . S
N1744 C1740 1.427 . S
N1744 C1741 1.384 . S
N1745 C1737 1.427 . S
N1745 C1743 1.384 . S
H1746 C1752 0.930 . S
H1747 C1756 0.930 . S
H1748 C1761 0.929 . S
H1749 C1759 0.929 . S
H1750 C1754 0.929 . S
H1751 C1760 0.929 . S
C1752 H1746 0.930 . S
C1752 C1753 1.367 . S
C1752 C1760 1.378 . S
C1753 C1752 1.367 . S
C1753 C1761 1.433 . S
C1754 H1750 0.929 . S
C1754 C1756 1.378 . S
C1754 C1758 1.350 . S
C1755 C1758 1.463 . S
C1755 C1760 1.350 . S
C1755 N1763 1.427 . S
C1756 H1747 0.930 . S
C1756 C1754 1.378 . S
C1756 C1757 1.367 . S
C1757 C1756 1.367 . S
C1757 C1759 1.433 . S
C1758 C1754 1.350 . S
C1758 C1755 1.463 . S
C1758 N1762 1.427 . S
C1759 H1749 0.929 . S
C1759 C1757 1.433 . S
C1759 N1762 1.384 . S
C1760 H1751 0.929 . S
C1760 C1752 1.378 . S
C1760 C1755 1.350 . S
C1761 H1748 0.929 . S
C1761 C1753 1.433 . S
C1761 N1763 1.384 . S
N1762 C1758 1.427 . S
N1762 C1759 1.384 . S
N1763 C1755 1.427 . S
N1763 C1761 1.384 . S
H1764 C1770 0.930 . S
H1765 C1774 0.930 . S
H1766 C1779 0.929 . S
H1767 C1777 0.929 . S
H1768 C1772 0.929 . S
H1769 C1778 0.929 . S
C1770 H1764 0.930 . S
C1770 C1771 1.367 . S
C1770 C1778 1.378 . S
C1771 C1770 1.367 . S
C1771 C1779 1.433 . S
C1772 H1768 0.929 . S
C1772 C1774 1.378 . S
C1772 C1776 1.350 . S
C1773 C1776 1.463 . S
C1773 C1778 1.350 . S
C1773 N1781 1.427 . S
C1774 H1765 0.930 . S
C1774 C1772 1.378 . S
C1774 C1775 1.367 . S
C1775 C1774 1.367 . S
C1775 C1777 1.433 . S
C1776 C1772 1.350 . S
C1776 C1773 1.463 . S
C1776 N1780 1.427 . S
C1777 H1767 0.929 . S
C1777 C1775 1.433 . S
C1777 N1780 1.384 . S
C1778 H1769 0.929 . S
C1778 C1770 1.378 . S
C1778 C1773 1.350 . S
C1779 H1766 0.929 . S
C1779 C1771 1.433 . S
C1779 N1781 1.384 . S
N1780 C1776 1.427 . S
N1780 C1777 1.384 . S
N1781 C1773 1.427 . S
N1781 C1779 1.384 . S
H1782 C1788 0.930 . S
H1783 C1792 0.930 . S
H1784 C1797 0.929 . S
H1785 C1795 0.929 . S
H1786 C1790 0.929 . S
H1787 C1796 0.929 . S
C1788 H1782 0.930 . S
C1788 C1789 1.367 . S
C1788 C1796 1.378 . S
C1789 C1788 1.367 . S
C1789 C1797 1.433 . S
C1790 H1786 0.929 . S
C1790 C1792 1.378 . S
C1790 C1794 1.350 . S
C1791 C1794 1.463 . S
C1791 C1796 1.350 . S
C1791 N1799 1.427 . S
C1792 H1783 0.930 . S
C1792 C1790 1.378 . S
C1792 C1793 1.367 . S
C1793 C1792 1.367 . S
C1793 C1795 1.433 . S
C1794 C1790 1.350 . S
C1794 C1791 1.463 . S
C1794 N1798 1.427 . S
C1795 H1785 0.929 . S
C1795 C1793 1.433 . S
C1795 N1798 1.384 . S
C1796 H1787 0.929 . S
C1796 C1788 1.378 . S
C1796 C1791 1.350 . S
C1797 H1784 0.929 . S
C1797 C1789 1.433 . S
C1797 N1799 1.384 . S
N1798 C1794 1.427 . S
N1798 C1795 1.384 . S
N1799 C1791 1.427 . S
N1799 C1797 1.384 . S
H1800 C1806 0.930 . S
H1801 C1810 0.930 . S
H1802 C1815 0.929 . S
H1803 C1813 0.929 . S
H1804 C1808 0.929 . S
H1805 C1814 0.929 . S
C1806 H1800 0.930 . S
C1806 C1807 1.367 . S
C1806 C1814 1.378 . S
C1807 C1806 1.367 . S
C1807 C1815 1.433 . S
C1808 H1804 0.929 . S
C1808 C1810 1.378 . S
C1808 C1812 1.350 . S
C1809 C1812 1.463 . S
C1809 C1814 1.350 . S
C1809 N1817 1.427 . S
C1810 H1801 0.930 . S
C1810 C1808 1.378 . S
C1810 C1811 1.367 . S
C1811 C1810 1.367 . S
C1811 C1813 1.433 . S
C1812 C1808 1.350 . S
C1812 C1809 1.463 . S
C1812 N1816 1.427 . S
C1813 H1803 0.929 . S
C1813 C1811 1.433 . S
C1813 N1816 1.384 . S
C1814 H1805 0.929 . S
C1814 C1806 1.378 . S
C1814 C1809 1.350 . S
C1815 H1802 0.929 . S
C1815 C1807 1.433 . S
C1815 N1817 1.384 . S
N1816 C1812 1.427 . S
N1816 C1813 1.384 . S
N1817 C1809 1.427 . S
N1817 C1815 1.384 . S
H1818 C1824 0.930 . S
H1819 C1828 0.930 . S
H1820 C1833 0.929 . S
H1821 C1831 0.929 . S
H1822 C1826 0.929 . S
H1823 C1832 0.929 . S
C1824 H1818 0.930 . S
C1824 C1825 1.367 . S
C1824 C1832 1.378 . S
C1825 C1824 1.367 . S
C1825 C1833 1.433 . S
C1826 H1822 0.929 . S
C1826 C1828 1.378 . S
C1826 C1830 1.350 . S
C1827 C1830 1.463 . S
C1827 C1832 1.350 . S
C1827 N1835 1.427 . S
C1828 H1819 0.930 . S
C1828 C1826 1.378 . S
C1828 C1829 1.367 . S
C1829 C1828 1.367 . S
C1829 C1831 1.433 . S
C1830 C1826 1.350 . S
C1830 C1827 1.463 . S
C1830 N1834 1.427 . S
C1831 H1821 0.929 . S
C1831 C1829 1.433 . S
C1831 N1834 1.384 . S
C1832 H1823 0.929 . S
C1832 C1824 1.378 . S
C1832 C1827 1.350 . S
C1833 H1820 0.929 . S
C1833 C1825 1.433 . S
C1833 N1835 1.384 . S
N1834 C1830 1.427 . S
N1834 C1831 1.384 . S
N1835 C1827 1.427 . S
N1835 C1833 1.384 . S
H1836 C1842 0.930 . S
H1837 C1846 0.930 . S
H1838 C1851 0.929 . S
H1839 C1849 0.929 . S
H1840 C1844 0.929 . S
H1841 C1850 0.929 . S
C1842 H1836 0.930 . S
C1842 C1843 1.367 . S
C1842 C1850 1.378 . S
C1843 C1842 1.367 . S
C1843 C1851 1.433 . S
C1844 H1840 0.929 . S
C1844 C1846 1.378 . S
C1844 C1848 1.350 . S
C1845 C1848 1.463 . S
C1845 C1850 1.350 . S
C1845 N1853 1.427 . S
C1846 H1837 0.930 . S
C1846 C1844 1.378 . S
C1846 C1847 1.367 . S
C1847 C1846 1.367 . S
C1847 C1849 1.433 . S
C1848 C1844 1.350 . S
C1848 C1845 1.463 . S
C1848 N1852 1.427 . S
C1849 H1839 0.929 . S
C1849 C1847 1.433 . S
C1849 N1852 1.384 . S
C1850 H1841 0.929 . S
C1850 C1842 1.378 . S
C1850 C1845 1.350 . S
C1851 H1838 0.929 . S
C1851 C1843 1.433 . S
C1851 N1853 1.384 . S
N1852 C1848 1.427 . S
N1852 C1849 1.384 . S
N1853 C1845 1.427 . S
N1853 C1851 1.384 . S
H1854 C1860 0.930 . S
H1855 C1864 0.930 . S
H1856 C1869 0.929 . S
H1857 C1867 0.929 . S
H1858 C1862 0.929 . S
H1859 C1868 0.929 . S
C1860 H1854 0.930 . S
C1860 C1861 1.367 . S
C1860 C1868 1.378 . S
C1861 C1860 1.367 . S
C1861 C1869 1.433 . S
C1862 H1858 0.929 . S
C1862 C1864 1.378 . S
C1862 C1866 1.350 . S
C1863 C1866 1.463 . S
C1863 C1868 1.350 . S
C1863 N1871 1.427 . S
C1864 H1855 0.930 . S
C1864 C1862 1.378 . S
C1864 C1865 1.367 . S
C1865 C1864 1.367 . S
C1865 C1867 1.433 . S
C1866 C1862 1.350 . S
C1866 C1863 1.463 . S
C1866 N1870 1.427 . S
C1867 H1857 0.929 . S
C1867 C1865 1.433 . S
C1867 N1870 1.384 . S
C1868 H1859 0.929 . S
C1868 C1860 1.378 . S
C1868 C1863 1.350 . S
C1869 H1856 0.929 . S
C1869 C1861 1.433 . S
C1869 N1871 1.384 . S
N1870 C1866 1.427 . S
N1870 C1867 1.384 . S
N1871 C1863 1.427 . S
N1871 C1869 1.384 . S
H1872 C1878 0.930 . S
H1873 C1882 0.930 . S
H1874 C1887 0.929 . S
H1875 C1885 0.929 . S
H1876 C1880 0.929 . S
H1877 C1886 0.929 . S
C1878 H1872 0.930 . S
C1878 C1879 1.367 . S
C1878 C1886 1.378 . S
C1879 C1878 1.367 . S
C1879 C1887 1.433 . S
C1880 H1876 0.929 . S
C1880 C1882 1.378 . S
C1880 C1884 1.350 . S
C1881 C1884 1.463 . S
C1881 C1886 1.350 . S
C1881 N1889 1.427 . S
C1882 H1873 0.930 . S
C1882 C1880 1.378 . S
C1882 C1883 1.367 . S
C1883 C1882 1.367 . S
C1883 C1885 1.433 . S
C1884 C1880 1.350 . S
C1884 C1881 1.463 . S
C1884 N1888 1.427 . S
C1885 H1875 0.929 . S
C1885 C1883 1.433 . S
C1885 N1888 1.384 . S
C1886 H1877 0.929 . S
C1886 C1878 1.378 . S
C1886 C1881 1.350 . S
C1887 H1874 0.929 . S
C1887 C1879 1.433 . S
C1887 N1889 1.384 . S
N1888 C1884 1.427 . S
N1888 C1885 1.384 . S
N1889 C1881 1.427 . S
N1889 C1887 1.384 . S
H1890 C1896 0.930 . S
H1891 C1900 0.930 . S
H1892 C1905 0.929 . S
H1893 C1903 0.929 . S
H1894 C1898 0.929 . S
H1895 C1904 0.929 . S
C1896 H1890 0.930 . S
C1896 C1897 1.367 . S
C1896 C1904 1.378 1_545 S
C1897 C1896 1.367 . S
C1897 C1905 1.433 . S
C1898 H1894 0.929 . S
C1898 C1900 1.378 1_545 S
C1898 C1902 1.350 1_545 S
C1899 C1902 1.463 1_545 S
C1899 C1904 1.350 1_545 S
C1899 N1907 1.427 . S
C1900 H1891 0.930 . S
C1900 C1898 1.378 1_565 S
C1900 C1901 1.367 . S
C1901 C1900 1.367 . S
C1901 C1903 1.433 . S
C1902 C1898 1.350 1_565 S
C1902 C1899 1.463 1_565 S
C1902 N1906 1.427 . S
C1903 H1893 0.929 . S
C1903 C1901 1.433 . S
C1903 N1906 1.384 . S
C1904 H1895 0.929 . S
C1904 C1896 1.378 1_565 S
C1904 C1899 1.350 1_565 S
C1905 H1892 0.929 . S
C1905 C1897 1.433 . S
C1905 N1907 1.384 . S
N1906 C1902 1.427 . S
N1906 C1903 1.384 . S
N1907 C1899 1.427 . S
N1907 C1905 1.384 . S
H1908 C1914 0.930 . S
H1909 C1918 0.930 . S
H1910 C1923 0.929 . S
H1911 C1921 0.929 . S
H1912 C1916 0.929 . S
H1913 C1922 0.929 . S
C1914 H1908 0.930 . S
C1914 C1915 1.367 . S
C1914 C1922 1.378 . S
C1915 C1914 1.367 . S
C1915 C1923 1.433 . S
C1916 H1912 0.929 . S
C1916 C1918 1.378 . S
C1916 C1920 1.350 . S
C1917 C1920 1.463 1_655 S
C1917 C1922 1.350 . S
C1917 N1925 1.427 . S
C1918 H1909 0.930 . S
C1918 C1916 1.378 . S
C1918 C1919 1.367 . S
C1919 C1918 1.367 . S
C1919 C1921 1.433 . S
C1920 C1916 1.350 . S
C1920 C1917 1.463 1_455 S
C1920 N1924 1.427 . S
C1921 H1911 0.929 . S
C1921 C1919 1.433 . S
C1921 N1924 1.384 . S
C1922 H1913 0.929 . S
C1922 C1914 1.378 . S
C1922 C1917 1.350 . S
C1923 H1910 0.929 . S
C1923 C1915 1.433 . S
C1923 N1925 1.384 . S
N1924 C1920 1.427 . S
N1924 C1921 1.384 . S
N1925 C1917 1.427 . S
N1925 C1923 1.384 . S
H1926 C1932 0.930 . S
H1927 C1936 0.930 . S
H1928 C1941 0.929 . S
H1929 C1939 0.929 . S
H1930 C1934 0.929 . S
H1931 C1940 0.929 . S
C1932 H1926 0.930 . S
C1932 C1933 1.367 . S
C1932 C1940 1.378 . S
C1933 C1932 1.367 . S
C1933 C1941 1.433 . S
C1934 H1930 0.929 . S
C1934 C1936 1.378 . S
C1934 C1938 1.350 . S
C1935 C1938 1.463 . S
C1935 C1940 1.350 . S
C1935 N1943 1.427 . S
C1936 H1927 0.930 . S
C1936 C1934 1.378 . S
C1936 C1937 1.367 . S
C1937 C1936 1.367 . S
C1937 C1939 1.433 . S
C1938 C1934 1.350 . S
C1938 C1935 1.463 . S
C1938 N1942 1.427 . S
C1939 H1929 0.929 . S
C1939 C1937 1.433 . S
C1939 N1942 1.384 . S
C1940 H1931 0.929 . S
C1940 C1932 1.378 . S
C1940 C1935 1.350 . S
C1941 H1928 0.929 . S
C1941 C1933 1.433 . S
C1941 N1943 1.384 . S
N1942 C1938 1.427 . S
N1942 C1939 1.384 . S
N1943 C1935 1.427 . S
N1943 C1941 1.384 . S
H1944 C1950 0.930 . S
H1945 C1954 0.930 . S
H1946 C1959 0.929 . S
H1947 C1957 0.929 . S
H1948 C1952 0.929 . S
H1949 C1958 0.929 . S
C1950 H1944 0.930 . S
C1950 C1951 1.367 1_565 S
C1950 C1958 1.378 . S
C1951 C1950 1.367 1_545 S
C1951 C1959 1.433 . S
C1952 H1948 0.929 . S
C1952 C1954 1.378 . S
C1952 C1956 1.350 1_545 S
C1953 C1956 1.463 1_545 S
C1953 C1958 1.350 1_545 S
C1953 N1961 1.427 . S
C1954 H1945 0.930 . S
C1954 C1952 1.378 . S
C1954 C1955 1.367 1_545 S
C1955 C1954 1.367 1_565 S
C1955 C1957 1.433 . S
C1956 C1952 1.350 1_565 S
C1956 C1953 1.463 1_565 S
C1956 N1960 1.427 . S
C1957 H1947 0.929 . S
C1957 C1955 1.433 . S
C1957 N1960 1.384 . S
C1958 H1949 0.929 . S
C1958 C1950 1.378 . S
C1958 C1953 1.350 1_565 S
C1959 H1946 0.929 . S
C1959 C1951 1.433 . S
C1959 N1961 1.384 . S
N1960 C1956 1.427 . S
N1960 C1957 1.384 . S
N1961 C1953 1.427 . S
N1961 C1959 1.384 . S
H1962 C1968 0.930 . S
H1963 C1972 0.930 . S
H1964 C1977 0.929 . S
H1965 C1975 0.929 . S
H1966 C1970 0.917 1_655 S
H1967 C1976 0.916 1_455 S
C1968 H1962 0.930 . S
C1968 C1969 1.367 . S
C1968 C1976 1.378 . S
C1969 C1968 1.367 . S
C1969 C1977 1.433 . S
C1970 H1966 0.917 1_455 S
C1970 C1972 1.378 . S
C1970 C1974 1.350 . S
C1971 C1974 1.463 1_655 S
C1971 C1976 1.350 . S
C1971 N1979 1.427 . S
C1972 H1963 0.930 . S
C1972 C1970 1.378 . S
C1972 C1973 1.367 . S
C1973 C1972 1.367 . S
C1973 C1975 1.433 . S
C1974 C1970 1.350 . S
C1974 C1971 1.463 1_455 S
C1974 N1978 1.427 . S
C1975 H1965 0.929 . S
C1975 C1973 1.433 . S
C1975 N1978 1.384 . S
C1976 H1967 0.916 1_655 S
C1976 C1968 1.378 . S
C1976 C1971 1.350 . S
C1977 H1964 0.929 . S
C1977 C1969 1.433 . S
C1977 N1979 1.384 . S
N1978 C1974 1.427 . S
N1978 C1975 1.384 . S
N1979 C1971 1.427 . S
N1979 C1977 1.384 . S
H1980 C1986 0.930 . S
H1981 C1990 0.930 . S
H1982 C1995 0.929 . S
H1983 C1993 0.929 . S
H1984 C1988 0.929 . S
H1985 C1994 0.929 . S
C1986 H1980 0.930 . S
C1986 C1987 1.367 . S
C1986 C1994 1.378 . S
C1987 C1986 1.367 . S
C1987 C1995 1.433 . S
C1988 H1984 0.929 . S
C1988 C1990 1.378 . S
C1988 C1992 1.350 . S
C1989 C1992 1.463 . S
C1989 C1994 1.350 . S
C1989 N1997 1.427 . S
C1990 H1981 0.930 . S
C1990 C1988 1.378 . S
C1990 C1991 1.367 . S
C1991 C1990 1.367 . S
C1991 C1993 1.433 . S
C1992 C1988 1.350 . S
C1992 C1989 1.463 . S
C1992 N1996 1.427 . S
C1993 H1983 0.929 . S
C1993 C1991 1.433 . S
C1993 N1996 1.384 . S
C1994 H1985 0.929 . S
C1994 C1986 1.378 . S
C1994 C1989 1.350 . S
C1995 H1982 0.929 . S
C1995 C1987 1.433 . S
C1995 N1997 1.384 . S
N1996 C1992 1.427 . S
N1996 C1993 1.384 . S
N1997 C1989 1.427 . S
N1997 C1995 1.384 . S
H1998 C2004 0.930 . S
H1999 C2008 0.930 . S
H2000 C2013 0.929 . S
H2001 C2011 0.929 . S
H2002 C2006 0.929 . S
H2003 C2012 0.929 . S
C2004 H1998 0.930 . S
C2004 C2005 1.367 . S
C2004 C2012 1.378 . S
C2005 C2004 1.367 . S
C2005 C2013 1.433 . S
C2006 H2002 0.929 . S
C2006 C2008 1.378 . S
C2006 C2010 1.350 . S
C2007 C2010 1.463 . S
C2007 C2012 1.350 . S
C2007 N2015 1.427 . S
C2008 H1999 0.930 . S
C2008 C2006 1.378 . S
C2008 C2009 1.367 . S
C2009 C2008 1.367 . S
C2009 C2011 1.433 . S
C2010 C2006 1.350 . S
C2010 C2007 1.463 . S
C2010 N2014 1.427 . S
C2011 H2001 0.929 . S
C2011 C2009 1.433 . S
C2011 N2014 1.384 . S
C2012 H2003 0.929 . S
C2012 C2004 1.378 . S
C2012 C2007 1.350 . S
C2013 H2000 0.929 . S
C2013 C2005 1.433 . S
C2013 N2015 1.384 . S
N2014 C2010 1.427 . S
N2014 C2011 1.384 . S
N2015 C2007 1.427 . S
N2015 C2013 1.384 . S
H2016 C2022 0.930 . S
H2017 C2026 0.930 . S
H2018 C2031 0.929 . S
H2019 C2029 0.929 . S
H2020 C2024 0.929 . S
H2021 C2030 0.929 . S
C2022 H2016 0.930 . S
C2022 C2023 1.367 . S
C2022 C2030 1.378 . S
C2023 C2022 1.367 . S
C2023 C2031 1.433 . S
C2024 H2020 0.929 . S
C2024 C2026 1.378 . S
C2024 C2028 1.350 . S
C2025 C2028 1.463 . S
C2025 C2030 1.350 . S
C2025 N2033 1.427 . S
C2026 H2017 0.930 . S
C2026 C2024 1.378 . S
C2026 C2027 1.367 . S
C2027 C2026 1.367 . S
C2027 C2029 1.433 . S
C2028 C2024 1.350 . S
C2028 C2025 1.463 . S
C2028 N2032 1.427 . S
C2029 H2019 0.929 . S
C2029 C2027 1.433 . S
C2029 N2032 1.384 . S
C2030 H2021 0.929 . S
C2030 C2022 1.378 . S
C2030 C2025 1.350 . S
C2031 H2018 0.929 . S
C2031 C2023 1.433 . S
C2031 N2033 1.384 . S
N2032 C2028 1.427 . S
N2032 C2029 1.384 . S
N2033 C2025 1.427 . S
N2033 C2031 1.384 . S
H2034 C2040 0.930 . S
H2035 C2044 0.930 1_556 S
H2036 C2049 0.929 . S
H2037 C2047 0.929 . S
H2038 C2042 0.929 . S
H2039 C2048 0.929 . S
C2040 H2034 0.930 . S
C2040 C2041 1.367 . S
C2040 C2048 1.378 . S
C2041 C2040 1.367 . S
C2041 C2049 1.433 . S
C2042 H2038 0.929 . S
C2042 C2044 1.378 . S
C2042 C2046 1.350 . S
C2043 C2046 1.463 . S
C2043 C2048 1.350 . S
C2043 N2051 1.427 . S
C2044 H2035 0.930 1_554 S
C2044 C2042 1.378 . S
C2044 C2045 1.367 1_554 S
C2045 C2044 1.367 1_556 S
C2045 C2047 1.433 1_556 S
C2046 C2042 1.350 . S
C2046 C2043 1.463 . S
C2046 N2050 1.427 . S
C2047 H2037 0.929 . S
C2047 C2045 1.433 1_554 S
C2047 N2050 1.384 . S
C2048 H2039 0.929 . S
C2048 C2040 1.378 . S
C2048 C2043 1.350 . S
C2049 H2036 0.929 . S
C2049 C2041 1.433 . S
C2049 N2051 1.384 . S
N2050 C2046 1.427 . S
N2050 C2047 1.384 . S
N2051 C2043 1.427 . S
N2051 C2049 1.384 . S
H2052 C2058 0.930 1_556 S
H2053 C2062 0.930 . S
H2054 C2067 0.929 . S
H2055 C2065 0.929 . S
H2056 C2060 0.929 . S
H2057 C2066 0.929 . S
C2058 H2052 0.930 1_554 S
C2058 C2059 1.367 1_554 S
C2058 C2066 1.378 . S
C2059 C2058 1.367 1_556 S
C2059 C2067 1.433 1_556 S
C2060 H2056 0.929 . S
C2060 C2062 1.378 . S
C2060 C2064 1.350 . S
C2061 C2064 1.463 . S
C2061 C2066 1.350 . S
C2061 N2069 1.427 . S
C2062 H2053 0.930 . S
C2062 C2060 1.378 . S
C2062 C2063 1.367 . S
C2063 C2062 1.367 . S
C2063 C2065 1.433 . S
C2064 C2060 1.350 . S
C2064 C2061 1.463 . S
C2064 N2068 1.427 . S
C2065 H2055 0.929 . S
C2065 C2063 1.433 . S
C2065 N2068 1.384 . S
C2066 H2057 0.929 . S
C2066 C2058 1.378 . S
C2066 C2061 1.350 . S
C2067 H2054 0.929 . S
C2067 C2059 1.433 1_554 S
C2067 N2069 1.384 . S
N2068 C2064 1.427 . S
N2068 C2065 1.384 . S
N2069 C2061 1.427 . S
N2069 C2067 1.384 . S
H2070 C2076 0.930 . S
H2071 C2080 0.930 . S
H2072 C2085 0.929 1_556 S
H2073 C2083 0.929 . S
H2074 C2078 0.929 . S
H2075 C2084 0.929 . S
C2076 H2070 0.930 . S
C2076 C2077 1.367 1_554 S
C2076 C2084 1.378 . S
C2077 C2076 1.367 1_556 S
C2077 C2085 1.433 1_556 S
C2078 H2074 0.929 . S
C2078 C2080 1.378 . S
C2078 C2082 1.350 . S
C2079 C2082 1.463 . S
C2079 C2084 1.350 . S
C2079 N2087 1.427 . S
C2080 H2071 0.930 . S
C2080 C2078 1.378 . S
C2080 C2081 1.367 . S
C2081 C2080 1.367 . S
C2081 C2083 1.433 . S
C2082 C2078 1.350 . S
C2082 C2079 1.463 . S
C2082 N2086 1.427 . S
C2083 H2073 0.929 . S
C2083 C2081 1.433 . S
C2083 N2086 1.384 . S
C2084 H2075 0.929 . S
C2084 C2076 1.378 . S
C2084 C2079 1.350 . S
C2085 H2072 0.929 1_554 S
C2085 C2077 1.433 1_554 S
C2085 N2087 1.384 . S
N2086 C2082 1.427 . S
N2086 C2083 1.384 . S
N2087 C2079 1.427 . S
N2087 C2085 1.384 . S
H2088 C2094 0.934 . S
H2089 C2098 0.930 . S
H2090 C2103 0.925 1_554 S
H2091 C2101 0.929 . S
H2092 C2096 0.929 . S
H2093 C2102 0.929 . S
C2094 H2088 0.934 . S
C2094 C2095 1.367 1_556 S
C2094 C2102 1.378 . S
C2095 C2094 1.367 1_554 S
C2095 C2103 1.433 1_554 S
C2096 H2092 0.929 . S
C2096 C2098 1.378 . S
C2096 C2100 1.350 . S
C2097 C2100 1.463 . S
C2097 C2102 1.350 . S
C2097 N2105 1.427 . S
C2098 H2089 0.930 . S
C2098 C2096 1.378 . S
C2098 C2099 1.367 . S
C2099 C2098 1.367 . S
C2099 C2101 1.433 . S
C2100 C2096 1.350 . S
C2100 C2097 1.463 . S
C2100 N2104 1.427 . S
C2101 H2091 0.929 . S
C2101 C2099 1.433 . S
C2101 N2104 1.384 . S
C2102 H2093 0.929 . S
C2102 C2094 1.378 . S
C2102 C2097 1.350 . S
C2103 H2090 0.925 1_556 S
C2103 C2095 1.433 1_556 S
C2103 N2105 1.384 . S
N2104 C2100 1.427 . S
N2104 C2101 1.384 . S
N2105 C2097 1.427 . S
N2105 C2103 1.384 . S
H2106 C2112 0.930 . S
H2107 C2116 0.930 . S
H2108 C2121 0.929 1_554 S
H2109 C2119 0.929 . S
H2110 C2114 0.929 . S
H2111 C2120 0.929 . S
C2112 H2106 0.930 . S
C2112 C2113 1.367 1_556 S
C2112 C2120 1.378 . S
C2113 C2112 1.367 1_554 S
C2113 C2121 1.433 1_554 S
C2114 H2110 0.929 . S
C2114 C2116 1.378 . S
C2114 C2118 1.350 . S
C2115 C2118 1.463 . S
C2115 C2120 1.350 . S
C2115 N2123 1.427 . S
C2116 H2107 0.930 . S
C2116 C2114 1.378 . S
C2116 C2117 1.367 . S
C2117 C2116 1.367 . S
C2117 C2119 1.433 . S
C2118 C2114 1.350 . S
C2118 C2115 1.463 . S
C2118 N2122 1.427 . S
C2119 H2109 0.929 . S
C2119 C2117 1.433 . S
C2119 N2122 1.384 . S
C2120 H2111 0.929 . S
C2120 C2112 1.378 . S
C2120 C2115 1.350 . S
C2121 H2108 0.929 1_556 S
C2121 C2113 1.433 1_556 S
C2121 N2123 1.384 . S
N2122 C2118 1.427 . S
N2122 C2119 1.384 . S
N2123 C2115 1.427 . S
N2123 C2121 1.384 . S
H2124 C2130 0.930 1_554 S
H2125 C2134 0.930 . S
H2126 C2139 0.929 . S
H2127 C2137 0.929 . S
H2128 C2132 0.929 . S
H2129 C2138 0.929 . S
C2130 H2124 0.930 1_556 S
C2130 C2131 1.367 1_556 S
C2130 C2138 1.378 . S
C2131 C2130 1.367 1_554 S
C2131 C2139 1.433 1_554 S
C2132 H2128 0.929 . S
C2132 C2134 1.378 . S
C2132 C2136 1.350 . S
C2133 C2136 1.463 . S
C2133 C2138 1.350 . S
C2133 N2141 1.427 . S
C2134 H2125 0.930 . S
C2134 C2132 1.378 . S
C2134 C2135 1.367 . S
C2135 C2134 1.367 . S
C2135 C2137 1.433 . S
C2136 C2132 1.350 . S
C2136 C2133 1.463 . S
C2136 N2140 1.427 . S
C2137 H2127 0.929 . S
C2137 C2135 1.433 . S
C2137 N2140 1.384 . S
C2138 H2129 0.929 . S
C2138 C2130 1.378 . S
C2138 C2133 1.350 . S
C2139 H2126 0.929 . S
C2139 C2131 1.433 1_556 S
C2139 N2141 1.384 . S
N2140 C2136 1.427 . S
N2140 C2137 1.384 . S
N2141 C2133 1.427 . S
N2141 C2139 1.384 . S
H2142 C2148 0.930 . S
H2143 C2152 0.930 . S
H2144 C2157 0.929 . S
H2145 C2155 0.929 . S
H2146 C2150 0.929 . S
H2147 C2156 0.929 . S
C2148 H2142 0.930 . S
C2148 C2149 1.367 . S
C2148 C2156 1.378 . S
C2149 C2148 1.367 . S
C2149 C2157 1.433 . S
C2150 H2146 0.929 . S
C2150 C2152 1.378 . S
C2150 C2154 1.350 . S
C2151 C2154 1.463 . S
C2151 C2156 1.350 . S
C2151 N2159 1.427 . S
C2152 H2143 0.930 . S
C2152 C2150 1.378 . S
C2152 C2153 1.367 . S
C2153 C2152 1.367 . S
C2153 C2155 1.433 . S
C2154 C2150 1.350 . S
C2154 C2151 1.463 . S
C2154 N2158 1.427 . S
C2155 H2145 0.929 . S
C2155 C2153 1.433 . S
C2155 N2158 1.384 . S
C2156 H2147 0.929 . S
C2156 C2148 1.378 . S
C2156 C2151 1.350 . S
C2157 H2144 0.929 . S
C2157 C2149 1.433 . S
C2157 N2159 1.384 . S
N2158 C2154 1.427 . S
N2158 C2155 1.384 . S
N2159 C2151 1.427 . S
N2159 C2157 1.384 . S
H2160 C2166 0.930 . S
H2161 C2170 0.930 . S
H2162 C2175 0.929 . S
H2163 C2173 0.929 . S
H2164 C2168 0.929 . S
H2165 C2174 0.929 . S
C2166 H2160 0.930 . S
C2166 C2167 1.367 . S
C2166 C2174 1.378 . S
C2167 C2166 1.367 . S
C2167 C2175 1.433 . S
C2168 H2164 0.929 . S
C2168 C2170 1.378 . S
C2168 C2172 1.350 . S
C2169 C2172 1.463 . S
C2169 C2174 1.350 . S
C2169 N2177 1.427 . S
C2170 H2161 0.930 . S
C2170 C2168 1.378 . S
C2170 C2171 1.367 . S
C2171 C2170 1.367 . S
C2171 C2173 1.433 . S
C2172 C2168 1.350 . S
C2172 C2169 1.463 . S
C2172 N2176 1.427 . S
C2173 H2163 0.929 . S
C2173 C2171 1.433 . S
C2173 N2176 1.384 . S
C2174 H2165 0.929 . S
C2174 C2166 1.378 . S
C2174 C2169 1.350 . S
C2175 H2162 0.929 . S
C2175 C2167 1.433 . S
C2175 N2177 1.384 . S
N2176 C2172 1.427 . S
N2176 C2173 1.384 . S
N2177 C2169 1.427 . S
N2177 C2175 1.384 . S
H2178 C2184 0.930 . S
H2179 C2188 0.930 . S
H2180 C2193 0.929 . S
H2181 C2191 0.929 . S
H2182 C2186 0.929 . S
H2183 C2192 0.929 . S
C2184 H2178 0.930 . S
C2184 C2185 1.367 . S
C2184 C2192 1.378 . S
C2185 C2184 1.367 . S
C2185 C2193 1.433 . S
C2186 H2182 0.929 . S
C2186 C2188 1.378 . S
C2186 C2190 1.350 . S
C2187 C2190 1.463 . S
C2187 C2192 1.350 . S
C2187 N2195 1.427 . S
C2188 H2179 0.930 . S
C2188 C2186 1.378 . S
C2188 C2189 1.367 . S
C2189 C2188 1.367 . S
C2189 C2191 1.433 . S
C2190 C2186 1.350 . S
C2190 C2187 1.463 . S
C2190 N2194 1.427 . S
C2191 H2181 0.929 . S
C2191 C2189 1.433 . S
C2191 N2194 1.384 . S
C2192 H2183 0.929 . S
C2192 C2184 1.378 . S
C2192 C2187 1.350 . S
C2193 H2180 0.929 . S
C2193 C2185 1.433 . S
C2193 N2195 1.384 . S
N2194 C2190 1.427 . S
N2194 C2191 1.384 . S
N2195 C2187 1.427 . S
N2195 C2193 1.384 . S
H2196 C2202 0.930 . S
H2197 C2206 0.930 . S
H2198 C2211 0.929 . S
H2199 C2209 0.929 . S
H2200 C2204 0.929 . S
H2201 C2210 0.929 . S
C2202 H2196 0.930 . S
C2202 C2203 1.367 . S
C2202 C2210 1.378 . S
C2203 C2202 1.367 . S
C2203 C2211 1.433 . S
C2204 H2200 0.929 . S
C2204 C2206 1.378 . S
C2204 C2208 1.350 . S
C2205 C2208 1.463 . S
C2205 C2210 1.350 . S
C2205 N2213 1.427 . S
C2206 H2197 0.930 . S
C2206 C2204 1.378 . S
C2206 C2207 1.367 . S
C2207 C2206 1.367 . S
C2207 C2209 1.433 . S
C2208 C2204 1.350 . S
C2208 C2205 1.463 . S
C2208 N2212 1.427 . S
C2209 H2199 0.929 . S
C2209 C2207 1.433 . S
C2209 N2212 1.384 . S
C2210 H2201 0.929 . S
C2210 C2202 1.378 . S
C2210 C2205 1.350 . S
C2211 H2198 0.929 . S
C2211 C2203 1.433 . S
C2211 N2213 1.384 . S
N2212 C2208 1.427 . S
N2212 C2209 1.384 . S
N2213 C2205 1.427 . S
N2213 C2211 1.384 . S
H2214 C2220 0.930 . S
H2215 C2224 0.930 . S
H2216 C2229 0.929 . S
H2217 C2227 0.929 . S
H2218 C2222 0.929 . S
H2219 C2228 0.929 . S
C2220 H2214 0.930 . S
C2220 C2221 1.367 . S
C2220 C2228 1.378 . S
C2221 C2220 1.367 . S
C2221 C2229 1.433 . S
C2222 H2218 0.929 . S
C2222 C2224 1.378 . S
C2222 C2226 1.350 . S
C2223 C2226 1.463 . S
C2223 C2228 1.350 . S
C2223 N2231 1.427 . S
C2224 H2215 0.930 . S
C2224 C2222 1.378 . S
C2224 C2225 1.367 . S
C2225 C2224 1.367 . S
C2225 C2227 1.433 . S
C2226 C2222 1.350 . S
C2226 C2223 1.463 . S
C2226 N2230 1.427 . S
C2227 H2217 0.929 . S
C2227 C2225 1.433 . S
C2227 N2230 1.384 . S
C2228 H2219 0.929 . S
C2228 C2220 1.378 . S
C2228 C2223 1.350 . S
C2229 H2216 0.929 . S
C2229 C2221 1.433 . S
C2229 N2231 1.384 . S
N2230 C2226 1.427 . S
N2230 C2227 1.384 . S
N2231 C2223 1.427 . S
N2231 C2229 1.384 . S
H2232 C2238 0.930 . S
H2233 C2242 0.930 . S
H2234 C2247 0.929 . S
H2235 C2245 0.929 . S
H2236 C2240 0.929 . S
H2237 C2246 0.929 . S
C2238 H2232 0.930 . S
C2238 C2239 1.367 . S
C2238 C2246 1.378 . S
C2239 C2238 1.367 . S
C2239 C2247 1.433 . S
C2240 H2236 0.929 . S
C2240 C2242 1.378 . S
C2240 C2244 1.350 . S
C2241 C2244 1.463 . S
C2241 C2246 1.350 . S
C2241 N2249 1.427 . S
C2242 H2233 0.930 . S
C2242 C2240 1.378 . S
C2242 C2243 1.367 . S
C2243 C2242 1.367 . S
C2243 C2245 1.433 . S
C2244 C2240 1.350 . S
C2244 C2241 1.463 . S
C2244 N2248 1.427 . S
C2245 H2235 0.929 . S
C2245 C2243 1.433 . S
C2245 N2248 1.384 . S
C2246 H2237 0.929 . S
C2246 C2238 1.378 . S
C2246 C2241 1.350 . S
C2247 H2234 0.929 . S
C2247 C2239 1.433 . S
C2247 N2249 1.384 . S
N2248 C2244 1.427 . S
N2248 C2245 1.384 . S
N2249 C2241 1.427 . S
N2249 C2247 1.384 . S
H2250 C2256 0.930 . S
H2251 C2260 0.930 . S
H2252 C2265 0.929 . S
H2253 C2263 0.929 . S
H2254 C2258 0.929 . S
H2255 C2264 0.929 . S
C2256 H2250 0.930 . S
C2256 C2257 1.367 . S
C2256 C2264 1.378 . S
C2257 C2256 1.367 . S
C2257 C2265 1.433 . S
C2258 H2254 0.929 . S
C2258 C2260 1.378 . S
C2258 C2262 1.350 . S
C2259 C2262 1.463 . S
C2259 C2264 1.350 . S
C2259 N2267 1.427 . S
C2260 H2251 0.930 . S
C2260 C2258 1.378 . S
C2260 C2261 1.367 . S
C2261 C2260 1.367 . S
C2261 C2263 1.433 . S
C2262 C2258 1.350 . S
C2262 C2259 1.463 . S
C2262 N2266 1.427 . S
C2263 H2253 0.929 . S
C2263 C2261 1.433 . S
C2263 N2266 1.384 . S
C2264 H2255 0.929 . S
C2264 C2256 1.378 . S
C2264 C2259 1.350 . S
C2265 H2252 0.929 . S
C2265 C2257 1.433 . S
C2265 N2267 1.384 . S
N2266 C2262 1.427 . S
N2266 C2263 1.384 . S
N2267 C2259 1.427 . S
N2267 C2265 1.384 . S
H2268 C2274 0.930 . S
H2269 C2278 0.930 . S
H2270 C2283 0.929 . S
H2271 C2281 0.929 . S
H2272 C2276 0.929 . S
H2273 C2282 0.929 . S
C2274 H2268 0.930 . S
C2274 C2275 1.367 . S
C2274 C2282 1.378 . S
C2275 C2274 1.367 . S
C2275 C2283 1.433 . S
C2276 H2272 0.929 . S
C2276 C2278 1.378 . S
C2276 C2280 1.350 . S
C2277 C2280 1.463 . S
C2277 C2282 1.350 . S
C2277 N2285 1.427 . S
C2278 H2269 0.930 . S
C2278 C2276 1.378 . S
C2278 C2279 1.367 . S
C2279 C2278 1.367 . S
C2279 C2281 1.433 . S
C2280 C2276 1.350 . S
C2280 C2277 1.463 . S
C2280 N2284 1.427 . S
C2281 H2271 0.929 . S
C2281 C2279 1.433 . S
C2281 N2284 1.384 . S
C2282 H2273 0.929 . S
C2282 C2274 1.378 . S
C2282 C2277 1.350 . S
C2283 H2270 0.929 . S
C2283 C2275 1.433 . S
C2283 N2285 1.384 . S
N2284 C2280 1.427 . S
N2284 C2281 1.384 . S
N2285 C2277 1.427 . S
N2285 C2283 1.384 . S
H2286 C2292 0.930 . S
H2287 C2296 0.930 . S
H2288 C2301 0.929 . S
H2289 C2299 0.929 . S
H2290 C2294 0.929 . S
H2291 C2300 0.929 . S
C2292 H2286 0.930 . S
C2292 C2293 1.367 . S
C2292 C2300 1.378 . S
C2293 C2292 1.367 . S
C2293 C2301 1.433 . S
C2294 H2290 0.929 . S
C2294 C2296 1.378 . S
C2294 C2298 1.350 . S
C2295 C2298 1.463 . S
C2295 C2300 1.350 . S
C2295 N2303 1.427 . S
C2296 H2287 0.930 . S
C2296 C2294 1.378 . S
C2296 C2297 1.367 . S
C2297 C2296 1.367 . S
C2297 C2299 1.433 . S
C2298 C2294 1.350 . S
C2298 C2295 1.463 . S
C2298 N2302 1.427 . S
C2299 H2289 0.929 . S
C2299 C2297 1.433 . S
C2299 N2302 1.384 . S
C2300 H2291 0.929 . S
C2300 C2292 1.378 . S
C2300 C2295 1.350 . S
C2301 H2288 0.929 . S
C2301 C2293 1.433 . S
C2301 N2303 1.384 . S
N2302 C2298 1.427 . S
N2302 C2299 1.384 . S
N2303 C2295 1.427 . S
N2303 C2301 1.384 . S
H2304 C2310 0.930 . S
H2305 C2314 0.930 1_556 S
H2306 C2319 0.929 . S
H2307 C2317 0.929 . S
H2308 C2312 0.929 . S
H2309 C2318 0.929 . S
C2310 H2304 0.930 . S
C2310 C2311 1.367 . S
C2310 C2318 1.378 . S
C2311 C2310 1.367 . S
C2311 C2319 1.433 . S
C2312 H2308 0.929 . S
C2312 C2314 1.378 . S
C2312 C2316 1.350 . S
C2313 C2316 1.463 . S
C2313 C2318 1.350 . S
C2313 N2321 1.427 . S
C2314 H2305 0.930 1_554 S
C2314 C2312 1.378 . S
C2314 C2315 1.367 . S
C2315 C2314 1.367 . S
C2315 C2317 1.433 . S
C2316 C2312 1.350 . S
C2316 C2313 1.463 . S
C2316 N2320 1.427 . S
C2317 H2307 0.929 . S
C2317 C2315 1.433 . S
C2317 N2320 1.384 . S
C2318 H2309 0.929 . S
C2318 C2310 1.378 . S
C2318 C2313 1.350 . S
C2319 H2306 0.929 . S
C2319 C2311 1.433 . S
C2319 N2321 1.384 . S
N2320 C2316 1.427 . S
N2320 C2317 1.384 . S
N2321 C2313 1.427 . S
N2321 C2319 1.384 . S
H2322 C2328 0.930 . S
H2323 C2332 0.930 . S
H2324 C2337 0.929 1_556 S
H2325 C2335 0.929 . S
H2326 C2330 0.929 . S
H2327 C2336 0.929 . S
C2328 H2322 0.930 . S
C2328 C2329 1.367 . S
C2328 C2336 1.378 . S
C2329 C2328 1.367 . S
C2329 C2337 1.433 . S
C2330 H2326 0.929 . S
C2330 C2332 1.378 . S
C2330 C2334 1.350 . S
C2331 C2334 1.463 . S
C2331 C2336 1.350 . S
C2331 N2339 1.427 . S
C2332 H2323 0.930 . S
C2332 C2330 1.378 . S
C2332 C2333 1.367 . S
C2333 C2332 1.367 . S
C2333 C2335 1.433 . S
C2334 C2330 1.350 . S
C2334 C2331 1.463 . S
C2334 N2338 1.427 . S
C2335 H2325 0.929 . S
C2335 C2333 1.433 . S
C2335 N2338 1.384 . S
C2336 H2327 0.929 . S
C2336 C2328 1.378 . S
C2336 C2331 1.350 . S
C2337 H2324 0.929 1_554 S
C2337 C2329 1.433 . S
C2337 N2339 1.384 . S
N2338 C2334 1.427 . S
N2338 C2335 1.384 . S
N2339 C2331 1.427 . S
N2339 C2337 1.384 . S
H2340 C2346 0.930 . S
H2341 C2350 0.930 . S
H2342 C2355 0.929 . S
H2343 C2353 0.929 . S
H2344 C2348 0.929 . S
H2345 C2354 0.929 . S
C2346 H2340 0.930 . S
C2346 C2347 1.367 . S
C2346 C2354 1.378 . S
C2347 C2346 1.367 . S
C2347 C2355 1.433 . S
C2348 H2344 0.929 . S
C2348 C2350 1.378 . S
C2348 C2352 1.350 . S
C2349 C2352 1.463 . S
C2349 C2354 1.350 . S
C2349 N2357 1.427 . S
C2350 H2341 0.930 . S
C2350 C2348 1.378 . S
C2350 C2351 1.367 . S
C2351 C2350 1.367 . S
C2351 C2353 1.433 . S
C2352 C2348 1.350 . S
C2352 C2349 1.463 . S
C2352 N2356 1.427 . S
C2353 H2343 0.929 . S
C2353 C2351 1.433 . S
C2353 N2356 1.384 . S
C2354 H2345 0.929 . S
C2354 C2346 1.378 . S
C2354 C2349 1.350 . S
C2355 H2342 0.929 . S
C2355 C2347 1.433 . S
C2355 N2357 1.384 . S
N2356 C2352 1.427 . S
N2356 C2353 1.384 . S
N2357 C2349 1.427 . S
N2357 C2355 1.384 . S
H2358 C2364 0.930 . S
H2359 C2368 0.930 . S
H2360 C2373 0.929 . S
H2361 C2371 0.929 . S
H2362 C2366 0.929 . S
H2363 C2372 0.929 . S
C2364 H2358 0.930 . S
C2364 C2365 1.367 . S
C2364 C2372 1.378 . S
C2365 C2364 1.367 . S
C2365 C2373 1.433 . S
C2366 H2362 0.929 . S
C2366 C2368 1.378 . S
C2366 C2370 1.350 . S
C2367 C2370 1.463 . S
C2367 C2372 1.350 . S
C2367 N2375 1.427 . S
C2368 H2359 0.930 . S
C2368 C2366 1.378 . S
C2368 C2369 1.367 . S
C2369 C2368 1.367 . S
C2369 C2371 1.433 . S
C2370 C2366 1.350 . S
C2370 C2367 1.463 . S
C2370 N2374 1.427 . S
C2371 H2361 0.929 . S
C2371 C2369 1.433 . S
C2371 N2374 1.384 . S
C2372 H2363 0.929 . S
C2372 C2364 1.378 . S
C2372 C2367 1.350 . S
C2373 H2360 0.929 . S
C2373 C2365 1.433 . S
C2373 N2375 1.384 . S
N2374 C2370 1.427 . S
N2374 C2371 1.384 . S
N2375 C2367 1.427 . S
N2375 C2373 1.384 . S
H2376 C2382 0.930 . S
H2377 C2386 0.930 . S
H2378 C2391 0.929 . S
H2379 C2389 0.929 . S
H2380 C2384 0.929 . S
H2381 C2390 0.929 . S
C2382 H2376 0.930 . S
C2382 C2383 1.367 . S
C2382 C2390 1.378 . S
C2383 C2382 1.367 . S
C2383 C2391 1.433 . S
C2384 H2380 0.929 . S
C2384 C2386 1.378 . S
C2384 C2388 1.350 . S
C2385 C2388 1.463 . S
C2385 C2390 1.350 . S
C2385 N2393 1.427 . S
C2386 H2377 0.930 . S
C2386 C2384 1.378 . S
C2386 C2387 1.367 . S
C2387 C2386 1.367 . S
C2387 C2389 1.433 . S
C2388 C2384 1.350 . S
C2388 C2385 1.463 . S
C2388 N2392 1.427 . S
C2389 H2379 0.929 . S
C2389 C2387 1.433 . S
C2389 N2392 1.384 . S
C2390 H2381 0.929 . S
C2390 C2382 1.378 . S
C2390 C2385 1.350 . S
C2391 H2378 0.929 . S
C2391 C2383 1.433 . S
C2391 N2393 1.384 . S
N2392 C2388 1.427 . S
N2392 C2389 1.384 . S
N2393 C2385 1.427 . S
N2393 C2391 1.384 . S
H2394 C2400 0.930 . S
H2395 C2404 0.930 . S
H2396 C2409 0.929 . S
H2397 C2407 0.929 . S
H2398 C2402 0.929 . S
H2399 C2408 0.929 . S
C2400 H2394 0.930 . S
C2400 C2401 1.367 . S
C2400 C2408 1.378 . S
C2401 C2400 1.367 . S
C2401 C2409 1.433 . S
C2402 H2398 0.929 . S
C2402 C2404 1.378 . S
C2402 C2406 1.350 . S
C2403 C2406 1.463 . S
C2403 C2408 1.350 . S
C2403 N2411 1.427 . S
C2404 H2395 0.930 . S
C2404 C2402 1.378 . S
C2404 C2405 1.367 . S
C2405 C2404 1.367 . S
C2405 C2407 1.433 . S
C2406 C2402 1.350 . S
C2406 C2403 1.463 . S
C2406 N2410 1.427 . S
C2407 H2397 0.929 . S
C2407 C2405 1.433 . S
C2407 N2410 1.384 . S
C2408 H2399 0.929 . S
C2408 C2400 1.378 . S
C2408 C2403 1.350 . S
C2409 H2396 0.929 . S
C2409 C2401 1.433 . S
C2409 N2411 1.384 . S
N2410 C2406 1.427 . S
N2410 C2407 1.384 . S
N2411 C2403 1.427 . S
N2411 C2409 1.384 . S
H2412 C2418 0.930 . S
H2413 C2422 0.930 . S
H2414 C2427 0.929 . S
H2415 C2425 0.929 . S
H2416 C2420 0.929 . S
H2417 C2426 0.929 . S
C2418 H2412 0.930 . S
C2418 C2419 1.367 . S
C2418 C2426 1.378 . S
C2419 C2418 1.367 . S
C2419 C2427 1.433 . S
C2420 H2416 0.929 . S
C2420 C2422 1.378 . S
C2420 C2424 1.350 . S
C2421 C2424 1.463 1_455 S
C2421 C2426 1.350 . S
C2421 N2429 1.427 . S
C2422 H2413 0.930 . S
C2422 C2420 1.378 . S
C2422 C2423 1.367 . S
C2423 C2422 1.367 . S
C2423 C2425 1.433 . S
C2424 C2420 1.350 . S
C2424 C2421 1.463 1_655 S
C2424 N2428 1.427 . S
C2425 H2415 0.929 . S
C2425 C2423 1.433 . S
C2425 N2428 1.384 . S
C2426 H2417 0.929 . S
C2426 C2418 1.378 . S
C2426 C2421 1.350 . S
C2427 H2414 0.929 . S
C2427 C2419 1.433 . S
C2427 N2429 1.384 . S
N2428 C2424 1.427 . S
N2428 C2425 1.384 . S
N2429 C2421 1.427 . S
N2429 C2427 1.384 . S
H2430 C2436 0.930 . S
H2431 C2440 0.930 . S
H2432 C2445 0.929 . S
H2433 C2443 0.929 . S
H2434 C2438 0.929 . S
H2435 C2444 0.929 . S
C2436 H2430 0.930 . S
C2436 C2437 1.367 . S
C2436 C2444 1.378 . S
C2437 C2436 1.367 . S
C2437 C2445 1.433 . S
C2438 H2434 0.929 . S
C2438 C2440 1.378 . S
C2438 C2442 1.350 . S
C2439 C2442 1.463 . S
C2439 C2444 1.350 . S
C2439 N2447 1.427 . S
C2440 H2431 0.930 . S
C2440 C2438 1.378 . S
C2440 C2441 1.367 . S
C2441 C2440 1.367 . S
C2441 C2443 1.433 . S
C2442 C2438 1.350 . S
C2442 C2439 1.463 . S
C2442 N2446 1.427 . S
C2443 H2433 0.929 . S
C2443 C2441 1.433 . S
C2443 N2446 1.384 . S
C2444 H2435 0.929 . S
C2444 C2436 1.378 . S
C2444 C2439 1.350 . S
C2445 H2432 0.929 . S
C2445 C2437 1.433 . S
C2445 N2447 1.384 . S
N2446 C2442 1.427 . S
N2446 C2443 1.384 . S
N2447 C2439 1.427 . S
N2447 C2445 1.384 . S
H2448 C2454 0.930 . S
H2449 C2458 0.930 . S
H2450 C2463 0.929 . S
H2451 C2461 0.929 . S
H2452 C2456 0.929 . S
H2453 C2462 0.929 . S
C2454 H2448 0.930 . S
C2454 C2455 1.367 . S
C2454 C2462 1.378 . S
C2455 C2454 1.367 . S
C2455 C2463 1.433 . S
C2456 H2452 0.929 . S
C2456 C2458 1.378 . S
C2456 C2460 1.350 . S
C2457 C2460 1.463 1_545 S
C2457 C2462 1.350 . S
C2457 N2465 1.427 . S
C2458 H2449 0.930 . S
C2458 C2456 1.378 . S
C2458 C2459 1.367 . S
C2459 C2458 1.367 . S
C2459 C2461 1.433 . S
C2460 C2456 1.350 . S
C2460 C2457 1.463 1_565 S
C2460 N2464 1.427 . S
C2461 H2451 0.929 . S
C2461 C2459 1.433 . S
C2461 N2464 1.384 . S
C2462 H2453 0.929 . S
C2462 C2454 1.378 . S
C2462 C2457 1.350 . S
C2463 H2450 0.929 . S
C2463 C2455 1.433 . S
C2463 N2465 1.384 . S
N2464 C2460 1.427 . S
N2464 C2461 1.384 . S
N2465 C2457 1.427 . S
N2465 C2463 1.384 . S
H2466 C2472 0.930 . S
H2467 C2476 0.930 . S
H2468 C2481 0.929 . S
H2469 C2479 0.929 . S
H2470 C2474 0.929 . S
H2471 C2480 0.929 . S
C2472 H2466 0.930 . S
C2472 C2473 1.367 . S
C2472 C2480 1.378 . S
C2473 C2472 1.367 . S
C2473 C2481 1.433 . S
C2474 H2470 0.929 . S
C2474 C2476 1.378 . S
C2474 C2478 1.350 . S
C2475 C2478 1.463 1_545 S
C2475 C2480 1.350 . S
C2475 N2483 1.427 . S
C2476 H2467 0.930 . S
C2476 C2474 1.378 . S
C2476 C2477 1.367 . S
C2477 C2476 1.367 . S
C2477 C2479 1.433 . S
C2478 C2474 1.350 . S
C2478 C2475 1.463 1_565 S
C2478 N2482 1.427 . S
C2479 H2469 0.929 . S
C2479 C2477 1.433 . S
C2479 N2482 1.384 . S
C2480 H2471 0.929 . S
C2480 C2472 1.378 . S
C2480 C2475 1.350 . S
C2481 H2468 0.929 . S
C2481 C2473 1.433 . S
C2481 N2483 1.384 . S
N2482 C2478 1.427 . S
N2482 C2479 1.384 . S
N2483 C2475 1.427 . S
N2483 C2481 1.384 . S
H2484 C2490 0.930 . S
H2485 C2494 0.930 . S
H2486 C2499 0.929 . S
H2487 C2497 0.929 . S
H2488 C2492 0.929 . S
H2489 C2498 0.929 . S
C2490 H2484 0.930 . S
C2490 C2491 1.367 . S
C2490 C2498 1.378 . S
C2491 C2490 1.367 . S
C2491 C2499 1.433 . S
C2492 H2488 0.929 . S
C2492 C2494 1.378 . S
C2492 C2496 1.350 . S
C2493 C2496 1.463 1_655 S
C2493 C2498 1.350 . S
C2493 N2501 1.427 . S
C2494 H2485 0.930 . S
C2494 C2492 1.378 . S
C2494 C2495 1.367 . S
C2495 C2494 1.367 . S
C2495 C2497 1.433 . S
C2496 C2492 1.350 . S
C2496 C2493 1.463 1_455 S
C2496 N2500 1.427 . S
C2497 H2487 0.929 . S
C2497 C2495 1.433 . S
C2497 N2500 1.384 . S
C2498 H2489 0.929 . S
C2498 C2490 1.378 . S
C2498 C2493 1.350 . S
C2499 H2486 0.929 . S
C2499 C2491 1.433 . S
C2499 N2501 1.384 . S
N2500 C2496 1.427 . S
N2500 C2497 1.384 . S
N2501 C2493 1.427 . S
N2501 C2499 1.384 . S
H2502 C2508 0.930 . S
H2503 C2512 0.930 . S
H2504 C2517 0.929 . S
H2505 C2515 0.929 . S
H2506 C2510 0.929 . S
H2507 C2516 0.929 . S
C2508 H2502 0.930 . S
C2508 C2509 1.367 . S
C2508 C2516 1.378 . S
C2509 C2508 1.367 . S
C2509 C2517 1.433 . S
C2510 H2506 0.929 . S
C2510 C2512 1.378 . S
C2510 C2514 1.350 . S
C2511 C2514 1.463 . S
C2511 C2516 1.350 . S
C2511 N2519 1.427 . S
C2512 H2503 0.930 . S
C2512 C2510 1.378 . S
C2512 C2513 1.367 . S
C2513 C2512 1.367 . S
C2513 C2515 1.433 . S
C2514 C2510 1.350 . S
C2514 C2511 1.463 . S
C2514 N2518 1.427 . S
C2515 H2505 0.929 . S
C2515 C2513 1.433 . S
C2515 N2518 1.384 . S
C2516 H2507 0.929 . S
C2516 C2508 1.378 . S
C2516 C2511 1.350 . S
C2517 H2504 0.929 . S
C2517 C2509 1.433 . S
C2517 N2519 1.384 . S
N2518 C2514 1.427 . S
N2518 C2515 1.384 . S
N2519 C2511 1.427 . S
N2519 C2517 1.384 . S
H2520 C2526 0.930 . S
H2521 C2530 0.930 . S
H2522 C2535 0.929 . S
H2523 C2533 0.929 . S
H2524 C2528 0.929 . S
H2525 C2534 0.929 . S
C2526 H2520 0.930 . S
C2526 C2527 1.367 . S
C2526 C2534 1.378 . S
C2527 C2526 1.367 . S
C2527 C2535 1.433 . S
C2528 H2524 0.929 . S
C2528 C2530 1.378 . S
C2528 C2532 1.350 . S
C2529 C2532 1.463 . S
C2529 C2534 1.350 . S
C2529 N2537 1.427 . S
C2530 H2521 0.930 . S
C2530 C2528 1.378 . S
C2530 C2531 1.367 . S
C2531 C2530 1.367 . S
C2531 C2533 1.433 . S
C2532 C2528 1.350 . S
C2532 C2529 1.463 . S
C2532 N2536 1.427 . S
C2533 H2523 0.929 . S
C2533 C2531 1.433 . S
C2533 N2536 1.384 . S
C2534 H2525 0.929 . S
C2534 C2526 1.378 . S
C2534 C2529 1.350 . S
C2535 H2522 0.929 . S
C2535 C2527 1.433 . S
C2535 N2537 1.384 . S
N2536 C2532 1.427 . S
N2536 C2533 1.384 . S
N2537 C2529 1.427 . S
N2537 C2535 1.384 . S
H2538 C2544 0.930 . S
H2539 C2548 0.930 . S
H2540 C2553 0.929 . S
H2541 C2551 0.929 . S
H2542 C2546 0.929 . S
H2543 C2552 0.929 . S
C2544 H2538 0.930 . S
C2544 C2545 1.367 . S
C2544 C2552 1.378 . S
C2545 C2544 1.367 . S
C2545 C2553 1.433 . S
C2546 H2542 0.929 . S
C2546 C2548 1.378 . S
C2546 C2550 1.350 . S
C2547 C2550 1.463 . S
C2547 C2552 1.350 . S
C2547 N2555 1.427 . S
C2548 H2539 0.930 . S
C2548 C2546 1.378 . S
C2548 C2549 1.367 . S
C2549 C2548 1.367 . S
C2549 C2551 1.433 . S
C2550 C2546 1.350 . S
C2550 C2547 1.463 . S
C2550 N2554 1.427 . S
C2551 H2541 0.929 . S
C2551 C2549 1.433 . S
C2551 N2554 1.384 . S
C2552 H2543 0.929 . S
C2552 C2544 1.378 . S
C2552 C2547 1.350 . S
C2553 H2540 0.929 . S
C2553 C2545 1.433 . S
C2553 N2555 1.384 . S
N2554 C2550 1.427 . S
N2554 C2551 1.384 . S
N2555 C2547 1.427 . S
N2555 C2553 1.384 . S
H2556 C2562 0.930 . S
H2557 C2566 0.981 . S
H2558 C2571 0.929 . S
H2559 C2569 0.929 . S
H2560 C2564 0.929 . S
H2561 C2570 0.929 . S
C2562 H2556 0.930 . S
C2562 C2563 1.367 . S
C2562 C2570 1.378 . S
C2563 C2562 1.367 . S
C2563 C2571 1.433 . S
C2564 H2560 0.929 . S
C2564 C2566 1.378 . S
C2564 C2568 1.350 . S
C2565 C2568 1.463 . S
C2565 C2570 1.350 . S
C2565 N2573 1.427 . S
C2566 H2557 0.981 . S
C2566 C2564 1.378 . S
C2566 C2567 1.367 . S
C2567 C2566 1.367 . S
C2567 C2569 1.433 . S
C2568 C2564 1.350 . S
C2568 C2565 1.463 . S
C2568 N2572 1.427 . S
C2569 H2559 0.929 . S
C2569 C2567 1.433 . S
C2569 N2572 1.384 . S
C2570 H2561 0.929 . S
C2570 C2562 1.378 . S
C2570 C2565 1.350 . S
C2571 H2558 0.929 . S
C2571 C2563 1.433 . S
C2571 N2573 1.384 . S
N2572 C2568 1.427 . S
N2572 C2569 1.384 . S
N2573 C2565 1.427 . S
N2573 C2571 1.384 . S
H2574 C2580 0.930 . S
H2575 C2584 0.930 . S
H2576 C2589 0.929 . S
H2577 C2587 0.929 . S
H2578 C2582 0.929 . S
H2579 C2588 0.929 . S
C2580 H2574 0.930 . S
C2580 C2581 1.367 . S
C2580 C2588 1.378 . S
C2581 C2580 1.367 . S
C2581 C2589 1.433 . S
C2582 H2578 0.929 . S
C2582 C2584 1.378 . S
C2582 C2586 1.350 . S
C2583 C2586 1.463 . S
C2583 C2588 1.350 . S
C2583 N2591 1.427 . S
C2584 H2575 0.930 . S
C2584 C2582 1.378 . S
C2584 C2585 1.367 . S
C2585 C2584 1.367 . S
C2585 C2587 1.433 . S
C2586 C2582 1.350 . S
C2586 C2583 1.463 . S
C2586 N2590 1.427 . S
C2587 H2577 0.929 . S
C2587 C2585 1.433 . S
C2587 N2590 1.384 . S
C2588 H2579 0.929 . S
C2588 C2580 1.378 . S
C2588 C2583 1.350 . S
C2589 H2576 0.929 . S
C2589 C2581 1.433 . S
C2589 N2591 1.384 . S
N2590 C2586 1.427 . S
N2590 C2587 1.384 . S
N2591 C2583 1.427 . S
N2591 C2589 1.384 . S
H2592 C2598 0.930 . S
H2593 C2602 0.930 . S
H2594 C2607 0.929 . S
H2595 C2605 0.929 . S
H2596 C2600 0.929 . S
H2597 C2606 0.929 . S
C2598 H2592 0.930 . S
C2598 C2599 1.367 . S
C2598 C2606 1.378 . S
C2599 C2598 1.367 . S
C2599 C2607 1.433 . S
C2600 H2596 0.929 . S
C2600 C2602 1.378 . S
C2600 C2604 1.350 . S
C2601 C2604 1.463 . S
C2601 C2606 1.350 . S
C2601 N2609 1.427 . S
C2602 H2593 0.930 . S
C2602 C2600 1.378 . S
C2602 C2603 1.367 . S
C2603 C2602 1.367 . S
C2603 C2605 1.433 . S
C2604 C2600 1.350 . S
C2604 C2601 1.463 . S
C2604 N2608 1.427 . S
C2605 H2595 0.929 . S
C2605 C2603 1.433 . S
C2605 N2608 1.384 . S
C2606 H2597 0.929 . S
C2606 C2598 1.378 . S
C2606 C2601 1.350 . S
C2607 H2594 0.929 . S
C2607 C2599 1.433 . S
C2607 N2609 1.384 . S
N2608 C2604 1.427 . S
N2608 C2605 1.384 . S
N2609 C2601 1.427 . S
N2609 C2607 1.384 . S
H2610 C2616 0.930 . S
H2611 C2620 0.930 . S
H2612 C2625 0.929 . S
H2613 C2623 0.929 . S
H2614 C2618 0.929 . S
H2615 C2624 0.929 . S
C2616 H2610 0.930 . S
C2616 C2617 1.367 . S
C2616 C2624 1.378 . S
C2617 C2616 1.367 . S
C2617 C2625 1.433 . S
C2618 H2614 0.929 . S
C2618 C2620 1.378 . S
C2618 C2622 1.350 . S
C2619 C2622 1.463 . S
C2619 C2624 1.350 . S
C2619 N2627 1.427 . S
C2620 H2611 0.930 . S
C2620 C2618 1.378 . S
C2620 C2621 1.367 . S
C2621 C2620 1.367 . S
C2621 C2623 1.433 . S
C2622 C2618 1.350 . S
C2622 C2619 1.463 . S
C2622 N2626 1.427 . S
C2623 H2613 0.929 . S
C2623 C2621 1.433 . S
C2623 N2626 1.384 . S
C2624 H2615 0.929 . S
C2624 C2616 1.378 . S
C2624 C2619 1.350 . S
C2625 H2612 0.929 . S
C2625 C2617 1.433 . S
C2625 N2627 1.384 . S
N2626 C2622 1.427 . S
N2626 C2623 1.384 . S
N2627 C2619 1.427 . S
N2627 C2625 1.384 . S
H2628 C2634 0.930 . S
H2629 C2638 0.930 . S
H2630 C2643 0.929 . S
H2631 C2641 0.929 . S
H2632 C2636 0.929 . S
H2633 C2642 0.929 . S
C2634 H2628 0.930 . S
C2634 C2635 1.367 . S
C2634 C2642 1.378 . S
C2635 C2634 1.367 . S
C2635 C2643 1.433 . S
C2636 H2632 0.929 . S
C2636 C2638 1.378 . S
C2636 C2640 1.350 . S
C2637 C2640 1.463 . S
C2637 C2642 1.350 . S
C2637 N2645 1.427 . S
C2638 H2629 0.930 . S
C2638 C2636 1.378 . S
C2638 C2639 1.367 . S
C2639 C2638 1.367 . S
C2639 C2641 1.433 . S
C2640 C2636 1.350 . S
C2640 C2637 1.463 . S
C2640 N2644 1.427 . S
C2641 H2631 0.929 . S
C2641 C2639 1.433 . S
C2641 N2644 1.384 . S
C2642 H2633 0.929 . S
C2642 C2634 1.378 . S
C2642 C2637 1.350 . S
C2643 H2630 0.929 . S
C2643 C2635 1.433 . S
C2643 N2645 1.384 . S
N2644 C2640 1.427 . S
N2644 C2641 1.384 . S
N2645 C2637 1.427 . S
N2645 C2643 1.384 . S
H2646 C2652 0.930 . S
H2647 C2656 0.930 . S
H2648 C2661 0.929 . S
H2649 C2659 0.929 . S
H2650 C2654 0.929 . S
H2651 C2660 0.929 . S
C2652 H2646 0.930 . S
C2652 C2653 1.367 . S
C2652 C2660 1.378 . S
C2653 C2652 1.367 . S
C2653 C2661 1.433 . S
C2654 H2650 0.929 . S
C2654 C2656 1.378 . S
C2654 C2658 1.350 . S
C2655 C2658 1.463 . S
C2655 C2660 1.350 . S
C2655 N2663 1.427 . S
C2656 H2647 0.930 . S
C2656 C2654 1.378 . S
C2656 C2657 1.367 . S
C2657 C2656 1.367 . S
C2657 C2659 1.433 . S
C2658 C2654 1.350 . S
C2658 C2655 1.463 . S
C2658 N2662 1.427 . S
C2659 H2649 0.929 . S
C2659 C2657 1.433 . S
C2659 N2662 1.384 . S
C2660 H2651 0.929 . S
C2660 C2652 1.378 . S
C2660 C2655 1.350 . S
C2661 H2648 0.929 . S
C2661 C2653 1.433 . S
C2661 N2663 1.384 . S
N2662 C2658 1.427 . S
N2662 C2659 1.384 . S
N2663 C2655 1.427 . S
N2663 C2661 1.384 . S
H2664 C2670 0.930 . S
H2665 C2674 0.930 . S
H2666 C2679 0.929 . S
H2667 C2677 0.929 . S
H2668 C2672 0.929 . S
H2669 C2678 0.929 . S
C2670 H2664 0.930 . S
C2670 C2671 1.367 . S
C2670 C2678 1.378 . S
C2671 C2670 1.367 . S
C2671 C2679 1.433 . S
C2672 H2668 0.929 . S
C2672 C2674 1.378 . S
C2672 C2676 1.350 . S
C2673 C2676 1.463 . S
C2673 C2678 1.350 . S
C2673 N2681 1.427 . S
C2674 H2665 0.930 . S
C2674 C2672 1.378 . S
C2674 C2675 1.367 . S
C2675 C2674 1.367 . S
C2675 C2677 1.433 . S
C2676 C2672 1.350 . S
C2676 C2673 1.463 . S
C2676 N2680 1.427 . S
C2677 H2667 0.929 . S
C2677 C2675 1.433 . S
C2677 N2680 1.384 . S
C2678 H2669 0.929 . S
C2678 C2670 1.378 . S
C2678 C2673 1.350 . S
C2679 H2666 0.929 . S
C2679 C2671 1.433 . S
C2679 N2681 1.384 . S
N2680 C2676 1.427 . S
N2680 C2677 1.384 . S
N2681 C2673 1.427 . S
N2681 C2679 1.384 . S
H2682 C2688 0.930 . S
H2683 C2692 0.930 . S
H2684 C2697 0.929 . S
H2685 C2695 0.929 . S
H2686 C2690 0.929 . S
H2687 C2696 0.929 . S
C2688 H2682 0.930 . S
C2688 C2689 1.367 . S
C2688 C2696 1.378 . S
C2689 C2688 1.367 . S
C2689 C2697 1.433 . S
C2690 H2686 0.929 . S
C2690 C2692 1.378 . S
C2690 C2694 1.350 . S
C2691 C2694 1.463 . S
C2691 C2696 1.350 . S
C2691 N2699 1.427 . S
C2692 H2683 0.930 . S
C2692 C2690 1.378 . S
C2692 C2693 1.367 . S
C2693 C2692 1.367 . S
C2693 C2695 1.433 . S
C2694 C2690 1.350 . S
C2694 C2691 1.463 . S
C2694 N2698 1.427 . S
C2695 H2685 0.929 . S
C2695 C2693 1.433 . S
C2695 N2698 1.384 . S
C2696 H2687 0.929 . S
C2696 C2688 1.378 . S
C2696 C2691 1.350 . S
C2697 H2684 0.929 . S
C2697 C2689 1.433 . S
C2697 N2699 1.384 . S
N2698 C2694 1.427 . S
N2698 C2695 1.384 . S
N2699 C2691 1.427 . S
N2699 C2697 1.384 . S
H2700 C2706 0.930 . S
H2701 C2710 0.930 . S
H2702 C2715 0.929 . S
H2703 C2713 0.929 . S
H2704 C2708 0.929 . S
H2705 C2714 0.929 . S
C2706 H2700 0.930 . S
C2706 C2707 1.367 . S
C2706 C2714 1.378 . S
C2707 C2706 1.367 . S
C2707 C2715 1.433 . S
C2708 H2704 0.929 . S
C2708 C2710 1.378 . S
C2708 C2712 1.350 . S
C2709 C2712 1.463 . S
C2709 C2714 1.350 . S
C2709 N2717 1.427 . S
C2710 H2701 0.930 . S
C2710 C2708 1.378 . S
C2710 C2711 1.367 . S
C2711 C2710 1.367 . S
C2711 C2713 1.433 . S
C2712 C2708 1.350 . S
C2712 C2709 1.463 . S
C2712 N2716 1.427 . S
C2713 H2703 0.929 . S
C2713 C2711 1.433 . S
C2713 N2716 1.384 . S
C2714 H2705 0.929 . S
C2714 C2706 1.378 . S
C2714 C2709 1.350 . S
C2715 H2702 0.929 . S
C2715 C2707 1.433 . S
C2715 N2717 1.384 . S
N2716 C2712 1.427 . S
N2716 C2713 1.384 . S
N2717 C2709 1.427 . S
N2717 C2715 1.384 . S
H2718 C2724 0.972 . S
H2719 C2728 0.930 . S
H2720 C2733 0.929 . S
H2721 C2731 0.929 . S
H2722 C2726 0.929 . S
H2723 C2732 0.929 . S
C2724 H2718 0.972 . S
C2724 C2725 1.367 . S
C2724 C2732 1.378 . S
C2725 C2724 1.367 . S
C2725 C2733 1.433 . S
C2726 H2722 0.929 . S
C2726 C2728 1.378 . S
C2726 C2730 1.350 . S
C2727 C2730 1.463 . S
C2727 C2732 1.350 . S
C2727 N2735 1.427 . S
C2728 H2719 0.930 . S
C2728 C2726 1.378 . S
C2728 C2729 1.367 . S
C2729 C2728 1.367 . S
C2729 C2731 1.433 . S
C2730 C2726 1.350 . S
C2730 C2727 1.463 . S
C2730 N2734 1.427 . S
C2731 H2721 0.929 . S
C2731 C2729 1.433 . S
C2731 N2734 1.384 . S
C2732 H2723 0.929 . S
C2732 C2724 1.378 . S
C2732 C2727 1.350 . S
C2733 H2720 0.929 . S
C2733 C2725 1.433 . S
C2733 N2735 1.384 . S
N2734 C2730 1.427 . S
N2734 C2731 1.384 . S
N2735 C2727 1.427 . S
N2735 C2733 1.384 . S
H2736 C2742 0.930 . S
H2737 C2746 0.930 . S
H2738 C2751 0.929 . S
H2739 C2749 0.929 . S
H2740 C2744 0.929 . S
H2741 C2750 0.929 . S
C2742 H2736 0.930 . S
C2742 C2743 1.367 . S
C2742 C2750 1.378 . S
C2743 C2742 1.367 . S
C2743 C2751 1.433 . S
C2744 H2740 0.929 . S
C2744 C2746 1.378 . S
C2744 C2748 1.350 . S
C2745 C2748 1.463 1_455 S
C2745 C2750 1.350 . S
C2745 N2753 1.427 . S
C2746 H2737 0.930 . S
C2746 C2744 1.378 . S
C2746 C2747 1.367 . S
C2747 C2746 1.367 . S
C2747 C2749 1.433 . S
C2748 C2744 1.350 . S
C2748 C2745 1.463 1_655 S
C2748 N2752 1.427 . S
C2749 H2739 0.929 . S
C2749 C2747 1.433 . S
C2749 N2752 1.384 . S
C2750 H2741 0.929 . S
C2750 C2742 1.378 . S
C2750 C2745 1.350 . S
C2751 H2738 0.929 . S
C2751 C2743 1.433 . S
C2751 N2753 1.384 . S
N2752 C2748 1.427 . S
N2752 C2749 1.384 . S
N2753 C2745 1.427 . S
N2753 C2751 1.384 . S
H2754 C2760 0.930 . S
H2755 C2764 0.930 . S
H2756 C2769 0.929 . S
H2757 C2767 0.929 . S
H2758 C2762 0.929 . S
H2759 C2768 0.929 . S
C2760 H2754 0.930 . S
C2760 C2761 1.367 . S
C2760 C2768 1.378 . S
C2761 C2760 1.367 . S
C2761 C2769 1.433 . S
C2762 H2758 0.929 . S
C2762 C2764 1.378 . S
C2762 C2766 1.350 . S
C2763 C2766 1.463 . S
C2763 C2768 1.350 . S
C2763 N2771 1.427 . S
C2764 H2755 0.930 . S
C2764 C2762 1.378 . S
C2764 C2765 1.367 . S
C2765 C2764 1.367 . S
C2765 C2767 1.433 . S
C2766 C2762 1.350 . S
C2766 C2763 1.463 . S
C2766 N2770 1.427 . S
C2767 H2757 0.929 . S
C2767 C2765 1.433 . S
C2767 N2770 1.384 . S
C2768 H2759 0.929 . S
C2768 C2760 1.378 . S
C2768 C2763 1.350 . S
C2769 H2756 0.929 . S
C2769 C2761 1.433 . S
C2769 N2771 1.384 . S
N2770 C2766 1.427 . S
N2770 C2767 1.384 . S
N2771 C2763 1.427 . S
N2771 C2769 1.384 . S
H2772 C2778 0.930 . S
H2773 C2782 0.930 . S
H2774 C2787 0.929 . S
H2775 C2785 0.929 . S
H2776 C2780 0.929 . S
H2777 C2786 0.929 . S
C2778 H2772 0.930 . S
C2778 C2779 1.367 . S
C2778 C2786 1.378 . S
C2779 C2778 1.367 . S
C2779 C2787 1.433 . S
C2780 H2776 0.929 . S
C2780 C2782 1.378 . S
C2780 C2784 1.350 . S
C2781 C2784 1.463 1_545 S
C2781 C2786 1.350 . S
C2781 N2789 1.427 . S
C2782 H2773 0.930 . S
C2782 C2780 1.378 . S
C2782 C2783 1.367 . S
C2783 C2782 1.367 . S
C2783 C2785 1.433 . S
C2784 C2780 1.350 . S
C2784 C2781 1.463 1_565 S
C2784 N2788 1.427 . S
C2785 H2775 0.929 . S
C2785 C2783 1.433 . S
C2785 N2788 1.384 . S
C2786 H2777 0.929 . S
C2786 C2778 1.378 . S
C2786 C2781 1.350 . S
C2787 H2774 0.929 . S
C2787 C2779 1.433 . S
C2787 N2789 1.384 . S
N2788 C2784 1.427 . S
N2788 C2785 1.384 . S
N2789 C2781 1.427 . S
N2789 C2787 1.384 . S
H2790 C2796 0.930 . S
H2791 C2800 0.930 . S
H2792 C2805 0.929 . S
H2793 C2803 0.929 . S
H2794 C2798 0.929 . S
H2795 C2804 0.929 . S
C2796 H2790 0.930 . S
C2796 C2797 1.367 . S
C2796 C2804 1.378 . S
C2797 C2796 1.367 . S
C2797 C2805 1.433 . S
C2798 H2794 0.929 . S
C2798 C2800 1.378 . S
C2798 C2802 1.350 . S
C2799 C2802 1.463 1_545 S
C2799 C2804 1.350 . S
C2799 N2807 1.427 . S
C2800 H2791 0.930 . S
C2800 C2798 1.378 . S
C2800 C2801 1.367 . S
C2801 C2800 1.367 . S
C2801 C2803 1.433 . S
C2802 C2798 1.350 . S
C2802 C2799 1.463 1_565 S
C2802 N2806 1.427 . S
C2803 H2793 0.929 . S
C2803 C2801 1.433 . S
C2803 N2806 1.384 . S
C2804 H2795 0.929 . S
C2804 C2796 1.378 . S
C2804 C2799 1.350 . S
C2805 H2792 0.929 . S
C2805 C2797 1.433 . S
C2805 N2807 1.384 . S
N2806 C2802 1.427 . S
N2806 C2803 1.384 . S
N2807 C2799 1.427 . S
N2807 C2805 1.384 . S
H2808 C2814 0.930 . S
H2809 C2818 0.930 . S
H2810 C2823 0.929 . S
H2811 C2821 0.929 . S
H2812 C2816 0.929 . S
H2813 C2822 0.929 . S
C2814 H2808 0.930 . S
C2814 C2815 1.367 . S
C2814 C2822 1.378 . S
C2815 C2814 1.367 . S
C2815 C2823 1.433 . S
C2816 H2812 0.929 . S
C2816 C2818 1.378 . S
C2816 C2820 1.350 . S
C2817 C2820 1.463 1_455 S
C2817 C2822 1.350 . S
C2817 N2825 1.427 . S
C2818 H2809 0.930 . S
C2818 C2816 1.378 . S
C2818 C2819 1.367 . S
C2819 C2818 1.367 . S
C2819 C2821 1.433 . S
C2820 C2816 1.350 . S
C2820 C2817 1.463 1_655 S
C2820 N2824 1.427 . S
C2821 H2811 0.929 . S
C2821 C2819 1.433 . S
C2821 N2824 1.384 . S
C2822 H2813 0.929 . S
C2822 C2814 1.378 . S
C2822 C2817 1.350 . S
C2823 H2810 0.929 . S
C2823 C2815 1.433 . S
C2823 N2825 1.384 . S
N2824 C2820 1.427 . S
N2824 C2821 1.384 . S
N2825 C2817 1.427 . S
N2825 C2823 1.384 . S
H2826 C2832 0.930 . S
H2827 C2836 0.930 . S
H2828 C2841 0.929 . S
H2829 C2839 0.929 . S
H2830 C2834 0.929 . S
H2831 C2840 0.929 . S
C2832 H2826 0.930 . S
C2832 C2833 1.367 . S
C2832 C2840 1.378 . S
C2833 C2832 1.367 . S
C2833 C2841 1.433 . S
C2834 H2830 0.929 . S
C2834 C2836 1.378 . S
C2834 C2838 1.350 . S
C2835 C2838 1.463 . S
C2835 C2840 1.350 . S
C2835 N2843 1.427 . S
C2836 H2827 0.930 . S
C2836 C2834 1.378 . S
C2836 C2837 1.367 . S
C2837 C2836 1.367 . S
C2837 C2839 1.433 . S
C2838 C2834 1.350 . S
C2838 C2835 1.463 . S
C2838 N2842 1.427 . S
C2839 H2829 0.929 . S
C2839 C2837 1.433 . S
C2839 N2842 1.384 . S
C2840 H2831 0.929 . S
C2840 C2832 1.378 . S
C2840 C2835 1.350 . S
C2841 H2828 0.929 . S
C2841 C2833 1.433 . S
C2841 N2843 1.384 . S
N2842 C2838 1.427 . S
N2842 C2839 1.384 . S
N2843 C2835 1.427 . S
N2843 C2841 1.384 . S
C1231 C271 1.400 . S
C1235 C9 1.329 . S
C1249 C43 1.344 . S
C1253 C305 1.399 . S
C1267 C237 1.399 . S
C1271 C77 1.335 . S
C1285 C407 1.400 . S
C1289 C111 1.335 . S
C1303 C339 1.400 . S
C1307 C145 1.330 . S
C1321 C179 1.328 . S
C1325 C373 1.400 . S
C1339 C213 1.326 . S
C1343 C67 1.400 . S
C1357 C247 1.326 . S
C1361 C101 1.400 . S
C1375 C281 1.334 . S
C1379 C33 1.399 . S
C1393 C203 1.400 . S
C1397 C315 1.332 . S
C1411 C135 1.400 . S
C1415 C349 1.333 . S
C1429 C383 1.343 . S
C1433 C169 1.399 . S
C1447 C679 1.400 . S
C1451 C417 1.327 . S
C1465 C713 1.399 . S
C1469 C451 1.344 . S
C1483 C645 1.399 . S
C1487 C485 1.330 . S
C1501 C815 1.399 . S
C1505 C519 1.335 . S
C1519 C747 1.399 . S
C1523 C553 1.339 . S
C1537 C781 1.399 . S
C1541 C587 1.342 . S
C1555 C621 1.326 . S
C1559 C475 1.400 . S
C1573 C655 1.327 . S
C1577 C509 1.400 . S
C1591 C441 1.399 . S
C1595 C689 1.339 . S
C1609 C723 1.335 . S
C1613 C611 1.398 . S
C1627 C757 1.329 . S
C1631 C543 1.400 . S
C1645 C791 1.328 . S
C1649 C577 1.399 . S
C1663 C1087 1.399 . S
C1667 C825 1.326 . S
C1681 C1121 1.400 . S
C1685 C859 1.334 . S
C1699 C893 1.329 . S
C1703 C1053 1.399 . S
C1717 C927 1.331 . S
C1721 C1223 1.400 . S
C1735 C961 1.329 . S
C1739 C1155 1.400 . S
C1753 C995 1.327 . S
C1757 C1189 1.400 . S
C1771 C883 1.400 . S
C1775 C1029 1.331 . S
C1789 C917 1.400 . S
C1793 C1063 1.337 . S
C1807 C1097 1.333 . S
C1811 C849 1.399 . S
C1825 C1019 1.398 . S
C1829 C1131 1.344 . S
C1843 C951 1.399 . S
C1847 C1165 1.331 . S
C1861 C1199 1.342 . S
C1865 C985 1.399 . S
C1879 C2 1.795 . S
C1883 C104 1.797 . S
C1897 C36 1.801 . S
C1901 C138 1.795 . S
C1915 C70 1.802 . S
C1919 C172 1.795 . S
C1933 C308 1.800 . S
C1937 C206 1.803 . S
C1951 C342 1.795 . S
C1955 C240 1.797 . S
C1969 C376 1.802 . S
C1973 C274 1.795 . S
C1987 C410 1.802 . S
C1991 C512 1.796 . S
C2005 C444 1.800 . S
C2009 C546 1.803 . S
C2023 C580 1.795 . S
C2027 C478 1.798 . S
C2041 C614 1.801 . S
C2045 C716 1.795 . S
C2059 C750 1.794 . S
C2063 C648 1.799 . S
C2077 C784 1.796 . S
C2081 C682 1.803 . S
C2095 C920 1.796 . S
C2099 C818 1.802 . S
C2113 C954 1.799 . S
C2117 C852 1.803 . S
C2131 C988 1.797 . S
C2135 C886 1.795 . S
C2149 C1124 1.797 . S
C2153 C1022 1.795 . S
C2167 C1158 1.803 . S
C2171 C1056 1.799 . S
C2185 C1090 1.801 . S
C2189 C1192 1.795 . S
C2203 C20 1.826 . S
C2207 C564 1.830 . S
C2221 C598 1.831 . S
C2225 C54 1.833 . S
C2239 C88 1.824 . S
C2243 C530 1.823 . S
C2257 C904 1.825 . S
C2261 C122 1.823 . S
C2275 C156 1.826 . S
C2279 C836 1.823 . S
C2293 C870 1.826 . S
C2297 C190 1.823 . S
C2311 C1176 1.823 . S
C2315 C224 1.823 . S
C2329 C258 1.833 . S
C2333 C1210 1.832 . S
C2347 C1142 1.832 . S
C2351 C292 1.830 . S
C2365 C326 1.832 . S
C2369 C700 1.829 . S
C2383 C360 1.828 . S
C2387 C632 1.831 . S
C2401 C666 1.823 . S
C2405 C394 1.824 . S
C2419 C972 1.832 . S
C2423 C428 1.832 . S
C2437 C1006 1.826 . S
C2441 C462 1.829 . S
C2455 C496 1.827 . S
C2459 C938 1.823 . S
C2473 C734 1.832 . S
C2477 C1108 1.830 . S
C2491 C768 1.832 . S
C2495 C1040 1.832 . S
C2509 C1074 1.832 . S
C2513 C802 1.829 . S
C2527 C991 0.976 . S
C2531 C5 0.985 . S
C2545 C923 0.979 . S
C2549 C39 0.981 . S
C2563 C957 0.986 . S
C2567 C73 0.975 . S
C2581 C107 0.982 . S
C2585 C447 0.980 . S
C2599 C141 0.977 . S
C2603 C481 0.983 . S
C2617 C413 0.976 . S
C2621 C175 0.984 . S
C2635 C209 0.976 . S
C2639 C787 0.985 . S
C2653 C719 0.980 . S
C2657 C243 0.980 . S
C2671 C277 0.977 . S
C2675 C753 0.983 . S
C2689 C311 0.981 . S
C2693 C1059 0.979 . S
C2707 C1093 0.980 . S
C2711 C345 0.982 . S
C2725 C379 0.975 . S
C2729 C1025 0.986 . S
C2743 C855 0.980 . S
C2747 C515 0.982 . S
C2761 C549 0.981 . S
C2765 C889 0.981 . S
C2779 C583 0.980 . S
C2783 C821 0.980 . S
C2797 C617 0.987 . S
C2801 C1195 0.974 . S
C2815 C1127 0.985 . S
C2819 C651 0.976 . S
C2833 C1161 0.980 . S
C2837 C685 0.982 . S
