# Generated by pormake.
# Topology wjz, (5)-cn, num edge types: 1
# Building blocks:
#     Node 0, Type 0, BuildingBlock: XOMCOT_clean_sbu_0, # of connection points: 5
#     Node 1, Type 0, BuildingBlock: XOMCOT_clean_sbu_0, # of connection points: 5
#     Node 2, Type 0, BuildingBlock: XOMCOT_clean_sbu_0, # of connection points: 5
#     Node 3, Type 0, BuildingBlock: XOMCOT_clean_sbu_0, # of connection points: 5
#     Node 4, Type 0, BuildingBlock: XOMCOT_clean_sbu_0, # of connection points: 5
#     Node 5, Type 0, BuildingBlock: XOMCOT_clean_sbu_0, # of connection points: 5
#     Node 6, Type 0, BuildingBlock: XOMCOT_clean_sbu_0, # of connection points: 5
#     Node 7, Type 0, BuildingBlock: XOMCOT_clean_sbu_0, # of connection points: 5
#     Node 8, Type 0, BuildingBlock: XOMCOT_clean_sbu_0, # of connection points: 5
#     Node 9, Type 0, BuildingBlock: XOMCOT_clean_sbu_0, # of connection points: 5
#     Node 10, Type 0, BuildingBlock: XOMCOT_clean_sbu_0, # of connection points: 5
#     Node 11, Type 0, BuildingBlock: XOMCOT_clean_sbu_0, # of connection points: 5
#     Edge 12, Type (0, 0), None
#     Edge 13, Type (0, 0), None
#     Edge 14, Type (0, 0), None
#     Edge 15, Type (0, 0), None
#     Edge 16, Type (0, 0), None
#     Edge 17, Type (0, 0), None
#     Edge 18, Type (0, 0), None
#     Edge 19, Type (0, 0), None
#     Edge 20, Type (0, 0), None
#     Edge 21, Type (0, 0), None
#     Edge 22, Type (0, 0), None
#     Edge 23, Type (0, 0), None
#     Edge 24, Type (0, 0), None
#     Edge 25, Type (0, 0), None
#     Edge 26, Type (0, 0), None
#     Edge 27, Type (0, 0), None
#     Edge 28, Type (0, 0), None
#     Edge 29, Type (0, 0), None
#     Edge 30, Type (0, 0), None
#     Edge 31, Type (0, 0), None
#     Edge 32, Type (0, 0), None
#     Edge 33, Type (0, 0), None
#     Edge 34, Type (0, 0), None
#     Edge 35, Type (0, 0), None
#     Edge 36, Type (0, 0), None
#     Edge 37, Type (0, 0), None
#     Edge 38, Type (0, 0), None
#     Edge 39, Type (0, 0), None
#     Edge 40, Type (0, 0), None
#     Edge 41, Type (0, 0), None
# Relax obj value: 0.163
# Max RMSD: 0.191
# Mean RMSD: 0.191
data_MOF--net-wjz--node1-XOMCOT_clean_sbu_0--edge1-none
_symmetry_space_group_name_H-M    P1
_symmetry_Int_Tables_number       1
_symmetry_cell_setting            triclinic
loop_
_symmetry_equiv_pos_as_xyz
'x, y, z'
_cell_length_a     36.0152
_cell_length_b     36.01375
_cell_length_c     9.1114332
_cell_angle_alpha  89.998942
_cell_angle_beta   90.002029
_cell_angle_gamma 119.9945
loop_
_atom_site_label
_atom_site_type_symbol
_atom_site_fract_x
_atom_site_fract_y
_atom_site_fract_z
_atom_type_partial_charge
Co0 Co 0.34202 0.49737 0.12786 0.0
C1 C 0.35172 0.4905 0.43558 0.0
C2 C 0.36989 0.55519 0.3804 0.0
C3 C 0.35986 0.54897 0.52811 0.0
N4 N 0.36399 0.51817 0.32195 0.0
N5 N 0.34782 0.50799 0.56043 0.0
H6 H 0.33933 0.45656 0.42238 0.0
H7 H 0.37419 0.58234 0.31674 0.0
C8 C 0.40396 0.57931 0.97392 0.0
O9 O 0.38037 0.59577 1.01595 0.0
N10 N 0.31934 0.47635 0.93298 0.0
C11 C 0.31147 0.43906 0.87036 0.0
C12 C 0.31722 0.44475 0.72117 0.0
C13 C 0.3266 0.50304 0.81877 0.0
N14 N 0.32794 0.48544 0.69033 0.0
C15 C 0.34049 0.41734 0.17503 0.0
C16 C 0.42836 0.45205 0.1877 0.0
C17 C 0.40193 0.40826 0.21585 0.0
C18 C 0.35743 0.39081 0.20808 0.0
C19 C 0.41018 0.47725 0.15186 0.0
N20 N 0.36666 0.45982 0.14314 0.0
H21 H 0.30614 0.40383 0.17825 0.0
H22 H 0.43153 0.5112 0.13846 0.0
H23 H 0.30571 0.41051 0.92704 0.0
H24 H 0.33469 0.53597 0.83029 0.0
O25 O 0.28626 0.46063 0.2189 0.0
O26 O 0.30926 0.52677 0.14134 0.0
O27 O 0.39612 0.54285 1.02415 0.0
C28 C 0.28058 0.49346 0.21316 0.0
H29 H 0.35743 0.57131 0.60123 0.0
H30 H 0.3172 0.42187 0.64429 0.0
H31 H 0.46294 0.46677 0.19326 0.0
H32 H 0.3359 0.35719 0.23126 0.0
Co33 Co 0.8479 0.34041 0.29444 0.0
C34 C 0.86447 0.3501 0.60217 0.0
C35 C 0.81797 0.36829 0.54699 0.0
C36 C 0.81416 0.35826 0.6947 0.0
N37 N 0.84907 0.36237 0.48853 0.0
N38 N 0.84308 0.34621 0.72702 0.0
H39 H 0.886 0.33769 0.58896 0.0
H40 H 0.79513 0.37261 0.48333 0.0
C41 C 0.82791 0.40236 0.14056 0.0
O42 O 0.78786 0.37878 0.18261 0.0
N43 N 0.84624 0.31772 0.09956 0.0
C44 C 0.87565 0.30984 0.03695 0.0
C45 C 0.87571 0.31559 0.88776 0.0
C46 C 0.82682 0.325 0.98536 0.0
N47 N 0.84575 0.32632 0.85692 0.0
C48 C 0.9264 0.33887 0.34161 0.0
C49 C 0.97955 0.42674 0.35427 0.0
C50 C 0.99691 0.4003 0.38244 0.0
C51 C 0.96987 0.35581 0.37467 0.0
C52 C 0.93618 0.40857 0.31843 0.0
N53 N 0.91008 0.36504 0.30972 0.0
H54 H 0.90555 0.30451 0.34483 0.0
H55 H 0.92357 0.42991 0.30503 0.0
H56 H 0.89844 0.30407 0.09364 0.0
H57 H 0.80199 0.3331 0.99688 0.0
O58 O 0.82888 0.28463 0.38548 0.0
O59 O 0.78575 0.30765 0.30794 0.0
O60 O 0.85652 0.39451 0.19074 0.0
C61 C 0.79039 0.27896 0.37975 0.0
H62 H 0.7894 0.35585 0.76782 0.0
H63 H 0.89857 0.31556 0.81088 0.0
H64 H 0.9994 0.46132 0.35983 0.0
H65 H 0.98196 0.33428 0.39785 0.0
Co66 Co 0.51068 0.84628 0.46099 0.0
C67 C 0.51756 0.86286 0.76871 0.0
C68 C 0.45287 0.81638 0.71353 0.0
C69 C 0.45908 0.81256 0.86124 0.0
N70 N 0.48989 0.84747 0.65508 0.0
N71 N 0.50006 0.84147 0.89356 0.0
H72 H 0.5515 0.88437 0.75551 0.0
H73 H 0.4257 0.79354 0.64987 0.0
C74 C 0.42874 0.8263 0.3071 0.0
O75 O 0.41227 0.78625 0.34917 0.0
N76 N 0.53169 0.8446 0.26611 0.0
C77 C 0.56898 0.87399 0.2035 0.0
C78 C 0.5633 0.87406 0.05431 0.0
C79 C 0.505 0.82519 0.15191 0.0
N80 N 0.5226 0.84411 1.02347 0.0
C81 C 0.59072 0.92476 0.50812 0.0
C82 C 0.55603 0.97795 0.52072 0.0
C83 C 0.59982 0.99528 0.54891 0.0
C84 C 0.61725 0.96822 0.54116 0.0
C85 C 0.53082 0.93458 0.4849 0.0
N86 N 0.54824 0.90846 0.47622 0.0
H87 H 0.60421 0.9039 0.51137 0.0
H88 H 0.49688 0.92198 0.47148 0.0
H89 H 0.59755 0.89677 0.2602 0.0
H90 H 0.47206 0.80037 0.16342 0.0
O91 O 0.54741 0.82724 0.55205 0.0
O92 O 0.48127 0.78412 0.47455 0.0
O93 O 0.4652 0.85491 0.35728 0.0
C94 C 0.51458 0.78875 0.54636 0.0
H95 H 0.43672 0.7878 0.93436 0.0
H96 H 0.58619 0.89692 0.97743 0.0
H97 H 0.54131 0.99781 0.52626 0.0
H98 H 0.65087 0.9803 0.56436 0.0
Co99 Co 0.66765 0.5091 0.62788 0.0
C100 C 0.65795 0.51598 0.93561 0.0
C101 C 0.63978 0.45129 0.88043 0.0
C102 C 0.64981 0.45751 0.02814 0.0
N103 N 0.64568 0.48831 0.82198 0.0
N104 N 0.66185 0.49849 0.06046 0.0
H105 H 0.67034 0.54991 0.9224 0.0
H106 H 0.63548 0.42413 0.81678 0.0
C107 C 0.60571 0.42717 0.47395 0.0
O108 O 0.6293 0.4107 0.51599 0.0
N109 N 0.69033 0.53013 0.43301 0.0
C110 C 0.6982 0.56742 0.37039 0.0
C111 C 0.69245 0.56173 0.2212 0.0
C112 C 0.68307 0.50344 0.31881 0.0
N113 N 0.68173 0.52104 0.19037 0.0
C114 C 0.66917 0.58914 0.67505 0.0
C115 C 0.58131 0.55443 0.68771 0.0
C116 C 0.60774 0.59822 0.71586 0.0
C117 C 0.65224 0.61567 0.7081 0.0
C118 C 0.59948 0.52923 0.65188 0.0
N119 N 0.64301 0.54666 0.64316 0.0
H120 H 0.70353 0.60264 0.67827 0.0
H121 H 0.57814 0.49528 0.63848 0.0
H122 H 0.70396 0.59597 0.42707 0.0
H123 H 0.67498 0.47051 0.33033 0.0
O124 O 0.72341 0.54585 0.71893 0.0
O125 O 0.70041 0.47971 0.64138 0.0
O126 O 0.61354 0.46362 0.52417 0.0
C127 C 0.72909 0.51302 0.7132 0.0
H128 H 0.65224 0.43516 0.10127 0.0
H129 H 0.69246 0.58461 0.14431 0.0
H130 H 0.54673 0.5397 0.69327 0.0
H131 H 0.67377 0.64929 0.73127 0.0
Co132 Co 0.16177 0.66607 0.79439 0.0
C133 C 0.1452 0.65637 0.10211 0.0
C134 C 0.1917 0.63819 0.04695 0.0
C135 C 0.19551 0.64822 0.19466 0.0
N136 N 0.1606 0.6441 0.98848 0.0
N137 N 0.16659 0.66027 0.22697 0.0
H138 H 0.12367 0.66878 0.0889 0.0
H139 H 0.21455 0.63387 0.98329 0.0
C140 C 0.18176 0.60412 0.64052 0.0
O141 O 0.22181 0.6277 0.68256 0.0
N142 N 0.16342 0.68875 0.59951 0.0
C143 C 0.13402 0.69663 0.53689 0.0
C144 C 0.13395 0.69088 0.3877 0.0
C145 C 0.18285 0.68148 0.48532 0.0
N146 N 0.16392 0.68015 0.35687 0.0
C147 C 0.08326 0.6676 0.84155 0.0
C148 C 0.03012 0.57973 0.85424 0.0
C149 C 0.01277 0.60617 0.88241 0.0
C150 C 0.03981 0.65067 0.87462 0.0
C151 C 0.07349 0.59791 0.81839 0.0
N152 N 0.09959 0.64144 0.80966 0.0
H153 H 0.10412 0.70196 0.84476 0.0
H154 H 0.08609 0.57656 0.80498 0.0
H155 H 0.11122 0.7024 0.59357 0.0
H156 H 0.20768 0.67338 0.49684 0.0
O157 O 0.18079 0.72184 0.88542 0.0
O158 O 0.22392 0.69883 0.80789 0.0
O159 O 0.15315 0.61196 0.6907 0.0
C160 C 0.21928 0.72751 0.87969 0.0
H161 H 0.22028 0.65063 0.26779 0.0
H162 H 0.11109 0.69091 0.31081 0.0
H163 H 0.01027 0.54516 0.85981 0.0
H164 H 0.02772 0.6722 0.89781 0.0
Co165 Co 0.499 0.1602 0.96102 0.0
C166 C 0.49211 0.14362 0.26875 0.0
C167 C 0.55681 0.1901 0.21357 0.0
C168 C 0.55059 0.19392 0.36128 0.0
N169 N 0.51978 0.15901 0.15511 0.0
N170 N 0.50961 0.16501 0.3936 0.0
H171 H 0.45817 0.12211 0.25553 0.0
H172 H 0.58397 0.21294 0.14992 0.0
C173 C 0.58094 0.18018 0.80714 0.0
O174 O 0.5974 0.22023 0.84921 0.0
N175 N 0.47798 0.16188 0.76614 0.0
C176 C 0.44069 0.13249 0.70352 0.0
C177 C 0.44637 0.13242 0.55433 0.0
C178 C 0.50467 0.18129 0.65194 0.0
N179 N 0.48707 0.16237 0.5235 0.0
C180 C 0.41895 0.08172 1.00814 0.0
C181 C 0.45364 0.02853 1.02074 0.0
C182 C 0.40986 0.01119 0.04891 0.0
C183 C 0.39242 0.03825 0.04117 0.0
C184 C 0.47885 0.0719 0.98492 0.0
N185 N 0.46143 0.09802 0.97624 0.0
H186 H 0.40546 0.10258 1.01138 0.0
H187 H 0.5128 0.08449 0.97152 0.0
H188 H 0.41213 0.10971 0.76021 0.0
H189 H 0.53761 0.20611 0.66345 0.0
O190 O 0.46226 0.17924 0.05207 0.0
O191 O 0.5284 0.22236 0.97458 0.0
O192 O 0.54447 0.15157 0.85732 0.0
C193 C 0.49509 0.21773 0.04639 0.0
H194 H 0.57295 0.21868 0.43441 0.0
H195 H 0.42348 0.10956 0.47745 0.0
H196 H 0.46836 0.00867 0.02628 0.0
H197 H 0.3588 0.02618 0.06436 0.0
Co198 Co 0.5041 0.69251 0.74209 0.0
C199 C 0.5144 0.6847 0.43077 0.0
C200 C 0.44827 0.65423 0.49138 0.0
C201 C 0.45169 0.66373 0.34338 0.0
N202 N 0.4878 0.66823 0.54729 0.0
N203 N 0.4935 0.68344 0.3075 0.0
H204 H 0.5486 0.7037 0.43895 0.0
H205 H 0.41992 0.64454 0.55726 0.0
C206 C 0.4363 0.60095 0.85542 0.0
O207 O 0.45011 0.57947 0.77829 0.0
N208 N 0.51964 0.71695 0.93565 0.0
C209 C 0.55907 0.73345 0.99485 0.0
C210 C 0.55487 0.72659 0.14423 0.0
C211 C 0.49227 0.70262 0.05034 0.0
N212 N 0.51271 0.7063 0.17732 0.0
C213 C 0.57822 0.68452 0.68056 0.0
C214 C 0.55636 0.61374 0.85322 0.0
C215 C 0.58861 0.62552 0.74727 0.0
C216 C 0.60133 0.66307 0.66711 0.0
C217 C 0.53483 0.63702 0.86492 0.0
N218 N 0.54217 0.66839 0.76554 0.0
H219 H 0.58925 0.71391 0.62062 0.0
H220 H 0.51183 0.62912 0.95194 0.0
H221 H 0.58819 0.74404 0.93236 0.0
H222 H 0.45779 0.68513 0.03958 0.0
O223 O 0.54461 0.74758 0.65276 0.0
O224 O 0.4764 0.72562 0.6984 0.0
O225 O 0.45223 0.64131 0.83719 0.0
C226 C 0.51225 0.75381 0.63779 0.0
H227 H 0.42614 0.66058 0.2727 0.0
H228 H 0.58048 0.73213 0.21889 0.0
H229 H 0.54762 0.58663 0.92502 0.0
H230 H 0.62774 0.67481 0.5901 0.0
Co231 Co 0.81486 0.50254 0.90884 0.0
C232 C 0.83296 0.51284 0.59752 0.0
C233 C 0.7973 0.4467 0.65814 0.0
C234 C 0.79123 0.45012 0.51013 0.0
N235 N 0.82283 0.48623 0.71404 0.0
N236 N 0.81333 0.49194 0.47425 0.0
H237 H 0.84815 0.54703 0.60571 0.0
H238 H 0.77865 0.41835 0.72401 0.0
C239 C 0.83861 0.43471 1.02209 0.0
O240 O 0.87389 0.44852 0.94491 0.0
N241 N 0.80596 0.51809 0.1024 0.0
C242 C 0.8289 0.55751 0.1616 0.0
C243 C 0.83155 0.55331 0.31098 0.0
C244 C 0.79292 0.49071 0.21709 0.0
N245 N 0.80968 0.51115 0.34407 0.0
C246 C 0.89694 0.57666 0.84729 0.0
C247 C 0.94588 0.55478 1.01981 0.0
C248 C 0.96633 0.58704 0.91388 0.0
C249 C 0.9415 0.59977 0.83378 0.0
C250 C 0.90108 0.53325 0.03157 0.0
N251 N 0.87704 0.54061 0.93225 0.0
H252 H 0.87859 0.5877 0.78739 0.0
H253 H 0.88598 0.51024 0.11857 0.0
H254 H 0.84743 0.58663 0.09911 0.0
H255 H 0.77593 0.45623 0.20633 0.0
O256 O 0.80029 0.54305 0.81952 0.0
O257 O 0.75405 0.47484 0.86519 0.0
O258 O 0.8142 0.45067 1.00393 0.0
C259 C 0.7617 0.51069 0.80458 0.0
H260 H 0.76884 0.42457 0.43944 0.0
H261 H 0.85162 0.57892 0.38563 0.0
H262 H 0.96427 0.54604 0.09156 0.0
H263 H 0.95616 0.62619 0.7568 0.0
Co264 Co 0.31553 0.81327 0.07532 0.0
C265 C 0.32334 0.83138 0.764 0.0
C266 C 0.35379 0.79569 0.82462 0.0
C267 C 0.3443 0.78963 0.67662 0.0
N268 N 0.33981 0.82124 0.88052 0.0
N269 N 0.3246 0.81174 0.64073 0.0
H270 H 0.30435 0.84658 0.77218 0.0
H271 H 0.36349 0.77703 0.8905 0.0
C272 C 0.4071 0.83701 0.18861 0.0
O273 O 0.42858 0.87229 0.11142 0.0
N274 N 0.29109 0.80439 0.26888 0.0
C275 C 0.27461 0.82734 0.32807 0.0
C276 C 0.28147 0.82999 0.47746 0.0
C277 C 0.30542 0.79134 0.38357 0.0
N278 N 0.30174 0.8081 0.51055 0.0
C279 C 0.32353 0.89538 1.01375 0.0
C280 C 0.39433 0.94429 0.18631 0.0
C281 C 0.38255 0.96476 0.08035 0.0
C282 C 0.34499 0.93995 1.00024 0.0
C283 C 0.37104 0.89949 0.19807 0.0
N284 N 0.33966 0.87547 0.09872 0.0
H285 H 0.29413 0.87703 0.95383 0.0
H286 H 0.37894 0.88439 0.28509 0.0
H287 H 0.26403 0.84588 0.26558 0.0
H288 H 0.3229 0.77433 0.37281 0.0
O289 O 0.26046 0.79872 0.98599 0.0
O290 O 0.28242 0.75247 0.0317 0.0
O291 O 0.36673 0.8126 0.17043 0.0
C292 C 0.25423 0.76012 0.97107 0.0
H293 H 0.34745 0.76723 0.60593 0.0
H294 H 0.27593 0.85006 0.55211 0.0
H295 H 0.42145 0.96267 0.25808 0.0
H296 H 0.33325 0.95462 0.92323 0.0
Co297 Co 0.50557 0.31397 0.24211 0.0
C298 C 0.49526 0.32178 0.93079 0.0
C299 C 0.5614 0.35224 0.99142 0.0
C300 C 0.55798 0.34275 0.84341 0.0
N301 N 0.52187 0.33825 0.04731 0.0
N302 N 0.51616 0.32304 0.80753 0.0
H303 H 0.46107 0.30278 0.93896 0.0
H304 H 0.58975 0.36194 0.0573 0.0
C305 C 0.57337 0.40553 0.35545 0.0
O306 O 0.55956 0.42701 0.27831 0.0
N307 N 0.49003 0.28952 0.43567 0.0
C308 C 0.4506 0.27303 0.49487 0.0
C309 C 0.4548 0.27988 0.64425 0.0
C310 C 0.5174 0.30386 0.55037 0.0
N311 N 0.49696 0.30017 0.67735 0.0
C312 C 0.43145 0.32196 0.18057 0.0
C313 C 0.45331 0.39274 0.35322 0.0
C314 C 0.42106 0.38095 0.24726 0.0
C315 C 0.40834 0.34341 0.1671 0.0
C316 C 0.47484 0.36945 0.36493 0.0
N317 N 0.4675 0.33809 0.26555 0.0
H318 H 0.42042 0.29257 0.12062 0.0
H319 H 0.49784 0.37736 0.45196 0.0
H320 H 0.42148 0.26244 0.43237 0.0
H321 H 0.55188 0.32134 0.53961 0.0
O322 O 0.46506 0.2589 0.15278 0.0
O323 O 0.53327 0.28086 0.19844 0.0
O324 O 0.55744 0.36517 0.33722 0.0
C325 C 0.49742 0.25267 0.13782 0.0
H326 H 0.58353 0.3459 0.77274 0.0
H327 H 0.42919 0.27435 0.7189 0.0
H328 H 0.46204 0.41985 0.42502 0.0
H329 H 0.38193 0.33167 0.0901 0.0
Co330 Co 0.19482 0.50394 0.4088 0.0
C331 C 0.17671 0.49364 0.09748 0.0
C332 C 0.21237 0.55978 0.1581 0.0
C333 C 0.21844 0.55636 1.01009 0.0
N334 N 0.18684 0.52025 0.214 0.0
N335 N 0.19634 0.51454 0.97421 0.0
H336 H 0.16152 0.45945 0.10566 0.0
H337 H 0.23102 0.58813 0.22397 0.0
C338 C 0.17106 0.57177 0.52205 0.0
O339 O 0.13578 0.55796 0.44487 0.0
N340 N 0.20371 0.4884 0.60236 0.0
C341 C 0.18078 0.44897 0.66156 0.0
C342 C 0.17813 0.45317 0.81094 0.0
C343 C 0.21675 0.51578 0.71705 0.0
N344 N 0.2 0.49533 0.84403 0.0
C345 C 0.11273 0.42983 0.34725 0.0
C346 C 0.0638 0.45169 0.51982 0.0
C347 C 0.04334 0.41944 0.41388 0.0
C348 C 0.06817 0.40671 0.33377 0.0
C349 C 0.1086 0.47322 0.53155 0.0
N350 N 0.13263 0.46587 0.43222 0.0
H351 H 0.13108 0.41878 0.28734 0.0
H352 H 0.1237 0.49624 0.61856 0.0
H353 H 0.16226 0.41985 0.59907 0.0
H354 H 0.23374 0.55025 0.70629 0.0
O355 O 0.20938 0.46343 0.31949 0.0
O356 O 0.25562 0.53164 0.36515 0.0
O357 O 0.19548 0.55582 0.50388 0.0
C358 C 0.24797 0.49579 0.30455 0.0
H359 H 0.24083 0.58191 0.9394 0.0
H360 H 0.15806 0.42756 0.88559 0.0
H361 H 0.04541 0.46044 0.59158 0.0
H362 H 0.0535 0.38029 0.25677 0.0
Co363 Co 0.69414 0.1932 0.57537 0.0
C364 C 0.68632 0.17509 0.26405 0.0
C365 C 0.65588 0.21079 0.32466 0.0
C366 C 0.66537 0.21685 0.17665 0.0
N367 N 0.66986 0.18524 0.38056 0.0
N368 N 0.68507 0.19473 0.14078 0.0
H369 H 0.70531 0.15989 0.27223 0.0
H370 H 0.64619 0.22945 0.39052 0.0
C371 C 0.60257 0.16947 0.68865 0.0
O372 O 0.58109 0.13419 0.61146 0.0
N373 N 0.71857 0.20209 0.76893 0.0
C374 C 0.73505 0.17914 0.82813 0.0
C375 C 0.7282 0.17649 0.97751 0.0
C376 C 0.70425 0.21514 0.88362 0.0
N377 N 0.70793 0.19838 1.0106 0.0
C378 C 0.68614 0.1111 0.51379 0.0
C379 C 0.61534 0.06218 0.68632 0.0
C380 C 0.62712 0.04172 0.58037 0.0
C381 C 0.66468 0.06653 0.50027 0.0
C382 C 0.63863 0.10698 0.69809 0.0
N383 N 0.67001 0.13101 0.59876 0.0
H384 H 0.71554 0.12945 0.4539 0.0
H385 H 0.63072 0.12208 0.78511 0.0
H386 H 0.74563 0.1606 0.76564 0.0
H387 H 0.68677 0.23215 0.87285 0.0
O388 O 0.7492 0.20776 0.48605 0.0
O389 O 0.72725 0.25401 0.53174 0.0
O390 O 0.64293 0.19388 0.67047 0.0
C391 C 0.75544 0.24635 0.47113 0.0
H392 H 0.66222 0.23925 0.10596 0.0
H393 H 0.73373 0.15641 0.05217 0.0
H394 H 0.58821 0.0438 0.75808 0.0
H395 H 0.67643 0.05186 0.42327 0.0
loop_
_geom_bond_atom_site_label_1
_geom_bond_atom_site_label_2
_geom_bond_distance
_geom_bond_site_symmetry_2
_ccdc_geom_bond_type
Co0 N4 2.148 . S
Co0 N10 2.128 1_554 S
Co0 N20 2.194 . S
Co0 O25 2.351 . S
Co0 O26 2.155 . S
Co0 O27 2.096 . S
C1 N4 1.301 . S
C1 N5 1.328 . S
C1 H6 0.930 . S
C2 C3 1.333 . S
C2 N4 1.317 . S
C2 H7 0.930 . S
C3 C2 1.333 . S
C3 N5 1.350 . S
C3 H29 0.931 . S
N4 Co0 2.148 . S
N4 C1 1.301 . S
N4 C2 1.317 . S
N5 C1 1.328 . S
N5 C3 1.350 . S
H6 C1 0.930 . S
H7 C2 0.930 . S
C8 O9 1.224 . S
C8 O27 1.247 1_556 S
O9 C8 1.224 . S
N10 Co0 2.128 1_556 S
N10 C11 1.355 . S
N10 C13 1.311 . S
C11 N10 1.355 . S
C11 C12 1.363 . S
C11 H23 0.929 . S
C12 C11 1.363 . S
C12 N14 1.375 . S
C12 H30 0.931 . S
C13 N10 1.311 . S
C13 N14 1.347 . S
C13 H24 0.929 . S
N14 C12 1.375 . S
N14 C13 1.347 . S
C15 C18 1.365 . S
C15 N20 1.328 . S
C15 H21 0.929 . S
C16 C17 1.362 . S
C16 C19 1.378 . S
C16 H31 0.929 . S
C17 C16 1.362 . S
C17 C18 1.366 . S
C18 C15 1.365 . S
C18 C17 1.366 . S
C18 H32 0.930 . S
C19 C16 1.378 . S
C19 N20 1.315 . S
C19 H22 0.930 . S
N20 Co0 2.194 . S
N20 C15 1.328 . S
N20 C19 1.315 . S
H21 C15 0.929 . S
H22 C19 0.930 . S
H23 C11 0.929 . S
H24 C13 0.929 . S
O25 Co0 2.351 . S
O25 C28 1.244 . S
O26 Co0 2.155 . S
O26 C28 1.240 . S
O27 Co0 2.096 . S
O27 C8 1.247 1_554 S
C28 O25 1.244 . S
C28 O26 1.240 . S
H29 C3 0.931 . S
H30 C12 0.931 . S
H31 C16 0.929 . S
H32 C18 0.930 . S
Co33 N37 2.148 . S
Co33 N43 2.128 . S
Co33 N53 2.194 . S
Co33 O58 2.351 . S
Co33 O59 2.155 . S
Co33 O60 2.096 . S
C34 N37 1.301 . S
C34 N38 1.328 . S
C34 H39 0.930 . S
C35 C36 1.333 . S
C35 N37 1.317 . S
C35 H40 0.930 . S
C36 C35 1.333 . S
C36 N38 1.350 . S
C36 H62 0.931 . S
N37 Co33 2.148 . S
N37 C34 1.301 . S
N37 C35 1.317 . S
N38 C34 1.328 . S
N38 C36 1.350 . S
H39 C34 0.930 . S
H40 C35 0.930 . S
C41 O42 1.224 . S
C41 O60 1.247 . S
O42 C41 1.224 . S
N43 Co33 2.128 . S
N43 C44 1.355 . S
N43 C46 1.311 1_554 S
C44 N43 1.355 . S
C44 C45 1.363 1_554 S
C44 H56 0.929 . S
C45 C44 1.363 1_556 S
C45 N47 1.375 . S
C45 H63 0.931 . S
C46 N43 1.311 1_556 S
C46 N47 1.347 . S
C46 H57 0.929 . S
N47 C45 1.375 . S
N47 C46 1.347 . S
C48 C51 1.365 . S
C48 N53 1.328 . S
C48 H54 0.929 . S
C49 C50 1.362 . S
C49 C52 1.378 . S
C49 H64 0.929 . S
C50 C49 1.362 . S
C50 C51 1.366 . S
C51 C48 1.365 . S
C51 C50 1.366 . S
C51 H65 0.930 . S
C52 C49 1.378 . S
C52 N53 1.315 . S
C52 H55 0.930 . S
N53 Co33 2.194 . S
N53 C48 1.328 . S
N53 C52 1.315 . S
H54 C48 0.929 . S
H55 C52 0.930 . S
H56 C44 0.929 . S
H57 C46 0.929 . S
O58 Co33 2.351 . S
O58 C61 1.244 . S
O59 Co33 2.155 . S
O59 C61 1.240 . S
O60 Co33 2.096 . S
O60 C41 1.247 . S
C61 O58 1.244 . S
C61 O59 1.240 . S
H62 C36 0.931 . S
H63 C45 0.931 . S
H64 C49 0.929 . S
H65 C51 0.930 . S
Co66 N70 2.148 . S
Co66 N76 2.128 . S
Co66 N86 2.194 . S
Co66 O91 2.351 . S
Co66 O92 2.155 . S
Co66 O93 2.096 . S
C67 N70 1.301 . S
C67 N71 1.328 . S
C67 H72 0.930 . S
C68 C69 1.333 . S
C68 N70 1.317 . S
C68 H73 0.930 . S
C69 C68 1.333 . S
C69 N71 1.350 . S
C69 H95 0.931 . S
N70 Co66 2.148 . S
N70 C67 1.301 . S
N70 C68 1.317 . S
N71 C67 1.328 . S
N71 C69 1.350 . S
H72 C67 0.930 . S
H73 C68 0.930 . S
C74 O75 1.224 . S
C74 O93 1.247 . S
O75 C74 1.224 . S
N76 Co66 2.128 . S
N76 C77 1.355 . S
N76 C79 1.311 . S
C77 N76 1.355 . S
C77 C78 1.363 . S
C77 H89 0.929 . S
C78 C77 1.363 . S
C78 N80 1.375 1_554 S
C78 H96 0.931 1_554 S
C79 N76 1.311 . S
C79 N80 1.347 1_554 S
C79 H90 0.929 . S
N80 C78 1.375 1_556 S
N80 C79 1.347 1_556 S
C81 C84 1.365 . S
C81 N86 1.328 . S
C81 H87 0.929 . S
C82 C83 1.362 . S
C82 C85 1.378 . S
C82 H97 0.929 . S
C83 C82 1.362 . S
C83 C84 1.366 . S
C84 C81 1.365 . S
C84 C83 1.366 . S
C84 H98 0.930 . S
C85 C82 1.378 . S
C85 N86 1.315 . S
C85 H88 0.930 . S
N86 Co66 2.194 . S
N86 C81 1.328 . S
N86 C85 1.315 . S
H87 C81 0.929 . S
H88 C85 0.930 . S
H89 C77 0.929 . S
H90 C79 0.929 . S
O91 Co66 2.351 . S
O91 C94 1.244 . S
O92 Co66 2.155 . S
O92 C94 1.240 . S
O93 Co66 2.096 . S
O93 C74 1.247 . S
C94 O91 1.244 . S
C94 O92 1.240 . S
H95 C69 0.931 . S
H96 C78 0.931 1_556 S
H97 C82 0.929 . S
H98 C84 0.930 . S
Co99 N103 2.148 . S
Co99 N109 2.128 . S
Co99 N119 2.194 . S
Co99 O124 2.351 . S
Co99 O125 2.155 . S
Co99 O126 2.096 . S
C100 N103 1.301 . S
C100 N104 1.328 1_556 S
C100 H105 0.930 . S
C101 C102 1.333 . S
C101 N103 1.317 . S
C101 H106 0.930 . S
C102 C101 1.333 . S
C102 N104 1.350 1_556 S
C102 H128 0.931 1_556 S
N103 Co99 2.148 . S
N103 C100 1.301 . S
N103 C101 1.317 . S
N104 C100 1.328 1_554 S
N104 C102 1.350 1_554 S
H105 C100 0.930 . S
H106 C101 0.930 . S
C107 O108 1.224 . S
C107 O126 1.247 . S
O108 C107 1.224 . S
N109 Co99 2.128 . S
N109 C110 1.355 . S
N109 C112 1.311 . S
C110 N109 1.355 . S
C110 C111 1.363 . S
C110 H122 0.929 . S
C111 C110 1.363 . S
C111 N113 1.375 . S
C111 H129 0.931 . S
C112 N109 1.311 . S
C112 N113 1.347 . S
C112 H123 0.929 . S
N113 C111 1.375 . S
N113 C112 1.347 . S
C114 C117 1.365 . S
C114 N119 1.328 . S
C114 H120 0.929 . S
C115 C116 1.362 . S
C115 C118 1.378 . S
C115 H130 0.929 . S
C116 C115 1.362 . S
C116 C117 1.366 . S
C117 C114 1.365 . S
C117 C116 1.366 . S
C117 H131 0.930 . S
C118 C115 1.378 . S
C118 N119 1.315 . S
C118 H121 0.930 . S
N119 Co99 2.194 . S
N119 C114 1.328 . S
N119 C118 1.315 . S
H120 C114 0.929 . S
H121 C118 0.930 . S
H122 C110 0.929 . S
H123 C112 0.929 . S
O124 Co99 2.351 . S
O124 C127 1.244 . S
O125 Co99 2.155 . S
O125 C127 1.240 . S
O126 Co99 2.096 . S
O126 C107 1.247 . S
C127 O124 1.244 . S
C127 O125 1.240 . S
H128 C102 0.931 1_554 S
H129 C111 0.931 . S
H130 C115 0.929 . S
H131 C117 0.930 . S
Co132 N136 2.148 . S
Co132 N142 2.128 . S
Co132 N152 2.194 . S
Co132 O157 2.351 . S
Co132 O158 2.155 . S
Co132 O159 2.096 . S
C133 N136 1.301 1_554 S
C133 N137 1.328 . S
C133 H138 0.930 . S
C134 C135 1.333 . S
C134 N136 1.317 1_554 S
C134 H139 0.930 1_554 S
C135 C134 1.333 . S
C135 N137 1.350 . S
C135 H161 0.931 . S
N136 Co132 2.148 . S
N136 C133 1.301 1_556 S
N136 C134 1.317 1_556 S
N137 C133 1.328 . S
N137 C135 1.350 . S
H138 C133 0.930 . S
H139 C134 0.930 1_556 S
C140 O141 1.224 . S
C140 O159 1.247 . S
O141 C140 1.224 . S
N142 Co132 2.128 . S
N142 C143 1.355 . S
N142 C145 1.311 . S
C143 N142 1.355 . S
C143 C144 1.363 . S
C143 H155 0.929 . S
C144 C143 1.363 . S
C144 N146 1.375 . S
C144 H162 0.931 . S
C145 N142 1.311 . S
C145 N146 1.347 . S
C145 H156 0.929 . S
N146 C144 1.375 . S
N146 C145 1.347 . S
C147 C150 1.365 . S
C147 N152 1.328 . S
C147 H153 0.929 . S
C148 C149 1.362 . S
C148 C151 1.378 . S
C148 H163 0.929 . S
C149 C148 1.362 . S
C149 C150 1.366 . S
C150 C147 1.365 . S
C150 C149 1.366 . S
C150 H164 0.930 . S
C151 C148 1.378 . S
C151 N152 1.315 . S
C151 H154 0.930 . S
N152 Co132 2.194 . S
N152 C147 1.328 . S
N152 C151 1.315 . S
H153 C147 0.929 . S
H154 C151 0.930 . S
H155 C143 0.929 . S
H156 C145 0.929 . S
O157 Co132 2.351 . S
O157 C160 1.244 . S
O158 Co132 2.155 . S
O158 C160 1.240 . S
O159 Co132 2.096 . S
O159 C140 1.247 . S
C160 O157 1.244 . S
C160 O158 1.240 . S
H161 C135 0.931 . S
H162 C144 0.931 . S
H163 C148 0.929 . S
H164 C150 0.930 . S
Co165 N169 2.148 1_556 S
Co165 N175 2.128 . S
Co165 N185 2.194 . S
Co165 O190 2.351 1_556 S
Co165 O191 2.155 . S
Co165 O192 2.096 . S
C166 N169 1.301 . S
C166 N170 1.328 . S
C166 H171 0.930 . S
C167 C168 1.333 . S
C167 N169 1.317 . S
C167 H172 0.930 . S
C168 C167 1.333 . S
C168 N170 1.350 . S
C168 H194 0.931 . S
N169 Co165 2.148 1_554 S
N169 C166 1.301 . S
N169 C167 1.317 . S
N170 C166 1.328 . S
N170 C168 1.350 . S
H171 C166 0.930 . S
H172 C167 0.930 . S
C173 O174 1.224 . S
C173 O192 1.247 . S
O174 C173 1.224 . S
N175 Co165 2.128 . S
N175 C176 1.355 . S
N175 C178 1.311 . S
C176 N175 1.355 . S
C176 C177 1.363 . S
C176 H188 0.929 . S
C177 C176 1.363 . S
C177 N179 1.375 . S
C177 H195 0.931 . S
C178 N175 1.311 . S
C178 N179 1.347 . S
C178 H189 0.929 . S
N179 C177 1.375 . S
N179 C178 1.347 . S
C180 C183 1.365 . S
C180 N185 1.328 1_554 S
C180 H186 0.929 . S
C181 C182 1.362 . S
C181 C184 1.378 . S
C181 H196 0.929 . S
C182 C181 1.362 . S
C182 C183 1.366 1_556 S
C183 C180 1.365 . S
C183 C182 1.366 1_554 S
C183 H197 0.930 . S
C184 C181 1.378 . S
C184 N185 1.315 . S
C184 H187 0.930 . S
N185 Co165 2.194 . S
N185 C180 1.328 1_556 S
N185 C184 1.315 . S
H186 C180 0.929 . S
H187 C184 0.930 . S
H188 C176 0.929 . S
H189 C178 0.929 . S
O190 Co165 2.351 1_554 S
O190 C193 1.244 . S
O191 Co165 2.155 . S
O191 C193 1.240 1_556 S
O192 Co165 2.096 . S
O192 C173 1.247 . S
C193 O190 1.244 . S
C193 O191 1.240 1_554 S
H194 C168 0.931 . S
H195 C177 0.931 . S
H196 C181 0.929 . S
H197 C183 0.930 . S
Co198 N202 2.148 . S
Co198 N208 2.128 . S
Co198 N218 2.194 . S
Co198 O223 2.351 . S
Co198 O224 2.155 . S
Co198 O225 2.096 . S
C199 N202 1.301 . S
C199 N203 1.328 . S
C199 H204 0.930 . S
C200 C201 1.333 . S
C200 N202 1.317 . S
C200 H205 0.930 . S
C201 C200 1.333 . S
C201 N203 1.350 . S
C201 H227 0.931 . S
N202 Co198 2.148 . S
N202 C199 1.301 . S
N202 C200 1.317 . S
N203 C199 1.328 . S
N203 C201 1.350 . S
H204 C199 0.930 . S
H205 C200 0.930 . S
C206 O207 1.224 . S
C206 O225 1.247 . S
O207 C206 1.224 . S
N208 Co198 2.128 . S
N208 C209 1.355 . S
N208 C211 1.311 1_556 S
C209 N208 1.355 . S
C209 C210 1.363 1_556 S
C209 H221 0.929 . S
C210 C209 1.363 1_554 S
C210 N212 1.375 . S
C210 H228 0.931 . S
C211 N208 1.311 1_554 S
C211 N212 1.347 . S
C211 H222 0.929 . S
N212 C210 1.375 . S
N212 C211 1.347 . S
C213 C216 1.365 . S
C213 N218 1.328 . S
C213 H219 0.929 . S
C214 C215 1.362 . S
C214 C217 1.378 . S
C214 H229 0.929 . S
C215 C214 1.362 . S
C215 C216 1.366 . S
C216 C213 1.365 . S
C216 C215 1.366 . S
C216 H230 0.930 . S
C217 C214 1.378 . S
C217 N218 1.315 . S
C217 H220 0.930 . S
N218 Co198 2.194 . S
N218 C213 1.328 . S
N218 C217 1.315 . S
H219 C213 0.929 . S
H220 C217 0.930 . S
H221 C209 0.929 . S
H222 C211 0.929 . S
O223 Co198 2.351 . S
O223 C226 1.244 . S
O224 Co198 2.155 . S
O224 C226 1.240 . S
O225 Co198 2.096 . S
O225 C206 1.247 . S
C226 O223 1.244 . S
C226 O224 1.240 . S
H227 C201 0.931 . S
H228 C210 0.931 . S
H229 C214 0.929 . S
H230 C216 0.930 . S
Co231 N235 2.148 . S
Co231 N241 2.128 1_556 S
Co231 N251 2.194 . S
Co231 O256 2.351 . S
Co231 O257 2.155 . S
Co231 O258 2.096 . S
C232 N235 1.301 . S
C232 N236 1.328 . S
C232 H237 0.930 . S
C233 C234 1.333 . S
C233 N235 1.317 . S
C233 H238 0.930 . S
C234 C233 1.333 . S
C234 N236 1.350 . S
C234 H260 0.931 . S
N235 Co231 2.148 . S
N235 C232 1.301 . S
N235 C233 1.317 . S
N236 C232 1.328 . S
N236 C234 1.350 . S
H237 C232 0.930 . S
H238 C233 0.930 . S
C239 O240 1.224 . S
C239 O258 1.247 1_554 S
O240 C239 1.224 . S
N241 Co231 2.128 1_554 S
N241 C242 1.355 . S
N241 C244 1.311 . S
C242 N241 1.355 . S
C242 C243 1.363 . S
C242 H254 0.929 . S
C243 C242 1.363 . S
C243 N245 1.375 . S
C243 H261 0.931 . S
C244 N241 1.311 . S
C244 N245 1.347 . S
C244 H255 0.929 . S
N245 C243 1.375 . S
N245 C244 1.347 . S
C246 C249 1.365 . S
C246 N251 1.328 . S
C246 H252 0.929 . S
C247 C248 1.362 . S
C247 C250 1.378 . S
C247 H262 0.929 . S
C248 C247 1.362 . S
C248 C249 1.366 . S
C249 C246 1.365 . S
C249 C248 1.366 . S
C249 H263 0.930 . S
C250 C247 1.378 . S
C250 N251 1.315 . S
C250 H253 0.930 . S
N251 Co231 2.194 . S
N251 C246 1.328 . S
N251 C250 1.315 . S
H252 C246 0.929 . S
H253 C250 0.930 . S
H254 C242 0.929 . S
H255 C244 0.929 . S
O256 Co231 2.351 . S
O256 C259 1.244 . S
O257 Co231 2.155 . S
O257 C259 1.240 . S
O258 Co231 2.096 . S
O258 C239 1.247 1_556 S
C259 O256 1.244 . S
C259 O257 1.240 . S
H260 C234 0.931 . S
H261 C243 0.931 . S
H262 C247 0.929 . S
H263 C249 0.930 . S
Co264 N268 2.148 1_554 S
Co264 N274 2.128 . S
Co264 N284 2.194 . S
Co264 O289 2.351 1_554 S
Co264 O290 2.155 . S
Co264 O291 2.096 . S
C265 N268 1.301 . S
C265 N269 1.328 . S
C265 H270 0.930 . S
C266 C267 1.333 . S
C266 N268 1.317 . S
C266 H271 0.930 . S
C267 C266 1.333 . S
C267 N269 1.350 . S
C267 H293 0.931 . S
N268 Co264 2.148 1_556 S
N268 C265 1.301 . S
N268 C266 1.317 . S
N269 C265 1.328 . S
N269 C267 1.350 . S
H270 C265 0.930 . S
H271 C266 0.930 . S
C272 O273 1.224 . S
C272 O291 1.247 . S
O273 C272 1.224 . S
N274 Co264 2.128 . S
N274 C275 1.355 . S
N274 C277 1.311 . S
C275 N274 1.355 . S
C275 C276 1.363 . S
C275 H287 0.929 . S
C276 C275 1.363 . S
C276 N278 1.375 . S
C276 H294 0.931 . S
C277 N274 1.311 . S
C277 N278 1.347 . S
C277 H288 0.929 . S
N278 C276 1.375 . S
N278 C277 1.347 . S
C279 C282 1.365 . S
C279 N284 1.328 1_556 S
C279 H285 0.929 . S
C280 C281 1.362 . S
C280 C283 1.378 . S
C280 H295 0.929 . S
C281 C280 1.362 . S
C281 C282 1.366 1_554 S
C282 C279 1.365 . S
C282 C281 1.366 1_556 S
C282 H296 0.930 . S
C283 C280 1.378 . S
C283 N284 1.315 . S
C283 H286 0.930 . S
N284 Co264 2.194 . S
N284 C279 1.328 1_554 S
N284 C283 1.315 . S
H285 C279 0.929 . S
H286 C283 0.930 . S
H287 C275 0.929 . S
H288 C277 0.929 . S
O289 Co264 2.351 1_556 S
O289 C292 1.244 . S
O290 Co264 2.155 . S
O290 C292 1.240 1_554 S
O291 Co264 2.096 . S
O291 C272 1.247 . S
C292 O289 1.244 . S
C292 O290 1.240 1_556 S
H293 C267 0.931 . S
H294 C276 0.931 . S
H295 C280 0.929 . S
H296 C282 0.930 . S
Co297 N301 2.148 . S
Co297 N307 2.128 . S
Co297 N317 2.194 . S
Co297 O322 2.351 . S
Co297 O323 2.155 . S
Co297 O324 2.096 . S
C298 N301 1.301 1_556 S
C298 N302 1.328 . S
C298 H303 0.930 . S
C299 C300 1.333 . S
C299 N301 1.317 1_556 S
C299 H304 0.930 1_556 S
C300 C299 1.333 . S
C300 N302 1.350 . S
C300 H326 0.931 . S
N301 Co297 2.148 . S
N301 C298 1.301 1_554 S
N301 C299 1.317 1_554 S
N302 C298 1.328 . S
N302 C300 1.350 . S
H303 C298 0.930 . S
H304 C299 0.930 1_554 S
C305 O306 1.224 . S
C305 O324 1.247 . S
O306 C305 1.224 . S
N307 Co297 2.128 . S
N307 C308 1.355 . S
N307 C310 1.311 . S
C308 N307 1.355 . S
C308 C309 1.363 . S
C308 H320 0.929 . S
C309 C308 1.363 . S
C309 N311 1.375 . S
C309 H327 0.931 . S
C310 N307 1.311 . S
C310 N311 1.347 . S
C310 H321 0.929 . S
N311 C309 1.375 . S
N311 C310 1.347 . S
C312 C315 1.365 . S
C312 N317 1.328 . S
C312 H318 0.929 . S
C313 C314 1.362 . S
C313 C316 1.378 . S
C313 H328 0.929 . S
C314 C313 1.362 . S
C314 C315 1.366 . S
C315 C312 1.365 . S
C315 C314 1.366 . S
C315 H329 0.930 . S
C316 C313 1.378 . S
C316 N317 1.315 . S
C316 H319 0.930 . S
N317 Co297 2.194 . S
N317 C312 1.328 . S
N317 C316 1.315 . S
H318 C312 0.929 . S
H319 C316 0.930 . S
H320 C308 0.929 . S
H321 C310 0.929 . S
O322 Co297 2.351 . S
O322 C325 1.244 . S
O323 Co297 2.155 . S
O323 C325 1.240 . S
O324 Co297 2.096 . S
O324 C305 1.247 . S
C325 O322 1.244 . S
C325 O323 1.240 . S
H326 C300 0.931 . S
H327 C309 0.931 . S
H328 C313 0.929 . S
H329 C315 0.930 . S
Co330 N334 2.148 . S
Co330 N340 2.128 . S
Co330 N350 2.194 . S
Co330 O355 2.351 . S
Co330 O356 2.155 . S
Co330 O357 2.096 . S
C331 N334 1.301 . S
C331 N335 1.328 1_554 S
C331 H336 0.930 . S
C332 C333 1.333 . S
C332 N334 1.317 . S
C332 H337 0.930 . S
C333 C332 1.333 . S
C333 N335 1.350 1_554 S
C333 H359 0.931 1_554 S
N334 Co330 2.148 . S
N334 C331 1.301 . S
N334 C332 1.317 . S
N335 C331 1.328 1_556 S
N335 C333 1.350 1_556 S
H336 C331 0.930 . S
H337 C332 0.930 . S
C338 O339 1.224 . S
C338 O357 1.247 . S
O339 C338 1.224 . S
N340 Co330 2.128 . S
N340 C341 1.355 . S
N340 C343 1.311 . S
C341 N340 1.355 . S
C341 C342 1.363 . S
C341 H353 0.929 . S
C342 C341 1.363 . S
C342 N344 1.375 . S
C342 H360 0.931 . S
C343 N340 1.311 . S
C343 N344 1.347 . S
C343 H354 0.929 . S
N344 C342 1.375 . S
N344 C343 1.347 . S
C345 C348 1.365 . S
C345 N350 1.328 . S
C345 H351 0.929 . S
C346 C347 1.362 . S
C346 C349 1.378 . S
C346 H361 0.929 . S
C347 C346 1.362 . S
C347 C348 1.366 . S
C348 C345 1.365 . S
C348 C347 1.366 . S
C348 H362 0.930 . S
C349 C346 1.378 . S
C349 N350 1.315 . S
C349 H352 0.930 . S
N350 Co330 2.194 . S
N350 C345 1.328 . S
N350 C349 1.315 . S
H351 C345 0.929 . S
H352 C349 0.930 . S
H353 C341 0.929 . S
H354 C343 0.929 . S
O355 Co330 2.351 . S
O355 C358 1.244 . S
O356 Co330 2.155 . S
O356 C358 1.240 . S
O357 Co330 2.096 . S
O357 C338 1.247 . S
C358 O355 1.244 . S
C358 O356 1.240 . S
H359 C333 0.931 1_556 S
H360 C342 0.931 . S
H361 C346 0.929 . S
H362 C348 0.930 . S
Co363 N367 2.148 . S
Co363 N373 2.128 . S
Co363 N383 2.194 . S
Co363 O388 2.351 . S
Co363 O389 2.155 . S
Co363 O390 2.096 . S
C364 N367 1.301 . S
C364 N368 1.328 . S
C364 H369 0.930 . S
C365 C366 1.333 . S
C365 N367 1.317 . S
C365 H370 0.930 . S
C366 C365 1.333 . S
C366 N368 1.350 . S
C366 H392 0.931 . S
N367 Co363 2.148 . S
N367 C364 1.301 . S
N367 C365 1.317 . S
N368 C364 1.328 . S
N368 C366 1.350 . S
H369 C364 0.930 . S
H370 C365 0.930 . S
C371 O372 1.224 . S
C371 O390 1.247 . S
O372 C371 1.224 . S
N373 Co363 2.128 . S
N373 C374 1.355 . S
N373 C376 1.311 . S
C374 N373 1.355 . S
C374 C375 1.363 . S
C374 H386 0.929 . S
C375 C374 1.363 . S
C375 N377 1.375 1_556 S
C375 H393 0.931 1_556 S
C376 N373 1.311 . S
C376 N377 1.347 1_556 S
C376 H387 0.929 . S
N377 C375 1.375 1_554 S
N377 C376 1.347 1_554 S
C378 C381 1.365 . S
C378 N383 1.328 . S
C378 H384 0.929 . S
C379 C380 1.362 . S
C379 C382 1.378 . S
C379 H394 0.929 . S
C380 C379 1.362 . S
C380 C381 1.366 . S
C381 C378 1.365 . S
C381 C380 1.366 . S
C381 H395 0.930 . S
C382 C379 1.378 . S
C382 N383 1.315 . S
C382 H385 0.930 . S
N383 Co363 2.194 . S
N383 C378 1.328 . S
N383 C382 1.315 . S
H384 C378 0.929 . S
H385 C382 0.930 . S
H386 C374 0.929 . S
H387 C376 0.929 . S
O388 Co363 2.351 . S
O388 C391 1.244 . S
O389 Co363 2.155 . S
O389 C391 1.240 . S
O390 Co363 2.096 . S
O390 C371 1.247 . S
C391 O388 1.244 . S
C391 O389 1.240 . S
H392 C366 0.931 . S
H393 C375 0.931 1_554 S
H394 C379 0.929 . S
H395 C381 0.930 . S
N5 N14 2.222 . S
N47 N38 2.221 . S
N80 N71 2.222 . S
N104 N113 2.222 . S
N137 N146 2.221 . S
N179 N170 2.222 . S
N203 N212 2.222 . S
N236 N245 2.222 . S
N278 N269 2.221 . S
N302 N311 2.222 . S
N335 N344 2.222 . S
N377 N368 2.221 . S
C206 C8 1.720 . S
C41 C239 1.720 . S
C272 C74 1.720 . S
C305 C107 1.720 . S
C338 C140 1.720 . S
C371 C173 1.720 . S
C28 C358 1.648 . S
C61 C391 1.648 . S
C94 C226 1.648 . S
C259 C127 1.648 . S
C292 C160 1.648 . S
C325 C193 1.648 . S
C17 C314 1.678 . S
C50 C347 1.678 1_655 S
C380 C83 1.678 1_545 S
C116 C215 1.678 . S
C149 C248 1.678 1_455 S
C182 C281 1.678 1_546 S
