# Generated by pormake.
# Topology wjd, (6)-cn, num edge types: 1
# Building blocks:
#     Node 0, Type 0, BuildingBlock: MIFKUJ_clean_sbu_0, # of connection points: 6
#     Node 1, Type 0, BuildingBlock: MIFKUJ_clean_sbu_0, # of connection points: 6
#     Node 2, Type 0, BuildingBlock: MIFKUJ_clean_sbu_0, # of connection points: 6
#     Node 3, Type 0, BuildingBlock: MIFKUJ_clean_sbu_0, # of connection points: 6
#     Node 4, Type 0, BuildingBlock: MIFKUJ_clean_sbu_0, # of connection points: 6
#     Node 5, Type 0, BuildingBlock: MIFKUJ_clean_sbu_0, # of connection points: 6
#     Node 6, Type 0, BuildingBlock: MIFKUJ_clean_sbu_0, # of connection points: 6
#     Node 7, Type 0, BuildingBlock: MIFKUJ_clean_sbu_0, # of connection points: 6
#     Node 8, Type 0, BuildingBlock: MIFKUJ_clean_sbu_0, # of connection points: 6
#     Node 9, Type 0, BuildingBlock: MIFKUJ_clean_sbu_0, # of connection points: 6
#     Node 10, Type 0, BuildingBlock: MIFKUJ_clean_sbu_0, # of connection points: 6
#     Node 11, Type 0, BuildingBlock: MIFKUJ_clean_sbu_0, # of connection points: 6
#     Edge 12, Type (0, 0), BuildingBlock: EYOCIG_clean_linker_4, # of connection points: 2
#     Edge 13, Type (0, 0), BuildingBlock: EYOCIG_clean_linker_4, # of connection points: 2
#     Edge 14, Type (0, 0), BuildingBlock: EYOCIG_clean_linker_4, # of connection points: 2
#     Edge 15, Type (0, 0), BuildingBlock: EYOCIG_clean_linker_4, # of connection points: 2
#     Edge 16, Type (0, 0), BuildingBlock: EYOCIG_clean_linker_4, # of connection points: 2
#     Edge 17, Type (0, 0), BuildingBlock: EYOCIG_clean_linker_4, # of connection points: 2
#     Edge 18, Type (0, 0), BuildingBlock: EYOCIG_clean_linker_4, # of connection points: 2
#     Edge 19, Type (0, 0), BuildingBlock: EYOCIG_clean_linker_4, # of connection points: 2
#     Edge 20, Type (0, 0), BuildingBlock: EYOCIG_clean_linker_4, # of connection points: 2
#     Edge 21, Type (0, 0), BuildingBlock: EYOCIG_clean_linker_4, # of connection points: 2
#     Edge 22, Type (0, 0), BuildingBlock: EYOCIG_clean_linker_4, # of connection points: 2
#     Edge 23, Type (0, 0), BuildingBlock: EYOCIG_clean_linker_4, # of connection points: 2
#     Edge 24, Type (0, 0), BuildingBlock: EYOCIG_clean_linker_4, # of connection points: 2
#     Edge 25, Type (0, 0), BuildingBlock: EYOCIG_clean_linker_4, # of connection points: 2
#     Edge 26, Type (0, 0), BuildingBlock: EYOCIG_clean_linker_4, # of connection points: 2
#     Edge 27, Type (0, 0), BuildingBlock: EYOCIG_clean_linker_4, # of connection points: 2
#     Edge 28, Type (0, 0), BuildingBlock: EYOCIG_clean_linker_4, # of connection points: 2
#     Edge 29, Type (0, 0), BuildingBlock: EYOCIG_clean_linker_4, # of connection points: 2
#     Edge 30, Type (0, 0), BuildingBlock: EYOCIG_clean_linker_4, # of connection points: 2
#     Edge 31, Type (0, 0), BuildingBlock: EYOCIG_clean_linker_4, # of connection points: 2
#     Edge 32, Type (0, 0), BuildingBlock: EYOCIG_clean_linker_4, # of connection points: 2
#     Edge 33, Type (0, 0), BuildingBlock: EYOCIG_clean_linker_4, # of connection points: 2
#     Edge 34, Type (0, 0), BuildingBlock: EYOCIG_clean_linker_4, # of connection points: 2
#     Edge 35, Type (0, 0), BuildingBlock: EYOCIG_clean_linker_4, # of connection points: 2
#     Edge 36, Type (0, 0), BuildingBlock: EYOCIG_clean_linker_4, # of connection points: 2
#     Edge 37, Type (0, 0), BuildingBlock: EYOCIG_clean_linker_4, # of connection points: 2
#     Edge 38, Type (0, 0), BuildingBlock: EYOCIG_clean_linker_4, # of connection points: 2
#     Edge 39, Type (0, 0), BuildingBlock: EYOCIG_clean_linker_4, # of connection points: 2
#     Edge 40, Type (0, 0), BuildingBlock: EYOCIG_clean_linker_4, # of connection points: 2
#     Edge 41, Type (0, 0), BuildingBlock: EYOCIG_clean_linker_4, # of connection points: 2
#     Edge 42, Type (0, 0), BuildingBlock: EYOCIG_clean_linker_4, # of connection points: 2
#     Edge 43, Type (0, 0), BuildingBlock: EYOCIG_clean_linker_4, # of connection points: 2
#     Edge 44, Type (0, 0), BuildingBlock: EYOCIG_clean_linker_4, # of connection points: 2
#     Edge 45, Type (0, 0), BuildingBlock: EYOCIG_clean_linker_4, # of connection points: 2
#     Edge 46, Type (0, 0), BuildingBlock: EYOCIG_clean_linker_4, # of connection points: 2
#     Edge 47, Type (0, 0), BuildingBlock: EYOCIG_clean_linker_4, # of connection points: 2
# Relax obj value: 0.089
# Max RMSD: 0.196
# Mean RMSD: 0.196
data_MOF--net-wjd--node1-MIFKUJ_clean_sbu_0--edge1-EYOCIG_clean_linker_4
_symmetry_space_group_name_H-M    P1
_symmetry_Int_Tables_number       1
_symmetry_cell_setting            triclinic
loop_
_symmetry_equiv_pos_as_xyz
'x, y, z'
_cell_length_a     27.63694
_cell_length_b     27.632892
_cell_length_c     42.40682
_cell_angle_alpha  90.026558
_cell_angle_beta   89.979589
_cell_angle_gamma 120.00095
loop_
_atom_site_label
_atom_site_type_symbol
_atom_site_fract_x
_atom_site_fract_y
_atom_site_fract_z
_atom_type_partial_charge
Zn0 Zn 0.30872 0.08097 0.09643 0.0
Zn1 Zn 0.41383 0.19284 0.07542 0.0
C2 C 0.24949 0.13824 0.1056 0.0
O3 O 0.23948 0.11101 0.13234 0.0
C4 C 0.5028 0.17571 0.0562 0.0
O5 O 0.49286 0.1921 0.02915 0.0
O6 O 0.2384 1.00839 0.10587 0.0
O7 O 0.34434 0.06611 0.06002 0.0
O8 O 0.36296 0.14631 0.03897 0.0
C9 C 0.20323 0.98826 0.0835 0.0
O10 O 0.21517 1.01357 0.05607 0.0
O11 O 0.28082 0.13402 0.08517 0.0
C12 C 0.49716 0.30572 0.07967 0.0
O13 O 0.50498 0.28604 0.10615 0.0
O14 O 0.45793 0.27339 0.06125 0.0
O15 O 0.3866 0.19569 0.12001 0.0
O16 O 0.35512 0.10837 0.13496 0.0
O17 O 0.47271 0.17049 0.08003 0.0
C18 C 0.34986 0.09538 0.03597 0.0
C19 C 0.37551 0.15962 0.14157 0.0
Zn20 Zn 0.82475 0.64354 0.36205 0.0
Zn21 Zn 0.81792 0.74859 0.341 0.0
C22 C 0.71871 0.55455 0.38131 0.0
O23 O 0.74509 0.56459 0.40835 0.0
C24 C 0.9344 0.80785 0.33183 0.0
O25 O 0.91718 0.81783 0.30509 0.0
O26 O 0.86126 0.59951 0.37623 0.0
O27 O 0.85479 0.67071 0.31745 0.0
O28 O 0.79893 0.70215 0.30248 0.0
C29 C 0.85435 0.56025 0.35783 0.0
O30 O 0.82683 0.55238 0.33135 0.0
O31 O 0.74353 0.58459 0.35746 0.0
C32 C 0.8307 0.8541 0.35391 0.0
O33 O 0.8441 0.8422 0.38135 0.0
O34 O 0.81565 0.8189 0.33154 0.0
O35 O 0.76747 0.713 0.37741 0.0
O36 O 0.82908 0.69446 0.39848 0.0
O37 O 0.89887 0.77654 0.35226 0.0
C38 C 0.82981 0.68177 0.29589 0.0
C39 C 0.79123 0.70753 0.40147 0.0
Zn40 Zn 0.97665 0.23945 0.09643 0.0
Zn41 Zn 0.86474 0.23257 0.0754 0.0
C42 C 0.91946 0.12296 0.10562 0.0
O43 O 0.94669 0.14023 0.13236 0.0
C44 C 0.88188 0.33864 0.05614 0.0
O45 O 0.8655 0.31223 0.0291 0.0
O46 O 0.04926 0.24178 0.10587 0.0
O47 O 0.99143 0.28985 0.06001 0.0
O48 O 0.91127 0.22817 0.03896 0.0
C49 C 0.06941 0.22674 0.0835 0.0
O50 O 0.04411 0.21332 0.05606 0.0
O51 O 0.92365 0.15846 0.08518 0.0
C52 C 0.7519 0.20304 0.07966 0.0
O53 O 0.77161 0.23059 0.10613 0.0
O54 O 0.78419 0.19608 0.06124 0.0
O55 O 0.86193 0.20256 0.11999 0.0
O56 O 0.94922 0.25847 0.13495 0.0
O57 O 0.88709 0.31382 0.07999 0.0
C58 C 0.96218 0.26603 0.03595 0.0
C59 C 0.89798 0.22758 0.14155 0.0
Zn60 Zn 0.41363 0.19249 0.36217 0.0
Zn61 Zn 0.30852 0.08063 0.34109 0.0
C62 C 0.50259 0.17535 0.38133 0.0
O63 O 0.49264 0.19173 0.40839 0.0
C64 C 0.2493 0.1379 0.33198 0.0
O65 O 0.23931 0.11069 0.30522 0.0
O66 O 0.45774 0.27304 0.37637 0.0
O67 O 0.3864 0.19539 0.31761 0.0
O68 O 0.35497 0.10809 0.30257 0.0
C69 C 0.49696 0.30534 0.35794 0.0
O70 O 0.50474 0.28563 0.33145 0.0
O71 O 0.4725 0.17012 0.35751 0.0
C72 C 0.20302 0.98788 0.35396 0.0
O73 O 0.21493 1.01315 0.38142 0.0
O74 O 0.23822 1.00806 0.3316 0.0
O75 O 0.34409 0.06574 0.37749 0.0
O76 O 0.36274 0.14593 0.3986 0.0
O77 O 0.2806 0.13366 0.3524 0.0
C78 C 0.37535 0.15936 0.29601 0.0
C79 C 0.34961 0.09499 0.40157 0.0
Zn80 Zn 0.81814 0.74881 0.09636 0.0
Zn81 Zn 0.82504 0.64381 0.07529 0.0
C82 C 0.93461 0.80814 0.10555 0.0
O83 O 0.91734 0.8181 0.1323 0.0
C84 C 0.71893 0.55482 0.05609 0.0
O85 O 0.74527 0.56475 0.02903 0.0
O86 O 0.8158 0.81909 0.10586 0.0
O87 O 0.76775 0.71322 0.05992 0.0
O88 O 0.82939 0.69469 0.03886 0.0
C89 C 0.83087 0.8543 0.08351 0.0
O90 O 0.84431 0.84242 0.05606 0.0
O91 O 0.89911 0.77681 0.08511 0.0
C92 C 0.85456 0.56048 0.07952 0.0
O93 O 0.82707 0.5527 0.10601 0.0
O94 O 0.86148 0.5997 0.0611 0.0
O95 O 0.85511 0.67104 0.11987 0.0
O96 O 0.79912 0.70233 0.13486 0.0
O97 O 0.7438 0.58492 0.07991 0.0
C98 C 0.79155 0.70776 0.03586 0.0
C99 C 0.83004 0.68201 0.14144 0.0
Zn100 Zn 0.86463 0.23241 0.36214 0.0
Zn101 Zn 0.97656 0.23927 0.34114 0.0
C102 C 0.88174 0.33852 0.38137 0.0
O103 O 0.86532 0.31218 0.40842 0.0
C104 C 0.91938 0.12279 0.33192 0.0
O105 O 0.94665 0.14006 0.30519 0.0
O106 O 0.78406 0.19593 0.37628 0.0
O107 O 0.86187 0.20237 0.31756 0.0
O108 O 0.94919 0.2583 0.30263 0.0
C109 C 0.75178 0.20284 0.35785 0.0
O110 O 0.7715 0.23034 0.33137 0.0
O111 O 0.88699 0.31366 0.35755 0.0
C112 C 0.06929 0.22653 0.35408 0.0
O113 O 0.04394 0.21312 0.38151 0.0
O114 O 0.04917 0.24158 0.33171 0.0
O115 O 0.99131 0.28967 0.37759 0.0
O116 O 0.9111 0.22803 0.3986 0.0
O117 O 0.92354 0.15829 0.35237 0.0
C118 C 0.89796 0.22742 0.29601 0.0
C119 C 0.96201 0.26587 0.40163 0.0
Zn120 Zn 0.20427 0.402 0.57544 0.0
Zn121 Zn 0.09239 0.29715 0.59651 0.0
C122 C 0.18698 0.49087 0.5563 0.0
O123 O 0.20336 0.48093 0.52924 0.0
C124 C 0.1494 0.23768 0.60566 0.0
O125 O 0.12221 0.22776 0.63241 0.0
O126 O 0.2848 0.44618 0.56125 0.0
O127 O 0.20718 0.37473 0.61999 0.0
O128 O 0.11997 0.34364 0.63502 0.0
C129 C 0.31709 0.48539 0.57969 0.0
O130 O 0.29739 0.49311 0.6062 0.0
O131 O 0.18183 0.46082 0.58012 0.0
C132 C 0.99953 0.19173 0.58364 0.0
O133 O 1.02482 0.20357 0.5562 0.0
O134 O 1.01973 0.22694 0.60601 0.0
O135 O 0.07763 0.33276 0.56008 0.0
O136 O 0.15774 0.35112 0.539 0.0
O137 O 0.14525 0.26902 0.58523 0.0
C138 C 0.1712 0.36385 0.64158 0.0
C139 C 0.10685 0.33815 0.53601 0.0
Zn140 Zn 0.25068 0.96483 0.84109 0.0
Zn141 Zn 0.24371 0.85294 0.86212 0.0
C142 C 0.13422 0.90779 0.8319 0.0
O143 O 0.15153 0.93501 0.80516 0.0
C144 C 0.34984 0.87016 0.88129 0.0
O145 O 0.32349 0.85373 0.90834 0.0
O146 O 0.25311 0.03748 0.83162 0.0
O147 O 0.30106 0.97961 0.87754 0.0
O148 O 0.23935 0.89946 0.89858 0.0
C149 C 0.23808 0.05766 0.85398 0.0
O150 O 0.22463 0.03237 0.88142 0.0
O151 O 0.16969 0.91192 0.85234 0.0
C152 C 0.21428 0.7401 0.85784 0.0
O153 O 0.24172 0.75981 0.83134 0.0
O154 O 0.20734 0.77239 0.87628 0.0
O155 O 0.21357 0.85006 0.81756 0.0
O156 O 0.26964 0.93731 0.80258 0.0
O157 O 0.32497 0.87537 0.85747 0.0
C158 C 0.27724 0.95036 0.90159 0.0
C159 C 0.23864 0.88607 0.79599 0.0
Zn160 Zn 0.65492 0.81356 0.57538 0.0
Zn161 Zn 0.75988 0.80664 0.59638 0.0
C162 C 0.56604 0.7074 0.5562 0.0
O163 O 0.57593 0.73374 0.52915 0.0
C164 C 0.81925 0.92312 0.60563 0.0
O165 O 0.82917 0.90582 0.63237 0.0
O166 O 0.61072 0.8499 0.56125 0.0
O167 O 0.68221 0.8437 0.61994 0.0
O168 O 0.7134 0.78763 0.63488 0.0
C169 C 0.5715 0.84294 0.5797 0.0
O170 O 0.56379 0.81548 0.60618 0.0
O171 O 0.59613 0.73229 0.58002 0.0
C172 C 0.86532 0.81927 0.58349 0.0
O173 O 0.85349 0.83275 0.55606 0.0
O174 O 0.8301 0.80423 0.60585 0.0
O175 O 0.7243 0.75629 0.55991 0.0
O176 O 0.70579 0.81796 0.53891 0.0
O177 O 0.78794 0.88765 0.58517 0.0
C178 C 0.69315 0.81861 0.6415 0.0
C179 C 0.71883 0.7801 0.53587 0.0
Zn180 Zn 0.0927 0.29735 0.84111 0.0
Zn181 Zn 0.20459 0.40223 0.86214 0.0
C182 C 0.14974 0.2379 0.83191 0.0
O183 O 0.12253 0.22794 0.80516 0.0
C184 C 0.18735 0.49115 0.88132 0.0
O185 O 0.20375 0.48124 0.90838 0.0
O186 O 1.02005 0.22713 0.83162 0.0
O187 O 0.07795 0.33299 0.87756 0.0
O188 O 0.15808 0.35137 0.89859 0.0
C189 C 0.99985 0.19193 0.85398 0.0
O190 O 1.02514 0.20378 0.88142 0.0
O191 O 0.14559 0.26925 0.85235 0.0
C192 C 0.31741 0.4856 0.85786 0.0
O193 O 0.2977 0.49331 0.83137 0.0
O194 O 0.28513 0.4464 0.87631 0.0
O195 O 0.20745 0.37493 0.81758 0.0
O196 O 0.12021 0.3438 0.80261 0.0
O197 O 0.18216 0.46105 0.8575 0.0
C198 C 0.10719 0.33839 0.90161 0.0
C199 C 0.17144 0.36401 0.79601 0.0
Zn200 Zn 0.24337 0.85269 0.57542 0.0
Zn201 Zn 0.25034 0.9646 0.59642 0.0
C202 C 0.34949 0.86987 0.55625 0.0
O203 O 0.32315 0.85338 0.52921 0.0
C204 C 0.13386 0.90754 0.60561 0.0
O205 O 0.15113 0.9348 0.63235 0.0
O206 O 0.207 0.77212 0.56128 0.0
O207 O 0.21323 0.84989 0.61998 0.0
O208 O 0.26932 0.93717 0.63493 0.0
C209 C 0.21391 0.73987 0.57974 0.0
O210 O 0.24133 0.75963 0.60624 0.0
O211 O 0.32461 0.87513 0.58007 0.0
C212 C 0.23772 0.05741 0.58352 0.0
O213 O 0.22428 0.03207 0.55608 0.0
O214 O 0.25274 0.03725 0.60588 0.0
O215 O 0.30072 0.97934 0.55997 0.0
O216 O 0.23902 0.89915 0.53894 0.0
O217 O 0.16935 0.91166 0.58517 0.0
C218 C 0.23834 0.88594 0.64154 0.0
C219 C 0.27691 0.95005 0.53592 0.0
Zn220 Zn 0.7602 0.80687 0.84103 0.0
Zn221 Zn 0.65523 0.81377 0.86209 0.0
C222 C 0.81955 0.92335 0.83184 0.0
O223 O 0.82949 0.90607 0.80509 0.0
C224 C 0.56637 0.70762 0.8813 0.0
O225 O 0.57631 0.73398 0.90835 0.0
O226 O 0.83045 0.80449 0.83155 0.0
O227 O 0.7246 0.75649 0.87747 0.0
O228 O 0.70613 0.81818 0.89853 0.0
C229 C 0.86565 0.81955 0.85391 0.0
O230 O 0.85378 0.83303 0.88135 0.0
O231 O 0.78823 0.88786 0.85229 0.0
C232 C 0.57183 0.84316 0.85784 0.0
O233 O 0.56409 0.81567 0.83135 0.0
O234 O 0.61105 0.85014 0.87627 0.0
O235 O 0.68246 0.84386 0.81752 0.0
O236 O 0.71374 0.78786 0.80253 0.0
O237 O 0.59643 0.7325 0.85747 0.0
C238 C 0.71916 0.78031 0.90153 0.0
C239 C 0.69343 0.81879 0.79595 0.0
C240 C 0.15313 0.20786 0.09187 0.0
C241 C 0.1151 0.21712 0.08909 0.0
C242 C 0.19202 0.18922 0.09499 0.0
C243 C 0.21955 0.16683 0.09836 0.0
C244 C 0.1004 0.90421 0.34556 0.0
C245 C 0.1477 0.94222 0.34836 0.0
C246 C 0.04286 0.86533 0.34243 0.0
C247 C 0.99295 0.8378 0.33906 0.0
C248 C 0.86847 1.01448 0.09504 0.0
C249 C 0.89086 0.0644 0.0984 0.0
C250 C 0.8498 0.95692 0.09191 0.0
C251 C 0.84052 0.90962 0.08912 0.0
C252 C 0.19184 0.18891 0.34261 0.0
C253 C 0.21937 0.16651 0.33923 0.0
C254 C 0.15297 0.20758 0.34573 0.0
C255 C 0.11496 0.21687 0.3485 0.0
C256 C 0.10061 0.90456 0.09185 0.0
C257 C 0.14791 0.94258 0.08908 0.0
C258 C 0.04307 0.86567 0.09497 0.0
C259 C 0.99316 0.83811 0.09833 0.0
C260 C 0.84967 0.95674 0.34556 0.0
C261 C 0.84037 0.90944 0.34833 0.0
C262 C 0.86836 1.0143 0.34246 0.0
C263 C 0.89076 0.06423 0.33911 0.0
C264 C 0.21889 0.14116 0.59191 0.0
C265 C 0.22812 0.10312 0.58912 0.0
C266 C 0.20027 0.18009 0.59504 0.0
C267 C 0.17793 0.20766 0.59843 0.0
C268 C 1.02575 0.85694 0.84245 0.0
C269 C 0.07567 0.87926 0.8391 0.0
C270 C 0.96822 0.83835 0.84555 0.0
C271 C 0.92094 0.82912 0.84832 0.0
C272 C 0.87683 0.03161 0.59511 0.0
C273 C 0.84926 0.98169 0.59845 0.0
C274 C 0.91576 0.08916 0.59202 0.0
C275 C 0.95381 0.13644 0.58925 0.0
C276 C 0.20064 0.18033 0.84248 0.0
C277 C 0.17829 0.2079 0.83911 0.0
C278 C 0.21926 0.14141 0.8456 0.0
C279 C 0.22849 0.10337 0.84838 0.0
C280 C 1.0254 0.85667 0.59502 0.0
C281 C 0.07531 0.87901 0.59839 0.0
C282 C 0.96788 0.83807 0.59189 0.0
C283 C 0.92061 0.82885 0.5891 0.0
C284 C 0.91607 0.08936 0.84557 0.0
C285 C 0.95413 0.13664 0.84836 0.0
C286 C 0.87713 0.03183 0.84244 0.0
C287 C 0.84956 0.98191 0.83906 0.0
C288 C 0.38565 0.18284 0.23542 0.0
C289 C 0.38226 0.17566 0.26352 0.0
C290 C 0.38569 0.18292 0.20219 0.0
C291 C 0.38236 0.17585 0.17408 0.0
C292 C 0.84303 0.67161 0.23527 0.0
C293 C 0.83924 0.67494 0.26338 0.0
C294 C 0.84308 0.67167 0.20204 0.0
C295 C 0.83937 0.67509 0.17394 0.0
C296 C 0.87465 0.21442 0.20216 0.0
C297 C 0.88175 0.21819 0.17405 0.0
C298 C 0.87465 0.21439 0.2354 0.0
C299 C 0.88175 0.2181 0.2635 0.0
C300 C 0.19468 0.3741 0.70217 0.0
C301 C 0.1875 0.37071 0.67407 0.0
C302 C 0.19476 0.37414 0.7354 0.0
C303 C 0.18768 0.37082 0.76351 0.0
C304 C 0.22535 0.86267 0.73538 0.0
C305 C 0.22917 0.8698 0.76349 0.0
C306 C 0.22528 0.86264 0.70215 0.0
C307 C 0.229 0.86973 0.67404 0.0
C308 C 0.68305 0.83183 0.70212 0.0
C309 C 0.68636 0.82805 0.674 0.0
C310 C 0.68311 0.83186 0.73535 0.0
C311 C 0.68652 0.82814 0.76345 0.0
C312 C 0.30383 1.00545 0.95535 0.0
C313 C 0.28961 0.97759 0.93168 0.0
C314 C 0.32128 0.04027 -0.01779 0.0
C315 C 0.33496 0.06814 0.00588 0.0
C316 C 0.7647 0.73613 0.45523 0.0
C317 C 0.77888 0.72244 0.43156 0.0
C318 C 0.74732 0.75356 0.48209 0.0
C319 C 0.73368 0.76776 0.50577 0.0
C320 C 0.05211 0.30988 0.95536 0.0
C321 C 0.07997 0.32352 0.9317 0.0
C322 C 1.01727 0.29249 -0.0178 0.0
C323 C 0.98941 0.27833 0.00587 0.0
C324 C 0.32098 0.03986 0.4553 0.0
C325 C 0.33468 0.06772 0.43164 0.0
C326 C 0.30352 1.00505 0.48215 0.0
C327 C 0.28929 0.97722 0.50582 0.0
C328 C 0.76506 0.73635 -0.01788 0.0
C329 C 0.77923 0.72266 0.00578 0.0
C330 C 0.74768 0.75377 0.95528 0.0
C331 C 0.73403 0.76797 0.93162 0.0
C332 C 0.05178 0.30967 0.48226 0.0
C333 C 0.07962 0.32329 0.50593 0.0
C334 C 1.017 0.29231 0.4554 0.0
C335 C 0.98918 0.27817 0.43173 0.0
C336 C 0.64811 0.1752 0.066 0.0
C337 C 0.69568 0.18641 0.07053 0.0
C338 C 0.59491 0.16999 0.0623 0.0
C339 C 0.5527 0.17242 0.05992 0.0
C340 C 0.6209 0.46238 0.37527 0.0
C341 C 0.66553 0.50462 0.37762 0.0
C342 C 0.57292 0.40916 0.3716 0.0
C343 C 0.53655 0.36157 0.36707 0.0
C344 C 0.8876 0.4365 0.06219 0.0
C345 C 0.88516 0.39184 0.05983 0.0
C346 C 0.8824 0.4845 0.06586 0.0
C347 C 0.87118 0.52087 0.07039 0.0
C348 C 0.59474 0.16969 0.37519 0.0
C349 C 0.55251 0.17209 0.37759 0.0
C350 C 0.64795 0.17494 0.37149 0.0
C351 C 0.69554 0.18619 0.36696 0.0
C352 C 0.57312 0.4095 0.06596 0.0
C353 C 0.53676 0.36193 0.07052 0.0
C354 C 0.62111 0.4627 0.06223 0.0
C355 C 0.66575 0.50491 0.05982 0.0
C356 C 0.88222 0.48434 0.37154 0.0
C357 C 0.87099 0.52068 0.36698 0.0
C358 C 0.88744 0.43636 0.37526 0.0
C359 C 0.88502 0.39171 0.37765 0.0
C360 C 0.18622 0.63608 0.56611 0.0
C361 C 0.19738 0.68365 0.57063 0.0
C362 C 0.18109 0.58291 0.56242 0.0
C363 C 0.1836 0.54073 0.56004 0.0
C364 C 0.44773 0.87601 0.87518 0.0
C365 C 0.40306 0.87352 0.87756 0.0
C366 C 0.49576 0.87087 0.87149 0.0
C367 C 0.53217 0.85971 0.86696 0.0
C368 C 0.474 0.60948 0.56231 0.0
C369 C 0.51618 0.65417 0.55992 0.0
C370 C 0.42084 0.56145 0.56601 0.0
C371 C 0.37328 0.52505 0.57055 0.0
C372 C 0.1866 0.63635 0.87151 0.0
C373 C 0.19775 0.68391 0.86697 0.0
C374 C 0.18147 0.58318 0.87521 0.0
C375 C 0.18398 0.54101 0.8776 0.0
C376 C 0.44739 0.87574 0.56237 0.0
C377 C 0.40271 0.87324 0.55999 0.0
C378 C 0.49542 0.87061 0.56607 0.0
C379 C 0.53183 0.85946 0.57059 0.0
C380 C 0.47434 0.60971 0.87521 0.0
C381 C 0.51651 0.65439 0.87759 0.0
C382 C 0.42117 0.56167 0.87152 0.0
C383 C 0.37361 0.52526 0.86699 0.0
loop_
_geom_bond_atom_site_label_1
_geom_bond_atom_site_label_2
_geom_bond_distance
_geom_bond_site_symmetry_2
_ccdc_geom_bond_type
Zn0 O6 1.969 . S
Zn0 O7 1.965 . S
Zn0 O11 2.024 . S
Zn0 O16 1.969 . S
Zn1 O8 1.969 . S
Zn1 O14 1.969 . S
Zn1 O15 1.965 . S
Zn1 O17 2.024 . S
C2 O3 1.229 . S
C2 O11 1.058 . S
O3 C2 1.229 . S
C4 O5 1.229 . S
C4 O17 1.058 . S
O5 C4 1.229 . S
O6 Zn0 1.969 . S
O6 C9 1.267 1_545 S
O7 Zn0 1.965 . S
O7 C18 1.260 . S
O8 Zn1 1.969 . S
O8 C18 1.258 . S
C9 O6 1.267 1_565 S
C9 O10 1.228 1_565 S
O10 C9 1.228 1_545 S
O11 Zn0 2.024 . S
O11 C2 1.058 . S
C12 O13 1.228 . S
C12 O14 1.267 . S
O13 C12 1.228 . S
O14 Zn1 1.969 . S
O14 C12 1.267 . S
O15 Zn1 1.965 . S
O15 C19 1.260 . S
O16 Zn0 1.969 . S
O16 C19 1.258 . S
O17 Zn1 2.024 . S
O17 C4 1.058 . S
C18 O7 1.260 . S
C18 O8 1.258 . S
C19 O15 1.260 . S
C19 O16 1.258 . S
Zn20 O26 1.969 . S
Zn20 O27 1.965 . S
Zn20 O31 2.024 . S
Zn20 O36 1.969 . S
Zn21 O28 1.969 . S
Zn21 O34 1.969 . S
Zn21 O35 1.965 . S
Zn21 O37 2.024 . S
C22 O23 1.229 . S
C22 O31 1.058 . S
O23 C22 1.229 . S
C24 O25 1.229 . S
C24 O37 1.058 . S
O25 C24 1.229 . S
O26 Zn20 1.969 . S
O26 C29 1.267 . S
O27 Zn20 1.965 . S
O27 C38 1.260 . S
O28 Zn21 1.969 . S
O28 C38 1.258 . S
C29 O26 1.267 . S
C29 O30 1.228 . S
O30 C29 1.228 . S
O31 Zn20 2.024 . S
O31 C22 1.058 . S
C32 O33 1.228 . S
C32 O34 1.267 . S
O33 C32 1.228 . S
O34 Zn21 1.969 . S
O34 C32 1.267 . S
O35 Zn21 1.965 . S
O35 C39 1.260 . S
O36 Zn20 1.969 . S
O36 C39 1.258 . S
O37 Zn21 2.024 . S
O37 C24 1.058 . S
C38 O27 1.260 . S
C38 O28 1.258 . S
C39 O35 1.260 . S
C39 O36 1.258 . S
Zn40 O46 1.969 . S
Zn40 O47 1.965 . S
Zn40 O51 2.024 . S
Zn40 O56 1.969 . S
Zn41 O48 1.969 . S
Zn41 O54 1.969 . S
Zn41 O55 1.965 . S
Zn41 O57 2.024 . S
C42 O43 1.229 . S
C42 O51 1.058 . S
O43 C42 1.229 . S
C44 O45 1.229 . S
C44 O57 1.058 . S
O45 C44 1.229 . S
O46 Zn40 1.969 . S
O46 C49 1.267 1_655 S
O47 Zn40 1.965 . S
O47 C58 1.260 . S
O48 Zn41 1.969 . S
O48 C58 1.258 . S
C49 O46 1.267 1_455 S
C49 O50 1.228 1_455 S
O50 C49 1.228 1_655 S
O51 Zn40 2.024 . S
O51 C42 1.058 . S
C52 O53 1.228 . S
C52 O54 1.267 . S
O53 C52 1.228 . S
O54 Zn41 1.969 . S
O54 C52 1.267 . S
O55 Zn41 1.965 . S
O55 C59 1.260 . S
O56 Zn40 1.969 . S
O56 C59 1.258 . S
O57 Zn41 2.024 . S
O57 C44 1.058 . S
C58 O47 1.260 . S
C58 O48 1.258 . S
C59 O55 1.260 . S
C59 O56 1.258 . S
Zn60 O66 1.969 . S
Zn60 O67 1.965 . S
Zn60 O71 2.024 . S
Zn60 O76 1.969 . S
Zn61 O68 1.969 . S
Zn61 O74 1.969 . S
Zn61 O75 1.965 . S
Zn61 O77 2.024 . S
C62 O63 1.229 . S
C62 O71 1.058 . S
O63 C62 1.229 . S
C64 O65 1.229 . S
C64 O77 1.058 . S
O65 C64 1.229 . S
O66 Zn60 1.969 . S
O66 C69 1.267 . S
O67 Zn60 1.965 . S
O67 C78 1.260 . S
O68 Zn61 1.969 . S
O68 C78 1.258 . S
C69 O66 1.267 . S
C69 O70 1.228 . S
O70 C69 1.228 . S
O71 Zn60 2.024 . S
O71 C62 1.058 . S
C72 O73 1.228 1_565 S
C72 O74 1.267 1_565 S
O73 C72 1.228 1_545 S
O74 Zn61 1.969 . S
O74 C72 1.267 1_545 S
O75 Zn61 1.965 . S
O75 C79 1.260 . S
O76 Zn60 1.969 . S
O76 C79 1.258 . S
O77 Zn61 2.024 . S
O77 C64 1.058 . S
C78 O67 1.260 . S
C78 O68 1.258 . S
C79 O75 1.260 . S
C79 O76 1.258 . S
Zn80 O86 1.969 . S
Zn80 O87 1.965 . S
Zn80 O91 2.024 . S
Zn80 O96 1.969 . S
Zn81 O88 1.969 . S
Zn81 O94 1.969 . S
Zn81 O95 1.965 . S
Zn81 O97 2.024 . S
C82 O83 1.229 . S
C82 O91 1.058 . S
O83 C82 1.229 . S
C84 O85 1.229 . S
C84 O97 1.058 . S
O85 C84 1.229 . S
O86 Zn80 1.969 . S
O86 C89 1.267 . S
O87 Zn80 1.965 . S
O87 C98 1.260 . S
O88 Zn81 1.969 . S
O88 C98 1.258 . S
C89 O86 1.267 . S
C89 O90 1.228 . S
O90 C89 1.228 . S
O91 Zn80 2.024 . S
O91 C82 1.058 . S
C92 O93 1.228 . S
C92 O94 1.267 . S
O93 C92 1.228 . S
O94 Zn81 1.969 . S
O94 C92 1.267 . S
O95 Zn81 1.965 . S
O95 C99 1.260 . S
O96 Zn80 1.969 . S
O96 C99 1.258 . S
O97 Zn81 2.024 . S
O97 C84 1.058 . S
C98 O87 1.260 . S
C98 O88 1.258 . S
C99 O95 1.260 . S
C99 O96 1.258 . S
Zn100 O106 1.969 . S
Zn100 O107 1.965 . S
Zn100 O111 2.024 . S
Zn100 O116 1.969 . S
Zn101 O108 1.969 . S
Zn101 O114 1.969 . S
Zn101 O115 1.965 . S
Zn101 O117 2.024 . S
C102 O103 1.229 . S
C102 O111 1.058 . S
O103 C102 1.229 . S
C104 O105 1.229 . S
C104 O117 1.058 . S
O105 C104 1.229 . S
O106 Zn100 1.969 . S
O106 C109 1.267 . S
O107 Zn100 1.965 . S
O107 C118 1.260 . S
O108 Zn101 1.969 . S
O108 C118 1.258 . S
C109 O106 1.267 . S
C109 O110 1.228 . S
O110 C109 1.228 . S
O111 Zn100 2.024 . S
O111 C102 1.058 . S
C112 O113 1.228 1_455 S
C112 O114 1.267 1_455 S
O113 C112 1.228 1_655 S
O114 Zn101 1.969 . S
O114 C112 1.267 1_655 S
O115 Zn101 1.965 . S
O115 C119 1.260 . S
O116 Zn100 1.969 . S
O116 C119 1.258 . S
O117 Zn101 2.024 . S
O117 C104 1.058 . S
C118 O107 1.260 . S
C118 O108 1.258 . S
C119 O115 1.260 . S
C119 O116 1.258 . S
Zn120 O126 1.969 . S
Zn120 O127 1.965 . S
Zn120 O131 2.024 . S
Zn120 O136 1.969 . S
Zn121 O128 1.969 . S
Zn121 O134 1.969 . S
Zn121 O135 1.965 . S
Zn121 O137 2.024 . S
C122 O123 1.229 . S
C122 O131 1.058 . S
O123 C122 1.229 . S
C124 O125 1.229 . S
C124 O137 1.058 . S
O125 C124 1.229 . S
O126 Zn120 1.969 . S
O126 C129 1.267 . S
O127 Zn120 1.965 . S
O127 C138 1.260 . S
O128 Zn121 1.969 . S
O128 C138 1.258 . S
C129 O126 1.267 . S
C129 O130 1.228 . S
O130 C129 1.228 . S
O131 Zn120 2.024 . S
O131 C122 1.058 . S
C132 O133 1.228 1_655 S
C132 O134 1.267 1_655 S
O133 C132 1.228 1_455 S
O134 Zn121 1.969 . S
O134 C132 1.267 1_455 S
O135 Zn121 1.965 . S
O135 C139 1.260 . S
O136 Zn120 1.969 . S
O136 C139 1.258 . S
O137 Zn121 2.024 . S
O137 C124 1.058 . S
C138 O127 1.260 . S
C138 O128 1.258 . S
C139 O135 1.260 . S
C139 O136 1.258 . S
Zn140 O146 1.969 . S
Zn140 O147 1.965 . S
Zn140 O151 2.024 . S
Zn140 O156 1.969 . S
Zn141 O148 1.969 . S
Zn141 O154 1.969 . S
Zn141 O155 1.965 . S
Zn141 O157 2.024 . S
C142 O143 1.229 . S
C142 O151 1.058 . S
O143 C142 1.229 . S
C144 O145 1.229 . S
C144 O157 1.058 . S
O145 C144 1.229 . S
O146 Zn140 1.969 . S
O146 C149 1.267 1_565 S
O147 Zn140 1.965 . S
O147 C158 1.260 . S
O148 Zn141 1.969 . S
O148 C158 1.258 . S
C149 O146 1.267 1_545 S
C149 O150 1.228 1_545 S
O150 C149 1.228 1_565 S
O151 Zn140 2.024 . S
O151 C142 1.058 . S
C152 O153 1.228 . S
C152 O154 1.267 . S
O153 C152 1.228 . S
O154 Zn141 1.969 . S
O154 C152 1.267 . S
O155 Zn141 1.965 . S
O155 C159 1.260 . S
O156 Zn140 1.969 . S
O156 C159 1.258 . S
O157 Zn141 2.024 . S
O157 C144 1.058 . S
C158 O147 1.260 . S
C158 O148 1.258 . S
C159 O155 1.260 . S
C159 O156 1.258 . S
Zn160 O166 1.969 . S
Zn160 O167 1.965 . S
Zn160 O171 2.024 . S
Zn160 O176 1.969 . S
Zn161 O168 1.969 . S
Zn161 O174 1.969 . S
Zn161 O175 1.965 . S
Zn161 O177 2.024 . S
C162 O163 1.229 . S
C162 O171 1.058 . S
O163 C162 1.229 . S
C164 O165 1.229 . S
C164 O177 1.058 . S
O165 C164 1.229 . S
O166 Zn160 1.969 . S
O166 C169 1.267 . S
O167 Zn160 1.965 . S
O167 C178 1.260 . S
O168 Zn161 1.969 . S
O168 C178 1.258 . S
C169 O166 1.267 . S
C169 O170 1.228 . S
O170 C169 1.228 . S
O171 Zn160 2.024 . S
O171 C162 1.058 . S
C172 O173 1.228 . S
C172 O174 1.267 . S
O173 C172 1.228 . S
O174 Zn161 1.969 . S
O174 C172 1.267 . S
O175 Zn161 1.965 . S
O175 C179 1.260 . S
O176 Zn160 1.969 . S
O176 C179 1.258 . S
O177 Zn161 2.024 . S
O177 C164 1.058 . S
C178 O167 1.260 . S
C178 O168 1.258 . S
C179 O175 1.260 . S
C179 O176 1.258 . S
Zn180 O186 1.969 . S
Zn180 O187 1.965 . S
Zn180 O191 2.024 . S
Zn180 O196 1.969 . S
Zn181 O188 1.969 . S
Zn181 O194 1.969 . S
Zn181 O195 1.965 . S
Zn181 O197 2.024 . S
C182 O183 1.229 . S
C182 O191 1.058 . S
O183 C182 1.229 . S
C184 O185 1.229 . S
C184 O197 1.058 . S
O185 C184 1.229 . S
O186 Zn180 1.969 . S
O186 C189 1.267 1_455 S
O187 Zn180 1.965 . S
O187 C198 1.260 . S
O188 Zn181 1.969 . S
O188 C198 1.258 . S
C189 O186 1.267 1_655 S
C189 O190 1.228 1_655 S
O190 C189 1.228 1_455 S
O191 Zn180 2.024 . S
O191 C182 1.058 . S
C192 O193 1.228 . S
C192 O194 1.267 . S
O193 C192 1.228 . S
O194 Zn181 1.969 . S
O194 C192 1.267 . S
O195 Zn181 1.965 . S
O195 C199 1.260 . S
O196 Zn180 1.969 . S
O196 C199 1.258 . S
O197 Zn181 2.024 . S
O197 C184 1.058 . S
C198 O187 1.260 . S
C198 O188 1.258 . S
C199 O195 1.260 . S
C199 O196 1.258 . S
Zn200 O206 1.969 . S
Zn200 O207 1.965 . S
Zn200 O211 2.024 . S
Zn200 O216 1.969 . S
Zn201 O208 1.969 . S
Zn201 O214 1.969 . S
Zn201 O215 1.965 . S
Zn201 O217 2.024 . S
C202 O203 1.229 . S
C202 O211 1.058 . S
O203 C202 1.229 . S
C204 O205 1.229 . S
C204 O217 1.058 . S
O205 C204 1.229 . S
O206 Zn200 1.969 . S
O206 C209 1.267 . S
O207 Zn200 1.965 . S
O207 C218 1.260 . S
O208 Zn201 1.969 . S
O208 C218 1.258 . S
C209 O206 1.267 . S
C209 O210 1.228 . S
O210 C209 1.228 . S
O211 Zn200 2.024 . S
O211 C202 1.058 . S
C212 O213 1.228 1_545 S
C212 O214 1.267 1_545 S
O213 C212 1.228 1_565 S
O214 Zn201 1.969 . S
O214 C212 1.267 1_565 S
O215 Zn201 1.965 . S
O215 C219 1.260 . S
O216 Zn200 1.969 . S
O216 C219 1.258 . S
O217 Zn201 2.024 . S
O217 C204 1.058 . S
C218 O207 1.260 . S
C218 O208 1.258 . S
C219 O215 1.260 . S
C219 O216 1.258 . S
Zn220 O226 1.969 . S
Zn220 O227 1.965 . S
Zn220 O231 2.024 . S
Zn220 O236 1.969 . S
Zn221 O228 1.969 . S
Zn221 O234 1.969 . S
Zn221 O235 1.965 . S
Zn221 O237 2.024 . S
C222 O223 1.229 . S
C222 O231 1.058 . S
O223 C222 1.229 . S
C224 O225 1.229 . S
C224 O237 1.058 . S
O225 C224 1.229 . S
O226 Zn220 1.969 . S
O226 C229 1.267 . S
O227 Zn220 1.965 . S
O227 C238 1.260 . S
O228 Zn221 1.969 . S
O228 C238 1.258 . S
C229 O226 1.267 . S
C229 O230 1.228 . S
O230 C229 1.228 . S
O231 Zn220 2.024 . S
O231 C222 1.058 . S
C232 O233 1.228 . S
C232 O234 1.267 . S
O233 C232 1.228 . S
O234 Zn221 1.969 . S
O234 C232 1.267 . S
O235 Zn221 1.965 . S
O235 C239 1.260 . S
O236 Zn220 1.969 . S
O236 C239 1.258 . S
O237 Zn221 2.024 . S
O237 C224 1.058 . S
C238 O227 1.260 . S
C238 O228 1.258 . S
C239 O235 1.260 . S
C239 O236 1.258 . S
C240 C241 1.170 . S
C240 C242 1.380 . S
C241 C240 1.170 . S
C242 C240 1.380 . S
C242 C243 1.170 . S
C243 C242 1.170 . S
C244 C245 1.170 . S
C244 C246 1.380 . S
C245 C244 1.170 . S
C246 C244 1.380 . S
C246 C247 1.170 1_455 S
C247 C246 1.170 1_655 S
C248 C249 1.170 1_565 S
C248 C250 1.380 . S
C249 C248 1.170 1_545 S
C250 C248 1.380 . S
C250 C251 1.170 . S
C251 C250 1.170 . S
C252 C253 1.170 . S
C252 C254 1.380 . S
C253 C252 1.170 . S
C254 C252 1.380 . S
C254 C255 1.170 . S
C255 C254 1.170 . S
C256 C257 1.170 . S
C256 C258 1.380 . S
C257 C256 1.170 . S
C258 C256 1.380 . S
C258 C259 1.170 1_455 S
C259 C258 1.170 1_655 S
C260 C261 1.170 . S
C260 C262 1.380 . S
C261 C260 1.170 . S
C262 C260 1.380 . S
C262 C263 1.170 1_565 S
C263 C262 1.170 1_545 S
C264 C265 1.170 . S
C264 C266 1.380 . S
C265 C264 1.170 . S
C266 C264 1.380 . S
C266 C267 1.170 . S
C267 C266 1.170 . S
C268 C269 1.170 1_655 S
C268 C270 1.380 . S
C269 C268 1.170 1_455 S
C270 C268 1.380 . S
C270 C271 1.170 . S
C271 C270 1.170 . S
C272 C273 1.170 1_545 S
C272 C274 1.380 . S
C273 C272 1.170 1_565 S
C274 C272 1.380 . S
C274 C275 1.170 . S
C275 C274 1.170 . S
C276 C277 1.170 . S
C276 C278 1.380 . S
C277 C276 1.170 . S
C278 C276 1.380 . S
C278 C279 1.170 . S
C279 C278 1.170 . S
C280 C281 1.170 1_655 S
C280 C282 1.380 . S
C281 C280 1.170 1_455 S
C282 C280 1.380 . S
C282 C283 1.170 . S
C283 C282 1.170 . S
C284 C285 1.170 . S
C284 C286 1.380 . S
C285 C284 1.170 . S
C286 C284 1.380 . S
C286 C287 1.170 1_545 S
C287 C286 1.170 1_565 S
C288 C289 1.170 . S
C288 C290 1.380 . S
C289 C288 1.170 . S
C290 C288 1.380 . S
C290 C291 1.170 . S
C291 C290 1.170 . S
C292 C293 1.170 . S
C292 C294 1.380 . S
C293 C292 1.170 . S
C294 C292 1.380 . S
C294 C295 1.170 . S
C295 C294 1.170 . S
C296 C297 1.170 . S
C296 C298 1.380 . S
C297 C296 1.170 . S
C298 C296 1.380 . S
C298 C299 1.170 . S
C299 C298 1.170 . S
C300 C301 1.170 . S
C300 C302 1.380 . S
C301 C300 1.170 . S
C302 C300 1.380 . S
C302 C303 1.170 . S
C303 C302 1.170 . S
C304 C305 1.170 . S
C304 C306 1.380 . S
C305 C304 1.170 . S
C306 C304 1.380 . S
C306 C307 1.170 . S
C307 C306 1.170 . S
C308 C309 1.170 . S
C308 C310 1.380 . S
C309 C308 1.170 . S
C310 C308 1.380 . S
C310 C311 1.170 . S
C311 C310 1.170 . S
C312 C313 1.170 . S
C312 C314 1.380 1_566 S
C313 C312 1.170 . S
C314 C312 1.380 1_544 S
C314 C315 1.170 . S
C315 C314 1.170 . S
C316 C317 1.170 . S
C316 C318 1.380 . S
C317 C316 1.170 . S
C318 C316 1.380 . S
C318 C319 1.170 . S
C319 C318 1.170 . S
C320 C321 1.170 . S
C320 C322 1.380 1_456 S
C321 C320 1.170 . S
C322 C320 1.380 1_654 S
C322 C323 1.170 . S
C323 C322 1.170 . S
C324 C325 1.170 . S
C324 C326 1.380 1_545 S
C325 C324 1.170 . S
C326 C324 1.380 1_565 S
C326 C327 1.170 . S
C327 C326 1.170 . S
C328 C329 1.170 . S
C328 C330 1.380 1_554 S
C329 C328 1.170 . S
C330 C328 1.380 1_556 S
C330 C331 1.170 . S
C331 C330 1.170 . S
C332 C333 1.170 . S
C332 C334 1.380 1_455 S
C333 C332 1.170 . S
C334 C332 1.380 1_655 S
C334 C335 1.170 . S
C335 C334 1.170 . S
C336 C337 1.170 . S
C336 C338 1.380 . S
C337 C336 1.170 . S
C338 C336 1.380 . S
C338 C339 1.170 . S
C339 C338 1.170 . S
C340 C341 1.170 . S
C340 C342 1.380 . S
C341 C340 1.170 . S
C342 C340 1.380 . S
C342 C343 1.170 . S
C343 C342 1.170 . S
C344 C345 1.170 . S
C344 C346 1.380 . S
C345 C344 1.170 . S
C346 C344 1.380 . S
C346 C347 1.170 . S
C347 C346 1.170 . S
C348 C349 1.170 . S
C348 C350 1.380 . S
C349 C348 1.170 . S
C350 C348 1.380 . S
C350 C351 1.170 . S
C351 C350 1.170 . S
C352 C353 1.170 . S
C352 C354 1.380 . S
C353 C352 1.170 . S
C354 C352 1.380 . S
C354 C355 1.170 . S
C355 C354 1.170 . S
C356 C357 1.170 . S
C356 C358 1.380 . S
C357 C356 1.170 . S
C358 C356 1.380 . S
C358 C359 1.170 . S
C359 C358 1.170 . S
C360 C361 1.170 . S
C360 C362 1.380 . S
C361 C360 1.170 . S
C362 C360 1.380 . S
C362 C363 1.170 . S
C363 C362 1.170 . S
C364 C365 1.170 . S
C364 C366 1.380 . S
C365 C364 1.170 . S
C366 C364 1.380 . S
C366 C367 1.170 . S
C367 C366 1.170 . S
C368 C369 1.170 . S
C368 C370 1.380 . S
C369 C368 1.170 . S
C370 C368 1.380 . S
C370 C371 1.170 . S
C371 C370 1.170 . S
C372 C373 1.170 . S
C372 C374 1.380 . S
C373 C372 1.170 . S
C374 C372 1.380 . S
C374 C375 1.170 . S
C375 C374 1.170 . S
C376 C377 1.170 . S
C376 C378 1.380 . S
C377 C376 1.170 . S
C378 C376 1.380 . S
C378 C379 1.170 . S
C379 C378 1.170 . S
C380 C381 1.170 . S
C380 C382 1.380 . S
C381 C380 1.170 . S
C382 C380 1.380 . S
C382 C383 1.170 . S
C383 C382 1.170 . S
C241 C49 1.169 . S
C243 C2 1.212 . S
C245 C72 1.121 . S
C247 C24 1.211 . S
C249 C42 1.181 . S
C251 C89 1.147 . S
C253 C64 1.209 . S
C255 C112 1.152 . S
C257 C9 1.102 . S
C259 C82 1.167 . S
C261 C32 1.156 . S
C263 C104 1.164 . S
C265 C212 1.110 . S
C267 C124 1.206 . S
C269 C142 1.165 . S
C271 C229 1.116 . S
C273 C164 1.188 . S
C275 C132 1.173 . S
C277 C182 1.194 . S
C279 C149 1.163 . S
C281 C204 1.163 . S
C283 C172 1.138 . S
C285 C189 1.115 . S
C287 C222 1.184 . S
C289 C78 1.728 . S
C291 C19 1.735 . S
C293 C38 1.740 . S
C295 C99 1.734 . S
C297 C59 1.730 . S
C299 C118 1.722 . S
C301 C138 1.732 . S
C303 C199 1.724 . S
C305 C159 1.722 . S
C307 C218 1.718 . S
C309 C178 1.738 . S
C311 C239 1.742 . S
C313 C158 2.003 . S
C315 C18 1.979 . S
C317 C39 1.971 . S
C319 C179 1.989 . S
C321 C198 2.002 . S
C323 C58 1.975 . S
C325 C79 1.975 . S
C327 C219 1.996 . S
C329 C98 2.002 . S
C331 C238 1.975 . S
C333 C139 1.988 . S
C335 C119 1.984 . S
C337 C52 1.444 . S
C339 C4 1.257 . S
C341 C22 1.271 . S
C343 C69 1.442 . S
C345 C44 1.293 . S
C347 C92 1.454 . S
C349 C62 1.321 . S
C351 C109 1.442 . S
C353 C12 1.439 . S
C355 C84 1.260 . S
C357 C29 1.450 . S
C359 C102 1.329 . S
C361 C209 1.432 . S
C363 C122 1.302 . S
C365 C144 1.257 . S
C367 C232 1.449 . S
C369 C162 1.316 . S
C371 C129 1.439 . S
C373 C152 1.439 . S
C375 C184 1.260 . S
C377 C202 1.312 . S
C379 C169 1.437 . S
C381 C224 1.258 . S
C383 C192 1.441 . S
