# Generated by pormake.
# Topology snp, (6)-cn, num edge types: 1
# Building blocks:
#     Node 0, Type 0, BuildingBlock: CUKXOW_clean_sbu_0, # of connection points: 6
#     Node 1, Type 0, BuildingBlock: CUKXOW_clean_sbu_0, # of connection points: 6
#     Node 2, Type 0, BuildingBlock: CUKXOW_clean_sbu_0, # of connection points: 6
#     Node 3, Type 0, BuildingBlock: CUKXOW_clean_sbu_0, # of connection points: 6
#     Edge 4, Type (0, 0), BuildingBlock: UVAHIK_clean_linker_0, # of connection points: 2
#     Edge 5, Type (0, 0), BuildingBlock: UVAHIK_clean_linker_0, # of connection points: 2
#     Edge 6, Type (0, 0), BuildingBlock: UVAHIK_clean_linker_0, # of connection points: 2
#     Edge 7, Type (0, 0), BuildingBlock: UVAHIK_clean_linker_0, # of connection points: 2
#     Edge 8, Type (0, 0), BuildingBlock: UVAHIK_clean_linker_0, # of connection points: 2
#     Edge 9, Type (0, 0), BuildingBlock: UVAHIK_clean_linker_0, # of connection points: 2
#     Edge 10, Type (0, 0), BuildingBlock: UVAHIK_clean_linker_0, # of connection points: 2
#     Edge 11, Type (0, 0), BuildingBlock: UVAHIK_clean_linker_0, # of connection points: 2
#     Edge 12, Type (0, 0), BuildingBlock: UVAHIK_clean_linker_0, # of connection points: 2
#     Edge 13, Type (0, 0), BuildingBlock: UVAHIK_clean_linker_0, # of connection points: 2
#     Edge 14, Type (0, 0), BuildingBlock: UVAHIK_clean_linker_0, # of connection points: 2
#     Edge 15, Type (0, 0), BuildingBlock: UVAHIK_clean_linker_0, # of connection points: 2
# Relax obj value: 0.228
# Max RMSD: 0.183
# Mean RMSD: 0.179
data_MOF--net-snp--node1-CUKXOW_clean_sbu_0--edge1-UVAHIK_clean_linker_0
_symmetry_space_group_name_H-M    P1
_symmetry_Int_Tables_number       1
_symmetry_cell_setting            triclinic
loop_
_symmetry_equiv_pos_as_xyz
'x, y, z'
_cell_length_a     31.368781
_cell_length_b     31.731701
_cell_length_c     35.26035
_cell_angle_alpha  100.72704
_cell_angle_beta   98.325418
_cell_angle_gamma 101.9216
loop_
_atom_site_label
_atom_site_type_symbol
_atom_site_fract_x
_atom_site_fract_y
_atom_site_fract_z
_atom_type_partial_charge
Tb0 Tb 0.28602 0.09695 0.11407 0.0
C1 C 0.38154 0.15145 0.10994 0.0
Tb2 Tb 0.29415 0.18007 0.07714 0.0
O3 O 0.28217 0.04667 0.05988 0.0
O4 O 0.29104 0.11235 0.05976 0.0
O5 O 0.35777 0.11608 0.11898 0.0
C6 C 0.31165 0.23654 0.03096 0.0
O7 O 0.36398 0.18179 0.09635 0.0
C8 C 0.27117 0.19074 0.14689 0.0
C9 C 0.20442 0.1105 0.06218 0.0
O10 O 0.33462 0.20853 0.03849 0.0
O11 O 0.2788 0.23289 0.04959 0.0
O12 O 0.26494 0.21541 0.12212 0.0
O13 O 0.29587 0.16655 0.1344 0.0
O14 O 0.23056 0.13795 0.04643 0.0
O15 O 0.21838 0.10373 0.09746 0.0
C16 C 0.2797 0.05063 0.16972 0.0
O17 O 0.25178 0.04221 0.13673 0.0
O18 O 0.31121 0.08487 0.17118 0.0
C19 C 0.2851 0.07491 0.0372 0.0
Tb20 Tb 0.10346 0.27866 0.59126 0.0
C21 C 0.08622 0.36984 0.57255 0.0
Tb22 Tb 0.0255 0.27829 0.52416 0.0
O23 O 0.15589 0.27695 0.55516 0.0
O24 O 0.09281 0.27708 0.53106 0.0
O25 O 0.11077 0.35003 0.59439 0.0
C26 C 0.97913 0.27605 0.45408 0.0
O27 O 0.0508 0.34841 0.54519 0.0
C28 C 1.00016 0.2625 0.5903 0.0
C29 C 0.04158 0.19346 0.53743 0.0
O30 O 0.01541 0.30524 0.47173 0.0
O31 O 0.96857 0.24899 0.47648 0.0
O32 O 0.97397 0.25263 0.55613 0.0
O33 O 0.03678 0.28584 0.58666 0.0
O34 O 0.04746 0.2183 0.51191 0.0
O35 O 0.06067 0.21111 0.5748 0.0
C36 C 0.15169 0.28316 0.6609 0.0
O37 O 0.14739 0.25244 0.62964 0.0
O38 O 0.12832 0.31084 0.65313 0.0
C39 C 0.13019 0.27601 0.52246 0.0
Tb40 Tb 0.8444 0.98218 0.0489 0.0
C41 C 0.89108 0.94691 0.98048 0.0
Tb42 Tb 0.85466 0.03338 0.9786 0.0
O43 O 0.7998 0.92239 1.0098 0.0
O44 O 0.80864 0.98248 0.99351 0.0
O45 O 0.88783 0.94904 1.01794 0.0
C46 C 0.87259 0.06485 0.91456 0.0
O47 O 0.87708 0.97374 0.95941 0.0
C48 C 0.90173 0.07445 0.0487 0.0
C49 C 0.78941 0.05504 0.03559 0.0
O50 O 0.9012 0.05958 0.94276 0.0
O51 O 0.83298 0.05177 0.92215 0.0
O52 O 0.89076 0.09426 0.02118 0.0
O53 O 0.89025 0.03334 0.03468 0.0
O54 O 0.79881 0.05516 0.99973 0.0
O55 O 0.80795 0.03394 0.06052 0.0
C56 C 0.86045 0.95987 0.11972 0.0
O57 O 0.82215 0.96274 0.10164 0.0
O58 O 0.88942 0.96989 0.09792 0.0
C59 C 0.79168 0.94165 0.98082 0.0
Tb60 Tb 0.06693 0.89749 0.54304 0.0
C61 C 0.0624 0.80747 0.57217 0.0
Tb62 Tb 0.99206 0.86459 0.58338 0.0
O63 O 0.09829 0.95138 0.594 0.0
O64 O 0.06189 0.89232 0.60211 0.0
O65 O 0.08468 0.8369 0.55513 0.0
C66 C 0.94399 0.84994 0.63795 0.0
O67 O 0.02528 0.81146 0.58482 0.0
C68 C 0.96586 0.85637 0.50614 0.0
C69 C 0.99503 0.94975 0.55624 0.0
O70 O 0.93872 0.82325 0.60389 0.0
O71 O 0.97595 0.88425 0.64096 0.0
O72 O 0.94021 0.85918 0.53183 0.0
O73 O 1.00292 0.85375 0.52429 0.0
O74 O 0.99499 0.93381 0.58806 0.0
O75 O 0.0203 0.93817 0.53098 0.0
C76 C 0.12188 0.90818 0.49221 0.0
O77 O 0.08896 0.87461 0.48831 0.0
O78 O 0.12425 0.93568 0.52497 0.0
C79 C 0.08294 0.93124 0.61977 0.0
C80 C 0.90881 0.90487 0.92 0.0
C81 C 0.9134 0.91473 0.96116 0.0
C82 C 0.93982 0.88641 0.90244 0.0
C83 C 0.05813 0.88254 0.93694 0.0
H84 H 0.06951 0.99506 0.90713 0.0
C85 C 0.15366 0.03517 0.04472 0.0
C86 C 0.17021 0.07494 0.03404 0.0
C87 C 0.13158 0.9974 1.01598 0.0
C88 C 0.06813 0.9635 0.915 0.0
H89 H 0.94726 0.90393 1.01523 0.0
H90 H 1.00246 0.87451 0.98549 0.0
H91 H 1.00399 0.93793 0.87988 0.0
H92 H 0.17404 0.10677 0.98474 0.0
H93 H 0.1368 0.04089 0.93478 0.0
H94 H 0.12192 0.9099 0.97415 0.0
C95 C 0.97557 0.88077 0.9661 0.0
C96 C 0.02999 0.92996 0.89896 0.0
C97 C 0.9441 0.89841 0.98358 0.0
C98 C 0.16187 0.07662 0.9941 0.0
C99 C 0.14072 0.03861 0.96528 0.0
C100 C 0.09676 0.9159 0.95273 0.0
C101 C 0.9771 0.88022 0.92615 0.0
C102 C 0.02159 0.89255 0.91545 0.0
C103 C 0.12586 0.99823 0.97574 0.0
C104 C 0.0991 0.95856 0.94585 0.0
H105 H 0.88386 0.91513 0.90168 0.0
H106 H 0.93842 0.88382 0.87119 0.0
H107 H 0.05405 0.85237 0.94765 0.0
H108 H 0.15935 0.03257 0.07515 0.0
H109 H 0.11879 0.96758 0.02556 0.0
C110 C 0.9176 0.95558 0.56013 0.0
C111 C 0.95466 0.96357 0.54183 0.0
C112 C 0.87703 0.96236 0.54391 0.0
C113 C 0.83136 0.01283 0.46372 0.0
H114 H 0.8458 0.09665 0.56151 0.0
C115 C 0.97139 0.15401 0.49068 0.0
C116 C 0.99813 0.1611 0.5281 0.0
C117 C 0.92636 0.13375 0.48363 0.0
C118 C 0.84163 0.07385 0.53351 0.0
H119 H 0.97732 0.98277 0.49107 0.0
H120 H 0.90836 0.99771 0.46406 0.0
H121 H 0.82087 0.01841 0.55805 0.0
H122 H 0.99878 0.1496 0.58674 0.0
H123 H 0.92196 0.10915 0.57342 0.0
H124 H 0.85755 0.06683 0.43945 0.0
C125 C 0.90949 0.98501 0.49051 0.0
C126 C 0.82668 0.02864 0.53125 0.0
C127 C 0.94989 0.97763 0.5065 0.0
C128 C 0.97929 0.14456 0.55757 0.0
C129 C 0.93446 0.12258 0.55006 0.0
C130 C 0.84788 0.05777 0.46559 0.0
C131 C 0.87256 0.97867 0.50956 0.0
C132 C 0.83474 0.99917 0.49947 0.0
C133 C 0.907 0.1172 0.51299 0.0
C134 C 0.8616 0.08704 0.50297 0.0
H135 H 0.91949 0.94325 0.58682 0.0
H136 H 0.84962 0.95656 0.55926 0.0
H137 H 0.82997 0.98956 0.43658 0.0
H138 H 0.98468 0.16607 0.46696 0.0
H139 H 0.90705 0.13083 0.45485 0.0
C140 C 0.7354 0.10256 0.02528 0.0
C141 C 0.75404 0.07628 0.0477 0.0
C142 C 0.69968 0.11947 0.03549 0.0
C143 C 0.63479 0.1354 0.11644 0.0
H144 H 0.54118 0.13401 0.03107 0.0
C145 C 0.45168 0.12828 0.13061 0.0
C146 C 0.42961 0.15475 0.11105 0.0
C147 C 0.49506 0.12647 0.12661 0.0
C148 C 0.5673 0.13515 0.05526 0.0
H149 H 0.75005 0.04795 0.099 0.0
H150 H 0.68752 0.07587 0.11582 0.0
H151 H 0.60978 0.11639 1.01636 0.0
H152 H 0.43667 0.20138 0.07309 0.0
H153 H 0.51205 0.19765 0.06582 0.0
H154 H 0.59091 0.15201 0.15509 0.0
C155 C 0.70092 0.08463 0.09095 0.0
C156 C 0.60682 0.12523 0.04687 0.0
C157 C 0.73681 0.06823 0.08105 0.0
C158 C 0.45263 0.18076 0.08874 0.0
C159 C 0.49572 0.17842 0.08428 0.0
C160 C 0.59497 0.14467 0.12475 0.0
C161 C 0.68144 0.1101 0.06812 0.0
C162 C 0.64095 0.12461 0.0773 0.0
C163 C 0.51704 0.15059 0.10253 0.0
C164 C 0.56065 0.14419 0.09422 0.0
H165 H 0.74802 0.10969 0.99957 0.0
H166 H 0.68619 0.13962 1.01757 0.0
H167 H 0.66058 0.13629 0.14077 0.0
H168 H 0.43497 0.10786 0.14804 0.0
H169 H 0.51061 0.10456 0.14088 0.0
C170 C 0.07933 0.43726 0.5482 0.0
C171 C 0.09817 0.41854 0.57772 0.0
C172 C 0.08658 0.4828 0.5531 0.0
C173 C 0.15115 0.58962 0.59044 0.0
H174 H 0.04043 0.62297 0.6006 0.0
C175 C 0.1066 0.75058 0.55639 0.0
C176 C 0.08005 0.76956 0.58007 0.0
C177 C 0.11814 0.7114 0.56206 0.0
C178 C 0.07189 0.61457 0.59846 0.0
H179 H 0.14167 0.43338 0.63466 0.0
H180 H 0.15417 0.51429 0.64331 0.0
H181 H 0.04529 0.54746 0.60044 0.0
H182 H 0.04847 0.76491 0.63053 0.0
H183 H 0.06894 0.69768 0.64055 0.0
H184 H 0.1772 0.65674 0.58689 0.0
C185 C 0.13383 0.49289 0.61642 0.0
C186 C 0.07456 0.57132 0.59836 0.0
C187 C 0.12651 0.44679 0.61153 0.0
C188 C 0.06799 0.75052 0.61108 0.0
C189 C 0.07976 0.71196 0.61692 0.0
C190 C 0.14842 0.63321 0.59028 0.0
C191 C 0.11305 0.51094 0.58746 0.0
C192 C 0.11393 0.55836 0.59392 0.0
C193 C 0.10354 0.69101 0.59166 0.0
C194 C 0.10854 0.64595 0.59395 0.0
H195 H 0.05805 0.41675 0.52136 0.0
H196 H 0.07033 0.49614 0.53043 0.0
H197 H 0.18162 0.57993 0.58637 0.0
H198 H 0.11658 0.76475 0.53245 0.0
H199 H 0.13646 0.69594 0.54207 0.0
C200 C 0.11084 0.25541 0.4479 0.0
C201 C 0.14272 0.2696 0.48297 0.0
C202 C 0.12391 0.24603 0.41125 0.0
C203 C 0.21946 0.27113 0.36182 0.0
H204 H 0.16274 0.16176 0.28544 0.0
C205 C 0.25018 0.23891 0.20212 0.0
C206 C 0.25859 0.19799 0.18639 0.0
C207 C 0.23639 0.24661 0.23829 0.0
C208 C 0.17904 0.19234 0.30655 0.0
H209 H 0.21318 0.28584 0.5069 0.0
H210 H 0.23588 0.27081 0.44342 0.0
H211 H 0.13645 0.17842 0.34764 0.0
H212 H 0.25765 0.13259 0.19612 0.0
H213 H 0.23292 0.14571 0.2595 0.0
H214 H 0.26165 0.28544 0.32081 0.0
C215 C 0.20084 0.26656 0.44401 0.0
C216 C 0.16367 0.2021 0.34201 0.0
C217 C 0.18778 0.27514 0.48047 0.0
C218 C 0.25237 0.16465 0.20774 0.0
C219 C 0.23768 0.17209 0.24382 0.0
C220 C 0.23426 0.26175 0.32621 0.0
C221 C 0.16917 0.25147 0.40887 0.0
C222 C 0.18386 0.24157 0.37022 0.0
C223 C 0.22967 0.21332 0.25963 0.0
C224 C 0.21439 0.22221 0.29808 0.0
H225 H 0.07584 0.25062 0.44881 0.0
H226 H 0.09865 0.23479 0.38475 0.0
H227 H 0.2357 0.30188 0.38273 0.0
H228 H 0.25432 0.26528 0.18638 0.0
H229 H 0.23015 0.27856 0.24925 0.0
C230 C 0.01981 0.24859 0.65918 0.0
C231 C 0.98841 0.24452 0.62507 0.0
C232 C 0.00773 0.22944 0.69042 0.0
C233 C 0.90876 0.18564 0.73294 0.0
H234 H 0.98742 0.12737 0.78705 0.0
C235 C 0.85244 0.08628 0.8492 0.0
C236 C 0.88463 0.08449 0.88072 0.0
C237 C 0.86484 0.10528 0.81798 0.0
C238 C 0.96505 0.14402 0.77291 0.0
H239 H 0.91938 0.21671 0.5975 0.0
H240 H 0.89839 0.184 0.6514 0.0
H241 H 0.00998 0.16236 0.73485 0.0
H242 H 0.95529 0.10187 0.90389 0.0
H243 H 0.97671 0.13577 0.85091 0.0
H244 H 0.8641 0.16814 0.77124 0.0
C245 C 0.93239 0.20226 0.65451 0.0
C246 C 0.97815 0.16417 0.74262 0.0
C247 C 0.94456 0.22103 0.62334 0.0
C248 C 0.92946 0.10232 0.88009 0.0
C249 C 0.94184 0.12161 0.84922 0.0
C250 C 0.89581 0.16588 0.76348 0.0
C251 C 0.96368 0.20598 0.68869 0.0
C252 C 0.95021 0.18526 0.72193 0.0
C253 C 0.90988 0.1235 0.81736 0.0
C254 C 0.92362 0.14453 0.78415 0.0
H255 H 0.05379 0.26616 0.66165 0.0
H256 H 0.03291 0.23347 0.71617 0.0
H257 H 0.88635 0.20196 0.71833 0.0
H258 H 0.81762 0.07276 0.84852 0.0
H259 H 0.83891 0.10512 0.79407 0.0
C260 C 0.91417 0.87436 0.45286 0.0
C261 C 0.95491 0.86432 0.4654 0.0
C262 C 0.90386 0.88414 0.41574 0.0
C263 C 0.95552 0.92102 0.33446 0.0
H264 H 0.8359 0.87803 0.27358 0.0
C265 C 0.91305 0.94405 0.17375 0.0
C266 C 0.87047 0.94871 0.15916 0.0
C267 C 0.92305 0.93371 0.21069 0.0
C268 C 0.86941 0.89109 0.2902 0.0
H269 H 0.0154 0.85436 0.44687 0.0
H270 H 0.99829 0.8723 0.38267 0.0
H271 H 0.85366 0.86038 0.33749 0.0
H272 H 0.80509 0.94651 0.17273 0.0
H273 H 0.82247 0.92963 0.23733 0.0
H274 H 0.97127 0.95246 0.28776 0.0
C275 C 0.97446 0.8735 0.40197 0.0
C276 C 0.87968 0.88071 0.32713 0.0
C277 C 0.98454 0.86333 0.43906 0.0
C278 C 0.83817 0.94292 0.18281 0.0
C279 C 0.84823 0.93289 0.21997 0.0
C280 C 0.94518 0.93177 0.2977 0.0
C281 C 0.93393 0.88422 0.38964 0.0
C282 C 0.92296 0.89535 0.34994 0.0
C283 C 0.89092 0.92798 0.23473 0.0
C284 C 0.90191 0.91691 0.27464 0.0
H285 H 0.89031 0.87549 0.47215 0.0
H286 H 0.87252 0.89259 0.40788 0.0
H287 H 0.98907 0.93364 0.35114 0.0
H288 H 0.93881 0.94811 0.15641 0.0
H289 H 0.95605 0.92956 0.22001 0.0
C290 C 0.13934 0.98182 0.67629 0.0
C291 C 0.10172 0.94633 0.66286 0.0
C292 C 0.15867 0.99602 0.71634 0.0
C293 C 0.15547 0.96439 0.81503 0.0
H294 H 0.23248 0.08183 0.85229 0.0
C295 C 0.25774 0.0179 0.97404 0.0
C296 C 0.26989 0.06266 0.99359 0.0
C297 C 0.23802 0.00479 0.93404 0.0
C298 C 0.21064 0.04911 0.843 0.0
H299 H 0.05496 0.89796 0.68159 0.0
H300 H 0.08582 0.92473 0.75154 0.0
H301 H 0.19387 0.0587 0.785 0.0
H302 H 0.27222 0.12904 0.98569 0.0
H303 H 0.23586 0.10656 0.91679 0.0
H304 H 0.16914 0.95638 0.87402 0.0
C305 C 0.10206 0.94087 0.73124 0.0
C306 C 0.1889 0.03516 0.80345 0.0
C307 C 0.08359 0.92569 0.69083 0.0
C308 C 0.26317 0.09423 0.97166 0.0
C309 C 0.24243 0.08109 0.93172 0.0
C310 C 0.17613 0.97885 0.85487 0.0
C311 C 0.14032 0.97627 0.74493 0.0
C312 C 0.16151 0.99212 0.78826 0.0
C313 C 0.22882 0.03594 0.91216 0.0
C314 C 0.20494 0.02122 0.8696 0.0
H315 H 0.15471 0.99824 0.65564 0.0
H316 H 0.18869 0.02217 0.72438 0.0
H317 H 0.1353 0.93094 0.80543 0.0
H318 H 0.26269 0.99264 0.98991 0.0
H319 H 0.22991 0.9699 0.92053 0.0
C320 C 0.78165 0.87304 0.92957 0.0
C321 C 0.78226 0.91816 0.93916 0.0
C322 C 0.78391 0.85287 0.89145 0.0
C323 C 0.78386 0.86908 0.78936 0.0
H324 H 0.88432 0.81536 0.797 0.0
C325 C 0.87375 0.81865 0.65954 0.0
C326 C 0.91778 0.84393 0.66869 0.0
C327 C 0.84818 0.81716 0.68897 0.0
C328 C 0.85568 0.82948 0.79427 0.0
H329 H 0.77992 0.97609 0.91581 0.0
H330 H 0.78516 0.94143 0.84925 0.0
H331 H 0.85007 0.83108 0.85401 0.0
H332 H 0.97031 0.88601 0.71539 0.0
H333 H 0.92633 0.882 0.76686 0.0
H334 H 0.79112 0.86884 0.72969 0.0
C335 C 0.78292 0.92147 0.87102 0.0
C336 C 0.83591 0.83841 0.82684 0.0
C337 C 0.78043 0.94156 0.90918 0.0
C338 C 0.9364 0.86628 0.70766 0.0
C339 C 0.91136 0.86389 0.73707 0.0
C340 C 0.80327 0.85942 0.75646 0.0
C341 C 0.78681 0.87746 0.86224 0.0
C342 C 0.8009 0.85989 0.82526 0.0
C343 C 0.86691 0.83989 0.72791 0.0
C344 C 0.84034 0.84104 0.7592 0.0
H345 H 0.78254 0.85402 0.95207 0.0
H346 H 0.78602 0.81869 0.88541 0.0
H347 H 0.75669 0.88529 0.78718 0.0
H348 H 0.85873 0.80144 0.62954 0.0
H349 H 0.81388 0.79856 0.68138 0.0
C350 C 0.23794 0.99228 0.19825 0.0
C351 C 0.27324 0.02921 0.20273 0.0
C352 C 0.22907 0.97499 0.23074 0.0
C353 C 0.23971 0.01114 0.33628 0.0
H354 H 0.20721 0.88614 0.33516 0.0
C355 C 0.18492 0.9526 0.47003 0.0
C356 C 0.14809 0.91648 0.46185 0.0
C357 C 0.20692 0.96312 0.44005 0.0
C358 C 0.21589 0.92116 0.33586 0.0
H359 H 0.32787 0.07625 0.24405 0.0
H360 H 0.31211 0.04629 0.30092 0.0
H361 H 0.23295 0.91011 0.27867 0.0
H362 H 0.10594 0.86218 0.41655 0.0
H363 H 0.14324 0.88119 0.36394 0.0
H364 H 0.22088 0.0225 0.39236 0.0
C365 C 0.29133 0.03073 0.27238 0.0
C366 C 0.23076 0.93481 0.30357 0.0
C367 C 0.30045 0.0477 0.23985 0.0
C368 C 0.13447 0.89011 0.4236 0.0
C369 C 0.15606 0.90092 0.39351 0.0
C370 C 0.2244 0.99753 0.36831 0.0
C371 C 0.2551 0.9947 0.26826 0.0
C372 C 0.24243 0.97993 0.30337 0.0
C373 C 0.19206 0.93807 0.40119 0.0
C374 C 0.21184 0.95234 0.36839 0.0
H375 H 0.21647 0.97753 0.16988 0.0
H376 H 0.20071 0.94743 0.22682 0.0
H377 H 0.24782 0.04612 0.33665 0.0
H378 H 0.19618 0.97325 0.49942 0.0
H379 H 0.23508 0.99139 0.44723 0.0
C380 C 0.21347 0.26403 0.70153 0.0
C381 C 0.1801 0.28723 0.6989 0.0
C382 C 0.24074 0.26827 0.73768 0.0
C383 C 0.27144 0.33448 0.84146 0.0
H384 H 0.29518 0.22525 0.86295 0.0
C385 C 0.28648 0.28685 0.99111 0.0
C386 C 0.31599 0.26064 0.99948 0.0
C387 C 0.28365 0.30136 0.95603 0.0
C388 C 0.28978 0.25631 0.8572 0.0
H389 H 0.14882 0.33317 0.73127 0.0
H390 H 0.19462 0.33882 0.79481 0.0
H391 H 0.26188 0.22682 0.797 0.0
H392 H 0.36864 0.23249 0.98012 0.0
H393 H 0.3632 0.25737 0.91843 0.0
H394 H 0.29649 0.3627 0.90289 0.0
C395 C 0.20113 0.3186 0.769 0.0
C396 C 0.27067 0.25727 0.81929 0.0
C397 C 0.17448 0.31499 0.73271 0.0
C398 C 0.34539 0.25245 0.97412 0.0
C399 C 0.34228 0.2666 0.93888 0.0
C400 C 0.28996 0.33327 0.87963 0.0
C401 C 0.23447 0.29509 0.772 0.0
C402 C 0.26022 0.29605 0.81111 0.0
C403 C 0.31004 0.28947 0.92881 0.0
C404 C 0.29837 0.29388 0.88791 0.0
H405 H 0.21874 0.24288 0.67562 0.0
H406 H 0.26657 0.25032 0.7387 0.0
H407 H 0.26478 0.36519 0.83602 0.0
H408 H 0.26363 0.2937 1.01039 0.0
H409 H 0.25833 0.31873 0.94882 0.0
C410 C 0.89799 0.07656 0.11904 0.0
C411 C 0.91406 0.09708 0.09047 0.0
C412 C 0.90544 0.09954 0.15797 0.0
C413 C 0.93141 0.21244 0.21928 0.0
H414 H 0.95095 0.15124 0.30333 0.0
C415 C 0.98257 0.29085 0.38754 0.0
C416 C 0.96127 0.26646 0.41176 0.0
C417 C 0.97332 0.2748 0.34681 0.0
C418 C 0.94506 0.16858 0.28009 0.0
H419 H 0.95059 0.15814 0.07978 0.0
H420 H 0.96502 0.19861 0.14846 0.0
H421 H 0.94718 0.11359 0.23584 0.0
H422 H 0.91091 0.20866 0.41268 0.0
H423 H 0.89477 0.18072 0.34158 0.0
H424 H 0.93047 0.2679 0.26432 0.0
C425 C 0.94612 0.16455 0.14067 0.0
C426 C 0.94294 0.14708 0.24146 0.0
C427 C 0.93823 0.14135 0.10152 0.0
C428 C 0.92788 0.22799 0.3946 0.0
C429 C 0.91885 0.21186 0.35403 0.0
C430 C 0.9341 0.23422 0.25819 0.0
C431 C 0.92942 0.1439 0.16926 0.0
C432 C 0.93536 0.16844 0.21051 0.0
C433 C 0.94289 0.23413 0.33003 0.0
C434 C 0.94018 0.21211 0.28876 0.0
H435 H 0.87735 0.04369 0.11102 0.0
H436 H 0.89089 0.0829 0.17888 0.0
H437 H 0.92509 0.22966 0.19606 0.0
H438 H 0.00852 0.3206 0.40019 0.0
H439 H 0.99224 0.29248 0.32881 0.0
loop_
_geom_bond_atom_site_label_1
_geom_bond_atom_site_label_2
_geom_bond_distance
_geom_bond_site_symmetry_2
_ccdc_geom_bond_type
Tb0 O3 2.466 . S
Tb0 O4 2.596 . S
Tb0 O5 2.374 . S
Tb0 O13 2.343 . S
Tb0 O15 2.353 . S
Tb0 O17 2.427 . S
Tb0 O18 2.513 . S
C1 O5 1.251 . S
C1 O7 1.263 . S
Tb2 O4 2.343 . S
Tb2 O7 2.353 . S
Tb2 O10 2.427 1_554 S
Tb2 O11 2.513 1_554 S
Tb2 O12 2.453 . S
Tb2 O13 2.596 . S
Tb2 O14 2.374 . S
O3 Tb0 2.466 . S
O3 C19 1.239 1_554 S
O4 Tb0 2.596 . S
O4 Tb2 2.343 . S
O4 C19 1.259 1_554 S
O5 Tb0 2.374 . S
O5 C1 1.251 . S
C6 O10 1.275 . S
C6 O11 1.246 . S
O7 C1 1.263 . S
O7 Tb2 2.353 . S
C8 O12 1.245 . S
C8 O13 1.259 . S
C9 O14 1.250 . S
C9 O15 1.263 . S
O10 Tb2 2.427 1_556 S
O10 C6 1.275 . S
O11 Tb2 2.513 1_556 S
O11 C6 1.246 . S
O12 Tb2 2.453 . S
O12 C8 1.245 . S
O13 Tb0 2.343 . S
O13 Tb2 2.596 . S
O13 C8 1.259 . S
O14 Tb2 2.374 . S
O14 C9 1.250 . S
O15 Tb0 2.353 . S
O15 C9 1.263 . S
C16 O17 1.275 . S
C16 O18 1.246 . S
O17 Tb0 2.427 . S
O17 C16 1.275 . S
O18 Tb0 2.513 . S
O18 C16 1.246 . S
C19 O3 1.239 1_556 S
C19 O4 1.259 1_556 S
Tb20 O23 2.453 . S
Tb20 O24 2.596 . S
Tb20 O25 2.374 . S
Tb20 O33 2.343 . S
Tb20 O35 2.353 . S
Tb20 O37 2.427 . S
Tb20 O38 2.513 . S
C21 O25 1.251 . S
C21 O27 1.263 . S
Tb22 O24 2.343 1_655 S
Tb22 O27 2.353 1_655 S
Tb22 O30 2.427 . S
Tb22 O31 2.513 . S
Tb22 O32 2.453 . S
Tb22 O33 2.596 1_655 S
Tb22 O34 2.374 1_655 S
O23 Tb20 2.453 . S
O23 C39 1.245 . S
O24 Tb20 2.596 . S
O24 Tb22 2.343 1_455 S
O24 C39 1.259 . S
O25 Tb20 2.374 . S
O25 C21 1.251 . S
C26 O30 1.275 . S
C26 O31 1.246 . S
O27 C21 1.263 . S
O27 Tb22 2.353 1_455 S
C28 O32 1.245 . S
C28 O33 1.259 1_655 S
C29 O34 1.250 . S
C29 O35 1.263 . S
O30 Tb22 2.427 . S
O30 C26 1.275 . S
O31 Tb22 2.513 . S
O31 C26 1.246 . S
O32 Tb22 2.453 . S
O32 C28 1.245 . S
O33 Tb20 2.343 . S
O33 Tb22 2.596 1_455 S
O33 C28 1.259 1_455 S
O34 Tb22 2.374 1_455 S
O34 C29 1.250 . S
O35 Tb20 2.353 . S
O35 C29 1.263 . S
C36 O37 1.275 . S
C36 O38 1.246 . S
O37 Tb20 2.427 . S
O37 C36 1.275 . S
O38 Tb20 2.513 . S
O38 C36 1.246 . S
C39 O23 1.245 . S
C39 O24 1.259 . S
Tb40 O43 2.453 1_554 S
Tb40 O44 2.596 1_554 S
Tb40 O45 2.374 . S
Tb40 O53 2.343 1_565 S
Tb40 O55 2.354 . S
Tb40 O57 2.427 . S
Tb40 O58 2.513 . S
C41 O45 1.251 1_545 S
C41 O47 1.263 . S
Tb42 O44 2.343 1_545 S
Tb42 O47 2.353 1_556 S
Tb42 O50 2.427 . S
Tb42 O51 2.513 . S
Tb42 O52 2.453 1_556 S
Tb42 O53 2.596 1_556 S
Tb42 O54 2.374 . S
O43 Tb40 2.453 1_556 S
O43 C59 1.245 . S
O44 Tb40 2.596 1_556 S
O44 Tb42 2.343 1_565 S
O44 C59 1.259 . S
O45 Tb40 2.374 . S
O45 C41 1.251 1_565 S
C46 O50 1.275 . S
C46 O51 1.246 . S
O47 C41 1.263 . S
O47 Tb42 2.353 1_554 S
C48 O52 1.245 . S
C48 O53 1.259 . S
C49 O54 1.247 1_554 S
C49 O55 1.263 1_545 S
O50 Tb42 2.427 . S
O50 C46 1.275 . S
O51 Tb42 2.513 . S
O51 C46 1.246 . S
O52 Tb42 2.453 1_554 S
O52 C48 1.245 . S
O53 Tb40 2.343 1_545 S
O53 Tb42 2.596 1_554 S
O53 C48 1.259 . S
O54 Tb42 2.374 . S
O54 C49 1.247 1_556 S
O55 Tb40 2.354 . S
O55 C49 1.263 1_565 S
C56 O57 1.275 . S
C56 O58 1.246 . S
O57 Tb40 2.427 . S
O57 C56 1.275 . S
O58 Tb40 2.513 . S
O58 C56 1.246 . S
C59 O43 1.245 . S
C59 O44 1.259 . S
Tb60 O63 2.453 . S
Tb60 O64 2.596 . S
Tb60 O65 2.374 . S
Tb60 O73 2.343 . S
Tb60 O75 2.353 . S
Tb60 O77 2.427 . S
Tb60 O78 2.513 . S
C61 O65 1.251 . S
C61 O67 1.263 . S
Tb62 O64 2.343 1_655 S
Tb62 O67 2.353 1_655 S
Tb62 O70 2.427 . S
Tb62 O71 2.513 . S
Tb62 O72 2.453 . S
Tb62 O73 2.596 1_655 S
Tb62 O74 2.374 1_655 S
O63 Tb60 2.453 . S
O63 C79 1.245 . S
O64 Tb60 2.596 . S
O64 Tb62 2.343 1_455 S
O64 C79 1.259 . S
O65 Tb60 2.374 . S
O65 C61 1.251 . S
C66 O70 1.275 . S
C66 O71 1.246 . S
O67 C61 1.263 . S
O67 Tb62 2.353 1_455 S
C68 O72 1.245 1_455 S
C68 O73 1.259 . S
C69 O74 1.250 . S
C69 O75 1.263 . S
O70 Tb62 2.427 . S
O70 C66 1.275 . S
O71 Tb62 2.513 . S
O71 C66 1.246 . S
O72 Tb62 2.453 . S
O72 C68 1.245 1_655 S
O73 Tb60 2.343 . S
O73 Tb62 2.596 1_455 S
O73 C68 1.259 . S
O74 Tb62 2.374 1_455 S
O74 C69 1.250 . S
O75 Tb60 2.353 . S
O75 C69 1.263 . S
C76 O77 1.275 . S
C76 O78 1.246 . S
O77 Tb60 2.427 . S
O77 C76 1.275 . S
O78 Tb60 2.513 . S
O78 C76 1.246 . S
C79 O63 1.245 . S
C79 O64 1.259 . S
C80 C81 1.349 1_545 S
C80 C82 1.327 . S
C80 H105 0.950 . S
C81 C80 1.349 1_565 S
C81 C97 1.349 1_556 S
C82 C80 1.327 . S
C82 C101 1.429 1_556 S
C82 H106 0.950 . S
C83 C100 1.574 . S
C83 C102 1.368 . S
C83 H107 0.949 1_545 S
H84 C88 0.949 . S
C85 C86 1.349 . S
C85 C87 1.327 . S
C85 H108 0.950 . S
C86 C85 1.349 . S
C86 C98 1.349 . S
C87 C85 1.327 . S
C87 C103 1.429 . S
C87 H109 0.950 . S
C88 H84 0.949 . S
C88 C96 1.574 . S
C88 C104 1.368 . S
H89 C97 0.950 . S
H90 C95 0.950 . S
H91 C96 0.949 1_656 S
H92 C98 0.950 . S
H93 C99 0.950 . S
H94 C100 0.949 . S
C95 H90 0.950 . S
C95 C97 1.327 . S
C95 C101 1.429 1_565 S
C96 C88 1.574 . S
C96 H91 0.949 1_454 S
C96 C102 1.368 . S
C97 C81 1.349 1_554 S
C97 H89 0.950 . S
C97 C95 1.327 . S
C98 C86 1.349 . S
C98 H92 0.950 . S
C98 C99 1.327 . S
C99 H93 0.950 . S
C99 C98 1.327 . S
C99 C103 1.429 . S
C100 C83 1.574 . S
C100 H94 0.949 . S
C100 C104 1.368 . S
C101 C82 1.429 1_554 S
C101 C95 1.429 1_545 S
C101 C102 1.523 1_655 S
C102 C83 1.368 . S
C102 C96 1.368 . S
C102 C101 1.523 1_455 S
C103 C87 1.429 . S
C103 C99 1.429 . S
C103 C104 1.523 . S
C104 C88 1.368 . S
C104 C100 1.368 . S
C104 C103 1.523 . S
H105 C80 0.950 . S
H106 C82 0.950 . S
H107 C83 0.949 1_565 S
H108 C85 0.950 . S
H109 C87 0.950 . S
C110 C111 1.349 . S
C110 C112 1.327 . S
C110 H135 0.950 . S
C111 C110 1.349 . S
C111 C127 1.349 . S
C112 C110 1.327 . S
C112 C131 1.429 . S
C112 H136 0.950 . S
C113 C130 1.574 . S
C113 C132 1.368 . S
C113 H137 0.949 . S
H114 C118 0.949 . S
C115 C116 1.349 . S
C115 C117 1.327 . S
C115 H138 0.950 1_455 S
C116 C115 1.349 . S
C116 C128 1.349 . S
C117 C115 1.327 . S
C117 C133 1.429 . S
C117 H139 0.950 1_455 S
C118 H114 0.949 . S
C118 C126 1.574 . S
C118 C134 1.368 . S
H119 C127 0.950 . S
H120 C125 0.950 . S
H121 C126 0.949 . S
H122 C128 0.950 . S
H123 C129 0.950 . S
H124 C130 0.949 1_655 S
C125 H120 0.950 . S
C125 C127 1.327 . S
C125 C131 1.429 . S
C126 C118 1.574 . S
C126 H121 0.949 . S
C126 C132 1.368 . S
C127 C111 1.349 . S
C127 H119 0.950 . S
C127 C125 1.327 . S
C128 C116 1.349 . S
C128 H122 0.950 . S
C128 C129 1.327 . S
C129 H123 0.950 . S
C129 C128 1.327 . S
C129 C133 1.429 . S
C130 C113 1.574 . S
C130 H124 0.949 1_455 S
C130 C134 1.368 . S
C131 C112 1.429 . S
C131 C125 1.429 . S
C131 C132 1.523 1_565 S
C132 C113 1.368 . S
C132 C126 1.368 . S
C132 C131 1.523 1_545 S
C133 C117 1.429 . S
C133 C129 1.429 . S
C133 C134 1.523 . S
C134 C118 1.368 . S
C134 C130 1.368 . S
C134 C133 1.523 . S
H135 C110 0.950 . S
H136 C112 0.950 . S
H137 C113 0.949 . S
H138 C115 0.950 1_655 S
H139 C117 0.950 1_655 S
C140 C141 1.349 1_556 S
C140 C142 1.327 . S
C140 H165 0.950 1_545 S
C141 C140 1.349 1_554 S
C141 C157 1.349 . S
C142 C140 1.327 . S
C142 C161 1.429 1_556 S
C142 H166 0.950 . S
C143 C160 1.574 . S
C143 C162 1.368 . S
C143 H167 0.949 . S
H144 C148 0.944 1_556 S
C145 C146 1.349 . S
C145 C147 1.327 . S
C145 H168 0.950 . S
C146 C145 1.349 . S
C146 C158 1.349 . S
C147 C145 1.327 . S
C147 C163 1.429 . S
C147 H169 0.950 . S
C148 H144 0.944 1_554 S
C148 C156 1.572 1_554 S
C148 C164 1.376 . S
H149 C157 0.950 . S
H150 C155 0.950 . S
H151 C156 0.949 . S
H152 C158 0.951 1_556 S
H153 C159 0.950 1_556 S
H154 C160 0.949 . S
C155 H150 0.950 . S
C155 C157 1.327 . S
C155 C161 1.429 . S
C156 C148 1.572 1_556 S
C156 H151 0.949 . S
C156 C162 1.368 1_556 S
C157 C141 1.349 . S
C157 H149 0.950 . S
C157 C155 1.327 . S
C158 C146 1.349 . S
C158 H152 0.951 1_554 S
C158 C159 1.327 . S
C159 H153 0.950 1_554 S
C159 C158 1.327 . S
C159 C163 1.429 . S
C160 C143 1.574 . S
C160 H154 0.949 . S
C160 C164 1.368 . S
C161 C142 1.429 1_554 S
C161 C155 1.429 . S
C161 C162 1.523 . S
C162 C143 1.368 . S
C162 C156 1.368 1_554 S
C162 C161 1.523 . S
C163 C147 1.429 . S
C163 C159 1.429 . S
C163 C164 1.523 . S
C164 C148 1.376 . S
C164 C160 1.368 . S
C164 C163 1.523 . S
H165 C140 0.950 1_565 S
H166 C142 0.950 . S
H167 C143 0.949 . S
H168 C145 0.950 . S
H169 C147 0.950 . S
C170 C171 1.349 . S
C170 C172 1.327 . S
C170 H195 0.950 . S
C171 C170 1.349 . S
C171 C187 1.349 . S
C172 C170 1.327 . S
C172 C191 1.429 . S
C172 H196 0.950 . S
C173 C190 1.574 . S
C173 C192 1.368 . S
C173 H197 0.949 . S
H174 C178 0.949 . S
C175 C176 1.349 . S
C175 C177 1.327 . S
C175 H198 0.950 . S
C176 C175 1.349 . S
C176 C188 1.349 . S
C177 C175 1.327 . S
C177 C193 1.429 . S
C177 H199 0.950 . S
C178 H174 0.949 . S
C178 C186 1.574 . S
C178 C194 1.368 . S
H179 C187 0.950 . S
H180 C185 0.950 . S
H181 C186 0.949 . S
H182 C188 0.950 . S
H183 C189 0.950 . S
H184 C190 0.949 . S
C185 H180 0.950 . S
C185 C187 1.327 . S
C185 C191 1.429 . S
C186 C178 1.574 . S
C186 H181 0.949 . S
C186 C192 1.368 . S
C187 C171 1.349 . S
C187 H179 0.950 . S
C187 C185 1.327 . S
C188 C176 1.349 . S
C188 H182 0.950 . S
C188 C189 1.327 . S
C189 H183 0.950 . S
C189 C188 1.327 . S
C189 C193 1.429 . S
C190 C173 1.574 . S
C190 H184 0.949 . S
C190 C194 1.368 . S
C191 C172 1.429 . S
C191 C185 1.429 . S
C191 C192 1.523 . S
C192 C173 1.368 . S
C192 C186 1.368 . S
C192 C191 1.523 . S
C193 C177 1.429 . S
C193 C189 1.429 . S
C193 C194 1.523 . S
C194 C178 1.368 . S
C194 C190 1.368 . S
C194 C193 1.523 . S
H195 C170 0.950 . S
H196 C172 0.950 . S
H197 C173 0.949 . S
H198 C175 0.950 . S
H199 C177 0.950 . S
C200 C201 1.349 . S
C200 C202 1.327 . S
C200 H225 0.950 . S
C201 C200 1.349 . S
C201 C217 1.349 . S
C202 C200 1.327 . S
C202 C221 1.429 . S
C202 H226 0.950 . S
C203 C220 1.574 . S
C203 C222 1.368 . S
C203 H227 0.949 . S
H204 C208 0.949 . S
C205 C206 1.349 . S
C205 C207 1.327 . S
C205 H228 0.950 . S
C206 C205 1.349 . S
C206 C218 1.349 . S
C207 C205 1.327 . S
C207 C223 1.429 . S
C207 H229 0.950 . S
C208 H204 0.949 . S
C208 C216 1.574 . S
C208 C224 1.368 . S
H209 C217 0.950 . S
H210 C215 0.950 . S
H211 C216 0.949 . S
H212 C218 0.950 . S
H213 C219 0.950 . S
H214 C220 0.949 . S
C215 H210 0.950 . S
C215 C217 1.327 . S
C215 C221 1.429 . S
C216 C208 1.574 . S
C216 H211 0.949 . S
C216 C222 1.368 . S
C217 C201 1.349 . S
C217 H209 0.950 . S
C217 C215 1.327 . S
C218 C206 1.349 . S
C218 H212 0.950 . S
C218 C219 1.327 . S
C219 H213 0.950 . S
C219 C218 1.327 . S
C219 C223 1.429 . S
C220 C203 1.574 . S
C220 H214 0.949 . S
C220 C224 1.368 . S
C221 C202 1.429 . S
C221 C215 1.429 . S
C221 C222 1.523 . S
C222 C203 1.368 . S
C222 C216 1.368 . S
C222 C221 1.523 . S
C223 C207 1.429 . S
C223 C219 1.429 . S
C223 C224 1.523 . S
C224 C208 1.368 . S
C224 C220 1.368 . S
C224 C223 1.523 . S
H225 C200 0.950 . S
H226 C202 0.950 . S
H227 C203 0.949 . S
H228 C205 0.950 . S
H229 C207 0.950 . S
C230 C231 1.349 1_455 S
C230 C232 1.327 1_455 S
C230 H255 0.950 . S
C231 C230 1.349 1_655 S
C231 C247 1.349 . S
C232 C230 1.327 1_655 S
C232 C251 1.429 . S
C232 H256 0.950 1_655 S
C233 C250 1.574 . S
C233 C252 1.368 . S
C233 H257 0.949 . S
H234 C238 0.949 . S
C235 C236 1.349 . S
C235 C237 1.327 . S
C235 H258 0.950 . S
C236 C235 1.349 . S
C236 C248 1.349 . S
C237 C235 1.327 . S
C237 C253 1.429 . S
C237 H259 0.950 . S
C238 H234 0.949 . S
C238 C246 1.574 . S
C238 C254 1.368 . S
H239 C247 0.950 . S
H240 C245 0.950 . S
H241 C246 0.949 . S
H242 C248 0.950 . S
H243 C249 0.950 . S
H244 C250 0.949 . S
C245 H240 0.950 . S
C245 C247 1.327 . S
C245 C251 1.429 . S
C246 C238 1.574 . S
C246 H241 0.949 . S
C246 C252 1.368 . S
C247 C231 1.349 . S
C247 H239 0.950 . S
C247 C245 1.327 . S
C248 C236 1.349 . S
C248 H242 0.950 . S
C248 C249 1.327 . S
C249 H243 0.950 . S
C249 C248 1.327 . S
C249 C253 1.429 . S
C250 C233 1.574 . S
C250 H244 0.949 . S
C250 C254 1.368 . S
C251 C232 1.429 . S
C251 C245 1.429 . S
C251 C252 1.523 . S
C252 C233 1.368 . S
C252 C246 1.368 . S
C252 C251 1.523 . S
C253 C237 1.429 . S
C253 C249 1.429 . S
C253 C254 1.523 . S
C254 C238 1.368 . S
C254 C250 1.368 . S
C254 C253 1.523 . S
H255 C230 0.950 . S
H256 C232 0.950 1_455 S
H257 C233 0.949 . S
H258 C235 0.950 . S
H259 C237 0.950 . S
C260 C261 1.349 . S
C260 C262 1.327 . S
C260 H285 0.950 . S
C261 C260 1.349 . S
C261 C277 1.349 1_655 S
C262 C260 1.327 . S
C262 C281 1.429 . S
C262 H286 0.950 . S
C263 C280 1.574 . S
C263 C282 1.368 . S
C263 H287 0.949 . S
H264 C268 0.949 . S
C265 C266 1.349 . S
C265 C267 1.327 . S
C265 H288 0.950 . S
C266 C265 1.349 . S
C266 C278 1.349 . S
C267 C265 1.327 . S
C267 C283 1.429 . S
C267 H289 0.950 . S
C268 H264 0.949 . S
C268 C276 1.574 . S
C268 C284 1.368 . S
H269 C277 0.950 . S
H270 C275 0.950 1_455 S
H271 C276 0.949 . S
H272 C278 0.950 . S
H273 C279 0.950 . S
H274 C280 0.949 . S
C275 H270 0.950 1_655 S
C275 C277 1.327 1_655 S
C275 C281 1.429 . S
C276 C268 1.574 . S
C276 H271 0.949 . S
C276 C282 1.368 . S
C277 C261 1.349 1_455 S
C277 H269 0.950 . S
C277 C275 1.327 1_455 S
C278 C266 1.349 . S
C278 H272 0.950 . S
C278 C279 1.327 . S
C279 H273 0.950 . S
C279 C278 1.327 . S
C279 C283 1.429 . S
C280 C263 1.574 . S
C280 H274 0.949 . S
C280 C284 1.368 . S
C281 C262 1.429 . S
C281 C275 1.429 . S
C281 C282 1.523 . S
C282 C263 1.368 . S
C282 C276 1.368 . S
C282 C281 1.523 . S
C283 C267 1.429 . S
C283 C279 1.429 . S
C283 C284 1.523 . S
C284 C268 1.368 . S
C284 C280 1.368 . S
C284 C283 1.523 . S
H285 C260 0.950 . S
H286 C262 0.950 . S
H287 C263 0.949 . S
H288 C265 0.950 . S
H289 C267 0.950 . S
C290 C291 1.349 . S
C290 C292 1.327 . S
C290 H315 0.950 . S
C291 C290 1.349 . S
C291 C307 1.349 . S
C292 C290 1.327 . S
C292 C311 1.429 . S
C292 H316 0.950 . S
C293 C310 1.574 . S
C293 C312 1.368 . S
C293 H317 0.949 . S
H294 C298 0.949 . S
C295 C296 1.349 . S
C295 C297 1.327 1_545 S
C295 H318 0.950 . S
C296 C295 1.349 . S
C296 C308 1.349 . S
C297 C295 1.327 1_565 S
C297 C313 1.429 1_565 S
C297 H319 0.950 . S
C298 H294 0.949 . S
C298 C306 1.574 1_545 S
C298 C314 1.368 1_545 S
H299 C307 0.950 . S
H300 C305 0.950 . S
H301 C306 0.941 1_545 S
H302 C308 0.950 . S
H303 C309 0.950 . S
H304 C310 0.949 . S
C305 H300 0.950 . S
C305 C307 1.327 . S
C305 C311 1.429 . S
C306 C298 1.574 1_565 S
C306 H301 0.941 1_565 S
C306 C312 1.368 . S
C307 C291 1.349 . S
C307 H299 0.950 . S
C307 C305 1.327 . S
C308 C296 1.349 . S
C308 H302 0.950 . S
C308 C309 1.327 . S
C309 H303 0.950 . S
C309 C308 1.327 . S
C309 C313 1.429 . S
C310 C293 1.574 . S
C310 H304 0.949 . S
C310 C314 1.368 . S
C311 C292 1.429 . S
C311 C305 1.429 . S
C311 C312 1.523 . S
C312 C293 1.368 . S
C312 C306 1.368 . S
C312 C311 1.523 . S
C313 C297 1.429 1_545 S
C313 C309 1.429 . S
C313 C314 1.523 1_545 S
C314 C298 1.368 1_565 S
C314 C310 1.368 . S
C314 C313 1.523 1_565 S
H315 C290 0.950 . S
H316 C292 0.950 . S
H317 C293 0.949 . S
H318 C295 0.950 . S
H319 C297 0.950 . S
C320 C321 1.349 . S
C320 C322 1.327 . S
C320 H345 0.950 . S
C321 C320 1.349 . S
C321 C337 1.349 . S
C322 C320 1.327 . S
C322 C341 1.429 . S
C322 H346 0.950 . S
C323 C340 1.574 . S
C323 C342 1.368 . S
C323 H347 0.949 . S
H324 C328 0.949 . S
C325 C326 1.349 . S
C325 C327 1.327 . S
C325 H348 0.950 . S
C326 C325 1.349 . S
C326 C338 1.346 1_655 S
C327 C325 1.327 . S
C327 C343 1.429 . S
C327 H349 0.950 . S
C328 H324 0.949 . S
C328 C336 1.574 . S
C328 C344 1.368 . S
H329 C337 0.950 . S
H330 C335 0.950 . S
H331 C336 0.949 . S
H332 C338 0.957 . S
H333 C339 0.950 1_455 S
H334 C340 0.949 . S
C335 H330 0.950 . S
C335 C337 1.327 . S
C335 C341 1.429 . S
C336 C328 1.574 . S
C336 H331 0.949 . S
C336 C342 1.368 . S
C337 C321 1.349 . S
C337 H329 0.950 . S
C337 C335 1.327 . S
C338 C326 1.346 1_455 S
C338 H332 0.957 . S
C338 C339 1.322 1_455 S
C339 H333 0.950 1_655 S
C339 C338 1.322 1_655 S
C339 C343 1.429 . S
C340 C323 1.574 . S
C340 H334 0.949 . S
C340 C344 1.368 . S
C341 C322 1.429 . S
C341 C335 1.429 . S
C341 C342 1.523 . S
C342 C323 1.368 . S
C342 C336 1.368 . S
C342 C341 1.523 . S
C343 C327 1.429 . S
C343 C339 1.429 . S
C343 C344 1.523 . S
C344 C328 1.368 . S
C344 C340 1.368 . S
C344 C343 1.523 . S
H345 C320 0.950 . S
H346 C322 0.950 . S
H347 C323 0.949 . S
H348 C325 0.950 . S
H349 C327 0.950 . S
C350 C351 1.349 1_565 S
C350 C352 1.327 . S
C350 H375 0.950 . S
C351 C350 1.349 1_545 S
C351 C367 1.349 . S
C352 C350 1.327 . S
C352 C371 1.429 1_565 S
C352 H376 0.950 . S
C353 C370 1.574 1_545 S
C353 C372 1.368 1_545 S
C353 H377 0.949 . S
H354 C358 0.949 . S
C355 C356 1.349 . S
C355 C357 1.327 . S
C355 H378 0.950 . S
C356 C355 1.349 . S
C356 C368 1.349 . S
C357 C355 1.327 . S
C357 C373 1.429 . S
C357 H379 0.950 . S
C358 H354 0.949 . S
C358 C366 1.574 . S
C358 C374 1.368 . S
H359 C367 0.950 . S
H360 C365 0.950 . S
H361 C366 0.949 . S
H362 C368 0.950 . S
H363 C369 0.950 . S
H364 C370 0.949 1_545 S
C365 H360 0.950 . S
C365 C367 1.327 . S
C365 C371 1.429 . S
C366 C358 1.574 . S
C366 H361 0.949 . S
C366 C372 1.368 . S
C367 C351 1.349 . S
C367 H359 0.950 . S
C367 C365 1.327 . S
C368 C356 1.349 . S
C368 H362 0.950 . S
C368 C369 1.327 . S
C369 H363 0.950 . S
C369 C368 1.327 . S
C369 C373 1.429 . S
C370 C353 1.574 1_565 S
C370 H364 0.949 1_565 S
C370 C374 1.368 . S
C371 C352 1.429 1_545 S
C371 C365 1.429 . S
C371 C372 1.523 1_545 S
C372 C353 1.368 1_565 S
C372 C366 1.368 . S
C372 C371 1.523 1_565 S
C373 C357 1.429 . S
C373 C369 1.429 . S
C373 C374 1.523 . S
C374 C358 1.368 . S
C374 C370 1.368 . S
C374 C373 1.523 . S
H375 C350 0.950 . S
H376 C352 0.950 . S
H377 C353 0.949 . S
H378 C355 0.950 . S
H379 C357 0.950 . S
C380 C381 1.349 . S
C380 C382 1.327 . S
C380 H405 0.950 . S
C381 C380 1.349 . S
C381 C397 1.349 . S
C382 C380 1.327 . S
C382 C401 1.429 . S
C382 H406 0.950 . S
C383 C400 1.574 . S
C383 C402 1.368 . S
C383 H407 0.949 . S
H384 C388 0.949 . S
C385 C386 1.349 . S
C385 C387 1.327 . S
C385 H408 0.950 . S
C386 C385 1.349 . S
C386 C398 1.349 . S
C387 C385 1.327 . S
C387 C403 1.429 . S
C387 H409 0.950 . S
C388 H384 0.949 . S
C388 C396 1.574 . S
C388 C404 1.368 . S
H389 C397 0.950 . S
H390 C395 0.950 . S
H391 C396 0.949 . S
H392 C398 0.950 . S
H393 C399 0.950 . S
H394 C400 0.949 . S
C395 H390 0.950 . S
C395 C397 1.327 . S
C395 C401 1.429 . S
C396 C388 1.574 . S
C396 H391 0.949 . S
C396 C402 1.368 . S
C397 C381 1.349 . S
C397 H389 0.950 . S
C397 C395 1.327 . S
C398 C386 1.349 . S
C398 H392 0.950 . S
C398 C399 1.327 . S
C399 H393 0.950 . S
C399 C398 1.327 . S
C399 C403 1.429 . S
C400 C383 1.574 . S
C400 H394 0.949 . S
C400 C404 1.368 . S
C401 C382 1.429 . S
C401 C395 1.429 . S
C401 C402 1.523 . S
C402 C383 1.368 . S
C402 C396 1.368 . S
C402 C401 1.523 . S
C403 C387 1.429 . S
C403 C399 1.429 . S
C403 C404 1.523 . S
C404 C388 1.368 . S
C404 C400 1.368 . S
C404 C403 1.523 . S
H405 C380 0.950 . S
H406 C382 0.950 . S
H407 C383 0.949 . S
H408 C385 0.950 . S
H409 C387 0.950 . S
C410 C411 1.349 . S
C410 C412 1.327 . S
C410 H435 0.950 . S
C411 C410 1.349 . S
C411 C427 1.349 . S
C412 C410 1.327 . S
C412 C431 1.429 . S
C412 H436 0.950 . S
C413 C430 1.574 . S
C413 C432 1.368 . S
C413 H437 0.949 . S
H414 C418 0.949 . S
C415 C416 1.349 . S
C415 C417 1.327 . S
C415 H438 0.950 . S
C416 C415 1.349 . S
C416 C428 1.349 . S
C417 C415 1.327 . S
C417 C433 1.429 . S
C417 H439 0.950 . S
C418 H414 0.949 . S
C418 C426 1.574 . S
C418 C434 1.368 . S
H419 C427 0.950 . S
H420 C425 0.950 . S
H421 C426 0.949 . S
H422 C428 0.950 . S
H423 C429 0.950 . S
H424 C430 0.949 . S
C425 H420 0.950 . S
C425 C427 1.327 . S
C425 C431 1.429 . S
C426 C418 1.574 . S
C426 H421 0.949 . S
C426 C432 1.368 . S
C427 C411 1.349 . S
C427 H419 0.950 . S
C427 C425 1.327 . S
C428 C416 1.349 . S
C428 H422 0.950 . S
C428 C429 1.327 . S
C429 H423 0.950 . S
C429 C428 1.327 . S
C429 C433 1.429 . S
C430 C413 1.574 . S
C430 H424 0.949 . S
C430 C434 1.368 . S
C431 C412 1.429 . S
C431 C425 1.429 . S
C431 C432 1.523 . S
C432 C413 1.368 . S
C432 C426 1.368 . S
C432 C431 1.523 . S
C433 C417 1.429 . S
C433 C429 1.429 . S
C433 C434 1.523 . S
C434 C418 1.368 . S
C434 C430 1.368 . S
C434 C433 1.523 . S
H435 C410 0.950 . S
H436 C412 0.950 . S
H437 C413 0.949 . S
H438 C415 0.950 . S
H439 C417 0.950 . S
C81 C41 1.698 1_566 S
C86 C9 1.698 . S
C111 C69 1.859 . S
C116 C29 1.875 . S
C141 C49 1.252 . S
C146 C1 1.250 . S
C171 C21 1.066 . S
C176 C61 1.064 . S
C201 C39 2.132 . S
C206 C8 2.234 . S
C231 C28 2.263 . S
C236 C46 2.271 . S
C261 C68 1.991 1_655 S
C266 C56 1.987 . S
C291 C79 1.645 . S
C296 C19 1.649 . S
C321 C59 1.359 . S
C326 C66 1.351 . S
C351 C16 1.569 . S
C356 C76 1.565 . S
C381 C36 1.309 . S
C386 C6 1.304 . S
C411 C48 0.851 . S
C416 C26 0.869 . S
