# Generated by pormake.
# Topology unm, (4)-cn, num edge types: 1
# Building blocks:
#     Node 0, Type 0, BuildingBlock: TATPOV_clean_sbu_0, # of connection points: 4
#     Node 1, Type 0, BuildingBlock: TATPOV_clean_sbu_0, # of connection points: 4
#     Node 2, Type 0, BuildingBlock: TATPOV_clean_sbu_0, # of connection points: 4
#     Node 3, Type 0, BuildingBlock: TATPOV_clean_sbu_0, # of connection points: 4
#     Node 4, Type 0, BuildingBlock: TATPOV_clean_sbu_0, # of connection points: 4
#     Node 5, Type 0, BuildingBlock: TATPOV_clean_sbu_0, # of connection points: 4
#     Node 6, Type 0, BuildingBlock: TATPOV_clean_sbu_0, # of connection points: 4
#     Node 7, Type 0, BuildingBlock: TATPOV_clean_sbu_0, # of connection points: 4
#     Edge 8, Type (0, 0), BuildingBlock: UVAHIK_clean_linker_0, # of connection points: 2
#     Edge 9, Type (0, 0), BuildingBlock: UVAHIK_clean_linker_0, # of connection points: 2
#     Edge 10, Type (0, 0), BuildingBlock: UVAHIK_clean_linker_0, # of connection points: 2
#     Edge 11, Type (0, 0), BuildingBlock: UVAHIK_clean_linker_0, # of connection points: 2
#     Edge 12, Type (0, 0), BuildingBlock: UVAHIK_clean_linker_0, # of connection points: 2
#     Edge 13, Type (0, 0), BuildingBlock: UVAHIK_clean_linker_0, # of connection points: 2
#     Edge 14, Type (0, 0), BuildingBlock: UVAHIK_clean_linker_0, # of connection points: 2
#     Edge 15, Type (0, 0), BuildingBlock: UVAHIK_clean_linker_0, # of connection points: 2
#     Edge 16, Type (0, 0), BuildingBlock: UVAHIK_clean_linker_0, # of connection points: 2
#     Edge 17, Type (0, 0), BuildingBlock: UVAHIK_clean_linker_0, # of connection points: 2
#     Edge 18, Type (0, 0), BuildingBlock: UVAHIK_clean_linker_0, # of connection points: 2
#     Edge 19, Type (0, 0), BuildingBlock: UVAHIK_clean_linker_0, # of connection points: 2
#     Edge 20, Type (0, 0), BuildingBlock: UVAHIK_clean_linker_0, # of connection points: 2
#     Edge 21, Type (0, 0), BuildingBlock: UVAHIK_clean_linker_0, # of connection points: 2
#     Edge 22, Type (0, 0), BuildingBlock: UVAHIK_clean_linker_0, # of connection points: 2
#     Edge 23, Type (0, 0), BuildingBlock: UVAHIK_clean_linker_0, # of connection points: 2
# Relax obj value: 0.134
# Max RMSD: 0.141
# Mean RMSD: 0.141
data_MOF--net-unm--node1-TATPOV_clean_sbu_0--edge1-UVAHIK_clean_linker_0
_symmetry_space_group_name_H-M    P1
_symmetry_Int_Tables_number       1
_symmetry_cell_setting            triclinic
loop_
_symmetry_equiv_pos_as_xyz
'x, y, z'
_cell_length_a     32.997123
_cell_length_b     33.013176
_cell_length_c     54.681194
_cell_angle_alpha  90.001791
_cell_angle_beta   90.061665
_cell_angle_gamma 90.094785
loop_
_atom_site_label
_atom_site_type_symbol
_atom_site_fract_x
_atom_site_fract_y
_atom_site_fract_z
_atom_type_partial_charge
Zn0 Zn 0.90979 0.21742 0.12468 0.0
Zn1 Zn 0.97395 0.20984 0.15394 0.0
O2 O 0.9237 0.20495 0.17795 0.0
O3 O 0.87201 0.20518 0.15235 0.0
O4 O 0.0251 0.20833 0.17551 0.0
O5 O 0.92973 0.17313 0.10275 0.0
O6 O 0.98276 0.16505 0.12675 0.0
C7 C 0.88545 0.20308 0.174 0.0
C8 C 0.95683 0.28963 0.12645 0.0
O9 O 0.97882 0.26735 0.14005 0.0
O10 O 0.92418 0.27583 0.11755 0.0
C11 C 0.0299 0.23669 0.19109 0.0
O12 O 1.00069 0.26334 0.19376 0.0
C13 C 0.96259 0.15511 0.1076 0.0
Zn14 Zn 0.28347 0.39777 0.62806 0.0
Zn15 Zn 0.29284 0.46147 0.65714 0.0
O16 O 0.30042 0.41106 0.68068 0.0
O17 O 0.30092 0.35993 0.65474 0.0
O18 O 0.29545 0.51249 0.67865 0.0
O19 O 0.32293 0.42061 0.60383 0.0
O20 O 0.33472 0.47189 0.62858 0.0
C21 C 0.30363 0.37302 0.67644 0.0
C22 C 0.2106 0.4424 0.63295 0.0
O23 O 0.2341 0.46539 0.64517 0.0
O24 O 0.2238 0.4096 0.62403 0.0
C25 C 0.26882 0.51685 0.69532 0.0
O26 O 0.24322 0.48704 0.6993 0.0
C27 C 0.34145 0.45335 0.60841 0.0
Zn28 Zn 0.10113 0.78529 0.13082 0.0
Zn29 Zn 0.0342 0.78948 0.15876 0.0
O30 O 0.08242 0.79692 0.1839 0.0
O31 O 0.13584 0.79949 0.15972 0.0
O32 O 0.98205 0.78427 0.17906 0.0
O33 O 0.07835 0.8287 0.10898 0.0
O34 O 0.02389 0.83438 0.13203 0.0
C35 C 0.12076 0.8008 0.18098 0.0
C36 C 0.05782 0.71127 0.13087 0.0
O37 O 0.03406 0.7327 0.14382 0.0
O38 O 0.09081 0.72607 0.12313 0.0
C39 C 0.96102 0.81021 0.1907 0.0
O40 O 0.9728 0.84824 0.19107 0.0
C41 C 0.04445 0.84518 0.11324 0.0
Zn42 Zn 0.7179 0.59644 0.63135 0.0
Zn43 Zn 0.70814 0.53241 0.66049 0.0
O44 O 0.70169 0.583 0.68409 0.0
O45 O 0.70288 0.63445 0.65839 0.0
O46 O 0.70508 0.48163 0.68218 0.0
O47 O 0.67604 0.57522 0.60798 0.0
O48 O 0.66596 0.52261 0.63198 0.0
C49 C 0.6997 0.62118 0.68001 0.0
C50 C 0.78986 0.54963 0.63542 0.0
O51 O 0.76638 0.52746 0.64814 0.0
O52 O 0.77706 0.5825 0.62637 0.0
C53 C 0.73173 0.47748 0.6989 0.0
O54 O 0.7576 0.50716 0.7026 0.0
C55 C 0.65791 0.54219 0.61234 0.0
Zn56 Zn 0.40939 0.29176 0.38739 0.0
Zn57 Zn 0.47412 0.29854 0.35846 0.0
O58 O 0.42391 0.3047 0.33446 0.0
O59 O 0.37205 0.30605 0.35983 0.0
O60 O 0.52527 0.29998 0.33697 0.0
O61 O 0.43097 0.33436 0.41014 0.0
O62 O 0.48435 0.34161 0.38639 0.0
C63 C 0.3857 0.30769 0.33824 0.0
C64 C 0.45483 0.21857 0.38488 0.0
O65 O 0.47772 0.24084 0.37182 0.0
O66 O 0.42217 0.23262 0.39353 0.0
C67 C 0.52983 0.27208 0.32108 0.0
O68 O 0.50039 0.24569 0.31805 0.0
C69 C 0.46463 0.35125 0.4057 0.0
Zn70 Zn 0.21836 0.89747 0.89117 0.0
Zn71 Zn 0.21092 0.96122 0.86108 0.0
O72 O 0.20476 0.91088 0.83749 0.0
O73 O 0.20707 0.8595 0.86323 0.0
O74 O 0.20948 0.01206 0.83934 0.0
O75 O 0.17342 0.91789 0.91253 0.0
O76 O 0.16704 0.97117 0.88859 0.0
C77 C 0.20381 0.87267 0.84157 0.0
C78 C 0.29076 0.94445 0.88879 0.0
O79 O 0.26882 0.96522 0.87432 0.0
O80 O 0.27641 0.91302 0.89887 0.0
C81 C 0.23734 0.0165 0.82341 0.0
O82 O 0.26365 0.98707 0.82045 0.0
C83 C 0.15643 0.95129 0.90768 0.0
Zn84 Zn 0.5981 0.72355 0.39283 0.0
Zn85 Zn 0.53364 0.71541 0.36402 0.0
O86 O 0.58342 0.70952 0.33994 0.0
O87 O 0.63542 0.70887 0.36524 0.0
O88 O 0.48214 0.7133 0.34289 0.0
O89 O 0.57617 0.68229 0.41631 0.0
O90 O 0.52426 0.6719 0.39176 0.0
C91 C 0.62169 0.70706 0.34364 0.0
C92 C 0.55278 0.79632 0.38977 0.0
O93 O 0.52972 0.77354 0.3771 0.0
O94 O 0.58565 0.78263 0.39836 0.0
C95 C 0.47646 0.74133 0.32721 0.0
O96 O 0.50529 0.7683 0.32394 0.0
C97 C 0.54334 0.664 0.4116 0.0
Zn98 Zn 0.78401 0.09488 0.89566 0.0
Zn99 Zn 0.79325 0.03239 0.86502 0.0
O100 O 0.79846 0.08342 0.8418 0.0
O101 O 0.79467 0.13379 0.86819 0.0
O102 O 0.79556 0.98192 0.84298 0.0
O103 O 0.82928 0.07527 0.91698 0.0
O104 O 0.83742 0.02286 0.89256 0.0
C105 C 0.7985 0.12148 0.84639 0.0
C106 C 0.71277 0.04668 0.89261 0.0
O107 O 0.73533 0.0269 0.87802 0.0
O108 O 0.7263 0.0781 0.90312 0.0
C109 C 0.76758 0.97729 0.82711 0.0
O110 O 0.74086 0.00641 0.82434 0.0
C111 C 0.84735 0.04258 0.91186 0.0
C112 C 0.9527 0.11158 0.0705 0.0
C113 C 0.97816 0.12503 0.08956 0.0
C114 C 0.96783 0.08798 0.05136 0.0
C115 C 0.05473 0.02491 0.03127 0.0
H116 H 0.02132 0.05884 0.96636 0.0
C117 C 0.11296 0.94324 0.94497 0.0
C118 C 0.1271 0.968 0.92578 0.0
C119 C 0.09029 0.95944 0.96421 0.0
C120 C 0.03111 0.04908 0.98433 0.0
H121 H 0.03932 0.12222 0.10389 0.0
H122 H 0.06592 0.08092 0.07032 0.0
H123 H 0.99175 0.09107 1.00227 0.0
H124 H 0.12651 0.02911 0.91136 0.0
H125 H 0.08689 0.05757 0.94507 0.0
H126 H 0.09477 0.98354 0.01331 0.0
C127 C 0.03404 0.08866 0.07032 0.0
C128 C 0.01381 0.06724 1.00498 0.0
C129 C 0.01883 0.11239 0.08958 0.0
C130 C 0.11608 0.00913 0.92576 0.0
C131 C 0.09332 0.02541 0.94511 0.0
C132 C 0.07191 0.00661 0.01061 0.0
C133 C 0.00892 0.07706 0.05062 0.0
C134 C 0.02577 0.0558 0.02874 0.0
C135 C 0.08105 1.00094 0.96492 0.0
C136 C 0.06075 0.01883 0.98684 0.0
H137 H 0.92106 0.12023 0.06995 0.0
H138 H 0.94737 0.07888 0.03685 0.0
H139 H 0.06424 0.0149 0.04924 0.0
H140 H 0.1204 0.91131 0.94554 0.0
H141 H 0.08058 0.93949 0.97881 0.0
C142 C 0.36691 0.45434 0.56527 0.0
C143 C 0.36798 0.47092 0.58902 0.0
C144 C 0.38862 0.47205 0.54612 0.0
C145 C 0.47482 0.53553 0.53003 0.0
H146 H 0.41164 0.56438 0.4728 0.0
C147 C 0.54079 0.63863 0.45469 0.0
C148 C 0.52616 0.63641 0.43054 0.0
C149 C 0.52356 0.61539 0.47334 0.0
C150 C 0.43019 0.55582 0.48828 0.0
H151 H 0.39427 0.51855 0.61126 0.0
H152 H 0.43333 0.54905 0.57764 0.0
H153 H 0.37916 0.52998 0.5069 0.0
H154 H 0.48256 0.60663 0.407 0.0
H155 H 0.45359 0.56433 0.4393 0.0
H156 H 0.52618 0.55979 0.51131 0.0
C157 C 0.41509 0.5224 0.57403 0.0
C158 C 0.41133 0.53639 0.508 0.0
C159 C 0.39268 0.50502 0.59325 0.0
C160 C 0.49443 0.60928 0.42541 0.0
C161 C 0.4776 0.58526 0.44408 0.0
C162 C 0.49395 0.55416 0.51009 0.0
C163 C 0.41259 0.50649 0.55017 0.0
C164 C 0.43329 0.52648 0.5292 0.0
C165 C 0.49151 0.58839 0.46847 0.0
C166 C 0.47183 0.56528 0.48899 0.0
H167 H 0.34832 0.42813 0.56118 0.0
H168 H 0.38642 0.4589 0.52801 0.0
H169 H 0.49261 0.52773 0.54601 0.0
H170 H 0.56493 0.65945 0.45949 0.0
H171 H 0.53478 0.61978 0.49175 0.0
C172 C 0.05363 0.88841 0.07594 0.0
C173 C 0.02824 0.87436 0.09485 0.0
C174 C 0.0381 0.91117 0.05652 0.0
C175 C 0.94973 0.97133 0.03558 0.0
H176 H 0.98521 0.93825 0.97095 0.0
C177 C 0.89087 0.05158 0.94906 0.0
C178 C 0.87724 0.0265 0.92988 0.0
C179 C 0.91388 0.0359 0.96833 0.0
C180 C 0.97485 0.94775 0.98884 0.0
H181 H 0.96669 0.87517 0.10858 0.0
H182 H 0.9394 0.91503 0.07455 0.0
H183 H 0.01511 0.90694 1.00714 0.0
H184 H 0.87923 0.96545 0.91542 0.0
H185 H 0.91954 0.93788 0.9492 0.0
H186 H 0.90889 0.01153 0.01729 0.0
C187 C 0.97153 0.9084 0.07487 0.0
C188 C 0.9923 0.93011 1.00964 0.0
C189 C 0.98713 0.8855 0.0944 0.0
C190 C 0.88923 0.98565 0.92983 0.0
C191 C 0.91238 0.96988 0.94921 0.0
C192 C 0.93244 0.98911 0.01478 0.0
C193 C 0.99667 0.92064 0.05536 0.0
C194 C 0.97959 0.94127 0.0333 0.0
C195 C 0.92401 0.99462 0.96906 0.0
C196 C 0.94437 0.97719 0.99111 0.0
H197 H 0.08557 0.88089 0.07573 0.0
H198 H 0.05853 0.92082 0.04215 0.0
H199 H 0.93962 0.9811 0.05346 0.0
H200 H 0.88272 0.08333 0.94964 0.0
H201 H 0.92306 0.05605 0.98296 0.0
C202 C 0.45707 0.39305 0.44371 0.0
C203 C 0.48186 0.37911 0.42452 0.0
C204 C 0.47354 0.41414 0.46356 0.0
C205 C 0.51944 0.4298 0.51079 0.0
H206 H 0.60657 0.50786 0.50457 0.0
C207 C 0.61797 0.48475 0.59317 0.0
C208 C 0.63033 0.52555 0.59316 0.0
C209 C 0.59683 0.46848 0.57308 0.0
C210 C 0.58207 0.48629 0.50668 0.0
H211 H 0.54341 0.37825 0.4108 0.0
H212 H 0.57235 0.41506 0.44558 0.0
H213 H 0.57585 0.47907 0.46788 0.0
H214 H 0.62785 0.58169 0.5725 0.0
H215 H 0.59099 0.5536 0.53799 0.0
H216 H 0.52543 0.43736 0.5496 0.0
C217 C 0.53996 0.40976 0.44515 0.0
C218 C 0.56471 0.46947 0.48558 0.0
C219 C 0.5234 0.38864 0.42517 0.0
C220 C 0.61931 0.55001 0.57312 0.0
C221 C 0.59833 0.53383 0.55316 0.0
C222 C 0.53693 0.44649 0.53189 0.0
C223 C 0.51536 0.42189 0.46492 0.0
C224 C 0.53324 0.44087 0.48733 0.0
C225 C 0.58765 0.49264 0.55254 0.0
C226 C 0.56854 0.47493 0.53014 0.0
H227 H 0.42485 0.3867 0.44377 0.0
H228 H 0.45347 0.42386 0.47808 0.0
H229 H 0.49552 0.40759 0.51292 0.0
H230 H 0.62602 0.46499 0.60821 0.0
H231 H 0.58915 0.43658 0.57323 0.0
C232 C 0.07065 0.27059 0.224 0.0
C233 C 0.0684 0.24172 0.20512 0.0
C234 C 0.10687 0.27728 0.2367 0.0
C235 C 0.2183 0.26633 0.23286 0.0
H236 H 0.21218 0.2819 0.303 0.0
C237 C 0.36037 0.28394 0.29708 0.0
C238 C 0.35566 0.30838 0.31796 0.0
C239 C 0.32739 0.27685 0.28126 0.0
C240 C 0.21457 0.27832 0.28337 0.0
H241 H 0.10302 0.19727 0.18481 0.0
H242 H 0.1666 0.20903 0.20711 0.0
H243 H 0.15117 0.26574 0.28016 0.0
H244 H 0.3138 0.34711 0.33744 0.0
H245 H 0.25738 0.33643 0.30956 0.0
H246 H 0.28194 0.27929 0.23621 0.0
C247 C 0.14009 0.22656 0.21197 0.0
C248 C 0.17941 0.26882 0.27025 0.0
C249 C 0.10356 0.21959 0.19933 0.0
C250 C 0.31836 0.32792 0.32161 0.0
C251 C 0.28578 0.3213 0.30575 0.0
C252 C 0.25366 0.27608 0.24605 0.0
C253 C 0.14217 0.25548 0.23089 0.0
C254 C 0.18058 0.26317 0.24478 0.0
C255 C 0.28916 0.29431 0.28593 0.0
C256 C 0.25217 0.28281 0.27148 0.0
H257 H 0.04436 0.28838 0.22896 0.0
H258 H 0.10734 0.30017 0.25089 0.0
H259 H 0.22031 0.2624 0.21324 0.0
H260 H 0.38859 0.26805 0.29394 0.0
H261 H 0.33129 0.25592 0.2662 0.0
C262 C 0.28431 0.59134 0.70145 0.0
C263 C 0.2639 0.55587 0.70876 0.0
C264 C 0.2767 0.62851 0.71315 0.0
C265 C 0.19941 0.67912 0.75275 0.0
H266 H 0.28506 0.75662 0.76592 0.0
C267 C 0.18592 0.80394 0.82585 0.0
C268 C 0.20265 0.84244 0.82142 0.0
C269 C 0.19073 0.77243 0.80902 0.0
C270 C 0.26066 0.73561 0.76203 0.0
H271 H 0.22049 0.53171 0.73471 0.0
H272 H 0.20811 0.59562 0.75531 0.0
H273 H 0.30034 0.69453 0.74337 0.0
H274 H 0.23679 0.87828 0.79542 0.0
H275 H 0.2456 0.82277 0.76589 0.0
H276 H 0.16004 0.71956 0.77204 0.0
C277 C 0.22915 0.59529 0.74013 0.0
C278 C 0.26942 0.69989 0.7491 0.0
C279 C 0.23657 0.55836 0.72841 0.0
C280 C 0.22312 0.8491 0.79922 0.0
C281 C 0.22857 0.81719 0.78247 0.0
C282 C 0.19076 0.71458 0.76578 0.0
C283 C 0.24857 0.63112 0.73248 0.0
C284 C 0.23906 0.67071 0.74468 0.0
C285 C 0.21296 0.77826 0.78739 0.0
C286 C 0.22137 0.74298 0.77099 0.0
H287 H 0.30543 0.59061 0.68631 0.0
H288 H 0.29213 0.65536 0.7066 0.0
H289 H 0.17489 0.65811 0.74916 0.0
H290 H 0.17014 0.79774 0.84281 0.0
H291 H 0.17858 0.74288 0.81356 0.0
C292 C 0.64211 0.72478 0.30037 0.0
C293 C 0.65145 0.70732 0.32315 0.0
C294 C 0.67284 0.73224 0.2831 0.0
C295 C 0.74786 0.77151 0.25952 0.0
H296 H 0.83976 0.69949 0.25241 0.0
C297 C 0.90097 0.82484 0.21789 0.0
C298 C 0.92338 0.79728 0.2037 0.0
C299 C 0.86586 0.8124 0.2303 0.0
C300 C 0.81423 0.71989 0.25388 0.0
H301 H 0.70008 0.68194 0.34498 0.0
H302 H 0.75302 0.69452 0.31516 0.0
H303 H 0.78136 0.67797 0.27625 0.0
H304 H 0.92566 0.73496 0.1912 0.0
H305 H 0.86447 0.71351 0.21246 0.0
H306 H 0.78073 0.81336 0.237 0.0
C307 C 0.72219 0.70254 0.31041 0.0
C308 C 0.78076 0.70765 0.26783 0.0
C309 C 0.69171 0.69541 0.32763 0.0
C310 C 0.90944 0.75705 0.20207 0.0
C311 C 0.87432 0.74464 0.21441 0.0
C312 C 0.78139 0.78378 0.24554 0.0
C313 C 0.7135 0.72199 0.28814 0.0
C314 C 0.7473 0.73348 0.27117 0.0
C315 C 0.85207 0.77204 0.22884 0.0
C316 C 0.81533 0.75835 0.24276 0.0
H317 H 0.61151 0.73463 0.29638 0.0
H318 H 0.66488 0.74679 0.26602 0.0
H319 H 0.72292 0.79244 0.26181 0.0
H320 H 0.91074 0.85605 0.21964 0.0
H321 H 0.85 0.83433 0.24147 0.0
C322 C 0.71575 0.4033 0.70599 0.0
C323 C 0.73586 0.43909 0.71307 0.0
C324 C 0.72214 0.36686 0.71877 0.0
C325 C 0.75719 0.32794 0.77874 0.0
H326 H 0.77735 0.22699 0.74462 0.0
C327 C 0.81585 0.19086 0.83178 0.0
C328 C 0.79916 0.15258 0.82673 0.0
C329 C 0.80944 0.22354 0.81603 0.0
C330 C 0.77136 0.2548 0.75446 0.0
H331 H 0.77816 0.46443 0.73936 0.0
H332 H 0.78883 0.40157 0.76157 0.0
H333 H 0.76116 0.28833 0.7213 0.0
H334 H 0.76418 0.11815 0.80042 0.0
H335 H 0.75235 0.17565 0.77284 0.0
H336 H 0.76679 0.29497 0.81182 0.0
C337 C 0.76804 0.40147 0.74623 0.0
C338 C 0.76204 0.28999 0.74108 0.0
C339 C 0.762 0.4376 0.73338 0.0
C340 C 0.77779 0.14718 0.80469 0.0
C341 C 0.7709 0.18025 0.78894 0.0
C342 C 0.76624 0.29294 0.79206 0.0
C343 C 0.74836 0.36553 0.7391 0.0
C344 C 0.75547 0.32718 0.75306 0.0
C345 C 0.78549 0.21925 0.79487 0.0
C346 C 0.77421 0.25594 0.78017 0.0
H347 H 0.69558 0.40326 0.69035 0.0
H348 H 0.70627 0.33982 0.71288 0.0
H349 H 0.75143 0.35575 0.78864 0.0
H350 H 0.83272 0.19596 0.84852 0.0
H351 H 0.8224 0.25262 0.82088 0.0
C352 C 0.60362 0.28913 0.3132 0.0
C353 C 0.56833 0.2673 0.30708 0.0
C354 C 0.64012 0.28244 0.30055 0.0
C355 C 0.67926 0.24205 0.24186 0.0
H356 H 0.78163 0.22992 0.27597 0.0
C357 C 0.81769 0.18345 0.19021 0.0
C358 C 0.85522 0.20253 0.19414 0.0
C359 C 0.78514 0.18997 0.20604 0.0
C360 C 0.75339 0.23362 0.26612 0.0
H361 H 0.54401 0.2215 0.28266 0.0
H362 H 0.60696 0.21022 0.26071 0.0
H363 H 0.72007 0.24632 0.29902 0.0
H364 H 0.88858 0.24197 0.21858 0.0
H365 H 0.8313 0.25396 0.24628 0.0
H366 H 0.712 0.22994 0.20902 0.0
C367 C 0.60661 0.23264 0.27517 0.0
C368 C 0.71808 0.24307 0.27935 0.0
C369 C 0.57041 0.23903 0.28788 0.0
C370 C 0.86016 0.22646 0.21522 0.0
C371 C 0.82721 0.23346 0.23103 0.0
C372 C 0.71437 0.23285 0.2287 0.0
C373 C 0.64204 0.25414 0.2813 0.0
C374 C 0.68041 0.2468 0.2674 0.0
C375 C 0.78879 0.21642 0.22611 0.0
C376 C 0.7519 0.22776 0.2406 0.0
H377 H 0.6032 0.31098 0.32797 0.0
H378 H 0.66673 0.29973 0.30566 0.0
H379 H 0.65106 0.24559 0.23194 0.0
H380 H 0.81296 0.16463 0.17422 0.0
H381 H 0.75658 0.17517 0.20202 0.0
C382 C 0.3243 0.30512 0.692 0.0
C383 C 0.3054 0.34252 0.69642 0.0
C384 C 0.31846 0.27231 0.70777 0.0
C385 C 0.27678 0.23979 0.76833 0.0
H386 H 0.26368 0.13775 0.73405 0.0
C387 C 0.22072 0.09027 0.81549 0.0
C388 C 0.2422 0.0549 0.80931 0.0
C389 C 0.22756 0.12672 0.8028 0.0
C390 C 0.26755 0.16587 0.744 0.0
H391 H 0.26706 0.37533 0.72165 0.0
H392 H 0.25626 0.31767 0.74921 0.0
H393 H 0.27913 0.1988 0.71114 0.0
H394 H 0.28751 0.03036 0.78473 0.0
H395 H 0.29903 0.09324 0.76268 0.0
H396 H 0.2645 0.2063 0.80125 0.0
C397 C 0.27612 0.31385 0.73363 0.0
C398 C 0.27666 0.20104 0.73084 0.0
C399 C 0.28244 0.34704 0.7179 0.0
C400 C 0.27026 0.05684 0.78999 0.0
C401 C 0.27679 0.09299 0.77723 0.0
C402 C 0.26739 0.20442 0.78155 0.0
C403 C 0.29289 0.27557 0.72827 0.0
C404 C 0.28207 0.23849 0.74277 0.0
C405 C 0.25568 0.12851 0.78345 0.0
C406 C 0.2632 0.16688 0.76956 0.0
H407 H 0.34235 0.30069 0.67568 0.0
H408 H 0.33306 0.24387 0.70339 0.0
H409 H 0.28077 0.26792 0.77822 0.0
H410 H 0.19905 0.08996 0.83035 0.0
H411 H 0.21055 0.1534 0.80797 0.0
C412 C 0.40282 0.7227 0.3204 0.0
C413 C 0.43704 0.74601 0.31414 0.0
C414 C 0.36521 0.72967 0.30904 0.0
C415 C 0.30986 0.80863 0.27311 0.0
H416 H 0.2386 0.72016 0.25489 0.0
C417 C 0.18643 0.82318 0.19915 0.0
C418 C 0.14932 0.80272 0.20197 0.0
C419 C 0.21748 0.81878 0.21635 0.0
C420 C 0.25781 0.74529 0.26022 0.0
H421 H 0.45851 0.79414 0.29044 0.0
H422 H 0.39384 0.80554 0.27043 0.0
H423 H 0.3012 0.70599 0.27724 0.0
H424 H 0.1153 0.7625 0.22557 0.0
H425 H 0.16999 0.75447 0.25577 0.0
H426 H 0.26714 0.84776 0.25545 0.0
C427 C 0.39548 0.78258 0.28454 0.0
C428 C 0.29382 0.73716 0.27303 0.0
C429 C 0.43286 0.77575 0.2959 0.0
C430 C 0.14335 0.77906 0.22305 0.0
C431 C 0.17484 0.77408 0.24016 0.0
C432 C 0.27408 0.81669 0.26021 0.0
C433 C 0.36089 0.76008 0.29112 0.0
C434 C 0.32082 0.76866 0.27922 0.0
C435 C 0.21261 0.79329 0.23674 0.0
C436 C 0.24793 0.78509 0.25317 0.0
H437 H 0.40485 0.69966 0.33444 0.0
H438 H 0.33932 0.71184 0.31473 0.0
H439 H 0.32915 0.83387 0.27809 0.0
H440 H 0.19208 0.84143 0.18304 0.0
H441 H 0.24615 0.83377 0.21296 0.0
C442 C 0.72165 0.6468 0.72145 0.0
C443 C 0.69836 0.65152 0.70008 0.0
C444 C 0.72832 0.6799 0.73722 0.0
C445 C 0.72812 0.79271 0.73454 0.0
H446 H 0.74096 0.78743 0.80492 0.0
C447 C 0.73474 0.93687 0.79367 0.0
C448 C 0.76291 0.93892 0.81295 0.0
C449 C 0.72824 0.9007 0.78092 0.0
C450 C 0.73789 0.7893 0.78523 0.0
H451 H 0.66118 0.69354 0.67959 0.0
H452 H 0.67107 0.75018 0.70737 0.0
H453 H 0.72439 0.72581 0.78192 0.0
H454 H 0.80635 0.90401 0.83393 0.0
H455 H 0.79491 0.84052 0.81156 0.0
H456 H 0.7412 0.85598 0.73773 0.0
C457 C 0.68566 0.72169 0.71163 0.0
C458 C 0.72833 0.75395 0.77203 0.0
C459 C 0.67949 0.68898 0.69583 0.0
C460 C 0.78458 0.90363 0.81909 0.0
C461 C 0.77778 0.86714 0.80641 0.0
C462 C 0.7374 0.82787 0.74768 0.0
C463 C 0.71157 0.71826 0.73199 0.0
C464 C 0.72275 0.75527 0.74648 0.0
C465 C 0.74952 0.86525 0.78711 0.0
C466 C 0.74197 0.82686 0.77323 0.0
H467 H 0.737 0.61845 0.72506 0.0
H468 H 0.74842 0.67596 0.75269 0.0
H469 H 0.72544 0.79496 0.71485 0.0
H470 H 0.71733 0.96328 0.78844 0.0
H471 H 0.70588 0.90036 0.7664 0.0
C472 C 0.00671 0.65605 0.12617 0.0
C473 C 0.04734 0.66864 0.12578 0.0
C474 C 0.99674 0.61531 0.1229 0.0
C475 C 0.03964 0.51513 0.1041 0.0
H476 H 0.94943 0.47442 0.14236 0.0
C477 C 0.00805 0.34573 0.12674 0.0
C478 C 0.96827 0.33234 0.12221 0.0
C479 C 0.01806 0.38668 0.12426 0.0
C480 C 0.97447 0.48551 0.13143 0.0
H481 H 0.10943 0.64873 0.12137 0.0
H482 H 0.09235 0.57733 0.11685 0.0
H483 H 0.96627 0.54608 0.14391 0.0
H484 H 0.908 0.35119 0.11115 0.0
H485 H 0.92538 0.42291 0.1075 0.0
H486 H 0.04872 0.45354 0.09275 0.0
C487 C 0.06792 0.59891 0.11886 0.0
C488 C 0.98404 0.52665 0.13214 0.0
C489 C 0.07781 0.63985 0.1216 0.0
C490 C 0.93892 0.36055 0.11471 0.0
C491 C 0.94876 0.40156 0.1127 0.0
C492 C 0.03049 0.47375 0.1038 0.0
C493 C 0.02724 0.586 0.11975 0.0
C494 C 0.01671 0.54213 0.11844 0.0
C495 C 0.98829 0.41498 0.11767 0.0
C496 C 0.99777 0.4587 0.11742 0.0
H497 H 0.98256 0.67772 0.12906 0.0
H498 H 0.96503 0.60686 0.12301 0.0
H499 H 0.06456 0.52589 0.09299 0.0
H500 H 0.03132 0.32465 0.13248 0.0
H501 H 0.04869 0.39646 0.12832 0.0
C502 C 0.86216 0.56669 0.62657 0.0
C503 C 0.83246 0.53753 0.63191 0.0
C504 C 0.90285 0.5556 0.62468 0.0
C505 C 0.97332 0.47246 0.64187 0.0
H506 H 0.04683 0.53009 0.5988 0.0
C507 C 0.13866 0.42323 0.6245 0.0
C508 C 0.16752 0.45326 0.62996 0.0
C509 C 0.09759 0.433 0.62305 0.0
C510 C 0.02652 0.51385 0.61089 0.0
H511 H 0.82166 0.47369 0.63851 0.0
H512 H 0.89227 0.45391 0.63404 0.0
H513 H 0.97483 0.54702 0.5986 0.0
H514 H 0.17626 0.51722 0.63744 0.0
H515 H 0.10431 0.53443 0.63421 0.0
H516 H 0.02517 0.43858 0.65354 0.0
C517 C 0.88458 0.48564 0.63224 0.0
C518 C 0.98534 0.52365 0.61095 0.0
C519 C 0.84402 0.49688 0.63462 0.0
C520 C 0.15466 0.49345 0.63327 0.0
C521 C 0.11364 0.50334 0.63132 0.0
C522 C 0.0143 0.46217 0.64143 0.0
C523 C 0.91467 0.51493 0.62762 0.0
C524 C 0.95823 0.50335 0.62663 0.0
C525 C 0.08479 0.47308 0.62653 0.0
C526 C 0.04124 0.48303 0.62612 0.0
H527 H 0.85413 0.59833 0.62458 0.0
H528 H 0.92508 0.57918 0.62156 0.0
H529 H 0.95373 0.45673 0.65459 0.0
H530 H 0.14767 0.39198 0.62195 0.0
H531 H 0.07577 0.40925 0.61926 0.0
C532 C 0.50622 0.16326 0.38713 0.0
C533 C 0.46578 0.17588 0.38918 0.0
C534 C 0.51636 0.12253 0.39012 0.0
C535 C 0.47508 0.0231 0.4116 0.0
H536 H 0.56052 0.98067 0.37027 0.0
C537 C 0.5024 0.85295 0.38969 0.0
C538 C 0.54229 0.83935 0.39336 0.0
C539 C 0.49314 0.89409 0.39178 0.0
C540 C 0.5368 0.99226 0.38204 0.0
H541 H 0.40421 0.15597 0.39604 0.0
H542 H 0.42146 0.08469 0.40007 0.0
H543 H 0.5442 0.05245 0.36863 0.0
H544 H 0.60362 0.85801 0.40237 0.0
H545 H 0.58748 0.93004 0.40532 0.0
H546 H 0.46668 0.96194 0.42394 0.0
C547 C 0.44571 0.10622 0.39701 0.0
C548 C 0.52757 0.03345 0.38127 0.0
C549 C 0.43571 0.1471 0.39454 0.0
C550 C 0.57258 0.86756 0.39951 0.0
C551 C 0.56346 0.90873 0.40112 0.0
C552 C 0.48383 0.9817 0.41197 0.0
C553 C 0.48616 0.09331 0.39466 0.0
C554 C 0.49659 0.0495 0.39605 0.0
C555 C 0.52376 0.9223 0.3971 0.0
C556 C 0.51479 0.96605 0.39721 0.0
H557 H 0.53008 0.1849 0.38326 0.0
H558 H 0.54795 0.11402 0.38879 0.0
H559 H 0.45155 0.03435 0.42358 0.0
H560 H 0.47843 0.83186 0.38499 0.0
H561 H 0.46234 0.90404 0.38849 0.0
C562 C 0.35802 0.93383 0.90916 0.0
C563 C 0.33345 0.95625 0.8931 0.0
C564 C 0.39887 0.9438 0.91224 0.0
C565 C 0.48865 0.95427 0.90179 0.0
H566 H 0.52443 0.0662 0.90266 0.0
C567 C 0.65398 1.00125 0.88317 0.0
C568 C 0.67022 0.03398 0.89641 0.0
C569 C 0.61315 0.99083 0.88554 0.0
C570 C 0.51495 0.03478 0.90276 0.0
H571 H 0.33241 0.00718 0.86799 0.0
H572 H 0.40368 0.02419 0.87315 0.0
H573 H 0.45218 0.05088 0.90238 0.0
H574 H 0.65656 0.08062 0.92312 0.0
H575 H 0.58539 0.06208 0.92744 0.0
H576 H 0.55144 0.93817 0.9023 0.0
C577 C 0.39127 0.99924 0.88362 0.0
C578 C 0.47355 0.02602 0.9023 0.0
C579 C 0.35044 0.98933 0.88056 0.0
C580 C 0.64496 0.05538 0.91254 0.0
C581 C 0.60412 0.04491 0.91493 0.0
C582 C 0.53007 0.96303 0.90226 0.0
C583 C 0.41605 0.97638 0.89933 0.0
C584 C 0.45993 0.98568 0.90149 0.0
C585 C 0.58764 0.01284 0.90123 0.0
C586 C 0.54369 0.00339 0.90245 0.0
H587 H 0.34584 0.90829 0.91919 0.0
H588 H 0.41703 0.92593 0.92472 0.0
H589 H 0.47918 0.92287 0.90096 0.0
H590 H 0.67257 0.98416 0.87053 0.0
H591 H 0.60131 0.96628 0.87448 0.0
loop_
_geom_bond_atom_site_label_1
_geom_bond_atom_site_label_2
_geom_bond_distance
_geom_bond_site_symmetry_2
_ccdc_geom_bond_type
Zn0 O3 2.031 . S
Zn0 O5 2.049 . S
Zn0 O10 2.067 . S
Zn1 O2 1.962 . S
Zn1 O4 1.986 . S
Zn1 O6 1.996 . S
Zn1 O9 1.943 . S
O2 Zn1 1.962 . S
O2 C7 1.254 . S
O3 Zn0 2.031 . S
O3 C7 1.269 . S
O4 Zn1 1.986 . S
O4 C11 1.262 . S
O5 Zn0 2.049 . S
O5 C13 1.260 . S
O6 Zn1 1.996 . S
O6 C13 1.257 . S
C7 O2 1.254 . S
C7 O3 1.269 . S
C8 O9 1.249 . S
C8 O10 1.270 . S
O9 Zn1 1.943 . S
O9 C8 1.249 . S
O10 Zn0 2.067 . S
O10 C8 1.270 . S
C11 O4 1.262 . S
C11 O12 1.232 . S
O12 C11 1.232 . S
C13 O5 1.260 . S
C13 O6 1.257 . S
Zn14 O17 2.031 . S
Zn14 O19 2.049 . S
Zn14 O24 2.067 . S
Zn15 O16 1.962 . S
Zn15 O18 1.986 . S
Zn15 O20 1.996 . S
Zn15 O23 1.943 . S
O16 Zn15 1.962 . S
O16 C21 1.254 . S
O17 Zn14 2.031 . S
O17 C21 1.269 . S
O18 Zn15 1.986 . S
O18 C25 1.262 . S
O19 Zn14 2.049 . S
O19 C27 1.260 . S
O20 Zn15 1.996 . S
O20 C27 1.257 . S
C21 O16 1.254 . S
C21 O17 1.269 . S
C22 O23 1.249 . S
C22 O24 1.270 . S
O23 Zn15 1.943 . S
O23 C22 1.249 . S
O24 Zn14 2.067 . S
O24 C22 1.270 . S
C25 O18 1.262 . S
C25 O26 1.232 . S
O26 C25 1.232 . S
C27 O19 1.260 . S
C27 O20 1.257 . S
Zn28 O31 2.031 . S
Zn28 O33 2.049 . S
Zn28 O38 2.067 . S
Zn29 O30 1.962 . S
Zn29 O32 1.986 . S
Zn29 O34 1.996 . S
Zn29 O37 1.943 . S
O30 Zn29 1.962 . S
O30 C35 1.254 . S
O31 Zn28 2.031 . S
O31 C35 1.269 . S
O32 Zn29 1.986 . S
O32 C39 1.262 . S
O33 Zn28 2.049 . S
O33 C41 1.260 . S
O34 Zn29 1.996 . S
O34 C41 1.257 . S
C35 O30 1.254 . S
C35 O31 1.269 . S
C36 O37 1.249 . S
C36 O38 1.270 . S
O37 Zn29 1.943 . S
O37 C36 1.249 . S
O38 Zn28 2.067 . S
O38 C36 1.270 . S
C39 O32 1.262 . S
C39 O40 1.232 . S
O40 C39 1.232 . S
C41 O33 1.260 . S
C41 O34 1.257 . S
Zn42 O45 2.031 . S
Zn42 O47 2.049 . S
Zn42 O52 2.067 . S
Zn43 O44 1.962 . S
Zn43 O46 1.986 . S
Zn43 O48 1.996 . S
Zn43 O51 1.943 . S
O44 Zn43 1.962 . S
O44 C49 1.254 . S
O45 Zn42 2.031 . S
O45 C49 1.269 . S
O46 Zn43 1.986 . S
O46 C53 1.262 . S
O47 Zn42 2.049 . S
O47 C55 1.260 . S
O48 Zn43 1.996 . S
O48 C55 1.257 . S
C49 O44 1.254 . S
C49 O45 1.269 . S
C50 O51 1.249 . S
C50 O52 1.270 . S
O51 Zn43 1.943 . S
O51 C50 1.249 . S
O52 Zn42 2.067 . S
O52 C50 1.270 . S
C53 O46 1.262 . S
C53 O54 1.232 . S
O54 C53 1.232 . S
C55 O47 1.260 . S
C55 O48 1.257 . S
Zn56 O59 2.031 . S
Zn56 O61 2.049 . S
Zn56 O66 2.067 . S
Zn57 O58 1.962 . S
Zn57 O60 1.986 . S
Zn57 O62 1.996 . S
Zn57 O65 1.943 . S
O58 Zn57 1.962 . S
O58 C63 1.254 . S
O59 Zn56 2.031 . S
O59 C63 1.269 . S
O60 Zn57 1.986 . S
O60 C67 1.262 . S
O61 Zn56 2.049 . S
O61 C69 1.260 . S
O62 Zn57 1.996 . S
O62 C69 1.257 . S
C63 O58 1.254 . S
C63 O59 1.269 . S
C64 O65 1.249 . S
C64 O66 1.270 . S
O65 Zn57 1.943 . S
O65 C64 1.249 . S
O66 Zn56 2.067 . S
O66 C64 1.270 . S
C67 O60 1.262 . S
C67 O68 1.232 . S
O68 C67 1.232 . S
C69 O61 1.260 . S
C69 O62 1.257 . S
Zn70 O73 2.031 . S
Zn70 O75 2.049 . S
Zn70 O80 2.067 . S
Zn71 O72 1.962 . S
Zn71 O74 1.986 . S
Zn71 O76 1.996 . S
Zn71 O79 1.943 . S
O72 Zn71 1.962 . S
O72 C77 1.254 . S
O73 Zn70 2.031 . S
O73 C77 1.269 . S
O74 Zn71 1.986 . S
O74 C81 1.262 . S
O75 Zn70 2.049 . S
O75 C83 1.260 . S
O76 Zn71 1.996 . S
O76 C83 1.257 . S
C77 O72 1.254 . S
C77 O73 1.269 . S
C78 O79 1.249 . S
C78 O80 1.270 . S
O79 Zn71 1.943 . S
O79 C78 1.249 . S
O80 Zn70 2.067 . S
O80 C78 1.270 . S
C81 O74 1.262 . S
C81 O82 1.232 . S
O82 C81 1.232 . S
C83 O75 1.260 . S
C83 O76 1.257 . S
Zn84 O87 2.031 . S
Zn84 O89 2.049 . S
Zn84 O94 2.067 . S
Zn85 O86 1.962 . S
Zn85 O88 1.986 . S
Zn85 O90 1.996 . S
Zn85 O93 1.943 . S
O86 Zn85 1.962 . S
O86 C91 1.254 . S
O87 Zn84 2.031 . S
O87 C91 1.269 . S
O88 Zn85 1.986 . S
O88 C95 1.262 . S
O89 Zn84 2.049 . S
O89 C97 1.260 . S
O90 Zn85 1.996 . S
O90 C97 1.257 . S
C91 O86 1.254 . S
C91 O87 1.269 . S
C92 O93 1.249 . S
C92 O94 1.270 . S
O93 Zn85 1.943 . S
O93 C92 1.249 . S
O94 Zn84 2.067 . S
O94 C92 1.270 . S
C95 O88 1.262 . S
C95 O96 1.232 . S
O96 C95 1.232 . S
C97 O89 1.260 . S
C97 O90 1.257 . S
Zn98 O101 2.031 . S
Zn98 O103 2.049 . S
Zn98 O108 2.067 . S
Zn99 O100 1.962 . S
Zn99 O102 1.986 . S
Zn99 O104 1.996 . S
Zn99 O107 1.943 . S
O100 Zn99 1.962 . S
O100 C105 1.254 . S
O101 Zn98 2.031 . S
O101 C105 1.269 . S
O102 Zn99 1.986 . S
O102 C109 1.262 . S
O103 Zn98 2.049 . S
O103 C111 1.260 . S
O104 Zn99 1.996 . S
O104 C111 1.257 . S
C105 O100 1.254 . S
C105 O101 1.269 . S
C106 O107 1.249 . S
C106 O108 1.270 . S
O107 Zn99 1.943 . S
O107 C106 1.249 . S
O108 Zn98 2.067 . S
O108 C106 1.270 . S
C109 O102 1.262 . S
C109 O110 1.232 . S
O110 C109 1.232 . S
C111 O103 1.260 . S
C111 O104 1.257 . S
C112 C113 1.349 . S
C112 C114 1.327 . S
C112 H137 0.950 . S
C113 C112 1.349 . S
C113 C129 1.349 . S
C114 C112 1.327 . S
C114 C133 1.429 . S
C114 H138 0.950 . S
C115 C132 1.574 1_554 S
C115 C134 1.368 . S
C115 H139 0.949 . S
H116 C120 0.949 . S
C117 C118 1.349 . S
C117 C119 1.327 . S
C117 H140 0.950 . S
C118 C117 1.349 . S
C118 C130 1.349 . S
C119 C117 1.327 . S
C119 C135 1.429 . S
C119 H141 0.950 . S
C120 H116 0.949 . S
C120 C128 1.574 1_556 S
C120 C136 1.368 . S
H121 C129 0.950 . S
H122 C127 0.950 . S
H123 C128 0.949 . S
H124 C130 0.950 . S
H125 C131 0.950 . S
H126 C132 0.949 . S
C127 H122 0.950 . S
C127 C129 1.327 . S
C127 C133 1.429 . S
C128 C120 1.574 1_554 S
C128 H123 0.949 . S
C128 C134 1.368 . S
C129 C113 1.349 . S
C129 H121 0.950 . S
C129 C127 1.327 . S
C130 C118 1.349 . S
C130 H124 0.950 . S
C130 C131 1.327 . S
C131 H125 0.950 . S
C131 C130 1.327 . S
C131 C135 1.429 . S
C132 C115 1.574 1_556 S
C132 H126 0.949 . S
C132 C136 1.368 . S
C133 C114 1.429 . S
C133 C127 1.429 . S
C133 C134 1.523 . S
C134 C115 1.368 . S
C134 C128 1.368 . S
C134 C133 1.523 . S
C135 C119 1.429 . S
C135 C131 1.429 . S
C135 C136 1.523 . S
C136 C120 1.368 . S
C136 C132 1.368 . S
C136 C135 1.523 . S
H137 C112 0.950 . S
H138 C114 0.950 . S
H139 C115 0.949 . S
H140 C117 0.950 . S
H141 C119 0.950 . S
C142 C143 1.349 . S
C142 C144 1.327 . S
C142 H167 0.950 . S
C143 C142 1.349 . S
C143 C159 1.349 . S
C144 C142 1.327 . S
C144 C163 1.429 . S
C144 H168 0.950 . S
C145 C162 1.574 . S
C145 C164 1.368 . S
C145 H169 0.949 . S
H146 C150 0.949 . S
C147 C148 1.349 . S
C147 C149 1.327 . S
C147 H170 0.950 . S
C148 C147 1.349 . S
C148 C160 1.349 . S
C149 C147 1.327 . S
C149 C165 1.429 . S
C149 H171 0.950 . S
C150 H146 0.949 . S
C150 C158 1.574 . S
C150 C166 1.368 . S
H151 C159 0.950 . S
H152 C157 0.950 . S
H153 C158 0.949 . S
H154 C160 0.950 . S
H155 C161 0.950 . S
H156 C162 0.949 . S
C157 H152 0.950 . S
C157 C159 1.327 . S
C157 C163 1.429 . S
C158 C150 1.574 . S
C158 H153 0.949 . S
C158 C164 1.368 . S
C159 C143 1.349 . S
C159 H151 0.950 . S
C159 C157 1.327 . S
C160 C148 1.349 . S
C160 H154 0.950 . S
C160 C161 1.327 . S
C161 H155 0.950 . S
C161 C160 1.327 . S
C161 C165 1.429 . S
C162 C145 1.574 . S
C162 H156 0.949 . S
C162 C166 1.368 . S
C163 C144 1.429 . S
C163 C157 1.429 . S
C163 C164 1.523 . S
C164 C145 1.368 . S
C164 C158 1.368 . S
C164 C163 1.523 . S
C165 C149 1.429 . S
C165 C161 1.429 . S
C165 C166 1.523 . S
C166 C150 1.368 . S
C166 C162 1.368 . S
C166 C165 1.523 . S
H167 C142 0.950 . S
H168 C144 0.950 . S
H169 C145 0.949 . S
H170 C147 0.950 . S
H171 C149 0.950 . S
C172 C173 1.349 . S
C172 C174 1.327 . S
C172 H197 0.950 . S
C173 C172 1.349 . S
C173 C189 1.349 . S
C174 C172 1.327 . S
C174 C193 1.429 . S
C174 H198 0.950 . S
C175 C192 1.574 1_554 S
C175 C194 1.368 . S
C175 H199 0.949 . S
H176 C180 0.949 . S
C177 C178 1.349 . S
C177 C179 1.327 . S
C177 H200 0.950 . S
C178 C177 1.349 . S
C178 C190 1.349 . S
C179 C177 1.327 . S
C179 C195 1.429 . S
C179 H201 0.950 . S
C180 H176 0.949 . S
C180 C188 1.574 1_556 S
C180 C196 1.368 . S
H181 C189 0.950 . S
H182 C187 0.950 . S
H183 C188 0.949 . S
H184 C190 0.950 . S
H185 C191 0.950 . S
H186 C192 0.949 . S
C187 H182 0.950 . S
C187 C189 1.327 . S
C187 C193 1.429 . S
C188 C180 1.574 1_554 S
C188 H183 0.949 . S
C188 C194 1.368 . S
C189 C173 1.349 . S
C189 H181 0.950 . S
C189 C187 1.327 . S
C190 C178 1.349 . S
C190 H184 0.950 . S
C190 C191 1.327 . S
C191 H185 0.950 . S
C191 C190 1.327 . S
C191 C195 1.429 . S
C192 C175 1.574 1_556 S
C192 H186 0.949 . S
C192 C196 1.368 . S
C193 C174 1.429 . S
C193 C187 1.429 . S
C193 C194 1.523 . S
C194 C175 1.368 . S
C194 C188 1.368 . S
C194 C193 1.523 . S
C195 C179 1.429 . S
C195 C191 1.429 . S
C195 C196 1.523 . S
C196 C180 1.368 . S
C196 C192 1.368 . S
C196 C195 1.523 . S
H197 C172 0.950 . S
H198 C174 0.950 . S
H199 C175 0.949 . S
H200 C177 0.950 . S
H201 C179 0.950 . S
C202 C203 1.349 . S
C202 C204 1.327 . S
C202 H227 0.950 . S
C203 C202 1.349 . S
C203 C219 1.349 . S
C204 C202 1.327 . S
C204 C223 1.429 . S
C204 H228 0.950 . S
C205 C222 1.574 . S
C205 C224 1.368 . S
C205 H229 0.949 . S
H206 C210 0.949 . S
C207 C208 1.349 . S
C207 C209 1.327 . S
C207 H230 0.950 . S
C208 C207 1.349 . S
C208 C220 1.349 . S
C209 C207 1.327 . S
C209 C225 1.429 . S
C209 H231 0.950 . S
C210 H206 0.949 . S
C210 C218 1.574 . S
C210 C226 1.368 . S
H211 C219 0.950 . S
H212 C217 0.950 . S
H213 C218 0.949 . S
H214 C220 0.950 . S
H215 C221 0.950 . S
H216 C222 0.949 . S
C217 H212 0.950 . S
C217 C219 1.327 . S
C217 C223 1.429 . S
C218 C210 1.574 . S
C218 H213 0.949 . S
C218 C224 1.368 . S
C219 C203 1.349 . S
C219 H211 0.950 . S
C219 C217 1.327 . S
C220 C208 1.349 . S
C220 H214 0.950 . S
C220 C221 1.327 . S
C221 H215 0.950 . S
C221 C220 1.327 . S
C221 C225 1.429 . S
C222 C205 1.574 . S
C222 H216 0.949 . S
C222 C226 1.368 . S
C223 C204 1.429 . S
C223 C217 1.429 . S
C223 C224 1.523 . S
C224 C205 1.368 . S
C224 C218 1.368 . S
C224 C223 1.523 . S
C225 C209 1.429 . S
C225 C221 1.429 . S
C225 C226 1.523 . S
C226 C210 1.368 . S
C226 C222 1.368 . S
C226 C225 1.523 . S
H227 C202 0.950 . S
H228 C204 0.950 . S
H229 C205 0.949 . S
H230 C207 0.950 . S
H231 C209 0.950 . S
C232 C233 1.349 . S
C232 C234 1.327 . S
C232 H257 0.950 . S
C233 C232 1.349 . S
C233 C249 1.349 . S
C234 C232 1.327 . S
C234 C253 1.429 . S
C234 H258 0.950 . S
C235 C252 1.574 . S
C235 C254 1.368 . S
C235 H259 0.949 . S
H236 C240 0.949 . S
C237 C238 1.349 . S
C237 C239 1.327 . S
C237 H260 0.950 . S
C238 C237 1.349 . S
C238 C250 1.349 . S
C239 C237 1.327 . S
C239 C255 1.429 . S
C239 H261 0.950 . S
C240 H236 0.949 . S
C240 C248 1.574 . S
C240 C256 1.368 . S
H241 C249 0.950 . S
H242 C247 0.950 . S
H243 C248 0.949 . S
H244 C250 0.950 . S
H245 C251 0.950 . S
H246 C252 0.949 . S
C247 H242 0.950 . S
C247 C249 1.327 . S
C247 C253 1.429 . S
C248 C240 1.574 . S
C248 H243 0.949 . S
C248 C254 1.368 . S
C249 C233 1.349 . S
C249 H241 0.950 . S
C249 C247 1.327 . S
C250 C238 1.349 . S
C250 H244 0.950 . S
C250 C251 1.327 . S
C251 H245 0.950 . S
C251 C250 1.327 . S
C251 C255 1.429 . S
C252 C235 1.574 . S
C252 H246 0.949 . S
C252 C256 1.368 . S
C253 C234 1.429 . S
C253 C247 1.429 . S
C253 C254 1.523 . S
C254 C235 1.368 . S
C254 C248 1.368 . S
C254 C253 1.523 . S
C255 C239 1.429 . S
C255 C251 1.429 . S
C255 C256 1.523 . S
C256 C240 1.368 . S
C256 C252 1.368 . S
C256 C255 1.523 . S
H257 C232 0.950 . S
H258 C234 0.950 . S
H259 C235 0.949 . S
H260 C237 0.950 . S
H261 C239 0.950 . S
C262 C263 1.349 . S
C262 C264 1.327 . S
C262 H287 0.950 . S
C263 C262 1.349 . S
C263 C279 1.349 . S
C264 C262 1.327 . S
C264 C283 1.429 . S
C264 H288 0.950 . S
C265 C282 1.574 . S
C265 C284 1.368 . S
C265 H289 0.949 . S
H266 C270 0.949 . S
C267 C268 1.349 1_565 S
C267 C269 1.327 . S
C267 H290 0.950 . S
C268 C267 1.349 1_545 S
C268 C280 1.349 1_545 S
C269 C267 1.327 . S
C269 C285 1.429 . S
C269 H291 0.950 . S
C270 H266 0.949 . S
C270 C278 1.574 . S
C270 C286 1.368 . S
H271 C279 0.950 . S
H272 C277 0.950 . S
H273 C278 0.949 . S
H274 C280 0.950 1_545 S
H275 C281 0.950 . S
H276 C282 0.949 . S
C277 H272 0.950 . S
C277 C279 1.327 . S
C277 C283 1.429 . S
C278 C270 1.574 . S
C278 H273 0.949 . S
C278 C284 1.368 . S
C279 C263 1.349 . S
C279 H271 0.950 . S
C279 C277 1.327 . S
C280 C268 1.349 1_565 S
C280 H274 0.950 1_565 S
C280 C281 1.327 . S
C281 H275 0.950 . S
C281 C280 1.327 . S
C281 C285 1.429 . S
C282 C265 1.574 . S
C282 H276 0.949 . S
C282 C286 1.368 . S
C283 C264 1.429 . S
C283 C277 1.429 . S
C283 C284 1.523 . S
C284 C265 1.368 . S
C284 C278 1.368 . S
C284 C283 1.523 . S
C285 C269 1.429 . S
C285 C281 1.429 . S
C285 C286 1.523 . S
C286 C270 1.368 . S
C286 C282 1.368 . S
C286 C285 1.523 . S
H287 C262 0.950 . S
H288 C264 0.950 . S
H289 C265 0.949 . S
H290 C267 0.950 . S
H291 C269 0.950 . S
C292 C293 1.349 . S
C292 C294 1.327 . S
C292 H317 0.950 . S
C293 C292 1.349 . S
C293 C309 1.349 . S
C294 C292 1.327 . S
C294 C313 1.429 . S
C294 H318 0.950 . S
C295 C312 1.574 . S
C295 C314 1.368 . S
C295 H319 0.949 . S
H296 C300 0.949 . S
C297 C298 1.349 . S
C297 C299 1.327 . S
C297 H320 0.950 . S
C298 C297 1.349 . S
C298 C310 1.349 . S
C299 C297 1.327 . S
C299 C315 1.429 . S
C299 H321 0.950 . S
C300 H296 0.949 . S
C300 C308 1.574 . S
C300 C316 1.368 . S
H301 C309 0.950 . S
H302 C307 0.950 . S
H303 C308 0.949 . S
H304 C310 0.950 . S
H305 C311 0.950 . S
H306 C312 0.949 . S
C307 H302 0.950 . S
C307 C309 1.327 . S
C307 C313 1.429 . S
C308 C300 1.574 . S
C308 H303 0.949 . S
C308 C314 1.368 . S
C309 C293 1.349 . S
C309 H301 0.950 . S
C309 C307 1.327 . S
C310 C298 1.349 . S
C310 H304 0.950 . S
C310 C311 1.327 . S
C311 H305 0.950 . S
C311 C310 1.327 . S
C311 C315 1.429 . S
C312 C295 1.574 . S
C312 H306 0.949 . S
C312 C316 1.368 . S
C313 C294 1.429 . S
C313 C307 1.429 . S
C313 C314 1.523 . S
C314 C295 1.368 . S
C314 C308 1.368 . S
C314 C313 1.523 . S
C315 C299 1.429 . S
C315 C311 1.429 . S
C315 C316 1.523 . S
C316 C300 1.368 . S
C316 C312 1.368 . S
C316 C315 1.523 . S
H317 C292 0.950 . S
H318 C294 0.950 . S
H319 C295 0.949 . S
H320 C297 0.950 . S
H321 C299 0.950 . S
C322 C323 1.349 . S
C322 C324 1.327 . S
C322 H347 0.950 . S
C323 C322 1.349 . S
C323 C339 1.349 . S
C324 C322 1.327 . S
C324 C343 1.429 . S
C324 H348 0.950 . S
C325 C342 1.574 . S
C325 C344 1.368 . S
C325 H349 0.949 . S
H326 C330 0.949 . S
C327 C328 1.349 1_545 S
C327 C329 1.327 . S
C327 H350 0.950 . S
C328 C327 1.349 1_565 S
C328 C340 1.349 . S
C329 C327 1.327 . S
C329 C345 1.429 . S
C329 H351 0.950 . S
C330 H326 0.949 . S
C330 C338 1.574 . S
C330 C346 1.368 . S
H331 C339 0.950 . S
H332 C337 0.950 . S
H333 C338 0.949 . S
H334 C340 0.950 . S
H335 C341 0.950 . S
H336 C342 0.949 . S
C337 H332 0.950 . S
C337 C339 1.327 . S
C337 C343 1.429 . S
C338 C330 1.574 . S
C338 H333 0.949 . S
C338 C344 1.368 . S
C339 C323 1.349 . S
C339 H331 0.950 . S
C339 C337 1.327 . S
C340 C328 1.349 . S
C340 H334 0.950 . S
C340 C341 1.327 1_565 S
C341 H335 0.950 . S
C341 C340 1.327 1_545 S
C341 C345 1.429 . S
C342 C325 1.574 . S
C342 H336 0.949 . S
C342 C346 1.368 . S
C343 C324 1.429 . S
C343 C337 1.429 . S
C343 C344 1.523 . S
C344 C325 1.368 . S
C344 C338 1.368 . S
C344 C343 1.523 . S
C345 C329 1.429 . S
C345 C341 1.429 . S
C345 C346 1.523 . S
C346 C330 1.368 . S
C346 C342 1.368 . S
C346 C345 1.523 . S
H347 C322 0.950 . S
H348 C324 0.950 . S
H349 C325 0.949 . S
H350 C327 0.950 . S
H351 C329 0.950 . S
C352 C353 1.349 . S
C352 C354 1.327 . S
C352 H377 0.950 . S
C353 C352 1.349 . S
C353 C369 1.349 . S
C354 C352 1.327 . S
C354 C373 1.429 . S
C354 H378 0.950 . S
C355 C372 1.574 . S
C355 C374 1.368 . S
C355 H379 0.949 . S
H356 C360 0.949 . S
C357 C358 1.349 1_655 S
C357 C359 1.327 . S
C357 H380 0.950 . S
C358 C357 1.349 1_455 S
C358 C370 1.349 1_455 S
C359 C357 1.327 . S
C359 C375 1.429 . S
C359 H381 0.950 . S
C360 H356 0.949 . S
C360 C368 1.574 . S
C360 C376 1.368 . S
H361 C369 0.950 . S
H362 C367 0.950 . S
H363 C368 0.949 . S
H364 C370 0.950 1_455 S
H365 C371 0.950 . S
H366 C372 0.949 . S
C367 H362 0.950 . S
C367 C369 1.327 . S
C367 C373 1.429 . S
C368 C360 1.574 . S
C368 H363 0.949 . S
C368 C374 1.368 . S
C369 C353 1.349 . S
C369 H361 0.950 . S
C369 C367 1.327 . S
C370 C358 1.349 1_655 S
C370 H364 0.950 1_655 S
C370 C371 1.327 . S
C371 H365 0.950 . S
C371 C370 1.327 . S
C371 C375 1.429 . S
C372 C355 1.574 . S
C372 H366 0.949 . S
C372 C376 1.368 . S
C373 C354 1.429 . S
C373 C367 1.429 . S
C373 C374 1.523 . S
C374 C355 1.368 . S
C374 C368 1.368 . S
C374 C373 1.523 . S
C375 C359 1.429 . S
C375 C371 1.429 . S
C375 C376 1.523 . S
C376 C360 1.368 . S
C376 C372 1.368 . S
C376 C375 1.523 . S
H377 C352 0.950 . S
H378 C354 0.950 . S
H379 C355 0.949 . S
H380 C357 0.950 . S
H381 C359 0.950 . S
C382 C383 1.349 . S
C382 C384 1.327 . S
C382 H407 0.950 . S
C383 C382 1.349 . S
C383 C399 1.349 . S
C384 C382 1.327 . S
C384 C403 1.429 . S
C384 H408 0.950 . S
C385 C402 1.574 . S
C385 C404 1.368 . S
C385 H409 0.949 . S
H386 C390 0.949 . S
C387 C388 1.349 . S
C387 C389 1.327 . S
C387 H410 0.950 . S
C388 C387 1.349 . S
C388 C400 1.349 . S
C389 C387 1.327 . S
C389 C405 1.429 . S
C389 H411 0.950 . S
C390 H386 0.949 . S
C390 C398 1.574 . S
C390 C406 1.368 . S
H391 C399 0.950 . S
H392 C397 0.950 . S
H393 C398 0.949 . S
H394 C400 0.950 . S
H395 C401 0.950 . S
H396 C402 0.949 . S
C397 H392 0.950 . S
C397 C399 1.327 . S
C397 C403 1.429 . S
C398 C390 1.574 . S
C398 H393 0.949 . S
C398 C404 1.368 . S
C399 C383 1.349 . S
C399 H391 0.950 . S
C399 C397 1.327 . S
C400 C388 1.349 . S
C400 H394 0.950 . S
C400 C401 1.327 . S
C401 H395 0.950 . S
C401 C400 1.327 . S
C401 C405 1.429 . S
C402 C385 1.574 . S
C402 H396 0.949 . S
C402 C406 1.368 . S
C403 C384 1.429 . S
C403 C397 1.429 . S
C403 C404 1.523 . S
C404 C385 1.368 . S
C404 C398 1.368 . S
C404 C403 1.523 . S
C405 C389 1.429 . S
C405 C401 1.429 . S
C405 C406 1.523 . S
C406 C390 1.368 . S
C406 C402 1.368 . S
C406 C405 1.523 . S
H407 C382 0.950 . S
H408 C384 0.950 . S
H409 C385 0.949 . S
H410 C387 0.950 . S
H411 C389 0.950 . S
C412 C413 1.349 . S
C412 C414 1.327 . S
C412 H437 0.950 . S
C413 C412 1.349 . S
C413 C429 1.349 . S
C414 C412 1.327 . S
C414 C433 1.429 . S
C414 H438 0.950 . S
C415 C432 1.574 . S
C415 C434 1.368 . S
C415 H439 0.949 . S
H416 C420 0.949 . S
C417 C418 1.349 1_455 S
C417 C419 1.327 . S
C417 H440 0.950 . S
C418 C417 1.349 1_655 S
C418 C430 1.349 1_655 S
C419 C417 1.327 . S
C419 C435 1.429 . S
C419 H441 0.950 . S
C420 H416 0.949 . S
C420 C428 1.574 . S
C420 C436 1.368 . S
H421 C429 0.950 . S
H422 C427 0.950 . S
H423 C428 0.949 . S
H424 C430 0.950 1_655 S
H425 C431 0.950 . S
H426 C432 0.949 . S
C427 H422 0.950 . S
C427 C429 1.327 . S
C427 C433 1.429 . S
C428 C420 1.574 . S
C428 H423 0.949 . S
C428 C434 1.368 . S
C429 C413 1.349 . S
C429 H421 0.950 . S
C429 C427 1.327 . S
C430 C418 1.349 1_455 S
C430 H424 0.950 1_455 S
C430 C431 1.327 . S
C431 H425 0.950 . S
C431 C430 1.327 . S
C431 C435 1.429 . S
C432 C415 1.574 . S
C432 H426 0.949 . S
C432 C436 1.368 . S
C433 C414 1.429 . S
C433 C427 1.429 . S
C433 C434 1.523 . S
C434 C415 1.368 . S
C434 C428 1.368 . S
C434 C433 1.523 . S
C435 C419 1.429 . S
C435 C431 1.429 . S
C435 C436 1.523 . S
C436 C420 1.368 . S
C436 C432 1.368 . S
C436 C435 1.523 . S
H437 C412 0.950 . S
H438 C414 0.950 . S
H439 C415 0.949 . S
H440 C417 0.950 . S
H441 C419 0.950 . S
C442 C443 1.349 . S
C442 C444 1.327 . S
C442 H467 0.950 . S
C443 C442 1.349 . S
C443 C459 1.349 . S
C444 C442 1.327 . S
C444 C463 1.429 . S
C444 H468 0.950 . S
C445 C462 1.574 . S
C445 C464 1.368 . S
C445 H469 0.949 . S
H446 C450 0.949 . S
C447 C448 1.349 . S
C447 C449 1.327 . S
C447 H470 0.950 . S
C448 C447 1.349 . S
C448 C460 1.349 . S
C449 C447 1.327 . S
C449 C465 1.429 . S
C449 H471 0.950 . S
C450 H446 0.949 . S
C450 C458 1.574 . S
C450 C466 1.368 . S
H451 C459 0.950 . S
H452 C457 0.950 . S
H453 C458 0.949 . S
H454 C460 0.950 . S
H455 C461 0.950 . S
H456 C462 0.949 . S
C457 H452 0.950 . S
C457 C459 1.327 . S
C457 C463 1.429 . S
C458 C450 1.574 . S
C458 H453 0.949 . S
C458 C464 1.368 . S
C459 C443 1.349 . S
C459 H451 0.950 . S
C459 C457 1.327 . S
C460 C448 1.349 . S
C460 H454 0.950 . S
C460 C461 1.327 . S
C461 H455 0.950 . S
C461 C460 1.327 . S
C461 C465 1.429 . S
C462 C445 1.574 . S
C462 H456 0.949 . S
C462 C466 1.368 . S
C463 C444 1.429 . S
C463 C457 1.429 . S
C463 C464 1.523 . S
C464 C445 1.368 . S
C464 C458 1.368 . S
C464 C463 1.523 . S
C465 C449 1.429 . S
C465 C461 1.429 . S
C465 C466 1.523 . S
C466 C450 1.368 . S
C466 C462 1.368 . S
C466 C465 1.523 . S
H467 C442 0.950 . S
H468 C444 0.950 . S
H469 C445 0.949 . S
H470 C447 0.950 . S
H471 C449 0.950 . S
C472 C473 1.349 . S
C472 C474 1.327 . S
C472 H497 0.950 . S
C473 C472 1.349 . S
C473 C489 1.349 . S
C474 C472 1.327 . S
C474 C493 1.429 . S
C474 H498 0.950 . S
C475 C492 1.574 . S
C475 C494 1.368 1_455 S
C475 H499 0.949 . S
H476 C480 0.949 . S
C477 C478 1.349 . S
C477 C479 1.327 . S
C477 H500 0.950 . S
C478 C477 1.349 . S
C478 C490 1.349 . S
C479 C477 1.327 . S
C479 C495 1.429 . S
C479 H501 0.950 . S
C480 H476 0.949 . S
C480 C488 1.574 . S
C480 C496 1.368 1_655 S
H481 C489 0.950 . S
H482 C487 0.950 . S
H483 C488 0.949 . S
H484 C490 0.950 . S
H485 C491 0.950 . S
H486 C492 0.949 . S
C487 H482 0.950 . S
C487 C489 1.327 . S
C487 C493 1.429 . S
C488 C480 1.574 . S
C488 H483 0.949 . S
C488 C494 1.368 . S
C489 C473 1.349 . S
C489 H481 0.950 . S
C489 C487 1.327 . S
C490 C478 1.349 . S
C490 H484 0.950 . S
C490 C491 1.327 . S
C491 H485 0.950 . S
C491 C490 1.327 . S
C491 C495 1.429 . S
C492 C475 1.574 . S
C492 H486 0.949 . S
C492 C496 1.368 . S
C493 C474 1.429 . S
C493 C487 1.429 . S
C493 C494 1.523 . S
C494 C475 1.368 1_655 S
C494 C488 1.368 . S
C494 C493 1.523 . S
C495 C479 1.429 . S
C495 C491 1.429 . S
C495 C496 1.523 . S
C496 C480 1.368 1_455 S
C496 C492 1.368 . S
C496 C495 1.523 . S
H497 C472 0.950 . S
H498 C474 0.950 . S
H499 C475 0.949 . S
H500 C477 0.950 . S
H501 C479 0.950 . S
C502 C503 1.349 . S
C502 C504 1.327 . S
C502 H527 0.950 . S
C503 C502 1.349 . S
C503 C519 1.349 . S
C504 C502 1.327 . S
C504 C523 1.429 . S
C504 H528 0.950 . S
C505 C522 1.574 1_655 S
C505 C524 1.368 . S
C505 H529 0.949 . S
H506 C510 0.949 . S
C507 C508 1.349 . S
C507 C509 1.327 . S
C507 H530 0.950 . S
C508 C507 1.349 . S
C508 C520 1.349 . S
C509 C507 1.327 . S
C509 C525 1.429 . S
C509 H531 0.950 . S
C510 H506 0.949 . S
C510 C518 1.574 1_455 S
C510 C526 1.368 . S
H511 C519 0.950 . S
H512 C517 0.950 . S
H513 C518 0.949 . S
H514 C520 0.950 . S
H515 C521 0.950 . S
H516 C522 0.949 . S
C517 H512 0.950 . S
C517 C519 1.327 . S
C517 C523 1.429 . S
C518 C510 1.574 1_655 S
C518 H513 0.949 . S
C518 C524 1.368 . S
C519 C503 1.349 . S
C519 H511 0.950 . S
C519 C517 1.327 . S
C520 C508 1.349 . S
C520 H514 0.950 . S
C520 C521 1.327 . S
C521 H515 0.950 . S
C521 C520 1.327 . S
C521 C525 1.429 . S
C522 C505 1.574 1_455 S
C522 H516 0.949 . S
C522 C526 1.368 . S
C523 C504 1.429 . S
C523 C517 1.429 . S
C523 C524 1.523 . S
C524 C505 1.368 . S
C524 C518 1.368 . S
C524 C523 1.523 . S
C525 C509 1.429 . S
C525 C521 1.429 . S
C525 C526 1.523 . S
C526 C510 1.368 . S
C526 C522 1.368 . S
C526 C525 1.523 . S
H527 C502 0.950 . S
H528 C504 0.950 . S
H529 C505 0.949 . S
H530 C507 0.950 . S
H531 C509 0.950 . S
C532 C533 1.349 . S
C532 C534 1.327 . S
C532 H557 0.950 . S
C533 C532 1.349 . S
C533 C549 1.349 . S
C534 C532 1.327 . S
C534 C553 1.429 . S
C534 H558 0.950 . S
C535 C552 1.574 1_545 S
C535 C554 1.368 . S
C535 H559 0.949 . S
H536 C540 0.949 . S
C537 C538 1.349 . S
C537 C539 1.327 . S
C537 H560 0.950 . S
C538 C537 1.349 . S
C538 C550 1.349 . S
C539 C537 1.327 . S
C539 C555 1.429 . S
C539 H561 0.950 . S
C540 H536 0.949 . S
C540 C548 1.574 1_565 S
C540 C556 1.368 . S
H541 C549 0.950 . S
H542 C547 0.950 . S
H543 C548 0.949 . S
H544 C550 0.950 . S
H545 C551 0.950 . S
H546 C552 0.949 . S
C547 H542 0.950 . S
C547 C549 1.327 . S
C547 C553 1.429 . S
C548 C540 1.574 1_545 S
C548 H543 0.949 . S
C548 C554 1.368 . S
C549 C533 1.349 . S
C549 H541 0.950 . S
C549 C547 1.327 . S
C550 C538 1.349 . S
C550 H544 0.950 . S
C550 C551 1.327 . S
C551 H545 0.950 . S
C551 C550 1.327 . S
C551 C555 1.429 . S
C552 C535 1.574 1_565 S
C552 H546 0.949 . S
C552 C556 1.368 . S
C553 C534 1.429 . S
C553 C547 1.429 . S
C553 C554 1.523 . S
C554 C535 1.368 . S
C554 C548 1.368 . S
C554 C553 1.523 . S
C555 C539 1.429 . S
C555 C551 1.429 . S
C555 C556 1.523 . S
C556 C540 1.368 . S
C556 C552 1.368 . S
C556 C555 1.523 . S
H557 C532 0.950 . S
H558 C534 0.950 . S
H559 C535 0.949 . S
H560 C537 0.950 . S
H561 C539 0.950 . S
C562 C563 1.349 . S
C562 C564 1.327 . S
C562 H587 0.950 . S
C563 C562 1.349 . S
C563 C579 1.349 . S
C564 C562 1.327 . S
C564 C583 1.429 . S
C564 H588 0.950 . S
C565 C582 1.574 . S
C565 C584 1.368 . S
C565 H589 0.949 . S
H566 C570 0.949 . S
C567 C568 1.349 . S
C567 C569 1.327 . S
C567 H590 0.950 . S
C568 C567 1.349 . S
C568 C580 1.349 . S
C569 C567 1.327 . S
C569 C585 1.429 . S
C569 H591 0.950 . S
C570 H566 0.949 . S
C570 C578 1.574 . S
C570 C586 1.368 . S
H571 C579 0.950 . S
H572 C577 0.950 . S
H573 C578 0.949 . S
H574 C580 0.950 . S
H575 C581 0.950 . S
H576 C582 0.949 . S
C577 H572 0.950 . S
C577 C579 1.327 . S
C577 C583 1.429 . S
C578 C570 1.574 . S
C578 H573 0.949 . S
C578 C584 1.368 1_565 S
C579 C563 1.349 . S
C579 H571 0.950 . S
C579 C577 1.327 . S
C580 C568 1.349 . S
C580 H574 0.950 . S
C580 C581 1.327 . S
C581 H575 0.950 . S
C581 C580 1.327 . S
C581 C585 1.429 . S
C582 C565 1.574 . S
C582 H576 0.949 . S
C582 C586 1.368 1_545 S
C583 C564 1.429 . S
C583 C577 1.429 . S
C583 C584 1.523 . S
C584 C565 1.368 . S
C584 C578 1.368 1_545 S
C584 C583 1.523 . S
C585 C569 1.429 . S
C585 C581 1.429 . S
C585 C586 1.523 . S
C586 C570 1.368 . S
C586 C582 1.368 1_565 S
C586 C585 1.523 . S
H587 C562 0.950 . S
H588 C564 0.950 . S
H589 C565 0.949 . S
H590 C567 0.950 . S
H591 C569 0.950 . S
C113 C13 1.270 . S
C118 C83 1.270 . S
C143 C27 1.270 . S
C148 C97 1.270 . S
C173 C41 1.270 . S
C178 C111 1.270 . S
C203 C69 1.270 . S
C208 C55 1.270 . S
C233 C11 1.419 . S
C238 C63 1.394 . S
C263 C25 1.419 . S
C268 C77 1.394 . S
C293 C91 1.394 . S
C298 C39 1.419 . S
C323 C53 1.419 . S
C328 C105 1.394 . S
C353 C67 1.419 . S
C358 C7 1.394 . S
C383 C21 1.394 . S
C388 C81 1.419 . S
C413 C95 1.419 . S
C418 C35 1.394 . S
C443 C49 1.394 . S
C448 C109 1.419 . S
C473 C36 0.621 . S
C478 C8 0.621 . S
C503 C50 0.621 . S
C508 C22 0.621 . S
C533 C64 0.621 . S
C538 C92 0.621 . S
C563 C78 0.621 . S
C568 C106 0.621 . S
