# Generated by pormake.
# Topology sxc, (6)-cn, num edge types: 1
# Building blocks:
#     Node 0, Type 0, BuildingBlock: KUMBOL_clean_sbu_1, # of connection points: 6
#     Node 1, Type 0, BuildingBlock: KUMBOL_clean_sbu_1, # of connection points: 6
#     Node 2, Type 0, BuildingBlock: KUMBOL_clean_sbu_1, # of connection points: 6
#     Edge 3, Type (0, 0), BuildingBlock: XIVTED_clean_linker_0, # of connection points: 2
#     Edge 4, Type (0, 0), BuildingBlock: XIVTED_clean_linker_0, # of connection points: 2
#     Edge 5, Type (0, 0), BuildingBlock: XIVTED_clean_linker_0, # of connection points: 2
#     Edge 6, Type (0, 0), BuildingBlock: XIVTED_clean_linker_0, # of connection points: 2
#     Edge 7, Type (0, 0), BuildingBlock: XIVTED_clean_linker_0, # of connection points: 2
#     Edge 8, Type (0, 0), BuildingBlock: XIVTED_clean_linker_0, # of connection points: 2
#     Edge 9, Type (0, 0), BuildingBlock: XIVTED_clean_linker_0, # of connection points: 2
#     Edge 10, Type (0, 0), BuildingBlock: XIVTED_clean_linker_0, # of connection points: 2
#     Edge 11, Type (0, 0), BuildingBlock: XIVTED_clean_linker_0, # of connection points: 2
# Relax obj value: 0.258
# Max RMSD: 0.158
# Mean RMSD: 0.116
data_MOF--net-sxc--node1-KUMBOL_clean_sbu_1--edge1-XIVTED_clean_linker_0
_symmetry_space_group_name_H-M    P1
_symmetry_Int_Tables_number       1
_symmetry_cell_setting            triclinic
loop_
_symmetry_equiv_pos_as_xyz
'x, y, z'
_cell_length_a     15.599734
_cell_length_b     16.66886
_cell_length_c     45.236585
_cell_angle_alpha  109.68984
_cell_angle_beta   98.448348
_cell_angle_gamma 98.045585
loop_
_atom_site_label
_atom_site_type_symbol
_atom_site_fract_x
_atom_site_fract_y
_atom_site_fract_z
_atom_type_partial_charge
C0 C 0.35007 0.10673 0.01964 0.0
C1 C 0.44273 0.1062 0.98092 0.0
C2 C 0.37317 0.13488 -0.00435 0.0
C3 C 0.486 1.04656 0.98966 0.0
C4 C 0.39617 1.04998 0.02949 0.0
C5 C 0.46285 1.01862 0.0139 0.0
N6 N 0.28472 0.13746 0.03422 0.0
C7 C 0.26853 0.12145 0.0608 0.0
C8 C 0.3752 1.02805 0.05524 0.0
C9 C 0.31193 1.06486 0.07122 0.0
Gd10 Gd 0.97159 0.1648 0.98115 0.0
Gd11 Gd 0.22025 0.23621 0.01643 0.0
N12 N 0.33192 0.1946 0.98829 0.0
C13 C 0.46901 0.14071 0.95865 0.0
C14 C 0.36103 0.23222 0.96805 0.0
C15 C 0.4287 0.20475 0.95251 0.0
H16 H 0.33376 0.28498 0.96434 0.0
H17 H 0.45082 0.2341 0.93622 0.0
H18 H 0.86411 0.138 0.03869 0.0
H19 H 0.22083 0.15115 0.07344 0.0
H20 H 0.75206 0.19992 0.06683 0.0
H21 H 0.52232 0.12054 0.94691 0.0
H22 H 0.53914 1.02345 0.97843 0.0
H23 H 0.97965 0.24548 0.92323 0.0
H24 H 0.40899 0.9845 0.06346 0.0
H25 H 0.29708 1.05018 0.09169 0.0
H26 H 0.6664 0.39755 0.0175 0.0
H27 H 0.49835 0.97429 0.02091 0.0
H28 H 0.79638 0.41655 0.92993 0.0
H29 H 0.90754 0.34543 0.90298 0.0
N30 N 0.91403 0.26481 0.96225 0.0
C31 C 0.84956 0.29932 0.97641 0.0
C32 C 0.93244 0.27769 0.93539 0.0
C33 C 0.82831 0.37341 0.93903 0.0
C34 C 0.89127 0.33362 0.9238 0.0
C35 C 0.80584 0.35566 0.96539 0.0
H36 H 0.70706 0.43581 0.97277 0.0
N37 N 0.86669 0.21925 0.0109 0.0
C38 C 0.82672 0.27744 0.0018 0.0
C39 C 0.73428 0.28526 0.0408 0.0
C40 C 0.75954 0.31203 0.01662 0.0
C41 C 0.83865 0.18956 0.03331 0.0
C42 C 0.77341 0.2232 0.04893 0.0
O43 O 0.16734 1.08191 0.00206 0.0
O44 O 1.01478 1.04934 -0.00533 0.0
O45 O 0.83781 1.0893 0.96437 0.0
O46 O 0.92585 1.079 0.93118 0.0
O47 O 0.1824 0.24336 0.96735 0.0
O48 O 0.0713 0.12666 0.95031 0.0
O49 O 1.02773 0.31925 -0.00374 0.0
O50 O 0.17912 0.34827 0.00049 0.0
O51 O 0.35141 0.31623 0.03729 0.0
O52 O 0.25203 0.3249 0.06623 0.0
O53 O 1.00879 0.15075 0.02896 0.0
O54 O 0.11657 0.26899 0.0459 0.0
C55 C 0.09245 1.02398 -0.00221 0.0
C56 C 0.12615 0.18162 0.94372 0.0
C57 C 0.82214 0.95162 0.92357 0.0
C58 C 0.74184 0.82122 0.92815 0.0
C59 C 0.82532 0.80838 0.88607 0.0
C60 C 0.85036 0.899 0.89684 0.0
C61 C 0.77184 0.76943 0.90176 0.0
C62 C 0.76697 0.91202 0.93876 0.0
C63 C 0.84991 1.04736 0.93581 0.0
C64 C 0.71783 0.37019 0.00629 0.0
C65 C 0.74082 0.39185 0.98074 0.0
H66 H 0.68284 0.31019 0.05267 0.0
C67 C 0.10241 0.37557 -0.00108 0.0
C68 C 1.0663 0.2109 0.05252 0.0
C69 C 0.34952 0.45571 0.07394 0.0
C70 C 0.41446 0.58579 0.06527 0.0
C71 C 0.33329 0.59847 0.10796 0.0
C72 C 0.31777 0.50818 0.09973 0.0
C73 C 0.38097 0.63728 0.09072 0.0
C74 C 0.3982 0.49532 0.05704 0.0
C75 C 0.3296 0.35995 0.0639 0.0
H76 H 0.84773 0.76821 0.86559 0.0
H77 H 0.89211 0.92777 0.88439 0.0
H78 H 0.75332 0.69912 0.89313 0.0
H79 H 0.74503 0.95181 0.9595 0.0
H80 H 0.30815 0.63846 0.12771 0.0
H81 H 0.28022 0.47936 0.11327 0.0
H82 H 0.39267 0.70733 0.09752 0.0
H83 H 0.42216 0.45559 0.03684 0.0
C84 C 0.3429 0.45143 0.37428 0.0
C85 C 0.33332 0.54968 0.34527 0.0
C86 C 0.29387 0.4804 0.3532 0.0
C87 C 0.42326 0.58796 0.35827 0.0
C88 C 0.43252 0.49102 0.38803 0.0
C89 C 0.47274 0.55868 0.37959 0.0
N90 N 0.30258 0.38472 0.38151 0.0
C91 C 0.34548 0.35961 0.40441 0.0
C92 C 0.47864 0.46199 0.41012 0.0
C93 C 0.43457 0.39677 0.41864 0.0
Gd94 Gd 0.11123 1.07357 0.31201 0.0
Gd95 Gd 0.15412 0.32522 0.35542 0.0
N96 N 0.20705 0.44231 0.34111 0.0
C97 C 0.28083 0.57902 0.32478 0.0
C98 C 0.15495 0.47186 0.32181 0.0
C99 C 0.19108 0.54035 0.3132 0.0
H100 H 0.08518 0.44306 0.31341 0.0
H101 H 0.14966 0.56349 0.29777 0.0
H102 H 0.13327 0.98311 0.36874 0.0
H103 H 0.31153 0.30958 0.41111 0.0
H104 H 1.03754 0.89286 0.38914 0.0
H105 H 0.30862 0.63218 0.31812 0.0
H106 H 0.45491 0.64092 0.3523 0.0
H107 H 0.98037 1.09127 0.24951 0.0
H108 H 0.54769 0.49055 0.42115 0.0
H109 H 0.46916 0.37516 0.43618 0.0
H110 H 0.75183 0.82943 0.32091 0.0
H111 H 0.54177 0.58947 0.38969 0.0
H112 H 0.72135 0.94458 0.23705 0.0
H113 H 0.82514 1.03869 0.22022 0.0
N114 N 0.96409 1.03127 0.28342 0.0
C115 C 0.90922 0.9763 0.2922 0.0
C116 C 0.93553 1.05204 0.25749 0.0
C117 C 0.78948 0.96785 0.25008 0.0
C118 C 0.84772 1.02138 0.24062 0.0
C119 C 0.81991 0.94446 0.2761 0.0
H120 H 0.69482 0.86645 0.27459 0.0
N121 N 1.02844 0.98647 0.33348 0.0
C122 C 0.94187 0.9547 0.31829 0.0
C123 C 0.9201 0.88046 0.35497 0.0
C124 C 0.88536 0.90129 0.32883 0.0
C125 C 1.06352 0.96301 0.35808 0.0
C126 C 1.00973 0.91054 0.36941 0.0
O127 O 0.27626 0.27443 0.33871 0.0
O128 O 0.25812 0.12912 0.33265 0.0
O129 O 0.11849 0.99645 0.2632 0.0
O130 O 0.15244 0.95001 0.30171 0.0
O131 O 0.0924 0.28089 0.30242 0.0
O132 O 0.14914 0.1577 0.28373 0.0
O133 O 0.99859 0.13613 0.33273 0.0
O134 O 1.01421 0.26709 0.32631 0.0
O135 O 0.10724 0.44405 0.37696 0.0
O136 O 0.12419 0.35721 0.40286 0.0
O137 O 0.19063 0.11744 0.36273 0.0
O138 O 0.12394 0.23148 0.38071 0.0
C139 C 0.30821 0.20286 0.33525 0.0
C140 C 0.11615 0.22188 0.27907 0.0
C141 C 1.06608 0.84765 0.25246 0.0
C142 C 0.95449 0.7302 0.25321 0.0
C143 C 0.96658 0.74904 0.20295 0.0
C144 C 1.03663 0.82059 0.2191 0.0
C145 C 0.92473 0.70455 0.21994 0.0
C146 C 1.02571 0.80081 0.26898 0.0
C147 C 0.13136 0.92957 0.27073 0.0
C148 C 0.79617 0.87029 0.31303 0.0
C149 C 0.7637 0.8913 0.28661 0.0
H150 H 0.87835 0.84049 0.36391 0.0
C151 C 0.96411 0.20183 0.32972 0.0
C152 C 0.17003 0.17677 0.38653 0.0
C153 C 0.99727 0.42078 0.40596 0.0
C154 C 0.86054 0.47452 0.39934 0.0
C155 C 0.86159 0.34928 0.41502 0.0
C156 C 0.95176 0.35531 0.41441 0.0
C157 C 0.8155 0.40766 0.40692 0.0
C158 C 0.95146 0.48124 0.3994 0.0
C159 C 0.08927 0.42241 0.4009 0.0
H160 H 0.94369 0.72894 0.17728 0.0
H161 H 1.06628 0.85591 0.20572 0.0
H162 H 0.86993 0.65012 0.20714 0.0
H163 H 1.04708 0.82192 0.29474 0.0
H164 H 0.82678 0.29754 0.42082 0.0
H165 H 0.98489 0.30736 0.41967 0.0
H166 H 0.74494 0.39988 0.40604 0.0
H167 H 0.98556 0.53064 0.39218 0.0
C168 C 0.28671 0.91991 0.63077 0.0
C169 C 0.285 0.83563 0.66531 0.0
C170 C 0.25052 0.89548 0.65356 0.0
C171 C 0.357 0.80205 0.65431 0.0
C172 C 0.35807 0.88525 0.61931 0.0
C173 C 0.39341 0.82678 0.63138 0.0
N174 N 0.25289 0.97863 0.62015 0.0
C175 C 0.2825 1.00003 0.59635 0.0
C176 C 0.39183 0.9105 0.59605 0.0
C177 C 0.35329 0.96749 0.58431 0.0
Gd178 Gd 0.1889 0.27973 0.6833 0.0
Gd179 Gd 0.13294 1.02705 0.6413 0.0
N180 N 0.18073 0.92886 0.66377 0.0
C181 C 0.24547 0.81054 0.68755 0.0
C182 C 0.14034 0.90269 0.68474 0.0
C183 C 0.17249 0.84378 0.69712 0.0
H184 H 0.08195 0.92547 0.6914 0.0
H185 H 0.14042 0.8234 0.71381 0.0
H186 H 0.23985 0.3782 0.63223 0.0
H187 H 0.25193 1.04238 0.58673 0.0
H188 H 0.18177 0.4794 0.60928 0.0
H189 H 0.26991 0.76457 0.69708 0.0
H190 H 0.38458 0.75633 0.66319 0.0
H191 H 0.0707 0.26784 0.73837 0.0
H192 H 0.44681 0.88556 0.58672 0.0
H193 H 0.37779 0.98603 0.56588 0.0
H194 H 0.93858 0.55013 0.66 0.0
H195 H 0.44859 0.79992 0.623 0.0
H196 H 0.87667 0.42541 0.73772 0.0
H197 H 0.94537 0.32581 0.75917 0.0
N198 N 0.07 0.33037 0.70457 0.0
C199 C 1.03633 0.38854 0.69359 0.0
C200 C 1.04043 0.3101 0.7286 0.0
C201 C 0.93151 0.39993 0.72848 0.0
C202 C 0.96989 0.34344 0.74056 0.0
C203 C 0.96517 0.42389 0.70494 0.0
H204 H 0.87474 0.50892 0.70069 0.0
N205 N 0.14181 0.37732 0.66036 0.0
C206 C 0.07235 0.41154 0.6705 0.0
C207 C 0.07731 0.49434 0.63578 0.0
C208 C 1.03797 0.47071 0.65833 0.0
C209 C 0.18196 0.40197 0.63902 0.0
C210 C 0.14995 0.46025 0.62626 0.0
O211 O 0.2804 1.09047 0.66425 0.0
O212 O 0.30274 0.22779 0.6623 0.0
O213 O 0.26382 0.41215 0.70297 0.0
O214 O 0.2675 0.33199 0.73191 0.0
O215 O 0.1007 1.07262 0.69069 0.0
O216 O 0.20849 0.19596 0.71338 0.0
O217 O 1.04101 0.21681 0.66121 0.0
O218 O 1.01805 1.07793 0.66192 0.0
O219 O 1.05794 0.89474 0.62172 0.0
O220 O 1.05785 0.97317 0.59213 0.0
O221 O 0.22122 0.23272 0.63398 0.0
O222 O 0.11073 0.11203 0.61181 0.0
C223 C 0.33386 0.16001 0.66456 0.0
C224 C 0.15144 0.13463 0.71622 0.0
C225 C 0.40162 0.42492 0.73574 0.0
C226 C 0.53775 0.4894 0.7246 0.0
C227 C 0.54439 0.40873 0.76037 0.0
C228 C 0.45212 0.39323 0.75609 0.0
C229 C 0.58719 0.45593 0.7445 0.0
C230 C 0.44531 0.47393 0.72053 0.0
C231 C 0.30378 0.40322 0.72872 0.0
C232 C 0.96615 0.50498 0.66922 0.0
C233 C 0.92986 0.48162 0.69244 0.0
H234 H 1.05293 0.53973 0.62592 0.0
C235 C 0.98752 0.14685 0.66057 0.0
C236 C 0.16859 0.17207 0.60864 0.0
C237 C 0.92371 0.87665 0.58603 0.0
C238 C 0.78559 0.80267 0.59275 0.0
C239 C 0.7823 0.88714 0.55827 0.0
C240 C 0.87484 0.90776 0.56508 0.0
C241 C 0.73764 0.83548 0.57224 0.0
C242 C 0.87834 0.82306 0.59927 0.0
C243 C 1.02134 0.90178 0.59516 0.0
H244 H 0.58278 0.38344 0.77583 0.0
H245 H 0.42035 0.35538 0.76826 0.0
H246 H 0.65866 0.4669 0.74799 0.0
H247 H 0.40707 0.49787 0.7045 0.0
H248 H 0.74508 0.91189 0.54234 0.0
H249 H 0.90795 0.94879 0.55428 0.0
H250 H 0.66595 0.82076 0.5669 0.0
H251 H 0.91528 0.79929 0.61567 0.0
H252 H 0.96263 0.47196 0.00191 0.0
H253 H 0.23402 0.93 -0.00332 0.0
H254 H 0.23752 0.51022 -0.00262 0.0
H255 H 0.95716 0.88799 -0.0018 0.0
H256 H 0.23736 0.78286 -0.00234 0.0
H257 H 0.95955 0.61894 0.00086 0.0
C258 C 1.02275 0.50954 0.00027 0.0
C259 C 0.0999 0.47224 -0.00096 0.0
C260 C 0.17536 0.80498 -0.00212 0.0
C261 C 0.09754 0.65165 -0.0013 0.0
C262 C 0.17343 0.89145 -0.00245 0.0
C263 C 0.09551 0.92757 -0.00215 0.0
C264 C 0.09845 0.74843 -0.00163 0.0
C265 C 1.02008 0.86771 -0.00188 0.0
C266 C 1.02104 0.59601 -5e-05 0.0
C267 C 0.17506 0.53127 -0.00192 0.0
N268 N 1.02373 0.78439 -0.00157 0.0
N269 N 0.17171 0.61478 -0.00209 0.0
H270 H 0.43149 0.32658 0.3268 0.0
H271 H 0.84592 1.09325 0.34667 0.0
H272 H 0.40995 1.08475 0.34293 0.0
H273 H 0.85932 0.31181 0.31583 0.0
H274 H 0.68931 1.09321 0.34779 0.0
H275 H 0.5879 0.32625 0.32487 0.0
C276 C 0.45945 0.27368 0.33025 0.0
C277 C 0.4059 0.20559 0.33506 0.0
C278 C 0.7261 0.14105 0.34061 0.0
C279 C 0.58826 0.20557 0.33336 0.0
C280 C 0.81616 0.14093 0.33981 0.0
C281 C 0.86724 0.20193 0.33072 0.0
C282 C 0.68515 0.20312 0.33248 0.0
C283 C 0.82368 0.263 0.32284 0.0
C284 C 0.54949 0.27357 0.32913 0.0
C285 C 0.44737 0.13874 0.33905 0.0
N286 N 0.73599 0.26172 0.3238 0.0
N287 N 0.53517 0.14068 0.33826 0.0
H288 H 0.64806 0.83478 0.62325 0.0
H289 H 0.66818 0.44949 0.69088 0.0
H290 H 0.82266 0.6539 0.59968 0.0
H291 H 0.50309 0.63853 0.7175 0.0
H292 H 0.72564 0.52269 0.65702 0.0
H293 H 0.58839 0.75857 0.6558 0.0
C294 C 0.6728 0.77821 0.62455 0.0
C295 C 0.74065 0.7508 0.60896 0.0
C296 C 0.67696 0.54822 0.67034 0.0
C297 C 0.67439 0.66457 0.6466 0.0
C298 C 0.64493 0.50702 0.6899 0.0
C299 C 0.58054 0.53784 0.70685 0.0
C300 C 0.64413 0.62052 0.66774 0.0
C301 C 0.5518 0.61196 0.70444 0.0
C302 C 0.6395 0.73529 0.64339 0.0
C303 C 0.77115 0.67777 0.61172 0.0
N304 N 0.58348 0.65051 0.68513 0.0
N305 N 0.73814 0.63744 0.63034 0.0
H306 H 0.89062 0.26334 0.64806 0.0
H307 H 0.43098 1.04414 0.67748 0.0
H308 H 0.85994 1.03277 0.67179 0.0
H309 H 0.46155 0.27441 0.65355 0.0
H310 H 0.58637 1.03894 0.6755 0.0
H311 H 0.73542 0.26893 0.65027 0.0
C312 C 0.85182 0.21409 0.654 0.0
C313 C 0.89041 0.14841 0.66033 0.0
C314 C 0.55934 1.09068 0.67064 0.0
C315 C 0.70915 0.15321 0.66213 0.0
C316 C 0.46981 1.09341 0.67155 0.0
C317 C 0.43111 0.1588 0.66505 0.0
C318 C 0.61254 0.15445 0.66351 0.0
C319 C 0.48713 0.22213 0.65851 0.0
C320 C 0.76237 0.21704 0.65504 0.0
C321 C 0.8344 1.08516 0.66691 0.0
N322 N 0.5741 0.21822 0.65785 0.0
N323 N 0.74751 1.08928 0.66768 0.0
H324 H 0.59353 0.86745 0.94885 0.0
H325 H 0.56696 0.54795 0.04653 0.0
H326 H 0.76765 0.68746 0.94821 0.0
H327 H 0.37731 0.71056 0.0412 0.0
H328 H 0.64333 0.60166 0.01156 0.0
H329 H 0.51391 0.81249 0.98302 0.0
C330 C 0.61459 0.81593 0.95578 0.0
C331 C 0.68734 0.78195 0.94579 0.0
C332 C 0.58519 0.6259 0.01806 0.0
C333 C 0.59697 0.71914 0.98491 0.0
C334 C 0.54157 0.59526 0.03803 0.0
C335 C 0.4655 0.62464 0.04662 0.0
C336 C 0.5528 0.6867 0.00665 0.0
C337 C 0.43621 0.68689 0.03535 0.0
C338 C 0.56916 0.78463 0.97526 0.0
C339 C 0.7114 0.71478 0.95513 0.0
N340 N 0.47983 0.71571 0.01581 0.0
N341 N 0.6666 0.68591 0.97436 0.0
H342 H 0.894 0.65113 0.42004 0.0
H343 H 0.77578 0.67618 0.24924 0.0
H344 H 0.72515 0.42286 0.34722 0.0
H345 H 1.03483 0.68889 0.30204 0.0
H346 H 0.70935 0.62895 0.28862 0.0
H347 H 0.88531 0.72582 0.3822 0.0
C348 C 0.85046 0.61847 0.39665 0.0
C349 C 0.8136 0.52955 0.38601 0.0
C350 C 0.7806 0.64289 0.29134 0.0
C351 C 0.80337 0.61407 0.34286 0.0
C352 C 0.81846 0.66822 0.26878 0.0
C353 C 0.91109 0.68791 0.27271 0.0
C354 C 0.83632 0.63988 0.31805 0.0
C355 C 0.96336 0.67709 0.29854 0.0
C356 C 0.84584 0.66098 0.37497 0.0
C357 C 0.75705 0.49042 0.35569 0.0
N358 N 0.92531 0.6551 0.32042 0.0
N359 N 0.7564 0.53177 0.33442 0.0
H360 H 0.07299 0.35389 0.25904 0.0
H361 H 0.12586 0.3562 0.10745 0.0
H362 H 0.13295 1.09791 0.22328 0.0
H363 H 1.01399 1.08194 0.07487 0.0
H364 H 0.13527 0.36529 0.16313 0.0
H365 H 1.05857 0.35779 0.20491 0.0
C366 C 0.08394 0.29885 0.24005 0.0
C367 C 0.10591 0.22623 0.24621 0.0
C368 C 0.10754 0.30338 0.14381 0.0
C369 C 0.08784 0.22956 0.1837 0.0
C370 C 0.10272 0.29796 0.11199 0.0
C371 C 1.06848 0.21824 0.08639 0.0
C372 C 0.07951 0.22816 0.15023 0.0
C373 C 1.03988 0.14489 0.09382 0.0
C374 C 0.07579 0.30119 0.20904 0.0
C375 C 0.11711 0.15596 0.22004 0.0
N376 N 1.04711 0.15137 0.12501 0.0
N377 N 0.10725 0.15912 0.19004 0.0
H378 H 0.31243 0.15851 0.42576 0.0
H379 H 0.30774 0.24615 0.58923 0.0
H380 H 1.0369 0.17204 0.41896 0.0
H381 H 1.04018 1.09757 0.55336 0.0
H382 H 0.31509 0.24169 0.53484 0.0
H383 H 0.31903 0.15636 0.48033 0.0
C384 C 0.25331 0.16032 0.43569 0.0
C385 C 0.17431 0.16645 0.41805 0.0
C386 C 0.25511 0.20938 0.53883 0.0
C387 C 0.1811 0.16438 0.48025 0.0
C388 C 0.25045 0.2128 0.56995 0.0
C389 C 0.17316 0.17225 0.57595 0.0
C390 C 0.18137 0.16633 0.5135 0.0
C391 C 0.10119 0.12953 0.54991 0.0
C392 C 0.25727 0.16014 0.46691 0.0
C393 C 0.09948 0.1687 0.432 0.0
N394 N 0.10668 0.12862 0.51999 0.0
N395 N 0.10452 0.1671 0.4621 0.0
H396 H 1.02716 1.03418 0.73341 0.0
H397 H 1.04132 1.04221 0.88936 0.0
H398 H 0.26176 0.23734 0.77416 0.0
H399 H 0.2186 0.29132 0.91995 0.0
H400 H 1.04425 1.02259 0.83383 0.0
H401 H 1.01636 1.0392 0.78711 0.0
C402 C 0.07749 1.07883 0.75361 0.0
C403 C 0.14618 0.13448 0.74895 0.0
C404 C 0.08161 1.08235 0.8524 0.0
C405 C 0.13501 0.14042 0.81137 0.0
C406 C 0.08048 1.09331 0.88441 0.0
C407 C 0.12958 0.16874 0.90961 0.0
C408 C 0.1318 0.14769 0.84516 0.0
C409 C 0.17996 0.23188 0.90145 0.0
C410 C 0.07153 1.08158 0.78455 0.0
C411 C 0.20785 0.19268 0.77637 0.0
N412 N 0.17975 0.21992 0.87005 0.0
N413 N 0.20068 0.19417 0.80623 0.0
loop_
_geom_bond_atom_site_label_1
_geom_bond_atom_site_label_2
_geom_bond_distance
_geom_bond_site_symmetry_2
_ccdc_geom_bond_type
C0 C2 1.422 . S
C0 C4 1.415 . S
C0 N6 1.369 . S
C1 C2 1.421 . S
C1 C3 1.417 . S
C1 C13 1.422 1_544 S
C2 C0 1.422 . S
C2 C1 1.421 . S
C2 N12 1.359 . S
C3 C1 1.417 . S
C3 C5 1.329 . S
C3 H22 0.930 1_545 S
C4 C0 1.415 . S
C4 C5 1.437 . S
C4 C8 1.413 . S
C5 C3 1.329 . S
C5 C4 1.437 . S
C5 H27 0.929 . S
N6 C0 1.369 . S
N6 C7 1.338 . S
N6 Gd11 2.622 . S
C7 N6 1.338 . S
C7 C9 1.378 . S
C7 H19 0.929 . S
C8 C4 1.413 . S
C8 C9 1.348 . S
C8 H24 0.931 . S
C9 C7 1.378 . S
C9 C8 1.348 . S
C9 H25 0.930 . S
Gd10 N30 2.622 . S
Gd10 N37 2.570 1_556 S
Gd10 O44 2.353 1_545 S
Gd10 O45 2.468 1_546 S
Gd10 O46 2.427 1_545 S
Gd10 O48 2.388 . S
Gd10 O49 2.386 . S
Gd10 O53 2.307 1_556 S
Gd10 C63 2.805 1_545 S
Gd11 N6 2.622 . S
Gd11 N12 2.570 . S
Gd11 O43 2.386 . S
Gd11 O47 2.307 1_554 S
Gd11 O50 2.353 . S
Gd11 O51 2.490 . S
Gd11 O52 2.427 . S
Gd11 O54 2.388 . S
Gd11 C75 2.805 . S
N12 C2 1.359 . S
N12 Gd11 2.570 . S
N12 C14 1.343 1_554 S
C13 C1 1.422 1_566 S
C13 C15 1.319 1_565 S
C13 H21 0.933 . S
C14 N12 1.343 1_556 S
C14 C15 1.390 . S
C14 H16 0.931 . S
C15 C13 1.319 1_545 S
C15 C14 1.390 . S
C15 H17 0.930 . S
H16 C14 0.931 . S
H17 C15 0.930 . S
H18 C41 0.931 . S
H19 C7 0.929 . S
H20 C42 0.930 . S
H21 C13 0.933 . S
H22 C3 0.930 1_565 S
H23 C32 0.929 . S
H24 C8 0.931 . S
H25 C9 0.930 . S
H26 C64 0.930 . S
H27 C5 0.929 . S
H28 C33 0.931 . S
H29 C34 0.930 . S
N30 Gd10 2.622 . S
N30 C31 1.369 . S
N30 C32 1.338 . S
C31 N30 1.369 . S
C31 C35 1.415 . S
C31 C38 1.422 . S
C32 H23 0.929 . S
C32 N30 1.338 . S
C32 C34 1.378 . S
C33 H28 0.931 . S
C33 C34 1.348 . S
C33 C35 1.413 . S
C34 H29 0.930 . S
C34 C32 1.378 . S
C34 C33 1.348 . S
C35 C31 1.415 . S
C35 C33 1.413 . S
C35 C65 1.437 . S
H36 C65 0.929 . S
N37 Gd10 2.570 1_554 S
N37 C38 1.359 1_554 S
N37 C41 1.343 . S
C38 C31 1.422 . S
C38 N37 1.359 1_556 S
C38 C40 1.428 . S
C39 C40 1.391 1_554 S
C39 C42 1.321 . S
C39 H66 0.931 . S
C40 C38 1.428 . S
C40 C39 1.391 1_556 S
C40 C64 1.442 . S
C41 H18 0.931 . S
C41 N37 1.343 . S
C41 C42 1.390 . S
C42 H20 0.930 . S
C42 C39 1.321 . S
C42 C41 1.390 . S
O43 Gd11 2.386 . S
O43 C55 1.272 1_545 S
O44 Gd10 2.353 1_565 S
O44 C55 1.235 1_656 S
O45 Gd10 2.468 1_564 S
O45 C63 1.263 1_554 S
O46 Gd10 2.427 1_565 S
O46 C63 1.252 . S
O47 Gd11 2.307 1_556 S
O47 C56 1.261 . S
O48 Gd10 2.388 . S
O48 C56 1.252 1_655 S
O49 Gd10 2.386 . S
O49 C67 1.265 1_556 S
O50 Gd11 2.353 . S
O50 C67 1.242 1_455 S
O51 Gd11 2.490 . S
O51 C75 1.284 . S
O52 Gd11 2.427 . S
O52 C75 1.252 . S
O53 Gd10 2.307 1_554 S
O53 C68 1.261 . S
O54 Gd11 2.388 . S
O54 C68 1.252 1_455 S
C55 O43 1.272 1_565 S
C55 O44 1.235 1_454 S
C56 O47 1.261 . S
C56 O48 1.252 1_455 S
C57 C60 1.394 . S
C57 C62 1.370 1_556 S
C57 C63 1.500 . S
C58 C61 1.383 1_554 S
C58 C62 1.395 . S
C59 C60 1.396 . S
C59 C61 1.365 . S
C59 H76 0.929 . S
C60 C57 1.394 . S
C60 C59 1.396 . S
C60 H77 0.930 . S
C61 C58 1.383 1_556 S
C61 C59 1.365 . S
C61 H78 0.931 . S
C62 C57 1.370 1_554 S
C62 C58 1.395 . S
C62 H79 0.930 . S
C63 Gd10 2.805 1_565 S
C63 O45 1.263 1_556 S
C63 O46 1.252 . S
C63 C57 1.500 . S
C64 H26 0.930 . S
C64 C40 1.442 . S
C64 C65 1.329 . S
C65 C35 1.437 . S
C65 H36 0.929 . S
C65 C64 1.329 . S
H66 C39 0.931 . S
C67 O49 1.265 1_554 S
C67 O50 1.242 1_655 S
C68 O53 1.261 . S
C68 O54 1.252 1_655 S
C69 C72 1.394 . S
C69 C74 1.370 . S
C69 C75 1.500 . S
C70 C73 1.383 . S
C70 C74 1.395 . S
C71 C72 1.396 . S
C71 C73 1.365 . S
C71 H80 0.929 . S
C72 C69 1.394 . S
C72 C71 1.396 . S
C72 H81 0.930 . S
C73 C70 1.383 . S
C73 C71 1.365 . S
C73 H82 0.931 . S
C74 C69 1.370 . S
C74 C70 1.395 . S
C74 H83 0.930 1_554 S
C75 Gd11 2.805 . S
C75 O51 1.284 . S
C75 O52 1.252 . S
C75 C69 1.500 . S
H76 C59 0.929 . S
H77 C60 0.930 . S
H78 C61 0.931 . S
H79 C62 0.930 . S
H80 C71 0.929 . S
H81 C72 0.930 . S
H82 C73 0.931 . S
H83 C74 0.930 1_556 S
C84 C86 1.422 . S
C84 C88 1.415 . S
C84 N90 1.369 . S
C85 C86 1.421 . S
C85 C87 1.417 . S
C85 C97 1.422 . S
C86 C84 1.422 . S
C86 C85 1.421 . S
C86 N96 1.359 . S
C87 C85 1.417 . S
C87 C89 1.329 . S
C87 H106 0.930 . S
C88 C84 1.415 . S
C88 C89 1.437 . S
C88 C92 1.413 . S
C89 C87 1.329 . S
C89 C88 1.437 . S
C89 H111 0.929 . S
N90 C84 1.369 . S
N90 C91 1.338 . S
N90 Gd95 2.622 . S
C91 N90 1.338 . S
C91 C93 1.378 . S
C91 H103 0.929 . S
C92 C88 1.413 . S
C92 C93 1.348 . S
C92 H108 0.931 . S
C93 C91 1.378 . S
C93 C92 1.348 . S
C93 H109 0.930 . S
Gd94 N114 2.622 1_545 S
Gd94 N121 2.570 1_545 S
Gd94 O128 2.353 1_655 S
Gd94 O129 2.468 1_645 S
Gd94 O130 2.427 1_645 S
Gd94 O132 2.388 1_655 S
Gd94 O133 2.386 . S
Gd94 O137 2.306 . S
Gd94 C147 2.805 1_645 S
Gd95 N90 2.622 . S
Gd95 N96 2.570 . S
Gd95 O127 2.386 . S
Gd95 O131 2.307 . S
Gd95 O134 2.353 1_455 S
Gd95 O135 2.468 . S
Gd95 O136 2.427 . S
Gd95 O138 2.388 . S
Gd95 C159 2.805 . S
N96 C86 1.359 . S
N96 Gd95 2.570 . S
N96 C98 1.343 . S
C97 C85 1.422 . S
C97 C99 1.321 . S
C97 H105 0.931 . S
C98 N96 1.343 . S
C98 C99 1.390 . S
C98 H100 0.931 . S
C99 C97 1.321 . S
C99 C98 1.390 . S
C99 H101 0.930 . S
H100 C98 0.931 . S
H101 C99 0.930 . S
H102 C125 0.931 . S
H103 C91 0.929 . S
H104 C126 0.930 . S
H105 C97 0.931 . S
H106 C87 0.930 . S
H107 C116 0.929 . S
H108 C92 0.931 . S
H109 C93 0.930 . S
H110 C148 0.930 . S
H111 C89 0.929 . S
H112 C117 0.931 . S
H113 C118 0.930 . S
N114 Gd94 2.622 1_565 S
N114 C115 1.369 . S
N114 C116 1.338 . S
C115 N114 1.369 . S
C115 C119 1.415 . S
C115 C122 1.422 . S
C116 H107 0.929 . S
C116 N114 1.338 . S
C116 C118 1.378 . S
C117 H112 0.931 . S
C117 C118 1.348 . S
C117 C119 1.413 . S
C118 H113 0.930 . S
C118 C116 1.378 . S
C118 C117 1.348 . S
C119 C115 1.415 . S
C119 C117 1.413 . S
C119 C149 1.437 . S
H120 C149 0.929 . S
N121 Gd94 2.570 1_565 S
N121 C122 1.359 . S
N121 C125 1.343 . S
C122 C115 1.422 . S
C122 N121 1.359 . S
C122 C124 1.421 . S
C123 C124 1.422 . S
C123 C126 1.321 . S
C123 H150 0.931 . S
C124 C122 1.421 . S
C124 C123 1.422 . S
C124 C148 1.417 . S
C125 H102 0.931 . S
C125 N121 1.343 . S
C125 C126 1.390 . S
C126 H104 0.930 . S
C126 C123 1.321 . S
C126 C125 1.390 . S
O127 Gd95 2.386 . S
O127 C139 1.265 . S
O128 Gd94 2.353 1_455 S
O128 C139 1.242 . S
O129 Gd94 2.468 1_465 S
O129 C147 1.263 . S
O130 Gd94 2.427 1_465 S
O130 C147 1.252 . S
O131 Gd95 2.307 . S
O131 C140 1.261 . S
O132 Gd94 2.388 1_455 S
O132 C140 1.252 . S
O133 Gd94 2.386 . S
O133 C151 1.265 . S
O134 Gd95 2.353 1_655 S
O134 C151 1.242 . S
O135 Gd95 2.468 . S
O135 C159 1.263 . S
O136 Gd95 2.427 . S
O136 C159 1.252 . S
O137 Gd94 2.306 . S
O137 C152 1.261 1_655 S
O138 Gd95 2.388 . S
O138 C152 1.252 . S
C139 O127 1.265 . S
C139 O128 1.242 . S
C140 O131 1.261 . S
C140 O132 1.252 . S
C141 C144 1.394 . S
C141 C146 1.370 . S
C141 C147 1.500 . S
C142 C145 1.383 . S
C142 C146 1.395 . S
C143 C144 1.396 . S
C143 C145 1.365 . S
C143 H160 0.929 . S
C144 C141 1.394 . S
C144 C143 1.396 . S
C144 H161 0.930 . S
C145 C142 1.383 . S
C145 C143 1.365 . S
C145 H162 0.931 . S
C146 C141 1.370 . S
C146 C142 1.395 . S
C146 H163 0.930 . S
C147 Gd94 2.805 1_465 S
C147 O129 1.263 . S
C147 O130 1.252 . S
C147 C141 1.500 . S
C148 H110 0.930 . S
C148 C124 1.417 . S
C148 C149 1.329 . S
C149 C119 1.437 . S
C149 H120 0.929 . S
C149 C148 1.329 . S
H150 C123 0.931 . S
C151 O133 1.265 . S
C151 O134 1.242 . S
C152 O137 1.261 1_455 S
C152 O138 1.252 . S
C153 C156 1.394 . S
C153 C158 1.370 1_455 S
C153 C159 1.500 . S
C154 C157 1.383 . S
C154 C158 1.395 . S
C155 C156 1.396 . S
C155 C157 1.365 1_455 S
C155 H164 0.930 . S
C156 C153 1.394 . S
C156 C155 1.396 . S
C156 H165 0.930 . S
C157 C154 1.383 . S
C157 C155 1.365 1_655 S
C157 H166 0.931 . S
C158 C153 1.370 1_655 S
C158 C154 1.395 . S
C158 H167 0.930 . S
C159 Gd95 2.805 . S
C159 O135 1.263 . S
C159 O136 1.252 . S
C159 C153 1.500 . S
H160 C143 0.929 . S
H161 C144 0.930 . S
H162 C145 0.931 . S
H163 C146 0.930 . S
H164 C155 0.930 . S
H165 C156 0.930 . S
H166 C157 0.931 . S
H167 C158 0.930 . S
C168 C170 1.422 . S
C168 C172 1.415 . S
C168 N174 1.369 . S
C169 C170 1.421 . S
C169 C171 1.417 . S
C169 C181 1.422 . S
C170 C168 1.422 . S
C170 C169 1.421 . S
C170 N180 1.359 . S
C171 C169 1.417 . S
C171 C173 1.329 . S
C171 H190 0.930 . S
C172 C168 1.415 . S
C172 C173 1.437 . S
C172 C176 1.413 . S
C173 C171 1.329 . S
C173 C172 1.437 . S
C173 H195 0.929 . S
N174 C168 1.369 . S
N174 C175 1.338 . S
N174 Gd179 2.622 . S
C175 N174 1.338 . S
C175 C177 1.378 . S
C175 H187 0.929 . S
C176 C172 1.413 . S
C176 C177 1.348 . S
C176 H192 0.931 . S
C177 C175 1.378 . S
C177 C176 1.348 . S
C177 H193 0.930 . S
Gd178 N198 2.622 . S
Gd178 N205 2.570 . S
Gd178 O212 2.353 . S
Gd178 O213 2.468 . S
Gd178 O214 2.427 . S
Gd178 O216 2.388 . S
Gd178 O217 2.386 1_455 S
Gd178 O221 2.307 . S
Gd178 C231 2.805 . S
Gd179 N174 2.622 . S
Gd179 N180 2.570 . S
Gd179 O211 2.386 . S
Gd179 O215 2.307 . S
Gd179 O218 2.353 1_455 S
Gd179 O219 2.468 1_455 S
Gd179 O220 2.427 1_455 S
Gd179 O222 2.388 . S
Gd179 C243 2.805 1_455 S
N180 C170 1.359 . S
N180 Gd179 2.570 . S
N180 C182 1.343 . S
C181 C169 1.422 . S
C181 C183 1.321 . S
C181 H189 0.931 . S
C182 N180 1.343 . S
C182 C183 1.390 . S
C182 H184 0.931 . S
C183 C181 1.321 . S
C183 C182 1.390 . S
C183 H185 0.930 . S
H184 C182 0.931 . S
H185 C183 0.930 . S
H186 C209 0.931 . S
H187 C175 0.929 . S
H188 C210 0.930 . S
H189 C181 0.931 . S
H190 C171 0.930 . S
H191 C200 0.929 . S
H192 C176 0.931 . S
H193 C177 0.930 . S
H194 C232 0.930 . S
H195 C173 0.929 . S
H196 C201 0.931 . S
H197 C202 0.930 . S
N198 Gd178 2.622 . S
N198 C199 1.369 . S
N198 C200 1.338 . S
C199 N198 1.369 . S
C199 C203 1.415 . S
C199 C206 1.422 . S
C200 H191 0.929 . S
C200 N198 1.338 . S
C200 C202 1.378 . S
C201 H196 0.931 . S
C201 C202 1.348 . S
C201 C203 1.413 . S
C202 H197 0.930 . S
C202 C200 1.378 . S
C202 C201 1.348 . S
C203 C199 1.415 . S
C203 C201 1.413 . S
C203 C233 1.437 1_455 S
H204 C233 0.929 . S
N205 Gd178 2.570 . S
N205 C206 1.359 . S
N205 C209 1.343 . S
C206 C199 1.422 . S
C206 N205 1.359 . S
C206 C208 1.421 1_455 S
C207 C208 1.422 . S
C207 C210 1.321 . S
C207 H234 0.931 . S
C208 C206 1.421 1_655 S
C208 C207 1.422 . S
C208 C232 1.417 . S
C209 H186 0.931 . S
C209 N205 1.343 . S
C209 C210 1.390 1_455 S
C210 H188 0.930 . S
C210 C207 1.321 . S
C210 C209 1.390 1_655 S
O211 Gd179 2.386 . S
O211 C223 1.265 1_565 S
O212 Gd178 2.353 . S
O212 C223 1.242 . S
O213 Gd178 2.468 . S
O213 C231 1.263 . S
O214 Gd178 2.427 . S
O214 C231 1.252 . S
O215 Gd179 2.307 . S
O215 C224 1.261 1_565 S
O216 Gd178 2.388 . S
O216 C224 1.252 . S
O217 Gd178 2.386 1_655 S
O217 C235 1.265 . S
O218 Gd179 2.353 1_655 S
O218 C235 1.242 1_565 S
O219 Gd179 2.468 1_655 S
O219 C243 1.263 . S
O220 Gd179 2.427 1_655 S
O220 C243 1.252 . S
O221 Gd178 2.307 . S
O221 C236 1.261 . S
O222 Gd179 2.388 . S
O222 C236 1.252 1_565 S
C223 O211 1.265 1_545 S
C223 O212 1.242 . S
C224 O215 1.261 1_545 S
C224 O216 1.252 . S
C225 C228 1.394 . S
C225 C230 1.370 . S
C225 C231 1.500 . S
C226 C229 1.383 . S
C226 C230 1.395 . S
C227 C228 1.396 . S
C227 C229 1.365 . S
C227 H244 0.929 . S
C228 C225 1.394 . S
C228 C227 1.396 . S
C228 H245 0.930 . S
C229 C226 1.383 . S
C229 C227 1.365 . S
C229 H246 0.931 . S
C230 C225 1.370 . S
C230 C226 1.395 . S
C230 H247 0.930 . S
C231 Gd178 2.805 . S
C231 O213 1.263 . S
C231 O214 1.252 . S
C231 C225 1.500 . S
C232 H194 0.930 . S
C232 C208 1.417 . S
C232 C233 1.329 . S
C233 C203 1.437 1_655 S
C233 H204 0.929 . S
C233 C232 1.329 . S
H234 C207 0.931 . S
C235 O217 1.265 . S
C235 O218 1.242 1_545 S
C236 O221 1.261 . S
C236 O222 1.252 1_545 S
C237 C240 1.394 . S
C237 C242 1.370 . S
C237 C243 1.500 . S
C238 C241 1.383 . S
C238 C242 1.395 . S
C239 C240 1.396 . S
C239 C241 1.365 . S
C239 H248 0.929 . S
C240 C237 1.394 . S
C240 C239 1.396 . S
C240 H249 0.930 . S
C241 C238 1.383 . S
C241 C239 1.365 . S
C241 H250 0.931 . S
C242 C237 1.370 . S
C242 C238 1.395 . S
C242 H251 0.930 . S
C243 Gd179 2.805 1_655 S
C243 O219 1.263 . S
C243 O220 1.252 . S
C243 C237 1.500 . S
H244 C227 0.929 . S
H245 C228 0.930 . S
H246 C229 0.931 . S
H247 C230 0.930 . S
H248 C239 0.929 . S
H249 C240 0.930 . S
H250 C241 0.931 . S
H251 C242 0.930 . S
H252 C258 0.930 . S
H253 C262 0.930 . S
H254 C267 0.929 . S
H255 C265 0.929 . S
H256 C260 0.930 . S
H257 C266 0.929 . S
C258 H252 0.930 . S
C258 C259 1.367 . S
C258 C266 1.378 . S
C259 C258 1.367 . S
C259 C267 1.433 1_655 S
C260 H256 0.930 . S
C260 C262 1.388 . S
C260 C264 1.339 1_556 S
C261 C264 1.463 1_655 S
C261 C266 1.350 . S
C261 N269 1.427 1_655 S
C262 H253 0.930 . S
C262 C260 1.388 . S
C262 C263 1.367 1_556 S
C263 C262 1.367 1_554 S
C263 C265 1.433 1_455 S
C264 C260 1.339 1_554 S
C264 C261 1.463 1_455 S
C264 N268 1.427 1_455 S
C265 H255 0.929 . S
C265 C263 1.433 1_655 S
C265 N268 1.384 . S
C266 H257 0.929 . S
C266 C258 1.378 . S
C266 C261 1.350 . S
C267 H254 0.929 . S
C267 C259 1.433 1_455 S
C267 N269 1.384 . S
N268 C264 1.427 1_655 S
N268 C265 1.384 . S
N269 C261 1.427 1_455 S
N269 C267 1.384 . S
H270 C276 0.930 . S
H271 C280 0.930 . S
H272 C285 0.929 . S
H273 C283 0.929 . S
H274 C278 0.929 . S
H275 C284 0.929 . S
C276 H270 0.930 . S
C276 C277 1.367 . S
C276 C284 1.378 . S
C277 C276 1.367 . S
C277 C285 1.433 . S
C278 H274 0.929 . S
C278 C280 1.378 . S
C278 C282 1.350 . S
C279 C282 1.463 . S
C279 C284 1.350 . S
C279 N287 1.427 . S
C280 H271 0.930 . S
C280 C278 1.378 . S
C280 C281 1.367 . S
C281 C280 1.367 . S
C281 C283 1.433 . S
C282 C278 1.350 . S
C282 C279 1.463 . S
C282 N286 1.427 . S
C283 H273 0.929 . S
C283 C281 1.433 . S
C283 N286 1.384 . S
C284 H275 0.929 . S
C284 C276 1.378 . S
C284 C279 1.350 . S
C285 H272 0.929 . S
C285 C277 1.433 . S
C285 N287 1.384 . S
N286 C282 1.427 . S
N286 C283 1.384 . S
N287 C279 1.427 . S
N287 C285 1.384 . S
H288 C294 0.930 . S
H289 C298 0.930 . S
H290 C303 0.929 . S
H291 C301 0.929 . S
H292 C296 0.929 . S
H293 C302 0.929 . S
C294 H288 0.930 . S
C294 C295 1.367 . S
C294 C302 1.378 . S
C295 C294 1.367 . S
C295 C303 1.433 . S
C296 H292 0.929 . S
C296 C298 1.378 . S
C296 C300 1.350 . S
C297 C300 1.463 . S
C297 C302 1.350 . S
C297 N305 1.427 . S
C298 H289 0.930 . S
C298 C296 1.378 . S
C298 C299 1.367 . S
C299 C298 1.367 . S
C299 C301 1.433 . S
C300 C296 1.350 . S
C300 C297 1.463 . S
C300 N304 1.427 . S
C301 H291 0.929 . S
C301 C299 1.433 . S
C301 N304 1.384 . S
C302 H293 0.929 . S
C302 C294 1.378 . S
C302 C297 1.350 . S
C303 H290 0.929 . S
C303 C295 1.433 . S
C303 N305 1.384 . S
N304 C300 1.427 . S
N304 C301 1.384 . S
N305 C297 1.427 . S
N305 C303 1.384 . S
H306 C312 0.930 . S
H307 C316 0.929 . S
H308 C321 0.929 . S
H309 C319 0.929 . S
H310 C314 0.929 1_565 S
H311 C320 0.929 . S
C312 H306 0.930 . S
C312 C313 1.367 . S
C312 C320 1.378 . S
C313 C312 1.367 . S
C313 C321 1.433 . S
C314 H310 0.929 1_545 S
C314 C316 1.378 1_545 S
C314 C318 1.350 . S
C315 C318 1.463 . S
C315 C320 1.350 . S
C315 N323 1.427 . S
C316 H307 0.929 . S
C316 C314 1.378 1_565 S
C316 C317 1.367 1_565 S
C317 C316 1.367 1_545 S
C317 C319 1.433 . S
C318 C314 1.350 . S
C318 C315 1.463 . S
C318 N322 1.427 . S
C319 H309 0.929 . S
C319 C317 1.433 . S
C319 N322 1.384 . S
C320 H311 0.929 . S
C320 C312 1.378 . S
C320 C315 1.350 . S
C321 H308 0.929 . S
C321 C313 1.433 . S
C321 N323 1.384 . S
N322 C318 1.427 . S
N322 C319 1.384 . S
N323 C315 1.427 . S
N323 C321 1.384 . S
H324 C330 0.930 . S
H325 C334 0.930 . S
H326 C339 0.929 . S
H327 C337 0.929 . S
H328 C332 0.929 . S
H329 C338 0.929 . S
C330 H324 0.930 . S
C330 C331 1.367 1_556 S
C330 C338 1.378 . S
C331 C330 1.367 1_554 S
C331 C339 1.433 . S
C332 H328 0.929 . S
C332 C334 1.378 . S
C332 C336 1.350 . S
C333 C336 1.463 . S
C333 C338 1.350 1_554 S
C333 N341 1.427 . S
C334 H325 0.930 . S
C334 C332 1.378 . S
C334 C335 1.367 1_554 S
C335 C334 1.367 1_556 S
C335 C337 1.433 . S
C336 C332 1.350 . S
C336 C333 1.463 . S
C336 N340 1.427 1_554 S
C337 H327 0.929 . S
C337 C335 1.433 . S
C337 N340 1.384 . S
C338 H329 0.929 . S
C338 C330 1.378 . S
C338 C333 1.350 1_556 S
C339 H326 0.929 . S
C339 C331 1.433 . S
C339 N341 1.384 . S
N340 C336 1.427 1_556 S
N340 C337 1.384 . S
N341 C333 1.427 . S
N341 C339 1.384 . S
H342 C348 0.930 1_455 S
H343 C352 0.930 . S
H344 C357 0.929 . S
H345 C355 0.929 . S
H346 C350 0.929 1_655 S
H347 C356 0.929 . S
C348 H342 0.930 1_655 S
C348 C349 1.367 . S
C348 C356 1.378 1_655 S
C349 C348 1.367 . S
C349 C357 1.433 . S
C350 H346 0.929 1_455 S
C350 C352 1.378 . S
C350 C354 1.350 . S
C351 C354 1.463 . S
C351 C356 1.350 . S
C351 N359 1.427 1_455 S
C352 H343 0.930 . S
C352 C350 1.378 . S
C352 C353 1.367 . S
C353 C352 1.367 . S
C353 C355 1.433 . S
C354 C350 1.350 . S
C354 C351 1.463 . S
C354 N358 1.427 . S
C355 H345 0.929 . S
C355 C353 1.433 . S
C355 N358 1.384 . S
C356 H347 0.929 . S
C356 C348 1.378 1_455 S
C356 C351 1.350 . S
C357 H344 0.929 . S
C357 C349 1.433 . S
C357 N359 1.384 . S
N358 C354 1.427 . S
N358 C355 1.384 . S
N359 C351 1.427 1_655 S
N359 C357 1.384 . S
H360 C366 0.930 . S
H361 C370 0.930 . S
H362 C375 0.929 . S
H363 C373 0.929 . S
H364 C368 0.929 . S
H365 C374 0.929 . S
C366 H360 0.930 . S
C366 C367 1.367 1_655 S
C366 C374 1.378 . S
C367 C366 1.367 1_455 S
C367 C375 1.433 . S
C368 H364 0.929 . S
C368 C370 1.378 . S
C368 C372 1.346 1_455 S
C369 C372 1.465 1_455 S
C369 C374 1.346 1_455 S
C369 N377 1.431 . S
C370 H361 0.930 . S
C370 C368 1.378 . S
C370 C371 1.367 1_455 S
C371 C370 1.367 1_655 S
C371 C373 1.433 . S
C372 C368 1.346 1_655 S
C372 C369 1.465 1_655 S
C372 N376 1.431 . S
C373 H363 0.929 . S
C373 C371 1.433 . S
C373 N376 1.384 . S
C374 H365 0.929 . S
C374 C366 1.378 . S
C374 C369 1.346 1_655 S
C375 H362 0.929 . S
C375 C367 1.433 . S
C375 N377 1.384 . S
N376 C372 1.431 . S
N376 C373 1.384 . S
N377 C369 1.431 . S
N377 C375 1.384 . S
H378 C384 0.930 1_565 S
H379 C388 0.930 . S
H380 C393 0.929 . S
H381 C391 0.929 . S
H382 C386 0.929 . S
H383 C392 0.929 1_565 S
C384 H378 0.930 1_545 S
C384 C385 1.367 . S
C384 C392 1.378 . S
C385 C384 1.367 . S
C385 C393 1.433 . S
C386 H382 0.929 . S
C386 C388 1.378 . S
C386 C390 1.350 . S
C387 C390 1.463 . S
C387 C392 1.350 . S
C387 N395 1.427 . S
C388 H379 0.930 . S
C388 C386 1.378 . S
C388 C389 1.367 . S
C389 C388 1.367 . S
C389 C391 1.433 1_545 S
C390 C386 1.350 . S
C390 C387 1.463 . S
C390 N394 1.427 1_545 S
C391 H381 0.929 . S
C391 C389 1.433 1_565 S
C391 N394 1.384 . S
C392 H383 0.929 1_545 S
C392 C384 1.378 . S
C392 C387 1.350 . S
C393 H380 0.929 . S
C393 C385 1.433 . S
C393 N395 1.384 . S
N394 C390 1.427 1_565 S
N394 C391 1.384 . S
N395 C387 1.427 . S
N395 C393 1.384 . S
H396 C402 0.930 . S
H397 C406 0.930 1_565 S
H398 C411 0.929 . S
H399 C409 0.929 1_655 S
H400 C404 0.929 . S
H401 C410 0.929 . S
C402 H396 0.930 . S
C402 C403 1.367 . S
C402 C410 1.378 . S
C403 C402 1.367 . S
C403 C411 1.433 1_545 S
C404 H400 0.929 . S
C404 C406 1.378 1_565 S
C404 C408 1.350 1_565 S
C405 C408 1.463 . S
C405 C410 1.350 . S
C405 N413 1.427 1_545 S
C406 H397 0.930 1_545 S
C406 C404 1.378 1_545 S
C406 C407 1.367 . S
C407 C406 1.367 . S
C407 C409 1.433 . S
C408 C404 1.350 1_545 S
C408 C405 1.463 . S
C408 N412 1.427 . S
C409 H399 0.929 1_455 S
C409 C407 1.433 . S
C409 N412 1.384 . S
C410 H401 0.929 . S
C410 C402 1.378 . S
C410 C405 1.350 . S
C411 H398 0.929 . S
C411 C403 1.433 1_565 S
C411 N413 1.384 . S
N412 C408 1.427 . S
N412 C409 1.384 . S
N413 C405 1.427 1_565 S
N413 C411 1.384 . S
C259 C67 4.299 . S
C263 C55 4.311 . S
C277 C139 2.618 . S
C281 C151 2.618 . S
C295 C238 0.656 . S
C299 C226 0.656 . S
C313 C235 2.582 . S
C317 C223 2.582 . S
C331 C58 0.767 . S
C335 C70 0.767 1_556 S
C349 C154 1.195 . S
C353 C142 1.195 . S
C367 C140 1.515 . S
C371 C68 1.526 . S
C385 C152 1.600 . S
C389 C236 1.576 . S
C403 C224 1.562 . S
C407 C56 1.572 . S
