# Generated by pormake.
# Topology gie, (4)-cn, num edge types: 1
# Building blocks:
#     Node 0, Type 0, BuildingBlock: CEKHIL_clean_sbu_0, # of connection points: 4
#     Node 1, Type 0, BuildingBlock: CEKHIL_clean_sbu_0, # of connection points: 4
#     Node 2, Type 0, BuildingBlock: CEKHIL_clean_sbu_0, # of connection points: 4
#     Node 3, Type 0, BuildingBlock: CEKHIL_clean_sbu_0, # of connection points: 4
#     Node 4, Type 0, BuildingBlock: CEKHIL_clean_sbu_0, # of connection points: 4
#     Node 5, Type 0, BuildingBlock: CEKHIL_clean_sbu_0, # of connection points: 4
#     Node 6, Type 0, BuildingBlock: CEKHIL_clean_sbu_0, # of connection points: 4
#     Node 7, Type 0, BuildingBlock: CEKHIL_clean_sbu_0, # of connection points: 4
#     Node 8, Type 0, BuildingBlock: CEKHIL_clean_sbu_0, # of connection points: 4
#     Node 9, Type 0, BuildingBlock: CEKHIL_clean_sbu_0, # of connection points: 4
#     Node 10, Type 0, BuildingBlock: CEKHIL_clean_sbu_0, # of connection points: 4
#     Node 11, Type 0, BuildingBlock: CEKHIL_clean_sbu_0, # of connection points: 4
#     Node 12, Type 0, BuildingBlock: CEKHIL_clean_sbu_0, # of connection points: 4
#     Node 13, Type 0, BuildingBlock: CEKHIL_clean_sbu_0, # of connection points: 4
#     Node 14, Type 0, BuildingBlock: CEKHIL_clean_sbu_0, # of connection points: 4
#     Node 15, Type 0, BuildingBlock: CEKHIL_clean_sbu_0, # of connection points: 4
#     Node 16, Type 0, BuildingBlock: CEKHIL_clean_sbu_0, # of connection points: 4
#     Node 17, Type 0, BuildingBlock: CEKHIL_clean_sbu_0, # of connection points: 4
#     Node 18, Type 0, BuildingBlock: CEKHIL_clean_sbu_0, # of connection points: 4
#     Node 19, Type 0, BuildingBlock: CEKHIL_clean_sbu_0, # of connection points: 4
#     Node 20, Type 0, BuildingBlock: CEKHIL_clean_sbu_0, # of connection points: 4
#     Node 21, Type 0, BuildingBlock: CEKHIL_clean_sbu_0, # of connection points: 4
#     Node 22, Type 0, BuildingBlock: CEKHIL_clean_sbu_0, # of connection points: 4
#     Node 23, Type 0, BuildingBlock: CEKHIL_clean_sbu_0, # of connection points: 4
#     Node 24, Type 0, BuildingBlock: CEKHIL_clean_sbu_0, # of connection points: 4
#     Node 25, Type 0, BuildingBlock: CEKHIL_clean_sbu_0, # of connection points: 4
#     Node 26, Type 0, BuildingBlock: CEKHIL_clean_sbu_0, # of connection points: 4
#     Node 27, Type 0, BuildingBlock: CEKHIL_clean_sbu_0, # of connection points: 4
#     Node 28, Type 0, BuildingBlock: CEKHIL_clean_sbu_0, # of connection points: 4
#     Node 29, Type 0, BuildingBlock: CEKHIL_clean_sbu_0, # of connection points: 4
#     Node 30, Type 0, BuildingBlock: CEKHIL_clean_sbu_0, # of connection points: 4
#     Node 31, Type 0, BuildingBlock: CEKHIL_clean_sbu_0, # of connection points: 4
#     Node 32, Type 0, BuildingBlock: CEKHIL_clean_sbu_0, # of connection points: 4
#     Node 33, Type 0, BuildingBlock: CEKHIL_clean_sbu_0, # of connection points: 4
#     Node 34, Type 0, BuildingBlock: CEKHIL_clean_sbu_0, # of connection points: 4
#     Node 35, Type 0, BuildingBlock: CEKHIL_clean_sbu_0, # of connection points: 4
#     Node 36, Type 0, BuildingBlock: CEKHIL_clean_sbu_0, # of connection points: 4
#     Node 37, Type 0, BuildingBlock: CEKHIL_clean_sbu_0, # of connection points: 4
#     Node 38, Type 0, BuildingBlock: CEKHIL_clean_sbu_0, # of connection points: 4
#     Node 39, Type 0, BuildingBlock: CEKHIL_clean_sbu_0, # of connection points: 4
#     Node 40, Type 0, BuildingBlock: CEKHIL_clean_sbu_0, # of connection points: 4
#     Node 41, Type 0, BuildingBlock: CEKHIL_clean_sbu_0, # of connection points: 4
#     Node 42, Type 0, BuildingBlock: CEKHIL_clean_sbu_0, # of connection points: 4
#     Node 43, Type 0, BuildingBlock: CEKHIL_clean_sbu_0, # of connection points: 4
#     Node 44, Type 0, BuildingBlock: CEKHIL_clean_sbu_0, # of connection points: 4
#     Node 45, Type 0, BuildingBlock: CEKHIL_clean_sbu_0, # of connection points: 4
#     Node 46, Type 0, BuildingBlock: CEKHIL_clean_sbu_0, # of connection points: 4
#     Node 47, Type 0, BuildingBlock: CEKHIL_clean_sbu_0, # of connection points: 4
#     Node 48, Type 0, BuildingBlock: CEKHIL_clean_sbu_0, # of connection points: 4
#     Node 49, Type 0, BuildingBlock: CEKHIL_clean_sbu_0, # of connection points: 4
#     Node 50, Type 0, BuildingBlock: CEKHIL_clean_sbu_0, # of connection points: 4
#     Node 51, Type 0, BuildingBlock: CEKHIL_clean_sbu_0, # of connection points: 4
#     Node 52, Type 0, BuildingBlock: CEKHIL_clean_sbu_0, # of connection points: 4
#     Node 53, Type 0, BuildingBlock: CEKHIL_clean_sbu_0, # of connection points: 4
#     Node 54, Type 0, BuildingBlock: CEKHIL_clean_sbu_0, # of connection points: 4
#     Node 55, Type 0, BuildingBlock: CEKHIL_clean_sbu_0, # of connection points: 4
#     Node 56, Type 0, BuildingBlock: CEKHIL_clean_sbu_0, # of connection points: 4
#     Node 57, Type 0, BuildingBlock: CEKHIL_clean_sbu_0, # of connection points: 4
#     Node 58, Type 0, BuildingBlock: CEKHIL_clean_sbu_0, # of connection points: 4
#     Node 59, Type 0, BuildingBlock: CEKHIL_clean_sbu_0, # of connection points: 4
#     Node 60, Type 0, BuildingBlock: CEKHIL_clean_sbu_0, # of connection points: 4
#     Node 61, Type 0, BuildingBlock: CEKHIL_clean_sbu_0, # of connection points: 4
#     Node 62, Type 0, BuildingBlock: CEKHIL_clean_sbu_0, # of connection points: 4
#     Node 63, Type 0, BuildingBlock: CEKHIL_clean_sbu_0, # of connection points: 4
#     Node 64, Type 0, BuildingBlock: CEKHIL_clean_sbu_0, # of connection points: 4
#     Node 65, Type 0, BuildingBlock: CEKHIL_clean_sbu_0, # of connection points: 4
#     Node 66, Type 0, BuildingBlock: CEKHIL_clean_sbu_0, # of connection points: 4
#     Node 67, Type 0, BuildingBlock: CEKHIL_clean_sbu_0, # of connection points: 4
#     Node 68, Type 0, BuildingBlock: CEKHIL_clean_sbu_0, # of connection points: 4
#     Node 69, Type 0, BuildingBlock: CEKHIL_clean_sbu_0, # of connection points: 4
#     Node 70, Type 0, BuildingBlock: CEKHIL_clean_sbu_0, # of connection points: 4
#     Node 71, Type 0, BuildingBlock: CEKHIL_clean_sbu_0, # of connection points: 4
#     Node 72, Type 0, BuildingBlock: CEKHIL_clean_sbu_0, # of connection points: 4
#     Node 73, Type 0, BuildingBlock: CEKHIL_clean_sbu_0, # of connection points: 4
#     Node 74, Type 0, BuildingBlock: CEKHIL_clean_sbu_0, # of connection points: 4
#     Node 75, Type 0, BuildingBlock: CEKHIL_clean_sbu_0, # of connection points: 4
#     Node 76, Type 0, BuildingBlock: CEKHIL_clean_sbu_0, # of connection points: 4
#     Node 77, Type 0, BuildingBlock: CEKHIL_clean_sbu_0, # of connection points: 4
#     Node 78, Type 0, BuildingBlock: CEKHIL_clean_sbu_0, # of connection points: 4
#     Node 79, Type 0, BuildingBlock: CEKHIL_clean_sbu_0, # of connection points: 4
#     Node 80, Type 0, BuildingBlock: CEKHIL_clean_sbu_0, # of connection points: 4
#     Node 81, Type 0, BuildingBlock: CEKHIL_clean_sbu_0, # of connection points: 4
#     Node 82, Type 0, BuildingBlock: CEKHIL_clean_sbu_0, # of connection points: 4
#     Node 83, Type 0, BuildingBlock: CEKHIL_clean_sbu_0, # of connection points: 4
#     Node 84, Type 0, BuildingBlock: CEKHIL_clean_sbu_0, # of connection points: 4
#     Node 85, Type 0, BuildingBlock: CEKHIL_clean_sbu_0, # of connection points: 4
#     Node 86, Type 0, BuildingBlock: CEKHIL_clean_sbu_0, # of connection points: 4
#     Node 87, Type 0, BuildingBlock: CEKHIL_clean_sbu_0, # of connection points: 4
#     Node 88, Type 0, BuildingBlock: CEKHIL_clean_sbu_0, # of connection points: 4
#     Node 89, Type 0, BuildingBlock: CEKHIL_clean_sbu_0, # of connection points: 4
#     Node 90, Type 0, BuildingBlock: CEKHIL_clean_sbu_0, # of connection points: 4
#     Node 91, Type 0, BuildingBlock: CEKHIL_clean_sbu_0, # of connection points: 4
#     Node 92, Type 0, BuildingBlock: CEKHIL_clean_sbu_0, # of connection points: 4
#     Node 93, Type 0, BuildingBlock: CEKHIL_clean_sbu_0, # of connection points: 4
#     Node 94, Type 0, BuildingBlock: CEKHIL_clean_sbu_0, # of connection points: 4
#     Node 95, Type 0, BuildingBlock: CEKHIL_clean_sbu_0, # of connection points: 4
#     Edge 96, Type (0, 0), BuildingBlock: XIVTED_clean_linker_0, # of connection points: 2
#     Edge 97, Type (0, 0), BuildingBlock: XIVTED_clean_linker_0, # of connection points: 2
#     Edge 98, Type (0, 0), BuildingBlock: XIVTED_clean_linker_0, # of connection points: 2
#     Edge 99, Type (0, 0), BuildingBlock: XIVTED_clean_linker_0, # of connection points: 2
#     Edge 100, Type (0, 0), BuildingBlock: XIVTED_clean_linker_0, # of connection points: 2
#     Edge 101, Type (0, 0), BuildingBlock: XIVTED_clean_linker_0, # of connection points: 2
#     Edge 102, Type (0, 0), BuildingBlock: XIVTED_clean_linker_0, # of connection points: 2
#     Edge 103, Type (0, 0), BuildingBlock: XIVTED_clean_linker_0, # of connection points: 2
#     Edge 104, Type (0, 0), BuildingBlock: XIVTED_clean_linker_0, # of connection points: 2
#     Edge 105, Type (0, 0), BuildingBlock: XIVTED_clean_linker_0, # of connection points: 2
#     Edge 106, Type (0, 0), BuildingBlock: XIVTED_clean_linker_0, # of connection points: 2
#     Edge 107, Type (0, 0), BuildingBlock: XIVTED_clean_linker_0, # of connection points: 2
#     Edge 108, Type (0, 0), BuildingBlock: XIVTED_clean_linker_0, # of connection points: 2
#     Edge 109, Type (0, 0), BuildingBlock: XIVTED_clean_linker_0, # of connection points: 2
#     Edge 110, Type (0, 0), BuildingBlock: XIVTED_clean_linker_0, # of connection points: 2
#     Edge 111, Type (0, 0), BuildingBlock: XIVTED_clean_linker_0, # of connection points: 2
#     Edge 112, Type (0, 0), BuildingBlock: XIVTED_clean_linker_0, # of connection points: 2
#     Edge 113, Type (0, 0), BuildingBlock: XIVTED_clean_linker_0, # of connection points: 2
#     Edge 114, Type (0, 0), BuildingBlock: XIVTED_clean_linker_0, # of connection points: 2
#     Edge 115, Type (0, 0), BuildingBlock: XIVTED_clean_linker_0, # of connection points: 2
#     Edge 116, Type (0, 0), BuildingBlock: XIVTED_clean_linker_0, # of connection points: 2
#     Edge 117, Type (0, 0), BuildingBlock: XIVTED_clean_linker_0, # of connection points: 2
#     Edge 118, Type (0, 0), BuildingBlock: XIVTED_clean_linker_0, # of connection points: 2
#     Edge 119, Type (0, 0), BuildingBlock: XIVTED_clean_linker_0, # of connection points: 2
#     Edge 120, Type (0, 0), BuildingBlock: XIVTED_clean_linker_0, # of connection points: 2
#     Edge 121, Type (0, 0), BuildingBlock: XIVTED_clean_linker_0, # of connection points: 2
#     Edge 122, Type (0, 0), BuildingBlock: XIVTED_clean_linker_0, # of connection points: 2
#     Edge 123, Type (0, 0), BuildingBlock: XIVTED_clean_linker_0, # of connection points: 2
#     Edge 124, Type (0, 0), BuildingBlock: XIVTED_clean_linker_0, # of connection points: 2
#     Edge 125, Type (0, 0), BuildingBlock: XIVTED_clean_linker_0, # of connection points: 2
#     Edge 126, Type (0, 0), BuildingBlock: XIVTED_clean_linker_0, # of connection points: 2
#     Edge 127, Type (0, 0), BuildingBlock: XIVTED_clean_linker_0, # of connection points: 2
#     Edge 128, Type (0, 0), BuildingBlock: XIVTED_clean_linker_0, # of connection points: 2
#     Edge 129, Type (0, 0), BuildingBlock: XIVTED_clean_linker_0, # of connection points: 2
#     Edge 130, Type (0, 0), BuildingBlock: XIVTED_clean_linker_0, # of connection points: 2
#     Edge 131, Type (0, 0), BuildingBlock: XIVTED_clean_linker_0, # of connection points: 2
#     Edge 132, Type (0, 0), BuildingBlock: XIVTED_clean_linker_0, # of connection points: 2
#     Edge 133, Type (0, 0), BuildingBlock: XIVTED_clean_linker_0, # of connection points: 2
#     Edge 134, Type (0, 0), BuildingBlock: XIVTED_clean_linker_0, # of connection points: 2
#     Edge 135, Type (0, 0), BuildingBlock: XIVTED_clean_linker_0, # of connection points: 2
#     Edge 136, Type (0, 0), BuildingBlock: XIVTED_clean_linker_0, # of connection points: 2
#     Edge 137, Type (0, 0), BuildingBlock: XIVTED_clean_linker_0, # of connection points: 2
#     Edge 138, Type (0, 0), BuildingBlock: XIVTED_clean_linker_0, # of connection points: 2
#     Edge 139, Type (0, 0), BuildingBlock: XIVTED_clean_linker_0, # of connection points: 2
#     Edge 140, Type (0, 0), BuildingBlock: XIVTED_clean_linker_0, # of connection points: 2
#     Edge 141, Type (0, 0), BuildingBlock: XIVTED_clean_linker_0, # of connection points: 2
#     Edge 142, Type (0, 0), BuildingBlock: XIVTED_clean_linker_0, # of connection points: 2
#     Edge 143, Type (0, 0), BuildingBlock: XIVTED_clean_linker_0, # of connection points: 2
#     Edge 144, Type (0, 0), BuildingBlock: XIVTED_clean_linker_0, # of connection points: 2
#     Edge 145, Type (0, 0), BuildingBlock: XIVTED_clean_linker_0, # of connection points: 2
#     Edge 146, Type (0, 0), BuildingBlock: XIVTED_clean_linker_0, # of connection points: 2
#     Edge 147, Type (0, 0), BuildingBlock: XIVTED_clean_linker_0, # of connection points: 2
#     Edge 148, Type (0, 0), BuildingBlock: XIVTED_clean_linker_0, # of connection points: 2
#     Edge 149, Type (0, 0), BuildingBlock: XIVTED_clean_linker_0, # of connection points: 2
#     Edge 150, Type (0, 0), BuildingBlock: XIVTED_clean_linker_0, # of connection points: 2
#     Edge 151, Type (0, 0), BuildingBlock: XIVTED_clean_linker_0, # of connection points: 2
#     Edge 152, Type (0, 0), BuildingBlock: XIVTED_clean_linker_0, # of connection points: 2
#     Edge 153, Type (0, 0), BuildingBlock: XIVTED_clean_linker_0, # of connection points: 2
#     Edge 154, Type (0, 0), BuildingBlock: XIVTED_clean_linker_0, # of connection points: 2
#     Edge 155, Type (0, 0), BuildingBlock: XIVTED_clean_linker_0, # of connection points: 2
#     Edge 156, Type (0, 0), BuildingBlock: XIVTED_clean_linker_0, # of connection points: 2
#     Edge 157, Type (0, 0), BuildingBlock: XIVTED_clean_linker_0, # of connection points: 2
#     Edge 158, Type (0, 0), BuildingBlock: XIVTED_clean_linker_0, # of connection points: 2
#     Edge 159, Type (0, 0), BuildingBlock: XIVTED_clean_linker_0, # of connection points: 2
#     Edge 160, Type (0, 0), BuildingBlock: XIVTED_clean_linker_0, # of connection points: 2
#     Edge 161, Type (0, 0), BuildingBlock: XIVTED_clean_linker_0, # of connection points: 2
#     Edge 162, Type (0, 0), BuildingBlock: XIVTED_clean_linker_0, # of connection points: 2
#     Edge 163, Type (0, 0), BuildingBlock: XIVTED_clean_linker_0, # of connection points: 2
#     Edge 164, Type (0, 0), BuildingBlock: XIVTED_clean_linker_0, # of connection points: 2
#     Edge 165, Type (0, 0), BuildingBlock: XIVTED_clean_linker_0, # of connection points: 2
#     Edge 166, Type (0, 0), BuildingBlock: XIVTED_clean_linker_0, # of connection points: 2
#     Edge 167, Type (0, 0), BuildingBlock: XIVTED_clean_linker_0, # of connection points: 2
#     Edge 168, Type (0, 0), BuildingBlock: XIVTED_clean_linker_0, # of connection points: 2
#     Edge 169, Type (0, 0), BuildingBlock: XIVTED_clean_linker_0, # of connection points: 2
#     Edge 170, Type (0, 0), BuildingBlock: XIVTED_clean_linker_0, # of connection points: 2
#     Edge 171, Type (0, 0), BuildingBlock: XIVTED_clean_linker_0, # of connection points: 2
#     Edge 172, Type (0, 0), BuildingBlock: XIVTED_clean_linker_0, # of connection points: 2
#     Edge 173, Type (0, 0), BuildingBlock: XIVTED_clean_linker_0, # of connection points: 2
#     Edge 174, Type (0, 0), BuildingBlock: XIVTED_clean_linker_0, # of connection points: 2
#     Edge 175, Type (0, 0), BuildingBlock: XIVTED_clean_linker_0, # of connection points: 2
#     Edge 176, Type (0, 0), BuildingBlock: XIVTED_clean_linker_0, # of connection points: 2
#     Edge 177, Type (0, 0), BuildingBlock: XIVTED_clean_linker_0, # of connection points: 2
#     Edge 178, Type (0, 0), BuildingBlock: XIVTED_clean_linker_0, # of connection points: 2
#     Edge 179, Type (0, 0), BuildingBlock: XIVTED_clean_linker_0, # of connection points: 2
#     Edge 180, Type (0, 0), BuildingBlock: XIVTED_clean_linker_0, # of connection points: 2
#     Edge 181, Type (0, 0), BuildingBlock: XIVTED_clean_linker_0, # of connection points: 2
#     Edge 182, Type (0, 0), BuildingBlock: XIVTED_clean_linker_0, # of connection points: 2
#     Edge 183, Type (0, 0), BuildingBlock: XIVTED_clean_linker_0, # of connection points: 2
#     Edge 184, Type (0, 0), BuildingBlock: XIVTED_clean_linker_0, # of connection points: 2
#     Edge 185, Type (0, 0), BuildingBlock: XIVTED_clean_linker_0, # of connection points: 2
#     Edge 186, Type (0, 0), BuildingBlock: XIVTED_clean_linker_0, # of connection points: 2
#     Edge 187, Type (0, 0), BuildingBlock: XIVTED_clean_linker_0, # of connection points: 2
#     Edge 188, Type (0, 0), BuildingBlock: XIVTED_clean_linker_0, # of connection points: 2
#     Edge 189, Type (0, 0), BuildingBlock: XIVTED_clean_linker_0, # of connection points: 2
#     Edge 190, Type (0, 0), BuildingBlock: XIVTED_clean_linker_0, # of connection points: 2
#     Edge 191, Type (0, 0), BuildingBlock: XIVTED_clean_linker_0, # of connection points: 2
#     Edge 192, Type (0, 0), BuildingBlock: XIVTED_clean_linker_0, # of connection points: 2
#     Edge 193, Type (0, 0), BuildingBlock: XIVTED_clean_linker_0, # of connection points: 2
#     Edge 194, Type (0, 0), BuildingBlock: XIVTED_clean_linker_0, # of connection points: 2
#     Edge 195, Type (0, 0), BuildingBlock: XIVTED_clean_linker_0, # of connection points: 2
#     Edge 196, Type (0, 0), BuildingBlock: XIVTED_clean_linker_0, # of connection points: 2
#     Edge 197, Type (0, 0), BuildingBlock: XIVTED_clean_linker_0, # of connection points: 2
#     Edge 198, Type (0, 0), BuildingBlock: XIVTED_clean_linker_0, # of connection points: 2
#     Edge 199, Type (0, 0), BuildingBlock: XIVTED_clean_linker_0, # of connection points: 2
#     Edge 200, Type (0, 0), BuildingBlock: XIVTED_clean_linker_0, # of connection points: 2
#     Edge 201, Type (0, 0), BuildingBlock: XIVTED_clean_linker_0, # of connection points: 2
#     Edge 202, Type (0, 0), BuildingBlock: XIVTED_clean_linker_0, # of connection points: 2
#     Edge 203, Type (0, 0), BuildingBlock: XIVTED_clean_linker_0, # of connection points: 2
#     Edge 204, Type (0, 0), BuildingBlock: XIVTED_clean_linker_0, # of connection points: 2
#     Edge 205, Type (0, 0), BuildingBlock: XIVTED_clean_linker_0, # of connection points: 2
#     Edge 206, Type (0, 0), BuildingBlock: XIVTED_clean_linker_0, # of connection points: 2
#     Edge 207, Type (0, 0), BuildingBlock: XIVTED_clean_linker_0, # of connection points: 2
#     Edge 208, Type (0, 0), BuildingBlock: XIVTED_clean_linker_0, # of connection points: 2
#     Edge 209, Type (0, 0), BuildingBlock: XIVTED_clean_linker_0, # of connection points: 2
#     Edge 210, Type (0, 0), BuildingBlock: XIVTED_clean_linker_0, # of connection points: 2
#     Edge 211, Type (0, 0), BuildingBlock: XIVTED_clean_linker_0, # of connection points: 2
#     Edge 212, Type (0, 0), BuildingBlock: XIVTED_clean_linker_0, # of connection points: 2
#     Edge 213, Type (0, 0), BuildingBlock: XIVTED_clean_linker_0, # of connection points: 2
#     Edge 214, Type (0, 0), BuildingBlock: XIVTED_clean_linker_0, # of connection points: 2
#     Edge 215, Type (0, 0), BuildingBlock: XIVTED_clean_linker_0, # of connection points: 2
#     Edge 216, Type (0, 0), BuildingBlock: XIVTED_clean_linker_0, # of connection points: 2
#     Edge 217, Type (0, 0), BuildingBlock: XIVTED_clean_linker_0, # of connection points: 2
#     Edge 218, Type (0, 0), BuildingBlock: XIVTED_clean_linker_0, # of connection points: 2
#     Edge 219, Type (0, 0), BuildingBlock: XIVTED_clean_linker_0, # of connection points: 2
#     Edge 220, Type (0, 0), BuildingBlock: XIVTED_clean_linker_0, # of connection points: 2
#     Edge 221, Type (0, 0), BuildingBlock: XIVTED_clean_linker_0, # of connection points: 2
#     Edge 222, Type (0, 0), BuildingBlock: XIVTED_clean_linker_0, # of connection points: 2
#     Edge 223, Type (0, 0), BuildingBlock: XIVTED_clean_linker_0, # of connection points: 2
#     Edge 224, Type (0, 0), BuildingBlock: XIVTED_clean_linker_0, # of connection points: 2
#     Edge 225, Type (0, 0), BuildingBlock: XIVTED_clean_linker_0, # of connection points: 2
#     Edge 226, Type (0, 0), BuildingBlock: XIVTED_clean_linker_0, # of connection points: 2
#     Edge 227, Type (0, 0), BuildingBlock: XIVTED_clean_linker_0, # of connection points: 2
#     Edge 228, Type (0, 0), BuildingBlock: XIVTED_clean_linker_0, # of connection points: 2
#     Edge 229, Type (0, 0), BuildingBlock: XIVTED_clean_linker_0, # of connection points: 2
#     Edge 230, Type (0, 0), BuildingBlock: XIVTED_clean_linker_0, # of connection points: 2
#     Edge 231, Type (0, 0), BuildingBlock: XIVTED_clean_linker_0, # of connection points: 2
#     Edge 232, Type (0, 0), BuildingBlock: XIVTED_clean_linker_0, # of connection points: 2
#     Edge 233, Type (0, 0), BuildingBlock: XIVTED_clean_linker_0, # of connection points: 2
#     Edge 234, Type (0, 0), BuildingBlock: XIVTED_clean_linker_0, # of connection points: 2
#     Edge 235, Type (0, 0), BuildingBlock: XIVTED_clean_linker_0, # of connection points: 2
#     Edge 236, Type (0, 0), BuildingBlock: XIVTED_clean_linker_0, # of connection points: 2
#     Edge 237, Type (0, 0), BuildingBlock: XIVTED_clean_linker_0, # of connection points: 2
#     Edge 238, Type (0, 0), BuildingBlock: XIVTED_clean_linker_0, # of connection points: 2
#     Edge 239, Type (0, 0), BuildingBlock: XIVTED_clean_linker_0, # of connection points: 2
#     Edge 240, Type (0, 0), BuildingBlock: XIVTED_clean_linker_0, # of connection points: 2
#     Edge 241, Type (0, 0), BuildingBlock: XIVTED_clean_linker_0, # of connection points: 2
#     Edge 242, Type (0, 0), BuildingBlock: XIVTED_clean_linker_0, # of connection points: 2
#     Edge 243, Type (0, 0), BuildingBlock: XIVTED_clean_linker_0, # of connection points: 2
#     Edge 244, Type (0, 0), BuildingBlock: XIVTED_clean_linker_0, # of connection points: 2
#     Edge 245, Type (0, 0), BuildingBlock: XIVTED_clean_linker_0, # of connection points: 2
#     Edge 246, Type (0, 0), BuildingBlock: XIVTED_clean_linker_0, # of connection points: 2
#     Edge 247, Type (0, 0), BuildingBlock: XIVTED_clean_linker_0, # of connection points: 2
#     Edge 248, Type (0, 0), BuildingBlock: XIVTED_clean_linker_0, # of connection points: 2
#     Edge 249, Type (0, 0), BuildingBlock: XIVTED_clean_linker_0, # of connection points: 2
#     Edge 250, Type (0, 0), BuildingBlock: XIVTED_clean_linker_0, # of connection points: 2
#     Edge 251, Type (0, 0), BuildingBlock: XIVTED_clean_linker_0, # of connection points: 2
#     Edge 252, Type (0, 0), BuildingBlock: XIVTED_clean_linker_0, # of connection points: 2
#     Edge 253, Type (0, 0), BuildingBlock: XIVTED_clean_linker_0, # of connection points: 2
#     Edge 254, Type (0, 0), BuildingBlock: XIVTED_clean_linker_0, # of connection points: 2
#     Edge 255, Type (0, 0), BuildingBlock: XIVTED_clean_linker_0, # of connection points: 2
#     Edge 256, Type (0, 0), BuildingBlock: XIVTED_clean_linker_0, # of connection points: 2
#     Edge 257, Type (0, 0), BuildingBlock: XIVTED_clean_linker_0, # of connection points: 2
#     Edge 258, Type (0, 0), BuildingBlock: XIVTED_clean_linker_0, # of connection points: 2
#     Edge 259, Type (0, 0), BuildingBlock: XIVTED_clean_linker_0, # of connection points: 2
#     Edge 260, Type (0, 0), BuildingBlock: XIVTED_clean_linker_0, # of connection points: 2
#     Edge 261, Type (0, 0), BuildingBlock: XIVTED_clean_linker_0, # of connection points: 2
#     Edge 262, Type (0, 0), BuildingBlock: XIVTED_clean_linker_0, # of connection points: 2
#     Edge 263, Type (0, 0), BuildingBlock: XIVTED_clean_linker_0, # of connection points: 2
#     Edge 264, Type (0, 0), BuildingBlock: XIVTED_clean_linker_0, # of connection points: 2
#     Edge 265, Type (0, 0), BuildingBlock: XIVTED_clean_linker_0, # of connection points: 2
#     Edge 266, Type (0, 0), BuildingBlock: XIVTED_clean_linker_0, # of connection points: 2
#     Edge 267, Type (0, 0), BuildingBlock: XIVTED_clean_linker_0, # of connection points: 2
#     Edge 268, Type (0, 0), BuildingBlock: XIVTED_clean_linker_0, # of connection points: 2
#     Edge 269, Type (0, 0), BuildingBlock: XIVTED_clean_linker_0, # of connection points: 2
#     Edge 270, Type (0, 0), BuildingBlock: XIVTED_clean_linker_0, # of connection points: 2
#     Edge 271, Type (0, 0), BuildingBlock: XIVTED_clean_linker_0, # of connection points: 2
#     Edge 272, Type (0, 0), BuildingBlock: XIVTED_clean_linker_0, # of connection points: 2
#     Edge 273, Type (0, 0), BuildingBlock: XIVTED_clean_linker_0, # of connection points: 2
#     Edge 274, Type (0, 0), BuildingBlock: XIVTED_clean_linker_0, # of connection points: 2
#     Edge 275, Type (0, 0), BuildingBlock: XIVTED_clean_linker_0, # of connection points: 2
#     Edge 276, Type (0, 0), BuildingBlock: XIVTED_clean_linker_0, # of connection points: 2
#     Edge 277, Type (0, 0), BuildingBlock: XIVTED_clean_linker_0, # of connection points: 2
#     Edge 278, Type (0, 0), BuildingBlock: XIVTED_clean_linker_0, # of connection points: 2
#     Edge 279, Type (0, 0), BuildingBlock: XIVTED_clean_linker_0, # of connection points: 2
#     Edge 280, Type (0, 0), BuildingBlock: XIVTED_clean_linker_0, # of connection points: 2
#     Edge 281, Type (0, 0), BuildingBlock: XIVTED_clean_linker_0, # of connection points: 2
#     Edge 282, Type (0, 0), BuildingBlock: XIVTED_clean_linker_0, # of connection points: 2
#     Edge 283, Type (0, 0), BuildingBlock: XIVTED_clean_linker_0, # of connection points: 2
#     Edge 284, Type (0, 0), BuildingBlock: XIVTED_clean_linker_0, # of connection points: 2
#     Edge 285, Type (0, 0), BuildingBlock: XIVTED_clean_linker_0, # of connection points: 2
#     Edge 286, Type (0, 0), BuildingBlock: XIVTED_clean_linker_0, # of connection points: 2
#     Edge 287, Type (0, 0), BuildingBlock: XIVTED_clean_linker_0, # of connection points: 2
# Relax obj value: 0.129
# Max RMSD: 0.218
# Mean RMSD: 0.209
data_MOF--net-gie--node1-CEKHIL_clean_sbu_0--edge1-XIVTED_clean_linker_0
_symmetry_space_group_name_H-M    P1
_symmetry_Int_Tables_number       1
_symmetry_cell_setting            triclinic
loop_
_symmetry_equiv_pos_as_xyz
'x, y, z'
_cell_length_a     85.472581
_cell_length_b     84.879008
_cell_length_c     84.806714
_cell_angle_alpha  90.000743
_cell_angle_beta   90.004036
_cell_angle_gamma 89.991402
loop_
_atom_site_label
_atom_site_type_symbol
_atom_site_fract_x
_atom_site_fract_y
_atom_site_fract_z
_atom_type_partial_charge
Co0 Co 0.99282 0.13461 0.40399 0.0
O1 O 0.97941 0.11879 0.41277 0.0
O2 O 0.98223 0.12373 0.3872 0.0
C3 C 0.01423 0.12907 0.41804 0.0
O4 O 0.00607 0.14936 0.39065 0.0
Co5 Co 0.00484 0.1619 0.42487 0.0
O6 O 0.0206 0.16339 0.40771 0.0
C7 C 0.97269 0.16315 0.41288 0.0
C8 C 0.97588 0.1153 0.3983 0.0
C9 C 0.01776 0.15832 0.39385 0.0
O10 O 0.97546 0.15043 0.40518 0.0
O11 O 0.98267 0.16951 0.42216 0.0
O12 O 0.01061 0.12073 0.40574 0.0
O13 O 0.00374 0.13911 0.42268 0.0
Co14 Co 0.11351 0.74379 0.66145 0.0
O15 O 0.12855 0.72864 0.66884 0.0
O16 O 0.12211 0.7325 0.64379 0.0
C17 C 0.12211 0.76436 0.67564 0.0
O18 O 0.09926 0.75859 0.6492 0.0
Co19 Co 0.08933 0.75907 0.68404 0.0
O20 O 0.08743 0.77459 0.66662 0.0
C21 C 0.08343 0.72718 0.67156 0.0
C22 C 0.13072 0.72517 0.65408 0.0
C23 C 0.09117 0.77091 0.65255 0.0
O24 O 0.09616 0.72796 0.66353 0.0
O25 O 0.07885 0.73808 0.68093 0.0
O26 O 0.12909 0.76035 0.66266 0.0
O27 O 0.11134 0.75482 0.68055 0.0
Co28 Co 0.50776 0.86295 0.90969 0.0
O29 O 0.5187 0.88159 0.91585 0.0
O30 O 0.51247 0.87531 0.89122 0.0
C31 C 0.48883 0.86384 0.92761 0.0
O32 O 0.49594 0.84513 0.89914 0.0
Co33 Co 0.50669 0.83458 0.93271 0.0
O34 O 0.49215 0.82565 0.9168 0.0
C35 C 0.53531 0.84045 0.9147 0.0
C36 C 0.519 0.88516 0.90097 0.0
C37 C 0.49003 0.83183 0.90327 0.0
O38 O 0.5281 0.85144 0.90727 0.0
O39 O 0.52925 0.83296 0.92629 0.0
O40 O 0.48787 0.87233 0.91491 0.0
O41 O 0.50204 0.85684 0.93016 0.0
Co42 Co 0.38016 0.24923 0.15438 0.0
O43 O 0.36698 0.2666 0.16018 0.0
O44 O 0.37202 0.25917 0.13563 0.0
C45 C 0.37 0.23169 0.1713 0.0
O46 O 0.39252 0.2316 0.14381 0.0
Co47 Co 0.40328 0.23417 0.17832 0.0
O48 O 0.40319 0.21664 0.16284 0.0
C49 C 0.41171 0.26395 0.1625 0.0
C50 C 0.36457 0.26851 0.14518 0.0
C51 C 0.39945 0.21897 0.14849 0.0
O52 O 0.39904 0.26337 0.15433 0.0
O53 O 0.41528 0.25383 0.17311 0.0
O54 O 0.36304 0.23463 0.15802 0.0
O55 O 0.38186 0.24055 0.17463 0.0
Co56 Co 0.98797 0.86076 0.08828 0.0
O57 O 0.97244 0.87582 0.08208 0.0
O58 O 0.97959 0.87085 0.10676 0.0
C59 C 0.00658 0.86771 0.07116 0.0
O60 O 0.004 0.84669 0.09903 0.0
Co61 Co -0.00187 0.83446 0.06512 0.0
O62 O 0.0162 0.83322 0.07978 0.0
C63 C 0.96872 0.83085 0.0826 0.0
C64 C 0.97117 0.87907 0.09699 0.0
C65 C 0.01529 0.83804 0.09399 0.0
O66 O 0.97172 0.84386 0.08969 0.0
O67 O 0.97743 0.82519 0.0717 0.0
O68 O 0.00431 0.87576 0.08396 0.0
O69 O 0.99612 0.85709 0.068 0.0
Co70 Co 0.38312 0.74809 0.34142 0.0
O71 O 0.36707 0.73465 0.33313 0.0
O72 O 0.37221 0.73789 0.35856 0.0
C73 C 0.37787 0.76945 0.32682 0.0
O74 O 0.39829 0.76144 0.35425 0.0
Co75 Co 0.41011 0.75918 0.31976 0.0
O76 O 0.41255 0.77516 0.33668 0.0
C77 C 0.41118 0.72721 0.33292 0.0
C78 C 0.36373 0.73128 0.34767 0.0
C79 C 0.40772 0.77271 0.35069 0.0
O80 O 0.39855 0.7303 0.34052 0.0
O81 O 0.41753 0.73692 0.32329 0.0
O82 O 0.3697 0.7663 0.33933 0.0
O83 O 0.38754 0.75855 0.32235 0.0
Co84 Co 0.50492 0.13707 0.59106 0.0
O85 O 0.51652 0.1198 0.5825 0.0
O86 O 0.51338 0.12468 0.60805 0.0
C87 C 0.48353 0.13458 0.57621 0.0
O88 O 0.49312 0.15321 0.60408 0.0
Co89 Co 0.4978 0.1658 0.56976 0.0
O90 O 0.48516 0.17282 0.58806 0.0
C91 C 0.52914 0.16253 0.58316 0.0
C92 C 0.51906 0.11568 0.59702 0.0
C93 C 0.48559 0.16603 0.60145 0.0
O94 O 0.5242 0.15055 0.59094 0.0
O95 O 0.52074 0.16981 0.57303 0.0
O96 O 0.48561 0.12572 0.58849 0.0
O97 O 0.4954 0.14312 0.57198 0.0
Co98 Co 0.11388 0.24372 0.84753 0.0
O99 O 0.13096 0.25623 0.83999 0.0
O100 O 0.12414 0.25381 0.86513 0.0
C101 C 0.11913 0.22197 0.83353 0.0
O102 O 0.09738 0.23153 0.85969 0.0
Co103 Co 0.08781 0.23379 0.82421 0.0
O104 O 0.07915 0.22253 0.84272 0.0
C105 C 0.08809 0.26611 0.83616 0.0
C106 C 0.13346 0.25989 0.85463 0.0
C107 C 0.08484 0.22379 0.85655 0.0
O108 O 0.09945 0.26223 0.84528 0.0
O109 O 0.08227 0.25675 0.82589 0.0
O110 O 0.12652 0.22485 0.84659 0.0
O111 O 0.11017 0.23317 0.82839 0.0
Co112 Co 0.39363 0.00211 0.12698 0.0
O113 O 0.40634 0.0182 0.11784 0.0
O114 O 0.40946 0.00856 0.14202 0.0
C115 C 0.39365 0.98637 0.10579 0.0
O116 O 0.38318 0.98489 0.13995 0.0
Co117 Co 0.36114 0.99414 0.1125 0.0
O118 O 0.36321 0.97502 0.12581 0.0
C119 C 0.36475 0.02258 0.13201 0.0
C120 C 0.41404 0.01817 0.131 0.0
C121 C 0.37251 0.97445 0.13755 0.0
O122 O 0.37883 0.01845 0.1354 0.0
O123 O 0.356 0.01499 0.12239 0.0
O124 O 0.40536 0.98599 0.11558 0.0
O125 O 0.38322 0.99703 0.10842 0.0
Co126 Co 0.25383 0.15386 0.3826 0.0
O127 O 0.26231 0.15816 0.36214 0.0
O128 O 0.26261 0.13482 0.37407 0.0
C129 C 0.23099 0.16607 0.37943 0.0
O130 O 0.2452 0.14471 0.40285 0.0
Co131 Co 0.24775 0.18094 0.40618 0.0
O132 O 0.23608 0.16451 0.41793 0.0
C133 C 0.27972 0.1694 0.40226 0.0
C134 C 0.26585 0.14329 0.36172 0.0
C135 C 0.23757 0.14991 0.41481 0.0
O136 O 0.27438 0.15889 0.39281 0.0
O137 O 0.27114 0.18009 0.40844 0.0
O138 O 0.23321 0.15206 0.37372 0.0
O139 O 0.24326 0.17315 0.38502 0.0
Co140 Co 0.10399 0.99367 0.6222 0.0
O141 O 0.09867 0.97621 0.60898 0.0
O142 O 0.0877 0.98138 0.63212 0.0
C143 C 0.10424 0.01154 0.60276 0.0
O144 O 0.1062 0.01074 0.63886 0.0
Co145 Co 0.13506 0.01186 0.61746 0.0
O146 O 0.12481 0.02777 0.63116 0.0
C147 C 0.13544 0.98086 0.63313 0.0
C148 C 0.08862 0.97232 0.61976 0.0
C149 C 0.11364 0.02383 0.6403 0.0
O150 O 0.12041 0.9806 0.63284 0.0
O151 O 0.14362 0.99188 0.62693 0.0
O152 O 0.09108 0.00768 0.60941 0.0
O153 O 0.11642 0.00378 0.60731 0.0
Co154 Co 0.24617 0.84778 0.8781 0.0
O155 O 0.23135 0.84258 0.86205 0.0
O156 O 0.2377 0.86692 0.86925 0.0
C157 C 0.26531 0.8315 0.87058 0.0
O158 O 0.26147 0.85738 0.8938 0.0
Co159 Co 0.25518 0.8223 0.90267 0.0
O160 O 0.2729 0.837 0.90628 0.0
C161 C 0.22488 0.83812 0.90551 0.0
C162 C 0.22954 0.85765 0.86021 0.0
C163 C 0.2723 0.85155 0.90259 0.0
O164 O 0.22903 0.84729 0.89423 0.0
O165 O 0.23328 0.82658 0.9103 0.0
O166 O 0.26333 0.84493 0.86352 0.0
O167 O 0.25438 0.82744 0.88036 0.0
Co168 Co 0.39326 0.99512 0.36842 0.0
O169 O 0.39896 0.97779 0.38163 0.0
O170 O 0.41029 0.98351 0.35883 0.0
C171 C 0.39195 0.01289 0.38798 0.0
O172 O 0.39064 0.01232 0.35191 0.0
Co173 Co 0.36133 0.01198 0.373 0.0
O174 O 0.37129 0.02845 0.35974 0.0
C175 C 0.36252 0.98133 0.35658 0.0
C176 C 0.40949 0.9744 0.37116 0.0
C177 C 0.38269 0.02513 0.35064 0.0
O178 O 0.37755 0.98159 0.35719 0.0
O179 O 0.35385 0.99183 0.36303 0.0
O180 O 0.40537 0.00951 0.38161 0.0
O181 O 0.38019 0.00464 0.38319 0.0
Co182 Co 0.24234 0.14911 0.61484 0.0
O183 O 0.22846 0.15362 0.63185 0.0
O184 O 0.23361 0.12962 0.62274 0.0
C185 C 0.26228 0.16416 0.62259 0.0
O186 O 0.25664 0.14039 0.59768 0.0
Co187 Co 0.25049 0.17632 0.59188 0.0
O188 O 0.26777 0.16167 0.58645 0.0
C189 C 0.21985 0.16128 0.58944 0.0
C190 C 0.22613 0.13855 0.63269 0.0
C191 C 0.26715 0.14687 0.58894 0.0
O192 O 0.22449 0.15124 0.59973 0.0
O193 O 0.22818 0.173 0.58498 0.0
O194 O 0.26019 0.1503 0.62872 0.0
O195 O 0.25103 0.16932 0.61372 0.0
Co196 Co 0.10659 0.00416 0.87248 0.0
O197 O 0.10116 0.02161 0.8857 0.0
O198 O 0.08997 0.01618 0.86274 0.0
C199 C 0.10736 0.98637 0.89196 0.0
O200 O 0.10881 0.987 0.85586 0.0
Co201 Co 0.138 0.98647 0.87684 0.0
O202 O 0.1278 0.97031 0.86338 0.0
C203 C 0.1377 0.01754 0.86139 0.0
C204 C 0.0909 0.0253 0.87504 0.0
C205 C 0.11641 0.97399 0.85442 0.0
O206 O 0.12267 0.01743 0.86165 0.0
O207 O 0.14615 0.00669 0.86753 0.0
O208 O 0.09407 0.99003 0.88546 0.0
O209 O 0.11938 0.99428 0.88726 0.0
Co210 Co 0.25279 0.83664 0.11404 0.0
O211 O 0.26428 0.83065 0.13245 0.0
O212 O 0.261 0.85526 0.12411 0.0
C213 C 0.23171 0.82178 0.11828 0.0
O214 O 0.24072 0.84712 0.0962 0.0
Co215 Co 0.24602 0.81181 0.08814 0.0
O216 O 0.2295 0.82731 0.08268 0.0
C217 C 0.27679 0.82696 0.08893 0.0
C218 C 0.26654 0.8456 0.13463 0.0
C219 C 0.23052 0.84184 0.08637 0.0
O220 O 0.27208 0.83523 0.10068 0.0
O221 O 0.26842 0.81627 0.08245 0.0
O222 O 0.23348 0.83507 0.12564 0.0
O223 O 0.24375 0.8168 0.1104 0.0
Co224 Co 0.13156 0.40374 0.99589 0.0
O225 O 0.11736 0.41205 0.98045 0.0
O226 O 0.12263 0.38668 0.98382 0.0
C227 C 0.12276 0.4178 0.01649 0.0
O228 O 0.14508 0.39081 0.01088 0.0
Co229 Co 0.15584 0.42557 0.01219 0.0
O230 O 0.15699 0.40779 0.02734 0.0
C231 C 0.16224 0.41356 0.98021 0.0
C232 C 0.1148 0.39753 0.97641 0.0
C233 C 0.15306 0.39385 0.02339 0.0
O234 O 0.14943 0.40563 0.98061 0.0
O235 O 0.16665 0.42276 0.99132 0.0
O236 O 0.11551 0.40511 0.01204 0.0
O237 O 0.13392 0.42252 0.00734 0.0
Co238 Co 0.62532 0.09531 0.99479 0.0
O239 O 0.61044 0.08816 0.01006 0.0
O240 O 0.61531 0.11325 0.00463 0.0
C241 C 0.61825 0.07929 0.97506 0.0
O242 O 0.63951 0.10682 0.97922 0.0
Co243 Co 0.6511 0.07226 0.98335 0.0
O244 O 0.65242 0.08787 0.96596 0.0
C245 C 0.6543 0.087 0.01447 0.0
C246 C 0.6074 0.1029 0.01267 0.0
C247 C 0.64792 0.1021 0.96752 0.0
O248 O 0.6421 0.09531 0.0114 0.0
O249 O 0.65952 0.07635 0.00515 0.0
O250 O 0.6104 0.09207 0.97792 0.0
O251 O 0.62873 0.07558 0.98546 0.0
Co252 Co 0.14337 0.3729 0.24564 0.0
O253 O 0.14769 0.36021 0.22744 0.0
O254 O 0.15905 0.38308 0.23282 0.0
C255 C 0.14394 0.35314 0.26306 0.0
O256 O 0.14235 0.38907 0.26334 0.0
Co257 Co 0.11325 0.36809 0.26549 0.0
O258 O 0.12443 0.38137 0.28111 0.0
C259 C 0.11133 0.38411 0.23473 0.0
C260 C 0.15768 0.37102 0.22345 0.0
C261 C 0.13559 0.39034 0.27684 0.0
O262 O 0.12634 0.384 0.23382 0.0
O263 O 0.10369 0.37765 0.24601 0.0
O264 O 0.15695 0.35956 0.25838 0.0
O265 O 0.13133 0.35792 0.25619 0.0
Co266 Co 0.86639 0.90289 0.49984 0.0
O267 O 0.88331 0.9088 0.51335 0.0
O268 O 0.87611 0.88417 0.50845 0.0
C269 C 0.87225 0.91859 0.4795 0.0
O270 O 0.84981 0.89258 0.48597 0.0
Co271 Co 0.84111 0.9278 0.49167 0.0
O272 O 0.83671 0.91254 0.4745 0.0
C273 C 0.8402 0.91252 0.52264 0.0
C274 C 0.88552 0.89386 0.51565 0.0
C275 C 0.84039 0.89802 0.47544 0.0
O276 O 0.85162 0.90374 0.5182 0.0
O277 O 0.83456 0.92358 0.51409 0.0
O278 O 0.87949 0.90528 0.48141 0.0
O279 O 0.86331 0.92294 0.49105 0.0
Co280 Co 0.85953 0.12097 0.24122 0.0
O281 O 0.85458 0.12971 0.22108 0.0
O282 O 0.84254 0.10914 0.2316 0.0
C283 C 0.86055 0.14399 0.25422 0.0
O284 O 0.86159 0.10918 0.26203 0.0
Co285 Co 0.89162 0.12969 0.2564 0.0
O286 O 0.88181 0.1199 0.27527 0.0
C287 C 0.89042 0.10677 0.23053 0.0
C288 C 0.84386 0.11898 0.21989 0.0
C289 C 0.87002 0.1107 0.27453 0.0
O290 O 0.87541 0.10664 0.23132 0.0
O291 O 0.89911 0.11618 0.23842 0.0
O292 O 0.84716 0.13716 0.25177 0.0
O293 O 0.87243 0.13758 0.24738 0.0
Co294 Co 0.36192 0.59624 0.49685 0.0
O295 O 0.37963 0.58825 0.48555 0.0
O296 O 0.37273 0.61343 0.48664 0.0
C297 C 0.36604 0.58319 0.51942 0.0
O298 O 0.34483 0.6088 0.50783 0.0
Co299 Co 0.33542 0.57326 0.50621 0.0
O300 O 0.32647 0.592 0.51683 0.0
C301 C 0.33731 0.584 0.47353 0.0
C302 C 0.38239 0.60274 0.48154 0.0
C303 C 0.3321 0.60581 0.51533 0.0
O304 O 0.34846 0.59326 0.47768 0.0
O305 O 0.331 0.57409 0.48295 0.0
O306 O 0.37357 0.59612 0.51635 0.0
O307 O 0.35772 0.57751 0.50798 0.0
Co308 Co 0.13789 0.61991 0.25065 0.0
O309 O 0.14426 0.63325 0.26764 0.0
O310 O 0.1551 0.61022 0.26188 0.0
C311 C 0.13633 0.63927 0.23278 0.0
O312 O 0.13467 0.60318 0.23375 0.0
Co313 Co 0.10564 0.62433 0.23464 0.0
O314 O 0.11494 0.6108 0.218 0.0
C315 C 0.10749 0.60897 0.26574 0.0
C316 C 0.15469 0.62264 0.27089 0.0
C317 C 0.12642 0.60176 0.22113 0.0
O318 O 0.12249 0.60926 0.26487 0.0
O319 O 0.09851 0.61505 0.25528 0.0
O320 O 0.14973 0.63266 0.23577 0.0
O321 O 0.12469 0.63472 0.24134 0.0
Co322 Co 0.35056 0.37437 0.74957 0.0
O323 O 0.34529 0.36097 0.76692 0.0
O324 O 0.33401 0.38395 0.7618 0.0
C325 C 0.35123 0.35511 0.73153 0.0
O326 O 0.35265 0.3911 0.73254 0.0
Co327 Co 0.38181 0.37004 0.73135 0.0
O328 O 0.37114 0.38335 0.71538 0.0
C329 C 0.38188 0.38546 0.76253 0.0
C330 C 0.33495 0.3715 0.77072 0.0
C331 C 0.35995 0.39244 0.71934 0.0
O332 O 0.36683 0.38515 0.76277 0.0
O333 O 0.3901 0.37931 0.7515 0.0
O334 O 0.33791 0.3614 0.73541 0.0
O335 O 0.36326 0.35982 0.73941 0.0
Co336 Co 0.00042 0.86176 0.59508 0.0
O337 O 0.01472 0.87709 0.58692 0.0
O338 O 0.01071 0.87237 0.61234 0.0
C339 C 0.98002 0.86804 0.57975 0.0
O340 O 0.98624 0.84734 0.60782 0.0
Co341 Co 0.98852 0.83483 0.5737 0.0
O342 O 0.97234 0.83308 0.59042 0.0
C343 C 0.02001 0.83255 0.58729 0.0
C344 C 0.01797 0.88039 0.6015 0.0
C345 C 0.97483 0.83811 0.60436 0.0
O346 O 0.01733 0.84543 0.59474 0.0
O347 O 0.01024 0.82642 0.57761 0.0
O348 O 0.98312 0.87615 0.59235 0.0
O349 O 0.99035 0.85757 0.57581 0.0
Co350 Co 0.87595 0.25407 0.34583 0.0
O351 O 0.86043 0.26854 0.3385 0.0
O352 O 0.86419 0.26203 0.36356 0.0
C353 C 0.87096 0.23522 0.328 0.0
O354 O 0.89041 0.23918 0.35767 0.0
Co355 Co 0.9037 0.2446 0.32422 0.0
O356 O 0.90589 0.22728 0.33983 0.0
C357 C 0.90416 0.27539 0.34034 0.0
C358 C 0.85618 0.26985 0.35313 0.0
C359 C 0.90032 0.2285 0.35372 0.0
O360 O 0.89157 0.27164 0.34775 0.0
O361 O 0.91037 0.26666 0.32971 0.0
O362 O 0.86243 0.23644 0.34061 0.0
O363 O 0.88117 0.24625 0.32586 0.0
Co364 Co 0.49484 0.1281 0.09785 0.0
O365 O 0.48299 0.10952 0.09344 0.0
O366 O 0.48789 0.11868 0.11744 0.0
C367 C 0.51473 0.12277 0.08141 0.0
O368 O 0.50743 0.14638 0.10678 0.0
Co369 Co 0.50031 0.15279 0.07152 0.0
O370 O 0.51735 0.15942 0.08598 0.0
C371 C 0.47013 0.15244 0.08811 0.0
C372 C 0.4817 0.10783 0.10859 0.0
C373 C 0.51698 0.15638 0.10069 0.0
O374 O 0.4754 0.14139 0.09703 0.0
O375 O 0.47795 0.1582 0.07659 0.0
O376 O 0.51411 0.11637 0.0953 0.0
O377 O 0.50248 0.13074 0.07722 0.0
Co378 Co 0.61939 0.74351 0.84531 0.0
O379 O 0.63311 0.72596 0.84177 0.0
O380 O 0.62866 0.73736 0.86496 0.0
C381 C 0.62748 0.7586 0.82528 0.0
O382 O 0.60695 0.76191 0.85376 0.0
Co383 Co 0.59394 0.75361 0.82134 0.0
O384 O 0.59287 0.77304 0.83442 0.0
C385 C 0.5889 0.72544 0.84098 0.0
C386 C 0.63602 0.72674 0.85682 0.0
C387 C 0.59836 0.77309 0.84839 0.0
O388 O 0.60138 0.72876 0.84877 0.0
O389 O 0.5844 0.73329 0.82889 0.0
O390 O 0.63546 0.75806 0.83831 0.0
O391 O 0.61598 0.74876 0.82416 0.0
Co392 Co 0.99571 0.12843 0.90345 0.0
O393 O 0.01118 0.11384 0.91077 0.0
O394 O 0.00752 0.12048 0.88573 0.0
C395 C 0.97551 0.1189 0.91736 0.0
O396 O 0.98053 0.14268 0.89159 0.0
Co397 Co 0.98017 0.15172 0.92703 0.0
O398 O 0.96462 0.1535 0.90974 0.0
C399 C 0.01166 0.15862 0.91488 0.0
C400 C 0.01517 0.1122 0.8961 0.0
C401 C 0.96811 0.15031 0.89549 0.0
O402 O 0.0109 0.1463 0.9061 0.0
O403 O 0.00089 0.16263 0.92458 0.0
O404 O 0.9797 0.11218 0.90426 0.0
O405 O 0.98474 0.12983 0.92249 0.0
Co406 Co 0.61557 0.25641 0.65484 0.0
O407 O 0.62837 0.27411 0.66036 0.0
O408 O 0.62413 0.26556 0.63598 0.0
C409 C 0.62551 0.23984 0.67284 0.0
O410 O 0.60393 0.23837 0.64442 0.0
Co411 Co 0.59204 0.24123 0.67818 0.0
O412 O 0.59256 0.22342 0.66299 0.0
C413 C 0.58351 0.27054 0.66132 0.0
C414 C 0.63137 0.27522 0.64537 0.0
C415 C 0.59688 0.22574 0.6488 0.0
O416 O 0.59648 0.2702 0.65364 0.0
O417 O 0.57987 0.26053 0.67202 0.0
O418 O 0.63277 0.24222 0.65961 0.0
O419 O 0.61331 0.2485 0.67534 0.0
Co420 Co 0.50029 0.86655 0.40007 0.0
O421 O 0.48639 0.88258 0.40758 0.0
O422 O 0.49022 0.87675 0.38238 0.0
C423 C 0.52071 0.87304 0.41535 0.0
O424 O 0.51405 0.85117 0.38792 0.0
Co425 Co 0.51176 0.8403 0.42261 0.0
O426 O 0.52753 0.83701 0.40575 0.0
C427 C 0.48 0.83836 0.40949 0.0
C428 C 0.48318 0.88539 0.39289 0.0
C429 C 0.52506 0.84153 0.39164 0.0
O430 O 0.48296 0.85067 0.40119 0.0
O431 O 0.48968 0.83258 0.41946 0.0
O432 O 0.518 0.88062 0.40233 0.0
O433 O 0.51016 0.86291 0.41952 0.0
Co434 Co 0.87298 0.73944 0.15122 0.0
O435 O 0.8543 0.72778 0.15564 0.0
O436 O 0.86417 0.73193 0.13174 0.0
C437 C 0.86759 0.75991 0.16693 0.0
O438 O 0.89121 0.7516 0.14193 0.0
Co439 Co 0.89746 0.74651 0.17724 0.0
O440 O 0.90447 0.76274 0.16189 0.0
C441 C 0.89703 0.71519 0.16232 0.0
C442 C 0.85309 0.72611 0.14046 0.0
C443 C 0.90133 0.76143 0.14726 0.0
O444 O 0.88612 0.71992 0.15302 0.0
O445 O 0.90265 0.72371 0.17342 0.0
O446 O 0.86136 0.75899 0.153 0.0
O447 O 0.87552 0.74775 0.17152 0.0
Co448 Co 0.59338 0.00042 0.85914 0.0
O449 O 0.58668 0.01654 0.87338 0.0
O450 O 0.61145 0.01098 0.86787 0.0
C451 C 0.57774 0.98149 0.86856 0.0
O452 O 0.60459 0.9841 0.84554 0.0
Co453 Co 0.56993 0.98613 0.83512 0.0
O454 O 0.58578 0.9691 0.83457 0.0
C455 C 0.58363 0.01732 0.82898 0.0
C456 C 0.6014 0.01929 0.87585 0.0
C457 C 0.6 0.97162 0.83828 0.0
O458 O 0.59234 0.01581 0.84123 0.0
O459 O 0.57346 0.00711 0.82471 0.0
O460 O 0.59092 0.9847 0.87546 0.0
O461 O 0.57371 0.99082 0.85718 0.0
Co462 Co 0.74808 0.8438 0.61548 0.0
O463 O 0.73114 0.83698 0.62864 0.0
O464 O 0.73753 0.86192 0.62415 0.0
C465 C 0.76628 0.82726 0.62495 0.0
O466 O 0.76495 0.85535 0.60312 0.0
Co467 Co 0.76342 0.82111 0.59122 0.0
O468 O 0.78022 0.83725 0.59138 0.0
C469 C 0.73334 0.83628 0.58354 0.0
C470 C 0.72849 0.85182 0.63121 0.0
C471 C 0.77743 0.85138 0.59564 0.0
O472 O 0.73384 0.84393 0.59662 0.0
O473 O 0.74367 0.82617 0.57939 0.0
O474 O 0.76295 0.84018 0.63246 0.0
O475 O 0.7574 0.82398 0.61305 0.0
Co476 Co 0.90164 -0.00219 0.36584 0.0
O477 O 0.90648 0.98128 0.38032 0.0
O478 O 0.88243 0.98847 0.37349 0.0
C479 C 0.91788 0.01585 0.37598 0.0
O480 O 0.89249 0.01487 0.3516 0.0
Co481 Co 0.92779 0.00986 0.34332 0.0
O482 O 0.91312 0.02789 0.34139 0.0
C483 C 0.91293 0.97926 0.33723 0.0
C484 C 0.8915 0.97943 0.38186 0.0
C485 C 0.89856 0.02674 0.34439 0.0
O486 O 0.90272 0.98234 0.34793 0.0
O487 O 0.92463 0.98821 0.33428 0.0
O488 O 0.90426 0.01347 0.38233 0.0
O489 O 0.92188 0.00605 0.36503 0.0
Co490 Co 0.74878 0.14466 0.11589 0.0
O491 O 0.76341 0.15126 0.13161 0.0
O492 O 0.75792 0.12635 0.12605 0.0
C493 C 0.72941 0.16121 0.12248 0.0
O494 O 0.73387 0.13371 0.1006 0.0
Co495 Co 0.739 0.16856 0.08991 0.0
O496 O 0.72193 0.153 0.08687 0.0
C497 C 0.76965 0.15313 0.08776 0.0
C498 C 0.7659 0.13644 0.13436 0.0
C499 C 0.72309 0.13866 0.0912 0.0
O500 O 0.76594 0.14463 0.09973 0.0
O501 O 0.76088 0.1641 0.08235 0.0
O502 O 0.73138 0.14816 0.13023 0.0
O503 O 0.74024 0.16464 0.11239 0.0
Co504 Co 0.59111 0.99772 0.63001 0.0
O505 O 0.58842 0.98085 0.61532 0.0
O506 O 0.61137 0.98959 0.62395 0.0
C507 C 0.57465 0.01474 0.61863 0.0
O508 O 0.59822 0.01536 0.64469 0.0
Co509 Co 0.56297 0.0082 0.65069 0.0
O510 O 0.57638 0.02703 0.65384 0.0
C511 C 0.57897 0.97847 0.65778 0.0
C512 C 0.60357 0.97993 0.61499 0.0
C513 C 0.59113 0.02682 0.65161 0.0
O514 O 0.58968 0.98226 0.64784 0.0
O515 O 0.56663 0.98673 0.66002 0.0
O516 O 0.58878 0.01307 0.61327 0.0
O517 O 0.5704 0.00476 0.62935 0.0
Co518 Co 0.74567 0.85196 0.3764 0.0
O519 O 0.76088 0.84405 0.36188 0.0
O520 O 0.75555 0.86936 0.36556 0.0
C521 C 0.72638 0.83532 0.36984 0.0
O522 O 0.73034 0.86437 0.38991 0.0
Co523 Co 0.73341 0.83059 0.40339 0.0
O524 O 0.71657 0.84672 0.40401 0.0
C525 C 0.76458 0.845 0.40621 0.0
C526 C 0.76356 0.85863 0.35816 0.0
C527 C 0.71868 0.86062 0.39873 0.0
O528 O 0.76195 0.85275 0.39346 0.0
O529 O 0.75505 0.83477 0.41179 0.0
O530 O 0.729 0.84782 0.3614 0.0
O531 O 0.73648 0.83245 0.38083 0.0
Co532 Co 0.90982 0.00319 0.13197 0.0
O533 O 0.91558 0.01861 0.11653 0.0
O534 O 0.89142 0.01444 0.12518 0.0
C535 C 0.92309 0.98299 0.12151 0.0
O536 O 0.89939 0.98777 0.14713 0.0
Co537 Co 0.93504 0.98809 0.15357 0.0
O538 O 0.91857 0.9718 0.1558 0.0
C539 C 0.92354 0.01996 0.16068 0.0
C540 C 0.90078 0.02192 0.11568 0.0
C541 C 0.90415 0.97498 0.1537 0.0
O542 O 0.91366 0.01885 0.14931 0.0
O543 O 0.93352 0.00924 0.16407 0.0
O544 O 0.90954 0.98698 0.11589 0.0
O545 O 0.92897 0.99242 0.13196 0.0
Co546 Co 0.74814 0.14552 0.87858 0.0
O547 O 0.73788 0.15221 0.85959 0.0
O548 O 0.74017 0.12738 0.86742 0.0
C549 C 0.76973 0.16043 0.87584 0.0
O550 O 0.75854 0.13395 0.89669 0.0
Co551 Co 0.75452 0.1691 0.90574 0.0
O552 O 0.76555 0.15109 0.91567 0.0
C553 C 0.72283 0.15637 0.90177 0.0
C554 C 0.73534 0.13737 0.85686 0.0
C555 C 0.76506 0.13722 0.90994 0.0
O556 O 0.72798 0.14726 0.89081 0.0
O557 O 0.73129 0.16688 0.90842 0.0
O558 O 0.76837 0.14717 0.86832 0.0
O559 O 0.7574 0.16507 0.88339 0.0
Co560 Co 0.86472 0.59605 0.99778 0.0
O561 O 0.87452 0.58864 0.01674 0.0
O562 O 0.87412 0.61351 0.00867 0.0
C563 C 0.87456 0.57723 0.98204 0.0
O564 O 0.85654 0.60824 0.9789 0.0
Co565 Co 0.8409 0.5761 0.97877 0.0
O566 O 0.84512 0.59166 0.96183 0.0
C567 C 0.83051 0.59346 0.00723 0.0
C568 C 0.87894 0.60313 0.01884 0.0
C569 C 0.8505 0.6052 0.96537 0.0
O570 O 0.84432 0.59919 0.00917 0.0
O571 O 0.82694 0.58373 0.99625 0.0
O572 O 0.88289 0.58952 0.98559 0.0
O573 O 0.86114 0.57614 0.98897 0.0
Co574 Co 0.37162 0.89456 0.99717 0.0
O575 O 0.38908 0.89941 0.98394 0.0
O576 O 0.38104 0.87523 0.99002 0.0
C577 C 0.37784 0.91178 0.01614 0.0
O578 O 0.35499 0.88487 0.01116 0.0
Co579 Co 0.3463 0.91929 0.00543 0.0
O580 O 0.34165 0.90439 0.0229 0.0
C581 C 0.34541 0.90346 0.97446 0.0
C582 C 0.39118 0.88429 0.98308 0.0
C583 C 0.34552 0.88993 0.02176 0.0
O584 O 0.35698 0.8947 0.97864 0.0
O585 O 0.33996 0.91457 0.98309 0.0
O586 O 0.38459 0.89808 0.01565 0.0
O587 O 0.36858 0.91508 0.00455 0.0
Co588 Co 0.84031 0.61293 0.74725 0.0
O589 O 0.8365 0.62641 0.72962 0.0
O590 O 0.86002 0.62038 0.73898 0.0
C591 C 0.82272 0.62368 0.76353 0.0
O592 O 0.84849 0.59992 0.76568 0.0
Co593 Co 0.81403 0.59036 0.75857 0.0
O594 O 0.82741 0.5895 0.77769 0.0
C595 C 0.83103 0.58321 0.72939 0.0
C596 C 0.85156 0.62814 0.72886 0.0
C597 C 0.84191 0.59303 0.77747 0.0
O598 O 0.84073 0.59427 0.73276 0.0
O599 O 0.81879 0.58034 0.7376 0.0
O600 O 0.83635 0.63015 0.76165 0.0
O601 O 0.81951 0.61209 0.75413 0.0
Co602 Co 0.12831 0.09933 0.49342 0.0
O603 O 0.11633 0.09442 0.47495 0.0
O604 O 0.12017 0.11849 0.48447 0.0
C605 C 0.1178 0.0807 0.50893 0.0
O606 O 0.13936 0.10908 0.51222 0.0
Co607 Co 0.15102 0.07519 0.50893 0.0
O608 O 0.15008 0.08999 0.52703 0.0
C609 C 0.16112 0.09343 0.48095 0.0
C610 C 0.11353 0.10944 0.47407 0.0
C611 C 0.14609 0.10429 0.52488 0.0
O612 O 0.14802 0.10092 0.48056 0.0
O613 O 0.16428 0.08249 0.49085 0.0
O614 O 0.11052 0.09397 0.50683 0.0
O615 O 0.13027 0.07866 0.50061 0.0
Co616 Co 0.15462 0.8874 0.74224 0.0
O617 O 0.1617 0.86983 0.73 0.0
O618 O 0.13692 0.87729 0.73227 0.0
C619 C 0.16816 0.88208 0.76417 0.0
O620 O 0.14308 0.90443 0.75455 0.0
Co621 Co 0.1788 0.91293 0.75201 0.0
O622 O 0.16097 0.92138 0.76432 0.0
C623 C 0.16789 0.91179 0.71935 0.0
C624 C 0.14711 0.86743 0.72655 0.0
C625 C 0.14696 0.9164 0.763 0.0
O626 O 0.15751 0.90163 0.7235 0.0
O627 O 0.17849 0.91687 0.72871 0.0
O628 O 0.15508 0.87486 0.76128 0.0
O629 O 0.1736 0.89069 0.75283 0.0
Co630 Co 0.62609 0.39869 0.50667 0.0
O631 O 0.61084 0.40458 0.52213 0.0
O632 O 0.6157 0.38006 0.51439 0.0
C633 C 0.61958 0.41684 0.48858 0.0
O634 O 0.6404 0.38815 0.49074 0.0
Co635 Co 0.6524 0.42192 0.49679 0.0
O636 O 0.65489 0.40689 0.479 0.0
C637 C 0.65501 0.40482 0.52692 0.0
C638 C 0.60755 0.38967 0.52306 0.0
C639 C 0.64987 0.39278 0.47993 0.0
O640 O 0.64259 0.39697 0.52347 0.0
O641 O 0.66033 0.416 0.51831 0.0
O642 O 0.61158 0.40389 0.48977 0.0
O643 O 0.63007 0.4191 0.49933 0.0
Co644 Co 0.84576 0.38244 0.75055 0.0
O645 O 0.83849 0.36834 0.76658 0.0
O646 O 0.86344 0.37377 0.76174 0.0
C647 C 0.83076 0.37322 0.73098 0.0
O648 O 0.85755 0.39581 0.73448 0.0
Co649 Co 0.82279 0.4065 0.73533 0.0
O650 O 0.83925 0.40684 0.71887 0.0
C651 C 0.83565 0.41284 0.76687 0.0
C652 C 0.85313 0.3659 0.76983 0.0
C653 C 0.85335 0.40299 0.72181 0.0
O654 O 0.84435 0.40053 0.76578 0.0
O655 O 0.82575 0.41697 0.75632 0.0
O656 O 0.84364 0.36604 0.73475 0.0
O657 O 0.82651 0.38453 0.74026 0.0
Co658 Co 0.66439 0.60999 0.25188 0.0
O659 O 0.67049 0.62791 0.26419 0.0
O660 O 0.64601 0.62006 0.26049 0.0
C661 C 0.67924 0.61481 0.23074 0.0
O662 O 0.65365 0.59272 0.23933 0.0
Co663 Co 0.68887 0.58423 0.24387 0.0
O664 O 0.67184 0.57562 0.23052 0.0
C665 C 0.67584 0.58553 0.27577 0.0
C666 C 0.65568 0.63011 0.26675 0.0
C667 C 0.65781 0.58069 0.23113 0.0
O668 O 0.66611 0.5961 0.27106 0.0
O669 O 0.68681 0.58012 0.26706 0.0
O670 O 0.66595 0.622 0.23253 0.0
O671 O 0.68407 0.60656 0.24262 0.0
Co672 Co 0.49051 0.62953 0.9012 0.0
O673 O 0.47657 0.61264 0.90606 0.0
O674 O 0.48155 0.62148 0.8819 0.0
C675 C 0.51068 0.62187 0.91607 0.0
O676 O 0.50478 0.64641 0.89198 0.0
Co677 Co 0.49943 0.65284 0.92785 0.0
O678 O 0.5164 0.65805 0.91277 0.0
C679 C 0.46866 0.65565 0.91308 0.0
C680 C 0.47416 0.61161 0.89099 0.0
C681 C 0.51544 0.65527 0.89803 0.0
O682 O 0.47281 0.64485 0.90335 0.0
O683 O 0.47731 0.66029 0.92449 0.0
O684 O 0.5083 0.61555 0.90234 0.0
O685 O 0.49956 0.63088 0.9213 0.0
Co686 Co 0.61893 0.24822 0.149 0.0
O687 O 0.63287 0.23242 0.15698 0.0
O688 O 0.62956 0.23811 0.13166 0.0
C689 C 0.62563 0.26759 0.16559 0.0
O690 O 0.60605 0.26408 0.13651 0.0
Co691 Co 0.59216 0.26099 0.17017 0.0
O692 O 0.59197 0.278 0.15407 0.0
C693 C 0.5886 0.23003 0.15509 0.0
C694 C 0.63663 0.22978 0.14239 0.0
C695 C 0.5974 0.27591 0.14022 0.0
O696 O 0.60159 0.23235 0.14783 0.0
O697 O 0.58308 0.23965 0.16532 0.0
O698 O 0.63418 0.26455 0.1533 0.0
O699 O 0.61453 0.25762 0.16849 0.0
Co700 Co 0.00439 0.36585 0.40312 0.0
O701 O 0.0206 0.38022 0.40907 0.0
O702 O 0.01298 0.37551 0.38448 0.0
C703 C 0.98634 0.37346 0.42058 0.0
O704 O 0.98772 0.35227 0.39269 0.0
Co705 Co 0.99391 0.33995 0.4266 0.0
O706 O 0.97577 0.33868 0.41202 0.0
C707 C 0.02318 0.33572 0.40911 0.0
C708 C 0.02207 0.38314 0.39412 0.0
C709 C 0.97649 0.34358 0.39783 0.0
O710 O 0.02006 0.34844 0.40158 0.0
O711 O 0.01462 0.33046 0.42033 0.0
O712 O 0.9886 0.38144 0.40772 0.0
O713 O 0.9965 0.36249 0.4235 0.0
Co714 Co 0.88103 0.74773 0.65722 0.0
O715 O 0.86534 0.76176 0.66528 0.0
O716 O 0.87061 0.75806 0.63992 0.0
C717 C 0.87505 0.72675 0.67196 0.0
O718 O 0.89579 0.73376 0.64457 0.0
Co719 Co 0.9076 0.73584 0.67901 0.0
O720 O 0.90954 0.71964 0.66221 0.0
C721 C 0.90952 0.7678 0.66597 0.0
C722 C 0.8622 0.765 0.65066 0.0
C723 C 0.90478 0.72215 0.64819 0.0
O724 O 0.89698 0.76501 0.65813 0.0
O725 O 0.91552 0.75794 0.67567 0.0
O726 O 0.867 0.73002 0.6594 0.0
O727 O 0.88508 0.73735 0.67633 0.0
Co728 Co 0.48683 0.36324 0.59446 0.0
O729 O 0.47432 0.3806 0.58747 0.0
O730 O 0.47742 0.37339 0.61246 0.0
C731 C 0.50824 0.36837 0.58027 0.0
O732 O 0.49934 0.34648 0.60601 0.0
Co733 Co 0.49558 0.33718 0.57053 0.0
O734 O 0.50831 0.32891 0.58822 0.0
C735 C 0.46401 0.33746 0.5837 0.0
C736 C 0.47125 0.38302 0.60226 0.0
C737 C 0.50746 0.3343 0.60221 0.0
O738 O 0.46829 0.34888 0.59264 0.0
O739 O 0.47288 0.33149 0.57313 0.0
O740 O 0.50551 0.37585 0.59333 0.0
O741 O 0.49691 0.35964 0.57503 0.0
Co742 Co 0.87815 0.24957 0.84971 0.0
O743 O 0.86265 0.23464 0.84323 0.0
O744 O 0.86864 0.23996 0.86812 0.0
C745 C 0.87094 0.2693 0.83379 0.0
O746 O 0.89329 0.26483 0.86047 0.0
Co747 Co 0.9032 0.25989 0.82529 0.0
O748 O 0.90601 0.2772 0.84077 0.0
C749 C 0.90595 0.22884 0.84008 0.0
C750 C 0.86027 0.23197 0.85809 0.0
C751 C 0.90207 0.27602 0.85522 0.0
O752 O 0.89441 0.23251 0.84907 0.0
O753 O 0.91096 0.23781 0.82905 0.0
O754 O 0.86355 0.26683 0.84694 0.0
O755 O 0.88097 0.25859 0.82978 0.0
Co756 Co 0.99462 0.62409 0.09889 0.0
O757 O 0.01003 0.609 0.09259 0.0
O758 O 0.00324 0.6141 0.11736 0.0
C759 C 0.9759 0.61719 0.08182 0.0
O760 O 0.97878 0.63834 0.10967 0.0
Co761 Co 0.98439 0.65024 0.07552 0.0
O762 O 0.96652 0.6518 0.09044 0.0
C763 C 0.01465 0.65308 0.0916 0.0
C764 C 0.0117 0.606 0.10751 0.0
C765 C 0.96748 0.64701 0.10465 0.0
O766 O 0.01113 0.64088 0.09983 0.0
O767 O 0.00598 0.65833 0.08046 0.0
O768 O 0.97799 0.60918 0.0947 0.0
O769 O 0.98646 0.6277 0.07873 0.0
Co770 Co 0.61695 0.74759 0.34073 0.0
O771 O 0.63233 0.76193 0.33274 0.0
O772 O 0.62684 0.75843 0.35808 0.0
C773 C 0.62393 0.72678 0.32608 0.0
O774 O 0.60228 0.73353 0.35334 0.0
Co775 Co 0.59102 0.73495 0.31885 0.0
O776 O 0.58874 0.71904 0.33586 0.0
C777 C 0.58808 0.76694 0.33157 0.0
C778 C 0.63509 0.76556 0.34734 0.0
C779 C 0.59324 0.72193 0.34988 0.0
O780 O 0.60067 0.7645 0.33943 0.0
O781 O 0.5823 0.75683 0.322 0.0
O782 O 0.63145 0.73024 0.33893 0.0
O783 O 0.61354 0.73696 0.32154 0.0
Co784 Co 0.89 0.50087 0.62303 0.0
O785 O 0.89476 0.51987 0.61189 0.0
O786 O 0.9079 0.51106 0.63263 0.0
C787 C 0.88701 0.48581 0.60155 0.0
O788 O 0.8887 0.48143 0.63706 0.0
Co789 Co 0.85753 0.48513 0.61911 0.0
O790 O 0.86861 0.46676 0.62833 0.0
C791 C 0.86066 0.51281 0.63976 0.0
C792 C 0.90622 0.52174 0.62174 0.0
C793 C 0.88084 0.4685 0.63675 0.0
O794 O 0.8755 0.51272 0.63732 0.0
O795 O 0.85118 0.50323 0.63305 0.0
O796 O 0.90089 0.48852 0.60719 0.0
O797 O 0.87565 0.49339 0.60815 0.0
Co798 Co 0.75414 0.65545 0.88563 0.0
O799 O 0.76371 0.66315 0.86679 0.0
O800 O 0.76293 0.63801 0.87403 0.0
C801 C 0.73162 0.66846 0.88359 0.0
O802 O 0.74443 0.64328 0.90379 0.0
Co803 Co 0.74797 0.67877 0.91284 0.0
O804 O 0.73622 0.66082 0.92195 0.0
C805 C 0.77982 0.66752 0.90787 0.0
C806 C 0.7671 0.64857 0.86372 0.0
C807 C 0.73711 0.64685 0.91654 0.0
O808 O 0.77437 0.65822 0.89728 0.0
O809 O 0.77135 0.67763 0.9151 0.0
O810 O 0.73393 0.65554 0.87575 0.0
O811 O 0.74375 0.67435 0.89068 0.0
Co812 Co 0.60422 0.4948 0.12405 0.0
O813 O 0.59699 0.47827 0.11064 0.0
O814 O 0.58722 0.48369 0.13426 0.0
C815 C 0.60525 0.51292 0.10487 0.0
O816 O 0.60851 0.51129 0.14092 0.0
Co817 Co 0.63652 0.51037 0.1184 0.0
O818 O 0.62793 0.52697 0.13243 0.0
C819 C 0.63482 0.47938 0.13402 0.0
C820 C 0.58689 0.47505 0.12158 0.0
C821 C 0.61695 0.52378 0.14207 0.0
O822 O 0.61981 0.48017 0.13386 0.0
O823 O 0.64372 0.48987 0.12788 0.0
O824 O 0.5921 0.5101 0.11202 0.0
O825 O 0.61692 0.50411 0.10884 0.0
Co826 Co 0.73563 0.34043 0.37924 0.0
O827 O 0.71976 0.33583 0.36401 0.0
O828 O 0.72728 0.35987 0.37112 0.0
C829 C 0.75385 0.32374 0.37049 0.0
O830 O 0.75195 0.34964 0.39403 0.0
Co831 Co 0.74564 0.31493 0.40329 0.0
O832 O 0.76377 0.32928 0.40611 0.0
C833 C 0.71611 0.33174 0.40826 0.0
C834 C 0.71839 0.35099 0.36241 0.0
C835 C 0.76309 0.34381 0.40239 0.0
O836 O 0.71952 0.34038 0.39634 0.0
O837 O 0.72465 0.3202 0.41281 0.0
O838 O 0.75175 0.33727 0.36367 0.0
O839 O 0.74349 0.31984 0.38098 0.0
Co840 Co 0.89958 0.49702 0.8669 0.0
O841 O 0.90881 0.47709 0.87174 0.0
O842 O 0.91637 0.49277 0.85216 0.0
C843 C 0.8989 0.50632 0.89165 0.0
O844 O 0.89271 0.5184 0.85871 0.0
Co845 Co 0.86659 0.50474 0.88053 0.0
O846 O 0.87123 0.52607 0.87201 0.0
C847 C 0.86966 0.48256 0.85417 0.0
C848 C 0.91804 0.47964 0.8599 0.0
C849 C 0.88215 0.52868 0.86208 0.0
O850 O 0.88412 0.48639 0.85265 0.0
O851 O 0.86096 0.48726 0.86552 0.0
O852 O 0.9117 0.50735 0.88345 0.0
O853 O 0.88774 0.49829 0.88528 0.0
Co854 Co 0.73785 0.65264 0.10711 0.0
O855 O 0.72969 0.65678 0.12773 0.0
O856 O 0.73241 0.63297 0.11716 0.0
C857 C 0.75849 0.66859 0.10878 0.0
O858 O 0.74691 0.64379 0.08686 0.0
Co859 Co 0.73909 0.67896 0.08205 0.0
O860 O 0.7524 0.66378 0.07034 0.0
C861 C 0.70919 0.66329 0.08819 0.0
C862 C 0.72841 0.64162 0.12917 0.0
C863 C 0.75316 0.6493 0.07423 0.0
O864 O 0.71632 0.65392 0.09767 0.0
O865 O 0.71596 0.67491 0.08142 0.0
O866 O 0.75897 0.65458 0.11492 0.0
O867 O 0.74507 0.67326 0.10344 0.0
Co868 Co 0.60819 0.50428 0.37449 0.0
O869 O 0.6035 0.52243 0.38711 0.0
O870 O 0.59148 0.51612 0.3648 0.0
C871 C 0.60923 0.48724 0.39469 0.0
O872 O 0.60926 0.48643 0.35856 0.0
Co873 Co 0.63911 0.4858 0.37819 0.0
O874 O 0.62815 0.46947 0.36556 0.0
C875 C 0.63914 0.51626 0.36143 0.0
C876 C 0.59287 0.52572 0.37668 0.0
C877 C 0.61641 0.47319 0.35709 0.0
O878 O 0.62415 0.51671 0.36242 0.0
O879 O 0.64745 0.50536 0.36769 0.0
O880 O 0.59584 0.49102 0.38848 0.0
O881 O 0.6213 0.49462 0.38927 0.0
Co882 Co 0.7549 0.33816 0.61561 0.0
O883 O 0.77008 0.3315 0.6308 0.0
O884 O 0.76549 0.35636 0.62403 0.0
C885 C 0.73481 0.32377 0.62425 0.0
O886 O 0.73961 0.3493 0.60092 0.0
Co887 Co 0.74229 0.31401 0.59144 0.0
O888 O 0.72556 0.33009 0.58935 0.0
C889 C 0.77333 0.32761 0.5864 0.0
C890 C 0.77316 0.34635 0.63271 0.0
C891 C 0.72767 0.3445 0.593 0.0
O892 O 0.77091 0.33638 0.59848 0.0
O893 O 0.76358 0.31716 0.58172 0.0
O894 O 0.73855 0.33687 0.63119 0.0
O895 O 0.74468 0.31866 0.61379 0.0
Co896 Co 0.63386 0.90642 0.49728 0.0
O897 O 0.61557 0.9135 0.48624 0.0
O898 O 0.62362 0.88867 0.4875 0.0
C899 C 0.63001 0.91946 0.51987 0.0
O900 O 0.65165 0.8947 0.50799 0.0
Co901 Co 0.65976 0.93051 0.50572 0.0
O902 O 0.66951 0.91227 0.51653 0.0
C903 C 0.65755 0.9192 0.47326 0.0
C904 C 0.61344 0.89885 0.48236 0.0
C905 C 0.66435 0.89824 0.51528 0.0
O906 O 0.64677 0.90967 0.47777 0.0
O907 O 0.66377 0.92942 0.4824 0.0
O908 O 0.62272 0.90633 0.51709 0.0
O909 O 0.6377 0.92538 0.5081 0.0
Co910 Co 0.13156 0.59472 0.5006 0.0
O911 O 0.11544 0.58855 0.51501 0.0
O912 O 0.12209 0.61327 0.50981 0.0
C913 C 0.12464 0.57889 0.48066 0.0
O914 O 0.14727 0.60536 0.48596 0.0
Co915 Co 0.15667 0.57029 0.49071 0.0
O916 O 0.16025 0.58585 0.47362 0.0
C917 C 0.15894 0.5851 0.52186 0.0
C918 C 0.1132 0.60346 0.51748 0.0
C919 C 0.15641 0.6003 0.475 0.0
O920 O 0.14727 0.59388 0.51813 0.0
O921 O 0.16425 0.57423 0.51286 0.0
O922 O 0.11747 0.59219 0.48291 0.0
O923 O 0.13439 0.57472 0.4916 0.0
Co924 Co 0.63684 0.87332 0.7388 0.0
O925 O 0.64127 0.86237 0.71964 0.0
O926 O 0.65388 0.88367 0.72784 0.0
C927 C 0.63547 0.85179 0.75396 0.0
O928 O 0.63559 0.88735 0.75829 0.0
Co929 Co 0.6051 0.86805 0.75544 0.0
O930 O 0.61622 0.87785 0.77348 0.0
C931 C 0.60641 0.88848 0.72756 0.0
C932 C 0.65211 0.87275 0.71718 0.0
C933 C 0.62804 0.88677 0.77142 0.0
O934 O 0.62133 0.88681 0.72742 0.0
O935 O 0.59745 0.88148 0.73743 0.0
O936 O 0.64894 0.85812 0.75075 0.0
O937 O 0.62349 0.85779 0.74681 0.0
Co938 Co 0.3677 0.40055 0.9972 0.0
O939 O 0.38335 0.40682 0.01214 0.0
O940 O 0.37677 0.38209 0.00674 0.0
C941 C 0.37515 0.41625 0.97736 0.0
O942 O 0.35269 0.38954 0.98223 0.0
Co943 Co 0.34265 0.42427 0.98568 0.0
O944 O 0.33979 0.4083 0.96879 0.0
C945 C 0.33937 0.41013 0.01711 0.0
C946 C 0.38547 0.39187 0.01463 0.0
C947 C 0.34388 0.394 0.97079 0.0
O948 O 0.35135 0.40149 0.01414 0.0
O949 O 0.33425 0.42065 0.00758 0.0
O950 O 0.38236 0.40304 0.97998 0.0
O951 O 0.36495 0.42041 0.98787 0.0
Co952 Co 0.35666 0.62295 0.74335 0.0
O953 O 0.35192 0.63609 0.72562 0.0
O954 O 0.33992 0.61361 0.73123 0.0
C955 C 0.35788 0.64261 0.76093 0.0
O956 O 0.35806 0.60651 0.76076 0.0
Co957 Co 0.38796 0.62637 0.76143 0.0
O958 O 0.37709 0.61349 0.77762 0.0
C959 C 0.38753 0.61046 0.73057 0.0
C960 C 0.3414 0.62571 0.72192 0.0
C961 C 0.36543 0.60492 0.77388 0.0
O962 O 0.37253 0.61135 0.73044 0.0
O963 O 0.39605 0.61641 0.74148 0.0
O964 O 0.34441 0.63657 0.75715 0.0
O965 O 0.36983 0.63737 0.75323 0.0
Co966 Co 0.86158 0.08463 0.99351 0.0
O967 O 0.87535 0.07738 0.97717 0.0
O968 O 0.86885 0.10234 0.98136 0.0
C969 C 0.87217 0.07097 0.01342 0.0
O970 O 0.84839 0.09661 0.00953 0.0
Co971 Co 0.83929 0.06146 0.01072 0.0
O972 O 0.83869 0.07873 0.02647 0.0
C973 C 0.83033 0.07395 0.97963 0.0
C974 C 0.877 0.09212 0.97343 0.0
C975 C 0.84171 0.09292 0.02261 0.0
O976 O 0.84301 0.08207 0.97926 0.0
O977 O 0.82673 0.06462 0.99092 0.0
O978 O 0.87855 0.08399 0.00861 0.0
O979 O 0.86081 0.06563 0.00482 0.0
Co980 Co 0.64923 0.11995 0.74818 0.0
O981 O 0.6594 0.12712 0.76688 0.0
O982 O 0.66653 0.10598 0.75319 0.0
C983 C 0.6478 0.14375 0.73675 0.0
O984 O 0.64148 0.1096 0.72801 0.0
Co985 Co 0.61574 0.13247 0.74073 0.0
O986 O 0.61988 0.12247 0.71995 0.0
C987 C 0.61997 0.10767 0.76454 0.0
C988 C 0.66891 0.11539 0.76508 0.0
C989 C 0.63063 0.11225 0.71782 0.0
O990 O 0.63451 0.10656 0.76084 0.0
O991 O 0.61077 0.11821 0.75901 0.0
O992 O 0.66058 0.13552 0.73572 0.0
O993 O 0.63706 0.13801 0.74576 0.0
Co994 Co 0.85668 0.8768 0.25005 0.0
O995 O 0.85036 0.86512 0.26818 0.0
O996 O 0.83878 0.88695 0.25982 0.0
C997 C 0.8593 0.85588 0.23421 0.0
O998 O 0.85993 0.89155 0.23136 0.0
Co999 Co 0.88983 0.87165 0.23636 0.0
O1000 O 0.88023 0.88179 0.21763 0.0
C1001 C 0.88606 0.89108 0.26475 0.0
C1002 C 0.83945 0.87555 0.27008 0.0
C1003 C 0.86847 0.89094 0.21887 0.0
O1004 O 0.87117 0.88962 0.26344 0.0
O1005 O 0.89582 0.88431 0.25552 0.0
O1006 O 0.84564 0.86225 0.23635 0.0
O1007 O 0.87056 0.86141 0.24275 0.0
Co1008 Co 0.50018 0.3636 0.09468 0.0
O1009 O 0.51126 0.38159 0.08699 0.0
O1010 O 0.50976 0.37462 0.11216 0.0
C1011 C 0.47814 0.36741 0.08094 0.0
O1012 O 0.48918 0.34625 0.10689 0.0
Co1013 Co 0.49198 0.33679 0.07137 0.0
O1014 O 0.48078 0.3278 0.08974 0.0
C1015 C 0.52408 0.33928 0.08298 0.0
C1016 C 0.51493 0.38442 0.10157 0.0
C1017 C 0.48184 0.33345 0.10362 0.0
O1018 O 0.51951 0.35035 0.09222 0.0
O1019 O 0.51512 0.33282 0.07278 0.0
O1020 O 0.48064 0.37503 0.09397 0.0
O1021 O 0.48979 0.3592 0.07564 0.0
Co1022 Co 0.38138 0.75433 0.84724 0.0
O1023 O 0.36913 0.77192 0.84036 0.0
O1024 O 0.3715 0.76401 0.86521 0.0
C1025 C 0.37276 0.73731 0.82894 0.0
O1026 O 0.39245 0.7365 0.85873 0.0
Co1027 Co 0.40642 0.73908 0.8254 0.0
O1028 O 0.4049 0.72155 0.84081 0.0
C1029 C 0.4138 0.76845 0.84264 0.0
C1030 C 0.36517 0.77356 0.85505 0.0
C1031 C 0.39986 0.72393 0.85475 0.0
O1032 O 0.40037 0.76814 0.84951 0.0
O1033 O 0.41808 0.75844 0.83219 0.0
O1034 O 0.36453 0.73995 0.84153 0.0
O1035 O 0.38499 0.74607 0.82716 0.0
Co1036 Co 0.99761 0.63016 0.5975 0.0
O1037 O 0.98522 0.61327 0.58917 0.0
O1038 O 0.98762 0.61896 0.61459 0.0
C1039 C 0.01926 0.62577 0.58321 0.0
O1040 O 0.00969 0.64621 0.61045 0.0
Co1041 Co 0.00734 0.6576 0.57547 0.0
O1042 O 0.01861 0.66536 0.59437 0.0
C1043 C 0.9753 0.65672 0.5876 0.0
C1044 C 0.98154 0.61009 0.60368 0.0
C1045 C 0.01738 0.65897 0.60791 0.0
O1046 O 0.97915 0.64475 0.59604 0.0
O1047 O 0.98458 0.66312 0.57765 0.0
O1048 O 0.01646 0.6176 0.59584 0.0
O1049 O 0.00805 0.63493 0.57856 0.0
Co1050 Co 0.11739 0.23955 0.34457 0.0
O1051 O 0.1337 0.2246 0.34086 0.0
O1052 O 0.12401 0.23077 0.36442 0.0
C1053 C 0.12695 0.25869 0.32936 0.0
O1054 O 0.10106 0.25462 0.35307 0.0
Co1055 Co 0.09573 0.25052 0.31758 0.0
O1056 O 0.09021 0.26752 0.33271 0.0
C1057 C 0.09025 0.21963 0.33221 0.0
C1058 C 0.1339 0.22269 0.35605 0.0
C1059 C 0.09254 0.26574 0.34744 0.0
O1060 O 0.10136 0.22255 0.34199 0.0
O1061 O 0.0864 0.229 0.32103 0.0
O1062 O 0.1321 0.25683 0.34363 0.0
O1063 O 0.1174 0.24805 0.32414 0.0
Co1064 Co 0.49999 0.63167 0.40485 0.0
O1065 O 0.51462 0.61661 0.41295 0.0
O1066 O 0.51029 0.62112 0.38755 0.0
C1067 C 0.47989 0.62527 0.4205 0.0
O1068 O 0.48546 0.64589 0.39221 0.0
Co1069 Co 0.48808 0.6586 0.42632 0.0
O1070 O 0.47176 0.66023 0.40972 0.0
C1071 C 0.51952 0.66091 0.41266 0.0
C1072 C 0.51787 0.61336 0.39836 0.0
C1073 C 0.47406 0.65513 0.39578 0.0
O1074 O 0.51671 0.6482 0.40497 0.0
O1075 O 0.50987 0.6669 0.42254 0.0
O1076 O 0.48288 0.61705 0.40794 0.0
O1077 O 0.49015 0.6359 0.42417 0.0
Co1078 Co 0.11544 0.74991 0.14456 0.0
O1079 O 0.13104 0.76559 0.14801 0.0
O1080 O 0.12384 0.75655 0.12448 0.0
C1081 C 0.12376 0.73287 0.16283 0.0
O1082 O 0.09999 0.73346 0.13673 0.0
Co1083 Co 0.09177 0.74235 0.17132 0.0
O1084 O 0.08758 0.7236 0.15796 0.0
C1085 C 0.0879 0.77132 0.15277 0.0
C1086 C 0.13268 0.76585 0.13281 0.0
C1087 C 0.09102 0.72323 0.14333 0.0
O1088 O 0.09902 0.76675 0.14366 0.0
O1089 O 0.08372 0.76376 0.16514 0.0
O1090 O 0.13038 0.73328 0.14906 0.0
O1091 O 0.11368 0.74389 0.16565 0.0
Co1092 Co 0.00077 0.37215 0.89346 0.0
O1093 O 0.98836 0.39048 0.8977 0.0
O1094 O 0.99288 0.38064 0.87388 0.0
C1095 C 0.02091 0.37867 0.90916 0.0
O1096 O 0.01374 0.35421 0.88445 0.0
Co1097 Co 0.00859 0.34821 0.9199 0.0
O1098 O 0.02548 0.34229 0.90494 0.0
C1099 C 0.97764 0.34691 0.90473 0.0
C1100 C 0.98661 0.39159 0.88254 0.0
C1101 C 0.0242 0.34497 0.89021 0.0
O1102 O 0.98188 0.35805 0.89536 0.0
O1103 O 0.98631 0.34174 0.91591 0.0
O1104 O 0.01967 0.38473 0.89516 0.0
O1105 O 0.00916 0.37024 0.91383 0.0
Co1106 Co 0.37642 0.24069 0.65138 0.0
O1107 O 0.36399 0.22294 0.65742 0.0
O1108 O 0.36854 0.23048 0.63275 0.0
C1109 C 0.36579 0.2578 0.66843 0.0
O1110 O 0.38803 0.25854 0.64055 0.0
Co1111 Co 0.39894 0.2572 0.67498 0.0
O1112 O 0.39877 0.27424 0.65892 0.0
C1113 C 0.40837 0.22731 0.65978 0.0
C1114 C 0.36149 0.22097 0.64245 0.0
C1115 C 0.3949 0.27136 0.6447 0.0
O1116 O 0.39585 0.2273 0.65134 0.0
O1117 O 0.41131 0.23765 0.67037 0.0
O1118 O 0.35879 0.25479 0.65518 0.0
O1119 O 0.378 0.24939 0.67148 0.0
Co1120 Co 0.09577 0.50152 0.36282 0.0
O1121 O 0.08826 0.51395 0.38006 0.0
O1122 O 0.11314 0.51219 0.37279 0.0
C1123 C 0.08265 0.47945 0.36856 0.0
O1124 O 0.10771 0.48921 0.3461 0.0
Co1125 Co 0.07194 0.49046 0.33738 0.0
O1126 O 0.09026 0.4788 0.32907 0.0
C1127 C 0.08165 0.52349 0.33817 0.0
C1128 C 0.10272 0.51793 0.3824 0.0
C1129 C 0.10418 0.48059 0.33414 0.0
O1130 O 0.0924 0.51984 0.34815 0.0
O1131 O 0.07126 0.51372 0.33346 0.0
O1132 O 0.09564 0.48271 0.37582 0.0
O1133 O 0.07711 0.49046 0.35963 0.0
Co1134 Co 0.24739 0.34433 0.11444 0.0
O1135 O 0.23343 0.33622 0.13012 0.0
O1136 O 0.23652 0.36157 0.12454 0.0
C1137 C 0.26839 0.32996 0.12105 0.0
O1138 O 0.26117 0.3569 0.0994 0.0
Co1139 Co 0.25948 0.32211 0.08822 0.0
O1140 O 0.27531 0.33906 0.0859 0.0
C1141 C 0.22763 0.33462 0.08582 0.0
C1142 C 0.2296 0.35075 0.13289 0.0
C1143 C 0.27267 0.35316 0.09035 0.0
O1144 O 0.23035 0.34281 0.09825 0.0
O1145 O 0.23753 0.32492 0.07999 0.0
O1146 O 0.26491 0.34268 0.12881 0.0
O1147 O 0.25805 0.3253 0.11088 0.0
Co1148 Co 0.40354 0.49192 0.85834 0.0
O1149 O 0.41125 0.47935 0.8754 0.0
O1150 O 0.38625 0.48142 0.86862 0.0
C1151 C 0.41686 0.51391 0.86381 0.0
O1152 O 0.39143 0.50443 0.8419 0.0
Co1153 Co 0.427 0.50246 0.83243 0.0
O1154 O 0.4088 0.51468 0.82468 0.0
C1155 C 0.41637 0.46975 0.83304 0.0
C1156 C 0.39678 0.47554 0.87802 0.0
C1157 C 0.39493 0.51312 0.82999 0.0
O1158 O 0.40628 0.4736 0.84359 0.0
O1159 O 0.42677 0.47928 0.82786 0.0
O1160 O 0.40404 0.51062 0.87133 0.0
O1161 O 0.42228 0.50286 0.85482 0.0
Co1162 Co 0.2492 0.65476 0.61657 0.0
O1163 O 0.26532 0.66261 0.63018 0.0
O1164 O 0.26139 0.63738 0.62457 0.0
C1165 C 0.22942 0.66894 0.62666 0.0
O1166 O 0.23349 0.64225 0.60356 0.0
Co1167 Co 0.23212 0.67712 0.59324 0.0
O1168 O 0.21674 0.65961 0.59278 0.0
C1169 C 0.26336 0.66494 0.58506 0.0
C1170 C 0.26932 0.64799 0.63222 0.0
C1171 C 0.22067 0.64557 0.59634 0.0
O1172 O 0.26347 0.65679 0.59784 0.0
O1173 O 0.25222 0.67429 0.58125 0.0
O1174 O 0.23401 0.65609 0.63358 0.0
O1175 O 0.23801 0.67369 0.61503 0.0
Co1176 Co 0.08647 0.4875 0.13657 0.0
O1177 O 0.07989 0.47411 0.11963 0.0
O1178 O 0.10452 0.47752 0.12718 0.0
C1179 C 0.07237 0.50869 0.12998 0.0
O1180 O 0.09757 0.50101 0.15297 0.0
Co1181 Co 0.06191 0.49807 0.16146 0.0
O1182 O 0.0794 0.51121 0.16936 0.0
C1183 C 0.07385 0.46579 0.16237 0.0
C1184 C 0.09461 0.47097 0.11754 0.0
C1185 C 0.09345 0.50996 0.1645 0.0
O1186 O 0.08401 0.46955 0.15184 0.0
O1187 O 0.06304 0.47513 0.16699 0.0
O1188 O 0.08555 0.50578 0.12295 0.0
O1189 O 0.06721 0.49771 0.13921 0.0
Co1190 Co 0.24814 0.34141 0.88162 0.0
O1191 O 0.26069 0.33336 0.86474 0.0
O1192 O 0.25753 0.35871 0.87027 0.0
C1193 C 0.22701 0.32639 0.87738 0.0
O1194 O 0.23572 0.35406 0.89766 0.0
Co1195 Co 0.23929 0.31932 0.90929 0.0
O1196 O 0.22748 0.33788 0.91703 0.0
C1197 C 0.27095 0.33233 0.908 0.0
C1198 C 0.26388 0.34794 0.86142 0.0
C1199 C 0.22821 0.35138 0.91051 0.0
O1200 O 0.26669 0.34064 0.89611 0.0
O1201 O 0.26207 0.32209 0.91452 0.0
O1202 O 0.22934 0.33907 0.86914 0.0
O1203 O 0.23837 0.32218 0.88657 0.0
Co1204 Co 0.40098 0.50406 0.63326 0.0
O1205 O 0.40663 0.51742 0.61597 0.0
O1206 O 0.38252 0.51441 0.62525 0.0
C1207 C 0.41425 0.48264 0.6257 0.0
O1208 O 0.3907 0.49083 0.65033 0.0
Co1209 Co 0.42677 0.49282 0.65653 0.0
O1210 O 0.40945 0.48045 0.6659 0.0
C1211 C 0.41595 0.52547 0.65795 0.0
C1212 C 0.39187 0.52092 0.61507 0.0
C1213 C 0.39519 0.48201 0.66179 0.0
O1214 O 0.40487 0.52192 0.64833 0.0
O1215 O 0.42682 0.51585 0.66178 0.0
O1216 O 0.40068 0.48579 0.61956 0.0
O1217 O 0.42016 0.49347 0.63464 0.0
Co1218 Co 0.24887 0.65016 0.37602 0.0
O1219 O 0.23348 0.65787 0.36153 0.0
O1220 O 0.23897 0.63263 0.36548 0.0
C1221 C 0.26816 0.66675 0.3692 0.0
O1222 O 0.26433 0.63791 0.38952 0.0
Co1223 Co 0.2611 0.67169 0.40282 0.0
O1224 O 0.27804 0.65567 0.40351 0.0
C1225 C 0.23021 0.65684 0.40614 0.0
C1226 C 0.2308 0.64322 0.35804 0.0
C1227 C 0.27598 0.64174 0.39831 0.0
O1228 O 0.23273 0.64936 0.3932 0.0
O1229 O 0.23974 0.66706 0.41174 0.0
O1230 O 0.2654 0.65421 0.36087 0.0
O1231 O 0.25811 0.66977 0.38022 0.0
Co1232 Co 0.37135 0.10576 0.49542 0.0
O1233 O 0.38498 0.09984 0.51232 0.0
O1234 O 0.38095 0.12436 0.50405 0.0
C1235 C 0.37936 0.08748 0.47813 0.0
O1236 O 0.35879 0.11642 0.47818 0.0
Co1237 Co 0.34588 0.08296 0.48282 0.0
O1238 O 0.34542 0.09797 0.46482 0.0
C1239 C 0.34105 0.09914 0.51317 0.0
C1240 C 0.38811 0.11477 0.51357 0.0
C1241 C 0.35054 0.11199 0.46633 0.0
O1242 O 0.35339 0.10745 0.51063 0.0
O1243 O 0.3366 0.088 0.50402 0.0
O1244 O 0.38736 0.10037 0.47997 0.0
O1245 O 0.36786 0.08543 0.48781 0.0
Co1246 Co 0.86468 0.3963 0.49103 0.0
O1247 O 0.87952 0.40384 0.47596 0.0
O1248 O 0.87622 0.37872 0.48243 0.0
C1249 C 0.87033 0.41394 0.50984 0.0
O1250 O 0.85091 0.38431 0.50645 0.0
Co1251 Co 0.83724 0.41777 0.50172 0.0
O1252 O 0.83592 0.40209 0.51906 0.0
C1253 C 0.83565 0.40184 0.47088 0.0
C1254 C 0.88381 0.38927 0.47435 0.0
C1255 C 0.84147 0.38823 0.51758 0.0
O1256 O 0.84837 0.39443 0.47412 0.0
O1257 O 0.82977 0.41243 0.47987 0.0
O1258 O 0.87889 0.40142 0.50812 0.0
O1259 O 0.85969 0.41615 0.49923 0.0
Co1260 Co 0.33546 0.11153 0.24294 0.0
O1261 O 0.32786 0.12981 0.2322 0.0
O1262 O 0.35293 0.12362 0.2351 0.0
C1263 C 0.32046 0.11356 0.26431 0.0
O1264 O 0.34751 0.09409 0.254 0.0
Co1265 Co 0.31294 0.08355 0.24853 0.0
O1266 O 0.33058 0.07504 0.26113 0.0
C1267 C 0.3255 0.08877 0.21692 0.0
C1268 C 0.34242 0.13331 0.22968 0.0
C1269 C 0.34421 0.08112 0.26108 0.0
O1270 O 0.33463 0.0993 0.22269 0.0
O1271 O 0.3149 0.08187 0.22503 0.0
O1272 O 0.33324 0.12175 0.26317 0.0
O1273 O 0.31611 0.10597 0.25182 0.0
Co1274 Co 0.62556 0.59611 0.99198 0.0
O1275 O 0.6143 0.59072 0.97321 0.0
O1276 O 0.61714 0.61496 0.98264 0.0
C1277 C 0.61505 0.57747 0.00745 0.0
O1278 O 0.63558 0.60621 0.01123 0.0
Co1279 Co 0.64846 0.5727 0.00819 0.0
O1280 O 0.64589 0.58717 0.0264 0.0
C1281 C 0.6587 0.59051 0.98004 0.0
C1282 C 0.61097 0.60562 0.9722 0.0
C1283 C 0.64151 0.60137 0.0243 0.0
O1284 O 0.64564 0.59809 0.97966 0.0
O1285 O 0.66174 0.57955 0.98995 0.0
O1286 O 0.60748 0.59047 0.00482 0.0
O1287 O 0.62777 0.57556 -0.00054 0.0
Co1288 Co 0.64722 0.38582 0.24394 0.0
O1289 O 0.65513 0.36903 0.23126 0.0
O1290 O 0.63014 0.37604 0.23259 0.0
C1291 C 0.65975 0.37961 0.26619 0.0
O1292 O 0.63503 0.40215 0.25654 0.0
Co1293 Co 0.67096 0.41096 0.25571 0.0
O1294 O 0.65269 0.41824 0.2681 0.0
C1295 C 0.66157 0.41094 0.2226 0.0
C1296 C 0.64079 0.36668 0.22685 0.0
C1297 C 0.63871 0.41345 0.26597 0.0
O1298 O 0.65084 0.40091 0.22604 0.0
O1299 O 0.67187 0.41555 0.23253 0.0
O1300 O 0.64691 0.37238 0.26236 0.0
O1301 O 0.66563 0.38874 0.2555 0.0
Co1302 Co 0.12615 0.89541 0.00106 0.0
O1303 O 0.1115 0.90049 0.01726 0.0
O1304 O 0.11617 0.87632 0.00835 0.0
C1305 C 0.11873 0.91421 0.98411 0.0
O1306 O 0.14018 0.88595 0.98416 0.0
Co1307 Co 0.15167 0.91981 0.99171 0.0
O1308 O 0.15364 0.90584 0.97303 0.0
C1309 C 0.15554 0.90115 0.02073 0.0
C1310 C 0.10831 0.88555 0.0177 0.0
C1311 C 0.1491 0.89154 0.9733 0.0
O1312 O 0.1432 0.89323 0.01719 0.0
O1313 O 0.16041 0.9129 0.01261 0.0
O1314 O 0.11099 0.90107 0.98494 0.0
O1315 O 0.12951 0.91617 0.99461 0.0
Co1316 Co 0.33849 0.88197 0.25176 0.0
O1317 O 0.33666 0.86563 0.2671 0.0
O1318 O 0.35916 0.87604 0.25917 0.0
C1319 C 0.32242 0.87162 0.23377 0.0
O1320 O 0.34444 0.89871 0.23556 0.0
Co1321 Co 0.3089 0.90178 0.244 0.0
O1322 O 0.32166 0.90719 0.22521 0.0
C1323 C 0.32581 0.90776 0.2735 0.0
C1324 C 0.35179 0.86593 0.26802 0.0
C1325 C 0.33653 0.90603 0.22489 0.0
O1326 O 0.33656 0.89819 0.26895 0.0
O1327 O 0.31319 0.91013 0.26572 0.0
O1328 O 0.33684 0.86693 0.23464 0.0
O1329 O 0.31769 0.88077 0.245 0.0
Co1330 Co 0.15446 0.10895 0.75226 0.0
O1331 O 0.16061 0.12686 0.76455 0.0
O1332 O 0.13632 0.11778 0.76252 0.0
C1333 C 0.16738 0.11492 0.73017 0.0
O1334 O 0.14367 0.09139 0.74011 0.0
Co1335 Co 0.17963 0.08459 0.74198 0.0
O1336 O 0.16207 0.07536 0.72983 0.0
C1337 C 0.16939 0.08529 0.77484 0.0
C1338 C 0.14594 0.12812 0.76835 0.0
C1339 C 0.14789 0.07969 0.73147 0.0
O1340 O 0.15847 0.09493 0.77091 0.0
O1341 O 0.17992 0.08051 0.76526 0.0
O1342 O 0.15401 0.12153 0.73323 0.0
O1343 O 0.17341 0.10661 0.74143 0.0
H1344 H 0.01074 0.16626 0.36328 0.0
H1345 H 0.09885 0.19305 0.3479 0.0
H1346 H 0.04918 0.16084 0.39577 0.0
H1347 H 0.05951 0.21446 0.32422 0.0
H1348 H 0.08128 0.17355 0.35932 0.0
H1349 H 0.02908 0.17701 0.3436 0.0
C1350 C 0.02307 0.16709 0.36613 0.0
C1351 C 0.02851 0.16299 0.38118 0.0
C1352 C 0.07653 0.18234 0.35139 0.0
C1353 C 0.04936 0.17481 0.35887 0.0
C1354 C 0.08655 0.19345 0.34483 0.0
C1355 C 0.08054 0.20563 0.33544 0.0
C1356 C 0.06039 0.1835 0.34867 0.0
C1357 C 0.06457 0.20538 0.33159 0.0
C1358 C 0.03347 0.1732 0.35495 0.0
C1359 C 0.04453 0.16419 0.38437 0.0
N1360 N 0.05493 0.19467 0.33852 0.0
N1361 N 0.05438 0.17006 0.37333 0.0
H1362 H 0.02698 0.80119 0.58251 0.0
H1363 H 0.08645 0.80252 0.65277 0.0
H1364 H 0.0458 0.84412 0.60219 0.0
H1365 H 0.08149 0.76144 0.62325 0.0
H1366 H 0.0728 0.81813 0.63295 0.0
H1367 H 0.04813 0.78641 0.59527 0.0
C1368 C 0.03574 0.80755 0.58918 0.0
C1369 C 0.03439 0.82386 0.5916 0.0
C1370 C 0.07489 0.80576 0.63063 0.0
C1371 C 0.05841 0.80706 0.60633 0.0
C1372 C 0.08261 0.79685 0.64199 0.0
C1373 C 0.08492 0.78069 0.63967 0.0
C1374 C 0.06905 0.79837 0.61702 0.0
C1375 C 0.07988 0.77391 0.62545 0.0
C1376 C 0.04779 0.79911 0.59649 0.0
C1377 C 0.04613 0.8315 0.6003 0.0
N1378 N 0.07187 0.78273 0.61476 0.0
N1379 N 0.05746 0.82301 0.60757 0.0
H1380 H 0.40877 0.79738 0.85614 0.0
H1381 H 0.48964 0.8004 0.89742 0.0
H1382 H 0.44547 0.76522 0.84238 0.0
H1383 H 0.46778 0.84414 0.88382 0.0
H1384 H 0.47181 0.78622 0.87979 0.0
H1385 H 0.42854 0.81428 0.86866 0.0
C1386 C 0.42098 0.794 0.85558 0.0
C1387 C 0.42551 0.77988 0.84828 0.0
C1388 C 0.47106 0.79894 0.88055 0.0
C1389 C 0.4479 0.79883 0.86277 0.0
C1390 C 0.48112 0.80698 0.89063 0.0
C1391 C 0.4801 0.82339 0.89197 0.0
C1392 C 0.45962 0.80734 0.87219 0.0
C1393 C 0.46892 0.83146 0.88296 0.0
C1394 C 0.43221 0.80364 0.86264 0.0
C1395 C 0.44148 0.77603 0.84783 0.0
N1396 N 0.45886 0.82331 0.87359 0.0
N1397 N 0.45208 0.7853 0.85528 0.0
H1398 H 0.45729 0.18007 0.07706 0.0
H1399 H 0.40446 0.18764 0.15306 0.0
H1400 H 0.44883 0.14206 0.10983 0.0
H1401 H 0.40671 0.22375 0.11733 0.0
H1402 H 0.41743 0.16942 0.13513 0.0
H1403 H 0.43571 0.19474 0.089 0.0
C1404 C 0.45071 0.17465 0.08653 0.0
C1405 C 0.45515 0.15995 0.09269 0.0
C1406 C 0.4149 0.18124 0.13107 0.0
C1407 C 0.43055 0.17676 0.1065 0.0
C1408 C 0.40752 0.19166 0.14134 0.0
C1409 C 0.40476 0.20729 0.13676 0.0
C1410 C 0.41987 0.18656 0.1162 0.0
C1411 C 0.40873 0.21181 0.12135 0.0
C1412 C 0.4384 0.18307 0.09337 0.0
C1413 C 0.44609 0.15349 0.10489 0.0
N1414 N 0.41639 0.20158 0.11171 0.0
N1415 N 0.43441 0.16204 0.11155 0.0
H1416 H 0.04588 0.83281 0.08754 0.0
H1417 H 0.05937 0.78157 0.16383 0.0
H1418 H 0.01225 0.83119 0.12542 0.0
H1419 H 0.09575 0.79297 0.13036 0.0
H1420 H 0.04285 0.80193 0.15197 0.0
H1421 H 0.0652 0.82055 0.1047 0.0
C1422 C 0.04264 0.82998 0.09957 0.0
C1423 C 0.02744 0.83274 0.10505 0.0
C1424 C 0.05455 0.80015 0.14743 0.0
C1425 C 0.04938 0.81849 0.12473 0.0
C1426 C 0.064 0.78853 0.15419 0.0
C1427 C 0.07882 0.78529 0.14783 0.0
C1428 C 0.05998 0.80847 0.1342 0.0
C1429 C 0.08426 0.79477 0.13543 0.0
C1430 C 0.05368 0.82304 0.1094 0.0
C1431 C 0.02387 0.82913 0.12078 0.0
N1432 N 0.07476 0.80575 0.12888 0.0
N1433 N 0.0347 0.82187 0.13002 0.0
H1434 H 0.41685 0.76462 0.38063 0.0
H1435 H 0.4542 0.84971 0.39439 0.0
H1436 H 0.41274 0.8041 0.3489 0.0
H1437 H 0.47225 0.80765 0.41654 0.0
H1438 H 0.43256 0.83439 0.38376 0.0
H1439 H 0.43109 0.78158 0.39933 0.0
C1440 C 0.41865 0.77693 0.37779 0.0
C1441 C 0.41387 0.78299 0.36318 0.0
C1442 C 0.44113 0.82855 0.39114 0.0
C1443 C 0.42984 0.80231 0.38437 0.0
C1444 C 0.4535 0.83728 0.39723 0.0
C1445 C 0.46529 0.82986 0.40604 0.0
C1446 C 0.44055 0.81225 0.39377 0.0
C1447 C 0.46353 0.8138 0.40963 0.0
C1448 C 0.42679 0.78655 0.3884 0.0
C1449 C 0.41647 0.79896 0.35997 0.0
N1450 N 0.45153 0.80543 0.40322 0.0
N1451 N 0.42435 0.80804 0.37044 0.0
H1452 H 0.43975 0.23055 0.66433 0.0
H1453 H 0.46417 0.15155 0.62022 0.0
H1454 H 0.40517 0.19815 0.64626 0.0
H1455 H 0.48606 0.19641 0.61121 0.0
H1456 H 0.44599 0.16463 0.63862 0.0
H1457 H 0.46039 0.21359 0.65381 0.0
C1458 C 0.4365 0.21968 0.6585 0.0
C1459 C 0.42073 0.21582 0.65595 0.0
C1460 C 0.45501 0.17146 0.63283 0.0
C1461 C 0.44424 0.19642 0.64416 0.0
C1462 C 0.46536 0.16406 0.62246 0.0
C1463 C 0.47645 0.17304 0.61425 0.0
C1464 C 0.45617 0.18777 0.6352 0.0
C1465 C 0.47754 0.1892 0.61731 0.0
C1466 C 0.44828 0.21008 0.65248 0.0
C1467 C 0.4172 0.20163 0.64826 0.0
N1468 N 0.46749 0.19609 0.62758 0.0
N1469 N 0.4289 0.19243 0.64253 0.0
H1470 H 0.09552 0.20214 0.87777 0.0
H1471 H 0.01155 0.19067 0.91729 0.0
H1472 H 0.05457 0.22854 0.8643 0.0
H1473 H 0.04147 0.15133 0.90585 0.0
H1474 H 0.03156 0.20863 0.90701 0.0
H1475 H 0.07947 0.18734 0.89691 0.0
C1476 C 0.08324 0.20501 0.87913 0.0
C1477 C 0.0762 0.21636 0.86948 0.0
C1478 C 0.03384 0.19608 0.90715 0.0
C1479 C 0.05813 0.19999 0.89129 0.0
C1480 C 0.02252 0.18584 0.91307 0.0
C1481 C 0.02482 0.16951 0.91219 0.0
C1482 C 0.04762 0.18991 0.90063 0.0
C1483 C 0.03919 0.16386 0.90652 0.0
C1484 C 0.07415 0.19661 0.88996 0.0
C1485 C 0.0603 0.21972 0.8715 0.0
N1486 N 0.05005 0.17406 0.90081 0.0
N1487 N 0.05175 0.21154 0.88221 0.0
H1488 H 0.38045 0.04654 0.14648 0.0
H1489 H 0.34658 0.10061 0.19567 0.0
H1490 H 0.33384 0.02924 0.13721 0.0
H1491 H 0.31152 0.06432 0.20104 0.0
H1492 H 0.35504 0.08827 0.17117 0.0
H1493 H 0.36945 0.0665 0.16383 0.0
C1494 C 0.36786 0.04716 0.14786 0.0
C1495 C 0.35805 0.03613 0.14052 0.0
C1496 C 0.34551 0.08302 0.17772 0.0
C1497 C 0.34532 0.0591 0.16023 0.0
C1498 C 0.34056 0.09012 0.19166 0.0
C1499 C 0.32863 0.08321 0.20071 0.0
C1500 C 0.33854 0.06886 0.17288 0.0
C1501 C 0.321 0.06987 0.19465 0.0
C1502 C 0.36155 0.0587 0.15763 0.0
C1503 C 0.34182 0.03751 0.14267 0.0
N1504 N 0.32624 0.06299 0.1812 0.0
N1505 N 0.33597 0.04858 0.15262 0.0
H1506 H 0.19202 0.09551 0.48789 0.0
H1507 H 0.22071 0.12493 0.40445 0.0
H1508 H 0.15878 0.10356 0.45043 0.0
H1509 H 0.23412 0.14968 0.44678 0.0
H1510 H 0.20286 0.10853 0.42018 0.0
H1511 H 0.21262 0.10711 0.47141 0.0
C1512 C 0.18915 0.09943 0.47607 0.0
C1513 C 0.17373 0.09867 0.47045 0.0
C1514 C 0.20995 0.11738 0.42597 0.0
C1515 C 0.19713 0.11152 0.45168 0.0
C1516 C 0.22016 0.12662 0.41711 0.0
C1517 C 0.22881 0.1386 0.42443 0.0
C1518 C 0.20881 0.11993 0.44224 0.0
C1519 C 0.22757 0.14055 0.44078 0.0
C1520 C 0.20085 0.10607 0.46679 0.0
C1521 C 0.17054 0.10405 0.45516 0.0
N1522 N 0.21774 0.13124 0.44921 0.0
N1523 N 0.18221 0.11024 0.44622 0.0
H1524 H 0.16497 0.98119 0.64588 0.0
H1525 H 0.14833 0.90308 0.69533 0.0
H1526 H 0.12404 0.95183 0.64065 0.0
H1527 H 0.18446 0.93668 0.7071 0.0
H1528 H 0.14338 0.91745 0.67098 0.0
H1529 H 0.17606 0.96168 0.664 0.0
C1530 C 0.15845 0.97052 0.64831 0.0
C1531 C 0.14344 0.96825 0.642 0.0
C1532 C 0.15252 0.92158 0.67881 0.0
C1533 C 0.15601 0.94599 0.66264 0.0
C1534 C 0.15535 0.91338 0.69273 0.0
C1535 C 0.16658 0.91889 0.70348 0.0
C1536 C 0.16089 0.93543 0.67561 0.0
C1537 C 0.17552 0.93213 0.69929 0.0
C1538 C 0.16476 0.95943 0.65868 0.0
C1539 C 0.13553 0.9542 0.6455 0.0
N1540 N 0.17232 0.9401 0.68578 0.0
N1541 N 0.14184 0.94369 0.6557 0.0
H1542 H 0.27018 0.88299 0.91007 0.0
H1543 H 0.35378 0.88172 0.95215 0.0
H1544 H 0.30217 0.84365 0.90985 0.0
H1545 H 0.31783 0.91579 0.96316 0.0
H1546 H 0.33753 0.87168 0.93083 0.0
H1547 H 0.28996 0.89873 0.92405 0.0
C1548 C 0.28144 0.87777 0.91274 0.0
C1549 C 0.28448 0.86194 0.90911 0.0
C1550 C 0.33328 0.88148 0.93779 0.0
C1551 C 0.30704 0.87978 0.92483 0.0
C1552 C 0.34257 0.88726 0.94997 0.0
C1553 C 0.33702 0.89938 0.95974 0.0
C1554 C 0.3183 0.88781 0.93536 0.0
C1555 C 0.32249 0.90625 0.95611 0.0
C1556 C 0.29267 0.88672 0.92072 0.0
C1557 C 0.29925 0.85573 0.91275 0.0
N1558 N 0.31351 0.9002 0.94435 0.0
N1559 N 0.30992 0.86463 0.9205 0.0
H1560 H 0.3313 0.97766 0.34962 0.0
H1561 H 0.30814 0.93193 0.28565 0.0
H1562 H 0.37656 0.95637 0.34185 0.0
H1563 H 0.35011 0.90492 0.29434 0.0
H1564 H 0.31469 0.94883 0.30784 0.0
H1565 H 0.31972 0.95848 0.33172 0.0
C1566 C 0.33881 0.96894 0.34417 0.0
C1567 C 0.355 0.96883 0.34706 0.0
C1568 C 0.32229 0.93899 0.30522 0.0
C1569 C 0.34188 0.94707 0.32612 0.0
C1570 C 0.31859 0.92937 0.2924 0.0
C1571 C 0.32865 0.91705 0.28799 0.0
C1572 C 0.33614 0.93623 0.31374 0.0
C1573 C 0.34206 0.91435 0.29717 0.0
C1574 C 0.3322 0.95807 0.33377 0.0
C1575 C 0.36408 0.9571 0.33983 0.0
N1576 N 0.34547 0.92396 0.30948 0.0
N1577 N 0.35741 0.94679 0.32963 0.0
H1578 H 0.29746 0.1545 0.5844 0.0
H1579 H 0.31226 0.08708 0.52136 0.0
H1580 H 0.2641 0.11734 0.57594 0.0
H1581 H 0.34732 0.1205 0.53646 0.0
H1582 H 0.29519 0.09616 0.54266 0.0
H1583 H 0.31663 0.14044 0.56856 0.0
C1584 C 0.29425 0.14326 0.57927 0.0
C1585 C 0.27916 0.13713 0.58125 0.0
C1586 C 0.3067 0.10135 0.5414 0.0
C1587 C 0.30098 0.12103 0.56287 0.0
C1588 C 0.31646 0.0962 0.52922 0.0
C1589 C 0.33117 0.10322 0.52692 0.0
C1590 C 0.31168 0.11364 0.55128 0.0
C1591 C 0.336 0.1149 0.53758 0.0
C1592 C 0.30521 0.1352 0.57025 0.0
C1593 C 0.27563 0.12244 0.5746 0.0
N1594 N 0.32622 0.11982 0.54916 0.0
N1595 N 0.28641 0.11497 0.56543 0.0
H1596 H 0.12561 0.04643 0.85486 0.0
H1597 H 0.15553 0.09777 0.80098 0.0
H1598 H 0.16698 0.01806 0.84808 0.0
H1599 H 0.1822 0.05756 0.7852 0.0
H1600 H 0.15106 0.0846 0.82608 0.0
H1601 H 0.13617 0.06599 0.83705 0.0
C1602 C 0.13711 0.04449 0.84985 0.0
C1603 C 0.14534 0.03051 0.85277 0.0
C1604 C 0.15778 0.07856 0.81712 0.0
C1605 C 0.15779 0.05312 0.83247 0.0
C1606 C 0.16045 0.08615 0.80282 0.0
C1607 C 0.16885 0.07853 0.79083 0.0
C1608 C 0.1632 0.06308 0.81926 0.0
C1609 C 0.17542 0.06373 0.79403 0.0
C1610 C 0.14328 0.05582 0.83978 0.0
C1611 C 0.16023 0.02866 0.84607 0.0
N1612 N 0.17221 0.05634 0.80787 0.0
N1613 N 0.16586 0.03972 0.83595 0.0
H1614 H 0.23395 0.87336 0.07951 0.0
H1615 H 0.14819 0.87833 0.0422 0.0
H1616 H 0.20088 0.83498 0.07763 0.0
H1617 H 0.18505 0.91078 0.02949 0.0
H1618 H 0.16576 0.86594 0.06105 0.0
H1619 H 0.21458 0.89039 0.06637 0.0
C1620 C 0.22259 0.86859 0.07645 0.0
C1621 C 0.21905 0.85272 0.07937 0.0
C1622 C 0.16996 0.87587 0.05424 0.0
C1623 C 0.19696 0.87201 0.06476 0.0
C1624 C 0.15993 0.88299 0.04348 0.0
C1625 C 0.16525 0.89542 0.03398 0.0
C1626 C 0.18546 0.88116 0.05554 0.0
C1627 C 0.18051 0.9011 0.03642 0.0
C1628 C 0.2116 0.87826 0.06897 0.0
C1629 C 0.20418 0.84708 0.07528 0.0
N1630 N 0.19018 0.89378 0.04684 0.0
N1631 N 0.19371 0.85671 0.06817 0.0
H1632 H 0.20108 0.34762 0.09787 0.0
H1633 H 0.16393 0.36518 0.01335 0.0
H1634 H 0.22041 0.32918 0.05461 0.0
H1635 H 0.15672 0.3932 0.05513 0.0
H1636 H 0.17896 0.34615 0.02917 0.0
H1637 H 0.17895 0.35803 0.08311 0.0
C1638 C 0.20056 0.34554 0.08528 0.0
C1639 C 0.21281 0.33784 0.0774 0.0
C1640 C 0.1738 0.35631 0.03489 0.0
C1641 C 0.18751 0.34989 0.06041 0.0
C1642 C 0.16517 0.36709 0.02592 0.0
C1643 C 0.15928 0.38082 0.03297 0.0
C1644 C 0.17627 0.35925 0.051 0.0
C1645 C 0.16126 0.38284 0.04924 0.0
C1646 C 0.18791 0.35151 0.07686 0.0
C1647 C 0.2113 0.33521 0.06112 0.0
N1648 N 0.16967 0.37224 0.05767 0.0
N1649 N 0.199 0.3415 0.05308 0.0
H1650 H 0.65228 0.09687 0.93633 0.0
H1651 H 0.7089 0.16978 0.92775 0.0
H1652 H 0.65645 0.13301 0.97181 0.0
H1653 H 0.70097 0.1352 0.89125 0.0
H1654 H 0.68607 0.15978 0.94185 0.0
H1655 H 0.6661 0.11371 0.91773 0.0
C1656 C 0.65594 0.10849 0.94011 0.0
C1657 C 0.65351 0.11348 0.95568 0.0
C1658 C 0.68915 0.15459 0.9306 0.0
C1659 C 0.66963 0.13276 0.93453 0.0
C1660 C 0.70219 0.16031 0.9225 0.0
C1661 C 0.70715 0.15306 0.90846 0.0
C1662 C 0.68106 0.14147 0.92466 0.0
C1663 C 0.69783 0.14096 0.90219 0.0
C1664 C 0.66382 0.11813 0.92948 0.0
C1665 C 0.65823 0.12872 0.95992 0.0
N1666 N 0.68543 0.13538 0.91047 0.0
N1667 N 0.66639 0.13772 0.94949 0.0
H1668 H 0.08183 0.39689 0.23624 0.0
H1669 H 0.0931 0.4414 0.15415 0.0
H1670 H 0.12125 0.39077 0.20499 0.0
H1671 H 0.05893 0.45521 0.18906 0.0
H1672 H 0.09932 0.41828 0.16992 0.0
H1673 H 0.06945 0.41388 0.21645 0.0
C1674 C 0.08776 0.39892 0.22514 0.0
C1675 C 0.10271 0.39266 0.22235 0.0
C1676 C 0.09034 0.42627 0.17405 0.0
C1677 C 0.08865 0.41193 0.19976 0.0
C1678 C 0.08677 0.4395 0.16505 0.0
C1679 C 0.07573 0.45048 0.17047 0.0
C1680 C 0.0829 0.42403 0.18863 0.0
C1681 C 0.06769 0.44718 0.18453 0.0
C1682 C 0.08072 0.40863 0.21389 0.0
C1683 C 0.10985 0.39561 0.20776 0.0
N1684 N 0.07161 0.43436 0.19327 0.0
N1685 N 0.10281 0.40512 0.19707 0.0
H1686 H 0.77305 0.83511 0.43599 0.0
H1687 H 0.83475 0.90376 0.44465 0.0
H1688 H 0.78865 0.86419 0.39724 0.0
H1689 H 0.82921 0.86808 0.4804 0.0
H1690 H 0.81925 0.88788 0.42657 0.0
H1691 H 0.79472 0.84522 0.45195 0.0
C1692 C 0.78113 0.84343 0.43074 0.0
C1693 C 0.77881 0.84904 0.41533 0.0
C1694 C 0.82156 0.88335 0.43828 0.0
C1695 C 0.80354 0.86066 0.43354 0.0
C1696 C 0.83037 0.89244 0.44861 0.0
C1697 C 0.83306 0.88725 0.46404 0.0
C1698 C 0.81505 0.86908 0.44351 0.0
C1699 C 0.82732 0.87245 0.46856 0.0
C1700 C 0.79351 0.84917 0.43987 0.0
C1701 C 0.78975 0.85972 0.40914 0.0
N1702 N 0.81829 0.86397 0.45841 0.0
N1703 N 0.80148 0.86531 0.41833 0.0
H1704 H 0.88681 0.07542 0.23371 0.0
H1705 H 0.91692 0.05022 0.15217 0.0
H1706 H 0.91078 0.11043 0.20593 0.0
H1707 H 0.9273 0.02108 0.19253 0.0
H1708 H 0.9118 0.07246 0.17001 0.0
H1709 H 0.89832 0.05471 0.21721 0.0
C1710 C 0.89457 0.07867 0.22414 0.0
C1711 C 0.89792 0.0945 0.22105 0.0
C1712 C 0.91548 0.06125 0.17487 0.0
C1713 C 0.91075 0.07112 0.20212 0.0
C1714 C 0.91831 0.04859 0.16477 0.0
C1715 C 0.92247 0.03386 0.17096 0.0
C1716 C 0.91631 0.05891 0.1912 0.0
C1717 C 0.92416 0.0323 0.18733 0.0
C1718 C 0.90117 0.06692 0.21485 0.0
C1719 C 0.90802 0.09827 0.2086 0.0
N1720 N 0.92073 0.04461 0.19695 0.0
N1721 N 0.9139 0.08661 0.19932 0.0
H1722 H 0.29359 0.65612 0.59082 0.0
H1723 H 0.30132 0.61246 0.51214 0.0
H1724 H 0.26133 0.66618 0.55299 0.0
H1725 H 0.34328 0.62816 0.53553 0.0
H1726 H 0.28617 0.63171 0.52729 0.0
H1727 H 0.31227 0.64582 0.57146 0.0
C1728 C 0.29059 0.65646 0.57841 0.0
C1729 C 0.27586 0.66186 0.57348 0.0
C1730 C 0.29874 0.63118 0.52888 0.0
C1731 C 0.29693 0.64982 0.55146 0.0
C1732 C 0.30733 0.62018 0.52032 0.0
C1733 C 0.32348 0.61881 0.52269 0.0
C1734 C 0.30629 0.64045 0.54026 0.0
C1735 C 0.33081 0.62899 0.5334 0.0
C1736 C 0.30126 0.65065 0.5674 0.0
C1737 C 0.27256 0.66211 0.55728 0.0
N1738 N 0.32209 0.63918 0.54212 0.0
N1739 N 0.28286 0.65577 0.54686 0.0
H1740 H 0.07822 0.59579 0.2677 0.0
H1741 H 0.10132 0.54798 0.34519 0.0
H1742 H 0.12094 0.60236 0.29408 0.0
H1743 H 0.06316 0.53508 0.31436 0.0
H1744 H 0.1047 0.57224 0.33024 0.0
H1745 H 0.06884 0.5779 0.2883 0.0
C1746 C 0.0855 0.5937 0.27795 0.0
C1747 C 0.10051 0.6003 0.27905 0.0
C1748 C 0.09547 0.56418 0.32686 0.0
C1749 C 0.0899 0.57992 0.30254 0.0
C1750 C 0.09353 0.55031 0.33539 0.0
C1751 C 0.08218 0.53927 0.3308 0.0
C1752 C 0.08605 0.56703 0.3136 0.0
C1753 C 0.07224 0.54311 0.31818 0.0
C1754 C 0.08016 0.58346 0.28966 0.0
C1755 C 0.10942 0.59726 0.2926 0.0
N1756 N 0.07456 0.55658 0.30986 0.0
N1757 N 0.10405 0.58716 0.30373 0.0
H1758 H 0.39706 0.44558 0.84178 0.0
H1759 H 0.41166 0.39749 0.76237 0.0
H1760 H 0.43218 0.45808 0.80733 0.0
H1761 H 0.37042 0.39336 0.79151 0.0
H1762 H 0.42322 0.41505 0.78208 0.0
H1763 H 0.39147 0.42172 0.82687 0.0
C1764 C 0.40374 0.44324 0.83118 0.0
C1765 C 0.41485 0.45408 0.8256 0.0
C1766 C 0.41174 0.41011 0.78422 0.0
C1767 C 0.40843 0.42676 0.80847 0.0
C1768 C 0.40514 0.40006 0.77302 0.0
C1769 C 0.38994 0.3942 0.77518 0.0
C1770 C 0.40309 0.41418 0.79769 0.0
C1771 C 0.38206 0.39786 0.78922 0.0
C1772 C 0.40052 0.4296 0.82268 0.0
C1773 C 0.42334 0.4502 0.81196 0.0
N1774 N 0.38868 0.40773 0.79988 0.0
N1775 N 0.41979 0.43696 0.80371 0.0
H1776 H 0.89828 0.7937 0.6507 0.0
H1777 H 0.98281 0.83021 0.63464 0.0
H1778 H 0.94026 0.77532 0.67228 0.0
H1779 H 0.94368 0.83249 0.60261 0.0
H1780 H 0.96603 0.81662 0.65393 0.0
H1781 H 0.91361 0.81491 0.63911 0.0
C1782 C 0.91069 0.79426 0.65324 0.0
C1783 C 0.91807 0.78246 0.66214 0.0
C1784 C 0.96111 0.82038 0.64278 0.0
C1785 C 0.93567 0.80673 0.64882 0.0
C1786 C 0.97061 0.82815 0.63184 0.0
C1787 C 0.96459 0.83224 0.617 0.0
C1788 C 0.94549 0.81703 0.63888 0.0
C1789 C 0.94878 0.8293 0.61385 0.0
C1790 C 0.91942 0.80638 0.6466 0.0
C1791 C 0.93413 0.78404 0.66531 0.0
N1792 N 0.9398 0.82181 0.62467 0.0
N1793 N 0.94249 0.79581 0.65839 0.0
H1794 H 0.94717 0.15139 0.39755 0.0
H1795 H 0.9072 0.2353 0.3845 0.0
H1796 H 0.96434 0.19375 0.41989 0.0
H1797 H 0.90778 0.19761 0.35039 0.0
H1798 H 0.92143 0.21826 0.4031 0.0
H1799 H 0.92557 0.16643 0.38645 0.0
C1800 C 0.94628 0.16381 0.40037 0.0
C1801 C 0.95786 0.17142 0.40932 0.0
C1802 C 0.91815 0.21369 0.39165 0.0
C1803 C 0.93309 0.18865 0.3966 0.0
C1804 C 0.91001 0.22333 0.38109 0.0
C1805 C 0.90652 0.21784 0.36588 0.0
C1806 C 0.92245 0.19842 0.387 0.0
C1807 C 0.91045 0.20232 0.36195 0.0
C1808 C 0.93393 0.17237 0.394 0.0
C1809 C 0.95582 0.18746 0.41285 0.0
N1810 N 0.91826 0.19316 0.37243 0.0
N1811 N 0.94379 0.19564 0.40624 0.0
H1812 H 0.51318 0.16516 0.13165 0.0
H1813 H 0.59702 0.20646 0.1349 0.0
H1814 H 0.54596 0.16674 0.09299 0.0
H1815 H 0.55862 0.22206 0.16416 0.0
H1816 H 0.58022 0.1862 0.1238 0.0
H1817 H 0.53151 0.18094 0.14757 0.0
C1818 C 0.52428 0.16868 0.12661 0.0
C1819 C 0.52804 0.16483 0.11096 0.0
C1820 C 0.57552 0.19397 0.13276 0.0
C1821 C 0.54895 0.18247 0.12903 0.0
C1822 C 0.5851 0.20555 0.13915 0.0
C1823 C 0.57915 0.21623 0.15028 0.0
C1824 C 0.55985 0.19296 0.13752 0.0
C1825 C 0.56365 0.21421 0.15547 0.0
C1826 C 0.53466 0.17768 0.13564 0.0
C1827 C 0.54253 0.16965 0.10493 0.0
N1828 N 0.55445 0.20289 0.14891 0.0
N1829 N 0.55245 0.1782 0.11397 0.0
H1830 H 0.60174 0.77382 0.88045 0.0
H1831 H 0.55088 0.85187 0.8889 0.0
H1832 H 0.58472 0.80145 0.84126 0.0
H1833 H 0.55355 0.81568 0.92466 0.0
H1834 H 0.57089 0.83806 0.87382 0.0
H1835 H 0.5913 0.79352 0.8986 0.0
C1836 C 0.59601 0.78413 0.87563 0.0
C1837 C 0.5938 0.78584 0.8593 0.0
C1838 C 0.56729 0.83333 0.88511 0.0
C1839 C 0.58201 0.80842 0.88003 0.0
C1840 C 0.55589 0.84121 0.89379 0.0
C1841 C 0.55015 0.83466 0.90787 0.0
C1842 C 0.57304 0.81887 0.89059 0.0
C1843 C 0.55736 0.82099 0.91371 0.0
C1844 C 0.59007 0.79535 0.88602 0.0
C1845 C 0.58641 0.79951 0.85376 0.0
N1846 N 0.56826 0.81338 0.90489 0.0
N1847 N 0.58064 0.81022 0.86413 0.0
H1848 H 0.93655 0.15285 0.89613 0.0
H1849 H 0.9357 0.21985 0.83133 0.0
H1850 H 0.97671 0.16334 0.86722 0.0
H1851 H 0.89491 0.20374 0.85667 0.0
H1852 H 0.95013 0.19684 0.84104 0.0
H1853 H 0.92029 0.16859 0.87859 0.0
C1854 C 0.94187 0.1583 0.88589 0.0
C1855 C 0.95797 0.157 0.88318 0.0
C1856 C 0.93795 0.19822 0.84423 0.0
C1857 C 0.93956 0.17543 0.86324 0.0
C1858 C 0.9297 0.21135 0.83869 0.0
C1859 C 0.91419 0.21391 0.8435 0.0
C1860 C 0.93059 0.18767 0.85464 0.0
C1861 C 0.90697 0.20246 0.85296 0.0
C1862 C 0.9326 0.1673 0.87586 0.0
C1863 C 0.9643 0.16413 0.86969 0.0
N1864 N 0.91528 0.18999 0.85836 0.0
N1865 N 0.95512 0.17336 0.86037 0.0
H1866 H 0.54222 0.19076 0.57413 0.0
H1867 H 0.58949 0.19469 0.6529 0.0
H1868 H 0.55069 0.15003 0.60346 0.0
H1869 H 0.59331 0.23066 0.61712 0.0
H1870 H 0.5778 0.17708 0.63347 0.0
H1871 H 0.56355 0.20443 0.58753 0.0
C1872 C 0.54878 0.18454 0.58311 0.0
C1873 C 0.54433 0.16938 0.58798 0.0
C1874 C 0.58144 0.18872 0.62977 0.0
C1875 C 0.56857 0.18505 0.60351 0.0
C1876 C 0.58804 0.19881 0.64089 0.0
C1877 C 0.59211 0.21424 0.63668 0.0
C1878 C 0.57857 0.19423 0.61441 0.0
C1879 C 0.5902 0.21888 0.6209 0.0
C1880 C 0.56096 0.19238 0.59079 0.0
C1881 C 0.55341 0.16187 0.59957 0.0
N1882 N 0.58326 0.20902 0.6104 0.0
N1883 N 0.56486 0.1699 0.60718 0.0
H1884 H 0.51596 0.83183 0.3622 0.0
H1885 H 0.5996 0.79365 0.34497 0.0
H1886 H 0.55606 0.835 0.3929 0.0
H1887 H 0.55687 0.77368 0.32656 0.0
H1888 H 0.58459 0.81528 0.35619 0.0
H1889 H 0.53179 0.8165 0.34337 0.0
C1890 C 0.52818 0.82959 0.36478 0.0
C1891 C 0.53475 0.83452 0.37913 0.0
C1892 C 0.57852 0.8063 0.34949 0.0
C1893 C 0.55278 0.81733 0.35775 0.0
C1894 C 0.58707 0.79394 0.34305 0.0
C1895 C 0.57943 0.78162 0.33513 0.0
C1896 C 0.56219 0.80639 0.34805 0.0
C1897 C 0.56321 0.78284 0.33273 0.0
C1898 C 0.53713 0.82082 0.35411 0.0
C1899 C 0.55055 0.83126 0.38203 0.0
N1900 N 0.55504 0.7949 0.33943 0.0
N1901 N 0.55901 0.82284 0.37146 0.0
H1902 H 0.90785 0.75574 0.11612 0.0
H1903 H 0.94633 0.84025 0.10348 0.0
H1904 H 0.91339 0.79054 0.15281 0.0
H1905 H 0.96099 0.79996 0.07603 0.0
H1906 H 0.928 0.82354 0.11762 0.0
H1907 H 0.92199 0.77318 0.09786 0.0
C1908 C 0.91196 0.76707 0.12029 0.0
C1909 C 0.90959 0.7717 0.13601 0.0
C1910 C 0.93512 0.8184 0.10839 0.0
C1911 C 0.92533 0.79164 0.11523 0.0
C1912 C 0.94557 0.82793 0.10024 0.0
C1913 C 0.9555 0.82144 0.08875 0.0
C1914 C 0.93446 0.80227 0.105 0.0
C1915 C 0.9537 0.80543 0.08491 0.0
C1916 C 0.92001 0.77695 0.1099 0.0
C1917 C 0.91514 0.78645 0.14084 0.0
N1918 N 0.94348 0.7963 0.09317 0.0
N1919 N 0.9227 0.79593 0.13047 0.0
H1920 H 0.6019 0.9416 0.84841 0.0
H1921 H 0.6419 0.91587 0.76875 0.0
H1922 H 0.62296 0.97452 0.81614 0.0
H1923 H 0.62191 0.88391 0.80279 0.0
H1924 H 0.64133 0.93683 0.78861 0.0
H1925 H 0.61542 0.92005 0.8351 0.0
C1926 C 0.6098 0.94427 0.83877 0.0
C1927 C 0.61139 0.95972 0.83329 0.0
C1928 C 0.63741 0.92513 0.79184 0.0
C1929 C 0.62632 0.93517 0.81749 0.0
C1930 C 0.6378 0.91314 0.78052 0.0
C1931 C 0.63157 0.89825 0.78403 0.0
C1932 C 0.63075 0.92213 0.80671 0.0
C1933 C 0.62647 0.89535 0.79947 0.0
C1934 C 0.61745 0.93199 0.83109 0.0
C1935 C 0.62156 0.96269 0.82069 0.0
N1936 N 0.62593 0.90723 0.81014 0.0
N1937 N 0.62841 0.95044 0.81295 0.0
H1938 H 0.81102 0.92128 0.5333 0.0
H1939 H 0.80879 0.84881 0.59096 0.0
H1940 H 0.85181 0.89422 0.54633 0.0
H1941 H 0.77057 0.88182 0.58749 0.0
H1942 H 0.82564 0.86751 0.5773 0.0
H1943 H 0.79687 0.90963 0.55554 0.0
C1944 C 0.81711 0.91317 0.54102 0.0
C1945 C 0.8325 0.90842 0.53771 0.0
C1946 C 0.81365 0.87084 0.57974 0.0
C1947 C 0.81637 0.89497 0.56302 0.0
C1948 C 0.80403 0.86013 0.58752 0.0
C1949 C 0.78825 0.86372 0.59014 0.0
C1950 C 0.80734 0.88509 0.57418 0.0
C1951 C 0.78269 0.8786 0.58561 0.0
C1952 C 0.80902 0.9065 0.5537 0.0
C1953 C 0.83983 0.89794 0.54818 0.0
N1954 N 0.79215 0.88864 0.57752 0.0
N1955 N 0.83163 0.89139 0.56018 0.0
H1956 H 0.90252 0.05764 0.35034 0.0
H1957 H 0.8549 0.0821 0.2749 0.0
H1958 H 0.87252 0.0252 0.32562 0.0
H1959 H 0.87956 0.11477 0.30494 0.0
H1960 H 0.85668 0.06217 0.29571 0.0
H1961 H 0.88995 0.07954 0.33673 0.0
C1962 C 0.89299 0.05522 0.34225 0.0
C1963 C 0.88856 0.0397 0.33895 0.0
C1964 C 0.86138 0.07381 0.29787 0.0
C1965 C 0.87447 0.06459 0.32286 0.0
C1966 C 0.86031 0.08522 0.28601 0.0
C1967 C 0.86744 0.09999 0.28805 0.0
C1968 C 0.86966 0.07724 0.31178 0.0
C1969 C 0.87424 0.10341 0.30271 0.0
C1970 C 0.88582 0.0677 0.33444 0.0
C1971 C 0.8762 0.03707 0.32842 0.0
N1972 N 0.87541 0.09205 0.31389 0.0
N1973 N 0.86979 0.04941 0.32044 0.0
H1974 H 0.64457 0.10496 0.03929 0.0
H1975 H 0.72864 0.10864 0.08047 0.0
H1976 H 0.68406 0.07769 0.023 0.0
H1977 H 0.69232 0.14352 0.08563 0.0
H1978 H 0.7107 0.0926 0.06436 0.0
H1979 H 0.66021 0.11428 0.06136 0.0
C1980 C 0.6565 0.10081 0.0404 0.0
C1981 C 0.6631 0.09078 0.02904 0.0
C1982 C 0.70662 0.10364 0.06928 0.0
C1983 C 0.68113 0.10151 0.05438 0.0
C1984 C 0.71678 0.1127 0.07853 0.0
C1985 C 0.71193 0.12744 0.0842 0.0
C1986 C 0.69152 0.10933 0.06596 0.0
C1987 C 0.69653 0.13229 0.0813 0.0
C1988 C 0.66543 0.10614 0.05304 0.0
C1989 C 0.67854 0.08556 0.03136 0.0
N1990 N 0.68692 0.12331 0.07232 0.0
N1991 N 0.68713 0.09117 0.04367 0.0
H1992 H 0.62135 0.02731 0.66281 0.0
H1993 H 0.61228 0.11643 0.69176 0.0
H1994 H 0.58143 0.05711 0.6539 0.0
H1995 H 0.64543 0.08398 0.71232 0.0
H1996 H 0.60567 0.09668 0.67205 0.0
H1997 H 0.63455 0.04971 0.67559 0.0
C1998 C 0.61549 0.03861 0.66333 0.0
C1999 C 0.6002 0.04034 0.65758 0.0
C2000 C 0.61455 0.09394 0.68074 0.0
C2001 C 0.61517 0.06586 0.67189 0.0
C2002 C 0.61836 0.10524 0.692 0.0
C2003 C 0.62917 0.10174 0.70396 0.0
C2004 C 0.6215 0.07898 0.68145 0.0
C2005 C 0.63688 0.08712 0.70344 0.0
C2006 C 0.62299 0.05134 0.67063 0.0
C2007 C 0.59311 0.05521 0.65847 0.0
N2008 N 0.6327 0.07614 0.69253 0.0
N2009 N 0.60061 0.06735 0.66557 0.0
H2010 H 0.68749 0.85782 0.40382 0.0
H2011 H 0.6859 0.92934 0.46169 0.0
H2012 H 0.72536 0.89129 0.40616 0.0
H2013 H 0.6448 0.90272 0.4488 0.0
H2014 H 0.69938 0.91875 0.43857 0.0
H2015 H 0.67056 0.87661 0.41724 0.0
C2016 C 0.69214 0.86927 0.40698 0.0
C2017 C 0.70785 0.87297 0.40414 0.0
C2018 C 0.68729 0.91554 0.4406 0.0
C2019 C 0.68869 0.89445 0.41982 0.0
C2020 C 0.67956 0.92162 0.45379 0.0
C2021 C 0.66435 0.91655 0.45744 0.0
C2022 C 0.67976 0.90425 0.43114 0.0
C2023 C 0.65668 0.90662 0.44669 0.0
C2024 C 0.68248 0.88004 0.4146 0.0
C2025 C 0.7133 0.888 0.40825 0.0
N2026 N 0.66457 0.90055 0.43422 0.0
N2027 N 0.70381 0.8981 0.41625 0.0
H2028 H 0.87853 0.97941 0.17268 0.0
H2029 H 0.87442 0.88696 0.18769 0.0
H2030 H 0.90443 0.94392 0.1474 0.0
H2031 H 0.85767 0.92131 0.22115 0.0
H2032 H 0.87727 0.90775 0.16809 0.0
H2033 H 0.86348 0.95841 0.18586 0.0
C2034 C 0.8807 0.96722 0.16961 0.0
C2035 C 0.89279 0.96325 0.15918 0.0
C2036 C 0.87269 0.91074 0.17962 0.0
C2037 C 0.87579 0.93942 0.17396 0.0
C2038 C 0.87103 0.89886 0.19079 0.0
C2039 C 0.86616 0.90252 0.20614 0.0
C2040 C 0.86975 0.92644 0.1839 0.0
C2041 C 0.86163 0.91807 0.20947 0.0
C2042 C 0.8722 0.95528 0.17714 0.0
C2043 C 0.8953 0.94737 0.15557 0.0
N2044 N 0.86391 0.92958 0.19853 0.0
N2045 N 0.88697 0.93603 0.16305 0.0
H2046 H 0.79875 0.0758 0.98331 0.0
H2047 H 0.78221 0.11261 0.89854 0.0
H2048 H 0.8353 0.08065 0.94856 0.0
H2049 H 0.76446 0.13277 0.94166 0.0
H2050 H 0.79628 0.09267 0.91417 0.0
H2051 H 0.78033 0.08809 0.96485 0.0
C2052 C 0.80276 0.07894 0.9716 0.0
C2053 C 0.81856 0.07737 0.96744 0.0
C2054 C 0.78907 0.10133 0.9201 0.0
C2055 C 0.79765 0.09124 0.94644 0.0
C2056 C 0.78109 0.11265 0.91126 0.0
C2057 C 0.77239 0.12439 0.91892 0.0
C2058 C 0.78789 0.10156 0.93659 0.0
C2059 C 0.77125 0.12401 0.93539 0.0
C2060 C 0.7923 0.08604 0.96118 0.0
C2061 C 0.82322 0.0818 0.95221 0.0
N2062 N 0.77893 0.11275 0.94372 0.0
N2063 N 0.81281 0.08867 0.94225 0.0
H2064 H 0.80289 0.65163 0.89229 0.0
H2065 H 0.84815 0.63658 0.97245 0.0
H2066 H 0.79372 0.67663 0.93566 0.0
H2067 H 0.84517 0.60384 0.93361 0.0
H2068 H 0.83636 0.65691 0.9558 0.0
H2069 H 0.82642 0.6405 0.90408 0.0
C2070 C 0.80601 0.65508 0.90418 0.0
C2071 C 0.79604 0.66466 0.9132 0.0
C2072 C 0.83866 0.64539 0.95083 0.0
C2073 C 0.8229 0.65184 0.92675 0.0
C2074 C 0.84544 0.63378 0.96029 0.0
C2075 C 0.84726 0.61838 0.95449 0.0
C2076 C 0.83384 0.64156 0.93549 0.0
C2077 C 0.84363 0.61546 0.93864 0.0
C2078 C 0.81946 0.6487 0.91089 0.0
C2079 C 0.8009 0.66904 0.92839 0.0
N2080 N 0.83686 0.62688 0.92976 0.0
N2081 N 0.81383 0.66228 0.93484 0.0
H2082 H 0.29868 0.84751 0.10027 0.0
H2083 H 0.34122 0.85828 0.0173 0.0
H2084 H 0.2885 0.81801 0.06003 0.0
H2085 H 0.33406 0.89549 0.05124 0.0
H2086 H 0.32822 0.8398 0.03529 0.0
H2087 H 0.31878 0.86086 0.08495 0.0
C2088 C 0.30087 0.84358 0.08832 0.0
C2089 C 0.29157 0.83188 0.08129 0.0
C2090 C 0.32967 0.85198 0.03881 0.0
C2091 C 0.31455 0.84722 0.06372 0.0
C2092 C 0.33705 0.86252 0.02859 0.0
C2093 C 0.3385 0.87847 0.03273 0.0
C2094 C 0.324 0.85742 0.05334 0.0
C2095 C 0.33296 0.88335 0.0475 0.0
C2096 C 0.31232 0.85128 0.07957 0.0
C2097 C 0.29521 0.82713 0.06585 0.0
N2098 N 0.32592 0.87286 0.05726 0.0
N2099 N 0.30628 0.83502 0.05746 0.0
H2100 H 0.86368 0.55453 0.86716 0.0
H2101 H 0.87279 0.58406 0.77838 0.0
H2102 H 0.898 0.53583 0.8348 0.0
H2103 H 0.83239 0.59162 0.80791 0.0
H2104 H 0.88662 0.5727 0.80114 0.0
H2105 H 0.85721 0.57485 0.84795 0.0
C2106 C 0.87008 0.55486 0.85614 0.0
C2107 C 0.88109 0.54317 0.85242 0.0
C2108 C 0.87482 0.57711 0.80265 0.0
C2109 C 0.87358 0.56633 0.8303 0.0
C2110 C 0.86697 0.5836 0.78971 0.0
C2111 C 0.85135 0.58844 0.79125 0.0
C2112 C 0.86702 0.57573 0.81718 0.0
C2113 C 0.84432 0.58769 0.80616 0.0
C2114 C 0.86635 0.56646 0.84516 0.0
C2115 C 0.88923 0.54443 0.83807 0.0
N2116 N 0.85215 0.58132 0.8185 0.0
N2117 N 0.88508 0.55561 0.82738 0.0
H2118 H 0.15124 0.10008 0.55633 0.0
H2119 H 0.20917 0.17143 0.56051 0.0
H2120 H 0.15353 0.13515 0.51956 0.0
H2121 H 0.19592 0.14369 0.60104 0.0
H2122 H 0.18649 0.16092 0.54628 0.0
H2123 H 0.16502 0.11802 0.57396 0.0
C2124 C 0.15442 0.11169 0.55207 0.0
C2125 C 0.15147 0.11607 0.53644 0.0
C2126 C 0.18837 0.15742 0.5584 0.0
C2127 C 0.16755 0.13656 0.55639 0.0
C2128 C 0.2013 0.16343 0.56653 0.0
C2129 C 0.20465 0.15809 0.58181 0.0
C2130 C 0.17889 0.14596 0.56564 0.0
C2131 C 0.19402 0.14779 0.5891 0.0
C2132 C 0.16226 0.12196 0.56214 0.0
C2133 C 0.15568 0.1313 0.53154 0.0
N2134 N 0.1818 0.14186 0.58086 0.0
N2135 N 0.16384 0.14089 0.54139 0.0
H2136 H 0.14027 0.94759 0.76453 0.0
H2137 H 0.12033 0.94216 0.85187 0.0
H2138 H 0.12784 0.90269 0.78462 0.0
H2139 H 0.10648 0.98314 0.82521 0.0
H2140 H 0.12129 0.92695 0.82739 0.0
H2141 H 0.12611 0.96083 0.78582 0.0
C2142 C 0.13411 0.94056 0.7732 0.0
C2143 C 0.13514 0.9241 0.77291 0.0
C2144 C 0.11763 0.93915 0.82694 0.0
C2145 C 0.11954 0.93906 0.79756 0.0
C2146 C 0.11715 0.94785 0.84089 0.0
C2147 C 0.11353 0.96396 0.84051 0.0
C2148 C 0.11494 0.94677 0.8125 0.0
C2149 C 0.1094 0.97075 0.826 0.0
C2150 C 0.12605 0.94808 0.78533 0.0
C2151 C 0.12717 0.91543 0.78445 0.0
N2152 N 0.11063 0.96222 0.81249 0.0
N2153 N 0.12003 0.92303 0.79661 0.0
H2154 H 0.65568 0.36143 0.48479 0.0
H2155 H 0.69217 0.35068 0.39892 0.0
H2156 H 0.65801 0.39786 0.44939 0.0
H2157 H 0.70864 0.32391 0.43894 0.0
H2158 H 0.67262 0.36306 0.41568 0.0
H2159 H 0.66869 0.34322 0.46641 0.0
C2160 C 0.65869 0.36549 0.47307 0.0
C2161 C 0.65596 0.38118 0.46859 0.0
C2162 C 0.68038 0.35432 0.42075 0.0
C2163 C 0.67048 0.3605 0.44764 0.0
C2164 C 0.69155 0.34722 0.41121 0.0
C2165 C 0.70234 0.33652 0.41764 0.0
C2166 C 0.67993 0.35072 0.43686 0.0
C2167 C 0.70068 0.33224 0.43355 0.0
C2168 C 0.66613 0.35514 0.46266 0.0
C2169 C 0.6601 0.38591 0.45334 0.0
N2170 N 0.68981 0.33956 0.44273 0.0
N2171 N 0.66717 0.37561 0.44342 0.0
H2172 H 0.89606 0.47086 0.66517 0.0
H2173 H 0.85598 0.39171 0.69227 0.0
H2174 H 0.87391 0.43729 0.63416 0.0
H2175 H 0.87625 0.42517 0.7245 0.0
H2176 H 0.86972 0.40445 0.67049 0.0
H2177 H 0.89601 0.45103 0.68617 0.0
C2178 C 0.89159 0.45919 0.66264 0.0
C2179 C 0.88459 0.45582 0.64805 0.0
C2180 C 0.87154 0.40883 0.68235 0.0
C2181 C 0.88441 0.4332 0.67197 0.0
C2182 C 0.86378 0.40148 0.69476 0.0
C2183 C 0.86505 0.4075 0.71005 0.0
C2184 C 0.88019 0.42262 0.68523 0.0
C2185 C 0.8751 0.42022 0.71279 0.0
C2186 C 0.89151 0.44789 0.67465 0.0
C2187 C 0.87906 0.4405 0.64538 0.0
N2188 N 0.88204 0.42764 0.7004 0.0
N2189 N 0.87885 0.42986 0.6573 0.0
H2190 H 0.63648 0.59475 0.21192 0.0
H2191 H 0.61058 0.51382 0.17191 0.0
H2192 H 0.65324 0.54926 0.22699 0.0
H2193 H 0.62165 0.55546 0.14496 0.0
H2194 H 0.61564 0.52858 0.19625 0.0
H2195 H 0.62075 0.58172 0.1914 0.0
C2196 C 0.63645 0.582 0.21119 0.0
C2197 C 0.64617 0.573 0.22099 0.0
C2198 C 0.6165 0.53455 0.18499 0.0
C2199 C 0.62819 0.55819 0.19797 0.0
C2200 C 0.61354 0.52621 0.17114 0.0
C2201 C 0.6159 0.53343 0.15645 0.0
C2202 C 0.62152 0.55025 0.18408 0.0
C2203 C 0.61988 0.54946 0.15608 0.0
C2204 C 0.62757 0.57463 0.19951 0.0
C2205 C 0.64595 0.55656 0.21953 0.0
N2206 N 0.62271 0.55733 0.16973 0.0
N2207 N 0.63713 0.54965 0.20815 0.0
H2208 H 0.55981 0.7162 0.83043 0.0
H2209 H 0.54531 0.66254 0.90562 0.0
H2210 H 0.59524 0.705 0.86502 0.0
H2211 H 0.51231 0.66486 0.86719 0.0
H2212 H 0.56413 0.67711 0.88986 0.0
H2213 H 0.54263 0.69652 0.84248 0.0
C2214 C 0.56406 0.70951 0.84043 0.0
C2215 C 0.57893 0.71247 0.84687 0.0
C2216 C 0.55285 0.67435 0.88475 0.0
C2217 C 0.55932 0.69001 0.86068 0.0
C2218 C 0.54207 0.66609 0.89379 0.0
C2219 C 0.52718 0.66271 0.88775 0.0
C2220 C 0.54867 0.67953 0.86961 0.0
C2221 C 0.52367 0.66732 0.87227 0.0
C2222 C 0.55424 0.69827 0.84728 0.0
C2223 C 0.58382 0.70335 0.85977 0.0
N2224 N 0.53429 0.67575 0.86377 0.0
N2225 N 0.57399 0.69268 0.86632 0.0
H2226 H 0.5481 0.35228 0.09978 0.0
H2227 H 0.59128 0.26967 0.10911 0.0
H2228 H 0.53587 0.31082 0.07295 0.0
H2229 H 0.59165 0.30719 0.1434 0.0
H2230 H 0.57775 0.28722 0.09052 0.0
H2231 H 0.57101 0.33853 0.10991 0.0
C2232 C 0.55038 0.34038 0.09577 0.0
C2233 C 0.53979 0.33253 0.08585 0.0
C2234 C 0.58111 0.29168 0.102 0.0
C2235 C 0.56595 0.3167 0.09755 0.0
C2236 C 0.58887 0.28171 0.11256 0.0
C2237 C 0.59228 0.28696 0.12787 0.0
C2238 C 0.577 0.30697 0.10679 0.0
C2239 C 0.58893 0.30263 0.13179 0.0
C2240 C 0.56347 0.33253 0.10158 0.0
C2241 C 0.54357 0.31724 0.08079 0.0
N2242 N 0.58134 0.31204 0.12138 0.0
N2243 N 0.55619 0.30967 0.08697 0.0
H2244 H 0.97896 0.33842 0.366 0.0
H2245 H 0.89522 0.29685 0.36271 0.0
H2246 H 0.94633 0.33625 0.40476 0.0
H2247 H 0.9325 0.28665 0.32984 0.0
H2248 H 0.91128 0.31752 0.37431 0.0
H2249 H 0.95948 0.32548 0.34909 0.0
C2250 C 0.9676 0.33549 0.37085 0.0
C2251 C 0.9643 0.33813 0.38683 0.0
C2252 C 0.91585 0.31089 0.36442 0.0
C2253 C 0.94209 0.32351 0.36766 0.0
C2254 C 0.90669 0.29907 0.35776 0.0
C2255 C 0.91264 0.28971 0.34549 0.0
C2256 C 0.93109 0.31339 0.35881 0.0
C2257 C 0.92751 0.29339 0.33944 0.0
C2258 C 0.95655 0.32808 0.36123 0.0
C2259 C 0.94943 0.33414 0.39256 0.0
N2260 N 0.93633 0.3048 0.34632 0.0
N2261 N 0.93892 0.32694 0.38301 0.0
H2262 H 0.95079 0.64481 0.6045 0.0
H2263 H 0.91193 0.72931 0.61745 0.0
H2264 H 0.96548 0.68646 0.57927 0.0
H2265 H 0.91067 0.69089 0.65072 0.0
H2266 H 0.92513 0.71193 0.59841 0.0
H2267 H 0.92923 0.65975 0.61586 0.0
C2268 C 0.94933 0.65703 0.6011 0.0
C2269 C 0.96023 0.66451 0.59124 0.0
C2270 C 0.9217 0.70728 0.60978 0.0
C2271 C 0.93561 0.68169 0.60435 0.0
C2272 C 0.91415 0.71715 0.6206 0.0
C2273 C 0.9105 0.71154 0.63572 0.0
C2274 C 0.92529 0.69172 0.61411 0.0
C2275 C 0.91358 0.69572 0.63927 0.0
C2276 C 0.93702 0.66555 0.60763 0.0
C2277 C 0.95751 0.68028 0.58701 0.0
N2278 N 0.92088 0.6864 0.62859 0.0
N2279 N 0.94562 0.68846 0.59384 0.0
H2280 H 0.50657 0.30327 0.6094 0.0
H2281 H 0.58805 0.29966 0.64815 0.0
H2282 H 0.52911 0.34688 0.62211 0.0
H2283 H 0.55184 0.26757 0.66322 0.0
H2284 H 0.56785 0.31692 0.63694 0.0
H2285 H 0.52406 0.28914 0.62743 0.0
C2286 C 0.51509 0.30984 0.6162 0.0
C2287 C 0.51648 0.32617 0.61443 0.0
C2288 C 0.56438 0.30624 0.64299 0.0
C2289 C 0.53666 0.31018 0.63456 0.0
C2290 C 0.57586 0.29637 0.64929 0.0
C2291 C 0.57159 0.28215 0.65653 0.0
C2292 C 0.54865 0.30156 0.64355 0.0
C2293 C 0.55563 0.27845 0.65776 0.0
C2294 C 0.52499 0.30183 0.62648 0.0
C2295 C 0.5277 0.33426 0.62335 0.0
N2296 N 0.54474 0.28794 0.65101 0.0
N2297 N 0.53765 0.32611 0.63285 0.0
H2298 H 0.95433 0.35607 0.88456 0.0
H2299 H 0.91217 0.27203 0.8858 0.0
H2300 H 0.96682 0.31894 0.91704 0.0
H2301 H 0.90708 0.30689 0.84915 0.0
H2302 H 0.92746 0.29113 0.9013 0.0
H2303 H 0.93219 0.34035 0.87568 0.0
C2304 C 0.95232 0.34469 0.88999 0.0
C2305 C 0.96268 0.33871 0.90136 0.0
C2306 C 0.92275 0.29465 0.88998 0.0
C2307 C 0.93734 0.32052 0.89107 0.0
C2308 C 0.91397 0.2838 0.8812 0.0
C2309 C 0.90861 0.28786 0.86611 0.0
C2310 C 0.92596 0.30961 0.88362 0.0
C2311 C 0.91126 0.30322 0.86064 0.0
C2312 C 0.93966 0.3357 0.88489 0.0
C2313 C 0.95927 0.32397 0.90812 0.0
N2314 N 0.91985 0.31347 0.86932 0.0
N2315 N 0.94703 0.31526 0.90269 0.0
H2316 H 0.93697 0.65283 0.09812 0.0
H2317 H 0.92436 0.70318 0.17456 0.0
H2318 H 0.97029 0.65294 0.13633 0.0
H2319 H 0.88763 0.6928 0.14114 0.0
H2320 H 0.94 0.68195 0.16319 0.0
H2321 H 0.91759 0.66465 0.11551 0.0
C2322 C 0.94014 0.65525 0.11025 0.0
C2323 C 0.95529 0.65221 0.11575 0.0
C2324 C 0.92837 0.6841 0.15858 0.0
C2325 C 0.93324 0.66592 0.13572 0.0
C2326 C 0.9194 0.69622 0.16509 0.0
C2327 C 0.90482 0.7001 0.1585 0.0
C2328 C 0.92275 0.67594 0.14534 0.0
C2329 C 0.89896 0.69053 0.14636 0.0
C2330 C 0.92905 0.66191 0.12022 0.0
C2331 C 0.95873 0.65525 0.13163 0.0
N2332 N 0.90807 0.67911 0.13998 0.0
N2333 N 0.94787 0.66227 0.14102 0.0
H2334 H 0.52689 0.69212 0.41786 0.0
H2335 H 0.58803 0.69047 0.34915 0.0
H2336 H 0.54532 0.64909 0.39804 0.0
H2337 H 0.58345 0.73118 0.37921 0.0
H2338 H 0.57362 0.67489 0.36843 0.0
H2339 H 0.54868 0.70662 0.40588 0.0
C2340 C 0.53568 0.68567 0.41131 0.0
C2341 C 0.53407 0.66943 0.40862 0.0
C2342 C 0.57596 0.68716 0.371 0.0
C2343 C 0.55882 0.6859 0.39481 0.0
C2344 C 0.58414 0.69605 0.35996 0.0
C2345 C 0.58677 0.71211 0.36259 0.0
C2346 C 0.56997 0.69449 0.38458 0.0
C2347 C 0.58162 0.71879 0.37681 0.0
C2348 C 0.5481 0.69396 0.40446 0.0
C2349 C 0.54585 0.66167 0.4001 0.0
N2350 N 0.57313 0.71001 0.38717 0.0
N2351 N 0.55756 0.67 0.39329 0.0
H2352 H 0.85486 0.58694 0.70831 0.0
H2353 H 0.83237 0.51241 0.65528 0.0
H2354 H 0.81479 0.55747 0.71812 0.0
H2355 H 0.87519 0.53908 0.65095 0.0
H2356 H 0.82395 0.53026 0.67639 0.0
H2357 H 0.8607 0.57088 0.68543 0.0
C2358 C 0.84726 0.57706 0.70569 0.0
C2359 C 0.83437 0.57349 0.7153 0.0
C2360 C 0.83514 0.53222 0.67072 0.0
C2361 C 0.84106 0.55496 0.6889 0.0
C2362 C 0.83991 0.5221 0.65863 0.0
C2363 C 0.85456 0.52418 0.65143 0.0
C2364 C 0.84505 0.54452 0.6755 0.0
C2365 C 0.86388 0.5369 0.65627 0.0
C2366 C 0.85062 0.56789 0.69255 0.0
C2367 C 0.82491 0.56061 0.71111 0.0
N2368 N 0.85898 0.54652 0.66801 0.0
N2369 N 0.82848 0.55175 0.69823 0.0
H2370 H 0.71651 0.62616 0.90367 0.0
H2371 H 0.69004 0.58898 0.98539 0.0
H2372 H 0.73685 0.6405 0.94793 0.0
H2373 H 0.65617 0.60344 0.95051 0.0
H2374 H 0.71094 0.59967 0.96879 0.0
H2375 H 0.69791 0.60939 0.91818 0.0
C2376 C 0.71732 0.62539 0.9164 0.0
C2377 C 0.72814 0.63461 0.92471 0.0
C2378 C 0.69893 0.60026 0.96472 0.0
C2379 C 0.70725 0.61559 0.94113 0.0
C2380 C 0.68703 0.59415 0.97411 0.0
C2381 C 0.67136 0.59546 0.96933 0.0
C2382 C 0.69516 0.60737 0.95032 0.0
C2383 C 0.6681 0.60235 0.95466 0.0
C2384 C 0.70668 0.61599 0.92462 0.0
C2385 C 0.72863 0.63351 0.94118 0.0
N2386 N 0.67994 0.60807 0.94562 0.0
N2387 N 0.71831 0.62413 0.9489 0.0
H2388 H 0.67999 0.4349 0.2111 0.0
H2389 H 0.62223 0.45055 0.14005 0.0
H2390 H 0.64237 0.40357 0.19789 0.0
H2391 H 0.66348 0.47863 0.14849 0.0
H2392 H 0.6318 0.43109 0.15879 0.0
H2393 H 0.67657 0.44897 0.18622 0.0
C2394 C 0.67115 0.43084 0.20291 0.0
C2395 C 0.66121 0.41824 0.20678 0.0
C2396 C 0.63892 0.44137 0.1564 0.0
C2397 C 0.65723 0.43432 0.17831 0.0
C2398 C 0.63343 0.45249 0.1457 0.0
C2399 C 0.64196 0.46633 0.14294 0.0
C2400 C 0.65288 0.44423 0.16464 0.0
C2401 C 0.6565 0.46815 0.15038 0.0
C2402 C 0.66922 0.43887 0.18868 0.0
C2403 C 0.6501 0.41341 0.19559 0.0
N2404 N 0.66138 0.45737 0.16116 0.0
N2405 N 0.64827 0.42159 0.18198 0.0
H2406 H 0.79307 0.33616 0.4098 0.0
H2407 H 0.80713 0.41266 0.46039 0.0
H2408 H 0.76087 0.37532 0.40914 0.0
H2409 H 0.84357 0.37911 0.44944 0.0
H2410 H 0.79069 0.40061 0.44014 0.0
H2411 H 0.81236 0.35276 0.42287 0.0
C2412 C 0.79012 0.34832 0.41233 0.0
C2413 C 0.7753 0.35434 0.40862 0.0
C2414 C 0.80239 0.39608 0.44201 0.0
C2415 C 0.79726 0.37339 0.42371 0.0
C2416 C 0.81179 0.40295 0.45358 0.0
C2417 C 0.82665 0.39668 0.45689 0.0
C2418 C 0.80784 0.3828 0.43382 0.0
C2419 C 0.8321 0.38418 0.44754 0.0
C2420 C 0.80116 0.35783 0.41971 0.0
C2421 C 0.77216 0.37023 0.4119 0.0
N2422 N 0.8226 0.3775 0.43662 0.0
N2423 N 0.78297 0.37917 0.41953 0.0
H2424 H 0.84273 0.40417 0.79701 0.0
H2425 H 0.87378 0.48585 0.82273 0.0
H2426 H 0.83382 0.44485 0.76783 0.0
H2427 H 0.84982 0.45747 0.85732 0.0
H2428 H 0.86286 0.46927 0.8018 0.0
H2429 H 0.84872 0.42181 0.81919 0.0
C2430 C 0.84192 0.41681 0.79534 0.0
C2431 C 0.83784 0.42313 0.78063 0.0
C2432 C 0.85992 0.46677 0.81397 0.0
C2433 C 0.84494 0.44313 0.80562 0.0
C2434 C 0.8662 0.47611 0.82587 0.0
C2435 C 0.86267 0.47291 0.84167 0.0
C2436 C 0.85047 0.4539 0.81798 0.0
C2437 C 0.85273 0.46026 0.84521 0.0
C2438 C 0.84524 0.42679 0.80796 0.0
C2439 C 0.83688 0.43954 0.77902 0.0
N2440 N 0.84714 0.45098 0.83342 0.0
N2441 N 0.84071 0.44903 0.79132 0.0
H2442 H 0.7716 0.62514 0.08413 0.0
H2443 H 0.80006 0.59846 -0.00071 0.0
H2444 H 0.75652 0.64959 0.04219 0.0
H2445 H 0.83231 0.60182 0.03831 0.0
H2446 H 0.77966 0.6104 0.01579 0.0
H2447 H 0.78971 0.6095 0.068 0.0
C2448 C 0.7719 0.62698 0.07149 0.0
C2449 C 0.76263 0.63865 0.06442 0.0
C2450 C 0.79117 0.60833 0.02072 0.0
C2451 C 0.78303 0.6208 0.04608 0.0
C2452 C 0.80276 0.60147 0.01141 0.0
C2453 C 0.81786 0.59922 0.01749 0.0
C2454 C 0.79465 0.61255 0.0363 0.0
C2455 C 0.82081 0.60347 0.03319 0.0
C2456 C 0.78227 0.61817 0.06237 0.0
C2457 C 0.76355 0.64074 0.04805 0.0
N2458 N 0.80926 0.60989 0.04213 0.0
N2459 N 0.77357 0.63183 0.03938 0.0
H2460 H 0.65382 0.5934 0.2979 0.0
H2461 H 0.66903 0.51616 0.34947 0.0
H2462 H 0.69182 0.56092 0.28935 0.0
H2463 H 0.62704 0.54439 0.35166 0.0
H2464 H 0.6804 0.53537 0.33126 0.0
H2465 H 0.64702 0.5786 0.32155 0.0
C2466 C 0.66087 0.58327 0.30107 0.0
C2467 C 0.67323 0.57823 0.29141 0.0
C2468 C 0.66877 0.53742 0.33588 0.0
C2469 C 0.66541 0.56118 0.31847 0.0
C2470 C 0.66228 0.52648 0.3463 0.0
C2471 C 0.64696 0.52854 0.35191 0.0
C2472 C 0.6599 0.55052 0.33113 0.0
C2473 C 0.63879 0.54218 0.34744 0.0
C2474 C 0.65695 0.57481 0.31458 0.0
C2475 C 0.68206 0.56514 0.2963 0.0
N2476 N 0.64532 0.55257 0.33723 0.0
N2477 N 0.67785 0.55694 0.30938 0.0
H2478 H 0.68415 0.41499 0.53624 0.0
H2479 H 0.69661 0.33949 0.58935 0.0
H2480 H 0.64728 0.38257 0.54893 0.0
H2481 H 0.732 0.37533 0.58411 0.0
H2482 H 0.67763 0.35694 0.57703 0.0
H2483 H 0.70099 0.40279 0.55607 0.0
C2484 C 0.67948 0.4055 0.54335 0.0
C2485 C 0.66436 0.39958 0.54065 0.0
C2486 C 0.68948 0.36113 0.57871 0.0
C2487 C 0.68363 0.38553 0.56328 0.0
C2488 C 0.70034 0.35113 0.58568 0.0
C2489 C 0.71593 0.35591 0.58747 0.0
C2490 C 0.69429 0.37595 0.57317 0.0
C2491 C 0.72009 0.3712 0.58282 0.0
C2492 C 0.68913 0.39853 0.55468 0.0
C2493 C 0.65893 0.38735 0.55035 0.0
N2494 N 0.70937 0.38061 0.57559 0.0
N2495 N 0.66863 0.3806 0.56105 0.0
H2496 H 0.70346 0.84584 0.58975 0.0
H2497 H 0.69564 0.8935 0.51338 0.0
H2498 H 0.73565 0.8372 0.55152 0.0
H2499 H 0.65366 0.87474 0.53439 0.0
H2500 H 0.71114 0.87427 0.52824 0.0
H2501 H 0.68501 0.8575 0.5709 0.0
C2502 C 0.70649 0.84614 0.57735 0.0
C2503 C 0.72109 0.84065 0.57215 0.0
C2504 C 0.69851 0.8742 0.52938 0.0
C2505 C 0.70034 0.85423 0.55077 0.0
C2506 C 0.68972 0.88518 0.52101 0.0
C2507 C 0.67344 0.88562 0.52276 0.0
C2508 C 0.69099 0.864 0.53995 0.0
C2509 C 0.66622 0.87465 0.53275 0.0
C2510 C 0.69597 0.85272 0.56664 0.0
C2511 C 0.72449 0.84128 0.55598 0.0
N2512 N 0.6751 0.86445 0.54129 0.0
N2513 N 0.71433 0.84833 0.54588 0.0
H2514 H 0.22235 0.66542 0.43651 0.0
H2515 H 0.16211 0.59539 0.44402 0.0
H2516 H 0.20607 0.63788 0.39694 0.0
H2517 H 0.16694 0.63036 0.48057 0.0
H2518 H 0.17714 0.61208 0.42626 0.0
H2519 H 0.2012 0.65434 0.45257 0.0
C2520 C 0.21421 0.65726 0.43111 0.0
C2521 C 0.21621 0.65235 0.41541 0.0
C2522 C 0.17477 0.61628 0.43807 0.0
C2523 C 0.1921 0.6396 0.43374 0.0
C2524 C 0.16622 0.60672 0.44822 0.0
C2525 C 0.16344 0.61148 0.46378 0.0
C2526 C 0.18093 0.63058 0.44361 0.0
C2527 C 0.16887 0.62631 0.46863 0.0
C2528 C 0.20214 0.65095 0.4403 0.0
C2529 C 0.20523 0.64181 0.40905 0.0
N2530 N 0.17765 0.63525 0.45864 0.0
N2531 N 0.19382 0.63565 0.41828 0.0
H2532 H 0.57888 0.90528 0.72939 0.0
H2533 H 0.60045 0.95535 0.65256 0.0
H2534 H 0.61883 0.89692 0.69939 0.0
H2535 H 0.56248 0.96803 0.68371 0.0
H2536 H 0.60495 0.93181 0.66809 0.0
H2537 H 0.57023 0.92611 0.71122 0.0
C2538 C 0.58568 0.90766 0.71888 0.0
C2539 C 0.59968 0.89953 0.71598 0.0
C2540 C 0.5956 0.93969 0.67156 0.0
C2541 C 0.58996 0.9232 0.69531 0.0
C2542 C 0.59304 0.95321 0.6627 0.0
C2543 C 0.58121 0.96384 0.66696 0.0
C2544 C 0.58633 0.93672 0.6849 0.0
C2545 C 0.57182 0.96022 0.68008 0.0
C2546 C 0.5808 0.91957 0.70858 0.0
C2547 C 0.60808 0.90306 0.70223 0.0
N2548 N 0.57468 0.947 0.68869 0.0
N2549 N 0.60314 0.91467 0.69248 0.0
H2550 H 0.33625 0.39787 0.93995 0.0
H2551 H 0.28186 0.32371 0.93732 0.0
H2552 H 0.33675 0.36317 0.97711 0.0
H2553 H 0.2944 0.35052 0.89591 0.0
H2554 H 0.30367 0.3359 0.95147 0.0
H2555 H 0.32255 0.37924 0.92301 0.0
C2556 C 0.33358 0.38624 0.94447 0.0
C2557 C 0.33741 0.3821 0.95998 0.0
C2558 C 0.30183 0.33883 0.93918 0.0
C2559 C 0.32155 0.36074 0.94076 0.0
C2560 C 0.2894 0.33186 0.93108 0.0
C2561 C 0.28603 0.33641 0.91552 0.0
C2562 C 0.31081 0.3505 0.93169 0.0
C2563 C 0.29629 0.34693 0.90801 0.0
C2564 C 0.32584 0.37556 0.93478 0.0
C2565 C 0.3339 0.36681 0.96521 0.0
N2566 N 0.30801 0.35384 0.91626 0.0
N2567 N 0.32587 0.35675 0.95571 0.0
H2568 H 0.39727 0.55055 0.65057 0.0
H2569 H 0.41628 0.59597 0.73064 0.0
H2570 H 0.4331 0.53581 0.68334 0.0
H2571 H 0.37579 0.60439 0.70139 0.0
H2572 H 0.42645 0.57793 0.71052 0.0
H2573 H 0.3934 0.57438 0.66606 0.0
C2574 C 0.40444 0.55238 0.66094 0.0
C2575 C 0.41528 0.54097 0.66586 0.0
C2576 C 0.41545 0.58392 0.70844 0.0
C2577 C 0.41082 0.56823 0.68371 0.0
C2578 C 0.40967 0.59423 0.71988 0.0
C2579 C 0.39504 0.60144 0.71779 0.0
C2580 C 0.40656 0.58094 0.69483 0.0
C2581 C 0.38697 0.59883 0.70362 0.0
C2582 C 0.40223 0.56601 0.66978 0.0
C2583 C 0.42446 0.54417 0.67922 0.0
N2584 N 0.39278 0.5887 0.69276 0.0
N2585 N 0.42185 0.55741 0.68784 0.0
H2586 H 0.77858 0.16163 0.05775 0.0
H2587 H 0.83971 0.09193 0.0545 0.0
H2588 H 0.79384 0.13504 0.09835 0.0
H2589 H 0.83053 0.12214 0.01467 0.0
H2590 H 0.82601 0.11045 0.07152 0.0
H2591 H 0.80028 0.15043 0.04258 0.0
C2592 C 0.78665 0.15368 0.06356 0.0
C2593 C 0.78417 0.14897 0.07924 0.0
C2594 C 0.82715 0.11322 0.05911 0.0
C2595 C 0.80889 0.13608 0.06196 0.0
C2596 C 0.83496 0.10261 0.0494 0.0
C2597 C 0.836 0.10543 0.03316 0.0
C2598 C 0.81999 0.12657 0.05249 0.0
C2599 C 0.82988 0.11953 0.02715 0.0
C2600 C 0.79902 0.14728 0.05489 0.0
C2601 C 0.79506 0.13873 0.08619 0.0
N2602 N 0.82182 0.12946 0.03678 0.0
N2603 N 0.80678 0.13247 0.07745 0.0
H2604 H 0.58353 0.01896 0.7969 0.0
H2605 H 0.5986 0.11043 0.78847 0.0
H2606 H 0.58955 0.04728 0.83872 0.0
H2607 H 0.62586 0.07647 0.76242 0.0
H2608 H 0.58744 0.08869 0.8042 0.0
H2609 H 0.59093 0.04183 0.78075 0.0
C2610 C 0.58611 0.03007 0.80263 0.0
C2611 C 0.58608 0.03131 0.8191 0.0
C2612 C 0.59583 0.08612 0.79498 0.0
C2613 C 0.59417 0.05728 0.80086 0.0
C2614 C 0.60217 0.09841 0.78608 0.0
C2615 C 0.61326 0.09514 0.77435 0.0
C2616 C 0.60025 0.07056 0.79163 0.0
C2617 C 0.6175 0.07943 0.77156 0.0
C2618 C 0.59038 0.04301 0.79346 0.0
C2619 C 0.5896 0.0459 0.82602 0.0
N2620 N 0.61087 0.06767 0.78005 0.0
N2621 N 0.59349 0.0584 0.81684 0.0
H2622 H 0.93087 0.96851 0.3125 0.0
H2623 H 0.87101 0.89968 0.29164 0.0
H2624 H 0.89009 0.95692 0.34029 0.0
H2625 H 0.91416 0.90682 0.26615 0.0
H2626 H 0.879 0.91962 0.31055 0.0
H2627 H 0.92605 0.94521 0.29624 0.0
C2628 C 0.92096 0.96106 0.31525 0.0
C2629 C 0.91077 0.96482 0.32769 0.0
C2630 C 0.88682 0.91677 0.30092 0.0
C2631 C 0.90524 0.93815 0.30915 0.0
C2632 C 0.88225 0.90538 0.29009 0.0
C2633 C 0.89187 0.90172 0.2772 0.0
C2634 C 0.90105 0.92475 0.2988 0.0
C2635 C 0.90638 0.90933 0.27591 0.0
C2636 C 0.91825 0.94773 0.30598 0.0
C2637 C 0.89818 0.95464 0.33074 0.0
N2638 N 0.91046 0.92067 0.28648 0.0
N2639 N 0.89574 0.94186 0.32148 0.0
H2640 H 0.46122 0.34512 0.12517 0.0
H2641 H 0.44346 0.26162 0.16407 0.0
H2642 H 0.48421 0.30237 0.11042 0.0
H2643 H 0.40637 0.29369 0.15131 0.0
H2644 H 0.46256 0.2802 0.15315 0.0
H2645 H 0.44502 0.32955 0.1435 0.0
C2646 C 0.46309 0.33252 0.12611 0.0
C2647 C 0.4739 0.3249 0.11632 0.0
C2648 C 0.45025 0.28325 0.15308 0.0
C2649 C 0.45587 0.30732 0.13721 0.0
C2650 C 0.43937 0.27273 0.15933 0.0
C2651 C 0.42333 0.2761 0.15841 0.0
C2652 C 0.44504 0.29733 0.14623 0.0
C2653 C 0.41864 0.29061 0.15206 0.0
C2654 C 0.45386 0.32371 0.13645 0.0
C2655 C 0.47588 0.30858 0.11777 0.0
N2656 N 0.42947 0.30072 0.14613 0.0
N2657 N 0.46692 0.30029 0.12804 0.0
H2658 H 0.40627 0.72977 0.88583 0.0
H2659 H 0.44401 0.64458 0.89606 0.0
H2660 H 0.40415 0.69235 0.85147 0.0
H2661 H 0.45938 0.68535 0.92226 0.0
H2662 H 0.42239 0.65995 0.88544 0.0
H2663 H 0.41892 0.71159 0.9044 0.0
C2664 C 0.4081 0.71763 0.88235 0.0
C2665 C 0.40442 0.71256 0.86704 0.0
C2666 C 0.43033 0.66547 0.89372 0.0
C2667 C 0.41871 0.69184 0.88813 0.0
C2668 C 0.44269 0.65671 0.8998 0.0
C2669 C 0.45376 0.66383 0.90973 0.0
C2670 C 0.42907 0.6815 0.89749 0.0
C2671 C 0.45123 0.67947 0.91446 0.0
C2672 C 0.41536 0.70731 0.89291 0.0
C2673 C 0.40705 0.69676 0.86309 0.0
N2674 N 0.43929 0.68792 0.90803 0.0
N2675 N 0.41416 0.687 0.87352 0.0
H2676 H 0.01335 0.68931 0.61652 0.0
H2677 H 0.09076 0.69753 0.66122 0.0
H2678 H 0.03827 0.64702 0.62918 0.0
H2679 H 0.05156 0.72726 0.67324 0.0
H2680 H 0.07257 0.67849 0.64957 0.0
H2681 H 0.02774 0.70373 0.63689 0.0
C2682 C 0.02176 0.68307 0.62377 0.0
C2683 C 0.02476 0.66706 0.62125 0.0
C2684 C 0.06796 0.68899 0.65514 0.0
C2685 C 0.04141 0.68343 0.64421 0.0
C2686 C 0.07831 0.69987 0.66175 0.0
C2687 C 0.07266 0.71406 0.66804 0.0
C2688 C 0.05197 0.6926 0.65445 0.0
C2689 C 0.05642 0.71649 0.66848 0.0
C2690 C 0.02986 0.69123 0.63542 0.0
C2691 C 0.0357 0.6594 0.63088 0.0
N2692 N 0.04666 0.70605 0.66138 0.0
N2693 N 0.04394 0.66776 0.64177 0.0
H2694 H 0.08439 0.26017 0.37817 0.0
H2695 H 0.04607 0.34514 0.38885 0.0
H2696 H 0.08279 0.29579 0.34187 0.0
H2697 H 0.03089 0.30491 0.41608 0.0
H2698 H 0.06525 0.3286 0.37568 0.0
H2699 H 0.0699 0.27789 0.39578 0.0
C2700 C 0.08113 0.27176 0.37397 0.0
C2701 C 0.08464 0.2765 0.3585 0.0
C2702 C 0.05782 0.32343 0.38464 0.0
C2703 C 0.06837 0.29675 0.37857 0.0
C2704 C 0.04687 0.33285 0.39222 0.0
C2705 C 0.03659 0.32633 0.40337 0.0
C2706 C 0.05861 0.30735 0.38825 0.0
C2707 C 0.03846 0.3104 0.40744 0.0
C2708 C 0.07285 0.28181 0.384 0.0
C2709 C 0.08014 0.29161 0.35363 0.0
N2710 N 0.04916 0.30136 0.39972 0.0
N2711 N 0.07224 0.3012 0.36365 0.0
H2712 H 0.44159 0.71869 0.32616 0.0
H2713 H 0.4429 0.66057 0.39782 0.0
H2714 H 0.39973 0.70209 0.34936 0.0
H2715 H 0.48176 0.66347 0.36554 0.0
H2716 H 0.42652 0.67425 0.3787 0.0
H2717 H 0.45623 0.69707 0.33834 0.0
C2718 C 0.43539 0.71032 0.33351 0.0
C2719 C 0.41947 0.71245 0.33704 0.0
C2720 C 0.43854 0.67169 0.37562 0.0
C2721 C 0.43618 0.68787 0.35112 0.0
C2722 C 0.4479 0.66392 0.38657 0.0
C2723 C 0.46369 0.66105 0.38326 0.0
C2724 C 0.44514 0.67702 0.36141 0.0
C2725 C 0.46961 0.66551 0.36849 0.0
C2726 C 0.44377 0.69799 0.34047 0.0
C2727 C 0.41206 0.70116 0.34657 0.0
N2728 N 0.46039 0.6736 0.35819 0.0
N2729 N 0.42053 0.68956 0.35349 0.0
H2730 H 0.02537 0.68144 0.07996 0.0
H2731 H 0.08209 0.69389 0.15237 0.0
H2732 H 0.03652 0.64489 0.11361 0.0
H2733 H 0.0824 0.72514 0.11225 0.0
H2734 H 0.06629 0.67526 0.13741 0.0
H2735 H 0.04705 0.69718 0.0904 0.0
C2736 C 0.03247 0.67662 0.08938 0.0
C2737 C 0.0289 0.66193 0.09611 0.0
C2738 C 0.06996 0.68608 0.13175 0.0
C2739 C 0.0536 0.67989 0.10811 0.0
C2740 C 0.07894 0.69673 0.14032 0.0
C2741 C 0.08339 0.71111 0.13357 0.0
C2742 C 0.0651 0.68996 0.11642 0.0
C2743 C 0.07916 0.71417 0.11787 0.0
C2744 C 0.04485 0.68561 0.09531 0.0
C2745 C 0.03861 0.65626 0.10821 0.0
N2746 N 0.06999 0.70378 0.10988 0.0
N2747 N 0.05035 0.66533 0.11394 0.0
H2748 H 0.05926 0.27639 0.82592 0.0
H2749 H 0.05412 0.33624 0.89622 0.0
H2750 H 0.09926 0.29068 0.85357 0.0
H2751 H 0.0188 0.33505 0.85989 0.0
H2752 H 0.07124 0.32051 0.87953 0.0
H2753 H 0.04472 0.29899 0.8363 0.0
C2754 C 0.06511 0.28446 0.83387 0.0
C2755 C 0.08038 0.28141 0.83919 0.0
C2756 C 0.05983 0.32383 0.87507 0.0
C2757 C 0.06377 0.30707 0.8512 0.0
C2758 C 0.05002 0.33271 0.88466 0.0
C2759 C 0.03498 0.33673 0.87948 0.0
C2760 C 0.05446 0.3186 0.86032 0.0
C2761 C 0.03032 0.33209 0.86431 0.0
C2762 C 0.05679 0.29733 0.83981 0.0
C2763 C 0.08739 0.29232 0.84942 0.0
N2764 N 0.03994 0.32299 0.85533 0.0
N2765 N 0.07895 0.30449 0.8553 0.0
H2766 H 0.44001 0.34946 0.6012 0.0
H2767 H 0.40082 0.2652 0.61356 0.0
H2768 H 0.45361 0.30801 0.57503 0.0
H2769 H 0.40071 0.30281 0.64782 0.0
H2770 H 0.41339 0.28293 0.59458 0.0
H2771 H 0.41854 0.33463 0.61288 0.0
C2772 C 0.43831 0.33731 0.59766 0.0
C2773 C 0.4489 0.32984 0.58744 0.0
C2774 C 0.41033 0.28734 0.60616 0.0
C2775 C 0.42437 0.3128 0.60089 0.0
C2776 C 0.40313 0.27728 0.61698 0.0
C2777 C 0.39998 0.2825 0.63237 0.0
C2778 C 0.41418 0.30275 0.61074 0.0
C2779 C 0.4032 0.29824 0.63617 0.0
C2780 C 0.42605 0.32886 0.60437 0.0
C2781 C 0.44587 0.31418 0.58303 0.0
N2782 N 0.41024 0.30777 0.62546 0.0
N2783 N 0.43404 0.30606 0.59003 0.0
H2784 H 0.11109 0.47933 0.30298 0.0
H2785 H 0.13304 0.39281 0.30885 0.0
H2786 H 0.12401 0.45971 0.34798 0.0
H2787 H 0.14533 0.41948 0.26735 0.0
H2788 H 0.13225 0.41729 0.32402 0.0
H2789 H 0.12599 0.45855 0.2898 0.0
C2790 C 0.11751 0.47089 0.31005 0.0
C2791 C 0.11638 0.47111 0.32652 0.0
C2792 C 0.13556 0.41775 0.3117 0.0
C2793 C 0.13286 0.44704 0.31163 0.0
C2794 C 0.13595 0.40379 0.30303 0.0
C2795 C 0.139 0.40418 0.28679 0.0
C2796 C 0.13776 0.43219 0.30394 0.0
C2797 C 0.14282 0.41869 0.27984 0.0
C2798 C 0.126 0.45904 0.30256 0.0
C2799 C 0.12473 0.45989 0.33523 0.0
N2800 N 0.14166 0.4322 0.28837 0.0
N2801 N 0.13229 0.44799 0.32767 0.0
H2802 H 0.34998 0.39481 0.04321 0.0
H2803 H 0.26478 0.38271 0.07987 0.0
H2804 H 0.3088 0.41749 0.02436 0.0
H2805 H 0.30398 0.3514 0.08635 0.0
H2806 H 0.28192 0.40086 0.06518 0.0
H2807 H 0.33437 0.3847 0.06497 0.0
C2808 C 0.33767 0.39784 0.04375 0.0
C2809 C 0.33059 0.4067 0.03173 0.0
C2810 C 0.28678 0.39015 0.0701 0.0
C2811 C 0.31263 0.39501 0.05661 0.0
C2812 C 0.27706 0.37987 0.07851 0.0
C2813 C 0.283 0.36551 0.08408 0.0
C2814 C 0.30251 0.38605 0.06756 0.0
C2815 C 0.29893 0.36227 0.08201 0.0
C2816 C 0.32877 0.39206 0.0562 0.0
C2817 C 0.31468 0.41055 0.03327 0.0
N2818 N 0.3081 0.37241 0.07384 0.0
N2819 N 0.30613 0.40443 0.04536 0.0
H2820 H 0.38704 0.51469 0.79907 0.0
H2821 H 0.36947 0.60216 0.80572 0.0
H2822 H 0.37646 0.53475 0.84449 0.0
H2823 H 0.35415 0.57623 0.76477 0.0
H2824 H 0.36979 0.5776 0.82081 0.0
H2825 H 0.37274 0.53621 0.78641 0.0
C2826 C 0.38123 0.5234 0.80636 0.0
C2827 C 0.38285 0.52306 0.82278 0.0
C2828 C 0.36593 0.57735 0.80864 0.0
C2829 C 0.36711 0.54796 0.80846 0.0
C2830 C 0.36581 0.59134 0.80002 0.0
C2831 C 0.36202 0.59116 0.78393 0.0
C2832 C 0.36269 0.56305 0.80098 0.0
C2833 C 0.35725 0.57686 0.77714 0.0
C2834 C 0.37309 0.53567 0.79916 0.0
C2835 C 0.37533 0.53464 0.83178 0.0
N2836 N 0.35814 0.56328 0.78558 0.0
N2837 N 0.36812 0.54692 0.82447 0.0
H2838 H 0.18904 0.6456 0.59384 0.0
H2839 H 0.18907 0.57757 0.53063 0.0
H2840 H 0.2296 0.61665 0.58518 0.0
H2841 H 0.14745 0.60128 0.54704 0.0
H2842 H 0.20352 0.58862 0.55301 0.0
H2843 H 0.17298 0.62669 0.57956 0.0
C2844 C 0.1945 0.63509 0.58911 0.0
C2845 C 0.21065 0.63275 0.59047 0.0
C2846 C 0.19115 0.59113 0.55187 0.0
C2847 C 0.19245 0.61119 0.57375 0.0
C2848 C 0.18289 0.5848 0.53911 0.0
C2849 C 0.16713 0.58882 0.53676 0.0
C2850 C 0.18356 0.60155 0.56224 0.0
C2851 C 0.15969 0.59818 0.54816 0.0
C2852 C 0.18534 0.62426 0.58096 0.0
C2853 C 0.21716 0.61888 0.58431 0.0
N2854 N 0.16802 0.6044 0.56024 0.0
N2855 N 0.20808 0.60875 0.57588 0.0
H2856 H 0.12114 0.59923 0.18948 0.0
H2857 H 0.10034 0.51207 0.19561 0.0
H2858 H 0.13617 0.57243 0.22996 0.0
H2859 H 0.11204 0.53173 0.15029 0.0
H2860 H 0.11475 0.53345 0.20844 0.0
H2861 H 0.11915 0.57475 0.17436 0.0
C2862 C 0.12436 0.58821 0.19506 0.0
C2863 C 0.12864 0.58779 0.21102 0.0
C2864 C 0.11457 0.53286 0.19568 0.0
C2865 C 0.12605 0.55981 0.19396 0.0
C2866 C 0.10635 0.52069 0.1884 0.0
C2867 C 0.1051 0.52023 0.17195 0.0
C2868 C 0.12101 0.54494 0.18643 0.0
C2869 C 0.1129 0.5317 0.16303 0.0
C2870 C 0.12329 0.57427 0.18642 0.0
C2871 C 0.13278 0.57324 0.21768 0.0
N2872 N 0.12021 0.54388 0.17041 0.0
N2873 N 0.13097 0.55975 0.20924 0.0
H2874 H 0.1941 0.41546 0.98079 0.0
H2875 H 0.20704 0.37222 0.8983 0.0
H2876 H 0.15543 0.40352 0.9503 0.0
H2877 H 0.23176 0.36011 0.94091 0.0
H2878 H 0.192 0.39207 0.91324 0.0
H2879 H 0.21212 0.40396 0.96153 0.0
C2880 C 0.18943 0.41086 0.96984 0.0
C2881 C 0.17323 0.41021 0.96722 0.0
C2882 C 0.20094 0.38523 0.91917 0.0
C2883 C 0.19375 0.39721 0.94523 0.0
C2884 C 0.20948 0.374 0.91071 0.0
C2885 C 0.22044 0.36453 0.91853 0.0
C2886 C 0.20382 0.38719 0.93535 0.0
C2887 C 0.22324 0.36713 0.93458 0.0
C2888 C 0.19971 0.40424 0.95894 0.0
C2889 C 0.16783 0.40404 0.95285 0.0
N2890 N 0.21497 0.37824 0.94249 0.0
N2891 N 0.17808 0.39762 0.94241 0.0
H2892 H 0.39158 0.47885 0.69339 0.0
H2893 H 0.36238 0.39504 0.68737 0.0
H2894 H 0.3731 0.46284 0.64891 0.0
H2895 H 0.35223 0.42196 0.72929 0.0
H2896 H 0.36478 0.41964 0.6725 0.0
H2897 H 0.37612 0.45869 0.70692 0.0
C2898 C 0.38395 0.47129 0.68655 0.0
C2899 C 0.38358 0.47235 0.67009 0.0
C2900 C 0.36156 0.42014 0.68484 0.0
C2901 C 0.36633 0.44909 0.68532 0.0
C2902 C 0.36024 0.40613 0.69332 0.0
C2903 C 0.35731 0.40653 0.70958 0.0
C2904 C 0.36044 0.43458 0.69282 0.0
C2905 C 0.35457 0.42117 0.71676 0.0
C2906 C 0.3751 0.45986 0.69424 0.0
C2907 C 0.3736 0.46232 0.66166 0.0
N2908 N 0.35667 0.43467 0.70843 0.0
N2909 N 0.36566 0.45076 0.66935 0.0
H2910 H 0.30865 0.57414 0.46251 0.0
H2911 H 0.30719 0.64453 0.40331 0.0
H2912 H 0.34994 0.59996 0.44866 0.0
H2913 H 0.26923 0.61121 0.40619 0.0
H2914 H 0.32407 0.62591 0.41705 0.0
H2915 H 0.29506 0.58445 0.43932 0.0
C2916 C 0.315 0.58163 0.45439 0.0
C2917 C 0.33032 0.58656 0.45778 0.0
C2918 C 0.31214 0.62248 0.41445 0.0
C2919 C 0.31479 0.59852 0.43139 0.0
C2920 C 0.30251 0.63314 0.40665 0.0
C2921 C 0.28679 0.62944 0.40386 0.0
C2922 C 0.30589 0.60817 0.41992 0.0
C2923 C 0.2813 0.61449 0.40823 0.0
C2924 C 0.30721 0.58755 0.44116 0.0
C2925 C 0.33799 0.59618 0.44676 0.0
N2926 N 0.29075 0.6045 0.4164 0.0
N2927 N 0.33005 0.6021 0.43425 0.0
H2928 H 0.34732 0.14379 0.47057 0.0
H2929 H 0.30305 0.15219 0.38861 0.0
H2930 H 0.34269 0.1072 0.43554 0.0
H2931 H 0.29314 0.18113 0.42927 0.0
H2932 H 0.32586 0.14156 0.40217 0.0
H2933 H 0.33528 0.16249 0.45216 0.0
C2934 C 0.34408 0.13978 0.45889 0.0
C2935 C 0.34568 0.12387 0.45464 0.0
C2936 C 0.3189 0.15052 0.40797 0.0
C2937 C 0.33217 0.14516 0.43361 0.0
C2938 C 0.3059 0.15664 0.40023 0.0
C2939 C 0.29588 0.16717 0.40804 0.0
C2940 C 0.32185 0.15492 0.42363 0.0
C2941 C 0.30037 0.1728 0.42293 0.0
C2942 C 0.33722 0.15044 0.44843 0.0
C2943 C 0.34135 0.11929 0.43938 0.0
N2944 N 0.31286 0.16629 0.43044 0.0
N2945 N 0.33466 0.12986 0.42946 0.0
H2946 H 0.83665 0.39149 0.54895 0.0
H2947 H 0.77914 0.32055 0.55519 0.0
H2948 H 0.83334 0.35772 0.51112 0.0
H2949 H 0.79956 0.34299 0.59599 0.0
H2950 H 0.79979 0.33221 0.53879 0.0
H2951 H 0.82387 0.37276 0.56654 0.0
C2952 C 0.83339 0.38 0.54444 0.0
C2953 C 0.83591 0.37612 0.52862 0.0
C2954 C 0.79992 0.33424 0.5514 0.0
C2955 C 0.82098 0.35474 0.54851 0.0
C2956 C 0.78816 0.32758 0.56076 0.0
C2957 C 0.78741 0.33114 0.57691 0.0
C2958 C 0.8108 0.34458 0.55828 0.0
C2959 C 0.79944 0.34026 0.58352 0.0
C2960 C 0.82616 0.36928 0.55447 0.0
C2961 C 0.83157 0.36108 0.52331 0.0
N2962 N 0.81044 0.3469 0.57414 0.0
N2963 N 0.82398 0.351 0.53317 0.0
H2964 H 0.37867 0.05693 0.34825 0.0
H2965 H 0.35024 0.04977 0.26369 0.0
H2966 H 0.39075 0.0158 0.32098 0.0
H2967 H 0.36495 0.09517 0.281 0.0
H2968 H 0.36631 0.03707 0.2839 0.0
H2969 H 0.37529 0.07179 0.32375 0.0
C2970 C 0.38103 0.05117 0.3371 0.0
C2971 C 0.38481 0.0351 0.33658 0.0
C2972 C 0.36637 0.04981 0.28302 0.0
C2973 C 0.38054 0.05182 0.30863 0.0
C2974 C 0.35717 0.05703 0.27155 0.0
C2975 C 0.35626 0.07348 0.27081 0.0
C2976 C 0.37425 0.05914 0.29415 0.0
C2977 C 0.36541 0.08242 0.28122 0.0
C2978 C 0.37914 0.05964 0.32314 0.0
C2979 C 0.38778 0.02817 0.32187 0.0
N2980 N 0.37373 0.07513 0.29278 0.0
N2981 N 0.38513 0.03646 0.30842 0.0
H2982 H 0.64713 0.59575 0.05551 0.0
H2983 H 0.6916 0.67611 0.06425 0.0
H2984 H 0.64406 0.63343 0.02148 0.0
H2985 H 0.69037 0.6401 0.10022 0.0
H2986 H 0.66924 0.66366 0.05145 0.0
H2987 H 0.65789 0.61423 0.07463 0.0
C2988 C 0.64852 0.60798 0.05213 0.0
C2989 C 0.64509 0.61297 0.03676 0.0
C2990 C 0.67364 0.65868 0.06234 0.0
C2991 C 0.6576 0.63419 0.05853 0.0
C2992 C 0.68641 0.66582 0.0697 0.0
C2993 C 0.69324 0.65884 0.08304 0.0
C2994 C 0.66778 0.64441 0.0683 0.0
C2995 C 0.6858 0.64566 0.08969 0.0
C2996 C 0.65462 0.61856 0.06308 0.0
C2997 C 0.64678 0.62902 0.03314 0.0
N2998 N 0.67371 0.63867 0.08205 0.0
N2999 N 0.65325 0.639 0.04383 0.0
H3000 H 0.60252 0.48143 0.32925 0.0
H3001 H 0.62309 0.39887 0.28955 0.0
H3002 H 0.62115 0.44141 0.35444 0.0
H3003 H 0.62866 0.44375 0.26653 0.0
H3004 H 0.6109 0.41229 0.3121 0.0
H3005 H 0.60089 0.46525 0.30538 0.0
C3006 C 0.60586 0.46913 0.32989 0.0
C3007 C 0.61228 0.46281 0.34375 0.0
C3008 C 0.61426 0.4191 0.30185 0.0
C3009 C 0.61025 0.44432 0.31662 0.0
C3010 C 0.62104 0.41146 0.28896 0.0
C3011 C 0.62678 0.4203 0.27628 0.0
C3012 C 0.61315 0.4356 0.30185 0.0
C3013 C 0.62428 0.4366 0.27614 0.0
C3014 C 0.60495 0.45995 0.31626 0.0
C3015 C 0.61641 0.44681 0.3439 0.0
N3016 N 0.61779 0.44379 0.28885 0.0
N3017 N 0.61549 0.43814 0.33047 0.0
H3018 H 0.15606 0.89838 0.94285 0.0
H3019 H 0.21426 0.82706 0.93417 0.0
H3020 H 0.1574 0.86058 0.97681 0.0
H3021 H 0.20186 0.85811 0.89579 0.0
H3022 H 0.19198 0.83727 0.94922 0.0
H3023 H 0.17113 0.88224 0.92458 0.0
C3024 C 0.15936 0.88655 0.94634 0.0
C3025 C 0.15566 0.88083 0.96136 0.0
C3026 C 0.19401 0.84162 0.93739 0.0
C3027 C 0.17321 0.86238 0.94069 0.0
C3028 C 0.20673 0.8358 0.9288 0.0
C3029 C 0.21016 0.842 0.91384 0.0
C3030 C 0.18478 0.85375 0.93098 0.0
C3031 C 0.19992 0.85324 0.90743 0.0
C3032 C 0.16793 0.87731 0.93591 0.0
C3033 C 0.16007 0.8654 0.96529 0.0
N3034 N 0.18786 0.8589 0.91612 0.0
N3035 N 0.16892 0.85678 0.95512 0.0
H3036 H 0.36566 0.91996 0.22414 0.0
H3037 H 0.35323 0.9489 0.13521 0.0
H3038 H 0.32575 0.90878 0.19507 0.0
H3039 H 0.38631 0.97101 0.16674 0.0
H3040 H 0.34704 0.92983 0.15563 0.0
H3041 H 0.37708 0.93462 0.20184 0.0
C3042 C 0.35944 0.92042 0.21302 0.0
C3043 C 0.34466 0.91341 0.21146 0.0
C3044 C 0.35573 0.93879 0.15808 0.0
C3045 C 0.35759 0.92987 0.1861 0.0
C3046 C 0.35929 0.94972 0.1464 0.0
C3047 C 0.3701 0.9618 0.14934 0.0
C3048 C 0.36297 0.9399 0.17288 0.0
C3049 C 0.37776 0.96201 0.16402 0.0
C3050 C 0.3659 0.92881 0.20037 0.0
C3051 C 0.33705 0.91429 0.19684 0.0
N3052 N 0.37391 0.95131 0.17534 0.0
N3053 N 0.34356 0.92241 0.18478 0.0
H3054 H 0.14353 0.04819 0.72824 0.0
H3055 H 0.11703 0.05567 0.64347 0.0
H3056 H 0.12641 0.09312 0.71203 0.0
H3057 H 0.10517 0.01372 0.66958 0.0
H3058 H 0.11913 0.07015 0.66835 0.0
H3059 H 0.12843 0.03515 0.70746 0.0
C3060 C 0.13622 0.05523 0.72053 0.0
C3061 C 0.13615 0.07168 0.72173 0.0
C3062 C 0.11562 0.05789 0.66859 0.0
C3063 C 0.11939 0.05701 0.69773 0.0
C3064 C 0.11448 0.04963 0.65443 0.0
C3065 C 0.11111 0.03346 0.65453 0.0
C3066 C 0.11388 0.04978 0.68291 0.0
C3067 C 0.10785 0.02618 0.66901 0.0
C3068 C 0.12759 0.04782 0.70873 0.0
C3069 C 0.12664 0.08037 0.71146 0.0
N3070 N 0.10976 0.03428 0.68269 0.0
N3071 N 0.11894 0.07296 0.69954 0.0
H3072 H 0.03807 0.11048 0.40818 0.0
H3073 H 0.09741 0.13725 0.47572 0.0
H3074 H 0.02658 0.14584 0.4429 0.0
H3075 H 0.10241 0.09512 0.44769 0.0
H3076 H 0.07416 0.14431 0.46031 0.0
H3077 H 0.06416 0.10841 0.41931 0.0
C3078 C 0.04104 0.11782 0.41818 0.0
C3079 C 0.03007 0.12817 0.4248 0.0
C3080 C 0.08051 0.13366 0.45742 0.0
C3081 C 0.06004 0.12587 0.4376 0.0
C3082 C 0.09382 0.12968 0.4661 0.0
C3083 C 0.10168 0.11549 0.46305 0.0
C3084 C 0.0752 0.12341 0.44558 0.0
C3085 C 0.09656 0.10608 0.45052 0.0
C3086 C 0.05598 0.11666 0.4245 0.0
C3087 C 0.03466 0.13756 0.4376 0.0
N3088 N 0.08356 0.11014 0.44232 0.0
N3089 N 0.04932 0.13611 0.44369 0.0
H3090 H 0.16549 0.85007 0.7071 0.0
H3091 H 0.10518 0.77919 0.69883 0.0
H3092 H 0.11846 0.85288 0.72538 0.0
H3093 H 0.14578 0.78468 0.66908 0.0
H3094 H 0.11029 0.8053 0.71014 0.0
H3095 H 0.15884 0.82533 0.69415 0.0
C3096 C 0.1537 0.84552 0.70826 0.0
C3097 C 0.14251 0.85348 0.71733 0.0
C3098 C 0.11802 0.80077 0.7011 0.0
C3099 C 0.13488 0.82503 0.70275 0.0
C3100 C 0.11518 0.78586 0.69473 0.0
C3101 C 0.12511 0.77977 0.68305 0.0
C3102 C 0.13099 0.8095 0.69587 0.0
C3103 C 0.13784 0.78892 0.67808 0.0
C3104 C 0.14991 0.8314 0.70086 0.0
C3105 C 0.1274 0.8471 0.71843 0.0
N3106 N 0.14046 0.80328 0.68457 0.0
N3107 N 0.12405 0.83311 0.71136 0.0
H3108 H 0.39462 0.85781 0.96494 0.0
H3109 H 0.48725 0.86581 0.95959 0.0
H3110 H 0.42019 0.89619 0.98608 0.0
H3111 H 0.45949 0.85702 0.91807 0.0
H3112 H 0.46303 0.86717 0.97528 0.0
H3113 H 0.41924 0.84828 0.95303 0.0
C3114 C 0.40543 0.86408 0.96716 0.0
C3115 C 0.40551 0.87791 0.97617 0.0
C3116 C 0.46236 0.86454 0.9628 0.0
C3117 C 0.43333 0.86682 0.96343 0.0
C3118 C 0.47607 0.86373 0.95393 0.0
C3119 C 0.47513 0.86156 0.93762 0.0
C3120 C 0.44785 0.86275 0.95525 0.0
C3121 C 0.4605 0.85896 0.93065 0.0
C3122 C 0.41936 0.85864 0.96048 0.0
C3123 C 0.41971 0.88564 0.97891 0.0
N3124 N 0.44733 0.85971 0.93952 0.0
N3125 N 0.43312 0.87996 0.97258 0.0
H3126 H 0.38653 0.21856 0.19566 0.0
H3127 H 0.3231 0.15189 0.21234 0.0
H3128 H 0.34427 0.21307 0.16832 0.0
H3129 H 0.37112 0.14763 0.22754 0.0
H3130 H 0.32974 0.17619 0.19859 0.0
H3131 H 0.38006 0.19441 0.21008 0.0
C3132 C 0.37586 0.21232 0.19275 0.0
C3133 C 0.36593 0.21775 0.18076 0.0
C3134 C 0.33884 0.16992 0.20489 0.0
C3135 C 0.35849 0.1903 0.19718 0.0
C3136 C 0.33506 0.15608 0.21277 0.0
C3137 C 0.3466 0.14775 0.22106 0.0
C3138 C 0.35423 0.17561 0.20545 0.0
C3139 C 0.36191 0.15369 0.22121 0.0
C3140 C 0.37223 0.19853 0.20092 0.0
C3141 C 0.35227 0.20924 0.17745 0.0
N3142 N 0.36529 0.16735 0.21356 0.0
N3143 N 0.34893 0.19595 0.18565 0.0
H3144 H 0.0182 0.84932 0.04692 0.0
H3145 H 0.09801 0.89847 0.04483 0.0
H3146 H 0.02947 0.88883 0.07691 0.0
H3147 H 0.08899 0.86023 0.01261 0.0
H3148 H 0.07377 0.89254 0.05851 0.0
H3149 H 0.04447 0.85126 0.03511 0.0
C3150 C 0.02614 0.85843 0.05093 0.0
C3151 C 0.02166 0.86897 0.06285 0.0
C3152 C 0.07707 0.8853 0.04854 0.0
C3153 C 0.05154 0.87108 0.0497 0.0
C3154 C 0.09096 0.88865 0.04079 0.0
C3155 C 0.09536 0.8799 0.02754 0.0
C3156 C 0.06731 0.87325 0.04285 0.0
C3157 C 0.08592 0.86722 0.02282 0.0
C3158 C 0.04112 0.85945 0.0443 0.0
C3159 C 0.03238 0.88046 0.06774 0.0
N3160 N 0.07214 0.8644 0.03035 0.0
N3161 N 0.04676 0.88118 0.06116 0.0
H3162 H 0.36259 0.79508 0.33793 0.0
H3163 H 0.3789 0.84935 0.26264 0.0
H3164 H 0.39153 0.77969 0.29917 0.0
H3165 H 0.34231 0.85676 0.29683 0.0
H3166 H 0.38833 0.8268 0.27834 0.0
H3167 H 0.35983 0.82064 0.32545 0.0
C3168 C 0.36838 0.79709 0.32675 0.0
C3169 C 0.37705 0.78514 0.31941 0.0
C3170 C 0.37842 0.83357 0.2825 0.0
C3171 C 0.37388 0.81453 0.30496 0.0
C3172 C 0.37315 0.84647 0.27365 0.0
C3173 C 0.35978 0.85475 0.27848 0.0
C3174 C 0.37033 0.82923 0.29627 0.0
C3175 C 0.35259 0.85055 0.29268 0.0
C3176 C 0.36683 0.81174 0.31964 0.0
C3177 C 0.38456 0.78855 0.30509 0.0
N3178 N 0.35789 0.83804 0.30101 0.0
N3179 N 0.38266 0.80293 0.2982 0.0
H3180 H 0.39756 0.10036 0.54043 0.0
H3181 H 0.47515 0.15028 0.54902 0.0
H3182 H 0.40584 0.14154 0.51179 0.0
H3183 H 0.45722 0.11939 0.58521 0.0
H3184 H 0.44999 0.14805 0.53508 0.0
H3185 H 0.41952 0.10775 0.55713 0.0
C3186 C 0.40394 0.11106 0.53777 0.0
C3187 C 0.40002 0.12031 0.52471 0.0
C3188 C 0.45158 0.14195 0.54618 0.0
C3189 C 0.42532 0.12874 0.54356 0.0
C3190 C 0.46591 0.14316 0.55407 0.0
C3191 C 0.46833 0.13476 0.56809 0.0
C3192 C 0.43979 0.1322 0.5524 0.0
C3193 C 0.45597 0.12585 0.57427 0.0
C3194 C 0.41645 0.11532 0.54732 0.0
C3195 C 0.40856 0.13412 0.52181 0.0
N3196 N 0.44231 0.12467 0.56631 0.0
N3197 N 0.42104 0.13782 0.53104 0.0
H3198 H 0.11644 0.14052 0.77114 0.0
H3199 H 0.14093 0.19962 0.83974 0.0
H3200 H 0.16345 0.14469 0.78923 0.0
H3201 H 0.10314 0.21058 0.80779 0.0
H3202 H 0.14631 0.17577 0.82474 0.0
H3203 H 0.10855 0.16288 0.78784 0.0
C3204 C 0.12504 0.14606 0.77871 0.0
C3205 C 0.14062 0.14087 0.7788 0.0
C3206 C 0.13681 0.18337 0.82103 0.0
C3207 C 0.1317 0.16608 0.79787 0.0
C3208 C 0.13369 0.19696 0.8296 0.0
C3209 C 0.12167 0.20716 0.82488 0.0
C3210 C 0.12774 0.17982 0.80773 0.0
C3211 C 0.11261 0.20307 0.8117 0.0
C3212 C 0.12056 0.15881 0.78813 0.0
C3213 C 0.15134 0.14842 0.78874 0.0
N3214 N 0.11584 0.18966 0.80352 0.0
N3215 N 0.14667 0.16061 0.79792 0.0
H3216 H 0.4679 0.10367 0.13772 0.0
H3217 H 0.44034 0.01689 0.11388 0.0
H3218 H 0.47875 0.07964 0.09424 0.0
H3219 H 0.418 0.04307 0.1511 0.0
H3220 H 0.46003 0.03754 0.11155 0.0
H3221 H 0.45423 0.07978 0.14698 0.0
C3222 C 0.46753 0.09334 0.13023 0.0
C3223 C 0.47421 0.09364 0.11511 0.0
C3224 C 0.45101 0.03872 0.12044 0.0
C3225 C 0.45906 0.06647 0.12565 0.0
C3226 C 0.43989 0.02688 0.12184 0.0
C3227 C 0.42769 0.02841 0.13268 0.0
C3228 C 0.44965 0.0524 0.12966 0.0
C3229 C 0.4274 0.04154 0.14268 0.0
C3230 C 0.45978 0.07977 0.1355 0.0
C3231 C 0.47351 0.08 0.10586 0.0
N3232 N 0.43811 0.05327 0.14075 0.0
N3233 N 0.46606 0.06702 0.11126 0.0
H3234 H 0.20432 0.15267 0.36865 0.0
H3235 H 0.14953 0.22706 0.3838 0.0
H3236 H 0.22174 0.195 0.39081 0.0
H3237 H 0.14496 0.19528 0.34439 0.0
H3238 H 0.17228 0.21177 0.39302 0.0
H3239 H 0.17859 0.16472 0.36664 0.0
C3240 C 0.20272 0.16449 0.3732 0.0
C3241 C 0.21525 0.17302 0.37959 0.0
C3242 C 0.16607 0.20806 0.38252 0.0
C3243 C 0.18579 0.18676 0.3774 0.0
C3244 C 0.15311 0.21665 0.37734 0.0
C3245 C 0.14558 0.21239 0.36329 0.0
C3246 C 0.17113 0.19503 0.37372 0.0
C3247 C 0.15061 0.19896 0.3552 0.0
C3248 C 0.18802 0.17132 0.37207 0.0
C3249 C 0.21241 0.18816 0.38556 0.0
N3250 N 0.16312 0.19076 0.36052 0.0
N3251 N 0.19793 0.19467 0.38418 0.0
H3252 H 0.02361 0.89421 0.63025 0.0
H3253 H 0.08786 0.95263 0.59457 0.0
H3254 H 0.03783 0.89519 0.58142 0.0
H3255 H 0.06729 0.9597 0.64053 0.0
H3256 H 0.0716 0.92946 0.59097 0.0
H3257 H 0.04154 0.9162 0.63561 0.0
C3258 C 0.03057 0.89898 0.62071 0.0
C3259 C 0.0292 0.89296 0.60536 0.0
C3260 C 0.0706 0.93604 0.60186 0.0
C3261 C 0.04961 0.91792 0.61137 0.0
C3262 C 0.07991 0.94929 0.60393 0.0
C3263 C 0.07884 0.95816 0.61783 0.0
C3264 C 0.06012 0.93154 0.61377 0.0
C3265 C 0.06839 0.95322 0.62959 0.0
C3266 C 0.04072 0.91153 0.62375 0.0
C3267 C 0.03844 0.89954 0.59341 0.0
N3268 N 0.05937 0.9402 0.62728 0.0
N3269 N 0.04823 0.91165 0.59667 0.0
H3270 H 0.3547 0.7988 0.83843 0.0
H3271 H 0.27574 0.80614 0.88779 0.0
H3272 H 0.34664 0.77269 0.88133 0.0
H3273 H 0.28909 0.838 0.85047 0.0
H3274 H 0.30151 0.79353 0.88586 0.0
H3275 H 0.33087 0.81376 0.84328 0.0
C3276 C 0.34801 0.79639 0.84901 0.0
C3277 C 0.35254 0.78446 0.85945 0.0
C3278 C 0.29877 0.80332 0.87815 0.0
C3279 C 0.32507 0.80127 0.86492 0.0
C3280 C 0.28405 0.81042 0.87917 0.0
C3281 C 0.28028 0.82306 0.86922 0.0
C3282 C 0.30965 0.80887 0.86704 0.0
C3283 C 0.29149 0.82825 0.85833 0.0
C3284 C 0.33437 0.8049 0.85176 0.0
C3285 C 0.34351 0.78183 0.87301 0.0
N3286 N 0.30563 0.8211 0.8575 0.0
N3287 N 0.33003 0.79003 0.87526 0.0
H3288 H 0.47708 0.89785 0.36354 0.0
H3289 H 0.41131 0.95575 0.39704 0.0
H3290 H 0.46395 0.90152 0.41255 0.0
H3291 H 0.43158 0.96214 0.35084 0.0
H3292 H 0.42876 0.93368 0.40155 0.0
H3293 H 0.45882 0.91939 0.35736 0.0
C3294 C 0.47033 0.90313 0.37296 0.0
C3295 C 0.47204 0.89793 0.38859 0.0
C3296 C 0.42945 0.93988 0.39041 0.0
C3297 C 0.45123 0.92236 0.38163 0.0
C3298 C 0.41944 0.95249 0.3878 0.0
C3299 C 0.42004 0.96085 0.37356 0.0
C3300 C 0.44017 0.93545 0.37869 0.0
C3301 C 0.43081 0.95604 0.36202 0.0
C3302 C 0.45998 0.91542 0.36944 0.0
C3303 C 0.46306 0.90518 0.40036 0.0
N3304 N 0.44049 0.9436 0.36484 0.0
N3305 N 0.45305 0.91697 0.39663 0.0
H3306 H 0.273 0.19042 0.60693 0.0
H3307 H 0.35079 0.19507 0.65781 0.0
H3308 H 0.28626 0.15564 0.6416 0.0
H3309 H 0.34449 0.22213 0.61521 0.0
H3310 H 0.32736 0.18002 0.65146 0.0
H3311 H 0.29901 0.20245 0.60953 0.0
C3312 C 0.28135 0.18537 0.6151 0.0
C3313 C 0.27747 0.17212 0.62416 0.0
C3314 C 0.3312 0.18909 0.64335 0.0
C3315 C 0.30707 0.18563 0.62709 0.0
C3316 C 0.3446 0.19763 0.64696 0.0
C3317 C 0.34946 0.20988 0.63706 0.0
C3318 C 0.32244 0.19304 0.6299 0.0
C3319 C 0.34108 0.21273 0.62312 0.0
C3320 C 0.2962 0.19212 0.61647 0.0
C3321 C 0.28873 0.16591 0.63445 0.0
N3322 N 0.32777 0.20454 0.62007 0.0
N3323 N 0.30297 0.17276 0.63569 0.0
H3324 H 0.09049 0.04544 0.89992 0.0
H3325 H 0.0217 0.10006 0.86678 0.0
H3326 H 0.06851 0.03702 0.85486 0.0
H3327 H 0.03676 0.09883 0.91534 0.0
H3328 H 0.04124 0.07974 0.8605 0.0
H3329 H 0.07335 0.06792 0.90397 0.0
C3330 C 0.08206 0.04834 0.89084 0.0
C3331 C 0.08081 0.03925 0.87709 0.0
C3332 C 0.04028 0.08402 0.87249 0.0
C3333 C 0.06109 0.06506 0.88168 0.0
C3334 C 0.02921 0.09563 0.87606 0.0
C3335 C 0.02757 0.10101 0.89161 0.0
C3336 C 0.04981 0.07797 0.88455 0.0
C3337 C 0.03754 0.0949 0.90321 0.0
C3338 C 0.07225 0.06119 0.89317 0.0
C3339 C 0.06975 0.04367 0.86568 0.0
N3340 N 0.04821 0.08371 0.89945 0.0
N3341 N 0.06023 0.05627 0.86826 0.0
H3342 H 0.2043 0.83461 0.12769 0.0
H3343 H 0.15236 0.75897 0.10827 0.0
H3344 H 0.22347 0.79311 0.10546 0.0
H3345 H 0.14054 0.79516 0.1419 0.0
H3346 H 0.17596 0.774 0.10102 0.0
H3347 H 0.17848 0.82285 0.1267 0.0
C3348 C 0.20308 0.82296 0.12262 0.0
C3349 C 0.21609 0.81462 0.11701 0.0
C3350 C 0.168 0.77874 0.10975 0.0
C3351 C 0.18645 0.80107 0.11584 0.0
C3352 C 0.15453 0.77028 0.11377 0.0
C3353 C 0.14471 0.77587 0.12576 0.0
C3354 C 0.17134 0.79289 0.11767 0.0
C3355 C 0.14798 0.79044 0.1327 0.0
C3356 C 0.1883 0.81628 0.12199 0.0
C3357 C 0.21373 0.79977 0.11018 0.0
N3358 N 0.16107 0.7984 0.12862 0.0
N3359 N 0.19915 0.79332 0.10996 0.0
H3360 H 0.13945 0.44085 0.03169 0.0
H3361 H 0.07689 0.45064 0.10041 0.0
H3362 H 0.09851 0.41144 0.03625 0.0
H3363 H 0.12365 0.46949 0.1039 0.0
H3364 H 0.08438 0.43688 0.07634 0.0
H3365 H 0.13359 0.45253 0.05746 0.0
C3366 C 0.12923 0.43688 0.0381 0.0
C3367 C 0.1194 0.42522 0.03182 0.0
C3368 C 0.09307 0.4439 0.08243 0.0
C3369 C 0.11265 0.43848 0.06118 0.0
C3370 C 0.08879 0.45176 0.09617 0.0
C3371 C 0.09966 0.46125 0.1041 0.0
C3372 C 0.10826 0.44572 0.07642 0.0
C3373 C 0.11494 0.46225 0.09813 0.0
C3374 C 0.12595 0.44347 0.05282 0.0
C3375 C 0.10637 0.42043 0.04064 0.0
N3376 N 0.11876 0.45472 0.08451 0.0
N3377 N 0.10332 0.42715 0.05482 0.0
H3378 H 0.62907 0.02013 0.89222 0.0
H3379 H 0.59705 0.0854 0.95207 0.0
H3380 H 0.58424 0.04315 0.88815 0.0
H3381 H 0.63597 0.05495 0.96321 0.0
H3382 H 0.5947 0.07267 0.92651 0.0
H3383 H 0.63448 0.03581 0.91597 0.0
C3384 C 0.62052 0.0287 0.89615 0.0
C3385 C 0.60615 0.03031 0.88834 0.0
C3386 C 0.60377 0.06874 0.93452 0.0
C3387 C 0.61216 0.04806 0.91535 0.0
C3388 C 0.60509 0.07598 0.94915 0.0
C3389 C 0.61664 0.07112 0.95983 0.0
C3390 C 0.61408 0.05654 0.93045 0.0
C3391 C 0.62681 0.05894 0.95535 0.0
C3392 C 0.62355 0.03752 0.90974 0.0
C3393 C 0.59541 0.04147 0.89392 0.0
N3394 N 0.62529 0.05202 0.94096 0.0
N3395 N 0.59861 0.04985 0.90712 0.0
H3396 H 0.17885 0.39198 0.21104 0.0
H3397 H 0.20943 0.33055 0.14706 0.0
H3398 H 0.15831 0.34618 0.20319 0.0
H3399 H 0.22319 0.37947 0.14644 0.0
H3400 H 0.19098 0.33629 0.16811 0.0
H3401 H 0.19552 0.38796 0.18782 0.0
C3402 C 0.1778 0.38113 0.2044 0.0
C3403 C 0.16727 0.36934 0.2091 0.0
C3404 C 0.19794 0.34582 0.16334 0.0
C3405 C 0.18625 0.36468 0.18269 0.0
C3406 C 0.20854 0.34254 0.15135 0.0
C3407 C 0.21791 0.35454 0.14508 0.0
C3408 C 0.1968 0.36121 0.16929 0.0
C3409 C 0.21616 0.36988 0.15099 0.0
C3410 C 0.18727 0.37887 0.19115 0.0
C3411 C 0.16631 0.35555 0.20005 0.0
N3412 N 0.20589 0.37278 0.16291 0.0
N3413 N 0.17575 0.35357 0.18737 0.0
H3414 H 0.85653 0.94542 0.47034 0.0
H3415 H 0.90451 0.95174 0.39033 0.0
H3416 H 0.88936 0.91045 0.45389 0.0
H3417 H 0.86532 0.98211 0.40034 0.0
H3418 H 0.89774 0.93566 0.41307 0.0
H3419 H 0.85847 0.95874 0.44466 0.0
C3420 C 0.86412 0.94056 0.46134 0.0
C3421 C 0.87296 0.92695 0.46429 0.0
C3422 C 0.89043 0.9457 0.41024 0.0
C3423 C 0.87512 0.94193 0.43504 0.0
C3424 C 0.89429 0.95484 0.39723 0.0
C3425 C 0.88549 0.96824 0.39358 0.0
C3426 C 0.87787 0.95019 0.41992 0.0
C3427 C 0.87234 0.97178 0.40281 0.0
C3428 C 0.86513 0.94808 0.44669 0.0
C3429 C 0.88246 0.92101 0.45221 0.0
N3430 N 0.86905 0.96294 0.4158 0.0
N3431 N 0.88335 0.92858 0.43819 0.0
H3432 H 0.84669 0.13675 0.19356 0.0
H3433 H 0.7691 0.108 0.14993 0.0
H3434 H 0.81737 0.10097 0.21446 0.0
H3435 H 0.7897 0.1542 0.1454 0.0
H3436 H 0.78889 0.10152 0.17017 0.0
H3437 H 0.8284 0.13901 0.17183 0.0
C3438 C 0.83642 0.12926 0.19355 0.0
C3439 C 0.83343 0.11881 0.20599 0.0
C3440 C 0.789 0.11303 0.16465 0.0
C3441 C 0.81232 0.12144 0.181 0.0
C3442 C 0.77781 0.1167 0.15311 0.0
C3443 C 0.77775 0.13168 0.14608 0.0
C3444 C 0.8003 0.12433 0.16878 0.0
C3445 C 0.78922 0.14256 0.1506 0.0
C3446 C 0.82596 0.1306 0.18111 0.0
C3447 C 0.82003 0.10927 0.20515 0.0
N3448 N 0.80003 0.13864 0.16159 0.0
N3449 N 0.80983 0.11088 0.19287 0.0
H3450 H 0.38544 0.59168 0.54322 0.0
H3451 H 0.36259 0.52209 0.60191 0.0
H3452 H 0.35072 0.55693 0.53063 0.0
H3453 H 0.40828 0.5436 0.59987 0.0
H3454 H 0.35442 0.53839 0.57934 0.0
H3455 H 0.39 0.57782 0.5679 0.0
C3456 C 0.37868 0.58116 0.54569 0.0
C3457 C 0.36783 0.5753 0.53478 0.0
C3458 C 0.36618 0.53957 0.58397 0.0
C3459 C 0.37298 0.55945 0.56308 0.0
C3460 C 0.3708 0.53038 0.59685 0.0
C3461 C 0.38614 0.5315 0.60263 0.0
C3462 C 0.3769 0.55009 0.57719 0.0
C3463 C 0.39639 0.54232 0.59566 0.0
C3464 C 0.38133 0.57326 0.55978 0.0
C3465 C 0.35932 0.56171 0.53869 0.0
N3466 N 0.39157 0.55122 0.58332 0.0
N3467 N 0.36212 0.55415 0.55257 0.0
H3468 H 0.22541 0.61436 0.34433 0.0
H3469 H 0.15638 0.64796 0.29032 0.0
H3470 H 0.20961 0.66267 0.34429 0.0
H3471 H 0.17739 0.60244 0.28205 0.0
H3472 H 0.17424 0.65215 0.31215 0.0
H3473 H 0.20638 0.60843 0.32343 0.0
C3474 C 0.2179 0.62367 0.33999 0.0
C3475 C 0.21911 0.63904 0.34599 0.0
C3476 C 0.175 0.64123 0.3056 0.0
C3477 C 0.19743 0.63237 0.32226 0.0
C3478 C 0.16477 0.63881 0.29311 0.0
C3479 C 0.16546 0.62486 0.28429 0.0
C3480 C 0.18605 0.62961 0.3094 0.0
C3481 C 0.17654 0.6134 0.28852 0.0
C3482 C 0.2071 0.6203 0.32805 0.0
C3483 C 0.20914 0.65068 0.33996 0.0
N3484 N 0.18646 0.61604 0.30081 0.0
N3485 N 0.19874 0.6471 0.32845 0.0
H3486 H 0.28169 0.32771 0.84431 0.0
H3487 H 0.31362 0.39205 0.78371 0.0
H3488 H 0.27015 0.37704 0.84867 0.0
H3489 H 0.33286 0.3453 0.78894 0.0
H3490 H 0.29631 0.38691 0.80627 0.0
H3491 H 0.29911 0.33399 0.82254 0.0
C3492 C 0.28282 0.33989 0.84067 0.0
C3493 C 0.27446 0.35188 0.84829 0.0
C3494 C 0.30439 0.37784 0.80247 0.0
C3495 C 0.29443 0.35917 0.8233 0.0
C3496 C 0.31422 0.38074 0.78961 0.0
C3497 C 0.32464 0.36906 0.78444 0.0
C3498 C 0.30494 0.36312 0.81002 0.0
C3499 C 0.325 0.35465 0.7925 0.0
C3500 C 0.29282 0.34348 0.82826 0.0
C3501 C 0.27642 0.36746 0.84309 0.0
N3502 N 0.31525 0.35207 0.80481 0.0
N3503 N 0.28618 0.37068 0.83083 0.0
H3504 H 0.89944 0.86463 0.51674 0.0
H3505 H 0.95823 0.89056 0.5852 0.0
H3506 H 0.90077 0.91089 0.53781 0.0
H3507 H 0.96836 0.8513 0.5545 0.0
H3508 H 0.93431 0.89549 0.57054 0.0
H3509 H 0.92209 0.85701 0.53302 0.0
C3510 C 0.90441 0.8731 0.52488 0.0
C3511 C 0.89833 0.88843 0.52591 0.0
C3512 C 0.94174 0.88578 0.56697 0.0
C3513 C 0.92393 0.87983 0.54445 0.0
C3514 C 0.9554 0.88294 0.57536 0.0
C3515 C 0.96537 0.87059 0.57095 0.0
C3516 C 0.93789 0.87619 0.55408 0.0
C3517 C 0.96104 0.86103 0.55816 0.0
C3518 C 0.91733 0.86878 0.53406 0.0
C3519 C 0.90517 0.89899 0.53656 0.0
N3520 N 0.94757 0.86405 0.55011 0.0
N3521 N 0.91757 0.89449 0.54541 0.0
H3522 H 0.8482 0.21278 0.328 0.0
H3523 H 0.88647 0.16214 0.25883 0.0
H3524 H 0.89015 0.22704 0.30352 0.0
H3525 H 0.83857 0.15653 0.27393 0.0
H3526 H 0.88918 0.18447 0.27685 0.0
H3527 H 0.84564 0.19049 0.30997 0.0
C3528 C 0.85688 0.2112 0.31883 0.0
C3529 C 0.86939 0.22176 0.3172 0.0
C3530 C 0.87807 0.17838 0.27617 0.0
C3531 C 0.86657 0.19629 0.29662 0.0
C3532 C 0.87653 0.16563 0.26594 0.0
C3533 C 0.86227 0.15754 0.26489 0.0
C3534 C 0.86531 0.18293 0.28553 0.0
C3535 C 0.84975 0.1625 0.27435 0.0
C3536 C 0.85538 0.19852 0.30852 0.0
C3537 C 0.8803 0.21919 0.30513 0.0
N3538 N 0.85159 0.17486 0.28434 0.0
N3539 N 0.87867 0.20665 0.29531 0.0
H3540 H 0.52183 0.13837 0.05386 0.0
H3541 H 0.59668 0.08556 0.03718 0.0
H3542 H 0.53983 0.10397 0.08667 0.0
H3543 H 0.58998 0.1301 0.01361 0.0
H3544 H 0.57472 0.09156 0.05444 0.0
H3545 H 0.54555 0.13503 0.03776 0.0
C3546 C 0.53076 0.13015 0.05766 0.0
C3547 C 0.52885 0.12134 0.07154 0.0
C3548 C 0.5781 0.10012 0.0456 0.0
C3549 C 0.55579 0.11747 0.0533 0.0
C3550 C 0.59062 0.09668 0.03572 0.0
C3551 C 0.5951 0.10735 0.02396 0.0
C3552 C 0.56977 0.11422 0.04354 0.0
C3553 C 0.58689 0.12161 0.02261 0.0
C3554 C 0.54429 0.12832 0.04855 0.0
C3555 C 0.54079 0.11095 0.07602 0.0
N3556 N 0.57444 0.12457 0.03219 0.0
N3557 N 0.55367 0.10922 0.06688 0.0
H3558 H 0.651 0.78029 0.82451 0.0
H3559 H 0.6098 0.83332 0.75903 0.0
H3560 H 0.60868 0.76643 0.80042 0.0
H3561 H 0.65805 0.83926 0.77285 0.0
H3562 H 0.60821 0.80999 0.7759 0.0
H3563 H 0.65309 0.80305 0.80701 0.0
C3564 C 0.64221 0.78199 0.81547 0.0
C3565 C 0.62961 0.77152 0.81394 0.0
C3566 C 0.61914 0.8164 0.77521 0.0
C3567 C 0.63183 0.79757 0.79406 0.0
C3568 C 0.62003 0.82974 0.76567 0.0
C3569 C 0.63408 0.83817 0.76455 0.0
C3570 C 0.63236 0.8116 0.78378 0.0
C3571 C 0.647 0.83304 0.77336 0.0
C3572 C 0.64341 0.79497 0.8055 0.0
C3573 C 0.61856 0.77424 0.80202 0.0
N3574 N 0.64582 0.82009 0.78265 0.0
N3575 N 0.61985 0.7871 0.7926 0.0
H3576 H 0.89218 0.07388 0.95181 0.0
H3577 H 0.96097 0.13534 0.9409 0.0
H3578 H 0.88974 0.12139 0.96979 0.0
H3579 H 0.95521 0.09516 0.91024 0.0
H3580 H 0.93527 0.12997 0.95236 0.0
H3581 H 0.91537 0.08114 0.93659 0.0
C3582 C 0.89639 0.08591 0.95235 0.0
C3583 C 0.88913 0.09703 0.96213 0.0
C3584 C 0.9396 0.12239 0.94305 0.0
C3585 C 0.91577 0.1053 0.94506 0.0
C3586 C 0.9543 0.12538 0.9366 0.0
C3587 C 0.96022 0.11563 0.92466 0.0
C3588 C 0.93089 0.10943 0.9377 0.0
C3589 C 0.95107 0.10294 0.91946 0.0
C3590 C 0.90962 0.09003 0.94368 0.0
C3591 C 0.89502 0.11245 0.96239 0.0
N3592 N 0.9369 0.10012 0.92611 0.0
N3593 N 0.90817 0.11608 0.95416 0.0
H3594 H 0.66714 0.15697 0.71473 0.0
H3595 H 0.61036 0.23034 0.6995 0.0
H3596 H 0.62305 0.16384 0.73859 0.0
H3597 H 0.65003 0.21942 0.66995 0.0
H3598 H 0.61647 0.20746 0.71581 0.0
H3599 H 0.66257 0.18125 0.69985 0.0
C3600 C 0.65652 0.16361 0.71685 0.0
C3601 C 0.64542 0.1584 0.72783 0.0
C3602 C 0.62387 0.21009 0.70578 0.0
C3603 C 0.64016 0.1861 0.71098 0.0
C3604 C 0.62041 0.22316 0.69649 0.0
C3605 C 0.62965 0.22668 0.68331 0.0
C3606 C 0.6367 0.20052 0.70187 0.0
C3607 C 0.64256 0.21705 0.67998 0.0
C3608 C 0.65392 0.17744 0.70836 0.0
C3609 C 0.63188 0.16742 0.73017 0.0
N3610 N 0.64569 0.20435 0.68919 0.0
N3611 N 0.62962 0.18084 0.7218 0.0
H3612 H 0.54095 0.89747 0.41214 0.0
H3613 H 0.60121 0.86929 0.47794 0.0
H3614 H 0.53263 0.85569 0.43991 0.0
H3615 H 0.59548 0.91786 0.46402 0.0
H3616 H 0.57873 0.86222 0.46128 0.0
H3617 H 0.56395 0.90317 0.42818 0.0
C3618 C 0.54401 0.88945 0.42159 0.0
C3619 C 0.53485 0.87614 0.42479 0.0
C3620 C 0.58244 0.8744 0.46193 0.0
C3621 C 0.56119 0.88256 0.44311 0.0
C3622 C 0.59526 0.87843 0.47135 0.0
C3623 C 0.60015 0.89418 0.47236 0.0
C3624 C 0.57473 0.88619 0.4533 0.0
C3625 C 0.59204 0.90559 0.46364 0.0
C3626 C 0.5571 0.89275 0.43076 0.0
C3627 C 0.53935 0.86614 0.43716 0.0
N3628 N 0.57979 0.90135 0.45441 0.0
N3629 N 0.55228 0.86953 0.44589 0.0
H3630 H 0.8846 0.83636 0.232 0.0
H3631 H 0.84888 0.78533 0.16171 0.0
H3632 H 0.83916 0.84533 0.21167 0.0
H3633 H 0.88438 0.7676 0.19327 0.0
H3634 H 0.8476 0.80954 0.17725 0.0
H3635 H 0.88726 0.81323 0.21494 0.0
C3636 C 0.87525 0.83352 0.22386 0.0
C3637 C 0.86159 0.84265 0.22328 0.0
C3638 C 0.85567 0.80034 0.18076 0.0
C3639 C 0.86458 0.81638 0.20382 0.0
C3640 C 0.85641 0.78655 0.17191 0.0
C3641 C 0.8667 0.77446 0.17629 0.0
C3642 C 0.86541 0.8021 0.19396 0.0
C3643 C 0.87623 0.77663 0.18957 0.0
C3644 C 0.87674 0.82031 0.21421 0.0
C3645 C 0.84982 0.8385 0.21255 0.0
N3646 N 0.87539 0.79024 0.19794 0.0
N3647 N 0.85159 0.82565 0.20321 0.0
H3648 H 0.58166 0.9635 0.89462 0.0
H3649 H 0.519 0.8982 0.8713 0.0
H3650 H 0.55309 0.96787 0.85287 0.0
H3651 H 0.53685 0.90496 0.91845 0.0
H3652 H 0.53283 0.92218 0.86297 0.0
H3653 H 0.5669 0.94022 0.90218 0.0
C3654 C 0.57224 0.95955 0.88704 0.0
C3655 C 0.56854 0.96761 0.87313 0.0
C3656 C 0.53361 0.91839 0.87513 0.0
C3657 C 0.55162 0.9409 0.88168 0.0
C3658 C 0.5258 0.90473 0.87988 0.0
C3659 C 0.52683 0.89961 0.89557 0.0
C3660 C 0.54263 0.92676 0.88615 0.0
C3661 C 0.53573 0.90848 0.90624 0.0
C3662 C 0.56378 0.94628 0.89139 0.0
C3663 C 0.55623 0.96199 0.86374 0.0
N3664 N 0.54335 0.92157 0.90131 0.0
N3665 N 0.54821 0.94887 0.86816 0.0
H3666 H 0.84627 0.78485 0.67015 0.0
H3667 H 0.77919 0.80333 0.60773 0.0
H3668 H 0.84808 0.76866 0.62194 0.0
H3669 H 0.78574 0.8305 0.65024 0.0
H3670 H 0.80332 0.78897 0.6135 0.0
H3671 H 0.82312 0.80046 0.66374 0.0
C3672 C 0.84184 0.78466 0.65819 0.0
C3673 C 0.84905 0.77544 0.64655 0.0
C3674 C 0.79949 0.7981 0.62153 0.0
C3675 C 0.8225 0.79309 0.6392 0.0
C3676 C 0.78568 0.80624 0.6183 0.0
C3677 C 0.78048 0.81811 0.62853 0.0
C3678 C 0.80801 0.80174 0.6352 0.0
C3679 C 0.78935 0.82143 0.64204 0.0
C3680 C 0.82865 0.79358 0.65453 0.0
C3681 C 0.84287 0.77565 0.63124 0.0
N3682 N 0.80267 0.81323 0.64503 0.0
N3683 N 0.82984 0.78424 0.62802 0.0
H3684 H 0.94305 0.02762 0.3599 0.0
H3685 H 0.95658 0.09949 0.41834 0.0
H3686 H 0.913 0.03677 0.39978 0.0
H3687 H 0.97316 0.09973 0.37026 0.0
H3688 H 0.94232 0.07514 0.41292 0.0
H3689 H 0.95653 0.05257 0.3649 0.0
C3690 C 0.93935 0.03483 0.36975 0.0
C3691 C 0.92687 0.0302 0.37941 0.0
C3692 C 0.94898 0.0806 0.40353 0.0
C3693 C 0.9422 0.05858 0.38519 0.0
C3694 C 0.95711 0.09447 0.40661 0.0
C3695 C 0.96604 0.10158 0.39471 0.0
C3696 C 0.95002 0.07368 0.38854 0.0
C3697 C 0.96634 0.09462 0.37972 0.0
C3698 C 0.94697 0.04909 0.37252 0.0
C3699 C 0.92254 0.03996 0.39202 0.0
N3700 N 0.95855 0.08093 0.37709 0.0
N3701 N 0.93024 0.05369 0.39458 0.0
H3702 H 0.64826 0.20661 0.16114 0.0
H3703 H 0.71987 0.18644 0.10473 0.0
H3704 H 0.65305 0.22697 0.11477 0.0
H3705 H 0.70651 0.15765 0.14446 0.0
H3706 H 0.69611 0.20217 0.10846 0.0
H3707 H 0.67015 0.18909 0.15547 0.0
C3708 C 0.65388 0.20731 0.14971 0.0
C3709 C 0.64891 0.21828 0.13843 0.0
C3710 C 0.69836 0.19236 0.11629 0.0
C3711 C 0.67409 0.1984 0.13191 0.0
C3712 C 0.71194 0.18344 0.11423 0.0
C3713 C 0.71518 0.1708 0.12438 0.0
C3714 C 0.6881 0.18869 0.12869 0.0
C3715 C 0.70448 0.16734 0.13641 0.0
C3716 C 0.66636 0.19729 0.14647 0.0
C3717 C 0.65653 0.21865 0.12378 0.0
N3718 N 0.69148 0.1763 0.1383 0.0
N3719 N 0.66889 0.20895 0.12099 0.0
H3720 H 0.57951 0.03482 0.59425 0.0
H3721 H 0.5199 0.09967 0.62501 0.0
H3722 H 0.54884 0.02649 0.63382 0.0
H3723 H 0.5369 0.09821 0.5771 0.0
H3724 H 0.53267 0.07427 0.63001 0.0
H3725 H 0.5658 0.05947 0.58899 0.0
C3726 C 0.56981 0.03815 0.60176 0.0
C3727 C 0.56533 0.02869 0.61453 0.0
C3728 C 0.53356 0.07955 0.61842 0.0
C3729 C 0.54979 0.05692 0.60873 0.0
C3730 C 0.52641 0.09406 0.6156 0.0
C3731 C 0.52739 0.10099 0.60063 0.0
C3732 C 0.54188 0.07214 0.60623 0.0
C3733 C 0.53585 0.09323 0.5888 0.0
C3734 C 0.56201 0.0522 0.59876 0.0
C3735 C 0.55267 0.03349 0.62387 0.0
N3736 N 0.54283 0.07923 0.59187 0.0
N3737 N 0.54541 0.04742 0.62089 0.0
H3738 H 0.64896 0.78667 0.32776 0.0
H3739 H 0.71541 0.81141 0.38851 0.0
H3740 H 0.64921 0.77038 0.37597 0.0
H3741 H 0.70533 0.83726 0.34587 0.0
H3742 H 0.69208 0.79526 0.3839 0.0
H3743 H 0.6705 0.80444 0.33391 0.0
C3744 C 0.65353 0.78689 0.33967 0.0
C3745 C 0.64737 0.77702 0.35137 0.0
C3746 C 0.69495 0.80453 0.37562 0.0
C3747 C 0.67211 0.79723 0.35846 0.0
C3748 C 0.70828 0.81369 0.3782 0.0
C3749 C 0.71232 0.82561 0.36749 0.0
C3750 C 0.68577 0.80724 0.36216 0.0
C3751 C 0.70266 0.82815 0.35438 0.0
C3752 C 0.66579 0.79707 0.34319 0.0
C3753 C 0.65365 0.77784 0.36663 0.0
N3754 N 0.68989 0.81896 0.35203 0.0
N3755 N 0.66582 0.78768 0.36972 0.0
H3756 H 0.97278 0.89435 0.12532 0.0
H3757 H 0.91328 0.96206 0.09939 0.0
H3758 H 0.94898 0.89505 0.08043 0.0
H3759 H 0.94787 0.96837 0.13594 0.0
H3760 H 0.92338 0.93562 0.09461 0.0
H3761 H 0.96032 0.91946 0.13205 0.0
C3762 C 0.96473 0.89965 0.117 0.0
C3763 C 0.96196 0.89272 0.10226 0.0
C3764 C 0.92877 0.94279 0.10366 0.0
C3765 C 0.94785 0.92134 0.1098 0.0
C3766 C 0.92305 0.95789 0.10638 0.0
C3767 C 0.9298 0.96741 0.11804 0.0
C3768 C 0.94126 0.93713 0.11277 0.0
C3769 C 0.94238 0.96142 0.12679 0.0
C3770 C 0.95775 0.91402 0.12079 0.0
C3771 C 0.9515 0.90008 0.09188 0.0
N3772 N 0.9477 0.94659 0.12401 0.0
N3773 N 0.94486 0.91405 0.09583 0.0
H3774 H 0.84371 0.23044 0.8859 0.0
H3775 H 0.79567 0.15444 0.85829 0.0
H3776 H 0.85002 0.20698 0.84122 0.0
H3777 H 0.77701 0.18747 0.89212 0.0
H3778 H 0.81907 0.17068 0.8559 0.0
H3779 H 0.8224 0.21187 0.89214 0.0
C3780 C 0.84074 0.22128 0.87752 0.0
C3781 C 0.84849 0.22027 0.86298 0.0
C3782 C 0.80989 0.17434 0.86391 0.0
C3783 C 0.82447 0.19911 0.87004 0.0
C3784 C 0.79654 0.16507 0.8653 0.0
C3785 C 0.7843 0.16972 0.87527 0.0
C3786 C 0.81111 0.18834 0.87262 0.0
C3787 C 0.78613 0.18356 0.88417 0.0
C3788 C 0.82858 0.21078 0.88104 0.0
C3789 C 0.84422 0.20826 0.85249 0.0
N3790 N 0.79929 0.19246 0.8826 0.0
N3791 N 0.83252 0.19816 0.85623 0.0
H3792 H 0.9014 0.57743 0.96443 0.0
H3793 H 0.87397 0.50467 0.91146 0.0
H3794 H 0.8587 0.55134 0.97191 0.0
H3795 H 0.91814 0.52843 0.90496 0.0
H3796 H 0.86894 0.52096 0.93455 0.0
H3797 H 0.9085 0.559 0.9434 0.0
C3798 C 0.89356 0.56779 0.96168 0.0
C3799 C 0.8794 0.56594 0.96982 0.0
C3800 C 0.87979 0.52258 0.92816 0.0
C3801 C 0.8874 0.5449 0.94587 0.0
C3802 C 0.88266 0.51328 0.91497 0.0
C3803 C 0.89644 0.5153 0.90626 0.0
C3804 C 0.89073 0.53407 0.93262 0.0
C3805 C 0.90734 0.52654 0.91136 0.0
C3806 C 0.89762 0.55728 0.94971 0.0
C3807 C 0.86969 0.55324 0.96587 0.0
N3808 N 0.9042 0.53562 0.92417 0.0
N3809 N 0.87384 0.54325 0.95412 0.0
H3810 H 0.36306 0.93973 0.02128 0.0
H3811 H 0.41183 0.96063 0.09897 0.0
H3812 H 0.39796 0.90867 0.04099 0.0
H3813 H 0.37129 0.9865 0.08309 0.0
H3814 H 0.40819 0.94213 0.07705 0.0
H3815 H 0.36717 0.95784 0.04319 0.0
C3816 C 0.37159 0.93672 0.03024 0.0
C3817 C 0.38017 0.9227 0.02937 0.0
C3818 C 0.4001 0.95186 0.07841 0.0
C3819 C 0.38498 0.94336 0.05444 0.0
C3820 C 0.40219 0.9624 0.09087 0.0
C3821 C 0.39184 0.97506 0.0928 0.0
C3822 C 0.38764 0.95413 0.06784 0.0
C3823 C 0.37953 0.97686 0.08204 0.0
C3824 C 0.37392 0.94705 0.04276 0.0
C3825 C 0.39108 0.91937 0.04128 0.0
N3826 N 0.37779 0.96653 0.07 0.0
N3827 N 0.39321 0.92967 0.05334 0.0
H3828 H 0.77003 0.61938 0.85012 0.0
H3829 H 0.82455 0.65028 0.78098 0.0
H3830 H 0.78178 0.66841 0.84351 0.0
H3831 H 0.79883 0.6067 0.777 0.0
H3832 H 0.81045 0.65625 0.80519 0.0
H3833 H 0.78239 0.61335 0.82466 0.0
C3834 C 0.77527 0.62883 0.84335 0.0
C3835 C 0.77494 0.64439 0.84888 0.0
C3836 C 0.80779 0.64543 0.79898 0.0
C3837 C 0.78895 0.63763 0.82 0.0
C3838 C 0.81583 0.64201 0.78517 0.0
C3839 C 0.81289 0.62794 0.77707 0.0
C3840 C 0.79689 0.63458 0.80488 0.0
C3841 C 0.80144 0.61767 0.78295 0.0
C3842 C 0.78218 0.62541 0.82882 0.0
C3843 C 0.78177 0.65624 0.83966 0.0
N3844 N 0.79394 0.6211 0.79667 0.0
N3845 N 0.78856 0.6526 0.82571 0.0
H3846 H 0.13273 0.05356 0.51643 0.0
H3847 H 0.0811 0.03065 0.59076 0.0
H3848 H 0.09447 0.08338 0.53115 0.0
H3849 H 0.12973 0.01809 0.58501 0.0
H3850 H 0.08316 0.04772 0.56736 0.0
H3851 H 0.1286 0.03719 0.53953 0.0
C3852 C 0.12338 0.05663 0.52449 0.0
C3853 C 0.11405 0.06996 0.522 0.0
C3854 C 0.09334 0.04126 0.57136 0.0
C3855 C 0.10929 0.05123 0.54851 0.0
C3856 C 0.0922 0.03157 0.58465 0.0
C3857 C 0.10525 0.02291 0.58973 0.0
C3858 C 0.10755 0.04198 0.5631 0.0
C3859 C 0.11936 0.0245 0.58148 0.0
C3860 C 0.12108 0.0473 0.53772 0.0
C3861 C 0.10198 0.07323 0.53274 0.0
N3862 N 0.12008 0.03373 0.5685 0.0
N3863 N 0.09994 0.06391 0.54564 0.0
H3864 H 0.2306 0.88615 0.84499 0.0
H3865 H 0.15906 0.86381 0.78872 0.0
H3866 H 0.2046 0.84266 0.84759 0.0
H3867 H 0.19471 0.89702 0.77473 0.0
H3868 H 0.17248 0.86005 0.81373 0.0
H3869 H 0.21434 0.89422 0.82242 0.0
C3870 C 0.22133 0.87844 0.84095 0.0
C3871 C 0.21897 0.86368 0.84798 0.0
C3872 C 0.17735 0.86821 0.80523 0.0
C3873 C 0.20046 0.87279 0.82253 0.0
C3874 C 0.1697 0.87037 0.79094 0.0
C3875 C 0.17593 0.88056 0.77957 0.0
C3876 C 0.19131 0.87634 0.80822 0.0
C3877 C 0.18965 0.8889 0.78315 0.0
C3878 C 0.21216 0.883 0.82808 0.0
C3879 C 0.20689 0.85407 0.84236 0.0
N3880 N 0.19698 0.88654 0.7972 0.0
N3881 N 0.1981 0.85878 0.82994 0.0
H3882 H 0.58657 0.46787 0.40672 0.0
H3883 H 0.63857 0.44126 0.48006 0.0
H3884 H 0.63495 0.4812 0.41262 0.0
H3885 H 0.59687 0.41628 0.46595 0.0
H3886 H 0.63611 0.45796 0.45674 0.0
H3887 H 0.58892 0.45044 0.42965 0.0
C3888 C 0.59769 0.46707 0.41279 0.0
C3889 C 0.61058 0.47598 0.40782 0.0
C3890 C 0.62751 0.44881 0.45874 0.0
C3891 C 0.61328 0.45632 0.43403 0.0
C3892 C 0.62887 0.43933 0.47208 0.0
C3893 C 0.61792 0.42736 0.47489 0.0
C3894 C 0.61501 0.44643 0.44826 0.0
C3895 C 0.60558 0.42536 0.46417 0.0
C3896 C 0.59902 0.45713 0.42584 0.0
C3897 C 0.62472 0.47452 0.41607 0.0
N3898 N 0.60442 0.43485 0.45132 0.0
N3899 N 0.62567 0.46496 0.42885 0.0
H3900 H 0.79534 0.32876 0.64743 0.0
H3901 H 0.80676 0.38974 0.71742 0.0
H3902 H 0.77511 0.37535 0.64665 0.0
H3903 H 0.83697 0.34961 0.7102 0.0
H3904 H 0.79434 0.38442 0.69196 0.0
H3905 H 0.8105 0.33608 0.67066 0.0
C3906 C 0.79425 0.34061 0.65206 0.0
C3907 C 0.78392 0.35146 0.64522 0.0
C3908 C 0.80375 0.37685 0.69593 0.0
C3909 C 0.801 0.35982 0.6719 0.0
C3910 C 0.81075 0.3798 0.71049 0.0
C3911 C 0.82284 0.37004 0.71592 0.0
C3912 C 0.80876 0.36394 0.6869 0.0
C3913 C 0.82764 0.35739 0.70646 0.0
C3914 C 0.80289 0.34478 0.66531 0.0
C3915 C 0.78298 0.36666 0.6516 0.0
N3916 N 0.82052 0.35464 0.69244 0.0
N3917 N 0.79126 0.37035 0.66477 0.0
H3918 H 0.73616 0.65111 0.15854 0.0
H3919 H 0.66636 0.61406 0.20158 0.0
H3920 H 0.70851 0.61677 0.13351 0.0
H3921 H 0.71071 0.61642 0.22569 0.0
H3922 H 0.68 0.61726 0.17632 0.0
H3923 H 0.72573 0.6411 0.18353 0.0
C3924 C 0.72796 0.64138 0.15837 0.0
C3925 C 0.72308 0.63474 0.14408 0.0
C3926 C 0.68673 0.61683 0.18714 0.0
C3927 C 0.71097 0.62355 0.17237 0.0
C3928 C 0.67899 0.61515 0.20149 0.0
C3929 C 0.6875 0.61515 0.21561 0.0
C3930 C 0.70297 0.61905 0.18704 0.0
C3931 C 0.70381 0.61641 0.21498 0.0
C3932 C 0.72213 0.63563 0.17257 0.0
C3933 C 0.71252 0.62212 0.14437 0.0
N3934 N 0.71105 0.61869 0.20089 0.0
N3935 N 0.70651 0.61711 0.15835 0.0
H3936 H 0.53484 0.60342 0.90681 0.0
H3937 H 0.59344 0.63251 0.97409 0.0
H3938 H 0.52186 0.63764 0.94212 0.0
H3939 H 0.60031 0.59074 0.94592 0.0
H3940 H 0.56946 0.63813 0.95925 0.0
H3941 H 0.56084 0.60188 0.91827 0.0
C3942 C 0.53745 0.61059 0.91704 0.0
C3943 C 0.52613 0.62058 0.92363 0.0
C3944 C 0.57636 0.62787 0.9562 0.0
C3945 C 0.556 0.61894 0.93676 0.0
C3946 C 0.59011 0.62474 0.96453 0.0
C3947 C 0.59875 0.61106 0.96129 0.0
C3948 C 0.5714 0.61729 0.9445 0.0
C3949 C 0.5939 0.60134 0.94888 0.0
C3950 C 0.55233 0.60974 0.92354 0.0
C3951 C 0.53022 0.62968 0.9368 0.0
N3952 N 0.58047 0.60458 0.94102 0.0
N3953 N 0.54487 0.62863 0.94298 0.0
H3954 H 0.64891 0.28909 0.16243 0.0
H3955 H 0.61263 0.35156 0.22279 0.0
H3956 H 0.60621 0.28019 0.18812 0.0
H3957 H 0.66067 0.35163 0.20714 0.0
H3958 H 0.60806 0.32758 0.20713 0.0
H3959 H 0.65149 0.31422 0.176 0.0
C3960 C 0.64008 0.29242 0.17097 0.0
C3961 C 0.62738 0.28252 0.17424 0.0
C3962 C 0.61955 0.33295 0.2071 0.0
C3963 C 0.6302 0.31136 0.18974 0.0
C3964 C 0.62213 0.34665 0.2159 0.0
C3965 C 0.63707 0.35346 0.21629 0.0
C3966 C 0.63198 0.32628 0.19854 0.0
C3967 C 0.64901 0.34665 0.20726 0.0
C3968 C 0.64155 0.30678 0.1787 0.0
C3969 C 0.61624 0.28746 0.18536 0.0
N3970 N 0.64621 0.33344 0.19878 0.0
N3971 N 0.6179 0.3016 0.19273 0.0
H3972 H 0.97413 0.35437 0.44384 0.0
H3973 H 0.89703 0.40718 0.45156 0.0
H3974 H 0.96488 0.39657 0.41698 0.0
H3975 H 0.90226 0.36282 0.47585 0.0
H3976 H 0.92194 0.4028 0.43851 0.0
H3977 H 0.94821 0.35693 0.45614 0.0
C3978 C 0.96672 0.36422 0.44064 0.0
C3979 C 0.97161 0.37527 0.42937 0.0
C3980 C 0.91765 0.39392 0.44659 0.0
C3981 C 0.94211 0.37817 0.44319 0.0
C3982 C 0.90339 0.39641 0.45401 0.0
C3983 C 0.89765 0.38538 0.46483 0.0
C3984 C 0.92639 0.38035 0.45013 0.0
C3985 C 0.9063 0.37159 0.46753 0.0
C3986 C 0.95192 0.3656 0.44756 0.0
C3987 C 0.96157 0.38775 0.42557 0.0
N3988 N 0.92038 0.36952 0.46033 0.0
N3989 N 0.94733 0.38884 0.43245 0.0
H3990 H 0.83967 0.6374 0.7008 0.0
H3991 H 0.89132 0.71527 0.69751 0.0
H3992 H 0.87837 0.64544 0.73243 0.0
H3993 H 0.85643 0.70252 0.66298 0.0
H3994 H 0.88847 0.68909 0.70952 0.0
H3995 H 0.84771 0.66013 0.68533 0.0
C3996 C 0.85004 0.64385 0.70431 0.0
C3997 C 0.85831 0.6397 0.71794 0.0
C3998 C 0.88156 0.69202 0.69924 0.0
C3999 C 0.86738 0.666 0.70056 0.0
C4000 C 0.8831 0.70696 0.69246 0.0
C4001 C 0.87393 0.71112 0.67939 0.0
C4002 C 0.87074 0.68129 0.69288 0.0
C4003 C 0.8636 0.6999 0.67317 0.0
C4004 C 0.85462 0.65686 0.69551 0.0
C4005 C 0.87171 0.64833 0.72196 0.0
N4006 N 0.86222 0.68557 0.68003 0.0
N4007 N 0.8757 0.66131 0.71345 0.0
H4008 H 0.53261 0.38626 0.58985 0.0
H4009 H 0.59072 0.36229 0.52025 0.0
H4010 H 0.51901 0.35343 0.55344 0.0
H4011 H 0.59435 0.40488 0.5478 0.0
H4012 H 0.5669 0.35529 0.53495 0.0
H4013 H 0.55783 0.38943 0.57719 0.0
C4014 C 0.53493 0.37968 0.57915 0.0
C4015 C 0.52361 0.36971 0.57255 0.0
C4016 C 0.57303 0.36608 0.5378 0.0
C4017 C 0.55263 0.37332 0.55798 0.0
C4018 C 0.58663 0.37002 0.52954 0.0
C4019 C 0.59441 0.38422 0.53281 0.0
C4020 C 0.56743 0.37632 0.54951 0.0
C4021 C 0.58863 0.39389 0.54484 0.0
C4022 C 0.54937 0.38151 0.57193 0.0
C4023 C 0.52738 0.36136 0.55879 0.0
N4024 N 0.57549 0.38976 0.55274 0.0
N4025 N 0.54163 0.3634 0.55186 0.0
H4026 H 0.88112 0.35035 0.7723 0.0
H4027 H 0.84955 0.2923 0.83933 0.0
H4028 H 0.83511 0.3534 0.79302 0.0
H4029 H 0.88828 0.28042 0.8089 0.0
H4030 H 0.84666 0.31725 0.82544 0.0
H4031 H 0.88662 0.32733 0.78896 0.0
C4032 C 0.8723 0.34634 0.78055 0.0
C4033 C 0.85761 0.35366 0.78125 0.0
C4034 C 0.8558 0.3092 0.82179 0.0
C4035 C 0.86375 0.3275 0.80015 0.0
C4036 C 0.85745 0.29494 0.8297 0.0
C4037 C 0.86909 0.28423 0.82515 0.0
C4038 C 0.86593 0.31285 0.8093 0.0
C4039 C 0.87906 0.28831 0.81266 0.0
C4040 C 0.87539 0.33316 0.78993 0.0
C4041 C 0.84654 0.34799 0.79203 0.0
N4042 N 0.87725 0.30234 0.80514 0.0
N4043 N 0.84982 0.33521 0.80103 0.0
H4044 H 0.88845 0.58511 0.04365 0.0
H4045 H 0.96563 0.63577 0.05747 0.0
H4046 H 0.89667 0.62983 0.02089 0.0
H4047 H 0.95242 0.5961 0.0864 0.0
H4048 H 0.94035 0.63405 0.04398 0.0
H4049 H 0.91139 0.58953 0.06016 0.0
C4050 C 0.89495 0.59599 0.04232 0.0
C4051 C 0.89076 0.60706 0.03082 0.0
C4052 C 0.94298 0.62577 0.05333 0.0
C4053 C 0.9172 0.61206 0.04941 0.0
C4054 C 0.95744 0.62668 0.06093 0.0
C4055 C 0.96113 0.61601 0.07299 0.0
C4056 C 0.93226 0.61403 0.05776 0.0
C4057 C 0.95007 0.60453 0.07711 0.0
C4058 C 0.90808 0.59849 0.0517 0.0
C4059 C 0.89954 0.62098 0.02961 0.0
N4060 N 0.93616 0.6038 0.06947 0.0
N4061 N 0.91251 0.62299 0.03864 0.0
H4062 H 0.67299 0.64815 0.28659 0.0
H4063 H 0.60774 0.71343 0.30135 0.0
H4064 H 0.62622 0.64299 0.26811 0.0
H4065 H 0.64813 0.70682 0.33119 0.0
H4066 H 0.61466 0.68909 0.28717 0.0
H4067 H 0.66453 0.67132 0.30121 0.0
C4068 C 0.6609 0.65189 0.28565 0.0
C4069 C 0.65027 0.64366 0.27614 0.0
C4070 C 0.62191 0.69299 0.29688 0.0
C4071 C 0.64052 0.67029 0.29276 0.0
C4072 C 0.61803 0.70687 0.3049 0.0
C4073 C 0.62742 0.71216 0.31739 0.0
C4074 C 0.63538 0.68458 0.3013 0.0
C4075 C 0.64056 0.7032 0.32161 0.0
C4076 C 0.65606 0.66509 0.29403 0.0
C4077 C 0.63474 0.649 0.27539 0.0
N4078 N 0.6442 0.68994 0.31353 0.0
N4079 N 0.63033 0.6621 0.28351 0.0
H4080 H 0.90707 0.54282 0.59774 0.0
H4081 H 0.97511 0.59671 0.63252 0.0
H4082 H 0.92979 0.53137 0.64175 0.0
H4083 H 0.96302 0.59416 0.58316 0.0
H4084 H 0.95653 0.57522 0.63785 0.0
H4085 H 0.92523 0.56452 0.5941 0.0
C4086 C 0.91587 0.5449 0.60669 0.0
C4087 C 0.91698 0.53521 0.62003 0.0
C4088 C 0.95803 0.57939 0.62588 0.0
C4089 C 0.93787 0.56014 0.61591 0.0
C4090 C 0.96855 0.59165 0.62283 0.0
C4091 C 0.9706 0.59718 0.60737 0.0
C4092 C 0.94937 0.5729 0.61339 0.0
C4093 C 0.96186 0.59023 0.59525 0.0
C4094 C 0.92628 0.55727 0.60457 0.0
C4095 C 0.92861 0.53852 0.63125 0.0
N4096 N 0.95159 0.57852 0.59853 0.0
N4097 N 0.93865 0.55077 0.62895 0.0
H4098 H 0.65257 0.73243 0.88374 0.0
H4099 H 0.70474 0.65549 0.873 0.0
H4100 H 0.64676 0.69851 0.84628 0.0
H4101 H 0.72295 0.69774 0.89463 0.0
H4102 H 0.67957 0.66838 0.86973 0.0
H4103 H 0.67474 0.71701 0.89382 0.0
C4104 C 0.6558 0.7216 0.87782 0.0
C4105 C 0.64799 0.71673 0.8641 0.0
C4106 C 0.68902 0.67479 0.87532 0.0
C4107 C 0.67299 0.69917 0.87559 0.0
C4108 C 0.70341 0.66748 0.87719 0.0
C4109 C 0.71603 0.67574 0.88375 0.0
C4110 C 0.68721 0.69048 0.88005 0.0
C4111 C 0.71353 0.69109 0.8893 0.0
C4112 C 0.66845 0.7129 0.88352 0.0
C4113 C 0.65261 0.70271 0.8568 0.0
N4114 N 0.69937 0.6981 0.88714 0.0
N4115 N 0.66485 0.69441 0.86263 0.0
H4116 H 0.58012 0.46029 0.09417 0.0
H4117 H 0.52417 0.39483 0.13093 0.0
H4118 H 0.56802 0.4605 0.1436 0.0
H4119 H 0.52796 0.40526 0.08124 0.0
H4120 H 0.54114 0.41756 0.1366 0.0
H4121 H 0.56212 0.43866 0.08995 0.0
C4122 C 0.57364 0.45576 0.10417 0.0
C4123 C 0.57557 0.46217 0.11927 0.0
C4124 C 0.53814 0.41485 0.12449 0.0
C4125 C 0.55485 0.43725 0.1145 0.0
C4126 C 0.52852 0.4019 0.12125 0.0
C4127 C 0.52473 0.39813 0.10559 0.0
C4128 C 0.54402 0.4239 0.11195 0.0
C4129 C 0.53061 0.40767 0.09349 0.0
C4130 C 0.5633 0.44342 0.10174 0.0
C4131 C 0.5668 0.45587 0.13176 0.0
N4132 N 0.54 0.42004 0.09693 0.0
N4133 N 0.55683 0.44363 0.12912 0.0
H4134 H 0.77477 0.32843 0.3471 0.0
H4135 H 0.83883 0.26846 0.38036 0.0
H4136 H 0.7664 0.29952 0.38811 0.0
H4137 H 0.8412 0.29136 0.33499 0.0
H4138 H 0.8135 0.28135 0.38512 0.0
H4139 H 0.80016 0.31611 0.34386 0.0
C4140 C 0.77825 0.31938 0.35539 0.0
C4141 C 0.76848 0.31499 0.3679 0.0
C4142 C 0.81965 0.28357 0.37417 0.0
C4143 C 0.79772 0.30085 0.36434 0.0
C4144 C 0.83412 0.27635 0.37152 0.0
C4145 C 0.84204 0.27884 0.35724 0.0
C4146 C 0.81324 0.29338 0.3625 0.0
C4147 C 0.83544 0.28905 0.34612 0.0
C4148 C 0.79279 0.31236 0.35355 0.0
C4149 C 0.77359 0.30318 0.37827 0.0
N4150 N 0.82142 0.29591 0.34898 0.0
N4151 N 0.78797 0.29654 0.37631 0.0
H4152 H 0.91382 0.44989 0.84938 0.0
H4153 H 0.98629 0.42133 0.89391 0.0
H4154 H 0.94936 0.48301 0.86338 0.0
H4155 H 0.96907 0.39292 0.85548 0.0
H4156 H 0.97216 0.44398 0.88327 0.0
H4157 H 0.93317 0.42857 0.85079 0.0
C4158 C 0.92587 0.45269 0.8522 0.0
C4159 C 0.93017 0.4681 0.85615 0.0
C4160 C 0.97165 0.43285 0.87703 0.0
C4161 C 0.95199 0.44392 0.85848 0.0
C4162 C 0.97954 0.41991 0.88318 0.0
C4163 C 0.97865 0.40527 0.87561 0.0
C4164 C 0.96243 0.43103 0.86348 0.0
C4165 C 0.96995 0.40405 0.86165 0.0
C4166 C 0.93685 0.44057 0.85304 0.0
C4167 C 0.94575 0.47124 0.86008 0.0
N4168 N 0.96184 0.41673 0.85617 0.0
N4169 N 0.95607 0.45915 0.86154 0.0
H4170 H 0.78849 0.65957 0.10387 0.0
H4171 H 0.82354 0.72747 0.15175 0.0
H4172 H 0.75992 0.70015 0.1142 0.0
H4173 H 0.85095 0.7088 0.11334 0.0
H4174 H 0.80012 0.71551 0.14025 0.0
H4175 H 0.812 0.67549 0.10855 0.0
C4176 C 0.78723 0.67192 0.10687 0.0
C4177 C 0.77238 0.67864 0.1088 0.0
C4178 C 0.81125 0.71418 0.13429 0.0
C4179 C 0.79894 0.69658 0.11451 0.0
C4180 C 0.82459 0.7208 0.14091 0.0
C4181 C 0.83911 0.71894 0.1335 0.0
C4182 C 0.81256 0.70526 0.12045 0.0
C4183 C 0.8399 0.71041 0.11937 0.0
C4184 C 0.80058 0.68096 0.10945 0.0
C4185 C 0.77123 0.69464 0.11261 0.0
N4186 N 0.82679 0.70358 0.1134 0.0
N4187 N 0.78439 0.70303 0.11576 0.0
H4188 H 0.53884 0.59989 0.41827 0.0
H4189 H 0.57036 0.53679 0.35639 0.0
H4190 H 0.52382 0.59955 0.36968 0.0
H4191 H 0.59205 0.54609 0.40142 0.0
H4192 H 0.55268 0.55913 0.36083 0.0
H4193 H 0.55784 0.57944 0.41222 0.0
C4194 C 0.53956 0.59551 0.40629 0.0
C4195 C 0.5297 0.60136 0.39446 0.0
C4196 C 0.56139 0.55631 0.36966 0.0
C4197 C 0.55144 0.57785 0.38745 0.0
C4198 C 0.57145 0.54356 0.36716 0.0
C4199 C 0.58261 0.53954 0.3786 0.0
C4200 C 0.56247 0.56493 0.38376 0.0
C4201 C 0.58358 0.54873 0.39231 0.0
C4202 C 0.55047 0.58386 0.40283 0.0
C4203 C 0.53122 0.59533 0.37913 0.0
N4204 N 0.57357 0.56091 0.39454 0.0
N4205 N 0.54183 0.58378 0.37607 0.0
H4206 H 0.64697 0.27328 0.61728 0.0
H4207 H 0.71347 0.33272 0.64602 0.0
H4208 H 0.64556 0.29929 0.66099 0.0
H4209 H 0.72028 0.29995 0.60769 0.0
H4210 H 0.68692 0.32315 0.64921 0.0
H4211 H 0.67185 0.28608 0.61082 0.0
C4212 C 0.65171 0.28195 0.62534 0.0
C4213 C 0.64431 0.28516 0.63976 0.0
C4214 C 0.69418 0.318 0.6401 0.0
C4215 C 0.67271 0.29959 0.63256 0.0
C4216 C 0.70939 0.32342 0.63829 0.0
C4217 C 0.71912 0.31704 0.62662 0.0
C4218 C 0.68858 0.30607 0.63018 0.0
C4219 C 0.71317 0.30508 0.61691 0.0
C4220 C 0.66597 0.28911 0.62172 0.0
C4221 C 0.65096 0.29639 0.64982 0.0
N4222 N 0.69821 0.29995 0.61891 0.0
N4223 N 0.66486 0.30311 0.64608 0.0
H4224 H 0.61598 0.90783 0.54607 0.0
H4225 H 0.6313 0.98393 0.5993 0.0
H4226 H 0.64284 0.94761 0.52954 0.0
H4227 H 0.59292 0.95153 0.60543 0.0
H4228 H 0.64095 0.96763 0.57733 0.0
H4229 H 0.61297 0.92071 0.5715 0.0
C4230 C 0.62133 0.91927 0.54782 0.0
C4231 C 0.62942 0.92683 0.53559 0.0
C4232 C 0.63058 0.964 0.58369 0.0
C4233 C 0.62601 0.94162 0.56474 0.0
C4234 C 0.62516 0.97319 0.59626 0.0
C4235 C 0.61126 0.96906 0.604 0.0
C4236 C 0.62213 0.95055 0.57917 0.0
C4237 C 0.60361 0.95516 0.59961 0.0
C4238 C 0.61962 0.9266 0.56236 0.0
C4239 C 0.63633 0.94151 0.53862 0.0
N4240 N 0.60911 0.94644 0.58744 0.0
N4241 N 0.63433 0.94855 0.55291 0.0
H4242 H 0.14211 0.5542 0.46912 0.0
H4243 H 0.08364 0.53802 0.39808 0.0
H4244 H 0.10201 0.58334 0.45874 0.0
H4245 H 0.1311 0.52068 0.39737 0.0
H4246 H 0.08968 0.55319 0.42167 0.0
H4247 H 0.13779 0.54002 0.44421 0.0
C4248 C 0.1324 0.55757 0.46164 0.0
C4249 C 0.12235 0.56989 0.46599 0.0
C4250 C 0.09883 0.54617 0.41632 0.0
C4251 C 0.11738 0.55383 0.43771 0.0
C4252 C 0.09539 0.53749 0.40286 0.0
C4253 C 0.1069 0.52809 0.39582 0.0
C4254 C 0.11384 0.54527 0.42296 0.0
C4255 C 0.12193 0.52786 0.40246 0.0
C4256 C 0.13002 0.54957 0.44741 0.0
C4257 C 0.11003 0.5739 0.45585 0.0
N4258 N 0.12496 0.53622 0.41582 0.0
N4259 N 0.10784 0.56582 0.44225 0.0
H4260 H 0.64931 0.8518 0.69322 0.0
H4261 H 0.72483 0.88047 0.64576 0.0
H4262 H 0.6774 0.89112 0.70878 0.0
H4263 H 0.70394 0.83438 0.64157 0.0
H4264 H 0.70504 0.88738 0.66564 0.0
H4265 H 0.66662 0.84835 0.6708 0.0
C4266 C 0.65911 0.85978 0.69189 0.0
C4267 C 0.66205 0.87164 0.70301 0.0
C4268 C 0.70478 0.87581 0.66026 0.0
C4269 C 0.68199 0.8677 0.67726 0.0
C4270 C 0.71599 0.87189 0.6489 0.0
C4271 C 0.71604 0.8568 0.64213 0.0
C4272 C 0.6935 0.86461 0.66462 0.0
C4273 C 0.70439 0.84609 0.6466 0.0
C4274 C 0.66901 0.85778 0.67906 0.0
C4275 C 0.67482 0.88174 0.70053 0.0
N4276 N 0.69361 0.8502 0.65756 0.0
N4277 N 0.68443 0.87947 0.68793 0.0
H4278 H 0.416 0.4556 0.89378 0.0
H4279 H 0.35757 0.44045 0.96514 0.0
H4280 H 0.36853 0.4729 0.89318 0.0
H4281 H 0.39816 0.41167 0.95581 0.0
H4282 H 0.36188 0.45411 0.93997 0.0
H4283 H 0.41014 0.44076 0.91764 0.0
C4284 C 0.40429 0.45619 0.89865 0.0
C4285 C 0.39272 0.4655 0.89156 0.0
C4286 C 0.36978 0.44476 0.94346 0.0
C4287 C 0.38599 0.4487 0.91899 0.0
C4288 C 0.36739 0.43705 0.95783 0.0
C4289 C 0.37757 0.42497 0.96255 0.0
C4290 C 0.38254 0.44045 0.93395 0.0
C4291 C 0.39005 0.42094 0.95263 0.0
C4292 C 0.40094 0.44769 0.91225 0.0
C4293 C 0.37774 0.46579 0.89829 0.0
N4294 N 0.39223 0.42872 0.93885 0.0
N4295 N 0.37482 0.45763 0.91179 0.0
H4296 H 0.31947 0.60547 0.70961 0.0
H4297 H 0.29122 0.66739 0.64497 0.0
H4298 H 0.34137 0.65063 0.70179 0.0
H4299 H 0.27538 0.61912 0.64537 0.0
H4300 H 0.30987 0.66111 0.66574 0.0
H4301 H 0.30316 0.60986 0.6862 0.0
C4302 C 0.32086 0.61627 0.70296 0.0
C4303 C 0.33168 0.62775 0.7077 0.0
C4304 C 0.30243 0.65182 0.66122 0.0
C4305 C 0.31317 0.63283 0.68104 0.0
C4306 C 0.29177 0.65541 0.64936 0.0
C4307 C 0.2817 0.64377 0.64353 0.0
C4308 C 0.3029 0.63651 0.66748 0.0
C4309 C 0.28296 0.62843 0.64957 0.0
C4310 C 0.31162 0.61874 0.68959 0.0
C4311 C 0.33311 0.64149 0.69862 0.0
N4312 N 0.29326 0.62526 0.66138 0.0
N4313 N 0.3239 0.64367 0.6858 0.0
H4314 H 0.89613 0.07965 0.03257 0.0
H4315 H 0.87119 0.02302 0.10347 0.0
H4316 H 0.85676 0.0479 0.02995 0.0
H4317 H 0.91717 0.04346 0.09865 0.0
H4318 H 0.86325 0.03617 0.079 0.0
H4319 H 0.9018 0.06996 0.05902 0.0
C4320 C 0.8887 0.07059 0.03755 0.0
C4321 C 0.87601 0.06449 0.02904 0.0
C4322 C 0.87501 0.0379 0.08343 0.0
C4323 C 0.88232 0.05351 0.05938 0.0
C4324 C 0.87949 0.03055 0.09745 0.0
C4325 C 0.89488 0.03209 0.10297 0.0
C4326 C 0.88598 0.04694 0.07507 0.0
C4327 C 0.90523 0.04188 0.0947 0.0
C4328 C 0.89191 0.06511 0.05266 0.0
C4329 C 0.86672 0.05283 0.03609 0.0
N4330 N 0.90061 0.04887 0.0811 0.0
N4331 N 0.87005 0.04772 0.05091 0.0
H4332 H 0.73145 0.15442 0.8301 0.0
H4333 H 0.67421 0.09386 0.7885 0.0
H4334 H 0.72214 0.10861 0.85005 0.0
H4335 H 0.69336 0.13505 0.766 0.0
H4336 H 0.69301 0.09726 0.81027 0.0
H4337 H 0.71844 0.14637 0.80593 0.0
C4338 C 0.72664 0.14263 0.82938 0.0
C4339 C 0.72773 0.13222 0.84213 0.0
C4340 C 0.69338 0.10528 0.80035 0.0
C4341 C 0.71272 0.12285 0.81441 0.0
C4342 C 0.68279 0.10324 0.78791 0.0
C4343 C 0.68246 0.11414 0.77552 0.0
C4344 C 0.70342 0.11842 0.80033 0.0
C4345 C 0.69341 0.12637 0.77537 0.0
C4346 C 0.7193 0.13798 0.81551 0.0
C4347 C 0.72147 0.11701 0.84047 0.0
N4348 N 0.70333 0.12828 0.78767 0.0
N4349 N 0.71404 0.11282 0.82689 0.0
H4350 H 0.83815 0.85178 0.29128 0.0
H4351 H 0.76851 0.88703 0.34322 0.0
H4352 H 0.81596 0.89593 0.2794 0.0
H4353 H 0.78479 0.83892 0.34502 0.0
H4354 H 0.7873 0.89225 0.32183 0.0
H4355 H 0.82026 0.84871 0.31316 0.0
C4356 C 0.82948 0.86088 0.29327 0.0
C4357 C 0.82849 0.8741 0.28343 0.0
C4358 C 0.78671 0.88058 0.32697 0.0
C4359 C 0.80781 0.87061 0.30865 0.0
C4360 C 0.77608 0.87762 0.33918 0.0
C4361 C 0.7751 0.86251 0.34585 0.0
C4362 C 0.79645 0.86837 0.32162 0.0
C4363 C 0.78509 0.85072 0.3402 0.0
C4364 C 0.81922 0.85909 0.30581 0.0
C4365 C 0.81704 0.88551 0.28669 0.0
N4366 N 0.79533 0.85391 0.32845 0.0
N4367 N 0.80708 0.8835 0.29908 0.0
H4368 H 0.45376 0.38636 0.08864 0.0
H4369 H 0.39989 0.36306 0.01551 0.0
H4370 H 0.46845 0.35203 0.05411 0.0
H4371 H 0.39862 0.40832 0.03865 0.0
H4372 H 0.42163 0.35524 0.03283 0.0
H4373 H 0.42981 0.39064 0.07371 0.0
C4374 C 0.4519 0.37963 0.07795 0.0
C4375 C 0.46319 0.36897 0.07247 0.0
C4376 C 0.41647 0.36682 0.03413 0.0
C4377 C 0.43575 0.3738 0.05538 0.0
C4378 C 0.40407 0.37126 0.02435 0.0
C4379 C 0.39758 0.38639 0.02564 0.0
C4380 C 0.42211 0.37751 0.04539 0.0
C4381 C 0.4034 0.3966 0.0372 0.0
C4382 C 0.43824 0.38211 0.06943 0.0
C4383 C 0.46008 0.36048 0.05862 0.0
N4384 N 0.41534 0.39197 0.04665 0.0
N4385 N 0.44663 0.36312 0.05046 0.0
H4386 H 0.33516 0.65618 0.77937 0.0
H4387 H 0.39079 0.72695 0.80466 0.0
H4388 H 0.38434 0.65877 0.768 0.0
H4389 H 0.34818 0.71659 0.82997 0.0
H4390 H 0.38688 0.7034 0.7888 0.0
H4391 H 0.33822 0.67944 0.79635 0.0
C4392 C 0.34659 0.66157 0.78054 0.0
C4393 C 0.3595 0.65563 0.77224 0.0
C4394 C 0.37838 0.70625 0.79783 0.0
C4395 C 0.36299 0.68215 0.7913 0.0
C4396 C 0.38057 0.71974 0.80685 0.0
C4397 C 0.36984 0.72365 0.8187 0.0
C4398 C 0.36528 0.69667 0.80057 0.0
C4399 C 0.35676 0.71392 0.82096 0.0
C4400 C 0.34832 0.6748 0.79019 0.0
C4401 C 0.37406 0.66299 0.77415 0.0
N4402 N 0.35481 0.70083 0.81193 0.0
N4403 N 0.37537 0.67594 0.78337 0.0
H4404 H 0.09816 0.63208 0.51845 0.0
H4405 H 0.04314 0.6058 0.58995 0.0
H4406 H 0.10012 0.58665 0.54119 0.0
H4407 H 0.02951 0.6423 0.55726 0.0
H4408 H 0.06727 0.60206 0.57519 0.0
H4409 H 0.07597 0.63923 0.53555 0.0
C4410 C 0.09404 0.62371 0.52715 0.0
C4411 C 0.10085 0.60872 0.52838 0.0
C4412 C 0.05904 0.61093 0.57125 0.0
C4413 C 0.07579 0.6168 0.54787 0.0
C4414 C 0.04526 0.61309 0.57968 0.0
C4415 C 0.03423 0.62425 0.5747 0.0
C4416 C 0.0619 0.62003 0.55775 0.0
C4417 C 0.03767 0.63346 0.56139 0.0
C4418 C 0.08137 0.62775 0.53681 0.0
C4419 C 0.09509 0.59827 0.53977 0.0
N4420 N 0.05123 0.6311 0.5533 0.0
N4421 N 0.08291 0.60251 0.54906 0.0
H4422 H 0.12871 0.28852 0.34053 0.0
H4423 H 0.16426 0.32863 0.26557 0.0
H4424 H 0.13326 0.26105 0.298 0.0
H4425 H 0.12235 0.34826 0.28599 0.0
H4426 H 0.16115 0.30525 0.28251 0.0
H4427 H 0.13432 0.31251 0.32526 0.0
C4428 C 0.13106 0.28758 0.32801 0.0
C4429 C 0.13053 0.27295 0.32039 0.0
C4430 C 0.15283 0.31484 0.28335 0.0
C4431 C 0.13734 0.29992 0.30324 0.0
C4432 C 0.15463 0.32813 0.27386 0.0
C4433 C 0.14352 0.34024 0.27449 0.0
C4434 C 0.14014 0.31405 0.29378 0.0
C4435 C 0.13111 0.33908 0.28521 0.0
C4436 C 0.13421 0.30117 0.31939 0.0
C4437 C 0.1335 0.27221 0.30417 0.0
N4438 N 0.12979 0.32619 0.29458 0.0
N4439 N 0.13696 0.28557 0.29608 0.0
H4440 H 0.46718 0.644 0.44364 0.0
H4441 H 0.39964 0.58271 0.46367 0.0
H4442 H 0.45947 0.601 0.41761 0.0
H4443 H 0.39642 0.63156 0.47742 0.0
H4444 H 0.42312 0.58875 0.44858 0.0
H4445 H 0.4427 0.63926 0.4581 0.0
C4446 C 0.46036 0.63358 0.441 0.0
C4447 C 0.46534 0.62284 0.42948 0.0
C4448 C 0.41725 0.59819 0.45482 0.0
C4449 C 0.43757 0.61736 0.4459 0.0
C4450 C 0.40387 0.59474 0.46347 0.0
C4451 C 0.39611 0.60666 0.4718 0.0
C4452 C 0.42308 0.61364 0.45465 0.0
C4453 C 0.40207 0.62205 0.4711 0.0
C4454 C 0.44639 0.63093 0.44917 0.0
C4455 C 0.45606 0.60958 0.42641 0.0
N4456 N 0.41532 0.62511 0.46275 0.0
N4457 N 0.44268 0.60717 0.43464 0.0
H4458 H 0.10711 0.72566 0.18933 0.0
H4459 H 0.15803 0.65031 0.21175 0.0
H4460 H 0.14574 0.70971 0.16068 0.0
H4461 H 0.1109 0.65796 0.22839 0.0
H4462 H 0.15538 0.67343 0.19461 0.0
H4463 H 0.11024 0.70243 0.20602 0.0
C4464 C 0.1163 0.71731 0.18661 0.0
C4465 C 0.12614 0.71952 0.17359 0.0
C4466 C 0.14562 0.66995 0.20196 0.0
C4467 C 0.12979 0.69301 0.19258 0.0
C4468 C 0.14712 0.65679 0.21171 0.0
C4469 C 0.13468 0.65229 0.22149 0.0
C4470 C 0.13167 0.67869 0.20222 0.0
C4471 C 0.12078 0.66105 0.22102 0.0
C4472 C 0.11803 0.70402 0.19607 0.0
C4473 C 0.13787 0.70836 0.17059 0.0
N4474 N 0.11969 0.67391 0.21163 0.0
N4475 N 0.1394 0.69556 0.18005 0.0
H4476 H 0.10275 0.41675 0.9538 0.0
H4477 H 0.02982 0.36215 0.93545 0.0
H4478 H 0.09898 0.36973 0.97276 0.0
H4479 H 0.04482 0.39919 0.90404 0.0
H4480 H 0.05401 0.36555 0.95065 0.0
H4481 H 0.08055 0.41131 0.93649 0.0
C4482 C 0.09732 0.40522 0.9542 0.0
C4483 C 0.10265 0.39367 0.96471 0.0
C4484 C 0.05201 0.37285 0.94037 0.0
C4485 C 0.0771 0.38748 0.94519 0.0
C4486 C 0.03819 0.37099 0.93177 0.0
C4487 C 0.03532 0.38045 0.91853 0.0
C4488 C 0.06284 0.38443 0.93582 0.0
C4489 C 0.04658 0.39166 0.91419 0.0
C4490 C 0.08468 0.40212 0.94432 0.0
C4491 C 0.09524 0.37893 0.96475 0.0
N4492 N 0.05978 0.39344 0.9229 0.0
N4493 N 0.08267 0.3763 0.95527 0.0
H4494 H 0.38016 0.26721 0.69529 0.0
H4495 H 0.37811 0.34304 0.7198 0.0
H4496 H 0.34302 0.28014 0.66325 0.0
H4497 H 0.32789 0.33836 0.71672 0.0
H4498 H 0.38101 0.31949 0.70373 0.0
H4499 H 0.37619 0.29179 0.70947 0.0
C4500 C 0.37114 0.27521 0.69125 0.0
C4501 C 0.36208 0.27179 0.67792 0.0
C4502 C 0.36936 0.32362 0.7066 0.0
C4503 C 0.35768 0.3 0.69396 0.0
C4504 C 0.36767 0.3371 0.71566 0.0
C4505 C 0.35273 0.34242 0.71986 0.0
C4506 C 0.35602 0.31534 0.70176 0.0
C4507 C 0.33961 0.33447 0.71387 0.0
C4508 C 0.36898 0.28928 0.69927 0.0
C4509 C 0.35035 0.28247 0.67339 0.0
N4510 N 0.34155 0.32114 0.70515 0.0
N4511 N 0.34846 0.29622 0.68144 0.0
H4512 H 0.05717 0.46811 0.3526 0.0
H4513 H 0.047 0.39515 0.4099 0.0
H4514 H 0.09079 0.45579 0.38854 0.0
H4515 H 0.02186 0.39882 0.36592 0.0
H4516 H 0.06329 0.41736 0.40203 0.0
H4517 H 0.04394 0.44287 0.357 0.0
C4518 C 0.06179 0.46006 0.36135 0.0
C4519 C 0.07496 0.46407 0.37036 0.0
C4520 C 0.05434 0.41321 0.394 0.0
C4521 C 0.05997 0.43535 0.37543 0.0
C4522 C 0.04502 0.40057 0.39851 0.0
C4523 C 0.03302 0.39528 0.38858 0.0
C4524 C 0.05145 0.4208 0.37958 0.0
C4525 C 0.031 0.4026 0.3739 0.0
C4526 C 0.05431 0.44565 0.36379 0.0
C4527 C 0.08059 0.4532 0.38143 0.0
N4528 N 0.04 0.41518 0.36991 0.0
N4529 N 0.07296 0.4394 0.38377 0.0
H4530 H 0.29075 0.33722 0.1426 0.0
H4531 H 0.34996 0.26913 0.11642 0.0
H4532 H 0.28078 0.30502 0.1045 0.0
H4533 H 0.3517 0.29301 0.16131 0.0
H4534 H 0.32733 0.28534 0.10905 0.0
H4535 H 0.31572 0.32407 0.1468 0.0
C4536 C 0.29383 0.32737 0.13508 0.0
C4537 C 0.28361 0.32208 0.12329 0.0
C4538 C 0.33279 0.28711 0.12043 0.0
C4539 C 0.31227 0.30701 0.12801 0.0
C4540 C 0.34576 0.27797 0.1246 0.0
C4541 C 0.35261 0.27968 0.13954 0.0
C4542 C 0.32682 0.29811 0.13124 0.0
C4543 C 0.34668 0.29123 0.14972 0.0
C4544 C 0.30811 0.31988 0.1375 0.0
C4545 C 0.28828 0.30935 0.11383 0.0
N4546 N 0.33409 0.29996 0.14541 0.0
N4547 N 0.30229 0.30219 0.11643 0.0
H4548 H 0.44304 0.52524 0.84872 0.0
H4549 H 0.44931 0.59864 0.90571 0.0
H4550 H 0.40738 0.538 0.88244 0.0
H4551 H 0.47569 0.59659 0.86239 0.0
H4552 H 0.43402 0.57606 0.8971 0.0
H4553 H 0.45564 0.55091 0.85314 0.0
C4554 C 0.43784 0.53346 0.85696 0.0
C4555 C 0.4243 0.52945 0.8654 0.0
C4556 C 0.44301 0.58061 0.88934 0.0
C4557 C 0.43851 0.55858 0.87046 0.0
C4558 C 0.45175 0.59348 0.89428 0.0
C4559 C 0.46378 0.59935 0.88476 0.0
C4560 C 0.44653 0.57333 0.87491 0.0
C4561 C 0.46645 0.59235 0.87002 0.0
C4562 C 0.44496 0.54809 0.85941 0.0
C4563 C 0.41792 0.54053 0.87582 0.0
N4564 N 0.45802 0.57947 0.86561 0.0
N4565 N 0.42516 0.55451 0.87816 0.0
H4566 H 0.21078 0.66288 0.65203 0.0
H4567 H 0.14269 0.72115 0.62448 0.0
H4568 H 0.21372 0.69173 0.61022 0.0
H4569 H 0.1481 0.70551 0.67261 0.0
H4570 H 0.16622 0.70638 0.61732 0.0
H4571 H 0.18548 0.67489 0.65816 0.0
C4572 C 0.2061 0.67174 0.64414 0.0
C4573 C 0.21437 0.67639 0.63064 0.0
C4574 C 0.16217 0.70611 0.62941 0.0
C4575 C 0.18541 0.68997 0.63746 0.0
C4576 C 0.14869 0.71442 0.63349 0.0
C4577 C 0.14353 0.71463 0.64919 0.0
C4578 C 0.17041 0.69783 0.64109 0.0
C4579 C 0.15177 0.70574 0.66039 0.0
C4580 C 0.19168 0.67857 0.64765 0.0
C4581 C 0.20776 0.68788 0.6208 0.0
N4582 N 0.16485 0.69772 0.65613 0.0
N4583 N 0.19363 0.69426 0.62438 0.0
H4584 H 0.08021 0.5321 0.10971 0.0
H4585 H 0.01149 0.5903 0.13574 0.0
H4586 H 0.04668 0.51998 0.1458 0.0
H4587 H 0.03555 0.5928 0.09106 0.0
H4588 H 0.02737 0.5672 0.14272 0.0
H4589 H 0.06687 0.55715 0.10587 0.0
C4590 C 0.07003 0.53473 0.11686 0.0
C4591 C 0.06441 0.52391 0.12797 0.0
C4592 C 0.02921 0.57292 0.13145 0.0
C4593 C 0.04916 0.55259 0.12369 0.0
C4594 C 0.02025 0.58612 0.12751 0.0
C4595 C 0.02218 0.59333 0.11277 0.0
C4596 C 0.04024 0.56715 0.12063 0.0
C4597 C 0.03361 0.58747 0.1025 0.0
C4598 C 0.06243 0.54903 0.11466 0.0
C4599 C 0.05127 0.52797 0.137 0.0
N4600 N 0.04219 0.5747 0.10661 0.0
N4601 N 0.04402 0.54204 0.13463 0.0
H4602 H 0.21689 0.30123 0.8951 0.0
H4603 H 0.14851 0.28047 0.83549 0.0
H4604 H 0.20419 0.33064 0.85559 0.0
H4605 H 0.1478 0.26335 0.8834 0.0
H4606 H 0.17063 0.2973 0.84209 0.0
H4607 H 0.19308 0.28556 0.89066 0.0
C4608 C 0.20908 0.30441 0.88556 0.0
C4609 C 0.21253 0.31716 0.87562 0.0
C4610 C 0.1656 0.28994 0.85121 0.0
C4611 C 0.18558 0.29936 0.87046 0.0
C4612 C 0.15302 0.28028 0.84743 0.0
C4613 C 0.14638 0.27051 0.85892 0.0
C4614 C 0.17178 0.28965 0.86653 0.0
C4615 C 0.15261 0.27078 0.87423 0.0
C4616 C 0.19551 0.29553 0.88308 0.0
C4617 C 0.20202 0.32087 0.86349 0.0
N4618 N 0.16512 0.28012 0.87758 0.0
N4619 N 0.1891 0.31192 0.86117 0.0
H4620 H 0.40641 0.46049 0.60403 0.0
H4621 H 0.4701 0.39742 0.63115 0.0
H4622 H 0.43927 0.46997 0.6415 0.0
H4623 H 0.4506 0.39929 0.58424 0.0
H4624 H 0.45539 0.42137 0.63792 0.0
H4625 H 0.41918 0.4352 0.59941 0.0
C4626 C 0.4163 0.45722 0.61131 0.0
C4627 C 0.4219 0.46735 0.62307 0.0
C4628 C 0.45432 0.41644 0.62619 0.0
C4629 C 0.43643 0.43843 0.61795 0.0
C4630 C 0.46259 0.40277 0.62236 0.0
C4631 C 0.46158 0.39649 0.6071 0.0
C4632 C 0.44482 0.42359 0.61473 0.0
C4633 C 0.45178 0.40386 0.5961 0.0
C4634 C 0.42358 0.44281 0.60866 0.0
C4635 C 0.43471 0.46253 0.63221 0.0
N4636 N 0.44376 0.41702 0.60014 0.0
N4637 N 0.44157 0.44834 0.62947 0.0
H4638 H 0.28002 0.69027 0.38794 0.0
H4639 H 0.34846 0.71146 0.32776 0.0
H4640 H 0.28887 0.66448 0.345 0.0
H4641 H 0.34877 0.72746 0.37606 0.0
H4642 H 0.32553 0.69539 0.33349 0.0
H4643 H 0.30408 0.70542 0.38344 0.0
C4644 C 0.287 0.68782 0.37757 0.0
C4645 C 0.28245 0.67616 0.36679 0.0
C4646 C 0.33064 0.70233 0.34288 0.0
C4647 C 0.30981 0.69338 0.36158 0.0
C4648 C 0.34372 0.71153 0.33961 0.0
C4649 C 0.35049 0.72081 0.35146 0.0
C4650 C 0.32412 0.70255 0.35807 0.0
C4651 C 0.34391 0.72042 0.36661 0.0
C4652 C 0.30074 0.6964 0.37506 0.0
C4653 C 0.29194 0.67338 0.3536 0.0
N4654 N 0.33097 0.71153 0.36947 0.0
N4655 N 0.30512 0.68198 0.35132 0.0
H4656 H 0.40331 0.088 0.45665 0.0
H4657 H 0.36551 0.01996 0.40422 0.0
H4658 H 0.36122 0.06277 0.46905 0.0
H4659 H 0.41413 0.03305 0.3999 0.0
H4660 H 0.36269 0.03859 0.42584 0.0
H4661 H 0.40665 0.07045 0.43389 0.0
C4662 C 0.39481 0.07877 0.4546 0.0
C4663 C 0.38196 0.07682 0.46471 0.0
C4664 C 0.37398 0.03741 0.42017 0.0
C4665 C 0.3856 0.05696 0.43876 0.0
C4666 C 0.37559 0.02682 0.40778 0.0
C4667 C 0.39011 0.0249 0.40035 0.0
C4668 C 0.38696 0.04623 0.42514 0.0
C4669 C 0.40275 0.03415 0.4054 0.0
C4670 C 0.39673 0.06878 0.44165 0.0
C4671 C 0.37128 0.0647 0.46155 0.0
N4672 N 0.4009 0.04445 0.41754 0.0
N4673 N 0.37331 0.05529 0.44881 0.0
H4674 H 0.85127 0.43812 0.51915 0.0
H4675 H 0.90802 0.46542 0.5886 0.0
H4676 H 0.89378 0.41359 0.5315 0.0
H4677 H 0.8601 0.48106 0.58486 0.0
H4678 H 0.9037 0.44761 0.56641 0.0
H4679 H 0.85496 0.4554 0.54198 0.0
C4680 C 0.86137 0.43639 0.52666 0.0
C4681 C 0.87226 0.42445 0.52347 0.0
C4682 C 0.89411 0.4549 0.57048 0.0
C4683 C 0.87657 0.44412 0.54944 0.0
C4684 C 0.89658 0.46508 0.58311 0.0
C4685 C 0.8844 0.47472 0.58851 0.0
C4686 C 0.8794 0.45449 0.56312 0.0
C4687 C 0.8698 0.4738 0.58103 0.0
C4688 C 0.86344 0.44619 0.5397 0.0
C4689 C 0.88511 0.42265 0.53357 0.0
N4690 N 0.86771 0.46391 0.56862 0.0
N4691 N 0.88696 0.43244 0.54607 0.0
H4692 H 0.33194 0.1128 0.29402 0.0
H4693 H 0.26014 0.15173 0.33151 0.0
H4694 H 0.2888 0.11437 0.2677 0.0
H4695 H 0.28666 0.11895 0.35973 0.0
H4696 H 0.27192 0.14052 0.30769 0.0
H4697 H 0.3171 0.11675 0.31847 0.0
C4698 C 0.31931 0.11375 0.29348 0.0
C4699 C 0.31149 0.11339 0.27898 0.0
C4700 C 0.275 0.13568 0.3191 0.0
C4701 C 0.29469 0.11825 0.30655 0.0
C4702 C 0.26845 0.14215 0.33264 0.0
C4703 C 0.27259 0.13627 0.34749 0.0
C4704 C 0.28609 0.12362 0.32053 0.0
C4705 C 0.28324 0.12376 0.34842 0.0
C4706 C 0.31089 0.11591 0.30736 0.0
C4707 C 0.29516 0.11459 0.27875 0.0
N4708 N 0.28992 0.11801 0.33507 0.0
N4709 N 0.28727 0.11737 0.29236 0.0
H4710 H 0.59171 0.581 0.02943 0.0
H4711 H 0.63091 0.51867 0.08699 0.0
H4712 H 0.63082 0.55135 0.01681 0.0
H4713 H 0.58246 0.53206 0.09242 0.0
H4714 H 0.63232 0.53442 0.0631 0.0
H4715 H 0.58876 0.56594 0.054 0.0
C4716 C 0.59954 0.57124 0.03174 0.0
C4717 C 0.61162 0.56748 0.02118 0.0
C4718 C 0.62138 0.53394 0.06952 0.0
C4719 C 0.60851 0.55059 0.04915 0.0
C4720 C 0.62059 0.52505 0.08322 0.0
C4721 C 0.6065 0.52396 0.09159 0.0
C4722 C 0.60802 0.54192 0.06418 0.0
C4723 C 0.59352 0.53255 0.08622 0.0
C4724 C 0.59789 0.56272 0.04574 0.0
C4725 C 0.62145 0.55475 0.02469 0.0
N4726 N 0.59456 0.54119 0.07275 0.0
N4727 N 0.61978 0.54687 0.03845 0.0
H4728 H 0.64954 0.36049 0.28965 0.0
H4729 H 0.71967 0.38009 0.3486 0.0
H4730 H 0.68572 0.39418 0.27846 0.0
H4731 H 0.6932 0.33681 0.34914 0.0
H4732 H 0.70373 0.3893 0.32633 0.0
H4733 H 0.66194 0.35575 0.31505 0.0
C4734 C 0.66007 0.36695 0.29257 0.0
C4735 C 0.66679 0.37755 0.28186 0.0
C4736 C 0.70135 0.37787 0.33148 0.0
C4737 C 0.68097 0.37221 0.31092 0.0
C4738 C 0.71035 0.37266 0.34419 0.0
C4739 C 0.70779 0.35762 0.35053 0.0
C4740 C 0.68965 0.36803 0.32534 0.0
C4741 C 0.69563 0.34841 0.34443 0.0
C4742 C 0.66713 0.36424 0.30707 0.0
C4743 C 0.68031 0.38575 0.28634 0.0
N4744 N 0.68703 0.35374 0.33213 0.0
N4745 N 0.68707 0.38283 0.30056 0.0
H4746 H 0.08472 0.96656 0.90341 0.0
H4747 H 0.13688 0.93947 0.97641 0.0
H4748 H 0.13299 0.98013 0.90981 0.0
H4749 H 0.09579 0.9138 0.96172 0.0
H4750 H 0.13396 0.95668 0.95356 0.0
H4751 H 0.08708 0.94879 0.92612 0.0
C4752 C 0.09581 0.96573 0.90954 0.0
C4753 C 0.10867 0.97482 0.9048 0.0
C4754 C 0.12558 0.94727 0.95533 0.0
C4755 C 0.11137 0.95483 0.93071 0.0
C4756 C 0.12721 0.9375 0.9684 0.0
C4757 C 0.1166 0.92517 0.97088 0.0
C4758 C 0.11317 0.94479 0.94478 0.0
C4759 C 0.10425 0.92315 0.96016 0.0
C4760 C 0.09715 0.95562 0.92245 0.0
C4761 C 0.12278 0.97333 0.91309 0.0
N4762 N 0.10284 0.9329 0.94755 0.0
N4763 N 0.12372 0.96361 0.92571 0.0
H4764 H 0.29099 0.86681 0.23119 0.0
H4765 H 0.28682 0.87031 0.13808 0.0
H4766 H 0.3332 0.87156 0.20375 0.0
H4767 H 0.26314 0.83359 0.16389 0.0
H4768 H 0.29999 0.87839 0.16269 0.0
H4769 H 0.27628 0.86202 0.20665 0.0
C4770 C 0.29708 0.86693 0.21999 0.0
C4771 C 0.31327 0.86926 0.21936 0.0
C4772 C 0.29178 0.86866 0.16287 0.0
C4773 C 0.29667 0.86444 0.19162 0.0
C4774 C 0.28432 0.8641 0.14895 0.0
C4775 C 0.27409 0.85121 0.14908 0.0
C4776 C 0.28849 0.86059 0.17692 0.0
C4777 C 0.27113 0.84347 0.16337 0.0
C4778 C 0.28875 0.86423 0.20611 0.0
C4779 C 0.32074 0.86948 0.20464 0.0
N4780 N 0.27824 0.84835 0.1768 0.0
N4781 N 0.31234 0.86717 0.19127 0.0
H4782 H 0.15718 0.1325 0.7055 0.0
H4783 H 0.22771 0.11005 0.64789 0.0
H4784 H 0.19381 0.10021 0.71912 0.0
H4785 H 0.20079 0.15294 0.64497 0.0
H4786 H 0.21185 0.10196 0.67077 0.0
H4787 H 0.16965 0.13569 0.6799 0.0
C4788 C 0.16784 0.12603 0.70308 0.0
C4789 C 0.17463 0.11627 0.7145 0.0
C4790 C 0.20935 0.11304 0.66494 0.0
C4791 C 0.1889 0.11981 0.68519 0.0
C4792 C 0.21828 0.11758 0.65189 0.0
C4793 C 0.21558 0.13221 0.64475 0.0
C4794 C 0.19756 0.12313 0.67053 0.0
C4795 C 0.20333 0.14164 0.65033 0.0
C4796 C 0.17493 0.12784 0.68845 0.0
C4797 C 0.18834 0.10802 0.71067 0.0
N4798 N 0.1948 0.13695 0.66292 0.0
N4799 N 0.19512 0.11004 0.6963 0.0
loop_
_geom_bond_atom_site_label_1
_geom_bond_atom_site_label_2
_geom_bond_distance
_geom_bond_site_symmetry_2
_ccdc_geom_bond_type
Co0 O1 2.216 1_455 S
Co0 O2 2.091 1_455 S
Co0 O4 2.004 . S
Co0 O10 2.021 1_455 S
Co0 O12 2.137 . S
Co0 O13 2.244 . S
O1 Co0 2.216 1_655 S
O1 C8 1.247 . S
O2 Co0 2.091 1_655 S
O2 C8 1.261 . S
C3 O12 1.247 . S
C3 O13 1.272 . S
O4 Co0 2.004 . S
O4 C9 1.259 . S
Co5 O6 2.061 . S
Co5 O11 2.052 1_455 S
Co5 O13 2.135 . S
O6 Co5 2.061 . S
O6 C9 1.235 . S
C7 O10 1.238 . S
C7 O11 1.241 . S
C8 O1 1.247 . S
C8 O2 1.261 . S
C9 O4 1.259 . S
C9 O6 1.235 . S
O10 Co0 2.021 1_655 S
O10 C7 1.238 . S
O11 Co5 2.052 1_655 S
O11 C7 1.241 . S
O12 Co0 2.137 . S
O12 C3 1.247 . S
O13 Co0 2.244 . S
O13 C3 1.272 . S
O13 Co5 2.135 . S
Co14 O15 2.216 . S
Co14 O16 2.091 . S
Co14 O18 2.004 . S
Co14 O24 2.021 . S
Co14 O26 2.137 . S
Co14 O27 2.244 . S
O15 Co14 2.216 . S
O15 C22 1.247 . S
O16 Co14 2.091 . S
O16 C22 1.261 . S
C17 O26 1.247 . S
C17 O27 1.272 . S
O18 Co14 2.004 . S
O18 C23 1.259 . S
Co19 O20 2.061 . S
Co19 O25 2.052 . S
Co19 O27 2.135 . S
O20 Co19 2.061 . S
O20 C23 1.235 . S
C21 O24 1.238 . S
C21 O25 1.241 . S
C22 O15 1.247 . S
C22 O16 1.261 . S
C23 O18 1.259 . S
C23 O20 1.235 . S
O24 Co14 2.021 . S
O24 C21 1.238 . S
O25 Co19 2.052 . S
O25 C21 1.241 . S
O26 Co14 2.137 . S
O26 C17 1.247 . S
O27 Co14 2.244 . S
O27 C17 1.272 . S
O27 Co19 2.135 . S
Co28 O29 2.216 . S
Co28 O30 2.091 . S
Co28 O32 2.004 . S
Co28 O38 2.021 . S
Co28 O40 2.137 . S
Co28 O41 2.244 . S
O29 Co28 2.216 . S
O29 C36 1.247 . S
O30 Co28 2.091 . S
O30 C36 1.261 . S
C31 O40 1.247 . S
C31 O41 1.272 . S
O32 Co28 2.004 . S
O32 C37 1.259 . S
Co33 O34 2.061 . S
Co33 O39 2.052 . S
Co33 O41 2.135 . S
O34 Co33 2.061 . S
O34 C37 1.235 . S
C35 O38 1.238 . S
C35 O39 1.241 . S
C36 O29 1.247 . S
C36 O30 1.261 . S
C37 O32 1.259 . S
C37 O34 1.235 . S
O38 Co28 2.021 . S
O38 C35 1.238 . S
O39 Co33 2.052 . S
O39 C35 1.241 . S
O40 Co28 2.137 . S
O40 C31 1.247 . S
O41 Co28 2.244 . S
O41 C31 1.272 . S
O41 Co33 2.135 . S
Co42 O43 2.216 . S
Co42 O44 2.091 . S
Co42 O46 2.004 . S
Co42 O52 2.021 . S
Co42 O54 2.137 . S
Co42 O55 2.244 . S
O43 Co42 2.216 . S
O43 C50 1.247 . S
O44 Co42 2.091 . S
O44 C50 1.261 . S
C45 O54 1.247 . S
C45 O55 1.272 . S
O46 Co42 2.004 . S
O46 C51 1.259 . S
Co47 O48 2.061 . S
Co47 O53 2.052 . S
Co47 O55 2.135 . S
O48 Co47 2.061 . S
O48 C51 1.235 . S
C49 O52 1.238 . S
C49 O53 1.241 . S
C50 O43 1.247 . S
C50 O44 1.261 . S
C51 O46 1.259 . S
C51 O48 1.235 . S
O52 Co42 2.021 . S
O52 C49 1.238 . S
O53 Co47 2.052 . S
O53 C49 1.241 . S
O54 Co42 2.137 . S
O54 C45 1.247 . S
O55 Co42 2.244 . S
O55 C45 1.272 . S
O55 Co47 2.135 . S
Co56 O57 2.216 1_455 S
Co56 O58 2.091 1_455 S
Co56 O60 2.004 . S
Co56 O66 2.021 1_455 S
Co56 O68 2.137 . S
Co56 O69 2.244 . S
O57 Co56 2.216 1_655 S
O57 C64 1.247 . S
O58 Co56 2.091 1_655 S
O58 C64 1.261 . S
C59 O68 1.247 . S
C59 O69 1.272 . S
O60 Co56 2.004 . S
O60 C65 1.259 . S
Co61 O62 2.061 . S
Co61 O67 2.052 1_455 S
Co61 O69 2.135 . S
O62 Co61 2.061 . S
O62 C65 1.235 . S
C63 O66 1.238 . S
C63 O67 1.241 . S
C64 O57 1.247 . S
C64 O58 1.261 . S
C65 O60 1.259 . S
C65 O62 1.235 . S
O66 Co56 2.021 1_655 S
O66 C63 1.238 . S
O67 Co61 2.052 1_655 S
O67 C63 1.241 . S
O68 Co56 2.137 . S
O68 C59 1.247 . S
O69 Co56 2.244 . S
O69 C59 1.272 . S
O69 Co61 2.135 . S
Co70 O71 2.216 . S
Co70 O72 2.091 . S
Co70 O74 2.004 . S
Co70 O80 2.021 . S
Co70 O82 2.137 . S
Co70 O83 2.244 . S
O71 Co70 2.216 . S
O71 C78 1.247 . S
O72 Co70 2.091 . S
O72 C78 1.261 . S
C73 O82 1.247 . S
C73 O83 1.272 . S
O74 Co70 2.004 . S
O74 C79 1.259 . S
Co75 O76 2.061 . S
Co75 O81 2.052 . S
Co75 O83 2.135 . S
O76 Co75 2.061 . S
O76 C79 1.235 . S
C77 O80 1.238 . S
C77 O81 1.241 . S
C78 O71 1.247 . S
C78 O72 1.261 . S
C79 O74 1.259 . S
C79 O76 1.235 . S
O80 Co70 2.021 . S
O80 C77 1.238 . S
O81 Co75 2.052 . S
O81 C77 1.241 . S
O82 Co70 2.137 . S
O82 C73 1.247 . S
O83 Co70 2.244 . S
O83 C73 1.272 . S
O83 Co75 2.135 . S
Co84 O85 2.216 . S
Co84 O86 2.091 . S
Co84 O88 2.004 . S
Co84 O94 2.021 . S
Co84 O96 2.137 . S
Co84 O97 2.244 . S
O85 Co84 2.216 . S
O85 C92 1.247 . S
O86 Co84 2.091 . S
O86 C92 1.261 . S
C87 O96 1.247 . S
C87 O97 1.272 . S
O88 Co84 2.004 . S
O88 C93 1.259 . S
Co89 O90 2.061 . S
Co89 O95 2.052 . S
Co89 O97 2.135 . S
O90 Co89 2.061 . S
O90 C93 1.235 . S
C91 O94 1.238 . S
C91 O95 1.241 . S
C92 O85 1.247 . S
C92 O86 1.261 . S
C93 O88 1.259 . S
C93 O90 1.235 . S
O94 Co84 2.021 . S
O94 C91 1.238 . S
O95 Co89 2.052 . S
O95 C91 1.241 . S
O96 Co84 2.137 . S
O96 C87 1.247 . S
O97 Co84 2.244 . S
O97 C87 1.272 . S
O97 Co89 2.135 . S
Co98 O99 2.216 . S
Co98 O100 2.091 . S
Co98 O102 2.004 . S
Co98 O108 2.021 . S
Co98 O110 2.137 . S
Co98 O111 2.244 . S
O99 Co98 2.216 . S
O99 C106 1.247 . S
O100 Co98 2.091 . S
O100 C106 1.261 . S
C101 O110 1.247 . S
C101 O111 1.272 . S
O102 Co98 2.004 . S
O102 C107 1.259 . S
Co103 O104 2.061 . S
Co103 O109 2.052 . S
Co103 O111 2.135 . S
O104 Co103 2.061 . S
O104 C107 1.235 . S
C105 O108 1.238 . S
C105 O109 1.241 . S
C106 O99 1.247 . S
C106 O100 1.261 . S
C107 O102 1.259 . S
C107 O104 1.235 . S
O108 Co98 2.021 . S
O108 C105 1.238 . S
O109 Co103 2.052 . S
O109 C105 1.241 . S
O110 Co98 2.137 . S
O110 C101 1.247 . S
O111 Co98 2.244 . S
O111 C101 1.272 . S
O111 Co103 2.135 . S
Co112 O113 2.216 . S
Co112 O114 2.091 . S
Co112 O116 2.004 1_545 S
Co112 O122 2.021 . S
Co112 O124 2.137 1_545 S
Co112 O125 2.244 1_545 S
O113 Co112 2.216 . S
O113 C120 1.247 . S
O114 Co112 2.091 . S
O114 C120 1.261 . S
C115 O124 1.247 . S
C115 O125 1.272 . S
O116 Co112 2.004 1_565 S
O116 C121 1.259 . S
Co117 O118 2.061 . S
Co117 O123 2.052 1_565 S
Co117 O125 2.135 . S
O118 Co117 2.061 . S
O118 C121 1.235 . S
C119 O122 1.238 . S
C119 O123 1.241 . S
C120 O113 1.247 . S
C120 O114 1.261 . S
C121 O116 1.259 . S
C121 O118 1.235 . S
O122 Co112 2.021 . S
O122 C119 1.238 . S
O123 Co117 2.052 1_545 S
O123 C119 1.241 . S
O124 Co112 2.137 1_565 S
O124 C115 1.247 . S
O125 Co112 2.244 1_565 S
O125 C115 1.272 . S
O125 Co117 2.135 . S
Co126 O127 2.216 . S
Co126 O128 2.091 . S
Co126 O130 2.004 . S
Co126 O136 2.021 . S
Co126 O138 2.137 . S
Co126 O139 2.244 . S
O127 Co126 2.216 . S
O127 C134 1.247 . S
O128 Co126 2.091 . S
O128 C134 1.261 . S
C129 O138 1.247 . S
C129 O139 1.272 . S
O130 Co126 2.004 . S
O130 C135 1.259 . S
Co131 O132 2.061 . S
Co131 O137 2.052 . S
Co131 O139 2.135 . S
O132 Co131 2.061 . S
O132 C135 1.235 . S
C133 O136 1.238 . S
C133 O137 1.241 . S
C134 O127 1.247 . S
C134 O128 1.261 . S
C135 O130 1.259 . S
C135 O132 1.235 . S
O136 Co126 2.021 . S
O136 C133 1.238 . S
O137 Co131 2.052 . S
O137 C133 1.241 . S
O138 Co126 2.137 . S
O138 C129 1.247 . S
O139 Co126 2.244 . S
O139 C129 1.272 . S
O139 Co131 2.135 . S
Co140 O141 2.216 . S
Co140 O142 2.091 . S
Co140 O144 2.004 1_565 S
Co140 O150 2.021 . S
Co140 O152 2.137 1_565 S
Co140 O153 2.244 1_565 S
O141 Co140 2.216 . S
O141 C148 1.247 . S
O142 Co140 2.091 . S
O142 C148 1.261 . S
C143 O152 1.247 . S
C143 O153 1.272 . S
O144 Co140 2.004 1_545 S
O144 C149 1.259 . S
Co145 O146 2.061 . S
Co145 O151 2.052 1_545 S
Co145 O153 2.135 . S
O146 Co145 2.061 . S
O146 C149 1.235 . S
C147 O150 1.238 . S
C147 O151 1.241 . S
C148 O141 1.247 . S
C148 O142 1.261 . S
C149 O144 1.259 . S
C149 O146 1.235 . S
O150 Co140 2.021 . S
O150 C147 1.238 . S
O151 Co145 2.052 1_565 S
O151 C147 1.241 . S
O152 Co140 2.137 1_545 S
O152 C143 1.247 . S
O153 Co140 2.244 1_545 S
O153 C143 1.272 . S
O153 Co145 2.135 . S
Co154 O155 2.216 . S
Co154 O156 2.091 . S
Co154 O158 2.004 . S
Co154 O164 2.021 . S
Co154 O166 2.137 . S
Co154 O167 2.244 . S
O155 Co154 2.216 . S
O155 C162 1.247 . S
O156 Co154 2.091 . S
O156 C162 1.261 . S
C157 O166 1.247 . S
C157 O167 1.272 . S
O158 Co154 2.004 . S
O158 C163 1.259 . S
Co159 O160 2.061 . S
Co159 O165 2.052 . S
Co159 O167 2.135 . S
O160 Co159 2.061 . S
O160 C163 1.235 . S
C161 O164 1.238 . S
C161 O165 1.241 . S
C162 O155 1.247 . S
C162 O156 1.261 . S
C163 O158 1.259 . S
C163 O160 1.235 . S
O164 Co154 2.021 . S
O164 C161 1.238 . S
O165 Co159 2.052 . S
O165 C161 1.241 . S
O166 Co154 2.137 . S
O166 C157 1.247 . S
O167 Co154 2.244 . S
O167 C157 1.272 . S
O167 Co159 2.135 . S
Co168 O169 2.216 . S
Co168 O170 2.091 . S
Co168 O172 2.004 1_565 S
Co168 O178 2.021 . S
Co168 O180 2.137 1_565 S
Co168 O181 2.244 1_565 S
O169 Co168 2.216 . S
O169 C176 1.247 . S
O170 Co168 2.091 . S
O170 C176 1.261 . S
C171 O180 1.247 . S
C171 O181 1.272 . S
O172 Co168 2.004 1_545 S
O172 C177 1.259 . S
Co173 O174 2.061 . S
Co173 O179 2.052 1_545 S
Co173 O181 2.135 . S
O174 Co173 2.061 . S
O174 C177 1.235 . S
C175 O178 1.238 . S
C175 O179 1.241 . S
C176 O169 1.247 . S
C176 O170 1.261 . S
C177 O172 1.259 . S
C177 O174 1.235 . S
O178 Co168 2.021 . S
O178 C175 1.238 . S
O179 Co173 2.052 1_565 S
O179 C175 1.241 . S
O180 Co168 2.137 1_545 S
O180 C171 1.247 . S
O181 Co168 2.244 1_545 S
O181 C171 1.272 . S
O181 Co173 2.135 . S
Co182 O183 2.216 . S
Co182 O184 2.091 . S
Co182 O186 2.004 . S
Co182 O192 2.021 . S
Co182 O194 2.137 . S
Co182 O195 2.244 . S
O183 Co182 2.216 . S
O183 C190 1.247 . S
O184 Co182 2.091 . S
O184 C190 1.261 . S
C185 O194 1.247 . S
C185 O195 1.272 . S
O186 Co182 2.004 . S
O186 C191 1.259 . S
Co187 O188 2.061 . S
Co187 O193 2.052 . S
Co187 O195 2.135 . S
O188 Co187 2.061 . S
O188 C191 1.235 . S
C189 O192 1.238 . S
C189 O193 1.241 . S
C190 O183 1.247 . S
C190 O184 1.261 . S
C191 O186 1.259 . S
C191 O188 1.235 . S
O192 Co182 2.021 . S
O192 C189 1.238 . S
O193 Co187 2.052 . S
O193 C189 1.241 . S
O194 Co182 2.137 . S
O194 C185 1.247 . S
O195 Co182 2.244 . S
O195 C185 1.272 . S
O195 Co187 2.135 . S
Co196 O197 2.216 . S
Co196 O198 2.091 . S
Co196 O200 2.004 1_545 S
Co196 O206 2.021 . S
Co196 O208 2.137 1_545 S
Co196 O209 2.244 1_545 S
O197 Co196 2.216 . S
O197 C204 1.247 . S
O198 Co196 2.091 . S
O198 C204 1.261 . S
C199 O208 1.247 . S
C199 O209 1.272 . S
O200 Co196 2.004 1_565 S
O200 C205 1.259 . S
Co201 O202 2.061 . S
Co201 O207 2.052 1_565 S
Co201 O209 2.135 . S
O202 Co201 2.061 . S
O202 C205 1.235 . S
C203 O206 1.238 . S
C203 O207 1.241 . S
C204 O197 1.247 . S
C204 O198 1.261 . S
C205 O200 1.259 . S
C205 O202 1.235 . S
O206 Co196 2.021 . S
O206 C203 1.238 . S
O207 Co201 2.052 1_545 S
O207 C203 1.241 . S
O208 Co196 2.137 1_565 S
O208 C199 1.247 . S
O209 Co196 2.244 1_565 S
O209 C199 1.272 . S
O209 Co201 2.135 . S
Co210 O211 2.216 . S
Co210 O212 2.091 . S
Co210 O214 2.004 . S
Co210 O220 2.021 . S
Co210 O222 2.137 . S
Co210 O223 2.244 . S
O211 Co210 2.216 . S
O211 C218 1.247 . S
O212 Co210 2.091 . S
O212 C218 1.261 . S
C213 O222 1.247 . S
C213 O223 1.272 . S
O214 Co210 2.004 . S
O214 C219 1.259 . S
Co215 O216 2.061 . S
Co215 O221 2.052 . S
Co215 O223 2.135 . S
O216 Co215 2.061 . S
O216 C219 1.235 . S
C217 O220 1.238 . S
C217 O221 1.241 . S
C218 O211 1.247 . S
C218 O212 1.261 . S
C219 O214 1.259 . S
C219 O216 1.235 . S
O220 Co210 2.021 . S
O220 C217 1.238 . S
O221 Co215 2.052 . S
O221 C217 1.241 . S
O222 Co210 2.137 . S
O222 C213 1.247 . S
O223 Co210 2.244 . S
O223 C213 1.272 . S
O223 Co215 2.135 . S
Co224 O225 2.216 1_554 S
Co224 O226 2.091 1_554 S
Co224 O228 2.004 . S
Co224 O234 2.021 1_554 S
Co224 O236 2.137 . S
Co224 O237 2.244 . S
O225 Co224 2.216 1_556 S
O225 C232 1.247 . S
O226 Co224 2.091 1_556 S
O226 C232 1.261 . S
C227 O236 1.247 . S
C227 O237 1.272 . S
O228 Co224 2.004 . S
O228 C233 1.259 . S
Co229 O230 2.061 . S
Co229 O235 2.052 1_554 S
Co229 O237 2.135 . S
O230 Co229 2.061 . S
O230 C233 1.235 . S
C231 O234 1.238 . S
C231 O235 1.241 . S
C232 O225 1.247 . S
C232 O226 1.261 . S
C233 O228 1.259 . S
C233 O230 1.235 . S
O234 Co224 2.021 1_556 S
O234 C231 1.238 . S
O235 Co229 2.052 1_556 S
O235 C231 1.241 . S
O236 Co224 2.137 . S
O236 C227 1.247 . S
O237 Co224 2.244 . S
O237 C227 1.272 . S
O237 Co229 2.135 . S
Co238 O239 2.216 1_556 S
Co238 O240 2.091 1_556 S
Co238 O242 2.004 . S
Co238 O248 2.021 1_556 S
Co238 O250 2.137 . S
Co238 O251 2.244 . S
O239 Co238 2.216 1_554 S
O239 C246 1.247 . S
O240 Co238 2.091 1_554 S
O240 C246 1.261 . S
C241 O250 1.247 . S
C241 O251 1.272 . S
O242 Co238 2.004 . S
O242 C247 1.259 . S
Co243 O244 2.061 . S
Co243 O249 2.052 1_556 S
Co243 O251 2.135 . S
O244 Co243 2.061 . S
O244 C247 1.235 . S
C245 O248 1.238 . S
C245 O249 1.241 . S
C246 O239 1.247 . S
C246 O240 1.261 . S
C247 O242 1.259 . S
C247 O244 1.235 . S
O248 Co238 2.021 1_554 S
O248 C245 1.238 . S
O249 Co243 2.052 1_554 S
O249 C245 1.241 . S
O250 Co238 2.137 . S
O250 C241 1.247 . S
O251 Co238 2.244 . S
O251 C241 1.272 . S
O251 Co243 2.135 . S
Co252 O253 2.216 . S
Co252 O254 2.091 . S
Co252 O256 2.004 . S
Co252 O262 2.021 . S
Co252 O264 2.137 . S
Co252 O265 2.244 . S
O253 Co252 2.216 . S
O253 C260 1.247 . S
O254 Co252 2.091 . S
O254 C260 1.261 . S
C255 O264 1.247 . S
C255 O265 1.272 . S
O256 Co252 2.004 . S
O256 C261 1.259 . S
Co257 O258 2.061 . S
Co257 O263 2.052 . S
Co257 O265 2.135 . S
O258 Co257 2.061 . S
O258 C261 1.235 . S
C259 O262 1.238 . S
C259 O263 1.241 . S
C260 O253 1.247 . S
C260 O254 1.261 . S
C261 O256 1.259 . S
C261 O258 1.235 . S
O262 Co252 2.021 . S
O262 C259 1.238 . S
O263 Co257 2.052 . S
O263 C259 1.241 . S
O264 Co252 2.137 . S
O264 C255 1.247 . S
O265 Co252 2.244 . S
O265 C255 1.272 . S
O265 Co257 2.135 . S
Co266 O267 2.216 . S
Co266 O268 2.091 . S
Co266 O270 2.004 . S
Co266 O276 2.021 . S
Co266 O278 2.137 . S
Co266 O279 2.244 . S
O267 Co266 2.216 . S
O267 C274 1.247 . S
O268 Co266 2.091 . S
O268 C274 1.261 . S
C269 O278 1.247 . S
C269 O279 1.272 . S
O270 Co266 2.004 . S
O270 C275 1.259 . S
Co271 O272 2.061 . S
Co271 O277 2.052 . S
Co271 O279 2.135 . S
O272 Co271 2.061 . S
O272 C275 1.235 . S
C273 O276 1.238 . S
C273 O277 1.241 . S
C274 O267 1.247 . S
C274 O268 1.261 . S
C275 O270 1.259 . S
C275 O272 1.235 . S
O276 Co266 2.021 . S
O276 C273 1.238 . S
O277 Co271 2.052 . S
O277 C273 1.241 . S
O278 Co266 2.137 . S
O278 C269 1.247 . S
O279 Co266 2.244 . S
O279 C269 1.272 . S
O279 Co271 2.135 . S
Co280 O281 2.216 . S
Co280 O282 2.091 . S
Co280 O284 2.004 . S
Co280 O290 2.021 . S
Co280 O292 2.137 . S
Co280 O293 2.244 . S
O281 Co280 2.216 . S
O281 C288 1.247 . S
O282 Co280 2.091 . S
O282 C288 1.261 . S
C283 O292 1.247 . S
C283 O293 1.272 . S
O284 Co280 2.004 . S
O284 C289 1.259 . S
Co285 O286 2.061 . S
Co285 O291 2.052 . S
Co285 O293 2.135 . S
O286 Co285 2.061 . S
O286 C289 1.235 . S
C287 O290 1.238 . S
C287 O291 1.241 . S
C288 O281 1.247 . S
C288 O282 1.261 . S
C289 O284 1.259 . S
C289 O286 1.235 . S
O290 Co280 2.021 . S
O290 C287 1.238 . S
O291 Co285 2.052 . S
O291 C287 1.241 . S
O292 Co280 2.137 . S
O292 C283 1.247 . S
O293 Co280 2.244 . S
O293 C283 1.272 . S
O293 Co285 2.135 . S
Co294 O295 2.216 . S
Co294 O296 2.091 . S
Co294 O298 2.004 . S
Co294 O304 2.021 . S
Co294 O306 2.137 . S
Co294 O307 2.244 . S
O295 Co294 2.216 . S
O295 C302 1.247 . S
O296 Co294 2.091 . S
O296 C302 1.261 . S
C297 O306 1.247 . S
C297 O307 1.272 . S
O298 Co294 2.004 . S
O298 C303 1.259 . S
Co299 O300 2.061 . S
Co299 O305 2.052 . S
Co299 O307 2.135 . S
O300 Co299 2.061 . S
O300 C303 1.235 . S
C301 O304 1.238 . S
C301 O305 1.241 . S
C302 O295 1.247 . S
C302 O296 1.261 . S
C303 O298 1.259 . S
C303 O300 1.235 . S
O304 Co294 2.021 . S
O304 C301 1.238 . S
O305 Co299 2.052 . S
O305 C301 1.241 . S
O306 Co294 2.137 . S
O306 C297 1.247 . S
O307 Co294 2.244 . S
O307 C297 1.272 . S
O307 Co299 2.135 . S
Co308 O309 2.216 . S
Co308 O310 2.091 . S
Co308 O312 2.004 . S
Co308 O318 2.021 . S
Co308 O320 2.137 . S
Co308 O321 2.244 . S
O309 Co308 2.216 . S
O309 C316 1.247 . S
O310 Co308 2.091 . S
O310 C316 1.261 . S
C311 O320 1.247 . S
C311 O321 1.272 . S
O312 Co308 2.004 . S
O312 C317 1.259 . S
Co313 O314 2.061 . S
Co313 O319 2.052 . S
Co313 O321 2.135 . S
O314 Co313 2.061 . S
O314 C317 1.235 . S
C315 O318 1.238 . S
C315 O319 1.241 . S
C316 O309 1.247 . S
C316 O310 1.261 . S
C317 O312 1.259 . S
C317 O314 1.235 . S
O318 Co308 2.021 . S
O318 C315 1.238 . S
O319 Co313 2.052 . S
O319 C315 1.241 . S
O320 Co308 2.137 . S
O320 C311 1.247 . S
O321 Co308 2.244 . S
O321 C311 1.272 . S
O321 Co313 2.135 . S
Co322 O323 2.216 . S
Co322 O324 2.091 . S
Co322 O326 2.004 . S
Co322 O332 2.021 . S
Co322 O334 2.137 . S
Co322 O335 2.244 . S
O323 Co322 2.216 . S
O323 C330 1.247 . S
O324 Co322 2.091 . S
O324 C330 1.261 . S
C325 O334 1.247 . S
C325 O335 1.272 . S
O326 Co322 2.004 . S
O326 C331 1.259 . S
Co327 O328 2.061 . S
Co327 O333 2.052 . S
Co327 O335 2.135 . S
O328 Co327 2.061 . S
O328 C331 1.235 . S
C329 O332 1.238 . S
C329 O333 1.241 . S
C330 O323 1.247 . S
C330 O324 1.261 . S
C331 O326 1.259 . S
C331 O328 1.235 . S
O332 Co322 2.021 . S
O332 C329 1.238 . S
O333 Co327 2.052 . S
O333 C329 1.241 . S
O334 Co322 2.137 . S
O334 C325 1.247 . S
O335 Co322 2.244 . S
O335 C325 1.272 . S
O335 Co327 2.135 . S
Co336 O337 2.216 1_655 S
Co336 O338 2.091 1_655 S
Co336 O340 2.004 . S
Co336 O346 2.021 1_655 S
Co336 O348 2.137 . S
Co336 O349 2.244 . S
O337 Co336 2.216 1_455 S
O337 C344 1.247 . S
O338 Co336 2.091 1_455 S
O338 C344 1.261 . S
C339 O348 1.247 . S
C339 O349 1.272 . S
O340 Co336 2.004 . S
O340 C345 1.259 . S
Co341 O342 2.061 . S
Co341 O347 2.052 1_655 S
Co341 O349 2.135 . S
O342 Co341 2.061 . S
O342 C345 1.235 . S
C343 O346 1.238 . S
C343 O347 1.241 . S
C344 O337 1.247 . S
C344 O338 1.261 . S
C345 O340 1.259 . S
C345 O342 1.235 . S
O346 Co336 2.021 1_455 S
O346 C343 1.238 . S
O347 Co341 2.052 1_455 S
O347 C343 1.241 . S
O348 Co336 2.137 . S
O348 C339 1.247 . S
O349 Co336 2.244 . S
O349 C339 1.272 . S
O349 Co341 2.135 . S
Co350 O351 2.216 . S
Co350 O352 2.091 . S
Co350 O354 2.004 . S
Co350 O360 2.021 . S
Co350 O362 2.137 . S
Co350 O363 2.244 . S
O351 Co350 2.216 . S
O351 C358 1.247 . S
O352 Co350 2.091 . S
O352 C358 1.261 . S
C353 O362 1.247 . S
C353 O363 1.272 . S
O354 Co350 2.004 . S
O354 C359 1.259 . S
Co355 O356 2.061 . S
Co355 O361 2.052 . S
Co355 O363 2.135 . S
O356 Co355 2.061 . S
O356 C359 1.235 . S
C357 O360 1.238 . S
C357 O361 1.241 . S
C358 O351 1.247 . S
C358 O352 1.261 . S
C359 O354 1.259 . S
C359 O356 1.235 . S
O360 Co350 2.021 . S
O360 C357 1.238 . S
O361 Co355 2.052 . S
O361 C357 1.241 . S
O362 Co350 2.137 . S
O362 C353 1.247 . S
O363 Co350 2.244 . S
O363 C353 1.272 . S
O363 Co355 2.135 . S
Co364 O365 2.216 . S
Co364 O366 2.091 . S
Co364 O368 2.004 . S
Co364 O374 2.021 . S
Co364 O376 2.137 . S
Co364 O377 2.244 . S
O365 Co364 2.216 . S
O365 C372 1.247 . S
O366 Co364 2.091 . S
O366 C372 1.261 . S
C367 O376 1.247 . S
C367 O377 1.272 . S
O368 Co364 2.004 . S
O368 C373 1.259 . S
Co369 O370 2.061 . S
Co369 O375 2.052 . S
Co369 O377 2.135 . S
O370 Co369 2.061 . S
O370 C373 1.235 . S
C371 O374 1.238 . S
C371 O375 1.241 . S
C372 O365 1.247 . S
C372 O366 1.261 . S
C373 O368 1.259 . S
C373 O370 1.235 . S
O374 Co364 2.021 . S
O374 C371 1.238 . S
O375 Co369 2.052 . S
O375 C371 1.241 . S
O376 Co364 2.137 . S
O376 C367 1.247 . S
O377 Co364 2.244 . S
O377 C367 1.272 . S
O377 Co369 2.135 . S
Co378 O379 2.216 . S
Co378 O380 2.091 . S
Co378 O382 2.004 . S
Co378 O388 2.021 . S
Co378 O390 2.137 . S
Co378 O391 2.244 . S
O379 Co378 2.216 . S
O379 C386 1.247 . S
O380 Co378 2.091 . S
O380 C386 1.261 . S
C381 O390 1.247 . S
C381 O391 1.272 . S
O382 Co378 2.004 . S
O382 C387 1.259 . S
Co383 O384 2.061 . S
Co383 O389 2.052 . S
Co383 O391 2.135 . S
O384 Co383 2.061 . S
O384 C387 1.235 . S
C385 O388 1.238 . S
C385 O389 1.241 . S
C386 O379 1.247 . S
C386 O380 1.261 . S
C387 O382 1.259 . S
C387 O384 1.235 . S
O388 Co378 2.021 . S
O388 C385 1.238 . S
O389 Co383 2.052 . S
O389 C385 1.241 . S
O390 Co378 2.137 . S
O390 C381 1.247 . S
O391 Co378 2.244 . S
O391 C381 1.272 . S
O391 Co383 2.135 . S
Co392 O393 2.216 1_655 S
Co392 O394 2.091 1_655 S
Co392 O396 2.004 . S
Co392 O402 2.021 1_655 S
Co392 O404 2.137 . S
Co392 O405 2.244 . S
O393 Co392 2.216 1_455 S
O393 C400 1.247 . S
O394 Co392 2.091 1_455 S
O394 C400 1.261 . S
C395 O404 1.247 . S
C395 O405 1.272 . S
O396 Co392 2.004 . S
O396 C401 1.259 . S
Co397 O398 2.061 . S
Co397 O403 2.052 1_655 S
Co397 O405 2.135 . S
O398 Co397 2.061 . S
O398 C401 1.235 . S
C399 O402 1.238 . S
C399 O403 1.241 . S
C400 O393 1.247 . S
C400 O394 1.261 . S
C401 O396 1.259 . S
C401 O398 1.235 . S
O402 Co392 2.021 1_455 S
O402 C399 1.238 . S
O403 Co397 2.052 1_455 S
O403 C399 1.241 . S
O404 Co392 2.137 . S
O404 C395 1.247 . S
O405 Co392 2.244 . S
O405 C395 1.272 . S
O405 Co397 2.135 . S
Co406 O407 2.216 . S
Co406 O408 2.091 . S
Co406 O410 2.004 . S
Co406 O416 2.021 . S
Co406 O418 2.137 . S
Co406 O419 2.244 . S
O407 Co406 2.216 . S
O407 C414 1.247 . S
O408 Co406 2.091 . S
O408 C414 1.261 . S
C409 O418 1.247 . S
C409 O419 1.272 . S
O410 Co406 2.004 . S
O410 C415 1.259 . S
Co411 O412 2.061 . S
Co411 O417 2.052 . S
Co411 O419 2.135 . S
O412 Co411 2.061 . S
O412 C415 1.235 . S
C413 O416 1.238 . S
C413 O417 1.241 . S
C414 O407 1.247 . S
C414 O408 1.261 . S
C415 O410 1.259 . S
C415 O412 1.235 . S
O416 Co406 2.021 . S
O416 C413 1.238 . S
O417 Co411 2.052 . S
O417 C413 1.241 . S
O418 Co406 2.137 . S
O418 C409 1.247 . S
O419 Co406 2.244 . S
O419 C409 1.272 . S
O419 Co411 2.135 . S
Co420 O421 2.216 . S
Co420 O422 2.091 . S
Co420 O424 2.004 . S
Co420 O430 2.021 . S
Co420 O432 2.137 . S
Co420 O433 2.244 . S
O421 Co420 2.216 . S
O421 C428 1.247 . S
O422 Co420 2.091 . S
O422 C428 1.261 . S
C423 O432 1.247 . S
C423 O433 1.272 . S
O424 Co420 2.004 . S
O424 C429 1.259 . S
Co425 O426 2.061 . S
Co425 O431 2.052 . S
Co425 O433 2.135 . S
O426 Co425 2.061 . S
O426 C429 1.235 . S
C427 O430 1.238 . S
C427 O431 1.241 . S
C428 O421 1.247 . S
C428 O422 1.261 . S
C429 O424 1.259 . S
C429 O426 1.235 . S
O430 Co420 2.021 . S
O430 C427 1.238 . S
O431 Co425 2.052 . S
O431 C427 1.241 . S
O432 Co420 2.137 . S
O432 C423 1.247 . S
O433 Co420 2.244 . S
O433 C423 1.272 . S
O433 Co425 2.135 . S
Co434 O435 2.216 . S
Co434 O436 2.091 . S
Co434 O438 2.004 . S
Co434 O444 2.021 . S
Co434 O446 2.137 . S
Co434 O447 2.244 . S
O435 Co434 2.216 . S
O435 C442 1.247 . S
O436 Co434 2.091 . S
O436 C442 1.261 . S
C437 O446 1.247 . S
C437 O447 1.272 . S
O438 Co434 2.004 . S
O438 C443 1.259 . S
Co439 O440 2.061 . S
Co439 O445 2.052 . S
Co439 O447 2.135 . S
O440 Co439 2.061 . S
O440 C443 1.235 . S
C441 O444 1.238 . S
C441 O445 1.241 . S
C442 O435 1.247 . S
C442 O436 1.261 . S
C443 O438 1.259 . S
C443 O440 1.235 . S
O444 Co434 2.021 . S
O444 C441 1.238 . S
O445 Co439 2.052 . S
O445 C441 1.241 . S
O446 Co434 2.137 . S
O446 C437 1.247 . S
O447 Co434 2.244 . S
O447 C437 1.272 . S
O447 Co439 2.135 . S
Co448 O449 2.216 1_565 S
Co448 O450 2.091 1_565 S
Co448 O452 2.004 . S
Co448 O458 2.021 1_565 S
Co448 O460 2.137 . S
Co448 O461 2.244 . S
O449 Co448 2.216 1_545 S
O449 C456 1.247 . S
O450 Co448 2.091 1_545 S
O450 C456 1.261 . S
C451 O460 1.247 . S
C451 O461 1.272 . S
O452 Co448 2.004 . S
O452 C457 1.259 . S
Co453 O454 2.061 . S
Co453 O459 2.052 1_565 S
Co453 O461 2.135 . S
O454 Co453 2.061 . S
O454 C457 1.235 . S
C455 O458 1.238 . S
C455 O459 1.241 . S
C456 O449 1.247 . S
C456 O450 1.261 . S
C457 O452 1.259 . S
C457 O454 1.235 . S
O458 Co448 2.021 1_545 S
O458 C455 1.238 . S
O459 Co453 2.052 1_545 S
O459 C455 1.241 . S
O460 Co448 2.137 . S
O460 C451 1.247 . S
O461 Co448 2.244 . S
O461 C451 1.272 . S
O461 Co453 2.135 . S
Co462 O463 2.216 . S
Co462 O464 2.091 . S
Co462 O466 2.004 . S
Co462 O472 2.021 . S
Co462 O474 2.137 . S
Co462 O475 2.244 . S
O463 Co462 2.216 . S
O463 C470 1.247 . S
O464 Co462 2.091 . S
O464 C470 1.261 . S
C465 O474 1.247 . S
C465 O475 1.272 . S
O466 Co462 2.004 . S
O466 C471 1.259 . S
Co467 O468 2.061 . S
Co467 O473 2.052 . S
Co467 O475 2.135 . S
O468 Co467 2.061 . S
O468 C471 1.235 . S
C469 O472 1.238 . S
C469 O473 1.241 . S
C470 O463 1.247 . S
C470 O464 1.261 . S
C471 O466 1.259 . S
C471 O468 1.235 . S
O472 Co462 2.021 . S
O472 C469 1.238 . S
O473 Co467 2.052 . S
O473 C469 1.241 . S
O474 Co462 2.137 . S
O474 C465 1.247 . S
O475 Co462 2.244 . S
O475 C465 1.272 . S
O475 Co467 2.135 . S
Co476 O477 2.216 1_545 S
Co476 O478 2.091 1_545 S
Co476 O480 2.004 . S
Co476 O486 2.021 1_545 S
Co476 O488 2.137 . S
Co476 O489 2.244 . S
O477 Co476 2.216 1_565 S
O477 C484 1.247 . S
O478 Co476 2.091 1_565 S
O478 C484 1.261 . S
C479 O488 1.247 . S
C479 O489 1.272 . S
O480 Co476 2.004 . S
O480 C485 1.259 . S
Co481 O482 2.061 . S
Co481 O487 2.052 1_545 S
Co481 O489 2.135 . S
O482 Co481 2.061 . S
O482 C485 1.235 . S
C483 O486 1.238 . S
C483 O487 1.241 . S
C484 O477 1.247 . S
C484 O478 1.261 . S
C485 O480 1.259 . S
C485 O482 1.235 . S
O486 Co476 2.021 1_565 S
O486 C483 1.238 . S
O487 Co481 2.052 1_565 S
O487 C483 1.241 . S
O488 Co476 2.137 . S
O488 C479 1.247 . S
O489 Co476 2.244 . S
O489 C479 1.272 . S
O489 Co481 2.135 . S
Co490 O491 2.216 . S
Co490 O492 2.091 . S
Co490 O494 2.004 . S
Co490 O500 2.021 . S
Co490 O502 2.137 . S
Co490 O503 2.244 . S
O491 Co490 2.216 . S
O491 C498 1.247 . S
O492 Co490 2.091 . S
O492 C498 1.261 . S
C493 O502 1.247 . S
C493 O503 1.272 . S
O494 Co490 2.004 . S
O494 C499 1.259 . S
Co495 O496 2.061 . S
Co495 O501 2.052 . S
Co495 O503 2.135 . S
O496 Co495 2.061 . S
O496 C499 1.235 . S
C497 O500 1.238 . S
C497 O501 1.241 . S
C498 O491 1.247 . S
C498 O492 1.261 . S
C499 O494 1.259 . S
C499 O496 1.235 . S
O500 Co490 2.021 . S
O500 C497 1.238 . S
O501 Co495 2.052 . S
O501 C497 1.241 . S
O502 Co490 2.137 . S
O502 C493 1.247 . S
O503 Co490 2.244 . S
O503 C493 1.272 . S
O503 Co495 2.135 . S
Co504 O505 2.216 1_545 S
Co504 O506 2.091 1_545 S
Co504 O508 2.004 . S
Co504 O514 2.021 1_545 S
Co504 O516 2.137 . S
Co504 O517 2.244 . S
O505 Co504 2.216 1_565 S
O505 C512 1.247 . S
O506 Co504 2.091 1_565 S
O506 C512 1.261 . S
C507 O516 1.247 . S
C507 O517 1.272 . S
O508 Co504 2.004 . S
O508 C513 1.259 . S
Co509 O510 2.061 . S
Co509 O515 2.052 1_545 S
Co509 O517 2.135 . S
O510 Co509 2.061 . S
O510 C513 1.235 . S
C511 O514 1.238 . S
C511 O515 1.241 . S
C512 O505 1.247 . S
C512 O506 1.261 . S
C513 O508 1.259 . S
C513 O510 1.235 . S
O514 Co504 2.021 1_565 S
O514 C511 1.238 . S
O515 Co509 2.052 1_565 S
O515 C511 1.241 . S
O516 Co504 2.137 . S
O516 C507 1.247 . S
O517 Co504 2.244 . S
O517 C507 1.272 . S
O517 Co509 2.135 . S
Co518 O519 2.216 . S
Co518 O520 2.091 . S
Co518 O522 2.004 . S
Co518 O528 2.021 . S
Co518 O530 2.137 . S
Co518 O531 2.244 . S
O519 Co518 2.216 . S
O519 C526 1.247 . S
O520 Co518 2.091 . S
O520 C526 1.261 . S
C521 O530 1.247 . S
C521 O531 1.272 . S
O522 Co518 2.004 . S
O522 C527 1.259 . S
Co523 O524 2.061 . S
Co523 O529 2.052 . S
Co523 O531 2.135 . S
O524 Co523 2.061 . S
O524 C527 1.235 . S
C525 O528 1.238 . S
C525 O529 1.241 . S
C526 O519 1.247 . S
C526 O520 1.261 . S
C527 O522 1.259 . S
C527 O524 1.235 . S
O528 Co518 2.021 . S
O528 C525 1.238 . S
O529 Co523 2.052 . S
O529 C525 1.241 . S
O530 Co518 2.137 . S
O530 C521 1.247 . S
O531 Co518 2.244 . S
O531 C521 1.272 . S
O531 Co523 2.135 . S
Co532 O533 2.216 1_565 S
Co532 O534 2.091 1_565 S
Co532 O536 2.004 . S
Co532 O542 2.021 1_565 S
Co532 O544 2.137 . S
Co532 O545 2.244 . S
O533 Co532 2.216 1_545 S
O533 C540 1.247 . S
O534 Co532 2.091 1_545 S
O534 C540 1.261 . S
C535 O544 1.247 . S
C535 O545 1.272 . S
O536 Co532 2.004 . S
O536 C541 1.259 . S
Co537 O538 2.061 . S
Co537 O543 2.052 1_565 S
Co537 O545 2.135 . S
O538 Co537 2.061 . S
O538 C541 1.235 . S
C539 O542 1.238 . S
C539 O543 1.241 . S
C540 O533 1.247 . S
C540 O534 1.261 . S
C541 O536 1.259 . S
C541 O538 1.235 . S
O542 Co532 2.021 1_545 S
O542 C539 1.238 . S
O543 Co537 2.052 1_545 S
O543 C539 1.241 . S
O544 Co532 2.137 . S
O544 C535 1.247 . S
O545 Co532 2.244 . S
O545 C535 1.272 . S
O545 Co537 2.135 . S
Co546 O547 2.216 . S
Co546 O548 2.091 . S
Co546 O550 2.004 . S
Co546 O556 2.021 . S
Co546 O558 2.137 . S
Co546 O559 2.244 . S
O547 Co546 2.216 . S
O547 C554 1.247 . S
O548 Co546 2.091 . S
O548 C554 1.261 . S
C549 O558 1.247 . S
C549 O559 1.272 . S
O550 Co546 2.004 . S
O550 C555 1.259 . S
Co551 O552 2.061 . S
Co551 O557 2.052 . S
Co551 O559 2.135 . S
O552 Co551 2.061 . S
O552 C555 1.235 . S
C553 O556 1.238 . S
C553 O557 1.241 . S
C554 O547 1.247 . S
C554 O548 1.261 . S
C555 O550 1.259 . S
C555 O552 1.235 . S
O556 Co546 2.021 . S
O556 C553 1.238 . S
O557 Co551 2.052 . S
O557 C553 1.241 . S
O558 Co546 2.137 . S
O558 C549 1.247 . S
O559 Co546 2.244 . S
O559 C549 1.272 . S
O559 Co551 2.135 . S
Co560 O561 2.216 1_556 S
Co560 O562 2.089 1_556 S
Co560 O564 2.004 . S
Co560 O570 2.021 1_556 S
Co560 O572 2.137 . S
Co560 O573 2.244 . S
O561 Co560 2.216 1_554 S
O561 C568 1.247 . S
O562 Co560 2.089 1_554 S
O562 C568 1.268 . S
C563 O572 1.247 . S
C563 O573 1.272 . S
O564 Co560 2.004 . S
O564 C569 1.259 . S
Co565 O566 2.061 . S
Co565 O571 2.052 1_556 S
Co565 O573 2.135 . S
O566 Co565 2.061 . S
O566 C569 1.235 . S
C567 O570 1.238 . S
C567 O571 1.241 . S
C568 O561 1.247 . S
C568 O562 1.268 . S
C569 O564 1.259 . S
C569 O566 1.235 . S
O570 Co560 2.021 1_554 S
O570 C567 1.238 . S
O571 Co565 2.052 1_554 S
O571 C567 1.241 . S
O572 Co560 2.137 . S
O572 C563 1.247 . S
O573 Co560 2.244 . S
O573 C563 1.272 . S
O573 Co565 2.135 . S
Co574 O575 2.216 1_554 S
Co574 O576 2.085 1_554 S
Co574 O578 2.004 . S
Co574 O584 2.021 1_554 S
Co574 O586 2.137 . S
Co574 O587 2.244 . S
O575 Co574 2.216 1_556 S
O575 C582 1.247 . S
O576 Co574 2.085 1_556 S
O576 C582 1.277 . S
C577 O586 1.247 . S
C577 O587 1.272 . S
O578 Co574 2.004 . S
O578 C583 1.259 . S
Co579 O580 2.061 . S
Co579 O585 2.052 1_554 S
Co579 O587 2.135 . S
O580 Co579 2.061 . S
O580 C583 1.235 . S
C581 O584 1.238 . S
C581 O585 1.241 . S
C582 O575 1.247 . S
C582 O576 1.277 . S
C583 O578 1.259 . S
C583 O580 1.235 . S
O584 Co574 2.021 1_556 S
O584 C581 1.238 . S
O585 Co579 2.052 1_556 S
O585 C581 1.241 . S
O586 Co574 2.137 . S
O586 C577 1.247 . S
O587 Co574 2.244 . S
O587 C577 1.272 . S
O587 Co579 2.135 . S
Co588 O589 2.216 . S
Co588 O590 2.091 . S
Co588 O592 2.004 . S
Co588 O598 2.021 . S
Co588 O600 2.137 . S
Co588 O601 2.244 . S
O589 Co588 2.216 . S
O589 C596 1.247 . S
O590 Co588 2.091 . S
O590 C596 1.261 . S
C591 O600 1.247 . S
C591 O601 1.272 . S
O592 Co588 2.004 . S
O592 C597 1.259 . S
Co593 O594 2.061 . S
Co593 O599 2.052 . S
Co593 O601 2.135 . S
O594 Co593 2.061 . S
O594 C597 1.235 . S
C595 O598 1.238 . S
C595 O599 1.241 . S
C596 O589 1.247 . S
C596 O590 1.261 . S
C597 O592 1.259 . S
C597 O594 1.235 . S
O598 Co588 2.021 . S
O598 C595 1.238 . S
O599 Co593 2.052 . S
O599 C595 1.241 . S
O600 Co588 2.137 . S
O600 C591 1.247 . S
O601 Co588 2.244 . S
O601 C591 1.272 . S
O601 Co593 2.135 . S
Co602 O603 2.216 . S
Co602 O604 2.091 . S
Co602 O606 2.004 . S
Co602 O612 2.021 . S
Co602 O614 2.137 . S
Co602 O615 2.244 . S
O603 Co602 2.216 . S
O603 C610 1.247 . S
O604 Co602 2.091 . S
O604 C610 1.261 . S
C605 O614 1.247 . S
C605 O615 1.272 . S
O606 Co602 2.004 . S
O606 C611 1.259 . S
Co607 O608 2.061 . S
Co607 O613 2.052 . S
Co607 O615 2.135 . S
O608 Co607 2.061 . S
O608 C611 1.235 . S
C609 O612 1.238 . S
C609 O613 1.241 . S
C610 O603 1.247 . S
C610 O604 1.261 . S
C611 O606 1.259 . S
C611 O608 1.235 . S
O612 Co602 2.021 . S
O612 C609 1.238 . S
O613 Co607 2.052 . S
O613 C609 1.241 . S
O614 Co602 2.137 . S
O614 C605 1.247 . S
O615 Co602 2.244 . S
O615 C605 1.272 . S
O615 Co607 2.135 . S
Co616 O617 2.216 . S
Co616 O618 2.091 . S
Co616 O620 2.004 . S
Co616 O626 2.021 . S
Co616 O628 2.137 . S
Co616 O629 2.244 . S
O617 Co616 2.216 . S
O617 C624 1.247 . S
O618 Co616 2.091 . S
O618 C624 1.261 . S
C619 O628 1.247 . S
C619 O629 1.272 . S
O620 Co616 2.004 . S
O620 C625 1.259 . S
Co621 O622 2.061 . S
Co621 O627 2.052 . S
Co621 O629 2.135 . S
O622 Co621 2.061 . S
O622 C625 1.235 . S
C623 O626 1.238 . S
C623 O627 1.241 . S
C624 O617 1.247 . S
C624 O618 1.261 . S
C625 O620 1.259 . S
C625 O622 1.235 . S
O626 Co616 2.021 . S
O626 C623 1.238 . S
O627 Co621 2.052 . S
O627 C623 1.241 . S
O628 Co616 2.137 . S
O628 C619 1.247 . S
O629 Co616 2.244 . S
O629 C619 1.272 . S
O629 Co621 2.135 . S
Co630 O631 2.216 . S
Co630 O632 2.091 . S
Co630 O634 2.004 . S
Co630 O640 2.021 . S
Co630 O642 2.137 . S
Co630 O643 2.244 . S
O631 Co630 2.216 . S
O631 C638 1.247 . S
O632 Co630 2.091 . S
O632 C638 1.261 . S
C633 O642 1.247 . S
C633 O643 1.272 . S
O634 Co630 2.004 . S
O634 C639 1.259 . S
Co635 O636 2.061 . S
Co635 O641 2.052 . S
Co635 O643 2.135 . S
O636 Co635 2.061 . S
O636 C639 1.235 . S
C637 O640 1.238 . S
C637 O641 1.241 . S
C638 O631 1.247 . S
C638 O632 1.261 . S
C639 O634 1.259 . S
C639 O636 1.235 . S
O640 Co630 2.021 . S
O640 C637 1.238 . S
O641 Co635 2.052 . S
O641 C637 1.241 . S
O642 Co630 2.137 . S
O642 C633 1.247 . S
O643 Co630 2.244 . S
O643 C633 1.272 . S
O643 Co635 2.135 . S
Co644 O645 2.216 . S
Co644 O646 2.091 . S
Co644 O648 2.004 . S
Co644 O654 2.021 . S
Co644 O656 2.137 . S
Co644 O657 2.244 . S
O645 Co644 2.216 . S
O645 C652 1.247 . S
O646 Co644 2.091 . S
O646 C652 1.261 . S
C647 O656 1.247 . S
C647 O657 1.272 . S
O648 Co644 2.004 . S
O648 C653 1.259 . S
Co649 O650 2.061 . S
Co649 O655 2.052 . S
Co649 O657 2.135 . S
O650 Co649 2.061 . S
O650 C653 1.235 . S
C651 O654 1.238 . S
C651 O655 1.241 . S
C652 O645 1.247 . S
C652 O646 1.261 . S
C653 O648 1.259 . S
C653 O650 1.235 . S
O654 Co644 2.021 . S
O654 C651 1.238 . S
O655 Co649 2.052 . S
O655 C651 1.241 . S
O656 Co644 2.137 . S
O656 C647 1.247 . S
O657 Co644 2.244 . S
O657 C647 1.272 . S
O657 Co649 2.135 . S
Co658 O659 2.216 . S
Co658 O660 2.091 . S
Co658 O662 2.004 . S
Co658 O668 2.021 . S
Co658 O670 2.137 . S
Co658 O671 2.244 . S
O659 Co658 2.216 . S
O659 C666 1.247 . S
O660 Co658 2.091 . S
O660 C666 1.261 . S
C661 O670 1.247 . S
C661 O671 1.272 . S
O662 Co658 2.004 . S
O662 C667 1.259 . S
Co663 O664 2.061 . S
Co663 O669 2.052 . S
Co663 O671 2.135 . S
O664 Co663 2.061 . S
O664 C667 1.235 . S
C665 O668 1.238 . S
C665 O669 1.241 . S
C666 O659 1.247 . S
C666 O660 1.261 . S
C667 O662 1.259 . S
C667 O664 1.235 . S
O668 Co658 2.021 . S
O668 C665 1.238 . S
O669 Co663 2.052 . S
O669 C665 1.241 . S
O670 Co658 2.137 . S
O670 C661 1.247 . S
O671 Co658 2.244 . S
O671 C661 1.272 . S
O671 Co663 2.135 . S
Co672 O673 2.216 . S
Co672 O674 2.091 . S
Co672 O676 2.004 . S
Co672 O682 2.021 . S
Co672 O684 2.137 . S
Co672 O685 2.244 . S
O673 Co672 2.216 . S
O673 C680 1.247 . S
O674 Co672 2.091 . S
O674 C680 1.261 . S
C675 O684 1.247 . S
C675 O685 1.272 . S
O676 Co672 2.004 . S
O676 C681 1.259 . S
Co677 O678 2.061 . S
Co677 O683 2.052 . S
Co677 O685 2.135 . S
O678 Co677 2.061 . S
O678 C681 1.235 . S
C679 O682 1.238 . S
C679 O683 1.241 . S
C680 O673 1.247 . S
C680 O674 1.261 . S
C681 O676 1.259 . S
C681 O678 1.235 . S
O682 Co672 2.021 . S
O682 C679 1.238 . S
O683 Co677 2.052 . S
O683 C679 1.241 . S
O684 Co672 2.137 . S
O684 C675 1.247 . S
O685 Co672 2.244 . S
O685 C675 1.272 . S
O685 Co677 2.135 . S
Co686 O687 2.216 . S
Co686 O688 2.091 . S
Co686 O690 2.004 . S
Co686 O696 2.021 . S
Co686 O698 2.137 . S
Co686 O699 2.244 . S
O687 Co686 2.216 . S
O687 C694 1.247 . S
O688 Co686 2.091 . S
O688 C694 1.261 . S
C689 O698 1.247 . S
C689 O699 1.272 . S
O690 Co686 2.004 . S
O690 C695 1.259 . S
Co691 O692 2.061 . S
Co691 O697 2.052 . S
Co691 O699 2.135 . S
O692 Co691 2.061 . S
O692 C695 1.235 . S
C693 O696 1.238 . S
C693 O697 1.241 . S
C694 O687 1.247 . S
C694 O688 1.261 . S
C695 O690 1.259 . S
C695 O692 1.235 . S
O696 Co686 2.021 . S
O696 C693 1.238 . S
O697 Co691 2.052 . S
O697 C693 1.241 . S
O698 Co686 2.137 . S
O698 C689 1.247 . S
O699 Co686 2.244 . S
O699 C689 1.272 . S
O699 Co691 2.135 . S
Co700 O701 2.216 1_655 S
Co700 O702 2.091 1_655 S
Co700 O704 2.004 . S
Co700 O710 2.021 1_655 S
Co700 O712 2.137 . S
Co700 O713 2.244 . S
O701 Co700 2.216 1_455 S
O701 C708 1.247 . S
O702 Co700 2.091 1_455 S
O702 C708 1.261 . S
C703 O712 1.247 . S
C703 O713 1.272 . S
O704 Co700 2.004 . S
O704 C709 1.259 . S
Co705 O706 2.061 . S
Co705 O711 2.052 1_655 S
Co705 O713 2.135 . S
O706 Co705 2.061 . S
O706 C709 1.235 . S
C707 O710 1.238 . S
C707 O711 1.241 . S
C708 O701 1.247 . S
C708 O702 1.261 . S
C709 O704 1.259 . S
C709 O706 1.235 . S
O710 Co700 2.021 1_455 S
O710 C707 1.238 . S
O711 Co705 2.052 1_455 S
O711 C707 1.241 . S
O712 Co700 2.137 . S
O712 C703 1.247 . S
O713 Co700 2.244 . S
O713 C703 1.272 . S
O713 Co705 2.135 . S
Co714 O715 2.216 . S
Co714 O716 2.091 . S
Co714 O718 2.004 . S
Co714 O724 2.021 . S
Co714 O726 2.137 . S
Co714 O727 2.244 . S
O715 Co714 2.216 . S
O715 C722 1.247 . S
O716 Co714 2.091 . S
O716 C722 1.261 . S
C717 O726 1.247 . S
C717 O727 1.272 . S
O718 Co714 2.004 . S
O718 C723 1.259 . S
Co719 O720 2.061 . S
Co719 O725 2.052 . S
Co719 O727 2.135 . S
O720 Co719 2.061 . S
O720 C723 1.235 . S
C721 O724 1.238 . S
C721 O725 1.241 . S
C722 O715 1.247 . S
C722 O716 1.261 . S
C723 O718 1.259 . S
C723 O720 1.235 . S
O724 Co714 2.021 . S
O724 C721 1.238 . S
O725 Co719 2.052 . S
O725 C721 1.241 . S
O726 Co714 2.137 . S
O726 C717 1.247 . S
O727 Co714 2.244 . S
O727 C717 1.272 . S
O727 Co719 2.135 . S
Co728 O729 2.216 . S
Co728 O730 2.091 . S
Co728 O732 2.004 . S
Co728 O738 2.021 . S
Co728 O740 2.137 . S
Co728 O741 2.244 . S
O729 Co728 2.216 . S
O729 C736 1.247 . S
O730 Co728 2.091 . S
O730 C736 1.261 . S
C731 O740 1.247 . S
C731 O741 1.272 . S
O732 Co728 2.004 . S
O732 C737 1.259 . S
Co733 O734 2.061 . S
Co733 O739 2.052 . S
Co733 O741 2.135 . S
O734 Co733 2.061 . S
O734 C737 1.235 . S
C735 O738 1.238 . S
C735 O739 1.241 . S
C736 O729 1.247 . S
C736 O730 1.261 . S
C737 O732 1.259 . S
C737 O734 1.235 . S
O738 Co728 2.021 . S
O738 C735 1.238 . S
O739 Co733 2.052 . S
O739 C735 1.241 . S
O740 Co728 2.137 . S
O740 C731 1.247 . S
O741 Co728 2.244 . S
O741 C731 1.272 . S
O741 Co733 2.135 . S
Co742 O743 2.216 . S
Co742 O744 2.091 . S
Co742 O746 2.004 . S
Co742 O752 2.021 . S
Co742 O754 2.137 . S
Co742 O755 2.244 . S
O743 Co742 2.216 . S
O743 C750 1.247 . S
O744 Co742 2.091 . S
O744 C750 1.261 . S
C745 O754 1.247 . S
C745 O755 1.272 . S
O746 Co742 2.004 . S
O746 C751 1.259 . S
Co747 O748 2.061 . S
Co747 O753 2.052 . S
Co747 O755 2.135 . S
O748 Co747 2.061 . S
O748 C751 1.235 . S
C749 O752 1.238 . S
C749 O753 1.241 . S
C750 O743 1.247 . S
C750 O744 1.261 . S
C751 O746 1.259 . S
C751 O748 1.235 . S
O752 Co742 2.021 . S
O752 C749 1.238 . S
O753 Co747 2.052 . S
O753 C749 1.241 . S
O754 Co742 2.137 . S
O754 C745 1.247 . S
O755 Co742 2.244 . S
O755 C745 1.272 . S
O755 Co747 2.135 . S
Co756 O757 2.216 1_655 S
Co756 O758 2.091 1_655 S
Co756 O760 2.004 . S
Co756 O766 2.021 1_655 S
Co756 O768 2.137 . S
Co756 O769 2.244 . S
O757 Co756 2.216 1_455 S
O757 C764 1.247 . S
O758 Co756 2.091 1_455 S
O758 C764 1.261 . S
C759 O768 1.247 . S
C759 O769 1.272 . S
O760 Co756 2.004 . S
O760 C765 1.259 . S
Co761 O762 2.061 . S
Co761 O767 2.052 1_655 S
Co761 O769 2.135 . S
O762 Co761 2.061 . S
O762 C765 1.235 . S
C763 O766 1.238 . S
C763 O767 1.241 . S
C764 O757 1.247 . S
C764 O758 1.261 . S
C765 O760 1.259 . S
C765 O762 1.235 . S
O766 Co756 2.021 1_455 S
O766 C763 1.238 . S
O767 Co761 2.052 1_455 S
O767 C763 1.241 . S
O768 Co756 2.137 . S
O768 C759 1.247 . S
O769 Co756 2.244 . S
O769 C759 1.272 . S
O769 Co761 2.135 . S
Co770 O771 2.216 . S
Co770 O772 2.091 . S
Co770 O774 2.004 . S
Co770 O780 2.021 . S
Co770 O782 2.137 . S
Co770 O783 2.244 . S
O771 Co770 2.216 . S
O771 C778 1.247 . S
O772 Co770 2.091 . S
O772 C778 1.261 . S
C773 O782 1.247 . S
C773 O783 1.272 . S
O774 Co770 2.004 . S
O774 C779 1.259 . S
Co775 O776 2.061 . S
Co775 O781 2.052 . S
Co775 O783 2.135 . S
O776 Co775 2.061 . S
O776 C779 1.235 . S
C777 O780 1.238 . S
C777 O781 1.241 . S
C778 O771 1.247 . S
C778 O772 1.261 . S
C779 O774 1.259 . S
C779 O776 1.235 . S
O780 Co770 2.021 . S
O780 C777 1.238 . S
O781 Co775 2.052 . S
O781 C777 1.241 . S
O782 Co770 2.137 . S
O782 C773 1.247 . S
O783 Co770 2.244 . S
O783 C773 1.272 . S
O783 Co775 2.135 . S
Co784 O785 2.216 . S
Co784 O786 2.091 . S
Co784 O788 2.004 . S
Co784 O794 2.021 . S
Co784 O796 2.137 . S
Co784 O797 2.244 . S
O785 Co784 2.216 . S
O785 C792 1.247 . S
O786 Co784 2.091 . S
O786 C792 1.261 . S
C787 O796 1.247 . S
C787 O797 1.272 . S
O788 Co784 2.004 . S
O788 C793 1.259 . S
Co789 O790 2.061 . S
Co789 O795 2.052 . S
Co789 O797 2.135 . S
O790 Co789 2.061 . S
O790 C793 1.235 . S
C791 O794 1.238 . S
C791 O795 1.241 . S
C792 O785 1.247 . S
C792 O786 1.261 . S
C793 O788 1.259 . S
C793 O790 1.235 . S
O794 Co784 2.021 . S
O794 C791 1.238 . S
O795 Co789 2.052 . S
O795 C791 1.241 . S
O796 Co784 2.137 . S
O796 C787 1.247 . S
O797 Co784 2.244 . S
O797 C787 1.272 . S
O797 Co789 2.135 . S
Co798 O799 2.216 . S
Co798 O800 2.091 . S
Co798 O802 2.004 . S
Co798 O808 2.021 . S
Co798 O810 2.137 . S
Co798 O811 2.244 . S
O799 Co798 2.216 . S
O799 C806 1.247 . S
O800 Co798 2.091 . S
O800 C806 1.261 . S
C801 O810 1.247 . S
C801 O811 1.272 . S
O802 Co798 2.004 . S
O802 C807 1.259 . S
Co803 O804 2.061 . S
Co803 O809 2.052 . S
Co803 O811 2.135 . S
O804 Co803 2.061 . S
O804 C807 1.235 . S
C805 O808 1.238 . S
C805 O809 1.241 . S
C806 O799 1.247 . S
C806 O800 1.261 . S
C807 O802 1.259 . S
C807 O804 1.235 . S
O808 Co798 2.021 . S
O808 C805 1.238 . S
O809 Co803 2.052 . S
O809 C805 1.241 . S
O810 Co798 2.137 . S
O810 C801 1.247 . S
O811 Co798 2.244 . S
O811 C801 1.272 . S
O811 Co803 2.135 . S
Co812 O813 2.216 . S
Co812 O814 2.091 . S
Co812 O816 2.004 . S
Co812 O822 2.021 . S
Co812 O824 2.137 . S
Co812 O825 2.244 . S
O813 Co812 2.216 . S
O813 C820 1.247 . S
O814 Co812 2.091 . S
O814 C820 1.261 . S
C815 O824 1.247 . S
C815 O825 1.272 . S
O816 Co812 2.004 . S
O816 C821 1.259 . S
Co817 O818 2.061 . S
Co817 O823 2.052 . S
Co817 O825 2.135 . S
O818 Co817 2.061 . S
O818 C821 1.235 . S
C819 O822 1.238 . S
C819 O823 1.241 . S
C820 O813 1.247 . S
C820 O814 1.261 . S
C821 O816 1.259 . S
C821 O818 1.235 . S
O822 Co812 2.021 . S
O822 C819 1.238 . S
O823 Co817 2.052 . S
O823 C819 1.241 . S
O824 Co812 2.137 . S
O824 C815 1.247 . S
O825 Co812 2.244 . S
O825 C815 1.272 . S
O825 Co817 2.135 . S
Co826 O827 2.216 . S
Co826 O828 2.091 . S
Co826 O830 2.004 . S
Co826 O836 2.021 . S
Co826 O838 2.137 . S
Co826 O839 2.244 . S
O827 Co826 2.216 . S
O827 C834 1.247 . S
O828 Co826 2.091 . S
O828 C834 1.261 . S
C829 O838 1.247 . S
C829 O839 1.272 . S
O830 Co826 2.004 . S
O830 C835 1.259 . S
Co831 O832 2.061 . S
Co831 O837 2.052 . S
Co831 O839 2.135 . S
O832 Co831 2.061 . S
O832 C835 1.235 . S
C833 O836 1.238 . S
C833 O837 1.241 . S
C834 O827 1.247 . S
C834 O828 1.261 . S
C835 O830 1.259 . S
C835 O832 1.235 . S
O836 Co826 2.021 . S
O836 C833 1.238 . S
O837 Co831 2.052 . S
O837 C833 1.241 . S
O838 Co826 2.137 . S
O838 C829 1.247 . S
O839 Co826 2.244 . S
O839 C829 1.272 . S
O839 Co831 2.135 . S
Co840 O841 2.216 . S
Co840 O842 2.091 . S
Co840 O844 2.004 . S
Co840 O850 2.021 . S
Co840 O852 2.137 . S
Co840 O853 2.244 . S
O841 Co840 2.216 . S
O841 C848 1.247 . S
O842 Co840 2.091 . S
O842 C848 1.261 . S
C843 O852 1.247 . S
C843 O853 1.272 . S
O844 Co840 2.004 . S
O844 C849 1.259 . S
Co845 O846 2.061 . S
Co845 O851 2.052 . S
Co845 O853 2.135 . S
O846 Co845 2.061 . S
O846 C849 1.235 . S
C847 O850 1.238 . S
C847 O851 1.241 . S
C848 O841 1.247 . S
C848 O842 1.261 . S
C849 O844 1.259 . S
C849 O846 1.235 . S
O850 Co840 2.021 . S
O850 C847 1.238 . S
O851 Co845 2.052 . S
O851 C847 1.241 . S
O852 Co840 2.137 . S
O852 C843 1.247 . S
O853 Co840 2.244 . S
O853 C843 1.272 . S
O853 Co845 2.135 . S
Co854 O855 2.216 . S
Co854 O856 2.091 . S
Co854 O858 2.004 . S
Co854 O864 2.021 . S
Co854 O866 2.137 . S
Co854 O867 2.244 . S
O855 Co854 2.216 . S
O855 C862 1.247 . S
O856 Co854 2.091 . S
O856 C862 1.261 . S
C857 O866 1.247 . S
C857 O867 1.272 . S
O858 Co854 2.004 . S
O858 C863 1.259 . S
Co859 O860 2.061 . S
Co859 O865 2.052 . S
Co859 O867 2.135 . S
O860 Co859 2.061 . S
O860 C863 1.235 . S
C861 O864 1.238 . S
C861 O865 1.241 . S
C862 O855 1.247 . S
C862 O856 1.261 . S
C863 O858 1.259 . S
C863 O860 1.235 . S
O864 Co854 2.021 . S
O864 C861 1.238 . S
O865 Co859 2.052 . S
O865 C861 1.241 . S
O866 Co854 2.137 . S
O866 C857 1.247 . S
O867 Co854 2.244 . S
O867 C857 1.272 . S
O867 Co859 2.135 . S
Co868 O869 2.216 . S
Co868 O870 2.091 . S
Co868 O872 2.004 . S
Co868 O878 2.021 . S
Co868 O880 2.137 . S
Co868 O881 2.244 . S
O869 Co868 2.216 . S
O869 C876 1.247 . S
O870 Co868 2.091 . S
O870 C876 1.261 . S
C871 O880 1.247 . S
C871 O881 1.272 . S
O872 Co868 2.004 . S
O872 C877 1.259 . S
Co873 O874 2.061 . S
Co873 O879 2.052 . S
Co873 O881 2.135 . S
O874 Co873 2.061 . S
O874 C877 1.235 . S
C875 O878 1.238 . S
C875 O879 1.241 . S
C876 O869 1.247 . S
C876 O870 1.261 . S
C877 O872 1.259 . S
C877 O874 1.235 . S
O878 Co868 2.021 . S
O878 C875 1.238 . S
O879 Co873 2.052 . S
O879 C875 1.241 . S
O880 Co868 2.137 . S
O880 C871 1.247 . S
O881 Co868 2.244 . S
O881 C871 1.272 . S
O881 Co873 2.135 . S
Co882 O883 2.216 . S
Co882 O884 2.091 . S
Co882 O886 2.004 . S
Co882 O892 2.021 . S
Co882 O894 2.137 . S
Co882 O895 2.244 . S
O883 Co882 2.216 . S
O883 C890 1.247 . S
O884 Co882 2.091 . S
O884 C890 1.261 . S
C885 O894 1.247 . S
C885 O895 1.272 . S
O886 Co882 2.004 . S
O886 C891 1.259 . S
Co887 O888 2.061 . S
Co887 O893 2.052 . S
Co887 O895 2.135 . S
O888 Co887 2.061 . S
O888 C891 1.235 . S
C889 O892 1.238 . S
C889 O893 1.241 . S
C890 O883 1.247 . S
C890 O884 1.261 . S
C891 O886 1.259 . S
C891 O888 1.235 . S
O892 Co882 2.021 . S
O892 C889 1.238 . S
O893 Co887 2.052 . S
O893 C889 1.241 . S
O894 Co882 2.137 . S
O894 C885 1.247 . S
O895 Co882 2.244 . S
O895 C885 1.272 . S
O895 Co887 2.135 . S
Co896 O897 2.216 . S
Co896 O898 2.091 . S
Co896 O900 2.004 . S
Co896 O906 2.021 . S
Co896 O908 2.137 . S
Co896 O909 2.244 . S
O897 Co896 2.216 . S
O897 C904 1.247 . S
O898 Co896 2.091 . S
O898 C904 1.261 . S
C899 O908 1.247 . S
C899 O909 1.272 . S
O900 Co896 2.004 . S
O900 C905 1.259 . S
Co901 O902 2.061 . S
Co901 O907 2.052 . S
Co901 O909 2.135 . S
O902 Co901 2.061 . S
O902 C905 1.235 . S
C903 O906 1.238 . S
C903 O907 1.241 . S
C904 O897 1.247 . S
C904 O898 1.261 . S
C905 O900 1.259 . S
C905 O902 1.235 . S
O906 Co896 2.021 . S
O906 C903 1.238 . S
O907 Co901 2.052 . S
O907 C903 1.241 . S
O908 Co896 2.137 . S
O908 C899 1.247 . S
O909 Co896 2.244 . S
O909 C899 1.272 . S
O909 Co901 2.135 . S
Co910 O911 2.216 . S
Co910 O912 2.091 . S
Co910 O914 2.004 . S
Co910 O920 2.021 . S
Co910 O922 2.137 . S
Co910 O923 2.244 . S
O911 Co910 2.216 . S
O911 C918 1.247 . S
O912 Co910 2.091 . S
O912 C918 1.261 . S
C913 O922 1.247 . S
C913 O923 1.272 . S
O914 Co910 2.004 . S
O914 C919 1.259 . S
Co915 O916 2.061 . S
Co915 O921 2.052 . S
Co915 O923 2.135 . S
O916 Co915 2.061 . S
O916 C919 1.235 . S
C917 O920 1.238 . S
C917 O921 1.241 . S
C918 O911 1.247 . S
C918 O912 1.261 . S
C919 O914 1.259 . S
C919 O916 1.235 . S
O920 Co910 2.021 . S
O920 C917 1.238 . S
O921 Co915 2.052 . S
O921 C917 1.241 . S
O922 Co910 2.137 . S
O922 C913 1.247 . S
O923 Co910 2.244 . S
O923 C913 1.272 . S
O923 Co915 2.135 . S
Co924 O925 2.216 . S
Co924 O926 2.091 . S
Co924 O928 2.004 . S
Co924 O934 2.021 . S
Co924 O936 2.137 . S
Co924 O937 2.244 . S
O925 Co924 2.216 . S
O925 C932 1.247 . S
O926 Co924 2.091 . S
O926 C932 1.261 . S
C927 O936 1.247 . S
C927 O937 1.272 . S
O928 Co924 2.004 . S
O928 C933 1.259 . S
Co929 O930 2.061 . S
Co929 O935 2.052 . S
Co929 O937 2.135 . S
O930 Co929 2.061 . S
O930 C933 1.235 . S
C931 O934 1.238 . S
C931 O935 1.241 . S
C932 O925 1.247 . S
C932 O926 1.261 . S
C933 O928 1.259 . S
C933 O930 1.235 . S
O934 Co924 2.021 . S
O934 C931 1.238 . S
O935 Co929 2.052 . S
O935 C931 1.241 . S
O936 Co924 2.137 . S
O936 C927 1.247 . S
O937 Co924 2.244 . S
O937 C927 1.272 . S
O937 Co929 2.135 . S
Co938 O939 2.216 1_556 S
Co938 O940 2.091 1_556 S
Co938 O942 2.004 . S
Co938 O948 2.021 1_556 S
Co938 O950 2.137 . S
Co938 O951 2.244 . S
O939 Co938 2.216 1_554 S
O939 C946 1.247 . S
O940 Co938 2.091 1_554 S
O940 C946 1.261 . S
C941 O950 1.247 . S
C941 O951 1.272 . S
O942 Co938 2.004 . S
O942 C947 1.259 . S
Co943 O944 2.061 . S
Co943 O949 2.052 1_556 S
Co943 O951 2.135 . S
O944 Co943 2.061 . S
O944 C947 1.235 . S
C945 O948 1.238 . S
C945 O949 1.241 . S
C946 O939 1.247 . S
C946 O940 1.261 . S
C947 O942 1.259 . S
C947 O944 1.235 . S
O948 Co938 2.021 1_554 S
O948 C945 1.238 . S
O949 Co943 2.052 1_554 S
O949 C945 1.241 . S
O950 Co938 2.137 . S
O950 C941 1.247 . S
O951 Co938 2.244 . S
O951 C941 1.272 . S
O951 Co943 2.135 . S
Co952 O953 2.216 . S
Co952 O954 2.091 . S
Co952 O956 2.004 . S
Co952 O962 2.021 . S
Co952 O964 2.137 . S
Co952 O965 2.244 . S
O953 Co952 2.216 . S
O953 C960 1.247 . S
O954 Co952 2.091 . S
O954 C960 1.261 . S
C955 O964 1.247 . S
C955 O965 1.272 . S
O956 Co952 2.004 . S
O956 C961 1.259 . S
Co957 O958 2.061 . S
Co957 O963 2.052 . S
Co957 O965 2.135 . S
O958 Co957 2.061 . S
O958 C961 1.235 . S
C959 O962 1.238 . S
C959 O963 1.241 . S
C960 O953 1.247 . S
C960 O954 1.261 . S
C961 O956 1.259 . S
C961 O958 1.235 . S
O962 Co952 2.021 . S
O962 C959 1.238 . S
O963 Co957 2.052 . S
O963 C959 1.241 . S
O964 Co952 2.137 . S
O964 C955 1.247 . S
O965 Co952 2.244 . S
O965 C955 1.272 . S
O965 Co957 2.135 . S
Co966 O967 2.216 1_554 S
Co966 O968 2.091 1_554 S
Co966 O970 2.004 . S
Co966 O976 2.021 1_554 S
Co966 O978 2.137 . S
Co966 O979 2.244 . S
O967 Co966 2.216 1_556 S
O967 C974 1.247 . S
O968 Co966 2.091 1_556 S
O968 C974 1.261 . S
C969 O978 1.247 . S
C969 O979 1.272 . S
O970 Co966 2.004 . S
O970 C975 1.259 . S
Co971 O972 2.061 . S
Co971 O977 2.052 1_554 S
Co971 O979 2.135 . S
O972 Co971 2.061 . S
O972 C975 1.235 . S
C973 O976 1.238 . S
C973 O977 1.241 . S
C974 O967 1.247 . S
C974 O968 1.261 . S
C975 O970 1.259 . S
C975 O972 1.235 . S
O976 Co966 2.021 1_556 S
O976 C973 1.238 . S
O977 Co971 2.052 1_556 S
O977 C973 1.241 . S
O978 Co966 2.137 . S
O978 C969 1.247 . S
O979 Co966 2.244 . S
O979 C969 1.272 . S
O979 Co971 2.135 . S
Co980 O981 2.216 . S
Co980 O982 2.091 . S
Co980 O984 2.004 . S
Co980 O990 2.021 . S
Co980 O992 2.137 . S
Co980 O993 2.244 . S
O981 Co980 2.216 . S
O981 C988 1.247 . S
O982 Co980 2.091 . S
O982 C988 1.261 . S
C983 O992 1.247 . S
C983 O993 1.272 . S
O984 Co980 2.004 . S
O984 C989 1.259 . S
Co985 O986 2.061 . S
Co985 O991 2.052 . S
Co985 O993 2.135 . S
O986 Co985 2.061 . S
O986 C989 1.235 . S
C987 O990 1.238 . S
C987 O991 1.241 . S
C988 O981 1.247 . S
C988 O982 1.261 . S
C989 O984 1.259 . S
C989 O986 1.235 . S
O990 Co980 2.021 . S
O990 C987 1.238 . S
O991 Co985 2.052 . S
O991 C987 1.241 . S
O992 Co980 2.137 . S
O992 C983 1.247 . S
O993 Co980 2.244 . S
O993 C983 1.272 . S
O993 Co985 2.135 . S
Co994 O995 2.216 . S
Co994 O996 2.091 . S
Co994 O998 2.004 . S
Co994 O1004 2.021 . S
Co994 O1006 2.137 . S
Co994 O1007 2.244 . S
O995 Co994 2.216 . S
O995 C1002 1.247 . S
O996 Co994 2.091 . S
O996 C1002 1.261 . S
C997 O1006 1.247 . S
C997 O1007 1.272 . S
O998 Co994 2.004 . S
O998 C1003 1.259 . S
Co999 O1000 2.061 . S
Co999 O1005 2.052 . S
Co999 O1007 2.135 . S
O1000 Co999 2.061 . S
O1000 C1003 1.235 . S
C1001 O1004 1.238 . S
C1001 O1005 1.241 . S
C1002 O995 1.247 . S
C1002 O996 1.261 . S
C1003 O998 1.259 . S
C1003 O1000 1.235 . S
O1004 Co994 2.021 . S
O1004 C1001 1.238 . S
O1005 Co999 2.052 . S
O1005 C1001 1.241 . S
O1006 Co994 2.137 . S
O1006 C997 1.247 . S
O1007 Co994 2.244 . S
O1007 C997 1.272 . S
O1007 Co999 2.135 . S
Co1008 O1009 2.216 . S
Co1008 O1010 2.091 . S
Co1008 O1012 2.004 . S
Co1008 O1018 2.021 . S
Co1008 O1020 2.137 . S
Co1008 O1021 2.244 . S
O1009 Co1008 2.216 . S
O1009 C1016 1.247 . S
O1010 Co1008 2.091 . S
O1010 C1016 1.261 . S
C1011 O1020 1.247 . S
C1011 O1021 1.272 . S
O1012 Co1008 2.004 . S
O1012 C1017 1.259 . S
Co1013 O1014 2.061 . S
Co1013 O1019 2.052 . S
Co1013 O1021 2.135 . S
O1014 Co1013 2.061 . S
O1014 C1017 1.235 . S
C1015 O1018 1.238 . S
C1015 O1019 1.241 . S
C1016 O1009 1.247 . S
C1016 O1010 1.261 . S
C1017 O1012 1.259 . S
C1017 O1014 1.235 . S
O1018 Co1008 2.021 . S
O1018 C1015 1.238 . S
O1019 Co1013 2.052 . S
O1019 C1015 1.241 . S
O1020 Co1008 2.137 . S
O1020 C1011 1.247 . S
O1021 Co1008 2.244 . S
O1021 C1011 1.272 . S
O1021 Co1013 2.135 . S
Co1022 O1023 2.216 . S
Co1022 O1024 2.091 . S
Co1022 O1026 2.004 . S
Co1022 O1032 2.021 . S
Co1022 O1034 2.137 . S
Co1022 O1035 2.244 . S
O1023 Co1022 2.216 . S
O1023 C1030 1.247 . S
O1024 Co1022 2.091 . S
O1024 C1030 1.261 . S
C1025 O1034 1.247 . S
C1025 O1035 1.272 . S
O1026 Co1022 2.004 . S
O1026 C1031 1.259 . S
Co1027 O1028 2.061 . S
Co1027 O1033 2.052 . S
Co1027 O1035 2.135 . S
O1028 Co1027 2.061 . S
O1028 C1031 1.235 . S
C1029 O1032 1.238 . S
C1029 O1033 1.241 . S
C1030 O1023 1.247 . S
C1030 O1024 1.261 . S
C1031 O1026 1.259 . S
C1031 O1028 1.235 . S
O1032 Co1022 2.021 . S
O1032 C1029 1.238 . S
O1033 Co1027 2.052 . S
O1033 C1029 1.241 . S
O1034 Co1022 2.137 . S
O1034 C1025 1.247 . S
O1035 Co1022 2.244 . S
O1035 C1025 1.272 . S
O1035 Co1027 2.135 . S
Co1036 O1037 2.216 1_455 S
Co1036 O1038 2.091 1_455 S
Co1036 O1040 2.004 . S
Co1036 O1046 2.021 1_455 S
Co1036 O1048 2.137 . S
Co1036 O1049 2.244 . S
O1037 Co1036 2.216 1_655 S
O1037 C1044 1.247 . S
O1038 Co1036 2.091 1_655 S
O1038 C1044 1.261 . S
C1039 O1048 1.247 . S
C1039 O1049 1.272 . S
O1040 Co1036 2.004 . S
O1040 C1045 1.259 . S
Co1041 O1042 2.061 . S
Co1041 O1047 2.052 1_455 S
Co1041 O1049 2.135 . S
O1042 Co1041 2.061 . S
O1042 C1045 1.235 . S
C1043 O1046 1.238 . S
C1043 O1047 1.241 . S
C1044 O1037 1.247 . S
C1044 O1038 1.261 . S
C1045 O1040 1.259 . S
C1045 O1042 1.235 . S
O1046 Co1036 2.021 1_655 S
O1046 C1043 1.238 . S
O1047 Co1041 2.052 1_655 S
O1047 C1043 1.241 . S
O1048 Co1036 2.137 . S
O1048 C1039 1.247 . S
O1049 Co1036 2.244 . S
O1049 C1039 1.272 . S
O1049 Co1041 2.135 . S
Co1050 O1051 2.216 . S
Co1050 O1052 2.091 . S
Co1050 O1054 2.004 . S
Co1050 O1060 2.021 . S
Co1050 O1062 2.137 . S
Co1050 O1063 2.244 . S
O1051 Co1050 2.216 . S
O1051 C1058 1.247 . S
O1052 Co1050 2.091 . S
O1052 C1058 1.261 . S
C1053 O1062 1.247 . S
C1053 O1063 1.272 . S
O1054 Co1050 2.004 . S
O1054 C1059 1.259 . S
Co1055 O1056 2.061 . S
Co1055 O1061 2.052 . S
Co1055 O1063 2.135 . S
O1056 Co1055 2.061 . S
O1056 C1059 1.235 . S
C1057 O1060 1.238 . S
C1057 O1061 1.241 . S
C1058 O1051 1.247 . S
C1058 O1052 1.261 . S
C1059 O1054 1.259 . S
C1059 O1056 1.235 . S
O1060 Co1050 2.021 . S
O1060 C1057 1.238 . S
O1061 Co1055 2.052 . S
O1061 C1057 1.241 . S
O1062 Co1050 2.137 . S
O1062 C1053 1.247 . S
O1063 Co1050 2.244 . S
O1063 C1053 1.272 . S
O1063 Co1055 2.135 . S
Co1064 O1065 2.216 . S
Co1064 O1066 2.091 . S
Co1064 O1068 2.004 . S
Co1064 O1074 2.021 . S
Co1064 O1076 2.137 . S
Co1064 O1077 2.244 . S
O1065 Co1064 2.216 . S
O1065 C1072 1.247 . S
O1066 Co1064 2.091 . S
O1066 C1072 1.261 . S
C1067 O1076 1.247 . S
C1067 O1077 1.272 . S
O1068 Co1064 2.004 . S
O1068 C1073 1.259 . S
Co1069 O1070 2.061 . S
Co1069 O1075 2.052 . S
Co1069 O1077 2.135 . S
O1070 Co1069 2.061 . S
O1070 C1073 1.235 . S
C1071 O1074 1.238 . S
C1071 O1075 1.241 . S
C1072 O1065 1.247 . S
C1072 O1066 1.261 . S
C1073 O1068 1.259 . S
C1073 O1070 1.235 . S
O1074 Co1064 2.021 . S
O1074 C1071 1.238 . S
O1075 Co1069 2.052 . S
O1075 C1071 1.241 . S
O1076 Co1064 2.137 . S
O1076 C1067 1.247 . S
O1077 Co1064 2.244 . S
O1077 C1067 1.272 . S
O1077 Co1069 2.135 . S
Co1078 O1079 2.216 . S
Co1078 O1080 2.091 . S
Co1078 O1082 2.004 . S
Co1078 O1088 2.021 . S
Co1078 O1090 2.137 . S
Co1078 O1091 2.244 . S
O1079 Co1078 2.216 . S
O1079 C1086 1.247 . S
O1080 Co1078 2.091 . S
O1080 C1086 1.261 . S
C1081 O1090 1.247 . S
C1081 O1091 1.272 . S
O1082 Co1078 2.004 . S
O1082 C1087 1.259 . S
Co1083 O1084 2.061 . S
Co1083 O1089 2.052 . S
Co1083 O1091 2.135 . S
O1084 Co1083 2.061 . S
O1084 C1087 1.235 . S
C1085 O1088 1.238 . S
C1085 O1089 1.241 . S
C1086 O1079 1.247 . S
C1086 O1080 1.261 . S
C1087 O1082 1.259 . S
C1087 O1084 1.235 . S
O1088 Co1078 2.021 . S
O1088 C1085 1.238 . S
O1089 Co1083 2.052 . S
O1089 C1085 1.241 . S
O1090 Co1078 2.137 . S
O1090 C1081 1.247 . S
O1091 Co1078 2.244 . S
O1091 C1081 1.272 . S
O1091 Co1083 2.135 . S
Co1092 O1093 2.216 1_455 S
Co1092 O1094 2.091 1_455 S
Co1092 O1096 2.004 . S
Co1092 O1102 2.021 1_455 S
Co1092 O1104 2.137 . S
Co1092 O1105 2.244 . S
O1093 Co1092 2.216 1_655 S
O1093 C1100 1.247 . S
O1094 Co1092 2.091 1_655 S
O1094 C1100 1.261 . S
C1095 O1104 1.247 . S
C1095 O1105 1.272 . S
O1096 Co1092 2.004 . S
O1096 C1101 1.259 . S
Co1097 O1098 2.061 . S
Co1097 O1103 2.052 1_455 S
Co1097 O1105 2.135 . S
O1098 Co1097 2.061 . S
O1098 C1101 1.235 . S
C1099 O1102 1.238 . S
C1099 O1103 1.241 . S
C1100 O1093 1.247 . S
C1100 O1094 1.261 . S
C1101 O1096 1.259 . S
C1101 O1098 1.235 . S
O1102 Co1092 2.021 1_655 S
O1102 C1099 1.238 . S
O1103 Co1097 2.052 1_655 S
O1103 C1099 1.241 . S
O1104 Co1092 2.137 . S
O1104 C1095 1.247 . S
O1105 Co1092 2.244 . S
O1105 C1095 1.272 . S
O1105 Co1097 2.135 . S
Co1106 O1107 2.216 . S
Co1106 O1108 2.091 . S
Co1106 O1110 2.004 . S
Co1106 O1116 2.021 . S
Co1106 O1118 2.137 . S
Co1106 O1119 2.244 . S
O1107 Co1106 2.216 . S
O1107 C1114 1.247 . S
O1108 Co1106 2.091 . S
O1108 C1114 1.261 . S
C1109 O1118 1.247 . S
C1109 O1119 1.272 . S
O1110 Co1106 2.004 . S
O1110 C1115 1.259 . S
Co1111 O1112 2.061 . S
Co1111 O1117 2.052 . S
Co1111 O1119 2.135 . S
O1112 Co1111 2.061 . S
O1112 C1115 1.235 . S
C1113 O1116 1.238 . S
C1113 O1117 1.241 . S
C1114 O1107 1.247 . S
C1114 O1108 1.261 . S
C1115 O1110 1.259 . S
C1115 O1112 1.235 . S
O1116 Co1106 2.021 . S
O1116 C1113 1.238 . S
O1117 Co1111 2.052 . S
O1117 C1113 1.241 . S
O1118 Co1106 2.137 . S
O1118 C1109 1.247 . S
O1119 Co1106 2.244 . S
O1119 C1109 1.272 . S
O1119 Co1111 2.135 . S
Co1120 O1121 2.216 . S
Co1120 O1122 2.091 . S
Co1120 O1124 2.004 . S
Co1120 O1130 2.021 . S
Co1120 O1132 2.137 . S
Co1120 O1133 2.244 . S
O1121 Co1120 2.216 . S
O1121 C1128 1.247 . S
O1122 Co1120 2.091 . S
O1122 C1128 1.261 . S
C1123 O1132 1.247 . S
C1123 O1133 1.272 . S
O1124 Co1120 2.004 . S
O1124 C1129 1.259 . S
Co1125 O1126 2.061 . S
Co1125 O1131 2.052 . S
Co1125 O1133 2.135 . S
O1126 Co1125 2.061 . S
O1126 C1129 1.235 . S
C1127 O1130 1.238 . S
C1127 O1131 1.241 . S
C1128 O1121 1.247 . S
C1128 O1122 1.261 . S
C1129 O1124 1.259 . S
C1129 O1126 1.235 . S
O1130 Co1120 2.021 . S
O1130 C1127 1.238 . S
O1131 Co1125 2.052 . S
O1131 C1127 1.241 . S
O1132 Co1120 2.137 . S
O1132 C1123 1.247 . S
O1133 Co1120 2.244 . S
O1133 C1123 1.272 . S
O1133 Co1125 2.135 . S
Co1134 O1135 2.216 . S
Co1134 O1136 2.091 . S
Co1134 O1138 2.004 . S
Co1134 O1144 2.021 . S
Co1134 O1146 2.137 . S
Co1134 O1147 2.244 . S
O1135 Co1134 2.216 . S
O1135 C1142 1.247 . S
O1136 Co1134 2.091 . S
O1136 C1142 1.261 . S
C1137 O1146 1.247 . S
C1137 O1147 1.272 . S
O1138 Co1134 2.004 . S
O1138 C1143 1.259 . S
Co1139 O1140 2.061 . S
Co1139 O1145 2.052 . S
Co1139 O1147 2.135 . S
O1140 Co1139 2.061 . S
O1140 C1143 1.235 . S
C1141 O1144 1.238 . S
C1141 O1145 1.241 . S
C1142 O1135 1.247 . S
C1142 O1136 1.261 . S
C1143 O1138 1.259 . S
C1143 O1140 1.235 . S
O1144 Co1134 2.021 . S
O1144 C1141 1.238 . S
O1145 Co1139 2.052 . S
O1145 C1141 1.241 . S
O1146 Co1134 2.137 . S
O1146 C1137 1.247 . S
O1147 Co1134 2.244 . S
O1147 C1137 1.272 . S
O1147 Co1139 2.135 . S
Co1148 O1149 2.216 . S
Co1148 O1150 2.091 . S
Co1148 O1152 2.004 . S
Co1148 O1158 2.021 . S
Co1148 O1160 2.137 . S
Co1148 O1161 2.244 . S
O1149 Co1148 2.216 . S
O1149 C1156 1.247 . S
O1150 Co1148 2.091 . S
O1150 C1156 1.261 . S
C1151 O1160 1.247 . S
C1151 O1161 1.272 . S
O1152 Co1148 2.004 . S
O1152 C1157 1.259 . S
Co1153 O1154 2.061 . S
Co1153 O1159 2.052 . S
Co1153 O1161 2.135 . S
O1154 Co1153 2.061 . S
O1154 C1157 1.235 . S
C1155 O1158 1.238 . S
C1155 O1159 1.241 . S
C1156 O1149 1.247 . S
C1156 O1150 1.261 . S
C1157 O1152 1.259 . S
C1157 O1154 1.235 . S
O1158 Co1148 2.021 . S
O1158 C1155 1.238 . S
O1159 Co1153 2.052 . S
O1159 C1155 1.241 . S
O1160 Co1148 2.137 . S
O1160 C1151 1.247 . S
O1161 Co1148 2.244 . S
O1161 C1151 1.272 . S
O1161 Co1153 2.135 . S
Co1162 O1163 2.216 . S
Co1162 O1164 2.091 . S
Co1162 O1166 2.004 . S
Co1162 O1172 2.021 . S
Co1162 O1174 2.137 . S
Co1162 O1175 2.244 . S
O1163 Co1162 2.216 . S
O1163 C1170 1.247 . S
O1164 Co1162 2.091 . S
O1164 C1170 1.261 . S
C1165 O1174 1.247 . S
C1165 O1175 1.272 . S
O1166 Co1162 2.004 . S
O1166 C1171 1.259 . S
Co1167 O1168 2.061 . S
Co1167 O1173 2.052 . S
Co1167 O1175 2.135 . S
O1168 Co1167 2.061 . S
O1168 C1171 1.235 . S
C1169 O1172 1.238 . S
C1169 O1173 1.241 . S
C1170 O1163 1.247 . S
C1170 O1164 1.261 . S
C1171 O1166 1.259 . S
C1171 O1168 1.235 . S
O1172 Co1162 2.021 . S
O1172 C1169 1.238 . S
O1173 Co1167 2.052 . S
O1173 C1169 1.241 . S
O1174 Co1162 2.137 . S
O1174 C1165 1.247 . S
O1175 Co1162 2.244 . S
O1175 C1165 1.272 . S
O1175 Co1167 2.135 . S
Co1176 O1177 2.216 . S
Co1176 O1178 2.091 . S
Co1176 O1180 2.004 . S
Co1176 O1186 2.021 . S
Co1176 O1188 2.137 . S
Co1176 O1189 2.244 . S
O1177 Co1176 2.216 . S
O1177 C1184 1.247 . S
O1178 Co1176 2.091 . S
O1178 C1184 1.261 . S
C1179 O1188 1.247 . S
C1179 O1189 1.272 . S
O1180 Co1176 2.004 . S
O1180 C1185 1.259 . S
Co1181 O1182 2.061 . S
Co1181 O1187 2.052 . S
Co1181 O1189 2.135 . S
O1182 Co1181 2.061 . S
O1182 C1185 1.235 . S
C1183 O1186 1.238 . S
C1183 O1187 1.241 . S
C1184 O1177 1.247 . S
C1184 O1178 1.261 . S
C1185 O1180 1.259 . S
C1185 O1182 1.235 . S
O1186 Co1176 2.021 . S
O1186 C1183 1.238 . S
O1187 Co1181 2.052 . S
O1187 C1183 1.241 . S
O1188 Co1176 2.137 . S
O1188 C1179 1.247 . S
O1189 Co1176 2.244 . S
O1189 C1179 1.272 . S
O1189 Co1181 2.135 . S
Co1190 O1191 2.216 . S
Co1190 O1192 2.091 . S
Co1190 O1194 2.004 . S
Co1190 O1200 2.021 . S
Co1190 O1202 2.137 . S
Co1190 O1203 2.244 . S
O1191 Co1190 2.216 . S
O1191 C1198 1.247 . S
O1192 Co1190 2.091 . S
O1192 C1198 1.261 . S
C1193 O1202 1.247 . S
C1193 O1203 1.272 . S
O1194 Co1190 2.004 . S
O1194 C1199 1.259 . S
Co1195 O1196 2.061 . S
Co1195 O1201 2.052 . S
Co1195 O1203 2.135 . S
O1196 Co1195 2.061 . S
O1196 C1199 1.235 . S
C1197 O1200 1.238 . S
C1197 O1201 1.241 . S
C1198 O1191 1.247 . S
C1198 O1192 1.261 . S
C1199 O1194 1.259 . S
C1199 O1196 1.235 . S
O1200 Co1190 2.021 . S
O1200 C1197 1.238 . S
O1201 Co1195 2.052 . S
O1201 C1197 1.241 . S
O1202 Co1190 2.137 . S
O1202 C1193 1.247 . S
O1203 Co1190 2.244 . S
O1203 C1193 1.272 . S
O1203 Co1195 2.135 . S
Co1204 O1205 2.216 . S
Co1204 O1206 2.091 . S
Co1204 O1208 2.004 . S
Co1204 O1214 2.021 . S
Co1204 O1216 2.137 . S
Co1204 O1217 2.244 . S
O1205 Co1204 2.216 . S
O1205 C1212 1.247 . S
O1206 Co1204 2.091 . S
O1206 C1212 1.261 . S
C1207 O1216 1.247 . S
C1207 O1217 1.272 . S
O1208 Co1204 2.004 . S
O1208 C1213 1.259 . S
Co1209 O1210 2.061 . S
Co1209 O1215 2.052 . S
Co1209 O1217 2.135 . S
O1210 Co1209 2.061 . S
O1210 C1213 1.235 . S
C1211 O1214 1.238 . S
C1211 O1215 1.241 . S
C1212 O1205 1.247 . S
C1212 O1206 1.261 . S
C1213 O1208 1.259 . S
C1213 O1210 1.235 . S
O1214 Co1204 2.021 . S
O1214 C1211 1.238 . S
O1215 Co1209 2.052 . S
O1215 C1211 1.241 . S
O1216 Co1204 2.137 . S
O1216 C1207 1.247 . S
O1217 Co1204 2.244 . S
O1217 C1207 1.272 . S
O1217 Co1209 2.135 . S
Co1218 O1219 2.216 . S
Co1218 O1220 2.091 . S
Co1218 O1222 2.004 . S
Co1218 O1228 2.021 . S
Co1218 O1230 2.137 . S
Co1218 O1231 2.244 . S
O1219 Co1218 2.216 . S
O1219 C1226 1.247 . S
O1220 Co1218 2.091 . S
O1220 C1226 1.261 . S
C1221 O1230 1.247 . S
C1221 O1231 1.272 . S
O1222 Co1218 2.004 . S
O1222 C1227 1.259 . S
Co1223 O1224 2.061 . S
Co1223 O1229 2.052 . S
Co1223 O1231 2.135 . S
O1224 Co1223 2.061 . S
O1224 C1227 1.235 . S
C1225 O1228 1.238 . S
C1225 O1229 1.241 . S
C1226 O1219 1.247 . S
C1226 O1220 1.261 . S
C1227 O1222 1.259 . S
C1227 O1224 1.235 . S
O1228 Co1218 2.021 . S
O1228 C1225 1.238 . S
O1229 Co1223 2.052 . S
O1229 C1225 1.241 . S
O1230 Co1218 2.137 . S
O1230 C1221 1.247 . S
O1231 Co1218 2.244 . S
O1231 C1221 1.272 . S
O1231 Co1223 2.135 . S
Co1232 O1233 2.216 . S
Co1232 O1234 2.091 . S
Co1232 O1236 2.004 . S
Co1232 O1242 2.021 . S
Co1232 O1244 2.137 . S
Co1232 O1245 2.244 . S
O1233 Co1232 2.216 . S
O1233 C1240 1.247 . S
O1234 Co1232 2.091 . S
O1234 C1240 1.261 . S
C1235 O1244 1.247 . S
C1235 O1245 1.272 . S
O1236 Co1232 2.004 . S
O1236 C1241 1.259 . S
Co1237 O1238 2.061 . S
Co1237 O1243 2.052 . S
Co1237 O1245 2.135 . S
O1238 Co1237 2.061 . S
O1238 C1241 1.235 . S
C1239 O1242 1.238 . S
C1239 O1243 1.241 . S
C1240 O1233 1.247 . S
C1240 O1234 1.261 . S
C1241 O1236 1.259 . S
C1241 O1238 1.235 . S
O1242 Co1232 2.021 . S
O1242 C1239 1.238 . S
O1243 Co1237 2.052 . S
O1243 C1239 1.241 . S
O1244 Co1232 2.137 . S
O1244 C1235 1.247 . S
O1245 Co1232 2.244 . S
O1245 C1235 1.272 . S
O1245 Co1237 2.135 . S
Co1246 O1247 2.216 . S
Co1246 O1248 2.091 . S
Co1246 O1250 2.004 . S
Co1246 O1256 2.021 . S
Co1246 O1258 2.137 . S
Co1246 O1259 2.244 . S
O1247 Co1246 2.216 . S
O1247 C1254 1.247 . S
O1248 Co1246 2.091 . S
O1248 C1254 1.261 . S
C1249 O1258 1.247 . S
C1249 O1259 1.272 . S
O1250 Co1246 2.004 . S
O1250 C1255 1.259 . S
Co1251 O1252 2.061 . S
Co1251 O1257 2.052 . S
Co1251 O1259 2.135 . S
O1252 Co1251 2.061 . S
O1252 C1255 1.235 . S
C1253 O1256 1.238 . S
C1253 O1257 1.241 . S
C1254 O1247 1.247 . S
C1254 O1248 1.261 . S
C1255 O1250 1.259 . S
C1255 O1252 1.235 . S
O1256 Co1246 2.021 . S
O1256 C1253 1.238 . S
O1257 Co1251 2.052 . S
O1257 C1253 1.241 . S
O1258 Co1246 2.137 . S
O1258 C1249 1.247 . S
O1259 Co1246 2.244 . S
O1259 C1249 1.272 . S
O1259 Co1251 2.135 . S
Co1260 O1261 2.216 . S
Co1260 O1262 2.091 . S
Co1260 O1264 2.004 . S
Co1260 O1270 2.021 . S
Co1260 O1272 2.137 . S
Co1260 O1273 2.244 . S
O1261 Co1260 2.216 . S
O1261 C1268 1.247 . S
O1262 Co1260 2.091 . S
O1262 C1268 1.261 . S
C1263 O1272 1.247 . S
C1263 O1273 1.272 . S
O1264 Co1260 2.004 . S
O1264 C1269 1.259 . S
Co1265 O1266 2.061 . S
Co1265 O1271 2.052 . S
Co1265 O1273 2.135 . S
O1266 Co1265 2.061 . S
O1266 C1269 1.235 . S
C1267 O1270 1.238 . S
C1267 O1271 1.241 . S
C1268 O1261 1.247 . S
C1268 O1262 1.261 . S
C1269 O1264 1.259 . S
C1269 O1266 1.235 . S
O1270 Co1260 2.021 . S
O1270 C1267 1.238 . S
O1271 Co1265 2.052 . S
O1271 C1267 1.241 . S
O1272 Co1260 2.137 . S
O1272 C1263 1.247 . S
O1273 Co1260 2.244 . S
O1273 C1263 1.272 . S
O1273 Co1265 2.135 . S
Co1274 O1275 2.216 1_554 S
Co1274 O1276 2.085 1_554 S
Co1274 O1278 2.004 . S
Co1274 O1284 2.021 1_554 S
Co1274 O1286 2.137 . S
Co1274 O1287 2.244 . S
O1275 Co1274 2.216 1_556 S
O1275 C1282 1.247 . S
O1276 Co1274 2.085 1_556 S
O1276 C1282 1.277 . S
C1277 O1286 1.247 . S
C1277 O1287 1.272 . S
O1278 Co1274 2.004 . S
O1278 C1283 1.259 . S
Co1279 O1280 2.061 . S
Co1279 O1285 2.052 1_554 S
Co1279 O1287 2.135 . S
O1280 Co1279 2.061 . S
O1280 C1283 1.235 . S
C1281 O1284 1.238 . S
C1281 O1285 1.241 . S
C1282 O1275 1.247 . S
C1282 O1276 1.277 . S
C1283 O1278 1.259 . S
C1283 O1280 1.235 . S
O1284 Co1274 2.021 1_556 S
O1284 C1281 1.238 . S
O1285 Co1279 2.052 1_556 S
O1285 C1281 1.241 . S
O1286 Co1274 2.137 . S
O1286 C1277 1.247 . S
O1287 Co1274 2.244 . S
O1287 C1277 1.272 . S
O1287 Co1279 2.135 . S
Co1288 O1289 2.216 . S
Co1288 O1290 2.091 . S
Co1288 O1292 2.004 . S
Co1288 O1298 2.021 . S
Co1288 O1300 2.137 . S
Co1288 O1301 2.244 . S
O1289 Co1288 2.216 . S
O1289 C1296 1.247 . S
O1290 Co1288 2.091 . S
O1290 C1296 1.261 . S
C1291 O1300 1.247 . S
C1291 O1301 1.272 . S
O1292 Co1288 2.004 . S
O1292 C1297 1.259 . S
Co1293 O1294 2.061 . S
Co1293 O1299 2.052 . S
Co1293 O1301 2.135 . S
O1294 Co1293 2.061 . S
O1294 C1297 1.235 . S
C1295 O1298 1.238 . S
C1295 O1299 1.241 . S
C1296 O1289 1.247 . S
C1296 O1290 1.261 . S
C1297 O1292 1.259 . S
C1297 O1294 1.235 . S
O1298 Co1288 2.021 . S
O1298 C1295 1.238 . S
O1299 Co1293 2.052 . S
O1299 C1295 1.241 . S
O1300 Co1288 2.137 . S
O1300 C1291 1.247 . S
O1301 Co1288 2.244 . S
O1301 C1291 1.272 . S
O1301 Co1293 2.135 . S
Co1302 O1303 2.216 1_556 S
Co1302 O1304 2.089 1_556 S
Co1302 O1306 2.004 . S
Co1302 O1312 2.021 1_556 S
Co1302 O1314 2.137 . S
Co1302 O1315 2.244 . S
O1303 Co1302 2.216 1_554 S
O1303 C1310 1.247 . S
O1304 Co1302 2.089 1_554 S
O1304 C1310 1.267 . S
C1305 O1314 1.247 . S
C1305 O1315 1.272 . S
O1306 Co1302 2.004 . S
O1306 C1311 1.259 . S
Co1307 O1308 2.061 . S
Co1307 O1313 2.052 1_556 S
Co1307 O1315 2.135 . S
O1308 Co1307 2.061 . S
O1308 C1311 1.235 . S
C1309 O1312 1.238 . S
C1309 O1313 1.241 . S
C1310 O1303 1.247 . S
C1310 O1304 1.267 . S
C1311 O1306 1.259 . S
C1311 O1308 1.235 . S
O1312 Co1302 2.021 1_554 S
O1312 C1309 1.238 . S
O1313 Co1307 2.052 1_554 S
O1313 C1309 1.241 . S
O1314 Co1302 2.137 . S
O1314 C1305 1.247 . S
O1315 Co1302 2.244 . S
O1315 C1305 1.272 . S
O1315 Co1307 2.135 . S
Co1316 O1317 2.216 . S
Co1316 O1318 2.091 . S
Co1316 O1320 2.004 . S
Co1316 O1326 2.021 . S
Co1316 O1328 2.137 . S
Co1316 O1329 2.244 . S
O1317 Co1316 2.216 . S
O1317 C1324 1.247 . S
O1318 Co1316 2.091 . S
O1318 C1324 1.261 . S
C1319 O1328 1.247 . S
C1319 O1329 1.272 . S
O1320 Co1316 2.004 . S
O1320 C1325 1.259 . S
Co1321 O1322 2.061 . S
Co1321 O1327 2.052 . S
Co1321 O1329 2.135 . S
O1322 Co1321 2.061 . S
O1322 C1325 1.235 . S
C1323 O1326 1.238 . S
C1323 O1327 1.241 . S
C1324 O1317 1.247 . S
C1324 O1318 1.261 . S
C1325 O1320 1.259 . S
C1325 O1322 1.235 . S
O1326 Co1316 2.021 . S
O1326 C1323 1.238 . S
O1327 Co1321 2.052 . S
O1327 C1323 1.241 . S
O1328 Co1316 2.137 . S
O1328 C1319 1.247 . S
O1329 Co1316 2.244 . S
O1329 C1319 1.272 . S
O1329 Co1321 2.135 . S
Co1330 O1331 2.216 . S
Co1330 O1332 2.091 . S
Co1330 O1334 2.004 . S
Co1330 O1340 2.021 . S
Co1330 O1342 2.137 . S
Co1330 O1343 2.244 . S
O1331 Co1330 2.216 . S
O1331 C1338 1.247 . S
O1332 Co1330 2.091 . S
O1332 C1338 1.261 . S
C1333 O1342 1.247 . S
C1333 O1343 1.272 . S
O1334 Co1330 2.004 . S
O1334 C1339 1.259 . S
Co1335 O1336 2.061 . S
Co1335 O1341 2.052 . S
Co1335 O1343 2.135 . S
O1336 Co1335 2.061 . S
O1336 C1339 1.235 . S
C1337 O1340 1.238 . S
C1337 O1341 1.241 . S
C1338 O1331 1.247 . S
C1338 O1332 1.261 . S
C1339 O1334 1.259 . S
C1339 O1336 1.235 . S
O1340 Co1330 2.021 . S
O1340 C1337 1.238 . S
O1341 Co1335 2.052 . S
O1341 C1337 1.241 . S
O1342 Co1330 2.137 . S
O1342 C1333 1.247 . S
O1343 Co1330 2.244 . S
O1343 C1333 1.272 . S
O1343 Co1335 2.135 . S
H1344 C1350 0.930 . S
H1345 C1354 0.930 . S
H1346 C1359 0.929 . S
H1347 C1357 0.929 . S
H1348 C1352 0.929 . S
H1349 C1358 0.929 . S
C1350 H1344 0.930 . S
C1350 C1351 1.367 . S
C1350 C1358 1.378 . S
C1351 C1350 1.367 . S
C1351 C1359 1.433 . S
C1352 H1348 0.929 . S
C1352 C1354 1.378 . S
C1352 C1356 1.350 . S
C1353 C1356 1.463 . S
C1353 C1358 1.350 . S
C1353 N1361 1.427 . S
C1354 H1345 0.930 . S
C1354 C1352 1.378 . S
C1354 C1355 1.367 . S
C1355 C1354 1.367 . S
C1355 C1357 1.433 . S
C1356 C1352 1.350 . S
C1356 C1353 1.463 . S
C1356 N1360 1.427 . S
C1357 H1347 0.929 . S
C1357 C1355 1.433 . S
C1357 N1360 1.384 . S
C1358 H1349 0.929 . S
C1358 C1350 1.378 . S
C1358 C1353 1.350 . S
C1359 H1346 0.929 . S
C1359 C1351 1.433 . S
C1359 N1361 1.384 . S
N1360 C1356 1.427 . S
N1360 C1357 1.384 . S
N1361 C1353 1.427 . S
N1361 C1359 1.384 . S
H1362 C1368 0.930 . S
H1363 C1372 0.930 . S
H1364 C1377 0.929 . S
H1365 C1375 0.929 . S
H1366 C1370 0.929 . S
H1367 C1376 0.929 . S
C1368 H1362 0.930 . S
C1368 C1369 1.367 . S
C1368 C1376 1.378 . S
C1369 C1368 1.367 . S
C1369 C1377 1.433 . S
C1370 H1366 0.929 . S
C1370 C1372 1.378 . S
C1370 C1374 1.350 . S
C1371 C1374 1.463 . S
C1371 C1376 1.350 . S
C1371 N1379 1.427 . S
C1372 H1363 0.930 . S
C1372 C1370 1.378 . S
C1372 C1373 1.367 . S
C1373 C1372 1.367 . S
C1373 C1375 1.433 . S
C1374 C1370 1.350 . S
C1374 C1371 1.463 . S
C1374 N1378 1.427 . S
C1375 H1365 0.929 . S
C1375 C1373 1.433 . S
C1375 N1378 1.384 . S
C1376 H1367 0.929 . S
C1376 C1368 1.378 . S
C1376 C1371 1.350 . S
C1377 H1364 0.929 . S
C1377 C1369 1.433 . S
C1377 N1379 1.384 . S
N1378 C1374 1.427 . S
N1378 C1375 1.384 . S
N1379 C1371 1.427 . S
N1379 C1377 1.384 . S
H1380 C1386 0.930 . S
H1381 C1390 0.930 . S
H1382 C1395 0.929 . S
H1383 C1393 0.929 . S
H1384 C1388 0.929 . S
H1385 C1394 0.929 . S
C1386 H1380 0.930 . S
C1386 C1387 1.367 . S
C1386 C1394 1.378 . S
C1387 C1386 1.367 . S
C1387 C1395 1.433 . S
C1388 H1384 0.929 . S
C1388 C1390 1.378 . S
C1388 C1392 1.350 . S
C1389 C1392 1.463 . S
C1389 C1394 1.350 . S
C1389 N1397 1.427 . S
C1390 H1381 0.930 . S
C1390 C1388 1.378 . S
C1390 C1391 1.367 . S
C1391 C1390 1.367 . S
C1391 C1393 1.433 . S
C1392 C1388 1.350 . S
C1392 C1389 1.463 . S
C1392 N1396 1.427 . S
C1393 H1383 0.929 . S
C1393 C1391 1.433 . S
C1393 N1396 1.384 . S
C1394 H1385 0.929 . S
C1394 C1386 1.378 . S
C1394 C1389 1.350 . S
C1395 H1382 0.929 . S
C1395 C1387 1.433 . S
C1395 N1397 1.384 . S
N1396 C1392 1.427 . S
N1396 C1393 1.384 . S
N1397 C1389 1.427 . S
N1397 C1395 1.384 . S
H1398 C1404 0.930 . S
H1399 C1408 0.930 . S
H1400 C1413 0.929 . S
H1401 C1411 0.929 . S
H1402 C1406 0.929 . S
H1403 C1412 0.929 . S
C1404 H1398 0.930 . S
C1404 C1405 1.367 . S
C1404 C1412 1.378 . S
C1405 C1404 1.367 . S
C1405 C1413 1.433 . S
C1406 H1402 0.929 . S
C1406 C1408 1.378 . S
C1406 C1410 1.350 . S
C1407 C1410 1.463 . S
C1407 C1412 1.350 . S
C1407 N1415 1.427 . S
C1408 H1399 0.930 . S
C1408 C1406 1.378 . S
C1408 C1409 1.367 . S
C1409 C1408 1.367 . S
C1409 C1411 1.433 . S
C1410 C1406 1.350 . S
C1410 C1407 1.463 . S
C1410 N1414 1.427 . S
C1411 H1401 0.929 . S
C1411 C1409 1.433 . S
C1411 N1414 1.384 . S
C1412 H1403 0.929 . S
C1412 C1404 1.378 . S
C1412 C1407 1.350 . S
C1413 H1400 0.929 . S
C1413 C1405 1.433 . S
C1413 N1415 1.384 . S
N1414 C1410 1.427 . S
N1414 C1411 1.384 . S
N1415 C1407 1.427 . S
N1415 C1413 1.384 . S
H1416 C1422 0.930 . S
H1417 C1426 0.930 . S
H1418 C1431 0.929 . S
H1419 C1429 0.929 . S
H1420 C1424 0.929 . S
H1421 C1430 0.929 . S
C1422 H1416 0.930 . S
C1422 C1423 1.367 . S
C1422 C1430 1.378 . S
C1423 C1422 1.367 . S
C1423 C1431 1.433 . S
C1424 H1420 0.929 . S
C1424 C1426 1.378 . S
C1424 C1428 1.350 . S
C1425 C1428 1.463 . S
C1425 C1430 1.350 . S
C1425 N1433 1.427 . S
C1426 H1417 0.930 . S
C1426 C1424 1.378 . S
C1426 C1427 1.367 . S
C1427 C1426 1.367 . S
C1427 C1429 1.433 . S
C1428 C1424 1.350 . S
C1428 C1425 1.463 . S
C1428 N1432 1.427 . S
C1429 H1419 0.929 . S
C1429 C1427 1.433 . S
C1429 N1432 1.384 . S
C1430 H1421 0.929 . S
C1430 C1422 1.378 . S
C1430 C1425 1.350 . S
C1431 H1418 0.929 . S
C1431 C1423 1.433 . S
C1431 N1433 1.384 . S
N1432 C1428 1.427 . S
N1432 C1429 1.384 . S
N1433 C1425 1.427 . S
N1433 C1431 1.384 . S
H1434 C1440 0.930 . S
H1435 C1444 0.930 . S
H1436 C1449 0.929 . S
H1437 C1447 0.929 . S
H1438 C1442 0.929 . S
H1439 C1448 0.929 . S
C1440 H1434 0.930 . S
C1440 C1441 1.367 . S
C1440 C1448 1.378 . S
C1441 C1440 1.367 . S
C1441 C1449 1.433 . S
C1442 H1438 0.929 . S
C1442 C1444 1.378 . S
C1442 C1446 1.350 . S
C1443 C1446 1.463 . S
C1443 C1448 1.350 . S
C1443 N1451 1.427 . S
C1444 H1435 0.930 . S
C1444 C1442 1.378 . S
C1444 C1445 1.367 . S
C1445 C1444 1.367 . S
C1445 C1447 1.433 . S
C1446 C1442 1.350 . S
C1446 C1443 1.463 . S
C1446 N1450 1.427 . S
C1447 H1437 0.929 . S
C1447 C1445 1.433 . S
C1447 N1450 1.384 . S
C1448 H1439 0.929 . S
C1448 C1440 1.378 . S
C1448 C1443 1.350 . S
C1449 H1436 0.929 . S
C1449 C1441 1.433 . S
C1449 N1451 1.384 . S
N1450 C1446 1.427 . S
N1450 C1447 1.384 . S
N1451 C1443 1.427 . S
N1451 C1449 1.384 . S
H1452 C1458 0.930 . S
H1453 C1462 0.930 . S
H1454 C1467 0.929 . S
H1455 C1465 0.929 . S
H1456 C1460 0.929 . S
H1457 C1466 0.929 . S
C1458 H1452 0.930 . S
C1458 C1459 1.367 . S
C1458 C1466 1.378 . S
C1459 C1458 1.367 . S
C1459 C1467 1.433 . S
C1460 H1456 0.929 . S
C1460 C1462 1.378 . S
C1460 C1464 1.350 . S
C1461 C1464 1.463 . S
C1461 C1466 1.350 . S
C1461 N1469 1.427 . S
C1462 H1453 0.930 . S
C1462 C1460 1.378 . S
C1462 C1463 1.367 . S
C1463 C1462 1.367 . S
C1463 C1465 1.433 . S
C1464 C1460 1.350 . S
C1464 C1461 1.463 . S
C1464 N1468 1.427 . S
C1465 H1455 0.929 . S
C1465 C1463 1.433 . S
C1465 N1468 1.384 . S
C1466 H1457 0.929 . S
C1466 C1458 1.378 . S
C1466 C1461 1.350 . S
C1467 H1454 0.929 . S
C1467 C1459 1.433 . S
C1467 N1469 1.384 . S
N1468 C1464 1.427 . S
N1468 C1465 1.384 . S
N1469 C1461 1.427 . S
N1469 C1467 1.384 . S
H1470 C1476 0.930 . S
H1471 C1480 0.930 . S
H1472 C1485 0.929 . S
H1473 C1483 0.929 . S
H1474 C1478 0.929 . S
H1475 C1484 0.929 . S
C1476 H1470 0.930 . S
C1476 C1477 1.367 . S
C1476 C1484 1.378 . S
C1477 C1476 1.367 . S
C1477 C1485 1.433 . S
C1478 H1474 0.929 . S
C1478 C1480 1.378 . S
C1478 C1482 1.350 . S
C1479 C1482 1.463 . S
C1479 C1484 1.350 . S
C1479 N1487 1.427 . S
C1480 H1471 0.930 . S
C1480 C1478 1.378 . S
C1480 C1481 1.367 . S
C1481 C1480 1.367 . S
C1481 C1483 1.433 . S
C1482 C1478 1.350 . S
C1482 C1479 1.463 . S
C1482 N1486 1.427 . S
C1483 H1473 0.929 . S
C1483 C1481 1.433 . S
C1483 N1486 1.384 . S
C1484 H1475 0.929 . S
C1484 C1476 1.378 . S
C1484 C1479 1.350 . S
C1485 H1472 0.929 . S
C1485 C1477 1.433 . S
C1485 N1487 1.384 . S
N1486 C1482 1.427 . S
N1486 C1483 1.384 . S
N1487 C1479 1.427 . S
N1487 C1485 1.384 . S
H1488 C1494 0.930 . S
H1489 C1498 0.930 . S
H1490 C1503 0.929 . S
H1491 C1501 0.929 . S
H1492 C1496 0.929 . S
H1493 C1502 0.929 . S
C1494 H1488 0.930 . S
C1494 C1495 1.367 . S
C1494 C1502 1.378 . S
C1495 C1494 1.367 . S
C1495 C1503 1.433 . S
C1496 H1492 0.929 . S
C1496 C1498 1.378 . S
C1496 C1500 1.350 . S
C1497 C1500 1.463 . S
C1497 C1502 1.350 . S
C1497 N1505 1.427 . S
C1498 H1489 0.930 . S
C1498 C1496 1.378 . S
C1498 C1499 1.367 . S
C1499 C1498 1.367 . S
C1499 C1501 1.433 . S
C1500 C1496 1.350 . S
C1500 C1497 1.463 . S
C1500 N1504 1.427 . S
C1501 H1491 0.929 . S
C1501 C1499 1.433 . S
C1501 N1504 1.384 . S
C1502 H1493 0.929 . S
C1502 C1494 1.378 . S
C1502 C1497 1.350 . S
C1503 H1490 0.929 . S
C1503 C1495 1.433 . S
C1503 N1505 1.384 . S
N1504 C1500 1.427 . S
N1504 C1501 1.384 . S
N1505 C1497 1.427 . S
N1505 C1503 1.384 . S
H1506 C1512 0.930 . S
H1507 C1516 0.930 . S
H1508 C1521 0.929 . S
H1509 C1519 0.929 . S
H1510 C1514 0.929 . S
H1511 C1520 0.929 . S
C1512 H1506 0.930 . S
C1512 C1513 1.367 . S
C1512 C1520 1.378 . S
C1513 C1512 1.367 . S
C1513 C1521 1.433 . S
C1514 H1510 0.929 . S
C1514 C1516 1.378 . S
C1514 C1518 1.350 . S
C1515 C1518 1.463 . S
C1515 C1520 1.350 . S
C1515 N1523 1.427 . S
C1516 H1507 0.930 . S
C1516 C1514 1.378 . S
C1516 C1517 1.367 . S
C1517 C1516 1.367 . S
C1517 C1519 1.433 . S
C1518 C1514 1.350 . S
C1518 C1515 1.463 . S
C1518 N1522 1.427 . S
C1519 H1509 0.929 . S
C1519 C1517 1.433 . S
C1519 N1522 1.384 . S
C1520 H1511 0.929 . S
C1520 C1512 1.378 . S
C1520 C1515 1.350 . S
C1521 H1508 0.929 . S
C1521 C1513 1.433 . S
C1521 N1523 1.384 . S
N1522 C1518 1.427 . S
N1522 C1519 1.384 . S
N1523 C1515 1.427 . S
N1523 C1521 1.384 . S
H1524 C1530 0.930 . S
H1525 C1534 0.930 . S
H1526 C1539 0.929 . S
H1527 C1537 0.929 . S
H1528 C1532 0.929 . S
H1529 C1538 0.929 . S
C1530 H1524 0.930 . S
C1530 C1531 1.367 . S
C1530 C1538 1.378 . S
C1531 C1530 1.367 . S
C1531 C1539 1.433 . S
C1532 H1528 0.929 . S
C1532 C1534 1.378 . S
C1532 C1536 1.350 . S
C1533 C1536 1.463 . S
C1533 C1538 1.350 . S
C1533 N1541 1.427 . S
C1534 H1525 0.930 . S
C1534 C1532 1.378 . S
C1534 C1535 1.367 . S
C1535 C1534 1.367 . S
C1535 C1537 1.433 . S
C1536 C1532 1.350 . S
C1536 C1533 1.463 . S
C1536 N1540 1.427 . S
C1537 H1527 0.929 . S
C1537 C1535 1.433 . S
C1537 N1540 1.384 . S
C1538 H1529 0.929 . S
C1538 C1530 1.378 . S
C1538 C1533 1.350 . S
C1539 H1526 0.929 . S
C1539 C1531 1.433 . S
C1539 N1541 1.384 . S
N1540 C1536 1.427 . S
N1540 C1537 1.384 . S
N1541 C1533 1.427 . S
N1541 C1539 1.384 . S
H1542 C1548 0.930 . S
H1543 C1552 0.930 . S
H1544 C1557 0.929 . S
H1545 C1555 0.929 . S
H1546 C1550 0.929 . S
H1547 C1556 0.929 . S
C1548 H1542 0.930 . S
C1548 C1549 1.367 . S
C1548 C1556 1.378 . S
C1549 C1548 1.367 . S
C1549 C1557 1.433 . S
C1550 H1546 0.929 . S
C1550 C1552 1.378 . S
C1550 C1554 1.350 . S
C1551 C1554 1.463 . S
C1551 C1556 1.350 . S
C1551 N1559 1.427 . S
C1552 H1543 0.930 . S
C1552 C1550 1.378 . S
C1552 C1553 1.367 . S
C1553 C1552 1.367 . S
C1553 C1555 1.433 . S
C1554 C1550 1.350 . S
C1554 C1551 1.463 . S
C1554 N1558 1.427 . S
C1555 H1545 0.929 . S
C1555 C1553 1.433 . S
C1555 N1558 1.384 . S
C1556 H1547 0.929 . S
C1556 C1548 1.378 . S
C1556 C1551 1.350 . S
C1557 H1544 0.929 . S
C1557 C1549 1.433 . S
C1557 N1559 1.384 . S
N1558 C1554 1.427 . S
N1558 C1555 1.384 . S
N1559 C1551 1.427 . S
N1559 C1557 1.384 . S
H1560 C1566 0.930 . S
H1561 C1570 0.930 . S
H1562 C1575 0.929 . S
H1563 C1573 0.929 . S
H1564 C1568 0.929 . S
H1565 C1574 0.929 . S
C1566 H1560 0.930 . S
C1566 C1567 1.367 . S
C1566 C1574 1.378 . S
C1567 C1566 1.367 . S
C1567 C1575 1.433 . S
C1568 H1564 0.929 . S
C1568 C1570 1.378 . S
C1568 C1572 1.350 . S
C1569 C1572 1.463 . S
C1569 C1574 1.350 . S
C1569 N1577 1.427 . S
C1570 H1561 0.930 . S
C1570 C1568 1.378 . S
C1570 C1571 1.367 . S
C1571 C1570 1.367 . S
C1571 C1573 1.433 . S
C1572 C1568 1.350 . S
C1572 C1569 1.463 . S
C1572 N1576 1.427 . S
C1573 H1563 0.929 . S
C1573 C1571 1.433 . S
C1573 N1576 1.384 . S
C1574 H1565 0.929 . S
C1574 C1566 1.378 . S
C1574 C1569 1.350 . S
C1575 H1562 0.929 . S
C1575 C1567 1.433 . S
C1575 N1577 1.384 . S
N1576 C1572 1.427 . S
N1576 C1573 1.384 . S
N1577 C1569 1.427 . S
N1577 C1575 1.384 . S
H1578 C1584 0.930 . S
H1579 C1588 0.930 . S
H1580 C1593 0.929 . S
H1581 C1591 0.929 . S
H1582 C1586 0.929 . S
H1583 C1592 0.929 . S
C1584 H1578 0.930 . S
C1584 C1585 1.367 . S
C1584 C1592 1.378 . S
C1585 C1584 1.367 . S
C1585 C1593 1.433 . S
C1586 H1582 0.929 . S
C1586 C1588 1.378 . S
C1586 C1590 1.350 . S
C1587 C1590 1.463 . S
C1587 C1592 1.350 . S
C1587 N1595 1.427 . S
C1588 H1579 0.930 . S
C1588 C1586 1.378 . S
C1588 C1589 1.367 . S
C1589 C1588 1.367 . S
C1589 C1591 1.433 . S
C1590 C1586 1.350 . S
C1590 C1587 1.463 . S
C1590 N1594 1.427 . S
C1591 H1581 0.929 . S
C1591 C1589 1.433 . S
C1591 N1594 1.384 . S
C1592 H1583 0.929 . S
C1592 C1584 1.378 . S
C1592 C1587 1.350 . S
C1593 H1580 0.929 . S
C1593 C1585 1.433 . S
C1593 N1595 1.384 . S
N1594 C1590 1.427 . S
N1594 C1591 1.384 . S
N1595 C1587 1.427 . S
N1595 C1593 1.384 . S
H1596 C1602 0.930 . S
H1597 C1606 0.930 . S
H1598 C1611 0.929 . S
H1599 C1609 0.929 . S
H1600 C1604 0.929 . S
H1601 C1610 0.929 . S
C1602 H1596 0.930 . S
C1602 C1603 1.367 . S
C1602 C1610 1.378 . S
C1603 C1602 1.367 . S
C1603 C1611 1.433 . S
C1604 H1600 0.929 . S
C1604 C1606 1.378 . S
C1604 C1608 1.350 . S
C1605 C1608 1.463 . S
C1605 C1610 1.350 . S
C1605 N1613 1.427 . S
C1606 H1597 0.930 . S
C1606 C1604 1.378 . S
C1606 C1607 1.367 . S
C1607 C1606 1.367 . S
C1607 C1609 1.433 . S
C1608 C1604 1.350 . S
C1608 C1605 1.463 . S
C1608 N1612 1.427 . S
C1609 H1599 0.929 . S
C1609 C1607 1.433 . S
C1609 N1612 1.384 . S
C1610 H1601 0.929 . S
C1610 C1602 1.378 . S
C1610 C1605 1.350 . S
C1611 H1598 0.929 . S
C1611 C1603 1.433 . S
C1611 N1613 1.384 . S
N1612 C1608 1.427 . S
N1612 C1609 1.384 . S
N1613 C1605 1.427 . S
N1613 C1611 1.384 . S
H1614 C1620 0.930 . S
H1615 C1624 0.930 . S
H1616 C1629 0.929 . S
H1617 C1627 0.929 . S
H1618 C1622 0.929 . S
H1619 C1628 0.929 . S
C1620 H1614 0.930 . S
C1620 C1621 1.367 . S
C1620 C1628 1.378 . S
C1621 C1620 1.367 . S
C1621 C1629 1.433 . S
C1622 H1618 0.929 . S
C1622 C1624 1.378 . S
C1622 C1626 1.350 . S
C1623 C1626 1.463 . S
C1623 C1628 1.350 . S
C1623 N1631 1.427 . S
C1624 H1615 0.930 . S
C1624 C1622 1.378 . S
C1624 C1625 1.367 . S
C1625 C1624 1.367 . S
C1625 C1627 1.433 . S
C1626 C1622 1.350 . S
C1626 C1623 1.463 . S
C1626 N1630 1.427 . S
C1627 H1617 0.929 . S
C1627 C1625 1.433 . S
C1627 N1630 1.384 . S
C1628 H1619 0.929 . S
C1628 C1620 1.378 . S
C1628 C1623 1.350 . S
C1629 H1616 0.929 . S
C1629 C1621 1.433 . S
C1629 N1631 1.384 . S
N1630 C1626 1.427 . S
N1630 C1627 1.384 . S
N1631 C1623 1.427 . S
N1631 C1629 1.384 . S
H1632 C1638 0.930 . S
H1633 C1642 0.930 . S
H1634 C1647 0.929 . S
H1635 C1645 0.929 . S
H1636 C1640 0.929 . S
H1637 C1646 0.929 . S
C1638 H1632 0.930 . S
C1638 C1639 1.367 . S
C1638 C1646 1.378 . S
C1639 C1638 1.367 . S
C1639 C1647 1.433 . S
C1640 H1636 0.929 . S
C1640 C1642 1.378 . S
C1640 C1644 1.350 . S
C1641 C1644 1.463 . S
C1641 C1646 1.350 . S
C1641 N1649 1.427 . S
C1642 H1633 0.930 . S
C1642 C1640 1.378 . S
C1642 C1643 1.367 . S
C1643 C1642 1.367 . S
C1643 C1645 1.433 . S
C1644 C1640 1.350 . S
C1644 C1641 1.463 . S
C1644 N1648 1.427 . S
C1645 H1635 0.929 . S
C1645 C1643 1.433 . S
C1645 N1648 1.384 . S
C1646 H1637 0.929 . S
C1646 C1638 1.378 . S
C1646 C1641 1.350 . S
C1647 H1634 0.929 . S
C1647 C1639 1.433 . S
C1647 N1649 1.384 . S
N1648 C1644 1.427 . S
N1648 C1645 1.384 . S
N1649 C1641 1.427 . S
N1649 C1647 1.384 . S
H1650 C1656 0.930 . S
H1651 C1660 0.930 . S
H1652 C1665 0.929 . S
H1653 C1663 0.929 . S
H1654 C1658 0.929 . S
H1655 C1664 0.929 . S
C1656 H1650 0.930 . S
C1656 C1657 1.367 . S
C1656 C1664 1.378 . S
C1657 C1656 1.367 . S
C1657 C1665 1.433 . S
C1658 H1654 0.929 . S
C1658 C1660 1.378 . S
C1658 C1662 1.350 . S
C1659 C1662 1.463 . S
C1659 C1664 1.350 . S
C1659 N1667 1.427 . S
C1660 H1651 0.930 . S
C1660 C1658 1.378 . S
C1660 C1661 1.367 . S
C1661 C1660 1.367 . S
C1661 C1663 1.433 . S
C1662 C1658 1.350 . S
C1662 C1659 1.463 . S
C1662 N1666 1.427 . S
C1663 H1653 0.929 . S
C1663 C1661 1.433 . S
C1663 N1666 1.384 . S
C1664 H1655 0.929 . S
C1664 C1656 1.378 . S
C1664 C1659 1.350 . S
C1665 H1652 0.929 . S
C1665 C1657 1.433 . S
C1665 N1667 1.384 . S
N1666 C1662 1.427 . S
N1666 C1663 1.384 . S
N1667 C1659 1.427 . S
N1667 C1665 1.384 . S
H1668 C1674 0.930 . S
H1669 C1678 0.930 . S
H1670 C1683 0.929 . S
H1671 C1681 0.929 . S
H1672 C1676 0.929 . S
H1673 C1682 0.929 . S
C1674 H1668 0.930 . S
C1674 C1675 1.367 . S
C1674 C1682 1.378 . S
C1675 C1674 1.367 . S
C1675 C1683 1.433 . S
C1676 H1672 0.929 . S
C1676 C1678 1.378 . S
C1676 C1680 1.350 . S
C1677 C1680 1.463 . S
C1677 C1682 1.350 . S
C1677 N1685 1.427 . S
C1678 H1669 0.930 . S
C1678 C1676 1.378 . S
C1678 C1679 1.367 . S
C1679 C1678 1.367 . S
C1679 C1681 1.433 . S
C1680 C1676 1.350 . S
C1680 C1677 1.463 . S
C1680 N1684 1.427 . S
C1681 H1671 0.929 . S
C1681 C1679 1.433 . S
C1681 N1684 1.384 . S
C1682 H1673 0.929 . S
C1682 C1674 1.378 . S
C1682 C1677 1.350 . S
C1683 H1670 0.929 . S
C1683 C1675 1.433 . S
C1683 N1685 1.384 . S
N1684 C1680 1.427 . S
N1684 C1681 1.384 . S
N1685 C1677 1.427 . S
N1685 C1683 1.384 . S
H1686 C1692 0.930 . S
H1687 C1696 0.930 . S
H1688 C1701 0.929 . S
H1689 C1699 0.929 . S
H1690 C1694 0.929 . S
H1691 C1700 0.929 . S
C1692 H1686 0.930 . S
C1692 C1693 1.367 . S
C1692 C1700 1.378 . S
C1693 C1692 1.367 . S
C1693 C1701 1.433 . S
C1694 H1690 0.929 . S
C1694 C1696 1.378 . S
C1694 C1698 1.350 . S
C1695 C1698 1.463 . S
C1695 C1700 1.350 . S
C1695 N1703 1.427 . S
C1696 H1687 0.930 . S
C1696 C1694 1.378 . S
C1696 C1697 1.367 . S
C1697 C1696 1.367 . S
C1697 C1699 1.433 . S
C1698 C1694 1.350 . S
C1698 C1695 1.463 . S
C1698 N1702 1.427 . S
C1699 H1689 0.929 . S
C1699 C1697 1.433 . S
C1699 N1702 1.384 . S
C1700 H1691 0.929 . S
C1700 C1692 1.378 . S
C1700 C1695 1.350 . S
C1701 H1688 0.929 . S
C1701 C1693 1.433 . S
C1701 N1703 1.384 . S
N1702 C1698 1.427 . S
N1702 C1699 1.384 . S
N1703 C1695 1.427 . S
N1703 C1701 1.384 . S
H1704 C1710 0.930 . S
H1705 C1714 0.930 . S
H1706 C1719 0.929 . S
H1707 C1717 0.929 . S
H1708 C1712 0.929 . S
H1709 C1718 0.929 . S
C1710 H1704 0.930 . S
C1710 C1711 1.367 . S
C1710 C1718 1.378 . S
C1711 C1710 1.367 . S
C1711 C1719 1.433 . S
C1712 H1708 0.929 . S
C1712 C1714 1.378 . S
C1712 C1716 1.350 . S
C1713 C1716 1.463 . S
C1713 C1718 1.350 . S
C1713 N1721 1.427 . S
C1714 H1705 0.930 . S
C1714 C1712 1.378 . S
C1714 C1715 1.367 . S
C1715 C1714 1.367 . S
C1715 C1717 1.433 . S
C1716 C1712 1.350 . S
C1716 C1713 1.463 . S
C1716 N1720 1.427 . S
C1717 H1707 0.929 . S
C1717 C1715 1.433 . S
C1717 N1720 1.384 . S
C1718 H1709 0.929 . S
C1718 C1710 1.378 . S
C1718 C1713 1.350 . S
C1719 H1706 0.929 . S
C1719 C1711 1.433 . S
C1719 N1721 1.384 . S
N1720 C1716 1.427 . S
N1720 C1717 1.384 . S
N1721 C1713 1.427 . S
N1721 C1719 1.384 . S
H1722 C1728 0.930 . S
H1723 C1732 0.930 . S
H1724 C1737 0.929 . S
H1725 C1735 0.929 . S
H1726 C1730 0.929 . S
H1727 C1736 0.929 . S
C1728 H1722 0.930 . S
C1728 C1729 1.367 . S
C1728 C1736 1.378 . S
C1729 C1728 1.367 . S
C1729 C1737 1.433 . S
C1730 H1726 0.929 . S
C1730 C1732 1.378 . S
C1730 C1734 1.350 . S
C1731 C1734 1.463 . S
C1731 C1736 1.350 . S
C1731 N1739 1.427 . S
C1732 H1723 0.930 . S
C1732 C1730 1.378 . S
C1732 C1733 1.367 . S
C1733 C1732 1.367 . S
C1733 C1735 1.433 . S
C1734 C1730 1.350 . S
C1734 C1731 1.463 . S
C1734 N1738 1.427 . S
C1735 H1725 0.929 . S
C1735 C1733 1.433 . S
C1735 N1738 1.384 . S
C1736 H1727 0.929 . S
C1736 C1728 1.378 . S
C1736 C1731 1.350 . S
C1737 H1724 0.929 . S
C1737 C1729 1.433 . S
C1737 N1739 1.384 . S
N1738 C1734 1.427 . S
N1738 C1735 1.384 . S
N1739 C1731 1.427 . S
N1739 C1737 1.384 . S
H1740 C1746 0.930 . S
H1741 C1750 0.930 . S
H1742 C1755 0.929 . S
H1743 C1753 0.929 . S
H1744 C1748 0.929 . S
H1745 C1754 0.929 . S
C1746 H1740 0.930 . S
C1746 C1747 1.367 . S
C1746 C1754 1.378 . S
C1747 C1746 1.367 . S
C1747 C1755 1.433 . S
C1748 H1744 0.929 . S
C1748 C1750 1.378 . S
C1748 C1752 1.350 . S
C1749 C1752 1.463 . S
C1749 C1754 1.350 . S
C1749 N1757 1.427 . S
C1750 H1741 0.930 . S
C1750 C1748 1.378 . S
C1750 C1751 1.367 . S
C1751 C1750 1.367 . S
C1751 C1753 1.433 . S
C1752 C1748 1.350 . S
C1752 C1749 1.463 . S
C1752 N1756 1.427 . S
C1753 H1743 0.929 . S
C1753 C1751 1.433 . S
C1753 N1756 1.384 . S
C1754 H1745 0.929 . S
C1754 C1746 1.378 . S
C1754 C1749 1.350 . S
C1755 H1742 0.929 . S
C1755 C1747 1.433 . S
C1755 N1757 1.384 . S
N1756 C1752 1.427 . S
N1756 C1753 1.384 . S
N1757 C1749 1.427 . S
N1757 C1755 1.384 . S
H1758 C1764 0.930 . S
H1759 C1768 0.930 . S
H1760 C1773 0.929 . S
H1761 C1771 0.929 . S
H1762 C1766 0.929 . S
H1763 C1772 0.929 . S
C1764 H1758 0.930 . S
C1764 C1765 1.367 . S
C1764 C1772 1.378 . S
C1765 C1764 1.367 . S
C1765 C1773 1.433 . S
C1766 H1762 0.929 . S
C1766 C1768 1.378 . S
C1766 C1770 1.350 . S
C1767 C1770 1.463 . S
C1767 C1772 1.350 . S
C1767 N1775 1.427 . S
C1768 H1759 0.930 . S
C1768 C1766 1.378 . S
C1768 C1769 1.367 . S
C1769 C1768 1.367 . S
C1769 C1771 1.433 . S
C1770 C1766 1.350 . S
C1770 C1767 1.463 . S
C1770 N1774 1.427 . S
C1771 H1761 0.929 . S
C1771 C1769 1.433 . S
C1771 N1774 1.384 . S
C1772 H1763 0.929 . S
C1772 C1764 1.378 . S
C1772 C1767 1.350 . S
C1773 H1760 0.929 . S
C1773 C1765 1.433 . S
C1773 N1775 1.384 . S
N1774 C1770 1.427 . S
N1774 C1771 1.384 . S
N1775 C1767 1.427 . S
N1775 C1773 1.384 . S
H1776 C1782 0.930 . S
H1777 C1786 0.930 . S
H1778 C1791 0.929 . S
H1779 C1789 0.929 . S
H1780 C1784 0.929 . S
H1781 C1790 0.929 . S
C1782 H1776 0.930 . S
C1782 C1783 1.367 . S
C1782 C1790 1.378 . S
C1783 C1782 1.367 . S
C1783 C1791 1.433 . S
C1784 H1780 0.929 . S
C1784 C1786 1.378 . S
C1784 C1788 1.350 . S
C1785 C1788 1.463 . S
C1785 C1790 1.350 . S
C1785 N1793 1.427 . S
C1786 H1777 0.930 . S
C1786 C1784 1.378 . S
C1786 C1787 1.367 . S
C1787 C1786 1.367 . S
C1787 C1789 1.433 . S
C1788 C1784 1.350 . S
C1788 C1785 1.463 . S
C1788 N1792 1.427 . S
C1789 H1779 0.929 . S
C1789 C1787 1.433 . S
C1789 N1792 1.384 . S
C1790 H1781 0.929 . S
C1790 C1782 1.378 . S
C1790 C1785 1.350 . S
C1791 H1778 0.929 . S
C1791 C1783 1.433 . S
C1791 N1793 1.384 . S
N1792 C1788 1.427 . S
N1792 C1789 1.384 . S
N1793 C1785 1.427 . S
N1793 C1791 1.384 . S
H1794 C1800 0.930 . S
H1795 C1804 0.930 . S
H1796 C1809 0.929 . S
H1797 C1807 0.929 . S
H1798 C1802 0.929 . S
H1799 C1808 0.929 . S
C1800 H1794 0.930 . S
C1800 C1801 1.367 . S
C1800 C1808 1.378 . S
C1801 C1800 1.367 . S
C1801 C1809 1.433 . S
C1802 H1798 0.929 . S
C1802 C1804 1.378 . S
C1802 C1806 1.350 . S
C1803 C1806 1.463 . S
C1803 C1808 1.350 . S
C1803 N1811 1.427 . S
C1804 H1795 0.930 . S
C1804 C1802 1.378 . S
C1804 C1805 1.367 . S
C1805 C1804 1.367 . S
C1805 C1807 1.433 . S
C1806 C1802 1.350 . S
C1806 C1803 1.463 . S
C1806 N1810 1.427 . S
C1807 H1797 0.929 . S
C1807 C1805 1.433 . S
C1807 N1810 1.384 . S
C1808 H1799 0.929 . S
C1808 C1800 1.378 . S
C1808 C1803 1.350 . S
C1809 H1796 0.929 . S
C1809 C1801 1.433 . S
C1809 N1811 1.384 . S
N1810 C1806 1.427 . S
N1810 C1807 1.384 . S
N1811 C1803 1.427 . S
N1811 C1809 1.384 . S
H1812 C1818 0.930 . S
H1813 C1822 0.930 . S
H1814 C1827 0.929 . S
H1815 C1825 0.929 . S
H1816 C1820 0.929 . S
H1817 C1826 0.929 . S
C1818 H1812 0.930 . S
C1818 C1819 1.367 . S
C1818 C1826 1.378 . S
C1819 C1818 1.367 . S
C1819 C1827 1.433 . S
C1820 H1816 0.929 . S
C1820 C1822 1.378 . S
C1820 C1824 1.350 . S
C1821 C1824 1.463 . S
C1821 C1826 1.350 . S
C1821 N1829 1.427 . S
C1822 H1813 0.930 . S
C1822 C1820 1.378 . S
C1822 C1823 1.367 . S
C1823 C1822 1.367 . S
C1823 C1825 1.433 . S
C1824 C1820 1.350 . S
C1824 C1821 1.463 . S
C1824 N1828 1.427 . S
C1825 H1815 0.929 . S
C1825 C1823 1.433 . S
C1825 N1828 1.384 . S
C1826 H1817 0.929 . S
C1826 C1818 1.378 . S
C1826 C1821 1.350 . S
C1827 H1814 0.929 . S
C1827 C1819 1.433 . S
C1827 N1829 1.384 . S
N1828 C1824 1.427 . S
N1828 C1825 1.384 . S
N1829 C1821 1.427 . S
N1829 C1827 1.384 . S
H1830 C1836 0.930 . S
H1831 C1840 0.930 . S
H1832 C1845 0.929 . S
H1833 C1843 0.929 . S
H1834 C1838 0.929 . S
H1835 C1844 0.929 . S
C1836 H1830 0.930 . S
C1836 C1837 1.367 . S
C1836 C1844 1.378 . S
C1837 C1836 1.367 . S
C1837 C1845 1.433 . S
C1838 H1834 0.929 . S
C1838 C1840 1.378 . S
C1838 C1842 1.350 . S
C1839 C1842 1.463 . S
C1839 C1844 1.350 . S
C1839 N1847 1.427 . S
C1840 H1831 0.930 . S
C1840 C1838 1.378 . S
C1840 C1841 1.367 . S
C1841 C1840 1.367 . S
C1841 C1843 1.433 . S
C1842 C1838 1.350 . S
C1842 C1839 1.463 . S
C1842 N1846 1.427 . S
C1843 H1833 0.929 . S
C1843 C1841 1.433 . S
C1843 N1846 1.384 . S
C1844 H1835 0.929 . S
C1844 C1836 1.378 . S
C1844 C1839 1.350 . S
C1845 H1832 0.929 . S
C1845 C1837 1.433 . S
C1845 N1847 1.384 . S
N1846 C1842 1.427 . S
N1846 C1843 1.384 . S
N1847 C1839 1.427 . S
N1847 C1845 1.384 . S
H1848 C1854 0.930 . S
H1849 C1858 0.930 . S
H1850 C1863 0.929 . S
H1851 C1861 0.929 . S
H1852 C1856 0.929 . S
H1853 C1862 0.929 . S
C1854 H1848 0.930 . S
C1854 C1855 1.367 . S
C1854 C1862 1.378 . S
C1855 C1854 1.367 . S
C1855 C1863 1.433 . S
C1856 H1852 0.929 . S
C1856 C1858 1.378 . S
C1856 C1860 1.350 . S
C1857 C1860 1.463 . S
C1857 C1862 1.350 . S
C1857 N1865 1.427 . S
C1858 H1849 0.930 . S
C1858 C1856 1.378 . S
C1858 C1859 1.367 . S
C1859 C1858 1.367 . S
C1859 C1861 1.433 . S
C1860 C1856 1.350 . S
C1860 C1857 1.463 . S
C1860 N1864 1.427 . S
C1861 H1851 0.929 . S
C1861 C1859 1.433 . S
C1861 N1864 1.384 . S
C1862 H1853 0.929 . S
C1862 C1854 1.378 . S
C1862 C1857 1.350 . S
C1863 H1850 0.929 . S
C1863 C1855 1.433 . S
C1863 N1865 1.384 . S
N1864 C1860 1.427 . S
N1864 C1861 1.384 . S
N1865 C1857 1.427 . S
N1865 C1863 1.384 . S
H1866 C1872 0.930 . S
H1867 C1876 0.930 . S
H1868 C1881 0.929 . S
H1869 C1879 0.929 . S
H1870 C1874 0.929 . S
H1871 C1880 0.929 . S
C1872 H1866 0.930 . S
C1872 C1873 1.367 . S
C1872 C1880 1.378 . S
C1873 C1872 1.367 . S
C1873 C1881 1.433 . S
C1874 H1870 0.929 . S
C1874 C1876 1.378 . S
C1874 C1878 1.350 . S
C1875 C1878 1.463 . S
C1875 C1880 1.350 . S
C1875 N1883 1.427 . S
C1876 H1867 0.930 . S
C1876 C1874 1.378 . S
C1876 C1877 1.367 . S
C1877 C1876 1.367 . S
C1877 C1879 1.433 . S
C1878 C1874 1.350 . S
C1878 C1875 1.463 . S
C1878 N1882 1.427 . S
C1879 H1869 0.929 . S
C1879 C1877 1.433 . S
C1879 N1882 1.384 . S
C1880 H1871 0.929 . S
C1880 C1872 1.378 . S
C1880 C1875 1.350 . S
C1881 H1868 0.929 . S
C1881 C1873 1.433 . S
C1881 N1883 1.384 . S
N1882 C1878 1.427 . S
N1882 C1879 1.384 . S
N1883 C1875 1.427 . S
N1883 C1881 1.384 . S
H1884 C1890 0.930 . S
H1885 C1894 0.930 . S
H1886 C1899 0.929 . S
H1887 C1897 0.929 . S
H1888 C1892 0.929 . S
H1889 C1898 0.929 . S
C1890 H1884 0.930 . S
C1890 C1891 1.367 . S
C1890 C1898 1.378 . S
C1891 C1890 1.367 . S
C1891 C1899 1.433 . S
C1892 H1888 0.929 . S
C1892 C1894 1.378 . S
C1892 C1896 1.350 . S
C1893 C1896 1.463 . S
C1893 C1898 1.350 . S
C1893 N1901 1.427 . S
C1894 H1885 0.930 . S
C1894 C1892 1.378 . S
C1894 C1895 1.367 . S
C1895 C1894 1.367 . S
C1895 C1897 1.433 . S
C1896 C1892 1.350 . S
C1896 C1893 1.463 . S
C1896 N1900 1.427 . S
C1897 H1887 0.929 . S
C1897 C1895 1.433 . S
C1897 N1900 1.384 . S
C1898 H1889 0.929 . S
C1898 C1890 1.378 . S
C1898 C1893 1.350 . S
C1899 H1886 0.929 . S
C1899 C1891 1.433 . S
C1899 N1901 1.384 . S
N1900 C1896 1.427 . S
N1900 C1897 1.384 . S
N1901 C1893 1.427 . S
N1901 C1899 1.384 . S
H1902 C1908 0.930 . S
H1903 C1912 0.930 . S
H1904 C1917 0.929 . S
H1905 C1915 0.929 . S
H1906 C1910 0.929 . S
H1907 C1916 0.929 . S
C1908 H1902 0.930 . S
C1908 C1909 1.367 . S
C1908 C1916 1.378 . S
C1909 C1908 1.367 . S
C1909 C1917 1.433 . S
C1910 H1906 0.929 . S
C1910 C1912 1.378 . S
C1910 C1914 1.350 . S
C1911 C1914 1.463 . S
C1911 C1916 1.350 . S
C1911 N1919 1.427 . S
C1912 H1903 0.930 . S
C1912 C1910 1.378 . S
C1912 C1913 1.367 . S
C1913 C1912 1.367 . S
C1913 C1915 1.433 . S
C1914 C1910 1.350 . S
C1914 C1911 1.463 . S
C1914 N1918 1.427 . S
C1915 H1905 0.929 . S
C1915 C1913 1.433 . S
C1915 N1918 1.384 . S
C1916 H1907 0.929 . S
C1916 C1908 1.378 . S
C1916 C1911 1.350 . S
C1917 H1904 0.929 . S
C1917 C1909 1.433 . S
C1917 N1919 1.384 . S
N1918 C1914 1.427 . S
N1918 C1915 1.384 . S
N1919 C1911 1.427 . S
N1919 C1917 1.384 . S
H1920 C1926 0.930 . S
H1921 C1930 0.930 . S
H1922 C1935 0.929 . S
H1923 C1933 0.929 . S
H1924 C1928 0.929 . S
H1925 C1934 0.929 . S
C1926 H1920 0.930 . S
C1926 C1927 1.367 . S
C1926 C1934 1.378 . S
C1927 C1926 1.367 . S
C1927 C1935 1.433 . S
C1928 H1924 0.929 . S
C1928 C1930 1.378 . S
C1928 C1932 1.350 . S
C1929 C1932 1.463 . S
C1929 C1934 1.350 . S
C1929 N1937 1.427 . S
C1930 H1921 0.930 . S
C1930 C1928 1.378 . S
C1930 C1931 1.367 . S
C1931 C1930 1.367 . S
C1931 C1933 1.433 . S
C1932 C1928 1.350 . S
C1932 C1929 1.463 . S
C1932 N1936 1.427 . S
C1933 H1923 0.929 . S
C1933 C1931 1.433 . S
C1933 N1936 1.384 . S
C1934 H1925 0.929 . S
C1934 C1926 1.378 . S
C1934 C1929 1.350 . S
C1935 H1922 0.929 . S
C1935 C1927 1.433 . S
C1935 N1937 1.384 . S
N1936 C1932 1.427 . S
N1936 C1933 1.384 . S
N1937 C1929 1.427 . S
N1937 C1935 1.384 . S
H1938 C1944 0.930 . S
H1939 C1948 0.930 . S
H1940 C1953 0.929 . S
H1941 C1951 0.929 . S
H1942 C1946 0.929 . S
H1943 C1952 0.929 . S
C1944 H1938 0.930 . S
C1944 C1945 1.367 . S
C1944 C1952 1.378 . S
C1945 C1944 1.367 . S
C1945 C1953 1.433 . S
C1946 H1942 0.929 . S
C1946 C1948 1.378 . S
C1946 C1950 1.350 . S
C1947 C1950 1.463 . S
C1947 C1952 1.350 . S
C1947 N1955 1.427 . S
C1948 H1939 0.930 . S
C1948 C1946 1.378 . S
C1948 C1949 1.367 . S
C1949 C1948 1.367 . S
C1949 C1951 1.433 . S
C1950 C1946 1.350 . S
C1950 C1947 1.463 . S
C1950 N1954 1.427 . S
C1951 H1941 0.929 . S
C1951 C1949 1.433 . S
C1951 N1954 1.384 . S
C1952 H1943 0.929 . S
C1952 C1944 1.378 . S
C1952 C1947 1.350 . S
C1953 H1940 0.929 . S
C1953 C1945 1.433 . S
C1953 N1955 1.384 . S
N1954 C1950 1.427 . S
N1954 C1951 1.384 . S
N1955 C1947 1.427 . S
N1955 C1953 1.384 . S
H1956 C1962 0.930 . S
H1957 C1966 0.930 . S
H1958 C1971 0.929 . S
H1959 C1969 0.929 . S
H1960 C1964 0.929 . S
H1961 C1970 0.929 . S
C1962 H1956 0.930 . S
C1962 C1963 1.367 . S
C1962 C1970 1.378 . S
C1963 C1962 1.367 . S
C1963 C1971 1.433 . S
C1964 H1960 0.929 . S
C1964 C1966 1.378 . S
C1964 C1968 1.350 . S
C1965 C1968 1.463 . S
C1965 C1970 1.350 . S
C1965 N1973 1.427 . S
C1966 H1957 0.930 . S
C1966 C1964 1.378 . S
C1966 C1967 1.367 . S
C1967 C1966 1.367 . S
C1967 C1969 1.433 . S
C1968 C1964 1.350 . S
C1968 C1965 1.463 . S
C1968 N1972 1.427 . S
C1969 H1959 0.929 . S
C1969 C1967 1.433 . S
C1969 N1972 1.384 . S
C1970 H1961 0.929 . S
C1970 C1962 1.378 . S
C1970 C1965 1.350 . S
C1971 H1958 0.929 . S
C1971 C1963 1.433 . S
C1971 N1973 1.384 . S
N1972 C1968 1.427 . S
N1972 C1969 1.384 . S
N1973 C1965 1.427 . S
N1973 C1971 1.384 . S
H1974 C1980 0.930 . S
H1975 C1984 0.930 . S
H1976 C1989 0.929 . S
H1977 C1987 0.929 . S
H1978 C1982 0.929 . S
H1979 C1988 0.929 . S
C1980 H1974 0.930 . S
C1980 C1981 1.367 . S
C1980 C1988 1.378 . S
C1981 C1980 1.367 . S
C1981 C1989 1.433 . S
C1982 H1978 0.929 . S
C1982 C1984 1.378 . S
C1982 C1986 1.350 . S
C1983 C1986 1.463 . S
C1983 C1988 1.350 . S
C1983 N1991 1.427 . S
C1984 H1975 0.930 . S
C1984 C1982 1.378 . S
C1984 C1985 1.367 . S
C1985 C1984 1.367 . S
C1985 C1987 1.433 . S
C1986 C1982 1.350 . S
C1986 C1983 1.463 . S
C1986 N1990 1.427 . S
C1987 H1977 0.929 . S
C1987 C1985 1.433 . S
C1987 N1990 1.384 . S
C1988 H1979 0.929 . S
C1988 C1980 1.378 . S
C1988 C1983 1.350 . S
C1989 H1976 0.929 . S
C1989 C1981 1.433 . S
C1989 N1991 1.384 . S
N1990 C1986 1.427 . S
N1990 C1987 1.384 . S
N1991 C1983 1.427 . S
N1991 C1989 1.384 . S
H1992 C1998 0.930 . S
H1993 C2002 0.930 . S
H1994 C2007 0.929 . S
H1995 C2005 0.929 . S
H1996 C2000 0.929 . S
H1997 C2006 0.929 . S
C1998 H1992 0.930 . S
C1998 C1999 1.367 . S
C1998 C2006 1.378 . S
C1999 C1998 1.367 . S
C1999 C2007 1.433 . S
C2000 H1996 0.929 . S
C2000 C2002 1.378 . S
C2000 C2004 1.350 . S
C2001 C2004 1.463 . S
C2001 C2006 1.350 . S
C2001 N2009 1.427 . S
C2002 H1993 0.930 . S
C2002 C2000 1.378 . S
C2002 C2003 1.367 . S
C2003 C2002 1.367 . S
C2003 C2005 1.433 . S
C2004 C2000 1.350 . S
C2004 C2001 1.463 . S
C2004 N2008 1.427 . S
C2005 H1995 0.929 . S
C2005 C2003 1.433 . S
C2005 N2008 1.384 . S
C2006 H1997 0.929 . S
C2006 C1998 1.378 . S
C2006 C2001 1.350 . S
C2007 H1994 0.929 . S
C2007 C1999 1.433 . S
C2007 N2009 1.384 . S
N2008 C2004 1.427 . S
N2008 C2005 1.384 . S
N2009 C2001 1.427 . S
N2009 C2007 1.384 . S
H2010 C2016 0.930 . S
H2011 C2020 0.930 . S
H2012 C2025 0.929 . S
H2013 C2023 0.929 . S
H2014 C2018 0.929 . S
H2015 C2024 0.929 . S
C2016 H2010 0.930 . S
C2016 C2017 1.367 . S
C2016 C2024 1.378 . S
C2017 C2016 1.367 . S
C2017 C2025 1.433 . S
C2018 H2014 0.929 . S
C2018 C2020 1.378 . S
C2018 C2022 1.350 . S
C2019 C2022 1.463 . S
C2019 C2024 1.350 . S
C2019 N2027 1.427 . S
C2020 H2011 0.930 . S
C2020 C2018 1.378 . S
C2020 C2021 1.367 . S
C2021 C2020 1.367 . S
C2021 C2023 1.433 . S
C2022 C2018 1.350 . S
C2022 C2019 1.463 . S
C2022 N2026 1.427 . S
C2023 H2013 0.929 . S
C2023 C2021 1.433 . S
C2023 N2026 1.384 . S
C2024 H2015 0.929 . S
C2024 C2016 1.378 . S
C2024 C2019 1.350 . S
C2025 H2012 0.929 . S
C2025 C2017 1.433 . S
C2025 N2027 1.384 . S
N2026 C2022 1.427 . S
N2026 C2023 1.384 . S
N2027 C2019 1.427 . S
N2027 C2025 1.384 . S
H2028 C2034 0.930 . S
H2029 C2038 0.930 . S
H2030 C2043 0.929 . S
H2031 C2041 0.929 . S
H2032 C2036 0.929 . S
H2033 C2042 0.929 . S
C2034 H2028 0.930 . S
C2034 C2035 1.367 . S
C2034 C2042 1.378 . S
C2035 C2034 1.367 . S
C2035 C2043 1.433 . S
C2036 H2032 0.929 . S
C2036 C2038 1.378 . S
C2036 C2040 1.350 . S
C2037 C2040 1.463 . S
C2037 C2042 1.350 . S
C2037 N2045 1.427 . S
C2038 H2029 0.930 . S
C2038 C2036 1.378 . S
C2038 C2039 1.367 . S
C2039 C2038 1.367 . S
C2039 C2041 1.433 . S
C2040 C2036 1.350 . S
C2040 C2037 1.463 . S
C2040 N2044 1.427 . S
C2041 H2031 0.929 . S
C2041 C2039 1.433 . S
C2041 N2044 1.384 . S
C2042 H2033 0.929 . S
C2042 C2034 1.378 . S
C2042 C2037 1.350 . S
C2043 H2030 0.929 . S
C2043 C2035 1.433 . S
C2043 N2045 1.384 . S
N2044 C2040 1.427 . S
N2044 C2041 1.384 . S
N2045 C2037 1.427 . S
N2045 C2043 1.384 . S
H2046 C2052 0.930 . S
H2047 C2056 0.930 . S
H2048 C2061 0.929 . S
H2049 C2059 0.929 . S
H2050 C2054 0.929 . S
H2051 C2060 0.929 . S
C2052 H2046 0.930 . S
C2052 C2053 1.367 . S
C2052 C2060 1.378 . S
C2053 C2052 1.367 . S
C2053 C2061 1.433 . S
C2054 H2050 0.929 . S
C2054 C2056 1.378 . S
C2054 C2058 1.350 . S
C2055 C2058 1.463 . S
C2055 C2060 1.350 . S
C2055 N2063 1.427 . S
C2056 H2047 0.930 . S
C2056 C2054 1.378 . S
C2056 C2057 1.367 . S
C2057 C2056 1.367 . S
C2057 C2059 1.433 . S
C2058 C2054 1.350 . S
C2058 C2055 1.463 . S
C2058 N2062 1.427 . S
C2059 H2049 0.929 . S
C2059 C2057 1.433 . S
C2059 N2062 1.384 . S
C2060 H2051 0.929 . S
C2060 C2052 1.378 . S
C2060 C2055 1.350 . S
C2061 H2048 0.929 . S
C2061 C2053 1.433 . S
C2061 N2063 1.384 . S
N2062 C2058 1.427 . S
N2062 C2059 1.384 . S
N2063 C2055 1.427 . S
N2063 C2061 1.384 . S
H2064 C2070 0.930 . S
H2065 C2074 0.930 . S
H2066 C2079 0.929 . S
H2067 C2077 0.929 . S
H2068 C2072 0.929 . S
H2069 C2078 0.929 . S
C2070 H2064 0.930 . S
C2070 C2071 1.367 . S
C2070 C2078 1.378 . S
C2071 C2070 1.367 . S
C2071 C2079 1.433 . S
C2072 H2068 0.929 . S
C2072 C2074 1.378 . S
C2072 C2076 1.350 . S
C2073 C2076 1.463 . S
C2073 C2078 1.350 . S
C2073 N2081 1.427 . S
C2074 H2065 0.930 . S
C2074 C2072 1.378 . S
C2074 C2075 1.367 . S
C2075 C2074 1.367 . S
C2075 C2077 1.433 . S
C2076 C2072 1.350 . S
C2076 C2073 1.463 . S
C2076 N2080 1.427 . S
C2077 H2067 0.929 . S
C2077 C2075 1.433 . S
C2077 N2080 1.384 . S
C2078 H2069 0.929 . S
C2078 C2070 1.378 . S
C2078 C2073 1.350 . S
C2079 H2066 0.929 . S
C2079 C2071 1.433 . S
C2079 N2081 1.384 . S
N2080 C2076 1.427 . S
N2080 C2077 1.384 . S
N2081 C2073 1.427 . S
N2081 C2079 1.384 . S
H2082 C2088 0.930 . S
H2083 C2092 0.930 . S
H2084 C2097 0.929 . S
H2085 C2095 0.929 . S
H2086 C2090 0.929 . S
H2087 C2096 0.929 . S
C2088 H2082 0.930 . S
C2088 C2089 1.367 . S
C2088 C2096 1.378 . S
C2089 C2088 1.367 . S
C2089 C2097 1.433 . S
C2090 H2086 0.929 . S
C2090 C2092 1.378 . S
C2090 C2094 1.350 . S
C2091 C2094 1.463 . S
C2091 C2096 1.350 . S
C2091 N2099 1.427 . S
C2092 H2083 0.930 . S
C2092 C2090 1.378 . S
C2092 C2093 1.367 . S
C2093 C2092 1.367 . S
C2093 C2095 1.433 . S
C2094 C2090 1.350 . S
C2094 C2091 1.463 . S
C2094 N2098 1.427 . S
C2095 H2085 0.929 . S
C2095 C2093 1.433 . S
C2095 N2098 1.384 . S
C2096 H2087 0.929 . S
C2096 C2088 1.378 . S
C2096 C2091 1.350 . S
C2097 H2084 0.929 . S
C2097 C2089 1.433 . S
C2097 N2099 1.384 . S
N2098 C2094 1.427 . S
N2098 C2095 1.384 . S
N2099 C2091 1.427 . S
N2099 C2097 1.384 . S
H2100 C2106 0.930 . S
H2101 C2110 0.930 . S
H2102 C2115 0.929 . S
H2103 C2113 0.929 . S
H2104 C2108 0.929 . S
H2105 C2114 0.929 . S
C2106 H2100 0.930 . S
C2106 C2107 1.367 . S
C2106 C2114 1.378 . S
C2107 C2106 1.367 . S
C2107 C2115 1.433 . S
C2108 H2104 0.929 . S
C2108 C2110 1.378 . S
C2108 C2112 1.350 . S
C2109 C2112 1.463 . S
C2109 C2114 1.350 . S
C2109 N2117 1.427 . S
C2110 H2101 0.930 . S
C2110 C2108 1.378 . S
C2110 C2111 1.367 . S
C2111 C2110 1.367 . S
C2111 C2113 1.433 . S
C2112 C2108 1.350 . S
C2112 C2109 1.463 . S
C2112 N2116 1.427 . S
C2113 H2103 0.929 . S
C2113 C2111 1.433 . S
C2113 N2116 1.384 . S
C2114 H2105 0.929 . S
C2114 C2106 1.378 . S
C2114 C2109 1.350 . S
C2115 H2102 0.929 . S
C2115 C2107 1.433 . S
C2115 N2117 1.384 . S
N2116 C2112 1.427 . S
N2116 C2113 1.384 . S
N2117 C2109 1.427 . S
N2117 C2115 1.384 . S
H2118 C2124 0.930 . S
H2119 C2128 0.930 . S
H2120 C2133 0.929 . S
H2121 C2131 0.929 . S
H2122 C2126 0.929 . S
H2123 C2132 0.929 . S
C2124 H2118 0.930 . S
C2124 C2125 1.367 . S
C2124 C2132 1.378 . S
C2125 C2124 1.367 . S
C2125 C2133 1.433 . S
C2126 H2122 0.929 . S
C2126 C2128 1.378 . S
C2126 C2130 1.350 . S
C2127 C2130 1.463 . S
C2127 C2132 1.350 . S
C2127 N2135 1.427 . S
C2128 H2119 0.930 . S
C2128 C2126 1.378 . S
C2128 C2129 1.367 . S
C2129 C2128 1.367 . S
C2129 C2131 1.433 . S
C2130 C2126 1.350 . S
C2130 C2127 1.463 . S
C2130 N2134 1.427 . S
C2131 H2121 0.929 . S
C2131 C2129 1.433 . S
C2131 N2134 1.384 . S
C2132 H2123 0.929 . S
C2132 C2124 1.378 . S
C2132 C2127 1.350 . S
C2133 H2120 0.929 . S
C2133 C2125 1.433 . S
C2133 N2135 1.384 . S
N2134 C2130 1.427 . S
N2134 C2131 1.384 . S
N2135 C2127 1.427 . S
N2135 C2133 1.384 . S
H2136 C2142 0.930 . S
H2137 C2146 0.930 . S
H2138 C2151 0.929 . S
H2139 C2149 0.929 . S
H2140 C2144 0.929 . S
H2141 C2150 0.929 . S
C2142 H2136 0.930 . S
C2142 C2143 1.367 . S
C2142 C2150 1.378 . S
C2143 C2142 1.367 . S
C2143 C2151 1.433 . S
C2144 H2140 0.929 . S
C2144 C2146 1.378 . S
C2144 C2148 1.350 . S
C2145 C2148 1.463 . S
C2145 C2150 1.350 . S
C2145 N2153 1.427 . S
C2146 H2137 0.930 . S
C2146 C2144 1.378 . S
C2146 C2147 1.367 . S
C2147 C2146 1.367 . S
C2147 C2149 1.433 . S
C2148 C2144 1.350 . S
C2148 C2145 1.463 . S
C2148 N2152 1.427 . S
C2149 H2139 0.929 . S
C2149 C2147 1.433 . S
C2149 N2152 1.384 . S
C2150 H2141 0.929 . S
C2150 C2142 1.378 . S
C2150 C2145 1.350 . S
C2151 H2138 0.929 . S
C2151 C2143 1.433 . S
C2151 N2153 1.384 . S
N2152 C2148 1.427 . S
N2152 C2149 1.384 . S
N2153 C2145 1.427 . S
N2153 C2151 1.384 . S
H2154 C2160 0.930 . S
H2155 C2164 0.930 . S
H2156 C2169 0.929 . S
H2157 C2167 0.929 . S
H2158 C2162 0.929 . S
H2159 C2168 0.929 . S
C2160 H2154 0.930 . S
C2160 C2161 1.367 . S
C2160 C2168 1.378 . S
C2161 C2160 1.367 . S
C2161 C2169 1.433 . S
C2162 H2158 0.929 . S
C2162 C2164 1.378 . S
C2162 C2166 1.350 . S
C2163 C2166 1.463 . S
C2163 C2168 1.350 . S
C2163 N2171 1.427 . S
C2164 H2155 0.930 . S
C2164 C2162 1.378 . S
C2164 C2165 1.367 . S
C2165 C2164 1.367 . S
C2165 C2167 1.433 . S
C2166 C2162 1.350 . S
C2166 C2163 1.463 . S
C2166 N2170 1.427 . S
C2167 H2157 0.929 . S
C2167 C2165 1.433 . S
C2167 N2170 1.384 . S
C2168 H2159 0.929 . S
C2168 C2160 1.378 . S
C2168 C2163 1.350 . S
C2169 H2156 0.929 . S
C2169 C2161 1.433 . S
C2169 N2171 1.384 . S
N2170 C2166 1.427 . S
N2170 C2167 1.384 . S
N2171 C2163 1.427 . S
N2171 C2169 1.384 . S
H2172 C2178 0.930 . S
H2173 C2182 0.930 . S
H2174 C2187 0.929 . S
H2175 C2185 0.929 . S
H2176 C2180 0.929 . S
H2177 C2186 0.929 . S
C2178 H2172 0.930 . S
C2178 C2179 1.367 . S
C2178 C2186 1.378 . S
C2179 C2178 1.367 . S
C2179 C2187 1.433 . S
C2180 H2176 0.929 . S
C2180 C2182 1.378 . S
C2180 C2184 1.350 . S
C2181 C2184 1.463 . S
C2181 C2186 1.350 . S
C2181 N2189 1.427 . S
C2182 H2173 0.930 . S
C2182 C2180 1.378 . S
C2182 C2183 1.367 . S
C2183 C2182 1.367 . S
C2183 C2185 1.433 . S
C2184 C2180 1.350 . S
C2184 C2181 1.463 . S
C2184 N2188 1.427 . S
C2185 H2175 0.929 . S
C2185 C2183 1.433 . S
C2185 N2188 1.384 . S
C2186 H2177 0.929 . S
C2186 C2178 1.378 . S
C2186 C2181 1.350 . S
C2187 H2174 0.929 . S
C2187 C2179 1.433 . S
C2187 N2189 1.384 . S
N2188 C2184 1.427 . S
N2188 C2185 1.384 . S
N2189 C2181 1.427 . S
N2189 C2187 1.384 . S
H2190 C2196 0.930 . S
H2191 C2200 0.930 . S
H2192 C2205 0.929 . S
H2193 C2203 0.929 . S
H2194 C2198 0.929 . S
H2195 C2204 0.929 . S
C2196 H2190 0.930 . S
C2196 C2197 1.367 . S
C2196 C2204 1.378 . S
C2197 C2196 1.367 . S
C2197 C2205 1.433 . S
C2198 H2194 0.929 . S
C2198 C2200 1.378 . S
C2198 C2202 1.350 . S
C2199 C2202 1.463 . S
C2199 C2204 1.350 . S
C2199 N2207 1.427 . S
C2200 H2191 0.930 . S
C2200 C2198 1.378 . S
C2200 C2201 1.367 . S
C2201 C2200 1.367 . S
C2201 C2203 1.433 . S
C2202 C2198 1.350 . S
C2202 C2199 1.463 . S
C2202 N2206 1.427 . S
C2203 H2193 0.929 . S
C2203 C2201 1.433 . S
C2203 N2206 1.384 . S
C2204 H2195 0.929 . S
C2204 C2196 1.378 . S
C2204 C2199 1.350 . S
C2205 H2192 0.929 . S
C2205 C2197 1.433 . S
C2205 N2207 1.384 . S
N2206 C2202 1.427 . S
N2206 C2203 1.384 . S
N2207 C2199 1.427 . S
N2207 C2205 1.384 . S
H2208 C2214 0.930 . S
H2209 C2218 0.930 . S
H2210 C2223 0.929 . S
H2211 C2221 0.929 . S
H2212 C2216 0.929 . S
H2213 C2222 0.929 . S
C2214 H2208 0.930 . S
C2214 C2215 1.367 . S
C2214 C2222 1.378 . S
C2215 C2214 1.367 . S
C2215 C2223 1.433 . S
C2216 H2212 0.929 . S
C2216 C2218 1.378 . S
C2216 C2220 1.350 . S
C2217 C2220 1.463 . S
C2217 C2222 1.350 . S
C2217 N2225 1.427 . S
C2218 H2209 0.930 . S
C2218 C2216 1.378 . S
C2218 C2219 1.367 . S
C2219 C2218 1.367 . S
C2219 C2221 1.433 . S
C2220 C2216 1.350 . S
C2220 C2217 1.463 . S
C2220 N2224 1.427 . S
C2221 H2211 0.929 . S
C2221 C2219 1.433 . S
C2221 N2224 1.384 . S
C2222 H2213 0.929 . S
C2222 C2214 1.378 . S
C2222 C2217 1.350 . S
C2223 H2210 0.929 . S
C2223 C2215 1.433 . S
C2223 N2225 1.384 . S
N2224 C2220 1.427 . S
N2224 C2221 1.384 . S
N2225 C2217 1.427 . S
N2225 C2223 1.384 . S
H2226 C2232 0.930 . S
H2227 C2236 0.930 . S
H2228 C2241 0.929 . S
H2229 C2239 0.929 . S
H2230 C2234 0.929 . S
H2231 C2240 0.929 . S
C2232 H2226 0.930 . S
C2232 C2233 1.367 . S
C2232 C2240 1.378 . S
C2233 C2232 1.367 . S
C2233 C2241 1.433 . S
C2234 H2230 0.929 . S
C2234 C2236 1.378 . S
C2234 C2238 1.350 . S
C2235 C2238 1.463 . S
C2235 C2240 1.350 . S
C2235 N2243 1.427 . S
C2236 H2227 0.930 . S
C2236 C2234 1.378 . S
C2236 C2237 1.367 . S
C2237 C2236 1.367 . S
C2237 C2239 1.433 . S
C2238 C2234 1.350 . S
C2238 C2235 1.463 . S
C2238 N2242 1.427 . S
C2239 H2229 0.929 . S
C2239 C2237 1.433 . S
C2239 N2242 1.384 . S
C2240 H2231 0.929 . S
C2240 C2232 1.378 . S
C2240 C2235 1.350 . S
C2241 H2228 0.929 . S
C2241 C2233 1.433 . S
C2241 N2243 1.384 . S
N2242 C2238 1.427 . S
N2242 C2239 1.384 . S
N2243 C2235 1.427 . S
N2243 C2241 1.384 . S
H2244 C2250 0.930 . S
H2245 C2254 0.930 . S
H2246 C2259 0.929 . S
H2247 C2257 0.929 . S
H2248 C2252 0.929 . S
H2249 C2258 0.929 . S
C2250 H2244 0.930 . S
C2250 C2251 1.367 . S
C2250 C2258 1.378 . S
C2251 C2250 1.367 . S
C2251 C2259 1.433 . S
C2252 H2248 0.929 . S
C2252 C2254 1.378 . S
C2252 C2256 1.350 . S
C2253 C2256 1.463 . S
C2253 C2258 1.350 . S
C2253 N2261 1.427 . S
C2254 H2245 0.930 . S
C2254 C2252 1.378 . S
C2254 C2255 1.367 . S
C2255 C2254 1.367 . S
C2255 C2257 1.433 . S
C2256 C2252 1.350 . S
C2256 C2253 1.463 . S
C2256 N2260 1.427 . S
C2257 H2247 0.929 . S
C2257 C2255 1.433 . S
C2257 N2260 1.384 . S
C2258 H2249 0.929 . S
C2258 C2250 1.378 . S
C2258 C2253 1.350 . S
C2259 H2246 0.929 . S
C2259 C2251 1.433 . S
C2259 N2261 1.384 . S
N2260 C2256 1.427 . S
N2260 C2257 1.384 . S
N2261 C2253 1.427 . S
N2261 C2259 1.384 . S
H2262 C2268 0.930 . S
H2263 C2272 0.930 . S
H2264 C2277 0.929 . S
H2265 C2275 0.929 . S
H2266 C2270 0.929 . S
H2267 C2276 0.929 . S
C2268 H2262 0.930 . S
C2268 C2269 1.367 . S
C2268 C2276 1.378 . S
C2269 C2268 1.367 . S
C2269 C2277 1.433 . S
C2270 H2266 0.929 . S
C2270 C2272 1.378 . S
C2270 C2274 1.350 . S
C2271 C2274 1.463 . S
C2271 C2276 1.350 . S
C2271 N2279 1.427 . S
C2272 H2263 0.930 . S
C2272 C2270 1.378 . S
C2272 C2273 1.367 . S
C2273 C2272 1.367 . S
C2273 C2275 1.433 . S
C2274 C2270 1.350 . S
C2274 C2271 1.463 . S
C2274 N2278 1.427 . S
C2275 H2265 0.929 . S
C2275 C2273 1.433 . S
C2275 N2278 1.384 . S
C2276 H2267 0.929 . S
C2276 C2268 1.378 . S
C2276 C2271 1.350 . S
C2277 H2264 0.929 . S
C2277 C2269 1.433 . S
C2277 N2279 1.384 . S
N2278 C2274 1.427 . S
N2278 C2275 1.384 . S
N2279 C2271 1.427 . S
N2279 C2277 1.384 . S
H2280 C2286 0.930 . S
H2281 C2290 0.930 . S
H2282 C2295 0.929 . S
H2283 C2293 0.929 . S
H2284 C2288 0.929 . S
H2285 C2294 0.929 . S
C2286 H2280 0.930 . S
C2286 C2287 1.367 . S
C2286 C2294 1.378 . S
C2287 C2286 1.367 . S
C2287 C2295 1.433 . S
C2288 H2284 0.929 . S
C2288 C2290 1.378 . S
C2288 C2292 1.350 . S
C2289 C2292 1.463 . S
C2289 C2294 1.350 . S
C2289 N2297 1.427 . S
C2290 H2281 0.930 . S
C2290 C2288 1.378 . S
C2290 C2291 1.367 . S
C2291 C2290 1.367 . S
C2291 C2293 1.433 . S
C2292 C2288 1.350 . S
C2292 C2289 1.463 . S
C2292 N2296 1.427 . S
C2293 H2283 0.929 . S
C2293 C2291 1.433 . S
C2293 N2296 1.384 . S
C2294 H2285 0.929 . S
C2294 C2286 1.378 . S
C2294 C2289 1.350 . S
C2295 H2282 0.929 . S
C2295 C2287 1.433 . S
C2295 N2297 1.384 . S
N2296 C2292 1.427 . S
N2296 C2293 1.384 . S
N2297 C2289 1.427 . S
N2297 C2295 1.384 . S
H2298 C2304 0.930 . S
H2299 C2308 0.930 . S
H2300 C2313 0.929 . S
H2301 C2311 0.929 . S
H2302 C2306 0.929 . S
H2303 C2312 0.929 . S
C2304 H2298 0.930 . S
C2304 C2305 1.367 . S
C2304 C2312 1.378 . S
C2305 C2304 1.367 . S
C2305 C2313 1.433 . S
C2306 H2302 0.929 . S
C2306 C2308 1.378 . S
C2306 C2310 1.350 . S
C2307 C2310 1.463 . S
C2307 C2312 1.350 . S
C2307 N2315 1.427 . S
C2308 H2299 0.930 . S
C2308 C2306 1.378 . S
C2308 C2309 1.367 . S
C2309 C2308 1.367 . S
C2309 C2311 1.433 . S
C2310 C2306 1.350 . S
C2310 C2307 1.463 . S
C2310 N2314 1.427 . S
C2311 H2301 0.929 . S
C2311 C2309 1.433 . S
C2311 N2314 1.384 . S
C2312 H2303 0.929 . S
C2312 C2304 1.378 . S
C2312 C2307 1.350 . S
C2313 H2300 0.929 . S
C2313 C2305 1.433 . S
C2313 N2315 1.384 . S
N2314 C2310 1.427 . S
N2314 C2311 1.384 . S
N2315 C2307 1.427 . S
N2315 C2313 1.384 . S
H2316 C2322 0.930 . S
H2317 C2326 0.930 . S
H2318 C2331 0.929 . S
H2319 C2329 0.929 . S
H2320 C2324 0.929 . S
H2321 C2330 0.929 . S
C2322 H2316 0.930 . S
C2322 C2323 1.367 . S
C2322 C2330 1.378 . S
C2323 C2322 1.367 . S
C2323 C2331 1.433 . S
C2324 H2320 0.929 . S
C2324 C2326 1.378 . S
C2324 C2328 1.350 . S
C2325 C2328 1.463 . S
C2325 C2330 1.350 . S
C2325 N2333 1.427 . S
C2326 H2317 0.930 . S
C2326 C2324 1.378 . S
C2326 C2327 1.367 . S
C2327 C2326 1.367 . S
C2327 C2329 1.433 . S
C2328 C2324 1.350 . S
C2328 C2325 1.463 . S
C2328 N2332 1.427 . S
C2329 H2319 0.929 . S
C2329 C2327 1.433 . S
C2329 N2332 1.384 . S
C2330 H2321 0.929 . S
C2330 C2322 1.378 . S
C2330 C2325 1.350 . S
C2331 H2318 0.929 . S
C2331 C2323 1.433 . S
C2331 N2333 1.384 . S
N2332 C2328 1.427 . S
N2332 C2329 1.384 . S
N2333 C2325 1.427 . S
N2333 C2331 1.384 . S
H2334 C2340 0.930 . S
H2335 C2344 0.930 . S
H2336 C2349 0.929 . S
H2337 C2347 0.929 . S
H2338 C2342 0.929 . S
H2339 C2348 0.929 . S
C2340 H2334 0.930 . S
C2340 C2341 1.367 . S
C2340 C2348 1.378 . S
C2341 C2340 1.367 . S
C2341 C2349 1.433 . S
C2342 H2338 0.929 . S
C2342 C2344 1.378 . S
C2342 C2346 1.350 . S
C2343 C2346 1.463 . S
C2343 C2348 1.350 . S
C2343 N2351 1.427 . S
C2344 H2335 0.930 . S
C2344 C2342 1.378 . S
C2344 C2345 1.367 . S
C2345 C2344 1.367 . S
C2345 C2347 1.433 . S
C2346 C2342 1.350 . S
C2346 C2343 1.463 . S
C2346 N2350 1.427 . S
C2347 H2337 0.929 . S
C2347 C2345 1.433 . S
C2347 N2350 1.384 . S
C2348 H2339 0.929 . S
C2348 C2340 1.378 . S
C2348 C2343 1.350 . S
C2349 H2336 0.929 . S
C2349 C2341 1.433 . S
C2349 N2351 1.384 . S
N2350 C2346 1.427 . S
N2350 C2347 1.384 . S
N2351 C2343 1.427 . S
N2351 C2349 1.384 . S
H2352 C2358 0.930 . S
H2353 C2362 0.930 . S
H2354 C2367 0.929 . S
H2355 C2365 0.929 . S
H2356 C2360 0.929 . S
H2357 C2366 0.929 . S
C2358 H2352 0.930 . S
C2358 C2359 1.367 . S
C2358 C2366 1.378 . S
C2359 C2358 1.367 . S
C2359 C2367 1.433 . S
C2360 H2356 0.929 . S
C2360 C2362 1.378 . S
C2360 C2364 1.350 . S
C2361 C2364 1.463 . S
C2361 C2366 1.350 . S
C2361 N2369 1.427 . S
C2362 H2353 0.930 . S
C2362 C2360 1.378 . S
C2362 C2363 1.367 . S
C2363 C2362 1.367 . S
C2363 C2365 1.433 . S
C2364 C2360 1.350 . S
C2364 C2361 1.463 . S
C2364 N2368 1.427 . S
C2365 H2355 0.929 . S
C2365 C2363 1.433 . S
C2365 N2368 1.384 . S
C2366 H2357 0.929 . S
C2366 C2358 1.378 . S
C2366 C2361 1.350 . S
C2367 H2354 0.929 . S
C2367 C2359 1.433 . S
C2367 N2369 1.384 . S
N2368 C2364 1.427 . S
N2368 C2365 1.384 . S
N2369 C2361 1.427 . S
N2369 C2367 1.384 . S
H2370 C2376 0.930 . S
H2371 C2380 0.930 . S
H2372 C2385 0.929 . S
H2373 C2383 0.929 . S
H2374 C2378 0.929 . S
H2375 C2384 0.929 . S
C2376 H2370 0.930 . S
C2376 C2377 1.367 . S
C2376 C2384 1.378 . S
C2377 C2376 1.367 . S
C2377 C2385 1.433 . S
C2378 H2374 0.929 . S
C2378 C2380 1.378 . S
C2378 C2382 1.350 . S
C2379 C2382 1.463 . S
C2379 C2384 1.350 . S
C2379 N2387 1.427 . S
C2380 H2371 0.930 . S
C2380 C2378 1.378 . S
C2380 C2381 1.367 . S
C2381 C2380 1.367 . S
C2381 C2383 1.433 . S
C2382 C2378 1.350 . S
C2382 C2379 1.463 . S
C2382 N2386 1.427 . S
C2383 H2373 0.929 . S
C2383 C2381 1.433 . S
C2383 N2386 1.384 . S
C2384 H2375 0.929 . S
C2384 C2376 1.378 . S
C2384 C2379 1.350 . S
C2385 H2372 0.929 . S
C2385 C2377 1.433 . S
C2385 N2387 1.384 . S
N2386 C2382 1.427 . S
N2386 C2383 1.384 . S
N2387 C2379 1.427 . S
N2387 C2385 1.384 . S
H2388 C2394 0.930 . S
H2389 C2398 0.930 . S
H2390 C2403 0.929 . S
H2391 C2401 0.929 . S
H2392 C2396 0.929 . S
H2393 C2402 0.929 . S
C2394 H2388 0.930 . S
C2394 C2395 1.367 . S
C2394 C2402 1.378 . S
C2395 C2394 1.367 . S
C2395 C2403 1.433 . S
C2396 H2392 0.929 . S
C2396 C2398 1.378 . S
C2396 C2400 1.350 . S
C2397 C2400 1.463 . S
C2397 C2402 1.350 . S
C2397 N2405 1.427 . S
C2398 H2389 0.930 . S
C2398 C2396 1.378 . S
C2398 C2399 1.367 . S
C2399 C2398 1.367 . S
C2399 C2401 1.433 . S
C2400 C2396 1.350 . S
C2400 C2397 1.463 . S
C2400 N2404 1.427 . S
C2401 H2391 0.929 . S
C2401 C2399 1.433 . S
C2401 N2404 1.384 . S
C2402 H2393 0.929 . S
C2402 C2394 1.378 . S
C2402 C2397 1.350 . S
C2403 H2390 0.929 . S
C2403 C2395 1.433 . S
C2403 N2405 1.384 . S
N2404 C2400 1.427 . S
N2404 C2401 1.384 . S
N2405 C2397 1.427 . S
N2405 C2403 1.384 . S
H2406 C2412 0.930 . S
H2407 C2416 0.930 . S
H2408 C2421 0.929 . S
H2409 C2419 0.929 . S
H2410 C2414 0.929 . S
H2411 C2420 0.929 . S
C2412 H2406 0.930 . S
C2412 C2413 1.367 . S
C2412 C2420 1.378 . S
C2413 C2412 1.367 . S
C2413 C2421 1.433 . S
C2414 H2410 0.929 . S
C2414 C2416 1.378 . S
C2414 C2418 1.350 . S
C2415 C2418 1.463 . S
C2415 C2420 1.350 . S
C2415 N2423 1.427 . S
C2416 H2407 0.930 . S
C2416 C2414 1.378 . S
C2416 C2417 1.367 . S
C2417 C2416 1.367 . S
C2417 C2419 1.433 . S
C2418 C2414 1.350 . S
C2418 C2415 1.463 . S
C2418 N2422 1.427 . S
C2419 H2409 0.929 . S
C2419 C2417 1.433 . S
C2419 N2422 1.384 . S
C2420 H2411 0.929 . S
C2420 C2412 1.378 . S
C2420 C2415 1.350 . S
C2421 H2408 0.929 . S
C2421 C2413 1.433 . S
C2421 N2423 1.384 . S
N2422 C2418 1.427 . S
N2422 C2419 1.384 . S
N2423 C2415 1.427 . S
N2423 C2421 1.384 . S
H2424 C2430 0.930 . S
H2425 C2434 0.930 . S
H2426 C2439 0.929 . S
H2427 C2437 0.929 . S
H2428 C2432 0.929 . S
H2429 C2438 0.929 . S
C2430 H2424 0.930 . S
C2430 C2431 1.367 . S
C2430 C2438 1.378 . S
C2431 C2430 1.367 . S
C2431 C2439 1.433 . S
C2432 H2428 0.929 . S
C2432 C2434 1.378 . S
C2432 C2436 1.350 . S
C2433 C2436 1.463 . S
C2433 C2438 1.350 . S
C2433 N2441 1.427 . S
C2434 H2425 0.930 . S
C2434 C2432 1.378 . S
C2434 C2435 1.367 . S
C2435 C2434 1.367 . S
C2435 C2437 1.433 . S
C2436 C2432 1.350 . S
C2436 C2433 1.463 . S
C2436 N2440 1.427 . S
C2437 H2427 0.929 . S
C2437 C2435 1.433 . S
C2437 N2440 1.384 . S
C2438 H2429 0.929 . S
C2438 C2430 1.378 . S
C2438 C2433 1.350 . S
C2439 H2426 0.929 . S
C2439 C2431 1.433 . S
C2439 N2441 1.384 . S
N2440 C2436 1.427 . S
N2440 C2437 1.384 . S
N2441 C2433 1.427 . S
N2441 C2439 1.384 . S
H2442 C2448 0.930 . S
H2443 C2452 0.930 . S
H2444 C2457 0.929 . S
H2445 C2455 0.929 . S
H2446 C2450 0.929 . S
H2447 C2456 0.929 . S
C2448 H2442 0.930 . S
C2448 C2449 1.367 . S
C2448 C2456 1.378 . S
C2449 C2448 1.367 . S
C2449 C2457 1.433 . S
C2450 H2446 0.929 . S
C2450 C2452 1.378 . S
C2450 C2454 1.350 . S
C2451 C2454 1.463 . S
C2451 C2456 1.350 . S
C2451 N2459 1.427 . S
C2452 H2443 0.930 . S
C2452 C2450 1.378 . S
C2452 C2453 1.367 . S
C2453 C2452 1.367 . S
C2453 C2455 1.433 . S
C2454 C2450 1.350 . S
C2454 C2451 1.463 . S
C2454 N2458 1.427 . S
C2455 H2445 0.929 . S
C2455 C2453 1.433 . S
C2455 N2458 1.384 . S
C2456 H2447 0.929 . S
C2456 C2448 1.378 . S
C2456 C2451 1.350 . S
C2457 H2444 0.929 . S
C2457 C2449 1.433 . S
C2457 N2459 1.384 . S
N2458 C2454 1.427 . S
N2458 C2455 1.384 . S
N2459 C2451 1.427 . S
N2459 C2457 1.384 . S
H2460 C2466 0.930 . S
H2461 C2470 0.930 . S
H2462 C2475 0.929 . S
H2463 C2473 0.929 . S
H2464 C2468 0.929 . S
H2465 C2474 0.929 . S
C2466 H2460 0.930 . S
C2466 C2467 1.367 . S
C2466 C2474 1.378 . S
C2467 C2466 1.367 . S
C2467 C2475 1.433 . S
C2468 H2464 0.929 . S
C2468 C2470 1.378 . S
C2468 C2472 1.350 . S
C2469 C2472 1.463 . S
C2469 C2474 1.350 . S
C2469 N2477 1.427 . S
C2470 H2461 0.930 . S
C2470 C2468 1.378 . S
C2470 C2471 1.367 . S
C2471 C2470 1.367 . S
C2471 C2473 1.433 . S
C2472 C2468 1.350 . S
C2472 C2469 1.463 . S
C2472 N2476 1.427 . S
C2473 H2463 0.929 . S
C2473 C2471 1.433 . S
C2473 N2476 1.384 . S
C2474 H2465 0.929 . S
C2474 C2466 1.378 . S
C2474 C2469 1.350 . S
C2475 H2462 0.929 . S
C2475 C2467 1.433 . S
C2475 N2477 1.384 . S
N2476 C2472 1.427 . S
N2476 C2473 1.384 . S
N2477 C2469 1.427 . S
N2477 C2475 1.384 . S
H2478 C2484 0.930 . S
H2479 C2488 0.930 . S
H2480 C2493 0.929 . S
H2481 C2491 0.929 . S
H2482 C2486 0.929 . S
H2483 C2492 0.929 . S
C2484 H2478 0.930 . S
C2484 C2485 1.367 . S
C2484 C2492 1.378 . S
C2485 C2484 1.367 . S
C2485 C2493 1.433 . S
C2486 H2482 0.929 . S
C2486 C2488 1.378 . S
C2486 C2490 1.350 . S
C2487 C2490 1.463 . S
C2487 C2492 1.350 . S
C2487 N2495 1.427 . S
C2488 H2479 0.930 . S
C2488 C2486 1.378 . S
C2488 C2489 1.367 . S
C2489 C2488 1.367 . S
C2489 C2491 1.433 . S
C2490 C2486 1.350 . S
C2490 C2487 1.463 . S
C2490 N2494 1.427 . S
C2491 H2481 0.929 . S
C2491 C2489 1.433 . S
C2491 N2494 1.384 . S
C2492 H2483 0.929 . S
C2492 C2484 1.378 . S
C2492 C2487 1.350 . S
C2493 H2480 0.929 . S
C2493 C2485 1.433 . S
C2493 N2495 1.384 . S
N2494 C2490 1.427 . S
N2494 C2491 1.384 . S
N2495 C2487 1.427 . S
N2495 C2493 1.384 . S
H2496 C2502 0.930 . S
H2497 C2506 0.930 . S
H2498 C2511 0.929 . S
H2499 C2509 0.929 . S
H2500 C2504 0.929 . S
H2501 C2510 0.929 . S
C2502 H2496 0.930 . S
C2502 C2503 1.367 . S
C2502 C2510 1.378 . S
C2503 C2502 1.367 . S
C2503 C2511 1.433 . S
C2504 H2500 0.929 . S
C2504 C2506 1.378 . S
C2504 C2508 1.350 . S
C2505 C2508 1.463 . S
C2505 C2510 1.350 . S
C2505 N2513 1.427 . S
C2506 H2497 0.930 . S
C2506 C2504 1.378 . S
C2506 C2507 1.367 . S
C2507 C2506 1.367 . S
C2507 C2509 1.433 . S
C2508 C2504 1.350 . S
C2508 C2505 1.463 . S
C2508 N2512 1.427 . S
C2509 H2499 0.929 . S
C2509 C2507 1.433 . S
C2509 N2512 1.384 . S
C2510 H2501 0.929 . S
C2510 C2502 1.378 . S
C2510 C2505 1.350 . S
C2511 H2498 0.929 . S
C2511 C2503 1.433 . S
C2511 N2513 1.384 . S
N2512 C2508 1.427 . S
N2512 C2509 1.384 . S
N2513 C2505 1.427 . S
N2513 C2511 1.384 . S
H2514 C2520 0.930 . S
H2515 C2524 0.930 . S
H2516 C2529 0.929 . S
H2517 C2527 0.929 . S
H2518 C2522 0.929 . S
H2519 C2528 0.929 . S
C2520 H2514 0.930 . S
C2520 C2521 1.367 . S
C2520 C2528 1.378 . S
C2521 C2520 1.367 . S
C2521 C2529 1.433 . S
C2522 H2518 0.929 . S
C2522 C2524 1.378 . S
C2522 C2526 1.350 . S
C2523 C2526 1.463 . S
C2523 C2528 1.350 . S
C2523 N2531 1.427 . S
C2524 H2515 0.930 . S
C2524 C2522 1.378 . S
C2524 C2525 1.367 . S
C2525 C2524 1.367 . S
C2525 C2527 1.433 . S
C2526 C2522 1.350 . S
C2526 C2523 1.463 . S
C2526 N2530 1.427 . S
C2527 H2517 0.929 . S
C2527 C2525 1.433 . S
C2527 N2530 1.384 . S
C2528 H2519 0.929 . S
C2528 C2520 1.378 . S
C2528 C2523 1.350 . S
C2529 H2516 0.929 . S
C2529 C2521 1.433 . S
C2529 N2531 1.384 . S
N2530 C2526 1.427 . S
N2530 C2527 1.384 . S
N2531 C2523 1.427 . S
N2531 C2529 1.384 . S
H2532 C2538 0.930 . S
H2533 C2542 0.930 . S
H2534 C2547 0.929 . S
H2535 C2545 0.929 . S
H2536 C2540 0.929 . S
H2537 C2546 0.929 . S
C2538 H2532 0.930 . S
C2538 C2539 1.367 . S
C2538 C2546 1.378 . S
C2539 C2538 1.367 . S
C2539 C2547 1.433 . S
C2540 H2536 0.929 . S
C2540 C2542 1.378 . S
C2540 C2544 1.350 . S
C2541 C2544 1.463 . S
C2541 C2546 1.350 . S
C2541 N2549 1.427 . S
C2542 H2533 0.930 . S
C2542 C2540 1.378 . S
C2542 C2543 1.367 . S
C2543 C2542 1.367 . S
C2543 C2545 1.433 . S
C2544 C2540 1.350 . S
C2544 C2541 1.463 . S
C2544 N2548 1.427 . S
C2545 H2535 0.929 . S
C2545 C2543 1.433 . S
C2545 N2548 1.384 . S
C2546 H2537 0.929 . S
C2546 C2538 1.378 . S
C2546 C2541 1.350 . S
C2547 H2534 0.929 . S
C2547 C2539 1.433 . S
C2547 N2549 1.384 . S
N2548 C2544 1.427 . S
N2548 C2545 1.384 . S
N2549 C2541 1.427 . S
N2549 C2547 1.384 . S
H2550 C2556 0.930 . S
H2551 C2560 0.930 . S
H2552 C2565 0.929 . S
H2553 C2563 0.929 . S
H2554 C2558 0.929 . S
H2555 C2564 0.929 . S
C2556 H2550 0.930 . S
C2556 C2557 1.367 . S
C2556 C2564 1.378 . S
C2557 C2556 1.367 . S
C2557 C2565 1.433 . S
C2558 H2554 0.929 . S
C2558 C2560 1.378 . S
C2558 C2562 1.350 . S
C2559 C2562 1.463 . S
C2559 C2564 1.350 . S
C2559 N2567 1.427 . S
C2560 H2551 0.930 . S
C2560 C2558 1.378 . S
C2560 C2561 1.367 . S
C2561 C2560 1.367 . S
C2561 C2563 1.433 . S
C2562 C2558 1.350 . S
C2562 C2559 1.463 . S
C2562 N2566 1.427 . S
C2563 H2553 0.929 . S
C2563 C2561 1.433 . S
C2563 N2566 1.384 . S
C2564 H2555 0.929 . S
C2564 C2556 1.378 . S
C2564 C2559 1.350 . S
C2565 H2552 0.929 . S
C2565 C2557 1.433 . S
C2565 N2567 1.384 . S
N2566 C2562 1.427 . S
N2566 C2563 1.384 . S
N2567 C2559 1.427 . S
N2567 C2565 1.384 . S
H2568 C2574 0.930 . S
H2569 C2578 0.930 . S
H2570 C2583 0.929 . S
H2571 C2581 0.929 . S
H2572 C2576 0.929 . S
H2573 C2582 0.929 . S
C2574 H2568 0.930 . S
C2574 C2575 1.367 . S
C2574 C2582 1.378 . S
C2575 C2574 1.367 . S
C2575 C2583 1.433 . S
C2576 H2572 0.929 . S
C2576 C2578 1.378 . S
C2576 C2580 1.350 . S
C2577 C2580 1.463 . S
C2577 C2582 1.350 . S
C2577 N2585 1.427 . S
C2578 H2569 0.930 . S
C2578 C2576 1.378 . S
C2578 C2579 1.367 . S
C2579 C2578 1.367 . S
C2579 C2581 1.433 . S
C2580 C2576 1.350 . S
C2580 C2577 1.463 . S
C2580 N2584 1.427 . S
C2581 H2571 0.929 . S
C2581 C2579 1.433 . S
C2581 N2584 1.384 . S
C2582 H2573 0.929 . S
C2582 C2574 1.378 . S
C2582 C2577 1.350 . S
C2583 H2570 0.929 . S
C2583 C2575 1.433 . S
C2583 N2585 1.384 . S
N2584 C2580 1.427 . S
N2584 C2581 1.384 . S
N2585 C2577 1.427 . S
N2585 C2583 1.384 . S
H2586 C2592 0.930 . S
H2587 C2596 0.930 . S
H2588 C2601 0.929 . S
H2589 C2599 0.929 . S
H2590 C2594 0.929 . S
H2591 C2600 0.929 . S
C2592 H2586 0.930 . S
C2592 C2593 1.367 . S
C2592 C2600 1.378 . S
C2593 C2592 1.367 . S
C2593 C2601 1.433 . S
C2594 H2590 0.929 . S
C2594 C2596 1.378 . S
C2594 C2598 1.350 . S
C2595 C2598 1.463 . S
C2595 C2600 1.350 . S
C2595 N2603 1.427 . S
C2596 H2587 0.930 . S
C2596 C2594 1.378 . S
C2596 C2597 1.367 . S
C2597 C2596 1.367 . S
C2597 C2599 1.433 . S
C2598 C2594 1.350 . S
C2598 C2595 1.463 . S
C2598 N2602 1.427 . S
C2599 H2589 0.929 . S
C2599 C2597 1.433 . S
C2599 N2602 1.384 . S
C2600 H2591 0.929 . S
C2600 C2592 1.378 . S
C2600 C2595 1.350 . S
C2601 H2588 0.929 . S
C2601 C2593 1.433 . S
C2601 N2603 1.384 . S
N2602 C2598 1.427 . S
N2602 C2599 1.384 . S
N2603 C2595 1.427 . S
N2603 C2601 1.384 . S
H2604 C2610 0.930 . S
H2605 C2614 0.930 . S
H2606 C2619 0.929 . S
H2607 C2617 0.929 . S
H2608 C2612 0.929 . S
H2609 C2618 0.929 . S
C2610 H2604 0.930 . S
C2610 C2611 1.367 . S
C2610 C2618 1.378 . S
C2611 C2610 1.367 . S
C2611 C2619 1.433 . S
C2612 H2608 0.929 . S
C2612 C2614 1.378 . S
C2612 C2616 1.350 . S
C2613 C2616 1.463 . S
C2613 C2618 1.350 . S
C2613 N2621 1.427 . S
C2614 H2605 0.930 . S
C2614 C2612 1.378 . S
C2614 C2615 1.367 . S
C2615 C2614 1.367 . S
C2615 C2617 1.433 . S
C2616 C2612 1.350 . S
C2616 C2613 1.463 . S
C2616 N2620 1.427 . S
C2617 H2607 0.929 . S
C2617 C2615 1.433 . S
C2617 N2620 1.384 . S
C2618 H2609 0.929 . S
C2618 C2610 1.378 . S
C2618 C2613 1.350 . S
C2619 H2606 0.929 . S
C2619 C2611 1.433 . S
C2619 N2621 1.384 . S
N2620 C2616 1.427 . S
N2620 C2617 1.384 . S
N2621 C2613 1.427 . S
N2621 C2619 1.384 . S
H2622 C2628 0.930 . S
H2623 C2632 0.930 . S
H2624 C2637 0.929 . S
H2625 C2635 0.929 . S
H2626 C2630 0.929 . S
H2627 C2636 0.929 . S
C2628 H2622 0.930 . S
C2628 C2629 1.367 . S
C2628 C2636 1.378 . S
C2629 C2628 1.367 . S
C2629 C2637 1.433 . S
C2630 H2626 0.929 . S
C2630 C2632 1.378 . S
C2630 C2634 1.350 . S
C2631 C2634 1.463 . S
C2631 C2636 1.350 . S
C2631 N2639 1.427 . S
C2632 H2623 0.930 . S
C2632 C2630 1.378 . S
C2632 C2633 1.367 . S
C2633 C2632 1.367 . S
C2633 C2635 1.433 . S
C2634 C2630 1.350 . S
C2634 C2631 1.463 . S
C2634 N2638 1.427 . S
C2635 H2625 0.929 . S
C2635 C2633 1.433 . S
C2635 N2638 1.384 . S
C2636 H2627 0.929 . S
C2636 C2628 1.378 . S
C2636 C2631 1.350 . S
C2637 H2624 0.929 . S
C2637 C2629 1.433 . S
C2637 N2639 1.384 . S
N2638 C2634 1.427 . S
N2638 C2635 1.384 . S
N2639 C2631 1.427 . S
N2639 C2637 1.384 . S
H2640 C2646 0.930 . S
H2641 C2650 0.930 . S
H2642 C2655 0.929 . S
H2643 C2653 0.929 . S
H2644 C2648 0.929 . S
H2645 C2654 0.929 . S
C2646 H2640 0.930 . S
C2646 C2647 1.367 . S
C2646 C2654 1.378 . S
C2647 C2646 1.367 . S
C2647 C2655 1.433 . S
C2648 H2644 0.929 . S
C2648 C2650 1.378 . S
C2648 C2652 1.350 . S
C2649 C2652 1.463 . S
C2649 C2654 1.350 . S
C2649 N2657 1.427 . S
C2650 H2641 0.930 . S
C2650 C2648 1.378 . S
C2650 C2651 1.367 . S
C2651 C2650 1.367 . S
C2651 C2653 1.433 . S
C2652 C2648 1.350 . S
C2652 C2649 1.463 . S
C2652 N2656 1.427 . S
C2653 H2643 0.929 . S
C2653 C2651 1.433 . S
C2653 N2656 1.384 . S
C2654 H2645 0.929 . S
C2654 C2646 1.378 . S
C2654 C2649 1.350 . S
C2655 H2642 0.929 . S
C2655 C2647 1.433 . S
C2655 N2657 1.384 . S
N2656 C2652 1.427 . S
N2656 C2653 1.384 . S
N2657 C2649 1.427 . S
N2657 C2655 1.384 . S
H2658 C2664 0.930 . S
H2659 C2668 0.930 . S
H2660 C2673 0.929 . S
H2661 C2671 0.929 . S
H2662 C2666 0.929 . S
H2663 C2672 0.929 . S
C2664 H2658 0.930 . S
C2664 C2665 1.367 . S
C2664 C2672 1.378 . S
C2665 C2664 1.367 . S
C2665 C2673 1.433 . S
C2666 H2662 0.929 . S
C2666 C2668 1.378 . S
C2666 C2670 1.350 . S
C2667 C2670 1.463 . S
C2667 C2672 1.350 . S
C2667 N2675 1.427 . S
C2668 H2659 0.930 . S
C2668 C2666 1.378 . S
C2668 C2669 1.367 . S
C2669 C2668 1.367 . S
C2669 C2671 1.433 . S
C2670 C2666 1.350 . S
C2670 C2667 1.463 . S
C2670 N2674 1.427 . S
C2671 H2661 0.929 . S
C2671 C2669 1.433 . S
C2671 N2674 1.384 . S
C2672 H2663 0.929 . S
C2672 C2664 1.378 . S
C2672 C2667 1.350 . S
C2673 H2660 0.929 . S
C2673 C2665 1.433 . S
C2673 N2675 1.384 . S
N2674 C2670 1.427 . S
N2674 C2671 1.384 . S
N2675 C2667 1.427 . S
N2675 C2673 1.384 . S
H2676 C2682 0.930 . S
H2677 C2686 0.930 . S
H2678 C2691 0.929 . S
H2679 C2689 0.929 . S
H2680 C2684 0.929 . S
H2681 C2690 0.929 . S
C2682 H2676 0.930 . S
C2682 C2683 1.367 . S
C2682 C2690 1.378 . S
C2683 C2682 1.367 . S
C2683 C2691 1.433 . S
C2684 H2680 0.929 . S
C2684 C2686 1.378 . S
C2684 C2688 1.350 . S
C2685 C2688 1.463 . S
C2685 C2690 1.350 . S
C2685 N2693 1.427 . S
C2686 H2677 0.930 . S
C2686 C2684 1.378 . S
C2686 C2687 1.367 . S
C2687 C2686 1.367 . S
C2687 C2689 1.433 . S
C2688 C2684 1.350 . S
C2688 C2685 1.463 . S
C2688 N2692 1.427 . S
C2689 H2679 0.929 . S
C2689 C2687 1.433 . S
C2689 N2692 1.384 . S
C2690 H2681 0.929 . S
C2690 C2682 1.378 . S
C2690 C2685 1.350 . S
C2691 H2678 0.929 . S
C2691 C2683 1.433 . S
C2691 N2693 1.384 . S
N2692 C2688 1.427 . S
N2692 C2689 1.384 . S
N2693 C2685 1.427 . S
N2693 C2691 1.384 . S
H2694 C2700 0.930 . S
H2695 C2704 0.930 . S
H2696 C2709 0.929 . S
H2697 C2707 0.929 . S
H2698 C2702 0.929 . S
H2699 C2708 0.929 . S
C2700 H2694 0.930 . S
C2700 C2701 1.367 . S
C2700 C2708 1.378 . S
C2701 C2700 1.367 . S
C2701 C2709 1.433 . S
C2702 H2698 0.929 . S
C2702 C2704 1.378 . S
C2702 C2706 1.350 . S
C2703 C2706 1.463 . S
C2703 C2708 1.350 . S
C2703 N2711 1.427 . S
C2704 H2695 0.930 . S
C2704 C2702 1.378 . S
C2704 C2705 1.367 . S
C2705 C2704 1.367 . S
C2705 C2707 1.433 . S
C2706 C2702 1.350 . S
C2706 C2703 1.463 . S
C2706 N2710 1.427 . S
C2707 H2697 0.929 . S
C2707 C2705 1.433 . S
C2707 N2710 1.384 . S
C2708 H2699 0.929 . S
C2708 C2700 1.378 . S
C2708 C2703 1.350 . S
C2709 H2696 0.929 . S
C2709 C2701 1.433 . S
C2709 N2711 1.384 . S
N2710 C2706 1.427 . S
N2710 C2707 1.384 . S
N2711 C2703 1.427 . S
N2711 C2709 1.384 . S
H2712 C2718 0.930 . S
H2713 C2722 0.930 . S
H2714 C2727 0.929 . S
H2715 C2725 0.929 . S
H2716 C2720 0.929 . S
H2717 C2726 0.929 . S
C2718 H2712 0.930 . S
C2718 C2719 1.367 . S
C2718 C2726 1.378 . S
C2719 C2718 1.367 . S
C2719 C2727 1.433 . S
C2720 H2716 0.929 . S
C2720 C2722 1.378 . S
C2720 C2724 1.350 . S
C2721 C2724 1.463 . S
C2721 C2726 1.350 . S
C2721 N2729 1.427 . S
C2722 H2713 0.930 . S
C2722 C2720 1.378 . S
C2722 C2723 1.367 . S
C2723 C2722 1.367 . S
C2723 C2725 1.433 . S
C2724 C2720 1.350 . S
C2724 C2721 1.463 . S
C2724 N2728 1.427 . S
C2725 H2715 0.929 . S
C2725 C2723 1.433 . S
C2725 N2728 1.384 . S
C2726 H2717 0.929 . S
C2726 C2718 1.378 . S
C2726 C2721 1.350 . S
C2727 H2714 0.929 . S
C2727 C2719 1.433 . S
C2727 N2729 1.384 . S
N2728 C2724 1.427 . S
N2728 C2725 1.384 . S
N2729 C2721 1.427 . S
N2729 C2727 1.384 . S
H2730 C2736 0.930 . S
H2731 C2740 0.930 . S
H2732 C2745 0.929 . S
H2733 C2743 0.929 . S
H2734 C2738 0.929 . S
H2735 C2744 0.929 . S
C2736 H2730 0.930 . S
C2736 C2737 1.367 . S
C2736 C2744 1.378 . S
C2737 C2736 1.367 . S
C2737 C2745 1.433 . S
C2738 H2734 0.929 . S
C2738 C2740 1.378 . S
C2738 C2742 1.350 . S
C2739 C2742 1.463 . S
C2739 C2744 1.350 . S
C2739 N2747 1.427 . S
C2740 H2731 0.930 . S
C2740 C2738 1.378 . S
C2740 C2741 1.367 . S
C2741 C2740 1.367 . S
C2741 C2743 1.433 . S
C2742 C2738 1.350 . S
C2742 C2739 1.463 . S
C2742 N2746 1.427 . S
C2743 H2733 0.929 . S
C2743 C2741 1.433 . S
C2743 N2746 1.384 . S
C2744 H2735 0.929 . S
C2744 C2736 1.378 . S
C2744 C2739 1.350 . S
C2745 H2732 0.929 . S
C2745 C2737 1.433 . S
C2745 N2747 1.384 . S
N2746 C2742 1.427 . S
N2746 C2743 1.384 . S
N2747 C2739 1.427 . S
N2747 C2745 1.384 . S
H2748 C2754 0.930 . S
H2749 C2758 0.930 . S
H2750 C2763 0.929 . S
H2751 C2761 0.929 . S
H2752 C2756 0.929 . S
H2753 C2762 0.929 . S
C2754 H2748 0.930 . S
C2754 C2755 1.367 . S
C2754 C2762 1.378 . S
C2755 C2754 1.367 . S
C2755 C2763 1.433 . S
C2756 H2752 0.929 . S
C2756 C2758 1.378 . S
C2756 C2760 1.350 . S
C2757 C2760 1.463 . S
C2757 C2762 1.350 . S
C2757 N2765 1.427 . S
C2758 H2749 0.930 . S
C2758 C2756 1.378 . S
C2758 C2759 1.367 . S
C2759 C2758 1.367 . S
C2759 C2761 1.433 . S
C2760 C2756 1.350 . S
C2760 C2757 1.463 . S
C2760 N2764 1.427 . S
C2761 H2751 0.929 . S
C2761 C2759 1.433 . S
C2761 N2764 1.384 . S
C2762 H2753 0.929 . S
C2762 C2754 1.378 . S
C2762 C2757 1.350 . S
C2763 H2750 0.929 . S
C2763 C2755 1.433 . S
C2763 N2765 1.384 . S
N2764 C2760 1.427 . S
N2764 C2761 1.384 . S
N2765 C2757 1.427 . S
N2765 C2763 1.384 . S
H2766 C2772 0.930 . S
H2767 C2776 0.930 . S
H2768 C2781 0.929 . S
H2769 C2779 0.929 . S
H2770 C2774 0.929 . S
H2771 C2780 0.929 . S
C2772 H2766 0.930 . S
C2772 C2773 1.367 . S
C2772 C2780 1.378 . S
C2773 C2772 1.367 . S
C2773 C2781 1.433 . S
C2774 H2770 0.929 . S
C2774 C2776 1.378 . S
C2774 C2778 1.350 . S
C2775 C2778 1.463 . S
C2775 C2780 1.350 . S
C2775 N2783 1.427 . S
C2776 H2767 0.930 . S
C2776 C2774 1.378 . S
C2776 C2777 1.367 . S
C2777 C2776 1.367 . S
C2777 C2779 1.433 . S
C2778 C2774 1.350 . S
C2778 C2775 1.463 . S
C2778 N2782 1.427 . S
C2779 H2769 0.929 . S
C2779 C2777 1.433 . S
C2779 N2782 1.384 . S
C2780 H2771 0.929 . S
C2780 C2772 1.378 . S
C2780 C2775 1.350 . S
C2781 H2768 0.929 . S
C2781 C2773 1.433 . S
C2781 N2783 1.384 . S
N2782 C2778 1.427 . S
N2782 C2779 1.384 . S
N2783 C2775 1.427 . S
N2783 C2781 1.384 . S
H2784 C2790 0.930 . S
H2785 C2794 0.930 . S
H2786 C2799 0.929 . S
H2787 C2797 0.929 . S
H2788 C2792 0.929 . S
H2789 C2798 0.929 . S
C2790 H2784 0.930 . S
C2790 C2791 1.367 . S
C2790 C2798 1.378 . S
C2791 C2790 1.367 . S
C2791 C2799 1.433 . S
C2792 H2788 0.929 . S
C2792 C2794 1.378 . S
C2792 C2796 1.350 . S
C2793 C2796 1.463 . S
C2793 C2798 1.350 . S
C2793 N2801 1.427 . S
C2794 H2785 0.930 . S
C2794 C2792 1.378 . S
C2794 C2795 1.367 . S
C2795 C2794 1.367 . S
C2795 C2797 1.433 . S
C2796 C2792 1.350 . S
C2796 C2793 1.463 . S
C2796 N2800 1.427 . S
C2797 H2787 0.929 . S
C2797 C2795 1.433 . S
C2797 N2800 1.384 . S
C2798 H2789 0.929 . S
C2798 C2790 1.378 . S
C2798 C2793 1.350 . S
C2799 H2786 0.929 . S
C2799 C2791 1.433 . S
C2799 N2801 1.384 . S
N2800 C2796 1.427 . S
N2800 C2797 1.384 . S
N2801 C2793 1.427 . S
N2801 C2799 1.384 . S
H2802 C2808 0.930 . S
H2803 C2812 0.930 . S
H2804 C2817 0.929 . S
H2805 C2815 0.929 . S
H2806 C2810 0.929 . S
H2807 C2816 0.929 . S
C2808 H2802 0.930 . S
C2808 C2809 1.367 . S
C2808 C2816 1.378 . S
C2809 C2808 1.367 . S
C2809 C2817 1.433 . S
C2810 H2806 0.929 . S
C2810 C2812 1.378 . S
C2810 C2814 1.350 . S
C2811 C2814 1.463 . S
C2811 C2816 1.350 . S
C2811 N2819 1.427 . S
C2812 H2803 0.930 . S
C2812 C2810 1.378 . S
C2812 C2813 1.367 . S
C2813 C2812 1.367 . S
C2813 C2815 1.433 . S
C2814 C2810 1.350 . S
C2814 C2811 1.463 . S
C2814 N2818 1.427 . S
C2815 H2805 0.929 . S
C2815 C2813 1.433 . S
C2815 N2818 1.384 . S
C2816 H2807 0.929 . S
C2816 C2808 1.378 . S
C2816 C2811 1.350 . S
C2817 H2804 0.929 . S
C2817 C2809 1.433 . S
C2817 N2819 1.384 . S
N2818 C2814 1.427 . S
N2818 C2815 1.384 . S
N2819 C2811 1.427 . S
N2819 C2817 1.384 . S
H2820 C2826 0.930 . S
H2821 C2830 0.930 . S
H2822 C2835 0.929 . S
H2823 C2833 0.929 . S
H2824 C2828 0.929 . S
H2825 C2834 0.929 . S
C2826 H2820 0.930 . S
C2826 C2827 1.367 . S
C2826 C2834 1.378 . S
C2827 C2826 1.367 . S
C2827 C2835 1.433 . S
C2828 H2824 0.929 . S
C2828 C2830 1.378 . S
C2828 C2832 1.350 . S
C2829 C2832 1.463 . S
C2829 C2834 1.350 . S
C2829 N2837 1.427 . S
C2830 H2821 0.930 . S
C2830 C2828 1.378 . S
C2830 C2831 1.367 . S
C2831 C2830 1.367 . S
C2831 C2833 1.433 . S
C2832 C2828 1.350 . S
C2832 C2829 1.463 . S
C2832 N2836 1.427 . S
C2833 H2823 0.929 . S
C2833 C2831 1.433 . S
C2833 N2836 1.384 . S
C2834 H2825 0.929 . S
C2834 C2826 1.378 . S
C2834 C2829 1.350 . S
C2835 H2822 0.929 . S
C2835 C2827 1.433 . S
C2835 N2837 1.384 . S
N2836 C2832 1.427 . S
N2836 C2833 1.384 . S
N2837 C2829 1.427 . S
N2837 C2835 1.384 . S
H2838 C2844 0.930 . S
H2839 C2848 0.930 . S
H2840 C2853 0.929 . S
H2841 C2851 0.929 . S
H2842 C2846 0.929 . S
H2843 C2852 0.929 . S
C2844 H2838 0.930 . S
C2844 C2845 1.367 . S
C2844 C2852 1.378 . S
C2845 C2844 1.367 . S
C2845 C2853 1.433 . S
C2846 H2842 0.929 . S
C2846 C2848 1.378 . S
C2846 C2850 1.350 . S
C2847 C2850 1.463 . S
C2847 C2852 1.350 . S
C2847 N2855 1.427 . S
C2848 H2839 0.930 . S
C2848 C2846 1.378 . S
C2848 C2849 1.367 . S
C2849 C2848 1.367 . S
C2849 C2851 1.433 . S
C2850 C2846 1.350 . S
C2850 C2847 1.463 . S
C2850 N2854 1.427 . S
C2851 H2841 0.929 . S
C2851 C2849 1.433 . S
C2851 N2854 1.384 . S
C2852 H2843 0.929 . S
C2852 C2844 1.378 . S
C2852 C2847 1.350 . S
C2853 H2840 0.929 . S
C2853 C2845 1.433 . S
C2853 N2855 1.384 . S
N2854 C2850 1.427 . S
N2854 C2851 1.384 . S
N2855 C2847 1.427 . S
N2855 C2853 1.384 . S
H2856 C2862 0.930 . S
H2857 C2866 0.930 . S
H2858 C2871 0.929 . S
H2859 C2869 0.929 . S
H2860 C2864 0.929 . S
H2861 C2870 0.929 . S
C2862 H2856 0.930 . S
C2862 C2863 1.367 . S
C2862 C2870 1.378 . S
C2863 C2862 1.367 . S
C2863 C2871 1.433 . S
C2864 H2860 0.929 . S
C2864 C2866 1.378 . S
C2864 C2868 1.350 . S
C2865 C2868 1.463 . S
C2865 C2870 1.350 . S
C2865 N2873 1.427 . S
C2866 H2857 0.930 . S
C2866 C2864 1.378 . S
C2866 C2867 1.367 . S
C2867 C2866 1.367 . S
C2867 C2869 1.433 . S
C2868 C2864 1.350 . S
C2868 C2865 1.463 . S
C2868 N2872 1.427 . S
C2869 H2859 0.929 . S
C2869 C2867 1.433 . S
C2869 N2872 1.384 . S
C2870 H2861 0.929 . S
C2870 C2862 1.378 . S
C2870 C2865 1.350 . S
C2871 H2858 0.929 . S
C2871 C2863 1.433 . S
C2871 N2873 1.384 . S
N2872 C2868 1.427 . S
N2872 C2869 1.384 . S
N2873 C2865 1.427 . S
N2873 C2871 1.384 . S
H2874 C2880 0.930 . S
H2875 C2884 0.930 . S
H2876 C2889 0.929 . S
H2877 C2887 0.929 . S
H2878 C2882 0.929 . S
H2879 C2888 0.929 . S
C2880 H2874 0.930 . S
C2880 C2881 1.367 . S
C2880 C2888 1.378 . S
C2881 C2880 1.367 . S
C2881 C2889 1.433 . S
C2882 H2878 0.929 . S
C2882 C2884 1.378 . S
C2882 C2886 1.350 . S
C2883 C2886 1.463 . S
C2883 C2888 1.350 . S
C2883 N2891 1.427 . S
C2884 H2875 0.930 . S
C2884 C2882 1.378 . S
C2884 C2885 1.367 . S
C2885 C2884 1.367 . S
C2885 C2887 1.433 . S
C2886 C2882 1.350 . S
C2886 C2883 1.463 . S
C2886 N2890 1.427 . S
C2887 H2877 0.929 . S
C2887 C2885 1.433 . S
C2887 N2890 1.384 . S
C2888 H2879 0.929 . S
C2888 C2880 1.378 . S
C2888 C2883 1.350 . S
C2889 H2876 0.929 . S
C2889 C2881 1.433 . S
C2889 N2891 1.384 . S
N2890 C2886 1.427 . S
N2890 C2887 1.384 . S
N2891 C2883 1.427 . S
N2891 C2889 1.384 . S
H2892 C2898 0.930 . S
H2893 C2902 0.930 . S
H2894 C2907 0.929 . S
H2895 C2905 0.929 . S
H2896 C2900 0.929 . S
H2897 C2906 0.929 . S
C2898 H2892 0.930 . S
C2898 C2899 1.367 . S
C2898 C2906 1.378 . S
C2899 C2898 1.367 . S
C2899 C2907 1.433 . S
C2900 H2896 0.929 . S
C2900 C2902 1.378 . S
C2900 C2904 1.350 . S
C2901 C2904 1.463 . S
C2901 C2906 1.350 . S
C2901 N2909 1.427 . S
C2902 H2893 0.930 . S
C2902 C2900 1.378 . S
C2902 C2903 1.367 . S
C2903 C2902 1.367 . S
C2903 C2905 1.433 . S
C2904 C2900 1.350 . S
C2904 C2901 1.463 . S
C2904 N2908 1.427 . S
C2905 H2895 0.929 . S
C2905 C2903 1.433 . S
C2905 N2908 1.384 . S
C2906 H2897 0.929 . S
C2906 C2898 1.378 . S
C2906 C2901 1.350 . S
C2907 H2894 0.929 . S
C2907 C2899 1.433 . S
C2907 N2909 1.384 . S
N2908 C2904 1.427 . S
N2908 C2905 1.384 . S
N2909 C2901 1.427 . S
N2909 C2907 1.384 . S
H2910 C2916 0.930 . S
H2911 C2920 0.930 . S
H2912 C2925 0.929 . S
H2913 C2923 0.929 . S
H2914 C2918 0.929 . S
H2915 C2924 0.929 . S
C2916 H2910 0.930 . S
C2916 C2917 1.367 . S
C2916 C2924 1.378 . S
C2917 C2916 1.367 . S
C2917 C2925 1.433 . S
C2918 H2914 0.929 . S
C2918 C2920 1.378 . S
C2918 C2922 1.350 . S
C2919 C2922 1.463 . S
C2919 C2924 1.350 . S
C2919 N2927 1.427 . S
C2920 H2911 0.930 . S
C2920 C2918 1.378 . S
C2920 C2921 1.367 . S
C2921 C2920 1.367 . S
C2921 C2923 1.433 . S
C2922 C2918 1.350 . S
C2922 C2919 1.463 . S
C2922 N2926 1.427 . S
C2923 H2913 0.929 . S
C2923 C2921 1.433 . S
C2923 N2926 1.384 . S
C2924 H2915 0.929 . S
C2924 C2916 1.378 . S
C2924 C2919 1.350 . S
C2925 H2912 0.929 . S
C2925 C2917 1.433 . S
C2925 N2927 1.384 . S
N2926 C2922 1.427 . S
N2926 C2923 1.384 . S
N2927 C2919 1.427 . S
N2927 C2925 1.384 . S
H2928 C2934 0.930 . S
H2929 C2938 0.930 . S
H2930 C2943 0.929 . S
H2931 C2941 0.929 . S
H2932 C2936 0.929 . S
H2933 C2942 0.929 . S
C2934 H2928 0.930 . S
C2934 C2935 1.367 . S
C2934 C2942 1.378 . S
C2935 C2934 1.367 . S
C2935 C2943 1.433 . S
C2936 H2932 0.929 . S
C2936 C2938 1.378 . S
C2936 C2940 1.350 . S
C2937 C2940 1.463 . S
C2937 C2942 1.350 . S
C2937 N2945 1.427 . S
C2938 H2929 0.930 . S
C2938 C2936 1.378 . S
C2938 C2939 1.367 . S
C2939 C2938 1.367 . S
C2939 C2941 1.433 . S
C2940 C2936 1.350 . S
C2940 C2937 1.463 . S
C2940 N2944 1.427 . S
C2941 H2931 0.929 . S
C2941 C2939 1.433 . S
C2941 N2944 1.384 . S
C2942 H2933 0.929 . S
C2942 C2934 1.378 . S
C2942 C2937 1.350 . S
C2943 H2930 0.929 . S
C2943 C2935 1.433 . S
C2943 N2945 1.384 . S
N2944 C2940 1.427 . S
N2944 C2941 1.384 . S
N2945 C2937 1.427 . S
N2945 C2943 1.384 . S
H2946 C2952 0.930 . S
H2947 C2956 0.930 . S
H2948 C2961 0.929 . S
H2949 C2959 0.929 . S
H2950 C2954 0.929 . S
H2951 C2960 0.929 . S
C2952 H2946 0.930 . S
C2952 C2953 1.367 . S
C2952 C2960 1.378 . S
C2953 C2952 1.367 . S
C2953 C2961 1.433 . S
C2954 H2950 0.929 . S
C2954 C2956 1.378 . S
C2954 C2958 1.350 . S
C2955 C2958 1.463 . S
C2955 C2960 1.350 . S
C2955 N2963 1.427 . S
C2956 H2947 0.930 . S
C2956 C2954 1.378 . S
C2956 C2957 1.367 . S
C2957 C2956 1.367 . S
C2957 C2959 1.433 . S
C2958 C2954 1.350 . S
C2958 C2955 1.463 . S
C2958 N2962 1.427 . S
C2959 H2949 0.929 . S
C2959 C2957 1.433 . S
C2959 N2962 1.384 . S
C2960 H2951 0.929 . S
C2960 C2952 1.378 . S
C2960 C2955 1.350 . S
C2961 H2948 0.929 . S
C2961 C2953 1.433 . S
C2961 N2963 1.384 . S
N2962 C2958 1.427 . S
N2962 C2959 1.384 . S
N2963 C2955 1.427 . S
N2963 C2961 1.384 . S
H2964 C2970 0.930 . S
H2965 C2974 0.930 . S
H2966 C2979 0.929 . S
H2967 C2977 0.929 . S
H2968 C2972 0.929 . S
H2969 C2978 0.929 . S
C2970 H2964 0.930 . S
C2970 C2971 1.367 . S
C2970 C2978 1.378 . S
C2971 C2970 1.367 . S
C2971 C2979 1.433 . S
C2972 H2968 0.929 . S
C2972 C2974 1.378 . S
C2972 C2976 1.350 . S
C2973 C2976 1.463 . S
C2973 C2978 1.350 . S
C2973 N2981 1.427 . S
C2974 H2965 0.930 . S
C2974 C2972 1.378 . S
C2974 C2975 1.367 . S
C2975 C2974 1.367 . S
C2975 C2977 1.433 . S
C2976 C2972 1.350 . S
C2976 C2973 1.463 . S
C2976 N2980 1.427 . S
C2977 H2967 0.929 . S
C2977 C2975 1.433 . S
C2977 N2980 1.384 . S
C2978 H2969 0.929 . S
C2978 C2970 1.378 . S
C2978 C2973 1.350 . S
C2979 H2966 0.929 . S
C2979 C2971 1.433 . S
C2979 N2981 1.384 . S
N2980 C2976 1.427 . S
N2980 C2977 1.384 . S
N2981 C2973 1.427 . S
N2981 C2979 1.384 . S
H2982 C2988 0.930 . S
H2983 C2992 0.930 . S
H2984 C2997 0.929 . S
H2985 C2995 0.929 . S
H2986 C2990 0.929 . S
H2987 C2996 0.929 . S
C2988 H2982 0.930 . S
C2988 C2989 1.367 . S
C2988 C2996 1.378 . S
C2989 C2988 1.367 . S
C2989 C2997 1.433 . S
C2990 H2986 0.929 . S
C2990 C2992 1.378 . S
C2990 C2994 1.350 . S
C2991 C2994 1.463 . S
C2991 C2996 1.350 . S
C2991 N2999 1.427 . S
C2992 H2983 0.930 . S
C2992 C2990 1.378 . S
C2992 C2993 1.367 . S
C2993 C2992 1.367 . S
C2993 C2995 1.433 . S
C2994 C2990 1.350 . S
C2994 C2991 1.463 . S
C2994 N2998 1.427 . S
C2995 H2985 0.929 . S
C2995 C2993 1.433 . S
C2995 N2998 1.384 . S
C2996 H2987 0.929 . S
C2996 C2988 1.378 . S
C2996 C2991 1.350 . S
C2997 H2984 0.929 . S
C2997 C2989 1.433 . S
C2997 N2999 1.384 . S
N2998 C2994 1.427 . S
N2998 C2995 1.384 . S
N2999 C2991 1.427 . S
N2999 C2997 1.384 . S
H3000 C3006 0.930 . S
H3001 C3010 0.930 . S
H3002 C3015 0.929 . S
H3003 C3013 0.929 . S
H3004 C3008 0.929 . S
H3005 C3014 0.929 . S
C3006 H3000 0.930 . S
C3006 C3007 1.367 . S
C3006 C3014 1.378 . S
C3007 C3006 1.367 . S
C3007 C3015 1.433 . S
C3008 H3004 0.929 . S
C3008 C3010 1.378 . S
C3008 C3012 1.350 . S
C3009 C3012 1.463 . S
C3009 C3014 1.350 . S
C3009 N3017 1.427 . S
C3010 H3001 0.930 . S
C3010 C3008 1.378 . S
C3010 C3011 1.367 . S
C3011 C3010 1.367 . S
C3011 C3013 1.433 . S
C3012 C3008 1.350 . S
C3012 C3009 1.463 . S
C3012 N3016 1.427 . S
C3013 H3003 0.929 . S
C3013 C3011 1.433 . S
C3013 N3016 1.384 . S
C3014 H3005 0.929 . S
C3014 C3006 1.378 . S
C3014 C3009 1.350 . S
C3015 H3002 0.929 . S
C3015 C3007 1.433 . S
C3015 N3017 1.384 . S
N3016 C3012 1.427 . S
N3016 C3013 1.384 . S
N3017 C3009 1.427 . S
N3017 C3015 1.384 . S
H3018 C3024 0.930 . S
H3019 C3028 0.930 . S
H3020 C3033 0.929 . S
H3021 C3031 0.929 . S
H3022 C3026 0.929 . S
H3023 C3032 0.929 . S
C3024 H3018 0.930 . S
C3024 C3025 1.367 . S
C3024 C3032 1.378 . S
C3025 C3024 1.367 . S
C3025 C3033 1.433 . S
C3026 H3022 0.929 . S
C3026 C3028 1.378 . S
C3026 C3030 1.350 . S
C3027 C3030 1.463 . S
C3027 C3032 1.350 . S
C3027 N3035 1.427 . S
C3028 H3019 0.930 . S
C3028 C3026 1.378 . S
C3028 C3029 1.367 . S
C3029 C3028 1.367 . S
C3029 C3031 1.433 . S
C3030 C3026 1.350 . S
C3030 C3027 1.463 . S
C3030 N3034 1.427 . S
C3031 H3021 0.929 . S
C3031 C3029 1.433 . S
C3031 N3034 1.384 . S
C3032 H3023 0.929 . S
C3032 C3024 1.378 . S
C3032 C3027 1.350 . S
C3033 H3020 0.929 . S
C3033 C3025 1.433 . S
C3033 N3035 1.384 . S
N3034 C3030 1.427 . S
N3034 C3031 1.384 . S
N3035 C3027 1.427 . S
N3035 C3033 1.384 . S
H3036 C3042 0.930 . S
H3037 C3046 0.930 . S
H3038 C3051 0.929 . S
H3039 C3049 0.929 . S
H3040 C3044 0.929 . S
H3041 C3050 0.929 . S
C3042 H3036 0.930 . S
C3042 C3043 1.367 . S
C3042 C3050 1.378 . S
C3043 C3042 1.367 . S
C3043 C3051 1.433 . S
C3044 H3040 0.929 . S
C3044 C3046 1.378 . S
C3044 C3048 1.350 . S
C3045 C3048 1.463 . S
C3045 C3050 1.350 . S
C3045 N3053 1.427 . S
C3046 H3037 0.930 . S
C3046 C3044 1.378 . S
C3046 C3047 1.367 . S
C3047 C3046 1.367 . S
C3047 C3049 1.433 . S
C3048 C3044 1.350 . S
C3048 C3045 1.463 . S
C3048 N3052 1.427 . S
C3049 H3039 0.929 . S
C3049 C3047 1.433 . S
C3049 N3052 1.384 . S
C3050 H3041 0.929 . S
C3050 C3042 1.378 . S
C3050 C3045 1.350 . S
C3051 H3038 0.929 . S
C3051 C3043 1.433 . S
C3051 N3053 1.384 . S
N3052 C3048 1.427 . S
N3052 C3049 1.384 . S
N3053 C3045 1.427 . S
N3053 C3051 1.384 . S
H3054 C3060 0.930 . S
H3055 C3064 0.930 . S
H3056 C3069 0.929 . S
H3057 C3067 0.929 . S
H3058 C3062 0.929 . S
H3059 C3068 0.929 . S
C3060 H3054 0.930 . S
C3060 C3061 1.367 . S
C3060 C3068 1.378 . S
C3061 C3060 1.367 . S
C3061 C3069 1.433 . S
C3062 H3058 0.929 . S
C3062 C3064 1.378 . S
C3062 C3066 1.350 . S
C3063 C3066 1.463 . S
C3063 C3068 1.350 . S
C3063 N3071 1.427 . S
C3064 H3055 0.930 . S
C3064 C3062 1.378 . S
C3064 C3065 1.367 . S
C3065 C3064 1.367 . S
C3065 C3067 1.433 . S
C3066 C3062 1.350 . S
C3066 C3063 1.463 . S
C3066 N3070 1.427 . S
C3067 H3057 0.929 . S
C3067 C3065 1.433 . S
C3067 N3070 1.384 . S
C3068 H3059 0.929 . S
C3068 C3060 1.378 . S
C3068 C3063 1.350 . S
C3069 H3056 0.929 . S
C3069 C3061 1.433 . S
C3069 N3071 1.384 . S
N3070 C3066 1.427 . S
N3070 C3067 1.384 . S
N3071 C3063 1.427 . S
N3071 C3069 1.384 . S
H3072 C3078 0.930 . S
H3073 C3082 0.930 . S
H3074 C3087 0.929 . S
H3075 C3085 0.929 . S
H3076 C3080 0.929 . S
H3077 C3086 0.929 . S
C3078 H3072 0.930 . S
C3078 C3079 1.367 . S
C3078 C3086 1.378 . S
C3079 C3078 1.367 . S
C3079 C3087 1.433 . S
C3080 H3076 0.929 . S
C3080 C3082 1.378 . S
C3080 C3084 1.350 . S
C3081 C3084 1.463 . S
C3081 C3086 1.350 . S
C3081 N3089 1.427 . S
C3082 H3073 0.930 . S
C3082 C3080 1.378 . S
C3082 C3083 1.367 . S
C3083 C3082 1.367 . S
C3083 C3085 1.433 . S
C3084 C3080 1.350 . S
C3084 C3081 1.463 . S
C3084 N3088 1.427 . S
C3085 H3075 0.929 . S
C3085 C3083 1.433 . S
C3085 N3088 1.384 . S
C3086 H3077 0.929 . S
C3086 C3078 1.378 . S
C3086 C3081 1.350 . S
C3087 H3074 0.929 . S
C3087 C3079 1.433 . S
C3087 N3089 1.384 . S
N3088 C3084 1.427 . S
N3088 C3085 1.384 . S
N3089 C3081 1.427 . S
N3089 C3087 1.384 . S
H3090 C3096 0.930 . S
H3091 C3100 0.930 . S
H3092 C3105 0.929 . S
H3093 C3103 0.929 . S
H3094 C3098 0.929 . S
H3095 C3104 0.929 . S
C3096 H3090 0.930 . S
C3096 C3097 1.367 . S
C3096 C3104 1.378 . S
C3097 C3096 1.367 . S
C3097 C3105 1.433 . S
C3098 H3094 0.929 . S
C3098 C3100 1.378 . S
C3098 C3102 1.350 . S
C3099 C3102 1.463 . S
C3099 C3104 1.350 . S
C3099 N3107 1.427 . S
C3100 H3091 0.930 . S
C3100 C3098 1.378 . S
C3100 C3101 1.367 . S
C3101 C3100 1.367 . S
C3101 C3103 1.433 . S
C3102 C3098 1.350 . S
C3102 C3099 1.463 . S
C3102 N3106 1.427 . S
C3103 H3093 0.929 . S
C3103 C3101 1.433 . S
C3103 N3106 1.384 . S
C3104 H3095 0.929 . S
C3104 C3096 1.378 . S
C3104 C3099 1.350 . S
C3105 H3092 0.929 . S
C3105 C3097 1.433 . S
C3105 N3107 1.384 . S
N3106 C3102 1.427 . S
N3106 C3103 1.384 . S
N3107 C3099 1.427 . S
N3107 C3105 1.384 . S
H3108 C3114 0.930 . S
H3109 C3118 0.930 . S
H3110 C3123 0.929 . S
H3111 C3121 0.929 . S
H3112 C3116 0.929 . S
H3113 C3122 0.929 . S
C3114 H3108 0.930 . S
C3114 C3115 1.367 . S
C3114 C3122 1.378 . S
C3115 C3114 1.367 . S
C3115 C3123 1.433 . S
C3116 H3112 0.929 . S
C3116 C3118 1.378 . S
C3116 C3120 1.350 . S
C3117 C3120 1.463 . S
C3117 C3122 1.350 . S
C3117 N3125 1.427 . S
C3118 H3109 0.930 . S
C3118 C3116 1.378 . S
C3118 C3119 1.367 . S
C3119 C3118 1.367 . S
C3119 C3121 1.433 . S
C3120 C3116 1.350 . S
C3120 C3117 1.463 . S
C3120 N3124 1.427 . S
C3121 H3111 0.929 . S
C3121 C3119 1.433 . S
C3121 N3124 1.384 . S
C3122 H3113 0.929 . S
C3122 C3114 1.378 . S
C3122 C3117 1.350 . S
C3123 H3110 0.929 . S
C3123 C3115 1.433 . S
C3123 N3125 1.384 . S
N3124 C3120 1.427 . S
N3124 C3121 1.384 . S
N3125 C3117 1.427 . S
N3125 C3123 1.384 . S
H3126 C3132 0.930 . S
H3127 C3136 0.930 . S
H3128 C3141 0.929 . S
H3129 C3139 0.929 . S
H3130 C3134 0.929 . S
H3131 C3140 0.929 . S
C3132 H3126 0.930 . S
C3132 C3133 1.367 . S
C3132 C3140 1.378 . S
C3133 C3132 1.367 . S
C3133 C3141 1.433 . S
C3134 H3130 0.929 . S
C3134 C3136 1.378 . S
C3134 C3138 1.350 . S
C3135 C3138 1.463 . S
C3135 C3140 1.350 . S
C3135 N3143 1.427 . S
C3136 H3127 0.930 . S
C3136 C3134 1.378 . S
C3136 C3137 1.367 . S
C3137 C3136 1.367 . S
C3137 C3139 1.433 . S
C3138 C3134 1.350 . S
C3138 C3135 1.463 . S
C3138 N3142 1.427 . S
C3139 H3129 0.929 . S
C3139 C3137 1.433 . S
C3139 N3142 1.384 . S
C3140 H3131 0.929 . S
C3140 C3132 1.378 . S
C3140 C3135 1.350 . S
C3141 H3128 0.929 . S
C3141 C3133 1.433 . S
C3141 N3143 1.384 . S
N3142 C3138 1.427 . S
N3142 C3139 1.384 . S
N3143 C3135 1.427 . S
N3143 C3141 1.384 . S
H3144 C3150 0.930 . S
H3145 C3154 0.930 . S
H3146 C3159 0.929 . S
H3147 C3157 0.929 1_556 S
H3148 C3152 0.929 . S
H3149 C3158 0.929 . S
C3150 H3144 0.930 . S
C3150 C3151 1.367 . S
C3150 C3158 1.378 . S
C3151 C3150 1.367 . S
C3151 C3159 1.433 . S
C3152 H3148 0.929 . S
C3152 C3154 1.378 . S
C3152 C3156 1.350 . S
C3153 C3156 1.463 . S
C3153 C3158 1.350 . S
C3153 N3161 1.427 . S
C3154 H3145 0.930 . S
C3154 C3152 1.378 . S
C3154 C3155 1.367 . S
C3155 C3154 1.367 . S
C3155 C3157 1.433 . S
C3156 C3152 1.350 . S
C3156 C3153 1.463 . S
C3156 N3160 1.427 . S
C3157 H3147 0.929 1_554 S
C3157 C3155 1.433 . S
C3157 N3160 1.384 . S
C3158 H3149 0.929 . S
C3158 C3150 1.378 . S
C3158 C3153 1.350 . S
C3159 H3146 0.929 . S
C3159 C3151 1.433 . S
C3159 N3161 1.384 . S
N3160 C3156 1.427 . S
N3160 C3157 1.384 . S
N3161 C3153 1.427 . S
N3161 C3159 1.384 . S
H3162 C3168 0.930 . S
H3163 C3172 0.930 . S
H3164 C3177 0.929 . S
H3165 C3175 0.929 . S
H3166 C3170 0.929 . S
H3167 C3176 0.929 . S
C3168 H3162 0.930 . S
C3168 C3169 1.367 . S
C3168 C3176 1.378 . S
C3169 C3168 1.367 . S
C3169 C3177 1.433 . S
C3170 H3166 0.929 . S
C3170 C3172 1.378 . S
C3170 C3174 1.350 . S
C3171 C3174 1.463 . S
C3171 C3176 1.350 . S
C3171 N3179 1.427 . S
C3172 H3163 0.930 . S
C3172 C3170 1.378 . S
C3172 C3173 1.367 . S
C3173 C3172 1.367 . S
C3173 C3175 1.433 . S
C3174 C3170 1.350 . S
C3174 C3171 1.463 . S
C3174 N3178 1.427 . S
C3175 H3165 0.929 . S
C3175 C3173 1.433 . S
C3175 N3178 1.384 . S
C3176 H3167 0.929 . S
C3176 C3168 1.378 . S
C3176 C3171 1.350 . S
C3177 H3164 0.929 . S
C3177 C3169 1.433 . S
C3177 N3179 1.384 . S
N3178 C3174 1.427 . S
N3178 C3175 1.384 . S
N3179 C3171 1.427 . S
N3179 C3177 1.384 . S
H3180 C3186 0.930 . S
H3181 C3190 0.930 . S
H3182 C3195 0.929 . S
H3183 C3193 0.929 . S
H3184 C3188 0.929 . S
H3185 C3194 0.929 . S
C3186 H3180 0.930 . S
C3186 C3187 1.367 . S
C3186 C3194 1.378 . S
C3187 C3186 1.367 . S
C3187 C3195 1.433 . S
C3188 H3184 0.929 . S
C3188 C3190 1.378 . S
C3188 C3192 1.350 . S
C3189 C3192 1.463 . S
C3189 C3194 1.350 . S
C3189 N3197 1.427 . S
C3190 H3181 0.930 . S
C3190 C3188 1.378 . S
C3190 C3191 1.367 . S
C3191 C3190 1.367 . S
C3191 C3193 1.433 . S
C3192 C3188 1.350 . S
C3192 C3189 1.463 . S
C3192 N3196 1.427 . S
C3193 H3183 0.929 . S
C3193 C3191 1.433 . S
C3193 N3196 1.384 . S
C3194 H3185 0.929 . S
C3194 C3186 1.378 . S
C3194 C3189 1.350 . S
C3195 H3182 0.929 . S
C3195 C3187 1.433 . S
C3195 N3197 1.384 . S
N3196 C3192 1.427 . S
N3196 C3193 1.384 . S
N3197 C3189 1.427 . S
N3197 C3195 1.384 . S
H3198 C3204 0.930 . S
H3199 C3208 0.930 . S
H3200 C3213 0.929 . S
H3201 C3211 0.929 . S
H3202 C3206 0.929 . S
H3203 C3212 0.929 . S
C3204 H3198 0.930 . S
C3204 C3205 1.367 . S
C3204 C3212 1.378 . S
C3205 C3204 1.367 . S
C3205 C3213 1.433 . S
C3206 H3202 0.929 . S
C3206 C3208 1.378 . S
C3206 C3210 1.350 . S
C3207 C3210 1.463 . S
C3207 C3212 1.350 . S
C3207 N3215 1.427 . S
C3208 H3199 0.930 . S
C3208 C3206 1.378 . S
C3208 C3209 1.367 . S
C3209 C3208 1.367 . S
C3209 C3211 1.433 . S
C3210 C3206 1.350 . S
C3210 C3207 1.463 . S
C3210 N3214 1.427 . S
C3211 H3201 0.929 . S
C3211 C3209 1.433 . S
C3211 N3214 1.384 . S
C3212 H3203 0.929 . S
C3212 C3204 1.378 . S
C3212 C3207 1.350 . S
C3213 H3200 0.929 . S
C3213 C3205 1.433 . S
C3213 N3215 1.384 . S
N3214 C3210 1.427 . S
N3214 C3211 1.384 . S
N3215 C3207 1.427 . S
N3215 C3213 1.384 . S
H3216 C3222 0.930 . S
H3217 C3226 0.930 . S
H3218 C3231 0.929 . S
H3219 C3229 0.929 . S
H3220 C3224 0.929 . S
H3221 C3230 0.929 . S
C3222 H3216 0.930 . S
C3222 C3223 1.367 . S
C3222 C3230 1.378 . S
C3223 C3222 1.367 . S
C3223 C3231 1.433 . S
C3224 H3220 0.929 . S
C3224 C3226 1.378 . S
C3224 C3228 1.350 . S
C3225 C3228 1.463 . S
C3225 C3230 1.350 . S
C3225 N3233 1.427 . S
C3226 H3217 0.930 . S
C3226 C3224 1.378 . S
C3226 C3227 1.367 . S
C3227 C3226 1.367 . S
C3227 C3229 1.433 . S
C3228 C3224 1.350 . S
C3228 C3225 1.463 . S
C3228 N3232 1.427 . S
C3229 H3219 0.929 . S
C3229 C3227 1.433 . S
C3229 N3232 1.384 . S
C3230 H3221 0.929 . S
C3230 C3222 1.378 . S
C3230 C3225 1.350 . S
C3231 H3218 0.929 . S
C3231 C3223 1.433 . S
C3231 N3233 1.384 . S
N3232 C3228 1.427 . S
N3232 C3229 1.384 . S
N3233 C3225 1.427 . S
N3233 C3231 1.384 . S
H3234 C3240 0.930 . S
H3235 C3244 0.930 . S
H3236 C3249 0.929 . S
H3237 C3247 0.929 . S
H3238 C3242 0.929 . S
H3239 C3248 0.929 . S
C3240 H3234 0.930 . S
C3240 C3241 1.367 . S
C3240 C3248 1.378 . S
C3241 C3240 1.367 . S
C3241 C3249 1.433 . S
C3242 H3238 0.929 . S
C3242 C3244 1.378 . S
C3242 C3246 1.350 . S
C3243 C3246 1.463 . S
C3243 C3248 1.350 . S
C3243 N3251 1.427 . S
C3244 H3235 0.930 . S
C3244 C3242 1.378 . S
C3244 C3245 1.367 . S
C3245 C3244 1.367 . S
C3245 C3247 1.433 . S
C3246 C3242 1.350 . S
C3246 C3243 1.463 . S
C3246 N3250 1.427 . S
C3247 H3237 0.929 . S
C3247 C3245 1.433 . S
C3247 N3250 1.384 . S
C3248 H3239 0.929 . S
C3248 C3240 1.378 . S
C3248 C3243 1.350 . S
C3249 H3236 0.929 . S
C3249 C3241 1.433 . S
C3249 N3251 1.384 . S
N3250 C3246 1.427 . S
N3250 C3247 1.384 . S
N3251 C3243 1.427 . S
N3251 C3249 1.384 . S
H3252 C3258 0.930 . S
H3253 C3262 0.930 . S
H3254 C3267 0.929 . S
H3255 C3265 0.929 . S
H3256 C3260 0.929 . S
H3257 C3266 0.929 . S
C3258 H3252 0.930 . S
C3258 C3259 1.367 . S
C3258 C3266 1.378 . S
C3259 C3258 1.367 . S
C3259 C3267 1.433 . S
C3260 H3256 0.929 . S
C3260 C3262 1.378 . S
C3260 C3264 1.350 . S
C3261 C3264 1.463 . S
C3261 C3266 1.350 . S
C3261 N3269 1.427 . S
C3262 H3253 0.930 . S
C3262 C3260 1.378 . S
C3262 C3263 1.367 . S
C3263 C3262 1.367 . S
C3263 C3265 1.433 . S
C3264 C3260 1.350 . S
C3264 C3261 1.463 . S
C3264 N3268 1.427 . S
C3265 H3255 0.929 . S
C3265 C3263 1.433 . S
C3265 N3268 1.384 . S
C3266 H3257 0.929 . S
C3266 C3258 1.378 . S
C3266 C3261 1.350 . S
C3267 H3254 0.929 . S
C3267 C3259 1.433 . S
C3267 N3269 1.384 . S
N3268 C3264 1.427 . S
N3268 C3265 1.384 . S
N3269 C3261 1.427 . S
N3269 C3267 1.384 . S
H3270 C3276 0.930 . S
H3271 C3280 0.930 . S
H3272 C3285 0.929 . S
H3273 C3283 0.929 . S
H3274 C3278 0.929 . S
H3275 C3284 0.929 . S
C3276 H3270 0.930 . S
C3276 C3277 1.367 . S
C3276 C3284 1.378 . S
C3277 C3276 1.367 . S
C3277 C3285 1.433 . S
C3278 H3274 0.929 . S
C3278 C3280 1.378 . S
C3278 C3282 1.350 . S
C3279 C3282 1.463 . S
C3279 C3284 1.350 . S
C3279 N3287 1.427 . S
C3280 H3271 0.930 . S
C3280 C3278 1.378 . S
C3280 C3281 1.367 . S
C3281 C3280 1.367 . S
C3281 C3283 1.433 . S
C3282 C3278 1.350 . S
C3282 C3279 1.463 . S
C3282 N3286 1.427 . S
C3283 H3273 0.929 . S
C3283 C3281 1.433 . S
C3283 N3286 1.384 . S
C3284 H3275 0.929 . S
C3284 C3276 1.378 . S
C3284 C3279 1.350 . S
C3285 H3272 0.929 . S
C3285 C3277 1.433 . S
C3285 N3287 1.384 . S
N3286 C3282 1.427 . S
N3286 C3283 1.384 . S
N3287 C3279 1.427 . S
N3287 C3285 1.384 . S
H3288 C3294 0.930 . S
H3289 C3298 0.930 . S
H3290 C3303 0.929 . S
H3291 C3301 0.929 . S
H3292 C3296 0.929 . S
H3293 C3302 0.929 . S
C3294 H3288 0.930 . S
C3294 C3295 1.367 . S
C3294 C3302 1.378 . S
C3295 C3294 1.367 . S
C3295 C3303 1.433 . S
C3296 H3292 0.929 . S
C3296 C3298 1.378 . S
C3296 C3300 1.350 . S
C3297 C3300 1.463 . S
C3297 C3302 1.350 . S
C3297 N3305 1.427 . S
C3298 H3289 0.930 . S
C3298 C3296 1.378 . S
C3298 C3299 1.367 . S
C3299 C3298 1.367 . S
C3299 C3301 1.433 . S
C3300 C3296 1.350 . S
C3300 C3297 1.463 . S
C3300 N3304 1.427 . S
C3301 H3291 0.929 . S
C3301 C3299 1.433 . S
C3301 N3304 1.384 . S
C3302 H3293 0.929 . S
C3302 C3294 1.378 . S
C3302 C3297 1.350 . S
C3303 H3290 0.929 . S
C3303 C3295 1.433 . S
C3303 N3305 1.384 . S
N3304 C3300 1.427 . S
N3304 C3301 1.384 . S
N3305 C3297 1.427 . S
N3305 C3303 1.384 . S
H3306 C3312 0.930 . S
H3307 C3316 0.930 . S
H3308 C3321 0.929 . S
H3309 C3319 0.929 . S
H3310 C3314 0.929 . S
H3311 C3320 0.929 . S
C3312 H3306 0.930 . S
C3312 C3313 1.367 . S
C3312 C3320 1.378 . S
C3313 C3312 1.367 . S
C3313 C3321 1.433 . S
C3314 H3310 0.929 . S
C3314 C3316 1.378 . S
C3314 C3318 1.350 . S
C3315 C3318 1.463 . S
C3315 C3320 1.350 . S
C3315 N3323 1.427 . S
C3316 H3307 0.930 . S
C3316 C3314 1.378 . S
C3316 C3317 1.367 . S
C3317 C3316 1.367 . S
C3317 C3319 1.433 . S
C3318 C3314 1.350 . S
C3318 C3315 1.463 . S
C3318 N3322 1.427 . S
C3319 H3309 0.929 . S
C3319 C3317 1.433 . S
C3319 N3322 1.384 . S
C3320 H3311 0.929 . S
C3320 C3312 1.378 . S
C3320 C3315 1.350 . S
C3321 H3308 0.929 . S
C3321 C3313 1.433 . S
C3321 N3323 1.384 . S
N3322 C3318 1.427 . S
N3322 C3319 1.384 . S
N3323 C3315 1.427 . S
N3323 C3321 1.384 . S
H3324 C3330 0.930 . S
H3325 C3334 0.930 . S
H3326 C3339 0.929 . S
H3327 C3337 0.929 . S
H3328 C3332 0.929 . S
H3329 C3338 0.929 . S
C3330 H3324 0.930 . S
C3330 C3331 1.367 . S
C3330 C3338 1.378 . S
C3331 C3330 1.367 . S
C3331 C3339 1.433 . S
C3332 H3328 0.929 . S
C3332 C3334 1.378 . S
C3332 C3336 1.350 . S
C3333 C3336 1.463 . S
C3333 C3338 1.350 . S
C3333 N3341 1.427 . S
C3334 H3325 0.930 . S
C3334 C3332 1.378 . S
C3334 C3335 1.367 . S
C3335 C3334 1.367 . S
C3335 C3337 1.433 . S
C3336 C3332 1.350 . S
C3336 C3333 1.463 . S
C3336 N3340 1.427 . S
C3337 H3327 0.929 . S
C3337 C3335 1.433 . S
C3337 N3340 1.384 . S
C3338 H3329 0.929 . S
C3338 C3330 1.378 . S
C3338 C3333 1.350 . S
C3339 H3326 0.929 . S
C3339 C3331 1.433 . S
C3339 N3341 1.384 . S
N3340 C3336 1.427 . S
N3340 C3337 1.384 . S
N3341 C3333 1.427 . S
N3341 C3339 1.384 . S
H3342 C3348 0.930 . S
H3343 C3352 0.930 . S
H3344 C3357 0.929 . S
H3345 C3355 0.929 . S
H3346 C3350 0.929 . S
H3347 C3356 0.929 . S
C3348 H3342 0.930 . S
C3348 C3349 1.367 . S
C3348 C3356 1.378 . S
C3349 C3348 1.367 . S
C3349 C3357 1.433 . S
C3350 H3346 0.929 . S
C3350 C3352 1.378 . S
C3350 C3354 1.350 . S
C3351 C3354 1.463 . S
C3351 C3356 1.350 . S
C3351 N3359 1.427 . S
C3352 H3343 0.930 . S
C3352 C3350 1.378 . S
C3352 C3353 1.367 . S
C3353 C3352 1.367 . S
C3353 C3355 1.433 . S
C3354 C3350 1.350 . S
C3354 C3351 1.463 . S
C3354 N3358 1.427 . S
C3355 H3345 0.929 . S
C3355 C3353 1.433 . S
C3355 N3358 1.384 . S
C3356 H3347 0.929 . S
C3356 C3348 1.378 . S
C3356 C3351 1.350 . S
C3357 H3344 0.929 . S
C3357 C3349 1.433 . S
C3357 N3359 1.384 . S
N3358 C3354 1.427 . S
N3358 C3355 1.384 . S
N3359 C3351 1.427 . S
N3359 C3357 1.384 . S
H3360 C3366 0.930 . S
H3361 C3370 0.930 . S
H3362 C3375 0.929 . S
H3363 C3373 0.929 . S
H3364 C3368 0.929 . S
H3365 C3374 0.929 . S
C3366 H3360 0.930 . S
C3366 C3367 1.367 . S
C3366 C3374 1.378 . S
C3367 C3366 1.367 . S
C3367 C3375 1.433 . S
C3368 H3364 0.929 . S
C3368 C3370 1.378 . S
C3368 C3372 1.350 . S
C3369 C3372 1.463 . S
C3369 C3374 1.350 . S
C3369 N3377 1.427 . S
C3370 H3361 0.930 . S
C3370 C3368 1.378 . S
C3370 C3371 1.367 . S
C3371 C3370 1.367 . S
C3371 C3373 1.433 . S
C3372 C3368 1.350 . S
C3372 C3369 1.463 . S
C3372 N3376 1.427 . S
C3373 H3363 0.929 . S
C3373 C3371 1.433 . S
C3373 N3376 1.384 . S
C3374 H3365 0.929 . S
C3374 C3366 1.378 . S
C3374 C3369 1.350 . S
C3375 H3362 0.929 . S
C3375 C3367 1.433 . S
C3375 N3377 1.384 . S
N3376 C3372 1.427 . S
N3376 C3373 1.384 . S
N3377 C3369 1.427 . S
N3377 C3375 1.384 . S
H3378 C3384 0.930 . S
H3379 C3388 0.930 . S
H3380 C3393 0.929 . S
H3381 C3391 0.929 . S
H3382 C3386 0.929 . S
H3383 C3392 0.929 . S
C3384 H3378 0.930 . S
C3384 C3385 1.367 . S
C3384 C3392 1.378 . S
C3385 C3384 1.367 . S
C3385 C3393 1.433 . S
C3386 H3382 0.929 . S
C3386 C3388 1.378 . S
C3386 C3390 1.350 . S
C3387 C3390 1.463 . S
C3387 C3392 1.350 . S
C3387 N3395 1.427 . S
C3388 H3379 0.930 . S
C3388 C3386 1.378 . S
C3388 C3389 1.367 . S
C3389 C3388 1.367 . S
C3389 C3391 1.433 . S
C3390 C3386 1.350 . S
C3390 C3387 1.463 . S
C3390 N3394 1.427 . S
C3391 H3381 0.929 . S
C3391 C3389 1.433 . S
C3391 N3394 1.384 . S
C3392 H3383 0.929 . S
C3392 C3384 1.378 . S
C3392 C3387 1.350 . S
C3393 H3380 0.929 . S
C3393 C3385 1.433 . S
C3393 N3395 1.384 . S
N3394 C3390 1.427 . S
N3394 C3391 1.384 . S
N3395 C3387 1.427 . S
N3395 C3393 1.384 . S
H3396 C3402 0.930 . S
H3397 C3406 0.930 . S
H3398 C3411 0.929 . S
H3399 C3409 0.929 . S
H3400 C3404 0.929 . S
H3401 C3410 0.929 . S
C3402 H3396 0.930 . S
C3402 C3403 1.367 . S
C3402 C3410 1.378 . S
C3403 C3402 1.367 . S
C3403 C3411 1.433 . S
C3404 H3400 0.929 . S
C3404 C3406 1.378 . S
C3404 C3408 1.350 . S
C3405 C3408 1.463 . S
C3405 C3410 1.350 . S
C3405 N3413 1.427 . S
C3406 H3397 0.930 . S
C3406 C3404 1.378 . S
C3406 C3407 1.367 . S
C3407 C3406 1.367 . S
C3407 C3409 1.433 . S
C3408 C3404 1.350 . S
C3408 C3405 1.463 . S
C3408 N3412 1.427 . S
C3409 H3399 0.929 . S
C3409 C3407 1.433 . S
C3409 N3412 1.384 . S
C3410 H3401 0.929 . S
C3410 C3402 1.378 . S
C3410 C3405 1.350 . S
C3411 H3398 0.929 . S
C3411 C3403 1.433 . S
C3411 N3413 1.384 . S
N3412 C3408 1.427 . S
N3412 C3409 1.384 . S
N3413 C3405 1.427 . S
N3413 C3411 1.384 . S
H3414 C3420 0.930 . S
H3415 C3424 0.930 . S
H3416 C3429 0.929 . S
H3417 C3427 0.929 . S
H3418 C3422 0.929 . S
H3419 C3428 0.929 . S
C3420 H3414 0.930 . S
C3420 C3421 1.367 . S
C3420 C3428 1.378 . S
C3421 C3420 1.367 . S
C3421 C3429 1.433 . S
C3422 H3418 0.929 . S
C3422 C3424 1.378 . S
C3422 C3426 1.350 . S
C3423 C3426 1.463 . S
C3423 C3428 1.350 . S
C3423 N3431 1.427 . S
C3424 H3415 0.930 . S
C3424 C3422 1.378 . S
C3424 C3425 1.367 . S
C3425 C3424 1.367 . S
C3425 C3427 1.433 . S
C3426 C3422 1.350 . S
C3426 C3423 1.463 . S
C3426 N3430 1.427 . S
C3427 H3417 0.929 . S
C3427 C3425 1.433 . S
C3427 N3430 1.384 . S
C3428 H3419 0.929 . S
C3428 C3420 1.378 . S
C3428 C3423 1.350 . S
C3429 H3416 0.929 . S
C3429 C3421 1.433 . S
C3429 N3431 1.384 . S
N3430 C3426 1.427 . S
N3430 C3427 1.384 . S
N3431 C3423 1.427 . S
N3431 C3429 1.384 . S
H3432 C3438 0.930 . S
H3433 C3442 0.930 . S
H3434 C3447 0.929 . S
H3435 C3445 0.929 . S
H3436 C3440 0.929 . S
H3437 C3446 0.929 . S
C3438 H3432 0.930 . S
C3438 C3439 1.367 . S
C3438 C3446 1.378 . S
C3439 C3438 1.367 . S
C3439 C3447 1.433 . S
C3440 H3436 0.929 . S
C3440 C3442 1.378 . S
C3440 C3444 1.350 . S
C3441 C3444 1.463 . S
C3441 C3446 1.350 . S
C3441 N3449 1.427 . S
C3442 H3433 0.930 . S
C3442 C3440 1.378 . S
C3442 C3443 1.367 . S
C3443 C3442 1.367 . S
C3443 C3445 1.433 . S
C3444 C3440 1.350 . S
C3444 C3441 1.463 . S
C3444 N3448 1.427 . S
C3445 H3435 0.929 . S
C3445 C3443 1.433 . S
C3445 N3448 1.384 . S
C3446 H3437 0.929 . S
C3446 C3438 1.378 . S
C3446 C3441 1.350 . S
C3447 H3434 0.929 . S
C3447 C3439 1.433 . S
C3447 N3449 1.384 . S
N3448 C3444 1.427 . S
N3448 C3445 1.384 . S
N3449 C3441 1.427 . S
N3449 C3447 1.384 . S
H3450 C3456 0.930 . S
H3451 C3460 0.930 . S
H3452 C3465 0.929 . S
H3453 C3463 0.929 . S
H3454 C3458 0.929 . S
H3455 C3464 0.929 . S
C3456 H3450 0.930 . S
C3456 C3457 1.367 . S
C3456 C3464 1.378 . S
C3457 C3456 1.367 . S
C3457 C3465 1.433 . S
C3458 H3454 0.929 . S
C3458 C3460 1.378 . S
C3458 C3462 1.350 . S
C3459 C3462 1.463 . S
C3459 C3464 1.350 . S
C3459 N3467 1.427 . S
C3460 H3451 0.930 . S
C3460 C3458 1.378 . S
C3460 C3461 1.367 . S
C3461 C3460 1.367 . S
C3461 C3463 1.433 . S
C3462 C3458 1.350 . S
C3462 C3459 1.463 . S
C3462 N3466 1.427 . S
C3463 H3453 0.929 . S
C3463 C3461 1.433 . S
C3463 N3466 1.384 . S
C3464 H3455 0.929 . S
C3464 C3456 1.378 . S
C3464 C3459 1.350 . S
C3465 H3452 0.929 . S
C3465 C3457 1.433 . S
C3465 N3467 1.384 . S
N3466 C3462 1.427 . S
N3466 C3463 1.384 . S
N3467 C3459 1.427 . S
N3467 C3465 1.384 . S
H3468 C3474 0.930 . S
H3469 C3478 0.930 . S
H3470 C3483 0.929 . S
H3471 C3481 0.929 . S
H3472 C3476 0.929 . S
H3473 C3482 0.929 . S
C3474 H3468 0.930 . S
C3474 C3475 1.367 . S
C3474 C3482 1.378 . S
C3475 C3474 1.367 . S
C3475 C3483 1.433 . S
C3476 H3472 0.929 . S
C3476 C3478 1.378 . S
C3476 C3480 1.350 . S
C3477 C3480 1.463 . S
C3477 C3482 1.350 . S
C3477 N3485 1.427 . S
C3478 H3469 0.930 . S
C3478 C3476 1.378 . S
C3478 C3479 1.367 . S
C3479 C3478 1.367 . S
C3479 C3481 1.433 . S
C3480 C3476 1.350 . S
C3480 C3477 1.463 . S
C3480 N3484 1.427 . S
C3481 H3471 0.929 . S
C3481 C3479 1.433 . S
C3481 N3484 1.384 . S
C3482 H3473 0.929 . S
C3482 C3474 1.378 . S
C3482 C3477 1.350 . S
C3483 H3470 0.929 . S
C3483 C3475 1.433 . S
C3483 N3485 1.384 . S
N3484 C3480 1.427 . S
N3484 C3481 1.384 . S
N3485 C3477 1.427 . S
N3485 C3483 1.384 . S
H3486 C3492 0.930 . S
H3487 C3496 0.930 . S
H3488 C3501 0.929 . S
H3489 C3499 0.929 . S
H3490 C3494 0.929 . S
H3491 C3500 0.929 . S
C3492 H3486 0.930 . S
C3492 C3493 1.367 . S
C3492 C3500 1.378 . S
C3493 C3492 1.367 . S
C3493 C3501 1.433 . S
C3494 H3490 0.929 . S
C3494 C3496 1.378 . S
C3494 C3498 1.350 . S
C3495 C3498 1.463 . S
C3495 C3500 1.350 . S
C3495 N3503 1.427 . S
C3496 H3487 0.930 . S
C3496 C3494 1.378 . S
C3496 C3497 1.367 . S
C3497 C3496 1.367 . S
C3497 C3499 1.433 . S
C3498 C3494 1.350 . S
C3498 C3495 1.463 . S
C3498 N3502 1.427 . S
C3499 H3489 0.929 . S
C3499 C3497 1.433 . S
C3499 N3502 1.384 . S
C3500 H3491 0.929 . S
C3500 C3492 1.378 . S
C3500 C3495 1.350 . S
C3501 H3488 0.929 . S
C3501 C3493 1.433 . S
C3501 N3503 1.384 . S
N3502 C3498 1.427 . S
N3502 C3499 1.384 . S
N3503 C3495 1.427 . S
N3503 C3501 1.384 . S
H3504 C3510 0.930 . S
H3505 C3514 0.930 . S
H3506 C3519 0.929 . S
H3507 C3517 0.929 . S
H3508 C3512 0.929 . S
H3509 C3518 0.929 . S
C3510 H3504 0.930 . S
C3510 C3511 1.367 . S
C3510 C3518 1.378 . S
C3511 C3510 1.367 . S
C3511 C3519 1.433 . S
C3512 H3508 0.929 . S
C3512 C3514 1.378 . S
C3512 C3516 1.350 . S
C3513 C3516 1.463 . S
C3513 C3518 1.350 . S
C3513 N3521 1.427 . S
C3514 H3505 0.930 . S
C3514 C3512 1.378 . S
C3514 C3515 1.367 . S
C3515 C3514 1.367 . S
C3515 C3517 1.433 . S
C3516 C3512 1.350 . S
C3516 C3513 1.463 . S
C3516 N3520 1.427 . S
C3517 H3507 0.929 . S
C3517 C3515 1.433 . S
C3517 N3520 1.384 . S
C3518 H3509 0.929 . S
C3518 C3510 1.378 . S
C3518 C3513 1.350 . S
C3519 H3506 0.929 . S
C3519 C3511 1.433 . S
C3519 N3521 1.384 . S
N3520 C3516 1.427 . S
N3520 C3517 1.384 . S
N3521 C3513 1.427 . S
N3521 C3519 1.384 . S
H3522 C3528 0.930 . S
H3523 C3532 0.930 . S
H3524 C3537 0.929 . S
H3525 C3535 0.929 . S
H3526 C3530 0.929 . S
H3527 C3536 0.929 . S
C3528 H3522 0.930 . S
C3528 C3529 1.367 . S
C3528 C3536 1.378 . S
C3529 C3528 1.367 . S
C3529 C3537 1.433 . S
C3530 H3526 0.929 . S
C3530 C3532 1.378 . S
C3530 C3534 1.350 . S
C3531 C3534 1.463 . S
C3531 C3536 1.350 . S
C3531 N3539 1.427 . S
C3532 H3523 0.930 . S
C3532 C3530 1.378 . S
C3532 C3533 1.367 . S
C3533 C3532 1.367 . S
C3533 C3535 1.433 . S
C3534 C3530 1.350 . S
C3534 C3531 1.463 . S
C3534 N3538 1.427 . S
C3535 H3525 0.929 . S
C3535 C3533 1.433 . S
C3535 N3538 1.384 . S
C3536 H3527 0.929 . S
C3536 C3528 1.378 . S
C3536 C3531 1.350 . S
C3537 H3524 0.929 . S
C3537 C3529 1.433 . S
C3537 N3539 1.384 . S
N3538 C3534 1.427 . S
N3538 C3535 1.384 . S
N3539 C3531 1.427 . S
N3539 C3537 1.384 . S
H3540 C3546 0.930 . S
H3541 C3550 0.930 . S
H3542 C3555 0.929 . S
H3543 C3553 0.929 . S
H3544 C3548 0.929 . S
H3545 C3554 0.929 . S
C3546 H3540 0.930 . S
C3546 C3547 1.367 . S
C3546 C3554 1.378 . S
C3547 C3546 1.367 . S
C3547 C3555 1.433 . S
C3548 H3544 0.929 . S
C3548 C3550 1.378 . S
C3548 C3552 1.350 . S
C3549 C3552 1.463 . S
C3549 C3554 1.350 . S
C3549 N3557 1.427 . S
C3550 H3541 0.930 . S
C3550 C3548 1.378 . S
C3550 C3551 1.367 . S
C3551 C3550 1.367 . S
C3551 C3553 1.433 . S
C3552 C3548 1.350 . S
C3552 C3549 1.463 . S
C3552 N3556 1.427 . S
C3553 H3543 0.929 . S
C3553 C3551 1.433 . S
C3553 N3556 1.384 . S
C3554 H3545 0.929 . S
C3554 C3546 1.378 . S
C3554 C3549 1.350 . S
C3555 H3542 0.929 . S
C3555 C3547 1.433 . S
C3555 N3557 1.384 . S
N3556 C3552 1.427 . S
N3556 C3553 1.384 . S
N3557 C3549 1.427 . S
N3557 C3555 1.384 . S
H3558 C3564 0.930 . S
H3559 C3568 0.930 . S
H3560 C3573 0.929 . S
H3561 C3571 0.929 . S
H3562 C3566 0.929 . S
H3563 C3572 0.929 . S
C3564 H3558 0.930 . S
C3564 C3565 1.367 . S
C3564 C3572 1.378 . S
C3565 C3564 1.367 . S
C3565 C3573 1.433 . S
C3566 H3562 0.929 . S
C3566 C3568 1.378 . S
C3566 C3570 1.350 . S
C3567 C3570 1.463 . S
C3567 C3572 1.350 . S
C3567 N3575 1.427 . S
C3568 H3559 0.930 . S
C3568 C3566 1.378 . S
C3568 C3569 1.367 . S
C3569 C3568 1.367 . S
C3569 C3571 1.433 . S
C3570 C3566 1.350 . S
C3570 C3567 1.463 . S
C3570 N3574 1.427 . S
C3571 H3561 0.929 . S
C3571 C3569 1.433 . S
C3571 N3574 1.384 . S
C3572 H3563 0.929 . S
C3572 C3564 1.378 . S
C3572 C3567 1.350 . S
C3573 H3560 0.929 . S
C3573 C3565 1.433 . S
C3573 N3575 1.384 . S
N3574 C3570 1.427 . S
N3574 C3571 1.384 . S
N3575 C3567 1.427 . S
N3575 C3573 1.384 . S
H3576 C3582 0.930 . S
H3577 C3586 0.930 . S
H3578 C3591 0.929 . S
H3579 C3589 0.929 . S
H3580 C3584 0.929 . S
H3581 C3590 0.929 . S
C3582 H3576 0.930 . S
C3582 C3583 1.367 . S
C3582 C3590 1.378 . S
C3583 C3582 1.367 . S
C3583 C3591 1.433 . S
C3584 H3580 0.929 . S
C3584 C3586 1.378 . S
C3584 C3588 1.350 . S
C3585 C3588 1.463 . S
C3585 C3590 1.350 . S
C3585 N3593 1.427 . S
C3586 H3577 0.930 . S
C3586 C3584 1.378 . S
C3586 C3587 1.367 . S
C3587 C3586 1.367 . S
C3587 C3589 1.433 . S
C3588 C3584 1.350 . S
C3588 C3585 1.463 . S
C3588 N3592 1.427 . S
C3589 H3579 0.929 . S
C3589 C3587 1.433 . S
C3589 N3592 1.384 . S
C3590 H3581 0.929 . S
C3590 C3582 1.378 . S
C3590 C3585 1.350 . S
C3591 H3578 0.929 . S
C3591 C3583 1.433 . S
C3591 N3593 1.384 . S
N3592 C3588 1.427 . S
N3592 C3589 1.384 . S
N3593 C3585 1.427 . S
N3593 C3591 1.384 . S
H3594 C3600 0.930 . S
H3595 C3604 0.930 . S
H3596 C3609 0.929 . S
H3597 C3607 0.929 . S
H3598 C3602 0.929 . S
H3599 C3608 0.929 . S
C3600 H3594 0.930 . S
C3600 C3601 1.367 . S
C3600 C3608 1.378 . S
C3601 C3600 1.367 . S
C3601 C3609 1.433 . S
C3602 H3598 0.929 . S
C3602 C3604 1.378 . S
C3602 C3606 1.350 . S
C3603 C3606 1.463 . S
C3603 C3608 1.350 . S
C3603 N3611 1.427 . S
C3604 H3595 0.930 . S
C3604 C3602 1.378 . S
C3604 C3605 1.367 . S
C3605 C3604 1.367 . S
C3605 C3607 1.433 . S
C3606 C3602 1.350 . S
C3606 C3603 1.463 . S
C3606 N3610 1.427 . S
C3607 H3597 0.929 . S
C3607 C3605 1.433 . S
C3607 N3610 1.384 . S
C3608 H3599 0.929 . S
C3608 C3600 1.378 . S
C3608 C3603 1.350 . S
C3609 H3596 0.929 . S
C3609 C3601 1.433 . S
C3609 N3611 1.384 . S
N3610 C3606 1.427 . S
N3610 C3607 1.384 . S
N3611 C3603 1.427 . S
N3611 C3609 1.384 . S
H3612 C3618 0.930 . S
H3613 C3622 0.930 . S
H3614 C3627 0.929 . S
H3615 C3625 0.929 . S
H3616 C3620 0.929 . S
H3617 C3626 0.929 . S
C3618 H3612 0.930 . S
C3618 C3619 1.367 . S
C3618 C3626 1.378 . S
C3619 C3618 1.367 . S
C3619 C3627 1.433 . S
C3620 H3616 0.929 . S
C3620 C3622 1.378 . S
C3620 C3624 1.350 . S
C3621 C3624 1.463 . S
C3621 C3626 1.350 . S
C3621 N3629 1.427 . S
C3622 H3613 0.930 . S
C3622 C3620 1.378 . S
C3622 C3623 1.367 . S
C3623 C3622 1.367 . S
C3623 C3625 1.433 . S
C3624 C3620 1.350 . S
C3624 C3621 1.463 . S
C3624 N3628 1.427 . S
C3625 H3615 0.929 . S
C3625 C3623 1.433 . S
C3625 N3628 1.384 . S
C3626 H3617 0.929 . S
C3626 C3618 1.378 . S
C3626 C3621 1.350 . S
C3627 H3614 0.929 . S
C3627 C3619 1.433 . S
C3627 N3629 1.384 . S
N3628 C3624 1.427 . S
N3628 C3625 1.384 . S
N3629 C3621 1.427 . S
N3629 C3627 1.384 . S
H3630 C3636 0.930 . S
H3631 C3640 0.930 . S
H3632 C3645 0.929 . S
H3633 C3643 0.929 . S
H3634 C3638 0.929 . S
H3635 C3644 0.929 . S
C3636 H3630 0.930 . S
C3636 C3637 1.367 . S
C3636 C3644 1.378 . S
C3637 C3636 1.367 . S
C3637 C3645 1.433 . S
C3638 H3634 0.929 . S
C3638 C3640 1.378 . S
C3638 C3642 1.350 . S
C3639 C3642 1.463 . S
C3639 C3644 1.350 . S
C3639 N3647 1.427 . S
C3640 H3631 0.930 . S
C3640 C3638 1.378 . S
C3640 C3641 1.367 . S
C3641 C3640 1.367 . S
C3641 C3643 1.433 . S
C3642 C3638 1.350 . S
C3642 C3639 1.463 . S
C3642 N3646 1.427 . S
C3643 H3633 0.929 . S
C3643 C3641 1.433 . S
C3643 N3646 1.384 . S
C3644 H3635 0.929 . S
C3644 C3636 1.378 . S
C3644 C3639 1.350 . S
C3645 H3632 0.929 . S
C3645 C3637 1.433 . S
C3645 N3647 1.384 . S
N3646 C3642 1.427 . S
N3646 C3643 1.384 . S
N3647 C3639 1.427 . S
N3647 C3645 1.384 . S
H3648 C3654 0.930 . S
H3649 C3658 0.930 . S
H3650 C3663 0.929 . S
H3651 C3661 0.929 . S
H3652 C3656 0.929 . S
H3653 C3662 0.929 . S
C3654 H3648 0.930 . S
C3654 C3655 1.367 . S
C3654 C3662 1.378 . S
C3655 C3654 1.367 . S
C3655 C3663 1.433 . S
C3656 H3652 0.929 . S
C3656 C3658 1.378 . S
C3656 C3660 1.350 . S
C3657 C3660 1.463 . S
C3657 C3662 1.350 . S
C3657 N3665 1.427 . S
C3658 H3649 0.930 . S
C3658 C3656 1.378 . S
C3658 C3659 1.367 . S
C3659 C3658 1.367 . S
C3659 C3661 1.433 . S
C3660 C3656 1.350 . S
C3660 C3657 1.463 . S
C3660 N3664 1.427 . S
C3661 H3651 0.929 . S
C3661 C3659 1.433 . S
C3661 N3664 1.384 . S
C3662 H3653 0.929 . S
C3662 C3654 1.378 . S
C3662 C3657 1.350 . S
C3663 H3650 0.929 . S
C3663 C3655 1.433 . S
C3663 N3665 1.384 . S
N3664 C3660 1.427 . S
N3664 C3661 1.384 . S
N3665 C3657 1.427 . S
N3665 C3663 1.384 . S
H3666 C3672 0.930 . S
H3667 C3676 0.930 . S
H3668 C3681 0.929 . S
H3669 C3679 0.929 . S
H3670 C3674 0.929 . S
H3671 C3680 0.929 . S
C3672 H3666 0.930 . S
C3672 C3673 1.367 . S
C3672 C3680 1.378 . S
C3673 C3672 1.367 . S
C3673 C3681 1.433 . S
C3674 H3670 0.929 . S
C3674 C3676 1.378 . S
C3674 C3678 1.350 . S
C3675 C3678 1.463 . S
C3675 C3680 1.350 . S
C3675 N3683 1.427 . S
C3676 H3667 0.930 . S
C3676 C3674 1.378 . S
C3676 C3677 1.367 . S
C3677 C3676 1.367 . S
C3677 C3679 1.433 . S
C3678 C3674 1.350 . S
C3678 C3675 1.463 . S
C3678 N3682 1.427 . S
C3679 H3669 0.929 . S
C3679 C3677 1.433 . S
C3679 N3682 1.384 . S
C3680 H3671 0.929 . S
C3680 C3672 1.378 . S
C3680 C3675 1.350 . S
C3681 H3668 0.929 . S
C3681 C3673 1.433 . S
C3681 N3683 1.384 . S
N3682 C3678 1.427 . S
N3682 C3679 1.384 . S
N3683 C3675 1.427 . S
N3683 C3681 1.384 . S
H3684 C3690 0.930 . S
H3685 C3694 0.930 . S
H3686 C3699 0.929 . S
H3687 C3697 0.929 . S
H3688 C3692 0.929 . S
H3689 C3698 0.929 . S
C3690 H3684 0.930 . S
C3690 C3691 1.367 . S
C3690 C3698 1.378 . S
C3691 C3690 1.367 . S
C3691 C3699 1.433 . S
C3692 H3688 0.929 . S
C3692 C3694 1.378 . S
C3692 C3696 1.350 . S
C3693 C3696 1.463 . S
C3693 C3698 1.350 . S
C3693 N3701 1.427 . S
C3694 H3685 0.930 . S
C3694 C3692 1.378 . S
C3694 C3695 1.367 . S
C3695 C3694 1.367 . S
C3695 C3697 1.433 . S
C3696 C3692 1.350 . S
C3696 C3693 1.463 . S
C3696 N3700 1.427 . S
C3697 H3687 0.929 . S
C3697 C3695 1.433 . S
C3697 N3700 1.384 . S
C3698 H3689 0.929 . S
C3698 C3690 1.378 . S
C3698 C3693 1.350 . S
C3699 H3686 0.929 . S
C3699 C3691 1.433 . S
C3699 N3701 1.384 . S
N3700 C3696 1.427 . S
N3700 C3697 1.384 . S
N3701 C3693 1.427 . S
N3701 C3699 1.384 . S
H3702 C3708 0.930 . S
H3703 C3712 0.930 . S
H3704 C3717 0.929 . S
H3705 C3715 0.929 . S
H3706 C3710 0.929 . S
H3707 C3716 0.929 . S
C3708 H3702 0.930 . S
C3708 C3709 1.367 . S
C3708 C3716 1.378 . S
C3709 C3708 1.367 . S
C3709 C3717 1.433 . S
C3710 H3706 0.929 . S
C3710 C3712 1.378 . S
C3710 C3714 1.350 . S
C3711 C3714 1.463 . S
C3711 C3716 1.350 . S
C3711 N3719 1.427 . S
C3712 H3703 0.930 . S
C3712 C3710 1.378 . S
C3712 C3713 1.367 . S
C3713 C3712 1.367 . S
C3713 C3715 1.433 . S
C3714 C3710 1.350 . S
C3714 C3711 1.463 . S
C3714 N3718 1.427 . S
C3715 H3705 0.929 . S
C3715 C3713 1.433 . S
C3715 N3718 1.384 . S
C3716 H3707 0.929 . S
C3716 C3708 1.378 . S
C3716 C3711 1.350 . S
C3717 H3704 0.929 . S
C3717 C3709 1.433 . S
C3717 N3719 1.384 . S
N3718 C3714 1.427 . S
N3718 C3715 1.384 . S
N3719 C3711 1.427 . S
N3719 C3717 1.384 . S
H3720 C3726 0.930 . S
H3721 C3730 0.930 . S
H3722 C3735 0.929 . S
H3723 C3733 0.929 . S
H3724 C3728 0.929 . S
H3725 C3734 0.929 . S
C3726 H3720 0.930 . S
C3726 C3727 1.367 . S
C3726 C3734 1.378 . S
C3727 C3726 1.367 . S
C3727 C3735 1.433 . S
C3728 H3724 0.929 . S
C3728 C3730 1.378 . S
C3728 C3732 1.350 . S
C3729 C3732 1.463 . S
C3729 C3734 1.350 . S
C3729 N3737 1.427 . S
C3730 H3721 0.930 . S
C3730 C3728 1.378 . S
C3730 C3731 1.367 . S
C3731 C3730 1.367 . S
C3731 C3733 1.433 . S
C3732 C3728 1.350 . S
C3732 C3729 1.463 . S
C3732 N3736 1.427 . S
C3733 H3723 0.929 . S
C3733 C3731 1.433 . S
C3733 N3736 1.384 . S
C3734 H3725 0.929 . S
C3734 C3726 1.378 . S
C3734 C3729 1.350 . S
C3735 H3722 0.929 . S
C3735 C3727 1.433 . S
C3735 N3737 1.384 . S
N3736 C3732 1.427 . S
N3736 C3733 1.384 . S
N3737 C3729 1.427 . S
N3737 C3735 1.384 . S
H3738 C3744 0.930 . S
H3739 C3748 0.930 . S
H3740 C3753 0.929 . S
H3741 C3751 0.929 . S
H3742 C3746 0.929 . S
H3743 C3752 0.929 . S
C3744 H3738 0.930 . S
C3744 C3745 1.367 . S
C3744 C3752 1.378 . S
C3745 C3744 1.367 . S
C3745 C3753 1.433 . S
C3746 H3742 0.929 . S
C3746 C3748 1.378 . S
C3746 C3750 1.350 . S
C3747 C3750 1.463 . S
C3747 C3752 1.350 . S
C3747 N3755 1.427 . S
C3748 H3739 0.930 . S
C3748 C3746 1.378 . S
C3748 C3749 1.367 . S
C3749 C3748 1.367 . S
C3749 C3751 1.433 . S
C3750 C3746 1.350 . S
C3750 C3747 1.463 . S
C3750 N3754 1.427 . S
C3751 H3741 0.929 . S
C3751 C3749 1.433 . S
C3751 N3754 1.384 . S
C3752 H3743 0.929 . S
C3752 C3744 1.378 . S
C3752 C3747 1.350 . S
C3753 H3740 0.929 . S
C3753 C3745 1.433 . S
C3753 N3755 1.384 . S
N3754 C3750 1.427 . S
N3754 C3751 1.384 . S
N3755 C3747 1.427 . S
N3755 C3753 1.384 . S
H3756 C3762 0.930 1_455 S
H3757 C3766 0.930 . S
H3758 C3771 0.929 . S
H3759 C3769 0.929 . S
H3760 C3764 0.929 . S
H3761 C3770 0.929 . S
C3762 H3756 0.930 1_655 S
C3762 C3763 1.367 . S
C3762 C3770 1.378 . S
C3763 C3762 1.367 . S
C3763 C3771 1.433 . S
C3764 H3760 0.929 . S
C3764 C3766 1.378 . S
C3764 C3768 1.350 . S
C3765 C3768 1.463 . S
C3765 C3770 1.350 . S
C3765 N3773 1.427 . S
C3766 H3757 0.930 . S
C3766 C3764 1.378 . S
C3766 C3767 1.367 . S
C3767 C3766 1.367 . S
C3767 C3769 1.433 . S
C3768 C3764 1.350 . S
C3768 C3765 1.463 . S
C3768 N3772 1.427 . S
C3769 H3759 0.929 . S
C3769 C3767 1.433 . S
C3769 N3772 1.384 . S
C3770 H3761 0.929 . S
C3770 C3762 1.378 . S
C3770 C3765 1.350 . S
C3771 H3758 0.929 . S
C3771 C3763 1.433 . S
C3771 N3773 1.384 . S
N3772 C3768 1.427 . S
N3772 C3769 1.384 . S
N3773 C3765 1.427 . S
N3773 C3771 1.384 . S
H3774 C3780 0.930 . S
H3775 C3784 0.930 . S
H3776 C3789 0.929 . S
H3777 C3787 0.929 . S
H3778 C3782 0.929 . S
H3779 C3788 0.929 . S
C3780 H3774 0.930 . S
C3780 C3781 1.367 . S
C3780 C3788 1.378 . S
C3781 C3780 1.367 . S
C3781 C3789 1.433 . S
C3782 H3778 0.929 . S
C3782 C3784 1.378 . S
C3782 C3786 1.350 . S
C3783 C3786 1.463 . S
C3783 C3788 1.350 . S
C3783 N3791 1.427 . S
C3784 H3775 0.930 . S
C3784 C3782 1.378 . S
C3784 C3785 1.367 . S
C3785 C3784 1.367 . S
C3785 C3787 1.433 . S
C3786 C3782 1.350 . S
C3786 C3783 1.463 . S
C3786 N3790 1.427 . S
C3787 H3777 0.929 . S
C3787 C3785 1.433 . S
C3787 N3790 1.384 . S
C3788 H3779 0.929 . S
C3788 C3780 1.378 . S
C3788 C3783 1.350 . S
C3789 H3776 0.929 . S
C3789 C3781 1.433 . S
C3789 N3791 1.384 . S
N3790 C3786 1.427 . S
N3790 C3787 1.384 . S
N3791 C3783 1.427 . S
N3791 C3789 1.384 . S
H3792 C3798 0.930 . S
H3793 C3802 0.930 . S
H3794 C3807 0.929 . S
H3795 C3805 0.929 . S
H3796 C3800 0.929 . S
H3797 C3806 0.929 . S
C3798 H3792 0.930 . S
C3798 C3799 1.367 . S
C3798 C3806 1.378 . S
C3799 C3798 1.367 . S
C3799 C3807 1.433 . S
C3800 H3796 0.929 . S
C3800 C3802 1.378 . S
C3800 C3804 1.350 . S
C3801 C3804 1.463 . S
C3801 C3806 1.350 . S
C3801 N3809 1.427 . S
C3802 H3793 0.930 . S
C3802 C3800 1.378 . S
C3802 C3803 1.367 . S
C3803 C3802 1.367 . S
C3803 C3805 1.433 . S
C3804 C3800 1.350 . S
C3804 C3801 1.463 . S
C3804 N3808 1.427 . S
C3805 H3795 0.929 . S
C3805 C3803 1.433 . S
C3805 N3808 1.384 . S
C3806 H3797 0.929 . S
C3806 C3798 1.378 . S
C3806 C3801 1.350 . S
C3807 H3794 0.929 . S
C3807 C3799 1.433 . S
C3807 N3809 1.384 . S
N3808 C3804 1.427 . S
N3808 C3805 1.384 . S
N3809 C3801 1.427 . S
N3809 C3807 1.384 . S
H3810 C3816 0.930 . S
H3811 C3820 0.930 . S
H3812 C3825 0.929 . S
H3813 C3823 0.912 1_545 S
H3814 C3818 0.929 . S
H3815 C3824 0.929 . S
C3816 H3810 0.930 . S
C3816 C3817 1.367 . S
C3816 C3824 1.378 . S
C3817 C3816 1.367 . S
C3817 C3825 1.433 . S
C3818 H3814 0.929 . S
C3818 C3820 1.378 . S
C3818 C3822 1.350 . S
C3819 C3822 1.463 . S
C3819 C3824 1.350 . S
C3819 N3827 1.427 . S
C3820 H3811 0.930 . S
C3820 C3818 1.378 . S
C3820 C3821 1.367 . S
C3821 C3820 1.367 . S
C3821 C3823 1.433 . S
C3822 C3818 1.350 . S
C3822 C3819 1.463 . S
C3822 N3826 1.427 . S
C3823 H3813 0.912 1_565 S
C3823 C3821 1.433 . S
C3823 N3826 1.384 . S
C3824 H3815 0.929 . S
C3824 C3816 1.378 . S
C3824 C3819 1.350 . S
C3825 H3812 0.929 . S
C3825 C3817 1.433 . S
C3825 N3827 1.384 . S
N3826 C3822 1.427 . S
N3826 C3823 1.384 . S
N3827 C3819 1.427 . S
N3827 C3825 1.384 . S
H3828 C3834 0.930 . S
H3829 C3838 0.930 . S
H3830 C3843 0.929 . S
H3831 C3841 0.929 . S
H3832 C3836 0.929 . S
H3833 C3842 0.929 . S
C3834 H3828 0.930 . S
C3834 C3835 1.367 . S
C3834 C3842 1.378 . S
C3835 C3834 1.367 . S
C3835 C3843 1.433 . S
C3836 H3832 0.929 . S
C3836 C3838 1.378 . S
C3836 C3840 1.350 . S
C3837 C3840 1.463 . S
C3837 C3842 1.350 . S
C3837 N3845 1.427 . S
C3838 H3829 0.930 . S
C3838 C3836 1.378 . S
C3838 C3839 1.367 . S
C3839 C3838 1.367 . S
C3839 C3841 1.433 . S
C3840 C3836 1.350 . S
C3840 C3837 1.463 . S
C3840 N3844 1.427 . S
C3841 H3831 0.929 . S
C3841 C3839 1.433 . S
C3841 N3844 1.384 . S
C3842 H3833 0.929 . S
C3842 C3834 1.378 . S
C3842 C3837 1.350 . S
C3843 H3830 0.929 . S
C3843 C3835 1.433 . S
C3843 N3845 1.384 . S
N3844 C3840 1.427 . S
N3844 C3841 1.384 . S
N3845 C3837 1.427 . S
N3845 C3843 1.384 . S
H3846 C3852 0.930 . S
H3847 C3856 0.930 . S
H3848 C3861 0.929 . S
H3849 C3859 0.929 . S
H3850 C3854 0.929 . S
H3851 C3860 0.929 . S
C3852 H3846 0.930 . S
C3852 C3853 1.367 . S
C3852 C3860 1.378 . S
C3853 C3852 1.367 . S
C3853 C3861 1.433 . S
C3854 H3850 0.929 . S
C3854 C3856 1.378 . S
C3854 C3858 1.350 . S
C3855 C3858 1.463 . S
C3855 C3860 1.350 . S
C3855 N3863 1.427 . S
C3856 H3847 0.930 . S
C3856 C3854 1.378 . S
C3856 C3857 1.367 . S
C3857 C3856 1.367 . S
C3857 C3859 1.433 . S
C3858 C3854 1.350 . S
C3858 C3855 1.463 . S
C3858 N3862 1.427 . S
C3859 H3849 0.929 . S
C3859 C3857 1.433 . S
C3859 N3862 1.384 . S
C3860 H3851 0.929 . S
C3860 C3852 1.378 . S
C3860 C3855 1.350 . S
C3861 H3848 0.929 . S
C3861 C3853 1.433 . S
C3861 N3863 1.384 . S
N3862 C3858 1.427 . S
N3862 C3859 1.384 . S
N3863 C3855 1.427 . S
N3863 C3861 1.384 . S
H3864 C3870 0.930 . S
H3865 C3874 0.930 . S
H3866 C3879 0.929 . S
H3867 C3877 0.929 . S
H3868 C3872 0.929 . S
H3869 C3878 0.929 . S
C3870 H3864 0.930 . S
C3870 C3871 1.367 . S
C3870 C3878 1.378 . S
C3871 C3870 1.367 . S
C3871 C3879 1.433 . S
C3872 H3868 0.929 . S
C3872 C3874 1.378 . S
C3872 C3876 1.350 . S
C3873 C3876 1.463 . S
C3873 C3878 1.350 . S
C3873 N3881 1.427 . S
C3874 H3865 0.930 . S
C3874 C3872 1.378 . S
C3874 C3875 1.367 . S
C3875 C3874 1.367 . S
C3875 C3877 1.433 . S
C3876 C3872 1.350 . S
C3876 C3873 1.463 . S
C3876 N3880 1.427 . S
C3877 H3867 0.929 . S
C3877 C3875 1.433 . S
C3877 N3880 1.384 . S
C3878 H3869 0.929 . S
C3878 C3870 1.378 . S
C3878 C3873 1.350 . S
C3879 H3866 0.929 . S
C3879 C3871 1.433 . S
C3879 N3881 1.384 . S
N3880 C3876 1.427 . S
N3880 C3877 1.384 . S
N3881 C3873 1.427 . S
N3881 C3879 1.384 . S
H3882 C3888 0.930 . S
H3883 C3892 0.930 . S
H3884 C3897 0.929 . S
H3885 C3895 0.929 . S
H3886 C3890 0.929 . S
H3887 C3896 0.929 . S
C3888 H3882 0.930 . S
C3888 C3889 1.367 . S
C3888 C3896 1.378 . S
C3889 C3888 1.367 . S
C3889 C3897 1.433 . S
C3890 H3886 0.929 . S
C3890 C3892 1.378 . S
C3890 C3894 1.350 . S
C3891 C3894 1.463 . S
C3891 C3896 1.350 . S
C3891 N3899 1.427 . S
C3892 H3883 0.930 . S
C3892 C3890 1.378 . S
C3892 C3893 1.367 . S
C3893 C3892 1.367 . S
C3893 C3895 1.433 . S
C3894 C3890 1.350 . S
C3894 C3891 1.463 . S
C3894 N3898 1.427 . S
C3895 H3885 0.929 . S
C3895 C3893 1.433 . S
C3895 N3898 1.384 . S
C3896 H3887 0.929 . S
C3896 C3888 1.378 . S
C3896 C3891 1.350 . S
C3897 H3884 0.929 . S
C3897 C3889 1.433 . S
C3897 N3899 1.384 . S
N3898 C3894 1.427 . S
N3898 C3895 1.384 . S
N3899 C3891 1.427 . S
N3899 C3897 1.384 . S
H3900 C3906 0.930 . S
H3901 C3910 0.930 . S
H3902 C3915 0.929 . S
H3903 C3913 0.929 . S
H3904 C3908 0.929 . S
H3905 C3914 0.929 . S
C3906 H3900 0.930 . S
C3906 C3907 1.367 . S
C3906 C3914 1.378 . S
C3907 C3906 1.367 . S
C3907 C3915 1.433 . S
C3908 H3904 0.929 . S
C3908 C3910 1.378 . S
C3908 C3912 1.350 . S
C3909 C3912 1.463 . S
C3909 C3914 1.350 . S
C3909 N3917 1.427 . S
C3910 H3901 0.930 . S
C3910 C3908 1.378 . S
C3910 C3911 1.367 . S
C3911 C3910 1.367 . S
C3911 C3913 1.433 . S
C3912 C3908 1.350 . S
C3912 C3909 1.463 . S
C3912 N3916 1.427 . S
C3913 H3903 0.929 . S
C3913 C3911 1.433 . S
C3913 N3916 1.384 . S
C3914 H3905 0.929 . S
C3914 C3906 1.378 . S
C3914 C3909 1.350 . S
C3915 H3902 0.929 . S
C3915 C3907 1.433 . S
C3915 N3917 1.384 . S
N3916 C3912 1.427 . S
N3916 C3913 1.384 . S
N3917 C3909 1.427 . S
N3917 C3915 1.384 . S
H3918 C3924 0.930 . S
H3919 C3928 0.930 . S
H3920 C3933 0.929 . S
H3921 C3931 0.929 . S
H3922 C3926 0.929 . S
H3923 C3932 0.929 . S
C3924 H3918 0.930 . S
C3924 C3925 1.367 . S
C3924 C3932 1.378 . S
C3925 C3924 1.367 . S
C3925 C3933 1.433 . S
C3926 H3922 0.929 . S
C3926 C3928 1.378 . S
C3926 C3930 1.350 . S
C3927 C3930 1.463 . S
C3927 C3932 1.350 . S
C3927 N3935 1.427 . S
C3928 H3919 0.930 . S
C3928 C3926 1.378 . S
C3928 C3929 1.367 . S
C3929 C3928 1.367 . S
C3929 C3931 1.433 . S
C3930 C3926 1.350 . S
C3930 C3927 1.463 . S
C3930 N3934 1.427 . S
C3931 H3921 0.929 . S
C3931 C3929 1.433 . S
C3931 N3934 1.384 . S
C3932 H3923 0.929 . S
C3932 C3924 1.378 . S
C3932 C3927 1.350 . S
C3933 H3920 0.929 . S
C3933 C3925 1.433 . S
C3933 N3935 1.384 . S
N3934 C3930 1.427 . S
N3934 C3931 1.384 . S
N3935 C3927 1.427 . S
N3935 C3933 1.384 . S
H3936 C3942 0.930 . S
H3937 C3946 0.930 . S
H3938 C3951 0.929 . S
H3939 C3949 0.929 . S
H3940 C3944 0.929 . S
H3941 C3950 0.929 . S
C3942 H3936 0.930 . S
C3942 C3943 1.367 . S
C3942 C3950 1.378 . S
C3943 C3942 1.367 . S
C3943 C3951 1.433 . S
C3944 H3940 0.929 . S
C3944 C3946 1.378 . S
C3944 C3948 1.350 . S
C3945 C3948 1.463 . S
C3945 C3950 1.350 . S
C3945 N3953 1.427 . S
C3946 H3937 0.930 . S
C3946 C3944 1.378 . S
C3946 C3947 1.367 . S
C3947 C3946 1.367 . S
C3947 C3949 1.433 . S
C3948 C3944 1.350 . S
C3948 C3945 1.463 . S
C3948 N3952 1.427 . S
C3949 H3939 0.929 . S
C3949 C3947 1.433 . S
C3949 N3952 1.384 . S
C3950 H3941 0.929 . S
C3950 C3942 1.378 . S
C3950 C3945 1.350 . S
C3951 H3938 0.929 . S
C3951 C3943 1.433 . S
C3951 N3953 1.384 . S
N3952 C3948 1.427 . S
N3952 C3949 1.384 . S
N3953 C3945 1.427 . S
N3953 C3951 1.384 . S
H3954 C3960 0.930 . S
H3955 C3964 0.930 . S
H3956 C3969 0.929 . S
H3957 C3967 0.929 . S
H3958 C3962 0.929 . S
H3959 C3968 0.929 . S
C3960 H3954 0.930 . S
C3960 C3961 1.367 . S
C3960 C3968 1.378 . S
C3961 C3960 1.367 . S
C3961 C3969 1.433 . S
C3962 H3958 0.929 . S
C3962 C3964 1.378 . S
C3962 C3966 1.350 . S
C3963 C3966 1.463 . S
C3963 C3968 1.350 . S
C3963 N3971 1.427 . S
C3964 H3955 0.930 . S
C3964 C3962 1.378 . S
C3964 C3965 1.367 . S
C3965 C3964 1.367 . S
C3965 C3967 1.433 . S
C3966 C3962 1.350 . S
C3966 C3963 1.463 . S
C3966 N3970 1.427 . S
C3967 H3957 0.929 . S
C3967 C3965 1.433 . S
C3967 N3970 1.384 . S
C3968 H3959 0.929 . S
C3968 C3960 1.378 . S
C3968 C3963 1.350 . S
C3969 H3956 0.929 . S
C3969 C3961 1.433 . S
C3969 N3971 1.384 . S
N3970 C3966 1.427 . S
N3970 C3967 1.384 . S
N3971 C3963 1.427 . S
N3971 C3969 1.384 . S
H3972 C3978 0.930 . S
H3973 C3982 0.930 . S
H3974 C3987 0.929 . S
H3975 C3985 0.929 . S
H3976 C3980 0.929 . S
H3977 C3986 0.929 . S
C3978 H3972 0.930 . S
C3978 C3979 1.367 . S
C3978 C3986 1.378 . S
C3979 C3978 1.367 . S
C3979 C3987 1.433 . S
C3980 H3976 0.929 . S
C3980 C3982 1.378 . S
C3980 C3984 1.350 . S
C3981 C3984 1.463 . S
C3981 C3986 1.350 . S
C3981 N3989 1.427 . S
C3982 H3973 0.930 . S
C3982 C3980 1.378 . S
C3982 C3983 1.367 . S
C3983 C3982 1.367 . S
C3983 C3985 1.433 . S
C3984 C3980 1.350 . S
C3984 C3981 1.463 . S
C3984 N3988 1.427 . S
C3985 H3975 0.929 . S
C3985 C3983 1.433 . S
C3985 N3988 1.384 . S
C3986 H3977 0.929 . S
C3986 C3978 1.378 . S
C3986 C3981 1.350 . S
C3987 H3974 0.929 . S
C3987 C3979 1.433 . S
C3987 N3989 1.384 . S
N3988 C3984 1.427 . S
N3988 C3985 1.384 . S
N3989 C3981 1.427 . S
N3989 C3987 1.384 . S
H3990 C3996 0.930 . S
H3991 C4000 0.930 . S
H3992 C4005 0.929 . S
H3993 C4003 0.929 . S
H3994 C3998 0.929 . S
H3995 C4004 0.929 . S
C3996 H3990 0.930 . S
C3996 C3997 1.367 . S
C3996 C4004 1.378 . S
C3997 C3996 1.367 . S
C3997 C4005 1.433 . S
C3998 H3994 0.929 . S
C3998 C4000 1.378 . S
C3998 C4002 1.350 . S
C3999 C4002 1.463 . S
C3999 C4004 1.350 . S
C3999 N4007 1.427 . S
C4000 H3991 0.930 . S
C4000 C3998 1.378 . S
C4000 C4001 1.367 . S
C4001 C4000 1.367 . S
C4001 C4003 1.433 . S
C4002 C3998 1.350 . S
C4002 C3999 1.463 . S
C4002 N4006 1.427 . S
C4003 H3993 0.929 . S
C4003 C4001 1.433 . S
C4003 N4006 1.384 . S
C4004 H3995 0.929 . S
C4004 C3996 1.378 . S
C4004 C3999 1.350 . S
C4005 H3992 0.929 . S
C4005 C3997 1.433 . S
C4005 N4007 1.384 . S
N4006 C4002 1.427 . S
N4006 C4003 1.384 . S
N4007 C3999 1.427 . S
N4007 C4005 1.384 . S
H4008 C4014 0.930 . S
H4009 C4018 0.930 . S
H4010 C4023 0.929 . S
H4011 C4021 0.929 . S
H4012 C4016 0.929 . S
H4013 C4022 0.929 . S
C4014 H4008 0.930 . S
C4014 C4015 1.367 . S
C4014 C4022 1.378 . S
C4015 C4014 1.367 . S
C4015 C4023 1.433 . S
C4016 H4012 0.929 . S
C4016 C4018 1.378 . S
C4016 C4020 1.350 . S
C4017 C4020 1.463 . S
C4017 C4022 1.350 . S
C4017 N4025 1.427 . S
C4018 H4009 0.930 . S
C4018 C4016 1.378 . S
C4018 C4019 1.367 . S
C4019 C4018 1.367 . S
C4019 C4021 1.433 . S
C4020 C4016 1.350 . S
C4020 C4017 1.463 . S
C4020 N4024 1.427 . S
C4021 H4011 0.929 . S
C4021 C4019 1.433 . S
C4021 N4024 1.384 . S
C4022 H4013 0.929 . S
C4022 C4014 1.378 . S
C4022 C4017 1.350 . S
C4023 H4010 0.929 . S
C4023 C4015 1.433 . S
C4023 N4025 1.384 . S
N4024 C4020 1.427 . S
N4024 C4021 1.384 . S
N4025 C4017 1.427 . S
N4025 C4023 1.384 . S
H4026 C4032 0.930 . S
H4027 C4036 0.930 . S
H4028 C4041 0.929 . S
H4029 C4039 0.929 . S
H4030 C4034 0.929 . S
H4031 C4040 0.929 . S
C4032 H4026 0.930 . S
C4032 C4033 1.367 . S
C4032 C4040 1.378 . S
C4033 C4032 1.367 . S
C4033 C4041 1.433 . S
C4034 H4030 0.929 . S
C4034 C4036 1.378 . S
C4034 C4038 1.350 . S
C4035 C4038 1.463 . S
C4035 C4040 1.350 . S
C4035 N4043 1.427 . S
C4036 H4027 0.930 . S
C4036 C4034 1.378 . S
C4036 C4037 1.367 . S
C4037 C4036 1.367 . S
C4037 C4039 1.433 . S
C4038 C4034 1.350 . S
C4038 C4035 1.463 . S
C4038 N4042 1.427 . S
C4039 H4029 0.929 . S
C4039 C4037 1.433 . S
C4039 N4042 1.384 . S
C4040 H4031 0.929 . S
C4040 C4032 1.378 . S
C4040 C4035 1.350 . S
C4041 H4028 0.929 . S
C4041 C4033 1.433 . S
C4041 N4043 1.384 . S
N4042 C4038 1.427 . S
N4042 C4039 1.384 . S
N4043 C4035 1.427 . S
N4043 C4041 1.384 . S
H4044 C4050 0.930 . S
H4045 C4054 0.930 . S
H4046 C4059 0.929 . S
H4047 C4057 0.929 . S
H4048 C4052 0.929 . S
H4049 C4058 0.929 . S
C4050 H4044 0.930 . S
C4050 C4051 1.367 . S
C4050 C4058 1.378 . S
C4051 C4050 1.367 . S
C4051 C4059 1.433 . S
C4052 H4048 0.929 . S
C4052 C4054 1.378 . S
C4052 C4056 1.350 . S
C4053 C4056 1.463 . S
C4053 C4058 1.350 . S
C4053 N4061 1.427 . S
C4054 H4045 0.930 . S
C4054 C4052 1.378 . S
C4054 C4055 1.367 . S
C4055 C4054 1.367 . S
C4055 C4057 1.433 . S
C4056 C4052 1.350 . S
C4056 C4053 1.463 . S
C4056 N4060 1.427 . S
C4057 H4047 0.929 . S
C4057 C4055 1.433 . S
C4057 N4060 1.384 . S
C4058 H4049 0.929 . S
C4058 C4050 1.378 . S
C4058 C4053 1.350 . S
C4059 H4046 0.929 . S
C4059 C4051 1.433 . S
C4059 N4061 1.384 . S
N4060 C4056 1.427 . S
N4060 C4057 1.384 . S
N4061 C4053 1.427 . S
N4061 C4059 1.384 . S
H4062 C4068 0.930 . S
H4063 C4072 0.930 . S
H4064 C4077 0.929 . S
H4065 C4075 0.929 . S
H4066 C4070 0.929 . S
H4067 C4076 0.929 . S
C4068 H4062 0.930 . S
C4068 C4069 1.367 . S
C4068 C4076 1.378 . S
C4069 C4068 1.367 . S
C4069 C4077 1.433 . S
C4070 H4066 0.929 . S
C4070 C4072 1.378 . S
C4070 C4074 1.350 . S
C4071 C4074 1.463 . S
C4071 C4076 1.350 . S
C4071 N4079 1.427 . S
C4072 H4063 0.930 . S
C4072 C4070 1.378 . S
C4072 C4073 1.367 . S
C4073 C4072 1.367 . S
C4073 C4075 1.433 . S
C4074 C4070 1.350 . S
C4074 C4071 1.463 . S
C4074 N4078 1.427 . S
C4075 H4065 0.929 . S
C4075 C4073 1.433 . S
C4075 N4078 1.384 . S
C4076 H4067 0.929 . S
C4076 C4068 1.378 . S
C4076 C4071 1.350 . S
C4077 H4064 0.929 . S
C4077 C4069 1.433 . S
C4077 N4079 1.384 . S
N4078 C4074 1.427 . S
N4078 C4075 1.384 . S
N4079 C4071 1.427 . S
N4079 C4077 1.384 . S
H4080 C4086 0.930 . S
H4081 C4090 0.930 . S
H4082 C4095 0.929 . S
H4083 C4093 0.929 . S
H4084 C4088 0.929 . S
H4085 C4094 0.929 . S
C4086 H4080 0.930 . S
C4086 C4087 1.367 . S
C4086 C4094 1.378 . S
C4087 C4086 1.367 . S
C4087 C4095 1.433 . S
C4088 H4084 0.929 . S
C4088 C4090 1.378 . S
C4088 C4092 1.350 . S
C4089 C4092 1.463 . S
C4089 C4094 1.350 . S
C4089 N4097 1.427 . S
C4090 H4081 0.930 . S
C4090 C4088 1.378 . S
C4090 C4091 1.367 . S
C4091 C4090 1.367 . S
C4091 C4093 1.433 . S
C4092 C4088 1.350 . S
C4092 C4089 1.463 . S
C4092 N4096 1.427 . S
C4093 H4083 0.929 . S
C4093 C4091 1.433 . S
C4093 N4096 1.384 . S
C4094 H4085 0.929 . S
C4094 C4086 1.378 . S
C4094 C4089 1.350 . S
C4095 H4082 0.929 . S
C4095 C4087 1.433 . S
C4095 N4097 1.384 . S
N4096 C4092 1.427 . S
N4096 C4093 1.384 . S
N4097 C4089 1.427 . S
N4097 C4095 1.384 . S
H4098 C4104 0.930 . S
H4099 C4108 0.930 . S
H4100 C4113 0.929 . S
H4101 C4111 0.929 . S
H4102 C4106 0.929 . S
H4103 C4112 0.929 . S
C4104 H4098 0.930 . S
C4104 C4105 1.367 . S
C4104 C4112 1.378 . S
C4105 C4104 1.367 . S
C4105 C4113 1.433 . S
C4106 H4102 0.929 . S
C4106 C4108 1.378 . S
C4106 C4110 1.350 . S
C4107 C4110 1.463 . S
C4107 C4112 1.350 . S
C4107 N4115 1.427 . S
C4108 H4099 0.930 . S
C4108 C4106 1.378 . S
C4108 C4109 1.367 . S
C4109 C4108 1.367 . S
C4109 C4111 1.433 . S
C4110 C4106 1.350 . S
C4110 C4107 1.463 . S
C4110 N4114 1.427 . S
C4111 H4101 0.929 . S
C4111 C4109 1.433 . S
C4111 N4114 1.384 . S
C4112 H4103 0.929 . S
C4112 C4104 1.378 . S
C4112 C4107 1.350 . S
C4113 H4100 0.929 . S
C4113 C4105 1.433 . S
C4113 N4115 1.384 . S
N4114 C4110 1.427 . S
N4114 C4111 1.384 . S
N4115 C4107 1.427 . S
N4115 C4113 1.384 . S
H4116 C4122 0.930 . S
H4117 C4126 0.930 . S
H4118 C4131 0.929 . S
H4119 C4129 0.929 . S
H4120 C4124 0.929 . S
H4121 C4130 0.929 . S
C4122 H4116 0.930 . S
C4122 C4123 1.367 . S
C4122 C4130 1.378 . S
C4123 C4122 1.367 . S
C4123 C4131 1.433 . S
C4124 H4120 0.929 . S
C4124 C4126 1.378 . S
C4124 C4128 1.350 . S
C4125 C4128 1.463 . S
C4125 C4130 1.350 . S
C4125 N4133 1.427 . S
C4126 H4117 0.930 . S
C4126 C4124 1.378 . S
C4126 C4127 1.367 . S
C4127 C4126 1.367 . S
C4127 C4129 1.433 . S
C4128 C4124 1.350 . S
C4128 C4125 1.463 . S
C4128 N4132 1.427 . S
C4129 H4119 0.929 . S
C4129 C4127 1.433 . S
C4129 N4132 1.384 . S
C4130 H4121 0.929 . S
C4130 C4122 1.378 . S
C4130 C4125 1.350 . S
C4131 H4118 0.929 . S
C4131 C4123 1.433 . S
C4131 N4133 1.384 . S
N4132 C4128 1.427 . S
N4132 C4129 1.384 . S
N4133 C4125 1.427 . S
N4133 C4131 1.384 . S
H4134 C4140 0.930 . S
H4135 C4144 0.930 . S
H4136 C4149 0.929 . S
H4137 C4147 0.929 . S
H4138 C4142 0.929 . S
H4139 C4148 0.929 . S
C4140 H4134 0.930 . S
C4140 C4141 1.367 . S
C4140 C4148 1.378 . S
C4141 C4140 1.367 . S
C4141 C4149 1.433 . S
C4142 H4138 0.929 . S
C4142 C4144 1.378 . S
C4142 C4146 1.350 . S
C4143 C4146 1.463 . S
C4143 C4148 1.350 . S
C4143 N4151 1.427 . S
C4144 H4135 0.930 . S
C4144 C4142 1.378 . S
C4144 C4145 1.367 . S
C4145 C4144 1.367 . S
C4145 C4147 1.433 . S
C4146 C4142 1.350 . S
C4146 C4143 1.463 . S
C4146 N4150 1.427 . S
C4147 H4137 0.929 . S
C4147 C4145 1.433 . S
C4147 N4150 1.384 . S
C4148 H4139 0.929 . S
C4148 C4140 1.378 . S
C4148 C4143 1.350 . S
C4149 H4136 0.929 . S
C4149 C4141 1.433 . S
C4149 N4151 1.384 . S
N4150 C4146 1.427 . S
N4150 C4147 1.384 . S
N4151 C4143 1.427 . S
N4151 C4149 1.384 . S
H4152 C4158 0.930 . S
H4153 C4162 0.930 . S
H4154 C4167 0.929 . S
H4155 C4165 0.929 . S
H4156 C4160 0.929 . S
H4157 C4166 0.929 . S
C4158 H4152 0.930 . S
C4158 C4159 1.367 . S
C4158 C4166 1.378 . S
C4159 C4158 1.367 . S
C4159 C4167 1.433 . S
C4160 H4156 0.929 . S
C4160 C4162 1.378 . S
C4160 C4164 1.350 . S
C4161 C4164 1.463 . S
C4161 C4166 1.350 . S
C4161 N4169 1.427 . S
C4162 H4153 0.930 . S
C4162 C4160 1.378 . S
C4162 C4163 1.367 . S
C4163 C4162 1.367 . S
C4163 C4165 1.433 . S
C4164 C4160 1.350 . S
C4164 C4161 1.463 . S
C4164 N4168 1.427 . S
C4165 H4155 0.929 . S
C4165 C4163 1.433 . S
C4165 N4168 1.384 . S
C4166 H4157 0.929 . S
C4166 C4158 1.378 . S
C4166 C4161 1.350 . S
C4167 H4154 0.929 . S
C4167 C4159 1.433 . S
C4167 N4169 1.384 . S
N4168 C4164 1.427 . S
N4168 C4165 1.384 . S
N4169 C4161 1.427 . S
N4169 C4167 1.384 . S
H4170 C4176 0.930 . S
H4171 C4180 0.930 . S
H4172 C4185 0.929 . S
H4173 C4183 0.929 . S
H4174 C4178 0.929 . S
H4175 C4184 0.929 . S
C4176 H4170 0.930 . S
C4176 C4177 1.367 . S
C4176 C4184 1.378 . S
C4177 C4176 1.367 . S
C4177 C4185 1.433 . S
C4178 H4174 0.929 . S
C4178 C4180 1.378 . S
C4178 C4182 1.350 . S
C4179 C4182 1.463 . S
C4179 C4184 1.350 . S
C4179 N4187 1.427 . S
C4180 H4171 0.930 . S
C4180 C4178 1.378 . S
C4180 C4181 1.367 . S
C4181 C4180 1.367 . S
C4181 C4183 1.433 . S
C4182 C4178 1.350 . S
C4182 C4179 1.463 . S
C4182 N4186 1.427 . S
C4183 H4173 0.929 . S
C4183 C4181 1.433 . S
C4183 N4186 1.384 . S
C4184 H4175 0.929 . S
C4184 C4176 1.378 . S
C4184 C4179 1.350 . S
C4185 H4172 0.929 . S
C4185 C4177 1.433 . S
C4185 N4187 1.384 . S
N4186 C4182 1.427 . S
N4186 C4183 1.384 . S
N4187 C4179 1.427 . S
N4187 C4185 1.384 . S
H4188 C4194 0.930 . S
H4189 C4198 0.930 . S
H4190 C4203 0.929 . S
H4191 C4201 0.929 . S
H4192 C4196 0.929 . S
H4193 C4202 0.929 . S
C4194 H4188 0.930 . S
C4194 C4195 1.367 . S
C4194 C4202 1.378 . S
C4195 C4194 1.367 . S
C4195 C4203 1.433 . S
C4196 H4192 0.929 . S
C4196 C4198 1.378 . S
C4196 C4200 1.350 . S
C4197 C4200 1.463 . S
C4197 C4202 1.350 . S
C4197 N4205 1.427 . S
C4198 H4189 0.930 . S
C4198 C4196 1.378 . S
C4198 C4199 1.367 . S
C4199 C4198 1.367 . S
C4199 C4201 1.433 . S
C4200 C4196 1.350 . S
C4200 C4197 1.463 . S
C4200 N4204 1.427 . S
C4201 H4191 0.929 . S
C4201 C4199 1.433 . S
C4201 N4204 1.384 . S
C4202 H4193 0.929 . S
C4202 C4194 1.378 . S
C4202 C4197 1.350 . S
C4203 H4190 0.929 . S
C4203 C4195 1.433 . S
C4203 N4205 1.384 . S
N4204 C4200 1.427 . S
N4204 C4201 1.384 . S
N4205 C4197 1.427 . S
N4205 C4203 1.384 . S
H4206 C4212 0.930 . S
H4207 C4216 0.930 . S
H4208 C4221 0.929 . S
H4209 C4219 0.929 . S
H4210 C4214 0.929 . S
H4211 C4220 0.929 . S
C4212 H4206 0.930 . S
C4212 C4213 1.367 . S
C4212 C4220 1.378 . S
C4213 C4212 1.367 . S
C4213 C4221 1.433 . S
C4214 H4210 0.929 . S
C4214 C4216 1.378 . S
C4214 C4218 1.350 . S
C4215 C4218 1.463 . S
C4215 C4220 1.350 . S
C4215 N4223 1.427 . S
C4216 H4207 0.930 . S
C4216 C4214 1.378 . S
C4216 C4217 1.367 . S
C4217 C4216 1.367 . S
C4217 C4219 1.433 . S
C4218 C4214 1.350 . S
C4218 C4215 1.463 . S
C4218 N4222 1.427 . S
C4219 H4209 0.929 . S
C4219 C4217 1.433 . S
C4219 N4222 1.384 . S
C4220 H4211 0.929 . S
C4220 C4212 1.378 . S
C4220 C4215 1.350 . S
C4221 H4208 0.929 . S
C4221 C4213 1.433 . S
C4221 N4223 1.384 . S
N4222 C4218 1.427 . S
N4222 C4219 1.384 . S
N4223 C4215 1.427 . S
N4223 C4221 1.384 . S
H4224 C4230 0.930 . S
H4225 C4234 0.930 . S
H4226 C4239 0.929 . S
H4227 C4237 0.929 . S
H4228 C4232 0.929 . S
H4229 C4238 0.929 . S
C4230 H4224 0.930 . S
C4230 C4231 1.367 . S
C4230 C4238 1.378 . S
C4231 C4230 1.367 . S
C4231 C4239 1.433 . S
C4232 H4228 0.929 . S
C4232 C4234 1.378 . S
C4232 C4236 1.350 . S
C4233 C4236 1.463 . S
C4233 C4238 1.350 . S
C4233 N4241 1.427 . S
C4234 H4225 0.930 . S
C4234 C4232 1.378 . S
C4234 C4235 1.367 . S
C4235 C4234 1.367 . S
C4235 C4237 1.433 . S
C4236 C4232 1.350 . S
C4236 C4233 1.463 . S
C4236 N4240 1.427 . S
C4237 H4227 0.929 . S
C4237 C4235 1.433 . S
C4237 N4240 1.384 . S
C4238 H4229 0.929 . S
C4238 C4230 1.378 . S
C4238 C4233 1.350 . S
C4239 H4226 0.929 . S
C4239 C4231 1.433 . S
C4239 N4241 1.384 . S
N4240 C4236 1.427 . S
N4240 C4237 1.384 . S
N4241 C4233 1.427 . S
N4241 C4239 1.384 . S
H4242 C4248 0.930 . S
H4243 C4252 0.930 . S
H4244 C4257 0.929 . S
H4245 C4255 0.929 . S
H4246 C4250 0.929 . S
H4247 C4256 0.929 . S
C4248 H4242 0.930 . S
C4248 C4249 1.367 . S
C4248 C4256 1.378 . S
C4249 C4248 1.367 . S
C4249 C4257 1.433 . S
C4250 H4246 0.929 . S
C4250 C4252 1.378 . S
C4250 C4254 1.350 . S
C4251 C4254 1.463 . S
C4251 C4256 1.350 . S
C4251 N4259 1.427 . S
C4252 H4243 0.930 . S
C4252 C4250 1.378 . S
C4252 C4253 1.367 . S
C4253 C4252 1.367 . S
C4253 C4255 1.433 . S
C4254 C4250 1.350 . S
C4254 C4251 1.463 . S
C4254 N4258 1.427 . S
C4255 H4245 0.929 . S
C4255 C4253 1.433 . S
C4255 N4258 1.384 . S
C4256 H4247 0.929 . S
C4256 C4248 1.378 . S
C4256 C4251 1.350 . S
C4257 H4244 0.929 . S
C4257 C4249 1.433 . S
C4257 N4259 1.384 . S
N4258 C4254 1.427 . S
N4258 C4255 1.384 . S
N4259 C4251 1.427 . S
N4259 C4257 1.384 . S
H4260 C4266 0.930 . S
H4261 C4270 0.930 . S
H4262 C4275 0.929 . S
H4263 C4273 0.929 . S
H4264 C4268 0.929 . S
H4265 C4274 0.929 . S
C4266 H4260 0.930 . S
C4266 C4267 1.367 . S
C4266 C4274 1.378 . S
C4267 C4266 1.367 . S
C4267 C4275 1.433 . S
C4268 H4264 0.929 . S
C4268 C4270 1.378 . S
C4268 C4272 1.350 . S
C4269 C4272 1.463 . S
C4269 C4274 1.350 . S
C4269 N4277 1.427 . S
C4270 H4261 0.930 . S
C4270 C4268 1.378 . S
C4270 C4271 1.367 . S
C4271 C4270 1.367 . S
C4271 C4273 1.433 . S
C4272 C4268 1.350 . S
C4272 C4269 1.463 . S
C4272 N4276 1.427 . S
C4273 H4263 0.929 . S
C4273 C4271 1.433 . S
C4273 N4276 1.384 . S
C4274 H4265 0.929 . S
C4274 C4266 1.378 . S
C4274 C4269 1.350 . S
C4275 H4262 0.929 . S
C4275 C4267 1.433 . S
C4275 N4277 1.384 . S
N4276 C4272 1.427 . S
N4276 C4273 1.384 . S
N4277 C4269 1.427 . S
N4277 C4275 1.384 . S
H4278 C4284 0.930 . S
H4279 C4288 0.930 . S
H4280 C4293 0.929 . S
H4281 C4291 0.929 . S
H4282 C4286 0.929 . S
H4283 C4292 0.929 . S
C4284 H4278 0.930 . S
C4284 C4285 1.367 . S
C4284 C4292 1.378 . S
C4285 C4284 1.367 . S
C4285 C4293 1.433 . S
C4286 H4282 0.929 . S
C4286 C4288 1.378 . S
C4286 C4290 1.350 . S
C4287 C4290 1.463 . S
C4287 C4292 1.350 . S
C4287 N4295 1.427 . S
C4288 H4279 0.930 . S
C4288 C4286 1.378 . S
C4288 C4289 1.367 . S
C4289 C4288 1.367 . S
C4289 C4291 1.433 . S
C4290 C4286 1.350 . S
C4290 C4287 1.463 . S
C4290 N4294 1.427 . S
C4291 H4281 0.929 . S
C4291 C4289 1.433 . S
C4291 N4294 1.384 . S
C4292 H4283 0.929 . S
C4292 C4284 1.378 . S
C4292 C4287 1.350 . S
C4293 H4280 0.929 . S
C4293 C4285 1.433 . S
C4293 N4295 1.384 . S
N4294 C4290 1.427 . S
N4294 C4291 1.384 . S
N4295 C4287 1.427 . S
N4295 C4293 1.384 . S
H4296 C4302 0.930 . S
H4297 C4306 0.930 . S
H4298 C4311 0.929 . S
H4299 C4309 0.929 . S
H4300 C4304 0.929 . S
H4301 C4310 0.929 . S
C4302 H4296 0.930 . S
C4302 C4303 1.367 . S
C4302 C4310 1.378 . S
C4303 C4302 1.367 . S
C4303 C4311 1.433 . S
C4304 H4300 0.929 . S
C4304 C4306 1.378 . S
C4304 C4308 1.350 . S
C4305 C4308 1.463 . S
C4305 C4310 1.350 . S
C4305 N4313 1.427 . S
C4306 H4297 0.930 . S
C4306 C4304 1.378 . S
C4306 C4307 1.367 . S
C4307 C4306 1.367 . S
C4307 C4309 1.433 . S
C4308 C4304 1.350 . S
C4308 C4305 1.463 . S
C4308 N4312 1.427 . S
C4309 H4299 0.929 . S
C4309 C4307 1.433 . S
C4309 N4312 1.384 . S
C4310 H4301 0.929 . S
C4310 C4302 1.378 . S
C4310 C4305 1.350 . S
C4311 H4298 0.929 . S
C4311 C4303 1.433 . S
C4311 N4313 1.384 . S
N4312 C4308 1.427 . S
N4312 C4309 1.384 . S
N4313 C4305 1.427 . S
N4313 C4311 1.384 . S
H4314 C4320 0.930 . S
H4315 C4324 0.930 . S
H4316 C4329 0.929 . S
H4317 C4327 0.929 . S
H4318 C4322 0.929 . S
H4319 C4328 0.929 . S
C4320 H4314 0.930 . S
C4320 C4321 1.367 . S
C4320 C4328 1.378 . S
C4321 C4320 1.367 . S
C4321 C4329 1.433 . S
C4322 H4318 0.929 . S
C4322 C4324 1.378 . S
C4322 C4326 1.350 . S
C4323 C4326 1.463 . S
C4323 C4328 1.350 . S
C4323 N4331 1.427 . S
C4324 H4315 0.930 . S
C4324 C4322 1.378 . S
C4324 C4325 1.367 . S
C4325 C4324 1.367 . S
C4325 C4327 1.433 . S
C4326 C4322 1.350 . S
C4326 C4323 1.463 . S
C4326 N4330 1.427 . S
C4327 H4317 0.929 . S
C4327 C4325 1.433 . S
C4327 N4330 1.384 . S
C4328 H4319 0.929 . S
C4328 C4320 1.378 . S
C4328 C4323 1.350 . S
C4329 H4316 0.929 . S
C4329 C4321 1.433 . S
C4329 N4331 1.384 . S
N4330 C4326 1.427 . S
N4330 C4327 1.384 . S
N4331 C4323 1.427 . S
N4331 C4329 1.384 . S
H4332 C4338 0.930 . S
H4333 C4342 0.930 . S
H4334 C4347 0.929 . S
H4335 C4345 0.929 . S
H4336 C4340 0.929 . S
H4337 C4346 0.929 . S
C4338 H4332 0.930 . S
C4338 C4339 1.367 . S
C4338 C4346 1.378 . S
C4339 C4338 1.367 . S
C4339 C4347 1.433 . S
C4340 H4336 0.929 . S
C4340 C4342 1.378 . S
C4340 C4344 1.350 . S
C4341 C4344 1.463 . S
C4341 C4346 1.350 . S
C4341 N4349 1.427 . S
C4342 H4333 0.930 . S
C4342 C4340 1.378 . S
C4342 C4343 1.367 . S
C4343 C4342 1.367 . S
C4343 C4345 1.433 . S
C4344 C4340 1.350 . S
C4344 C4341 1.463 . S
C4344 N4348 1.427 . S
C4345 H4335 0.929 . S
C4345 C4343 1.433 . S
C4345 N4348 1.384 . S
C4346 H4337 0.929 . S
C4346 C4338 1.378 . S
C4346 C4341 1.350 . S
C4347 H4334 0.929 . S
C4347 C4339 1.433 . S
C4347 N4349 1.384 . S
N4348 C4344 1.427 . S
N4348 C4345 1.384 . S
N4349 C4341 1.427 . S
N4349 C4347 1.384 . S
H4350 C4356 0.930 . S
H4351 C4360 0.930 . S
H4352 C4365 0.929 . S
H4353 C4363 0.929 . S
H4354 C4358 0.929 . S
H4355 C4364 0.929 . S
C4356 H4350 0.930 . S
C4356 C4357 1.367 . S
C4356 C4364 1.378 . S
C4357 C4356 1.367 . S
C4357 C4365 1.433 . S
C4358 H4354 0.929 . S
C4358 C4360 1.378 . S
C4358 C4362 1.350 . S
C4359 C4362 1.463 . S
C4359 C4364 1.350 . S
C4359 N4367 1.427 . S
C4360 H4351 0.930 . S
C4360 C4358 1.378 . S
C4360 C4361 1.367 . S
C4361 C4360 1.367 . S
C4361 C4363 1.433 . S
C4362 C4358 1.350 . S
C4362 C4359 1.463 . S
C4362 N4366 1.427 . S
C4363 H4353 0.929 . S
C4363 C4361 1.433 . S
C4363 N4366 1.384 . S
C4364 H4355 0.929 . S
C4364 C4356 1.378 . S
C4364 C4359 1.350 . S
C4365 H4352 0.929 . S
C4365 C4357 1.433 . S
C4365 N4367 1.384 . S
N4366 C4362 1.427 . S
N4366 C4363 1.384 . S
N4367 C4359 1.427 . S
N4367 C4365 1.384 . S
H4368 C4374 0.930 . S
H4369 C4378 0.930 . S
H4370 C4383 0.929 . S
H4371 C4381 0.929 . S
H4372 C4376 0.929 . S
H4373 C4382 0.929 . S
C4374 H4368 0.930 . S
C4374 C4375 1.367 . S
C4374 C4382 1.378 . S
C4375 C4374 1.367 . S
C4375 C4383 1.433 . S
C4376 H4372 0.929 . S
C4376 C4378 1.378 . S
C4376 C4380 1.350 . S
C4377 C4380 1.463 . S
C4377 C4382 1.350 . S
C4377 N4385 1.427 . S
C4378 H4369 0.930 . S
C4378 C4376 1.378 . S
C4378 C4379 1.367 . S
C4379 C4378 1.367 . S
C4379 C4381 1.433 . S
C4380 C4376 1.350 . S
C4380 C4377 1.463 . S
C4380 N4384 1.427 . S
C4381 H4371 0.929 . S
C4381 C4379 1.433 . S
C4381 N4384 1.384 . S
C4382 H4373 0.929 . S
C4382 C4374 1.378 . S
C4382 C4377 1.350 . S
C4383 H4370 0.929 . S
C4383 C4375 1.433 . S
C4383 N4385 1.384 . S
N4384 C4380 1.427 . S
N4384 C4381 1.384 . S
N4385 C4377 1.427 . S
N4385 C4383 1.384 . S
H4386 C4392 0.930 . S
H4387 C4396 0.930 . S
H4388 C4401 0.929 . S
H4389 C4399 0.929 . S
H4390 C4394 0.929 . S
H4391 C4400 0.929 . S
C4392 H4386 0.930 . S
C4392 C4393 1.367 . S
C4392 C4400 1.378 . S
C4393 C4392 1.367 . S
C4393 C4401 1.433 . S
C4394 H4390 0.929 . S
C4394 C4396 1.378 . S
C4394 C4398 1.350 . S
C4395 C4398 1.463 . S
C4395 C4400 1.350 . S
C4395 N4403 1.427 . S
C4396 H4387 0.930 . S
C4396 C4394 1.378 . S
C4396 C4397 1.367 . S
C4397 C4396 1.367 . S
C4397 C4399 1.433 . S
C4398 C4394 1.350 . S
C4398 C4395 1.463 . S
C4398 N4402 1.427 . S
C4399 H4389 0.929 . S
C4399 C4397 1.433 . S
C4399 N4402 1.384 . S
C4400 H4391 0.929 . S
C4400 C4392 1.378 . S
C4400 C4395 1.350 . S
C4401 H4388 0.929 . S
C4401 C4393 1.433 . S
C4401 N4403 1.384 . S
N4402 C4398 1.427 . S
N4402 C4399 1.384 . S
N4403 C4395 1.427 . S
N4403 C4401 1.384 . S
H4404 C4410 0.930 . S
H4405 C4414 0.930 . S
H4406 C4419 0.929 . S
H4407 C4417 0.929 . S
H4408 C4412 0.929 . S
H4409 C4418 0.929 . S
C4410 H4404 0.930 . S
C4410 C4411 1.367 . S
C4410 C4418 1.378 . S
C4411 C4410 1.367 . S
C4411 C4419 1.433 . S
C4412 H4408 0.929 . S
C4412 C4414 1.378 . S
C4412 C4416 1.350 . S
C4413 C4416 1.463 . S
C4413 C4418 1.350 . S
C4413 N4421 1.427 . S
C4414 H4405 0.930 . S
C4414 C4412 1.378 . S
C4414 C4415 1.367 . S
C4415 C4414 1.367 . S
C4415 C4417 1.433 . S
C4416 C4412 1.350 . S
C4416 C4413 1.463 . S
C4416 N4420 1.427 . S
C4417 H4407 0.929 . S
C4417 C4415 1.433 . S
C4417 N4420 1.384 . S
C4418 H4409 0.929 . S
C4418 C4410 1.378 . S
C4418 C4413 1.350 . S
C4419 H4406 0.929 . S
C4419 C4411 1.433 . S
C4419 N4421 1.384 . S
N4420 C4416 1.427 . S
N4420 C4417 1.384 . S
N4421 C4413 1.427 . S
N4421 C4419 1.384 . S
H4422 C4428 0.930 . S
H4423 C4432 0.930 . S
H4424 C4437 0.929 . S
H4425 C4435 0.929 . S
H4426 C4430 0.929 . S
H4427 C4436 0.929 . S
C4428 H4422 0.930 . S
C4428 C4429 1.367 . S
C4428 C4436 1.378 . S
C4429 C4428 1.367 . S
C4429 C4437 1.433 . S
C4430 H4426 0.929 . S
C4430 C4432 1.378 . S
C4430 C4434 1.350 . S
C4431 C4434 1.463 . S
C4431 C4436 1.350 . S
C4431 N4439 1.427 . S
C4432 H4423 0.930 . S
C4432 C4430 1.378 . S
C4432 C4433 1.367 . S
C4433 C4432 1.367 . S
C4433 C4435 1.433 . S
C4434 C4430 1.350 . S
C4434 C4431 1.463 . S
C4434 N4438 1.427 . S
C4435 H4425 0.929 . S
C4435 C4433 1.433 . S
C4435 N4438 1.384 . S
C4436 H4427 0.929 . S
C4436 C4428 1.378 . S
C4436 C4431 1.350 . S
C4437 H4424 0.929 . S
C4437 C4429 1.433 . S
C4437 N4439 1.384 . S
N4438 C4434 1.427 . S
N4438 C4435 1.384 . S
N4439 C4431 1.427 . S
N4439 C4437 1.384 . S
H4440 C4446 0.930 . S
H4441 C4450 0.930 . S
H4442 C4455 0.929 . S
H4443 C4453 0.929 . S
H4444 C4448 0.929 . S
H4445 C4454 0.929 . S
C4446 H4440 0.930 . S
C4446 C4447 1.367 . S
C4446 C4454 1.378 . S
C4447 C4446 1.367 . S
C4447 C4455 1.433 . S
C4448 H4444 0.929 . S
C4448 C4450 1.378 . S
C4448 C4452 1.350 . S
C4449 C4452 1.463 . S
C4449 C4454 1.350 . S
C4449 N4457 1.427 . S
C4450 H4441 0.930 . S
C4450 C4448 1.378 . S
C4450 C4451 1.367 . S
C4451 C4450 1.367 . S
C4451 C4453 1.433 . S
C4452 C4448 1.350 . S
C4452 C4449 1.463 . S
C4452 N4456 1.427 . S
C4453 H4443 0.929 . S
C4453 C4451 1.433 . S
C4453 N4456 1.384 . S
C4454 H4445 0.929 . S
C4454 C4446 1.378 . S
C4454 C4449 1.350 . S
C4455 H4442 0.929 . S
C4455 C4447 1.433 . S
C4455 N4457 1.384 . S
N4456 C4452 1.427 . S
N4456 C4453 1.384 . S
N4457 C4449 1.427 . S
N4457 C4455 1.384 . S
H4458 C4464 0.930 . S
H4459 C4468 0.930 . S
H4460 C4473 0.929 . S
H4461 C4471 0.929 . S
H4462 C4466 0.929 . S
H4463 C4472 0.929 . S
C4464 H4458 0.930 . S
C4464 C4465 1.367 . S
C4464 C4472 1.378 . S
C4465 C4464 1.367 . S
C4465 C4473 1.433 . S
C4466 H4462 0.929 . S
C4466 C4468 1.378 . S
C4466 C4470 1.350 . S
C4467 C4470 1.463 . S
C4467 C4472 1.350 . S
C4467 N4475 1.427 . S
C4468 H4459 0.930 . S
C4468 C4466 1.378 . S
C4468 C4469 1.367 . S
C4469 C4468 1.367 . S
C4469 C4471 1.433 . S
C4470 C4466 1.350 . S
C4470 C4467 1.463 . S
C4470 N4474 1.427 . S
C4471 H4461 0.929 . S
C4471 C4469 1.433 . S
C4471 N4474 1.384 . S
C4472 H4463 0.929 . S
C4472 C4464 1.378 . S
C4472 C4467 1.350 . S
C4473 H4460 0.929 . S
C4473 C4465 1.433 . S
C4473 N4475 1.384 . S
N4474 C4470 1.427 . S
N4474 C4471 1.384 . S
N4475 C4467 1.427 . S
N4475 C4473 1.384 . S
H4476 C4482 0.930 . S
H4477 C4486 0.930 . S
H4478 C4491 0.929 . S
H4479 C4489 0.929 . S
H4480 C4484 0.929 . S
H4481 C4490 0.929 . S
C4482 H4476 0.930 . S
C4482 C4483 1.367 . S
C4482 C4490 1.378 . S
C4483 C4482 1.367 . S
C4483 C4491 1.433 . S
C4484 H4480 0.929 . S
C4484 C4486 1.378 . S
C4484 C4488 1.350 . S
C4485 C4488 1.463 . S
C4485 C4490 1.350 . S
C4485 N4493 1.427 . S
C4486 H4477 0.930 . S
C4486 C4484 1.378 . S
C4486 C4487 1.367 . S
C4487 C4486 1.367 . S
C4487 C4489 1.433 . S
C4488 C4484 1.350 . S
C4488 C4485 1.463 . S
C4488 N4492 1.427 . S
C4489 H4479 0.929 . S
C4489 C4487 1.433 . S
C4489 N4492 1.384 . S
C4490 H4481 0.929 . S
C4490 C4482 1.378 . S
C4490 C4485 1.350 . S
C4491 H4478 0.929 . S
C4491 C4483 1.433 . S
C4491 N4493 1.384 . S
N4492 C4488 1.427 . S
N4492 C4489 1.384 . S
N4493 C4485 1.427 . S
N4493 C4491 1.384 . S
H4494 C4500 0.930 . S
H4495 C4504 0.930 . S
H4496 C4509 0.929 . S
H4497 C4507 0.929 . S
H4498 C4502 0.929 . S
H4499 C4508 0.929 . S
C4500 H4494 0.930 . S
C4500 C4501 1.367 . S
C4500 C4508 1.378 . S
C4501 C4500 1.367 . S
C4501 C4509 1.433 . S
C4502 H4498 0.929 . S
C4502 C4504 1.378 . S
C4502 C4506 1.350 . S
C4503 C4506 1.463 . S
C4503 C4508 1.350 . S
C4503 N4511 1.427 . S
C4504 H4495 0.930 . S
C4504 C4502 1.378 . S
C4504 C4505 1.367 . S
C4505 C4504 1.367 . S
C4505 C4507 1.433 . S
C4506 C4502 1.350 . S
C4506 C4503 1.463 . S
C4506 N4510 1.427 . S
C4507 H4497 0.929 . S
C4507 C4505 1.433 . S
C4507 N4510 1.384 . S
C4508 H4499 0.929 . S
C4508 C4500 1.378 . S
C4508 C4503 1.350 . S
C4509 H4496 0.929 . S
C4509 C4501 1.433 . S
C4509 N4511 1.384 . S
N4510 C4506 1.427 . S
N4510 C4507 1.384 . S
N4511 C4503 1.427 . S
N4511 C4509 1.384 . S
H4512 C4518 0.930 . S
H4513 C4522 0.930 . S
H4514 C4527 0.929 . S
H4515 C4525 0.929 . S
H4516 C4520 0.929 . S
H4517 C4526 0.929 . S
C4518 H4512 0.930 . S
C4518 C4519 1.367 . S
C4518 C4526 1.378 . S
C4519 C4518 1.367 . S
C4519 C4527 1.433 . S
C4520 H4516 0.929 . S
C4520 C4522 1.378 . S
C4520 C4524 1.350 . S
C4521 C4524 1.463 . S
C4521 C4526 1.350 . S
C4521 N4529 1.427 . S
C4522 H4513 0.930 . S
C4522 C4520 1.378 . S
C4522 C4523 1.367 . S
C4523 C4522 1.367 . S
C4523 C4525 1.433 . S
C4524 C4520 1.350 . S
C4524 C4521 1.463 . S
C4524 N4528 1.427 . S
C4525 H4515 0.929 . S
C4525 C4523 1.433 . S
C4525 N4528 1.384 . S
C4526 H4517 0.929 . S
C4526 C4518 1.378 . S
C4526 C4521 1.350 . S
C4527 H4514 0.929 . S
C4527 C4519 1.433 . S
C4527 N4529 1.384 . S
N4528 C4524 1.427 . S
N4528 C4525 1.384 . S
N4529 C4521 1.427 . S
N4529 C4527 1.384 . S
H4530 C4536 0.930 . S
H4531 C4540 0.930 . S
H4532 C4545 0.929 . S
H4533 C4543 0.929 . S
H4534 C4538 0.929 . S
H4535 C4544 0.929 . S
C4536 H4530 0.930 . S
C4536 C4537 1.367 . S
C4536 C4544 1.378 . S
C4537 C4536 1.367 . S
C4537 C4545 1.433 . S
C4538 H4534 0.929 . S
C4538 C4540 1.378 . S
C4538 C4542 1.350 . S
C4539 C4542 1.463 . S
C4539 C4544 1.350 . S
C4539 N4547 1.427 . S
C4540 H4531 0.930 . S
C4540 C4538 1.378 . S
C4540 C4541 1.367 . S
C4541 C4540 1.367 . S
C4541 C4543 1.433 . S
C4542 C4538 1.350 . S
C4542 C4539 1.463 . S
C4542 N4546 1.427 . S
C4543 H4533 0.929 . S
C4543 C4541 1.433 . S
C4543 N4546 1.384 . S
C4544 H4535 0.929 . S
C4544 C4536 1.378 . S
C4544 C4539 1.350 . S
C4545 H4532 0.929 . S
C4545 C4537 1.433 . S
C4545 N4547 1.384 . S
N4546 C4542 1.427 . S
N4546 C4543 1.384 . S
N4547 C4539 1.427 . S
N4547 C4545 1.384 . S
H4548 C4554 0.930 . S
H4549 C4558 0.930 . S
H4550 C4563 0.929 . S
H4551 C4561 0.929 . S
H4552 C4556 0.929 . S
H4553 C4562 0.929 . S
C4554 H4548 0.930 . S
C4554 C4555 1.367 . S
C4554 C4562 1.378 . S
C4555 C4554 1.367 . S
C4555 C4563 1.433 . S
C4556 H4552 0.929 . S
C4556 C4558 1.378 . S
C4556 C4560 1.350 . S
C4557 C4560 1.463 . S
C4557 C4562 1.350 . S
C4557 N4565 1.427 . S
C4558 H4549 0.930 . S
C4558 C4556 1.378 . S
C4558 C4559 1.367 . S
C4559 C4558 1.367 . S
C4559 C4561 1.433 . S
C4560 C4556 1.350 . S
C4560 C4557 1.463 . S
C4560 N4564 1.427 . S
C4561 H4551 0.929 . S
C4561 C4559 1.433 . S
C4561 N4564 1.384 . S
C4562 H4553 0.929 . S
C4562 C4554 1.378 . S
C4562 C4557 1.350 . S
C4563 H4550 0.929 . S
C4563 C4555 1.433 . S
C4563 N4565 1.384 . S
N4564 C4560 1.427 . S
N4564 C4561 1.384 . S
N4565 C4557 1.427 . S
N4565 C4563 1.384 . S
H4566 C4572 0.930 . S
H4567 C4576 0.930 . S
H4568 C4581 0.929 . S
H4569 C4579 0.929 . S
H4570 C4574 0.929 . S
H4571 C4580 0.929 . S
C4572 H4566 0.930 . S
C4572 C4573 1.367 . S
C4572 C4580 1.378 . S
C4573 C4572 1.367 . S
C4573 C4581 1.433 . S
C4574 H4570 0.929 . S
C4574 C4576 1.378 . S
C4574 C4578 1.350 . S
C4575 C4578 1.463 . S
C4575 C4580 1.350 . S
C4575 N4583 1.427 . S
C4576 H4567 0.930 . S
C4576 C4574 1.378 . S
C4576 C4577 1.367 . S
C4577 C4576 1.367 . S
C4577 C4579 1.433 . S
C4578 C4574 1.350 . S
C4578 C4575 1.463 . S
C4578 N4582 1.427 . S
C4579 H4569 0.929 . S
C4579 C4577 1.433 . S
C4579 N4582 1.384 . S
C4580 H4571 0.929 . S
C4580 C4572 1.378 . S
C4580 C4575 1.350 . S
C4581 H4568 0.929 . S
C4581 C4573 1.433 . S
C4581 N4583 1.384 . S
N4582 C4578 1.427 . S
N4582 C4579 1.384 . S
N4583 C4575 1.427 . S
N4583 C4581 1.384 . S
H4584 C4590 0.930 . S
H4585 C4594 0.930 . S
H4586 C4599 0.929 . S
H4587 C4597 0.929 . S
H4588 C4592 0.929 . S
H4589 C4598 0.929 . S
C4590 H4584 0.930 . S
C4590 C4591 1.367 . S
C4590 C4598 1.378 . S
C4591 C4590 1.367 . S
C4591 C4599 1.433 . S
C4592 H4588 0.929 . S
C4592 C4594 1.378 . S
C4592 C4596 1.350 . S
C4593 C4596 1.463 . S
C4593 C4598 1.350 . S
C4593 N4601 1.427 . S
C4594 H4585 0.930 . S
C4594 C4592 1.378 . S
C4594 C4595 1.367 . S
C4595 C4594 1.367 . S
C4595 C4597 1.433 . S
C4596 C4592 1.350 . S
C4596 C4593 1.463 . S
C4596 N4600 1.427 . S
C4597 H4587 0.929 . S
C4597 C4595 1.433 . S
C4597 N4600 1.384 . S
C4598 H4589 0.929 . S
C4598 C4590 1.378 . S
C4598 C4593 1.350 . S
C4599 H4586 0.929 . S
C4599 C4591 1.433 . S
C4599 N4601 1.384 . S
N4600 C4596 1.427 . S
N4600 C4597 1.384 . S
N4601 C4593 1.427 . S
N4601 C4599 1.384 . S
H4602 C4608 0.930 . S
H4603 C4612 0.930 . S
H4604 C4617 0.929 . S
H4605 C4615 0.929 . S
H4606 C4610 0.929 . S
H4607 C4616 0.929 . S
C4608 H4602 0.930 . S
C4608 C4609 1.367 . S
C4608 C4616 1.378 . S
C4609 C4608 1.367 . S
C4609 C4617 1.433 . S
C4610 H4606 0.929 . S
C4610 C4612 1.378 . S
C4610 C4614 1.350 . S
C4611 C4614 1.463 . S
C4611 C4616 1.350 . S
C4611 N4619 1.427 . S
C4612 H4603 0.930 . S
C4612 C4610 1.378 . S
C4612 C4613 1.367 . S
C4613 C4612 1.367 . S
C4613 C4615 1.433 . S
C4614 C4610 1.350 . S
C4614 C4611 1.463 . S
C4614 N4618 1.427 . S
C4615 H4605 0.929 . S
C4615 C4613 1.433 . S
C4615 N4618 1.384 . S
C4616 H4607 0.929 . S
C4616 C4608 1.378 . S
C4616 C4611 1.350 . S
C4617 H4604 0.929 . S
C4617 C4609 1.433 . S
C4617 N4619 1.384 . S
N4618 C4614 1.427 . S
N4618 C4615 1.384 . S
N4619 C4611 1.427 . S
N4619 C4617 1.384 . S
H4620 C4626 0.930 . S
H4621 C4630 0.930 . S
H4622 C4635 0.929 . S
H4623 C4633 0.929 . S
H4624 C4628 0.929 . S
H4625 C4634 0.929 . S
C4626 H4620 0.930 . S
C4626 C4627 1.367 . S
C4626 C4634 1.378 . S
C4627 C4626 1.367 . S
C4627 C4635 1.433 . S
C4628 H4624 0.929 . S
C4628 C4630 1.378 . S
C4628 C4632 1.350 . S
C4629 C4632 1.463 . S
C4629 C4634 1.350 . S
C4629 N4637 1.427 . S
C4630 H4621 0.930 . S
C4630 C4628 1.378 . S
C4630 C4631 1.367 . S
C4631 C4630 1.367 . S
C4631 C4633 1.433 . S
C4632 C4628 1.350 . S
C4632 C4629 1.463 . S
C4632 N4636 1.427 . S
C4633 H4623 0.929 . S
C4633 C4631 1.433 . S
C4633 N4636 1.384 . S
C4634 H4625 0.929 . S
C4634 C4626 1.378 . S
C4634 C4629 1.350 . S
C4635 H4622 0.929 . S
C4635 C4627 1.433 . S
C4635 N4637 1.384 . S
N4636 C4632 1.427 . S
N4636 C4633 1.384 . S
N4637 C4629 1.427 . S
N4637 C4635 1.384 . S
H4638 C4644 0.930 . S
H4639 C4648 0.930 . S
H4640 C4653 0.929 . S
H4641 C4651 0.929 . S
H4642 C4646 0.929 . S
H4643 C4652 0.929 . S
C4644 H4638 0.930 . S
C4644 C4645 1.367 . S
C4644 C4652 1.378 . S
C4645 C4644 1.367 . S
C4645 C4653 1.433 . S
C4646 H4642 0.929 . S
C4646 C4648 1.378 . S
C4646 C4650 1.350 . S
C4647 C4650 1.463 . S
C4647 C4652 1.350 . S
C4647 N4655 1.427 . S
C4648 H4639 0.930 . S
C4648 C4646 1.378 . S
C4648 C4649 1.367 . S
C4649 C4648 1.367 . S
C4649 C4651 1.433 . S
C4650 C4646 1.350 . S
C4650 C4647 1.463 . S
C4650 N4654 1.427 . S
C4651 H4641 0.929 . S
C4651 C4649 1.433 . S
C4651 N4654 1.384 . S
C4652 H4643 0.929 . S
C4652 C4644 1.378 . S
C4652 C4647 1.350 . S
C4653 H4640 0.929 . S
C4653 C4645 1.433 . S
C4653 N4655 1.384 . S
N4654 C4650 1.427 . S
N4654 C4651 1.384 . S
N4655 C4647 1.427 . S
N4655 C4653 1.384 . S
H4656 C4662 0.930 . S
H4657 C4666 0.995 . S
H4658 C4671 0.929 . S
H4659 C4669 0.929 . S
H4660 C4664 0.929 . S
H4661 C4670 0.929 . S
C4662 H4656 0.930 . S
C4662 C4663 1.367 . S
C4662 C4670 1.378 . S
C4663 C4662 1.367 . S
C4663 C4671 1.433 . S
C4664 H4660 0.929 . S
C4664 C4666 1.378 . S
C4664 C4668 1.350 . S
C4665 C4668 1.463 . S
C4665 C4670 1.350 . S
C4665 N4673 1.427 . S
C4666 H4657 0.995 . S
C4666 C4664 1.378 . S
C4666 C4667 1.367 . S
C4667 C4666 1.367 . S
C4667 C4669 1.433 . S
C4668 C4664 1.350 . S
C4668 C4665 1.463 . S
C4668 N4672 1.427 . S
C4669 H4659 0.929 . S
C4669 C4667 1.433 . S
C4669 N4672 1.384 . S
C4670 H4661 0.929 . S
C4670 C4662 1.378 . S
C4670 C4665 1.350 . S
C4671 H4658 0.929 . S
C4671 C4663 1.433 . S
C4671 N4673 1.384 . S
N4672 C4668 1.427 . S
N4672 C4669 1.384 . S
N4673 C4665 1.427 . S
N4673 C4671 1.384 . S
H4674 C4680 0.930 . S
H4675 C4684 0.930 . S
H4676 C4689 0.929 . S
H4677 C4687 0.929 . S
H4678 C4682 0.929 . S
H4679 C4688 0.929 . S
C4680 H4674 0.930 . S
C4680 C4681 1.367 . S
C4680 C4688 1.378 . S
C4681 C4680 1.367 . S
C4681 C4689 1.433 . S
C4682 H4678 0.929 . S
C4682 C4684 1.378 . S
C4682 C4686 1.350 . S
C4683 C4686 1.463 . S
C4683 C4688 1.350 . S
C4683 N4691 1.427 . S
C4684 H4675 0.930 . S
C4684 C4682 1.378 . S
C4684 C4685 1.367 . S
C4685 C4684 1.367 . S
C4685 C4687 1.433 . S
C4686 C4682 1.350 . S
C4686 C4683 1.463 . S
C4686 N4690 1.427 . S
C4687 H4677 0.929 . S
C4687 C4685 1.433 . S
C4687 N4690 1.384 . S
C4688 H4679 0.929 . S
C4688 C4680 1.378 . S
C4688 C4683 1.350 . S
C4689 H4676 0.929 . S
C4689 C4681 1.433 . S
C4689 N4691 1.384 . S
N4690 C4686 1.427 . S
N4690 C4687 1.384 . S
N4691 C4683 1.427 . S
N4691 C4689 1.384 . S
H4692 C4698 0.930 . S
H4693 C4702 0.930 . S
H4694 C4707 0.929 . S
H4695 C4705 0.929 . S
H4696 C4700 0.929 . S
H4697 C4706 0.929 . S
C4698 H4692 0.930 . S
C4698 C4699 1.367 . S
C4698 C4706 1.378 . S
C4699 C4698 1.367 . S
C4699 C4707 1.433 . S
C4700 H4696 0.929 . S
C4700 C4702 1.378 . S
C4700 C4704 1.350 . S
C4701 C4704 1.463 . S
C4701 C4706 1.350 . S
C4701 N4709 1.427 . S
C4702 H4693 0.930 . S
C4702 C4700 1.378 . S
C4702 C4703 1.367 . S
C4703 C4702 1.367 . S
C4703 C4705 1.433 . S
C4704 C4700 1.350 . S
C4704 C4701 1.463 . S
C4704 N4708 1.427 . S
C4705 H4695 0.929 . S
C4705 C4703 1.433 . S
C4705 N4708 1.384 . S
C4706 H4697 0.929 . S
C4706 C4698 1.378 . S
C4706 C4701 1.350 . S
C4707 H4694 0.929 . S
C4707 C4699 1.433 . S
C4707 N4709 1.384 . S
N4708 C4704 1.427 . S
N4708 C4705 1.384 . S
N4709 C4701 1.427 . S
N4709 C4707 1.384 . S
H4710 C4716 0.930 . S
H4711 C4720 0.930 . S
H4712 C4725 0.929 . S
H4713 C4723 0.929 . S
H4714 C4718 0.929 . S
H4715 C4724 0.929 . S
C4716 H4710 0.930 . S
C4716 C4717 1.367 . S
C4716 C4724 1.378 . S
C4717 C4716 1.367 . S
C4717 C4725 1.433 . S
C4718 H4714 0.929 . S
C4718 C4720 1.378 . S
C4718 C4722 1.350 . S
C4719 C4722 1.463 . S
C4719 C4724 1.350 . S
C4719 N4727 1.427 . S
C4720 H4711 0.930 . S
C4720 C4718 1.378 . S
C4720 C4721 1.367 . S
C4721 C4720 1.367 . S
C4721 C4723 1.433 . S
C4722 C4718 1.350 . S
C4722 C4719 1.463 . S
C4722 N4726 1.427 . S
C4723 H4713 0.929 . S
C4723 C4721 1.433 . S
C4723 N4726 1.384 . S
C4724 H4715 0.929 . S
C4724 C4716 1.378 . S
C4724 C4719 1.350 . S
C4725 H4712 0.929 . S
C4725 C4717 1.433 . S
C4725 N4727 1.384 . S
N4726 C4722 1.427 . S
N4726 C4723 1.384 . S
N4727 C4719 1.427 . S
N4727 C4725 1.384 . S
H4728 C4734 0.930 . S
H4729 C4738 0.930 . S
H4730 C4743 0.929 . S
H4731 C4741 0.929 . S
H4732 C4736 0.929 . S
H4733 C4742 0.929 . S
C4734 H4728 0.930 . S
C4734 C4735 1.367 . S
C4734 C4742 1.378 . S
C4735 C4734 1.367 . S
C4735 C4743 1.433 . S
C4736 H4732 0.929 . S
C4736 C4738 1.378 . S
C4736 C4740 1.350 . S
C4737 C4740 1.463 . S
C4737 C4742 1.350 . S
C4737 N4745 1.427 . S
C4738 H4729 0.930 . S
C4738 C4736 1.378 . S
C4738 C4739 1.367 . S
C4739 C4738 1.367 . S
C4739 C4741 1.433 . S
C4740 C4736 1.350 . S
C4740 C4737 1.463 . S
C4740 N4744 1.427 . S
C4741 H4731 0.929 . S
C4741 C4739 1.433 . S
C4741 N4744 1.384 . S
C4742 H4733 0.929 . S
C4742 C4734 1.378 . S
C4742 C4737 1.350 . S
C4743 H4730 0.929 . S
C4743 C4735 1.433 . S
C4743 N4745 1.384 . S
N4744 C4740 1.427 . S
N4744 C4741 1.384 . S
N4745 C4737 1.427 . S
N4745 C4743 1.384 . S
H4746 C4752 0.930 . S
H4747 C4756 0.930 . S
H4748 C4761 0.917 1_545 S
H4749 C4759 0.929 . S
H4750 C4754 0.929 . S
H4751 C4760 0.929 . S
C4752 H4746 0.930 . S
C4752 C4753 1.367 . S
C4752 C4760 1.378 . S
C4753 C4752 1.367 . S
C4753 C4761 1.433 . S
C4754 H4750 0.929 . S
C4754 C4756 1.378 . S
C4754 C4758 1.350 . S
C4755 C4758 1.463 . S
C4755 C4760 1.350 . S
C4755 N4763 1.427 . S
C4756 H4747 0.930 . S
C4756 C4754 1.378 . S
C4756 C4757 1.367 . S
C4757 C4756 1.367 . S
C4757 C4759 1.433 . S
C4758 C4754 1.350 . S
C4758 C4755 1.463 . S
C4758 N4762 1.427 . S
C4759 H4749 0.929 . S
C4759 C4757 1.433 . S
C4759 N4762 1.384 . S
C4760 H4751 0.929 . S
C4760 C4752 1.378 . S
C4760 C4755 1.350 . S
C4761 H4748 0.917 1_565 S
C4761 C4753 1.433 . S
C4761 N4763 1.384 . S
N4762 C4758 1.427 . S
N4762 C4759 1.384 . S
N4763 C4755 1.427 . S
N4763 C4761 1.384 . S
H4764 C4770 0.930 . S
H4765 C4774 0.930 . S
H4766 C4779 0.929 . S
H4767 C4777 0.929 . S
H4768 C4772 0.929 . S
H4769 C4778 0.929 . S
C4770 H4764 0.930 . S
C4770 C4771 1.367 . S
C4770 C4778 1.378 . S
C4771 C4770 1.367 . S
C4771 C4779 1.433 . S
C4772 H4768 0.929 . S
C4772 C4774 1.378 . S
C4772 C4776 1.350 . S
C4773 C4776 1.463 . S
C4773 C4778 1.350 . S
C4773 N4781 1.427 . S
C4774 H4765 0.930 . S
C4774 C4772 1.378 . S
C4774 C4775 1.367 . S
C4775 C4774 1.367 . S
C4775 C4777 1.433 . S
C4776 C4772 1.350 . S
C4776 C4773 1.463 . S
C4776 N4780 1.427 . S
C4777 H4767 0.929 . S
C4777 C4775 1.433 . S
C4777 N4780 1.384 . S
C4778 H4769 0.929 . S
C4778 C4770 1.378 . S
C4778 C4773 1.350 . S
C4779 H4766 0.929 . S
C4779 C4771 1.433 . S
C4779 N4781 1.384 . S
N4780 C4776 1.427 . S
N4780 C4777 1.384 . S
N4781 C4773 1.427 . S
N4781 C4779 1.384 . S
H4782 C4788 0.930 . S
H4783 C4792 0.930 . S
H4784 C4797 0.929 . S
H4785 C4795 0.929 . S
H4786 C4790 0.929 . S
H4787 C4796 0.929 . S
C4788 H4782 0.930 . S
C4788 C4789 1.367 . S
C4788 C4796 1.378 . S
C4789 C4788 1.367 . S
C4789 C4797 1.433 . S
C4790 H4786 0.929 . S
C4790 C4792 1.378 . S
C4790 C4794 1.350 . S
C4791 C4794 1.463 . S
C4791 C4796 1.350 . S
C4791 N4799 1.427 . S
C4792 H4783 0.930 . S
C4792 C4790 1.378 . S
C4792 C4793 1.367 . S
C4793 C4792 1.367 . S
C4793 C4795 1.433 . S
C4794 C4790 1.350 . S
C4794 C4791 1.463 . S
C4794 N4798 1.427 . S
C4795 H4785 0.929 . S
C4795 C4793 1.433 . S
C4795 N4798 1.384 . S
C4796 H4787 0.929 . S
C4796 C4788 1.378 . S
C4796 C4791 1.350 . S
C4797 H4784 0.929 . S
C4797 C4789 1.433 . S
C4797 N4799 1.384 . S
N4798 C4794 1.427 . S
N4798 C4795 1.384 . S
N4799 C4791 1.427 . S
N4799 C4797 1.384 . S
C1351 C9 1.316 . S
C1355 C1057 1.309 . S
C1369 C343 1.283 . S
C1373 C23 1.288 . S
C1387 C1029 1.310 . S
C1391 C37 1.314 . S
C1405 C371 1.277 . S
C1409 C51 1.290 . S
C1423 C65 1.316 . S
C1427 C1085 1.305 . S
C1441 C79 1.293 . S
C1445 C427 1.280 . S
C1459 C1113 1.296 . S
C1463 C93 1.324 . S
C1477 C107 1.297 . S
C1481 C399 1.270 . S
C1495 C119 1.295 . S
C1499 C1267 1.294 . S
C1513 C609 1.302 . S
C1517 C135 1.331 . S
C1531 C147 1.291 . S
C1535 C623 1.287 . S
C1549 C163 1.326 . S
C1553 C581 1.312 . S
C1567 C175 1.301 . S
C1571 C1323 1.279 . S
C1585 C191 1.331 . S
C1589 C1239 1.303 . S
C1603 C203 1.295 . S
C1607 C1337 1.294 . S
C1621 C219 1.329 . S
C1625 C1309 1.309 . S
C1639 C1141 1.273 . S
C1643 C233 1.294 . S
C1657 C247 1.292 . S
C1661 C553 1.282 . S
C1675 C259 1.288 . S
C1679 C1183 1.288 . S
C1693 C525 1.283 . S
C1697 C275 1.292 . S
C1711 C287 1.323 . S
C1715 C539 1.333 . S
C1729 C1169 1.283 . S
C1733 C303 1.286 . S
C1747 C315 1.293 . S
C1751 C1127 1.275 . S
C1765 C1155 1.276 . S
C1769 C329 1.292 . S
C1783 C721 1.220 . S
C1787 C345 1.249 . S
C1801 C7 1.258 . S
C1805 C359 1.272 . S
C1819 C373 1.243 . S
C1823 C693 1.229 . S
C1837 C387 1.273 . S
C1841 C35 1.256 . S
C1855 C401 1.248 . S
C1859 C749 1.216 . S
C1873 C91 1.254 . S
C1877 C415 1.271 . S
C1891 C429 1.243 . S
C1895 C777 1.229 . S
C1909 C443 1.275 . S
C1913 C63 1.253 . S
C1927 C457 1.239 . S
C1931 C933 1.181 . S
C1945 C273 1.219 . S
C1949 C471 1.231 . S
C1963 C485 1.237 . S
C1967 C289 1.183 . S
C1981 C245 1.212 . S
C1985 C499 1.240 . S
C1999 C513 1.239 . S
C2003 C989 1.170 . S
C2017 C527 1.237 . S
C2021 C903 1.210 . S
C2035 C541 1.236 . S
C2039 C1003 1.176 . S
C2053 C973 1.206 . S
C2057 C555 1.241 . S
C2071 C805 1.259 . S
C2075 C569 1.270 . S
C2089 C217 1.250 . S
C2093 C583 1.270 . S
C2107 C849 1.219 . S
C2111 C597 1.282 . S
C2125 C611 1.265 . S
C2129 C189 1.251 . S
C2143 C625 1.274 . S
C2147 C205 1.222 . S
C2161 C639 1.273 . S
C2165 C833 1.254 . S
C2179 C793 1.235 . S
C2183 C653 1.278 . S
C2197 C667 1.282 . S
C2201 C821 1.228 . S
C2215 C385 1.310 . S
C2219 C681 1.324 . S
C2233 C1015 1.272 . S
C2237 C695 1.292 . S
C2251 C709 1.325 . S
C2255 C357 1.314 . S
C2269 C1043 1.269 . S
C2273 C723 1.293 . S
C2287 C737 1.322 . S
C2291 C413 1.316 . S
C2305 C1099 1.268 . S
C2309 C751 1.294 . S
C2323 C765 1.322 . S
C2327 C441 1.313 . S
C2341 C1071 1.274 . S
C2345 C779 1.286 . S
C2359 C595 1.288 . S
C2363 C791 1.290 . S
C2377 C807 1.336 . S
C2381 C1281 1.308 . S
C2395 C1295 1.281 . S
C2399 C819 1.303 . S
C2413 C835 1.327 . S
C2417 C1253 1.319 . S
C2431 C651 1.294 . S
C2435 C847 1.295 . S
C2449 C863 1.337 . S
C2453 C567 1.309 . S
C2467 C665 1.290 . S
C2471 C875 1.290 . S
C2485 C637 1.310 . S
C2489 C891 1.334 . S
C2503 C469 1.287 . S
C2507 C905 1.291 . S
C2521 C1225 1.279 . S
C2525 C919 1.286 . S
C2539 C931 1.322 . S
C2543 C511 1.327 . S
C2557 C947 1.289 . S
C2561 C1197 1.274 . S
C2575 C1211 1.285 . S
C2579 C959 1.287 . S
C2593 C497 1.273 . S
C2597 C975 1.301 . S
C2611 C455 1.311 . S
C2615 C987 1.334 . S
C2629 C483 1.314 . S
C2633 C1001 1.339 . S
C2647 C1017 1.249 . S
C2651 C49 1.215 . S
C2665 C1031 1.257 . S
C2669 C679 1.252 . S
C2683 C1045 1.240 . S
C2687 C21 1.231 . S
C2701 C1059 1.264 . S
C2705 C707 1.245 . S
C2719 C77 1.219 . S
C2723 C1073 1.245 . S
C2737 C763 1.247 . S
C2741 C1087 1.258 . S
C2755 C105 1.217 . S
C2759 C1101 1.247 . S
C2773 C735 1.244 . S
C2777 C1115 1.265 . S
C2791 C1129 1.276 . S
C2795 C261 1.214 . S
C2809 C945 1.221 . S
C2813 C1143 1.239 . S
C2827 C1157 1.272 . S
C2831 C961 1.223 . S
C2845 C1171 1.234 . S
C2849 C917 1.224 . S
C2863 C317 1.222 . S
C2867 C1185 1.273 . S
C2881 C231 1.210 . S
C2885 C1199 1.243 . S
C2899 C1213 1.276 . S
C2903 C331 1.215 . S
C2917 C301 1.221 . S
C2921 C1227 1.235 . S
C2935 C1241 1.263 . S
C2939 C133 1.258 . S
C2953 C1255 1.271 . S
C2957 C889 1.251 . S
C2971 C177 1.228 . S
C2975 C1269 1.273 . S
C2989 C1283 1.266 . S
C2993 C861 1.258 . S
C3007 C877 1.222 . S
C3011 C1297 1.285 . S
C3025 C1311 1.264 . S
C3029 C161 1.252 . S
C3043 C1325 1.279 . S
C3047 C121 1.213 . S
C3061 C1339 1.273 . S
C3065 C149 1.227 . S
C3079 C3 1.284 . S
C3083 C610 1.334 . S
C3097 C624 1.342 . S
C3101 C17 1.300 . S
C3115 C582 1.334 . S
C3119 C31 1.297 . S
C3133 C45 1.295 . S
C3137 C1268 1.342 . S
C3151 C59 1.300 . S
C3155 C1310 1.335 . S
C3169 C73 1.285 . S
C3173 C1324 1.338 . S
C3187 C1240 1.335 . S
C3191 C87 1.296 . S
C3205 C1338 1.339 . S
C3209 C101 1.285 . S
C3223 C372 1.290 . S
C3227 C120 1.278 . S
C3241 C129 1.282 . S
C3245 C1058 1.326 . S
C3259 C344 1.290 . S
C3263 C148 1.279 . S
C3277 C1030 1.328 . S
C3281 C157 1.294 . S
C3295 C428 1.290 . S
C3299 C176 1.279 . S
C3313 C185 1.285 . S
C3317 C1114 1.327 . S
C3331 C204 1.273 . S
C3335 C400 1.289 . S
C3349 C213 1.279 . S
C3353 C1086 1.326 . S
C3367 C227 1.287 . S
C3371 C1184 1.336 . S
C3385 C456 1.344 . S
C3389 C241 1.298 . S
C3403 C260 1.277 . S
C3407 C1142 1.291 . S
C3421 C269 1.308 . S
C3425 C484 1.351 . S
C3439 C288 1.255 . S
C3443 C498 1.270 . S
C3457 C297 1.283 . S
C3461 C1212 1.333 . S
C3475 C1226 1.290 . S
C3479 C316 1.276 . S
C3493 C1198 1.291 . S
C3497 C330 1.276 . S
C3511 C274 1.321 . S
C3515 C339 1.271 . S
C3529 C353 1.329 . S
C3533 C283 1.376 . S
C3547 C367 1.281 . S
C3551 C246 1.323 . S
C3565 C381 1.330 . S
C3569 C927 1.377 . S
C3583 C974 1.323 . S
C3587 C395 1.283 . S
C3601 C983 1.371 . S
C3605 C409 1.339 . S
C3619 C423 1.281 . S
C3623 C904 1.322 . S
C3637 C997 1.376 . S
C3641 C437 1.338 . S
C3655 C451 1.268 . S
C3659 C36 1.316 . S
C3673 C722 1.323 . S
C3677 C465 1.287 . S
C3691 C479 1.272 . S
C3695 C8 1.316 . S
C3709 C694 1.322 . S
C3713 C493 1.281 . S
C3727 C507 1.280 . S
C3731 C92 1.317 . S
C3745 C778 1.322 . S
C3749 C521 1.284 . S
C3763 C64 1.323 . S
C3767 C535 1.262 . S
C3781 C750 1.320 . S
C3785 C549 1.271 . S
C3799 C563 1.323 . S
C3803 C843 1.370 . S
C3817 C577 1.339 . S
C3821 C115 1.369 . S
C3835 C806 1.357 . S
C3839 C591 1.298 . S
C3853 C605 1.337 . S
C3857 C143 1.368 . S
C3871 C162 1.359 . S
C3875 C619 1.304 . S
C3889 C871 1.368 . S
C3893 C633 1.338 . S
C3907 C890 1.360 . S
C3911 C647 1.315 . S
C3925 C862 1.358 . S
C3929 C661 1.300 . S
C3943 C675 1.290 . S
C3947 C1282 1.332 . S
C3961 C689 1.295 . S
C3965 C1296 1.344 . S
C3979 C703 1.296 . S
C3983 C1254 1.334 . S
C3997 C596 1.348 . S
C4001 C717 1.307 . S
C4015 C731 1.294 . S
C4019 C638 1.333 . S
C4033 C652 1.344 . S
C4037 C745 1.293 . S
C4051 C568 1.333 . S
C4055 C759 1.293 . S
C4069 C666 1.348 . S
C4073 C773 1.308 . S
C4087 C792 1.279 . S
C4091 C1044 1.296 . S
C4105 C386 1.340 . S
C4109 C801 1.295 . S
C4123 C820 1.286 . S
C4127 C1016 1.297 . S
C4141 C829 1.300 . S
C4145 C358 1.340 . S
C4159 C848 1.283 . S
C4163 C1100 1.298 . S
C4177 C857 1.293 . S
C4181 C442 1.341 . S
C4195 C1072 1.297 . S
C4199 C876 1.286 . S
C4213 C414 1.340 . S
C4217 C885 1.291 . S
C4231 C899 1.294 . S
C4235 C512 1.350 . S
C4249 C913 1.297 . S
C4253 C1128 1.337 . S
C4267 C932 1.260 . S
C4271 C470 1.271 . S
C4285 C1156 1.337 . S
C4289 C941 1.297 . S
C4303 C960 1.277 . S
C4307 C1170 1.291 . S
C4321 C969 1.292 . S
C4325 C540 1.349 . S
C4339 C554 1.271 . S
C4343 C988 1.254 . S
C4357 C1002 1.261 . S
C4361 C526 1.271 . S
C4375 C1011 1.271 . S
C4379 C946 1.317 . S
C4393 C955 1.359 . S
C4397 C1025 1.329 . S
C4411 C918 1.316 . S
C4415 C1039 1.267 . S
C4429 C1053 1.315 . S
C4433 C255 1.360 . S
C4447 C1067 1.283 . S
C4451 C302 1.319 . S
C4465 C1081 1.326 . S
C4469 C311 1.358 . S
C4483 C232 1.318 . S
C4487 C1095 1.275 . S
C4501 C1109 1.327 . S
C4505 C325 1.361 . S
C4519 C1123 1.300 . S
C4523 C708 1.354 . S
C4537 C1137 1.274 . S
C4541 C50 1.318 . S
C4555 C1151 1.304 . S
C4559 C680 1.354 . S
C4573 C1165 1.273 . S
C4577 C22 1.318 . S
C4591 C1179 1.307 . S
C4595 C764 1.354 . S
C4609 C1193 1.278 . S
C4613 C106 1.320 . S
C4627 C1207 1.307 . S
C4631 C736 1.354 . S
C4645 C1221 1.282 . S
C4649 C78 1.320 . S
C4663 C1235 1.324 . S
C4667 C171 1.371 . S
C4681 C1249 1.325 . S
C4685 C787 1.368 . S
C4699 C1263 1.300 . S
C4703 C134 1.359 . S
C4717 C1277 1.325 . S
C4721 C815 1.371 . S
C4735 C1291 1.307 . S
C4739 C834 1.358 . S
C4753 C199 1.369 . S
C4757 C1305 1.339 . S
C4771 C1319 1.316 . S
C4775 C218 1.361 . S
C4789 C1333 1.300 . S
C4793 C190 1.358 . S
