# Generated by pormake.
# Topology wlu, (5)-cn, num edge types: 1
# Building blocks:
#     Node 0, Type 0, BuildingBlock: BEQFEK_clean_sbu_0, # of connection points: 5
#     Node 1, Type 0, BuildingBlock: BEQFEK_clean_sbu_0, # of connection points: 5
#     Node 2, Type 0, BuildingBlock: BEQFEK_clean_sbu_0, # of connection points: 5
#     Node 3, Type 0, BuildingBlock: BEQFEK_clean_sbu_0, # of connection points: 5
#     Node 4, Type 0, BuildingBlock: BEQFEK_clean_sbu_0, # of connection points: 5
#     Node 5, Type 0, BuildingBlock: BEQFEK_clean_sbu_0, # of connection points: 5
#     Node 6, Type 0, BuildingBlock: BEQFEK_clean_sbu_0, # of connection points: 5
#     Node 7, Type 0, BuildingBlock: BEQFEK_clean_sbu_0, # of connection points: 5
#     Node 8, Type 0, BuildingBlock: BEQFEK_clean_sbu_0, # of connection points: 5
#     Node 9, Type 0, BuildingBlock: BEQFEK_clean_sbu_0, # of connection points: 5
#     Node 10, Type 0, BuildingBlock: BEQFEK_clean_sbu_0, # of connection points: 5
#     Node 11, Type 0, BuildingBlock: BEQFEK_clean_sbu_0, # of connection points: 5
#     Node 12, Type 0, BuildingBlock: BEQFEK_clean_sbu_0, # of connection points: 5
#     Node 13, Type 0, BuildingBlock: BEQFEK_clean_sbu_0, # of connection points: 5
#     Node 14, Type 0, BuildingBlock: BEQFEK_clean_sbu_0, # of connection points: 5
#     Node 15, Type 0, BuildingBlock: BEQFEK_clean_sbu_0, # of connection points: 5
#     Node 16, Type 0, BuildingBlock: BEQFEK_clean_sbu_0, # of connection points: 5
#     Node 17, Type 0, BuildingBlock: BEQFEK_clean_sbu_0, # of connection points: 5
#     Node 18, Type 0, BuildingBlock: BEQFEK_clean_sbu_0, # of connection points: 5
#     Node 19, Type 0, BuildingBlock: BEQFEK_clean_sbu_0, # of connection points: 5
#     Node 20, Type 0, BuildingBlock: BEQFEK_clean_sbu_0, # of connection points: 5
#     Node 21, Type 0, BuildingBlock: BEQFEK_clean_sbu_0, # of connection points: 5
#     Node 22, Type 0, BuildingBlock: BEQFEK_clean_sbu_0, # of connection points: 5
#     Node 23, Type 0, BuildingBlock: BEQFEK_clean_sbu_0, # of connection points: 5
#     Node 24, Type 0, BuildingBlock: BEQFEK_clean_sbu_0, # of connection points: 5
#     Node 25, Type 0, BuildingBlock: BEQFEK_clean_sbu_0, # of connection points: 5
#     Node 26, Type 0, BuildingBlock: BEQFEK_clean_sbu_0, # of connection points: 5
#     Node 27, Type 0, BuildingBlock: BEQFEK_clean_sbu_0, # of connection points: 5
#     Node 28, Type 0, BuildingBlock: BEQFEK_clean_sbu_0, # of connection points: 5
#     Node 29, Type 0, BuildingBlock: BEQFEK_clean_sbu_0, # of connection points: 5
#     Node 30, Type 0, BuildingBlock: BEQFEK_clean_sbu_0, # of connection points: 5
#     Node 31, Type 0, BuildingBlock: BEQFEK_clean_sbu_0, # of connection points: 5
#     Node 32, Type 0, BuildingBlock: BEQFEK_clean_sbu_0, # of connection points: 5
#     Node 33, Type 0, BuildingBlock: BEQFEK_clean_sbu_0, # of connection points: 5
#     Node 34, Type 0, BuildingBlock: BEQFEK_clean_sbu_0, # of connection points: 5
#     Node 35, Type 0, BuildingBlock: BEQFEK_clean_sbu_0, # of connection points: 5
#     Edge 36, Type (0, 0), None
#     Edge 37, Type (0, 0), None
#     Edge 38, Type (0, 0), None
#     Edge 39, Type (0, 0), None
#     Edge 40, Type (0, 0), None
#     Edge 41, Type (0, 0), None
#     Edge 42, Type (0, 0), None
#     Edge 43, Type (0, 0), None
#     Edge 44, Type (0, 0), None
#     Edge 45, Type (0, 0), None
#     Edge 46, Type (0, 0), None
#     Edge 47, Type (0, 0), None
#     Edge 48, Type (0, 0), None
#     Edge 49, Type (0, 0), None
#     Edge 50, Type (0, 0), None
#     Edge 51, Type (0, 0), None
#     Edge 52, Type (0, 0), None
#     Edge 53, Type (0, 0), None
#     Edge 54, Type (0, 0), None
#     Edge 55, Type (0, 0), None
#     Edge 56, Type (0, 0), None
#     Edge 57, Type (0, 0), None
#     Edge 58, Type (0, 0), None
#     Edge 59, Type (0, 0), None
#     Edge 60, Type (0, 0), None
#     Edge 61, Type (0, 0), None
#     Edge 62, Type (0, 0), None
#     Edge 63, Type (0, 0), None
#     Edge 64, Type (0, 0), None
#     Edge 65, Type (0, 0), None
#     Edge 66, Type (0, 0), None
#     Edge 67, Type (0, 0), None
#     Edge 68, Type (0, 0), None
#     Edge 69, Type (0, 0), None
#     Edge 70, Type (0, 0), None
#     Edge 71, Type (0, 0), None
#     Edge 72, Type (0, 0), None
#     Edge 73, Type (0, 0), None
#     Edge 74, Type (0, 0), None
#     Edge 75, Type (0, 0), None
#     Edge 76, Type (0, 0), None
#     Edge 77, Type (0, 0), None
#     Edge 78, Type (0, 0), None
#     Edge 79, Type (0, 0), None
#     Edge 80, Type (0, 0), None
#     Edge 81, Type (0, 0), None
#     Edge 82, Type (0, 0), None
#     Edge 83, Type (0, 0), None
#     Edge 84, Type (0, 0), None
#     Edge 85, Type (0, 0), None
#     Edge 86, Type (0, 0), None
#     Edge 87, Type (0, 0), None
#     Edge 88, Type (0, 0), None
#     Edge 89, Type (0, 0), None
#     Edge 90, Type (0, 0), None
#     Edge 91, Type (0, 0), None
#     Edge 92, Type (0, 0), None
#     Edge 93, Type (0, 0), None
#     Edge 94, Type (0, 0), None
#     Edge 95, Type (0, 0), None
#     Edge 96, Type (0, 0), None
#     Edge 97, Type (0, 0), None
#     Edge 98, Type (0, 0), None
#     Edge 99, Type (0, 0), None
#     Edge 100, Type (0, 0), None
#     Edge 101, Type (0, 0), None
#     Edge 102, Type (0, 0), None
#     Edge 103, Type (0, 0), None
#     Edge 104, Type (0, 0), None
#     Edge 105, Type (0, 0), None
#     Edge 106, Type (0, 0), None
#     Edge 107, Type (0, 0), None
#     Edge 108, Type (0, 0), None
#     Edge 109, Type (0, 0), None
#     Edge 110, Type (0, 0), None
#     Edge 111, Type (0, 0), None
#     Edge 112, Type (0, 0), None
#     Edge 113, Type (0, 0), None
#     Edge 114, Type (0, 0), None
#     Edge 115, Type (0, 0), None
#     Edge 116, Type (0, 0), None
#     Edge 117, Type (0, 0), None
#     Edge 118, Type (0, 0), None
#     Edge 119, Type (0, 0), None
#     Edge 120, Type (0, 0), None
#     Edge 121, Type (0, 0), None
#     Edge 122, Type (0, 0), None
#     Edge 123, Type (0, 0), None
#     Edge 124, Type (0, 0), None
#     Edge 125, Type (0, 0), None
# Relax obj value: 0.094
# Max RMSD: 0.154
# Mean RMSD: 0.154
data_MOF--net-wlu--node1-BEQFEK_clean_sbu_0--edge1-none
_symmetry_space_group_name_H-M    P1
_symmetry_Int_Tables_number       1
_symmetry_cell_setting            triclinic
loop_
_symmetry_equiv_pos_as_xyz
'x, y, z'
_cell_length_a     37.137409
_cell_length_b     37.137981
_cell_length_c     27.201705
_cell_angle_alpha  90.001129
_cell_angle_beta   89.998967
_cell_angle_gamma 120.00139
loop_
_atom_site_label
_atom_site_type_symbol
_atom_site_fract_x
_atom_site_fract_y
_atom_site_fract_z
_atom_type_partial_charge
Co0 Co 0.30839 0.23831 0.04496 0.0
Co1 Co 0.25801 0.14392 0.0199 0.0
C2 C 0.32059 0.20398 0.95013 0.0
O3 O 0.32789 0.23414 0.97855 0.0
O4 O 0.29498 0.16638 0.96147 0.0
C5 C 0.38214 0.31121 0.08019 0.0
O6 O 0.40237 0.29133 0.07119 0.0
C7 C 0.23644 0.05688 1.002 0.0
C8 C 0.16832 0.0237 0.01281 0.0
C9 C 0.20112 0.01763 1.00093 0.0
N10 N 0.2249 0.0848 0.01379 0.0
N11 N 0.18412 0.06475 0.01998 0.0
C12 C 0.28054 0.06774 0.99351 0.0
H13 H 0.30208 0.10137 0.99996 0.0
H14 H 0.28864 0.04928 0.01859 0.0
H15 H 0.28408 0.05972 0.95518 0.0
C16 C 0.32668 0.20617 0.13497 0.0
N17 N 0.31023 0.20021 0.08958 0.0
N18 N 0.29049 0.16047 0.0791 0.0
C19 C 0.29466 0.13964 0.11723 0.0
C20 C 0.32163 0.16844 0.15246 0.0
C21 C 0.33075 0.24128 0.16633 0.0
H22 H 0.30992 0.25237 0.1523 0.0
H23 H 0.36283 0.26795 0.16497 0.0
H24 H 0.32182 0.23115 0.20495 0.0
O25 O 0.25257 0.23103 0.03845 0.0
O26 O 0.21738 0.16439 0.01802 0.0
H27 H 0.2573 0.08812 0.16565 0.0
H28 H 0.27356 0.07462 0.10829 0.0
C29 C 0.26323 0.09487 0.12586 0.0
H30 H 0.2332 0.08746 0.10886 0.0
H31 H 0.16703 0.07908 0.02932 0.0
O32 O 0.3437 0.29454 0.07033 0.0
C33 C 0.21897 0.19897 0.02581 0.0
Co34 Co 0.75666 0.06906 0.04495 0.0
Co35 Co 0.85105 0.11308 0.0199 0.0
C36 C 0.79099 0.1156 0.95013 0.0
O37 O 0.76083 0.09274 0.97855 0.0
O38 O 0.82859 0.1276 0.96147 0.0
C39 C 0.68376 0.06992 0.08018 0.0
O40 O 0.70364 0.11003 0.07119 0.0
C41 C 0.93809 0.17856 1.002 0.0
C42 C 0.97127 0.14362 0.01281 0.0
C43 C 0.97734 0.1825 1.00092 0.0
N44 N 0.91017 0.1391 0.01379 0.0
N45 N 0.93022 0.11837 0.01998 0.0
C46 C 0.92724 0.2118 0.99351 0.0
H47 H 0.8936 0.19971 0.99996 0.0
H48 H 0.94569 0.23836 0.01859 0.0
H49 H 0.93525 0.22336 0.95518 0.0
C50 C 0.7888 0.1195 0.13497 0.0
N51 N 0.79476 0.10901 0.08958 0.0
N52 N 0.8345 0.12901 0.0791 0.0
C53 C 0.85533 0.15402 0.11722 0.0
C54 C 0.82653 0.15218 0.15246 0.0
C55 C 0.75369 0.08846 0.16632 0.0
H56 H 0.7426 0.05653 0.1523 0.0
H57 H 0.72702 0.09387 0.16497 0.0
H58 H 0.76382 0.08966 0.20495 0.0
O59 O 0.76394 0.02054 0.03845 0.0
O60 O 0.83058 0.05199 0.01801 0.0
H61 H 0.90686 0.16819 0.16565 0.0
H62 H 0.92035 0.19794 0.10829 0.0
C63 C 0.9001 0.16737 0.12586 0.0
H64 H 0.90751 0.14474 0.10886 0.0
H65 H 0.91589 0.08695 0.02931 0.0
O66 O 0.70043 0.04815 0.07032 0.0
C67 C 0.796 0.019 0.0258 0.0
Co68 Co 0.9259 0.68658 0.04495 0.0
Co69 Co 0.88189 0.73695 0.0199 0.0
C70 C 0.87937 0.67438 0.95012 0.0
O71 O 0.90222 0.66707 0.97854 0.0
O72 O 0.86737 0.69998 0.96146 0.0
C73 C 0.92504 0.61282 0.08018 0.0
O74 O 0.88493 0.5926 0.07119 0.0
C75 C 0.81641 0.75852 1.00199 0.0
C76 C 0.85136 0.82664 0.0128 0.0
C77 C 0.81248 0.79384 1.00092 0.0
N78 N 0.85587 0.77006 0.01378 0.0
N79 N 0.8766 0.81084 0.01998 0.0
C80 C 0.78317 0.71443 0.9935 0.0
H81 H 0.79526 0.69288 0.99995 0.0
H82 H 0.75661 0.70633 0.01858 0.0
H83 H 0.77161 0.71089 0.95517 0.0
C84 C 0.87547 0.66829 0.13497 0.0
N85 N 0.88595 0.68474 0.08958 0.0
N86 N 0.86596 0.70448 0.0791 0.0
C87 C 0.84095 0.7003 0.11722 0.0
C88 C 0.84279 0.67334 0.15245 0.0
C89 C 0.90651 0.66422 0.16632 0.0
H90 H 0.93844 0.68506 0.15229 0.0
H91 H 0.9011 0.63215 0.16497 0.0
H92 H 0.90531 0.67316 0.20494 0.0
O93 O 0.97443 0.74239 0.03845 0.0
O94 O 0.94298 0.77758 0.01801 0.0
H95 H 0.82679 0.73766 0.16565 0.0
H96 H 0.79703 0.7214 0.10829 0.0
C97 C 0.82761 0.73173 0.12586 0.0
H98 H 0.85023 0.76176 0.10885 0.0
H99 H 0.90803 0.82793 0.02931 0.0
O100 O 0.94682 0.65126 0.07032 0.0
C101 C 0.97597 0.77599 0.0258 0.0
Co102 Co 0.23731 0.30939 0.47347 0.0
Co103 Co 0.14292 0.25901 0.49852 0.0
C104 C 0.20298 0.32159 0.5683 0.0
O105 O 0.23314 0.3289 0.53988 0.0
O106 O 0.16537 0.29599 0.55696 0.0
C107 C 0.3102 0.38314 0.43823 0.0
O108 O 0.29032 0.40337 0.44722 0.0
C109 C 0.05587 0.23745 0.51643 0.0
C110 C 0.02269 0.16932 0.50562 0.0
C111 C 0.01662 0.20213 0.5175 0.0
N112 N 0.0838 0.22591 0.50464 0.0
N113 N 0.06374 0.18513 0.49845 0.0
C114 C 0.06673 0.28154 0.52492 0.0
H115 H 0.10037 0.30309 0.51846 0.0
H116 H 0.04827 0.28964 0.49984 0.0
H117 H 0.05871 0.28509 0.56325 0.0
C118 C 0.20516 0.32768 0.38345 0.0
N119 N 0.1992 0.31123 0.42884 0.0
N120 N 0.15946 0.29149 0.43933 0.0
C121 C 0.13863 0.29566 0.4012 0.0
C122 C 0.16743 0.32263 0.36597 0.0
C123 C 0.24027 0.33175 0.3521 0.0
H124 H 0.25136 0.31092 0.36612 0.0
H125 H 0.26694 0.36383 0.35345 0.0
H126 H 0.23014 0.32282 0.31347 0.0
O127 O 0.23002 0.25358 0.47997 0.0
O128 O 0.16339 0.21839 0.50041 0.0
H129 H 0.0871 0.25831 0.35278 0.0
H130 H 0.07361 0.27457 0.41014 0.0
C131 C 0.09386 0.26424 0.39257 0.0
H132 H 0.08645 0.2342 0.40957 0.0
H133 H 0.07807 0.16803 0.48912 0.0
O134 O 0.29354 0.34471 0.4481 0.0
C135 C 0.19797 0.21998 0.49262 0.0
Co136 Co 0.68557 0.92691 0.47348 0.0
Co137 Co 0.73595 0.88289 0.49853 0.0
C138 C 0.67337 0.88038 0.5683 0.0
O139 O 0.66606 0.90323 0.53988 0.0
O140 O 0.69897 0.86837 0.55697 0.0
C141 C 0.61182 0.92605 0.43823 0.0
O142 O 0.59159 0.88594 0.44722 0.0
C143 C 0.75752 0.81742 0.51644 0.0
C144 C 0.82564 0.85237 0.50563 0.0
C145 C 0.79284 0.81349 0.51751 0.0
N146 N 0.76906 0.85688 0.50465 0.0
N147 N 0.80984 0.87761 0.49846 0.0
C148 C 0.71342 0.78418 0.52493 0.0
H149 H 0.69188 0.79627 0.51847 0.0
H150 H 0.70532 0.75762 0.49985 0.0
H151 H 0.70988 0.77262 0.56326 0.0
C152 C 0.66729 0.87647 0.38346 0.0
N153 N 0.68374 0.88696 0.42885 0.0
N154 N 0.70347 0.86696 0.43933 0.0
C155 C 0.6993 0.84195 0.40121 0.0
C156 C 0.67233 0.84379 0.36597 0.0
C157 C 0.66322 0.90751 0.35211 0.0
H158 H 0.68405 0.93944 0.36613 0.0
H159 H 0.63114 0.9021 0.35346 0.0
H160 H 0.67215 0.90631 0.31348 0.0
O161 O 0.74139 0.97543 0.47998 0.0
O162 O 0.77658 0.94399 0.50042 0.0
H163 H 0.73666 0.82779 0.35278 0.0
H164 H 0.7204 0.79804 0.41014 0.0
C165 C 0.73073 0.82861 0.39257 0.0
H166 H 0.76076 0.85124 0.40958 0.0
H167 H 0.82693 0.90904 0.48912 0.0
O168 O 0.65026 0.94782 0.4481 0.0
C169 C 0.77499 0.97698 0.49263 0.0
Co170 Co 0.06806 0.75766 0.47348 0.0
Co171 Co 0.11208 0.85205 0.49853 0.0
C172 C 0.11459 0.79199 0.5683 0.0
O173 O 0.09174 0.76183 0.53988 0.0
O174 O 0.1266 0.82959 0.55697 0.0
C175 C 0.06892 0.68477 0.43824 0.0
O176 O 0.10903 0.70466 0.44722 0.0
C177 C 0.17755 0.9391 0.51644 0.0
C178 C 0.14261 0.97227 0.50563 0.0
C179 C 0.18149 0.97835 0.51751 0.0
N180 N 0.13809 0.91117 0.50465 0.0
N181 N 0.11737 0.93122 0.49846 0.0
C182 C 0.2108 0.92824 0.52493 0.0
H183 H 0.19871 0.89461 0.51847 0.0
H184 H 0.23736 0.9467 0.49984 0.0
H185 H 0.22236 0.93626 0.56325 0.0
C186 C 0.11849 0.78981 0.38346 0.0
N187 N 0.10801 0.79577 0.42885 0.0
N188 N 0.12801 0.83551 0.43933 0.0
C189 C 0.15302 0.85634 0.40121 0.0
C190 C 0.15118 0.82754 0.36597 0.0
C191 C 0.08745 0.7547 0.3521 0.0
H192 H 0.05553 0.74361 0.36613 0.0
H193 H 0.09286 0.72803 0.35346 0.0
H194 H 0.08866 0.76483 0.31348 0.0
O195 O 0.01953 0.76495 0.47998 0.0
O196 O 0.05098 0.83158 0.50042 0.0
H197 H 0.16718 0.90786 0.35279 0.0
H198 H 0.19694 0.92135 0.41014 0.0
C199 C 0.16636 0.90111 0.39257 0.0
H200 H 0.14373 0.90852 0.40958 0.0
H201 H 0.08594 0.91689 0.48913 0.0
O202 O 0.04715 0.70143 0.4481 0.0
C203 C 0.01799 0.797 0.49263 0.0
Co204 Co 0.68558 0.75766 0.97347 0.0
Co205 Co 0.73596 0.85205 0.99852 0.0
C206 C 0.67338 0.79199 0.0683 0.0
O207 O 0.66607 0.76183 0.03988 0.0
O208 O 0.69898 0.82959 0.05696 0.0
C209 C 0.61182 0.68476 0.93823 0.0
O210 O 0.59159 0.70465 0.94722 0.0
C211 C 0.75752 0.9391 0.01641 0.0
C212 C 0.82565 0.97227 1.00562 0.0
C213 C 0.79284 0.97835 0.01746 0.0
N214 N 0.76906 0.91117 1.00464 0.0
N215 N 0.80984 0.93122 0.99846 0.0
C216 C 0.71342 0.92824 0.02489 0.0
H217 H 0.69188 0.8946 0.01843 0.0
H218 H 0.70532 0.9467 0.99981 0.0
H219 H 0.70988 0.93626 0.06322 0.0
C220 C 0.66728 0.7898 0.88345 0.0
N221 N 0.68373 0.79577 0.92885 0.0
N222 N 0.70348 0.83551 0.93933 0.0
C223 C 0.6993 0.85634 0.9012 0.0
C224 C 0.67233 0.82753 0.86597 0.0
C225 C 0.66322 0.7547 0.8521 0.0
H226 H 0.68405 0.74361 0.86612 0.0
H227 H 0.63114 0.72803 0.85345 0.0
H228 H 0.67215 0.76483 0.81347 0.0
O229 O 0.74139 0.76495 0.97996 0.0
O230 O 0.77658 0.83158 1.0004 0.0
H231 H 0.73666 0.90786 0.85278 0.0
H232 H 0.7204 0.92135 0.91013 0.0
C233 C 0.73073 0.90111 0.89257 0.0
H234 H 0.76077 0.90851 0.90957 0.0
H235 H 0.82694 0.91689 0.98915 0.0
O236 O 0.65026 0.70143 0.9481 0.0
C237 C 0.77499 0.79701 0.9926 0.0
Co238 Co 0.23731 0.92691 0.97347 0.0
Co239 Co 0.14292 0.88289 0.99853 0.0
C240 C 0.20298 0.88038 0.0683 0.0
O241 O 0.23314 0.90323 0.03988 0.0
O242 O 0.16538 0.86838 0.05696 0.0
C243 C 0.3102 0.92605 0.93824 0.0
O244 O 0.29031 0.88594 0.94722 0.0
C245 C 0.05587 0.81741 0.01641 0.0
C246 C 0.0227 0.85236 1.00562 0.0
C247 C 0.01662 0.81348 0.01746 0.0
N248 N 0.0838 0.85688 1.00464 0.0
N249 N 0.06375 0.87761 0.99847 0.0
C250 C 0.06673 0.78417 0.02489 0.0
H251 H 0.10036 0.79626 0.01843 0.0
H252 H 0.04827 0.75761 0.99981 0.0
H253 H 0.05871 0.77261 0.06322 0.0
C254 C 0.20517 0.87647 0.88346 0.0
N255 N 0.1992 0.88696 0.92885 0.0
N256 N 0.15946 0.86696 0.93933 0.0
C257 C 0.13863 0.84195 0.90121 0.0
C258 C 0.16744 0.84379 0.86597 0.0
C259 C 0.24027 0.90752 0.8521 0.0
H260 H 0.25136 0.93944 0.86613 0.0
H261 H 0.26694 0.90211 0.85345 0.0
H262 H 0.23014 0.90631 0.81348 0.0
O263 O 0.23002 0.97544 0.97997 0.0
O264 O 0.16339 0.94399 1.00041 0.0
H265 H 0.08711 0.82779 0.85278 0.0
H266 H 0.07361 0.79804 0.91013 0.0
C267 C 0.09386 0.82861 0.89257 0.0
H268 H 0.08645 0.85124 0.90957 0.0
H269 H 0.07808 0.90904 0.98916 0.0
O270 O 0.29354 0.94782 0.9481 0.0
C271 C 0.19796 0.97698 0.99261 0.0
Co272 Co 0.06806 0.3094 0.97347 0.0
Co273 Co 0.11208 0.25902 0.99853 0.0
C274 C 0.11459 0.3216 0.0683 0.0
O275 O 0.09174 0.3289 0.03988 0.0
O276 O 0.1266 0.296 0.05697 0.0
C277 C 0.06893 0.38315 0.93824 0.0
O278 O 0.10904 0.40338 0.94722 0.0
C279 C 0.17756 0.23745 0.01641 0.0
C280 C 0.1426 0.16933 1.00562 0.0
C281 C 0.18149 0.20214 0.01747 0.0
N282 N 0.13809 0.22592 1.00465 0.0
N283 N 0.11736 0.18514 0.99847 0.0
C284 C 0.2108 0.28155 0.0249 0.0
H285 H 0.19871 0.3031 0.01844 0.0
H286 H 0.23736 0.28965 0.99981 0.0
H287 H 0.22236 0.2851 0.06322 0.0
C288 C 0.1185 0.32769 0.88346 0.0
N289 N 0.10801 0.31124 0.92885 0.0
N290 N 0.12801 0.2915 0.93933 0.0
C291 C 0.15302 0.29567 0.90121 0.0
C292 C 0.15118 0.32264 0.86597 0.0
C293 C 0.08746 0.33175 0.85211 0.0
H294 H 0.05553 0.31092 0.86613 0.0
H295 H 0.09286 0.36382 0.85346 0.0
H296 H 0.08866 0.32282 0.81348 0.0
O297 O 0.01954 0.25359 0.97997 0.0
O298 O 0.05098 0.2184 1.00041 0.0
H299 H 0.16718 0.25831 0.85278 0.0
H300 H 0.19693 0.27458 0.91013 0.0
C301 C 0.16636 0.26425 0.89257 0.0
H302 H 0.14373 0.23421 0.90957 0.0
H303 H 0.08593 0.16804 0.98915 0.0
O304 O 0.04715 0.34472 0.9481 0.0
C305 C 0.01799 0.21998 0.99261 0.0
Co306 Co 0.75665 0.68659 0.54496 0.0
Co307 Co 0.85104 0.73696 0.51991 0.0
C308 C 0.79098 0.67439 0.45013 0.0
O309 O 0.76083 0.66708 0.47855 0.0
O310 O 0.82859 0.69999 0.46147 0.0
C311 C 0.68376 0.61283 0.58019 0.0
O312 O 0.70364 0.5926 0.57119 0.0
C313 C 0.93809 0.75853 0.50203 0.0
C314 C 0.97127 0.82665 0.51282 0.0
C315 C 0.97735 0.79384 0.50097 0.0
N316 N 0.91016 0.77007 0.51379 0.0
N317 N 0.93022 0.81085 0.51998 0.0
C318 C 0.92723 0.71443 0.49354 0.0
H319 H 0.8936 0.69288 0.5 0.0
H320 H 0.94569 0.70633 0.51862 0.0
H321 H 0.93525 0.71088 0.45521 0.0
C322 C 0.78879 0.66829 0.63497 0.0
N323 N 0.79476 0.68474 0.58958 0.0
N324 N 0.8345 0.70448 0.5791 0.0
C325 C 0.85533 0.70031 0.61723 0.0
C326 C 0.82652 0.67333 0.65246 0.0
C327 C 0.75369 0.66422 0.66633 0.0
H328 H 0.7426 0.68505 0.6523 0.0
H329 H 0.72702 0.63214 0.66497 0.0
H330 H 0.76382 0.67315 0.70495 0.0
O331 O 0.76394 0.7424 0.53847 0.0
O332 O 0.83058 0.77759 0.51803 0.0
H333 H 0.90685 0.73766 0.66566 0.0
H334 H 0.92035 0.72141 0.6083 0.0
C335 C 0.9001 0.73173 0.62587 0.0
H336 H 0.90751 0.76177 0.60887 0.0
H337 H 0.91589 0.82794 0.52929 0.0
O338 O 0.70042 0.65127 0.57033 0.0
C339 C 0.796 0.776 0.52583 0.0
Co340 Co 0.30839 0.06907 0.54495 0.0
Co341 Co 0.25802 0.11308 0.5199 0.0
C342 C 0.32059 0.1156 0.45012 0.0
O343 O 0.3279 0.09274 0.47854 0.0
O344 O 0.29499 0.1276 0.46146 0.0
C345 C 0.38215 0.06993 0.58018 0.0
O346 O 0.40238 0.11004 0.57119 0.0
C347 C 0.23645 0.17856 0.50202 0.0
C348 C 0.16832 0.14361 0.51281 0.0
C349 C 0.20113 0.1825 0.50096 0.0
N350 N 0.22491 0.13909 0.51379 0.0
N351 N 0.18413 0.11837 0.51997 0.0
C352 C 0.28054 0.2118 0.49353 0.0
H353 H 0.30209 0.19971 0.49999 0.0
H354 H 0.28864 0.23836 0.51861 0.0
H355 H 0.28409 0.22336 0.45521 0.0
C356 C 0.32669 0.1195 0.63497 0.0
N357 N 0.31024 0.10902 0.58958 0.0
N358 N 0.2905 0.12902 0.5791 0.0
C359 C 0.29467 0.15402 0.61722 0.0
C360 C 0.32164 0.15219 0.65245 0.0
C361 C 0.33075 0.08846 0.66632 0.0
H362 H 0.30992 0.05654 0.65229 0.0
H363 H 0.36283 0.09387 0.66497 0.0
H364 H 0.32182 0.08966 0.70494 0.0
O365 O 0.25258 0.02054 0.53846 0.0
O366 O 0.21739 0.05199 0.51802 0.0
H367 H 0.25731 0.16818 0.66565 0.0
H368 H 0.27357 0.19793 0.6083 0.0
C369 C 0.26324 0.16736 0.62586 0.0
H370 H 0.23321 0.14473 0.60886 0.0
H371 H 0.16703 0.08693 0.52928 0.0
O372 O 0.34371 0.04816 0.57032 0.0
C373 C 0.21898 0.019 0.52582 0.0
Co374 Co 0.9259 0.23832 0.54495 0.0
Co375 Co 0.88189 0.14393 0.5199 0.0
C376 C 0.87937 0.20399 0.45013 0.0
O377 O 0.90223 0.23414 0.47854 0.0
O378 O 0.86737 0.16638 0.46146 0.0
C379 C 0.92504 0.31121 0.58018 0.0
O380 O 0.88493 0.29132 0.57119 0.0
C381 C 0.81641 0.05688 0.50202 0.0
C382 C 0.85136 0.02371 0.51281 0.0
C383 C 0.81247 0.01763 0.50097 0.0
N384 N 0.85587 0.08481 0.51379 0.0
N385 N 0.8766 0.06476 0.51997 0.0
C386 C 0.78316 0.06773 0.49354 0.0
H387 H 0.79525 0.10137 0.49999 0.0
H388 H 0.7566 0.04927 0.51862 0.0
H389 H 0.7716 0.05971 0.45521 0.0
C390 C 0.87547 0.20618 0.63497 0.0
N391 N 0.88595 0.20021 0.58958 0.0
N392 N 0.86595 0.16047 0.5791 0.0
C393 C 0.84095 0.13964 0.61722 0.0
C394 C 0.84278 0.16845 0.65246 0.0
C395 C 0.90651 0.24128 0.66632 0.0
H396 H 0.93843 0.25237 0.65229 0.0
H397 H 0.9011 0.26795 0.66497 0.0
H398 H 0.90531 0.23115 0.70495 0.0
O399 O 0.97443 0.23103 0.53846 0.0
O400 O 0.94298 0.16439 0.51802 0.0
H401 H 0.82679 0.08812 0.66565 0.0
H402 H 0.79703 0.07463 0.6083 0.0
C403 C 0.82761 0.09487 0.62586 0.0
H404 H 0.85023 0.08747 0.60886 0.0
H405 H 0.90804 0.07909 0.52928 0.0
O406 O 0.94682 0.29455 0.57032 0.0
C407 C 0.97597 0.19897 0.52582 0.0
Co408 Co 0.97505 0.57165 0.37829 0.0
Co409 Co 0.92467 0.47726 0.35324 0.0
C410 C 0.98725 0.53732 0.28346 0.0
O411 O 0.99456 0.56748 0.31188 0.0
O412 O 0.96165 0.49972 0.2948 0.0
C413 C 0.04881 0.64455 0.41353 0.0
O414 O 0.06904 0.62466 0.40454 0.0
C415 C 0.90311 0.39022 0.33534 0.0
C416 C 0.83499 0.35704 0.34615 0.0
C417 C 0.86779 0.35096 0.33427 0.0
N418 N 0.89157 0.41814 0.34713 0.0
N419 N 0.85079 0.39808 0.35332 0.0
C420 C 0.9472 0.40107 0.32684 0.0
H421 H 0.96875 0.43471 0.3333 0.0
H422 H 0.95531 0.38262 0.35193 0.0
H423 H 0.95075 0.39306 0.28852 0.0
C424 C 0.99335 0.53951 0.46831 0.0
N425 N 0.97689 0.53354 0.42292 0.0
N426 N 0.95715 0.49381 0.41243 0.0
C427 C 0.96133 0.47297 0.45056 0.0
C428 C 0.9883 0.50178 0.48579 0.0
C429 C -0.00258 0.57462 0.49966 0.0
H430 H 0.97659 0.58571 0.48564 0.0
H431 H 0.0295 0.60128 0.49831 0.0
H432 H 0.98849 0.56448 0.53829 0.0
O433 O 0.91924 0.56437 0.37179 0.0
O434 O 0.88405 0.49773 0.35135 0.0
H435 H 0.92397 0.42145 0.49899 0.0
H436 H 0.94023 0.40796 0.44163 0.0
C437 C 0.9299 0.4282 0.4592 0.0
H438 H 0.89986 0.4208 0.4422 0.0
H439 H 0.83369 0.41242 0.36266 0.0
O440 O 0.01037 0.62788 0.40366 0.0
C441 C 0.88564 0.53231 0.35914 0.0
Co442 Co 0.42332 0.40239 0.37829 0.0
Co443 Co 0.51771 0.44641 0.35324 0.0
C444 C 0.45765 0.44893 0.28346 0.0
O445 O 0.42749 0.42607 0.31188 0.0
O446 O 0.49526 0.46093 0.2948 0.0
C447 C 0.35042 0.40325 0.41352 0.0
O448 O 0.37031 0.44337 0.40454 0.0
C449 C 0.60475 0.51189 0.33534 0.0
C450 C 0.63793 0.47695 0.34615 0.0
C451 C 0.64401 0.51583 0.33427 0.0
N452 N 0.57683 0.47243 0.34712 0.0
N453 N 0.59688 0.4517 0.35332 0.0
C454 C 0.5939 0.54513 0.32685 0.0
H455 H 0.56026 0.53304 0.3333 0.0
H456 H 0.61235 0.57169 0.35193 0.0
H457 H 0.60192 0.55669 0.28852 0.0
C458 C 0.45546 0.45283 0.46831 0.0
N459 N 0.46143 0.44234 0.42291 0.0
N460 N 0.50116 0.46234 0.41243 0.0
C461 C 0.522 0.48735 0.45056 0.0
C462 C 0.49319 0.48552 0.48579 0.0
C463 C 0.42035 0.42179 0.49966 0.0
H464 H 0.40926 0.38987 0.48563 0.0
H465 H 0.39369 0.4272 0.49831 0.0
H466 H 0.43049 0.42299 0.53828 0.0
O467 O 0.4306 0.35387 0.37178 0.0
O468 O 0.49724 0.38532 0.35134 0.0
H469 H 0.57352 0.50152 0.49898 0.0
H470 H 0.58701 0.53127 0.44163 0.0
C471 C 0.56677 0.5007 0.45919 0.0
H472 H 0.57418 0.47807 0.44219 0.0
H473 H 0.58255 0.42028 0.36265 0.0
O474 O 0.36709 0.38148 0.40365 0.0
C475 C 0.46266 0.35233 0.35913 0.0
Co476 Co 0.59257 0.01991 0.37828 0.0
Co477 Co 0.54856 0.07029 0.35323 0.0
C478 C 0.54604 0.00771 0.28346 0.0
O479 O 0.56889 0.0004 0.31188 0.0
O480 O 0.53404 0.03331 0.2948 0.0
C481 C 0.59171 0.94616 0.41352 0.0
O482 O 0.5516 0.92593 0.40454 0.0
C483 C 0.48308 0.09186 0.33533 0.0
C484 C 0.51803 0.15998 0.34615 0.0
C485 C 0.47915 0.12717 0.33426 0.0
N486 N 0.52254 0.10339 0.34712 0.0
N487 N 0.54327 0.14417 0.35332 0.0
C488 C 0.44984 0.04776 0.32684 0.0
H489 H 0.46193 0.02621 0.33329 0.0
H490 H 0.42328 0.03966 0.35192 0.0
H491 H 0.43828 0.04422 0.28851 0.0
C492 C 0.54214 0.00162 0.4683 0.0
N493 N 0.55262 0.01807 0.42291 0.0
N494 N 0.53262 0.03781 0.41243 0.0
C495 C 0.50762 0.03364 0.45056 0.0
C496 C 0.50945 0.00667 0.48579 0.0
C497 C 0.57318 0.99756 0.49966 0.0
H498 H 0.6051 0.01839 0.48563 0.0
H499 H 0.56777 0.96548 0.4983 0.0
H500 H 0.57198 0.00649 0.53828 0.0
O501 O 0.6411 0.07572 0.37178 0.0
O502 O 0.60965 0.11091 0.35134 0.0
H503 H 0.49345 0.071 0.49898 0.0
H504 H 0.4637 0.05473 0.44163 0.0
C505 C 0.49428 0.06506 0.45919 0.0
H506 H 0.5169 0.0951 0.44219 0.0
H507 H 0.5747 0.16127 0.36265 0.0
O508 O 0.61348 0.98459 0.40365 0.0
C509 C 0.64264 0.10932 0.35914 0.0
Co510 Co 0.90398 0.64272 0.8068 0.0
Co511 Co 0.80959 0.59235 0.83186 0.0
C512 C 0.86965 0.65494 0.90162 0.0
O513 O 0.89981 0.66224 0.87321 0.0
O514 O 0.83204 0.62933 0.89029 0.0
C515 C 0.97687 0.71647 0.77157 0.0
O516 O 0.95698 0.7367 0.78055 0.0
C517 C 0.72254 0.57078 0.84976 0.0
C518 C 0.68936 0.50266 0.83896 0.0
C519 C 0.68329 0.53546 0.85084 0.0
N520 N 0.75047 0.55924 0.83798 0.0
N521 N 0.73041 0.51846 0.83179 0.0
C522 C 0.7334 0.61488 0.85825 0.0
H523 H 0.76704 0.63642 0.85179 0.0
H524 H 0.71494 0.62298 0.83316 0.0
H525 H 0.72539 0.61843 0.89657 0.0
C526 C 0.87183 0.66099 0.71677 0.0
N527 N 0.86587 0.64455 0.76217 0.0
N528 N 0.82613 0.62481 0.77266 0.0
C529 C 0.80529 0.62897 0.73452 0.0
C530 C 0.8341 0.65592 0.69928 0.0
C531 C 0.90694 0.66505 0.68543 0.0
H532 H 0.91803 0.64421 0.69946 0.0
H533 H 0.93361 0.69712 0.68678 0.0
H534 H 0.89681 0.65611 0.6468 0.0
O535 O 0.89669 0.58691 0.81332 0.0
O536 O 0.83005 0.55172 0.83376 0.0
H537 H 0.75377 0.5916 0.6861 0.0
H538 H 0.74028 0.60785 0.74346 0.0
C539 C 0.76053 0.59753 0.72589 0.0
H540 H 0.75313 0.5675 0.74289 0.0
H541 H 0.74474 0.50136 0.82246 0.0
O542 O 0.96021 0.67804 0.78143 0.0
C543 C 0.86463 0.55331 0.82597 0.0
Co544 Co 0.35224 0.26024 0.80681 0.0
Co545 Co 0.40262 0.21623 0.83187 0.0
C546 C 0.34003 0.2137 0.90163 0.0
O547 O 0.33273 0.23656 0.87321 0.0
O548 O 0.36563 0.2017 0.8903 0.0
C549 C 0.27849 0.25938 0.77157 0.0
O550 O 0.25827 0.21927 0.78055 0.0
C551 C 0.42418 0.15075 0.84977 0.0
C552 C 0.49231 0.1857 0.83897 0.0
C553 C 0.4595 0.14682 0.85085 0.0
N554 N 0.43572 0.19022 0.83798 0.0
N555 N 0.4765 0.21094 0.8318 0.0
C556 C 0.38009 0.11751 0.85825 0.0
H557 H 0.35854 0.1296 0.85179 0.0
H558 H 0.37199 0.09095 0.83317 0.0
H559 H 0.37654 0.10595 0.89658 0.0
C560 C 0.33398 0.20984 0.71678 0.0
N561 N 0.35041 0.22031 0.76218 0.0
N562 N 0.37015 0.20031 0.77266 0.0
C563 C 0.366 0.17532 0.73452 0.0
C564 C 0.33905 0.17717 0.69928 0.0
C565 C 0.32993 0.24089 0.68543 0.0
H566 H 0.35076 0.27281 0.69947 0.0
H567 H 0.29785 0.23548 0.68678 0.0
H568 H 0.33886 0.23969 0.64681 0.0
O569 O 0.40805 0.30877 0.81332 0.0
O570 O 0.44324 0.27732 0.83376 0.0
H571 H 0.40337 0.16117 0.6861 0.0
H572 H 0.38711 0.13142 0.74346 0.0
C573 C 0.39743 0.16199 0.72589 0.0
H574 H 0.42747 0.18462 0.7429 0.0
H575 H 0.4936 0.24237 0.82247 0.0
O576 O 0.31693 0.28116 0.78144 0.0
C577 C 0.44166 0.31031 0.82597 0.0
Co578 Co 0.73472 0.09099 0.80681 0.0
Co579 Co 0.77874 0.18538 0.83187 0.0
C580 C 0.78127 0.12532 0.90163 0.0
O581 O 0.75841 0.09516 0.87321 0.0
O582 O 0.79327 0.16293 0.8903 0.0
C583 C 0.73558 0.0181 0.77157 0.0
O584 O 0.77569 0.03799 0.78055 0.0
C585 C 0.84422 0.27243 0.84977 0.0
C586 C 0.80927 0.3056 0.83897 0.0
C587 C 0.84815 0.31168 0.85084 0.0
N588 N 0.80476 0.2445 0.83799 0.0
N589 N 0.78403 0.26455 0.8318 0.0
C590 C 0.87746 0.26157 0.85825 0.0
H591 H 0.86537 0.22794 0.85179 0.0
H592 H 0.90402 0.28003 0.83316 0.0
H593 H 0.88903 0.26959 0.89657 0.0
C594 C 0.78513 0.12314 0.71678 0.0
N595 N 0.77466 0.1291 0.76218 0.0
N596 N 0.79466 0.16884 0.77266 0.0
C597 C 0.81966 0.18968 0.73452 0.0
C598 C 0.8178 0.16087 0.69928 0.0
C599 C 0.75408 0.08803 0.68543 0.0
H600 H 0.72216 0.07694 0.69947 0.0
H601 H 0.75948 0.06136 0.68678 0.0
H602 H 0.75527 0.09816 0.64681 0.0
O603 O 0.6862 0.09828 0.81332 0.0
O604 O 0.71765 0.16491 0.83377 0.0
H605 H 0.8338 0.2412 0.68611 0.0
H606 H 0.86356 0.25469 0.74346 0.0
C607 C 0.83298 0.23444 0.72589 0.0
H608 H 0.81035 0.24184 0.7429 0.0
H609 H 0.7526 0.25022 0.82247 0.0
O610 O 0.71381 0.03476 0.78144 0.0
C611 C 0.68466 0.13034 0.82598 0.0
Co612 Co 0.35225 0.09099 0.3068 0.0
Co613 Co 0.40262 0.18538 0.33186 0.0
C614 C 0.34003 0.12532 0.40162 0.0
O615 O 0.33273 0.09516 0.37321 0.0
O616 O 0.36564 0.16292 0.39029 0.0
C617 C 0.27849 0.0181 0.27156 0.0
O618 O 0.25827 0.03799 0.28055 0.0
C619 C 0.42418 0.27243 0.34974 0.0
C620 C 0.49231 0.3056 0.33896 0.0
C621 C 0.4595 0.31168 0.3508 0.0
N622 N 0.43573 0.2445 0.33798 0.0
N623 N 0.47651 0.26455 0.3318 0.0
C624 C 0.38009 0.26157 0.35821 0.0
H625 H 0.35854 0.22793 0.35175 0.0
H626 H 0.37199 0.28003 0.33313 0.0
H627 H 0.37653 0.26958 0.39654 0.0
C628 C 0.33398 0.12313 0.21677 0.0
N629 N 0.35041 0.1291 0.26217 0.0
N630 N 0.37015 0.16884 0.27266 0.0
C631 C 0.366 0.18967 0.23452 0.0
C632 C 0.33904 0.16087 0.19928 0.0
C633 C 0.32992 0.08803 0.18543 0.0
H634 H 0.35076 0.07694 0.19946 0.0
H635 H 0.29785 0.06136 0.18678 0.0
H636 H 0.33885 0.09816 0.1468 0.0
O637 O 0.40806 0.09828 0.3133 0.0
O638 O 0.44325 0.16492 0.33375 0.0
H639 H 0.40337 0.24119 0.1861 0.0
H640 H 0.38712 0.25469 0.24345 0.0
C641 C 0.39744 0.23444 0.22589 0.0
H642 H 0.42747 0.24183 0.24289 0.0
H643 H 0.49361 0.25022 0.3225 0.0
O644 O 0.31693 0.03476 0.28143 0.0
C645 C 0.44166 0.13034 0.32595 0.0
Co646 Co 0.90398 0.26025 0.30681 0.0
Co647 Co 0.80959 0.21623 0.33186 0.0
C648 C 0.86965 0.21371 0.40163 0.0
O649 O 0.89981 0.23657 0.37321 0.0
O650 O 0.83205 0.20171 0.39029 0.0
C651 C 0.97687 0.25939 0.27157 0.0
O652 O 0.95698 0.21928 0.28055 0.0
C653 C 0.72254 0.15075 0.34974 0.0
C654 C 0.68937 0.1857 0.33897 0.0
C655 C 0.68329 0.14681 0.3508 0.0
N656 N 0.75047 0.19022 0.33798 0.0
N657 N 0.73042 0.21094 0.33181 0.0
C658 C 0.7334 0.11751 0.35821 0.0
H659 H 0.76703 0.1296 0.35175 0.0
H660 H 0.71494 0.09095 0.33313 0.0
H661 H 0.72538 0.10594 0.39654 0.0
C662 C 0.87184 0.20984 0.21678 0.0
N663 N 0.86587 0.22031 0.26218 0.0
N664 N 0.82613 0.20031 0.27266 0.0
C665 C 0.80529 0.17531 0.23452 0.0
C666 C 0.8341 0.17717 0.19928 0.0
C667 C 0.90694 0.24089 0.18543 0.0
H668 H 0.91803 0.27281 0.19947 0.0
H669 H 0.93361 0.23549 0.18678 0.0
H670 H 0.89681 0.23969 0.14681 0.0
O671 O 0.89669 0.30878 0.31331 0.0
O672 O 0.83005 0.27732 0.33375 0.0
H673 H 0.75378 0.16117 0.1861 0.0
H674 H 0.74028 0.13142 0.24345 0.0
C675 C 0.76053 0.16199 0.22589 0.0
H676 H 0.75313 0.18462 0.24289 0.0
H677 H 0.74475 0.24238 0.3225 0.0
O678 O 0.96021 0.28116 0.28144 0.0
C679 C 0.86463 0.31032 0.32596 0.0
Co680 Co 0.73473 0.64273 0.30681 0.0
Co681 Co 0.77874 0.59236 0.33187 0.0
C682 C 0.78127 0.65495 0.40163 0.0
O683 O 0.75841 0.66224 0.37321 0.0
O684 O 0.79327 0.62934 0.3903 0.0
C685 C 0.73559 0.71648 0.27157 0.0
O686 O 0.7757 0.73671 0.28055 0.0
C687 C 0.84422 0.57079 0.34974 0.0
C688 C 0.80927 0.50267 0.33897 0.0
C689 C 0.84816 0.53547 0.3508 0.0
N690 N 0.80475 0.55925 0.33798 0.0
N691 N 0.78402 0.51847 0.33181 0.0
C692 C 0.87747 0.61489 0.35822 0.0
H693 H 0.86538 0.63643 0.35176 0.0
H694 H 0.90402 0.62298 0.33314 0.0
H695 H 0.88903 0.61844 0.39655 0.0
C696 C 0.78514 0.661 0.21678 0.0
N697 N 0.77467 0.64456 0.26218 0.0
N698 N 0.79467 0.62483 0.27266 0.0
C699 C 0.81966 0.62898 0.23452 0.0
C700 C 0.8178 0.65593 0.19928 0.0
C701 C 0.75408 0.66505 0.18544 0.0
H702 H 0.72216 0.64421 0.19948 0.0
H703 H 0.75949 0.69712 0.18678 0.0
H704 H 0.75528 0.65611 0.14681 0.0
O705 O 0.6862 0.58692 0.31331 0.0
O706 O 0.71765 0.55173 0.33375 0.0
H707 H 0.8338 0.5916 0.1861 0.0
H708 H 0.86356 0.60786 0.24345 0.0
C709 C 0.83298 0.59754 0.22589 0.0
H710 H 0.81035 0.56751 0.2429 0.0
H711 H 0.75259 0.50137 0.3225 0.0
O712 O 0.71381 0.67805 0.28144 0.0
C713 C 0.68466 0.55332 0.32596 0.0
Co714 Co 0.42332 0.01992 0.87829 0.0
Co715 Co 0.51771 0.07029 0.85324 0.0
C716 C 0.45765 0.00772 0.78346 0.0
O717 O 0.42749 0.00041 0.81188 0.0
O718 O 0.49525 0.03332 0.7948 0.0
C719 C 0.35042 0.94616 0.91352 0.0
O720 O 0.37031 0.92594 0.90454 0.0
C721 C 0.60475 0.09186 0.83537 0.0
C722 C 0.63793 0.15998 0.84616 0.0
C723 C 0.64401 0.12717 0.83431 0.0
N724 N 0.57683 0.1034 0.84713 0.0
N725 N 0.59688 0.14418 0.85331 0.0
C726 C 0.5939 0.04776 0.82688 0.0
H727 H 0.56026 0.02622 0.83334 0.0
H728 H 0.61235 0.03966 0.85196 0.0
H729 H 0.60191 0.04422 0.78855 0.0
C730 C 0.45546 0.00162 0.96831 0.0
N731 N 0.46142 0.01807 0.92292 0.0
N732 N 0.50116 0.03781 0.91244 0.0
C733 C 0.522 0.03364 0.95056 0.0
C734 C 0.49319 0.00667 0.98579 0.0
C735 C 0.42035 0.99755 0.99966 0.0
H736 H 0.40926 0.01838 0.98564 0.0
H737 H 0.39369 0.96547 0.99831 0.0
H738 H 0.43049 0.00648 0.03829 0.0
O739 O 0.4306 0.07573 0.8718 0.0
O740 O 0.49724 0.11092 0.85136 0.0
H741 H 0.57351 0.071 0.99899 0.0
H742 H 0.58701 0.05474 0.94163 0.0
C743 C 0.56676 0.06507 0.9592 0.0
H744 H 0.57417 0.0951 0.9422 0.0
H745 H 0.58255 0.16128 0.86262 0.0
O746 O 0.36709 0.9846 0.90366 0.0
C747 C 0.46266 0.10933 0.85916 0.0
Co748 Co 0.97506 0.4024 0.87829 0.0
Co749 Co 0.92468 0.44641 0.85324 0.0
C750 C 0.98726 0.44893 0.78346 0.0
O751 O 0.99456 0.42608 0.81188 0.0
O752 O 0.96166 0.46093 0.7948 0.0
C753 C 0.04882 0.40326 0.91352 0.0
O754 O 0.06904 0.44337 0.90454 0.0
C755 C 0.90312 0.51189 0.83536 0.0
C756 C 0.83499 0.47694 0.84615 0.0
C757 C 0.8678 0.51583 0.83431 0.0
N758 N 0.89158 0.47242 0.84712 0.0
N759 N 0.8508 0.4517 0.85331 0.0
C760 C 0.94721 0.54513 0.82687 0.0
H761 H 0.96876 0.53304 0.83333 0.0
H762 H 0.95531 0.57169 0.85195 0.0
H763 H 0.95076 0.5567 0.78854 0.0
C764 C 0.99335 0.45284 0.96831 0.0
N765 N 0.9769 0.44235 0.92291 0.0
N766 N 0.95716 0.46235 0.91243 0.0
C767 C 0.96133 0.48735 0.95056 0.0
C768 C 0.98831 0.48552 0.98579 0.0
C769 C -0.00258 0.4218 0.99966 0.0
H770 H 0.97659 0.38987 0.98563 0.0
H771 H 0.02949 0.42721 0.99831 0.0
H772 H 0.98849 0.423 0.03828 0.0
O773 O 0.91925 0.35387 0.8718 0.0
O774 O 0.88405 0.38532 0.85136 0.0
H775 H 0.92397 0.50151 0.99899 0.0
H776 H 0.94023 0.53126 0.94163 0.0
C777 C 0.92991 0.50069 0.9592 0.0
H778 H 0.89987 0.47806 0.9422 0.0
H779 H 0.8337 0.42026 0.86262 0.0
O780 O 0.01038 0.38149 0.90366 0.0
C781 C 0.88564 0.35233 0.85916 0.0
Co782 Co 0.59257 0.57165 0.87829 0.0
Co783 Co 0.54856 0.47726 0.85323 0.0
C784 C 0.54604 0.53732 0.78346 0.0
O785 O 0.5689 0.56748 0.81188 0.0
O786 O 0.53404 0.49972 0.7948 0.0
C787 C 0.59171 0.64455 0.91352 0.0
O788 O 0.5516 0.62466 0.90454 0.0
C789 C 0.48308 0.39022 0.83536 0.0
C790 C 0.51803 0.35704 0.84615 0.0
C791 C 0.47914 0.35096 0.83431 0.0
N792 N 0.52254 0.41814 0.84712 0.0
N793 N 0.54327 0.39809 0.85331 0.0
C794 C 0.44983 0.40107 0.82688 0.0
H795 H 0.46192 0.4347 0.83333 0.0
H796 H 0.42327 0.38261 0.85196 0.0
H797 H 0.43827 0.39305 0.78855 0.0
C798 C 0.54214 0.53951 0.96831 0.0
N799 N 0.55262 0.53355 0.92291 0.0
N800 N 0.53262 0.49381 0.91243 0.0
C801 C 0.50762 0.47297 0.95056 0.0
C802 C 0.50945 0.50178 0.98579 0.0
C803 C 0.57318 0.57462 0.99966 0.0
H804 H 0.6051 0.58571 0.98563 0.0
H805 H 0.56777 0.60128 0.99831 0.0
H806 H 0.57198 0.56448 0.03828 0.0
O807 O 0.6411 0.56437 0.8718 0.0
O808 O 0.60965 0.49773 0.85135 0.0
H809 H 0.49346 0.42146 0.99899 0.0
H810 H 0.4637 0.40796 0.94163 0.0
C811 C 0.49428 0.42821 0.9592 0.0
H812 H 0.51691 0.4208 0.94219 0.0
H813 H 0.5747 0.41243 0.86262 0.0
O814 O 0.61348 0.62788 0.90366 0.0
C815 C 0.64264 0.53231 0.85915 0.0
Co816 Co 0.64172 0.90499 0.71162 0.0
Co817 Co 0.59134 0.8106 0.68657 0.0
C818 C 0.65393 0.87066 0.6168 0.0
O819 O 0.66123 0.90081 0.64522 0.0
O820 O 0.62832 0.83305 0.62814 0.0
C821 C 0.71547 0.97788 0.74686 0.0
O822 O 0.7357 0.95799 0.73788 0.0
C823 C 0.56978 0.72355 0.66867 0.0
C824 C 0.50165 0.69037 0.67948 0.0
C825 C 0.53446 0.6843 0.6676 0.0
N826 N 0.55824 0.75148 0.68046 0.0
N827 N 0.51746 0.73142 0.68665 0.0
C828 C 0.61387 0.73441 0.66019 0.0
H829 H 0.63542 0.76805 0.66665 0.0
H830 H 0.62198 0.71596 0.68527 0.0
H831 H 0.61742 0.72639 0.62186 0.0
C832 C 0.65999 0.87284 0.80166 0.0
N833 N 0.64355 0.86688 0.75625 0.0
N834 N 0.62381 0.82714 0.74577 0.0
C835 C 0.62796 0.8063 0.78391 0.0
C836 C 0.65492 0.83511 0.81915 0.0
C837 C 0.66405 0.90795 0.833 0.0
H838 H 0.64321 0.91904 0.81896 0.0
H839 H 0.69612 0.93462 0.83165 0.0
H840 H 0.65511 0.89782 0.87162 0.0
O841 O 0.58591 0.8977 0.70511 0.0
O842 O 0.55071 0.83106 0.68468 0.0
H843 H 0.59059 0.75479 0.83233 0.0
H844 H 0.60684 0.74129 0.77497 0.0
C845 C 0.59653 0.76154 0.79254 0.0
H846 H 0.56649 0.75414 0.77554 0.0
H847 H 0.50036 0.74575 0.69598 0.0
O848 O 0.67703 0.96122 0.73699 0.0
C849 C 0.5523 0.86564 0.69246 0.0
Co850 Co 0.08998 0.73572 0.71162 0.0
Co851 Co 0.18437 0.77974 0.68657 0.0
C852 C 0.12431 0.78227 0.6168 0.0
O853 O 0.09416 0.75941 0.64522 0.0
O854 O 0.16192 0.79427 0.62814 0.0
C855 C 0.01709 0.73658 0.74686 0.0
O856 O 0.03698 0.7767 0.73788 0.0
C857 C 0.27142 0.84522 0.66867 0.0
C858 C 0.3046 0.81028 0.67947 0.0
C859 C 0.31067 0.84916 0.6676 0.0
N860 N 0.24349 0.80576 0.68045 0.0
N861 N 0.26355 0.78504 0.68664 0.0
C862 C 0.26056 0.87846 0.66019 0.0
H863 H 0.22693 0.86637 0.66665 0.0
H864 H 0.27902 0.90502 0.68527 0.0
H865 H 0.26858 0.89003 0.62186 0.0
C866 C 0.12212 0.78613 0.80165 0.0
N867 N 0.12809 0.77566 0.75625 0.0
N868 N 0.16783 0.79566 0.74577 0.0
C869 C 0.18867 0.82066 0.78391 0.0
C870 C 0.15986 0.8188 0.81915 0.0
C871 C 0.08702 0.75508 0.833 0.0
H872 H 0.07593 0.72316 0.81896 0.0
H873 H 0.06035 0.76049 0.83165 0.0
H874 H 0.09715 0.75628 0.87162 0.0
O875 O 0.09727 0.6872 0.70511 0.0
O876 O 0.16391 0.71865 0.68467 0.0
H877 H 0.24018 0.83481 0.83233 0.0
H878 H 0.25368 0.86456 0.77497 0.0
C879 C 0.23343 0.83399 0.79254 0.0
H880 H 0.24083 0.81135 0.77554 0.0
H881 H 0.24922 0.75361 0.69597 0.0
O882 O 0.03375 0.71481 0.73699 0.0
C883 C 0.12933 0.68566 0.69246 0.0
Co884 Co 0.25924 0.35325 0.71162 0.0
Co885 Co 0.21523 0.40362 0.68656 0.0
C886 C 0.2127 0.34103 0.6168 0.0
O887 O 0.23556 0.33373 0.64521 0.0
O888 O 0.2007 0.36664 0.62813 0.0
C889 C 0.25838 0.27949 0.74686 0.0
O890 O 0.21827 0.25927 0.73788 0.0
C891 C 0.14975 0.42519 0.66867 0.0
C892 C 0.1847 0.49331 0.67947 0.0
C893 C 0.14581 0.46051 0.66759 0.0
N894 N 0.18921 0.43672 0.68045 0.0
N895 N 0.20994 0.4775 0.68664 0.0
C896 C 0.11651 0.38109 0.66018 0.0
H897 H 0.12859 0.35955 0.66664 0.0
H898 H 0.08995 0.37299 0.68526 0.0
H899 H 0.10494 0.37755 0.62185 0.0
C900 C 0.20883 0.33498 0.80165 0.0
N901 N 0.2193 0.35141 0.75625 0.0
N902 N 0.1993 0.37115 0.74577 0.0
C903 C 0.17431 0.367 0.78391 0.0
C904 C 0.17617 0.34005 0.81915 0.0
C905 C 0.23989 0.33093 0.83299 0.0
H906 H 0.2718 0.35176 0.81895 0.0
H907 H 0.23448 0.29885 0.83164 0.0
H908 H 0.23869 0.33986 0.87162 0.0
O909 O 0.30777 0.40906 0.70511 0.0
O910 O 0.27632 0.44425 0.68467 0.0
H911 H 0.16017 0.40437 0.83233 0.0
H912 H 0.13041 0.38812 0.77497 0.0
C913 C 0.16098 0.39844 0.79254 0.0
H914 H 0.18362 0.42847 0.77553 0.0
H915 H 0.24137 0.4946 0.69597 0.0
O916 O 0.28016 0.31793 0.73699 0.0
C917 C 0.30931 0.44266 0.69246 0.0
Co918 Co 0.57065 0.97605 0.14014 0.0
Co919 Co 0.47626 0.92568 0.16519 0.0
C920 C 0.53632 0.98827 0.23496 0.0
O921 O 0.56648 0.99557 0.20654 0.0
O922 O 0.49871 0.96266 0.22362 0.0
C923 C 0.64354 0.04981 0.10489 0.0
O924 O 0.62365 0.07003 0.11387 0.0
C925 C 0.38921 0.90412 0.18309 0.0
C926 C 0.35603 0.83599 0.17229 0.0
C927 C 0.34996 0.8688 0.18416 0.0
N928 N 0.41714 0.89258 0.17131 0.0
N929 N 0.39708 0.8518 0.16512 0.0
C930 C 0.40007 0.94821 0.19157 0.0
H931 H 0.43371 0.96976 0.18512 0.0
H932 H 0.38161 0.95631 0.16649 0.0
H933 H 0.39205 0.95176 0.2299 0.0
C934 C 0.5385 0.99432 0.0501 0.0
N935 N 0.53254 0.97789 0.09551 0.0
N936 N 0.4928 0.95815 0.10599 0.0
C937 C 0.47196 0.9623 0.06785 0.0
C938 C 0.50077 0.98925 0.03261 0.0
C939 C 0.57361 -0.00162 0.01876 0.0
H940 H 0.5847 0.97755 0.03279 0.0
H941 H 0.60028 0.03045 0.02011 0.0
H942 H 0.56348 0.98945 0.98013 0.0
O943 O 0.56336 0.92024 0.14665 0.0
O944 O 0.49672 0.88505 0.16709 0.0
H945 H 0.42044 0.92493 0.01943 0.0
H946 H 0.40695 0.94118 0.07679 0.0
C947 C 0.4272 0.93086 0.05922 0.0
H948 H 0.4198 0.90083 0.07622 0.0
H949 H 0.41141 0.8347 0.15579 0.0
O950 O 0.62688 0.01137 0.11476 0.0
C951 C 0.5313 0.88664 0.1593 0.0
Co952 Co 0.01891 0.59358 0.14014 0.0
Co953 Co 0.06928 0.54957 0.1652 0.0
C954 C 0.00669 0.54704 0.23496 0.0
O955 O -0.00061 0.56989 0.20655 0.0
O956 O 0.0323 0.53504 0.22363 0.0
C957 C 0.94515 0.59272 0.10489 0.0
O958 O 0.92493 0.5526 0.11387 0.0
C959 C 0.09085 0.48409 0.1831 0.0
C960 C 0.15897 0.51904 0.1723 0.0
C961 C 0.12617 0.48016 0.18417 0.0
N962 N 0.10239 0.52355 0.17131 0.0
N963 N 0.14317 0.54428 0.16513 0.0
C964 C 0.04675 0.45085 0.19158 0.0
H965 H 0.02521 0.46294 0.18512 0.0
H966 H 0.03865 0.42429 0.1665 0.0
H967 H 0.04321 0.43928 0.22991 0.0
C968 C 0.00064 0.54317 0.05011 0.0
N969 N 0.01708 0.55364 0.09551 0.0
N970 N 0.03682 0.53364 0.10599 0.0
C971 C 0.03266 0.50865 0.06786 0.0
C972 C 0.00571 0.5105 0.03261 0.0
C973 C 0.99659 0.57422 0.01877 0.0
H974 H 0.01742 0.60614 0.0328 0.0
H975 H 0.96452 0.56881 0.02011 0.0
H976 H 0.00553 0.57303 0.98014 0.0
O977 O 0.07472 0.64211 0.14666 0.0
O978 O 0.10991 0.61066 0.16709 0.0
H979 H 0.07004 0.49451 0.01944 0.0
H980 H 0.05378 0.46475 0.07679 0.0
C981 C 0.0641 0.49532 0.05923 0.0
H982 H 0.09413 0.51796 0.07623 0.0
H983 H 0.16027 0.57571 0.1558 0.0
O984 O 0.98359 0.61449 0.11477 0.0
C985 C 0.10832 0.64365 0.15931 0.0
Co986 Co 0.40139 0.42432 0.14014 0.0
Co987 Co 0.44541 0.51871 0.1652 0.0
C988 C 0.44793 0.45865 0.23496 0.0
O989 O 0.42507 0.42849 0.20654 0.0
O990 O 0.45993 0.49626 0.22363 0.0
C991 C 0.40225 0.35143 0.1049 0.0
O992 O 0.44236 0.37133 0.11387 0.0
C993 C 0.51088 0.60576 0.18309 0.0
C994 C 0.47594 0.63893 0.1723 0.0
C995 C 0.51482 0.64501 0.18417 0.0
N996 N 0.47142 0.57783 0.17132 0.0
N997 N 0.45069 0.59788 0.16513 0.0
C998 C 0.54413 0.5949 0.19158 0.0
H999 H 0.53204 0.56127 0.18512 0.0
H1000 H 0.57068 0.61336 0.16649 0.0
H1001 H 0.55569 0.60292 0.2299 0.0
C1002 C 0.4518 0.45647 0.05011 0.0
N1003 N 0.44133 0.46243 0.09551 0.0
N1004 N 0.46133 0.50217 0.10599 0.0
C1005 C 0.48632 0.52301 0.06786 0.0
C1006 C 0.48447 0.4942 0.03261 0.0
C1007 C 0.42075 0.42136 0.01876 0.0
H1008 H 0.38883 0.41028 0.0328 0.0
H1009 H 0.42615 0.39469 0.02011 0.0
H1010 H 0.42194 0.43149 0.98014 0.0
O1011 O 0.35286 0.43161 0.14666 0.0
O1012 O 0.38431 0.49824 0.1671 0.0
H1013 H 0.50047 0.57453 0.01944 0.0
H1014 H 0.53022 0.58802 0.07679 0.0
C1015 C 0.49965 0.56777 0.05923 0.0
H1016 H 0.47701 0.57517 0.07623 0.0
H1017 H 0.41926 0.58355 0.1558 0.0
O1018 O 0.38047 0.36809 0.11477 0.0
C1019 C 0.35132 0.46367 0.15931 0.0
Co1020 Co 0.01891 0.42432 0.64013 0.0
Co1021 Co 0.06929 0.51871 0.66519 0.0
C1022 C 0.0067 0.45865 0.73496 0.0
O1023 O -0.0006 0.42849 0.70654 0.0
O1024 O 0.03231 0.49625 0.72362 0.0
C1025 C 0.94516 0.35143 0.60489 0.0
O1026 O 0.92493 0.37132 0.61387 0.0
C1027 C 0.09085 0.60576 0.68306 0.0
C1028 C 0.15898 0.63893 0.67229 0.0
C1029 C 0.12617 0.64501 0.68412 0.0
N1030 N 0.10239 0.57783 0.67131 0.0
N1031 N 0.14317 0.59788 0.66513 0.0
C1032 C 0.04675 0.5949 0.69154 0.0
H1033 H 0.02521 0.56126 0.68508 0.0
H1034 H 0.03865 0.61336 0.66646 0.0
H1035 H 0.0432 0.60292 0.72987 0.0
C1036 C 0.00064 0.45647 0.55011 0.0
N1037 N 0.01708 0.46243 0.59551 0.0
N1038 N 0.03682 0.50217 0.60599 0.0
C1039 C 0.03266 0.52301 0.56785 0.0
C1040 C 0.00571 0.4942 0.53261 0.0
C1041 C 0.99659 0.42136 0.51876 0.0
H1042 H 0.01742 0.41028 0.53279 0.0
H1043 H 0.96451 0.39469 0.52011 0.0
H1044 H 0.00552 0.43149 0.48014 0.0
O1045 O 0.07472 0.43161 0.64664 0.0
O1046 O 0.10992 0.49824 0.66708 0.0
H1047 H 0.07004 0.57452 0.51943 0.0
H1048 H 0.05379 0.58802 0.57679 0.0
C1049 C 0.0641 0.56777 0.55922 0.0
H1050 H 0.09414 0.57516 0.57622 0.0
H1051 H 0.16027 0.58355 0.65583 0.0
O1052 O 0.98359 0.36809 0.61476 0.0
C1053 C 0.10833 0.46367 0.65928 0.0
Co1054 Co 0.57065 0.59358 0.64014 0.0
Co1055 Co 0.47626 0.54957 0.6652 0.0
C1056 C 0.53632 0.54704 0.73496 0.0
O1057 O 0.56648 0.5699 0.70654 0.0
O1058 O 0.49872 0.53504 0.72363 0.0
C1059 C 0.64354 0.59272 0.6049 0.0
O1060 O 0.62364 0.55261 0.61387 0.0
C1061 C 0.38921 0.48408 0.68307 0.0
C1062 C 0.35604 0.51903 0.67229 0.0
C1063 C 0.34996 0.48014 0.68412 0.0
N1064 N 0.41714 0.52355 0.67131 0.0
N1065 N 0.39709 0.54428 0.66514 0.0
C1066 C 0.40007 0.45084 0.69154 0.0
H1067 H 0.4337 0.46293 0.68508 0.0
H1068 H 0.38161 0.42429 0.66646 0.0
H1069 H 0.39205 0.43927 0.72987 0.0
C1070 C 0.5385 0.54317 0.55011 0.0
N1071 N 0.53254 0.55364 0.59551 0.0
N1072 N 0.4928 0.53364 0.60599 0.0
C1073 C 0.47196 0.50865 0.56786 0.0
C1074 C 0.50077 0.5105 0.53261 0.0
C1075 C 0.57361 0.57422 0.51876 0.0
H1076 H 0.58469 0.60614 0.5328 0.0
H1077 H 0.60028 0.56882 0.52011 0.0
H1078 H 0.56348 0.57303 0.48014 0.0
O1079 O 0.56336 0.64211 0.64664 0.0
O1080 O 0.49672 0.61066 0.66708 0.0
H1081 H 0.42045 0.4945 0.51943 0.0
H1082 H 0.40695 0.46475 0.57679 0.0
C1083 C 0.4272 0.49532 0.55922 0.0
H1084 H 0.4198 0.51796 0.57623 0.0
H1085 H 0.41142 0.57571 0.65583 0.0
O1086 O 0.62688 0.61449 0.61477 0.0
C1087 C 0.5313 0.64365 0.65929 0.0
Co1088 Co 0.40139 0.97606 0.64014 0.0
Co1089 Co 0.4454 0.92569 0.6652 0.0
C1090 C 0.44793 0.98828 0.73496 0.0
O1091 O 0.42507 0.99558 0.70655 0.0
O1092 O 0.45993 0.96267 0.72363 0.0
C1093 C 0.40226 0.04982 0.6049 0.0
O1094 O 0.44237 0.07004 0.61387 0.0
C1095 C 0.51089 0.90412 0.68307 0.0
C1096 C 0.47593 0.836 0.67229 0.0
C1097 C 0.51482 0.86881 0.68413 0.0
N1098 N 0.47142 0.89259 0.67131 0.0
N1099 N 0.45069 0.8518 0.66514 0.0
C1100 C 0.54413 0.94822 0.69155 0.0
H1101 H 0.53204 0.96977 0.68509 0.0
H1102 H 0.57069 0.95632 0.66646 0.0
H1103 H 0.5557 0.95177 0.72987 0.0
C1104 C 0.4518 0.99433 0.55011 0.0
N1105 N 0.44133 0.9779 0.59551 0.0
N1106 N 0.46133 0.95816 0.606 0.0
C1107 C 0.48632 0.96231 0.56786 0.0
C1108 C 0.48447 0.98926 0.53261 0.0
C1109 C 0.42075 -0.00162 0.51877 0.0
H1110 H 0.38883 0.97754 0.53281 0.0
H1111 H 0.42615 0.03045 0.52011 0.0
H1112 H 0.42194 0.98944 0.48014 0.0
O1113 O 0.35286 0.92025 0.64664 0.0
O1114 O 0.38431 0.88506 0.66708 0.0
H1115 H 0.50046 0.92494 0.51943 0.0
H1116 H 0.53022 0.94119 0.57679 0.0
C1117 C 0.49965 0.93087 0.55922 0.0
H1118 H 0.47701 0.90084 0.57623 0.0
H1119 H 0.41925 0.83471 0.65583 0.0
O1120 O 0.38048 0.01138 0.61477 0.0
C1121 C 0.35132 0.88665 0.65929 0.0
Co1122 Co 0.08998 0.35325 0.21163 0.0
Co1123 Co 0.18437 0.40363 0.18657 0.0
C1124 C 0.12431 0.34104 0.1168 0.0
O1125 O 0.09415 0.33374 0.14522 0.0
O1126 O 0.16192 0.36665 0.12814 0.0
C1127 C 0.01709 0.2795 0.24686 0.0
O1128 O 0.03698 0.25928 0.23788 0.0
C1129 C 0.27142 0.42519 0.1687 0.0
C1130 C 0.3046 0.49331 0.17948 0.0
C1131 C 0.31067 0.4605 0.16765 0.0
N1132 N 0.24349 0.43673 0.18046 0.0
N1133 N 0.26355 0.47751 0.18664 0.0
C1134 C 0.26056 0.38109 0.16022 0.0
H1135 H 0.22692 0.35955 0.16668 0.0
H1136 H 0.27902 0.37299 0.18531 0.0
H1137 H 0.26857 0.37754 0.1219 0.0
C1138 C 0.12212 0.33498 0.30166 0.0
N1139 N 0.12809 0.35142 0.25626 0.0
N1140 N 0.16783 0.37116 0.24577 0.0
C1141 C 0.18866 0.367 0.28391 0.0
C1142 C 0.15986 0.34005 0.31915 0.0
C1143 C 0.08702 0.33092 0.333 0.0
H1144 H 0.07593 0.35176 0.31896 0.0
H1145 H 0.06035 0.29885 0.33165 0.0
H1146 H 0.09714 0.33986 0.37162 0.0
O1147 O 0.09727 0.40907 0.20513 0.0
O1148 O 0.16391 0.44426 0.18469 0.0
H1149 H 0.24018 0.40437 0.33234 0.0
H1150 H 0.25368 0.38812 0.27498 0.0
C1151 C 0.23343 0.39844 0.29255 0.0
H1152 H 0.24082 0.42847 0.27555 0.0
H1153 H 0.24921 0.49461 0.19594 0.0
O1154 O 0.03375 0.31793 0.23699 0.0
C1155 C 0.12933 0.44267 0.19248 0.0
Co1156 Co 0.64172 0.73573 0.21162 0.0
Co1157 Co 0.59135 0.77974 0.18657 0.0
C1158 C 0.65394 0.78227 0.1168 0.0
O1159 O 0.66124 0.75941 0.14521 0.0
O1160 O 0.62833 0.79427 0.12813 0.0
C1161 C 0.71548 0.73659 0.24686 0.0
O1162 O 0.7357 0.7767 0.23788 0.0
C1163 C 0.56978 0.84522 0.16869 0.0
C1164 C 0.50166 0.81027 0.17948 0.0
C1165 C 0.53447 0.84916 0.16764 0.0
N1166 N 0.55824 0.80576 0.18046 0.0
N1167 N 0.51746 0.78503 0.18663 0.0
C1168 C 0.61388 0.87847 0.16021 0.0
H1169 H 0.63543 0.86638 0.16667 0.0
H1170 H 0.62198 0.90502 0.1853 0.0
H1171 H 0.61743 0.89003 0.12189 0.0
C1172 C 0.65999 0.78614 0.30165 0.0
N1173 N 0.64356 0.77567 0.25625 0.0
N1174 N 0.62382 0.79567 0.24577 0.0
C1175 C 0.62797 0.82066 0.28391 0.0
C1176 C 0.65492 0.81881 0.31915 0.0
C1177 C 0.66405 0.75509 0.33299 0.0
H1178 H 0.64321 0.72317 0.31895 0.0
H1179 H 0.69612 0.76049 0.33165 0.0
H1180 H 0.65511 0.75628 0.37162 0.0
O1181 O 0.58591 0.6872 0.20512 0.0
O1182 O 0.55072 0.71865 0.18468 0.0
H1183 H 0.5906 0.8348 0.33233 0.0
H1184 H 0.60685 0.86455 0.27498 0.0
C1185 C 0.59653 0.83398 0.29254 0.0
H1186 H 0.5665 0.81134 0.27554 0.0
H1187 H 0.50036 0.75359 0.19594 0.0
O1188 O 0.67704 0.71482 0.23699 0.0
C1189 C 0.55231 0.68566 0.19248 0.0
Co1190 Co 0.25924 0.90499 0.21162 0.0
Co1191 Co 0.21523 0.8106 0.18657 0.0
C1192 C 0.2127 0.87066 0.1168 0.0
O1193 O 0.23556 0.90082 0.14522 0.0
O1194 O 0.2007 0.83305 0.12813 0.0
C1195 C 0.25838 0.97788 0.24686 0.0
O1196 O 0.21827 0.95799 0.23788 0.0
C1197 C 0.14974 0.72355 0.1687 0.0
C1198 C 0.18469 0.69038 0.17948 0.0
C1199 C 0.1458 0.6843 0.16764 0.0
N1200 N 0.18921 0.75148 0.18046 0.0
N1201 N 0.20994 0.73143 0.18663 0.0
C1202 C 0.1165 0.7344 0.16022 0.0
H1203 H 0.12859 0.76804 0.16668 0.0
H1204 H 0.08994 0.71595 0.1853 0.0
H1205 H 0.10493 0.72639 0.12189 0.0
C1206 C 0.20883 0.87285 0.30165 0.0
N1207 N 0.2193 0.86688 0.25625 0.0
N1208 N 0.1993 0.82714 0.24577 0.0
C1209 C 0.17431 0.80631 0.28391 0.0
C1210 C 0.17616 0.83511 0.31915 0.0
C1211 C 0.23988 0.90795 0.33299 0.0
H1212 H 0.2718 0.91904 0.31895 0.0
H1213 H 0.23448 0.93462 0.33165 0.0
H1214 H 0.23869 0.89782 0.37162 0.0
O1215 O 0.30777 0.8977 0.20512 0.0
O1216 O 0.27632 0.83106 0.18468 0.0
H1217 H 0.16017 0.75479 0.33233 0.0
H1218 H 0.13041 0.74129 0.27498 0.0
C1219 C 0.16099 0.76154 0.29254 0.0
H1220 H 0.18362 0.75415 0.27554 0.0
H1221 H 0.24137 0.74576 0.19594 0.0
O1222 O 0.28016 0.96122 0.23699 0.0
C1223 C 0.30931 0.86564 0.19247 0.0
loop_
_geom_bond_atom_site_label_1
_geom_bond_atom_site_label_2
_geom_bond_distance
_geom_bond_site_symmetry_2
_ccdc_geom_bond_type
Co0 O3 1.970 1_554 S
Co0 N17 1.989 . S
Co0 O25 1.967 . S
Co0 O32 1.920 . S
Co1 O4 1.966 1_554 S
Co1 N10 2.022 . S
Co1 N18 1.993 . S
Co1 O26 1.941 . S
C2 O3 1.258 . S
C2 O4 1.263 . S
O3 Co0 1.970 1_556 S
O3 C2 1.258 . S
O4 Co1 1.966 1_556 S
O4 C2 1.263 . S
C5 O6 1.235 . S
C5 O32 1.289 . S
O6 C5 1.235 . S
C7 C9 1.406 . S
C7 N10 1.351 1_556 S
C7 C12 1.501 . S
C8 C9 1.375 1_554 S
C8 N11 1.341 . S
C9 C7 1.406 . S
C9 C8 1.375 1_556 S
N10 Co1 2.022 . S
N10 C7 1.351 1_554 S
N10 N11 1.365 . S
N11 C8 1.341 . S
N11 N10 1.365 . S
N11 H31 0.862 . S
C12 C7 1.501 . S
C12 H13 0.961 . S
C12 H14 0.961 . S
C12 H15 0.960 . S
H13 C12 0.961 . S
H14 C12 0.961 . S
H15 C12 0.960 . S
C16 N17 1.342 . S
C16 C20 1.401 . S
C16 C21 1.499 . S
N17 Co0 1.989 . S
N17 C16 1.342 . S
N17 N18 1.388 . S
N18 Co1 1.993 . S
N18 N17 1.388 . S
N18 C19 1.346 . S
C19 N18 1.346 . S
C19 C20 1.396 . S
C19 C29 1.510 . S
C20 C16 1.401 . S
C20 C19 1.396 . S
C21 C16 1.499 . S
C21 H22 0.959 . S
C21 H23 0.960 . S
C21 H24 0.961 . S
H22 C21 0.959 . S
H23 C21 0.960 . S
H24 C21 0.961 . S
O25 Co0 1.967 . S
O25 C33 1.258 . S
O26 Co1 1.941 . S
O26 C33 1.266 . S
H27 C29 0.959 . S
H28 C29 0.961 . S
C29 C19 1.510 . S
C29 H27 0.959 . S
C29 H28 0.961 . S
C29 H30 0.960 . S
H30 C29 0.960 . S
H31 N11 0.862 . S
O32 Co0 1.920 . S
O32 C5 1.289 . S
C33 O25 1.258 . S
C33 O26 1.266 . S
Co34 O37 1.970 1_554 S
Co34 N51 1.989 . S
Co34 O59 1.967 . S
Co34 O66 1.920 . S
Co35 O38 1.966 1_554 S
Co35 N44 2.022 . S
Co35 N52 1.993 . S
Co35 O60 1.941 . S
C36 O37 1.258 . S
C36 O38 1.263 . S
O37 Co34 1.970 1_556 S
O37 C36 1.258 . S
O38 Co35 1.966 1_556 S
O38 C36 1.263 . S
C39 O40 1.235 . S
C39 O66 1.289 . S
O40 C39 1.235 . S
C41 C43 1.406 . S
C41 N44 1.351 1_556 S
C41 C46 1.501 . S
C42 C43 1.375 1_554 S
C42 N45 1.341 . S
C43 C41 1.406 . S
C43 C42 1.375 1_556 S
N44 Co35 2.022 . S
N44 C41 1.351 1_554 S
N44 N45 1.365 . S
N45 C42 1.341 . S
N45 N44 1.365 . S
N45 H65 0.862 . S
C46 C41 1.501 . S
C46 H47 0.961 . S
C46 H48 0.961 . S
C46 H49 0.960 . S
H47 C46 0.961 . S
H48 C46 0.961 . S
H49 C46 0.960 . S
C50 N51 1.342 . S
C50 C54 1.401 . S
C50 C55 1.499 . S
N51 Co34 1.989 . S
N51 C50 1.342 . S
N51 N52 1.388 . S
N52 Co35 1.993 . S
N52 N51 1.388 . S
N52 C53 1.346 . S
C53 N52 1.346 . S
C53 C54 1.396 . S
C53 C63 1.510 . S
C54 C50 1.401 . S
C54 C53 1.396 . S
C55 C50 1.499 . S
C55 H56 0.959 . S
C55 H57 0.960 . S
C55 H58 0.961 . S
H56 C55 0.959 . S
H57 C55 0.960 . S
H58 C55 0.961 . S
O59 Co34 1.967 . S
O59 C67 1.258 . S
O60 Co35 1.941 . S
O60 C67 1.266 . S
H61 C63 0.959 . S
H62 C63 0.961 . S
C63 C53 1.510 . S
C63 H61 0.959 . S
C63 H62 0.961 . S
C63 H64 0.960 . S
H64 C63 0.960 . S
H65 N45 0.862 . S
O66 Co34 1.920 . S
O66 C39 1.289 . S
C67 O59 1.258 . S
C67 O60 1.266 . S
Co68 O71 1.970 1_554 S
Co68 N85 1.989 . S
Co68 O93 1.967 . S
Co68 O100 1.920 . S
Co69 O72 1.966 1_554 S
Co69 N78 2.022 . S
Co69 N86 1.993 . S
Co69 O94 1.941 . S
C70 O71 1.258 . S
C70 O72 1.263 . S
O71 Co68 1.970 1_556 S
O71 C70 1.258 . S
O72 Co69 1.966 1_556 S
O72 C70 1.263 . S
C73 O74 1.235 . S
C73 O100 1.289 . S
O74 C73 1.235 . S
C75 C77 1.406 . S
C75 N78 1.351 1_556 S
C75 C80 1.501 . S
C76 C77 1.376 1_554 S
C76 N79 1.341 . S
C77 C75 1.406 . S
C77 C76 1.376 1_556 S
N78 Co69 2.022 . S
N78 C75 1.351 1_554 S
N78 N79 1.365 . S
N79 C76 1.341 . S
N79 N78 1.365 . S
N79 H99 0.862 . S
C80 C75 1.501 . S
C80 H81 0.961 . S
C80 H82 0.961 . S
C80 H83 0.960 . S
H81 C80 0.961 . S
H82 C80 0.961 . S
H83 C80 0.960 . S
C84 N85 1.342 . S
C84 C88 1.401 . S
C84 C89 1.499 . S
N85 Co68 1.989 . S
N85 C84 1.342 . S
N85 N86 1.388 . S
N86 Co69 1.993 . S
N86 N85 1.388 . S
N86 C87 1.346 . S
C87 N86 1.346 . S
C87 C88 1.396 . S
C87 C97 1.510 . S
C88 C84 1.401 . S
C88 C87 1.396 . S
C89 C84 1.499 . S
C89 H90 0.959 . S
C89 H91 0.960 . S
C89 H92 0.961 . S
H90 C89 0.959 . S
H91 C89 0.960 . S
H92 C89 0.961 . S
O93 Co68 1.967 . S
O93 C101 1.258 . S
O94 Co69 1.941 . S
O94 C101 1.266 . S
H95 C97 0.959 . S
H96 C97 0.961 . S
C97 C87 1.510 . S
C97 H95 0.959 . S
C97 H96 0.961 . S
C97 H98 0.960 . S
H98 C97 0.960 . S
H99 N79 0.862 . S
O100 Co68 1.920 . S
O100 C73 1.289 . S
C101 O93 1.258 . S
C101 O94 1.266 . S
Co102 O105 1.970 . S
Co102 N119 1.989 . S
Co102 O127 1.967 . S
Co102 O134 1.920 . S
Co103 O106 1.966 . S
Co103 N112 2.022 . S
Co103 N120 1.993 . S
Co103 O128 1.941 . S
C104 O105 1.258 . S
C104 O106 1.263 . S
O105 Co102 1.970 . S
O105 C104 1.258 . S
O106 Co103 1.966 . S
O106 C104 1.263 . S
C107 O108 1.235 . S
C107 O134 1.289 . S
O108 C107 1.235 . S
C109 C111 1.400 . S
C109 N112 1.351 . S
C109 C114 1.501 . S
C110 C111 1.387 . S
C110 N113 1.341 . S
C111 C109 1.400 . S
C111 C110 1.387 . S
N112 Co103 2.022 . S
N112 C109 1.351 . S
N112 N113 1.365 . S
N113 C110 1.341 . S
N113 N112 1.365 . S
N113 H133 0.862 . S
C114 C109 1.501 . S
C114 H115 0.961 . S
C114 H116 0.961 . S
C114 H117 0.960 . S
H115 C114 0.961 . S
H116 C114 0.961 . S
H117 C114 0.960 . S
C118 N119 1.342 . S
C118 C122 1.401 . S
C118 C123 1.499 . S
N119 Co102 1.989 . S
N119 C118 1.342 . S
N119 N120 1.388 . S
N120 Co103 1.993 . S
N120 N119 1.388 . S
N120 C121 1.346 . S
C121 N120 1.346 . S
C121 C122 1.396 . S
C121 C131 1.510 . S
C122 C118 1.401 . S
C122 C121 1.396 . S
C123 C118 1.499 . S
C123 H124 0.959 . S
C123 H125 0.960 . S
C123 H126 0.961 . S
H124 C123 0.959 . S
H125 C123 0.960 . S
H126 C123 0.961 . S
O127 Co102 1.967 . S
O127 C135 1.258 . S
O128 Co103 1.941 . S
O128 C135 1.266 . S
H129 C131 0.959 . S
H130 C131 0.961 . S
C131 C121 1.510 . S
C131 H129 0.959 . S
C131 H130 0.961 . S
C131 H132 0.960 . S
H132 C131 0.960 . S
H133 N113 0.862 . S
O134 Co102 1.920 . S
O134 C107 1.289 . S
C135 O127 1.258 . S
C135 O128 1.266 . S
Co136 O139 1.970 . S
Co136 N153 1.989 . S
Co136 O161 1.967 . S
Co136 O168 1.920 . S
Co137 O140 1.966 . S
Co137 N146 2.022 . S
Co137 N154 1.993 . S
Co137 O162 1.941 . S
C138 O139 1.258 . S
C138 O140 1.263 . S
O139 Co136 1.970 . S
O139 C138 1.258 . S
O140 Co137 1.966 . S
O140 C138 1.263 . S
C141 O142 1.235 . S
C141 O168 1.289 . S
O142 C141 1.235 . S
C143 C145 1.400 . S
C143 N146 1.351 . S
C143 C148 1.501 . S
C144 C145 1.387 . S
C144 N147 1.341 . S
C145 C143 1.400 . S
C145 C144 1.387 . S
N146 Co137 2.022 . S
N146 C143 1.351 . S
N146 N147 1.365 . S
N147 C144 1.341 . S
N147 N146 1.365 . S
N147 H167 0.862 . S
C148 C143 1.501 . S
C148 H149 0.961 . S
C148 H150 0.961 . S
C148 H151 0.960 . S
H149 C148 0.961 . S
H150 C148 0.961 . S
H151 C148 0.960 . S
C152 N153 1.342 . S
C152 C156 1.401 . S
C152 C157 1.499 . S
N153 Co136 1.989 . S
N153 C152 1.342 . S
N153 N154 1.388 . S
N154 Co137 1.993 . S
N154 N153 1.388 . S
N154 C155 1.346 . S
C155 N154 1.346 . S
C155 C156 1.396 . S
C155 C165 1.510 . S
C156 C152 1.401 . S
C156 C155 1.396 . S
C157 C152 1.499 . S
C157 H158 0.959 . S
C157 H159 0.960 . S
C157 H160 0.961 . S
H158 C157 0.959 . S
H159 C157 0.960 . S
H160 C157 0.961 . S
O161 Co136 1.967 . S
O161 C169 1.258 . S
O162 Co137 1.941 . S
O162 C169 1.266 . S
H163 C165 0.959 . S
H164 C165 0.961 . S
C165 C155 1.510 . S
C165 H163 0.959 . S
C165 H164 0.961 . S
C165 H166 0.960 . S
H166 C165 0.960 . S
H167 N147 0.862 . S
O168 Co136 1.920 . S
O168 C141 1.289 . S
C169 O161 1.258 . S
C169 O162 1.266 . S
Co170 O173 1.970 . S
Co170 N187 1.989 . S
Co170 O195 1.967 . S
Co170 O202 1.920 . S
Co171 O174 1.966 . S
Co171 N180 2.022 . S
Co171 N188 1.993 . S
Co171 O196 1.941 . S
C172 O173 1.258 . S
C172 O174 1.263 . S
O173 Co170 1.970 . S
O173 C172 1.258 . S
O174 Co171 1.966 . S
O174 C172 1.263 . S
C175 O176 1.235 . S
C175 O202 1.289 . S
O176 C175 1.235 . S
C177 C179 1.400 . S
C177 N180 1.351 . S
C177 C182 1.501 . S
C178 C179 1.387 . S
C178 N181 1.341 . S
C179 C177 1.400 . S
C179 C178 1.387 . S
N180 Co171 2.022 . S
N180 C177 1.351 . S
N180 N181 1.365 . S
N181 C178 1.341 . S
N181 N180 1.365 . S
N181 H201 0.862 . S
C182 C177 1.501 . S
C182 H183 0.961 . S
C182 H184 0.961 . S
C182 H185 0.960 . S
H183 C182 0.961 . S
H184 C182 0.961 . S
H185 C182 0.960 . S
C186 N187 1.342 . S
C186 C190 1.401 . S
C186 C191 1.499 . S
N187 Co170 1.989 . S
N187 C186 1.342 . S
N187 N188 1.388 . S
N188 Co171 1.993 . S
N188 N187 1.388 . S
N188 C189 1.346 . S
C189 N188 1.346 . S
C189 C190 1.396 . S
C189 C199 1.510 . S
C190 C186 1.401 . S
C190 C189 1.396 . S
C191 C186 1.499 . S
C191 H192 0.959 . S
C191 H193 0.960 . S
C191 H194 0.961 . S
H192 C191 0.959 . S
H193 C191 0.960 . S
H194 C191 0.961 . S
O195 Co170 1.967 . S
O195 C203 1.258 . S
O196 Co171 1.941 . S
O196 C203 1.266 . S
H197 C199 0.959 . S
H198 C199 0.961 . S
C199 C189 1.510 . S
C199 H197 0.959 . S
C199 H198 0.961 . S
C199 H200 0.960 . S
H200 C199 0.960 . S
H201 N181 0.862 . S
O202 Co170 1.920 . S
O202 C175 1.289 . S
C203 O195 1.258 . S
C203 O196 1.266 . S
Co204 O207 1.970 1_556 S
Co204 N221 1.989 . S
Co204 O229 1.967 . S
Co204 O236 1.920 . S
Co205 O208 1.966 1_556 S
Co205 N214 2.022 . S
Co205 N222 1.993 . S
Co205 O230 1.941 . S
C206 O207 1.258 . S
C206 O208 1.263 . S
O207 Co204 1.970 1_554 S
O207 C206 1.258 . S
O208 Co205 1.966 1_554 S
O208 C206 1.263 . S
C209 O210 1.235 . S
C209 O236 1.289 . S
O210 C209 1.235 . S
C211 C213 1.406 . S
C211 N214 1.351 1_554 S
C211 C216 1.501 . S
C212 C213 1.375 1_556 S
C212 N215 1.341 . S
C213 C211 1.406 . S
C213 C212 1.375 1_554 S
N214 Co205 2.022 . S
N214 C211 1.351 1_556 S
N214 N215 1.365 . S
N215 C212 1.341 . S
N215 N214 1.365 . S
N215 H235 0.862 . S
C216 C211 1.501 . S
C216 H217 0.961 . S
C216 H218 0.961 . S
C216 H219 0.960 . S
H217 C216 0.961 . S
H218 C216 0.961 . S
H219 C216 0.960 . S
C220 N221 1.342 . S
C220 C224 1.401 . S
C220 C225 1.499 . S
N221 Co204 1.989 . S
N221 C220 1.342 . S
N221 N222 1.388 . S
N222 Co205 1.993 . S
N222 N221 1.388 . S
N222 C223 1.346 . S
C223 N222 1.346 . S
C223 C224 1.396 . S
C223 C233 1.510 . S
C224 C220 1.401 . S
C224 C223 1.396 . S
C225 C220 1.499 . S
C225 H226 0.959 . S
C225 H227 0.960 . S
C225 H228 0.961 . S
H226 C225 0.959 . S
H227 C225 0.960 . S
H228 C225 0.961 . S
O229 Co204 1.967 . S
O229 C237 1.258 . S
O230 Co205 1.941 . S
O230 C237 1.266 . S
H231 C233 0.959 . S
H232 C233 0.961 . S
C233 C223 1.510 . S
C233 H231 0.959 . S
C233 H232 0.961 . S
C233 H234 0.960 . S
H234 C233 0.960 . S
H235 N215 0.862 . S
O236 Co204 1.920 . S
O236 C209 1.289 . S
C237 O229 1.258 . S
C237 O230 1.266 . S
Co238 O241 1.970 1_556 S
Co238 N255 1.989 . S
Co238 O263 1.967 . S
Co238 O270 1.920 . S
Co239 O242 1.966 1_556 S
Co239 N248 2.022 . S
Co239 N256 1.993 . S
Co239 O264 1.941 . S
C240 O241 1.258 . S
C240 O242 1.263 . S
O241 Co238 1.970 1_554 S
O241 C240 1.258 . S
O242 Co239 1.966 1_554 S
O242 C240 1.263 . S
C243 O244 1.235 . S
C243 O270 1.289 . S
O244 C243 1.235 . S
C245 C247 1.406 . S
C245 N248 1.351 1_554 S
C245 C250 1.501 . S
C246 C247 1.375 1_556 S
C246 N249 1.341 . S
C247 C245 1.406 . S
C247 C246 1.375 1_554 S
N248 Co239 2.022 . S
N248 C245 1.351 1_556 S
N248 N249 1.365 . S
N249 C246 1.341 . S
N249 N248 1.365 . S
N249 H269 0.862 . S
C250 C245 1.501 . S
C250 H251 0.961 . S
C250 H252 0.961 . S
C250 H253 0.960 . S
H251 C250 0.961 . S
H252 C250 0.961 . S
H253 C250 0.960 . S
C254 N255 1.342 . S
C254 C258 1.401 . S
C254 C259 1.499 . S
N255 Co238 1.989 . S
N255 C254 1.342 . S
N255 N256 1.388 . S
N256 Co239 1.993 . S
N256 N255 1.388 . S
N256 C257 1.346 . S
C257 N256 1.346 . S
C257 C258 1.396 . S
C257 C267 1.510 . S
C258 C254 1.401 . S
C258 C257 1.396 . S
C259 C254 1.499 . S
C259 H260 0.959 . S
C259 H261 0.960 . S
C259 H262 0.961 . S
H260 C259 0.959 . S
H261 C259 0.960 . S
H262 C259 0.961 . S
O263 Co238 1.967 . S
O263 C271 1.258 . S
O264 Co239 1.941 . S
O264 C271 1.266 . S
H265 C267 0.959 . S
H266 C267 0.961 . S
C267 C257 1.510 . S
C267 H265 0.959 . S
C267 H266 0.961 . S
C267 H268 0.960 . S
H268 C267 0.960 . S
H269 N249 0.862 . S
O270 Co238 1.920 . S
O270 C243 1.289 . S
C271 O263 1.258 . S
C271 O264 1.266 . S
Co272 O275 1.970 1_556 S
Co272 N289 1.989 . S
Co272 O297 1.967 . S
Co272 O304 1.920 . S
Co273 O276 1.966 1_556 S
Co273 N282 2.022 . S
Co273 N290 1.993 . S
Co273 O298 1.941 . S
C274 O275 1.258 . S
C274 O276 1.263 . S
O275 Co272 1.970 1_554 S
O275 C274 1.258 . S
O276 Co273 1.966 1_554 S
O276 C274 1.263 . S
C277 O278 1.235 . S
C277 O304 1.289 . S
O278 C277 1.235 . S
C279 C281 1.406 . S
C279 N282 1.351 1_554 S
C279 C284 1.501 . S
C280 C281 1.376 1_556 S
C280 N283 1.341 . S
C281 C279 1.406 . S
C281 C280 1.376 1_554 S
N282 Co273 2.022 . S
N282 C279 1.351 1_556 S
N282 N283 1.365 . S
N283 C280 1.341 . S
N283 N282 1.365 . S
N283 H303 0.862 . S
C284 C279 1.501 . S
C284 H285 0.961 . S
C284 H286 0.961 . S
C284 H287 0.960 . S
H285 C284 0.961 . S
H286 C284 0.961 . S
H287 C284 0.960 . S
C288 N289 1.342 . S
C288 C292 1.401 . S
C288 C293 1.499 . S
N289 Co272 1.989 . S
N289 C288 1.342 . S
N289 N290 1.388 . S
N290 Co273 1.993 . S
N290 N289 1.388 . S
N290 C291 1.346 . S
C291 N290 1.346 . S
C291 C292 1.396 . S
C291 C301 1.510 . S
C292 C288 1.401 . S
C292 C291 1.396 . S
C293 C288 1.499 . S
C293 H294 0.959 . S
C293 H295 0.960 . S
C293 H296 0.961 . S
H294 C293 0.959 . S
H295 C293 0.960 . S
H296 C293 0.961 . S
O297 Co272 1.967 . S
O297 C305 1.258 . S
O298 Co273 1.941 . S
O298 C305 1.266 . S
H299 C301 0.959 . S
H300 C301 0.961 . S
C301 C291 1.510 . S
C301 H299 0.959 . S
C301 H300 0.961 . S
C301 H302 0.960 . S
H302 C301 0.960 . S
H303 N283 0.862 . S
O304 Co272 1.920 . S
O304 C277 1.289 . S
C305 O297 1.258 . S
C305 O298 1.266 . S
Co306 O309 1.970 . S
Co306 N323 1.989 . S
Co306 O331 1.967 . S
Co306 O338 1.920 . S
Co307 O310 1.966 . S
Co307 N316 2.022 . S
Co307 N324 1.993 . S
Co307 O332 1.941 . S
C308 O309 1.258 . S
C308 O310 1.263 . S
O309 Co306 1.970 . S
O309 C308 1.258 . S
O310 Co307 1.966 . S
O310 C308 1.263 . S
C311 O312 1.235 . S
C311 O338 1.289 . S
O312 C311 1.235 . S
C313 C315 1.400 . S
C313 N316 1.351 . S
C313 C318 1.501 . S
C314 C315 1.387 . S
C314 N317 1.341 . S
C315 C313 1.400 . S
C315 C314 1.387 . S
N316 Co307 2.022 . S
N316 C313 1.351 . S
N316 N317 1.365 . S
N317 C314 1.341 . S
N317 N316 1.365 . S
N317 H337 0.862 . S
C318 C313 1.501 . S
C318 H319 0.961 . S
C318 H320 0.961 . S
C318 H321 0.960 . S
H319 C318 0.961 . S
H320 C318 0.961 . S
H321 C318 0.960 . S
C322 N323 1.342 . S
C322 C326 1.401 . S
C322 C327 1.499 . S
N323 Co306 1.989 . S
N323 C322 1.342 . S
N323 N324 1.388 . S
N324 Co307 1.993 . S
N324 N323 1.388 . S
N324 C325 1.346 . S
C325 N324 1.346 . S
C325 C326 1.396 . S
C325 C335 1.510 . S
C326 C322 1.401 . S
C326 C325 1.396 . S
C327 C322 1.499 . S
C327 H328 0.959 . S
C327 H329 0.960 . S
C327 H330 0.961 . S
H328 C327 0.959 . S
H329 C327 0.960 . S
H330 C327 0.961 . S
O331 Co306 1.967 . S
O331 C339 1.258 . S
O332 Co307 1.941 . S
O332 C339 1.266 . S
H333 C335 0.959 . S
H334 C335 0.961 . S
C335 C325 1.510 . S
C335 H333 0.959 . S
C335 H334 0.961 . S
C335 H336 0.960 . S
H336 C335 0.960 . S
H337 N317 0.862 . S
O338 Co306 1.920 . S
O338 C311 1.289 . S
C339 O331 1.258 . S
C339 O332 1.266 . S
Co340 O343 1.970 . S
Co340 N357 1.989 . S
Co340 O365 1.967 . S
Co340 O372 1.920 . S
Co341 O344 1.966 . S
Co341 N350 2.022 . S
Co341 N358 1.993 . S
Co341 O366 1.941 . S
C342 O343 1.258 . S
C342 O344 1.263 . S
O343 Co340 1.970 . S
O343 C342 1.258 . S
O344 Co341 1.966 . S
O344 C342 1.263 . S
C345 O346 1.235 . S
C345 O372 1.289 . S
O346 C345 1.235 . S
C347 C349 1.400 . S
C347 N350 1.351 . S
C347 C352 1.501 . S
C348 C349 1.387 . S
C348 N351 1.341 . S
C349 C347 1.400 . S
C349 C348 1.387 . S
N350 Co341 2.022 . S
N350 C347 1.351 . S
N350 N351 1.365 . S
N351 C348 1.341 . S
N351 N350 1.365 . S
N351 H371 0.862 . S
C352 C347 1.501 . S
C352 H353 0.961 . S
C352 H354 0.961 . S
C352 H355 0.960 . S
H353 C352 0.961 . S
H354 C352 0.961 . S
H355 C352 0.960 . S
C356 N357 1.342 . S
C356 C360 1.401 . S
C356 C361 1.499 . S
N357 Co340 1.989 . S
N357 C356 1.342 . S
N357 N358 1.388 . S
N358 Co341 1.993 . S
N358 N357 1.388 . S
N358 C359 1.346 . S
C359 N358 1.346 . S
C359 C360 1.396 . S
C359 C369 1.510 . S
C360 C356 1.401 . S
C360 C359 1.396 . S
C361 C356 1.499 . S
C361 H362 0.959 . S
C361 H363 0.960 . S
C361 H364 0.961 . S
H362 C361 0.959 . S
H363 C361 0.960 . S
H364 C361 0.961 . S
O365 Co340 1.967 . S
O365 C373 1.258 . S
O366 Co341 1.941 . S
O366 C373 1.266 . S
H367 C369 0.959 . S
H368 C369 0.961 . S
C369 C359 1.510 . S
C369 H367 0.959 . S
C369 H368 0.961 . S
C369 H370 0.960 . S
H370 C369 0.960 . S
H371 N351 0.862 . S
O372 Co340 1.920 . S
O372 C345 1.289 . S
C373 O365 1.258 . S
C373 O366 1.266 . S
Co374 O377 1.970 . S
Co374 N391 1.989 . S
Co374 O399 1.967 . S
Co374 O406 1.920 . S
Co375 O378 1.966 . S
Co375 N384 2.022 . S
Co375 N392 1.993 . S
Co375 O400 1.941 . S
C376 O377 1.258 . S
C376 O378 1.263 . S
O377 Co374 1.970 . S
O377 C376 1.258 . S
O378 Co375 1.966 . S
O378 C376 1.263 . S
C379 O380 1.235 . S
C379 O406 1.289 . S
O380 C379 1.235 . S
C381 C383 1.400 . S
C381 N384 1.351 . S
C381 C386 1.501 . S
C382 C383 1.387 . S
C382 N385 1.341 . S
C383 C381 1.400 . S
C383 C382 1.387 . S
N384 Co375 2.022 . S
N384 C381 1.351 . S
N384 N385 1.365 . S
N385 C382 1.341 . S
N385 N384 1.365 . S
N385 H405 0.862 . S
C386 C381 1.501 . S
C386 H387 0.961 . S
C386 H388 0.961 . S
C386 H389 0.960 . S
H387 C386 0.961 . S
H388 C386 0.961 . S
H389 C386 0.960 . S
C390 N391 1.342 . S
C390 C394 1.401 . S
C390 C395 1.499 . S
N391 Co374 1.989 . S
N391 C390 1.342 . S
N391 N392 1.388 . S
N392 Co375 1.993 . S
N392 N391 1.388 . S
N392 C393 1.346 . S
C393 N392 1.346 . S
C393 C394 1.396 . S
C393 C403 1.510 . S
C394 C390 1.401 . S
C394 C393 1.396 . S
C395 C390 1.499 . S
C395 H396 0.959 . S
C395 H397 0.960 . S
C395 H398 0.961 . S
H396 C395 0.959 . S
H397 C395 0.960 . S
H398 C395 0.961 . S
O399 Co374 1.967 . S
O399 C407 1.258 . S
O400 Co375 1.941 . S
O400 C407 1.266 . S
H401 C403 0.959 . S
H402 C403 0.961 . S
C403 C393 1.510 . S
C403 H401 0.959 . S
C403 H402 0.961 . S
C403 H404 0.960 . S
H404 C403 0.960 . S
H405 N385 0.862 . S
O406 Co374 1.920 . S
O406 C379 1.289 . S
C407 O399 1.258 . S
C407 O400 1.266 . S
Co408 O411 1.956 1_655 S
Co408 N425 1.989 . S
Co408 O433 1.967 . S
Co408 O440 1.920 1_655 S
Co409 O412 1.966 . S
Co409 N418 2.022 . S
Co409 N426 1.993 . S
Co409 O434 1.941 . S
C410 O411 1.257 1_655 S
C410 O412 1.263 . S
O411 Co408 1.956 1_455 S
O411 C410 1.257 1_455 S
O412 Co409 1.966 . S
O412 C410 1.263 . S
C413 O414 1.235 . S
C413 O440 1.289 . S
O414 C413 1.235 . S
C415 C417 1.400 . S
C415 N418 1.351 . S
C415 C420 1.501 . S
C416 C417 1.387 . S
C416 N419 1.341 . S
C417 C415 1.400 . S
C417 C416 1.387 . S
N418 Co409 2.022 . S
N418 C415 1.351 . S
N418 N419 1.365 . S
N419 C416 1.341 . S
N419 N418 1.365 . S
N419 H439 0.862 . S
C420 C415 1.501 . S
C420 H421 0.961 . S
C420 H422 0.961 . S
C420 H423 0.960 . S
H421 C420 0.961 . S
H422 C420 0.961 . S
H423 C420 0.960 . S
C424 N425 1.342 . S
C424 C428 1.401 . S
C424 C429 1.499 1_655 S
N425 Co408 1.989 . S
N425 C424 1.342 . S
N425 N426 1.388 . S
N426 Co409 1.993 . S
N426 N425 1.388 . S
N426 C427 1.346 . S
C427 N426 1.346 . S
C427 C428 1.396 . S
C427 C437 1.510 . S
C428 C424 1.401 . S
C428 C427 1.396 . S
C429 C424 1.499 1_455 S
C429 H430 0.959 . S
C429 H431 0.960 . S
C429 H432 0.961 1_455 S
H430 C429 0.959 . S
H431 C429 0.960 . S
H432 C429 0.961 1_655 S
O433 Co408 1.967 . S
O433 C441 1.258 . S
O434 Co409 1.941 . S
O434 C441 1.266 . S
H435 C437 0.959 . S
H436 C437 0.961 . S
C437 C427 1.510 . S
C437 H435 0.959 . S
C437 H436 0.961 . S
C437 H438 0.960 . S
H438 C437 0.960 . S
H439 N419 0.862 . S
O440 Co408 1.920 1_455 S
O440 C413 1.289 . S
C441 O433 1.258 . S
C441 O434 1.266 . S
Co442 O445 1.970 . S
Co442 N459 1.989 . S
Co442 O467 1.967 . S
Co442 O474 1.920 . S
Co443 O446 1.966 . S
Co443 N452 2.022 . S
Co443 N460 1.993 . S
Co443 O468 1.941 . S
C444 O445 1.258 . S
C444 O446 1.263 . S
O445 Co442 1.970 . S
O445 C444 1.258 . S
O446 Co443 1.966 . S
O446 C444 1.263 . S
C447 O448 1.235 . S
C447 O474 1.289 . S
O448 C447 1.235 . S
C449 C451 1.400 . S
C449 N452 1.351 . S
C449 C454 1.501 . S
C450 C451 1.387 . S
C450 N453 1.341 . S
C451 C449 1.400 . S
C451 C450 1.387 . S
N452 Co443 2.022 . S
N452 C449 1.351 . S
N452 N453 1.365 . S
N453 C450 1.341 . S
N453 N452 1.365 . S
N453 H473 0.862 . S
C454 C449 1.501 . S
C454 H455 0.961 . S
C454 H456 0.961 . S
C454 H457 0.960 . S
H455 C454 0.961 . S
H456 C454 0.961 . S
H457 C454 0.960 . S
C458 N459 1.342 . S
C458 C462 1.401 . S
C458 C463 1.499 . S
N459 Co442 1.989 . S
N459 C458 1.342 . S
N459 N460 1.388 . S
N460 Co443 1.993 . S
N460 N459 1.388 . S
N460 C461 1.346 . S
C461 N460 1.346 . S
C461 C462 1.396 . S
C461 C471 1.510 . S
C462 C458 1.401 . S
C462 C461 1.396 . S
C463 C458 1.499 . S
C463 H464 0.959 . S
C463 H465 0.960 . S
C463 H466 0.961 . S
H464 C463 0.959 . S
H465 C463 0.960 . S
H466 C463 0.961 . S
O467 Co442 1.967 . S
O467 C475 1.258 . S
O468 Co443 1.941 . S
O468 C475 1.266 . S
H469 C471 0.959 . S
H470 C471 0.961 . S
C471 C461 1.510 . S
C471 H469 0.959 . S
C471 H470 0.961 . S
C471 H472 0.960 . S
H472 C471 0.960 . S
H473 N453 0.862 . S
O474 Co442 1.920 . S
O474 C447 1.289 . S
C475 O467 1.258 . S
C475 O468 1.266 . S
Co476 O479 1.966 1_545 S
Co476 N493 1.989 . S
Co476 O501 1.967 . S
Co476 O508 1.920 1_545 S
Co477 O480 1.966 . S
Co477 N486 2.022 . S
Co477 N494 1.993 . S
Co477 O502 1.941 . S
C478 O479 1.236 1_545 S
C478 O480 1.263 . S
O479 Co476 1.966 1_565 S
O479 C478 1.236 1_565 S
O480 Co477 1.966 . S
O480 C478 1.263 . S
C481 O482 1.235 . S
C481 O508 1.289 . S
O482 C481 1.235 . S
C483 C485 1.400 . S
C483 N486 1.351 . S
C483 C488 1.501 . S
C484 C485 1.387 . S
C484 N487 1.341 . S
C485 C483 1.400 . S
C485 C484 1.387 . S
N486 Co477 2.022 . S
N486 C483 1.351 . S
N486 N487 1.365 . S
N487 C484 1.341 . S
N487 N486 1.365 . S
N487 H507 0.862 . S
C488 C483 1.501 . S
C488 H489 0.961 . S
C488 H490 0.961 . S
C488 H491 0.960 . S
H489 C488 0.961 . S
H490 C488 0.961 . S
H491 C488 0.960 . S
C492 N493 1.342 . S
C492 C496 1.401 . S
C492 C497 1.499 1_545 S
N493 Co476 1.989 . S
N493 C492 1.342 . S
N493 N494 1.388 . S
N494 Co477 1.993 . S
N494 N493 1.388 . S
N494 C495 1.346 . S
C495 N494 1.346 . S
C495 C496 1.396 . S
C495 C505 1.510 . S
C496 C492 1.401 . S
C496 C495 1.396 . S
C497 C492 1.499 1_565 S
C497 H498 0.959 . S
C497 H499 0.960 . S
C497 H500 0.961 1_565 S
H498 C497 0.959 . S
H499 C497 0.960 . S
H500 C497 0.961 1_545 S
O501 Co476 1.967 . S
O501 C509 1.258 . S
O502 Co477 1.941 . S
O502 C509 1.266 . S
H503 C505 0.959 . S
H504 C505 0.961 . S
C505 C495 1.510 . S
C505 H503 0.959 . S
C505 H504 0.961 . S
C505 H506 0.960 . S
H506 C505 0.960 . S
H507 N487 0.862 . S
O508 Co476 1.920 1_565 S
O508 C481 1.289 . S
C509 O501 1.258 . S
C509 O502 1.266 . S
Co510 O513 1.970 . S
Co510 N527 1.989 . S
Co510 O535 1.967 . S
Co510 O542 1.920 . S
Co511 O514 1.966 . S
Co511 N520 2.022 . S
Co511 N528 1.993 . S
Co511 O536 1.941 . S
C512 O513 1.258 . S
C512 O514 1.263 . S
O513 Co510 1.970 . S
O513 C512 1.258 . S
O514 Co511 1.966 . S
O514 C512 1.263 . S
C515 O516 1.235 . S
C515 O542 1.289 . S
O516 C515 1.235 . S
C517 C519 1.400 . S
C517 N520 1.351 . S
C517 C522 1.501 . S
C518 C519 1.387 . S
C518 N521 1.341 . S
C519 C517 1.400 . S
C519 C518 1.387 . S
N520 Co511 2.022 . S
N520 C517 1.351 . S
N520 N521 1.365 . S
N521 C518 1.341 . S
N521 N520 1.365 . S
N521 H541 0.862 . S
C522 C517 1.501 . S
C522 H523 0.961 . S
C522 H524 0.961 . S
C522 H525 0.960 . S
H523 C522 0.961 . S
H524 C522 0.961 . S
H525 C522 0.960 . S
C526 N527 1.342 . S
C526 C530 1.401 . S
C526 C531 1.499 . S
N527 Co510 1.989 . S
N527 C526 1.342 . S
N527 N528 1.388 . S
N528 Co511 1.993 . S
N528 N527 1.388 . S
N528 C529 1.346 . S
C529 N528 1.346 . S
C529 C530 1.396 . S
C529 C539 1.510 . S
C530 C526 1.401 . S
C530 C529 1.396 . S
C531 C526 1.499 . S
C531 H532 0.959 . S
C531 H533 0.960 . S
C531 H534 0.961 . S
H532 C531 0.959 . S
H533 C531 0.960 . S
H534 C531 0.961 . S
O535 Co510 1.967 . S
O535 C543 1.258 . S
O536 Co511 1.941 . S
O536 C543 1.266 . S
H537 C539 0.959 . S
H538 C539 0.961 . S
C539 C529 1.510 . S
C539 H537 0.959 . S
C539 H538 0.961 . S
C539 H540 0.960 . S
H540 C539 0.960 . S
H541 N521 0.862 . S
O542 Co510 1.920 . S
O542 C515 1.289 . S
C543 O535 1.258 . S
C543 O536 1.266 . S
Co544 O547 1.970 . S
Co544 N561 1.989 . S
Co544 O569 1.967 . S
Co544 O576 1.920 . S
Co545 O548 1.966 . S
Co545 N554 2.022 . S
Co545 N562 1.993 . S
Co545 O570 1.941 . S
C546 O547 1.258 . S
C546 O548 1.263 . S
O547 Co544 1.970 . S
O547 C546 1.258 . S
O548 Co545 1.966 . S
O548 C546 1.263 . S
C549 O550 1.235 . S
C549 O576 1.289 . S
O550 C549 1.235 . S
C551 C553 1.400 . S
C551 N554 1.351 . S
C551 C556 1.501 . S
C552 C553 1.387 . S
C552 N555 1.341 . S
C553 C551 1.400 . S
C553 C552 1.387 . S
N554 Co545 2.022 . S
N554 C551 1.351 . S
N554 N555 1.365 . S
N555 C552 1.341 . S
N555 N554 1.365 . S
N555 H575 0.862 . S
C556 C551 1.501 . S
C556 H557 0.961 . S
C556 H558 0.961 . S
C556 H559 0.960 . S
H557 C556 0.961 . S
H558 C556 0.961 . S
H559 C556 0.960 . S
C560 N561 1.342 . S
C560 C564 1.401 . S
C560 C565 1.499 . S
N561 Co544 1.989 . S
N561 C560 1.342 . S
N561 N562 1.388 . S
N562 Co545 1.993 . S
N562 N561 1.388 . S
N562 C563 1.346 . S
C563 N562 1.346 . S
C563 C564 1.396 . S
C563 C573 1.510 . S
C564 C560 1.401 . S
C564 C563 1.396 . S
C565 C560 1.499 . S
C565 H566 0.959 . S
C565 H567 0.960 . S
C565 H568 0.961 . S
H566 C565 0.959 . S
H567 C565 0.960 . S
H568 C565 0.961 . S
O569 Co544 1.967 . S
O569 C577 1.258 . S
O570 Co545 1.941 . S
O570 C577 1.266 . S
H571 C573 0.959 . S
H572 C573 0.961 . S
C573 C563 1.510 . S
C573 H571 0.959 . S
C573 H572 0.961 . S
C573 H574 0.960 . S
H574 C573 0.960 . S
H575 N555 0.862 . S
O576 Co544 1.920 . S
O576 C549 1.289 . S
C577 O569 1.258 . S
C577 O570 1.266 . S
Co578 O581 1.970 . S
Co578 N595 1.989 . S
Co578 O603 1.967 . S
Co578 O610 1.920 . S
Co579 O582 1.966 . S
Co579 N588 2.022 . S
Co579 N596 1.993 . S
Co579 O604 1.941 . S
C580 O581 1.258 . S
C580 O582 1.263 . S
O581 Co578 1.970 . S
O581 C580 1.258 . S
O582 Co579 1.966 . S
O582 C580 1.263 . S
C583 O584 1.235 . S
C583 O610 1.289 . S
O584 C583 1.235 . S
C585 C587 1.400 . S
C585 N588 1.351 . S
C585 C590 1.501 . S
C586 C587 1.387 . S
C586 N589 1.341 . S
C587 C585 1.400 . S
C587 C586 1.387 . S
N588 Co579 2.022 . S
N588 C585 1.351 . S
N588 N589 1.365 . S
N589 C586 1.341 . S
N589 N588 1.365 . S
N589 H609 0.862 . S
C590 C585 1.501 . S
C590 H591 0.961 . S
C590 H592 0.961 . S
C590 H593 0.960 . S
H591 C590 0.961 . S
H592 C590 0.961 . S
H593 C590 0.960 . S
C594 N595 1.342 . S
C594 C598 1.401 . S
C594 C599 1.499 . S
N595 Co578 1.989 . S
N595 C594 1.342 . S
N595 N596 1.388 . S
N596 Co579 1.993 . S
N596 N595 1.388 . S
N596 C597 1.346 . S
C597 N596 1.346 . S
C597 C598 1.396 . S
C597 C607 1.510 . S
C598 C594 1.401 . S
C598 C597 1.396 . S
C599 C594 1.499 . S
C599 H600 0.959 . S
C599 H601 0.960 . S
C599 H602 0.961 . S
H600 C599 0.959 . S
H601 C599 0.960 . S
H602 C599 0.961 . S
O603 Co578 1.967 . S
O603 C611 1.258 . S
O604 Co579 1.941 . S
O604 C611 1.266 . S
H605 C607 0.959 . S
H606 C607 0.961 . S
C607 C597 1.510 . S
C607 H605 0.959 . S
C607 H606 0.961 . S
C607 H608 0.960 . S
H608 C607 0.960 . S
H609 N589 0.862 . S
O610 Co578 1.920 . S
O610 C583 1.289 . S
C611 O603 1.258 . S
C611 O604 1.266 . S
Co612 O615 1.970 . S
Co612 N629 1.989 . S
Co612 O637 1.967 . S
Co612 O644 1.920 . S
Co613 O616 1.966 . S
Co613 N622 2.022 . S
Co613 N630 1.993 . S
Co613 O638 1.941 . S
C614 O615 1.258 . S
C614 O616 1.263 . S
O615 Co612 1.970 . S
O615 C614 1.258 . S
O616 Co613 1.966 . S
O616 C614 1.263 . S
C617 O618 1.235 . S
C617 O644 1.289 . S
O618 C617 1.235 . S
C619 C621 1.400 . S
C619 N622 1.351 . S
C619 C624 1.501 . S
C620 C621 1.387 . S
C620 N623 1.341 . S
C621 C619 1.400 . S
C621 C620 1.387 . S
N622 Co613 2.022 . S
N622 C619 1.351 . S
N622 N623 1.365 . S
N623 C620 1.341 . S
N623 N622 1.365 . S
N623 H643 0.862 . S
C624 C619 1.501 . S
C624 H625 0.961 . S
C624 H626 0.961 . S
C624 H627 0.960 . S
H625 C624 0.961 . S
H626 C624 0.961 . S
H627 C624 0.960 . S
C628 N629 1.342 . S
C628 C632 1.401 . S
C628 C633 1.499 . S
N629 Co612 1.989 . S
N629 C628 1.342 . S
N629 N630 1.388 . S
N630 Co613 1.993 . S
N630 N629 1.388 . S
N630 C631 1.346 . S
C631 N630 1.346 . S
C631 C632 1.396 . S
C631 C641 1.510 . S
C632 C628 1.401 . S
C632 C631 1.396 . S
C633 C628 1.499 . S
C633 H634 0.959 . S
C633 H635 0.960 . S
C633 H636 0.961 . S
H634 C633 0.959 . S
H635 C633 0.960 . S
H636 C633 0.961 . S
O637 Co612 1.967 . S
O637 C645 1.258 . S
O638 Co613 1.941 . S
O638 C645 1.266 . S
H639 C641 0.959 . S
H640 C641 0.961 . S
C641 C631 1.510 . S
C641 H639 0.959 . S
C641 H640 0.961 . S
C641 H642 0.960 . S
H642 C641 0.960 . S
H643 N623 0.862 . S
O644 Co612 1.920 . S
O644 C617 1.289 . S
C645 O637 1.258 . S
C645 O638 1.266 . S
Co646 O649 1.970 . S
Co646 N663 1.989 . S
Co646 O671 1.967 . S
Co646 O678 1.920 . S
Co647 O650 1.966 . S
Co647 N656 2.022 . S
Co647 N664 1.993 . S
Co647 O672 1.941 . S
C648 O649 1.258 . S
C648 O650 1.263 . S
O649 Co646 1.970 . S
O649 C648 1.258 . S
O650 Co647 1.966 . S
O650 C648 1.263 . S
C651 O652 1.235 . S
C651 O678 1.289 . S
O652 C651 1.235 . S
C653 C655 1.400 . S
C653 N656 1.351 . S
C653 C658 1.501 . S
C654 C655 1.387 . S
C654 N657 1.341 . S
C655 C653 1.400 . S
C655 C654 1.387 . S
N656 Co647 2.022 . S
N656 C653 1.351 . S
N656 N657 1.365 . S
N657 C654 1.341 . S
N657 N656 1.365 . S
N657 H677 0.862 . S
C658 C653 1.501 . S
C658 H659 0.961 . S
C658 H660 0.961 . S
C658 H661 0.960 . S
H659 C658 0.961 . S
H660 C658 0.961 . S
H661 C658 0.960 . S
C662 N663 1.342 . S
C662 C666 1.401 . S
C662 C667 1.499 . S
N663 Co646 1.989 . S
N663 C662 1.342 . S
N663 N664 1.388 . S
N664 Co647 1.993 . S
N664 N663 1.388 . S
N664 C665 1.346 . S
C665 N664 1.346 . S
C665 C666 1.396 . S
C665 C675 1.510 . S
C666 C662 1.401 . S
C666 C665 1.396 . S
C667 C662 1.499 . S
C667 H668 0.959 . S
C667 H669 0.960 . S
C667 H670 0.961 . S
H668 C667 0.959 . S
H669 C667 0.960 . S
H670 C667 0.961 . S
O671 Co646 1.967 . S
O671 C679 1.258 . S
O672 Co647 1.941 . S
O672 C679 1.266 . S
H673 C675 0.959 . S
H674 C675 0.961 . S
C675 C665 1.510 . S
C675 H673 0.959 . S
C675 H674 0.961 . S
C675 H676 0.960 . S
H676 C675 0.960 . S
H677 N657 0.862 . S
O678 Co646 1.920 . S
O678 C651 1.289 . S
C679 O671 1.258 . S
C679 O672 1.266 . S
Co680 O683 1.970 . S
Co680 N697 1.989 . S
Co680 O705 1.967 . S
Co680 O712 1.920 . S
Co681 O684 1.966 . S
Co681 N690 2.022 . S
Co681 N698 1.993 . S
Co681 O706 1.941 . S
C682 O683 1.258 . S
C682 O684 1.263 . S
O683 Co680 1.970 . S
O683 C682 1.258 . S
O684 Co681 1.966 . S
O684 C682 1.263 . S
C685 O686 1.235 . S
C685 O712 1.289 . S
O686 C685 1.235 . S
C687 C689 1.400 . S
C687 N690 1.351 . S
C687 C692 1.501 . S
C688 C689 1.387 . S
C688 N691 1.341 . S
C689 C687 1.400 . S
C689 C688 1.387 . S
N690 Co681 2.022 . S
N690 C687 1.351 . S
N690 N691 1.365 . S
N691 C688 1.341 . S
N691 N690 1.365 . S
N691 H711 0.862 . S
C692 C687 1.501 . S
C692 H693 0.961 . S
C692 H694 0.961 . S
C692 H695 0.960 . S
H693 C692 0.961 . S
H694 C692 0.961 . S
H695 C692 0.960 . S
C696 N697 1.342 . S
C696 C700 1.401 . S
C696 C701 1.499 . S
N697 Co680 1.989 . S
N697 C696 1.342 . S
N697 N698 1.388 . S
N698 Co681 1.993 . S
N698 N697 1.388 . S
N698 C699 1.346 . S
C699 N698 1.346 . S
C699 C700 1.396 . S
C699 C709 1.510 . S
C700 C696 1.401 . S
C700 C699 1.396 . S
C701 C696 1.499 . S
C701 H702 0.959 . S
C701 H703 0.960 . S
C701 H704 0.961 . S
H702 C701 0.959 . S
H703 C701 0.960 . S
H704 C701 0.961 . S
O705 Co680 1.967 . S
O705 C713 1.258 . S
O706 Co681 1.941 . S
O706 C713 1.266 . S
H707 C709 0.959 . S
H708 C709 0.961 . S
C709 C699 1.510 . S
C709 H707 0.959 . S
C709 H708 0.961 . S
C709 H710 0.960 . S
H710 C709 0.960 . S
H711 N691 0.862 . S
O712 Co680 1.920 . S
O712 C685 1.289 . S
C713 O705 1.258 . S
C713 O706 1.266 . S
Co714 O717 1.956 1_545 S
Co714 N731 1.989 . S
Co714 O739 1.967 . S
Co714 O746 1.920 1_545 S
Co715 O718 1.966 . S
Co715 N724 2.022 . S
Co715 N732 1.993 . S
Co715 O740 1.941 . S
C716 O717 1.257 1_545 S
C716 O718 1.263 . S
O717 Co714 1.956 1_565 S
O717 C716 1.257 1_565 S
O718 Co715 1.966 . S
O718 C716 1.263 . S
C719 O720 1.235 . S
C719 O746 1.289 . S
O720 C719 1.235 . S
C721 C723 1.400 . S
C721 N724 1.351 . S
C721 C726 1.501 . S
C722 C723 1.387 . S
C722 N725 1.341 . S
C723 C721 1.400 . S
C723 C722 1.387 . S
N724 Co715 2.022 . S
N724 C721 1.351 . S
N724 N725 1.365 . S
N725 C722 1.341 . S
N725 N724 1.365 . S
N725 H745 0.862 . S
C726 C721 1.501 . S
C726 H727 0.961 . S
C726 H728 0.961 . S
C726 H729 0.960 . S
H727 C726 0.961 . S
H728 C726 0.961 . S
H729 C726 0.960 . S
C730 N731 1.342 . S
C730 C734 1.401 . S
C730 C735 1.499 1_545 S
N731 Co714 1.989 . S
N731 C730 1.342 . S
N731 N732 1.388 . S
N732 Co715 1.993 . S
N732 N731 1.388 . S
N732 C733 1.346 . S
C733 N732 1.346 . S
C733 C734 1.396 . S
C733 C743 1.510 . S
C734 C730 1.401 . S
C734 C733 1.396 . S
C735 C730 1.499 1_565 S
C735 H736 0.959 . S
C735 H737 0.960 1_556 S
C735 H738 0.961 1_566 S
H736 C735 0.959 . S
H737 C735 0.960 1_554 S
H738 C735 0.961 1_544 S
O739 Co714 1.967 . S
O739 C747 1.258 . S
O740 Co715 1.941 . S
O740 C747 1.266 . S
H741 C743 0.959 . S
H742 C743 0.961 . S
C743 C733 1.510 . S
C743 H741 0.959 . S
C743 H742 0.961 . S
C743 H744 0.960 . S
H744 C743 0.960 . S
H745 N725 0.862 . S
O746 Co714 1.920 1_565 S
O746 C719 1.289 . S
C747 O739 1.258 . S
C747 O740 1.266 . S
Co748 O751 1.966 1_655 S
Co748 N765 1.989 . S
Co748 O773 1.967 . S
Co748 O780 1.920 1_655 S
Co749 O752 1.966 . S
Co749 N758 2.022 . S
Co749 N766 1.993 . S
Co749 O774 1.941 . S
C750 O751 1.237 1_655 S
C750 O752 1.263 . S
O751 Co748 1.966 1_455 S
O751 C750 1.237 1_455 S
O752 Co749 1.966 . S
O752 C750 1.263 . S
C753 O754 1.235 . S
C753 O780 1.289 . S
O754 C753 1.235 . S
C755 C757 1.400 . S
C755 N758 1.351 . S
C755 C760 1.501 . S
C756 C757 1.387 . S
C756 N759 1.341 . S
C757 C755 1.400 . S
C757 C756 1.387 . S
N758 Co749 2.022 . S
N758 C755 1.351 . S
N758 N759 1.365 . S
N759 C756 1.341 . S
N759 N758 1.365 . S
N759 H779 0.862 . S
C760 C755 1.501 . S
C760 H761 0.961 . S
C760 H762 0.961 . S
C760 H763 0.960 . S
H761 C760 0.961 . S
H762 C760 0.961 . S
H763 C760 0.960 . S
C764 N765 1.342 . S
C764 C768 1.401 . S
C764 C769 1.499 1_655 S
N765 Co748 1.989 . S
N765 C764 1.342 . S
N765 N766 1.388 . S
N766 Co749 1.993 . S
N766 N765 1.388 . S
N766 C767 1.346 . S
C767 N766 1.346 . S
C767 C768 1.396 . S
C767 C777 1.510 . S
C768 C764 1.401 . S
C768 C767 1.396 . S
C769 C764 1.499 1_455 S
C769 H770 0.959 . S
C769 H771 0.960 1_556 S
C769 H772 0.961 1_456 S
H770 C769 0.959 . S
H771 C769 0.960 1_554 S
H772 C769 0.961 1_654 S
O773 Co748 1.967 . S
O773 C781 1.258 . S
O774 Co749 1.941 . S
O774 C781 1.266 . S
H775 C777 0.959 . S
H776 C777 0.961 . S
C777 C767 1.510 . S
C777 H775 0.959 . S
C777 H776 0.961 . S
C777 H778 0.960 . S
H778 C777 0.960 . S
H779 N759 0.862 . S
O780 Co748 1.920 1_455 S
O780 C753 1.289 . S
C781 O773 1.258 . S
C781 O774 1.266 . S
Co782 O785 1.970 . S
Co782 N799 1.989 . S
Co782 O807 1.967 . S
Co782 O814 1.920 . S
Co783 O786 1.966 . S
Co783 N792 2.022 . S
Co783 N800 1.993 . S
Co783 O808 1.941 . S
C784 O785 1.258 . S
C784 O786 1.263 . S
O785 Co782 1.970 . S
O785 C784 1.258 . S
O786 Co783 1.966 . S
O786 C784 1.263 . S
C787 O788 1.235 . S
C787 O814 1.289 . S
O788 C787 1.235 . S
C789 C791 1.400 . S
C789 N792 1.351 . S
C789 C794 1.501 . S
C790 C791 1.387 . S
C790 N793 1.341 . S
C791 C789 1.400 . S
C791 C790 1.387 . S
N792 Co783 2.022 . S
N792 C789 1.351 . S
N792 N793 1.365 . S
N793 C790 1.341 . S
N793 N792 1.365 . S
N793 H813 0.862 . S
C794 C789 1.501 . S
C794 H795 0.961 . S
C794 H796 0.961 . S
C794 H797 0.960 . S
H795 C794 0.961 . S
H796 C794 0.961 . S
H797 C794 0.960 . S
C798 N799 1.342 . S
C798 C802 1.401 . S
C798 C803 1.499 . S
N799 Co782 1.989 . S
N799 C798 1.342 . S
N799 N800 1.388 . S
N800 Co783 1.993 . S
N800 N799 1.388 . S
N800 C801 1.346 . S
C801 N800 1.346 . S
C801 C802 1.396 . S
C801 C811 1.510 . S
C802 C798 1.401 . S
C802 C801 1.396 . S
C803 C798 1.499 . S
C803 H804 0.959 . S
C803 H805 0.960 1_556 S
C803 H806 0.961 1_556 S
H804 C803 0.959 . S
H805 C803 0.960 1_554 S
H806 C803 0.961 1_554 S
O807 Co782 1.967 . S
O807 C815 1.258 . S
O808 Co783 1.941 . S
O808 C815 1.266 . S
H809 C811 0.959 . S
H810 C811 0.961 . S
C811 C801 1.510 . S
C811 H809 0.959 . S
C811 H810 0.961 . S
C811 H812 0.960 . S
H812 C811 0.960 . S
H813 N793 0.862 . S
O814 Co782 1.920 . S
O814 C787 1.289 . S
C815 O807 1.258 . S
C815 O808 1.266 . S
Co816 O819 1.970 . S
Co816 N833 1.989 . S
Co816 O841 1.967 . S
Co816 O848 1.920 . S
Co817 O820 1.966 . S
Co817 N826 2.022 . S
Co817 N834 1.993 . S
Co817 O842 1.941 . S
C818 O819 1.258 . S
C818 O820 1.263 . S
O819 Co816 1.970 . S
O819 C818 1.258 . S
O820 Co817 1.966 . S
O820 C818 1.263 . S
C821 O822 1.235 . S
C821 O848 1.289 . S
O822 C821 1.235 . S
C823 C825 1.400 . S
C823 N826 1.351 . S
C823 C828 1.501 . S
C824 C825 1.387 . S
C824 N827 1.341 . S
C825 C823 1.400 . S
C825 C824 1.387 . S
N826 Co817 2.022 . S
N826 C823 1.351 . S
N826 N827 1.365 . S
N827 C824 1.341 . S
N827 N826 1.365 . S
N827 H847 0.862 . S
C828 C823 1.501 . S
C828 H829 0.961 . S
C828 H830 0.961 . S
C828 H831 0.960 . S
H829 C828 0.961 . S
H830 C828 0.961 . S
H831 C828 0.960 . S
C832 N833 1.342 . S
C832 C836 1.401 . S
C832 C837 1.499 . S
N833 Co816 1.989 . S
N833 C832 1.342 . S
N833 N834 1.388 . S
N834 Co817 1.993 . S
N834 N833 1.388 . S
N834 C835 1.346 . S
C835 N834 1.346 . S
C835 C836 1.396 . S
C835 C845 1.510 . S
C836 C832 1.401 . S
C836 C835 1.396 . S
C837 C832 1.499 . S
C837 H838 0.959 . S
C837 H839 0.960 . S
C837 H840 0.961 . S
H838 C837 0.959 . S
H839 C837 0.960 . S
H840 C837 0.961 . S
O841 Co816 1.967 . S
O841 C849 1.258 . S
O842 Co817 1.941 . S
O842 C849 1.266 . S
H843 C845 0.959 . S
H844 C845 0.961 . S
C845 C835 1.510 . S
C845 H843 0.959 . S
C845 H844 0.961 . S
C845 H846 0.960 . S
H846 C845 0.960 . S
H847 N827 0.862 . S
O848 Co816 1.920 . S
O848 C821 1.289 . S
C849 O841 1.258 . S
C849 O842 1.266 . S
Co850 O853 1.970 . S
Co850 N867 1.989 . S
Co850 O875 1.967 . S
Co850 O882 1.920 . S
Co851 O854 1.966 . S
Co851 N860 2.022 . S
Co851 N868 1.993 . S
Co851 O876 1.941 . S
C852 O853 1.258 . S
C852 O854 1.263 . S
O853 Co850 1.970 . S
O853 C852 1.258 . S
O854 Co851 1.966 . S
O854 C852 1.263 . S
C855 O856 1.235 . S
C855 O882 1.289 . S
O856 C855 1.235 . S
C857 C859 1.400 . S
C857 N860 1.351 . S
C857 C862 1.501 . S
C858 C859 1.387 . S
C858 N861 1.341 . S
C859 C857 1.400 . S
C859 C858 1.387 . S
N860 Co851 2.022 . S
N860 C857 1.351 . S
N860 N861 1.365 . S
N861 C858 1.341 . S
N861 N860 1.365 . S
N861 H881 0.862 . S
C862 C857 1.501 . S
C862 H863 0.961 . S
C862 H864 0.961 . S
C862 H865 0.960 . S
H863 C862 0.961 . S
H864 C862 0.961 . S
H865 C862 0.960 . S
C866 N867 1.342 . S
C866 C870 1.401 . S
C866 C871 1.499 . S
N867 Co850 1.989 . S
N867 C866 1.342 . S
N867 N868 1.388 . S
N868 Co851 1.993 . S
N868 N867 1.388 . S
N868 C869 1.346 . S
C869 N868 1.346 . S
C869 C870 1.396 . S
C869 C879 1.510 . S
C870 C866 1.401 . S
C870 C869 1.396 . S
C871 C866 1.499 . S
C871 H872 0.959 . S
C871 H873 0.960 . S
C871 H874 0.961 . S
H872 C871 0.959 . S
H873 C871 0.960 . S
H874 C871 0.961 . S
O875 Co850 1.967 . S
O875 C883 1.258 . S
O876 Co851 1.941 . S
O876 C883 1.266 . S
H877 C879 0.959 . S
H878 C879 0.961 . S
C879 C869 1.510 . S
C879 H877 0.959 . S
C879 H878 0.961 . S
C879 H880 0.960 . S
H880 C879 0.960 . S
H881 N861 0.862 . S
O882 Co850 1.920 . S
O882 C855 1.289 . S
C883 O875 1.258 . S
C883 O876 1.266 . S
Co884 O887 1.970 . S
Co884 N901 1.989 . S
Co884 O909 1.967 . S
Co884 O916 1.920 . S
Co885 O888 1.966 . S
Co885 N894 2.022 . S
Co885 N902 1.993 . S
Co885 O910 1.941 . S
C886 O887 1.258 . S
C886 O888 1.263 . S
O887 Co884 1.970 . S
O887 C886 1.258 . S
O888 Co885 1.966 . S
O888 C886 1.263 . S
C889 O890 1.235 . S
C889 O916 1.289 . S
O890 C889 1.235 . S
C891 C893 1.400 . S
C891 N894 1.351 . S
C891 C896 1.501 . S
C892 C893 1.387 . S
C892 N895 1.341 . S
C893 C891 1.400 . S
C893 C892 1.387 . S
N894 Co885 2.022 . S
N894 C891 1.351 . S
N894 N895 1.365 . S
N895 C892 1.341 . S
N895 N894 1.365 . S
N895 H915 0.862 . S
C896 C891 1.501 . S
C896 H897 0.961 . S
C896 H898 0.961 . S
C896 H899 0.960 . S
H897 C896 0.961 . S
H898 C896 0.961 . S
H899 C896 0.960 . S
C900 N901 1.342 . S
C900 C904 1.401 . S
C900 C905 1.499 . S
N901 Co884 1.989 . S
N901 C900 1.342 . S
N901 N902 1.388 . S
N902 Co885 1.993 . S
N902 N901 1.388 . S
N902 C903 1.346 . S
C903 N902 1.346 . S
C903 C904 1.396 . S
C903 C913 1.510 . S
C904 C900 1.401 . S
C904 C903 1.396 . S
C905 C900 1.499 . S
C905 H906 0.959 . S
C905 H907 0.960 . S
C905 H908 0.961 . S
H906 C905 0.959 . S
H907 C905 0.960 . S
H908 C905 0.961 . S
O909 Co884 1.967 . S
O909 C917 1.258 . S
O910 Co885 1.941 . S
O910 C917 1.266 . S
H911 C913 0.959 . S
H912 C913 0.961 . S
C913 C903 1.510 . S
C913 H911 0.959 . S
C913 H912 0.961 . S
C913 H914 0.960 . S
H914 C913 0.960 . S
H915 N895 0.862 . S
O916 Co884 1.920 . S
O916 C889 1.289 . S
C917 O909 1.258 . S
C917 O910 1.266 . S
Co918 O921 1.956 1_565 S
Co918 N935 1.989 . S
Co918 O943 1.967 . S
Co918 O950 1.920 1_565 S
Co919 O922 1.966 . S
Co919 N928 2.022 . S
Co919 N936 1.993 . S
Co919 O944 1.941 . S
C920 O921 1.257 1_565 S
C920 O922 1.263 . S
O921 Co918 1.956 1_545 S
O921 C920 1.257 1_545 S
O922 Co919 1.966 . S
O922 C920 1.263 . S
C923 O924 1.235 . S
C923 O950 1.289 . S
O924 C923 1.235 . S
C925 C927 1.400 . S
C925 N928 1.351 . S
C925 C930 1.501 . S
C926 C927 1.387 . S
C926 N929 1.341 . S
C927 C925 1.400 . S
C927 C926 1.387 . S
N928 Co919 2.022 . S
N928 C925 1.351 . S
N928 N929 1.365 . S
N929 C926 1.341 . S
N929 N928 1.365 . S
N929 H949 0.862 . S
C930 C925 1.501 . S
C930 H931 0.961 . S
C930 H932 0.961 . S
C930 H933 0.960 . S
H931 C930 0.961 . S
H932 C930 0.961 . S
H933 C930 0.960 . S
C934 N935 1.342 . S
C934 C938 1.401 . S
C934 C939 1.499 1_565 S
N935 Co918 1.989 . S
N935 C934 1.342 . S
N935 N936 1.388 . S
N936 Co919 1.993 . S
N936 N935 1.388 . S
N936 C937 1.346 . S
C937 N936 1.346 . S
C937 C938 1.396 . S
C937 C947 1.510 . S
C938 C934 1.401 . S
C938 C937 1.396 . S
C939 C934 1.499 1_545 S
C939 H940 0.959 . S
C939 H941 0.960 1_554 S
C939 H942 0.961 1_544 S
H940 C939 0.959 . S
H941 C939 0.960 1_556 S
H942 C939 0.961 1_566 S
O943 Co918 1.967 . S
O943 C951 1.258 . S
O944 Co919 1.941 . S
O944 C951 1.266 . S
H945 C947 0.959 . S
H946 C947 0.961 . S
C947 C937 1.510 . S
C947 H945 0.959 . S
C947 H946 0.961 . S
C947 H948 0.960 . S
H948 C947 0.960 . S
H949 N929 0.862 . S
O950 Co918 1.920 1_545 S
O950 C923 1.289 . S
C951 O943 1.258 . S
C951 O944 1.266 . S
Co952 O955 1.966 1_455 S
Co952 N969 1.989 . S
Co952 O977 1.967 . S
Co952 O984 1.920 1_455 S
Co953 O956 1.966 . S
Co953 N962 2.022 . S
Co953 N970 1.993 . S
Co953 O978 1.941 . S
C954 O955 1.237 1_455 S
C954 O956 1.263 . S
O955 Co952 1.966 1_655 S
O955 C954 1.237 1_655 S
O956 Co953 1.966 . S
O956 C954 1.263 . S
C957 O958 1.235 . S
C957 O984 1.289 . S
O958 C957 1.235 . S
C959 C961 1.400 . S
C959 N962 1.351 . S
C959 C964 1.501 . S
C960 C961 1.387 . S
C960 N963 1.341 . S
C961 C959 1.400 . S
C961 C960 1.387 . S
N962 Co953 2.022 . S
N962 C959 1.351 . S
N962 N963 1.365 . S
N963 C960 1.341 . S
N963 N962 1.365 . S
N963 H983 0.862 . S
C964 C959 1.501 . S
C964 H965 0.961 . S
C964 H966 0.961 . S
C964 H967 0.960 . S
H965 C964 0.961 . S
H966 C964 0.961 . S
H967 C964 0.960 . S
C968 N969 1.342 . S
C968 C972 1.401 . S
C968 C973 1.499 1_455 S
N969 Co952 1.989 . S
N969 C968 1.342 . S
N969 N970 1.388 . S
N970 Co953 1.993 . S
N970 N969 1.388 . S
N970 C971 1.346 . S
C971 N970 1.346 . S
C971 C972 1.396 . S
C971 C981 1.510 . S
C972 C968 1.401 . S
C972 C971 1.396 . S
C973 C968 1.499 1_655 S
C973 H974 0.959 . S
C973 H975 0.960 1_554 S
C973 H976 0.961 1_654 S
H974 C973 0.959 . S
H975 C973 0.960 1_556 S
H976 C973 0.961 1_456 S
O977 Co952 1.967 . S
O977 C985 1.258 . S
O978 Co953 1.941 . S
O978 C985 1.266 . S
H979 C981 0.959 . S
H980 C981 0.961 . S
C981 C971 1.510 . S
C981 H979 0.959 . S
C981 H980 0.961 . S
C981 H982 0.960 . S
H982 C981 0.960 . S
H983 N963 0.862 . S
O984 Co952 1.920 1_655 S
O984 C957 1.289 . S
C985 O977 1.258 . S
C985 O978 1.266 . S
Co986 O989 1.970 . S
Co986 N1003 1.989 . S
Co986 O1011 1.967 . S
Co986 O1018 1.920 . S
Co987 O990 1.966 . S
Co987 N996 2.022 . S
Co987 N1004 1.993 . S
Co987 O1012 1.941 . S
C988 O989 1.258 . S
C988 O990 1.263 . S
O989 Co986 1.970 . S
O989 C988 1.258 . S
O990 Co987 1.966 . S
O990 C988 1.263 . S
C991 O992 1.235 . S
C991 O1018 1.289 . S
O992 C991 1.235 . S
C993 C995 1.400 . S
C993 N996 1.351 . S
C993 C998 1.501 . S
C994 C995 1.387 . S
C994 N997 1.341 . S
C995 C993 1.400 . S
C995 C994 1.387 . S
N996 Co987 2.022 . S
N996 C993 1.351 . S
N996 N997 1.365 . S
N997 C994 1.341 . S
N997 N996 1.365 . S
N997 H1017 0.862 . S
C998 C993 1.501 . S
C998 H999 0.961 . S
C998 H1000 0.961 . S
C998 H1001 0.960 . S
H999 C998 0.961 . S
H1000 C998 0.961 . S
H1001 C998 0.960 . S
C1002 N1003 1.342 . S
C1002 C1006 1.401 . S
C1002 C1007 1.499 . S
N1003 Co986 1.989 . S
N1003 C1002 1.342 . S
N1003 N1004 1.388 . S
N1004 Co987 1.993 . S
N1004 N1003 1.388 . S
N1004 C1005 1.346 . S
C1005 N1004 1.346 . S
C1005 C1006 1.396 . S
C1005 C1015 1.510 . S
C1006 C1002 1.401 . S
C1006 C1005 1.396 . S
C1007 C1002 1.499 . S
C1007 H1008 0.959 . S
C1007 H1009 0.960 1_554 S
C1007 H1010 0.961 1_554 S
H1008 C1007 0.959 . S
H1009 C1007 0.960 1_556 S
H1010 C1007 0.961 1_556 S
O1011 Co986 1.967 . S
O1011 C1019 1.258 . S
O1012 Co987 1.941 . S
O1012 C1019 1.266 . S
H1013 C1015 0.959 . S
H1014 C1015 0.961 . S
C1015 C1005 1.510 . S
C1015 H1013 0.959 . S
C1015 H1014 0.961 . S
C1015 H1016 0.960 . S
H1016 C1015 0.960 . S
H1017 N997 0.862 . S
O1018 Co986 1.920 . S
O1018 C991 1.289 . S
C1019 O1011 1.258 . S
C1019 O1012 1.266 . S
Co1020 O1023 1.956 1_455 S
Co1020 N1037 1.989 . S
Co1020 O1045 1.967 . S
Co1020 O1052 1.920 1_455 S
Co1021 O1024 1.966 . S
Co1021 N1030 2.022 . S
Co1021 N1038 1.993 . S
Co1021 O1046 1.941 . S
C1022 O1023 1.257 1_455 S
C1022 O1024 1.263 . S
O1023 Co1020 1.956 1_655 S
O1023 C1022 1.257 1_655 S
O1024 Co1021 1.966 . S
O1024 C1022 1.263 . S
C1025 O1026 1.235 . S
C1025 O1052 1.289 . S
O1026 C1025 1.235 . S
C1027 C1029 1.400 . S
C1027 N1030 1.351 . S
C1027 C1032 1.501 . S
C1028 C1029 1.387 . S
C1028 N1031 1.341 . S
C1029 C1027 1.400 . S
C1029 C1028 1.387 . S
N1030 Co1021 2.022 . S
N1030 C1027 1.351 . S
N1030 N1031 1.365 . S
N1031 C1028 1.341 . S
N1031 N1030 1.365 . S
N1031 H1051 0.862 . S
C1032 C1027 1.501 . S
C1032 H1033 0.961 . S
C1032 H1034 0.961 . S
C1032 H1035 0.960 . S
H1033 C1032 0.961 . S
H1034 C1032 0.961 . S
H1035 C1032 0.960 . S
C1036 N1037 1.342 . S
C1036 C1040 1.401 . S
C1036 C1041 1.499 1_455 S
N1037 Co1020 1.989 . S
N1037 C1036 1.342 . S
N1037 N1038 1.388 . S
N1038 Co1021 1.993 . S
N1038 N1037 1.388 . S
N1038 C1039 1.346 . S
C1039 N1038 1.346 . S
C1039 C1040 1.396 . S
C1039 C1049 1.510 . S
C1040 C1036 1.401 . S
C1040 C1039 1.396 . S
C1041 C1036 1.499 1_655 S
C1041 H1042 0.959 . S
C1041 H1043 0.960 . S
C1041 H1044 0.961 1_655 S
H1042 C1041 0.959 . S
H1043 C1041 0.960 . S
H1044 C1041 0.961 1_455 S
O1045 Co1020 1.967 . S
O1045 C1053 1.258 . S
O1046 Co1021 1.941 . S
O1046 C1053 1.266 . S
H1047 C1049 0.959 . S
H1048 C1049 0.961 . S
C1049 C1039 1.510 . S
C1049 H1047 0.959 . S
C1049 H1048 0.961 . S
C1049 H1050 0.960 . S
H1050 C1049 0.960 . S
H1051 N1031 0.862 . S
O1052 Co1020 1.920 1_655 S
O1052 C1025 1.289 . S
C1053 O1045 1.258 . S
C1053 O1046 1.266 . S
Co1054 O1057 1.970 . S
Co1054 N1071 1.989 . S
Co1054 O1079 1.967 . S
Co1054 O1086 1.920 . S
Co1055 O1058 1.966 . S
Co1055 N1064 2.022 . S
Co1055 N1072 1.993 . S
Co1055 O1080 1.941 . S
C1056 O1057 1.258 . S
C1056 O1058 1.263 . S
O1057 Co1054 1.970 . S
O1057 C1056 1.258 . S
O1058 Co1055 1.966 . S
O1058 C1056 1.263 . S
C1059 O1060 1.235 . S
C1059 O1086 1.289 . S
O1060 C1059 1.235 . S
C1061 C1063 1.400 . S
C1061 N1064 1.351 . S
C1061 C1066 1.501 . S
C1062 C1063 1.387 . S
C1062 N1065 1.341 . S
C1063 C1061 1.400 . S
C1063 C1062 1.387 . S
N1064 Co1055 2.022 . S
N1064 C1061 1.351 . S
N1064 N1065 1.365 . S
N1065 C1062 1.341 . S
N1065 N1064 1.365 . S
N1065 H1085 0.862 . S
C1066 C1061 1.501 . S
C1066 H1067 0.961 . S
C1066 H1068 0.961 . S
C1066 H1069 0.960 . S
H1067 C1066 0.961 . S
H1068 C1066 0.961 . S
H1069 C1066 0.960 . S
C1070 N1071 1.342 . S
C1070 C1074 1.401 . S
C1070 C1075 1.499 . S
N1071 Co1054 1.989 . S
N1071 C1070 1.342 . S
N1071 N1072 1.388 . S
N1072 Co1055 1.993 . S
N1072 N1071 1.388 . S
N1072 C1073 1.346 . S
C1073 N1072 1.346 . S
C1073 C1074 1.396 . S
C1073 C1083 1.510 . S
C1074 C1070 1.401 . S
C1074 C1073 1.396 . S
C1075 C1070 1.499 . S
C1075 H1076 0.959 . S
C1075 H1077 0.960 . S
C1075 H1078 0.961 . S
H1076 C1075 0.959 . S
H1077 C1075 0.960 . S
H1078 C1075 0.961 . S
O1079 Co1054 1.967 . S
O1079 C1087 1.258 . S
O1080 Co1055 1.941 . S
O1080 C1087 1.266 . S
H1081 C1083 0.959 . S
H1082 C1083 0.961 . S
C1083 C1073 1.510 . S
C1083 H1081 0.959 . S
C1083 H1082 0.961 . S
C1083 H1084 0.960 . S
H1084 C1083 0.960 . S
H1085 N1065 0.862 . S
O1086 Co1054 1.920 . S
O1086 C1059 1.289 . S
C1087 O1079 1.258 . S
C1087 O1080 1.266 . S
Co1088 O1091 1.966 1_565 S
Co1088 N1105 1.989 . S
Co1088 O1113 1.967 . S
Co1088 O1120 1.920 1_565 S
Co1089 O1092 1.966 . S
Co1089 N1098 2.022 . S
Co1089 N1106 1.993 . S
Co1089 O1114 1.941 . S
C1090 O1091 1.236 1_565 S
C1090 O1092 1.263 . S
O1091 Co1088 1.966 1_545 S
O1091 C1090 1.236 1_545 S
O1092 Co1089 1.966 . S
O1092 C1090 1.263 . S
C1093 O1094 1.235 . S
C1093 O1120 1.289 . S
O1094 C1093 1.235 . S
C1095 C1097 1.400 . S
C1095 N1098 1.351 . S
C1095 C1100 1.501 . S
C1096 C1097 1.387 . S
C1096 N1099 1.341 . S
C1097 C1095 1.400 . S
C1097 C1096 1.387 . S
N1098 Co1089 2.022 . S
N1098 C1095 1.351 . S
N1098 N1099 1.365 . S
N1099 C1096 1.341 . S
N1099 N1098 1.365 . S
N1099 H1119 0.862 . S
C1100 C1095 1.501 . S
C1100 H1101 0.961 . S
C1100 H1102 0.961 . S
C1100 H1103 0.960 . S
H1101 C1100 0.961 . S
H1102 C1100 0.961 . S
H1103 C1100 0.960 . S
C1104 N1105 1.342 . S
C1104 C1108 1.401 . S
C1104 C1109 1.499 1_565 S
N1105 Co1088 1.989 . S
N1105 C1104 1.342 . S
N1105 N1106 1.388 . S
N1106 Co1089 1.993 . S
N1106 N1105 1.388 . S
N1106 C1107 1.346 . S
C1107 N1106 1.346 . S
C1107 C1108 1.396 . S
C1107 C1117 1.510 . S
C1108 C1104 1.401 . S
C1108 C1107 1.396 . S
C1109 C1104 1.499 1_545 S
C1109 H1110 0.959 . S
C1109 H1111 0.960 . S
C1109 H1112 0.961 1_545 S
H1110 C1109 0.959 . S
H1111 C1109 0.960 . S
H1112 C1109 0.961 1_565 S
O1113 Co1088 1.967 . S
O1113 C1121 1.258 . S
O1114 Co1089 1.941 . S
O1114 C1121 1.266 . S
H1115 C1117 0.959 . S
H1116 C1117 0.961 . S
C1117 C1107 1.510 . S
C1117 H1115 0.959 . S
C1117 H1116 0.961 . S
C1117 H1118 0.960 . S
H1118 C1117 0.960 . S
H1119 N1099 0.862 . S
O1120 Co1088 1.920 1_545 S
O1120 C1093 1.289 . S
C1121 O1113 1.258 . S
C1121 O1114 1.266 . S
Co1122 O1125 1.970 . S
Co1122 N1139 1.989 . S
Co1122 O1147 1.967 . S
Co1122 O1154 1.920 . S
Co1123 O1126 1.966 . S
Co1123 N1132 2.022 . S
Co1123 N1140 1.993 . S
Co1123 O1148 1.941 . S
C1124 O1125 1.258 . S
C1124 O1126 1.263 . S
O1125 Co1122 1.970 . S
O1125 C1124 1.258 . S
O1126 Co1123 1.966 . S
O1126 C1124 1.263 . S
C1127 O1128 1.235 . S
C1127 O1154 1.289 . S
O1128 C1127 1.235 . S
C1129 C1131 1.400 . S
C1129 N1132 1.351 . S
C1129 C1134 1.501 . S
C1130 C1131 1.387 . S
C1130 N1133 1.341 . S
C1131 C1129 1.400 . S
C1131 C1130 1.387 . S
N1132 Co1123 2.022 . S
N1132 C1129 1.351 . S
N1132 N1133 1.365 . S
N1133 C1130 1.341 . S
N1133 N1132 1.365 . S
N1133 H1153 0.862 . S
C1134 C1129 1.501 . S
C1134 H1135 0.961 . S
C1134 H1136 0.961 . S
C1134 H1137 0.960 . S
H1135 C1134 0.961 . S
H1136 C1134 0.961 . S
H1137 C1134 0.960 . S
C1138 N1139 1.342 . S
C1138 C1142 1.401 . S
C1138 C1143 1.499 . S
N1139 Co1122 1.989 . S
N1139 C1138 1.342 . S
N1139 N1140 1.388 . S
N1140 Co1123 1.993 . S
N1140 N1139 1.388 . S
N1140 C1141 1.346 . S
C1141 N1140 1.346 . S
C1141 C1142 1.396 . S
C1141 C1151 1.510 . S
C1142 C1138 1.401 . S
C1142 C1141 1.396 . S
C1143 C1138 1.499 . S
C1143 H1144 0.959 . S
C1143 H1145 0.960 . S
C1143 H1146 0.961 . S
H1144 C1143 0.959 . S
H1145 C1143 0.960 . S
H1146 C1143 0.961 . S
O1147 Co1122 1.967 . S
O1147 C1155 1.258 . S
O1148 Co1123 1.941 . S
O1148 C1155 1.266 . S
H1149 C1151 0.959 . S
H1150 C1151 0.961 . S
C1151 C1141 1.510 . S
C1151 H1149 0.959 . S
C1151 H1150 0.961 . S
C1151 H1152 0.960 . S
H1152 C1151 0.960 . S
H1153 N1133 0.862 . S
O1154 Co1122 1.920 . S
O1154 C1127 1.289 . S
C1155 O1147 1.258 . S
C1155 O1148 1.266 . S
Co1156 O1159 1.970 . S
Co1156 N1173 1.989 . S
Co1156 O1181 1.967 . S
Co1156 O1188 1.920 . S
Co1157 O1160 1.966 . S
Co1157 N1166 2.022 . S
Co1157 N1174 1.993 . S
Co1157 O1182 1.941 . S
C1158 O1159 1.258 . S
C1158 O1160 1.263 . S
O1159 Co1156 1.970 . S
O1159 C1158 1.258 . S
O1160 Co1157 1.966 . S
O1160 C1158 1.263 . S
C1161 O1162 1.235 . S
C1161 O1188 1.289 . S
O1162 C1161 1.235 . S
C1163 C1165 1.400 . S
C1163 N1166 1.351 . S
C1163 C1168 1.501 . S
C1164 C1165 1.387 . S
C1164 N1167 1.341 . S
C1165 C1163 1.400 . S
C1165 C1164 1.387 . S
N1166 Co1157 2.022 . S
N1166 C1163 1.351 . S
N1166 N1167 1.365 . S
N1167 C1164 1.341 . S
N1167 N1166 1.365 . S
N1167 H1187 0.862 . S
C1168 C1163 1.501 . S
C1168 H1169 0.961 . S
C1168 H1170 0.961 . S
C1168 H1171 0.960 . S
H1169 C1168 0.961 . S
H1170 C1168 0.961 . S
H1171 C1168 0.960 . S
C1172 N1173 1.342 . S
C1172 C1176 1.401 . S
C1172 C1177 1.499 . S
N1173 Co1156 1.989 . S
N1173 C1172 1.342 . S
N1173 N1174 1.388 . S
N1174 Co1157 1.993 . S
N1174 N1173 1.388 . S
N1174 C1175 1.346 . S
C1175 N1174 1.346 . S
C1175 C1176 1.396 . S
C1175 C1185 1.510 . S
C1176 C1172 1.401 . S
C1176 C1175 1.396 . S
C1177 C1172 1.499 . S
C1177 H1178 0.959 . S
C1177 H1179 0.960 . S
C1177 H1180 0.961 . S
H1178 C1177 0.959 . S
H1179 C1177 0.960 . S
H1180 C1177 0.961 . S
O1181 Co1156 1.967 . S
O1181 C1189 1.258 . S
O1182 Co1157 1.941 . S
O1182 C1189 1.266 . S
H1183 C1185 0.959 . S
H1184 C1185 0.961 . S
C1185 C1175 1.510 . S
C1185 H1183 0.959 . S
C1185 H1184 0.961 . S
C1185 H1186 0.960 . S
H1186 C1185 0.960 . S
H1187 N1167 0.862 . S
O1188 Co1156 1.920 . S
O1188 C1161 1.289 . S
C1189 O1181 1.258 . S
C1189 O1182 1.266 . S
Co1190 O1193 1.970 . S
Co1190 N1207 1.989 . S
Co1190 O1215 1.967 . S
Co1190 O1222 1.920 . S
Co1191 O1194 1.966 . S
Co1191 N1200 2.022 . S
Co1191 N1208 1.993 . S
Co1191 O1216 1.941 . S
C1192 O1193 1.258 . S
C1192 O1194 1.263 . S
O1193 Co1190 1.970 . S
O1193 C1192 1.258 . S
O1194 Co1191 1.966 . S
O1194 C1192 1.263 . S
C1195 O1196 1.235 . S
C1195 O1222 1.289 . S
O1196 C1195 1.235 . S
C1197 C1199 1.400 . S
C1197 N1200 1.351 . S
C1197 C1202 1.501 . S
C1198 C1199 1.387 . S
C1198 N1201 1.341 . S
C1199 C1197 1.400 . S
C1199 C1198 1.387 . S
N1200 Co1191 2.022 . S
N1200 C1197 1.351 . S
N1200 N1201 1.365 . S
N1201 C1198 1.341 . S
N1201 N1200 1.365 . S
N1201 H1221 0.862 . S
C1202 C1197 1.501 . S
C1202 H1203 0.961 . S
C1202 H1204 0.961 . S
C1202 H1205 0.960 . S
H1203 C1202 0.961 . S
H1204 C1202 0.961 . S
H1205 C1202 0.960 . S
C1206 N1207 1.342 . S
C1206 C1210 1.401 . S
C1206 C1211 1.499 . S
N1207 Co1190 1.989 . S
N1207 C1206 1.342 . S
N1207 N1208 1.388 . S
N1208 Co1191 1.993 . S
N1208 N1207 1.388 . S
N1208 C1209 1.346 . S
C1209 N1208 1.346 . S
C1209 C1210 1.396 . S
C1209 C1219 1.510 . S
C1210 C1206 1.401 . S
C1210 C1209 1.396 . S
C1211 C1206 1.499 . S
C1211 H1212 0.959 . S
C1211 H1213 0.960 . S
C1211 H1214 0.961 . S
H1212 C1211 0.959 . S
H1213 C1211 0.960 . S
H1214 C1211 0.961 . S
O1215 Co1190 1.967 . S
O1215 C1223 1.258 . S
O1216 Co1191 1.941 . S
O1216 C1223 1.266 . S
H1217 C1219 0.959 . S
H1218 C1219 0.961 . S
C1219 C1209 1.510 . S
C1219 H1217 0.959 . S
C1219 H1218 0.961 . S
C1219 H1220 0.960 . S
H1220 C1219 0.960 . S
H1221 N1201 0.862 . S
O1222 Co1190 1.920 . S
O1222 C1195 1.289 . S
C1223 O1215 1.258 . S
C1223 O1216 1.266 . S
C546 C2 1.986 . S
C36 C580 1.987 . S
C512 C70 1.987 . S
C104 C886 1.986 . S
C818 C138 1.986 . S
C172 C852 1.987 . S
C206 C1158 1.986 . S
C240 C1192 1.987 . S
C274 C1124 1.987 . S
C308 C682 1.986 . S
C342 C614 1.986 . S
C376 C648 1.987 . S
C410 C954 1.986 1_655 S
C988 C444 1.986 . S
C920 C478 1.986 1_565 S
C1090 C716 1.986 1_565 S
C1022 C750 1.986 1_455 S
C784 C1056 1.986 . S
C991 C5 1.489 . S
C39 C923 1.489 . S
C73 C957 1.490 . S
C107 C447 1.489 . S
C141 C481 1.489 . S
C413 C175 1.489 . S
C787 C209 1.489 . S
C243 C719 1.489 . S
C277 C753 1.490 . S
C1059 C311 1.489 . S
C1093 C345 1.489 . S
C1025 C379 1.489 . S
C515 C855 1.489 1_655 S
C549 C889 1.489 . S
C583 C821 1.489 1_545 S
C617 C1195 1.489 1_545 S
C1127 C651 1.489 1_455 S
C685 C1161 1.489 . S
C20 C632 1.942 . S
C54 C666 1.942 . S
C700 C88 1.942 . S
C122 C1142 1.942 . S
C156 C1176 1.942 . S
C190 C1210 1.942 . S
C836 C224 1.942 . S
C258 C870 1.942 . S
C904 C292 1.942 . S
C530 C326 1.942 . S
C564 C360 1.942 . S
C394 C598 1.942 . S
C1040 C428 1.942 1_455 S
C1074 C462 1.942 . S
C496 C1108 1.942 1_545 S
C938 C734 1.942 1_564 S
C768 C972 1.942 1_656 S
C1006 C802 1.942 1_554 S
C9 C271 1.255 1_545 S
C43 C305 1.255 1_655 S
C237 C77 1.255 . S
C407 C111 1.250 1_655 S
C339 C145 1.250 . S
C373 C179 1.250 1_545 S
C67 C213 1.255 1_545 S
C101 C247 1.255 1_655 S
C33 C281 1.255 . S
C315 C203 1.250 1_655 S
C349 C135 1.250 . S
C169 C383 1.250 1_565 S
C679 C417 1.250 . S
C451 C713 1.250 . S
C645 C485 1.250 . S
C815 C519 1.250 . S
C553 C747 1.250 . S
C587 C781 1.250 . S
C621 C475 1.250 . S
C655 C509 1.250 . S
C689 C441 1.250 . S
C723 C611 1.250 . S
C543 C757 1.250 . S
C577 C791 1.250 . S
C1087 C825 1.250 . S
C1121 C859 1.250 . S
C1053 C893 1.250 . S
C1223 C927 1.250 . S
C961 C1155 1.250 . S
C1189 C995 1.250 . S
C883 C1029 1.250 . S
C917 C1063 1.250 . S
C849 C1097 1.250 . S
C1131 C1019 1.250 . S
C1165 C951 1.250 . S
C985 C1199 1.250 . S
