# Generated by pormake.
# Topology fnh, (5)-cn, num edge types: 1
# Building blocks:
#     Node 0, Type 0, BuildingBlock: BEQFEK_clean_sbu_0, # of connection points: 5
#     Node 1, Type 0, BuildingBlock: BEQFEK_clean_sbu_0, # of connection points: 5
#     Node 2, Type 0, BuildingBlock: BEQFEK_clean_sbu_0, # of connection points: 5
#     Node 3, Type 0, BuildingBlock: BEQFEK_clean_sbu_0, # of connection points: 5
#     Node 4, Type 0, BuildingBlock: BEQFEK_clean_sbu_0, # of connection points: 5
#     Node 5, Type 0, BuildingBlock: BEQFEK_clean_sbu_0, # of connection points: 5
#     Node 6, Type 0, BuildingBlock: BEQFEK_clean_sbu_0, # of connection points: 5
#     Node 7, Type 0, BuildingBlock: BEQFEK_clean_sbu_0, # of connection points: 5
#     Node 8, Type 0, BuildingBlock: BEQFEK_clean_sbu_0, # of connection points: 5
#     Node 9, Type 0, BuildingBlock: BEQFEK_clean_sbu_0, # of connection points: 5
#     Node 10, Type 0, BuildingBlock: BEQFEK_clean_sbu_0, # of connection points: 5
#     Node 11, Type 0, BuildingBlock: BEQFEK_clean_sbu_0, # of connection points: 5
#     Node 12, Type 0, BuildingBlock: BEQFEK_clean_sbu_0, # of connection points: 5
#     Node 13, Type 0, BuildingBlock: BEQFEK_clean_sbu_0, # of connection points: 5
#     Node 14, Type 0, BuildingBlock: BEQFEK_clean_sbu_0, # of connection points: 5
#     Node 15, Type 0, BuildingBlock: BEQFEK_clean_sbu_0, # of connection points: 5
#     Node 16, Type 0, BuildingBlock: BEQFEK_clean_sbu_0, # of connection points: 5
#     Node 17, Type 0, BuildingBlock: BEQFEK_clean_sbu_0, # of connection points: 5
#     Edge 18, Type (0, 0), BuildingBlock: OJICUG_clean_linker_0, # of connection points: 2
#     Edge 19, Type (0, 0), BuildingBlock: OJICUG_clean_linker_0, # of connection points: 2
#     Edge 20, Type (0, 0), BuildingBlock: OJICUG_clean_linker_0, # of connection points: 2
#     Edge 21, Type (0, 0), BuildingBlock: OJICUG_clean_linker_0, # of connection points: 2
#     Edge 22, Type (0, 0), BuildingBlock: OJICUG_clean_linker_0, # of connection points: 2
#     Edge 23, Type (0, 0), BuildingBlock: OJICUG_clean_linker_0, # of connection points: 2
#     Edge 24, Type (0, 0), BuildingBlock: OJICUG_clean_linker_0, # of connection points: 2
#     Edge 25, Type (0, 0), BuildingBlock: OJICUG_clean_linker_0, # of connection points: 2
#     Edge 26, Type (0, 0), BuildingBlock: OJICUG_clean_linker_0, # of connection points: 2
#     Edge 27, Type (0, 0), BuildingBlock: OJICUG_clean_linker_0, # of connection points: 2
#     Edge 28, Type (0, 0), BuildingBlock: OJICUG_clean_linker_0, # of connection points: 2
#     Edge 29, Type (0, 0), BuildingBlock: OJICUG_clean_linker_0, # of connection points: 2
#     Edge 30, Type (0, 0), BuildingBlock: OJICUG_clean_linker_0, # of connection points: 2
#     Edge 31, Type (0, 0), BuildingBlock: OJICUG_clean_linker_0, # of connection points: 2
#     Edge 32, Type (0, 0), BuildingBlock: OJICUG_clean_linker_0, # of connection points: 2
#     Edge 33, Type (0, 0), BuildingBlock: OJICUG_clean_linker_0, # of connection points: 2
#     Edge 34, Type (0, 0), BuildingBlock: OJICUG_clean_linker_0, # of connection points: 2
#     Edge 35, Type (0, 0), BuildingBlock: OJICUG_clean_linker_0, # of connection points: 2
#     Edge 36, Type (0, 0), BuildingBlock: OJICUG_clean_linker_0, # of connection points: 2
#     Edge 37, Type (0, 0), BuildingBlock: OJICUG_clean_linker_0, # of connection points: 2
#     Edge 38, Type (0, 0), BuildingBlock: OJICUG_clean_linker_0, # of connection points: 2
#     Edge 39, Type (0, 0), BuildingBlock: OJICUG_clean_linker_0, # of connection points: 2
#     Edge 40, Type (0, 0), BuildingBlock: OJICUG_clean_linker_0, # of connection points: 2
#     Edge 41, Type (0, 0), BuildingBlock: OJICUG_clean_linker_0, # of connection points: 2
#     Edge 42, Type (0, 0), BuildingBlock: OJICUG_clean_linker_0, # of connection points: 2
#     Edge 43, Type (0, 0), BuildingBlock: OJICUG_clean_linker_0, # of connection points: 2
#     Edge 44, Type (0, 0), BuildingBlock: OJICUG_clean_linker_0, # of connection points: 2
#     Edge 45, Type (0, 0), BuildingBlock: OJICUG_clean_linker_0, # of connection points: 2
#     Edge 46, Type (0, 0), BuildingBlock: OJICUG_clean_linker_0, # of connection points: 2
#     Edge 47, Type (0, 0), BuildingBlock: OJICUG_clean_linker_0, # of connection points: 2
#     Edge 48, Type (0, 0), BuildingBlock: OJICUG_clean_linker_0, # of connection points: 2
#     Edge 49, Type (0, 0), BuildingBlock: OJICUG_clean_linker_0, # of connection points: 2
#     Edge 50, Type (0, 0), BuildingBlock: OJICUG_clean_linker_0, # of connection points: 2
#     Edge 51, Type (0, 0), BuildingBlock: OJICUG_clean_linker_0, # of connection points: 2
#     Edge 52, Type (0, 0), BuildingBlock: OJICUG_clean_linker_0, # of connection points: 2
#     Edge 53, Type (0, 0), BuildingBlock: OJICUG_clean_linker_0, # of connection points: 2
#     Edge 54, Type (0, 0), BuildingBlock: OJICUG_clean_linker_0, # of connection points: 2
#     Edge 55, Type (0, 0), BuildingBlock: OJICUG_clean_linker_0, # of connection points: 2
#     Edge 56, Type (0, 0), BuildingBlock: OJICUG_clean_linker_0, # of connection points: 2
#     Edge 57, Type (0, 0), BuildingBlock: OJICUG_clean_linker_0, # of connection points: 2
#     Edge 58, Type (0, 0), BuildingBlock: OJICUG_clean_linker_0, # of connection points: 2
#     Edge 59, Type (0, 0), BuildingBlock: OJICUG_clean_linker_0, # of connection points: 2
#     Edge 60, Type (0, 0), BuildingBlock: OJICUG_clean_linker_0, # of connection points: 2
#     Edge 61, Type (0, 0), BuildingBlock: OJICUG_clean_linker_0, # of connection points: 2
#     Edge 62, Type (0, 0), BuildingBlock: OJICUG_clean_linker_0, # of connection points: 2
# Relax obj value: 0.338
# Max RMSD: 0.096
# Mean RMSD: 0.096
data_MOF--net-fnh--node1-BEQFEK_clean_sbu_0--edge1-OJICUG_clean_linker_0
_symmetry_space_group_name_H-M    P1
_symmetry_Int_Tables_number       1
_symmetry_cell_setting            triclinic
loop_
_symmetry_equiv_pos_as_xyz
'x, y, z'
_cell_length_a     50.451051
_cell_length_b     50.526907
_cell_length_c     17.837665
_cell_angle_alpha  89.920423
_cell_angle_beta   89.991916
_cell_angle_gamma 120.0645
loop_
_atom_site_label
_atom_site_type_symbol
_atom_site_fract_x
_atom_site_fract_y
_atom_site_fract_z
_atom_type_partial_charge
Co0 Co 0.15028 0.22913 0.36218 0.0
Co1 Co 0.11237 0.241 0.26373 0.0
C2 C 0.08271 0.21088 0.40891 0.0
O3 O 0.10969 0.21561 0.42215 0.0
O4 O 0.07718 0.21715 0.34289 0.0
C5 C 0.14731 0.17866 0.41278 0.0
O6 O 0.11988 0.16723 0.3834 0.0
C7 C 0.0791 0.26309 0.17008 0.0
C8 C 0.11895 0.30119 0.11285 0.0
C9 C 0.08763 0.28788 0.12202 0.0
N10 N 0.10438 0.26246 0.18946 0.0
N11 N 0.12809 0.2854 0.15561 0.0
C12 C 0.0475 0.23901 0.19278 0.0
H13 H 0.04799 0.21967 0.22096 0.0
H14 H 1.03242 0.23033 0.14283 0.0
H15 H 1.03779 0.24902 0.23187 0.0
C16 C 0.16475 0.20434 0.22096 0.0
N17 N 0.14914 0.21557 0.25915 0.0
N18 N 0.13029 0.21817 0.21384 0.0
C19 C 0.13243 0.2073 0.145 0.0
C20 C 0.15452 0.19745 0.14593 0.0
C21 C 0.19197 0.20417 0.25359 0.0
H22 H 0.20182 0.22086 0.30015 0.0
H23 H 0.18474 0.18103 0.27575 0.0
H24 H 0.20993 0.21012 0.21039 0.0
O25 O 0.17915 0.27405 0.3733 0.0
O26 O 0.14458 0.28018 0.31389 0.0
H27 H 0.1284 0.22626 1.04161 0.0
H28 H 0.10538 0.18519 0.04752 0.0
C29 C 0.11385 0.20682 0.07928 0.0
H30 H 0.09419 0.20924 0.09808 0.0
H31 H 0.1507 0.29044 0.16227 0.0
O32 O 0.16566 0.20728 0.41338 0.0
C33 C 0.16959 0.29157 0.35031 0.0
Co34 Co 0.83157 0.93281 0.36298 0.0
Co35 Co 0.82494 0.88544 0.26539 0.0
C36 C 0.8525 0.88653 0.41507 0.0
O37 O 0.84564 0.90727 0.42815 0.0
O38 O 0.84864 0.87607 0.34814 0.0
C39 C 0.87909 0.98089 0.41689 0.0
O40 O 0.89164 0.96594 0.38759 0.0
C41 C 0.80122 0.82598 0.19991 0.0
C42 C 0.78846 0.8331 0.08656 0.0
C43 C 0.78726 0.81068 0.134 0.0
N44 N 0.81084 0.85575 0.19043 0.0
N45 N 0.80222 0.85974 0.12359 0.0
C46 C 0.80112 0.81234 0.27456 0.0
H47 H 0.79673 0.82478 0.31963 0.0
H48 H 0.82397 0.81487 0.28489 0.0
H49 H 0.78325 0.78779 0.27702 0.0
C50 C 0.85829 0.97399 0.22435 0.0
N51 N 0.84726 0.94688 0.26147 0.0
N52 N 0.84757 0.92661 0.21691 0.0
C53 C 0.86074 0.94089 0.15046 0.0
C54 C 0.86817 0.97211 0.1514 0.0
C55 C 0.85607 1.00025 0.2558 0.0
H56 H 0.83791 0.99215 0.29923 0.0
H57 H 0.87825 1.01675 0.2819 0.0
H58 H 0.85073 1.01212 0.21101 0.0
O59 O 0.78638 0.91431 0.36729 0.0
O60 O 0.78254 0.87502 0.30523 0.0
H61 H 0.8501 0.91895 0.04343 0.0
H62 H 0.89034 0.94109 0.06367 0.0
C63 C 0.8675 0.92536 0.08821 0.0
H64 H 0.86686 0.90434 0.10901 0.0
H65 H 0.80469 0.88034 0.10429 0.0
O66 O 0.8503 0.96967 0.41569 0.0
C67 C 0.76984 0.88767 0.34064 0.0
Co68 Co 0.12926 0.91196 0.36523 0.0
Co69 Co 0.17847 0.94988 0.26526 0.0
C70 C 0.17834 0.97989 0.4097 0.0
O71 O 0.15646 0.95284 0.42403 0.0
O72 O 0.18975 0.98526 0.34329 0.0
C73 C 0.08246 0.9161 0.41503 0.0
O74 O 0.09895 0.94308 0.3837 0.0
C75 C 0.2332 0.98412 0.17007 0.0
C76 C 0.23268 0.94495 0.11305 0.0
C77 C 0.24986 0.97631 0.12158 0.0
N78 N 0.20787 0.9584 0.19041 0.0
N79 N 0.20783 0.9351 0.1567 0.0
C80 C 0.23971 1.01539 0.19214 0.0
H81 H 0.25942 1.02565 0.23134 0.0
H82 H 0.2195 1.01424 0.21998 0.0
H83 H 0.24578 0.03035 0.14197 0.0
C84 C 0.08938 0.89631 0.22446 0.0
N85 N 0.11635 0.91242 0.26205 0.0
N86 N 0.13744 0.93146 0.21623 0.0
C87 C 0.12403 0.92906 0.14778 0.0
C88 C 0.09215 0.90645 0.14929 0.0
C89 C 0.06252 0.86881 0.25797 0.0
H90 H 0.06983 0.85992 0.30578 0.0
H91 H 0.04587 0.87534 0.27853 0.0
H92 H 0.05119 0.85041 0.21563 0.0
O93 O 0.1458 0.88348 0.3769 0.0
O94 O 0.18605 0.91797 0.31555 0.0
H95 H 0.14629 0.93361 0.04287 0.0
H96 H 0.12848 0.95676 0.05197 0.0
C97 C 0.14177 0.94796 0.08196 0.0
H98 H 0.16407 0.96742 0.10037 0.0
H99 H 0.19081 0.9123 0.16395 0.0
O100 O 0.09203 0.89718 0.41711 0.0
C101 C 0.17282 0.89313 0.35282 0.0
Co102 Co 0.2437 0.14282 0.70126 0.0
Co103 Co 0.24865 0.1028 0.80406 0.0
C104 C 0.22334 0.07476 0.65545 0.0
O105 O 0.23109 0.10245 0.64029 0.0
O106 O 0.22564 0.06843 0.7238 0.0
C107 C 0.19809 0.1394 0.62759 0.0
O108 O 0.1845 0.11533 0.67156 0.0
C109 C 0.27319 0.06929 0.87643 0.0
C110 C 0.28424 0.09007 0.98904 0.0
C111 C 0.28715 0.06937 0.94359 0.0
N112 N 0.26203 0.0883 0.88312 0.0
N113 N 0.26957 0.10143 0.94959 0.0
C114 C 0.27499 0.05594 0.80298 0.0
H115 H 0.27853 0.07212 0.75679 0.0
H116 H 0.25301 0.03457 0.79251 0.0
H117 H 0.29409 0.051 0.80263 0.0
C118 C 0.21439 0.15815 0.83384 0.0
N119 N 0.22602 0.14201 0.79978 0.0
N120 N 0.22542 0.12185 0.8465 0.0
C121 C 0.2115 0.12324 0.91119 0.0
C122 C 0.20408 0.14705 0.90741 0.0
C123 C 0.21583 0.18561 0.79792 0.0
H124 H 0.23307 0.1944 0.75219 0.0
H125 H 0.19315 0.17911 0.77346 0.0
H126 H 0.222 0.20402 0.83976 0.0
O127 O 0.28888 0.1698 0.70121 0.0
O128 O 0.29177 0.13428 0.76559 0.0
H129 H 0.22007 0.11115 1.01997 0.0
H130 H 0.18021 0.09353 0.99534 0.0
C131 C 0.20344 0.10062 0.97349 0.0
H132 H 0.20417 0.08019 0.95356 0.0
H133 H 0.26617 0.11923 0.96662 0.0
O134 O 0.2262 0.15891 0.63648 0.0
C135 C 0.30502 0.15963 0.73004 0.0
Co136 Co 0.9214 0.11533 0.70777 0.0
Co137 Co 0.96215 0.16076 0.80849 0.0
C138 C 0.98921 0.16261 0.6586 0.0
O139 O 0.9614 0.14253 0.6447 0.0
O140 O 0.99596 0.17171 0.72653 0.0
C141 C 0.92233 0.07239 0.63124 0.0
O142 O 0.94747 0.08268 0.67113 0.0
C143 C 0.99577 0.21921 0.87881 0.0
C144 C 0.97497 0.20981 0.99154 0.0
C145 C 0.99546 0.23334 0.94531 0.0
N146 N 0.97705 0.189 0.88663 0.0
N147 N 0.96392 0.1836 0.95318 0.0
C148 C 1.00888 0.23408 0.80482 0.0
H149 H 0.9927 0.22098 0.75906 0.0
H150 H 1.03048 0.23389 0.79452 0.0
H151 H 1.01343 0.25797 0.80347 0.0
C152 C 0.90715 0.07107 0.84059 0.0
N153 N 0.92302 0.09879 0.80593 0.0
N154 N 0.94324 0.11863 0.85211 0.0
C155 C 0.94205 0.10357 0.91715 0.0
C156 C 0.91847 0.07227 0.91392 0.0
C157 C 0.87964 0.04469 0.80576 0.0
H158 H 0.86178 0.0318 0.84862 0.0
H159 H 0.86993 0.05287 0.76171 0.0
H160 H 0.88649 0.02915 0.77935 0.0
O161 O 0.89456 0.13348 0.70915 0.0
O162 O 0.93056 0.1723 0.77121 0.0
H163 H 0.95383 0.12446 1.02556 0.0
H164 H 0.97158 0.10234 1.00219 0.0
C165 C 0.96455 0.11838 0.97952 0.0
H166 H 0.98504 0.13955 0.95942 0.0
H167 H 0.94619 0.1624 0.97084 0.0
O168 O 0.90361 0.0816 0.64418 0.0
C169 C 0.90491 0.1599 0.73702 0.0
Co170 Co 0.94948 0.821 0.70114 0.0
Co171 Co 0.90282 0.81157 0.80623 0.0
C172 C 0.89965 0.83968 0.66284 0.0
O173 O 0.92085 0.83376 0.64693 0.0
O174 O 0.88972 0.83505 0.73064 0.0
C175 C 0.99111 0.86821 0.6267 0.0
O176 O 0.98071 0.88175 0.67087 0.0
C177 C 0.84943 0.78889 0.90702 0.0
C178 C 0.85677 0.75563 0.97157 0.0
C179 C 0.83599 0.76545 0.95994 0.0
N180 N 0.87645 0.792 0.88733 0.0
N181 N 0.88058 0.77196 0.9257 0.0
C182 C 0.838 0.80927 0.87872 0.0
H183 H 0.81883 0.79633 0.83908 0.0
H184 H 0.85652 0.82941 0.84929 0.0
H185 H 0.82946 0.81724 0.92591 0.0
C186 C 0.99348 0.84899 0.83482 0.0
N187 N 0.96573 0.83699 0.80033 0.0
N188 N 0.94524 0.83477 0.84833 0.0
C189 C 0.95962 0.84646 0.91528 0.0
C190 C 0.9916 0.85633 0.91073 0.0
C191 C 1.02052 0.85024 0.79681 0.0
H192 H 1.01302 0.83432 0.74848 0.0
H193 H 1.03584 0.87375 0.77554 0.0
H194 H 1.03341 0.84391 0.83638 0.0
O195 O 0.93221 0.77593 0.6944 0.0
O196 O 0.89245 0.77103 0.75621 0.0
H197 H 0.93799 0.8292 1.02117 0.0
H198 H 0.9565 0.87029 1.01156 0.0
C199 C 0.94269 0.84818 0.98213 0.0
H200 H 0.92044 0.84579 0.96489 0.0
H201 H 0.89948 0.76899 0.91918 0.0
O202 O 0.98281 0.84024 0.63593 0.0
C203 C 0.90519 0.759 0.71875 0.0
Co204 Co 0.82127 0.56482 0.70224 0.0
Co205 Co 0.78088 0.57007 0.6014 0.0
C206 C 0.75338 0.54417 0.75052 0.0
O207 O 0.78115 0.55186 0.76476 0.0
O208 O 0.74681 0.54676 0.68255 0.0
C209 C 0.81959 0.52037 0.77786 0.0
O210 O 0.79475 0.50584 0.7368 0.0
C211 C 0.74654 0.59408 0.53037 0.0
C212 C 0.76758 0.60601 0.41792 0.0
C213 C 0.74647 0.60821 0.46356 0.0
N214 N 0.76602 0.58349 0.52323 0.0
N215 N 0.77929 0.59156 0.45689 0.0
C216 C 0.73284 0.59521 0.60395 0.0
H217 H 0.74909 0.59892 0.65007 0.0
H218 H 0.7117 0.57297 0.61408 0.0
H219 H 0.72736 0.61392 0.60479 0.0
C220 C 0.83586 0.53534 0.5691 0.0
N221 N 0.81997 0.54713 0.60378 0.0
N222 N 0.79992 0.54702 0.55744 0.0
C223 C 0.80123 0.53337 0.49221 0.0
C224 C 0.82473 0.52553 0.49551 0.0
C225 C 0.8632 0.53622 0.60428 0.0
H226 H 0.87276 0.55384 0.6489 0.0
H227 H 0.85621 0.51365 0.63006 0.0
H228 H 0.88122 0.54143 0.56176 0.0
O229 O 0.84809 0.60984 0.70207 0.0
O230 O 0.81227 0.61308 0.64006 0.0
H231 H 0.7898 0.54307 0.38396 0.0
H232 H 0.77188 0.50306 0.40637 0.0
C233 C 0.77891 0.52603 0.42955 0.0
H234 H 0.7584 0.52666 0.44955 0.0
H235 H 0.79739 0.58863 0.43961 0.0
O236 O 0.83858 0.54833 0.76581 0.0
C237 C 0.83781 0.6261 0.67481 0.0
Co238 Co 0.50089 0.27041 0.71224 0.0
Co239 Co 0.49174 0.22397 0.60817 0.0
C240 C 0.5199 0.22114 0.75229 0.0
O241 O 0.51374 0.24208 0.76879 0.0
O242 O 0.51539 0.21158 0.68442 0.0
C243 C 0.54871 0.31225 0.78292 0.0
O244 O 0.56158 0.30158 0.73734 0.0
C245 C 0.47691 0.17207 0.51192 0.0
C246 C 0.43606 0.16776 0.45402 0.0
C247 C 0.45278 0.1532 0.46476 0.0
N248 N 0.47376 0.19598 0.53002 0.0
N249 N 0.44939 0.19336 0.49542 0.0
C250 C 0.50373 0.16906 0.53588 0.0
H251 H 0.52265 0.19138 0.55566 0.0
H252 H 0.51218 0.16101 0.48868 0.0
H253 H 0.4967 0.15228 0.58245 0.0
C254 C 0.52879 0.31408 0.57731 0.0
N255 N 0.51684 0.28641 0.61218 0.0
N256 N 0.51465 0.26594 0.56435 0.0
C257 C 0.52639 0.28025 0.49727 0.0
C258 C 0.5362 0.31216 0.50143 0.0
C259 C 0.52992 0.34107 0.61492 0.0
H260 H 0.52347 0.35381 0.57518 0.0
H261 H 0.51398 0.33359 0.66337 0.0
H262 H 0.55345 0.35649 0.63592 0.0
O263 O 0.45563 0.25316 0.71879 0.0
O264 O 0.45071 0.21375 0.65571 0.0
H265 H 0.50939 0.25855 0.3915 0.0
H266 H 0.55052 0.27707 0.40152 0.0
C267 C 0.5283 0.26329 0.43081 0.0
H268 H 0.52589 0.24111 0.44846 0.0
H269 H 0.44133 0.20864 0.50187 0.0
O270 O 0.52062 0.30409 0.77612 0.0
C271 C 0.4386 0.22643 0.69313 0.0
Co272 Co 0.79496 0.24511 0.70108 0.0
Co273 Co 0.84486 0.28248 0.60164 0.0
C274 C 0.84484 0.31284 0.74493 0.0
O275 O 0.82263 0.28593 0.75887 0.0
O276 O 0.85644 0.31821 0.67869 0.0
C277 C 0.74851 0.25058 0.74864 0.0
O278 O 0.76548 0.2774 0.71694 0.0
C279 C 0.89993 0.3146 0.50564 0.0
C280 C 0.89695 0.27416 0.44924 0.0
C281 C 0.91541 0.30543 0.45688 0.0
N282 N 0.87399 0.28969 0.52692 0.0
N283 N 0.8725 0.26563 0.49357 0.0
C284 C 0.90819 0.34644 0.52718 0.0
H285 H 0.92812 0.35599 0.56572 0.0
H286 H 0.88869 0.34654 0.55565 0.0
H287 H 0.91469 0.36127 0.47668 0.0
C288 C 0.75583 0.22918 0.55939 0.0
N289 N 0.78265 0.24532 0.59747 0.0
N290 N 0.80395 0.26419 0.5519 0.0
C291 C 0.79081 0.26167 0.48299 0.0
C292 C 0.75889 0.23916 0.48404 0.0
C293 C 0.72885 0.20177 0.59275 0.0
H294 H 0.73588 0.19317 0.6417 0.0
H295 H 0.712 0.20829 0.61158 0.0
H296 H 0.71785 0.18317 0.55076 0.0
O297 O 0.81113 0.21654 0.71516 0.0
O298 O 0.85196 0.25082 0.65498 0.0
H299 H 0.81328 0.26574 0.37866 0.0
H300 H 0.7958 0.28923 0.38649 0.0
C301 C 0.80884 0.28032 0.41717 0.0
H302 H 0.83118 0.29968 0.43569 0.0
H303 H 0.85473 0.24321 0.5015 0.0
O304 O 0.75759 0.23129 0.75195 0.0
C305 C 0.83841 0.22619 0.69299 0.0
Co306 Co 0.91088 0.47323 0.04502 0.0
Co307 Co 0.91856 0.43307 0.14253 0.0
C308 C 0.89071 0.4061 0.99382 0.0
O309 O 0.89718 0.43359 0.98067 0.0
O310 O 0.89482 0.39959 0.06072 0.0
C311 C 0.86242 0.47252 0.99307 0.0
O312 O 0.85056 0.44513 1.02288 0.0
C313 C 0.94333 0.39844 0.2102 0.0
C314 C 0.9566 0.41978 0.32194 0.0
C315 C 0.95789 0.39822 0.2762 0.0
N316 N 0.93336 0.41837 0.21807 0.0
N317 N 0.94223 0.43181 0.28392 0.0
C318 C 0.94313 0.38408 0.13667 0.0
H319 H 0.94663 0.40014 0.0902 0.0
H320 H 0.92048 0.36324 0.12842 0.0
H321 H 0.96145 0.37803 0.1344 0.0
C322 C 0.88467 0.48774 0.18424 0.0
N323 N 0.89571 0.47176 0.1469 0.0
N324 N 0.89573 0.45132 0.19147 0.0
C325 C 0.88274 0.45241 0.25822 0.0
C326 C 0.87507 0.47603 0.25742 0.0
C327 C 0.88657 0.51609 0.15268 0.0
H328 H 0.89227 0.53344 0.19722 0.0
H329 H 0.90434 0.52603 0.10829 0.0
H330 H 0.86416 0.51027 0.12783 0.0
O331 O 0.95596 0.50033 1.03917 0.0
O332 O 0.9607 0.46522 0.10075 0.0
H333 H 0.89391 0.44145 0.36515 0.0
H334 H 0.85359 0.42291 0.3456 0.0
C335 C 0.87641 0.43025 0.32069 0.0
H336 H 0.87725 0.40997 0.3 0.0
H337 H 0.93957 0.44998 0.30176 0.0
O338 O 0.89116 0.49054 0.99282 0.0
C339 C 0.9729 0.49049 0.0648 0.0
Co340 Co 0.59166 0.44809 0.04391 0.0
Co341 Co 0.62888 0.49802 0.14271 0.0
C342 C 0.65927 0.49808 0.99874 0.0
O343 O 0.6324 0.47576 0.98503 0.0
O344 O 0.66452 0.5097 0.06483 0.0
C345 C 0.59717 0.40177 0.99621 0.0
O346 O 0.6241 0.41879 1.0273 0.0
C347 C 0.66198 0.55304 0.23725 0.0
C348 C 0.62209 0.55162 0.29317 0.0
C349 C 0.65349 0.56929 0.2852 0.0
N350 N 0.6366 0.52745 0.21667 0.0
N351 N 0.61286 0.52689 0.24971 0.0
C352 C 0.6936 0.56018 0.21605 0.0
H353 H 0.70379 0.57998 0.17708 0.0
H354 H 0.69301 0.54027 0.18825 0.0
H355 H 0.70833 0.56635 0.26663 0.0
C356 C 0.5762 0.40905 0.18583 0.0
N357 N 0.59218 0.43586 0.14758 0.0
N358 N 0.61093 0.45722 0.19303 0.0
C359 C 0.60851 0.44412 0.262 0.0
C360 C 0.58619 0.41217 0.26114 0.0
C361 C 0.54884 0.38199 0.15274 0.0
H362 H 0.54002 0.38894 0.1041 0.0
H363 H 0.55556 0.36536 0.13354 0.0
H364 H 0.53029 0.37082 0.19498 0.0
O365 O 0.56263 0.46383 1.03077 0.0
O366 O 0.59665 0.50469 0.09083 0.0
H367 H 0.61229 0.46641 0.36628 0.0
H368 H 0.63618 0.44936 0.3584 0.0
C369 C 0.62705 0.46221 0.32772 0.0
H370 H 0.6463 0.48463 0.3091 0.0
H371 H 0.5902 0.50956 0.24222 0.0
O372 O 0.57779 0.41076 0.99334 0.0
C373 C 0.57189 0.49091 0.0534 0.0
Co374 Co 0.61764 0.15351 1.03321 0.0
Co375 Co 0.57082 0.14402 0.13695 0.0
C376 C 0.56825 0.17233 0.99269 0.0
O377 O 0.58931 0.16628 0.97633 0.0
O378 O 0.5585 0.16766 0.06047 0.0
C379 C 0.65957 0.20159 0.96359 0.0
O380 O 0.64867 0.21411 1.00957 0.0
C381 C 0.51879 0.12942 0.23311 0.0
C382 C 0.51391 0.08829 0.29066 0.0
C383 C 0.49966 0.10533 0.28017 0.0
N384 N 0.54254 0.12597 0.21482 0.0
N385 N 0.53957 0.10143 0.2492 0.0
C386 C 0.51619 0.15648 0.20952 0.0
H387 H 0.53866 0.17523 0.18967 0.0
H388 H 0.50832 0.16501 0.25694 0.0
H389 H 0.4994 0.14976 0.1631 0.0
C390 C 0.66102 0.18135 0.16828 0.0
N391 N 0.63336 0.16931 0.13335 0.0
N392 N 0.61273 0.16701 0.18106 0.0
C393 C 0.62694 0.17877 0.24813 0.0
C394 C 0.65894 0.18871 0.24405 0.0
C395 C 0.68817 0.18261 0.13085 0.0
H396 H 0.6808 0.16664 0.08265 0.0
H397 H 0.70351 0.20611 0.10951 0.0
H398 H 0.701 0.17635 0.1708 0.0
O399 O 0.60057 0.10833 1.02666 0.0
O400 O 0.56093 0.10315 0.08967 0.0
H401 H 0.60509 0.16169 0.35389 0.0
H402 H 0.62353 0.20275 0.34371 0.0
C403 C 0.60982 0.18057 0.31449 0.0
H404 H 0.5876 0.17809 0.29674 0.0
H405 H 0.55469 0.09317 0.24264 0.0
O406 O 0.65155 0.17355 0.96972 0.0
C407 C 0.5738 0.0912 0.05238 0.0
Co408 Co 0.49058 0.89663 0.0462 0.0
Co409 Co 0.45052 0.90145 0.94341 0.0
C410 C 0.42246 0.8768 0.09231 0.0
O411 O 0.4502 0.88454 0.10728 0.0
O412 O 0.41604 0.87876 1.02384 0.0
C413 C 0.48631 0.85076 0.11986 0.0
O414 O 0.46241 0.83762 0.07532 0.0
C415 C 0.41773 0.92668 0.8708 0.0
C416 C 0.4386 0.93738 0.75809 0.0
C417 C 0.41821 0.94083 0.8036 0.0
N418 N 0.43626 0.91495 0.86411 0.0
N419 N 0.44943 0.92224 0.79756 0.0
C420 C 0.40454 0.92882 0.94425 0.0
H421 H 0.42058 0.93195 0.99044 0.0
H422 H 0.38282 0.90716 0.95478 0.0
H423 H 0.40017 0.94828 0.94456 0.0
C424 C 0.50581 0.86709 0.91383 0.0
N425 N 0.48972 0.87881 0.94783 0.0
N426 N 0.46945 0.87809 0.9013 0.0
C427 C 0.4707 0.864 0.83686 0.0
C428 C 0.49456 0.8566 0.84049 0.0
C429 C 0.53329 0.86851 0.94964 0.0
H430 H 0.54203 0.88562 0.99548 0.0
H431 H 0.52681 0.84582 0.97392 0.0
H432 H 0.55177 0.87479 0.90774 0.0
O433 O 0.51782 0.94174 0.04575 0.0
O434 O 0.48214 0.94447 0.98156 0.0
H435 H 0.45827 0.87215 0.72803 0.0
H436 H 0.44063 0.83244 0.75389 0.0
C437 C 0.44785 0.85574 0.77505 0.0
H438 H 0.42748 0.8566 0.79523 0.0
H439 H 0.46701 0.91844 0.78055 0.0
O440 O 0.50621 0.87876 0.11142 0.0
C441 C 0.50756 0.95778 1.01685 0.0
Co442 Co 0.16707 0.60474 0.04814 0.0
Co443 Co 0.16247 0.56003 0.94527 0.0
C444 C 0.1876 0.55705 0.09315 0.0
O445 O 0.17968 0.57684 0.10833 0.0
O446 O 0.18567 0.5487 1.02472 0.0
C447 C 0.21242 0.64679 0.12294 0.0
O448 O 0.22625 0.63653 0.07926 0.0
C449 C 0.13742 0.50213 0.87247 0.0
C450 C 0.12629 0.51225 0.76024 0.0
C451 C 0.12315 0.48846 0.80546 0.0
N452 N 0.14892 0.53236 0.86594 0.0
N453 N 0.14137 0.53821 0.7997 0.0
C454 C 0.1356 0.48678 0.94574 0.0
H455 H 0.13259 0.49959 0.99228 0.0
H456 H 0.15738 0.48688 0.95546 0.0
H457 H 0.11617 0.4629 0.94636 0.0
C458 C 0.19621 0.64967 0.91565 0.0
N459 N 0.18465 0.62186 0.94967 0.0
N460 N 0.1854 0.60242 0.90298 0.0
C461 C 0.19934 0.61785 0.83836 0.0
C462 C 0.20661 0.64904 0.84211 0.0
C463 C 0.19474 0.67562 0.95169 0.0
H464 H 0.17758 0.66709 0.99759 0.0
H465 H 0.21744 0.69185 0.97591 0.0
H466 H 0.18845 0.68783 0.90994 0.0
O467 O 0.12193 0.58614 0.04899 0.0
O468 O 0.11948 0.54776 0.98564 0.0
H469 H 0.19111 0.59734 0.72957 0.0
H470 H 0.2309 0.61975 0.75468 0.0
C471 C 0.20766 0.60348 0.77627 0.0
H472 H 0.20702 0.58235 0.79631 0.0
H473 H 0.14496 0.55951 0.78293 0.0
O474 O 0.18434 0.63812 0.11337 0.0
C475 C 0.10606 0.55957 1.02149 0.0
Co476 Co 0.45857 0.57152 0.04586 0.0
Co477 Co 0.50338 0.61229 0.94324 0.0
C478 C 0.50614 0.63956 0.09241 0.0
O479 O 0.48641 0.61173 0.10724 0.0
O480 O 0.51459 0.64624 1.02405 0.0
C481 C 0.41654 0.57475 0.12002 0.0
O482 O 0.42705 0.59876 0.07588 0.0
C483 C 0.56143 0.64615 0.87074 0.0
C484 C 0.5516 0.62553 0.75792 0.0
C485 C 0.57528 0.64608 0.80354 0.0
N486 N 0.5312 0.62719 0.86402 0.0
N487 N 0.52553 0.6142 0.79737 0.0
C488 C 0.57668 0.65946 0.94415 0.0
H489 H 0.56411 0.64318 0.99028 0.0
H490 H 0.57601 0.68074 0.95496 0.0
H491 H 0.6008 0.66458 0.9442 0.0
C492 C 0.41379 0.55645 0.91386 0.0
N493 N 0.44161 0.57261 0.94781 0.0
N494 N 0.46107 0.59313 0.90147 0.0
C495 C 0.44565 0.59195 0.83721 0.0
C496 C 0.41446 0.56792 0.84086 0.0
C497 C 0.38784 0.5287 0.9493 0.0
H498 H 0.39643 0.5198 0.99438 0.0
H499 H 0.37158 0.5349 0.97452 0.0
H500 H 0.37561 0.51048 0.90698 0.0
O501 O 0.47692 0.54481 0.04455 0.0
O502 O 0.51516 0.58088 0.98045 0.0
H503 H 0.46634 0.60491 0.72852 0.0
H504 H 0.44373 0.62192 0.7545 0.0
C505 C 0.46007 0.61499 0.77564 0.0
H506 H 0.48116 0.63546 0.79604 0.0
H507 H 0.50427 0.59643 0.78029 0.0
O508 O 0.42497 0.55517 0.11098 0.0
C509 C 0.50325 0.55538 1.01532 0.0
Co510 Co 0.57444 0.80138 0.38387 0.0
Co511 Co 0.58746 0.76414 0.48191 0.0
C512 C 0.55582 0.73377 0.339 0.0
O513 O 0.5603 0.76058 0.32528 0.0
O514 O 0.56281 0.72863 0.40459 0.0
C515 C 0.52354 0.7986 0.33521 0.0
O516 O 0.51195 0.77121 0.36485 0.0
C517 C 0.60838 0.73025 0.57677 0.0
C518 C 0.64826 0.76959 0.6302 0.0
C519 C 0.63327 0.73811 0.6239 0.0
N520 N 0.60926 0.75601 0.55502 0.0
N521 N 0.63329 0.77941 0.5865 0.0
C522 C 0.58272 0.69896 0.55785 0.0
H523 H 0.59132 0.68752 0.51995 0.0
H524 H 0.56382 0.70029 0.52972 0.0
H525 H 0.57385 0.68494 0.60953 0.0
C526 C 0.55076 0.81644 0.52607 0.0
N527 N 0.56185 0.80079 0.4876 0.0
N528 N 0.56498 0.78231 0.53304 0.0
C529 C 0.55452 0.78469 0.60232 0.0
C530 C 0.54443 0.80658 0.6015 0.0
C531 C 0.55022 0.84341 0.49313 0.0
H532 H 0.56664 0.85312 0.44584 0.0
H533 H 0.52687 0.83597 0.47198 0.0
H534 H 0.55636 0.8615 0.53588 0.0
O535 O 0.61933 0.8299 0.36964 0.0
O536 O 0.62631 0.79583 0.4288 0.0
H537 H 0.57419 0.78129 0.70516 0.0
H538 H 0.53307 0.75801 0.70088 0.0
C539 C 0.55457 0.76648 0.66831 0.0
H540 H 0.55709 0.74689 0.64973 0.0
H541 H 0.63949 0.80224 0.57806 0.0
O542 O 0.55225 0.81666 0.33364 0.0
C543 C 0.63718 0.82051 0.39115 0.0
Co544 Co 0.26009 0.78481 0.38645 0.0
Co545 Co 0.29805 0.83474 0.48404 0.0
C546 C 0.32778 0.8335 0.33932 0.0
O547 O 0.30076 0.81136 0.32603 0.0
O548 O 0.33317 0.84553 0.40497 0.0
C549 C 0.26266 0.737 0.3372 0.0
O550 O 0.29007 0.75294 0.36675 0.0
C551 C 0.33312 0.88959 0.57785 0.0
C552 C 0.29433 0.89047 0.63352 0.0
C553 C 0.3258 0.90684 0.62551 0.0
N554 N 0.30705 0.8647 0.55745 0.0
N555 N 0.28398 0.86552 0.59034 0.0
C556 C 0.36421 0.89505 0.55697 0.0
H557 H 0.37536 0.91486 0.51818 0.0
H558 H 0.36248 0.87463 0.52911 0.0
H559 H 0.37874 0.90043 0.60772 0.0
C560 C 0.24567 0.74574 0.52824 0.0
N561 N 0.26124 0.77256 0.48978 0.0
N562 N 0.28006 0.79407 0.53493 0.0
C563 C 0.27797 0.78111 0.60391 0.0
C564 C 0.25593 0.74915 0.60325 0.0
C565 C 0.21842 0.71829 0.49588 0.0
H566 H 0.20055 0.70622 0.53926 0.0
H567 H 0.20844 0.72511 0.44948 0.0
H568 H 0.22566 0.70243 0.47357 0.0
O569 O 0.23131 0.80103 0.37502 0.0
O570 O 0.26569 0.84182 0.43435 0.0
H571 H 0.28204 0.80413 0.70712 0.0
H572 H 0.30506 0.78609 0.70138 0.0
C573 C 0.29658 0.79924 0.66949 0.0
H574 H 0.31623 0.82133 0.65053 0.0
H575 H 0.261 0.84894 0.5831 0.0
O576 O 0.24443 0.74741 0.33603 0.0
C577 C 0.24064 0.82805 0.39807 0.0
Co578 Co 0.27919 0.48674 0.38634 0.0
Co579 Co 0.22901 0.4746 0.48407 0.0
C580 C 0.23065 0.5058 0.33976 0.0
O581 O 0.25281 0.50097 0.32642 0.0
O582 O 0.21846 0.49904 0.40532 0.0
C583 C 0.32751 0.53715 0.33723 0.0
O584 O 0.31177 0.54885 0.36659 0.0
C585 C 0.17412 0.45471 0.57837 0.0
C586 C 0.173 0.41484 0.63344 0.0
C587 C 0.15678 0.43007 0.62602 0.0
N588 N 0.19892 0.45345 0.55743 0.0
N589 N 0.19795 0.42945 0.58993 0.0
C590 C 0.16887 0.48047 0.5581 0.0
H591 H 0.14893 0.47195 0.5198 0.0
H592 H 0.18932 0.49914 0.52993 0.0
H593 H 0.16371 0.48961 0.60918 0.0
C594 C 0.318 0.51101 0.52798 0.0
N595 N 0.29121 0.49987 0.48956 0.0
N596 N 0.26965 0.49716 0.53469 0.0
C597 C 0.28256 0.50794 0.60365 0.0
C598 C 0.31451 0.51779 0.60291 0.0
C599 C 0.34543 0.51113 0.4957 0.0
H600 H 0.33856 0.49431 0.44946 0.0
H601 H 0.36142 0.53421 0.47317 0.0
H602 H 0.35743 0.50532 0.53917 0.0
O603 O 0.26277 0.44182 0.37452 0.0
O604 O 0.22193 0.43542 0.43387 0.0
H605 H 0.25925 0.48887 0.70672 0.0
H606 H 0.27765 0.52996 0.70128 0.0
C607 C 0.26438 0.50841 0.66923 0.0
H608 H 0.24238 0.50614 0.65025 0.0
H609 H 0.21444 0.42299 0.58228 0.0
O610 O 0.31673 0.50847 0.33609 0.0
C611 C 0.23565 0.42418 0.3974 0.0
C612 C 0.17538 0.17602 0.9499 0.0
C613 C 0.19005 0.15899 0.96801 0.0
H614 H 0.15453 0.20203 0.98667 0.0
C615 C 0.19133 0.15406 0.04585 0.0
H616 H 0.17212 0.17992 0.89206 0.0
C617 C 0.17905 0.16529 0.10118 0.0
C618 C 0.16583 0.18362 0.08351 0.0
H619 H 0.20228 0.14174 0.0656 0.0
H620 H 0.17996 0.15911 0.15861 0.0
C621 C 0.16418 0.18836 1.00564 0.0
C622 C 0.89153 1.01485 0.95638 0.0
C623 C 0.90682 0.04648 0.97474 0.0
H624 H 0.86696 0.96786 0.99275 0.0
C625 C 0.91015 0.05276 0.05269 0.0
H626 H 0.88893 1.00788 0.89843 0.0
C627 C 0.89882 0.0292 0.10812 0.0
C628 C 0.88231 0.99759 0.08988 0.0
H629 H 0.92116 0.07609 0.07213 0.0
H630 H 0.90335 0.03623 0.16601 0.0
C631 C 0.8793 0.99124 1.01194 0.0
C632 C 0.07295 0.8981 1.00916 0.0
C633 C 0.06666 0.89468 0.08722 0.0
H634 H 0.05646 0.89181 0.89597 0.0
C635 C 1.0349 0.87941 0.10514 0.0
H636 H 0.09632 0.90933 0.9896 0.0
C637 C 1.01131 0.86691 0.04982 0.0
C638 C 1.01751 0.87011 0.97179 0.0
H639 H 1.02759 0.87705 0.16268 0.0
H640 H 0.98804 0.85438 0.06976 0.0
C641 C 0.04928 0.88684 0.95366 0.0
C642 C 0.80184 0.77045 0.13582 0.0
C643 C 0.78334 0.78142 0.10609 0.0
H644 H 0.83357 0.75577 0.10946 0.0
C645 C 0.77154 0.77231 1.03328 0.0
H646 H 0.81037 0.77526 0.19242 0.0
C647 C 0.78556 0.76146 0.98469 0.0
C648 C 0.81048 0.75901 1.01035 0.0
H649 H 0.75577 0.77878 1.00994 0.0
H650 H 0.77993 0.75933 0.92562 0.0
C651 C 0.81545 0.75918 0.08762 0.0
C652 C 0.30688 0.0507 0.04509 0.0
C653 C 0.29401 0.04615 0.97301 0.0
H654 H 0.3024 0.03027 0.15294 0.0
C655 C 0.27806 1.01624 0.94436 0.0
H656 H 0.32062 0.07355 0.06759 0.0
C657 C 0.26816 0.99158 0.99296 0.0
C658 C 0.27387 0.99702 0.06981 0.0
H659 H 0.26852 1.01132 0.88868 0.0
H660 H 0.25171 0.96904 0.97234 0.0
C661 C 0.29644 1.02598 0.09414 0.0
C662 C 0.04838 0.2779 0.94499 0.0
C663 C 1.0184 0.26375 0.97373 0.0
H664 H 0.09556 0.29843 0.97305 0.0
C665 C 1.01381 0.27205 0.04578 0.0
H666 H 0.05333 0.27351 0.88913 0.0
C667 C 1.03849 0.28601 0.09501 0.0
C668 C 0.06742 0.29216 0.07072 0.0
H669 H 0.99091 0.26293 0.06828 0.0
H670 H 1.03411 0.28748 0.15385 0.0
C671 C 0.07301 0.29237 0.99376 0.0
C672 C 0.83307 0.51452 0.35664 0.0
C673 C 0.83643 0.51151 0.43458 0.0
H674 H 0.83975 0.50488 0.2433 0.0
C675 C 0.85178 0.49519 0.45277 0.0
H676 H 0.82202 0.52682 0.33725 0.0
C677 C 0.86403 0.48391 0.3971 0.0
C678 C 0.86096 0.4873 0.31915 0.0
H679 H 0.85441 0.49073 0.51068 0.0
H680 H 0.87639 0.47287 0.41621 0.0
C681 C 0.84439 0.50237 0.30112 0.0
C682 C 0.57771 0.39329 0.40173 0.0
C683 C 0.5745 0.38687 0.32377 0.0
H684 H 0.5713 0.37704 0.51523 0.0
C685 C 0.55951 0.35513 0.30645 0.0
H686 H 0.58876 0.41665 0.42087 0.0
C687 C 0.54702 0.33167 0.36212 0.0
C688 C 0.54998 0.33798 0.44003 0.0
H689 H 0.55738 0.34772 0.24912 0.0
H690 H 0.53468 0.30841 0.3425 0.0
C691 C 0.56649 0.36975 0.45764 0.0
C692 C 0.74007 0.23064 0.34355 0.0
C693 C 0.73357 0.22732 0.42152 0.0
H694 H 0.72386 0.22422 0.23009 0.0
C695 C 0.70177 0.2121 0.43892 0.0
H696 H 0.76348 0.24184 0.32434 0.0
C697 C 0.67833 0.19952 0.38331 0.0
C698 C 0.68472 0.2026 0.3054 0.0
H699 H 0.69429 0.20986 0.49626 0.0
H700 H 0.65501 0.18702 0.40294 0.0
C701 C 0.71653 0.21931 0.2877 0.0
C702 C 0.47297 0.09642 0.40126 0.0
C703 C 0.47388 0.10246 0.32427 0.0
H704 H 0.46301 0.1071 0.50966 0.0
C705 C 0.45539 0.11346 0.29535 0.0
H706 H 0.48576 0.08641 0.42473 0.0
C707 C 0.4435 0.12638 0.34395 0.0
C708 C 0.44961 0.12731 0.42088 0.0
H709 H 0.45389 0.11612 0.23554 0.0
H710 H 0.4337 0.13934 0.32042 0.0
C711 C 0.46033 0.1086 0.44987 0.0
C712 C 0.94546 0.34398 0.27819 0.0
C713 C 0.96309 0.37391 0.30588 0.0
H714 H 0.91637 0.29727 0.30771 0.0
C715 C 0.97582 0.37797 0.37806 0.0
H716 H 0.93609 0.33931 0.22237 0.0
C717 C 0.96366 0.35349 0.42812 0.0
C718 C 0.93976 0.32509 0.40451 0.0
H719 H 0.99086 0.4007 0.39987 0.0
H720 H 0.96971 0.3578 0.48687 0.0
C721 C 0.93388 0.31947 0.32775 0.0
C722 C 0.66817 0.58749 0.41395 0.0
C723 C 0.6737 0.59341 0.33714 0.0
H724 H 0.68797 0.58827 0.51839 0.0
C725 C 0.70253 0.61649 0.31302 0.0
H726 H 0.64571 0.57061 0.43435 0.0
C727 C 0.72721 0.62745 0.36229 0.0
C728 C 0.7228 0.61449 0.43431 0.0
H729 H 0.70684 0.62255 0.25423 0.0
H730 H 0.75006 0.64167 0.33992 0.0
C731 C 0.69282 0.5979 0.46276 0.0
C732 C 0.53593 0.81674 0.74196 0.0
C733 C 0.53075 0.81798 0.66418 0.0
H734 H 0.52799 0.82511 0.8556 0.0
C735 C 0.51211 0.83089 0.6468 0.0
H736 H 0.54983 0.80731 0.76072 0.0
C737 C 0.50104 0.8433 0.70217 0.0
C738 C 0.5064 0.84244 0.77991 0.0
H739 H 0.50556 0.83146 0.58956 0.0
H740 H 0.48849 0.854 0.68246 0.0
C741 C 0.52374 0.82806 0.79783 0.0
C742 C 0.2351 0.70676 0.79949 0.0
C743 C 0.22059 0.67508 0.78149 0.0
H744 H 0.25581 0.75365 0.7625 0.0
C745 C 0.21941 0.66891 0.70367 0.0
H746 H 0.23827 0.7139 0.8573 0.0
C747 C 0.23164 0.69246 0.64827 0.0
C748 C 0.2447 0.72399 0.66582 0.0
H749 H 0.20857 0.64566 0.68398 0.0
H750 H 0.23081 0.68541 0.59088 0.0
C751 C 0.24627 0.73034 0.74365 0.0
C752 C 0.37116 0.5502 0.64756 0.0
C753 C 0.3396 0.53162 0.66529 0.0
H754 H 0.418 0.57386 0.68303 0.0
C755 C 0.33317 0.52656 0.74306 0.0
H756 H 0.37822 0.5566 0.59017 0.0
C757 C 0.35674 0.53884 0.79875 0.0
C758 C 0.38846 0.55609 0.78052 0.0
H759 H 0.30981 0.51269 0.76192 0.0
H760 H 0.34959 0.5347 0.8566 0.0
C761 C 0.3947 0.56136 0.70278 0.0
C762 C 0.13082 0.44352 0.80411 0.0
C763 C 0.11541 0.45815 0.77604 0.0
H764 H 0.15567 0.42123 0.77526 0.0
C765 C 0.102 0.44995 0.70447 0.0
H766 H 0.14078 0.44811 0.85933 0.0
C767 C 0.11137 0.43488 0.65514 0.0
C768 C 0.1334 0.42757 0.67867 0.0
H769 H 0.08869 0.45963 0.68244 0.0
H770 H 0.10512 0.43327 0.59655 0.0
C771 C 0.13958 0.42792 0.75527 0.0
C772 C 0.63532 0.72344 0.75352 0.0
C773 C 0.63615 0.71764 0.67709 0.0
H774 H 0.61467 0.70424 0.85731 0.0
C775 C 0.62936 0.68844 0.65405 0.0
H776 H 0.64156 0.74614 0.77304 0.0
C777 C 0.61432 0.66396 0.70347 0.0
C778 C 0.60564 0.66898 0.77462 0.0
H779 H 0.63128 0.68386 0.5956 0.0
H780 H 0.60497 0.64099 0.68165 0.0
C781 C 0.61975 0.69902 0.80245 0.0
C782 C 0.40069 0.96189 0.70263 0.0
C783 C 0.39563 0.94865 0.77444 0.0
H784 H 0.38064 0.95851 0.59485 0.0
C785 C 0.3656 0.93335 0.80295 0.0
H786 H 0.42368 0.97514 0.68027 0.0
C787 C 0.34109 0.92443 0.75435 0.0
C788 C 0.34678 0.93039 0.67759 0.0
H789 H 0.36034 0.92354 0.85839 0.0
H790 H 0.31832 0.9084 0.77472 0.0
C791 C 0.3761 0.95239 0.65357 0.0
C792 C 0.18727 0.37366 0.37929 0.0
C793 C 0.21946 0.39033 0.38373 0.0
H794 H 0.1467 0.33005 0.36433 0.0
C795 C 0.23534 0.37406 0.37816 0.0
H796 H 0.17421 0.38529 0.38344 0.0
C797 C 0.21934 0.34193 0.36948 0.0
C798 C 0.18713 0.32542 0.36395 0.0
H799 H 0.26009 0.38607 0.38197 0.0
H800 H 0.23222 0.3301 0.36566 0.0
C801 C 0.17144 0.34187 0.36843 0.0
C802 C 0.71926 0.8864 0.35968 0.0
C803 C 0.73574 0.8708 0.35154 0.0
H804 H 0.67529 0.88295 0.37613 0.0
C805 C 0.71924 0.83863 0.35435 0.0
H806 H 0.73114 0.91115 0.35752 0.0
C807 C 0.68744 0.82257 0.36691 0.0
C808 C 0.67088 0.83807 0.37465 0.0
H809 H 0.73105 0.8258 0.34851 0.0
H810 H 0.67573 0.79785 0.37026 0.0
C811 C 0.6872 0.87023 0.3699 0.0
C812 C 0.23795 0.87614 0.38022 0.0
C813 C 0.22268 0.84401 0.3849 0.0
H814 H 0.23446 0.91644 0.36543 0.0
C815 C 0.19043 0.82794 0.38008 0.0
H816 H 0.2627 0.88936 0.3838 0.0
C817 C 0.17402 0.84369 0.37189 0.0
C818 C 0.18948 0.87585 0.36607 0.0
H819 H 0.17785 0.80323 0.3841 0.0
H820 H 0.14926 0.83065 0.36865 0.0
C821 C 0.22169 0.89173 0.36979 0.0
C822 C 0.38796 0.17752 0.70993 0.0
C823 C 0.40453 0.20969 0.7051 0.0
H824 H 0.34411 0.13676 0.72348 0.0
C825 C 0.38799 0.22532 0.70938 0.0
H826 H 0.39984 0.16467 0.7069 0.0
C827 C 0.35579 0.20917 0.71648 0.0
C828 C 0.33929 0.177 0.72203 0.0
H829 H 0.39988 0.25003 0.70542 0.0
H830 H 0.34381 0.22194 0.71847 0.0
C831 C 0.35594 0.16148 0.71956 0.0
C832 C 0.90301 0.20882 0.72683 0.0
C833 C 0.88749 0.17665 0.72878 0.0
H834 H 0.89988 0.2494 0.71275 0.0
C835 C 0.85532 0.16083 0.72162 0.0
H836 H 0.92772 0.22182 0.73196 0.0
C837 C 0.83917 0.17676 0.71288 0.0
C838 C 0.85485 0.20891 0.70868 0.0
H839 H 0.84257 0.13608 0.72316 0.0
H840 H 0.81449 0.16385 0.70717 0.0
C841 C 0.887 0.22466 0.71572 0.0
C842 C 0.85603 0.7088 0.69978 0.0
C843 C 0.88824 0.72512 0.70506 0.0
H844 H 0.8151 0.66529 0.68418 0.0
C845 C 0.90375 0.70852 0.69916 0.0
H846 H 0.84327 0.72075 0.70396 0.0
C847 C 0.88746 0.67648 0.69009 0.0
C848 C 0.85526 0.66023 0.68417 0.0
H849 H 0.92848 0.72022 0.70334 0.0
H850 H 0.90014 0.66444 0.68697 0.0
C851 C 0.83984 0.67695 0.68824 0.0
C852 C 0.05491 0.55705 1.03841 0.0
C853 C 0.07192 0.54198 1.03181 0.0
H854 H 1.01053 0.5528 0.05188 0.0
C855 C 0.05594 0.50979 1.0358 0.0
H856 H 0.06636 0.58177 1.0354 0.0
C857 C 1.02404 0.49323 0.04753 0.0
C858 C 1.00696 0.50827 0.05308 0.0
H859 H 0.06822 0.49737 1.03123 0.0
H860 H 1.01264 0.46853 0.05122 0.0
C861 C 1.02285 0.54042 0.04763 0.0
C862 C 0.50523 0.50633 1.02965 0.0
C863 C 0.52054 0.53845 1.02246 0.0
H864 H 0.50921 0.46602 0.04255 0.0
C865 C 0.55278 0.55441 1.02278 0.0
H866 H 0.48044 0.49324 1.02931 0.0
C867 C 0.56919 0.5389 1.03228 0.0
C868 C 0.55397 0.5068 1.03925 0.0
H869 H 0.5654 0.57909 1.01753 0.0
H870 H 0.59397 0.55212 1.03403 0.0
C871 C 0.52172 0.49068 1.03676 0.0
C872 C 0.57304 0.04081 1.03669 0.0
C873 C 0.55723 0.05717 1.04071 0.0
H874 H 0.56993 0.9968 1.02816 0.0
C875 C 0.52502 0.04046 1.036 0.0
H876 H 0.59779 0.05281 1.04058 0.0
C877 C 0.50911 1.00849 1.02675 0.0
C878 C 0.52482 0.99201 1.02453 0.0
H879 H 0.51202 0.0522 1.03886 0.0
H880 H 0.48436 0.99656 1.02292 0.0
C881 C 0.55703 1.00864 1.02996 0.0
C882 C 0.13765 0.14 0.50875 0.0
C883 C 0.15635 0.15953 0.45178 0.0
H884 H 0.13701 0.11834 0.61262 0.0
C885 C 0.18687 0.16688 0.44514 0.0
H886 H 0.11399 0.13435 0.51414 0.0
C887 C 0.19986 0.15814 0.50064 0.0
C888 C 0.18238 0.14219 0.56317 0.0
H889 H 0.20149 0.18189 0.40117 0.0
H890 H 0.22409 0.16576 0.49717 0.0
C891 C 0.1508 0.13125 0.56502 0.0
C892 C 0.92931 0.0335 0.56406 0.0
C893 C 0.91706 0.05296 0.56721 0.0
H894 H 0.92661 0.99442 0.50998 0.0
C895 C 0.89789 0.05272 0.51013 0.0
H896 H 0.94464 0.03396 0.60723 0.0
C897 C 0.88796 0.03067 0.45531 0.0
C898 C 0.89726 1.0089 0.45716 0.0
H899 H 0.88913 0.06841 0.5102 0.0
H900 H 0.87116 0.02918 0.41511 0.0
C901 C 0.91934 1.01129 0.50849 0.0
C902 C 0.05411 0.92733 0.50961 0.0
C903 C 0.05436 0.90818 0.45321 0.0
H904 H 1.03293 0.92891 0.61242 0.0
C905 C 1.03014 0.87825 0.44573 0.0
H906 H 0.07294 0.95055 0.51559 0.0
C907 C 1.00767 0.86616 0.49978 0.0
C908 C 1.00969 0.88381 0.5622 0.0
H909 H 1.0301 0.86327 0.40242 0.0
H910 H 0.99018 0.84224 0.49584 0.0
C911 C 1.03157 0.91499 0.5648 0.0
C912 C 0.89136 0.84754 0.52342 0.0
C913 C 0.88696 0.85154 0.60032 0.0
H914 H 0.88407 0.85423 0.40705 0.0
C915 C 0.87087 0.86727 0.61486 0.0
H916 H 0.90346 0.83566 0.50834 0.0
C917 C 0.86027 0.87875 0.55572 0.0
C918 C 0.86446 0.87446 0.47881 0.0
H919 H 0.8668 0.87118 0.67231 0.0
H920 H 0.84836 0.89084 0.57057 0.0
C921 C 0.8801 0.85831 0.46444 0.0
C922 C 0.18446 0.99636 0.5491 0.0
C923 C 0.19029 1.00451 0.47212 0.0
H924 H 0.19022 1.01076 0.66512 0.0
C925 C 0.20736 0.03629 0.45704 0.0
H926 H 0.17159 0.97243 0.56463 0.0
C927 C 0.21755 0.05858 0.51552 0.0
C928 C 0.21196 0.05039 0.59254 0.0
H929 H 0.21256 0.04409 0.39952 0.0
H930 H 0.23022 0.08252 0.50007 0.0
C931 C 0.19531 1.0186 0.60761 0.0
C932 C 0.04514 0.19016 0.6084 0.0
C933 C 1.01324 0.17522 0.59468 0.0
H934 H 0.09109 0.21208 0.56342 0.0
C935 C 1.00457 0.17238 0.51802 0.0
H936 H 0.05333 0.19307 0.66558 0.0
C937 C 1.02654 0.18411 0.45857 0.0
C938 C 0.05843 0.19861 0.4723 0.0
H939 H 0.98051 0.16124 0.50361 0.0
H940 H 1.01839 0.18137 0.40138 0.0
C941 C 0.06705 0.20116 0.54893 0.0
C942 C 0.81251 0.4743 0.84451 0.0
C943 C 0.82403 0.50592 0.84259 0.0
H944 H 0.8159 0.43815 0.89803 0.0
C945 C 0.842 0.52458 0.90144 0.0
H946 H 0.79807 0.45962 0.79991 0.0
C947 C 0.85184 0.5125 0.95666 0.0
C948 C 0.84356 0.48171 0.95348 0.0
H949 H 0.85013 0.54892 0.90221 0.0
H950 H 0.86804 0.52778 0.99788 0.0
C951 C 0.82234 0.46207 0.90056 0.0
C952 C 0.60861 0.37484 0.89855 0.0
C953 C 0.59 0.37395 0.95792 0.0
H954 H 0.60929 0.35502 0.79284 0.0
C955 C 0.56056 0.34899 0.96732 0.0
H956 H 0.63144 0.39426 0.89101 0.0
C957 C 0.54815 0.32702 0.91237 0.0
C958 C 0.56502 0.33025 0.84736 0.0
H959 H 0.54594 0.3481 1.01275 0.0
H960 H 0.52446 0.30901 0.91779 0.0
C961 C 0.59597 0.35277 0.84256 0.0
C962 C 0.70002 0.24901 0.90415 0.0
C963 C 0.67737 0.21816 0.899 0.0
H964 H 0.7415 0.28453 0.85537 0.0
C965 C 0.6738 0.20163 0.83331 0.0
H966 H 0.70252 0.26206 0.95444 0.0
C967 C 0.69561 0.21423 0.77778 0.0
C968 C 0.72074 0.24352 0.78738 0.0
H969 H 0.65568 0.17803 0.82769 0.0
H970 H 0.69448 0.19983 0.73172 0.0
C971 C 0.72193 0.26184 0.84763 0.0
C972 C 0.53932 0.2001 0.94835 0.0
C973 C 0.5554 0.18457 0.93143 0.0
H974 H 0.51652 0.22389 0.90787 0.0
C975 C 0.55937 0.18109 0.85391 0.0
H976 H 0.53556 0.20359 1.00637 0.0
C977 C 0.54767 0.19221 0.7966 0.0
C978 C 0.53203 0.20818 0.81352 0.0
H979 H 0.57144 0.16938 0.83709 0.0
H980 H 0.55134 0.18863 0.73857 0.0
C981 C 0.52832 0.21191 0.89105 0.0
C982 C 0.884 0.39088 0.85323 0.0
C983 C 0.879 0.38217 0.93 0.0
H984 H 0.87843 0.37712 0.73656 0.0
C985 C 0.86281 0.35032 0.944 0.0
H986 H 0.89636 0.41493 0.83866 0.0
C987 C 0.85176 0.32846 0.88471 0.0
C988 C 0.85702 0.33711 0.80796 0.0
H989 H 0.85822 0.34212 1.0013 0.0
H990 H 0.83923 0.30443 0.89941 0.0
C991 C 0.87368 0.36897 0.79388 0.0
C992 C 0.71557 0.52774 0.95 0.0
C993 C 0.68372 0.51034 0.93576 0.0
H994 H 0.76171 0.55109 0.90564 0.0
C995 C 0.67529 0.50447 0.859 0.0
H996 H 0.72357 0.533 1.00732 0.0
C997 C 0.69735 0.51558 0.79987 0.0
C998 C 0.7292 0.53254 0.81408 0.0
H999 H 0.65129 0.49135 0.84414 0.0
H1000 H 0.6893 0.51044 0.74256 0.0
C1001 C 0.73769 0.53818 0.89087 0.0
C1002 C 0.48527 0.78955 0.23882 0.0
C1003 C 0.50451 0.80786 0.2965 0.0
H1004 H 0.46449 0.7896 0.13411 0.0
C1005 C 0.51207 0.83838 0.30349 0.0
H1006 H 0.47948 0.7659 0.23309 0.0
C1007 C 0.50396 0.85177 0.24762 0.0
C1008 C 0.48839 0.83468 0.18445 0.0
H1009 H 0.52691 0.85272 0.34791 0.0
H1010 H 0.51181 0.87601 0.25134 0.0
C1011 C 0.47713 0.80309 0.18222 0.0
C1012 C 0.22299 0.68575 0.30455 0.0
C1013 C 0.25359 0.7088 0.29851 0.0
H1014 H 0.1859 0.64744 0.2522 0.0
C1015 C 0.27249 0.7078 0.24243 0.0
H1016 H 0.20823 0.68627 0.3479 0.0
C1017 C 0.25951 0.68585 0.18632 0.0
C1018 C 0.2279 0.66532 0.18746 0.0
H1019 H 0.29622 0.72571 0.2375 0.0
H1020 H 0.27349 0.68661 0.13934 0.0
C1021 C 0.21017 0.66397 0.24923 0.0
C1022 C 0.37854 0.54817 0.30381 0.0
C1023 C 0.35573 0.55602 0.29793 0.0
H1024 H 0.41617 0.54831 0.25036 0.0
C1025 C 0.35668 0.57555 0.24091 0.0
H1026 H 0.37804 0.53316 0.34787 0.0
C1027 C 0.37822 0.58375 0.18386 0.0
C1028 C 0.39838 0.57227 0.18496 0.0
H1029 H 0.33894 0.58158 0.23606 0.0
H1030 H 0.37739 0.59669 0.13632 0.0
C1031 C 0.39988 0.55632 0.24745 0.0
C1032 C 0.22581 0.51711 0.20042 0.0
C1033 C 0.21925 0.51885 0.2771 0.0
H1034 H 0.22102 0.52654 0.08431 0.0
C1035 C 0.20197 0.53334 0.29169 0.0
H1036 H 0.23887 0.50623 0.18535 0.0
C1037 C 0.19226 0.54581 0.23298 0.0
C1038 C 0.19856 0.54377 0.15625 0.0
H1039 H 0.19623 0.53549 0.349 0.0
H1040 H 0.17937 0.55688 0.24799 0.0
C1041 C 0.21542 0.52885 0.14163 0.0
C1042 C 0.54494 0.71758 0.19977 0.0
C1043 C 0.54312 0.70928 0.27649 0.0
H1044 H 0.53597 0.70344 0.08367 0.0
C1045 C 0.52899 0.67751 0.29114 0.0
H1046 H 0.55557 0.74152 0.18463 0.0
C1047 C 0.51693 0.65535 0.23241 0.0
C1048 C 0.51906 0.66372 0.15563 0.0
H1049 H 0.52682 0.66962 0.34848 0.0
H1050 H 0.50609 0.63139 0.24743 0.0
C1051 C 0.53362 0.69549 0.14101 0.0
C1052 C 0.3842 0.86224 0.29109 0.0
C1053 C 0.35235 0.84503 0.27656 0.0
H1054 H 0.43045 0.88482 0.24738 0.0
C1055 C 0.34409 0.83862 0.19982 0.0
H1056 H 0.39209 0.86788 0.3484 0.0
C1057 C 0.36629 0.84906 0.141 0.0
C1058 C 0.39814 0.86585 0.15554 0.0
H1059 H 0.3201 0.82561 0.18471 0.0
H1060 H 0.35835 0.84354 0.08368 0.0
C1061 C 0.40645 0.87201 0.23234 0.0
loop_
_geom_bond_atom_site_label_1
_geom_bond_atom_site_label_2
_geom_bond_distance
_geom_bond_site_symmetry_2
_ccdc_geom_bond_type
Co0 O3 1.970 . S
Co0 N17 1.989 . S
Co0 O25 1.967 . S
Co0 O32 1.920 . S
Co1 O4 1.966 . S
Co1 N10 2.022 . S
Co1 N18 1.993 . S
Co1 O26 1.941 . S
C2 O3 1.258 . S
C2 O4 1.263 . S
O3 Co0 1.970 . S
O3 C2 1.258 . S
O4 Co1 1.966 . S
O4 C2 1.263 . S
C5 O6 1.235 . S
C5 O32 1.289 . S
O6 C5 1.235 . S
C7 C9 1.400 . S
C7 N10 1.351 . S
C7 C12 1.501 . S
C8 C9 1.387 . S
C8 N11 1.341 . S
C9 C7 1.400 . S
C9 C8 1.387 . S
N10 Co1 2.022 . S
N10 C7 1.351 . S
N10 N11 1.365 . S
N11 C8 1.341 . S
N11 N10 1.365 . S
N11 H31 0.862 . S
C12 C7 1.501 . S
C12 H13 0.961 . S
C12 H14 0.961 . S
C12 H15 0.960 . S
H13 C12 0.961 . S
H14 C12 0.961 . S
H15 C12 0.960 . S
C16 N17 1.342 . S
C16 C20 1.401 . S
C16 C21 1.499 . S
N17 Co0 1.989 . S
N17 C16 1.342 . S
N17 N18 1.388 . S
N18 Co1 1.993 . S
N18 N17 1.388 . S
N18 C19 1.346 . S
C19 N18 1.346 . S
C19 C20 1.396 . S
C19 C29 1.510 . S
C20 C16 1.401 . S
C20 C19 1.396 . S
C21 C16 1.499 . S
C21 H22 0.959 . S
C21 H23 0.960 . S
C21 H24 0.961 . S
H22 C21 0.959 . S
H23 C21 0.960 . S
H24 C21 0.961 . S
O25 Co0 1.967 . S
O25 C33 1.258 . S
O26 Co1 1.941 . S
O26 C33 1.266 . S
H27 C29 0.959 . S
H28 C29 0.961 . S
C29 C19 1.510 . S
C29 H27 0.959 . S
C29 H28 0.961 . S
C29 H30 0.960 . S
H30 C29 0.960 . S
H31 N11 0.862 . S
O32 Co0 1.920 . S
O32 C5 1.289 . S
C33 O25 1.258 . S
C33 O26 1.266 . S
Co34 O37 1.970 . S
Co34 N51 1.989 . S
Co34 O59 1.967 . S
Co34 O66 1.920 . S
Co35 O38 1.966 . S
Co35 N44 2.022 . S
Co35 N52 1.993 . S
Co35 O60 1.941 . S
C36 O37 1.258 . S
C36 O38 1.263 . S
O37 Co34 1.970 . S
O37 C36 1.258 . S
O38 Co35 1.966 . S
O38 C36 1.263 . S
C39 O40 1.235 . S
C39 O66 1.289 . S
O40 C39 1.235 . S
C41 C43 1.400 . S
C41 N44 1.351 . S
C41 C46 1.501 . S
C42 C43 1.387 . S
C42 N45 1.341 . S
C43 C41 1.400 . S
C43 C42 1.387 . S
N44 Co35 2.022 . S
N44 C41 1.351 . S
N44 N45 1.365 . S
N45 C42 1.341 . S
N45 N44 1.365 . S
N45 H65 0.862 . S
C46 C41 1.501 . S
C46 H47 0.961 . S
C46 H48 0.961 . S
C46 H49 0.960 . S
H47 C46 0.961 . S
H48 C46 0.961 . S
H49 C46 0.960 . S
C50 N51 1.342 . S
C50 C54 1.401 . S
C50 C55 1.499 . S
N51 Co34 1.989 . S
N51 C50 1.342 . S
N51 N52 1.388 . S
N52 Co35 1.993 . S
N52 N51 1.388 . S
N52 C53 1.346 . S
C53 N52 1.346 . S
C53 C54 1.396 . S
C53 C63 1.510 . S
C54 C50 1.401 . S
C54 C53 1.396 . S
C55 C50 1.499 . S
C55 H56 0.959 . S
C55 H57 0.960 . S
C55 H58 0.961 . S
H56 C55 0.959 . S
H57 C55 0.960 . S
H58 C55 0.961 . S
O59 Co34 1.967 . S
O59 C67 1.258 . S
O60 Co35 1.941 . S
O60 C67 1.266 . S
H61 C63 0.959 . S
H62 C63 0.961 . S
C63 C53 1.510 . S
C63 H61 0.959 . S
C63 H62 0.961 . S
C63 H64 0.960 . S
H64 C63 0.960 . S
H65 N45 0.862 . S
O66 Co34 1.920 . S
O66 C39 1.289 . S
C67 O59 1.258 . S
C67 O60 1.266 . S
Co68 O71 1.970 . S
Co68 N85 1.989 . S
Co68 O93 1.967 . S
Co68 O100 1.920 . S
Co69 O72 1.966 . S
Co69 N78 2.022 . S
Co69 N86 1.993 . S
Co69 O94 1.941 . S
C70 O71 1.258 . S
C70 O72 1.263 . S
O71 Co68 1.970 . S
O71 C70 1.258 . S
O72 Co69 1.966 . S
O72 C70 1.263 . S
C73 O74 1.235 . S
C73 O100 1.289 . S
O74 C73 1.235 . S
C75 C77 1.400 . S
C75 N78 1.351 . S
C75 C80 1.501 . S
C76 C77 1.387 . S
C76 N79 1.341 . S
C77 C75 1.400 . S
C77 C76 1.387 . S
N78 Co69 2.022 . S
N78 C75 1.351 . S
N78 N79 1.365 . S
N79 C76 1.341 . S
N79 N78 1.365 . S
N79 H99 0.862 . S
C80 C75 1.501 . S
C80 H81 0.961 . S
C80 H82 0.961 . S
C80 H83 0.960 . S
H81 C80 0.961 . S
H82 C80 0.961 . S
H83 C80 0.960 . S
C84 N85 1.342 . S
C84 C88 1.401 . S
C84 C89 1.499 . S
N85 Co68 1.989 . S
N85 C84 1.342 . S
N85 N86 1.388 . S
N86 Co69 1.993 . S
N86 N85 1.388 . S
N86 C87 1.346 . S
C87 N86 1.346 . S
C87 C88 1.396 . S
C87 C97 1.510 . S
C88 C84 1.401 . S
C88 C87 1.396 . S
C89 C84 1.499 . S
C89 H90 0.959 . S
C89 H91 0.960 . S
C89 H92 0.961 . S
H90 C89 0.959 . S
H91 C89 0.960 . S
H92 C89 0.961 . S
O93 Co68 1.967 . S
O93 C101 1.258 . S
O94 Co69 1.941 . S
O94 C101 1.266 . S
H95 C97 0.959 . S
H96 C97 0.961 . S
C97 C87 1.510 . S
C97 H95 0.959 . S
C97 H96 0.961 . S
C97 H98 0.960 . S
H98 C97 0.960 . S
H99 N79 0.862 . S
O100 Co68 1.920 . S
O100 C73 1.289 . S
C101 O93 1.258 . S
C101 O94 1.266 . S
Co102 O105 1.970 . S
Co102 N119 1.989 . S
Co102 O127 1.967 . S
Co102 O134 1.920 . S
Co103 O106 1.966 . S
Co103 N112 2.022 . S
Co103 N120 1.993 . S
Co103 O128 1.941 . S
C104 O105 1.258 . S
C104 O106 1.263 . S
O105 Co102 1.970 . S
O105 C104 1.258 . S
O106 Co103 1.966 . S
O106 C104 1.263 . S
C107 O108 1.235 . S
C107 O134 1.289 . S
O108 C107 1.235 . S
C109 C111 1.400 . S
C109 N112 1.351 . S
C109 C114 1.501 . S
C110 C111 1.387 . S
C110 N113 1.341 . S
C111 C109 1.400 . S
C111 C110 1.387 . S
N112 Co103 2.022 . S
N112 C109 1.351 . S
N112 N113 1.365 . S
N113 C110 1.341 . S
N113 N112 1.365 . S
N113 H133 0.862 . S
C114 C109 1.501 . S
C114 H115 0.961 . S
C114 H116 0.961 . S
C114 H117 0.960 . S
H115 C114 0.961 . S
H116 C114 0.961 . S
H117 C114 0.960 . S
C118 N119 1.342 . S
C118 C122 1.401 . S
C118 C123 1.499 . S
N119 Co102 1.989 . S
N119 C118 1.342 . S
N119 N120 1.388 . S
N120 Co103 1.993 . S
N120 N119 1.388 . S
N120 C121 1.346 . S
C121 N120 1.346 . S
C121 C122 1.396 . S
C121 C131 1.510 . S
C122 C118 1.401 . S
C122 C121 1.396 . S
C123 C118 1.499 . S
C123 H124 0.959 . S
C123 H125 0.960 . S
C123 H126 0.961 . S
H124 C123 0.959 . S
H125 C123 0.960 . S
H126 C123 0.961 . S
O127 Co102 1.967 . S
O127 C135 1.258 . S
O128 Co103 1.941 . S
O128 C135 1.266 . S
H129 C131 0.959 . S
H130 C131 0.961 . S
C131 C121 1.510 . S
C131 H129 0.959 . S
C131 H130 0.961 . S
C131 H132 0.960 . S
H132 C131 0.960 . S
H133 N113 0.862 . S
O134 Co102 1.920 . S
O134 C107 1.289 . S
C135 O127 1.258 . S
C135 O128 1.266 . S
Co136 O139 1.970 . S
Co136 N153 1.989 . S
Co136 O161 1.967 . S
Co136 O168 1.920 . S
Co137 O140 1.966 . S
Co137 N146 2.022 . S
Co137 N154 1.993 . S
Co137 O162 1.941 . S
C138 O139 1.258 . S
C138 O140 1.263 . S
O139 Co136 1.970 . S
O139 C138 1.258 . S
O140 Co137 1.966 . S
O140 C138 1.263 . S
C141 O142 1.235 . S
C141 O168 1.289 . S
O142 C141 1.235 . S
C143 C145 1.400 . S
C143 N146 1.351 . S
C143 C148 1.501 . S
C144 C145 1.387 . S
C144 N147 1.341 . S
C145 C143 1.400 . S
C145 C144 1.387 . S
N146 Co137 2.022 . S
N146 C143 1.351 . S
N146 N147 1.365 . S
N147 C144 1.341 . S
N147 N146 1.365 . S
N147 H167 0.862 . S
C148 C143 1.501 . S
C148 H149 0.961 . S
C148 H150 0.961 . S
C148 H151 0.960 . S
H149 C148 0.961 . S
H150 C148 0.961 . S
H151 C148 0.960 . S
C152 N153 1.342 . S
C152 C156 1.401 . S
C152 C157 1.499 . S
N153 Co136 1.989 . S
N153 C152 1.342 . S
N153 N154 1.388 . S
N154 Co137 1.993 . S
N154 N153 1.388 . S
N154 C155 1.346 . S
C155 N154 1.346 . S
C155 C156 1.396 . S
C155 C165 1.510 . S
C156 C152 1.401 . S
C156 C155 1.396 . S
C157 C152 1.499 . S
C157 H158 0.959 . S
C157 H159 0.960 . S
C157 H160 0.961 . S
H158 C157 0.959 . S
H159 C157 0.960 . S
H160 C157 0.961 . S
O161 Co136 1.967 . S
O161 C169 1.258 . S
O162 Co137 1.941 . S
O162 C169 1.266 . S
H163 C165 0.959 . S
H164 C165 0.961 . S
C165 C155 1.510 . S
C165 H163 0.959 . S
C165 H164 0.961 . S
C165 H166 0.960 . S
H166 C165 0.960 . S
H167 N147 0.862 . S
O168 Co136 1.920 . S
O168 C141 1.289 . S
C169 O161 1.258 . S
C169 O162 1.266 . S
Co170 O173 1.970 . S
Co170 N187 1.989 . S
Co170 O195 1.967 . S
Co170 O202 1.920 . S
Co171 O174 1.966 . S
Co171 N180 2.022 . S
Co171 N188 1.993 . S
Co171 O196 1.941 . S
C172 O173 1.258 . S
C172 O174 1.263 . S
O173 Co170 1.970 . S
O173 C172 1.258 . S
O174 Co171 1.966 . S
O174 C172 1.263 . S
C175 O176 1.235 . S
C175 O202 1.289 . S
O176 C175 1.235 . S
C177 C179 1.400 . S
C177 N180 1.351 . S
C177 C182 1.501 . S
C178 C179 1.387 . S
C178 N181 1.341 . S
C179 C177 1.400 . S
C179 C178 1.387 . S
N180 Co171 2.022 . S
N180 C177 1.351 . S
N180 N181 1.365 . S
N181 C178 1.341 . S
N181 N180 1.365 . S
N181 H201 0.862 . S
C182 C177 1.501 . S
C182 H183 0.961 . S
C182 H184 0.961 . S
C182 H185 0.960 . S
H183 C182 0.961 . S
H184 C182 0.961 . S
H185 C182 0.960 . S
C186 N187 1.342 . S
C186 C190 1.401 . S
C186 C191 1.499 . S
N187 Co170 1.989 . S
N187 C186 1.342 . S
N187 N188 1.388 . S
N188 Co171 1.993 . S
N188 N187 1.388 . S
N188 C189 1.346 . S
C189 N188 1.346 . S
C189 C190 1.396 . S
C189 C199 1.510 . S
C190 C186 1.401 . S
C190 C189 1.396 . S
C191 C186 1.499 . S
C191 H192 0.959 . S
C191 H193 0.960 . S
C191 H194 0.961 . S
H192 C191 0.959 . S
H193 C191 0.960 . S
H194 C191 0.961 . S
O195 Co170 1.967 . S
O195 C203 1.258 . S
O196 Co171 1.941 . S
O196 C203 1.266 . S
H197 C199 0.959 . S
H198 C199 0.961 . S
C199 C189 1.510 . S
C199 H197 0.959 . S
C199 H198 0.961 . S
C199 H200 0.960 . S
H200 C199 0.960 . S
H201 N181 0.862 . S
O202 Co170 1.920 . S
O202 C175 1.289 . S
C203 O195 1.258 . S
C203 O196 1.266 . S
Co204 O207 1.970 . S
Co204 N221 1.989 . S
Co204 O229 1.967 . S
Co204 O236 1.920 . S
Co205 O208 1.966 . S
Co205 N214 2.022 . S
Co205 N222 1.993 . S
Co205 O230 1.941 . S
C206 O207 1.258 . S
C206 O208 1.263 . S
O207 Co204 1.970 . S
O207 C206 1.258 . S
O208 Co205 1.966 . S
O208 C206 1.263 . S
C209 O210 1.235 . S
C209 O236 1.289 . S
O210 C209 1.235 . S
C211 C213 1.400 . S
C211 N214 1.351 . S
C211 C216 1.501 . S
C212 C213 1.387 . S
C212 N215 1.341 . S
C213 C211 1.400 . S
C213 C212 1.387 . S
N214 Co205 2.022 . S
N214 C211 1.351 . S
N214 N215 1.365 . S
N215 C212 1.341 . S
N215 N214 1.365 . S
N215 H235 0.862 . S
C216 C211 1.501 . S
C216 H217 0.961 . S
C216 H218 0.961 . S
C216 H219 0.960 . S
H217 C216 0.961 . S
H218 C216 0.961 . S
H219 C216 0.960 . S
C220 N221 1.342 . S
C220 C224 1.401 . S
C220 C225 1.499 . S
N221 Co204 1.989 . S
N221 C220 1.342 . S
N221 N222 1.388 . S
N222 Co205 1.993 . S
N222 N221 1.388 . S
N222 C223 1.346 . S
C223 N222 1.346 . S
C223 C224 1.396 . S
C223 C233 1.510 . S
C224 C220 1.401 . S
C224 C223 1.396 . S
C225 C220 1.499 . S
C225 H226 0.959 . S
C225 H227 0.960 . S
C225 H228 0.961 . S
H226 C225 0.959 . S
H227 C225 0.960 . S
H228 C225 0.961 . S
O229 Co204 1.967 . S
O229 C237 1.258 . S
O230 Co205 1.941 . S
O230 C237 1.266 . S
H231 C233 0.959 . S
H232 C233 0.961 . S
C233 C223 1.510 . S
C233 H231 0.959 . S
C233 H232 0.961 . S
C233 H234 0.960 . S
H234 C233 0.960 . S
H235 N215 0.862 . S
O236 Co204 1.920 . S
O236 C209 1.289 . S
C237 O229 1.258 . S
C237 O230 1.266 . S
Co238 O241 1.970 . S
Co238 N255 1.989 . S
Co238 O263 1.967 . S
Co238 O270 1.920 . S
Co239 O242 1.966 . S
Co239 N248 2.022 . S
Co239 N256 1.993 . S
Co239 O264 1.941 . S
C240 O241 1.258 . S
C240 O242 1.263 . S
O241 Co238 1.970 . S
O241 C240 1.258 . S
O242 Co239 1.966 . S
O242 C240 1.263 . S
C243 O244 1.235 . S
C243 O270 1.289 . S
O244 C243 1.235 . S
C245 C247 1.400 . S
C245 N248 1.351 . S
C245 C250 1.501 . S
C246 C247 1.387 . S
C246 N249 1.341 . S
C247 C245 1.400 . S
C247 C246 1.387 . S
N248 Co239 2.022 . S
N248 C245 1.351 . S
N248 N249 1.365 . S
N249 C246 1.341 . S
N249 N248 1.365 . S
N249 H269 0.862 . S
C250 C245 1.501 . S
C250 H251 0.961 . S
C250 H252 0.961 . S
C250 H253 0.960 . S
H251 C250 0.961 . S
H252 C250 0.961 . S
H253 C250 0.960 . S
C254 N255 1.342 . S
C254 C258 1.401 . S
C254 C259 1.499 . S
N255 Co238 1.989 . S
N255 C254 1.342 . S
N255 N256 1.388 . S
N256 Co239 1.993 . S
N256 N255 1.388 . S
N256 C257 1.346 . S
C257 N256 1.346 . S
C257 C258 1.396 . S
C257 C267 1.510 . S
C258 C254 1.401 . S
C258 C257 1.396 . S
C259 C254 1.499 . S
C259 H260 0.959 . S
C259 H261 0.960 . S
C259 H262 0.961 . S
H260 C259 0.959 . S
H261 C259 0.960 . S
H262 C259 0.961 . S
O263 Co238 1.967 . S
O263 C271 1.258 . S
O264 Co239 1.941 . S
O264 C271 1.266 . S
H265 C267 0.959 . S
H266 C267 0.961 . S
C267 C257 1.510 . S
C267 H265 0.959 . S
C267 H266 0.961 . S
C267 H268 0.960 . S
H268 C267 0.960 . S
H269 N249 0.862 . S
O270 Co238 1.920 . S
O270 C243 1.289 . S
C271 O263 1.258 . S
C271 O264 1.266 . S
Co272 O275 1.970 . S
Co272 N289 1.989 . S
Co272 O297 1.967 . S
Co272 O304 1.920 . S
Co273 O276 1.966 . S
Co273 N282 2.022 . S
Co273 N290 1.993 . S
Co273 O298 1.941 . S
C274 O275 1.258 . S
C274 O276 1.263 . S
O275 Co272 1.970 . S
O275 C274 1.258 . S
O276 Co273 1.966 . S
O276 C274 1.263 . S
C277 O278 1.235 . S
C277 O304 1.289 . S
O278 C277 1.235 . S
C279 C281 1.400 . S
C279 N282 1.351 . S
C279 C284 1.501 . S
C280 C281 1.387 . S
C280 N283 1.341 . S
C281 C279 1.400 . S
C281 C280 1.387 . S
N282 Co273 2.022 . S
N282 C279 1.351 . S
N282 N283 1.365 . S
N283 C280 1.341 . S
N283 N282 1.365 . S
N283 H303 0.862 . S
C284 C279 1.501 . S
C284 H285 0.961 . S
C284 H286 0.961 . S
C284 H287 0.960 . S
H285 C284 0.961 . S
H286 C284 0.961 . S
H287 C284 0.960 . S
C288 N289 1.342 . S
C288 C292 1.401 . S
C288 C293 1.499 . S
N289 Co272 1.989 . S
N289 C288 1.342 . S
N289 N290 1.388 . S
N290 Co273 1.993 . S
N290 N289 1.388 . S
N290 C291 1.346 . S
C291 N290 1.346 . S
C291 C292 1.396 . S
C291 C301 1.510 . S
C292 C288 1.401 . S
C292 C291 1.396 . S
C293 C288 1.499 . S
C293 H294 0.959 . S
C293 H295 0.960 . S
C293 H296 0.961 . S
H294 C293 0.959 . S
H295 C293 0.960 . S
H296 C293 0.961 . S
O297 Co272 1.967 . S
O297 C305 1.258 . S
O298 Co273 1.941 . S
O298 C305 1.266 . S
H299 C301 0.959 . S
H300 C301 0.961 . S
C301 C291 1.510 . S
C301 H299 0.959 . S
C301 H300 0.961 . S
C301 H302 0.960 . S
H302 C301 0.960 . S
H303 N283 0.862 . S
O304 Co272 1.920 . S
O304 C277 1.289 . S
C305 O297 1.258 . S
C305 O298 1.266 . S
Co306 O309 1.970 . S
Co306 N323 1.989 1_556 S
Co306 O331 1.967 . S
Co306 O338 1.920 . S
Co307 O310 1.966 . S
Co307 N316 2.022 . S
Co307 N324 1.993 . S
Co307 O332 1.941 . S
C308 O309 1.258 . S
C308 O310 1.263 1_556 S
O309 Co306 1.970 . S
O309 C308 1.258 . S
O310 Co307 1.966 . S
O310 C308 1.263 1_554 S
C311 O312 1.235 . S
C311 O338 1.289 . S
O312 C311 1.235 . S
C313 C315 1.400 . S
C313 N316 1.351 . S
C313 C318 1.501 . S
C314 C315 1.387 . S
C314 N317 1.341 . S
C315 C313 1.400 . S
C315 C314 1.387 . S
N316 Co307 2.022 . S
N316 C313 1.351 . S
N316 N317 1.365 . S
N317 C314 1.341 . S
N317 N316 1.365 . S
N317 H337 0.862 . S
C318 C313 1.501 . S
C318 H319 0.961 . S
C318 H320 0.961 . S
C318 H321 0.960 . S
H319 C318 0.961 . S
H320 C318 0.961 . S
H321 C318 0.960 . S
C322 N323 1.342 . S
C322 C326 1.401 . S
C322 C327 1.499 . S
N323 Co306 1.989 1_554 S
N323 C322 1.342 . S
N323 N324 1.388 . S
N324 Co307 1.993 . S
N324 N323 1.388 . S
N324 C325 1.346 . S
C325 N324 1.346 . S
C325 C326 1.396 . S
C325 C335 1.510 . S
C326 C322 1.401 . S
C326 C325 1.396 . S
C327 C322 1.499 . S
C327 H328 0.959 . S
C327 H329 0.960 . S
C327 H330 0.961 . S
H328 C327 0.959 . S
H329 C327 0.960 . S
H330 C327 0.961 . S
O331 Co306 1.967 . S
O331 C339 1.258 1_556 S
O332 Co307 1.941 . S
O332 C339 1.266 . S
H333 C335 0.959 . S
H334 C335 0.961 . S
C335 C325 1.510 . S
C335 H333 0.959 . S
C335 H334 0.961 . S
C335 H336 0.960 . S
H336 C335 0.960 . S
H337 N317 0.862 . S
O338 Co306 1.920 . S
O338 C311 1.289 . S
C339 O331 1.258 1_554 S
C339 O332 1.266 . S
Co340 O343 1.970 . S
Co340 N357 1.989 1_556 S
Co340 O365 1.967 . S
Co340 O372 1.920 . S
Co341 O344 1.966 . S
Co341 N350 2.022 . S
Co341 N358 1.993 . S
Co341 O366 1.941 . S
C342 O343 1.258 . S
C342 O344 1.263 1_556 S
O343 Co340 1.970 . S
O343 C342 1.258 . S
O344 Co341 1.966 . S
O344 C342 1.263 1_554 S
C345 O346 1.235 . S
C345 O372 1.289 . S
O346 C345 1.235 . S
C347 C349 1.400 . S
C347 N350 1.351 . S
C347 C352 1.501 . S
C348 C349 1.387 . S
C348 N351 1.341 . S
C349 C347 1.400 . S
C349 C348 1.387 . S
N350 Co341 2.022 . S
N350 C347 1.351 . S
N350 N351 1.365 . S
N351 C348 1.341 . S
N351 N350 1.365 . S
N351 H371 0.862 . S
C352 C347 1.501 . S
C352 H353 0.961 . S
C352 H354 0.961 . S
C352 H355 0.960 . S
H353 C352 0.961 . S
H354 C352 0.961 . S
H355 C352 0.960 . S
C356 N357 1.342 . S
C356 C360 1.401 . S
C356 C361 1.499 . S
N357 Co340 1.989 1_554 S
N357 C356 1.342 . S
N357 N358 1.388 . S
N358 Co341 1.993 . S
N358 N357 1.388 . S
N358 C359 1.346 . S
C359 N358 1.346 . S
C359 C360 1.396 . S
C359 C369 1.510 . S
C360 C356 1.401 . S
C360 C359 1.396 . S
C361 C356 1.499 . S
C361 H362 0.959 . S
C361 H363 0.960 . S
C361 H364 0.961 . S
H362 C361 0.959 . S
H363 C361 0.960 . S
H364 C361 0.961 . S
O365 Co340 1.967 . S
O365 C373 1.258 1_556 S
O366 Co341 1.941 . S
O366 C373 1.266 . S
H367 C369 0.959 . S
H368 C369 0.961 . S
C369 C359 1.510 . S
C369 H367 0.959 . S
C369 H368 0.961 . S
C369 H370 0.960 . S
H370 C369 0.960 . S
H371 N351 0.862 . S
O372 Co340 1.920 . S
O372 C345 1.289 . S
C373 O365 1.258 1_554 S
C373 O366 1.266 . S
Co374 O377 1.970 . S
Co374 N391 1.989 1_556 S
Co374 O399 1.967 . S
Co374 O406 1.920 . S
Co375 O378 1.966 . S
Co375 N384 2.022 . S
Co375 N392 1.993 . S
Co375 O400 1.941 . S
C376 O377 1.258 . S
C376 O378 1.263 1_556 S
O377 Co374 1.970 . S
O377 C376 1.258 . S
O378 Co375 1.966 . S
O378 C376 1.263 1_554 S
C379 O380 1.235 . S
C379 O406 1.289 . S
O380 C379 1.235 . S
C381 C383 1.400 . S
C381 N384 1.351 . S
C381 C386 1.501 . S
C382 C383 1.387 . S
C382 N385 1.341 . S
C383 C381 1.400 . S
C383 C382 1.387 . S
N384 Co375 2.022 . S
N384 C381 1.351 . S
N384 N385 1.365 . S
N385 C382 1.341 . S
N385 N384 1.365 . S
N385 H405 0.862 . S
C386 C381 1.501 . S
C386 H387 0.961 . S
C386 H388 0.961 . S
C386 H389 0.960 . S
H387 C386 0.961 . S
H388 C386 0.961 . S
H389 C386 0.960 . S
C390 N391 1.342 . S
C390 C394 1.401 . S
C390 C395 1.499 . S
N391 Co374 1.989 1_554 S
N391 C390 1.342 . S
N391 N392 1.388 . S
N392 Co375 1.993 . S
N392 N391 1.388 . S
N392 C393 1.346 . S
C393 N392 1.346 . S
C393 C394 1.396 . S
C393 C403 1.510 . S
C394 C390 1.401 . S
C394 C393 1.396 . S
C395 C390 1.499 . S
C395 H396 0.959 . S
C395 H397 0.960 . S
C395 H398 0.961 . S
H396 C395 0.959 . S
H397 C395 0.960 . S
H398 C395 0.961 . S
O399 Co374 1.967 . S
O399 C407 1.258 1_556 S
O400 Co375 1.941 . S
O400 C407 1.266 . S
H401 C403 0.959 . S
H402 C403 0.961 . S
C403 C393 1.510 . S
C403 H401 0.959 . S
C403 H402 0.961 . S
C403 H404 0.960 . S
H404 C403 0.960 . S
H405 N385 0.862 . S
O406 Co374 1.920 . S
O406 C379 1.289 . S
C407 O399 1.258 1_554 S
C407 O400 1.266 . S
Co408 O411 1.970 . S
Co408 N425 1.989 1_554 S
Co408 O433 1.967 . S
Co408 O440 1.920 . S
Co409 O412 1.966 . S
Co409 N418 2.022 . S
Co409 N426 1.993 . S
Co409 O434 1.941 . S
C410 O411 1.258 . S
C410 O412 1.263 1_554 S
O411 Co408 1.970 . S
O411 C410 1.258 . S
O412 Co409 1.966 . S
O412 C410 1.263 1_556 S
C413 O414 1.235 . S
C413 O440 1.289 . S
O414 C413 1.235 . S
C415 C417 1.400 . S
C415 N418 1.351 . S
C415 C420 1.501 . S
C416 C417 1.387 . S
C416 N419 1.341 . S
C417 C415 1.400 . S
C417 C416 1.387 . S
N418 Co409 2.022 . S
N418 C415 1.351 . S
N418 N419 1.365 . S
N419 C416 1.341 . S
N419 N418 1.365 . S
N419 H439 0.862 . S
C420 C415 1.501 . S
C420 H421 0.961 . S
C420 H422 0.961 . S
C420 H423 0.960 . S
H421 C420 0.961 . S
H422 C420 0.961 . S
H423 C420 0.960 . S
C424 N425 1.342 . S
C424 C428 1.401 . S
C424 C429 1.499 . S
N425 Co408 1.989 1_556 S
N425 C424 1.342 . S
N425 N426 1.388 . S
N426 Co409 1.993 . S
N426 N425 1.388 . S
N426 C427 1.346 . S
C427 N426 1.346 . S
C427 C428 1.396 . S
C427 C437 1.510 . S
C428 C424 1.401 . S
C428 C427 1.396 . S
C429 C424 1.499 . S
C429 H430 0.959 . S
C429 H431 0.960 . S
C429 H432 0.961 . S
H430 C429 0.959 . S
H431 C429 0.960 . S
H432 C429 0.961 . S
O433 Co408 1.967 . S
O433 C441 1.258 1_554 S
O434 Co409 1.941 . S
O434 C441 1.266 . S
H435 C437 0.959 . S
H436 C437 0.961 . S
C437 C427 1.510 . S
C437 H435 0.959 . S
C437 H436 0.961 . S
C437 H438 0.960 . S
H438 C437 0.960 . S
H439 N419 0.862 . S
O440 Co408 1.920 . S
O440 C413 1.289 . S
C441 O433 1.258 1_556 S
C441 O434 1.266 . S
Co442 O445 1.970 . S
Co442 N459 1.989 1_554 S
Co442 O467 1.967 . S
Co442 O474 1.920 . S
Co443 O446 1.966 . S
Co443 N452 2.022 . S
Co443 N460 1.993 . S
Co443 O468 1.941 . S
C444 O445 1.258 . S
C444 O446 1.263 1_554 S
O445 Co442 1.970 . S
O445 C444 1.258 . S
O446 Co443 1.966 . S
O446 C444 1.263 1_556 S
C447 O448 1.235 . S
C447 O474 1.289 . S
O448 C447 1.235 . S
C449 C451 1.400 . S
C449 N452 1.351 . S
C449 C454 1.501 . S
C450 C451 1.387 . S
C450 N453 1.341 . S
C451 C449 1.400 . S
C451 C450 1.387 . S
N452 Co443 2.022 . S
N452 C449 1.351 . S
N452 N453 1.365 . S
N453 C450 1.341 . S
N453 N452 1.365 . S
N453 H473 0.862 . S
C454 C449 1.501 . S
C454 H455 0.961 . S
C454 H456 0.961 . S
C454 H457 0.960 . S
H455 C454 0.961 . S
H456 C454 0.961 . S
H457 C454 0.960 . S
C458 N459 1.342 . S
C458 C462 1.401 . S
C458 C463 1.499 . S
N459 Co442 1.989 1_556 S
N459 C458 1.342 . S
N459 N460 1.388 . S
N460 Co443 1.993 . S
N460 N459 1.388 . S
N460 C461 1.346 . S
C461 N460 1.346 . S
C461 C462 1.396 . S
C461 C471 1.510 . S
C462 C458 1.401 . S
C462 C461 1.396 . S
C463 C458 1.499 . S
C463 H464 0.959 . S
C463 H465 0.960 . S
C463 H466 0.961 . S
H464 C463 0.959 . S
H465 C463 0.960 . S
H466 C463 0.961 . S
O467 Co442 1.967 . S
O467 C475 1.258 1_554 S
O468 Co443 1.941 . S
O468 C475 1.266 . S
H469 C471 0.959 . S
H470 C471 0.961 . S
C471 C461 1.510 . S
C471 H469 0.959 . S
C471 H470 0.961 . S
C471 H472 0.960 . S
H472 C471 0.960 . S
H473 N453 0.862 . S
O474 Co442 1.920 . S
O474 C447 1.289 . S
C475 O467 1.258 1_556 S
C475 O468 1.266 . S
Co476 O479 1.970 . S
Co476 N493 1.989 1_554 S
Co476 O501 1.967 . S
Co476 O508 1.920 . S
Co477 O480 1.966 . S
Co477 N486 2.022 . S
Co477 N494 1.993 . S
Co477 O502 1.941 . S
C478 O479 1.258 . S
C478 O480 1.263 1_554 S
O479 Co476 1.970 . S
O479 C478 1.258 . S
O480 Co477 1.966 . S
O480 C478 1.263 1_556 S
C481 O482 1.235 . S
C481 O508 1.289 . S
O482 C481 1.235 . S
C483 C485 1.400 . S
C483 N486 1.351 . S
C483 C488 1.501 . S
C484 C485 1.387 . S
C484 N487 1.341 . S
C485 C483 1.400 . S
C485 C484 1.387 . S
N486 Co477 2.022 . S
N486 C483 1.351 . S
N486 N487 1.365 . S
N487 C484 1.341 . S
N487 N486 1.365 . S
N487 H507 0.862 . S
C488 C483 1.501 . S
C488 H489 0.961 . S
C488 H490 0.961 . S
C488 H491 0.960 . S
H489 C488 0.961 . S
H490 C488 0.961 . S
H491 C488 0.960 . S
C492 N493 1.342 . S
C492 C496 1.401 . S
C492 C497 1.499 . S
N493 Co476 1.989 1_556 S
N493 C492 1.342 . S
N493 N494 1.388 . S
N494 Co477 1.993 . S
N494 N493 1.388 . S
N494 C495 1.346 . S
C495 N494 1.346 . S
C495 C496 1.396 . S
C495 C505 1.510 . S
C496 C492 1.401 . S
C496 C495 1.396 . S
C497 C492 1.499 . S
C497 H498 0.959 . S
C497 H499 0.960 . S
C497 H500 0.961 . S
H498 C497 0.959 . S
H499 C497 0.960 . S
H500 C497 0.961 . S
O501 Co476 1.967 . S
O501 C509 1.258 1_554 S
O502 Co477 1.941 . S
O502 C509 1.266 . S
H503 C505 0.959 . S
H504 C505 0.961 . S
C505 C495 1.510 . S
C505 H503 0.959 . S
C505 H504 0.961 . S
C505 H506 0.960 . S
H506 C505 0.960 . S
H507 N487 0.862 . S
O508 Co476 1.920 . S
O508 C481 1.289 . S
C509 O501 1.258 1_556 S
C509 O502 1.266 . S
Co510 O513 1.970 . S
Co510 N527 1.989 . S
Co510 O535 1.967 . S
Co510 O542 1.920 . S
Co511 O514 1.966 . S
Co511 N520 2.022 . S
Co511 N528 1.993 . S
Co511 O536 1.941 . S
C512 O513 1.258 . S
C512 O514 1.263 . S
O513 Co510 1.970 . S
O513 C512 1.258 . S
O514 Co511 1.966 . S
O514 C512 1.263 . S
C515 O516 1.235 . S
C515 O542 1.289 . S
O516 C515 1.235 . S
C517 C519 1.400 . S
C517 N520 1.351 . S
C517 C522 1.501 . S
C518 C519 1.387 . S
C518 N521 1.341 . S
C519 C517 1.400 . S
C519 C518 1.387 . S
N520 Co511 2.022 . S
N520 C517 1.351 . S
N520 N521 1.365 . S
N521 C518 1.341 . S
N521 N520 1.365 . S
N521 H541 0.862 . S
C522 C517 1.501 . S
C522 H523 0.961 . S
C522 H524 0.961 . S
C522 H525 0.960 . S
H523 C522 0.961 . S
H524 C522 0.961 . S
H525 C522 0.960 . S
C526 N527 1.342 . S
C526 C530 1.401 . S
C526 C531 1.499 . S
N527 Co510 1.989 . S
N527 C526 1.342 . S
N527 N528 1.388 . S
N528 Co511 1.993 . S
N528 N527 1.388 . S
N528 C529 1.346 . S
C529 N528 1.346 . S
C529 C530 1.396 . S
C529 C539 1.510 . S
C530 C526 1.401 . S
C530 C529 1.396 . S
C531 C526 1.499 . S
C531 H532 0.959 . S
C531 H533 0.960 . S
C531 H534 0.961 . S
H532 C531 0.959 . S
H533 C531 0.960 . S
H534 C531 0.961 . S
O535 Co510 1.967 . S
O535 C543 1.258 . S
O536 Co511 1.941 . S
O536 C543 1.266 . S
H537 C539 0.959 . S
H538 C539 0.961 . S
C539 C529 1.510 . S
C539 H537 0.959 . S
C539 H538 0.961 . S
C539 H540 0.960 . S
H540 C539 0.960 . S
H541 N521 0.862 . S
O542 Co510 1.920 . S
O542 C515 1.289 . S
C543 O535 1.258 . S
C543 O536 1.266 . S
Co544 O547 1.970 . S
Co544 N561 1.989 . S
Co544 O569 1.967 . S
Co544 O576 1.920 . S
Co545 O548 1.966 . S
Co545 N554 2.022 . S
Co545 N562 1.993 . S
Co545 O570 1.941 . S
C546 O547 1.258 . S
C546 O548 1.263 . S
O547 Co544 1.970 . S
O547 C546 1.258 . S
O548 Co545 1.966 . S
O548 C546 1.263 . S
C549 O550 1.235 . S
C549 O576 1.289 . S
O550 C549 1.235 . S
C551 C553 1.400 . S
C551 N554 1.351 . S
C551 C556 1.501 . S
C552 C553 1.387 . S
C552 N555 1.341 . S
C553 C551 1.400 . S
C553 C552 1.387 . S
N554 Co545 2.022 . S
N554 C551 1.351 . S
N554 N555 1.365 . S
N555 C552 1.341 . S
N555 N554 1.365 . S
N555 H575 0.862 . S
C556 C551 1.501 . S
C556 H557 0.961 . S
C556 H558 0.961 . S
C556 H559 0.960 . S
H557 C556 0.961 . S
H558 C556 0.961 . S
H559 C556 0.960 . S
C560 N561 1.342 . S
C560 C564 1.401 . S
C560 C565 1.499 . S
N561 Co544 1.989 . S
N561 C560 1.342 . S
N561 N562 1.388 . S
N562 Co545 1.993 . S
N562 N561 1.388 . S
N562 C563 1.346 . S
C563 N562 1.346 . S
C563 C564 1.396 . S
C563 C573 1.510 . S
C564 C560 1.401 . S
C564 C563 1.396 . S
C565 C560 1.499 . S
C565 H566 0.959 . S
C565 H567 0.960 . S
C565 H568 0.961 . S
H566 C565 0.959 . S
H567 C565 0.960 . S
H568 C565 0.961 . S
O569 Co544 1.967 . S
O569 C577 1.258 . S
O570 Co545 1.941 . S
O570 C577 1.266 . S
H571 C573 0.959 . S
H572 C573 0.961 . S
C573 C563 1.510 . S
C573 H571 0.959 . S
C573 H572 0.961 . S
C573 H574 0.960 . S
H574 C573 0.960 . S
H575 N555 0.862 . S
O576 Co544 1.920 . S
O576 C549 1.289 . S
C577 O569 1.258 . S
C577 O570 1.266 . S
Co578 O581 1.970 . S
Co578 N595 1.989 . S
Co578 O603 1.967 . S
Co578 O610 1.920 . S
Co579 O582 1.966 . S
Co579 N588 2.022 . S
Co579 N596 1.993 . S
Co579 O604 1.941 . S
C580 O581 1.258 . S
C580 O582 1.263 . S
O581 Co578 1.970 . S
O581 C580 1.258 . S
O582 Co579 1.966 . S
O582 C580 1.263 . S
C583 O584 1.235 . S
C583 O610 1.289 . S
O584 C583 1.235 . S
C585 C587 1.400 . S
C585 N588 1.351 . S
C585 C590 1.501 . S
C586 C587 1.387 . S
C586 N589 1.341 . S
C587 C585 1.400 . S
C587 C586 1.387 . S
N588 Co579 2.022 . S
N588 C585 1.351 . S
N588 N589 1.365 . S
N589 C586 1.341 . S
N589 N588 1.365 . S
N589 H609 0.862 . S
C590 C585 1.501 . S
C590 H591 0.961 . S
C590 H592 0.961 . S
C590 H593 0.960 . S
H591 C590 0.961 . S
H592 C590 0.961 . S
H593 C590 0.960 . S
C594 N595 1.342 . S
C594 C598 1.401 . S
C594 C599 1.499 . S
N595 Co578 1.989 . S
N595 C594 1.342 . S
N595 N596 1.388 . S
N596 Co579 1.993 . S
N596 N595 1.388 . S
N596 C597 1.346 . S
C597 N596 1.346 . S
C597 C598 1.396 . S
C597 C607 1.510 . S
C598 C594 1.401 . S
C598 C597 1.396 . S
C599 C594 1.499 . S
C599 H600 0.959 . S
C599 H601 0.960 . S
C599 H602 0.961 . S
H600 C599 0.959 . S
H601 C599 0.960 . S
H602 C599 0.961 . S
O603 Co578 1.967 . S
O603 C611 1.258 . S
O604 Co579 1.941 . S
O604 C611 1.266 . S
H605 C607 0.959 . S
H606 C607 0.961 . S
C607 C597 1.510 . S
C607 H605 0.959 . S
C607 H606 0.961 . S
C607 H608 0.960 . S
H608 C607 0.960 . S
H609 N589 0.862 . S
O610 Co578 1.920 . S
O610 C583 1.289 . S
C611 O603 1.258 . S
C611 O604 1.266 . S
C612 C613 1.387 . S
C612 H616 0.950 . S
C612 C621 1.390 1_556 S
C613 C612 1.387 . S
C613 C615 1.387 . S
H614 C621 0.950 . S
C615 C613 1.387 . S
C615 C617 1.390 1_556 S
C615 H619 0.950 . S
H616 C612 0.950 . S
C617 C615 1.390 1_554 S
C617 C618 1.387 . S
C617 H620 0.950 . S
C618 C617 1.387 . S
C618 C621 1.387 . S
H619 C615 0.950 . S
H620 C617 0.950 . S
C621 C612 1.390 1_554 S
C621 H614 0.950 . S
C621 C618 1.387 . S
C622 C623 1.387 . S
C622 H626 0.950 . S
C622 C631 1.390 1_546 S
C623 C622 1.387 . S
C623 C625 1.387 . S
H624 C631 0.950 . S
C625 C623 1.387 . S
C625 C627 1.390 1_546 S
C625 H629 0.950 . S
H626 C622 0.950 . S
C627 C625 1.390 1_564 S
C627 C628 1.387 . S
C627 H630 0.950 . S
C628 C627 1.387 . S
C628 C631 1.387 . S
H629 C625 0.950 . S
H630 C627 0.950 . S
C631 C622 1.390 1_564 S
C631 H624 0.950 . S
C631 C628 1.387 . S
C632 C633 1.387 . S
C632 H636 0.950 . S
C632 C641 1.413 1_554 S
C633 C632 1.387 . S
C633 C635 1.387 1_455 S
H634 C641 0.939 . S
C635 C633 1.387 1_655 S
C635 C637 1.390 1_554 S
C635 H639 0.950 . S
H636 C632 0.950 . S
C637 C635 1.390 1_556 S
C637 C638 1.387 . S
C637 H640 0.950 . S
C638 C637 1.387 . S
C638 C641 1.377 1_655 S
H639 C635 0.950 . S
H640 C637 0.950 . S
C641 C632 1.413 1_556 S
C641 H634 0.939 . S
C641 C638 1.377 1_455 S
C642 C643 1.387 . S
C642 H646 0.950 . S
C642 C651 1.390 1_554 S
C643 C642 1.387 . S
C643 C645 1.387 . S
H644 C651 0.950 . S
C645 C643 1.387 . S
C645 C647 1.390 1_554 S
C645 H649 0.950 . S
H646 C642 0.950 . S
C647 C645 1.390 1_556 S
C647 C648 1.387 . S
C647 H650 0.950 . S
C648 C647 1.387 . S
C648 C651 1.387 . S
H649 C645 0.950 . S
H650 C647 0.950 . S
C651 C642 1.390 1_556 S
C651 H644 0.950 . S
C651 C648 1.387 . S
C652 C653 1.387 . S
C652 H656 0.950 . S
C652 C661 1.390 1_546 S
C653 C652 1.387 . S
C653 C655 1.387 . S
H654 C661 0.950 . S
C655 C653 1.387 . S
C655 C657 1.390 1_546 S
C655 H659 0.950 . S
H656 C652 0.950 . S
C657 C655 1.390 1_564 S
C657 C658 1.387 . S
C657 H660 0.950 . S
C658 C657 1.387 . S
C658 C661 1.387 . S
H659 C655 0.950 . S
H660 C657 0.950 . S
C661 C652 1.390 1_564 S
C661 H654 0.950 . S
C661 C658 1.387 . S
C662 C663 1.387 1_455 S
C662 H666 0.950 . S
C662 C671 1.390 . S
C663 C662 1.387 1_655 S
C663 C665 1.387 1_556 S
H664 C671 0.950 . S
C665 C663 1.387 1_554 S
C665 C667 1.390 . S
C665 H669 0.950 . S
H666 C662 0.950 . S
C667 C665 1.390 . S
C667 C668 1.387 1_655 S
C667 H670 0.950 . S
C668 C667 1.387 1_455 S
C668 C671 1.387 1_554 S
H669 C665 0.950 . S
H670 C667 0.950 . S
C671 C662 1.390 . S
C671 H664 0.950 . S
C671 C668 1.387 1_556 S
C672 C673 1.387 . S
C672 H676 0.950 . S
C672 C681 1.390 . S
C673 C672 1.387 . S
C673 C675 1.387 . S
H674 C681 0.950 . S
C675 C673 1.387 . S
C675 C677 1.390 . S
C675 H679 0.950 . S
H676 C672 0.950 . S
C677 C675 1.390 . S
C677 C678 1.387 . S
C677 H680 0.950 . S
C678 C677 1.387 . S
C678 C681 1.387 . S
H679 C675 0.950 . S
H680 C677 0.950 . S
C681 C672 1.390 . S
C681 H674 0.950 . S
C681 C678 1.387 . S
C682 C683 1.387 . S
C682 H686 0.950 . S
C682 C691 1.390 . S
C683 C682 1.387 . S
C683 C685 1.387 . S
H684 C691 0.950 . S
C685 C683 1.387 . S
C685 C687 1.390 . S
C685 H689 0.950 . S
H686 C682 0.950 . S
C687 C685 1.390 . S
C687 C688 1.387 . S
C687 H690 0.950 . S
C688 C687 1.387 . S
C688 C691 1.387 . S
H689 C685 0.950 . S
H690 C687 0.950 . S
C691 C682 1.390 . S
C691 H684 0.950 . S
C691 C688 1.387 . S
C692 C693 1.387 . S
C692 H696 0.950 . S
C692 C701 1.390 . S
C693 C692 1.387 . S
C693 C695 1.387 . S
H694 C701 0.950 . S
C695 C693 1.387 . S
C695 C697 1.390 . S
C695 H699 0.950 . S
H696 C692 0.950 . S
C697 C695 1.390 . S
C697 C698 1.387 . S
C697 H700 0.950 . S
C698 C697 1.387 . S
C698 C701 1.387 . S
H699 C695 0.950 . S
H700 C697 0.950 . S
C701 C692 1.390 . S
C701 H694 0.950 . S
C701 C698 1.387 . S
C702 C703 1.387 . S
C702 H706 0.950 . S
C702 C711 1.390 . S
C703 C702 1.387 . S
C703 C705 1.387 . S
H704 C711 0.950 . S
C705 C703 1.387 . S
C705 C707 1.390 . S
C705 H709 0.950 . S
H706 C702 0.950 . S
C707 C705 1.390 . S
C707 C708 1.387 . S
C707 H710 0.950 . S
C708 C707 1.387 . S
C708 C711 1.387 . S
H709 C705 0.950 . S
H710 C707 0.950 . S
C711 C702 1.390 . S
C711 H704 0.950 . S
C711 C708 1.387 . S
C712 C713 1.387 . S
C712 H716 0.950 . S
C712 C721 1.390 . S
C713 C712 1.387 . S
C713 C715 1.387 . S
H714 C721 0.950 . S
C715 C713 1.387 . S
C715 C717 1.390 . S
C715 H719 0.950 . S
H716 C712 0.950 . S
C717 C715 1.390 . S
C717 C718 1.387 . S
C717 H720 0.950 . S
C718 C717 1.387 . S
C718 C721 1.387 . S
H719 C715 0.950 . S
H720 C717 0.950 . S
C721 C712 1.390 . S
C721 H714 0.950 . S
C721 C718 1.387 . S
C722 C723 1.387 . S
C722 H726 0.950 . S
C722 C731 1.390 . S
C723 C722 1.387 . S
C723 C725 1.387 . S
H724 C731 0.950 . S
C725 C723 1.387 . S
C725 C727 1.390 . S
C725 H729 0.950 . S
H726 C722 0.950 . S
C727 C725 1.390 . S
C727 C728 1.387 . S
C727 H730 0.950 . S
C728 C727 1.387 . S
C728 C731 1.387 . S
H729 C725 0.950 . S
H730 C727 0.950 . S
C731 C722 1.390 . S
C731 H724 0.950 . S
C731 C728 1.387 . S
C732 C733 1.387 . S
C732 H736 0.950 . S
C732 C741 1.390 . S
C733 C732 1.387 . S
C733 C735 1.387 . S
H734 C741 0.950 . S
C735 C733 1.387 . S
C735 C737 1.390 . S
C735 H739 0.950 . S
H736 C732 0.950 . S
C737 C735 1.390 . S
C737 C738 1.387 . S
C737 H740 0.950 . S
C738 C737 1.387 . S
C738 C741 1.387 . S
H739 C735 0.950 . S
H740 C737 0.950 . S
C741 C732 1.390 . S
C741 H734 0.950 . S
C741 C738 1.387 . S
C742 C743 1.387 . S
C742 H746 0.950 . S
C742 C751 1.390 . S
C743 C742 1.387 . S
C743 C745 1.387 . S
H744 C751 0.950 . S
C745 C743 1.387 . S
C745 C747 1.390 . S
C745 H749 0.950 . S
H746 C742 0.950 . S
C747 C745 1.390 . S
C747 C748 1.387 . S
C747 H750 0.950 . S
C748 C747 1.387 . S
C748 C751 1.387 . S
H749 C745 0.950 . S
H750 C747 0.950 . S
C751 C742 1.390 . S
C751 H744 0.950 . S
C751 C748 1.387 . S
C752 C753 1.387 . S
C752 H756 0.950 . S
C752 C761 1.390 . S
C753 C752 1.387 . S
C753 C755 1.387 . S
H754 C761 0.950 . S
C755 C753 1.387 . S
C755 C757 1.390 . S
C755 H759 0.950 . S
H756 C752 0.950 . S
C757 C755 1.390 . S
C757 C758 1.387 . S
C757 H760 0.950 . S
C758 C757 1.387 . S
C758 C761 1.387 . S
H759 C755 0.950 . S
H760 C757 0.950 . S
C761 C752 1.390 . S
C761 H754 0.950 . S
C761 C758 1.387 . S
C762 C763 1.387 . S
C762 H766 0.950 . S
C762 C771 1.390 . S
C763 C762 1.387 . S
C763 C765 1.387 . S
H764 C771 0.950 . S
C765 C763 1.387 . S
C765 C767 1.390 . S
C765 H769 0.950 . S
H766 C762 0.950 . S
C767 C765 1.390 . S
C767 C768 1.387 . S
C767 H770 0.950 . S
C768 C767 1.387 . S
C768 C771 1.387 . S
H769 C765 0.950 . S
H770 C767 0.950 . S
C771 C762 1.390 . S
C771 H764 0.950 . S
C771 C768 1.387 . S
C772 C773 1.387 . S
C772 H776 0.950 . S
C772 C781 1.390 . S
C773 C772 1.387 . S
C773 C775 1.387 . S
H774 C781 0.950 . S
C775 C773 1.387 . S
C775 C777 1.390 . S
C775 H779 0.950 . S
H776 C772 0.950 . S
C777 C775 1.390 . S
C777 C778 1.387 . S
C777 H780 0.950 . S
C778 C777 1.387 . S
C778 C781 1.387 . S
H779 C775 0.950 . S
H780 C777 0.950 . S
C781 C772 1.390 . S
C781 H774 0.950 . S
C781 C778 1.387 . S
C782 C783 1.387 . S
C782 H786 0.950 . S
C782 C791 1.390 . S
C783 C782 1.387 . S
C783 C785 1.387 . S
H784 C791 0.950 . S
C785 C783 1.387 . S
C785 C787 1.390 . S
C785 H789 0.950 . S
H786 C782 0.950 . S
C787 C785 1.390 . S
C787 C788 1.387 . S
C787 H790 0.950 . S
C788 C787 1.387 . S
C788 C791 1.387 . S
H789 C785 0.950 . S
H790 C787 0.950 . S
C791 C782 1.390 . S
C791 H784 0.950 . S
C791 C788 1.387 . S
C792 C793 1.387 . S
C792 H796 0.950 . S
C792 C801 1.390 . S
C793 C792 1.387 . S
C793 C795 1.387 . S
H794 C801 0.950 . S
C795 C793 1.387 . S
C795 C797 1.390 . S
C795 H799 0.950 . S
H796 C792 0.950 . S
C797 C795 1.390 . S
C797 C798 1.387 . S
C797 H800 0.950 . S
C798 C797 1.387 . S
C798 C801 1.387 . S
H799 C795 0.950 . S
H800 C797 0.950 . S
C801 C792 1.390 . S
C801 H794 0.950 . S
C801 C798 1.387 . S
C802 C803 1.387 . S
C802 H806 0.950 . S
C802 C811 1.390 . S
C803 C802 1.387 . S
C803 C805 1.387 . S
H804 C811 0.950 . S
C805 C803 1.387 . S
C805 C807 1.390 . S
C805 H809 0.950 . S
H806 C802 0.950 . S
C807 C805 1.390 . S
C807 C808 1.387 . S
C807 H810 0.950 . S
C808 C807 1.387 . S
C808 C811 1.387 . S
H809 C805 0.950 . S
H810 C807 0.950 . S
C811 C802 1.390 . S
C811 H804 0.950 . S
C811 C808 1.387 . S
C812 C813 1.387 . S
C812 H816 0.950 . S
C812 C821 1.390 . S
C813 C812 1.387 . S
C813 C815 1.387 . S
H814 C821 0.950 . S
C815 C813 1.387 . S
C815 C817 1.390 . S
C815 H819 0.950 . S
H816 C812 0.950 . S
C817 C815 1.390 . S
C817 C818 1.387 . S
C817 H820 0.950 . S
C818 C817 1.387 . S
C818 C821 1.387 . S
H819 C815 0.950 . S
H820 C817 0.950 . S
C821 C812 1.390 . S
C821 H814 0.950 . S
C821 C818 1.387 . S
C822 C823 1.387 . S
C822 H826 0.950 . S
C822 C831 1.390 . S
C823 C822 1.387 . S
C823 C825 1.387 . S
H824 C831 0.950 . S
C825 C823 1.387 . S
C825 C827 1.390 . S
C825 H829 0.950 . S
H826 C822 0.950 . S
C827 C825 1.390 . S
C827 C828 1.387 . S
C827 H830 0.950 . S
C828 C827 1.387 . S
C828 C831 1.387 . S
H829 C825 0.950 . S
H830 C827 0.950 . S
C831 C822 1.390 . S
C831 H824 0.950 . S
C831 C828 1.387 . S
C832 C833 1.387 . S
C832 H836 0.950 . S
C832 C841 1.390 . S
C833 C832 1.387 . S
C833 C835 1.387 . S
H834 C841 0.950 . S
C835 C833 1.387 . S
C835 C837 1.390 . S
C835 H839 0.950 . S
H836 C832 0.950 . S
C837 C835 1.390 . S
C837 C838 1.387 . S
C837 H840 0.950 . S
C838 C837 1.387 . S
C838 C841 1.387 . S
H839 C835 0.950 . S
H840 C837 0.950 . S
C841 C832 1.390 . S
C841 H834 0.950 . S
C841 C838 1.387 . S
C842 C843 1.387 . S
C842 H846 0.950 . S
C842 C851 1.390 . S
C843 C842 1.387 . S
C843 C845 1.387 . S
H844 C851 0.950 . S
C845 C843 1.387 . S
C845 C847 1.390 . S
C845 H849 0.950 . S
H846 C842 0.950 . S
C847 C845 1.390 . S
C847 C848 1.387 . S
C847 H850 0.950 . S
C848 C847 1.387 . S
C848 C851 1.387 . S
H849 C845 0.950 . S
H850 C847 0.950 . S
C851 C842 1.390 . S
C851 H844 0.950 . S
C851 C848 1.387 . S
C852 C853 1.387 . S
C852 H856 0.950 . S
C852 C861 1.390 1_455 S
C853 C852 1.387 . S
C853 C855 1.387 1_556 S
H854 C861 0.950 . S
C855 C853 1.387 1_554 S
C855 C857 1.390 1_455 S
C855 H859 0.950 . S
H856 C852 0.950 . S
C857 C855 1.390 1_655 S
C857 C858 1.387 . S
C857 H860 0.950 . S
C858 C857 1.387 . S
C858 C861 1.387 1_554 S
H859 C855 0.950 . S
H860 C857 0.950 . S
C861 C852 1.390 1_655 S
C861 H854 0.950 . S
C861 C858 1.387 1_556 S
C862 C863 1.387 . S
C862 H866 0.950 . S
C862 C871 1.390 . S
C863 C862 1.387 . S
C863 C865 1.387 1_556 S
H864 C871 0.950 . S
C865 C863 1.387 1_554 S
C865 C867 1.390 . S
C865 H869 0.950 . S
H866 C862 0.950 . S
C867 C865 1.390 . S
C867 C868 1.387 . S
C867 H870 0.950 . S
C868 C867 1.387 . S
C868 C871 1.387 1_554 S
H869 C865 0.950 . S
H870 C867 0.950 . S
C871 C862 1.390 . S
C871 H864 0.950 . S
C871 C868 1.387 1_556 S
C872 C873 1.387 . S
C872 H876 0.950 . S
C872 C881 1.390 1_544 S
C873 C872 1.387 . S
C873 C875 1.387 . S
H874 C881 0.950 . S
C875 C873 1.387 . S
C875 C877 1.390 1_544 S
C875 H879 0.950 . S
H876 C872 0.950 . S
C877 C875 1.390 1_566 S
C877 C878 1.387 . S
C877 H880 0.950 . S
C878 C877 1.387 . S
C878 C881 1.387 . S
H879 C875 0.950 . S
H880 C877 0.950 . S
C881 C872 1.390 1_566 S
C881 H874 0.950 . S
C881 C878 1.387 . S
C882 C883 1.387 . S
C882 H886 0.950 . S
C882 C891 1.390 . S
C883 C882 1.387 . S
C883 C885 1.387 . S
H884 C891 0.950 . S
C885 C883 1.387 . S
C885 C887 1.390 . S
C885 H889 0.950 . S
H886 C882 0.950 . S
C887 C885 1.390 . S
C887 C888 1.387 . S
C887 H890 0.950 . S
C888 C887 1.387 . S
C888 C891 1.387 . S
H889 C885 0.950 . S
H890 C887 0.950 . S
C891 C882 1.390 . S
C891 H884 0.950 . S
C891 C888 1.387 . S
C892 C893 1.387 . S
C892 H896 0.950 . S
C892 C901 1.390 1_545 S
C893 C892 1.387 . S
C893 C895 1.387 . S
H894 C901 0.950 . S
C895 C893 1.387 . S
C895 C897 1.390 1_545 S
C895 H899 0.950 . S
H896 C892 0.950 . S
C897 C895 1.390 1_565 S
C897 C898 1.387 . S
C897 H900 0.950 . S
C898 C897 1.387 . S
C898 C901 1.387 . S
H899 C895 0.950 . S
H900 C897 0.950 . S
C901 C892 1.390 1_565 S
C901 H894 0.950 . S
C901 C898 1.387 . S
C902 C903 1.387 . S
C902 H906 0.950 . S
C902 C911 1.390 1_455 S
C903 C902 1.387 . S
C903 C905 1.398 . S
H904 C911 0.950 . S
C905 C903 1.398 . S
C905 C907 1.377 1_455 S
C905 H909 0.953 . S
H906 C902 0.950 . S
C907 C905 1.377 1_655 S
C907 C908 1.387 . S
C907 H910 0.950 . S
C908 C907 1.387 . S
C908 C911 1.387 . S
H909 C905 0.953 . S
H910 C907 0.950 . S
C911 C902 1.390 1_655 S
C911 H904 0.950 . S
C911 C908 1.387 . S
C912 C913 1.387 . S
C912 H916 0.950 . S
C912 C921 1.390 . S
C913 C912 1.387 . S
C913 C915 1.387 . S
H914 C921 0.950 . S
C915 C913 1.387 . S
C915 C917 1.390 . S
C915 H919 0.950 . S
H916 C912 0.950 . S
C917 C915 1.390 . S
C917 C918 1.387 . S
C917 H920 0.950 . S
C918 C917 1.387 . S
C918 C921 1.387 . S
H919 C915 0.950 . S
H920 C917 0.950 . S
C921 C912 1.390 . S
C921 H914 0.950 . S
C921 C918 1.387 . S
C922 C923 1.387 . S
C922 H926 0.950 . S
C922 C931 1.390 1_565 S
C923 C922 1.387 . S
C923 C925 1.387 . S
H924 C931 0.950 . S
C925 C923 1.387 . S
C925 C927 1.390 1_565 S
C925 H929 0.950 . S
H926 C922 0.950 . S
C927 C925 1.390 1_545 S
C927 C928 1.387 . S
C927 H930 0.950 . S
C928 C927 1.387 . S
C928 C931 1.387 . S
H929 C925 0.950 . S
H930 C927 0.950 . S
C931 C922 1.390 1_545 S
C931 H924 0.950 . S
C931 C928 1.387 . S
C932 C933 1.387 . S
C932 H936 0.950 . S
C932 C941 1.390 1_655 S
C933 C932 1.387 . S
C933 C935 1.387 . S
H934 C941 0.950 . S
C935 C933 1.387 . S
C935 C937 1.366 1_655 S
C935 H939 0.950 . S
H936 C932 0.950 . S
C937 C935 1.366 1_455 S
C937 C938 1.398 . S
C937 H940 0.965 . S
C938 C937 1.398 . S
C938 C941 1.387 . S
H939 C935 0.950 . S
H940 C937 0.965 . S
C941 C932 1.390 1_455 S
C941 H934 0.950 . S
C941 C938 1.387 . S
C942 C943 1.387 . S
C942 H946 0.950 . S
C942 C951 1.390 . S
C943 C942 1.387 . S
C943 C945 1.387 . S
H944 C951 0.950 . S
C945 C943 1.387 . S
C945 C947 1.390 . S
C945 H949 0.950 . S
H946 C942 0.950 . S
C947 C945 1.390 . S
C947 C948 1.387 . S
C947 H950 0.950 . S
C948 C947 1.387 . S
C948 C951 1.387 . S
H949 C945 0.950 . S
H950 C947 0.950 . S
C951 C942 1.390 . S
C951 H944 0.950 . S
C951 C948 1.387 . S
C952 C953 1.387 . S
C952 H956 0.950 . S
C952 C961 1.390 . S
C953 C952 1.387 . S
C953 C955 1.387 . S
H954 C961 0.950 . S
C955 C953 1.387 . S
C955 C957 1.390 . S
C955 H959 0.950 . S
H956 C952 0.950 . S
C957 C955 1.390 . S
C957 C958 1.387 . S
C957 H960 0.950 . S
C958 C957 1.387 . S
C958 C961 1.387 . S
H959 C955 0.950 . S
H960 C957 0.950 . S
C961 C952 1.390 . S
C961 H954 0.950 . S
C961 C958 1.387 . S
C962 C963 1.387 . S
C962 H966 0.950 . S
C962 C971 1.390 . S
C963 C962 1.387 . S
C963 C965 1.387 . S
H964 C971 0.950 . S
C965 C963 1.387 . S
C965 C967 1.390 . S
C965 H969 0.950 . S
H966 C962 0.950 . S
C967 C965 1.390 . S
C967 C968 1.387 . S
C967 H970 0.950 . S
C968 C967 1.387 . S
C968 C971 1.387 . S
H969 C965 0.950 . S
H970 C967 0.950 . S
C971 C962 1.390 . S
C971 H964 0.950 . S
C971 C968 1.387 . S
C972 C973 1.387 . S
C972 H976 0.950 . S
C972 C981 1.390 . S
C973 C972 1.387 . S
C973 C975 1.387 . S
H974 C981 0.950 . S
C975 C973 1.387 . S
C975 C977 1.390 . S
C975 H979 0.950 . S
H976 C972 0.950 . S
C977 C975 1.390 . S
C977 C978 1.387 . S
C977 H980 0.950 . S
C978 C977 1.387 . S
C978 C981 1.387 . S
H979 C975 0.950 . S
H980 C977 0.950 . S
C981 C972 1.390 . S
C981 H974 0.950 . S
C981 C978 1.387 . S
C982 C983 1.387 . S
C982 H986 0.950 . S
C982 C991 1.390 . S
C983 C982 1.387 . S
C983 C985 1.387 . S
H984 C991 0.950 . S
C985 C983 1.387 . S
C985 C987 1.390 . S
C985 H989 0.950 . S
H986 C982 0.950 . S
C987 C985 1.390 . S
C987 C988 1.387 . S
C987 H990 0.950 . S
C988 C987 1.387 . S
C988 C991 1.387 . S
H989 C985 0.950 . S
H990 C987 0.950 . S
C991 C982 1.390 . S
C991 H984 0.950 . S
C991 C988 1.387 . S
C992 C993 1.387 . S
C992 H996 0.950 . S
C992 C1001 1.390 . S
C993 C992 1.387 . S
C993 C995 1.387 . S
H994 C1001 0.950 . S
C995 C993 1.387 . S
C995 C997 1.390 . S
C995 H999 0.950 . S
H996 C992 0.950 . S
C997 C995 1.390 . S
C997 C998 1.387 . S
C997 H1000 0.950 . S
C998 C997 1.387 . S
C998 C1001 1.387 . S
H999 C995 0.950 . S
H1000 C997 0.950 . S
C1001 C992 1.390 . S
C1001 H994 0.950 . S
C1001 C998 1.387 . S
C1002 C1003 1.387 . S
C1002 H1006 0.950 . S
C1002 C1011 1.390 . S
C1003 C1002 1.387 . S
C1003 C1005 1.387 . S
H1004 C1011 0.950 . S
C1005 C1003 1.387 . S
C1005 C1007 1.390 . S
C1005 H1009 0.950 . S
H1006 C1002 0.950 . S
C1007 C1005 1.390 . S
C1007 C1008 1.387 . S
C1007 H1010 0.950 . S
C1008 C1007 1.387 . S
C1008 C1011 1.387 . S
H1009 C1005 0.950 . S
H1010 C1007 0.950 . S
C1011 C1002 1.390 . S
C1011 H1004 0.950 . S
C1011 C1008 1.387 . S
C1012 C1013 1.387 . S
C1012 H1016 0.950 . S
C1012 C1021 1.390 . S
C1013 C1012 1.387 . S
C1013 C1015 1.387 . S
H1014 C1021 0.950 . S
C1015 C1013 1.387 . S
C1015 C1017 1.390 . S
C1015 H1019 0.950 . S
H1016 C1012 0.950 . S
C1017 C1015 1.390 . S
C1017 C1018 1.387 . S
C1017 H1020 0.950 . S
C1018 C1017 1.387 . S
C1018 C1021 1.387 . S
H1019 C1015 0.950 . S
H1020 C1017 0.950 . S
C1021 C1012 1.390 . S
C1021 H1014 0.950 . S
C1021 C1018 1.387 . S
C1022 C1023 1.387 . S
C1022 H1026 0.950 . S
C1022 C1031 1.390 . S
C1023 C1022 1.387 . S
C1023 C1025 1.387 . S
H1024 C1031 0.950 . S
C1025 C1023 1.387 . S
C1025 C1027 1.390 . S
C1025 H1029 0.950 . S
H1026 C1022 0.950 . S
C1027 C1025 1.390 . S
C1027 C1028 1.387 . S
C1027 H1030 0.950 . S
C1028 C1027 1.387 . S
C1028 C1031 1.387 . S
H1029 C1025 0.950 . S
H1030 C1027 0.950 . S
C1031 C1022 1.390 . S
C1031 H1024 0.950 . S
C1031 C1028 1.387 . S
C1032 C1033 1.387 . S
C1032 H1036 0.950 . S
C1032 C1041 1.390 . S
C1033 C1032 1.387 . S
C1033 C1035 1.387 . S
H1034 C1041 0.950 . S
C1035 C1033 1.387 . S
C1035 C1037 1.390 . S
C1035 H1039 0.950 . S
H1036 C1032 0.950 . S
C1037 C1035 1.390 . S
C1037 C1038 1.387 . S
C1037 H1040 0.950 . S
C1038 C1037 1.387 . S
C1038 C1041 1.387 . S
H1039 C1035 0.950 . S
H1040 C1037 0.950 . S
C1041 C1032 1.390 . S
C1041 H1034 0.950 . S
C1041 C1038 1.387 . S
C1042 C1043 1.387 . S
C1042 H1046 0.950 . S
C1042 C1051 1.390 . S
C1043 C1042 1.387 . S
C1043 C1045 1.387 . S
H1044 C1051 0.950 . S
C1045 C1043 1.387 . S
C1045 C1047 1.390 . S
C1045 H1049 0.950 . S
H1046 C1042 0.950 . S
C1047 C1045 1.390 . S
C1047 C1048 1.387 . S
C1047 H1050 0.950 . S
C1048 C1047 1.387 . S
C1048 C1051 1.387 . S
H1049 C1045 0.950 . S
H1050 C1047 0.950 . S
C1051 C1042 1.390 . S
C1051 H1044 0.950 . S
C1051 C1048 1.387 . S
C1052 C1053 1.387 . S
C1052 H1056 0.950 . S
C1052 C1061 1.390 . S
C1053 C1052 1.387 . S
C1053 C1055 1.387 . S
H1054 C1061 0.950 . S
C1055 C1053 1.387 . S
C1055 C1057 1.390 . S
C1055 H1059 0.950 . S
H1056 C1052 0.950 . S
C1057 C1055 1.390 . S
C1057 C1058 1.387 . S
C1057 H1060 0.950 . S
C1058 C1057 1.387 . S
C1058 C1061 1.387 . S
H1059 C1055 0.950 . S
H1060 C1057 0.950 . S
C1061 C1052 1.390 . S
C1061 H1054 0.950 . S
C1061 C1058 1.387 . S
C613 C122 2.345 . S
C618 C20 2.345 . S
C623 C156 2.345 . S
C628 C54 2.345 . S
C633 C88 2.345 . S
C638 C190 2.345 . S
C643 C43 0.697 . S
C648 C179 0.697 . S
C653 C111 0.699 . S
C658 C77 0.699 . S
C663 C145 0.698 . S
C668 C9 0.696 . S
C673 C224 2.345 . S
C678 C326 2.345 . S
C683 C360 2.345 . S
C688 C258 2.345 . S
C693 C292 2.345 . S
C698 C394 2.345 . S
C703 C383 0.697 . S
C708 C247 0.699 . S
C713 C315 0.697 . S
C718 C281 0.697 . S
C723 C349 0.696 . S
C728 C213 0.697 . S
C733 C530 2.345 . S
C738 C428 2.345 . S
C743 C462 2.345 . S
C748 C564 2.345 . S
C753 C598 2.345 . S
C758 C496 2.345 . S
C763 C451 0.697 . S
C768 C587 0.697 . S
C773 C519 0.697 . S
C778 C485 0.697 . S
C783 C417 0.698 . S
C788 C553 0.699 . S
C793 C611 1.003 . S
C798 C33 1.003 . S
C803 C67 1.003 . S
C808 C543 1.003 . S
C813 C577 1.004 . S
C818 C101 1.003 . S
C823 C271 1.003 . S
C828 C135 1.003 . S
C833 C169 1.003 . S
C838 C305 1.004 . S
C843 C203 1.003 . S
C848 C237 1.003 . S
C853 C475 1.003 . S
C858 C339 1.003 . S
C863 C509 1.003 . S
C868 C373 1.003 . S
C873 C407 1.003 . S
C878 C441 1.003 . S
C883 C5 1.154 . S
C888 C107 1.156 . S
C893 C141 1.155 . S
C898 C39 1.155 . S
C903 C73 1.156 . S
C908 C175 1.153 . S
C913 C172 2.907 . S
C918 C36 2.907 . S
C923 C70 2.907 . S
C928 C104 2.907 . S
C933 C138 2.907 . S
C938 C2 2.907 . S
C943 C209 1.154 . S
C948 C311 1.156 . S
C953 C345 1.155 . S
C958 C243 1.155 . S
C963 C379 1.153 . S
C968 C277 1.156 . S
C973 C376 2.907 . S
C978 C240 2.907 . S
C983 C308 2.907 . S
C988 C274 2.907 . S
C993 C342 2.907 . S
C998 C206 2.907 . S
C1003 C515 1.156 . S
C1008 C413 1.154 . S
C1013 C549 1.153 . S
C1018 C447 1.153 . S
C1023 C583 1.155 . S
C1028 C481 1.152 . S
C1033 C580 2.907 . S
C1038 C444 2.907 . S
C1043 C512 2.907 . S
C1048 C478 2.907 . S
C1053 C546 2.907 . S
C1058 C410 2.907 . S
