# Generated by pormake.
# Topology wkf, (6)-cn, num edge types: 1
# Building blocks:
#     Node 0, Type 0, BuildingBlock: KUMBOL_clean_sbu_1, # of connection points: 6
#     Node 1, Type 0, BuildingBlock: KUMBOL_clean_sbu_1, # of connection points: 6
#     Node 2, Type 0, BuildingBlock: KUMBOL_clean_sbu_1, # of connection points: 6
#     Node 3, Type 0, BuildingBlock: KUMBOL_clean_sbu_1, # of connection points: 6
#     Node 4, Type 0, BuildingBlock: KUMBOL_clean_sbu_1, # of connection points: 6
#     Node 5, Type 0, BuildingBlock: KUMBOL_clean_sbu_1, # of connection points: 6
#     Node 6, Type 0, BuildingBlock: KUMBOL_clean_sbu_1, # of connection points: 6
#     Node 7, Type 0, BuildingBlock: KUMBOL_clean_sbu_1, # of connection points: 6
#     Node 8, Type 0, BuildingBlock: KUMBOL_clean_sbu_1, # of connection points: 6
#     Node 9, Type 0, BuildingBlock: KUMBOL_clean_sbu_1, # of connection points: 6
#     Node 10, Type 0, BuildingBlock: KUMBOL_clean_sbu_1, # of connection points: 6
#     Node 11, Type 0, BuildingBlock: KUMBOL_clean_sbu_1, # of connection points: 6
#     Edge 12, Type (0, 0), BuildingBlock: XIVTED_clean_linker_0, # of connection points: 2
#     Edge 13, Type (0, 0), BuildingBlock: XIVTED_clean_linker_0, # of connection points: 2
#     Edge 14, Type (0, 0), BuildingBlock: XIVTED_clean_linker_0, # of connection points: 2
#     Edge 15, Type (0, 0), BuildingBlock: XIVTED_clean_linker_0, # of connection points: 2
#     Edge 16, Type (0, 0), BuildingBlock: XIVTED_clean_linker_0, # of connection points: 2
#     Edge 17, Type (0, 0), BuildingBlock: XIVTED_clean_linker_0, # of connection points: 2
#     Edge 18, Type (0, 0), BuildingBlock: XIVTED_clean_linker_0, # of connection points: 2
#     Edge 19, Type (0, 0), BuildingBlock: XIVTED_clean_linker_0, # of connection points: 2
#     Edge 20, Type (0, 0), BuildingBlock: XIVTED_clean_linker_0, # of connection points: 2
#     Edge 21, Type (0, 0), BuildingBlock: XIVTED_clean_linker_0, # of connection points: 2
#     Edge 22, Type (0, 0), BuildingBlock: XIVTED_clean_linker_0, # of connection points: 2
#     Edge 23, Type (0, 0), BuildingBlock: XIVTED_clean_linker_0, # of connection points: 2
#     Edge 24, Type (0, 0), BuildingBlock: XIVTED_clean_linker_0, # of connection points: 2
#     Edge 25, Type (0, 0), BuildingBlock: XIVTED_clean_linker_0, # of connection points: 2
#     Edge 26, Type (0, 0), BuildingBlock: XIVTED_clean_linker_0, # of connection points: 2
#     Edge 27, Type (0, 0), BuildingBlock: XIVTED_clean_linker_0, # of connection points: 2
#     Edge 28, Type (0, 0), BuildingBlock: XIVTED_clean_linker_0, # of connection points: 2
#     Edge 29, Type (0, 0), BuildingBlock: XIVTED_clean_linker_0, # of connection points: 2
#     Edge 30, Type (0, 0), BuildingBlock: XIVTED_clean_linker_0, # of connection points: 2
#     Edge 31, Type (0, 0), BuildingBlock: XIVTED_clean_linker_0, # of connection points: 2
#     Edge 32, Type (0, 0), BuildingBlock: XIVTED_clean_linker_0, # of connection points: 2
#     Edge 33, Type (0, 0), BuildingBlock: XIVTED_clean_linker_0, # of connection points: 2
#     Edge 34, Type (0, 0), BuildingBlock: XIVTED_clean_linker_0, # of connection points: 2
#     Edge 35, Type (0, 0), BuildingBlock: XIVTED_clean_linker_0, # of connection points: 2
#     Edge 36, Type (0, 0), BuildingBlock: XIVTED_clean_linker_0, # of connection points: 2
#     Edge 37, Type (0, 0), BuildingBlock: XIVTED_clean_linker_0, # of connection points: 2
#     Edge 38, Type (0, 0), BuildingBlock: XIVTED_clean_linker_0, # of connection points: 2
#     Edge 39, Type (0, 0), BuildingBlock: XIVTED_clean_linker_0, # of connection points: 2
#     Edge 40, Type (0, 0), BuildingBlock: XIVTED_clean_linker_0, # of connection points: 2
#     Edge 41, Type (0, 0), BuildingBlock: XIVTED_clean_linker_0, # of connection points: 2
#     Edge 42, Type (0, 0), BuildingBlock: XIVTED_clean_linker_0, # of connection points: 2
#     Edge 43, Type (0, 0), BuildingBlock: XIVTED_clean_linker_0, # of connection points: 2
#     Edge 44, Type (0, 0), BuildingBlock: XIVTED_clean_linker_0, # of connection points: 2
#     Edge 45, Type (0, 0), BuildingBlock: XIVTED_clean_linker_0, # of connection points: 2
#     Edge 46, Type (0, 0), BuildingBlock: XIVTED_clean_linker_0, # of connection points: 2
#     Edge 47, Type (0, 0), BuildingBlock: XIVTED_clean_linker_0, # of connection points: 2
# Relax obj value: 0.236
# Max RMSD: 0.285
# Mean RMSD: 0.277
data_MOF--net-wkf--node1-KUMBOL_clean_sbu_1--edge1-XIVTED_clean_linker_0
_symmetry_space_group_name_H-M    P1
_symmetry_Int_Tables_number       1
_symmetry_cell_setting            triclinic
loop_
_symmetry_equiv_pos_as_xyz
'x, y, z'
_cell_length_a     29.679002
_cell_length_b     29.648633
_cell_length_c     86.8899
_cell_angle_alpha  89.991783
_cell_angle_beta   90.047107
_cell_angle_gamma 119.75163
loop_
_atom_site_label
_atom_site_type_symbol
_atom_site_fract_x
_atom_site_fract_y
_atom_site_fract_z
_atom_type_partial_charge
C0 C 0.64936 1.00489 0.38554 0.0
C1 C 0.69275 1.04214 0.36154 0.0
C2 C 0.65039 1.02732 0.37163 0.0
C3 C 0.73533 1.03706 0.36625 0.0
C4 C 0.69042 0.99667 0.39001 0.0
C5 C 0.73415 1.01428 0.38048 0.0
N6 N 0.60605 0.98721 0.39417 0.0
C7 C 0.59959 0.95813 0.40703 0.0
C8 C 0.6853 0.96924 0.40361 0.0
C9 C 0.6393 0.94923 0.41205 0.0
Gd10 Gd 0.43208 0.9678 0.35589 0.0
Gd11 Gd 0.542 1.0069 0.38645 0.0
N12 N 0.60768 1.02984 0.36737 0.0
C13 C 0.68981 0.05898 0.34675 0.0
C14 C 0.60312 1.04168 0.35248 0.0
C15 C 0.64421 0.05759 0.34209 0.0
H16 H 0.56753 1.03772 0.34837 0.0
H17 H 0.64021 0.06779 0.3304 0.0
H18 H 0.33103 0.977 0.36951 0.0
H19 H 0.56387 0.94227 0.41351 0.0
H20 H 0.28086 1.01983 0.36231 0.0
H21 H 0.72135 0.07055 0.33862 0.0
H22 H 0.76841 0.04874 0.35872 0.0
H23 H 0.51946 0.99547 0.32746 0.0
H24 H 0.71589 0.96199 0.40744 0.0
H25 H 0.63434 0.92684 0.42238 0.0
H26 H 0.35528 0.10365 0.31431 0.0
H27 H 0.76637 1.00886 0.38376 0.0
H28 H 0.49531 0.08602 0.2936 0.0
H29 H 0.54275 1.04217 0.30272 0.0
N30 N 0.46112 1.01482 0.33277 0.0
C31 C 0.43315 1.03701 0.32768 0.0
C32 C 0.49932 1.01552 0.32383 0.0
C33 C 0.48513 0.06589 0.30455 0.0
C34 C 0.51221 1.04144 0.3097 0.0
C35 C 0.44496 0.06377 0.31352 0.0
H36 H 0.4254 0.10875 0.29802 0.0
N37 N 0.38166 1.00643 0.35022 0.0
C38 C 0.39324 1.03383 0.33685 0.0
C39 C 0.32428 0.05312 0.34152 0.0
C40 C 0.36466 0.05775 0.33211 0.0
C41 C 0.3415 1.00069 0.35925 0.0
C42 C 0.31256 1.02432 0.35511 0.0
O43 O 0.51371 0.92802 0.37597 0.0
O44 O 0.49397 0.94245 0.35171 0.0
O45 O 0.35869 0.92476 0.34325 0.0
O46 O 0.40526 0.88926 0.34743 0.0
O47 O 0.5548 0.08039 0.37311 0.0
O48 O 0.4944 0.0547 0.35312 0.0
O49 O 0.41593 0.9947 0.37928 0.0
O50 O 0.49939 0.05106 0.38679 0.0
O51 O 0.59259 0.05376 0.40519 0.0
O52 O 0.5132 0.99402 0.40974 0.0
O53 O 0.40112 0.92943 0.37928 0.0
O54 O 0.47115 0.92702 0.38998 0.0
C55 C 0.50985 0.91792 0.36119 0.0
C56 C 0.53475 0.09136 0.36081 0.0
C57 C 0.36553 0.87564 0.32273 0.0
C58 C 0.32041 0.84308 0.29775 0.0
C59 C 0.41508 0.88897 0.29928 0.0
C60 C 0.41304 0.89318 0.31513 0.0
C61 C 0.36965 0.86521 0.29067 0.0
C62 C 0.31879 0.84988 0.31397 0.0
C63 C 0.36661 0.88686 0.33955 0.0
C64 C 0.3768 0.08498 0.31812 0.0
C65 C 0.41669 0.08782 0.30883 0.0
H66 H 0.3015 0.07103 0.33829 0.0
C67 C 0.44972 1.03368 0.38795 0.0
C68 C 0.42118 0.91174 0.38966 0.0
C69 C 0.5471 0.06784 0.42579 0.0
C70 C 0.57981 0.15137 0.43876 0.0
C71 C 0.49511 0.07948 0.44538 0.0
C72 C 0.50149 0.04804 0.43465 0.0
C73 C 0.53412 0.1309 0.4475 0.0
C74 C 0.58594 0.11976 0.42786 0.0
C75 C 0.55514 1.03308 0.41532 0.0
H76 H 0.4523 0.90442 0.2936 0.0
H77 H 0.44911 0.91099 0.32145 0.0
H78 H 0.37362 0.86435 0.27831 0.0
H79 H 0.28187 0.83483 0.3198 0.0
H80 H 0.45998 0.06377 0.45217 0.0
H81 H 0.47095 1.008 0.43345 0.0
H82 H 0.52882 0.15456 0.45601 0.0
H83 H 0.62193 0.13508 0.42147 0.0
C84 C 0.71243 0.60204 0.53435 0.0
C85 C 0.70454 0.63276 0.50924 0.0
C86 C 0.68115 0.60431 0.52283 0.0
C87 C 0.75825 0.65498 0.50701 0.0
C88 C 0.76682 0.62644 0.53241 0.0
C89 C 0.78929 0.65173 0.51855 0.0
N90 N 0.68998 0.57694 0.54762 0.0
C91 C 0.71965 0.57684 0.55968 0.0
C92 C 0.79727 0.6255 0.54457 0.0
C93 C 0.77359 0.60107 0.55833 0.0
Gd94 Gd 0.51895 0.41391 0.52247 0.0
Gd95 Gd 0.59922 0.53609 0.54918 0.0
N96 N 0.62884 0.58193 0.52526 0.0
C97 C 0.67385 0.64021 0.49854 0.0
C98 C 0.59999 0.59294 0.51516 0.0
C99 C 0.62168 0.62131 0.5017 0.0
H100 H 0.56057 0.58206 0.51712 0.0
H101 H 0.59792 0.62869 0.49377 0.0
H102 H 0.39066 0.35554 0.52553 0.0
H103 H 0.70161 0.55634 0.57018 0.0
H104 H 0.31557 0.33695 0.50889 0.0
H105 H 0.6904 0.66207 0.48806 0.0
H106 H 0.7764 0.67616 0.49655 0.0
H107 H 0.62868 0.51248 0.50342 0.0
H108 H 0.83907 0.64379 0.5435 0.0
H109 H 0.79678 0.60011 0.56781 0.0
H110 H 0.39279 0.42662 0.46185 0.0
H111 H 0.83085 0.67008 0.51679 0.0
H112 H 0.57728 0.53026 0.45946 0.0
H113 H 0.64781 0.54994 0.47789 0.0
N114 N 0.54645 0.46633 0.49991 0.0
C115 C 0.50688 0.45523 0.48979 0.0
C116 C 0.59655 0.5007 0.49571 0.0
C117 C 0.56811 0.5121 0.47071 0.0
C118 C 0.60799 0.52326 0.48109 0.0
C119 C 0.51684 0.47826 0.47502 0.0
H120 H 0.48265 0.48436 0.45362 0.0
N121 N 0.44643 0.40104 0.50863 0.0
C122 C 0.4557 0.42161 0.49425 0.0
C123 C 0.36319 0.38054 0.48968 0.0
C124 C 0.41405 0.41167 0.48435 0.0
C125 C 0.39711 0.37141 0.51402 0.0
C126 C 0.35471 0.36074 0.50463 0.0
O127 O 0.64424 0.49554 0.5424 0.0
O128 O 0.60713 0.44709 0.52045 0.0
O129 O 0.4727 0.32987 0.52458 0.0
O130 O 0.51823 0.36184 0.50429 0.0
O131 O 0.52755 0.53735 0.53994 0.0
O132 O 0.48328 0.46734 0.52325 0.0
O133 O 0.47051 0.40785 0.54385 0.0
O134 O 0.51953 0.48277 0.55864 0.0
O135 O 0.61501 0.61114 0.55825 0.0
O136 O 0.6196 0.55579 0.57311 0.0
O137 O 0.54688 0.39289 0.54445 0.0
O138 O 0.58363 0.46274 0.56163 0.0
C139 C 0.64756 0.47366 0.52959 0.0
C140 C 0.48881 0.50937 0.53033 0.0
C141 C 0.43997 0.27953 0.50152 0.0
C142 C 0.40689 0.2171 0.47985 0.0
C143 C 0.34719 0.22134 0.49824 0.0
C144 C 0.38856 0.25947 0.50661 0.0
C145 C 0.3561 0.20054 0.48501 0.0
C146 C 0.44898 0.25787 0.48804 0.0
C147 C 0.48372 0.31971 0.511 0.0
C148 C 0.42427 0.43405 0.46964 0.0
C149 C 0.47547 0.46707 0.46498 0.0
H150 H 0.33024 0.3722 0.48242 0.0
C151 C 0.47745 0.43785 0.55601 0.0
C152 C 0.56591 0.41338 0.55812 0.0
C153 C 0.58764 0.60566 0.58431 0.0
C154 C 0.52262 0.6287 0.59227 0.0
C155 C 0.56519 0.60207 0.61129 0.0
C156 C 0.59445 0.59633 0.59974 0.0
C157 C 0.52998 0.61866 0.60766 0.0
C158 C 0.55064 0.62034 0.5806 0.0
C159 C 0.6191 0.59903 0.57236 0.0
H160 H 0.30784 0.20715 0.5022 0.0
H161 H 0.37993 0.27266 0.51721 0.0
H162 H 0.32281 0.17089 0.47885 0.0
H163 H 0.48845 0.27137 0.48429 0.0
H164 H 0.57084 0.59498 0.62317 0.0
H165 H 0.62246 0.58455 0.60285 0.0
H166 H 0.51036 0.62565 0.61706 0.0
H167 H 0.54442 0.62613 0.56866 0.0
C168 C 0.09487 0.66707 0.71897 0.0
C169 C 1.05508 0.67206 0.69529 0.0
C170 C 0.07205 0.64554 0.70513 0.0
C171 C 1.05826 0.71869 0.70023 0.0
C172 C 0.10149 0.71558 0.7236 0.0
C173 C 0.08152 0.74049 0.71439 0.0
N174 N 0.11494 0.64268 0.72725 0.0
C175 C 0.14527 0.66617 0.73982 0.0
C176 C 0.12992 0.73851 0.737 0.0
C177 C 0.15262 0.71402 0.74502 0.0
Gd178 Gd 0.1363 0.49038 0.68834 0.0
Gd179 Gd 0.09772 0.55989 0.71929 0.0
N180 N 0.07166 0.60152 0.70063 0.0
C181 C 1.03828 0.65252 0.68049 0.0
C182 C 1.06007 0.58567 0.6857 0.0
C183 C 1.04199 0.60977 0.67555 0.0
H184 H 0.06584 0.5553 0.68139 0.0
H185 H 1.03195 0.59594 0.66383 0.0
H186 H 0.12708 0.37924 0.70109 0.0
H187 H 0.16327 0.64753 0.74596 0.0
H188 H 0.08465 0.28709 0.69325 0.0
H189 H 1.02508 0.67173 0.67255 0.0
H190 H 1.04488 0.73928 0.69291 0.0
H191 H 0.10941 0.55261 0.66029 0.0
H192 H 0.13601 0.77579 0.74095 0.0
H193 H 0.17592 0.73204 0.75515 0.0
H194 H 1.00194 0.28202 0.64531 0.0
H195 H 0.08563 0.77749 0.71781 0.0
H196 H 1.01963 0.44113 0.62579 0.0
H197 H 0.0632 0.5314 0.63551 0.0
N198 N 0.0902 0.47466 0.66507 0.0
C199 C 0.0682 0.42506 0.65964 0.0
C200 C 0.08958 0.51283 0.65642 0.0
C201 C 1.03959 0.45009 0.63677 0.0
C202 C 0.06389 0.50105 0.64225 0.0
C203 C 1.04167 0.41137 0.64543 0.0
H204 H 0.997 0.34832 0.62954 0.0
N205 N 0.09831 0.40216 0.68196 0.0
C206 C 0.07125 0.3876 0.66851 0.0
C207 C 1.05193 0.2991 0.67256 0.0
C208 C 1.04748 0.33561 0.66343 0.0
C209 C 0.10379 0.36699 0.69075 0.0
C210 C 0.08035 0.31491 0.68625 0.0
O211 O 0.17567 0.61145 0.70857 0.0
O212 O 0.16191 0.57792 0.68425 0.0
O213 O 0.17981 0.46078 0.67549 0.0
O214 O 0.21568 0.54205 0.68071 0.0
O215 O 1.02354 0.4986 0.70624 0.0
O216 O 1.04945 0.46617 0.68564 0.0
O217 O 0.10774 0.44522 0.71139 0.0
O218 O 1.0526 0.47336 0.71994 0.0
O219 O 1.05424 0.56347 0.73903 0.0
O220 O 0.11539 0.54441 0.74209 0.0
O221 O 0.17233 0.49431 0.7119 0.0
O222 O 0.17835 0.56929 0.7213 0.0
C223 C 0.1853 0.61823 0.69377 0.0
C224 C 1.01256 0.46848 0.69371 0.0
C225 C 0.23131 0.51901 0.6558 0.0
C226 C 0.26727 0.51031 0.63096 0.0
C227 C 0.22024 0.55832 0.63263 0.0
C228 C 0.21393 0.54958 0.64837 0.0
C229 C 0.24575 0.53838 0.62399 0.0
C230 C 0.25856 0.49955 0.64704 0.0
C231 C 0.21838 0.50663 0.67245 0.0
C232 C 1.02051 0.32179 0.64938 0.0
C233 C 1.01776 0.35958 0.64038 0.0
H234 H 1.03413 0.25877 0.66906 0.0
C235 C 0.06866 0.43961 0.72016 0.0
C236 C 0.19096 0.53262 0.72201 0.0
C237 C 1.04531 0.50531 0.75945 0.0
C238 C 0.96739 0.46052 0.77514 0.0
C239 C 1.03326 0.43526 0.77663 0.0
C240 C 0.06329 0.47347 0.76585 0.0
C241 C 0.98499 0.42817 0.78114 0.0
C242 C 0.99752 0.49875 0.76429 0.0
C243 C 0.07747 0.5474 0.74856 0.0
H244 H 0.2051 0.58069 0.62706 0.0
H245 H 0.19471 0.56645 0.65474 0.0
H246 H 0.24837 0.54518 0.61171 0.0
H247 H 0.27327 0.477 0.65273 0.0
H248 H 1.04752 0.41115 0.78153 0.0
H249 H 0.10063 0.47819 0.76261 0.0
H250 H 0.96214 0.39851 0.78953 0.0
H251 H 0.98368 0.52371 0.7597 0.0
C252 C 0.48554 0.10427 0.8741 0.0
C253 C 0.44832 0.05981 0.85007 0.0
C254 C 0.48542 0.07352 0.86201 0.0
C255 C 0.41228 0.07738 0.85045 0.0
C256 C 0.44991 0.12285 0.87432 0.0
C257 C 0.41321 0.10897 0.8625 0.0
N258 N 0.52143 0.11749 0.88541 0.0
C259 C 0.52458 0.15003 0.89707 0.0
C260 C 0.45243 0.15536 0.88635 0.0
C261 C 0.49012 0.16922 0.89773 0.0
Gd262 Gd 0.69468 0.12842 0.85566 0.0
Gd263 Gd 0.5753 0.08036 0.88421 0.0
N264 N 0.52177 0.05799 0.8617 0.0
C265 C 0.44843 1.02898 0.83797 0.0
C266 C 0.52233 1.02904 0.84948 0.0
C267 C 0.48561 1.01361 0.83769 0.0
H268 H 0.55207 1.01945 0.8479 0.0
H269 H 0.48705 0.99098 0.82812 0.0
H270 H 0.75473 0.05995 0.85337 0.0
H271 H 0.55466 0.16243 0.9057 0.0
H272 H 0.76859 1.00653 0.83405 0.0
H273 H 0.42059 1.01762 0.82865 0.0
H274 H 0.38376 0.06711 0.84137 0.0
H275 H 0.5912 0.14355 0.84111 0.0
H276 H 0.42587 0.17047 0.88686 0.0
H277 H 0.49298 0.19506 0.90695 0.0
H278 H 0.66002 0.99576 0.79172 0.0
H279 H 0.38551 0.12272 0.86253 0.0
H280 H 0.55725 0.07767 0.79655 0.0
H281 H 0.54514 0.12776 0.81714 0.0
N282 N 0.63533 0.10713 0.83469 0.0
C283 C 0.64191 0.07873 0.82338 0.0
C284 C 0.60055 0.12424 0.8324 0.0
C285 C 0.57938 0.0857 0.80711 0.0
C286 C 0.57269 0.11423 0.81866 0.0
C287 C 0.61387 0.06718 0.80939 0.0
H288 H 0.59973 1.02857 0.78728 0.0
N289 N 0.70258 0.0708 0.83925 0.0
C290 C 0.67644 0.06031 0.82573 0.0
C291 C 0.7169 1.01081 0.81743 0.0
C292 C 0.68304 1.0299 0.81441 0.0
C293 C 0.73505 0.05177 0.8424 0.0
C294 C 0.74272 1.02148 0.83155 0.0
O295 O 0.59967 0.16113 0.87515 0.0
O296 O 0.66442 0.18658 0.85659 0.0
O297 O 0.77894 0.16708 0.85713 0.0
O298 O 0.74454 0.17775 0.83687 0.0
O299 O 0.57554 1.01017 0.87364 0.0
O300 O 0.64746 1.03864 0.85763 0.0
O301 O 0.70485 0.08403 0.87574 0.0
O302 O 0.63927 0.06812 0.89338 0.0
O303 O 0.5143 1.01007 0.89529 0.0
O304 O 0.5542 0.08111 0.90796 0.0
O305 O 0.71722 0.17793 0.87757 0.0
O306 O 0.64798 0.14499 0.8949 0.0
C307 C 0.63089 0.19426 0.86474 0.0
C308 C 0.60576 1.00099 0.86453 0.0
C309 C 0.82761 0.1832 0.83377 0.0
C310 C 0.8884 0.21124 0.81168 0.0
C311 C 0.88621 0.14875 0.83033 0.0
C312 C 0.84868 0.15257 0.83889 0.0
C313 C 0.9056 0.17734 0.81687 0.0
C314 C 0.84804 0.21297 0.82008 0.0
C315 C 0.78757 0.18685 0.84337 0.0
C316 C 0.65535 1.01892 0.80055 0.0
C317 C 0.62096 1.03755 0.79805 0.0
H318 H 0.72288 0.98729 0.80903 0.0
C319 C 0.68141 0.06732 0.88922 0.0
C320 C 0.69656 0.17782 0.8911 0.0
C321 C 0.54016 1.00593 0.92094 0.0
C322 C 0.5255 0.9278 0.93459 0.0
C323 C 0.59855 1.01141 0.94152 0.0
C324 C 0.58426 1.03537 0.93023 0.0
C325 C 0.56939 0.95791 0.94373 0.0
C326 C 0.5112 0.95202 0.92315 0.0
C327 C 0.52517 1.03134 0.90886 0.0
H328 H 0.90102 0.12396 0.8343 0.0
H329 H 0.8365 0.13152 0.84963 0.0
H330 H 0.93474 0.1731 0.81055 0.0
H331 H 0.83389 0.23854 0.81632 0.0
H332 H 0.6324 1.03446 0.9486 0.0
H333 H 0.60798 0.07699 0.92881 0.0
H334 H 0.58087 0.94007 0.95264 0.0
H335 H 0.47667 0.92919 0.91627 0.0
C336 C 0.40966 0.47948 0.0457 0.0
C337 C 0.3992 0.43694 0.02115 0.0
C338 C 0.43171 0.47136 0.0327 0.0
C339 C 0.34503 0.41132 0.0229 0.0
C340 C 0.35522 0.45397 0.04749 0.0
C341 C 0.3231 0.41983 0.03604 0.0
N342 N 0.44133 0.51372 0.05641 0.0
C343 C 0.4216 0.52432 0.06921 0.0
C344 C 0.3346 0.46422 0.06065 0.0
C345 C 0.36799 0.49959 0.07156 0.0
Gd346 Gd 0.60343 0.66642 0.02255 0.0
Gd347 Gd 0.53061 0.55402 0.05222 0.0
N348 N 0.48447 0.49776 0.03118 0.0
C349 C 0.42188 0.42941 1.008 0.0
C350 C 0.50624 0.48989 1.01825 0.0
C351 C 0.4756 0.45592 1.00662 0.0
H352 H 0.54693 0.50987 1.01635 0.0
H353 H 0.49364 0.45062 0.99648 0.0
H354 H 0.72148 0.76194 0.03319 0.0
H355 H 0.44725 0.55254 0.07751 0.0
H356 H 0.81095 0.80506 0.02299 0.0
H357 H 0.39831 0.4034 0.9989 0.0
H358 H 0.31972 0.38499 1.01405 0.0
H359 H 0.53128 0.56779 0.99749 0.0
H360 H 0.29303 0.44549 0.06241 0.0
H361 H 0.35246 0.50821 0.0817 0.0
H362 H 0.79625 0.71903 0.97491 0.0
H363 H 0.28124 0.40008 0.03718 0.0
H364 H 0.63033 0.57745 0.96059 0.0
H365 H 0.54403 0.53495 0.97296 0.0
N366 N 0.61026 0.62723 0.9997 0.0
C367 C 0.65795 0.65213 0.99286 0.0
C368 C 0.56958 0.58601 0.99261 0.0
C369 C 0.62517 0.59197 0.97151 0.0
C370 C 0.57647 0.56765 0.9785 0.0
C371 C 0.66668 0.63461 0.97867 0.0
H372 H 0.72396 0.64648 0.96133 0.0
N373 N 0.68992 0.70947 1.0143 0.0
C374 C 0.699 0.69356 1.00052 0.0
C375 C 0.78992 0.75823 1.00239 0.0
C376 C 0.74936 0.71779 0.99418 0.0
C377 C 0.72929 0.74881 0.02244 0.0
C378 C 0.77984 0.77369 1.01655 0.0
O379 O 0.48872 0.59558 0.0438 0.0
O380 O 0.51662 0.60655 0.01928 0.0
O381 O 0.63798 0.74133 1.01036 0.0
O382 O 0.55555 0.69636 1.01291 0.0
O383 O 0.59379 0.54367 0.04001 0.0
O384 O 0.63352 0.60806 0.02139 0.0
O385 O 0.64984 0.68274 0.04518 0.0
O386 O 0.61662 0.60039 0.05589 0.0
O387 O 0.51355 0.48264 0.0641 0.0
O388 O 0.53122 0.5514 0.07708 0.0
O389 O 0.59136 0.69821 0.04543 0.0
O390 O 0.54483 0.62983 0.06266 0.0
C391 C 0.47975 0.59855 0.02921 0.0
C392 C 0.62894 0.56718 0.02898 0.0
C393 C 0.58698 0.73787 0.98875 0.0
C394 C 0.60228 0.78537 0.96411 0.0
C395 C 0.55383 0.69056 0.96477 0.0
C396 C 0.55825 0.69107 0.98068 0.0
C397 C 0.57608 0.73687 0.95657 0.0
C398 C 0.60885 0.78547 0.98039 0.0
C399 C 0.5937 0.73514 1.00573 0.0
C400 C 0.75783 0.70074 0.97997 0.0
C401 C 0.71663 0.65943 0.97222 0.0
H402 H 0.82914 0.77772 0.9979 0.0
C403 C 0.65268 0.64939 0.05482 0.0
C404 C 0.56779 0.67945 0.05884 0.0
C405 C 0.56899 0.50273 0.08583 0.0
C406 C 0.61926 0.4591 0.09031 0.0
C407 C 0.64367 0.54105 0.10301 0.0
C408 C 0.60218 0.54261 0.09595 0.0
C409 C 0.65231 0.49961 0.10022 0.0
C410 C 0.57798 0.4613 0.08309 0.0
C411 C 0.52718 0.5058 0.07743 0.0
H412 H 0.53278 0.65389 0.95875 0.0
H413 H 0.53905 0.6544 0.98668 0.0
H414 H 0.57245 0.73426 0.94416 0.0
H415 H 0.62979 0.8219 0.98655 0.0
H416 H 0.66917 0.57205 0.11069 0.0
H417 H 0.59663 0.57541 0.09828 0.0
H418 H 0.68412 0.49878 0.10607 0.0
H419 H 0.55314 0.43099 0.0751 0.0
C420 C 0.99104 0.40629 0.20222 0.0
C421 C 1.03353 0.41635 0.17766 0.0
C422 C 1.02292 0.43864 0.1906 0.0
C423 C 1.01008 0.36215 0.17629 0.0
C424 C 0.9681 0.35174 0.20096 0.0
C425 C 0.97728 0.32995 0.18786 0.0
N426 N 0.98263 0.42794 0.21485 0.0
C427 C 0.95338 0.39772 0.22684 0.0
C428 C 0.93701 0.32053 0.21302 0.0
C429 C 0.92992 0.34366 0.22606 0.0
Gd430 Gd 0.97577 0.59364 0.18918 0.0
Gd431 Gd 1.02393 0.51871 0.2157 0.0
N432 N 1.04454 0.49134 0.19207 0.0
C433 C 0.06833 0.44899 0.16656 0.0
C434 C 0.07917 0.5229 0.18112 0.0
C435 C 0.09164 0.50241 0.16841 0.0
H436 H 0.09717 0.56399 0.18143 0.0
H437 H 0.11864 0.52811 0.15984 0.0
H438 H 1.04171 0.72188 0.18762 0.0
H439 H 0.94661 0.41526 0.23682 0.0
H440 H 0.09416 0.79046 0.16859 0.0
H441 H 0.07766 0.43336 0.15656 0.0
H442 H 1.01761 0.34473 0.16637 0.0
H443 H 0.95991 0.47644 0.17354 0.0
H444 H 0.91868 0.27857 0.21242 0.0
H445 H 0.90605 0.31988 0.23546 0.0
H446 H 0.10892 0.69658 0.1258 0.0
H447 H 0.95985 0.2882 0.18669 0.0
H448 H 1.02706 0.51201 0.12915 0.0
H449 H 0.97548 0.44819 0.14913 0.0
N450 N 0.99819 0.55755 0.16797 0.0
C451 C 1.02664 0.59335 0.1569 0.0
C452 C 0.98024 0.50588 0.16513 0.0
C453 C 1.0192 0.52526 0.13991 0.0
C454 C 0.98989 0.48915 0.15113 0.0
C455 C 1.03824 0.578 0.14271 0.0
H456 H 0.07703 0.60418 0.1207 0.0
N457 N 1.03302 0.66039 0.17319 0.0
C458 C 1.04433 0.64591 0.15959 0.0
C459 C 0.09205 0.73612 0.15173 0.0
C460 C 0.07436 0.68367 0.14846 0.0
C461 C 1.05062 0.71137 0.17659 0.0
C462 C 0.08034 0.75004 0.1659 0.0
O463 O 0.94063 0.46567 0.20784 0.0
O464 O 0.91655 0.50562 0.18913 0.0
O465 O 0.93799 0.6404 0.19083 0.0
O466 O 0.92441 0.59343 0.17086 0.0
O467 O 0.0948 0.59226 0.20658 0.0
O468 O 0.06567 0.63669 0.19108 0.0
O469 O 1.01698 0.64434 0.21032 0.0
O470 O 1.04236 0.59591 0.22565 0.0
O471 O 0.08655 0.50856 0.22498 0.0
O472 O 1.02527 0.50072 0.23979 0.0
O473 O 0.92826 0.56594 0.21129 0.0
O474 O 0.96069 0.52651 0.22777 0.0
C475 C 0.90783 0.46423 0.19735 0.0
C476 C 0.10371 0.6326 0.19786 0.0
C477 C 0.91783 0.67048 0.16757 0.0
C478 C 0.88555 0.70035 0.14573 0.0
C479 C 0.94962 0.76266 0.16357 0.0
C480 C 0.94812 0.72251 0.17224 0.0
C481 C 0.91904 0.75187 0.15045 0.0
C482 C 0.88614 0.65952 0.15421 0.0
C483 C 0.91619 0.62802 0.17735 0.0
C484 C 0.08598 0.66815 0.13448 0.0
C485 C 0.06791 0.61552 0.1316 0.0
H486 H 0.11514 0.76616 0.14347 0.0
C487 C 1.0384 0.63742 0.22291 0.0
C488 C 0.92866 0.54409 0.22455 0.0
C489 C 0.1082 0.53937 0.25077 0.0
C490 C 0.19679 0.60327 0.25844 0.0
C491 C 0.12671 0.56861 0.27728 0.0
C492 C 0.09168 0.53742 0.26601 0.0
C493 C 0.17892 0.6007 0.27363 0.0
C494 C 0.16027 0.57373 0.24697 0.0
C495 C 0.07068 0.50488 0.2391 0.0
H496 H 0.97408 0.80253 0.16719 0.0
H497 H 0.97052 0.73258 0.18276 0.0
H498 H 0.92135 0.78429 0.14404 0.0
H499 H 0.86084 0.61953 0.15081 0.0
H500 H 0.11365 0.56666 0.28902 0.0
H501 H 1.05165 0.51152 0.26922 0.0
H502 H 0.20525 0.62156 0.28296 0.0
H503 H 0.17237 0.57644 0.23511 0.0
C504 C 0.15808 0.48919 0.50118 0.0
C505 C 0.12081 0.46157 0.52654 0.0
C506 C 0.12469 0.48793 0.51258 0.0
C507 C 0.15342 0.44068 0.52926 0.0
C508 C 0.18917 0.466 0.50362 0.0
C509 C 0.18761 0.44301 0.51785 0.0
N510 N 0.15956 0.51218 0.48756 0.0
C511 C 0.18916 0.51118 0.47565 0.0
C512 C 0.22042 0.46587 0.49159 0.0
C513 C 0.21994 0.48804 0.47748 0.0
Gd514 Gd 0.14845 0.6764 0.51055 0.0
Gd515 Gd 0.10811 0.55155 0.48523 0.0
N516 N 0.0937 0.50904 0.50968 0.0
C517 C 0.08261 0.45465 0.53712 0.0
C518 C 1.05373 0.4983 0.51965 0.0
C519 C 1.0481 0.47184 0.53345 0.0
H520 H 1.02436 0.50794 0.51731 0.0
H521 H 1.01685 0.46464 0.54127 0.0
H522 H 0.08078 0.73692 0.50528 0.0
H523 H 0.19057 0.52994 0.46486 0.0
H524 H 1.02365 0.75858 0.52054 0.0
H525 H 0.07813 0.43431 0.54787 0.0
H526 H 0.15133 0.42116 0.54001 0.0
H527 H 0.15862 0.58091 0.53189 0.0
H528 H 0.24478 0.44847 0.49305 0.0
H529 H 0.24394 0.48811 0.4681 0.0
H530 H 1.00693 0.67456 0.56905 0.0
H531 H 0.21171 0.42568 0.51998 0.0
H532 H 0.08638 0.56962 0.57492 0.0
H533 H 0.13832 0.54692 0.55782 0.0
N534 N 0.12206 0.62755 0.53377 0.0
C535 C 0.09332 0.64062 0.54318 0.0
C536 C 0.13758 0.59375 0.53897 0.0
C537 C 0.09613 0.58615 0.56347 0.0
C538 C 0.12544 0.57327 0.55384 0.0
C539 C 0.07926 0.61974 0.55817 0.0
H540 H 1.03781 0.61715 0.57898 0.0
N541 N 0.08888 0.69268 0.52316 0.0
C542 C 0.07652 0.67414 0.53775 0.0
C543 C 1.02564 0.71695 0.54062 0.0
C544 C 1.0445 0.68598 0.5469 0.0
C545 C 0.07017 0.72226 0.51687 0.0
C546 C 1.0382 0.7348 0.5255 0.0
O547 O 0.19364 0.59451 0.49165 0.0
O548 O 0.20202 0.64152 0.51364 0.0
O549 O 0.18603 0.76041 0.50823 0.0
O550 O 0.20111 0.72862 0.5284 0.0
O551 O 1.03523 0.55084 0.4942 0.0
O552 O 1.05983 0.62269 0.51006 0.0
O553 O 0.10812 0.68173 0.48845 0.0
O554 O 0.07988 0.60312 0.47551 0.0
O555 O 1.04909 0.47507 0.47712 0.0
O556 O 0.10762 0.52806 0.46164 0.0
O557 O 0.19753 0.69475 0.48871 0.0
O558 O 0.16354 0.62397 0.47181 0.0
C559 C 0.21739 0.61573 0.50466 0.0
C560 C 1.02393 0.57961 0.50337 0.0
C561 C 0.20589 0.81152 0.53123 0.0
C562 C 0.238 0.87485 0.55262 0.0
C563 C 0.17426 0.87259 0.53454 0.0
C564 C 0.17531 0.83289 0.52629 0.0
C565 C 0.20526 0.89344 0.54753 0.0
C566 C 0.23735 0.83278 0.54457 0.0
C567 C 0.20825 0.77071 0.52166 0.0
C568 C 1.03125 0.66565 0.56183 0.0
C569 C 1.04871 0.63281 0.56746 0.0
H570 H 1.00085 0.72674 0.54729 0.0
C571 C 0.08315 0.64887 0.47699 0.0
C572 C 0.19534 0.67353 0.4751 0.0
C573 C 1.02513 0.47581 0.45093 0.0
C574 C 0.93484 0.43978 0.44268 0.0
C575 C 1.00533 0.48471 0.42435 0.0
C576 C 1.04147 0.49313 0.43583 0.0
C577 C 0.95243 0.45793 0.42767 0.0
C578 C 0.97178 0.4498 0.45432 0.0
C579 C 0.06426 0.48493 0.46289 0.0
H580 H 0.15005 0.88813 0.53063 0.0
H581 H 0.15272 0.81977 0.51583 0.0
H582 H 0.20412 0.92488 0.55354 0.0
H583 H 0.26259 0.81817 0.54828 0.0
H584 H 1.01834 0.49809 0.41274 0.0
H585 H 0.08231 0.51316 0.43287 0.0
H586 H 0.92545 0.45006 0.41831 0.0
H587 H 0.95906 0.43708 0.46599 0.0
C588 C 0.68656 0.09049 0.66116 0.0
C589 C 0.67543 0.04402 0.68506 0.0
C590 C 0.65432 0.05982 0.67296 0.0
C591 C 0.72853 0.05984 0.68519 0.0
C592 C 0.74017 0.10695 0.66139 0.0
C593 C 0.76083 0.09138 0.67343 0.0
N594 N 0.66594 0.10515 0.64959 0.0
C595 C 0.69671 0.13669 0.63802 0.0
C596 C 0.7717 0.13887 0.64952 0.0
C597 C 0.74987 0.15393 0.63781 0.0
Gd598 Gd 0.50633 0.124 0.67767 0.0
Gd599 Gd 0.57585 0.07185 0.65003 0.0
N600 N 0.60298 0.04592 0.67274 0.0
C601 C 0.64273 1.01264 0.69674 0.0
C602 C 0.57161 1.01608 0.68452 0.0
C603 C 0.59064 0.99858 0.69644 0.0
H604 H 0.5324 1.00719 0.68567 0.0
H605 H 0.56516 0.97534 0.70566 0.0
H606 H 0.37837 0.06172 0.67996 0.0
H607 H 0.68055 0.14989 0.62911 0.0
H608 H 0.31042 1.01053 0.69927 0.0
H609 H 0.65744 0.99966 0.70616 0.0
H610 H 0.74507 0.04803 0.69441 0.0
H611 H 0.62243 0.13395 0.69221 0.0
H612 H 0.81298 0.15237 0.64935 0.0
H613 H 0.77401 0.17914 0.62867 0.0
H614 H 0.40427 0.98922 0.74091 0.0
H615 H 0.80181 0.10355 0.67376 0.0
H616 H 0.58773 0.06435 0.73627 0.0
H617 H 0.6509 0.11484 0.71603 0.0
N618 N 0.54213 0.09896 0.69838 0.0
C619 C 0.50664 0.0707 0.70954 0.0
C620 C 0.59347 0.11448 0.70078 0.0
C621 C 0.57448 0.07385 0.72578 0.0
C622 C 0.61025 0.1026 0.71443 0.0
C623 C 0.52203 0.05723 0.72342 0.0
H624 H 0.4962 1.0174 0.7453 0.0
N625 N 0.43978 0.06757 0.69385 0.0
C626 C 0.45435 0.05482 0.70721 0.0
C627 C 0.3647 1.00954 0.71557 0.0
C628 C 0.4169 1.02517 0.71845 0.0
C629 C 0.389 0.05191 0.69083 0.0
C630 C 0.35067 1.0228 0.70166 0.0
O631 O 0.63355 0.15291 0.65897 0.0
O632 O 0.59485 0.18082 0.67707 0.0
O633 O 0.46325 0.16556 0.67624 0.0
O634 O 0.50767 0.17443 0.69649 0.0
O635 O 0.50312 1.00302 0.66005 0.0
O636 O 0.45967 1.03397 0.67522 0.0
O637 O 0.45402 0.08648 0.65668 0.0
O638 O 0.49914 0.0584 0.64101 0.0
O639 O 0.56852 1.00218 0.63894 0.0
O640 O 0.59653 0.07274 0.62612 0.0
O641 O 0.53584 0.1732 0.65588 0.0
O642 O 0.57087 0.13792 0.63884 0.0
C643 C 0.63599 0.18726 0.66913 0.0
C644 C 0.46295 0.9952 0.66859 0.0
C645 C 0.43244 0.18423 0.69951 0.0
C646 C 0.4022 0.21545 0.72147 0.0
C647 C 0.34047 0.15409 0.70297 0.0
C648 C 0.38075 0.15564 0.6944 0.0
C649 C 0.35088 0.18321 0.71639 0.0
C650 C 0.44305 0.21468 0.7131 0.0
C651 C 0.47504 0.18545 0.68996 0.0
C652 C 0.43247 1.01191 0.73215 0.0
C653 C 0.48482 1.02791 0.73463 0.0
H654 H 0.33492 0.98684 0.72394 0.0
C655 C 0.45905 0.06433 0.64404 0.0
C656 C 0.55628 0.17199 0.64245 0.0
C657 C 0.53522 0.99651 0.61371 0.0
C658 C 0.47354 0.91755 0.60016 0.0
C659 C 0.47473 0.99855 0.59511 0.0
C660 C 0.51482 1.02388 0.60575 0.0
C661 C 0.45401 0.94562 0.59232 0.0
C662 C 0.51417 0.94328 0.61087 0.0
C663 C 0.57688 1.02298 0.62532 0.0
H664 H 0.30081 0.13075 0.69904 0.0
H665 H 0.37108 0.1345 0.68366 0.0
H666 H 0.31832 0.18075 0.72272 0.0
H667 H 0.4829 0.2389 0.71678 0.0
H668 H 0.45973 1.02007 0.58898 0.0
H669 H 0.52958 0.06491 0.60774 0.0
H670 H 0.42287 0.92667 0.58402 0.0
H671 H 0.53016 0.92216 0.61678 0.0
C672 C 0.62338 0.68663 0.82588 0.0
C673 C 0.65144 0.68983 0.85222 0.0
C674 C 0.62135 0.66103 0.83944 0.0
C675 C 0.68379 0.74385 0.85103 0.0
C676 C 0.65487 0.74113 0.82477 0.0
C677 C 0.6854 0.76945 0.83735 0.0
N678 N 0.59265 0.65865 0.81399 0.0
C679 C 0.59084 0.68252 0.80074 0.0
C680 C 0.65396 0.76576 0.81112 0.0
C681 C 0.62159 0.73631 0.79908 0.0
Gd682 Gd 0.42519 0.49358 0.84425 0.0
Gd683 Gd 0.54492 0.56839 0.81699 0.0
N684 N 0.58839 0.60872 0.84038 0.0
C685 C 0.64751 0.66375 0.86596 0.0
C686 C 0.58292 0.58407 0.85412 0.0
C687 C 0.61291 0.61071 0.86691 0.0
H688 H 0.55473 0.54429 0.8557 0.0
H689 H 0.60854 0.59034 0.87763 0.0
H690 H 0.36818 0.36686 0.83508 0.0
H691 H 0.56498 0.66025 0.7915 0.0
H692 H 0.34561 0.28428 0.84789 0.0
H693 H 0.67007 0.68439 0.87598 0.0
H694 H 0.7071 0.76633 0.86073 0.0
H695 H 0.49745 0.58971 0.87129 0.0
H696 H 0.67744 0.80752 0.80986 0.0
H697 H 0.61997 0.75506 0.78858 0.0
H698 H 0.41193 0.33359 0.89906 0.0
H699 H 0.70986 0.81127 0.8367 0.0
H700 H 0.50488 0.51381 0.91177 0.0
H701 H 0.52556 0.59388 0.89763 0.0
N702 N 0.46199 0.50688 0.86925 0.0
C703 C 0.44869 0.462 0.87711 0.0
C704 C 0.48811 0.55369 0.87672 0.0
C705 C 0.4924 0.51129 0.89992 0.0
C706 C 0.50421 0.55655 0.89198 0.0
C707 C 0.464 0.46329 0.8926 0.0
H708 H 0.46178 0.4173 0.91227 0.0
N709 N 0.40667 0.4134 0.85466 0.0
C710 C 0.41969 0.41417 0.86972 0.0
C711 C 0.37973 0.32042 0.86954 0.0
C712 C 0.4066 0.36746 0.87753 0.0
C713 C 0.38024 0.36756 0.84683 0.0
C714 C 0.3667 0.32052 0.85412 0.0
O715 O 0.50668 0.61565 0.82291 0.0
O716 O 0.47155 0.58345 0.8466 0.0
O717 O 0.34097 0.4483 0.84291 0.0
O718 O 0.37575 0.50141 0.86164 0.0
O719 O 0.55577 0.50756 0.83015 0.0
O720 O 0.48089 0.4595 0.84468 0.0
O721 O 0.41468 0.44897 0.82163 0.0
O722 O 0.49813 0.48325 0.81179 0.0
O723 O 0.61841 0.5818 0.80742 0.0
O724 O 0.55742 0.57457 0.7924 0.0
O725 O 0.40514 0.52622 0.82295 0.0
O726 O 0.47006 0.54819 0.80461 0.0
C727 C 0.49297 0.62251 0.83667 0.0
C728 C 0.52649 0.46803 0.83936 0.0
C729 C 0.29653 0.42283 0.86707 0.0
C730 C 0.2438 0.39567 0.89084 0.0
C731 C 0.24507 0.33124 0.87377 0.0
C732 C 0.27801 0.37012 0.86368 0.0
C733 C 0.22826 0.34375 0.88722 0.0
C734 C 0.27843 0.43541 0.88066 0.0
C735 C 0.3329 0.46377 0.8561 0.0
C736 C 0.42172 0.36907 0.8929 0.0
C737 C 0.45029 0.41678 0.9004 0.0
H738 H 0.36912 0.28384 0.87515 0.0
C739 C 0.44916 0.44697 0.81237 0.0
C740 C 0.4228 0.53721 0.80863 0.0
C741 C 0.60283 0.53232 0.7846 0.0
C742 C 0.64691 0.48329 0.77894 0.0
C743 C 0.56317 0.45787 0.76734 0.0
C744 C 0.56177 0.49875 0.77486 0.0
C745 C 0.60542 0.45002 0.76935 0.0
C746 C 0.64502 0.52413 0.78657 0.0
C747 C 0.60069 0.57395 0.79337 0.0
H748 H 0.23163 0.29094 0.87099 0.0
H749 H 0.2883 0.35848 0.85309 0.0
H750 H 0.20132 0.31227 0.89452 0.0
H751 H 0.29104 0.47568 0.88326 0.0
H752 H 0.53139 0.43218 0.75991 0.0
H753 H 0.52823 0.50353 0.77316 0.0
H754 H 0.60603 0.4186 0.76318 0.0
H755 H 0.67613 0.54927 0.7943 0.0
C756 C 0.98907 0.60869 1.00118 0.0
C757 C 1.03099 0.6381 0.02602 0.0
C758 C 1.02089 0.60694 1.01264 0.0
C759 C 1.00713 0.66845 0.0279 0.0
C760 C 0.96567 0.63987 1.00296 0.0
C761 C 0.97439 0.66914 1.01641 0.0
N762 N 0.9811 0.58024 0.98822 0.0
C763 C 0.95164 0.58236 0.97642 0.0
C764 C 0.93452 0.64125 0.99108 0.0
C765 C 0.92775 0.6126 0.97771 0.0
Gd766 Gd 0.97451 0.40485 1.01191 0.0
Gd767 Gd 1.02272 0.53082 0.98657 0.0
N768 N 1.04292 0.57627 1.01066 0.0
C769 C 0.06565 0.63894 0.037 0.0
C770 C 0.07748 0.57812 0.02156 0.0
C771 C 0.08938 0.6093 0.03466 0.0
H772 H 0.096 0.55549 0.02084 0.0
H773 H 0.11634 0.60962 0.04312 0.0
H774 H 1.0441 0.34545 1.0123 0.0
H775 H 0.94488 0.55912 0.96619 0.0
H776 H 0.09861 0.32975 0.03083 0.0
H777 H 0.07457 0.66253 0.04729 0.0
H778 H 1.01426 0.69207 0.03811 0.0
H779 H 0.95729 0.50409 0.0286 0.0
H780 H 0.91583 0.66458 0.99207 0.0
H781 H 0.90373 0.61338 0.96845 0.0
H782 H 0.10815 0.43067 0.07508 0.0
H783 H 0.9566 0.69311 1.01798 0.0
H784 H 1.02312 0.5312 0.07318 0.0
H785 H 0.9717 0.5452 0.05343 0.0
N786 N 0.99611 0.46117 0.03367 0.0
C787 C 1.02459 0.45295 0.04458 0.0
C788 C 0.97762 0.49431 0.03688 0.0
C789 C 1.01577 0.51129 0.06222 0.0
C790 C 0.98658 0.5191 0.05113 0.0
C791 C 1.03551 0.47831 0.05902 0.0
H792 H 0.07403 0.48901 0.08103 0.0
N793 N 1.03311 0.39527 0.02751 0.0
C794 C 1.04335 0.41912 0.04142 0.0
C795 C 0.09379 0.37837 0.04843 0.0
C796 C 0.07404 0.4111 0.05231 0.0
C797 C 1.05249 0.36364 0.02358 0.0
C798 C 0.08327 0.35485 0.03396 0.0
O799 O 0.93951 0.4996 0.99437 0.0
O800 O 0.91463 0.43321 1.01229 0.0
O801 O 0.93881 0.32075 1.01006 0.0
O802 O 0.92242 0.35276 0.02992 0.0
O803 O 0.0935 0.52687 0.99525 0.0
O804 O 0.06411 0.45278 1.0104 0.0
O805 O 1.01433 0.396 0.99025 0.0
O806 O 1.0411 0.47257 0.97637 0.0
O807 O 0.08645 0.60301 0.97752 0.0
O808 O 1.02321 0.55278 0.96283 0.0
O809 O 0.92741 0.38756 0.98974 0.0
O810 O 0.96004 0.46088 0.97391 0.0
C811 C 0.90625 0.46689 1.00445 0.0
C812 C 0.10208 0.49482 1.00376 0.0
C813 C 0.91993 0.27122 0.03344 0.0
C814 C 0.89111 0.21125 0.05575 0.0
C815 C 0.95524 0.21369 0.03775 0.0
C816 C 0.95146 0.25063 0.02883 0.0
C817 C 0.9258 0.19446 0.05107 0.0
C818 C 0.88933 0.25096 0.04699 0.0
C819 C 0.91635 0.31066 0.0235 0.0
C820 C 0.08475 0.43644 0.06657 0.0
C821 C 0.06544 0.46979 0.06993 0.0
H822 H 0.11763 0.37145 0.05648 0.0
C823 C 1.03684 0.42659 0.97817 0.0
C824 C 0.92803 0.41108 0.97671 0.0
C825 C 0.10561 0.59359 0.95144 0.0
C826 C 0.19386 0.62159 0.94248 0.0
C827 C 0.11985 0.57259 0.92552 0.0
C828 C 0.08626 0.57096 0.93698 0.0
C829 C 0.17323 0.59821 0.92813 0.0
C830 C 0.15921 0.6175 0.95422 0.0
C831 C 0.0696 0.59227 0.96344 0.0
H832 H 0.98069 0.19924 0.03418 0.0
H833 H 0.97323 0.26269 1.01815 0.0
H834 H 0.93003 0.1658 0.05768 0.0
H835 H 0.86313 0.26475 0.05035 0.0
H836 H 0.10455 0.55513 0.91442 0.0
H837 H 1.0451 0.55203 0.93449 0.0
H838 H 0.1981 0.60116 0.91864 0.0
H839 H 0.17379 0.6335 0.96551 0.0
C840 C 0.42783 0.99986 0.1475 0.0
C841 C 0.42152 1.03907 0.17112 0.0
C842 C 0.44905 1.02329 0.16129 0.0
C843 C 0.37407 1.03397 0.16622 0.0
C844 C 0.37866 0.99143 0.14289 0.0
C845 C 0.35261 1.0101 0.1521 0.0
N846 N 0.45338 0.98112 0.1392 0.0
C847 C 0.43063 0.95054 0.12662 0.0
C848 C 0.35633 0.96262 0.1295 0.0
C849 C 0.38214 0.94139 0.12145 0.0
Gd850 Gd 0.60776 0.96591 0.17854 0.0
Gd851 Gd 0.53698 1.00122 0.14712 0.0
N852 N 0.49397 1.02562 0.16577 0.0
C853 C 0.44104 0.05673 0.18588 0.0
C854 C 0.51002 1.03813 0.18065 0.0
C855 C 0.48491 0.05507 0.19078 0.0
H856 H 0.5413 1.0339 0.18494 0.0
H857 H 0.49886 0.06582 0.20246 0.0
H858 H 0.72212 0.98127 0.16655 0.0
H859 H 0.45029 0.93367 0.12045 0.0
H860 H 0.81367 1.02747 0.17494 0.0
H861 H 0.42109 0.06905 0.1938 0.0
H862 H 0.3527 0.04639 0.17353 0.0
H863 H 0.54071 0.98829 0.2061 0.0
H864 H 0.31858 0.95515 0.12557 0.0
H865 H 0.36466 0.91786 0.11132 0.0
H866 H 0.81116 0.10737 0.2227 0.0
H867 H 0.31506 1.00456 0.1487 0.0
H868 H 0.64788 0.08145 0.24108 0.0
H869 H 0.55837 1.03421 0.23085 0.0
N870 N 0.61986 1.01134 0.20178 0.0
C871 C 0.66912 1.03533 0.20752 0.0
C872 C 0.58018 1.00977 0.21016 0.0
C873 C 0.64048 0.06165 0.2301 0.0
C874 C 0.58994 1.03527 0.22433 0.0
C875 C 0.68081 0.06178 0.22173 0.0
H876 H 0.74195 0.10844 0.23795 0.0
N877 N 0.6957 1.00757 0.18545 0.0
C878 C 0.70826 1.03445 0.19894 0.0
C879 C 0.79818 0.05821 0.19546 0.0
C880 C 0.7599 0.06037 0.20432 0.0
C881 C 0.73266 1.00441 0.17692 0.0
C882 C 0.78445 1.02998 0.18174 0.0
O883 O 0.48691 0.92267 0.1578 0.0
O884 O 0.51955 0.93751 0.18224 0.0
O885 O 0.63993 0.9248 0.19145 0.0
O886 O 0.55844 0.8863 0.18638 0.0
O887 O 0.59715 0.0763 0.15999 0.0
O888 O 0.63054 0.05249 0.18083 0.0
O889 O 0.65326 0.99449 0.1556 0.0
O890 O 0.62346 0.04766 0.14638 0.0
O891 O 0.53201 0.04465 0.12754 0.0
O892 O 0.55266 0.98473 0.12422 0.0
O893 O 0.6053 0.9296 0.15517 0.0
O894 O 0.53045 0.92176 0.14491 0.0
C895 C 0.4798 0.91294 0.17259 0.0
C896 C 0.62742 0.08846 0.1725 0.0
C897 C 0.58319 0.87281 0.2113 0.0
C898 C 0.59637 0.84105 0.23633 0.0
C899 C 0.54162 0.88088 0.23438 0.0
C900 C 0.54992 0.88699 0.21862 0.0
C901 C 0.56506 0.85904 0.24316 0.0
C902 C 0.60623 0.84928 0.22022 0.0
C903 C 0.59481 0.88537 0.19463 0.0
C904 C 0.77168 0.08719 0.21839 0.0
C905 C 0.73224 0.08774 0.22709 0.0
H906 H 0.8383 0.0777 0.19921 0.0
C907 C 0.65811 1.03275 0.14656 0.0
C908 C 0.5678 0.91008 0.14481 0.0
C909 C 0.59102 0.05586 0.10717 0.0
C910 C 0.63514 0.13482 0.09183 0.0
C911 C 0.66316 0.07093 0.09051 0.0
C912 C 0.62453 1.03959 0.10102 0.0
C913 C 0.66909 0.11886 0.08608 0.0
C914 C 0.59635 0.10329 0.10236 0.0
C915 C 0.5489 1.02248 0.1179 0.0
H916 H 0.51701 0.8935 0.23986 0.0
H917 H 0.53066 0.90368 0.21216 0.0
H918 H 0.55853 0.85669 0.25545 0.0
H919 H 0.63103 0.83717 0.2146 0.0
H920 H 0.68856 0.05798 0.08581 0.0
H921 H 0.62088 1.00263 0.10424 0.0
H922 H 0.69923 0.14279 0.07795 0.0
H923 H 0.57023 0.11586 0.1068 0.0
C924 C 0.48342 0.41626 0.32676 0.0
C925 C 0.44652 0.42657 0.35045 0.0
C926 C 0.48386 0.44819 0.33853 0.0
C927 C 0.40991 0.37334 0.35042 0.0
C928 C 0.447 0.36247 0.32685 0.0
C929 C 0.4103 0.34135 0.3387 0.0
N930 N 0.51917 0.43731 0.31538 0.0
C931 C 0.5211 0.40671 0.30388 0.0
C932 C 0.44859 0.3312 0.31505 0.0
C933 C 0.48595 0.35342 0.30355 0.0
Gd934 Gd 0.69402 0.59579 0.3444 0.0
Gd935 Gd 0.57463 0.5278 0.31601 0.0
N936 N 0.52071 0.49969 0.3385 0.0
C937 C 0.44677 0.45888 0.36214 0.0
C938 C 0.52121 0.53062 0.35032 0.0
C939 C 0.48424 0.51108 0.36205 0.0
H940 H 0.55102 0.56982 0.35166 0.0
H941 H 0.48573 0.53624 0.3713 0.0
H942 H 0.75868 0.72347 0.34787 0.0
H943 H 0.55087 0.42313 0.29514 0.0
H944 H 0.77369 0.78965 0.3677 0.0
H945 H 0.41873 0.44376 0.37142 0.0
H946 H 0.38124 0.35642 0.3595 0.0
H947 H 0.58708 0.47856 0.35772 0.0
H948 H 0.42143 0.28981 0.31479 0.0
H949 H 0.48799 0.32947 0.29448 0.0
H950 H 0.65757 0.69169 0.40853 0.0
H951 H 0.38204 0.30025 0.33891 0.0
H952 H 0.55021 0.50868 0.40214 0.0
H953 H 0.53845 0.44761 0.38124 0.0
N954 N 0.63229 0.55803 0.36476 0.0
C955 C 0.63886 0.59236 0.37626 0.0
C956 C 0.59626 0.50653 0.36661 0.0
C957 C 0.57347 0.52296 0.39179 0.0
C958 C 0.56698 0.48838 0.38007 0.0
C959 C 0.60934 0.57561 0.38997 0.0
H960 H 0.59413 0.5993 0.41207 0.0
N961 N 0.70294 0.66067 0.36122 0.0
C962 C 0.6751 0.64484 0.37443 0.0
C963 C 0.71825 0.73376 0.38355 0.0
C964 C 0.68206 0.68123 0.38599 0.0
C965 C 0.73768 0.71179 0.35862 0.0
C966 C 0.74599 0.74913 0.36976 0.0
O967 O 0.59812 0.46997 0.32492 0.0
O968 O 0.6635 0.50754 0.34334 0.0
O969 O 0.7784 0.64058 0.34345 0.0
O970 O 0.74236 0.59269 0.3631 0.0
O971 O 0.57781 0.60053 0.32614 0.0
O972 O 0.65006 0.64188 0.34215 0.0
O973 O 0.70706 0.6505 0.32416 0.0
O974 O 0.63925 0.60338 0.3069 0.0
O975 O 0.51412 0.53779 0.30466 0.0
O976 O 0.55354 0.50538 0.29229 0.0
O977 O 0.71567 0.56822 0.3225 0.0
O978 O 0.64634 0.53349 0.30517 0.0
C979 C 0.62962 0.46699 0.3351 0.0
C980 C 0.6091 0.63968 0.33517 0.0
C981 C 0.82553 0.66842 0.36723 0.0
C982 C 0.88153 0.69533 0.39038 0.0
C983 C 0.88707 0.75974 0.37193 0.0
C984 C 0.84969 0.72079 0.36268 0.0
C985 C 0.90278 0.74731 0.38563 0.0
C986 C 0.84233 0.65582 0.38108 0.0
C987 C 0.78589 0.62704 0.35702 0.0
C988 C 0.65269 0.66433 0.39953 0.0
C989 C 0.61652 0.61172 0.40152 0.0
H990 H 0.72466 0.76278 0.39216 0.0
C991 C 0.68304 0.64481 0.31082 0.0
C992 C 0.69475 0.54807 0.30897 0.0
C993 C 0.53964 0.56597 0.27887 0.0
C994 C 0.52566 0.62966 0.26493 0.0
C995 C 0.59776 0.61684 0.25809 0.0
C996 C 0.58331 0.57923 0.26953 0.0
C997 C 0.56945 0.64224 0.25584 0.0
C998 C 0.51104 0.59141 0.27647 0.0
C999 C 0.52468 0.52644 0.29118 0.0
H1000 H 0.90488 0.79988 0.36828 0.0
H1001 H 0.84024 0.73198 0.35183 0.0
H1002 H 0.93332 0.77858 0.39221 0.0
H1003 H 0.82539 0.6155 0.3845 0.0
H1004 H 0.6312 0.62644 0.25095 0.0
H1005 H 0.60658 0.56071 0.27103 0.0
H1006 H 0.58172 0.67159 0.24694 0.0
H1007 H 0.47667 0.58038 0.28335 0.0
H1008 H 1.0203 0.63918 0.25361 0.0
H1009 H 0.30994 0.78619 0.27152 0.0
H1010 H 0.12743 0.7288 0.21772 0.0
H1011 H 0.21999 0.82914 0.30096 0.0
H1012 H 0.23783 0.74697 0.25363 0.0
H1013 H 0.08561 0.69346 0.27298 0.0
C1014 C 1.05669 0.67179 0.24981 0.0
C1015 C 0.06788 0.68035 0.23399 0.0
C1016 C 0.23404 0.76535 0.26396 0.0
C1017 C 0.14373 0.74025 0.25607 0.0
C1018 C 0.27549 0.78829 0.27426 0.0
C1019 C 0.27267 0.81337 0.28775 0.0
C1020 C 0.18786 0.76524 0.26718 0.0
C1021 C 0.22478 0.81099 0.29077 0.0
C1022 C 0.09406 0.70231 0.26087 0.0
C1023 C 0.11661 0.72161 0.22974 0.0
N1024 N 0.18419 0.78721 0.28061 0.0
N1025 N 0.15312 0.74906 0.24068 0.0
H1026 H 0.35414 0.11283 0.47305 0.0
H1027 H 0.50082 0.13701 0.39369 0.0
H1028 H 0.47543 0.25869 0.45527 0.0
H1029 H 0.36749 0.99477 0.40858 0.0
H1030 H 0.49029 0.18225 0.41561 0.0
H1031 H 0.35848 0.06946 0.44971 0.0
C1032 C 0.38168 0.13599 0.46422 0.0
C1033 C 0.41397 0.19002 0.46617 0.0
C1034 C 0.46262 0.14142 0.414 0.0
C1035 C 0.41926 0.1397 0.43916 0.0
C1036 C 0.4684 0.11545 0.4014 0.0
C1037 C 0.43463 0.06193 0.39915 0.0
C1038 C 0.42299 0.11384 0.42472 0.0
C1039 C 0.39382 1.03612 0.40967 0.0
C1040 C 0.38404 0.11096 0.45084 0.0
C1041 C 0.44979 0.21716 0.45439 0.0
N1042 N 0.38949 0.06218 0.42207 0.0
N1043 N 0.45132 0.1918 0.44142 0.0
H1044 H 0.32855 0.56111 0.60589 0.0
H1045 H 0.47177 0.41345 0.58651 0.0
H1046 H 0.27958 0.42248 0.63311 0.0
H1047 H 0.38981 0.44302 0.55061 0.0
H1048 H 0.41674 0.42397 0.60582 0.0
H1049 H 0.36921 0.53021 0.58773 0.0
C1050 C 0.32553 0.52378 0.60808 0.0
C1051 C 0.29827 0.49364 0.62099 0.0
C1052 C 0.40978 0.42647 0.59369 0.0
C1053 C 0.34815 0.45932 0.6002 0.0
C1054 C 0.44072 0.41996 0.58266 0.0
C1055 C 0.43438 0.42592 0.56688 0.0
C1056 C 0.37379 0.44126 0.58893 0.0
C1057 C 0.39517 0.4368 0.56259 0.0
C1058 C 0.3493 0.50643 0.59764 0.0
C1059 C 0.29944 0.44712 0.62338 0.0
N1060 N 0.3673 0.44535 0.57353 0.0
N1061 N 0.3241 0.43147 0.61312 0.0
H1062 H 0.96576 0.39017 0.72645 0.0
H1063 H 0.99186 0.2601 0.80395 0.0
H1064 H 0.10614 0.39046 0.73928 0.0
H1065 H 0.84561 0.23961 0.78755 0.0
H1066 H 1.03349 0.30679 0.78041 0.0
H1067 H 0.92072 0.33273 0.74802 0.0
C1068 C 0.9869 0.37707 0.73361 0.0
C1069 C 1.03995 0.3951 0.73093 0.0
C1070 C 0.99226 0.29189 0.78187 0.0
C1071 C 0.98824 0.32945 0.7561 0.0
C1072 C 0.96817 0.26502 0.79537 0.0
C1073 C 0.91451 0.24466 0.79779 0.0
C1074 C 0.96306 0.29957 0.77054 0.0
C1075 C 0.88687 0.25433 0.78633 0.0
C1076 C 0.96103 0.34431 0.74601 0.0
C1077 C 0.06518 0.37702 0.74072 0.0
N1078 N 0.91138 0.28093 0.77325 0.0
N1079 N 1.03929 0.34575 0.75297 0.0
H1080 H 0.67548 0.97477 0.88298 0.0
H1081 H 0.69045 0.88359 0.96783 0.0
H1082 H 0.71065 0.08545 0.91951 0.0
H1083 H 0.55723 0.79974 0.93822 0.0
H1084 H 0.7232 0.95782 0.9498 0.0
H1085 H 0.66142 0.90844 0.90224 0.0
C1086 C 0.68278 0.98585 0.89498 0.0
C1087 C 0.69479 1.03592 0.89961 0.0
C1088 C 0.68706 0.9227 0.94732 0.0
C1089 C 0.6789 0.96014 0.92174 0.0
C1090 C 0.66801 0.88044 0.95766 0.0
C1091 C 0.62153 0.83402 0.95447 0.0
C1092 C 0.66019 0.91804 0.93353 0.0
C1093 C 0.59439 0.8331 0.941 0.0
C1094 C 0.6741 0.9478 0.90599 0.0
C1095 C 0.70235 0.04757 0.91544 0.0
N1096 N 0.61446 0.8737 0.931 0.0
N1097 N 0.69423 1.00999 0.92596 0.0
H1098 H 0.83198 0.75127 0.13881 0.0
H1099 H 0.70356 0.59674 0.06083 0.0
H1100 H 0.85724 0.62901 0.12172 0.0
H1101 H 0.69852 0.73371 0.07458 0.0
H1102 H 0.76015 0.60819 0.08267 0.0
H1103 H 0.78193 0.74392 0.11576 0.0
C1104 C 0.82725 0.72285 0.13019 0.0
C1105 C 0.84998 0.69128 0.13225 0.0
C1106 C 0.74764 0.63641 0.08082 0.0
C1107 C 0.79133 0.6823 0.10557 0.0
C1108 C 0.71561 0.6302 0.06823 0.0
C1109 C 0.69691 0.66489 0.06566 0.0
C1110 C 0.76076 0.67727 0.09123 0.0
C1111 C 0.71292 0.70677 0.07587 0.0
C1112 C 0.79842 0.71871 0.11698 0.0
C1113 C 0.84069 0.65421 0.12076 0.0
N1114 N 0.74343 0.71146 0.08827 0.0
N1115 N 0.81233 0.6509 0.10794 0.0
H1116 H 0.38186 0.96364 0.64357 0.0
H1117 H 0.304 0.97882 0.55593 0.0
H1118 H 0.44422 0.10587 0.61775 0.0
H1119 H 0.25178 0.83388 0.57979 0.0
H1120 H 0.35262 1.0257 0.5788 0.0
H1121 H 0.32885 0.91592 0.62128 0.0
C1122 C 0.38287 0.98511 0.63339 0.0
C1123 C 0.41621 1.0391 0.63272 0.0
C1124 C 0.33079 0.98366 0.57909 0.0
C1125 C 0.35691 0.98439 0.60682 0.0
C1126 C 0.30313 0.95676 0.56598 0.0
C1127 C 0.27355 0.90219 0.5659 0.0
C1128 C 0.32887 0.95614 0.59246 0.0
C1129 C 0.27424 0.87585 0.57927 0.0
C1130 C 0.35315 0.9577 0.62056 0.0
C1131 C 0.41768 0.06459 0.61897 0.0
N1132 N 0.30106 0.90303 0.59203 0.0
N1133 N 0.38855 1.03711 0.60661 0.0
H1134 H 0.47463 0.24315 0.7451 0.0
H1135 H 0.36313 0.39916 0.79343 0.0
H1136 H 0.35045 0.26758 0.72933 0.0
H1137 H 0.50432 0.39939 0.80516 0.0
H1138 H 0.35168 0.34185 0.77146 0.0
H1139 H 0.4827 0.2946 0.7682 0.0
C1140 C 0.44923 0.25937 0.7464 0.0
C1141 C 0.41127 0.24999 0.73522 0.0
C1142 C 0.3848 0.35386 0.77899 0.0
C1143 C 0.41954 0.30825 0.76191 0.0
C1144 C 0.39084 0.38595 0.79166 0.0
C1145 C 0.43444 0.40371 0.80123 0.0
C1146 C 0.42245 0.33913 0.77593 0.0
C1147 C 0.46996 0.38642 0.79812 0.0
C1148 C 0.45353 0.28842 0.75969 0.0
C1149 C 0.37938 0.27219 0.73772 0.0
N1150 N 0.46329 0.35537 0.78579 0.0
N1151 N 0.38403 0.29976 0.75074 0.0
H1152 H 0.09126 0.37239 0.97955 0.0
H1153 H 0.20244 0.46048 0.89352 0.0
H1154 H 1.04211 0.45207 0.94808 0.0
H1155 H 0.22982 0.35311 0.91984 0.0
H1156 H 0.15114 0.465 0.91495 0.0
H1157 H 0.14594 0.3675 0.95888 0.0
C1158 C 0.09098 0.3877 0.96826 0.0
C1159 C 0.06182 0.41247 0.96558 0.0
C1160 C 0.16855 0.44056 0.91609 0.0
C1161 C 0.12553 0.40879 0.94208 0.0
C1162 C 0.1985 0.43857 0.90389 0.0
C1163 C 0.22034 0.40612 0.90475 0.0
C1164 C 0.16034 0.41007 0.92937 0.0
C1165 C 0.21319 0.37816 0.91854 0.0
C1166 C 0.12272 0.3856 0.95651 0.0
C1167 C 0.064 0.43276 0.95076 0.0
N1168 N 0.18373 0.38055 0.93022 0.0
N1169 N 0.09539 0.43084 0.93971 0.0
H1170 H 0.70573 0.13529 0.1396 0.0
H1171 H 0.84284 0.10806 0.06391 0.0
H1172 H 0.70937 0.99567 0.12828 0.0
H1173 H 0.8604 0.25444 0.07914 0.0
H1174 H 0.79456 0.067 0.08728 0.0
H1175 H 0.76421 0.17997 0.1182 0.0
C1176 C 0.71987 0.11426 0.13281 0.0
C1177 C 0.70272 0.06155 0.13586 0.0
C1178 C 0.80915 0.10815 0.08561 0.0
C1179 C 0.76949 0.11275 0.11089 0.0
C1180 C 0.83694 0.1319 0.0722 0.0
C1181 C 0.85691 0.18543 0.06951 0.0
C1182 C 0.80022 0.13756 0.09656 0.0
C1183 C 0.846 0.21326 0.08059 0.0
C1184 C 0.75323 0.13992 0.12051 0.0
C1185 C 0.7221 1.03641 0.12653 0.0
N1186 N 0.81856 0.18909 0.09358 0.0
N1187 N 0.75388 0.06203 0.11437 0.0
H1188 H 0.71363 0.65496 0.28071 0.0
H1189 H 0.55161 0.78086 0.26209 0.0
H1190 H 0.67929 0.73277 0.31677 0.0
H1191 H 0.68882 0.83733 0.23379 0.0
H1192 H 0.58956 0.74755 0.28038 0.0
H1193 H 0.70356 0.71094 0.26162 0.0
C1194 C 0.70609 0.68526 0.28466 0.0
C1195 C 0.69801 0.68969 0.30041 0.0
C1196 C 0.61155 0.76766 0.27023 0.0
C1197 C 0.68176 0.75013 0.27856 0.0
C1198 C 0.59011 0.78722 0.2597 0.0
C1199 C 0.61765 0.8144 0.24645 0.0
C1200 C 0.66017 0.77264 0.26736 0.0
C1201 C 0.66599 0.81733 0.2438 0.0
C1202 C 0.69959 0.71657 0.27374 0.0
C1203 C 0.68631 0.72826 0.30481 0.0
N1204 N 0.68558 0.79643 0.25411 0.0
N1205 N 0.67679 0.75566 0.29394 0.0
H1206 H 1.04657 0.71969 0.47686 0.0
H1207 H 0.90606 0.61788 0.3945 0.0
H1208 H 1.05516 0.6042 0.4487 0.0
H1209 H 0.9095 0.74737 0.41819 0.0
H1210 H 0.95423 0.60802 0.41585 0.0
H1211 H 0.99319 0.72906 0.4566 0.0
C1212 C 1.03783 0.69677 0.46645 0.0
C1213 C 1.05545 0.66097 0.46464 0.0
C1214 C 0.94429 0.63852 0.41645 0.0
C1215 C 0.99365 0.67072 0.44155 0.0
C1216 C 0.91612 0.64373 0.40428 0.0
C1217 C 0.90381 0.68373 0.40438 0.0
C1218 C 0.96044 0.67344 0.42895 0.0
C1219 C 0.91875 0.71643 0.41743 0.0
C1220 C 1.007 0.70179 0.45493 0.0
C1221 C 1.04228 0.63198 0.45086 0.0
N1222 N 0.94639 0.71078 0.4291 0.0
N1223 N 1.01231 0.63734 0.44001 0.0
H1224 H 0.64003 0.70966 0.35936 0.0
H1225 H 0.48903 0.86211 0.33335 0.0
H1226 H 0.54578 0.66713 0.31849 0.0
H1227 H 0.56786 0.88377 0.3767 0.0
H1228 H 0.51288 0.79563 0.32642 0.0
H1229 H 0.61803 0.77733 0.36458 0.0
C1230 C 0.61513 0.71464 0.35135 0.0
C1231 C 0.59541 0.68205 0.33839 0.0
C1232 C 0.52503 0.81509 0.33744 0.0
C1233 C 0.56884 0.76094 0.34444 0.0
C1234 C 0.51157 0.85345 0.34138 0.0
C1235 C 0.52599 0.87915 0.35572 0.0
C1236 C 0.55376 0.8023 0.3478 0.0
C1237 C 0.55516 0.86534 0.36557 0.0
C1238 C 0.6021 0.75347 0.35441 0.0
C1239 C 0.56208 0.69072 0.32869 0.0
N1240 N 0.56785 0.8285 0.36146 0.0
N1241 N 0.55009 0.72904 0.33186 0.0
H1242 H 0.72818 0.49154 0.54895 0.0
H1243 H 0.93767 0.52354 0.4847 0.0
H1244 H 0.68952 0.4736 0.50073 0.0
H1245 H 0.97935 0.59263 0.52975 0.0
H1246 H 0.84585 0.49468 0.49046 0.0
H1247 H 0.81792 0.51728 0.54238 0.0
C1248 C 0.73837 0.49298 0.53693 0.0
C1249 C 0.70063 0.48128 0.52544 0.0
C1250 C 0.87513 0.51635 0.49907 0.0
C1251 C 0.80489 0.50978 0.51772 0.0
C1252 C 0.92777 0.53278 0.49581 0.0
C1253 C 0.96721 0.56144 0.50667 0.0
C1254 C 0.86096 0.52735 0.51348 0.0
C1255 C 0.95119 0.57186 0.52085 0.0
C1256 C 0.78997 0.50762 0.53318 0.0
C1257 C 0.71673 0.48229 0.51008 0.0
N1258 N 0.89986 0.55469 0.52384 0.0
N1259 N 0.7673 0.49631 0.5067 0.0
H1260 H 0.44149 0.90573 0.65237 0.0
H1261 H 0.21108 0.70908 0.70878 0.0
H1262 H 0.38673 0.95434 0.69131 0.0
H1263 H 0.24738 0.6556 0.66699 0.0
H1264 H 0.27565 0.79801 0.70226 0.0
H1265 H 0.37351 0.81528 0.65721 0.0
C1266 C 0.41533 0.89778 0.66196 0.0
C1267 C 0.42047 0.93903 0.67138 0.0
C1268 C 0.26969 0.76717 0.69441 0.0
C1269 C 0.34142 0.83369 0.67709 0.0
C1270 C 0.23241 0.71574 0.69814 0.0
C1271 C 0.22294 0.67354 0.6885 0.0
C1272 C 0.29936 0.77807 0.68088 0.0
C1273 C 0.25251 0.68615 0.67482 0.0
C1274 C 0.37615 0.84572 0.66469 0.0
C1275 C 0.38459 0.92504 0.68355 0.0
N1276 N 0.28936 0.73682 0.67152 0.0
N1277 N 0.34732 0.87427 0.68605 0.0
H1278 H 0.50708 0.40785 0.86557 0.0
H1279 H 0.65287 0.25292 0.83776 0.0
H1280 H 0.59046 0.44223 0.82277 0.0
H1281 H 0.5902 0.24105 0.88319 0.0
H1282 H 0.63011 0.32046 0.83157 0.0
H1283 H 0.53439 0.34431 0.87151 0.0
C1284 C 0.53051 0.40171 0.85729 0.0
C1285 C 0.54532 0.43036 0.8435 0.0
C1286 C 0.62133 0.30306 0.84291 0.0
C1287 C 0.57842 0.3571 0.85042 0.0
C1288 C 0.63469 0.26452 0.84651 0.0
C1289 C 0.62287 0.23995 0.86103 0.0
C1290 C 0.59568 0.31756 0.85386 0.0
C1291 C 0.59884 0.25711 0.87173 0.0
C1292 C 0.5468 0.36556 0.86078 0.0
C1293 C 0.57778 0.4214 0.83356 0.0
N1294 N 0.58593 0.29409 0.86793 0.0
N1295 N 0.5928 0.38564 0.83714 0.0
H1296 H 0.14447 0.47945 0.03027 0.0
H1297 H 0.43586 0.58363 0.99963 0.0
H1298 H 0.18894 0.54444 0.98481 0.0
H1299 H 0.39767 0.5832 0.04753 0.0
H1300 H 0.34533 0.55865 0.99286 0.0
H1301 H 0.23486 0.50414 0.03566 0.0
C1302 C 0.17291 0.49818 0.02131 0.0
C1303 C 0.15803 0.50912 1.00697 0.0
C1304 C 0.35686 0.56392 1.00485 0.0
C1305 C 0.26368 0.53837 1.01313 0.0
C1306 C 0.40877 0.5783 1.00874 0.0
C1307 C 0.42517 0.58514 0.0243 0.0
C1308 C 0.32029 0.55531 1.0165 0.0
C1309 C 0.38747 0.57759 0.03547 0.0
C1310 C 0.22504 0.51289 0.02446 0.0
C1311 C 0.19801 0.53505 0.99601 0.0
N1312 N 0.33741 0.56273 0.03143 0.0
N1313 N 0.2485 0.54831 0.99925 0.0
H1314 H 0.85794 0.38 0.21675 0.0
H1315 H 0.65566 0.17665 0.15461 0.0
H1316 H 0.8493 0.42525 0.17026 0.0
H1317 H 0.68442 0.13267 0.19918 0.0
H1318 H 0.7202 0.26772 0.16035 0.0
H1319 H 0.79029 0.29122 0.21083 0.0
C1320 C 0.84215 0.37146 0.20523 0.0
C1321 C 0.86088 0.41103 0.194 0.0
C1322 C 0.71229 0.2382 0.16893 0.0
C1323 C 0.78055 0.30736 0.18707 0.0
C1324 C 0.67495 0.18581 0.16569 0.0
C1325 C 0.66382 0.14566 0.17638 0.0
C1326 C 0.73909 0.25165 0.18309 0.0
C1327 C 0.69123 0.16118 0.19045 0.0
C1328 C 0.80285 0.32033 0.20186 0.0
C1329 C 0.8366 0.39677 0.17941 0.0
N1330 N 0.727 0.2122 0.19334 0.0
N1331 N 0.7982 0.34655 0.17639 0.0
H1332 H 0.25598 0.61392 0.53389 0.0
H1333 H 0.43306 0.49679 0.50368 0.0
H1334 H 0.28282 0.59967 0.48589 0.0
H1335 H 0.45597 0.56433 0.54884 0.0
H1336 H 0.3703 0.52527 0.49802 0.0
H1337 H 0.32239 0.59001 0.54055 0.0
C1338 C 0.27598 0.60631 0.52471 0.0
C1339 C 0.26267 0.60826 0.50923 0.0
C1340 C 0.3889 0.53395 0.5092 0.0
C1341 C 0.33864 0.57955 0.51688 0.0
C1342 C 0.42462 0.51706 0.51251 0.0
C1343 C 0.45007 0.52739 0.52683 0.0
C1344 C 0.37728 0.56125 0.52031 0.0
C1345 C 0.43777 0.55537 0.53761 0.0
C1346 C 0.31383 0.59229 0.52856 0.0
C1347 C 0.29038 0.59763 0.49798 0.0
N1348 N 0.4022 0.57082 0.5342 0.0
N1349 N 0.32613 0.58332 0.50199 0.0
H1350 H 0.67173 0.25046 0.69536 0.0
H1351 H 0.97136 0.41004 0.66715 0.0
H1352 H 0.7248 0.23056 0.65115 0.0
H1353 H 0.9222 0.44003 0.71066 0.0
H1354 H 0.88146 0.34525 0.66134 0.0
H1355 H 0.76092 0.32002 0.70125 0.0
C1356 C 0.70177 0.26062 0.6868 0.0
C1357 C 0.68976 0.23326 0.67271 0.0
C1358 C 0.88998 0.36597 0.67216 0.0
C1359 C 0.79364 0.31382 0.67954 0.0
C1360 C 0.94195 0.40335 0.67554 0.0
C1361 C 0.95578 0.43137 0.68949 0.0
C1362 C 0.85002 0.35536 0.68279 0.0
C1363 C 0.91435 0.42021 0.6997 0.0
C1364 C 0.7531 0.30044 0.69024 0.0
C1365 C 0.73143 0.24888 0.66228 0.0
N1366 N 0.86401 0.38333 0.69621 0.0
N1367 N 0.78071 0.28738 0.66589 0.0
H1368 H 0.54674 0.91329 0.88231 0.0
H1369 H 0.52767 0.70875 0.81808 0.0
H1370 H 0.62591 0.95841 0.83877 0.0
H1371 H 0.48793 0.66353 0.86543 0.0
H1372 H 0.55667 0.79866 0.82513 0.0
H1373 H 0.51856 0.82188 0.87622 0.0
C1374 C 0.55834 0.90426 0.87144 0.0
C1375 C 0.58932 0.9446 0.86109 0.0
C1376 C 0.54175 0.7693 0.83405 0.0
C1377 C 0.55611 0.83857 0.85389 0.0
C1378 C 0.52523 0.71741 0.83003 0.0
C1379 C 0.50615 0.67746 0.84114 0.0
C1380 C 0.53834 0.78254 0.84937 0.0
C1381 C 0.50267 0.69227 0.85636 0.0
C1382 C 0.54226 0.85177 0.868 0.0
C1383 C 0.60293 0.92957 0.84725 0.0
N1384 N 0.5184 0.74317 0.85998 0.0
N1385 N 0.58608 0.87834 0.84405 0.0
H1386 H 0.64997 0.49974 0.04578 0.0
H1387 H 0.8568 0.50158 0.98506 0.0
H1388 H 0.69519 0.58951 1.00391 0.0
H1389 H 0.84727 0.44676 0.03153 0.0
H1390 H 0.79049 0.52481 0.99104 0.0
H1391 H 0.71367 0.47158 0.04021 0.0
C1392 C 0.67272 0.51331 0.03534 0.0
C1393 C 0.66625 0.54727 0.02532 0.0
C1394 C 0.80257 0.50761 0.99998 0.0
C1395 C 0.74014 0.51446 0.01879 0.0
C1396 C 0.84102 0.49452 0.99658 0.0
C1397 C 0.85922 0.47302 1.00779 0.0
C1398 C 0.7804 0.49857 1.01475 0.0
C1399 C 0.83493 0.46309 0.02241 0.0
C1400 C 0.7095 0.49728 0.03221 0.0
C1401 C 0.69797 0.56352 1.01203 0.0
N1402 N 0.79716 0.47598 0.02546 0.0
N1403 N 0.73285 0.54695 1.00917 0.0
H1404 H 0.38897 0.88253 0.15696 0.0
H1405 H 0.19285 0.65644 0.21482 0.0
H1406 H 0.44271 0.85306 0.19984 0.0
H1407 H 0.14516 0.70583 0.17445 0.0
H1408 H 0.28328 0.72482 0.20994 0.0
H1409 H 0.30058 0.81703 0.16354 0.0
C1410 C 0.38251 0.86248 0.16785 0.0
C1411 C 0.42465 0.87421 0.17777 0.0
C1412 C 0.25301 0.72089 0.20217 0.0
C1413 C 0.32062 0.79663 0.18549 0.0
C1414 C 0.20099 0.68146 0.20491 0.0
C1415 C 0.16002 0.67476 0.1951 0.0
C1416 C 0.26519 0.75422 0.18935 0.0
C1417 C 0.17421 0.70924 0.18253 0.0
C1418 C 0.33135 0.82464 0.17162 0.0
C1419 C 0.41221 0.84615 0.19176 0.0
N1420 N 0.22483 0.7467 0.18004 0.0
N1421 N 0.36181 0.80873 0.19511 0.0
H1422 H 0.58897 0.38071 0.31619 0.0
H1423 H 0.5963 0.18032 0.37802 0.0
H1424 H 0.65263 0.42864 0.36165 0.0
H1425 H 0.5187 0.13391 0.33422 0.0
H1426 H 0.62226 0.27111 0.37195 0.0
H1427 H 0.56781 0.2918 0.32224 0.0
C1428 C 0.59823 0.37274 0.32752 0.0
C1429 C 0.62189 0.41308 0.33844 0.0
C1430 C 0.59968 0.24112 0.36361 0.0
C1431 C 0.59857 0.30936 0.34549 0.0
C1432 C 0.58496 0.18889 0.36704 0.0
C1433 C 0.55476 0.14819 0.35666 0.0
C1434 C 0.58471 0.25381 0.34959 0.0
C1435 C 0.54129 0.16292 0.34271 0.0
C1436 C 0.58642 0.32153 0.33096 0.0
C1437 C 0.63452 0.3995 0.35276 0.0
N1438 N 0.55619 0.21384 0.33964 0.0
N1439 N 0.62263 0.34924 0.35585 0.0
H1440 H 0.29105 0.76193 0.4776 0.0
H1441 H 0.31453 0.84806 0.38954 0.0
H1442 H 0.17785 0.66425 0.44388 0.0
H1443 H 0.44944 0.89113 0.4178 0.0
H1444 H 0.25981 0.78918 0.41009 0.0
H1445 H 0.34575 0.81863 0.45672 0.0
C1446 C 0.27765 0.75234 0.46582 0.0
C1447 C 0.22983 0.70788 0.46254 0.0
C1448 C 0.30143 0.81149 0.41174 0.0
C1449 C 0.29198 0.77353 0.43853 0.0
C1450 C 0.33273 0.84525 0.40003 0.0
C1451 C 0.38692 0.87468 0.40182 0.0
C1452 C 0.32414 0.80798 0.42559 0.0
C1453 C 0.40803 0.86921 0.41577 0.0
C1454 C 0.309 0.78469 0.4539 0.0
C1455 C 0.21463 0.69768 0.44698 0.0
N1456 N 0.37672 0.83709 0.4271 0.0
N1457 N 0.24524 0.73039 0.43562 0.0
H1458 H 0.57736 0.43204 0.58927 0.0
H1459 H 0.57133 0.16669 0.61146 0.0
H1460 H 0.55474 0.31525 0.55574 0.0
H1461 H 0.54923 0.26147 0.64493 0.0
H1462 H 0.57422 0.22491 0.59111 0.0
H1463 H 0.5759 0.37466 0.60973 0.0
C1464 C 0.57242 0.39448 0.58614 0.0
C1465 C 0.56635 0.37877 0.57063 0.0
C1466 C 0.56885 0.2331 0.6029 0.0
C1467 C 0.56476 0.31251 0.59425 0.0
C1468 C 0.56748 0.19995 0.61461 0.0
C1469 C 0.5602 0.20901 0.63008 0.0
C1470 C 0.56357 0.27639 0.60655 0.0
C1471 C 0.55492 0.25272 0.63325 0.0
C1472 C 0.57133 0.36157 0.59791 0.0
C1473 C 0.55956 0.32923 0.56747 0.0
N1474 N 0.55695 0.28478 0.62163 0.0
N1475 N 0.55922 0.29812 0.57912 0.0
H1476 H 0.42297 0.51126 0.77847 0.0
H1477 H 0.21834 0.59108 0.74856 0.0
H1478 H 0.34218 0.559 0.80989 0.0
H1479 H 0.24279 0.47713 0.72489 0.0
H1480 H 0.27224 0.59051 0.76985 0.0
H1481 H 0.36636 0.50908 0.75759 0.0
C1482 C 0.39348 0.5216 0.78099 0.0
C1483 C 0.38763 0.53562 0.79602 0.0
C1484 C 0.26577 0.56562 0.76 0.0
C1485 C 0.32274 0.53371 0.77194 0.0
C1486 C 0.23508 0.566 0.74776 0.0
C1487 C 0.22565 0.53398 0.73479 0.0
C1488 C 0.28855 0.53396 0.75924 0.0
C1489 C 0.24877 0.50246 0.73457 0.0
C1490 C 0.36096 0.52002 0.76904 0.0
C1491 C 0.34815 0.54792 0.79853 0.0
N1492 N 0.27939 0.5036 0.7465 0.0
N1493 N 0.31767 0.54726 0.78661 0.0
H1494 H 0.67677 0.17209 0.92206 0.0
H1495 H 0.93567 0.43369 0.94573 0.0
H1496 H 0.79394 0.2662 0.88879 0.0
H1497 H 0.84061 0.31397 0.97824 0.0
H1498 H 0.88028 0.37859 0.92478 0.0
H1499 H 0.73191 0.22892 0.94253 0.0
C1500 C 0.71397 0.20492 0.91897 0.0
C1501 C 0.73035 0.21413 0.90351 0.0
C1502 C 0.87147 0.36443 0.93649 0.0
C1503 C 0.79431 0.28014 0.92725 0.0
C1504 C 0.90291 0.39605 0.94853 0.0
C1505 C 0.89289 0.37876 0.9639 0.0
C1506 C 0.82899 0.31519 0.93976 0.0
C1507 C 0.85007 0.32917 0.96665 0.0
C1508 C 0.74566 0.23733 0.93077 0.0
C1509 C 0.77946 0.25733 0.90046 0.0
N1510 N 0.81975 0.29944 0.95476 0.0
N1511 N 0.80949 0.28878 0.91218 0.0
H1512 H 0.62169 0.85647 0.14383 0.0
H1513 H 0.56097 0.76862 0.05588 0.0
H1514 H 0.51608 0.88524 0.11704 0.0
H1515 H 0.5814 0.67398 0.08973 0.0
H1516 H 0.56135 0.82522 0.07678 0.0
H1517 H 0.62361 0.80191 0.1228 0.0
C1518 C 0.59899 0.8515 0.13356 0.0
C1519 C 0.56856 0.8756 0.13232 0.0
C1520 C 0.5659 0.79211 0.07958 0.0
C1521 C 0.5718 0.81418 0.10798 0.0
C1522 C 0.56597 0.76002 0.06767 0.0
C1523 C 0.57076 0.71626 0.07106 0.0
C1524 C 0.57224 0.78132 0.09496 0.0
C1525 C 0.57701 0.70694 0.08659 0.0
C1526 C 0.60012 0.82032 0.12156 0.0
C1527 C 0.54008 0.86759 0.11862 0.0
N1528 N 0.57798 0.73929 0.09791 0.0
N1529 N 0.54279 0.83811 0.10698 0.0
H1530 H 0.67542 0.53439 0.27794 0.0
H1531 H 0.9346 0.52899 0.25556 0.0
H1532 H 0.79121 0.55505 0.31158 0.0
H1533 H 0.84152 0.55484 0.22238 0.0
H1534 H 0.87819 0.52887 0.27613 0.0
H1535 H 0.73103 0.53221 0.25763 0.0
C1536 C 0.71238 0.5381 0.28114 0.0
C1537 C 0.72831 0.54479 0.29664 0.0
C1538 C 0.87002 0.53445 0.26435 0.0
C1539 C 0.7927 0.54219 0.27314 0.0
C1540 C 0.90207 0.53421 0.25253 0.0
C1541 C 0.89293 0.54176 0.23709 0.0
C1542 C 0.82779 0.5416 0.2608 0.0
C1543 C 0.85032 0.5489 0.23405 0.0
C1544 C 0.74433 0.53712 0.26944 0.0
C1545 C 0.7771 0.54984 0.29986 0.0
N1546 N 0.81935 0.5484 0.24574 0.0
N1547 N 0.80735 0.54821 0.28825 0.0
H1548 H 0.88664 0.35757 0.46273 0.0
H1549 H 0.62372 0.19244 0.46653 0.0
H1550 H 0.85311 0.44583 0.4296 0.0
H1551 H 0.63555 0.22882 0.41812 0.0
H1552 H 0.70635 0.27249 0.47089 0.0
H1553 H 0.79444 0.29688 0.46497 0.0
C1554 C 0.86008 0.36527 0.45622 0.0
C1555 C 0.87826 0.40697 0.44581 0.0
C1556 C 0.69046 0.26315 0.45936 0.0
C1557 C 0.77203 0.33643 0.44818 0.0
C1558 C 0.64322 0.21792 0.45689 0.0
C1559 C 0.62354 0.20387 0.44191 0.0
C1560 C 0.71781 0.29436 0.44676 0.0
C1561 C 0.65014 0.23805 0.4298 0.0
C1562 C 0.80716 0.33034 0.45753 0.0
C1563 C 0.8413 0.41356 0.43744 0.0
N1564 N 0.69629 0.28167 0.43246 0.0
N1565 N 0.79001 0.37791 0.43852 0.0
H1566 H 0.45684 0.87307 0.57166 0.0
H1567 H 0.53817 0.69853 0.56917 0.0
H1568 H 0.4473 0.83677 0.62005 0.0
H1569 H 0.43585 0.61861 0.60734 0.0
H1570 H 0.50178 0.75502 0.56751 0.0
H1571 H 0.44392 0.78682 0.56566 0.0
C1572 C 0.45092 0.84652 0.58101 0.0
C1573 C 0.45474 0.86245 0.59639 0.0
C1574 C 0.48577 0.72398 0.5759 0.0
C1575 C 0.44139 0.76479 0.58963 0.0
C1576 C 0.50672 0.69127 0.5769 0.0
C1577 C 0.49131 0.65415 0.58873 0.0
C1578 C 0.44991 0.72051 0.58701 0.0
C1579 C 0.45071 0.64796 0.59844 0.0
C1580 C 0.44401 0.79755 0.57757 0.0
C1581 C 0.44629 0.82643 0.60805 0.0
N1582 N 0.43264 0.68198 0.5977 0.0
N1583 N 0.44085 0.77946 0.60444 0.0
H1584 H 0.74822 0.55961 0.78055 0.0
H1585 H 0.86944 0.37619 0.77379 0.0
H1586 H 0.65107 0.39258 0.78112 0.0
H1587 H 0.95499 0.53676 0.78775 0.0
H1588 H 0.78798 0.37789 0.77734 0.0
H1589 H 0.82398 0.5498 0.78348 0.0
C1590 C 0.74268 0.52076 0.78151 0.0
C1591 C 0.69305 0.47687 0.78071 0.0
C1592 C 0.82458 0.41235 0.77992 0.0
C1593 C 0.78035 0.46527 0.7837 0.0
C1594 C 0.8708 0.41127 0.77798 0.0
C1595 C 0.91848 0.45664 0.7803 0.0
C1596 C 0.82677 0.45921 0.78411 0.0
C1597 C 0.91876 0.50128 0.78564 0.0
C1598 C 0.78612 0.51516 0.78314 0.0
C1599 C 0.68867 0.42749 0.78152 0.0
N1600 N 0.87361 0.50164 0.78717 0.0
N1601 N 0.73192 0.42295 0.78287 0.0
H1602 H 0.48937 0.88378 0.9626 0.0
H1603 H 0.27356 0.61309 0.92849 0.0
H1604 H 0.48326 0.84586 0.91443 0.0
H1605 H 0.24652 0.70677 0.96141 0.0
H1606 H 0.36583 0.67863 0.92853 0.0
H1607 H 0.41721 0.79632 0.96745 0.0
C1608 C 0.47391 0.85649 0.95313 0.0
C1609 C 0.49121 0.8722 0.93803 0.0
C1610 C 0.33939 0.68359 0.936 0.0
C1611 C 0.40925 0.7727 0.94353 0.0
C1612 C 0.28658 0.64669 0.93587 0.0
C1613 C 0.25113 0.65455 0.94465 0.0
C1614 C 0.35704 0.72763 0.94534 0.0
C1615 C 0.27139 0.698 0.95448 0.0
C1616 C 0.43277 0.80678 0.95591 0.0
C1617 C 0.4699 0.83539 0.92617 0.0
N1618 N 0.3228 0.73294 0.95445 0.0
N1619 N 0.42925 0.78734 0.92912 0.0
H1620 H 0.55851 0.14713 0.07936 0.0
H1621 H 0.71039 0.4562 0.08733 0.0
H1622 H 0.71897 0.23311 0.0933 0.0
H1623 H 0.54369 0.3576 0.08782 0.0
H1624 H 0.71913 0.37857 0.08414 0.0
H1625 H 0.55845 0.22863 0.07576 0.0
C1626 C 0.59396 0.18346 0.08144 0.0
C1627 C 0.63854 0.18381 0.08685 0.0
C1628 C 0.68078 0.37433 0.0848 0.0
C1629 C 0.63866 0.27695 0.08305 0.0
C1630 C 0.67571 0.41841 0.08674 0.0
C1631 C 0.62619 0.41345 0.08784 0.0
C1632 C 0.63602 0.32528 0.08383 0.0
C1633 C 0.58262 0.36363 0.08674 0.0
C1634 C 0.59393 0.22987 0.07945 0.0
C1635 C 0.68381 0.23162 0.08918 0.0
N1636 N 0.58861 0.32164 0.08482 0.0
N1637 N 0.68256 0.27662 0.0875 0.0
H1638 H 0.49859 0.65006 0.2367 0.0
H1639 H 0.24843 0.58123 0.23583 0.0
H1640 H 0.47746 0.66265 0.28536 0.0
H1641 H 0.27696 0.68839 0.27331 0.0
H1642 H 0.33987 0.6131 0.23398 0.0
H1643 H 0.42947 0.66968 0.23135 0.0
C1644 C 0.48018 0.65795 0.24627 0.0
C1645 C 0.49236 0.65265 0.26154 0.0
C1646 C 0.32652 0.63111 0.24227 0.0
C1647 C 0.41224 0.6733 0.25545 0.0
C1648 C 0.27353 0.61278 0.24338 0.0
C1649 C 0.25367 0.63104 0.25502 0.0
C1650 C 0.36028 0.66705 0.2531 0.0
C1651 C 0.28965 0.67135 0.26454 0.0
C1652 C 0.44041 0.6687 0.24319 0.0
C1653 C 0.46761 0.66406 0.27343 0.0
N1654 N 0.34103 0.68674 0.26372 0.0
N1655 N 0.42788 0.67282 0.27015 0.0
loop_
_geom_bond_atom_site_label_1
_geom_bond_atom_site_label_2
_geom_bond_distance
_geom_bond_site_symmetry_2
_ccdc_geom_bond_type
C0 C2 1.422 . S
C0 C4 1.415 . S
C0 N6 1.369 . S
C1 C2 1.421 . S
C1 C3 1.417 . S
C1 C13 1.422 1_565 S
C2 C0 1.422 . S
C2 C1 1.421 . S
C2 N12 1.359 1_565 S
C3 C1 1.417 . S
C3 C5 1.329 . S
C3 H22 0.930 . S
C4 C0 1.415 . S
C4 C5 1.437 . S
C4 C8 1.413 . S
C5 C3 1.329 . S
C5 C4 1.437 . S
C5 H27 0.929 . S
N6 C0 1.369 . S
N6 C7 1.338 . S
N6 Gd11 2.622 1_565 S
C7 N6 1.338 . S
C7 C9 1.378 . S
C7 H19 0.929 . S
C8 C4 1.413 . S
C8 C9 1.348 . S
C8 H24 0.931 . S
C9 C7 1.378 . S
C9 C8 1.348 . S
C9 H25 0.930 . S
Gd10 N30 2.622 1_565 S
Gd10 N37 2.570 . S
Gd10 O44 2.353 . S
Gd10 O45 2.468 . S
Gd10 O46 2.427 . S
Gd10 O48 2.388 1_565 S
Gd10 O49 2.386 1_565 S
Gd10 O53 2.307 . S
Gd10 C63 2.805 . S
Gd11 N6 2.622 1_545 S
Gd11 N12 2.570 . S
Gd11 O43 2.386 1_545 S
Gd11 O47 2.307 . S
Gd11 O50 2.353 . S
Gd11 O51 2.468 . S
Gd11 O52 2.427 . S
Gd11 O54 2.388 1_545 S
Gd11 C75 2.805 . S
N12 C2 1.359 1_545 S
N12 Gd11 2.570 . S
N12 C14 1.343 . S
C13 C1 1.422 1_545 S
C13 C15 1.321 . S
C13 H21 0.931 . S
C14 N12 1.343 . S
C14 C15 1.390 . S
C14 H16 0.931 . S
C15 C13 1.321 . S
C15 C14 1.390 . S
C15 H17 0.930 . S
H16 C14 0.931 . S
H17 C15 0.930 . S
H18 C41 0.931 . S
H19 C7 0.929 . S
H20 C42 0.930 . S
H21 C13 0.931 . S
H22 C3 0.930 . S
H23 C32 0.929 . S
H24 C8 0.931 . S
H25 C9 0.930 . S
H26 C64 0.930 . S
H27 C5 0.929 . S
H28 C33 0.931 . S
H29 C34 0.930 . S
N30 Gd10 2.622 1_545 S
N30 C31 1.369 . S
N30 C32 1.338 . S
C31 N30 1.369 . S
C31 C35 1.415 . S
C31 C38 1.422 . S
C32 H23 0.929 . S
C32 N30 1.338 . S
C32 C34 1.378 . S
C33 H28 0.931 . S
C33 C34 1.348 . S
C33 C35 1.413 . S
C34 H29 0.930 . S
C34 C32 1.378 . S
C34 C33 1.348 . S
C35 C31 1.415 . S
C35 C33 1.413 . S
C35 C65 1.437 . S
H36 C65 0.929 . S
N37 Gd10 2.570 . S
N37 C38 1.359 1_565 S
N37 C41 1.343 . S
C38 C31 1.422 . S
C38 N37 1.359 1_545 S
C38 C40 1.421 . S
C39 C40 1.422 1_565 S
C39 C42 1.321 . S
C39 H66 0.931 . S
C40 C38 1.421 . S
C40 C39 1.422 1_545 S
C40 C64 1.417 . S
C41 H18 0.931 . S
C41 N37 1.343 . S
C41 C42 1.390 . S
C42 H20 0.930 . S
C42 C39 1.321 . S
C42 C41 1.390 . S
O43 Gd11 2.386 1_565 S
O43 C55 1.265 . S
O44 Gd10 2.353 . S
O44 C55 1.242 . S
O45 Gd10 2.468 . S
O45 C63 1.263 . S
O46 Gd10 2.427 . S
O46 C63 1.252 . S
O47 Gd11 2.307 . S
O47 C56 1.261 . S
O48 Gd10 2.388 1_545 S
O48 C56 1.252 . S
O49 Gd10 2.386 1_545 S
O49 C67 1.265 . S
O50 Gd11 2.353 . S
O50 C67 1.242 . S
O51 Gd11 2.468 . S
O51 C75 1.263 . S
O52 Gd11 2.427 . S
O52 C75 1.252 . S
O53 Gd10 2.307 . S
O53 C68 1.261 . S
O54 Gd11 2.388 1_565 S
O54 C68 1.252 . S
C55 O43 1.265 . S
C55 O44 1.242 . S
C56 O47 1.261 . S
C56 O48 1.252 . S
C57 C60 1.394 . S
C57 C62 1.370 . S
C57 C63 1.500 . S
C58 C61 1.383 . S
C58 C62 1.395 . S
C59 C60 1.396 . S
C59 C61 1.365 . S
C59 H76 0.929 . S
C60 C57 1.394 . S
C60 C59 1.396 . S
C60 H77 0.930 . S
C61 C58 1.383 . S
C61 C59 1.365 . S
C61 H78 0.931 . S
C62 C57 1.370 . S
C62 C58 1.395 . S
C62 H79 0.930 . S
C63 Gd10 2.805 . S
C63 O45 1.263 . S
C63 O46 1.252 . S
C63 C57 1.500 . S
C64 H26 0.930 . S
C64 C40 1.417 . S
C64 C65 1.329 . S
C65 C35 1.437 . S
C65 H36 0.929 . S
C65 C64 1.329 . S
H66 C39 0.931 . S
C67 O49 1.265 . S
C67 O50 1.242 . S
C68 O53 1.261 . S
C68 O54 1.252 . S
C69 C72 1.394 . S
C69 C74 1.370 . S
C69 C75 1.500 . S
C70 C73 1.383 . S
C70 C74 1.395 . S
C71 C72 1.396 . S
C71 C73 1.365 . S
C71 H80 0.929 . S
C72 C69 1.394 . S
C72 C71 1.396 . S
C72 H81 0.930 . S
C73 C70 1.383 . S
C73 C71 1.365 . S
C73 H82 0.931 . S
C74 C69 1.370 . S
C74 C70 1.395 . S
C74 H83 0.930 . S
C75 Gd11 2.805 . S
C75 O51 1.263 . S
C75 O52 1.252 . S
C75 C69 1.500 . S
H76 C59 0.929 . S
H77 C60 0.930 . S
H78 C61 0.931 . S
H79 C62 0.930 . S
H80 C71 0.929 . S
H81 C72 0.930 . S
H82 C73 0.931 . S
H83 C74 0.930 . S
C84 C86 1.422 . S
C84 C88 1.415 . S
C84 N90 1.369 . S
C85 C86 1.421 . S
C85 C87 1.417 . S
C85 C97 1.422 . S
C86 C84 1.422 . S
C86 C85 1.421 . S
C86 N96 1.359 . S
C87 C85 1.417 . S
C87 C89 1.329 . S
C87 H106 0.930 . S
C88 C84 1.415 . S
C88 C89 1.437 . S
C88 C92 1.413 . S
C89 C87 1.329 . S
C89 C88 1.437 . S
C89 H111 0.929 . S
N90 C84 1.369 . S
N90 C91 1.338 . S
N90 Gd95 2.622 . S
C91 N90 1.338 . S
C91 C93 1.378 . S
C91 H103 0.929 . S
C92 C88 1.413 . S
C92 C93 1.348 . S
C92 H108 0.931 . S
C93 C91 1.378 . S
C93 C92 1.348 . S
C93 H109 0.930 . S
Gd94 N114 2.622 . S
Gd94 N121 2.570 . S
Gd94 O128 2.353 . S
Gd94 O129 2.468 . S
Gd94 O130 2.427 . S
Gd94 O132 2.388 . S
Gd94 O133 2.386 . S
Gd94 O137 2.307 . S
Gd94 C147 2.805 . S
Gd95 N90 2.622 . S
Gd95 N96 2.570 . S
Gd95 O127 2.386 . S
Gd95 O131 2.307 . S
Gd95 O134 2.353 . S
Gd95 O135 2.468 . S
Gd95 O136 2.427 . S
Gd95 O138 2.388 . S
Gd95 C159 2.805 . S
N96 C86 1.359 . S
N96 Gd95 2.570 . S
N96 C98 1.343 . S
C97 C85 1.422 . S
C97 C99 1.321 . S
C97 H105 0.931 . S
C98 N96 1.343 . S
C98 C99 1.390 . S
C98 H100 0.931 . S
C99 C97 1.321 . S
C99 C98 1.390 . S
C99 H101 0.930 . S
H100 C98 0.931 . S
H101 C99 0.930 . S
H102 C125 0.931 . S
H103 C91 0.929 . S
H104 C126 0.930 . S
H105 C97 0.931 . S
H106 C87 0.930 . S
H107 C116 0.929 . S
H108 C92 0.931 . S
H109 C93 0.930 . S
H110 C148 0.930 . S
H111 C89 0.929 . S
H112 C117 0.931 . S
H113 C118 0.930 . S
N114 Gd94 2.622 . S
N114 C115 1.369 . S
N114 C116 1.338 . S
C115 N114 1.369 . S
C115 C119 1.415 . S
C115 C122 1.422 . S
C116 H107 0.929 . S
C116 N114 1.338 . S
C116 C118 1.378 . S
C117 H112 0.931 . S
C117 C118 1.348 . S
C117 C119 1.413 . S
C118 H113 0.930 . S
C118 C116 1.378 . S
C118 C117 1.348 . S
C119 C115 1.415 . S
C119 C117 1.413 . S
C119 C149 1.437 . S
H120 C149 0.929 . S
N121 Gd94 2.570 . S
N121 C122 1.359 . S
N121 C125 1.343 . S
C122 C115 1.422 . S
C122 N121 1.359 . S
C122 C124 1.421 . S
C123 C124 1.422 . S
C123 C126 1.321 . S
C123 H150 0.931 . S
C124 C122 1.421 . S
C124 C123 1.422 . S
C124 C148 1.417 . S
C125 H102 0.931 . S
C125 N121 1.343 . S
C125 C126 1.390 . S
C126 H104 0.930 . S
C126 C123 1.321 . S
C126 C125 1.390 . S
O127 Gd95 2.386 . S
O127 C139 1.265 . S
O128 Gd94 2.353 . S
O128 C139 1.242 . S
O129 Gd94 2.468 . S
O129 C147 1.263 . S
O130 Gd94 2.427 . S
O130 C147 1.252 . S
O131 Gd95 2.307 . S
O131 C140 1.261 . S
O132 Gd94 2.388 . S
O132 C140 1.252 . S
O133 Gd94 2.386 . S
O133 C151 1.265 . S
O134 Gd95 2.353 . S
O134 C151 1.242 . S
O135 Gd95 2.468 . S
O135 C159 1.263 . S
O136 Gd95 2.427 . S
O136 C159 1.252 . S
O137 Gd94 2.307 . S
O137 C152 1.261 . S
O138 Gd95 2.388 . S
O138 C152 1.252 . S
C139 O127 1.265 . S
C139 O128 1.242 . S
C140 O131 1.261 . S
C140 O132 1.252 . S
C141 C144 1.394 . S
C141 C146 1.370 . S
C141 C147 1.500 . S
C142 C145 1.383 . S
C142 C146 1.395 . S
C143 C144 1.396 . S
C143 C145 1.365 . S
C143 H160 0.929 . S
C144 C141 1.394 . S
C144 C143 1.396 . S
C144 H161 0.930 . S
C145 C142 1.383 . S
C145 C143 1.365 . S
C145 H162 0.931 . S
C146 C141 1.370 . S
C146 C142 1.395 . S
C146 H163 0.930 . S
C147 Gd94 2.805 . S
C147 O129 1.263 . S
C147 O130 1.252 . S
C147 C141 1.500 . S
C148 H110 0.930 . S
C148 C124 1.417 . S
C148 C149 1.329 . S
C149 C119 1.437 . S
C149 H120 0.929 . S
C149 C148 1.329 . S
H150 C123 0.931 . S
C151 O133 1.265 . S
C151 O134 1.242 . S
C152 O137 1.261 . S
C152 O138 1.252 . S
C153 C156 1.394 . S
C153 C158 1.370 . S
C153 C159 1.500 . S
C154 C157 1.383 . S
C154 C158 1.395 . S
C155 C156 1.396 . S
C155 C157 1.365 . S
C155 H164 0.929 . S
C156 C153 1.394 . S
C156 C155 1.396 . S
C156 H165 0.930 . S
C157 C154 1.383 . S
C157 C155 1.365 . S
C157 H166 0.931 . S
C158 C153 1.370 . S
C158 C154 1.395 . S
C158 H167 0.930 . S
C159 Gd95 2.805 . S
C159 O135 1.263 . S
C159 O136 1.252 . S
C159 C153 1.500 . S
H160 C143 0.929 . S
H161 C144 0.930 . S
H162 C145 0.931 . S
H163 C146 0.930 . S
H164 C155 0.929 . S
H165 C156 0.930 . S
H166 C157 0.931 . S
H167 C158 0.930 . S
C168 C170 1.422 . S
C168 C172 1.415 . S
C168 N174 1.369 . S
C169 C170 1.421 . S
C169 C171 1.417 . S
C169 C181 1.422 1_455 S
C170 C168 1.422 . S
C170 C169 1.421 . S
C170 N180 1.359 1_455 S
C171 C169 1.417 . S
C171 C173 1.329 . S
C171 H190 0.930 . S
C172 C168 1.415 . S
C172 C173 1.437 . S
C172 C176 1.413 . S
C173 C171 1.329 . S
C173 C172 1.437 . S
C173 H195 0.929 . S
N174 C168 1.369 . S
N174 C175 1.338 . S
N174 Gd179 2.622 1_455 S
C175 N174 1.338 . S
C175 C177 1.378 . S
C175 H187 0.929 . S
C176 C172 1.413 . S
C176 C177 1.348 . S
C176 H192 0.931 . S
C177 C175 1.378 . S
C177 C176 1.348 . S
C177 H193 0.930 . S
Gd178 N198 2.622 1_455 S
Gd178 N205 2.570 . S
Gd178 O212 2.353 . S
Gd178 O213 2.468 . S
Gd178 O214 2.427 . S
Gd178 O216 2.388 1_455 S
Gd178 O217 2.386 1_455 S
Gd178 O221 2.307 . S
Gd178 C231 2.805 . S
Gd179 N174 2.622 1_655 S
Gd179 N180 2.570 . S
Gd179 O211 2.386 1_655 S
Gd179 O215 2.307 . S
Gd179 O218 2.353 . S
Gd179 O219 2.468 . S
Gd179 O220 2.427 . S
Gd179 O222 2.388 1_655 S
Gd179 C243 2.805 . S
N180 C170 1.359 1_655 S
N180 Gd179 2.570 . S
N180 C182 1.343 . S
C181 C169 1.422 1_655 S
C181 C183 1.321 . S
C181 H189 0.931 . S
C182 N180 1.343 . S
C182 C183 1.390 . S
C182 H184 0.931 . S
C183 C181 1.321 . S
C183 C182 1.390 . S
C183 H185 0.930 . S
H184 C182 0.931 . S
H185 C183 0.930 . S
H186 C209 0.931 . S
H187 C175 0.929 . S
H188 C210 0.930 . S
H189 C181 0.931 . S
H190 C171 0.930 . S
H191 C200 0.929 . S
H192 C176 0.931 . S
H193 C177 0.930 . S
H194 C232 0.930 . S
H195 C173 0.929 . S
H196 C201 0.931 . S
H197 C202 0.930 . S
N198 Gd178 2.622 1_655 S
N198 C199 1.369 . S
N198 C200 1.338 . S
C199 N198 1.369 . S
C199 C203 1.415 . S
C199 C206 1.422 . S
C200 H191 0.929 . S
C200 N198 1.338 . S
C200 C202 1.378 . S
C201 H196 0.931 . S
C201 C202 1.348 . S
C201 C203 1.413 . S
C202 H197 0.930 . S
C202 C200 1.378 . S
C202 C201 1.348 . S
C203 C199 1.415 . S
C203 C201 1.413 . S
C203 C233 1.437 . S
H204 C233 0.929 . S
N205 Gd178 2.570 . S
N205 C206 1.359 1_455 S
N205 C209 1.343 . S
C206 C199 1.422 . S
C206 N205 1.359 1_655 S
C206 C208 1.421 . S
C207 C208 1.422 1_455 S
C207 C210 1.321 . S
C207 H234 0.931 . S
C208 C206 1.421 . S
C208 C207 1.422 1_655 S
C208 C232 1.417 . S
C209 H186 0.931 . S
C209 N205 1.343 . S
C209 C210 1.390 . S
C210 H188 0.930 . S
C210 C207 1.321 . S
C210 C209 1.390 . S
O211 Gd179 2.386 1_455 S
O211 C223 1.265 . S
O212 Gd178 2.353 . S
O212 C223 1.242 . S
O213 Gd178 2.468 . S
O213 C231 1.263 . S
O214 Gd178 2.427 . S
O214 C231 1.252 . S
O215 Gd179 2.307 . S
O215 C224 1.261 . S
O216 Gd178 2.388 1_655 S
O216 C224 1.252 . S
O217 Gd178 2.386 1_655 S
O217 C235 1.265 . S
O218 Gd179 2.353 . S
O218 C235 1.242 . S
O219 Gd179 2.468 . S
O219 C243 1.263 . S
O220 Gd179 2.427 . S
O220 C243 1.252 . S
O221 Gd178 2.307 . S
O221 C236 1.261 . S
O222 Gd179 2.388 1_455 S
O222 C236 1.252 . S
C223 O211 1.265 . S
C223 O212 1.242 . S
C224 O215 1.261 . S
C224 O216 1.252 . S
C225 C228 1.394 . S
C225 C230 1.370 . S
C225 C231 1.500 . S
C226 C229 1.383 . S
C226 C230 1.395 . S
C227 C228 1.396 . S
C227 C229 1.365 . S
C227 H244 0.929 . S
C228 C225 1.394 . S
C228 C227 1.396 . S
C228 H245 0.930 . S
C229 C226 1.383 . S
C229 C227 1.365 . S
C229 H246 0.931 . S
C230 C225 1.370 . S
C230 C226 1.395 . S
C230 H247 0.930 . S
C231 Gd178 2.805 . S
C231 O213 1.263 . S
C231 O214 1.252 . S
C231 C225 1.500 . S
C232 H194 0.930 . S
C232 C208 1.417 . S
C232 C233 1.329 . S
C233 C203 1.437 . S
C233 H204 0.929 . S
C233 C232 1.329 . S
H234 C207 0.931 . S
C235 O217 1.265 . S
C235 O218 1.242 . S
C236 O221 1.261 . S
C236 O222 1.252 . S
C237 C240 1.394 . S
C237 C242 1.370 . S
C237 C243 1.500 . S
C238 C241 1.383 . S
C238 C242 1.395 . S
C239 C240 1.396 . S
C239 C241 1.365 . S
C239 H248 0.929 . S
C240 C237 1.394 . S
C240 C239 1.396 . S
C240 H249 0.930 . S
C241 C238 1.383 . S
C241 C239 1.365 . S
C241 H250 0.931 . S
C242 C237 1.370 . S
C242 C238 1.395 . S
C242 H251 0.930 . S
C243 Gd179 2.805 . S
C243 O219 1.263 . S
C243 O220 1.252 . S
C243 C237 1.500 . S
H244 C227 0.929 . S
H245 C228 0.930 . S
H246 C229 0.931 . S
H247 C230 0.930 . S
H248 C239 0.929 . S
H249 C240 0.930 . S
H250 C241 0.931 . S
H251 C242 0.930 . S
C252 C254 1.422 . S
C252 C256 1.415 . S
C252 N258 1.369 . S
C253 C254 1.421 . S
C253 C255 1.417 . S
C253 C265 1.422 1_545 S
C254 C252 1.422 . S
C254 C253 1.421 . S
C254 N264 1.359 1_545 S
C255 C253 1.417 . S
C255 C257 1.329 . S
C255 H274 0.930 . S
C256 C252 1.415 . S
C256 C257 1.437 . S
C256 C260 1.413 . S
C257 C255 1.329 . S
C257 C256 1.437 . S
C257 H279 0.929 . S
N258 C252 1.369 . S
N258 C259 1.338 . S
N258 Gd263 2.622 1_545 S
C259 N258 1.338 . S
C259 C261 1.378 . S
C259 H271 0.929 . S
C260 C256 1.413 . S
C260 C261 1.348 . S
C260 H276 0.931 . S
C261 C259 1.378 . S
C261 C260 1.348 . S
C261 H277 0.930 . S
Gd262 N282 2.622 1_545 S
Gd262 N289 2.570 . S
Gd262 O296 2.353 . S
Gd262 O297 2.468 . S
Gd262 O298 2.427 . S
Gd262 O300 2.388 1_545 S
Gd262 O301 2.386 1_545 S
Gd262 O305 2.307 . S
Gd262 C315 2.805 . S
Gd263 N258 2.622 1_565 S
Gd263 N264 2.570 . S
Gd263 O295 2.386 1_565 S
Gd263 O299 2.307 . S
Gd263 O302 2.353 . S
Gd263 O303 2.468 . S
Gd263 O304 2.427 . S
Gd263 O306 2.388 1_565 S
Gd263 C327 2.805 . S
N264 C254 1.359 1_565 S
N264 Gd263 2.570 . S
N264 C266 1.343 . S
C265 C253 1.422 1_565 S
C265 C267 1.321 . S
C265 H273 0.931 . S
C266 N264 1.343 . S
C266 C267 1.390 . S
C266 H268 0.931 . S
C267 C265 1.321 . S
C267 C266 1.390 . S
C267 H269 0.930 . S
H268 C266 0.931 . S
H269 C267 0.930 . S
H270 C293 0.931 . S
H271 C259 0.929 . S
H272 C294 0.930 . S
H273 C265 0.931 . S
H274 C255 0.930 . S
H275 C284 0.929 . S
H276 C260 0.931 . S
H277 C261 0.930 . S
H278 C316 0.930 . S
H279 C257 0.929 . S
H280 C285 0.931 . S
H281 C286 0.930 . S
N282 Gd262 2.622 1_565 S
N282 C283 1.369 . S
N282 C284 1.338 . S
C283 N282 1.369 . S
C283 C287 1.415 . S
C283 C290 1.422 . S
C284 H275 0.929 . S
C284 N282 1.338 . S
C284 C286 1.378 . S
C285 H280 0.931 . S
C285 C286 1.348 . S
C285 C287 1.413 . S
C286 H281 0.930 . S
C286 C284 1.378 . S
C286 C285 1.348 . S
C287 C283 1.415 . S
C287 C285 1.413 . S
C287 C317 1.437 . S
H288 C317 0.929 . S
N289 Gd262 2.570 . S
N289 C290 1.359 1_545 S
N289 C293 1.343 . S
C290 C283 1.422 . S
C290 N289 1.359 1_565 S
C290 C292 1.421 . S
C291 C292 1.422 1_545 S
C291 C294 1.321 . S
C291 H318 0.931 . S
C292 C290 1.421 . S
C292 C291 1.422 1_565 S
C292 C316 1.417 . S
C293 H270 0.931 . S
C293 N289 1.343 . S
C293 C294 1.390 . S
C294 H272 0.930 . S
C294 C291 1.321 . S
C294 C293 1.390 . S
O295 Gd263 2.386 1_545 S
O295 C307 1.265 . S
O296 Gd262 2.353 . S
O296 C307 1.242 . S
O297 Gd262 2.468 . S
O297 C315 1.263 . S
O298 Gd262 2.427 . S
O298 C315 1.252 . S
O299 Gd263 2.307 . S
O299 C308 1.261 . S
O300 Gd262 2.388 1_565 S
O300 C308 1.252 . S
O301 Gd262 2.386 1_565 S
O301 C319 1.265 . S
O302 Gd263 2.353 . S
O302 C319 1.242 . S
O303 Gd263 2.468 . S
O303 C327 1.263 . S
O304 Gd263 2.427 . S
O304 C327 1.252 . S
O305 Gd262 2.307 . S
O305 C320 1.261 . S
O306 Gd263 2.388 1_545 S
O306 C320 1.252 . S
C307 O295 1.265 . S
C307 O296 1.242 . S
C308 O299 1.261 . S
C308 O300 1.252 . S
C309 C312 1.394 . S
C309 C314 1.370 . S
C309 C315 1.500 . S
C310 C313 1.383 . S
C310 C314 1.395 . S
C311 C312 1.396 . S
C311 C313 1.365 . S
C311 H328 0.929 . S
C312 C309 1.394 . S
C312 C311 1.396 . S
C312 H329 0.930 . S
C313 C310 1.383 . S
C313 C311 1.365 . S
C313 H330 0.931 . S
C314 C309 1.370 . S
C314 C310 1.395 . S
C314 H331 0.930 . S
C315 Gd262 2.805 . S
C315 O297 1.263 . S
C315 O298 1.252 . S
C315 C309 1.500 . S
C316 H278 0.930 . S
C316 C292 1.417 . S
C316 C317 1.329 . S
C317 C287 1.437 . S
C317 H288 0.929 . S
C317 C316 1.329 . S
H318 C291 0.931 . S
C319 O301 1.265 . S
C319 O302 1.242 . S
C320 O305 1.261 . S
C320 O306 1.252 . S
C321 C324 1.394 . S
C321 C326 1.370 . S
C321 C327 1.500 . S
C322 C325 1.383 . S
C322 C326 1.395 . S
C323 C324 1.396 . S
C323 C325 1.365 . S
C323 H332 0.929 . S
C324 C321 1.394 . S
C324 C323 1.396 . S
C324 H333 0.930 . S
C325 C322 1.383 . S
C325 C323 1.365 . S
C325 H334 0.931 . S
C326 C321 1.370 . S
C326 C322 1.395 . S
C326 H335 0.930 . S
C327 Gd263 2.805 . S
C327 O303 1.263 . S
C327 O304 1.252 . S
C327 C321 1.500 . S
H328 C311 0.929 . S
H329 C312 0.930 . S
H330 C313 0.931 . S
H331 C314 0.930 . S
H332 C323 0.929 . S
H333 C324 0.930 . S
H334 C325 0.931 . S
H335 C326 0.930 . S
C336 C338 1.422 . S
C336 C340 1.415 . S
C336 N342 1.369 . S
C337 C338 1.421 . S
C337 C339 1.417 . S
C337 C349 1.422 . S
C338 C336 1.422 . S
C338 C337 1.421 . S
C338 N348 1.359 . S
C339 C337 1.417 . S
C339 C341 1.329 . S
C339 H358 0.930 . S
C340 C336 1.415 . S
C340 C341 1.437 . S
C340 C344 1.413 . S
C341 C339 1.329 . S
C341 C340 1.437 . S
C341 H363 0.929 . S
N342 C336 1.369 . S
N342 C343 1.338 . S
N342 Gd347 2.622 . S
C343 N342 1.338 . S
C343 C345 1.378 . S
C343 H355 0.929 . S
C344 C340 1.413 . S
C344 C345 1.348 . S
C344 H360 0.931 . S
C345 C343 1.378 . S
C345 C344 1.348 . S
C345 H361 0.930 . S
Gd346 N366 2.622 . S
Gd346 N373 2.570 . S
Gd346 O380 2.353 . S
Gd346 O381 2.468 . S
Gd346 O382 2.427 1_554 S
Gd346 O384 2.388 . S
Gd346 O385 2.386 . S
Gd346 O389 2.307 . S
Gd346 C399 2.805 1_554 S
Gd347 N342 2.622 . S
Gd347 N348 2.570 . S
Gd347 O379 2.386 . S
Gd347 O383 2.307 . S
Gd347 O386 2.353 . S
Gd347 O387 2.468 . S
Gd347 O388 2.427 . S
Gd347 O390 2.388 . S
Gd347 C411 2.805 . S
N348 C338 1.359 . S
N348 Gd347 2.570 . S
N348 C350 1.343 . S
C349 C337 1.422 . S
C349 C351 1.321 . S
C349 H357 0.931 . S
C350 N348 1.343 . S
C350 C351 1.390 . S
C350 H352 0.931 . S
C351 C349 1.321 . S
C351 C350 1.390 . S
C351 H353 0.930 . S
H352 C350 0.931 . S
H353 C351 0.930 . S
H354 C377 0.931 . S
H355 C343 0.929 . S
H356 C378 0.930 . S
H357 C349 0.931 . S
H358 C339 0.930 . S
H359 C368 0.929 . S
H360 C344 0.931 . S
H361 C345 0.930 . S
H362 C400 0.930 . S
H363 C341 0.929 . S
H364 C369 0.919 1_556 S
H365 C370 0.930 . S
N366 Gd346 2.622 . S
N366 C367 1.369 . S
N366 C368 1.338 1_554 S
C367 N366 1.369 . S
C367 C371 1.415 . S
C367 C374 1.422 . S
C368 H359 0.929 . S
C368 N366 1.338 1_556 S
C368 C370 1.378 . S
C369 H364 0.919 1_554 S
C369 C370 1.348 1_554 S
C369 C371 1.413 . S
C370 H365 0.930 . S
C370 C368 1.378 . S
C370 C369 1.348 1_556 S
C371 C367 1.415 . S
C371 C369 1.413 . S
C371 C401 1.437 . S
H372 C401 0.929 . S
N373 Gd346 2.570 . S
N373 C374 1.359 . S
N373 C377 1.343 . S
C374 C367 1.422 . S
C374 N373 1.359 . S
C374 C376 1.421 . S
C375 C376 1.422 . S
C375 C378 1.321 . S
C375 H402 0.931 . S
C376 C374 1.421 . S
C376 C375 1.422 . S
C376 C400 1.417 . S
C377 H354 0.931 . S
C377 N373 1.343 . S
C377 C378 1.390 . S
C378 H356 0.930 . S
C378 C375 1.321 . S
C378 C377 1.390 . S
O379 Gd347 2.386 . S
O379 C391 1.265 . S
O380 Gd346 2.353 . S
O380 C391 1.242 . S
O381 Gd346 2.468 . S
O381 C399 1.263 1_554 S
O382 Gd346 2.427 1_556 S
O382 C399 1.252 . S
O383 Gd347 2.307 . S
O383 C392 1.261 . S
O384 Gd346 2.388 . S
O384 C392 1.252 . S
O385 Gd346 2.386 . S
O385 C403 1.265 . S
O386 Gd347 2.353 . S
O386 C403 1.242 . S
O387 Gd347 2.468 . S
O387 C411 1.263 . S
O388 Gd347 2.427 . S
O388 C411 1.252 . S
O389 Gd346 2.307 . S
O389 C404 1.261 . S
O390 Gd347 2.388 . S
O390 C404 1.252 . S
C391 O379 1.265 . S
C391 O380 1.242 . S
C392 O383 1.261 . S
C392 O384 1.252 . S
C393 C396 1.394 . S
C393 C398 1.370 . S
C393 C399 1.500 . S
C394 C397 1.383 . S
C394 C398 1.395 . S
C395 C396 1.396 . S
C395 C397 1.365 . S
C395 H412 0.929 . S
C396 C393 1.394 . S
C396 C395 1.396 . S
C396 H413 0.930 . S
C397 C394 1.383 . S
C397 C395 1.365 . S
C397 H414 0.931 . S
C398 C393 1.370 . S
C398 C394 1.395 . S
C398 H415 0.967 . S
C399 Gd346 2.805 1_556 S
C399 O381 1.263 1_556 S
C399 O382 1.252 . S
C399 C393 1.500 . S
C400 H362 0.930 . S
C400 C376 1.417 . S
C400 C401 1.329 . S
C401 C371 1.437 . S
C401 H372 0.929 . S
C401 C400 1.329 . S
H402 C375 0.931 . S
C403 O385 1.265 . S
C403 O386 1.242 . S
C404 O389 1.261 . S
C404 O390 1.252 . S
C405 C408 1.394 . S
C405 C410 1.370 . S
C405 C411 1.500 . S
C406 C409 1.383 . S
C406 C410 1.395 . S
C407 C408 1.396 . S
C407 C409 1.365 . S
C407 H416 0.929 . S
C408 C405 1.394 . S
C408 C407 1.396 . S
C408 H417 0.930 . S
C409 C406 1.383 . S
C409 C407 1.365 . S
C409 H418 0.931 . S
C410 C405 1.370 . S
C410 C406 1.395 . S
C410 H419 0.930 . S
C411 Gd347 2.805 . S
C411 O387 1.263 . S
C411 O388 1.252 . S
C411 C405 1.500 . S
H412 C395 0.929 . S
H413 C396 0.930 . S
H414 C397 0.931 . S
H415 C398 0.967 . S
H416 C407 0.929 . S
H417 C408 0.930 . S
H418 C409 0.931 . S
H419 C410 0.930 . S
C420 C422 1.422 . S
C420 C424 1.415 . S
C420 N426 1.369 . S
C421 C422 1.421 . S
C421 C423 1.417 . S
C421 C433 1.422 1_655 S
C422 C420 1.422 . S
C422 C421 1.421 . S
C422 N432 1.359 1_655 S
C423 C421 1.417 . S
C423 C425 1.329 . S
C423 H442 0.930 . S
C424 C420 1.415 . S
C424 C425 1.437 . S
C424 C428 1.413 . S
C425 C423 1.329 . S
C425 C424 1.437 . S
C425 H447 0.929 . S
N426 C420 1.369 . S
N426 C427 1.338 . S
N426 Gd431 2.622 1_655 S
C427 N426 1.338 . S
C427 C429 1.378 . S
C427 H439 0.929 . S
C428 C424 1.413 . S
C428 C429 1.348 . S
C428 H444 0.931 . S
C429 C427 1.378 . S
C429 C428 1.348 . S
C429 H445 0.930 . S
Gd430 N450 2.622 1_655 S
Gd430 N457 2.570 . S
Gd430 O464 2.353 . S
Gd430 O465 2.468 . S
Gd430 O466 2.427 . S
Gd430 O468 2.388 1_655 S
Gd430 O469 2.386 1_655 S
Gd430 O473 2.307 . S
Gd430 C483 2.805 . S
Gd431 N426 2.622 1_455 S
Gd431 N432 2.570 . S
Gd431 O463 2.386 1_455 S
Gd431 O467 2.307 . S
Gd431 O470 2.353 . S
Gd431 O471 2.468 . S
Gd431 O472 2.427 . S
Gd431 O474 2.388 1_455 S
Gd431 C495 2.805 . S
N432 C422 1.359 1_455 S
N432 Gd431 2.570 . S
N432 C434 1.343 . S
C433 C421 1.422 1_455 S
C433 C435 1.321 . S
C433 H441 0.931 . S
C434 N432 1.343 . S
C434 C435 1.390 . S
C434 H436 0.931 . S
C435 C433 1.321 . S
C435 C434 1.390 . S
C435 H437 0.930 . S
H436 C434 0.931 . S
H437 C435 0.930 . S
H438 C461 0.931 . S
H439 C427 0.929 . S
H440 C462 0.930 . S
H441 C433 0.931 . S
H442 C423 0.930 . S
H443 C452 0.929 . S
H444 C428 0.931 . S
H445 C429 0.930 . S
H446 C484 0.930 . S
H447 C425 0.929 . S
H448 C453 0.931 . S
H449 C454 0.930 . S
N450 Gd430 2.622 1_455 S
N450 C451 1.369 . S
N450 C452 1.338 . S
C451 N450 1.369 . S
C451 C455 1.415 . S
C451 C458 1.422 . S
C452 H443 0.929 . S
C452 N450 1.338 . S
C452 C454 1.378 . S
C453 H448 0.931 . S
C453 C454 1.348 . S
C453 C455 1.413 . S
C454 H449 0.930 . S
C454 C452 1.378 . S
C454 C453 1.348 . S
C455 C451 1.415 . S
C455 C453 1.413 . S
C455 C485 1.437 . S
H456 C485 0.929 . S
N457 Gd430 2.570 . S
N457 C458 1.359 1_655 S
N457 C461 1.343 . S
C458 C451 1.422 . S
C458 N457 1.359 1_455 S
C458 C460 1.421 . S
C459 C460 1.422 1_655 S
C459 C462 1.321 . S
C459 H486 0.931 . S
C460 C458 1.421 . S
C460 C459 1.422 1_455 S
C460 C484 1.417 . S
C461 H438 0.931 . S
C461 N457 1.343 . S
C461 C462 1.390 . S
C462 H440 0.930 . S
C462 C459 1.321 . S
C462 C461 1.390 . S
O463 Gd431 2.386 1_655 S
O463 C475 1.265 . S
O464 Gd430 2.353 . S
O464 C475 1.242 . S
O465 Gd430 2.468 . S
O465 C483 1.263 . S
O466 Gd430 2.427 . S
O466 C483 1.252 . S
O467 Gd431 2.307 . S
O467 C476 1.261 . S
O468 Gd430 2.388 1_455 S
O468 C476 1.252 . S
O469 Gd430 2.386 1_455 S
O469 C487 1.265 . S
O470 Gd431 2.353 . S
O470 C487 1.242 . S
O471 Gd431 2.468 . S
O471 C495 1.263 . S
O472 Gd431 2.427 . S
O472 C495 1.252 . S
O473 Gd430 2.307 . S
O473 C488 1.261 . S
O474 Gd431 2.388 1_655 S
O474 C488 1.252 . S
C475 O463 1.265 . S
C475 O464 1.242 . S
C476 O467 1.261 . S
C476 O468 1.252 . S
C477 C480 1.394 . S
C477 C482 1.370 . S
C477 C483 1.500 . S
C478 C481 1.383 . S
C478 C482 1.395 . S
C479 C480 1.396 . S
C479 C481 1.365 . S
C479 H496 0.929 . S
C480 C477 1.394 . S
C480 C479 1.396 . S
C480 H497 0.930 . S
C481 C478 1.383 . S
C481 C479 1.365 . S
C481 H498 0.931 . S
C482 C477 1.370 . S
C482 C478 1.395 . S
C482 H499 0.930 . S
C483 Gd430 2.805 . S
C483 O465 1.263 . S
C483 O466 1.252 . S
C483 C477 1.500 . S
C484 H446 0.930 . S
C484 C460 1.417 . S
C484 C485 1.329 . S
C485 C455 1.437 . S
C485 H456 0.929 . S
C485 C484 1.329 . S
H486 C459 0.931 . S
C487 O469 1.265 . S
C487 O470 1.242 . S
C488 O473 1.261 . S
C488 O474 1.252 . S
C489 C492 1.394 . S
C489 C494 1.370 . S
C489 C495 1.500 . S
C490 C493 1.383 . S
C490 C494 1.395 . S
C491 C492 1.396 . S
C491 C493 1.365 . S
C491 H500 0.929 . S
C492 C489 1.394 . S
C492 C491 1.396 . S
C492 H501 0.930 . S
C493 C490 1.383 . S
C493 C491 1.365 . S
C493 H502 0.931 . S
C494 C489 1.370 . S
C494 C490 1.395 . S
C494 H503 0.930 . S
C495 Gd431 2.805 . S
C495 O471 1.263 . S
C495 O472 1.252 . S
C495 C489 1.500 . S
H496 C479 0.929 . S
H497 C480 0.930 . S
H498 C481 0.931 . S
H499 C482 0.930 . S
H500 C491 0.929 . S
H501 C492 0.930 . S
H502 C493 0.931 . S
H503 C494 0.930 . S
C504 C506 1.422 . S
C504 C508 1.415 . S
C504 N510 1.369 . S
C505 C506 1.421 . S
C505 C507 1.417 . S
C505 C517 1.422 1_455 S
C506 C504 1.422 . S
C506 C505 1.421 . S
C506 N516 1.359 1_455 S
C507 C505 1.417 . S
C507 C509 1.329 . S
C507 H526 0.930 . S
C508 C504 1.415 . S
C508 C509 1.437 . S
C508 C512 1.413 . S
C509 C507 1.329 . S
C509 C508 1.437 . S
C509 H531 0.929 . S
N510 C504 1.369 . S
N510 C511 1.338 . S
N510 Gd515 2.622 1_455 S
C511 N510 1.338 . S
C511 C513 1.378 . S
C511 H523 0.929 . S
C512 C508 1.413 . S
C512 C513 1.348 . S
C512 H528 0.931 . S
C513 C511 1.378 . S
C513 C512 1.348 . S
C513 H529 0.930 . S
Gd514 N534 2.622 1_455 S
Gd514 N541 2.570 . S
Gd514 O548 2.353 . S
Gd514 O549 2.468 . S
Gd514 O550 2.427 . S
Gd514 O552 2.388 1_455 S
Gd514 O553 2.386 1_455 S
Gd514 O557 2.307 . S
Gd514 C567 2.805 . S
Gd515 N510 2.622 1_655 S
Gd515 N516 2.570 . S
Gd515 O547 2.386 1_655 S
Gd515 O551 2.307 . S
Gd515 O554 2.353 . S
Gd515 O555 2.468 . S
Gd515 O556 2.427 . S
Gd515 O558 2.388 1_655 S
Gd515 C579 2.805 . S
N516 C506 1.359 1_655 S
N516 Gd515 2.570 . S
N516 C518 1.343 . S
C517 C505 1.422 1_655 S
C517 C519 1.321 . S
C517 H525 0.931 . S
C518 N516 1.343 . S
C518 C519 1.390 . S
C518 H520 0.931 . S
C519 C517 1.321 . S
C519 C518 1.390 . S
C519 H521 0.930 . S
H520 C518 0.931 . S
H521 C519 0.930 . S
H522 C545 0.931 . S
H523 C511 0.929 . S
H524 C546 0.930 . S
H525 C517 0.931 . S
H526 C507 0.930 . S
H527 C536 0.929 . S
H528 C512 0.931 . S
H529 C513 0.930 . S
H530 C568 0.930 . S
H531 C509 0.929 . S
H532 C537 0.931 . S
H533 C538 0.930 . S
N534 Gd514 2.622 1_655 S
N534 C535 1.369 . S
N534 C536 1.338 . S
C535 N534 1.369 . S
C535 C539 1.415 . S
C535 C542 1.422 . S
C536 H527 0.929 . S
C536 N534 1.338 . S
C536 C538 1.378 . S
C537 H532 0.931 . S
C537 C538 1.348 . S
C537 C539 1.413 . S
C538 H533 0.930 . S
C538 C536 1.378 . S
C538 C537 1.348 . S
C539 C535 1.415 . S
C539 C537 1.413 . S
C539 C569 1.437 . S
H540 C569 0.929 . S
N541 Gd514 2.570 . S
N541 C542 1.359 1_455 S
N541 C545 1.343 . S
C542 C535 1.422 . S
C542 N541 1.359 1_655 S
C542 C544 1.421 . S
C543 C544 1.422 1_455 S
C543 C546 1.321 . S
C543 H570 0.931 . S
C544 C542 1.421 . S
C544 C543 1.422 1_655 S
C544 C568 1.417 . S
C545 H522 0.931 . S
C545 N541 1.343 . S
C545 C546 1.390 . S
C546 H524 0.930 . S
C546 C543 1.321 . S
C546 C545 1.390 . S
O547 Gd515 2.386 1_455 S
O547 C559 1.265 . S
O548 Gd514 2.353 . S
O548 C559 1.242 . S
O549 Gd514 2.468 . S
O549 C567 1.263 . S
O550 Gd514 2.427 . S
O550 C567 1.252 . S
O551 Gd515 2.307 . S
O551 C560 1.261 . S
O552 Gd514 2.388 1_655 S
O552 C560 1.252 . S
O553 Gd514 2.386 1_655 S
O553 C571 1.265 . S
O554 Gd515 2.353 . S
O554 C571 1.242 . S
O555 Gd515 2.468 . S
O555 C579 1.263 . S
O556 Gd515 2.427 . S
O556 C579 1.252 . S
O557 Gd514 2.307 . S
O557 C572 1.261 . S
O558 Gd515 2.388 1_455 S
O558 C572 1.252 . S
C559 O547 1.265 . S
C559 O548 1.242 . S
C560 O551 1.261 . S
C560 O552 1.252 . S
C561 C564 1.394 . S
C561 C566 1.370 . S
C561 C567 1.500 . S
C562 C565 1.383 . S
C562 C566 1.395 . S
C563 C564 1.396 . S
C563 C565 1.365 . S
C563 H580 0.929 . S
C564 C561 1.394 . S
C564 C563 1.396 . S
C564 H581 0.930 . S
C565 C562 1.383 . S
C565 C563 1.365 . S
C565 H582 0.931 . S
C566 C561 1.370 . S
C566 C562 1.395 . S
C566 H583 0.930 . S
C567 Gd514 2.805 . S
C567 O549 1.263 . S
C567 O550 1.252 . S
C567 C561 1.500 . S
C568 H530 0.930 . S
C568 C544 1.417 . S
C568 C569 1.329 . S
C569 C539 1.437 . S
C569 H540 0.929 . S
C569 C568 1.329 . S
H570 C543 0.931 . S
C571 O553 1.265 . S
C571 O554 1.242 . S
C572 O557 1.261 . S
C572 O558 1.252 . S
C573 C576 1.394 . S
C573 C578 1.370 . S
C573 C579 1.500 . S
C574 C577 1.383 . S
C574 C578 1.395 . S
C575 C576 1.396 . S
C575 C577 1.365 . S
C575 H584 0.929 . S
C576 C573 1.394 . S
C576 C575 1.396 . S
C576 H585 0.930 . S
C577 C574 1.383 . S
C577 C575 1.365 . S
C577 H586 0.931 . S
C578 C573 1.370 . S
C578 C574 1.395 . S
C578 H587 0.930 . S
C579 Gd515 2.805 . S
C579 O555 1.263 . S
C579 O556 1.252 . S
C579 C573 1.500 . S
H580 C563 0.929 . S
H581 C564 0.930 . S
H582 C565 0.931 . S
H583 C566 0.930 . S
H584 C575 0.929 . S
H585 C576 0.930 . S
H586 C577 0.931 . S
H587 C578 0.930 . S
C588 C590 1.422 . S
C588 C592 1.415 . S
C588 N594 1.369 . S
C589 C590 1.421 . S
C589 C591 1.417 . S
C589 C601 1.422 1_545 S
C590 C588 1.422 . S
C590 C589 1.421 . S
C590 N600 1.359 1_545 S
C591 C589 1.417 . S
C591 C593 1.329 . S
C591 H610 0.930 . S
C592 C588 1.415 . S
C592 C593 1.437 . S
C592 C596 1.413 . S
C593 C591 1.329 . S
C593 C592 1.437 . S
C593 H615 0.929 . S
N594 C588 1.369 . S
N594 C595 1.338 . S
N594 Gd599 2.622 1_545 S
C595 N594 1.338 . S
C595 C597 1.378 . S
C595 H607 0.929 . S
C596 C592 1.413 . S
C596 C597 1.348 . S
C596 H612 0.931 . S
C597 C595 1.378 . S
C597 C596 1.348 . S
C597 H613 0.930 . S
Gd598 N618 2.622 1_545 S
Gd598 N625 2.570 . S
Gd598 O632 2.353 . S
Gd598 O633 2.468 . S
Gd598 O634 2.427 . S
Gd598 O636 2.388 1_545 S
Gd598 O637 2.386 1_545 S
Gd598 O641 2.307 . S
Gd598 C651 2.805 . S
Gd599 N594 2.622 1_565 S
Gd599 N600 2.570 . S
Gd599 O631 2.386 1_565 S
Gd599 O635 2.307 . S
Gd599 O638 2.353 . S
Gd599 O639 2.468 . S
Gd599 O640 2.427 . S
Gd599 O642 2.388 1_565 S
Gd599 C663 2.805 . S
N600 C590 1.359 1_565 S
N600 Gd599 2.570 . S
N600 C602 1.343 . S
C601 C589 1.422 1_565 S
C601 C603 1.321 . S
C601 H609 0.931 . S
C602 N600 1.343 . S
C602 C603 1.390 . S
C602 H604 0.931 . S
C603 C601 1.321 . S
C603 C602 1.390 . S
C603 H605 0.930 . S
H604 C602 0.931 . S
H605 C603 0.930 . S
H606 C629 0.931 . S
H607 C595 0.929 . S
H608 C630 0.930 . S
H609 C601 0.931 . S
H610 C591 0.930 . S
H611 C620 0.929 . S
H612 C596 0.931 . S
H613 C597 0.930 . S
H614 C652 0.930 . S
H615 C593 0.929 . S
H616 C621 0.931 . S
H617 C622 0.930 . S
N618 Gd598 2.622 1_565 S
N618 C619 1.369 . S
N618 C620 1.338 . S
C619 N618 1.369 . S
C619 C623 1.415 . S
C619 C626 1.422 . S
C620 H611 0.929 . S
C620 N618 1.338 . S
C620 C622 1.378 . S
C621 H616 0.931 . S
C621 C622 1.348 . S
C621 C623 1.413 . S
C622 H617 0.930 . S
C622 C620 1.378 . S
C622 C621 1.348 . S
C623 C619 1.415 . S
C623 C621 1.413 . S
C623 C653 1.437 . S
H624 C653 0.929 . S
N625 Gd598 2.570 . S
N625 C626 1.359 1_545 S
N625 C629 1.343 . S
C626 C619 1.422 . S
C626 N625 1.359 1_565 S
C626 C628 1.421 . S
C627 C628 1.422 1_545 S
C627 C630 1.321 . S
C627 H654 0.931 . S
C628 C626 1.421 . S
C628 C627 1.422 1_565 S
C628 C652 1.417 . S
C629 H606 0.931 . S
C629 N625 1.343 . S
C629 C630 1.390 . S
C630 H608 0.930 . S
C630 C627 1.321 . S
C630 C629 1.390 . S
O631 Gd599 2.386 1_545 S
O631 C643 1.265 . S
O632 Gd598 2.353 . S
O632 C643 1.242 . S
O633 Gd598 2.468 . S
O633 C651 1.263 . S
O634 Gd598 2.427 . S
O634 C651 1.252 . S
O635 Gd599 2.307 . S
O635 C644 1.261 . S
O636 Gd598 2.388 1_565 S
O636 C644 1.252 . S
O637 Gd598 2.386 1_565 S
O637 C655 1.265 . S
O638 Gd599 2.353 . S
O638 C655 1.242 . S
O639 Gd599 2.468 . S
O639 C663 1.263 . S
O640 Gd599 2.427 . S
O640 C663 1.252 . S
O641 Gd598 2.307 . S
O641 C656 1.261 . S
O642 Gd599 2.388 1_545 S
O642 C656 1.252 . S
C643 O631 1.265 . S
C643 O632 1.242 . S
C644 O635 1.261 . S
C644 O636 1.252 . S
C645 C648 1.394 . S
C645 C650 1.370 . S
C645 C651 1.500 . S
C646 C649 1.383 . S
C646 C650 1.395 . S
C647 C648 1.396 . S
C647 C649 1.365 . S
C647 H664 0.929 . S
C648 C645 1.394 . S
C648 C647 1.396 . S
C648 H665 0.930 . S
C649 C646 1.383 . S
C649 C647 1.365 . S
C649 H666 0.931 . S
C650 C645 1.370 . S
C650 C646 1.395 . S
C650 H667 0.930 . S
C651 Gd598 2.805 . S
C651 O633 1.263 . S
C651 O634 1.252 . S
C651 C645 1.500 . S
C652 H614 0.930 . S
C652 C628 1.417 . S
C652 C653 1.329 . S
C653 C623 1.437 . S
C653 H624 0.929 . S
C653 C652 1.329 . S
H654 C627 0.931 . S
C655 O637 1.265 . S
C655 O638 1.242 . S
C656 O641 1.261 . S
C656 O642 1.252 . S
C657 C660 1.394 . S
C657 C662 1.370 . S
C657 C663 1.500 . S
C658 C661 1.383 . S
C658 C662 1.395 . S
C659 C660 1.396 . S
C659 C661 1.365 . S
C659 H668 0.929 . S
C660 C657 1.394 . S
C660 C659 1.396 . S
C660 H669 0.930 . S
C661 C658 1.383 . S
C661 C659 1.365 . S
C661 H670 0.931 . S
C662 C657 1.370 . S
C662 C658 1.395 . S
C662 H671 0.930 . S
C663 Gd599 2.805 . S
C663 O639 1.263 . S
C663 O640 1.252 . S
C663 C657 1.500 . S
H664 C647 0.929 . S
H665 C648 0.930 . S
H666 C649 0.931 . S
H667 C650 0.930 . S
H668 C659 0.929 . S
H669 C660 0.930 . S
H670 C661 0.931 . S
H671 C662 0.930 . S
C672 C674 1.422 . S
C672 C676 1.415 . S
C672 N678 1.369 . S
C673 C674 1.421 . S
C673 C675 1.417 . S
C673 C685 1.422 . S
C674 C672 1.422 . S
C674 C673 1.421 . S
C674 N684 1.359 . S
C675 C673 1.417 . S
C675 C677 1.329 . S
C675 H694 0.930 . S
C676 C672 1.415 . S
C676 C677 1.437 . S
C676 C680 1.413 . S
C677 C675 1.329 . S
C677 C676 1.437 . S
C677 H699 0.929 . S
N678 C672 1.369 . S
N678 C679 1.338 . S
N678 Gd683 2.622 . S
C679 N678 1.338 . S
C679 C681 1.378 . S
C679 H691 0.929 . S
C680 C676 1.413 . S
C680 C681 1.348 . S
C680 H696 0.931 . S
C681 C679 1.378 . S
C681 C680 1.348 . S
C681 H697 0.930 . S
Gd682 N702 2.622 . S
Gd682 N709 2.570 . S
Gd682 O716 2.353 . S
Gd682 O717 2.468 . S
Gd682 O718 2.427 . S
Gd682 O720 2.388 . S
Gd682 O721 2.386 . S
Gd682 O725 2.307 . S
Gd682 C735 2.805 . S
Gd683 N678 2.622 . S
Gd683 N684 2.570 . S
Gd683 O715 2.386 . S
Gd683 O719 2.307 . S
Gd683 O722 2.353 . S
Gd683 O723 2.468 . S
Gd683 O724 2.427 . S
Gd683 O726 2.388 . S
Gd683 C747 2.805 . S
N684 C674 1.359 . S
N684 Gd683 2.570 . S
N684 C686 1.343 . S
C685 C673 1.422 . S
C685 C687 1.321 . S
C685 H693 0.931 . S
C686 N684 1.343 . S
C686 C687 1.390 . S
C686 H688 0.931 . S
C687 C685 1.321 . S
C687 C686 1.390 . S
C687 H689 0.930 . S
H688 C686 0.931 . S
H689 C687 0.930 . S
H690 C713 0.931 . S
H691 C679 0.929 . S
H692 C714 0.930 . S
H693 C685 0.931 . S
H694 C675 0.930 . S
H695 C704 0.929 . S
H696 C680 0.931 . S
H697 C681 0.930 . S
H698 C736 0.930 . S
H699 C677 0.929 . S
H700 C705 0.931 . S
H701 C706 0.930 . S
N702 Gd682 2.622 . S
N702 C703 1.369 . S
N702 C704 1.338 . S
C703 N702 1.369 . S
C703 C707 1.415 . S
C703 C710 1.422 . S
C704 H695 0.929 . S
C704 N702 1.338 . S
C704 C706 1.378 . S
C705 H700 0.931 . S
C705 C706 1.348 . S
C705 C707 1.413 . S
C706 H701 0.930 . S
C706 C704 1.378 . S
C706 C705 1.348 . S
C707 C703 1.415 . S
C707 C705 1.413 . S
C707 C737 1.437 . S
H708 C737 0.929 . S
N709 Gd682 2.570 . S
N709 C710 1.359 . S
N709 C713 1.343 . S
C710 C703 1.422 . S
C710 N709 1.359 . S
C710 C712 1.421 . S
C711 C712 1.422 . S
C711 C714 1.321 . S
C711 H738 0.931 . S
C712 C710 1.421 . S
C712 C711 1.422 . S
C712 C736 1.417 . S
C713 H690 0.931 . S
C713 N709 1.343 . S
C713 C714 1.390 . S
C714 H692 0.930 . S
C714 C711 1.321 . S
C714 C713 1.390 . S
O715 Gd683 2.386 . S
O715 C727 1.265 . S
O716 Gd682 2.353 . S
O716 C727 1.242 . S
O717 Gd682 2.468 . S
O717 C735 1.263 . S
O718 Gd682 2.427 . S
O718 C735 1.252 . S
O719 Gd683 2.307 . S
O719 C728 1.261 . S
O720 Gd682 2.388 . S
O720 C728 1.252 . S
O721 Gd682 2.386 . S
O721 C739 1.265 . S
O722 Gd683 2.353 . S
O722 C739 1.242 . S
O723 Gd683 2.468 . S
O723 C747 1.263 . S
O724 Gd683 2.427 . S
O724 C747 1.252 . S
O725 Gd682 2.307 . S
O725 C740 1.261 . S
O726 Gd683 2.388 . S
O726 C740 1.252 . S
C727 O715 1.265 . S
C727 O716 1.242 . S
C728 O719 1.261 . S
C728 O720 1.252 . S
C729 C732 1.394 . S
C729 C734 1.370 . S
C729 C735 1.500 . S
C730 C733 1.383 . S
C730 C734 1.395 . S
C731 C732 1.396 . S
C731 C733 1.365 . S
C731 H748 0.929 . S
C732 C729 1.394 . S
C732 C731 1.396 . S
C732 H749 0.930 . S
C733 C730 1.383 . S
C733 C731 1.365 . S
C733 H750 0.931 . S
C734 C729 1.370 . S
C734 C730 1.395 . S
C734 H751 0.930 . S
C735 Gd682 2.805 . S
C735 O717 1.263 . S
C735 O718 1.252 . S
C735 C729 1.500 . S
C736 H698 0.930 . S
C736 C712 1.417 . S
C736 C737 1.329 . S
C737 C707 1.437 . S
C737 H708 0.929 . S
C737 C736 1.329 . S
H738 C711 0.931 . S
C739 O721 1.265 . S
C739 O722 1.242 . S
C740 O725 1.261 . S
C740 O726 1.252 . S
C741 C744 1.394 . S
C741 C746 1.370 . S
C741 C747 1.500 . S
C742 C745 1.383 . S
C742 C746 1.395 . S
C743 C744 1.396 . S
C743 C745 1.365 . S
C743 H752 0.929 . S
C744 C741 1.394 . S
C744 C743 1.396 . S
C744 H753 0.930 . S
C745 C742 1.383 . S
C745 C743 1.365 . S
C745 H754 0.931 . S
C746 C741 1.370 . S
C746 C742 1.395 . S
C746 H755 0.930 . S
C747 Gd683 2.805 . S
C747 O723 1.263 . S
C747 O724 1.252 . S
C747 C741 1.500 . S
H748 C731 0.929 . S
H749 C732 0.930 . S
H750 C733 0.931 . S
H751 C734 0.930 . S
H752 C743 0.929 . S
H753 C744 0.930 . S
H754 C745 0.931 . S
H755 C746 0.930 . S
C756 C758 1.422 . S
C756 C760 1.415 . S
C756 N762 1.369 . S
C757 C758 1.421 . S
C757 C759 1.417 . S
C757 C769 1.422 1_655 S
C758 C756 1.422 . S
C758 C757 1.421 . S
C758 N768 1.359 1_655 S
C759 C757 1.417 . S
C759 C761 1.329 . S
C759 H778 0.930 . S
C760 C756 1.415 . S
C760 C761 1.437 . S
C760 C764 1.413 . S
C761 C759 1.329 . S
C761 C760 1.437 . S
C761 H783 0.929 . S
N762 C756 1.369 . S
N762 C763 1.338 . S
N762 Gd767 2.622 1_655 S
C763 N762 1.338 . S
C763 C765 1.378 . S
C763 H775 0.929 . S
C764 C760 1.413 . S
C764 C765 1.348 . S
C764 H780 0.931 . S
C765 C763 1.378 . S
C765 C764 1.348 . S
C765 H781 0.930 . S
Gd766 N786 2.622 1_655 S
Gd766 N793 2.570 . S
Gd766 O800 2.353 . S
Gd766 O801 2.468 . S
Gd766 O802 2.427 1_556 S
Gd766 O804 2.388 1_655 S
Gd766 O805 2.386 1_655 S
Gd766 O809 2.307 . S
Gd766 C819 2.805 1_556 S
Gd767 N762 2.622 1_455 S
Gd767 N768 2.570 . S
Gd767 O799 2.386 1_455 S
Gd767 O803 2.307 . S
Gd767 O806 2.353 . S
Gd767 O807 2.468 . S
Gd767 O808 2.427 . S
Gd767 O810 2.388 1_455 S
Gd767 C831 2.805 . S
N768 C758 1.359 1_455 S
N768 Gd767 2.570 . S
N768 C770 1.343 . S
C769 C757 1.422 1_455 S
C769 C771 1.321 . S
C769 H777 0.931 . S
C770 N768 1.343 . S
C770 C771 1.390 . S
C770 H772 0.931 . S
C771 C769 1.321 . S
C771 C770 1.390 . S
C771 H773 0.930 . S
H772 C770 0.931 . S
H773 C771 0.930 . S
H774 C797 0.931 . S
H775 C763 0.929 . S
H776 C798 0.930 . S
H777 C769 0.931 . S
H778 C759 0.930 . S
H779 C788 0.929 . S
H780 C764 0.931 . S
H781 C765 0.930 . S
H782 C820 0.930 . S
H783 C761 0.929 . S
H784 C789 0.930 1_554 S
H785 C790 0.930 . S
N786 Gd766 2.622 1_455 S
N786 C787 1.369 . S
N786 C788 1.338 1_556 S
C787 N786 1.369 . S
C787 C791 1.415 . S
C787 C794 1.422 . S
C788 H779 0.929 . S
C788 N786 1.338 1_554 S
C788 C790 1.378 . S
C789 H784 0.930 1_556 S
C789 C790 1.345 1_556 S
C789 C791 1.417 . S
C790 H785 0.930 . S
C790 C788 1.378 . S
C790 C789 1.345 1_554 S
C791 C787 1.415 . S
C791 C789 1.417 . S
C791 C821 1.437 . S
H792 C821 0.929 . S
N793 Gd766 2.570 . S
N793 C794 1.359 1_655 S
N793 C797 1.343 . S
C794 C787 1.422 . S
C794 N793 1.359 1_455 S
C794 C796 1.421 . S
C795 C796 1.422 1_655 S
C795 C798 1.321 . S
C795 H822 0.931 . S
C796 C794 1.421 . S
C796 C795 1.422 1_455 S
C796 C820 1.417 . S
C797 H774 0.931 . S
C797 N793 1.343 . S
C797 C798 1.390 . S
C798 H776 0.930 . S
C798 C795 1.321 . S
C798 C797 1.390 . S
O799 Gd767 2.386 1_655 S
O799 C811 1.265 . S
O800 Gd766 2.353 . S
O800 C811 1.242 . S
O801 Gd766 2.468 . S
O801 C819 1.263 1_556 S
O802 Gd766 2.427 1_554 S
O802 C819 1.252 . S
O803 Gd767 2.307 . S
O803 C812 1.261 . S
O804 Gd766 2.388 1_455 S
O804 C812 1.252 . S
O805 Gd766 2.386 1_455 S
O805 C823 1.265 . S
O806 Gd767 2.353 . S
O806 C823 1.242 . S
O807 Gd767 2.468 . S
O807 C831 1.263 . S
O808 Gd767 2.427 . S
O808 C831 1.252 . S
O809 Gd766 2.307 . S
O809 C824 1.261 . S
O810 Gd767 2.388 1_655 S
O810 C824 1.252 . S
C811 O799 1.265 . S
C811 O800 1.242 . S
C812 O803 1.261 . S
C812 O804 1.252 . S
C813 C816 1.394 . S
C813 C818 1.370 . S
C813 C819 1.500 . S
C814 C817 1.383 . S
C814 C818 1.395 . S
C815 C816 1.396 . S
C815 C817 1.365 . S
C815 H832 0.929 . S
C816 C813 1.394 . S
C816 C815 1.396 . S
C816 H833 0.930 . S
C817 C814 1.383 . S
C817 C815 1.365 . S
C817 H834 0.931 . S
C818 C813 1.370 . S
C818 C814 1.395 . S
C818 H835 0.930 . S
C819 Gd766 2.805 1_554 S
C819 O801 1.263 1_554 S
C819 O802 1.252 . S
C819 C813 1.500 . S
C820 H782 0.930 . S
C820 C796 1.417 . S
C820 C821 1.329 . S
C821 C791 1.437 . S
C821 H792 0.929 . S
C821 C820 1.329 . S
H822 C795 0.931 . S
C823 O805 1.265 . S
C823 O806 1.242 . S
C824 O809 1.261 . S
C824 O810 1.252 . S
C825 C828 1.394 . S
C825 C830 1.370 . S
C825 C831 1.500 . S
C826 C829 1.383 . S
C826 C830 1.395 . S
C827 C828 1.396 . S
C827 C829 1.365 . S
C827 H836 0.929 . S
C828 C825 1.394 . S
C828 C827 1.396 . S
C828 H837 0.930 . S
C829 C826 1.383 . S
C829 C827 1.365 . S
C829 H838 0.931 . S
C830 C825 1.370 . S
C830 C826 1.395 . S
C830 H839 0.930 . S
C831 Gd767 2.805 . S
C831 O807 1.263 . S
C831 O808 1.252 . S
C831 C825 1.500 . S
H832 C815 0.929 . S
H833 C816 0.930 . S
H834 C817 0.931 . S
H835 C818 0.930 . S
H836 C827 0.929 . S
H837 C828 0.930 . S
H838 C829 0.931 . S
H839 C830 0.930 . S
C840 C842 1.422 . S
C840 C844 1.415 . S
C840 N846 1.369 . S
C841 C842 1.421 . S
C841 C843 1.417 . S
C841 C853 1.422 1_565 S
C842 C840 1.422 . S
C842 C841 1.421 . S
C842 N852 1.359 1_565 S
C843 C841 1.417 . S
C843 C845 1.329 . S
C843 H862 0.930 . S
C844 C840 1.415 . S
C844 C845 1.437 . S
C844 C848 1.413 . S
C845 C843 1.329 . S
C845 C844 1.437 . S
C845 H867 0.929 . S
N846 C840 1.369 . S
N846 C847 1.338 . S
N846 Gd851 2.622 1_565 S
C847 N846 1.338 . S
C847 C849 1.378 . S
C847 H859 0.929 . S
C848 C844 1.413 . S
C848 C849 1.348 . S
C848 H864 0.931 . S
C849 C847 1.378 . S
C849 C848 1.348 . S
C849 H865 0.930 . S
Gd850 N870 2.622 1_565 S
Gd850 N877 2.570 . S
Gd850 O884 2.353 . S
Gd850 O885 2.468 . S
Gd850 O886 2.427 . S
Gd850 O888 2.388 1_565 S
Gd850 O889 2.386 1_565 S
Gd850 O893 2.307 . S
Gd850 C903 2.805 . S
Gd851 N846 2.622 1_545 S
Gd851 N852 2.570 . S
Gd851 O883 2.386 1_545 S
Gd851 O887 2.307 . S
Gd851 O890 2.353 . S
Gd851 O891 2.468 . S
Gd851 O892 2.427 . S
Gd851 O894 2.388 1_545 S
Gd851 C915 2.805 . S
N852 C842 1.359 1_545 S
N852 Gd851 2.570 . S
N852 C854 1.343 . S
C853 C841 1.422 1_545 S
C853 C855 1.321 . S
C853 H861 0.931 . S
C854 N852 1.343 . S
C854 C855 1.390 . S
C854 H856 0.931 . S
C855 C853 1.321 . S
C855 C854 1.390 . S
C855 H857 0.930 . S
H856 C854 0.931 . S
H857 C855 0.930 . S
H858 C881 0.931 . S
H859 C847 0.929 . S
H860 C882 0.930 . S
H861 C853 0.931 . S
H862 C843 0.930 . S
H863 C872 0.929 . S
H864 C848 0.931 . S
H865 C849 0.930 . S
H866 C904 0.930 . S
H867 C845 0.929 . S
H868 C873 0.931 . S
H869 C874 0.930 . S
N870 Gd850 2.622 1_545 S
N870 C871 1.369 . S
N870 C872 1.338 . S
C871 N870 1.369 . S
C871 C875 1.415 . S
C871 C878 1.422 . S
C872 H863 0.929 . S
C872 N870 1.338 . S
C872 C874 1.378 . S
C873 H868 0.931 . S
C873 C874 1.348 . S
C873 C875 1.413 . S
C874 H869 0.930 . S
C874 C872 1.378 . S
C874 C873 1.348 . S
C875 C871 1.415 . S
C875 C873 1.413 . S
C875 C905 1.437 . S
H876 C905 0.929 . S
N877 Gd850 2.570 . S
N877 C878 1.359 1_565 S
N877 C881 1.343 . S
C878 C871 1.422 . S
C878 N877 1.359 1_545 S
C878 C880 1.421 . S
C879 C880 1.422 1_565 S
C879 C882 1.321 . S
C879 H906 0.931 . S
C880 C878 1.421 . S
C880 C879 1.422 1_545 S
C880 C904 1.417 . S
C881 H858 0.931 . S
C881 N877 1.343 . S
C881 C882 1.390 . S
C882 H860 0.930 . S
C882 C879 1.321 . S
C882 C881 1.390 . S
O883 Gd851 2.386 1_565 S
O883 C895 1.265 . S
O884 Gd850 2.353 . S
O884 C895 1.242 . S
O885 Gd850 2.468 . S
O885 C903 1.263 . S
O886 Gd850 2.427 . S
O886 C903 1.252 . S
O887 Gd851 2.307 . S
O887 C896 1.261 . S
O888 Gd850 2.388 1_545 S
O888 C896 1.252 . S
O889 Gd850 2.386 1_545 S
O889 C907 1.265 . S
O890 Gd851 2.353 . S
O890 C907 1.242 . S
O891 Gd851 2.468 . S
O891 C915 1.263 . S
O892 Gd851 2.427 . S
O892 C915 1.252 . S
O893 Gd850 2.307 . S
O893 C908 1.261 . S
O894 Gd851 2.388 1_565 S
O894 C908 1.252 . S
C895 O883 1.265 . S
C895 O884 1.242 . S
C896 O887 1.261 . S
C896 O888 1.252 . S
C897 C900 1.394 . S
C897 C902 1.370 . S
C897 C903 1.500 . S
C898 C901 1.383 . S
C898 C902 1.395 . S
C899 C900 1.396 . S
C899 C901 1.365 . S
C899 H916 0.929 . S
C900 C897 1.394 . S
C900 C899 1.396 . S
C900 H917 0.930 . S
C901 C898 1.383 . S
C901 C899 1.365 . S
C901 H918 0.931 . S
C902 C897 1.370 . S
C902 C898 1.395 . S
C902 H919 0.930 . S
C903 Gd850 2.805 . S
C903 O885 1.263 . S
C903 O886 1.252 . S
C903 C897 1.500 . S
C904 H866 0.930 . S
C904 C880 1.417 . S
C904 C905 1.329 . S
C905 C875 1.437 . S
C905 H876 0.929 . S
C905 C904 1.329 . S
H906 C879 0.931 . S
C907 O889 1.265 . S
C907 O890 1.242 . S
C908 O893 1.261 . S
C908 O894 1.252 . S
C909 C912 1.394 . S
C909 C914 1.370 . S
C909 C915 1.500 . S
C910 C913 1.383 . S
C910 C914 1.395 . S
C911 C912 1.396 . S
C911 C913 1.365 . S
C911 H920 0.929 . S
C912 C909 1.394 . S
C912 C911 1.396 . S
C912 H921 0.930 . S
C913 C910 1.383 . S
C913 C911 1.365 . S
C913 H922 0.931 . S
C914 C909 1.370 . S
C914 C910 1.395 . S
C914 H923 0.930 . S
C915 Gd851 2.805 . S
C915 O891 1.263 . S
C915 O892 1.252 . S
C915 C909 1.500 . S
H916 C899 0.929 . S
H917 C900 0.930 . S
H918 C901 0.931 . S
H919 C902 0.930 . S
H920 C911 0.929 . S
H921 C912 0.930 . S
H922 C913 0.931 . S
H923 C914 0.930 . S
C924 C926 1.422 . S
C924 C928 1.415 . S
C924 N930 1.369 . S
C925 C926 1.421 . S
C925 C927 1.417 . S
C925 C937 1.422 . S
C926 C924 1.422 . S
C926 C925 1.421 . S
C926 N936 1.359 . S
C927 C925 1.417 . S
C927 C929 1.329 . S
C927 H946 0.930 . S
C928 C924 1.415 . S
C928 C929 1.437 . S
C928 C932 1.413 . S
C929 C927 1.329 . S
C929 C928 1.437 . S
C929 H951 0.929 . S
N930 C924 1.369 . S
N930 C931 1.338 . S
N930 Gd935 2.622 . S
C931 N930 1.338 . S
C931 C933 1.378 . S
C931 H943 0.929 . S
C932 C928 1.413 . S
C932 C933 1.348 . S
C932 H948 0.931 . S
C933 C931 1.378 . S
C933 C932 1.348 . S
C933 H949 0.930 . S
Gd934 N954 2.622 . S
Gd934 N961 2.570 . S
Gd934 O968 2.353 . S
Gd934 O969 2.468 . S
Gd934 O970 2.427 . S
Gd934 O972 2.388 . S
Gd934 O973 2.386 . S
Gd934 O977 2.307 . S
Gd934 C987 2.805 . S
Gd935 N930 2.622 . S
Gd935 N936 2.570 . S
Gd935 O967 2.386 . S
Gd935 O971 2.307 . S
Gd935 O974 2.353 . S
Gd935 O975 2.468 . S
Gd935 O976 2.427 . S
Gd935 O978 2.388 . S
Gd935 C999 2.805 . S
N936 C926 1.359 . S
N936 Gd935 2.570 . S
N936 C938 1.343 . S
C937 C925 1.422 . S
C937 C939 1.321 . S
C937 H945 0.931 . S
C938 N936 1.343 . S
C938 C939 1.390 . S
C938 H940 0.931 . S
C939 C937 1.321 . S
C939 C938 1.390 . S
C939 H941 0.930 . S
H940 C938 0.931 . S
H941 C939 0.930 . S
H942 C965 0.931 . S
H943 C931 0.929 . S
H944 C966 0.930 . S
H945 C937 0.931 . S
H946 C927 0.930 . S
H947 C956 0.929 . S
H948 C932 0.931 . S
H949 C933 0.930 . S
H950 C988 0.930 . S
H951 C929 0.929 . S
H952 C957 0.931 . S
H953 C958 0.930 . S
N954 Gd934 2.622 . S
N954 C955 1.369 . S
N954 C956 1.338 . S
C955 N954 1.369 . S
C955 C959 1.415 . S
C955 C962 1.422 . S
C956 H947 0.929 . S
C956 N954 1.338 . S
C956 C958 1.378 . S
C957 H952 0.931 . S
C957 C958 1.348 . S
C957 C959 1.413 . S
C958 H953 0.930 . S
C958 C956 1.378 . S
C958 C957 1.348 . S
C959 C955 1.415 . S
C959 C957 1.413 . S
C959 C989 1.437 . S
H960 C989 0.929 . S
N961 Gd934 2.570 . S
N961 C962 1.359 . S
N961 C965 1.343 . S
C962 C955 1.422 . S
C962 N961 1.359 . S
C962 C964 1.421 . S
C963 C964 1.422 . S
C963 C966 1.321 . S
C963 H990 0.931 . S
C964 C962 1.421 . S
C964 C963 1.422 . S
C964 C988 1.417 . S
C965 H942 0.931 . S
C965 N961 1.343 . S
C965 C966 1.390 . S
C966 H944 0.930 . S
C966 C963 1.321 . S
C966 C965 1.390 . S
O967 Gd935 2.386 . S
O967 C979 1.265 . S
O968 Gd934 2.353 . S
O968 C979 1.242 . S
O969 Gd934 2.468 . S
O969 C987 1.263 . S
O970 Gd934 2.427 . S
O970 C987 1.252 . S
O971 Gd935 2.307 . S
O971 C980 1.261 . S
O972 Gd934 2.388 . S
O972 C980 1.252 . S
O973 Gd934 2.386 . S
O973 C991 1.265 . S
O974 Gd935 2.353 . S
O974 C991 1.242 . S
O975 Gd935 2.468 . S
O975 C999 1.263 . S
O976 Gd935 2.427 . S
O976 C999 1.252 . S
O977 Gd934 2.307 . S
O977 C992 1.261 . S
O978 Gd935 2.388 . S
O978 C992 1.252 . S
C979 O967 1.265 . S
C979 O968 1.242 . S
C980 O971 1.261 . S
C980 O972 1.252 . S
C981 C984 1.394 . S
C981 C986 1.370 . S
C981 C987 1.500 . S
C982 C985 1.383 . S
C982 C986 1.395 . S
C983 C984 1.396 . S
C983 C985 1.365 . S
C983 H1000 0.929 . S
C984 C981 1.394 . S
C984 C983 1.396 . S
C984 H1001 0.930 . S
C985 C982 1.383 . S
C985 C983 1.365 . S
C985 H1002 0.931 . S
C986 C981 1.370 . S
C986 C982 1.395 . S
C986 H1003 0.930 . S
C987 Gd934 2.805 . S
C987 O969 1.263 . S
C987 O970 1.252 . S
C987 C981 1.500 . S
C988 H950 0.930 . S
C988 C964 1.417 . S
C988 C989 1.329 . S
C989 C959 1.437 . S
C989 H960 0.929 . S
C989 C988 1.329 . S
H990 C963 0.931 . S
C991 O973 1.265 . S
C991 O974 1.242 . S
C992 O977 1.261 . S
C992 O978 1.252 . S
C993 C996 1.394 . S
C993 C998 1.370 . S
C993 C999 1.500 . S
C994 C997 1.383 . S
C994 C998 1.395 . S
C995 C996 1.396 . S
C995 C997 1.365 . S
C995 H1004 0.929 . S
C996 C993 1.394 . S
C996 C995 1.396 . S
C996 H1005 0.930 . S
C997 C994 1.383 . S
C997 C995 1.365 . S
C997 H1006 0.931 . S
C998 C993 1.370 . S
C998 C994 1.395 . S
C998 H1007 0.930 . S
C999 Gd935 2.805 . S
C999 O975 1.263 . S
C999 O976 1.252 . S
C999 C993 1.500 . S
H1000 C983 0.929 . S
H1001 C984 0.930 . S
H1002 C985 0.931 . S
H1003 C986 0.930 . S
H1004 C995 0.929 . S
H1005 C996 0.930 . S
H1006 C997 0.931 . S
H1007 C998 0.930 . S
H1008 C1014 0.930 . S
H1009 C1018 0.930 . S
H1010 C1023 0.929 . S
H1011 C1021 0.929 . S
H1012 C1016 0.929 . S
H1013 C1022 0.929 . S
C1014 H1008 0.930 . S
C1014 C1015 1.367 . S
C1014 C1022 1.378 . S
C1015 C1014 1.367 . S
C1015 C1023 1.433 . S
C1016 H1012 0.929 . S
C1016 C1018 1.378 . S
C1016 C1020 1.350 . S
C1017 C1020 1.463 . S
C1017 C1022 1.350 . S
C1017 N1025 1.427 . S
C1018 H1009 0.930 . S
C1018 C1016 1.378 . S
C1018 C1019 1.367 . S
C1019 C1018 1.367 . S
C1019 C1021 1.433 . S
C1020 C1016 1.350 . S
C1020 C1017 1.463 . S
C1020 N1024 1.427 . S
C1021 H1011 0.929 . S
C1021 C1019 1.433 . S
C1021 N1024 1.384 . S
C1022 H1013 0.929 . S
C1022 C1014 1.378 . S
C1022 C1017 1.350 . S
C1023 H1010 0.929 . S
C1023 C1015 1.433 . S
C1023 N1025 1.384 . S
N1024 C1020 1.427 . S
N1024 C1021 1.384 . S
N1025 C1017 1.427 . S
N1025 C1023 1.384 . S
H1026 C1032 0.930 . S
H1027 C1036 0.930 . S
H1028 C1041 0.929 . S
H1029 C1039 0.929 . S
H1030 C1034 0.929 . S
H1031 C1040 0.929 . S
C1032 H1026 0.930 . S
C1032 C1033 1.367 . S
C1032 C1040 1.378 . S
C1033 C1032 1.367 . S
C1033 C1041 1.433 . S
C1034 H1030 0.929 . S
C1034 C1036 1.378 . S
C1034 C1038 1.350 . S
C1035 C1038 1.463 . S
C1035 C1040 1.350 . S
C1035 N1043 1.427 . S
C1036 H1027 0.930 . S
C1036 C1034 1.378 . S
C1036 C1037 1.367 . S
C1037 C1036 1.367 . S
C1037 C1039 1.433 . S
C1038 C1034 1.350 . S
C1038 C1035 1.463 . S
C1038 N1042 1.427 . S
C1039 H1029 0.929 . S
C1039 C1037 1.433 . S
C1039 N1042 1.384 . S
C1040 H1031 0.929 . S
C1040 C1032 1.378 . S
C1040 C1035 1.350 . S
C1041 H1028 0.929 . S
C1041 C1033 1.433 . S
C1041 N1043 1.384 . S
N1042 C1038 1.427 . S
N1042 C1039 1.384 . S
N1043 C1035 1.427 . S
N1043 C1041 1.384 . S
H1044 C1050 0.930 . S
H1045 C1054 0.930 . S
H1046 C1059 0.929 . S
H1047 C1057 0.929 . S
H1048 C1052 0.929 . S
H1049 C1058 0.929 . S
C1050 H1044 0.930 . S
C1050 C1051 1.367 . S
C1050 C1058 1.378 . S
C1051 C1050 1.367 . S
C1051 C1059 1.433 . S
C1052 H1048 0.929 . S
C1052 C1054 1.378 . S
C1052 C1056 1.350 . S
C1053 C1056 1.463 . S
C1053 C1058 1.350 . S
C1053 N1061 1.427 . S
C1054 H1045 0.930 . S
C1054 C1052 1.378 . S
C1054 C1055 1.367 . S
C1055 C1054 1.367 . S
C1055 C1057 1.433 . S
C1056 C1052 1.350 . S
C1056 C1053 1.463 . S
C1056 N1060 1.427 . S
C1057 H1047 0.929 . S
C1057 C1055 1.433 . S
C1057 N1060 1.384 . S
C1058 H1049 0.929 . S
C1058 C1050 1.378 . S
C1058 C1053 1.350 . S
C1059 H1046 0.929 . S
C1059 C1051 1.433 . S
C1059 N1061 1.384 . S
N1060 C1056 1.427 . S
N1060 C1057 1.384 . S
N1061 C1053 1.427 . S
N1061 C1059 1.384 . S
H1062 C1068 0.930 . S
H1063 C1072 0.930 . S
H1064 C1077 0.929 . S
H1065 C1075 0.929 . S
H1066 C1070 0.929 . S
H1067 C1076 0.929 . S
C1068 H1062 0.930 . S
C1068 C1069 1.367 . S
C1068 C1076 1.378 . S
C1069 C1068 1.367 . S
C1069 C1077 1.433 . S
C1070 H1066 0.929 . S
C1070 C1072 1.378 . S
C1070 C1074 1.350 . S
C1071 C1074 1.463 . S
C1071 C1076 1.350 . S
C1071 N1079 1.427 . S
C1072 H1063 0.930 . S
C1072 C1070 1.378 . S
C1072 C1073 1.367 . S
C1073 C1072 1.367 . S
C1073 C1075 1.433 . S
C1074 C1070 1.350 . S
C1074 C1071 1.463 . S
C1074 N1078 1.427 . S
C1075 H1065 0.929 . S
C1075 C1073 1.433 . S
C1075 N1078 1.384 . S
C1076 H1067 0.929 . S
C1076 C1068 1.378 . S
C1076 C1071 1.350 . S
C1077 H1064 0.929 . S
C1077 C1069 1.433 . S
C1077 N1079 1.384 . S
N1078 C1074 1.427 . S
N1078 C1075 1.384 . S
N1079 C1071 1.427 . S
N1079 C1077 1.384 . S
H1080 C1086 0.930 . S
H1081 C1090 0.930 . S
H1082 C1095 0.929 . S
H1083 C1093 0.929 . S
H1084 C1088 0.929 . S
H1085 C1094 0.929 . S
C1086 H1080 0.930 . S
C1086 C1087 1.367 . S
C1086 C1094 1.378 . S
C1087 C1086 1.367 . S
C1087 C1095 1.433 . S
C1088 H1084 0.929 . S
C1088 C1090 1.378 . S
C1088 C1092 1.350 . S
C1089 C1092 1.463 . S
C1089 C1094 1.350 . S
C1089 N1097 1.427 . S
C1090 H1081 0.930 . S
C1090 C1088 1.378 . S
C1090 C1091 1.367 . S
C1091 C1090 1.367 . S
C1091 C1093 1.433 . S
C1092 C1088 1.350 . S
C1092 C1089 1.463 . S
C1092 N1096 1.427 . S
C1093 H1083 0.929 . S
C1093 C1091 1.433 . S
C1093 N1096 1.384 . S
C1094 H1085 0.929 . S
C1094 C1086 1.378 . S
C1094 C1089 1.350 . S
C1095 H1082 0.929 . S
C1095 C1087 1.433 . S
C1095 N1097 1.384 . S
N1096 C1092 1.427 . S
N1096 C1093 1.384 . S
N1097 C1089 1.427 . S
N1097 C1095 1.384 . S
H1098 C1104 0.930 . S
H1099 C1108 0.930 . S
H1100 C1113 0.929 . S
H1101 C1111 0.929 . S
H1102 C1106 0.929 . S
H1103 C1112 0.929 . S
C1104 H1098 0.930 . S
C1104 C1105 1.367 . S
C1104 C1112 1.378 . S
C1105 C1104 1.367 . S
C1105 C1113 1.433 . S
C1106 H1102 0.929 . S
C1106 C1108 1.378 . S
C1106 C1110 1.350 . S
C1107 C1110 1.463 . S
C1107 C1112 1.350 . S
C1107 N1115 1.427 . S
C1108 H1099 0.930 . S
C1108 C1106 1.378 . S
C1108 C1109 1.367 . S
C1109 C1108 1.367 . S
C1109 C1111 1.433 . S
C1110 C1106 1.350 . S
C1110 C1107 1.463 . S
C1110 N1114 1.427 . S
C1111 H1101 0.929 . S
C1111 C1109 1.433 . S
C1111 N1114 1.384 . S
C1112 H1103 0.929 . S
C1112 C1104 1.378 . S
C1112 C1107 1.350 . S
C1113 H1100 0.929 . S
C1113 C1105 1.433 . S
C1113 N1115 1.384 . S
N1114 C1110 1.427 . S
N1114 C1111 1.384 . S
N1115 C1107 1.427 . S
N1115 C1113 1.384 . S
H1116 C1122 0.930 . S
H1117 C1126 0.930 . S
H1118 C1131 0.929 . S
H1119 C1129 0.929 . S
H1120 C1124 0.929 . S
H1121 C1130 0.929 . S
C1122 H1116 0.930 . S
C1122 C1123 1.367 . S
C1122 C1130 1.378 . S
C1123 C1122 1.367 . S
C1123 C1131 1.433 . S
C1124 H1120 0.929 . S
C1124 C1126 1.378 . S
C1124 C1128 1.350 . S
C1125 C1128 1.463 . S
C1125 C1130 1.350 . S
C1125 N1133 1.427 . S
C1126 H1117 0.930 . S
C1126 C1124 1.378 . S
C1126 C1127 1.367 . S
C1127 C1126 1.367 . S
C1127 C1129 1.433 . S
C1128 C1124 1.350 . S
C1128 C1125 1.463 . S
C1128 N1132 1.427 . S
C1129 H1119 0.929 . S
C1129 C1127 1.433 . S
C1129 N1132 1.384 . S
C1130 H1121 0.929 . S
C1130 C1122 1.378 . S
C1130 C1125 1.350 . S
C1131 H1118 0.929 . S
C1131 C1123 1.433 . S
C1131 N1133 1.384 . S
N1132 C1128 1.427 . S
N1132 C1129 1.384 . S
N1133 C1125 1.427 . S
N1133 C1131 1.384 . S
H1134 C1140 0.930 . S
H1135 C1144 0.930 . S
H1136 C1149 0.929 . S
H1137 C1147 0.929 . S
H1138 C1142 0.929 . S
H1139 C1148 0.929 . S
C1140 H1134 0.930 . S
C1140 C1141 1.367 . S
C1140 C1148 1.378 . S
C1141 C1140 1.367 . S
C1141 C1149 1.433 . S
C1142 H1138 0.929 . S
C1142 C1144 1.378 . S
C1142 C1146 1.350 . S
C1143 C1146 1.463 . S
C1143 C1148 1.350 . S
C1143 N1151 1.427 . S
C1144 H1135 0.930 . S
C1144 C1142 1.378 . S
C1144 C1145 1.367 . S
C1145 C1144 1.367 . S
C1145 C1147 1.433 . S
C1146 C1142 1.350 . S
C1146 C1143 1.463 . S
C1146 N1150 1.427 . S
C1147 H1137 0.929 . S
C1147 C1145 1.433 . S
C1147 N1150 1.384 . S
C1148 H1139 0.929 . S
C1148 C1140 1.378 . S
C1148 C1143 1.350 . S
C1149 H1136 0.929 . S
C1149 C1141 1.433 . S
C1149 N1151 1.384 . S
N1150 C1146 1.427 . S
N1150 C1147 1.384 . S
N1151 C1143 1.427 . S
N1151 C1149 1.384 . S
H1152 C1158 0.930 . S
H1153 C1162 0.930 . S
H1154 C1167 0.929 . S
H1155 C1165 0.929 . S
H1156 C1160 0.929 . S
H1157 C1166 0.929 . S
C1158 H1152 0.930 . S
C1158 C1159 1.367 . S
C1158 C1166 1.378 . S
C1159 C1158 1.367 . S
C1159 C1167 1.433 . S
C1160 H1156 0.929 . S
C1160 C1162 1.378 . S
C1160 C1164 1.350 . S
C1161 C1164 1.463 . S
C1161 C1166 1.350 . S
C1161 N1169 1.427 . S
C1162 H1153 0.930 . S
C1162 C1160 1.378 . S
C1162 C1163 1.367 . S
C1163 C1162 1.367 . S
C1163 C1165 1.433 . S
C1164 C1160 1.350 . S
C1164 C1161 1.463 . S
C1164 N1168 1.427 . S
C1165 H1155 0.929 . S
C1165 C1163 1.433 . S
C1165 N1168 1.384 . S
C1166 H1157 0.929 . S
C1166 C1158 1.378 . S
C1166 C1161 1.350 . S
C1167 H1154 0.929 . S
C1167 C1159 1.433 . S
C1167 N1169 1.384 . S
N1168 C1164 1.427 . S
N1168 C1165 1.384 . S
N1169 C1161 1.427 . S
N1169 C1167 1.384 . S
H1170 C1176 0.930 . S
H1171 C1180 0.930 . S
H1172 C1185 0.929 . S
H1173 C1183 0.929 . S
H1174 C1178 0.929 . S
H1175 C1184 0.929 . S
C1176 H1170 0.930 . S
C1176 C1177 1.367 . S
C1176 C1184 1.378 . S
C1177 C1176 1.367 . S
C1177 C1185 1.433 . S
C1178 H1174 0.929 . S
C1178 C1180 1.378 . S
C1178 C1182 1.350 . S
C1179 C1182 1.463 . S
C1179 C1184 1.350 . S
C1179 N1187 1.427 . S
C1180 H1171 0.930 . S
C1180 C1178 1.378 . S
C1180 C1181 1.367 . S
C1181 C1180 1.367 . S
C1181 C1183 1.433 . S
C1182 C1178 1.350 . S
C1182 C1179 1.463 . S
C1182 N1186 1.427 . S
C1183 H1173 0.929 . S
C1183 C1181 1.433 . S
C1183 N1186 1.384 . S
C1184 H1175 0.929 . S
C1184 C1176 1.378 . S
C1184 C1179 1.350 . S
C1185 H1172 0.929 . S
C1185 C1177 1.433 . S
C1185 N1187 1.384 . S
N1186 C1182 1.427 . S
N1186 C1183 1.384 . S
N1187 C1179 1.427 . S
N1187 C1185 1.384 . S
H1188 C1194 0.930 . S
H1189 C1198 0.930 . S
H1190 C1203 0.929 . S
H1191 C1201 0.929 . S
H1192 C1196 0.929 . S
H1193 C1202 0.929 . S
C1194 H1188 0.930 . S
C1194 C1195 1.367 . S
C1194 C1202 1.378 . S
C1195 C1194 1.367 . S
C1195 C1203 1.433 . S
C1196 H1192 0.929 . S
C1196 C1198 1.378 . S
C1196 C1200 1.350 . S
C1197 C1200 1.463 . S
C1197 C1202 1.350 . S
C1197 N1205 1.427 . S
C1198 H1189 0.930 . S
C1198 C1196 1.378 . S
C1198 C1199 1.367 . S
C1199 C1198 1.367 . S
C1199 C1201 1.433 . S
C1200 C1196 1.350 . S
C1200 C1197 1.463 . S
C1200 N1204 1.427 . S
C1201 H1191 0.929 . S
C1201 C1199 1.433 . S
C1201 N1204 1.384 . S
C1202 H1193 0.929 . S
C1202 C1194 1.378 . S
C1202 C1197 1.350 . S
C1203 H1190 0.929 . S
C1203 C1195 1.433 . S
C1203 N1205 1.384 . S
N1204 C1200 1.427 . S
N1204 C1201 1.384 . S
N1205 C1197 1.427 . S
N1205 C1203 1.384 . S
H1206 C1212 0.930 . S
H1207 C1216 0.930 . S
H1208 C1221 0.929 . S
H1209 C1219 0.929 . S
H1210 C1214 0.929 . S
H1211 C1220 0.929 . S
C1212 H1206 0.930 . S
C1212 C1213 1.367 . S
C1212 C1220 1.378 . S
C1213 C1212 1.367 . S
C1213 C1221 1.433 . S
C1214 H1210 0.929 . S
C1214 C1216 1.378 . S
C1214 C1218 1.350 . S
C1215 C1218 1.463 . S
C1215 C1220 1.350 . S
C1215 N1223 1.427 . S
C1216 H1207 0.930 . S
C1216 C1214 1.378 . S
C1216 C1217 1.367 . S
C1217 C1216 1.367 . S
C1217 C1219 1.433 . S
C1218 C1214 1.350 . S
C1218 C1215 1.463 . S
C1218 N1222 1.427 . S
C1219 H1209 0.929 . S
C1219 C1217 1.433 . S
C1219 N1222 1.384 . S
C1220 H1211 0.929 . S
C1220 C1212 1.378 . S
C1220 C1215 1.350 . S
C1221 H1208 0.929 . S
C1221 C1213 1.433 . S
C1221 N1223 1.384 . S
N1222 C1218 1.427 . S
N1222 C1219 1.384 . S
N1223 C1215 1.427 . S
N1223 C1221 1.384 . S
H1224 C1230 0.930 . S
H1225 C1234 0.930 . S
H1226 C1239 0.929 . S
H1227 C1237 0.929 . S
H1228 C1232 0.929 . S
H1229 C1238 0.929 . S
C1230 H1224 0.930 . S
C1230 C1231 1.367 . S
C1230 C1238 1.378 . S
C1231 C1230 1.367 . S
C1231 C1239 1.433 . S
C1232 H1228 0.929 . S
C1232 C1234 1.378 . S
C1232 C1236 1.350 . S
C1233 C1236 1.463 . S
C1233 C1238 1.350 . S
C1233 N1241 1.427 . S
C1234 H1225 0.930 . S
C1234 C1232 1.378 . S
C1234 C1235 1.367 . S
C1235 C1234 1.367 . S
C1235 C1237 1.433 . S
C1236 C1232 1.350 . S
C1236 C1233 1.463 . S
C1236 N1240 1.427 . S
C1237 H1227 0.929 . S
C1237 C1235 1.433 . S
C1237 N1240 1.384 . S
C1238 H1229 0.929 . S
C1238 C1230 1.378 . S
C1238 C1233 1.350 . S
C1239 H1226 0.929 . S
C1239 C1231 1.433 . S
C1239 N1241 1.384 . S
N1240 C1236 1.427 . S
N1240 C1237 1.384 . S
N1241 C1233 1.427 . S
N1241 C1239 1.384 . S
H1242 C1248 0.930 . S
H1243 C1252 0.930 . S
H1244 C1257 0.929 . S
H1245 C1255 0.929 . S
H1246 C1250 0.929 . S
H1247 C1256 0.929 . S
C1248 H1242 0.930 . S
C1248 C1249 1.367 . S
C1248 C1256 1.378 . S
C1249 C1248 1.367 . S
C1249 C1257 1.433 . S
C1250 H1246 0.929 . S
C1250 C1252 1.378 . S
C1250 C1254 1.350 . S
C1251 C1254 1.463 . S
C1251 C1256 1.350 . S
C1251 N1259 1.427 . S
C1252 H1243 0.930 . S
C1252 C1250 1.378 . S
C1252 C1253 1.367 . S
C1253 C1252 1.367 . S
C1253 C1255 1.433 . S
C1254 C1250 1.350 . S
C1254 C1251 1.463 . S
C1254 N1258 1.427 . S
C1255 H1245 0.929 . S
C1255 C1253 1.433 . S
C1255 N1258 1.384 . S
C1256 H1247 0.929 . S
C1256 C1248 1.378 . S
C1256 C1251 1.350 . S
C1257 H1244 0.929 . S
C1257 C1249 1.433 . S
C1257 N1259 1.384 . S
N1258 C1254 1.427 . S
N1258 C1255 1.384 . S
N1259 C1251 1.427 . S
N1259 C1257 1.384 . S
H1260 C1266 0.930 . S
H1261 C1270 0.930 . S
H1262 C1275 0.929 . S
H1263 C1273 0.929 . S
H1264 C1268 0.929 . S
H1265 C1274 0.929 . S
C1266 H1260 0.930 . S
C1266 C1267 1.367 . S
C1266 C1274 1.378 . S
C1267 C1266 1.367 . S
C1267 C1275 1.433 . S
C1268 H1264 0.929 . S
C1268 C1270 1.378 . S
C1268 C1272 1.350 . S
C1269 C1272 1.463 . S
C1269 C1274 1.350 . S
C1269 N1277 1.427 . S
C1270 H1261 0.930 . S
C1270 C1268 1.378 . S
C1270 C1271 1.367 . S
C1271 C1270 1.367 . S
C1271 C1273 1.433 . S
C1272 C1268 1.350 . S
C1272 C1269 1.463 . S
C1272 N1276 1.427 . S
C1273 H1263 0.929 . S
C1273 C1271 1.433 . S
C1273 N1276 1.384 . S
C1274 H1265 0.929 . S
C1274 C1266 1.378 . S
C1274 C1269 1.350 . S
C1275 H1262 0.929 . S
C1275 C1267 1.433 . S
C1275 N1277 1.384 . S
N1276 C1272 1.427 . S
N1276 C1273 1.384 . S
N1277 C1269 1.427 . S
N1277 C1275 1.384 . S
H1278 C1284 0.930 . S
H1279 C1288 0.930 . S
H1280 C1293 0.929 . S
H1281 C1291 0.929 . S
H1282 C1286 0.929 . S
H1283 C1292 0.929 . S
C1284 H1278 0.930 . S
C1284 C1285 1.367 . S
C1284 C1292 1.378 . S
C1285 C1284 1.367 . S
C1285 C1293 1.433 . S
C1286 H1282 0.929 . S
C1286 C1288 1.378 . S
C1286 C1290 1.350 . S
C1287 C1290 1.463 . S
C1287 C1292 1.350 . S
C1287 N1295 1.427 . S
C1288 H1279 0.930 . S
C1288 C1286 1.378 . S
C1288 C1289 1.367 . S
C1289 C1288 1.367 . S
C1289 C1291 1.433 . S
C1290 C1286 1.350 . S
C1290 C1287 1.463 . S
C1290 N1294 1.427 . S
C1291 H1281 0.929 . S
C1291 C1289 1.433 . S
C1291 N1294 1.384 . S
C1292 H1283 0.929 . S
C1292 C1284 1.378 . S
C1292 C1287 1.350 . S
C1293 H1280 0.929 . S
C1293 C1285 1.433 . S
C1293 N1295 1.384 . S
N1294 C1290 1.427 . S
N1294 C1291 1.384 . S
N1295 C1287 1.427 . S
N1295 C1293 1.384 . S
H1296 C1302 0.930 . S
H1297 C1306 0.930 . S
H1298 C1311 0.929 . S
H1299 C1309 0.929 . S
H1300 C1304 0.929 . S
H1301 C1310 0.929 . S
C1302 H1296 0.930 . S
C1302 C1303 1.367 1_554 S
C1302 C1310 1.378 . S
C1303 C1302 1.367 1_556 S
C1303 C1311 1.433 . S
C1304 H1300 0.929 . S
C1304 C1306 1.378 . S
C1304 C1308 1.410 . S
C1305 C1308 1.474 . S
C1305 C1310 1.350 1_556 S
C1305 N1313 1.427 . S
C1306 H1297 0.930 . S
C1306 C1304 1.378 . S
C1306 C1307 1.367 1_556 S
C1307 C1306 1.367 1_554 S
C1307 C1309 1.433 . S
C1308 C1304 1.410 . S
C1308 C1305 1.474 . S
C1308 N1312 1.354 1_556 S
C1309 H1299 0.929 . S
C1309 C1307 1.433 . S
C1309 N1312 1.384 . S
C1310 H1301 0.929 . S
C1310 C1302 1.378 . S
C1310 C1305 1.350 1_554 S
C1311 H1298 0.929 . S
C1311 C1303 1.433 . S
C1311 N1313 1.384 . S
N1312 C1308 1.354 1_554 S
N1312 C1309 1.384 . S
N1313 C1305 1.427 . S
N1313 C1311 1.384 . S
H1314 C1320 0.930 . S
H1315 C1324 0.930 . S
H1316 C1329 0.929 . S
H1317 C1327 0.929 . S
H1318 C1322 0.929 . S
H1319 C1328 0.929 . S
C1320 H1314 0.930 . S
C1320 C1321 1.367 . S
C1320 C1328 1.378 . S
C1321 C1320 1.367 . S
C1321 C1329 1.433 . S
C1322 H1318 0.929 . S
C1322 C1324 1.378 . S
C1322 C1326 1.350 . S
C1323 C1326 1.463 . S
C1323 C1328 1.350 . S
C1323 N1331 1.427 . S
C1324 H1315 0.930 . S
C1324 C1322 1.378 . S
C1324 C1325 1.367 . S
C1325 C1324 1.367 . S
C1325 C1327 1.433 . S
C1326 C1322 1.350 . S
C1326 C1323 1.463 . S
C1326 N1330 1.427 . S
C1327 H1317 0.929 . S
C1327 C1325 1.433 . S
C1327 N1330 1.384 . S
C1328 H1319 0.929 . S
C1328 C1320 1.378 . S
C1328 C1323 1.350 . S
C1329 H1316 0.929 . S
C1329 C1321 1.433 . S
C1329 N1331 1.384 . S
N1330 C1326 1.427 . S
N1330 C1327 1.384 . S
N1331 C1323 1.427 . S
N1331 C1329 1.384 . S
H1332 C1338 0.930 . S
H1333 C1342 0.930 . S
H1334 C1347 0.929 . S
H1335 C1345 0.929 . S
H1336 C1340 0.929 . S
H1337 C1346 0.929 . S
C1338 H1332 0.930 . S
C1338 C1339 1.367 . S
C1338 C1346 1.378 . S
C1339 C1338 1.367 . S
C1339 C1347 1.433 . S
C1340 H1336 0.929 . S
C1340 C1342 1.378 . S
C1340 C1344 1.350 . S
C1341 C1344 1.463 . S
C1341 C1346 1.350 . S
C1341 N1349 1.427 . S
C1342 H1333 0.930 . S
C1342 C1340 1.378 . S
C1342 C1343 1.367 . S
C1343 C1342 1.367 . S
C1343 C1345 1.433 . S
C1344 C1340 1.350 . S
C1344 C1341 1.463 . S
C1344 N1348 1.427 . S
C1345 H1335 0.929 . S
C1345 C1343 1.433 . S
C1345 N1348 1.384 . S
C1346 H1337 0.929 . S
C1346 C1338 1.378 . S
C1346 C1341 1.350 . S
C1347 H1334 0.929 . S
C1347 C1339 1.433 . S
C1347 N1349 1.384 . S
N1348 C1344 1.427 . S
N1348 C1345 1.384 . S
N1349 C1341 1.427 . S
N1349 C1347 1.384 . S
H1350 C1356 0.930 . S
H1351 C1360 0.930 . S
H1352 C1365 0.929 . S
H1353 C1363 0.929 . S
H1354 C1358 0.929 . S
H1355 C1364 0.929 . S
C1356 H1350 0.930 . S
C1356 C1357 1.367 . S
C1356 C1364 1.378 . S
C1357 C1356 1.367 . S
C1357 C1365 1.433 . S
C1358 H1354 0.929 . S
C1358 C1360 1.378 . S
C1358 C1362 1.350 . S
C1359 C1362 1.463 . S
C1359 C1364 1.350 . S
C1359 N1367 1.427 . S
C1360 H1351 0.930 . S
C1360 C1358 1.378 . S
C1360 C1361 1.367 . S
C1361 C1360 1.367 . S
C1361 C1363 1.433 . S
C1362 C1358 1.350 . S
C1362 C1359 1.463 . S
C1362 N1366 1.427 . S
C1363 H1353 0.929 . S
C1363 C1361 1.433 . S
C1363 N1366 1.384 . S
C1364 H1355 0.929 . S
C1364 C1356 1.378 . S
C1364 C1359 1.350 . S
C1365 H1352 0.929 . S
C1365 C1357 1.433 . S
C1365 N1367 1.384 . S
N1366 C1362 1.427 . S
N1366 C1363 1.384 . S
N1367 C1359 1.427 . S
N1367 C1365 1.384 . S
H1368 C1374 0.930 . S
H1369 C1378 0.930 . S
H1370 C1383 0.929 . S
H1371 C1381 0.929 . S
H1372 C1376 0.929 . S
H1373 C1382 0.929 . S
C1374 H1368 0.930 . S
C1374 C1375 1.367 . S
C1374 C1382 1.378 . S
C1375 C1374 1.367 . S
C1375 C1383 1.433 . S
C1376 H1372 0.929 . S
C1376 C1378 1.378 . S
C1376 C1380 1.350 . S
C1377 C1380 1.463 . S
C1377 C1382 1.350 . S
C1377 N1385 1.427 . S
C1378 H1369 0.930 . S
C1378 C1376 1.378 . S
C1378 C1379 1.367 . S
C1379 C1378 1.367 . S
C1379 C1381 1.433 . S
C1380 C1376 1.350 . S
C1380 C1377 1.463 . S
C1380 N1384 1.427 . S
C1381 H1371 0.929 . S
C1381 C1379 1.433 . S
C1381 N1384 1.384 . S
C1382 H1373 0.929 . S
C1382 C1374 1.378 . S
C1382 C1377 1.350 . S
C1383 H1370 0.929 . S
C1383 C1375 1.433 . S
C1383 N1385 1.384 . S
N1384 C1380 1.427 . S
N1384 C1381 1.384 . S
N1385 C1377 1.427 . S
N1385 C1383 1.384 . S
H1386 C1392 0.930 . S
H1387 C1396 0.930 . S
H1388 C1401 0.929 . S
H1389 C1399 0.929 . S
H1390 C1394 0.929 . S
H1391 C1400 0.929 . S
C1392 H1386 0.930 . S
C1392 C1393 1.367 . S
C1392 C1400 1.378 . S
C1393 C1392 1.367 . S
C1393 C1401 1.433 1_554 S
C1394 H1390 0.929 . S
C1394 C1396 1.378 . S
C1394 C1398 1.350 1_556 S
C1395 C1398 1.463 . S
C1395 C1400 1.350 . S
C1395 N1403 1.427 1_554 S
C1396 H1387 0.930 . S
C1396 C1394 1.378 . S
C1396 C1397 1.367 . S
C1397 C1396 1.367 . S
C1397 C1399 1.433 1_556 S
C1398 C1394 1.350 1_554 S
C1398 C1395 1.463 . S
C1398 N1402 1.427 . S
C1399 H1389 0.929 . S
C1399 C1397 1.433 1_554 S
C1399 N1402 1.384 . S
C1400 H1391 0.929 . S
C1400 C1392 1.378 . S
C1400 C1395 1.350 . S
C1401 H1388 0.929 . S
C1401 C1393 1.433 1_556 S
C1401 N1403 1.384 . S
N1402 C1398 1.427 . S
N1402 C1399 1.384 . S
N1403 C1395 1.427 1_556 S
N1403 C1401 1.384 . S
H1404 C1410 0.930 . S
H1405 C1414 0.930 . S
H1406 C1419 0.929 . S
H1407 C1417 0.929 . S
H1408 C1412 0.929 . S
H1409 C1418 0.929 . S
C1410 H1404 0.930 . S
C1410 C1411 1.367 . S
C1410 C1418 1.378 . S
C1411 C1410 1.367 . S
C1411 C1419 1.433 . S
C1412 H1408 0.929 . S
C1412 C1414 1.378 . S
C1412 C1416 1.350 . S
C1413 C1416 1.463 . S
C1413 C1418 1.350 . S
C1413 N1421 1.427 . S
C1414 H1405 0.930 . S
C1414 C1412 1.378 . S
C1414 C1415 1.367 . S
C1415 C1414 1.367 . S
C1415 C1417 1.433 . S
C1416 C1412 1.350 . S
C1416 C1413 1.463 . S
C1416 N1420 1.427 . S
C1417 H1407 0.929 . S
C1417 C1415 1.433 . S
C1417 N1420 1.384 . S
C1418 H1409 0.929 . S
C1418 C1410 1.378 . S
C1418 C1413 1.350 . S
C1419 H1406 0.929 . S
C1419 C1411 1.433 . S
C1419 N1421 1.384 . S
N1420 C1416 1.427 . S
N1420 C1417 1.384 . S
N1421 C1413 1.427 . S
N1421 C1419 1.384 . S
H1422 C1428 0.930 . S
H1423 C1432 0.930 . S
H1424 C1437 0.929 . S
H1425 C1435 0.929 . S
H1426 C1430 0.929 . S
H1427 C1436 0.929 . S
C1428 H1422 0.930 . S
C1428 C1429 1.367 . S
C1428 C1436 1.378 . S
C1429 C1428 1.367 . S
C1429 C1437 1.433 . S
C1430 H1426 0.929 . S
C1430 C1432 1.378 . S
C1430 C1434 1.350 . S
C1431 C1434 1.463 . S
C1431 C1436 1.350 . S
C1431 N1439 1.427 . S
C1432 H1423 0.930 . S
C1432 C1430 1.378 . S
C1432 C1433 1.367 . S
C1433 C1432 1.367 . S
C1433 C1435 1.433 . S
C1434 C1430 1.350 . S
C1434 C1431 1.463 . S
C1434 N1438 1.427 . S
C1435 H1425 0.929 . S
C1435 C1433 1.433 . S
C1435 N1438 1.384 . S
C1436 H1427 0.929 . S
C1436 C1428 1.378 . S
C1436 C1431 1.350 . S
C1437 H1424 0.929 . S
C1437 C1429 1.433 . S
C1437 N1439 1.384 . S
N1438 C1434 1.427 . S
N1438 C1435 1.384 . S
N1439 C1431 1.427 . S
N1439 C1437 1.384 . S
H1440 C1446 0.930 . S
H1441 C1450 0.930 . S
H1442 C1455 0.929 . S
H1443 C1453 0.929 . S
H1444 C1448 0.929 . S
H1445 C1454 0.929 . S
C1446 H1440 0.930 . S
C1446 C1447 1.367 . S
C1446 C1454 1.378 . S
C1447 C1446 1.367 . S
C1447 C1455 1.433 . S
C1448 H1444 0.929 . S
C1448 C1450 1.378 . S
C1448 C1452 1.350 . S
C1449 C1452 1.463 . S
C1449 C1454 1.350 . S
C1449 N1457 1.427 . S
C1450 H1441 0.930 . S
C1450 C1448 1.378 . S
C1450 C1451 1.367 . S
C1451 C1450 1.367 . S
C1451 C1453 1.433 . S
C1452 C1448 1.350 . S
C1452 C1449 1.463 . S
C1452 N1456 1.427 . S
C1453 H1443 0.929 . S
C1453 C1451 1.433 . S
C1453 N1456 1.384 . S
C1454 H1445 0.929 . S
C1454 C1446 1.378 . S
C1454 C1449 1.350 . S
C1455 H1442 0.929 . S
C1455 C1447 1.433 . S
C1455 N1457 1.384 . S
N1456 C1452 1.427 . S
N1456 C1453 1.384 . S
N1457 C1449 1.427 . S
N1457 C1455 1.384 . S
H1458 C1464 0.930 . S
H1459 C1468 0.930 . S
H1460 C1473 0.929 . S
H1461 C1471 0.929 . S
H1462 C1466 0.929 . S
H1463 C1472 0.929 . S
C1464 H1458 0.930 . S
C1464 C1465 1.367 . S
C1464 C1472 1.378 . S
C1465 C1464 1.367 . S
C1465 C1473 1.433 . S
C1466 H1462 0.929 . S
C1466 C1468 1.378 . S
C1466 C1470 1.350 . S
C1467 C1470 1.463 . S
C1467 C1472 1.350 . S
C1467 N1475 1.427 . S
C1468 H1459 0.930 . S
C1468 C1466 1.378 . S
C1468 C1469 1.367 . S
C1469 C1468 1.367 . S
C1469 C1471 1.433 . S
C1470 C1466 1.350 . S
C1470 C1467 1.463 . S
C1470 N1474 1.427 . S
C1471 H1461 0.929 . S
C1471 C1469 1.433 . S
C1471 N1474 1.384 . S
C1472 H1463 0.929 . S
C1472 C1464 1.378 . S
C1472 C1467 1.350 . S
C1473 H1460 0.929 . S
C1473 C1465 1.433 . S
C1473 N1475 1.384 . S
N1474 C1470 1.427 . S
N1474 C1471 1.384 . S
N1475 C1467 1.427 . S
N1475 C1473 1.384 . S
H1476 C1482 0.930 . S
H1477 C1486 0.930 . S
H1478 C1491 0.929 . S
H1479 C1489 0.929 . S
H1480 C1484 0.929 . S
H1481 C1490 0.929 . S
C1482 H1476 0.930 . S
C1482 C1483 1.367 . S
C1482 C1490 1.378 . S
C1483 C1482 1.367 . S
C1483 C1491 1.433 . S
C1484 H1480 0.929 . S
C1484 C1486 1.378 . S
C1484 C1488 1.350 . S
C1485 C1488 1.463 . S
C1485 C1490 1.350 . S
C1485 N1493 1.427 . S
C1486 H1477 0.930 . S
C1486 C1484 1.378 . S
C1486 C1487 1.367 . S
C1487 C1486 1.367 . S
C1487 C1489 1.433 . S
C1488 C1484 1.350 . S
C1488 C1485 1.463 . S
C1488 N1492 1.427 . S
C1489 H1479 0.929 . S
C1489 C1487 1.433 . S
C1489 N1492 1.384 . S
C1490 H1481 0.929 . S
C1490 C1482 1.378 . S
C1490 C1485 1.350 . S
C1491 H1478 0.929 . S
C1491 C1483 1.433 . S
C1491 N1493 1.384 . S
N1492 C1488 1.427 . S
N1492 C1489 1.384 . S
N1493 C1485 1.427 . S
N1493 C1491 1.384 . S
H1494 C1500 0.930 . S
H1495 C1504 0.930 . S
H1496 C1509 0.929 . S
H1497 C1507 0.929 . S
H1498 C1502 0.929 . S
H1499 C1508 0.929 . S
C1500 H1494 0.930 . S
C1500 C1501 1.367 . S
C1500 C1508 1.378 . S
C1501 C1500 1.367 . S
C1501 C1509 1.433 . S
C1502 H1498 0.929 . S
C1502 C1504 1.378 . S
C1502 C1506 1.350 . S
C1503 C1506 1.463 . S
C1503 C1508 1.350 . S
C1503 N1511 1.427 . S
C1504 H1495 0.930 . S
C1504 C1502 1.378 . S
C1504 C1505 1.367 . S
C1505 C1504 1.367 . S
C1505 C1507 1.433 . S
C1506 C1502 1.350 . S
C1506 C1503 1.463 . S
C1506 N1510 1.427 . S
C1507 H1497 0.929 . S
C1507 C1505 1.433 . S
C1507 N1510 1.384 . S
C1508 H1499 0.929 . S
C1508 C1500 1.378 . S
C1508 C1503 1.350 . S
C1509 H1496 0.929 . S
C1509 C1501 1.433 . S
C1509 N1511 1.384 . S
N1510 C1506 1.427 . S
N1510 C1507 1.384 . S
N1511 C1503 1.427 . S
N1511 C1509 1.384 . S
H1512 C1518 0.930 . S
H1513 C1522 0.930 . S
H1514 C1527 0.929 . S
H1515 C1525 0.929 . S
H1516 C1520 0.929 . S
H1517 C1526 0.929 . S
C1518 H1512 0.930 . S
C1518 C1519 1.367 . S
C1518 C1526 1.378 . S
C1519 C1518 1.367 . S
C1519 C1527 1.433 . S
C1520 H1516 0.929 . S
C1520 C1522 1.378 . S
C1520 C1524 1.350 . S
C1521 C1524 1.463 . S
C1521 C1526 1.350 . S
C1521 N1529 1.427 . S
C1522 H1513 0.930 . S
C1522 C1520 1.378 . S
C1522 C1523 1.367 . S
C1523 C1522 1.367 . S
C1523 C1525 1.433 . S
C1524 C1520 1.350 . S
C1524 C1521 1.463 . S
C1524 N1528 1.427 . S
C1525 H1515 0.929 . S
C1525 C1523 1.433 . S
C1525 N1528 1.384 . S
C1526 H1517 0.929 . S
C1526 C1518 1.378 . S
C1526 C1521 1.350 . S
C1527 H1514 0.929 . S
C1527 C1519 1.433 . S
C1527 N1529 1.384 . S
N1528 C1524 1.427 . S
N1528 C1525 1.384 . S
N1529 C1521 1.427 . S
N1529 C1527 1.384 . S
H1530 C1536 0.930 . S
H1531 C1540 0.930 . S
H1532 C1545 0.929 . S
H1533 C1543 0.929 . S
H1534 C1538 0.929 . S
H1535 C1544 0.929 . S
C1536 H1530 0.930 . S
C1536 C1537 1.367 . S
C1536 C1544 1.378 . S
C1537 C1536 1.367 . S
C1537 C1545 1.433 . S
C1538 H1534 0.929 . S
C1538 C1540 1.378 . S
C1538 C1542 1.350 . S
C1539 C1542 1.463 . S
C1539 C1544 1.350 . S
C1539 N1547 1.427 . S
C1540 H1531 0.930 . S
C1540 C1538 1.378 . S
C1540 C1541 1.367 . S
C1541 C1540 1.367 . S
C1541 C1543 1.433 . S
C1542 C1538 1.350 . S
C1542 C1539 1.463 . S
C1542 N1546 1.427 . S
C1543 H1533 0.929 . S
C1543 C1541 1.433 . S
C1543 N1546 1.384 . S
C1544 H1535 0.929 . S
C1544 C1536 1.378 . S
C1544 C1539 1.350 . S
C1545 H1532 0.929 . S
C1545 C1537 1.433 . S
C1545 N1547 1.384 . S
N1546 C1542 1.427 . S
N1546 C1543 1.384 . S
N1547 C1539 1.427 . S
N1547 C1545 1.384 . S
H1548 C1554 0.930 . S
H1549 C1558 0.930 . S
H1550 C1563 0.929 . S
H1551 C1561 0.929 . S
H1552 C1556 0.929 . S
H1553 C1562 0.929 . S
C1554 H1548 0.930 . S
C1554 C1555 1.367 . S
C1554 C1562 1.378 . S
C1555 C1554 1.367 . S
C1555 C1563 1.433 . S
C1556 H1552 0.929 . S
C1556 C1558 1.378 . S
C1556 C1560 1.350 . S
C1557 C1560 1.463 . S
C1557 C1562 1.350 . S
C1557 N1565 1.427 . S
C1558 H1549 0.930 . S
C1558 C1556 1.378 . S
C1558 C1559 1.367 . S
C1559 C1558 1.367 . S
C1559 C1561 1.433 . S
C1560 C1556 1.350 . S
C1560 C1557 1.463 . S
C1560 N1564 1.427 . S
C1561 H1551 0.929 . S
C1561 C1559 1.433 . S
C1561 N1564 1.384 . S
C1562 H1553 0.929 . S
C1562 C1554 1.378 . S
C1562 C1557 1.350 . S
C1563 H1550 0.929 . S
C1563 C1555 1.433 . S
C1563 N1565 1.384 . S
N1564 C1560 1.427 . S
N1564 C1561 1.384 . S
N1565 C1557 1.427 . S
N1565 C1563 1.384 . S
H1566 C1572 0.930 . S
H1567 C1576 0.930 . S
H1568 C1581 0.929 . S
H1569 C1579 0.929 . S
H1570 C1574 0.929 . S
H1571 C1580 0.929 . S
C1572 H1566 0.930 . S
C1572 C1573 1.367 . S
C1572 C1580 1.378 . S
C1573 C1572 1.367 . S
C1573 C1581 1.433 . S
C1574 H1570 0.929 . S
C1574 C1576 1.378 . S
C1574 C1578 1.350 . S
C1575 C1578 1.463 . S
C1575 C1580 1.350 . S
C1575 N1583 1.427 . S
C1576 H1567 0.930 . S
C1576 C1574 1.378 . S
C1576 C1577 1.367 . S
C1577 C1576 1.367 . S
C1577 C1579 1.433 . S
C1578 C1574 1.350 . S
C1578 C1575 1.463 . S
C1578 N1582 1.427 . S
C1579 H1569 0.929 . S
C1579 C1577 1.433 . S
C1579 N1582 1.384 . S
C1580 H1571 0.929 . S
C1580 C1572 1.378 . S
C1580 C1575 1.350 . S
C1581 H1568 0.929 . S
C1581 C1573 1.433 . S
C1581 N1583 1.384 . S
N1582 C1578 1.427 . S
N1582 C1579 1.384 . S
N1583 C1575 1.427 . S
N1583 C1581 1.384 . S
H1584 C1590 0.930 . S
H1585 C1594 0.930 . S
H1586 C1599 0.929 . S
H1587 C1597 0.929 . S
H1588 C1592 0.929 . S
H1589 C1598 0.929 . S
C1590 H1584 0.930 . S
C1590 C1591 1.367 . S
C1590 C1598 1.378 . S
C1591 C1590 1.367 . S
C1591 C1599 1.433 . S
C1592 H1588 0.929 . S
C1592 C1594 1.378 . S
C1592 C1596 1.350 . S
C1593 C1596 1.463 . S
C1593 C1598 1.350 . S
C1593 N1601 1.427 . S
C1594 H1585 0.930 . S
C1594 C1592 1.378 . S
C1594 C1595 1.367 . S
C1595 C1594 1.367 . S
C1595 C1597 1.433 . S
C1596 C1592 1.350 . S
C1596 C1593 1.463 . S
C1596 N1600 1.427 . S
C1597 H1587 0.929 . S
C1597 C1595 1.433 . S
C1597 N1600 1.384 . S
C1598 H1589 0.929 . S
C1598 C1590 1.378 . S
C1598 C1593 1.350 . S
C1599 H1586 0.929 . S
C1599 C1591 1.433 . S
C1599 N1601 1.384 . S
N1600 C1596 1.427 . S
N1600 C1597 1.384 . S
N1601 C1593 1.427 . S
N1601 C1599 1.384 . S
H1602 C1608 0.930 . S
H1603 C1612 0.930 . S
H1604 C1617 0.929 . S
H1605 C1615 0.929 . S
H1606 C1610 0.929 . S
H1607 C1616 0.929 . S
C1608 H1602 0.930 . S
C1608 C1609 1.367 . S
C1608 C1616 1.378 . S
C1609 C1608 1.367 . S
C1609 C1617 1.433 . S
C1610 H1606 0.929 . S
C1610 C1612 1.378 . S
C1610 C1614 1.350 . S
C1611 C1614 1.463 . S
C1611 C1616 1.350 . S
C1611 N1619 1.427 . S
C1612 H1603 0.930 . S
C1612 C1610 1.378 . S
C1612 C1613 1.367 . S
C1613 C1612 1.367 . S
C1613 C1615 1.433 . S
C1614 C1610 1.350 . S
C1614 C1611 1.463 . S
C1614 N1618 1.427 . S
C1615 H1605 0.929 . S
C1615 C1613 1.433 . S
C1615 N1618 1.384 . S
C1616 H1607 0.929 . S
C1616 C1608 1.378 . S
C1616 C1611 1.350 . S
C1617 H1604 0.929 . S
C1617 C1609 1.433 . S
C1617 N1619 1.384 . S
N1618 C1614 1.427 . S
N1618 C1615 1.384 . S
N1619 C1611 1.427 . S
N1619 C1617 1.384 . S
H1620 C1626 0.930 . S
H1621 C1630 0.930 . S
H1622 C1635 0.929 . S
H1623 C1633 0.929 . S
H1624 C1628 0.929 . S
H1625 C1634 0.929 . S
C1626 H1620 0.930 . S
C1626 C1627 1.367 . S
C1626 C1634 1.378 . S
C1627 C1626 1.367 . S
C1627 C1635 1.433 . S
C1628 H1624 0.929 . S
C1628 C1630 1.378 . S
C1628 C1632 1.350 . S
C1629 C1632 1.463 . S
C1629 C1634 1.350 . S
C1629 N1637 1.427 . S
C1630 H1621 0.930 . S
C1630 C1628 1.378 . S
C1630 C1631 1.367 . S
C1631 C1630 1.367 . S
C1631 C1633 1.433 . S
C1632 C1628 1.350 . S
C1632 C1629 1.463 . S
C1632 N1636 1.427 . S
C1633 H1623 0.929 . S
C1633 C1631 1.433 . S
C1633 N1636 1.384 . S
C1634 H1625 0.929 . S
C1634 C1626 1.378 . S
C1634 C1629 1.350 . S
C1635 H1622 0.929 . S
C1635 C1627 1.433 . S
C1635 N1637 1.384 . S
N1636 C1632 1.427 . S
N1636 C1633 1.384 . S
N1637 C1629 1.427 . S
N1637 C1635 1.384 . S
H1638 C1644 0.930 . S
H1639 C1648 0.930 . S
H1640 C1653 0.929 . S
H1641 C1651 0.929 . S
H1642 C1646 0.929 . S
H1643 C1652 0.929 . S
C1644 H1638 0.930 . S
C1644 C1645 1.367 . S
C1644 C1652 1.378 . S
C1645 C1644 1.367 . S
C1645 C1653 1.433 . S
C1646 H1642 0.929 . S
C1646 C1648 1.378 . S
C1646 C1650 1.350 . S
C1647 C1650 1.463 . S
C1647 C1652 1.350 . S
C1647 N1655 1.427 . S
C1648 H1639 0.930 . S
C1648 C1646 1.378 . S
C1648 C1649 1.367 . S
C1649 C1648 1.367 . S
C1649 C1651 1.433 . S
C1650 C1646 1.350 . S
C1650 C1647 1.463 . S
C1650 N1654 1.427 . S
C1651 H1641 0.929 . S
C1651 C1649 1.433 . S
C1651 N1654 1.384 . S
C1652 H1643 0.929 . S
C1652 C1644 1.378 . S
C1652 C1647 1.350 . S
C1653 H1640 0.929 . S
C1653 C1645 1.433 . S
C1653 N1655 1.384 . S
N1654 C1650 1.427 . S
N1654 C1651 1.384 . S
N1655 C1647 1.427 . S
N1655 C1653 1.384 . S
C1015 C487 1.605 . S
C1019 C58 1.256 . S
C1033 C142 1.276 . S
C1037 C67 1.706 . S
C1051 C226 1.339 . S
C1055 C151 1.709 . S
C1069 C235 1.604 . S
C1073 C310 1.260 . S
C1087 C319 1.703 . S
C1091 C394 1.261 . S
C1105 C478 1.340 . S
C1109 C403 1.705 . S
C1123 C655 1.604 . S
C1127 C562 1.260 . S
C1141 C646 1.310 . S
C1145 C739 1.697 . S
C1159 C823 1.705 . S
C1163 C730 1.267 . S
C1177 C907 1.603 . S
C1181 C814 1.260 . S
C1195 C991 1.707 . S
C1199 C898 1.341 . S
C1213 C571 1.716 . S
C1217 C982 1.287 . S
C1231 C980 3.465 . S
C1235 C55 3.417 . S
C1249 C139 2.957 . S
C1253 C560 3.004 . S
C1267 C644 3.251 . S
C1271 C223 3.187 . S
C1285 C728 3.467 . S
C1289 C307 3.418 . S
C1303 C812 3.004 . S
C1307 C391 2.956 . S
C1321 C475 3.186 . S
C1325 C896 3.248 . S
C1339 C559 3.414 . S
C1343 C140 3.468 . S
C1357 C643 3.193 . S
C1361 C224 3.249 . S
C1375 C308 3.007 . S
C1379 C727 2.951 . S
C1393 C392 3.467 . S
C1397 C811 3.412 . S
C1411 C895 3.185 . S
C1415 C476 3.245 . S
C1429 C979 2.951 . S
C1433 C56 3.001 . S
C1447 C572 2.231 . S
C1451 C68 2.232 . S
C1465 C152 1.493 . S
C1469 C656 1.517 . S
C1483 C740 1.493 . S
C1487 C236 1.504 . S
C1501 C320 2.221 . S
C1505 C824 2.226 . S
C1519 C908 1.516 . S
C1523 C404 1.499 . S
C1537 C992 1.494 . S
C1541 C488 1.504 . S
C1555 C574 0.514 . S
C1559 C70 0.507 . S
C1573 C658 0.347 . S
C1577 C154 0.309 . S
C1591 C742 0.298 . S
C1595 C238 0.352 . S
C1609 C322 0.495 . S
C1613 C826 0.519 . S
C1627 C910 0.300 . S
C1631 C406 0.302 . S
C1645 C994 0.314 . S
C1649 C490 0.343 . S
