# Generated by pormake.
# Topology sni, (6)-cn, num edge types: 1
# Building blocks:
#     Node 0, Type 0, BuildingBlock: OJICUG_clean_sbu_0, # of connection points: 6
#     Node 1, Type 0, BuildingBlock: OJICUG_clean_sbu_0, # of connection points: 6
#     Node 2, Type 0, BuildingBlock: OJICUG_clean_sbu_0, # of connection points: 6
#     Node 3, Type 0, BuildingBlock: OJICUG_clean_sbu_0, # of connection points: 6
#     Node 4, Type 0, BuildingBlock: OJICUG_clean_sbu_0, # of connection points: 6
#     Node 5, Type 0, BuildingBlock: OJICUG_clean_sbu_0, # of connection points: 6
#     Node 6, Type 0, BuildingBlock: OJICUG_clean_sbu_0, # of connection points: 6
#     Node 7, Type 0, BuildingBlock: OJICUG_clean_sbu_0, # of connection points: 6
#     Edge 8, Type (0, 0), BuildingBlock: UVAHIK_clean_linker_0, # of connection points: 2
#     Edge 9, Type (0, 0), BuildingBlock: UVAHIK_clean_linker_0, # of connection points: 2
#     Edge 10, Type (0, 0), BuildingBlock: UVAHIK_clean_linker_0, # of connection points: 2
#     Edge 11, Type (0, 0), BuildingBlock: UVAHIK_clean_linker_0, # of connection points: 2
#     Edge 12, Type (0, 0), BuildingBlock: UVAHIK_clean_linker_0, # of connection points: 2
#     Edge 13, Type (0, 0), BuildingBlock: UVAHIK_clean_linker_0, # of connection points: 2
#     Edge 14, Type (0, 0), BuildingBlock: UVAHIK_clean_linker_0, # of connection points: 2
#     Edge 15, Type (0, 0), BuildingBlock: UVAHIK_clean_linker_0, # of connection points: 2
#     Edge 16, Type (0, 0), BuildingBlock: UVAHIK_clean_linker_0, # of connection points: 2
#     Edge 17, Type (0, 0), BuildingBlock: UVAHIK_clean_linker_0, # of connection points: 2
#     Edge 18, Type (0, 0), BuildingBlock: UVAHIK_clean_linker_0, # of connection points: 2
#     Edge 19, Type (0, 0), BuildingBlock: UVAHIK_clean_linker_0, # of connection points: 2
#     Edge 20, Type (0, 0), BuildingBlock: UVAHIK_clean_linker_0, # of connection points: 2
#     Edge 21, Type (0, 0), BuildingBlock: UVAHIK_clean_linker_0, # of connection points: 2
#     Edge 22, Type (0, 0), BuildingBlock: UVAHIK_clean_linker_0, # of connection points: 2
#     Edge 23, Type (0, 0), BuildingBlock: UVAHIK_clean_linker_0, # of connection points: 2
#     Edge 24, Type (0, 0), BuildingBlock: UVAHIK_clean_linker_0, # of connection points: 2
#     Edge 25, Type (0, 0), BuildingBlock: UVAHIK_clean_linker_0, # of connection points: 2
#     Edge 26, Type (0, 0), BuildingBlock: UVAHIK_clean_linker_0, # of connection points: 2
#     Edge 27, Type (0, 0), BuildingBlock: UVAHIK_clean_linker_0, # of connection points: 2
#     Edge 28, Type (0, 0), BuildingBlock: UVAHIK_clean_linker_0, # of connection points: 2
#     Edge 29, Type (0, 0), BuildingBlock: UVAHIK_clean_linker_0, # of connection points: 2
#     Edge 30, Type (0, 0), BuildingBlock: UVAHIK_clean_linker_0, # of connection points: 2
#     Edge 31, Type (0, 0), BuildingBlock: UVAHIK_clean_linker_0, # of connection points: 2
# Relax obj value: 0.093
# Max RMSD: 0.105
# Mean RMSD: 0.105
data_MOF--net-sni--node1-OJICUG_clean_sbu_0--edge1-UVAHIK_clean_linker_0
_symmetry_space_group_name_H-M    P1
_symmetry_Int_Tables_number       1
_symmetry_cell_setting            triclinic
loop_
_symmetry_equiv_pos_as_xyz
'x, y, z'
_cell_length_a     50.892184
_cell_length_b     50.940679
_cell_length_c     28.227432
_cell_angle_alpha  90.212225
_cell_angle_beta   89.992049
_cell_angle_gamma 89.910612
loop_
_atom_site_label
_atom_site_type_symbol
_atom_site_fract_x
_atom_site_fract_y
_atom_site_fract_z
_atom_type_partial_charge
Sc0 Sc 0.61508 0.11543 0.96538 0.0
Sc1 Sc 0.68094 0.13438 0.98233 0.0
Sc2 Sc 0.62962 0.1793 0.00586 0.0
O3 O 0.64188 0.14305 0.98445 0.0
C4 C 0.5907 0.1677 0.92029 0.0
C5 C 0.66014 0.10708 0.88801 0.0
C6 C 0.68062 0.19354 0.94604 0.0
C7 C 0.65723 0.08071 0.02068 0.0
C8 C 0.58683 0.1422 0.05389 0.0
C9 C 0.67592 0.16675 0.07864 0.0
O10 O 0.59306 0.14291 0.92332 0.0
O11 O 0.67846 0.1169 0.91297 0.0
O12 O 0.65862 0.19938 0.9645 0.0
O13 O 0.63425 0.08462 0.00449 0.0
O14 O 0.59911 0.16372 0.04958 0.0
O15 O 0.68753 0.15053 0.05149 0.0
O16 O 0.59078 0.12251 0.02695 0.0
O17 O 0.67584 0.09702 0.01575 0.0
O18 O 0.65496 0.17873 0.06699 0.0
O19 O 0.63649 0.10544 0.90225 0.0
O20 O 0.60277 0.18362 0.94736 0.0
O21 O 0.69088 0.17088 0.94918 0.0
Sc22 Sc 0.87534 0.60542 0.96513 0.0
Sc23 Sc 0.86045 0.67158 0.98728 0.0
Sc24 Sc 0.80937 0.6245 0.97874 0.0
O25 O 0.84833 0.63387 0.97716 0.0
C26 C 0.83 0.59062 0.89157 0.0
C27 C 0.89817 0.65297 0.90429 0.0
C28 C 0.80815 0.68022 0.92747 0.0
C29 C 0.90475 0.6397 0.0428 0.0
C30 C 0.83467 0.57459 0.02953 0.0
C31 C 0.81546 0.66455 0.06514 0.0
O32 O 0.85344 0.58992 0.90691 0.0
O33 O 0.88618 0.67118 0.92639 0.0
O34 O 0.79813 0.65813 0.93755 0.0
O35 O 0.9003 0.61803 0.02197 0.0
O36 O 0.81525 0.58945 0.0204 0.0
O37 O 0.83589 0.67569 0.0488 0.0
O38 O 0.85746 0.57848 0.01289 0.0
O39 O 0.89217 0.6606 0.03349 0.0
O40 O 0.80374 0.64583 0.04392 0.0
O41 O 0.8962 0.62895 0.91546 0.0
O42 O 0.81153 0.60253 0.91317 0.0
O43 O 0.83047 0.68749 0.94258 0.0
Sc44 Sc 0.31028 0.86622 0.00764 0.0
Sc45 Sc 0.35792 0.8173 0.98183 0.0
Sc46 Sc 0.37544 0.8839 0.98121 0.0
O47 O 0.34782 0.85578 0.99013 0.0
C48 C 0.32523 0.91027 0.93324 0.0
C49 C 0.30082 0.81927 0.93497 0.0
C50 C 0.38911 0.84422 0.89723 0.0
C51 C 0.32031 0.81561 0.07173 0.0
C52 C 0.34413 0.90546 0.07116 0.0
C53 C 0.40853 0.83971 0.03404 0.0
O54 O 0.30808 0.89714 0.95563 0.0
O55 O 0.32336 0.80903 0.941 0.0
O56 O 0.38927 0.8668 0.91642 0.0
O57 O 0.3082 0.83675 0.06185 0.0
O58 O 0.36459 0.90392 0.0455 0.0
O59 O 0.39346 0.82089 0.02257 0.0
O60 O 0.32299 0.89331 0.06155 0.0
O61 O 0.3386 0.80625 0.04613 0.0
O62 O 0.40435 0.86326 0.02162 0.0
O63 O 0.2934 0.84011 0.95597 0.0
O64 O 0.34977 0.90745 0.93928 0.0
O65 O 0.3787 0.82426 0.91651 0.0
Sc66 Sc 0.11444 0.37417 0.03183 0.0
Sc67 Sc 0.12714 0.3093 -0.00554 0.0
Sc68 Sc 0.17865 0.35576 -0.00032 0.0
O69 O 0.14009 0.34637 0.00874 0.0
C70 C 0.15011 0.40688 0.96041 0.0
C71 C 0.08044 0.34434 0.95347 0.0
C72 C 0.16778 0.31892 0.91024 0.0
C73 C 0.09497 0.32348 0.08799 0.0
C74 C 0.16505 0.38687 0.09456 0.0
C75 C 0.18244 0.29841 0.04404 0.0
O76 O 0.12892 0.40321 0.98326 0.0
O77 O 0.09356 0.32312 0.95549 0.0
O78 O 0.18069 0.33651 0.93205 0.0
O79 O 0.09718 0.34814 0.08264 0.0
O80 O 0.18133 0.37641 0.06607 0.0
O81 O 0.15948 0.29139 0.0316 0.0
O82 O 0.14042 0.3873 0.08712 0.0
O83 O 0.10451 0.30687 0.05897 0.0
O84 O 0.19176 0.32101 0.03531 0.0
O85 O 0.08564 0.36428 0.97893 0.0
O86 O 0.16969 0.39145 0.96288 0.0
O87 O 0.14803 0.3074 0.92821 0.0
Sc88 Sc 0.63298 0.81885 0.48747 0.0
Sc89 Sc 0.68425 0.86553 0.48026 0.0
Sc90 Sc 0.61842 0.88581 0.47423 0.0
O91 O 0.64524 0.85668 0.48079 0.0
C92 C 0.59557 0.84089 0.40683 0.0
C93 C 0.68437 0.81074 0.42513 0.0
C94 C 0.66283 0.90278 0.39997 0.0
C95 C 0.67897 0.8241 0.56404 0.0
C96 C 0.58885 0.84857 0.54708 0.0
C97 C 0.66032 0.91408 0.53878 0.0
O98 O 0.60651 0.82173 0.42792 0.0
O99 O 0.69495 0.83229 0.43719 0.0
O100 O 0.64034 0.90457 0.41925 0.0
O101 O 0.65855 0.81305 0.54719 0.0
O102 O 0.59279 0.87076 0.52812 0.0
O103 O 0.67939 0.90037 0.52326 0.0
O104 O 0.60204 0.82829 0.53621 0.0
O105 O 0.69034 0.84344 0.54422 0.0
O106 O 0.63664 0.90988 0.52696 0.0
O107 O 0.66191 0.80375 0.43972 0.0
O108 O 0.59808 0.86462 0.42004 0.0
O109 O 0.681 0.88809 0.41588 0.0
Sc110 Sc 0.18483 0.62684 0.50734 0.0
Sc111 Sc 0.13523 0.67344 0.48094 0.0
Sc112 Sc 0.11994 0.60625 0.48639 0.0
O113 O 0.14672 0.63553 0.49139 0.0
C114 C 0.16999 0.58065 0.43616 0.0
C115 C 0.19161 0.6724 0.43155 0.0
C116 C 0.10314 0.64348 0.40086 0.0
C117 C 0.17406 0.67852 0.56884 0.0
C118 C 0.15399 0.58758 0.57485 0.0
C119 C 0.08683 0.65072 0.5391 0.0
O120 O 0.1869 0.59482 0.45725 0.0
O121 O 0.16884 0.68199 0.43807 0.0
O122 O 0.10367 0.62163 0.42232 0.0
O123 O 0.18673 0.6576 0.55948 0.0
O124 O 0.13312 0.58759 0.55023 0.0
O125 O 0.10047 0.66962 0.52342 0.0
O126 O 0.17427 0.60064 0.56365 0.0
O127 O 0.15506 0.68672 0.5437 0.0
O128 O 0.09174 0.62686 0.52918 0.0
O129 O 0.2 0.65226 0.45326 0.0
O130 O 0.1454 0.58276 0.44289 0.0
O131 O 0.1138 0.66417 0.41717 0.0
Sc132 Sc 0.36114 0.18492 0.48953 0.0
Sc133 Sc 0.31332 0.13475 0.49756 0.0
Sc134 Sc 0.3787 0.12204 0.53029 0.0
O135 O 0.35103 0.1473 0.50592 0.0
C136 C 0.4089 0.15179 0.44715 0.0
C137 C 0.32056 0.17062 0.40678 0.0
C138 C 0.34543 0.08483 0.46181 0.0
C139 C 0.3058 0.1926 0.54015 0.0
C140 C 0.39603 0.17502 0.58164 0.0
C141 C 0.32934 0.10816 0.59503 0.0
O142 O 0.39425 0.17205 0.44802 0.0
O143 O 0.31007 0.15155 0.42846 0.0
O144 O 0.36622 0.09072 0.48429 0.0
O145 O 0.3286 0.20091 0.52928 0.0
O146 O 0.39462 0.1502 0.5789 0.0
O147 O 0.31218 0.11615 0.56578 0.0
O148 O 0.38557 0.19024 0.55147 0.0
O149 O 0.29779 0.16962 0.53009 0.0
O150 O 0.35391 0.1091 0.58716 0.0
O151 O 0.33848 0.18476 0.42499 0.0
O152 O 0.40603 0.13261 0.4754 0.0
O153 O 0.32473 0.09873 0.46348 0.0
Sc154 Sc 0.80799 0.35548 0.48259 0.0
Sc155 Sc 0.85882 0.31058 0.50822 0.0
Sc156 Sc 0.87391 0.37543 0.47741 0.0
O157 O 0.84684 0.34711 0.48926 0.0
C158 C 0.83386 0.38372 0.39296 0.0
C159 C 0.81017 0.29742 0.44106 0.0
C160 C 0.90286 0.32452 0.43466 0.0
C161 C 0.80995 0.32077 0.57626 0.0
C162 C 0.8279 0.4091 0.52528 0.0
C163 C 0.89717 0.34816 0.56813 0.0
O164 O 0.814 0.37562 0.41617 0.0
O165 O 0.83102 0.29092 0.46283 0.0
O166 O 0.90105 0.34891 0.44366 0.0
O167 O 0.79855 0.33675 0.5485 0.0
O168 O 0.85103 0.40651 0.50908 0.0
O169 O 0.88799 0.32582 0.5564 0.0
O170 O 0.81055 0.39144 0.52158 0.0
O171 O 0.83189 0.31 0.56673 0.0
O172 O 0.89227 0.36903 0.5451 0.0
O173 O 0.80025 0.32025 0.44358 0.0
O174 O 0.85718 0.38351 0.40928 0.0
O175 O 0.88715 0.30769 0.45175 0.0
C176 C 0.44053 0.12519 0.39865 0.0
C177 C 0.42889 0.14958 0.4093 0.0
C178 C 0.45734 0.12251 0.35981 0.0
C179 C 0.47315 0.1547 0.24632 0.0
H180 H 0.53605 0.11165 0.25034 0.0
C181 C 0.55621 0.1636 0.11099 0.0
C182 C 0.56704 0.14046 0.092 0.0
C183 C 0.53816 0.16252 0.14796 0.0
C184 C 0.51833 0.12342 0.2486 0.0
H185 H 0.42677 0.19053 0.38871 0.0
H186 H 0.45658 0.18601 0.32185 0.0
H187 H 0.50783 0.1147 0.32028 0.0
H188 H 0.56736 0.09797 0.09675 0.0
H189 H 0.53582 0.09614 0.16245 0.0
H190 H 0.48407 0.164 0.17516 0.0
C191 C 0.45213 0.16877 0.3427 0.0
C192 C 0.50219 0.12521 0.28858 0.0
C193 C 0.4352 0.17141 0.38128 0.0
C194 C 0.55926 0.11611 0.1106 0.0
C195 C 0.54137 0.11506 0.14824 0.0
C196 C 0.48934 0.15306 0.20661 0.0
C197 C 0.463 0.1442 0.33095 0.0
C198 C 0.47964 0.14121 0.28809 0.0
C199 C 0.53069 0.1383 0.16716 0.0
C200 C 0.51227 0.13773 0.20761 0.0
H201 H 0.43598 0.10791 0.41932 0.0
H202 H 0.46523 0.10327 0.35154 0.0
H203 H 0.45556 0.16663 0.24432 0.0
H204 H 0.56169 0.18267 0.09732 0.0
H205 H 0.53043 0.18074 0.16223 0.0
C206 C 0.80787 0.54825 0.08727 0.0
C207 C 0.83098 0.55161 0.06064 0.0
C208 C 0.80548 0.52704 0.11837 0.0
C209 C 0.84738 0.48365 0.18798 0.0
H210 H 0.7853 0.44048 0.20367 0.0
C211 C 0.85048 0.39752 0.31398 0.0
C212 C 0.82965 0.39602 0.34642 0.0
C213 C 0.84823 0.41298 0.2736 0.0
C214 C 0.80271 0.45248 0.19973 0.0
H215 H 0.86903 0.53449 0.04384 0.0
H216 H 0.86473 0.49778 0.09752 0.0
H217 H 0.78553 0.47539 0.14398 0.0
H218 H 0.78945 0.40793 0.36047 0.0
H219 H 0.78577 0.43562 0.29035 0.0
H220 H 0.8645 0.4615 0.24389 0.0
C221 C 0.84871 0.51175 0.09517 0.0
C222 C 0.80281 0.47243 0.16573 0.0
C223 C 0.85113 0.53283 0.06438 0.0
C224 C 0.80584 0.40877 0.33603 0.0
C225 C 0.8037 0.42456 0.29582 0.0
C226 C 0.84727 0.4639 0.2218 0.0
C227 C 0.82615 0.50893 0.12322 0.0
C228 C 0.82527 0.48803 0.15939 0.0
C229 C 0.82527 0.4276 0.26522 0.0
C230 C 0.82505 0.44795 0.22788 0.0
H231 H 0.79194 0.56232 0.08501 0.0
H232 H 0.7879 0.52533 0.13979 0.0
H233 H 0.86475 0.49578 0.18467 0.0
H234 H 0.8689 0.3875 0.32067 0.0
H235 H 0.86493 0.41435 0.24993 0.0
C236 C 0.56731 0.81139 0.3567 0.0
C237 C 0.57927 0.83588 0.36465 0.0
C238 C 0.55005 0.808 0.31854 0.0
C239 C 0.5066 0.84784 0.24482 0.0
H240 H 0.50492 0.78863 0.15806 0.0
C241 C 0.44966 0.85438 0.0738 0.0
C242 C 0.43111 0.83451 0.06547 0.0
C243 C 0.46906 0.85111 0.10793 0.0
C244 C 0.50513 0.80512 0.18239 0.0
H245 H 0.58424 0.87529 0.33698 0.0
H246 H 0.55467 0.86925 0.27063 0.0
H247 H 0.53672 0.78906 0.22372 0.0
H248 H 0.41948 0.79486 0.08417 0.0
H249 H 0.45363 0.78928 0.14445 0.0
H250 H 0.4755 0.86416 0.2037 0.0
C251 C 0.55788 0.85293 0.29448 0.0
C252 C 0.52319 0.80535 0.21984 0.0
C253 C 0.57484 0.85637 0.33249 0.0
C254 C 0.43342 0.8106 0.08997 0.0
C255 C 0.45296 0.80733 0.1243 0.0
C256 C 0.4888 0.84766 0.2076 0.0
C257 C 0.5447 0.82902 0.28791 0.0
C258 C 0.52442 0.82705 0.25065 0.0
C259 C 0.47034 0.82794 0.13453 0.0
C260 C 0.48827 0.82662 0.17545 0.0
H261 H 0.57053 0.79523 0.38086 0.0
H262 H 0.54014 0.78935 0.3141 0.0
H263 H 0.50662 0.86449 0.26884 0.0
H264 H 0.44875 0.87287 0.05503 0.0
H265 H 0.48261 0.86709 0.11463 0.0
C266 C 0.15902 0.40505 0.17611 0.0
C267 C 0.17523 0.4009 0.1365 0.0
C268 C 0.1673 0.42128 0.2131 0.0
C269 C 0.19475 0.4509 0.29394 0.0
H270 H 0.20608 0.52129 0.24599 0.0
C271 C 0.20159 0.54561 0.41082 0.0
C272 C 0.17903 0.56076 0.40196 0.0
C273 C 0.20854 0.52518 0.37995 0.0
C274 C 0.20358 0.50163 0.25982 0.0
H275 H 0.2133 0.40939 0.10554 0.0
H276 H 0.2274 0.4385 0.16983 0.0
H277 H 0.20549 0.48408 0.19093 0.0
H278 H 0.1468 0.56749 0.35328 0.0
H279 H 0.15954 0.53246 0.29854 0.0
H280 H 0.19166 0.46879 0.36265 0.0
C281 C 0.20848 0.42887 0.17231 0.0
C282 C 0.20331 0.48039 0.2285 0.0
C283 C 0.20041 0.41222 0.13568 0.0
C284 C 0.1642 0.55597 0.36093 0.0
C285 C 0.17154 0.53611 0.32958 0.0
C286 C 0.19553 0.47213 0.32541 0.0
C287 C 0.19174 0.43397 0.21078 0.0
C288 C 0.19788 0.45501 0.24509 0.0
C289 C 0.19346 0.52032 0.33926 0.0
C290 C 0.19896 0.4977 0.30824 0.0
H291 H 0.1396 0.39642 0.17781 0.0
H292 H 0.15393 0.42512 0.2422 0.0
H293 H 0.19051 0.43148 0.30743 0.0
H294 H 0.21321 0.54892 0.44243 0.0
H295 H 0.22544 0.51304 0.388 0.0
C296 C 0.56045 0.82107 0.59968 0.0
C297 C 0.56696 0.84583 0.58118 0.0
C298 C 0.53872 0.81815 0.62934 0.0
C299 C 0.50146 0.82115 0.71321 0.0
H300 H 0.43783 0.8605 0.68686 0.0
C301 C 0.41015 0.86316 0.82529 0.0
C302 C 0.40331 0.84097 0.85198 0.0
C303 C 0.42665 0.86076 0.78613 0.0
C304 C 0.45545 0.84936 0.69455 0.0
H305 H 0.55599 0.88704 0.58028 0.0
H306 H 0.51841 0.88198 0.63269 0.0
H307 H 0.47459 0.86242 0.63145 0.0
H308 H 0.4071 0.79862 0.85686 0.0
H309 H 0.43611 0.79448 0.78821 0.0
H310 H 0.48257 0.80858 0.77683 0.0
C311 C 0.52981 0.86474 0.62341 0.0
C312 C 0.47652 0.85055 0.66302 0.0
C313 C 0.55151 0.86767 0.59372 0.0
C314 C 0.4121 0.8161 0.83709 0.0
C315 C 0.42881 0.81373 0.79801 0.0
C316 C 0.48037 0.81992 0.74468 0.0
C317 C 0.52306 0.83992 0.64119 0.0
C318 C 0.49995 0.83692 0.67256 0.0
C319 C 0.43674 0.83614 0.77293 0.0
C320 C 0.45738 0.83446 0.73616 0.0
H321 H 0.57185 0.80379 0.59066 0.0
H322 H 0.5339 0.79875 0.64227 0.0
H323 H 0.51934 0.81061 0.72174 0.0
H324 H 0.40349 0.88257 0.83557 0.0
H325 H 0.43257 0.87841 0.76773 0.0
C326 C 0.12876 0.44185 0.91173 0.0
C327 C 0.15172 0.42942 0.92784 0.0
C328 C 0.13018 0.46165 0.87779 0.0
C329 C 0.17396 0.48549 0.78331 0.0
H330 H 0.12513 0.54399 0.78042 0.0
C331 C 0.17863 0.56631 0.64123 0.0
C332 C 0.15464 0.57176 0.61859 0.0
C333 C 0.17924 0.55096 0.68207 0.0
C334 C 0.13884 0.5277 0.78084 0.0
H335 H 0.19427 0.42892 0.92289 0.0
H336 H 0.19679 0.46394 0.86469 0.0
H337 H 0.12484 0.51407 0.84782 0.0
H338 H 0.11241 0.56592 0.62175 0.0
H339 H 0.11356 0.5392 0.69318 0.0
H340 H 0.18792 0.49918 0.71634 0.0
C341 C 0.17763 0.45788 0.87721 0.0
C342 C 0.13864 0.51054 0.81928 0.0
C343 C 0.17619 0.4379 0.91074 0.0
C344 C 0.13124 0.56195 0.63815 0.0
C345 C 0.13184 0.54684 0.67925 0.0
C346 C 0.17431 0.50278 0.74516 0.0
C347 C 0.15462 0.46962 0.85962 0.0
C348 C 0.15598 0.48903 0.82065 0.0
C349 C 0.15586 0.54104 0.70133 0.0
C350 C 0.15654 0.52384 0.74331 0.0
H351 H 0.10959 0.43566 0.92405 0.0
H352 H 0.11204 0.47 0.86458 0.0
H353 H 0.18724 0.46886 0.78273 0.0
H354 H 0.19701 0.5736 0.62711 0.0
H355 H 0.19799 0.54688 0.69867 0.0
C356 C 0.41327 0.17317 0.66402 0.0
C357 C 0.41197 0.18619 0.62034 0.0
C358 C 0.43133 0.18102 0.69838 0.0
C359 C 0.4969 0.20516 0.70459 0.0
H360 H 0.48443 0.20579 0.84019 0.0
C361 C 0.55909 0.20193 0.89158 0.0
C362 C 0.57271 0.17824 0.88401 0.0
C363 C 0.54033 0.21051 0.85882 0.0
C364 C 0.48821 0.20617 0.80243 0.0
H365 H 0.42759 0.21835 0.57899 0.0
H366 H 0.45996 0.23162 0.63892 0.0
H367 H 0.44719 0.20834 0.78545 0.0
H368 H 0.57846 0.14572 0.83532 0.0
H369 H 0.5462 0.16101 0.77777 0.0
H370 H 0.53775 0.20107 0.72155 0.0
C371 C 0.44668 0.2156 0.6466 0.0
C372 C 0.46694 0.20753 0.7712 0.0
C373 C 0.42815 0.20808 0.61251 0.0
C374 C 0.56812 0.16394 0.84221 0.0
C375 C 0.54984 0.1728 0.80911 0.0
C376 C 0.51811 0.20339 0.7358 0.0
C377 C 0.44878 0.20173 0.68939 0.0
C378 C 0.47107 0.2062 0.72204 0.0
C379 C 0.53543 0.19587 0.81751 0.0
C380 C 0.51386 0.20304 0.78494 0.0
H381 H 0.40093 0.1563 0.67097 0.0
H382 H 0.43272 0.16981 0.73084 0.0
H383 H 0.5006 0.20386 0.66685 0.0
H384 H 0.56222 0.21328 0.9236 0.0
H385 H 0.52938 0.22834 0.86603 0.0
C386 C 0.80058 0.58028 0.82212 0.0
C387 C 0.82458 0.57712 0.84617 0.0
C388 C 0.79643 0.56787 0.77836 0.0
C389 C 0.83344 0.53588 0.68064 0.0
H390 H 0.77 0.49546 0.66037 0.0
C391 C 0.83223 0.45743 0.53675 0.0
C392 C 0.82107 0.43348 0.55044 0.0
C393 C 0.82703 0.48027 0.56257 0.0
C394 C 0.78787 0.50662 0.66547 0.0
H395 H 0.86277 0.55796 0.84354 0.0
H396 H 0.85537 0.53621 0.76878 0.0
H397 H 0.77249 0.52582 0.72722 0.0
H398 H 0.79501 0.41457 0.60041 0.0
H399 H 0.78731 0.45385 0.64743 0.0
H400 H 0.84992 0.51527 0.62223 0.0
C401 C 0.83999 0.5488 0.78265 0.0
C402 C 0.78911 0.52431 0.70341 0.0
C403 C 0.84413 0.56113 0.82592 0.0
C404 C 0.80386 0.43286 0.58922 0.0
C405 C 0.79923 0.45553 0.61582 0.0
C406 C 0.83239 0.51796 0.64339 0.0
C407 C 0.81626 0.55219 0.75808 0.0
C408 C 0.8124 0.53818 0.71256 0.0
C409 C 0.81124 0.47944 0.60351 0.0
C410 C 0.81 0.50226 0.63648 0.0
H411 H 0.78514 0.59252 0.83678 0.0
H412 H 0.7779 0.57074 0.76023 0.0
H413 H 0.85141 0.54685 0.68611 0.0
H414 H 0.84514 0.45846 0.50629 0.0
H415 H 0.83605 0.49841 0.55115 0.0
C416 C 0.92756 0.6389 0.83862 0.0
C417 C 0.91591 0.65945 0.86458 0.0
C418 C 0.94604 0.64416 0.80384 0.0
C419 C 0.97028 0.68895 0.71805 0.0
H420 H 0.03426 0.64827 0.73351 0.0
C421 C 0.05828 0.68267 0.58356 0.0
C422 C 0.06548 0.65657 0.57303 0.0
C423 C 0.03996 0.68805 0.61923 0.0
C424 C 0.01658 0.65988 0.72889 0.0
H425 H 0.91357 0.70182 0.8724 0.0
H426 H 0.94622 0.71099 0.81029 0.0
H427 H 0.00211 0.64978 0.79743 0.0
H428 H 0.05818 0.6157 0.59032 0.0
H429 H 0.02649 0.62518 0.6524 0.0
H430 H 0.98451 0.69803 0.64832 0.0
C431 C 0.94091 0.69085 0.81782 0.0
C432 C -0.00168 0.66083 0.76541 0.0
C433 C 0.92234 0.68557 0.85323 0.0
C434 C 0.05325 0.63601 0.59758 0.0
C435 C 0.0352 0.64141 0.63333 0.0
C436 C 0.98873 0.68803 0.68126 0.0
C437 C 0.9533 0.67005 0.79386 0.0
C438 C 0.97458 0.67446 0.75954 0.0
C439 C 0.02884 0.66744 0.64513 0.0
C440 C 0.01147 0.67256 0.68587 0.0
H441 H 0.92285 0.61856 0.84569 0.0
H442 H 0.95501 0.62785 0.78506 0.0
H443 H 0.95201 0.6995 0.71293 0.0
H444 H 0.06724 0.69896 0.56508 0.0
H445 H 0.03521 0.70827 0.62773 0.0
C446 C 0.29884 0.07866 0.6387 0.0
C447 C 0.32054 0.09562 0.63902 0.0
C448 C 0.2936 0.06288 0.67795 0.0
C449 C 0.33195 0.03307 0.77323 0.0
H450 H 0.2656 0.00037 0.80581 0.0
C451 C 0.33206 0.93345 0.85765 0.0
C452 C 0.31695 0.93007 0.89867 0.0
C453 C 0.32781 0.95491 0.82845 0.0
C454 C 0.28419 0.00957 0.79739 0.0
H455 H 0.35188 0.11187 0.68183 0.0
H456 H 0.34197 0.08542 0.75128 0.0
H457 H 0.26597 0.03943 0.75521 0.0
H458 H 0.28437 0.94523 0.93994 0.0
H459 H 0.2772 0.98359 0.88882 0.0
H460 H 0.35023 0.00353 0.81509 0.0
C461 C 0.32971 0.08326 0.72015 0.0
C462 C 0.28445 0.03177 0.76825 0.0
C463 C 0.33535 0.09849 0.68055 0.0
C464 C 0.29623 0.94754 0.90837 0.0
C465 C 0.29217 0.9694 0.87925 0.0
C466 C 0.33166 0.01116 0.80231 0.0
C467 C 0.30972 0.06422 0.71838 0.0
C468 C 0.30844 0.04339 0.75497 0.0
C469 C 0.30867 0.97374 0.84011 0.0
C470 C 0.30791 -0.00134 0.81344 0.0
H471 H 0.28711 0.07619 0.60696 0.0
H472 H 0.27814 0.04839 0.67516 0.0
H473 H 0.35086 0.04106 0.76333 0.0
H474 H 0.34786 0.91995 0.84905 0.0
H475 H 0.34029 0.95735 0.79768 0.0
C476 C 0.92207 0.374 0.6294 0.0
C477 C 0.91421 0.34965 0.61056 0.0
C478 C 0.93804 0.37512 0.66968 0.0
C479 C 0.96063 0.33479 0.7711 0.0
H480 H 0.01857 0.3841 0.77496 0.0
C481 C 0.04919 0.3235 0.89609 0.0
C482 C 0.05871 0.34618 0.91879 0.0
C483 C 0.02955 0.32534 0.86177 0.0
C484 C 0.00225 0.37047 0.77465 0.0
H485 H 0.9172 0.30739 0.61921 0.0
H486 H 0.94533 0.30939 0.68843 0.0
H487 H 0.98806 0.38488 0.70831 0.0
H488 H 0.05483 0.38857 0.92352 0.0
H489 H 0.0206 0.3917 0.86323 0.0
H490 H 0.97535 0.3199 0.83678 0.0
C491 C 0.93872 0.32764 0.67285 0.0
C492 C 0.98475 0.37094 0.73654 0.0
C493 C 0.92271 0.32651 0.63285 0.0
C494 C 0.0479 0.3707 0.90681 0.0
C495 C 0.02842 0.37255 0.87212 0.0
C496 C 0.97823 0.33422 0.80898 0.0
C497 C 0.94654 0.35193 0.69184 0.0
C498 C 0.96396 0.35284 0.73399 0.0
C499 C 0.01916 0.3499 0.84911 0.0
C500 C -0.0006 0.35182 0.81081 0.0
H501 H 0.91577 0.39221 0.61327 0.0
H502 H 0.94351 0.39416 0.68371 0.0
H503 H 0.9445 0.32095 0.77073 0.0
H504 H 0.05704 0.3043 0.90451 0.0
H505 H 0.02296 0.30758 0.84423 0.0
C506 C 0.64674 0.08942 0.80912 0.0
C507 C 0.66677 0.09531 0.84165 0.0
C508 C 0.65226 0.07502 0.76828 0.0
C509 C 0.69628 0.02355 0.72962 0.0
H510 H 0.6586 0.03191 0.61123 0.0
C511 C 0.69162 0.94209 0.58569 0.0
C512 C 0.66594 0.93687 0.56975 0.0
C513 C 0.69684 0.96442 0.61306 0.0
C514 C 0.66936 0.02939 0.64403 0.0
H515 H 0.70863 0.09214 0.85542 0.0
H516 H 0.71819 0.06666 0.78391 0.0
H517 H 0.65939 0.06795 0.66844 0.0
H518 H 0.62564 0.95105 0.57036 0.0
H519 H 0.63474 0.9896 0.61818 0.0
H520 H 0.70517 0.98453 0.70618 0.0
C521 C 0.69823 0.07316 0.79031 0.0
C522 C 0.66985 0.05 0.67664 0.0
C523 C 0.69274 0.08782 0.83109 0.0
C524 C 0.64565 0.95438 0.58196 0.0
C525 C 0.6509 0.97669 0.60894 0.0
C526 C 0.69579 0.00291 0.69695 0.0
C527 C 0.6779 0.06606 0.75918 0.0
C528 C 0.68241 0.04689 0.72054 0.0
C529 C 0.67653 0.98202 0.62458 0.0
C530 C 0.68141 0.0053 0.65474 0.0
H531 H 0.62658 0.09513 0.81601 0.0
H532 H 0.63611 0.06962 0.74523 0.0
H533 H 0.70595 0.02051 0.76335 0.0
H534 H 0.70772 0.92902 0.57687 0.0
H535 H 0.71677 0.96807 0.62481 0.0
C536 C 0.06744 0.28946 0.1287 0.0
C537 C 0.08001 0.31403 0.12937 0.0
C538 C 0.05116 0.28197 0.16629 0.0
C539 C 0.03433 0.29803 0.29064 0.0
H540 H 0.9626 0.28193 0.25448 0.0
C541 C 0.94659 0.33214 0.39771 0.0
C542 C 0.92478 0.31567 0.40414 0.0
C543 C 0.96739 0.32441 0.36885 0.0
C544 C 0.98266 0.28574 0.2653 0.0
H545 H 0.0866 0.34932 0.17092 0.0
H546 H 0.05853 0.33625 0.23623 0.0
H547 H -0.00274 0.28134 0.19452 0.0
H548 H 0.90779 0.27798 0.38553 0.0
H549 H 0.94426 0.26465 0.33372 0.0
H550 H 0.01953 0.30391 0.36081 0.0
C551 C 0.06114 0.32274 0.20685 0.0
C552 C 0.0025 0.2854 0.23101 0.0
C553 C 0.07703 0.33036 0.16919 0.0
C554 C 0.92435 0.29108 0.38126 0.0
C555 C 0.94514 0.28347 0.35165 0.0
C556 C 0.01456 0.29838 0.32481 0.0
C557 C 0.04765 0.29871 0.20546 0.0
C558 C 0.02828 0.29273 0.24303 0.0
C559 C 0.96686 0.3001 0.34531 0.0
C560 C 0.98835 0.29344 0.31202 0.0
H561 H 0.06937 0.27648 0.09841 0.0
H562 H 0.04099 0.26333 0.16441 0.0
H563 H 0.05414 0.30329 0.30099 0.0
H564 H 0.94767 0.35113 0.41502 0.0
H565 H 0.98363 0.33786 0.36396 0.0
C566 C 0.68656 0.9111 0.32319 0.0
C567 C 0.6671 0.91809 0.35634 0.0
C568 C 0.6883 0.92438 0.2799 0.0
C569 C 0.64724 0.96487 0.20082 0.0
H570 H 0.71294 0.99044 0.14941 0.0
C571 C 0.64599 0.03463 0.0433 0.0
C572 C 0.66233 0.05665 0.04815 0.0
C573 C 0.64967 0.01269 0.07207 0.0
C574 C 0.69443 0.9834 0.1633 0.0
H575 H 0.63534 0.94541 0.37135 0.0
H576 H 0.63873 0.96862 0.29703 0.0
H577 H 0.71339 0.96226 0.21931 0.0
H578 H 0.69602 0.07258 0.08551 0.0
H579 H 0.70168 0.03497 0.13704 0.0
H580 H 0.628 0.98721 0.14753 0.0
C581 C 0.65206 0.95242 0.30348 0.0
C582 C 0.69474 0.96703 0.203 0.0
C583 C 0.65026 0.9392 0.34628 0.0
C584 C 0.68309 0.05589 0.08093 0.0
C585 C 0.68649 0.03416 0.11022 0.0
C586 C 0.6469 0.98133 0.1616 0.0
C587 C 0.67064 0.9448 0.26933 0.0
C588 C 0.67105 0.95842 0.2231 0.0
C589 C 0.66945 0.01253 0.10693 0.0
C590 C 0.67042 0.99149 0.14321 0.0
H591 H 0.6998 0.89488 0.33001 0.0
H592 H 0.70289 0.9182 0.25423 0.0
H593 H 0.62868 0.95802 0.21493 0.0
H594 H 0.63012 0.03448 0.01774 0.0
H595 H 0.63655 -0.00386 0.06782 0.0
C596 C 0.94026 0.61801 0.0899 0.0
C597 C 0.92608 0.6408 0.07831 0.0
C598 C 0.96091 0.61912 0.12225 0.0
C599 C 0.00825 0.66428 0.17734 0.0
H600 H 0.01307 0.60981 0.27251 0.0
C601 C 0.07706 0.66871 0.34105 0.0
C602 C 0.08793 0.64486 0.35648 0.0
C603 C 0.05937 0.66905 0.30318 0.0
C604 C 0.01226 0.62495 0.2457 0.0
H605 H 0.92251 0.68267 0.09186 0.0
H606 H 0.95849 0.68446 0.14878 0.0
H607 H 0.97741 0.60877 0.21533 0.0
H608 H 0.09068 0.60307 0.34194 0.0
H609 H 0.06034 0.60379 0.27547 0.0
H610 H 0.04315 0.68052 0.20815 0.0
C611 C 0.95373 0.66583 0.1323 0.0
C612 C 0.99178 0.62437 0.21305 0.0
C613 C 0.933 0.66473 0.09998 0.0
C614 C 0.08222 0.62169 0.33141 0.0
C615 C 0.06477 0.62207 0.29347 0.0
C616 C 0.02884 0.66484 0.21009 0.0
C617 C 0.96786 0.64303 0.14373 0.0
C618 C 0.98959 0.64397 0.17848 0.0
C619 C 0.05245 0.64558 0.28001 0.0
C620 C 0.03108 0.64509 0.24447 0.0
H621 H 0.93555 0.59926 0.0738 0.0
H622 H 0.97167 0.60128 0.13002 0.0
H623 H 0.00714 0.67951 0.15074 0.0
H624 H 0.08112 0.68687 0.35973 0.0
H625 H 0.05013 0.68746 0.29365 0.0
C626 C 0.36931 0.93046 0.13265 0.0
C627 C 0.3451 0.92177 0.11455 0.0
C628 C 0.37028 0.94562 0.17389 0.0
C629 C 0.33073 0.96521 0.27878 0.0
H630 H 0.37946 0.02362 0.28327 0.0
C631 C 0.32255 0.05229 0.40953 0.0
C632 C 0.34594 0.06187 0.42963 0.0
C633 C 0.32329 0.03244 0.37533 0.0
C634 C 0.36602 0.00715 0.2828 0.0
H635 H 0.30289 0.92228 0.12553 0.0
H636 H 0.30453 0.94935 0.19665 0.0
H637 H 0.37902 0.99479 0.21433 0.0
H638 H 0.38839 0.05743 0.43079 0.0
H639 H 0.38959 0.02288 0.37081 0.0
H640 H 0.31717 0.9783 0.34678 0.0
C641 C 0.32283 0.94392 0.17965 0.0
C642 C 0.36577 0.9906 0.24334 0.0
C643 C 0.32188 0.92856 0.13864 0.0
C644 C 0.37 0.0505 0.41605 0.0
C645 C 0.37074 0.03084 0.38152 0.0
C646 C 0.33082 0.98193 0.31809 0.0
C647 C 0.34704 0.95265 0.19775 0.0
C648 C 0.34799 0.96954 0.24068 0.0
C649 C 0.34743 0.02196 0.36027 0.0
C650 C 0.34836 0.00314 0.3203 0.0
H651 H 0.3876 0.92534 0.11526 0.0
H652 H 0.38928 0.95165 0.18727 0.0
H653 H 0.31711 0.9489 0.27825 0.0
H654 H 0.30368 0.06054 0.41935 0.0
H655 H 0.30504 0.02606 0.35927 0.0
C656 C 0.77069 0.28257 0.3961 0.0
C657 C 0.79629 0.2775 0.41237 0.0
C658 C 0.75741 0.26411 0.36873 0.0
C659 C 0.76932 0.2119 0.28441 0.0
H660 H 0.6942 0.20117 0.29733 0.0
C661 C 0.71032 0.1586 0.14029 0.0
C662 C 0.68786 0.1724 0.12529 0.0
C663 C 0.72282 0.16527 0.18261 0.0
C664 C 0.71518 0.20391 0.29337 0.0
H665 H 0.82786 0.24879 0.41329 0.0
H666 H 0.80457 0.21652 0.36457 0.0
H667 H 0.71825 0.22431 0.35954 0.0
H668 H 0.66022 0.20321 0.14422 0.0
H669 H 0.6823 0.21514 0.2175 0.0
H670 H 0.76614 0.19271 0.21727 0.0
C671 C 0.7949 0.23487 0.37334 0.0
C672 C 0.72893 0.21709 0.32894 0.0
C673 C 0.80818 0.25332 0.40117 0.0
C674 C 0.67753 0.19225 0.15457 0.0
C675 C 0.69007 0.19893 0.19684 0.0
C676 C 0.75557 0.19877 0.24878 0.0
C677 C 0.76943 0.24018 0.35675 0.0
C678 C 0.75594 0.22199 0.32396 0.0
C679 C 0.71313 0.18587 0.2108 0.0
C680 C 0.72822 0.19546 0.25218 0.0
H681 H 0.76085 0.30091 0.40428 0.0
H682 H 0.73797 0.26894 0.35573 0.0
H683 H 0.7901 0.2156 0.27949 0.0
H684 H 0.71863 0.14295 0.11891 0.0
H685 H 0.74038 0.15465 0.19281 0.0
C686 C 0.81563 0.69635 0.13288 0.0
C687 C 0.80418 0.67467 0.10988 0.0
C688 C 0.80376 0.70741 0.17272 0.0
C689 C 0.73888 0.7147 0.22607 0.0
H690 H 0.77798 0.74467 0.33103 0.0
C691 C 0.68767 0.76866 0.37957 0.0
C692 C 0.69882 0.79279 0.39315 0.0
C693 C 0.70114 0.7517 0.34926 0.0
C694 C 0.76686 0.73648 0.30181 0.0
H695 H 0.772 0.64674 0.11238 0.0
H696 H 0.75142 0.66603 0.18225 0.0
H697 H 0.80091 0.71832 0.27147 0.0
H698 H 0.73307 0.81784 0.38589 0.0
H699 H 0.75643 0.78828 0.33242 0.0
H700 H 0.70495 0.73324 0.25573 0.0
C701 C 0.76936 0.67468 0.16883 0.0
C702 C 0.77995 0.72139 0.26783 0.0
C703 C 0.78121 0.6636 0.1289 0.0
C704 C 0.72389 0.79943 0.37612 0.0
C705 C 0.73738 0.78241 0.3458 0.0
C706 C 0.72581 0.72973 0.26004 0.0
C707 C 0.78023 0.69702 0.19052 0.0
C708 C 0.76613 0.71069 0.22924 0.0
C709 C 0.72605 0.75847 0.33189 0.0
C710 C 0.73973 0.74108 0.29784 0.0
H711 H 0.83338 0.70533 0.11936 0.0
H712 H 0.81247 0.72479 0.18837 0.0
H713 H 0.72778 0.7071 0.19631 0.0
H714 H 0.66846 0.76282 0.39221 0.0
H715 H 0.69208 0.73323 0.33949 0.0
C716 C 0.29198 0.81029 0.1434 0.0
C717 C 0.31266 0.80113 0.11478 0.0
C718 C 0.28414 0.79615 0.18308 0.0
C719 C 0.28344 0.72945 0.22938 0.0
H720 H 0.25882 0.76446 0.34331 0.0
C721 C 0.23341 0.6747 0.38462 0.0
C722 C 0.20942 0.68608 0.39864 0.0
C723 C 0.25035 0.68818 0.35434 0.0
C724 C 0.26573 0.75445 0.31174 0.0
H725 H 0.34189 0.77031 0.10636 0.0
H726 H 0.32813 0.74569 0.17588 0.0
H727 H 0.28154 0.78972 0.28255 0.0
H728 H 0.18451 0.72058 0.39206 0.0
H729 H 0.21397 0.74387 0.33936 0.0
H730 H 0.26693 0.69431 0.25813 0.0
C731 C 0.31787 0.76368 0.16716 0.0
C732 C 0.27866 0.76887 0.27702 0.0
C733 C 0.32574 0.77783 0.12741 0.0
C734 C 0.20278 0.71118 0.3819 0.0
C735 C 0.21977 0.72467 0.3521 0.0
C736 C 0.27058 0.715 0.26425 0.0
C737 C 0.29683 0.77258 0.19508 0.0
C738 C 0.28688 0.75666 0.23486 0.0
C739 C 0.24369 0.71334 0.3381 0.0
C740 C 0.2609 0.72757 0.30499 0.0
H741 H 0.28151 0.82818 0.1348 0.0
H742 H 0.26758 0.80329 0.20353 0.0
H743 H 0.28939 0.71956 0.19707 0.0
H744 H 0.23908 0.65539 0.39692 0.0
H745 H 0.26871 0.67906 0.34392 0.0
C746 C 0.31948 0.19978 0.33548 0.0
C747 C 0.31051 0.17728 0.35916 0.0
C748 C 0.30806 0.20742 0.29274 0.0
C749 C 0.24524 0.20292 0.23188 0.0
H750 H 0.28279 0.23687 0.12953 0.0
C751 C 0.18996 0.25427 0.08089 0.0
C752 C 0.199 0.2797 0.07072 0.0
C753 C 0.20513 0.23724 0.10827 0.0
C754 C 0.27205 0.22742 0.15786 0.0
H755 H 0.28366 0.14422 0.35481 0.0
H756 H 0.26385 0.15761 0.28026 0.0
H757 H 0.30739 0.21469 0.19206 0.0
H758 H 0.23154 0.30681 0.08009 0.0
H759 H 0.2576 0.27738 0.12844 0.0
H760 H 0.20999 0.21651 0.19907 0.0
C761 C 0.27943 0.16952 0.2952 0.0
C762 C 0.28612 0.21474 0.19355 0.0
C763 C 0.29083 0.16186 0.3379 0.0
C764 C 0.22389 0.2874 0.08728 0.0
C765 C 0.239 0.27041 0.11467 0.0
C766 C 0.2312 0.21565 0.19632 0.0
C767 C 0.28748 0.19271 0.27282 0.0
C768 C 0.27285 0.20292 0.2315 0.0
C769 C 0.22963 0.24529 0.12606 0.0
C770 C 0.24447 0.22861 0.15959 0.0
H771 H 0.3347 0.21203 0.35069 0.0
H772 H 0.31451 0.22553 0.27651 0.0
H773 H 0.23446 0.1943 0.26101 0.0
H774 H 0.17098 0.24761 0.06835 0.0
H775 H 0.19754 0.21788 0.11606 0.0
C776 C 0.16911 0.71774 0.62213 0.0
C777 C 0.18161 0.6938 0.61129 0.0
C778 C 0.17648 0.73214 0.66215 0.0
C779 C 0.21156 0.72612 0.7761 0.0
H780 H 0.22767 0.79987 0.75874 0.0
C781 C 0.28757 0.78014 0.88742 0.0
C782 C 0.28233 0.8059 0.90269 0.0
C783 C 0.27033 0.76731 0.85693 0.0
C784 C 0.22275 0.77944 0.76443 0.0
H785 H 0.21138 0.66607 0.63448 0.0
H786 H 0.22437 0.6913 0.70364 0.0
H787 H 0.20602 0.77547 0.69525 0.0
H788 H 0.25474 0.83836 0.89813 0.0
H789 H 0.22467 0.81583 0.84399 0.0
H790 H 0.22931 0.72983 0.84446 0.0
C791 C 0.20864 0.69877 0.6816 0.0
C792 C 0.21037 0.76548 0.72814 0.0
C793 C 0.20136 0.68443 0.64164 0.0
C794 C 0.25933 0.81851 0.88698 0.0
C795 C 0.24215 0.80569 0.856 0.0
C796 C 0.22397 0.74004 0.81226 0.0
C797 C 0.19636 0.72279 0.69216 0.0
C798 C 0.20546 0.73849 0.7331 0.0
C799 C 0.24754 0.77998 0.84078 0.0
C800 C 0.23044 0.76659 0.80611 0.0
H801 H 0.15373 0.72547 0.59961 0.0
H802 H 0.16663 0.75055 0.66964 0.0
H803 H 0.20749 0.70546 0.7812 0.0
H804 H 0.30503 0.76979 0.89897 0.0
H805 H 0.27518 0.74763 0.8451 0.0
C806 C 0.26141 0.20285 0.57318 0.0
C807 C 0.28789 0.20994 0.56718 0.0
C808 C 0.2449 0.21774 0.60209 0.0
C809 C 0.23804 0.28112 0.66535 0.0
H810 H 0.19875 0.23922 0.75524 0.0
C811 C 0.20061 0.3206 0.84428 0.0
C812 C 0.17697 0.31066 0.86274 0.0
C813 C 0.21066 0.31101 0.80163 0.0
C814 C 0.2091 0.25127 0.72983 0.0
H815 H 0.31745 0.23899 0.58508 0.0
H816 H 0.28864 0.26479 0.63637 0.0
H817 H 0.22296 0.21763 0.69209 0.0
H818 H 0.14454 0.28402 0.84924 0.0
H819 H 0.16201 0.26751 0.77449 0.0
H820 H 0.22462 0.31478 0.70418 0.0
C821 C 0.28063 0.24783 0.6182 0.0
C822 C 0.22303 0.23888 0.69363 0.0
C823 C 0.29717 0.23296 0.58905 0.0
C824 C 0.16297 0.29186 0.83637 0.0
C825 C 0.173 0.28234 0.7936 0.0
C826 C 0.22401 0.29357 0.70163 0.0
C827 C 0.2545 0.24 0.62585 0.0
C828 C 0.23796 0.25362 0.66143 0.0
C829 C 0.19727 0.29135 0.77638 0.0
C830 C 0.20974 0.27871 0.73469 0.0
H831 H 0.25347 0.18546 0.55628 0.0
H832 H 0.22472 0.21151 0.60663 0.0
H833 H 0.24913 0.29298 0.64068 0.0
H834 H 0.21188 0.33516 0.86351 0.0
H835 H 0.22954 0.31816 0.78961 0.0
C836 C 0.8084 0.29589 0.65236 0.0
C837 C 0.79728 0.31466 0.62197 0.0
C838 C 0.7962 0.28967 0.69503 0.0
C839 C 0.73135 0.28891 0.74947 0.0
H840 H 0.7711 0.26885 0.86089 0.0
C841 C 0.68218 0.23754 0.90685 0.0
C842 C 0.6947 0.21386 0.91894 0.0
C843 C 0.69496 0.2559 0.87844 0.0
C844 C 0.75976 0.27456 0.83013 0.0
H845 H 0.76511 0.34234 0.61349 0.0
H846 H 0.74388 0.33143 0.68823 0.0
H847 H 0.79336 0.29073 0.79537 0.0
H848 H 0.73091 0.19149 0.91271 0.0
H849 H 0.75302 0.22338 0.86294 0.0
H850 H 0.69798 0.27187 0.7834 0.0
C851 C 0.76187 0.32136 0.67862 0.0
C852 C 0.77246 0.287 0.79266 0.0
C853 C 0.77405 0.32756 0.63581 0.0
C854 C 0.72062 0.20943 0.90374 0.0
C855 C 0.73342 0.22783 0.87565 0.0
C856 C 0.71864 0.27657 0.787 0.0
C857 C 0.77269 0.30214 0.70838 0.0
C858 C 0.75855 0.29342 0.75128 0.0
C859 C 0.72054 0.25099 0.862 0.0
C860 C 0.73292 0.26846 0.82691 0.0
H861 H 0.8263 0.28562 0.6429 0.0
H862 H 0.80478 0.27444 0.71681 0.0
H863 H 0.72014 0.2934 0.7179 0.0
H864 H 0.66225 0.24162 0.91819 0.0
H865 H 0.68468 0.27369 0.86856 0.0
C866 C 0.71261 0.82516 0.62884 0.0
C867 C 0.69032 0.81352 0.60821 0.0
C868 C 0.72412 0.81421 0.66904 0.0
C869 C 0.71271 0.76716 0.76648 0.0
H870 H 0.78834 0.75824 0.76111 0.0
C871 C 0.76886 0.69098 0.87766 0.0
C872 C 0.79337 0.69829 0.89646 0.0
C873 C 0.75538 0.70779 0.84722 0.0
C874 C 0.76727 0.76096 0.76356 0.0
H875 H 0.66215 0.78171 0.61473 0.0
H876 H 0.68251 0.76246 0.68421 0.0
H877 H 0.76619 0.78333 0.69976 0.0
H878 H 0.82256 0.72937 0.89898 0.0
H879 H 0.79893 0.75862 0.84603 0.0
H880 H 0.71382 0.74412 0.82972 0.0
C881 C 0.69088 0.78023 0.66966 0.0
C882 C 0.75458 0.77536 0.72846 0.0
C883 C 0.67935 0.79117 0.62955 0.0
C884 C 0.80382 0.723 0.8849 0.0
C885 C 0.79034 0.73977 0.85446 0.0
C886 C 0.72541 0.7527 0.80158 0.0
C887 C 0.7136 0.79141 0.6894 0.0
C888 C 0.72714 0.77828 0.72918 0.0
C889 C 0.76613 0.73221 0.83496 0.0
C890 C 0.75277 0.74916 0.80005 0.0
H891 H 0.72143 0.84252 0.6136 0.0
H892 H 0.74144 0.82343 0.68391 0.0
H893 H 0.69156 0.76942 0.76825 0.0
H894 H 0.76022 0.67211 0.88585 0.0
H895 H 0.73688 0.70133 0.83223 0.0
loop_
_geom_bond_atom_site_label_1
_geom_bond_atom_site_label_2
_geom_bond_distance
_geom_bond_site_symmetry_2
_ccdc_geom_bond_type
Sc0 O3 2.025 . S
Sc0 O10 2.105 1_554 S
Sc0 O13 2.105 . S
Sc0 O16 2.105 . S
Sc0 O19 2.105 1_554 S
Sc1 O3 2.025 . S
Sc1 O11 2.105 1_554 S
Sc1 O15 2.105 . S
Sc1 O17 2.105 . S
Sc1 O21 2.105 1_554 S
Sc2 O3 2.025 . S
Sc2 O12 2.105 1_554 S
Sc2 O14 2.105 . S
Sc2 O18 2.105 . S
Sc2 O20 2.105 1_554 S
O3 Sc0 2.025 . S
O3 Sc1 2.025 . S
O3 Sc2 2.025 . S
C4 O10 1.268 . S
C4 O20 1.268 . S
C5 O11 1.268 . S
C5 O19 1.268 . S
C6 O12 1.268 . S
C6 O21 1.268 . S
C7 O13 1.268 . S
C7 O17 1.268 . S
C8 O14 1.268 . S
C8 O16 1.268 . S
C9 O15 1.268 . S
C9 O18 1.268 . S
O10 Sc0 2.105 1_556 S
O10 C4 1.268 . S
O11 Sc1 2.105 1_556 S
O11 C5 1.268 . S
O12 Sc2 2.105 1_556 S
O12 C6 1.268 . S
O13 Sc0 2.105 . S
O13 C7 1.268 . S
O14 Sc2 2.105 . S
O14 C8 1.268 . S
O15 Sc1 2.105 . S
O15 C9 1.268 . S
O16 Sc0 2.105 . S
O16 C8 1.268 . S
O17 Sc1 2.105 . S
O17 C7 1.268 . S
O18 Sc2 2.105 . S
O18 C9 1.268 . S
O19 Sc0 2.105 1_556 S
O19 C5 1.268 . S
O20 Sc2 2.105 1_556 S
O20 C4 1.268 . S
O21 Sc1 2.105 1_556 S
O21 C6 1.268 . S
Sc22 O25 2.025 . S
Sc22 O32 2.105 1_554 S
Sc22 O35 2.105 . S
Sc22 O38 2.105 . S
Sc22 O41 2.105 1_554 S
Sc23 O25 2.025 . S
Sc23 O33 2.105 1_554 S
Sc23 O37 2.105 . S
Sc23 O39 2.105 . S
Sc23 O43 2.105 1_554 S
Sc24 O25 2.025 . S
Sc24 O34 2.105 1_554 S
Sc24 O36 2.105 . S
Sc24 O40 2.105 . S
Sc24 O42 2.105 1_554 S
O25 Sc22 2.025 . S
O25 Sc23 2.025 . S
O25 Sc24 2.025 . S
C26 O32 1.268 . S
C26 O42 1.268 . S
C27 O33 1.268 . S
C27 O41 1.268 . S
C28 O34 1.268 . S
C28 O43 1.268 . S
C29 O35 1.268 . S
C29 O39 1.268 . S
C30 O36 1.268 . S
C30 O38 1.268 . S
C31 O37 1.268 . S
C31 O40 1.268 . S
O32 Sc22 2.105 1_556 S
O32 C26 1.268 . S
O33 Sc23 2.105 1_556 S
O33 C27 1.268 . S
O34 Sc24 2.105 1_556 S
O34 C28 1.268 . S
O35 Sc22 2.105 . S
O35 C29 1.268 . S
O36 Sc24 2.105 . S
O36 C30 1.268 . S
O37 Sc23 2.105 . S
O37 C31 1.268 . S
O38 Sc22 2.105 . S
O38 C30 1.268 . S
O39 Sc23 2.105 . S
O39 C29 1.268 . S
O40 Sc24 2.105 . S
O40 C31 1.268 . S
O41 Sc22 2.105 1_556 S
O41 C27 1.268 . S
O42 Sc24 2.105 1_556 S
O42 C26 1.268 . S
O43 Sc23 2.105 1_556 S
O43 C28 1.268 . S
Sc44 O47 2.025 . S
Sc44 O54 2.105 1_554 S
Sc44 O57 2.105 . S
Sc44 O60 2.105 . S
Sc44 O63 2.105 1_554 S
Sc45 O47 2.025 . S
Sc45 O55 2.105 1_554 S
Sc45 O59 2.105 . S
Sc45 O61 2.105 . S
Sc45 O65 2.105 1_554 S
Sc46 O47 2.025 . S
Sc46 O56 2.105 1_554 S
Sc46 O58 2.105 . S
Sc46 O62 2.105 . S
Sc46 O64 2.105 1_554 S
O47 Sc44 2.025 . S
O47 Sc45 2.025 . S
O47 Sc46 2.025 . S
C48 O54 1.268 . S
C48 O64 1.268 . S
C49 O55 1.268 . S
C49 O63 1.268 . S
C50 O56 1.268 . S
C50 O65 1.268 . S
C51 O57 1.268 . S
C51 O61 1.268 . S
C52 O58 1.268 . S
C52 O60 1.268 . S
C53 O59 1.268 . S
C53 O62 1.268 . S
O54 Sc44 2.105 1_556 S
O54 C48 1.268 . S
O55 Sc45 2.105 1_556 S
O55 C49 1.268 . S
O56 Sc46 2.105 1_556 S
O56 C50 1.268 . S
O57 Sc44 2.105 . S
O57 C51 1.268 . S
O58 Sc46 2.105 . S
O58 C52 1.268 . S
O59 Sc45 2.105 . S
O59 C53 1.268 . S
O60 Sc44 2.105 . S
O60 C52 1.268 . S
O61 Sc45 2.105 . S
O61 C51 1.268 . S
O62 Sc46 2.105 . S
O62 C53 1.268 . S
O63 Sc44 2.105 1_556 S
O63 C49 1.268 . S
O64 Sc46 2.105 1_556 S
O64 C48 1.268 . S
O65 Sc45 2.105 1_556 S
O65 C50 1.268 . S
Sc66 O69 2.025 . S
Sc66 O76 2.105 1_554 S
Sc66 O79 2.105 . S
Sc66 O82 2.105 . S
Sc66 O85 2.105 1_554 S
Sc67 O69 2.025 . S
Sc67 O77 2.105 1_554 S
Sc67 O81 2.105 . S
Sc67 O83 2.105 . S
Sc67 O87 2.105 1_554 S
Sc68 O69 2.025 . S
Sc68 O78 2.105 1_554 S
Sc68 O80 2.105 . S
Sc68 O84 2.105 . S
Sc68 O86 2.105 1_554 S
O69 Sc66 2.025 . S
O69 Sc67 2.025 . S
O69 Sc68 2.025 . S
C70 O76 1.268 . S
C70 O86 1.268 . S
C71 O77 1.268 . S
C71 O85 1.268 . S
C72 O78 1.268 . S
C72 O87 1.268 . S
C73 O79 1.268 . S
C73 O83 1.268 . S
C74 O80 1.268 . S
C74 O82 1.268 . S
C75 O81 1.268 . S
C75 O84 1.268 . S
O76 Sc66 2.105 1_556 S
O76 C70 1.268 . S
O77 Sc67 2.105 1_556 S
O77 C71 1.268 . S
O78 Sc68 2.105 1_556 S
O78 C72 1.268 . S
O79 Sc66 2.105 . S
O79 C73 1.268 . S
O80 Sc68 2.105 . S
O80 C74 1.268 . S
O81 Sc67 2.105 . S
O81 C75 1.268 . S
O82 Sc66 2.105 . S
O82 C74 1.268 . S
O83 Sc67 2.105 . S
O83 C73 1.268 . S
O84 Sc68 2.105 . S
O84 C75 1.268 . S
O85 Sc66 2.105 1_556 S
O85 C71 1.268 . S
O86 Sc68 2.105 1_556 S
O86 C70 1.268 . S
O87 Sc67 2.105 1_556 S
O87 C72 1.268 . S
Sc88 O91 2.025 . S
Sc88 O98 2.105 . S
Sc88 O101 2.105 . S
Sc88 O104 2.105 . S
Sc88 O107 2.105 . S
Sc89 O91 2.025 . S
Sc89 O99 2.105 . S
Sc89 O103 2.105 . S
Sc89 O105 2.105 . S
Sc89 O109 2.105 . S
Sc90 O91 2.025 . S
Sc90 O100 2.105 . S
Sc90 O102 2.105 . S
Sc90 O106 2.105 . S
Sc90 O108 2.105 . S
O91 Sc88 2.025 . S
O91 Sc89 2.025 . S
O91 Sc90 2.025 . S
C92 O98 1.268 . S
C92 O108 1.268 . S
C93 O99 1.268 . S
C93 O107 1.268 . S
C94 O100 1.268 . S
C94 O109 1.268 . S
C95 O101 1.268 . S
C95 O105 1.268 . S
C96 O102 1.268 . S
C96 O104 1.268 . S
C97 O103 1.268 . S
C97 O106 1.268 . S
O98 Sc88 2.105 . S
O98 C92 1.268 . S
O99 Sc89 2.105 . S
O99 C93 1.268 . S
O100 Sc90 2.105 . S
O100 C94 1.268 . S
O101 Sc88 2.105 . S
O101 C95 1.268 . S
O102 Sc90 2.105 . S
O102 C96 1.268 . S
O103 Sc89 2.105 . S
O103 C97 1.268 . S
O104 Sc88 2.105 . S
O104 C96 1.268 . S
O105 Sc89 2.105 . S
O105 C95 1.268 . S
O106 Sc90 2.105 . S
O106 C97 1.268 . S
O107 Sc88 2.105 . S
O107 C93 1.268 . S
O108 Sc90 2.105 . S
O108 C92 1.268 . S
O109 Sc89 2.105 . S
O109 C94 1.268 . S
Sc110 O113 2.025 . S
Sc110 O120 2.105 . S
Sc110 O123 2.105 . S
Sc110 O126 2.105 . S
Sc110 O129 2.105 . S
Sc111 O113 2.025 . S
Sc111 O121 2.105 . S
Sc111 O125 2.105 . S
Sc111 O127 2.105 . S
Sc111 O131 2.105 . S
Sc112 O113 2.025 . S
Sc112 O122 2.105 . S
Sc112 O124 2.105 . S
Sc112 O128 2.105 . S
Sc112 O130 2.105 . S
O113 Sc110 2.025 . S
O113 Sc111 2.025 . S
O113 Sc112 2.025 . S
C114 O120 1.268 . S
C114 O130 1.268 . S
C115 O121 1.268 . S
C115 O129 1.268 . S
C116 O122 1.268 . S
C116 O131 1.268 . S
C117 O123 1.268 . S
C117 O127 1.268 . S
C118 O124 1.268 . S
C118 O126 1.268 . S
C119 O125 1.268 . S
C119 O128 1.268 . S
O120 Sc110 2.105 . S
O120 C114 1.268 . S
O121 Sc111 2.105 . S
O121 C115 1.268 . S
O122 Sc112 2.105 . S
O122 C116 1.268 . S
O123 Sc110 2.105 . S
O123 C117 1.268 . S
O124 Sc112 2.105 . S
O124 C118 1.268 . S
O125 Sc111 2.105 . S
O125 C119 1.268 . S
O126 Sc110 2.105 . S
O126 C118 1.268 . S
O127 Sc111 2.105 . S
O127 C117 1.268 . S
O128 Sc112 2.105 . S
O128 C119 1.268 . S
O129 Sc110 2.105 . S
O129 C115 1.268 . S
O130 Sc112 2.105 . S
O130 C114 1.268 . S
O131 Sc111 2.105 . S
O131 C116 1.268 . S
Sc132 O135 2.025 . S
Sc132 O142 2.105 . S
Sc132 O145 2.105 . S
Sc132 O148 2.105 . S
Sc132 O151 2.105 . S
Sc133 O135 2.025 . S
Sc133 O143 2.105 . S
Sc133 O147 2.105 . S
Sc133 O149 2.105 . S
Sc133 O153 2.105 . S
Sc134 O135 2.025 . S
Sc134 O144 2.105 . S
Sc134 O146 2.105 . S
Sc134 O150 2.105 . S
Sc134 O152 2.105 . S
O135 Sc132 2.025 . S
O135 Sc133 2.025 . S
O135 Sc134 2.025 . S
C136 O142 1.268 . S
C136 O152 1.268 . S
C137 O143 1.268 . S
C137 O151 1.268 . S
C138 O144 1.268 . S
C138 O153 1.268 . S
C139 O145 1.268 . S
C139 O149 1.268 . S
C140 O146 1.268 . S
C140 O148 1.268 . S
C141 O147 1.268 . S
C141 O150 1.268 . S
O142 Sc132 2.105 . S
O142 C136 1.268 . S
O143 Sc133 2.105 . S
O143 C137 1.268 . S
O144 Sc134 2.105 . S
O144 C138 1.268 . S
O145 Sc132 2.105 . S
O145 C139 1.268 . S
O146 Sc134 2.105 . S
O146 C140 1.268 . S
O147 Sc133 2.105 . S
O147 C141 1.268 . S
O148 Sc132 2.105 . S
O148 C140 1.268 . S
O149 Sc133 2.105 . S
O149 C139 1.268 . S
O150 Sc134 2.105 . S
O150 C141 1.268 . S
O151 Sc132 2.105 . S
O151 C137 1.268 . S
O152 Sc134 2.105 . S
O152 C136 1.268 . S
O153 Sc133 2.105 . S
O153 C138 1.268 . S
Sc154 O157 2.025 . S
Sc154 O164 2.105 . S
Sc154 O167 2.105 . S
Sc154 O170 2.105 . S
Sc154 O173 2.105 . S
Sc155 O157 2.025 . S
Sc155 O165 2.105 . S
Sc155 O169 2.105 . S
Sc155 O171 2.105 . S
Sc155 O175 2.105 . S
Sc156 O157 2.025 . S
Sc156 O166 2.105 . S
Sc156 O168 2.105 . S
Sc156 O172 2.105 . S
Sc156 O174 2.105 . S
O157 Sc154 2.025 . S
O157 Sc155 2.025 . S
O157 Sc156 2.025 . S
C158 O164 1.268 . S
C158 O174 1.268 . S
C159 O165 1.268 . S
C159 O173 1.268 . S
C160 O166 1.268 . S
C160 O175 1.268 . S
C161 O167 1.268 . S
C161 O171 1.268 . S
C162 O168 1.268 . S
C162 O170 1.268 . S
C163 O169 1.268 . S
C163 O172 1.268 . S
O164 Sc154 2.105 . S
O164 C158 1.268 . S
O165 Sc155 2.105 . S
O165 C159 1.268 . S
O166 Sc156 2.105 . S
O166 C160 1.268 . S
O167 Sc154 2.105 . S
O167 C161 1.268 . S
O168 Sc156 2.105 . S
O168 C162 1.268 . S
O169 Sc155 2.105 . S
O169 C163 1.268 . S
O170 Sc154 2.105 . S
O170 C162 1.268 . S
O171 Sc155 2.105 . S
O171 C161 1.268 . S
O172 Sc156 2.105 . S
O172 C163 1.268 . S
O173 Sc154 2.105 . S
O173 C159 1.268 . S
O174 Sc156 2.105 . S
O174 C158 1.268 . S
O175 Sc155 2.105 . S
O175 C160 1.268 . S
C176 C177 1.349 . S
C176 C178 1.327 . S
C176 H201 0.950 . S
C177 C176 1.349 . S
C177 C193 1.349 . S
C178 C176 1.327 . S
C178 C197 1.429 . S
C178 H202 0.950 . S
C179 C196 1.574 . S
C179 C198 1.368 . S
C179 H203 0.949 . S
H180 C184 0.949 . S
C181 C182 1.349 . S
C181 C183 1.327 . S
C181 H204 0.950 . S
C182 C181 1.349 . S
C182 C194 1.349 . S
C183 C181 1.327 . S
C183 C199 1.429 . S
C183 H205 0.950 . S
C184 H180 0.949 . S
C184 C192 1.574 . S
C184 C200 1.368 . S
H185 C193 0.950 . S
H186 C191 0.950 . S
H187 C192 0.949 . S
H188 C194 0.950 . S
H189 C195 0.950 . S
H190 C196 0.949 . S
C191 H186 0.950 . S
C191 C193 1.327 . S
C191 C197 1.429 . S
C192 C184 1.574 . S
C192 H187 0.949 . S
C192 C198 1.368 . S
C193 C177 1.349 . S
C193 H185 0.950 . S
C193 C191 1.327 . S
C194 C182 1.349 . S
C194 H188 0.950 . S
C194 C195 1.327 . S
C195 H189 0.950 . S
C195 C194 1.327 . S
C195 C199 1.429 . S
C196 C179 1.574 . S
C196 H190 0.949 . S
C196 C200 1.368 . S
C197 C178 1.429 . S
C197 C191 1.429 . S
C197 C198 1.523 . S
C198 C179 1.368 . S
C198 C192 1.368 . S
C198 C197 1.523 . S
C199 C183 1.429 . S
C199 C195 1.429 . S
C199 C200 1.523 . S
C200 C184 1.368 . S
C200 C196 1.368 . S
C200 C199 1.523 . S
H201 C176 0.950 . S
H202 C178 0.950 . S
H203 C179 0.949 . S
H204 C181 0.950 . S
H205 C183 0.950 . S
C206 C207 1.349 . S
C206 C208 1.327 . S
C206 H231 0.950 . S
C207 C206 1.349 . S
C207 C223 1.349 . S
C208 C206 1.327 . S
C208 C227 1.429 . S
C208 H232 0.950 . S
C209 C226 1.574 . S
C209 C228 1.368 . S
C209 H233 0.949 . S
H210 C214 0.949 . S
C211 C212 1.349 . S
C211 C213 1.327 . S
C211 H234 0.950 . S
C212 C211 1.349 . S
C212 C224 1.349 . S
C213 C211 1.327 . S
C213 C229 1.429 . S
C213 H235 0.950 . S
C214 H210 0.949 . S
C214 C222 1.574 . S
C214 C230 1.368 . S
H215 C223 0.950 . S
H216 C221 0.950 . S
H217 C222 0.949 . S
H218 C224 0.950 . S
H219 C225 0.950 . S
H220 C226 0.949 . S
C221 H216 0.950 . S
C221 C223 1.327 . S
C221 C227 1.429 . S
C222 C214 1.574 . S
C222 H217 0.949 . S
C222 C228 1.368 . S
C223 C207 1.349 . S
C223 H215 0.950 . S
C223 C221 1.327 . S
C224 C212 1.349 . S
C224 H218 0.950 . S
C224 C225 1.327 . S
C225 H219 0.950 . S
C225 C224 1.327 . S
C225 C229 1.429 . S
C226 C209 1.574 . S
C226 H220 0.949 . S
C226 C230 1.368 . S
C227 C208 1.429 . S
C227 C221 1.429 . S
C227 C228 1.523 . S
C228 C209 1.368 . S
C228 C222 1.368 . S
C228 C227 1.523 . S
C229 C213 1.429 . S
C229 C225 1.429 . S
C229 C230 1.523 . S
C230 C214 1.368 . S
C230 C226 1.368 . S
C230 C229 1.523 . S
H231 C206 0.950 . S
H232 C208 0.950 . S
H233 C209 0.949 . S
H234 C211 0.950 . S
H235 C213 0.950 . S
C236 C237 1.349 . S
C236 C238 1.327 . S
C236 H261 0.950 . S
C237 C236 1.349 . S
C237 C253 1.349 . S
C238 C236 1.327 . S
C238 C257 1.429 . S
C238 H262 0.950 . S
C239 C256 1.574 . S
C239 C258 1.368 . S
C239 H263 0.949 . S
H240 C244 0.949 . S
C241 C242 1.349 . S
C241 C243 1.327 . S
C241 H264 0.950 . S
C242 C241 1.349 . S
C242 C254 1.349 . S
C243 C241 1.327 . S
C243 C259 1.429 . S
C243 H265 0.950 . S
C244 H240 0.949 . S
C244 C252 1.574 . S
C244 C260 1.368 . S
H245 C253 0.950 . S
H246 C251 0.950 . S
H247 C252 0.949 . S
H248 C254 0.950 . S
H249 C255 0.950 . S
H250 C256 0.949 . S
C251 H246 0.950 . S
C251 C253 1.327 . S
C251 C257 1.429 . S
C252 C244 1.574 . S
C252 H247 0.949 . S
C252 C258 1.368 . S
C253 C237 1.349 . S
C253 H245 0.950 . S
C253 C251 1.327 . S
C254 C242 1.349 . S
C254 H248 0.950 . S
C254 C255 1.327 . S
C255 H249 0.950 . S
C255 C254 1.327 . S
C255 C259 1.429 . S
C256 C239 1.574 . S
C256 H250 0.949 . S
C256 C260 1.368 . S
C257 C238 1.429 . S
C257 C251 1.429 . S
C257 C258 1.523 . S
C258 C239 1.368 . S
C258 C252 1.368 . S
C258 C257 1.523 . S
C259 C243 1.429 . S
C259 C255 1.429 . S
C259 C260 1.523 . S
C260 C244 1.368 . S
C260 C256 1.368 . S
C260 C259 1.523 . S
H261 C236 0.950 . S
H262 C238 0.950 . S
H263 C239 0.949 . S
H264 C241 0.950 . S
H265 C243 0.950 . S
C266 C267 1.349 . S
C266 C268 1.327 . S
C266 H291 0.950 . S
C267 C266 1.349 . S
C267 C283 1.349 . S
C268 C266 1.327 . S
C268 C287 1.429 . S
C268 H292 0.950 . S
C269 C286 1.574 . S
C269 C288 1.368 . S
C269 H293 0.949 . S
H270 C274 0.949 . S
C271 C272 1.349 . S
C271 C273 1.327 . S
C271 H294 0.950 . S
C272 C271 1.349 . S
C272 C284 1.349 . S
C273 C271 1.327 . S
C273 C289 1.429 . S
C273 H295 0.950 . S
C274 H270 0.949 . S
C274 C282 1.574 . S
C274 C290 1.368 . S
H275 C283 0.950 . S
H276 C281 0.950 . S
H277 C282 0.949 . S
H278 C284 0.950 . S
H279 C285 0.950 . S
H280 C286 0.949 . S
C281 H276 0.950 . S
C281 C283 1.327 . S
C281 C287 1.429 . S
C282 C274 1.574 . S
C282 H277 0.949 . S
C282 C288 1.368 . S
C283 C267 1.349 . S
C283 H275 0.950 . S
C283 C281 1.327 . S
C284 C272 1.349 . S
C284 H278 0.950 . S
C284 C285 1.327 . S
C285 H279 0.950 . S
C285 C284 1.327 . S
C285 C289 1.429 . S
C286 C269 1.574 . S
C286 H280 0.949 . S
C286 C290 1.368 . S
C287 C268 1.429 . S
C287 C281 1.429 . S
C287 C288 1.523 . S
C288 C269 1.368 . S
C288 C282 1.368 . S
C288 C287 1.523 . S
C289 C273 1.429 . S
C289 C285 1.429 . S
C289 C290 1.523 . S
C290 C274 1.368 . S
C290 C286 1.368 . S
C290 C289 1.523 . S
H291 C266 0.950 . S
H292 C268 0.950 . S
H293 C269 0.949 . S
H294 C271 0.950 . S
H295 C273 0.950 . S
C296 C297 1.349 . S
C296 C298 1.327 . S
C296 H321 0.950 . S
C297 C296 1.349 . S
C297 C313 1.349 . S
C298 C296 1.327 . S
C298 C317 1.429 . S
C298 H322 0.950 . S
C299 C316 1.574 . S
C299 C318 1.368 . S
C299 H323 0.949 . S
H300 C304 0.949 . S
C301 C302 1.349 . S
C301 C303 1.327 . S
C301 H324 0.950 . S
C302 C301 1.349 . S
C302 C314 1.349 . S
C303 C301 1.327 . S
C303 C319 1.429 . S
C303 H325 0.950 . S
C304 H300 0.949 . S
C304 C312 1.574 . S
C304 C320 1.368 . S
H305 C313 0.950 . S
H306 C311 0.950 . S
H307 C312 0.949 . S
H308 C314 0.950 . S
H309 C315 0.950 . S
H310 C316 0.949 . S
C311 H306 0.950 . S
C311 C313 1.327 . S
C311 C317 1.429 . S
C312 C304 1.574 . S
C312 H307 0.949 . S
C312 C318 1.368 . S
C313 C297 1.349 . S
C313 H305 0.950 . S
C313 C311 1.327 . S
C314 C302 1.349 . S
C314 H308 0.950 . S
C314 C315 1.327 . S
C315 H309 0.950 . S
C315 C314 1.327 . S
C315 C319 1.429 . S
C316 C299 1.574 . S
C316 H310 0.949 . S
C316 C320 1.368 . S
C317 C298 1.429 . S
C317 C311 1.429 . S
C317 C318 1.523 . S
C318 C299 1.368 . S
C318 C312 1.368 . S
C318 C317 1.523 . S
C319 C303 1.429 . S
C319 C315 1.429 . S
C319 C320 1.523 . S
C320 C304 1.368 . S
C320 C316 1.368 . S
C320 C319 1.523 . S
H321 C296 0.950 . S
H322 C298 0.950 . S
H323 C299 0.949 . S
H324 C301 0.950 . S
H325 C303 0.950 . S
C326 C327 1.349 . S
C326 C328 1.327 . S
C326 H351 0.950 . S
C327 C326 1.349 . S
C327 C343 1.349 . S
C328 C326 1.327 . S
C328 C347 1.429 . S
C328 H352 0.950 . S
C329 C346 1.574 . S
C329 C348 1.368 . S
C329 H353 0.949 . S
H330 C334 0.949 . S
C331 C332 1.349 . S
C331 C333 1.327 . S
C331 H354 0.950 . S
C332 C331 1.349 . S
C332 C344 1.349 . S
C333 C331 1.327 . S
C333 C349 1.429 . S
C333 H355 0.950 . S
C334 H330 0.949 . S
C334 C342 1.574 . S
C334 C350 1.368 . S
H335 C343 0.950 . S
H336 C341 0.950 . S
H337 C342 0.949 . S
H338 C344 0.950 . S
H339 C345 0.950 . S
H340 C346 0.949 . S
C341 H336 0.950 . S
C341 C343 1.327 . S
C341 C347 1.429 . S
C342 C334 1.574 . S
C342 H337 0.949 . S
C342 C348 1.368 . S
C343 C327 1.349 . S
C343 H335 0.950 . S
C343 C341 1.327 . S
C344 C332 1.349 . S
C344 H338 0.950 . S
C344 C345 1.327 . S
C345 H339 0.950 . S
C345 C344 1.327 . S
C345 C349 1.429 . S
C346 C329 1.574 . S
C346 H340 0.949 . S
C346 C350 1.368 . S
C347 C328 1.429 . S
C347 C341 1.429 . S
C347 C348 1.523 . S
C348 C329 1.368 . S
C348 C342 1.368 . S
C348 C347 1.523 . S
C349 C333 1.429 . S
C349 C345 1.429 . S
C349 C350 1.523 . S
C350 C334 1.368 . S
C350 C346 1.368 . S
C350 C349 1.523 . S
H351 C326 0.950 . S
H352 C328 0.950 . S
H353 C329 0.949 . S
H354 C331 0.950 . S
H355 C333 0.950 . S
C356 C357 1.349 . S
C356 C358 1.327 . S
C356 H381 0.950 . S
C357 C356 1.349 . S
C357 C373 1.349 . S
C358 C356 1.327 . S
C358 C377 1.429 . S
C358 H382 0.950 . S
C359 C376 1.574 . S
C359 C378 1.368 . S
C359 H383 0.949 . S
H360 C364 0.949 . S
C361 C362 1.349 . S
C361 C363 1.327 . S
C361 H384 0.950 . S
C362 C361 1.349 . S
C362 C374 1.349 . S
C363 C361 1.327 . S
C363 C379 1.429 . S
C363 H385 0.950 . S
C364 H360 0.949 . S
C364 C372 1.574 . S
C364 C380 1.368 . S
H365 C373 0.950 . S
H366 C371 0.950 . S
H367 C372 0.949 . S
H368 C374 0.950 . S
H369 C375 0.950 . S
H370 C376 0.949 . S
C371 H366 0.950 . S
C371 C373 1.327 . S
C371 C377 1.429 . S
C372 C364 1.574 . S
C372 H367 0.949 . S
C372 C378 1.368 . S
C373 C357 1.349 . S
C373 H365 0.950 . S
C373 C371 1.327 . S
C374 C362 1.349 . S
C374 H368 0.950 . S
C374 C375 1.327 . S
C375 H369 0.950 . S
C375 C374 1.327 . S
C375 C379 1.429 . S
C376 C359 1.574 . S
C376 H370 0.949 . S
C376 C380 1.368 . S
C377 C358 1.429 . S
C377 C371 1.429 . S
C377 C378 1.523 . S
C378 C359 1.368 . S
C378 C372 1.368 . S
C378 C377 1.523 . S
C379 C363 1.429 . S
C379 C375 1.429 . S
C379 C380 1.523 . S
C380 C364 1.368 . S
C380 C376 1.368 . S
C380 C379 1.523 . S
H381 C356 0.950 . S
H382 C358 0.950 . S
H383 C359 0.949 . S
H384 C361 0.950 . S
H385 C363 0.950 . S
C386 C387 1.349 . S
C386 C388 1.327 . S
C386 H411 0.950 . S
C387 C386 1.349 . S
C387 C403 1.349 . S
C388 C386 1.327 . S
C388 C407 1.429 . S
C388 H412 0.950 . S
C389 C406 1.574 . S
C389 C408 1.368 . S
C389 H413 0.949 . S
H390 C394 0.949 . S
C391 C392 1.349 . S
C391 C393 1.327 . S
C391 H414 0.950 . S
C392 C391 1.349 . S
C392 C404 1.349 . S
C393 C391 1.327 . S
C393 C409 1.429 . S
C393 H415 0.950 . S
C394 H390 0.949 . S
C394 C402 1.574 . S
C394 C410 1.368 . S
H395 C403 0.950 . S
H396 C401 0.950 . S
H397 C402 0.949 . S
H398 C404 0.950 . S
H399 C405 0.950 . S
H400 C406 0.949 . S
C401 H396 0.950 . S
C401 C403 1.327 . S
C401 C407 1.429 . S
C402 C394 1.574 . S
C402 H397 0.949 . S
C402 C408 1.368 . S
C403 C387 1.349 . S
C403 H395 0.950 . S
C403 C401 1.327 . S
C404 C392 1.349 . S
C404 H398 0.950 . S
C404 C405 1.327 . S
C405 H399 0.950 . S
C405 C404 1.327 . S
C405 C409 1.429 . S
C406 C389 1.574 . S
C406 H400 0.949 . S
C406 C410 1.368 . S
C407 C388 1.429 . S
C407 C401 1.429 . S
C407 C408 1.523 . S
C408 C389 1.368 . S
C408 C402 1.368 . S
C408 C407 1.523 . S
C409 C393 1.429 . S
C409 C405 1.429 . S
C409 C410 1.523 . S
C410 C394 1.368 . S
C410 C406 1.368 . S
C410 C409 1.523 . S
H411 C386 0.950 . S
H412 C388 0.950 . S
H413 C389 0.949 . S
H414 C391 0.950 . S
H415 C393 0.950 . S
C416 C417 1.349 . S
C416 C418 1.327 . S
C416 H441 0.950 . S
C417 C416 1.349 . S
C417 C433 1.349 . S
C418 C416 1.327 . S
C418 C437 1.429 . S
C418 H442 0.950 . S
C419 C436 1.574 1_655 S
C419 C438 1.368 . S
C419 H443 0.949 . S
H420 C424 0.949 . S
C421 C422 1.349 . S
C421 C423 1.327 . S
C421 H444 0.950 . S
C422 C421 1.349 . S
C422 C434 1.349 . S
C423 C421 1.327 . S
C423 C439 1.429 . S
C423 H445 0.950 . S
C424 H420 0.949 . S
C424 C432 1.574 1_455 S
C424 C440 1.368 . S
H425 C433 0.950 . S
H426 C431 0.950 . S
H427 C432 0.949 . S
H428 C434 0.950 . S
H429 C435 0.950 . S
H430 C436 0.949 . S
C431 H426 0.950 . S
C431 C433 1.327 . S
C431 C437 1.429 . S
C432 C424 1.574 1_655 S
C432 H427 0.949 . S
C432 C438 1.368 . S
C433 C417 1.349 . S
C433 H425 0.950 . S
C433 C431 1.327 . S
C434 C422 1.349 . S
C434 H428 0.950 . S
C434 C435 1.327 . S
C435 H429 0.950 . S
C435 C434 1.327 . S
C435 C439 1.429 . S
C436 C419 1.574 1_455 S
C436 H430 0.949 . S
C436 C440 1.368 . S
C437 C418 1.429 . S
C437 C431 1.429 . S
C437 C438 1.523 . S
C438 C419 1.368 . S
C438 C432 1.368 . S
C438 C437 1.523 . S
C439 C423 1.429 . S
C439 C435 1.429 . S
C439 C440 1.523 . S
C440 C424 1.368 . S
C440 C436 1.368 . S
C440 C439 1.523 . S
H441 C416 0.950 . S
H442 C418 0.950 . S
H443 C419 0.949 . S
H444 C421 0.950 . S
H445 C423 0.950 . S
C446 C447 1.349 . S
C446 C448 1.327 . S
C446 H471 0.950 . S
C447 C446 1.349 . S
C447 C463 1.349 . S
C448 C446 1.327 . S
C448 C467 1.429 . S
C448 H472 0.950 . S
C449 C466 1.574 1_545 S
C449 C468 1.368 . S
C449 H473 0.949 . S
H450 C454 0.949 . S
C451 C452 1.349 . S
C451 C453 1.327 . S
C451 H474 0.950 . S
C452 C451 1.349 . S
C452 C464 1.349 . S
C453 C451 1.327 . S
C453 C469 1.429 . S
C453 H475 0.950 . S
C454 H450 0.949 . S
C454 C462 1.574 1_565 S
C454 C470 1.368 . S
H455 C463 0.950 . S
H456 C461 0.950 . S
H457 C462 0.949 . S
H458 C464 0.950 . S
H459 C465 0.950 . S
H460 C466 0.949 . S
C461 H456 0.950 . S
C461 C463 1.327 . S
C461 C467 1.429 . S
C462 C454 1.574 1_545 S
C462 H457 0.949 . S
C462 C468 1.368 . S
C463 C447 1.349 . S
C463 H455 0.950 . S
C463 C461 1.327 . S
C464 C452 1.349 . S
C464 H458 0.950 . S
C464 C465 1.327 . S
C465 H459 0.950 . S
C465 C464 1.327 . S
C465 C469 1.429 . S
C466 C449 1.574 1_565 S
C466 H460 0.949 . S
C466 C470 1.368 . S
C467 C448 1.429 . S
C467 C461 1.429 . S
C467 C468 1.523 . S
C468 C449 1.368 . S
C468 C462 1.368 . S
C468 C467 1.523 . S
C469 C453 1.429 . S
C469 C465 1.429 . S
C469 C470 1.523 . S
C470 C454 1.368 . S
C470 C466 1.368 . S
C470 C469 1.523 . S
H471 C446 0.950 . S
H472 C448 0.950 . S
H473 C449 0.949 . S
H474 C451 0.950 . S
H475 C453 0.950 . S
C476 C477 1.349 . S
C476 C478 1.327 . S
C476 H501 0.950 . S
C477 C476 1.349 . S
C477 C493 1.349 . S
C478 C476 1.327 . S
C478 C497 1.429 . S
C478 H502 0.950 . S
C479 C496 1.574 1_655 S
C479 C498 1.368 . S
C479 H503 0.949 . S
H480 C484 0.949 . S
C481 C482 1.349 . S
C481 C483 1.327 . S
C481 H504 0.950 . S
C482 C481 1.349 . S
C482 C494 1.349 . S
C483 C481 1.327 . S
C483 C499 1.429 . S
C483 H505 0.950 . S
C484 H480 0.949 . S
C484 C492 1.574 1_455 S
C484 C500 1.368 . S
H485 C493 0.950 . S
H486 C491 0.950 . S
H487 C492 0.949 . S
H488 C494 0.950 . S
H489 C495 0.950 . S
H490 C496 0.949 . S
C491 H486 0.950 . S
C491 C493 1.327 . S
C491 C497 1.429 . S
C492 C484 1.574 1_655 S
C492 H487 0.949 . S
C492 C498 1.368 . S
C493 C477 1.349 . S
C493 H485 0.950 . S
C493 C491 1.327 . S
C494 C482 1.349 . S
C494 H488 0.950 . S
C494 C495 1.327 . S
C495 H489 0.950 . S
C495 C494 1.327 . S
C495 C499 1.429 . S
C496 C479 1.574 1_455 S
C496 H490 0.949 . S
C496 C500 1.368 . S
C497 C478 1.429 . S
C497 C491 1.429 . S
C497 C498 1.523 . S
C498 C479 1.368 . S
C498 C492 1.368 . S
C498 C497 1.523 . S
C499 C483 1.429 . S
C499 C495 1.429 . S
C499 C500 1.523 . S
C500 C484 1.368 . S
C500 C496 1.368 . S
C500 C499 1.523 . S
H501 C476 0.950 . S
H502 C478 0.950 . S
H503 C479 0.949 . S
H504 C481 0.950 . S
H505 C483 0.950 . S
C506 C507 1.349 . S
C506 C508 1.327 . S
C506 H531 0.950 . S
C507 C506 1.349 . S
C507 C523 1.349 . S
C508 C506 1.327 . S
C508 C527 1.429 . S
C508 H532 0.950 . S
C509 C526 1.574 . S
C509 C528 1.368 1_565 S
C509 H533 0.949 . S
H510 C514 0.949 . S
C511 C512 1.349 . S
C511 C513 1.327 . S
C511 H534 0.950 . S
C512 C511 1.349 . S
C512 C524 1.349 . S
C513 C511 1.327 . S
C513 C529 1.429 . S
C513 H535 0.950 . S
C514 H510 0.949 . S
C514 C522 1.574 . S
C514 C530 1.368 1_545 S
H515 C523 0.950 . S
H516 C521 0.950 . S
H517 C522 0.949 . S
H518 C524 0.950 . S
H519 C525 0.950 . S
H520 C526 0.949 . S
C521 H516 0.950 . S
C521 C523 1.327 . S
C521 C527 1.429 . S
C522 C514 1.574 . S
C522 H517 0.949 . S
C522 C528 1.368 . S
C523 C507 1.349 . S
C523 H515 0.950 . S
C523 C521 1.327 . S
C524 C512 1.349 . S
C524 H518 0.950 . S
C524 C525 1.327 . S
C525 H519 0.950 . S
C525 C524 1.327 . S
C525 C529 1.429 . S
C526 C509 1.574 . S
C526 H520 0.949 . S
C526 C530 1.368 . S
C527 C508 1.429 . S
C527 C521 1.429 . S
C527 C528 1.523 . S
C528 C509 1.368 1_545 S
C528 C522 1.368 . S
C528 C527 1.523 . S
C529 C513 1.429 . S
C529 C525 1.429 . S
C529 C530 1.523 . S
C530 C514 1.368 1_565 S
C530 C526 1.368 . S
C530 C529 1.523 . S
H531 C506 0.950 . S
H532 C508 0.950 . S
H533 C509 0.949 . S
H534 C511 0.950 . S
H535 C513 0.950 . S
C536 C537 1.349 . S
C536 C538 1.327 . S
C536 H561 0.950 . S
C537 C536 1.349 . S
C537 C553 1.349 . S
C538 C536 1.327 . S
C538 C557 1.429 . S
C538 H562 0.950 . S
C539 C556 1.574 1_455 S
C539 C558 1.368 . S
C539 H563 0.949 . S
H540 C544 0.949 . S
C541 C542 1.349 . S
C541 C543 1.327 . S
C541 H564 0.950 . S
C542 C541 1.349 . S
C542 C554 1.349 . S
C543 C541 1.327 . S
C543 C559 1.429 . S
C543 H565 0.950 . S
C544 H540 0.949 . S
C544 C552 1.574 1_655 S
C544 C560 1.368 . S
H545 C553 0.950 . S
H546 C551 0.950 . S
H547 C552 0.949 . S
H548 C554 0.950 . S
H549 C555 0.950 . S
H550 C556 0.949 . S
C551 H546 0.950 . S
C551 C553 1.327 . S
C551 C557 1.429 . S
C552 C544 1.574 1_455 S
C552 H547 0.949 . S
C552 C558 1.368 . S
C553 C537 1.349 . S
C553 H545 0.950 . S
C553 C551 1.327 . S
C554 C542 1.349 . S
C554 H548 0.950 . S
C554 C555 1.327 . S
C555 H549 0.950 . S
C555 C554 1.327 . S
C555 C559 1.429 . S
C556 C539 1.574 1_655 S
C556 H550 0.949 . S
C556 C560 1.368 . S
C557 C538 1.429 . S
C557 C551 1.429 . S
C557 C558 1.523 . S
C558 C539 1.368 . S
C558 C552 1.368 . S
C558 C557 1.523 . S
C559 C543 1.429 . S
C559 C555 1.429 . S
C559 C560 1.523 . S
C560 C544 1.368 . S
C560 C556 1.368 . S
C560 C559 1.523 . S
H561 C536 0.950 . S
H562 C538 0.950 . S
H563 C539 0.949 . S
H564 C541 0.950 . S
H565 C543 0.950 . S
C566 C567 1.349 . S
C566 C568 1.327 . S
C566 H591 0.950 . S
C567 C566 1.349 . S
C567 C583 1.349 . S
C568 C566 1.327 . S
C568 C587 1.429 . S
C568 H592 0.950 . S
C569 C586 1.574 . S
C569 C588 1.368 . S
C569 H593 0.949 . S
H570 C574 0.949 . S
C571 C572 1.349 . S
C571 C573 1.327 . S
C571 H594 0.950 . S
C572 C571 1.349 . S
C572 C584 1.349 . S
C573 C571 1.327 . S
C573 C589 1.429 . S
C573 H595 0.950 . S
C574 H570 0.949 . S
C574 C582 1.574 . S
C574 C590 1.368 . S
H575 C583 0.950 . S
H576 C581 0.950 . S
H577 C582 0.949 . S
H578 C584 0.950 . S
H579 C585 0.950 . S
H580 C586 0.949 . S
C581 H576 0.950 . S
C581 C583 1.327 . S
C581 C587 1.429 . S
C582 C574 1.574 . S
C582 H577 0.949 . S
C582 C588 1.368 1_545 S
C583 C567 1.349 . S
C583 H575 0.950 . S
C583 C581 1.327 . S
C584 C572 1.349 . S
C584 H578 0.950 . S
C584 C585 1.327 . S
C585 H579 0.950 . S
C585 C584 1.327 . S
C585 C589 1.429 . S
C586 C569 1.574 . S
C586 H580 0.949 . S
C586 C590 1.368 1_565 S
C587 C568 1.429 . S
C587 C581 1.429 . S
C587 C588 1.523 . S
C588 C569 1.368 . S
C588 C582 1.368 1_565 S
C588 C587 1.523 . S
C589 C573 1.429 . S
C589 C585 1.429 . S
C589 C590 1.523 . S
C590 C574 1.368 . S
C590 C586 1.368 1_545 S
C590 C589 1.523 . S
H591 C566 0.950 . S
H592 C568 0.950 . S
H593 C569 0.949 . S
H594 C571 0.950 . S
H595 C573 0.950 . S
C596 C597 1.349 . S
C596 C598 1.327 . S
C596 H621 0.950 . S
C597 C596 1.349 . S
C597 C613 1.349 . S
C598 C596 1.327 . S
C598 C617 1.429 . S
C598 H622 0.950 . S
C599 C616 1.574 1_655 S
C599 C618 1.368 . S
C599 H623 0.949 . S
H600 C604 0.949 . S
C601 C602 1.349 . S
C601 C603 1.327 . S
C601 H624 0.950 . S
C602 C601 1.349 . S
C602 C614 1.349 . S
C603 C601 1.327 . S
C603 C619 1.429 . S
C603 H625 0.950 . S
C604 H600 0.949 . S
C604 C612 1.574 1_455 S
C604 C620 1.368 . S
H605 C613 0.950 . S
H606 C611 0.950 . S
H607 C612 0.949 . S
H608 C614 0.950 . S
H609 C615 0.950 . S
H610 C616 0.949 . S
C611 H606 0.950 . S
C611 C613 1.327 . S
C611 C617 1.429 . S
C612 C604 1.574 1_655 S
C612 H607 0.949 . S
C612 C618 1.368 . S
C613 C597 1.349 . S
C613 H605 0.950 . S
C613 C611 1.327 . S
C614 C602 1.349 . S
C614 H608 0.950 . S
C614 C615 1.327 . S
C615 H609 0.950 . S
C615 C614 1.327 . S
C615 C619 1.429 . S
C616 C599 1.574 1_455 S
C616 H610 0.949 . S
C616 C620 1.368 . S
C617 C598 1.429 . S
C617 C611 1.429 . S
C617 C618 1.523 . S
C618 C599 1.368 . S
C618 C612 1.368 . S
C618 C617 1.523 . S
C619 C603 1.429 . S
C619 C615 1.429 . S
C619 C620 1.523 . S
C620 C604 1.368 . S
C620 C616 1.368 . S
C620 C619 1.523 . S
H621 C596 0.950 . S
H622 C598 0.950 . S
H623 C599 0.949 . S
H624 C601 0.950 . S
H625 C603 0.950 . S
C626 C627 1.349 . S
C626 C628 1.327 . S
C626 H651 0.950 . S
C627 C626 1.349 . S
C627 C643 1.349 . S
C628 C626 1.327 . S
C628 C647 1.429 . S
C628 H652 0.950 . S
C629 C646 1.574 . S
C629 C648 1.368 1_545 S
C629 H653 0.949 . S
H630 C634 0.949 . S
C631 C632 1.349 . S
C631 C633 1.327 . S
C631 H654 0.950 . S
C632 C631 1.349 . S
C632 C644 1.349 . S
C633 C631 1.327 . S
C633 C649 1.429 . S
C633 H655 0.950 . S
C634 H630 0.949 . S
C634 C642 1.574 . S
C634 C650 1.368 1_565 S
H635 C643 0.950 . S
H636 C641 0.950 . S
H637 C642 0.949 . S
H638 C644 0.950 . S
H639 C645 0.950 . S
H640 C646 0.949 . S
C641 H636 0.950 . S
C641 C643 1.327 . S
C641 C647 1.429 . S
C642 C634 1.574 . S
C642 H637 0.949 . S
C642 C648 1.368 . S
C643 C627 1.349 . S
C643 H635 0.950 . S
C643 C641 1.327 . S
C644 C632 1.349 . S
C644 H638 0.950 . S
C644 C645 1.327 . S
C645 H639 0.950 . S
C645 C644 1.327 . S
C645 C649 1.429 . S
C646 C629 1.574 . S
C646 H640 0.949 . S
C646 C650 1.368 . S
C647 C628 1.429 . S
C647 C641 1.429 . S
C647 C648 1.523 . S
C648 C629 1.368 1_565 S
C648 C642 1.368 . S
C648 C647 1.523 . S
C649 C633 1.429 . S
C649 C645 1.429 . S
C649 C650 1.523 . S
C650 C634 1.368 1_545 S
C650 C646 1.368 . S
C650 C649 1.523 . S
H651 C626 0.950 . S
H652 C628 0.950 . S
H653 C629 0.949 . S
H654 C631 0.950 . S
H655 C633 0.950 . S
C656 C657 1.349 . S
C656 C658 1.327 . S
C656 H681 0.950 . S
C657 C656 1.349 . S
C657 C673 1.349 . S
C658 C656 1.327 . S
C658 C677 1.429 . S
C658 H682 0.950 . S
C659 C676 1.574 . S
C659 C678 1.368 . S
C659 H683 0.949 . S
H660 C664 0.949 . S
C661 C662 1.349 . S
C661 C663 1.327 . S
C661 H684 0.950 . S
C662 C661 1.349 . S
C662 C674 1.349 . S
C663 C661 1.327 . S
C663 C679 1.429 . S
C663 H685 0.950 . S
C664 H660 0.949 . S
C664 C672 1.574 . S
C664 C680 1.368 . S
H665 C673 0.950 . S
H666 C671 0.950 . S
H667 C672 0.949 . S
H668 C674 0.950 . S
H669 C675 0.950 . S
H670 C676 0.949 . S
C671 H666 0.950 . S
C671 C673 1.327 . S
C671 C677 1.429 . S
C672 C664 1.574 . S
C672 H667 0.949 . S
C672 C678 1.368 . S
C673 C657 1.349 . S
C673 H665 0.950 . S
C673 C671 1.327 . S
C674 C662 1.349 . S
C674 H668 0.950 . S
C674 C675 1.327 . S
C675 H669 0.950 . S
C675 C674 1.327 . S
C675 C679 1.429 . S
C676 C659 1.574 . S
C676 H670 0.949 . S
C676 C680 1.368 . S
C677 C658 1.429 . S
C677 C671 1.429 . S
C677 C678 1.523 . S
C678 C659 1.368 . S
C678 C672 1.368 . S
C678 C677 1.523 . S
C679 C663 1.429 . S
C679 C675 1.429 . S
C679 C680 1.523 . S
C680 C664 1.368 . S
C680 C676 1.368 . S
C680 C679 1.523 . S
H681 C656 0.950 . S
H682 C658 0.950 . S
H683 C659 0.949 . S
H684 C661 0.950 . S
H685 C663 0.950 . S
C686 C687 1.349 . S
C686 C688 1.327 . S
C686 H711 0.950 . S
C687 C686 1.349 . S
C687 C703 1.349 . S
C688 C686 1.327 . S
C688 C707 1.429 . S
C688 H712 0.950 . S
C689 C706 1.574 . S
C689 C708 1.368 . S
C689 H713 0.949 . S
H690 C694 0.949 . S
C691 C692 1.349 . S
C691 C693 1.327 . S
C691 H714 0.950 . S
C692 C691 1.349 . S
C692 C704 1.349 . S
C693 C691 1.327 . S
C693 C709 1.429 . S
C693 H715 0.950 . S
C694 H690 0.949 . S
C694 C702 1.574 . S
C694 C710 1.368 . S
H695 C703 0.950 . S
H696 C701 0.950 . S
H697 C702 0.949 . S
H698 C704 0.950 . S
H699 C705 0.950 . S
H700 C706 0.949 . S
C701 H696 0.950 . S
C701 C703 1.327 . S
C701 C707 1.429 . S
C702 C694 1.574 . S
C702 H697 0.949 . S
C702 C708 1.368 . S
C703 C687 1.349 . S
C703 H695 0.950 . S
C703 C701 1.327 . S
C704 C692 1.349 . S
C704 H698 0.950 . S
C704 C705 1.327 . S
C705 H699 0.950 . S
C705 C704 1.327 . S
C705 C709 1.429 . S
C706 C689 1.574 . S
C706 H700 0.949 . S
C706 C710 1.368 . S
C707 C688 1.429 . S
C707 C701 1.429 . S
C707 C708 1.523 . S
C708 C689 1.368 . S
C708 C702 1.368 . S
C708 C707 1.523 . S
C709 C693 1.429 . S
C709 C705 1.429 . S
C709 C710 1.523 . S
C710 C694 1.368 . S
C710 C706 1.368 . S
C710 C709 1.523 . S
H711 C686 0.950 . S
H712 C688 0.950 . S
H713 C689 0.949 . S
H714 C691 0.950 . S
H715 C693 0.950 . S
C716 C717 1.349 . S
C716 C718 1.327 . S
C716 H741 0.950 . S
C717 C716 1.349 . S
C717 C733 1.349 . S
C718 C716 1.327 . S
C718 C737 1.429 . S
C718 H742 0.950 . S
C719 C736 1.574 . S
C719 C738 1.368 . S
C719 H743 0.949 . S
H720 C724 0.949 . S
C721 C722 1.349 . S
C721 C723 1.327 . S
C721 H744 0.950 . S
C722 C721 1.349 . S
C722 C734 1.349 . S
C723 C721 1.327 . S
C723 C739 1.429 . S
C723 H745 0.950 . S
C724 H720 0.949 . S
C724 C732 1.574 . S
C724 C740 1.368 . S
H725 C733 0.950 . S
H726 C731 0.950 . S
H727 C732 0.949 . S
H728 C734 0.950 . S
H729 C735 0.950 . S
H730 C736 0.949 . S
C731 H726 0.950 . S
C731 C733 1.327 . S
C731 C737 1.429 . S
C732 C724 1.574 . S
C732 H727 0.949 . S
C732 C738 1.368 . S
C733 C717 1.349 . S
C733 H725 0.950 . S
C733 C731 1.327 . S
C734 C722 1.349 . S
C734 H728 0.950 . S
C734 C735 1.327 . S
C735 H729 0.950 . S
C735 C734 1.327 . S
C735 C739 1.429 . S
C736 C719 1.574 . S
C736 H730 0.949 . S
C736 C740 1.368 . S
C737 C718 1.429 . S
C737 C731 1.429 . S
C737 C738 1.523 . S
C738 C719 1.368 . S
C738 C732 1.368 . S
C738 C737 1.523 . S
C739 C723 1.429 . S
C739 C735 1.429 . S
C739 C740 1.523 . S
C740 C724 1.368 . S
C740 C736 1.368 . S
C740 C739 1.523 . S
H741 C716 0.950 . S
H742 C718 0.950 . S
H743 C719 0.949 . S
H744 C721 0.950 . S
H745 C723 0.950 . S
C746 C747 1.349 . S
C746 C748 1.327 . S
C746 H771 0.950 . S
C747 C746 1.349 . S
C747 C763 1.349 . S
C748 C746 1.327 . S
C748 C767 1.429 . S
C748 H772 0.950 . S
C749 C766 1.574 . S
C749 C768 1.368 . S
C749 H773 0.949 . S
H750 C754 0.949 . S
C751 C752 1.349 . S
C751 C753 1.327 . S
C751 H774 0.950 . S
C752 C751 1.349 . S
C752 C764 1.349 . S
C753 C751 1.327 . S
C753 C769 1.429 . S
C753 H775 0.950 . S
C754 H750 0.949 . S
C754 C762 1.574 . S
C754 C770 1.368 . S
H755 C763 0.950 . S
H756 C761 0.950 . S
H757 C762 0.949 . S
H758 C764 0.950 . S
H759 C765 0.950 . S
H760 C766 0.949 . S
C761 H756 0.950 . S
C761 C763 1.327 . S
C761 C767 1.429 . S
C762 C754 1.574 . S
C762 H757 0.949 . S
C762 C768 1.368 . S
C763 C747 1.349 . S
C763 H755 0.950 . S
C763 C761 1.327 . S
C764 C752 1.349 . S
C764 H758 0.950 . S
C764 C765 1.327 . S
C765 H759 0.950 . S
C765 C764 1.327 . S
C765 C769 1.429 . S
C766 C749 1.574 . S
C766 H760 0.949 . S
C766 C770 1.368 . S
C767 C748 1.429 . S
C767 C761 1.429 . S
C767 C768 1.523 . S
C768 C749 1.368 . S
C768 C762 1.368 . S
C768 C767 1.523 . S
C769 C753 1.429 . S
C769 C765 1.429 . S
C769 C770 1.523 . S
C770 C754 1.368 . S
C770 C766 1.368 . S
C770 C769 1.523 . S
H771 C746 0.950 . S
H772 C748 0.950 . S
H773 C749 0.949 . S
H774 C751 0.950 . S
H775 C753 0.950 . S
C776 C777 1.349 . S
C776 C778 1.327 . S
C776 H801 0.950 . S
C777 C776 1.349 . S
C777 C793 1.349 . S
C778 C776 1.327 . S
C778 C797 1.429 . S
C778 H802 0.950 . S
C779 C796 1.574 . S
C779 C798 1.368 . S
C779 H803 0.949 . S
H780 C784 0.949 . S
C781 C782 1.349 . S
C781 C783 1.327 . S
C781 H804 0.950 . S
C782 C781 1.349 . S
C782 C794 1.349 . S
C783 C781 1.327 . S
C783 C799 1.429 . S
C783 H805 0.950 . S
C784 H780 0.949 . S
C784 C792 1.574 . S
C784 C800 1.368 . S
H785 C793 0.950 . S
H786 C791 0.950 . S
H787 C792 0.949 . S
H788 C794 0.950 . S
H789 C795 0.950 . S
H790 C796 0.949 . S
C791 H786 0.950 . S
C791 C793 1.327 . S
C791 C797 1.429 . S
C792 C784 1.574 . S
C792 H787 0.949 . S
C792 C798 1.368 . S
C793 C777 1.349 . S
C793 H785 0.950 . S
C793 C791 1.327 . S
C794 C782 1.349 . S
C794 H788 0.950 . S
C794 C795 1.327 . S
C795 H789 0.950 . S
C795 C794 1.327 . S
C795 C799 1.429 . S
C796 C779 1.574 . S
C796 H790 0.949 . S
C796 C800 1.368 . S
C797 C778 1.429 . S
C797 C791 1.429 . S
C797 C798 1.523 . S
C798 C779 1.368 . S
C798 C792 1.368 . S
C798 C797 1.523 . S
C799 C783 1.429 . S
C799 C795 1.429 . S
C799 C800 1.523 . S
C800 C784 1.368 . S
C800 C796 1.368 . S
C800 C799 1.523 . S
H801 C776 0.950 . S
H802 C778 0.950 . S
H803 C779 0.949 . S
H804 C781 0.950 . S
H805 C783 0.950 . S
C806 C807 1.349 . S
C806 C808 1.327 . S
C806 H831 0.950 . S
C807 C806 1.349 . S
C807 C823 1.349 . S
C808 C806 1.327 . S
C808 C827 1.429 . S
C808 H832 0.950 . S
C809 C826 1.574 . S
C809 C828 1.368 . S
C809 H833 0.949 . S
H810 C814 0.949 . S
C811 C812 1.349 . S
C811 C813 1.327 . S
C811 H834 0.950 . S
C812 C811 1.349 . S
C812 C824 1.349 . S
C813 C811 1.327 . S
C813 C829 1.429 . S
C813 H835 0.950 . S
C814 H810 0.949 . S
C814 C822 1.574 . S
C814 C830 1.368 . S
H815 C823 0.950 . S
H816 C821 0.950 . S
H817 C822 0.949 . S
H818 C824 0.950 . S
H819 C825 0.950 . S
H820 C826 0.949 . S
C821 H816 0.950 . S
C821 C823 1.327 . S
C821 C827 1.429 . S
C822 C814 1.574 . S
C822 H817 0.949 . S
C822 C828 1.368 . S
C823 C807 1.349 . S
C823 H815 0.950 . S
C823 C821 1.327 . S
C824 C812 1.349 . S
C824 H818 0.950 . S
C824 C825 1.327 . S
C825 H819 0.950 . S
C825 C824 1.327 . S
C825 C829 1.429 . S
C826 C809 1.574 . S
C826 H820 0.949 . S
C826 C830 1.368 . S
C827 C808 1.429 . S
C827 C821 1.429 . S
C827 C828 1.523 . S
C828 C809 1.368 . S
C828 C822 1.368 . S
C828 C827 1.523 . S
C829 C813 1.429 . S
C829 C825 1.429 . S
C829 C830 1.523 . S
C830 C814 1.368 . S
C830 C826 1.368 . S
C830 C829 1.523 . S
H831 C806 0.950 . S
H832 C808 0.950 . S
H833 C809 0.949 . S
H834 C811 0.950 . S
H835 C813 0.950 . S
C836 C837 1.349 . S
C836 C838 1.327 . S
C836 H861 0.950 . S
C837 C836 1.349 . S
C837 C853 1.349 . S
C838 C836 1.327 . S
C838 C857 1.429 . S
C838 H862 0.950 . S
C839 C856 1.574 . S
C839 C858 1.368 . S
C839 H863 0.949 . S
H840 C844 0.949 . S
C841 C842 1.349 . S
C841 C843 1.327 . S
C841 H864 0.950 . S
C842 C841 1.349 . S
C842 C854 1.349 . S
C843 C841 1.327 . S
C843 C859 1.429 . S
C843 H865 0.950 . S
C844 H840 0.949 . S
C844 C852 1.574 . S
C844 C860 1.368 . S
H845 C853 0.950 . S
H846 C851 0.950 . S
H847 C852 0.949 . S
H848 C854 0.950 . S
H849 C855 0.950 . S
H850 C856 0.949 . S
C851 H846 0.950 . S
C851 C853 1.327 . S
C851 C857 1.429 . S
C852 C844 1.574 . S
C852 H847 0.949 . S
C852 C858 1.368 . S
C853 C837 1.349 . S
C853 H845 0.950 . S
C853 C851 1.327 . S
C854 C842 1.349 . S
C854 H848 0.950 . S
C854 C855 1.327 . S
C855 H849 0.950 . S
C855 C854 1.327 . S
C855 C859 1.429 . S
C856 C839 1.574 . S
C856 H850 0.949 . S
C856 C860 1.368 . S
C857 C838 1.429 . S
C857 C851 1.429 . S
C857 C858 1.523 . S
C858 C839 1.368 . S
C858 C852 1.368 . S
C858 C857 1.523 . S
C859 C843 1.429 . S
C859 C855 1.429 . S
C859 C860 1.523 . S
C860 C844 1.368 . S
C860 C856 1.368 . S
C860 C859 1.523 . S
H861 C836 0.950 . S
H862 C838 0.950 . S
H863 C839 0.949 . S
H864 C841 0.950 . S
H865 C843 0.950 . S
C866 C867 1.349 . S
C866 C868 1.327 . S
C866 H891 0.950 . S
C867 C866 1.349 . S
C867 C883 1.349 . S
C868 C866 1.327 . S
C868 C887 1.429 . S
C868 H892 0.950 . S
C869 C886 1.574 . S
C869 C888 1.368 . S
C869 H893 0.949 . S
H870 C874 0.949 . S
C871 C872 1.349 . S
C871 C873 1.327 . S
C871 H894 0.950 . S
C872 C871 1.349 . S
C872 C884 1.349 . S
C873 C871 1.327 . S
C873 C889 1.429 . S
C873 H895 0.950 . S
C874 H870 0.949 . S
C874 C882 1.574 . S
C874 C890 1.368 . S
H875 C883 0.950 . S
H876 C881 0.950 . S
H877 C882 0.949 . S
H878 C884 0.950 . S
H879 C885 0.950 . S
H880 C886 0.949 . S
C881 H876 0.950 . S
C881 C883 1.327 . S
C881 C887 1.429 . S
C882 C874 1.574 . S
C882 H877 0.949 . S
C882 C888 1.368 . S
C883 C867 1.349 . S
C883 H875 0.950 . S
C883 C881 1.327 . S
C884 C872 1.349 . S
C884 H878 0.950 . S
C884 C885 1.327 . S
C885 H879 0.950 . S
C885 C884 1.327 . S
C885 C889 1.429 . S
C886 C869 1.574 . S
C886 H880 0.949 . S
C886 C890 1.368 . S
C887 C868 1.429 . S
C887 C881 1.429 . S
C887 C888 1.523 . S
C888 C869 1.368 . S
C888 C882 1.368 . S
C888 C887 1.523 . S
C889 C873 1.429 . S
C889 C885 1.429 . S
C889 C890 1.523 . S
C890 C874 1.368 . S
C890 C886 1.368 . S
C890 C889 1.523 . S
H891 C866 0.950 . S
H892 C868 0.950 . S
H893 C869 0.949 . S
H894 C871 0.950 . S
H895 C873 0.950 . S
C177 C136 1.401 . S
C182 C8 1.399 . S
C207 C30 1.401 . S
C212 C158 1.399 . S
C237 C92 1.401 . S
C242 C53 1.399 . S
C267 C74 1.401 . S
C272 C114 1.399 . S
C297 C96 1.401 . S
C302 C50 1.403 . S
C327 C70 1.401 . S
C332 C118 1.403 . S
C357 C140 1.401 . S
C362 C4 1.403 . S
C387 C26 1.401 . S
C392 C162 1.403 . S
C417 C27 1.401 . S
C422 C119 1.403 . S
C447 C141 1.401 . S
C452 C48 1.403 . S
C477 C163 1.401 . S
C482 C71 1.403 . S
C507 C5 1.401 . S
C512 C97 1.403 . S
C537 C73 1.401 . S
C542 C160 1.399 . S
C567 C94 1.401 . S
C572 C7 1.399 . S
C597 C29 1.401 . S
C602 C116 1.399 . S
C627 C52 1.401 . S
C632 C138 1.399 . S
C657 C159 1.129 . S
C662 C9 1.127 . S
C687 C31 1.129 . S
C692 C93 1.127 . S
C717 C51 1.129 . S
C722 C115 1.127 . S
C747 C137 1.129 . S
C752 C75 1.127 . S
C777 C117 1.129 . S
C782 C49 1.131 . S
C807 C139 1.129 . S
C812 C72 1.131 . S
C837 C161 1.129 . S
C842 C6 1.131 . S
C867 C95 1.129 . S
C872 C28 1.131 . S
