# Generated by pormake.
# Topology sml, (6)-cn, num edge types: 1
# Building blocks:
#     Node 0, Type 0, BuildingBlock: CUWYAW_clean_sbu_0, # of connection points: 6
#     Node 1, Type 0, BuildingBlock: CUWYAW_clean_sbu_0, # of connection points: 6
#     Node 2, Type 0, BuildingBlock: CUWYAW_clean_sbu_0, # of connection points: 6
#     Node 3, Type 0, BuildingBlock: CUWYAW_clean_sbu_0, # of connection points: 6
#     Node 4, Type 0, BuildingBlock: CUWYAW_clean_sbu_0, # of connection points: 6
#     Node 5, Type 0, BuildingBlock: CUWYAW_clean_sbu_0, # of connection points: 6
#     Edge 6, Type (0, 0), BuildingBlock: CIFDUS_clean_linker_0, # of connection points: 2
#     Edge 7, Type (0, 0), BuildingBlock: CIFDUS_clean_linker_0, # of connection points: 2
#     Edge 8, Type (0, 0), BuildingBlock: CIFDUS_clean_linker_0, # of connection points: 2
#     Edge 9, Type (0, 0), BuildingBlock: CIFDUS_clean_linker_0, # of connection points: 2
#     Edge 10, Type (0, 0), BuildingBlock: CIFDUS_clean_linker_0, # of connection points: 2
#     Edge 11, Type (0, 0), BuildingBlock: CIFDUS_clean_linker_0, # of connection points: 2
#     Edge 12, Type (0, 0), BuildingBlock: CIFDUS_clean_linker_0, # of connection points: 2
#     Edge 13, Type (0, 0), BuildingBlock: CIFDUS_clean_linker_0, # of connection points: 2
#     Edge 14, Type (0, 0), BuildingBlock: CIFDUS_clean_linker_0, # of connection points: 2
#     Edge 15, Type (0, 0), BuildingBlock: CIFDUS_clean_linker_0, # of connection points: 2
#     Edge 16, Type (0, 0), BuildingBlock: CIFDUS_clean_linker_0, # of connection points: 2
#     Edge 17, Type (0, 0), BuildingBlock: CIFDUS_clean_linker_0, # of connection points: 2
#     Edge 18, Type (0, 0), BuildingBlock: CIFDUS_clean_linker_0, # of connection points: 2
#     Edge 19, Type (0, 0), BuildingBlock: CIFDUS_clean_linker_0, # of connection points: 2
#     Edge 20, Type (0, 0), BuildingBlock: CIFDUS_clean_linker_0, # of connection points: 2
#     Edge 21, Type (0, 0), BuildingBlock: CIFDUS_clean_linker_0, # of connection points: 2
#     Edge 22, Type (0, 0), BuildingBlock: CIFDUS_clean_linker_0, # of connection points: 2
#     Edge 23, Type (0, 0), BuildingBlock: CIFDUS_clean_linker_0, # of connection points: 2
# Relax obj value: 0.260
# Max RMSD: 0.266
# Mean RMSD: 0.266
data_MOF--net-sml--node1-CUWYAW_clean_sbu_0--edge1-CIFDUS_clean_linker_0
_symmetry_space_group_name_H-M    P1
_symmetry_Int_Tables_number       1
_symmetry_cell_setting            triclinic
loop_
_symmetry_equiv_pos_as_xyz
'x, y, z'
_cell_length_a     27.550225
_cell_length_b     27.488039
_cell_length_c     23.096894
_cell_angle_alpha  90.108549
_cell_angle_beta   90.145871
_cell_angle_gamma 119.93721
loop_
_atom_site_label
_atom_site_type_symbol
_atom_site_fract_x
_atom_site_fract_y
_atom_site_fract_z
_atom_type_partial_charge
C0 C 0.25087 0.36714 0.17446 0.0
Eu1 Eu 0.23632 0.39874 0.07273 0.0
C2 C 0.23855 0.37478 0.23457 0.0
C3 C 0.2645 0.3628 0.28015 0.0
C4 C 0.2543 0.37123 0.33754 0.0
C5 C 0.21808 0.39207 0.35033 0.0
C6 C 0.19202 0.40387 0.30425 0.0
C7 C 0.20208 0.39519 0.2469 0.0
C8 C 0.31295 0.47326 0.99901 0.0
C9 C 0.19603 0.49279 0.08598 0.0
C10 C 0.16599 0.45816 0.866 0.0
Eu11 Eu 0.187 0.43033 0.96688 0.0
C12 C 0.1818 0.45679 0.80556 0.0
C13 C 0.16051 0.47598 0.76158 0.0
C14 C 0.17308 0.47256 0.70361 0.0
C15 C 0.20739 0.45004 0.68873 0.0
C16 C 0.22937 0.43165 0.73316 0.0
C17 C 0.21645 0.43476 0.79105 0.0
C18 C 0.11152 0.35872 0.04316 0.0
C19 C 0.23203 0.34035 0.95332 0.0
O20 O 0.20754 0.33624 0.14125 0.0
O21 O 0.28897 0.4124 0.14849 0.0
O22 O 0.32142 0.43868 0.02984 0.0
O23 O 0.2678 0.47127 1.0131 0.0
O24 O 0.209 0.45737 0.11078 0.0
O25 O 0.19011 0.49476 0.02934 0.0
O26 O 0.20585 0.49366 0.90053 0.0
O27 O 0.13438 0.40918 0.89004 0.0
O28 O 0.10495 0.39518 1.01372 0.0
O29 O 0.15511 0.35844 0.02724 0.0
O30 O 0.22135 0.37749 0.92892 0.0
O31 O 0.23456 0.33549 1.00992 0.0
H32 H 0.29273 0.34695 0.27135 0.0
H33 H 0.27436 0.36084 0.37189 0.0
H34 H 0.16442 0.42057 0.31241 0.0
H35 H 0.18159 0.40466 0.21225 0.0
H36 H 0.13366 0.49309 0.77204 0.0
H37 H 0.15604 0.48763 0.67042 0.0
H38 H 0.25543 0.41357 0.72309 0.0
H39 H 0.23304 0.4194 0.82431 0.0
C40 C 0.87169 0.2505 0.50592 0.0
Eu41 Eu 0.82276 0.22824 0.40466 0.0
C42 C 0.85763 0.24405 0.56834 0.0
C43 C 0.8735 0.29208 0.60248 0.0
C44 C 0.86205 0.28731 0.6618 0.0
C45 C 0.83417 0.23432 0.68823 0.0
C46 C 0.81821 0.18621 0.65415 0.0
C47 C 0.83037 0.19108 0.59492 0.0
C48 C 0.8198 0.30267 0.33073 0.0
C49 C 0.68796 0.18218 0.41603 0.0
C50 C 0.69531 0.14004 0.19937 0.0
Eu51 Eu 0.74447 0.17363 0.29993 0.0
C52 C 0.70717 0.15039 0.13703 0.0
C53 C 0.68151 0.10489 0.0986 0.0
C54 C 0.69207 0.11271 0.03925 0.0
C55 C 0.7282 0.1665 0.01676 0.0
C56 C 0.75414 0.21214 0.05566 0.0
C57 C 0.74407 0.20405 0.11529 0.0
C58 C 0.74716 0.10162 0.37717 0.0
C59 C 0.88015 0.23393 0.28544 0.0
O60 O 0.85954 0.20529 0.47586 0.0
O61 O 0.86196 0.28572 0.47719 0.0
O62 O 0.8634 0.31268 0.36132 0.0
O63 O 0.77799 0.25584 0.34396 0.0
O64 O 0.73582 0.19477 0.44179 0.0
O65 O 0.682 0.17804 0.35907 0.0
O66 O 0.69371 0.1792 0.23032 0.0
O67 O 0.72014 0.11656 0.22621 0.0
O68 O 0.70245 0.09241 0.34965 0.0
O69 O 0.78917 0.14656 0.36069 0.0
O70 O 0.83148 0.22114 0.26178 0.0
O71 O 0.88642 0.23133 0.34179 0.0
H72 H 0.89516 0.33351 0.58329 0.0
H73 H 0.8747 0.32509 0.68698 0.0
H74 H 0.79746 0.14489 0.67359 0.0
H75 H 0.81904 0.15344 0.57018 0.0
H76 H 0.65345 0.063 0.11461 0.0
H77 H 0.67238 0.07629 1.01112 0.0
H78 H 0.78182 0.25424 0.04012 0.0
H79 H 0.76515 0.23963 0.14425 0.0
C80 C 0.61943 0.88353 0.85739 0.0
Eu81 Eu 0.59136 0.8364 0.75559 0.0
C82 C 0.61534 0.86492 0.91752 0.0
C83 C 0.63707 0.90471 0.96223 0.0
C84 C 0.63194 0.88735 0.01982 0.0
C85 C 0.60502 0.82985 0.03347 0.0
C86 C 0.58376 0.79015 0.98829 0.0
C87 C 0.58879 0.8076 0.93083 0.0
C88 C 0.5186 0.83947 0.67932 0.0
C89 C 0.49845 0.70264 0.76489 0.0
C90 C 0.53758 0.71014 0.54774 0.0
Eu91 Eu 0.56352 0.75802 0.64935 0.0
C92 C 0.54218 0.72883 0.48755 0.0
C93 C 0.52017 0.68907 0.44284 0.0
C94 C 0.52558 0.70647 0.38523 0.0
C95 C 0.55307 0.76398 0.37158 0.0
C96 C 0.57464 0.80366 0.41673 0.0
C97 C 0.56927 0.78619 0.4742 0.0
C98 C 0.63445 0.75363 0.72691 0.0
C99 C 0.65209 0.89317 0.63831 0.0
O100 O 0.65364 0.87615 0.82409 0.0
O101 O 0.57181 0.86983 0.83185 0.0
O102 O 0.5523 0.88217 0.71104 0.0
O103 O 0.52042 0.79629 0.69381 0.0
O104 O 0.53696 0.74847 0.79158 0.0
O105 O 0.49479 0.69855 0.70794 0.0
O106 O 0.50226 0.71643 0.58027 0.0
O107 O 0.58499 0.7248 0.57422 0.0
O108 O 0.59904 0.7109 0.69631 0.0
O109 O 0.63472 0.79774 0.71153 0.0
O110 O 0.61663 0.84525 0.61275 0.0
O111 O 0.65522 0.89944 0.6951 0.0
H112 H 0.65771 0.94917 0.95262 0.0
H113 H 0.64929 0.91892 0.05364 0.0
H114 H 0.56221 0.74557 0.99739 0.0
H115 H 0.57148 0.77633 0.89691 0.0
H116 H 0.49904 0.6446 0.45246 0.0
H117 H 0.50798 0.67494 0.3514 0.0
H118 H 0.59656 0.84824 0.4076 0.0
H119 H 0.58651 0.8175 0.50807 0.0
C120 C 0.73982 0.62761 0.1834 0.0
Eu121 Eu 0.75656 0.58953 0.08634 0.0
C122 C 0.749 0.62269 0.24566 0.0
C123 C 0.72959 0.64644 0.2868 0.0
C124 C 0.7371 0.64149 0.34606 0.0
C125 C 0.76413 0.6125 0.36557 0.0
C126 C 0.78349 0.58861 0.32402 0.0
C127 C 0.77606 0.59373 0.26465 0.0
C128 C 0.68119 0.50955 1.01384 0.0
C129 C 0.78696 0.49199 0.09198 0.0
C130 C 0.82193 0.52729 0.87867 0.0
Eu131 Eu 0.80479 0.5658 0.97541 0.0
C132 C 0.81147 0.53116 0.81654 0.0
C133 C 0.82781 0.50466 0.7754 0.0
C134 C 0.81928 0.50886 0.71622 0.0
C135 C 0.79409 0.53967 0.69678 0.0
C136 C 0.77763 0.56612 0.73843 0.0
C137 C 0.78628 0.56192 0.79767 0.0
C138 C 0.88182 0.64423 0.04867 0.0
C139 C 0.76973 0.66137 0.969 0.0
O140 O 0.78473 0.65575 0.15163 0.0
O141 O 0.70162 0.58179 0.15781 0.0
O142 O 0.67579 0.50678 0.06979 0.0
O143 O 0.72318 0.55507 0.99954 0.0
O144 O 0.78434 0.53162 0.1217 0.0
O145 O 0.78919 0.49251 0.03459 0.0
O146 O 0.77777 0.49868 0.91116 0.0
O147 O 0.85949 0.57384 0.90354 0.0
O148 O 0.8873 0.64583 0.99282 0.0
O149 O 0.83859 0.59953 0.06272 0.0
O150 O 0.77831 0.62488 0.93994 0.0
O151 O 0.76468 0.65928 0.02622 0.0
H152 H 0.70831 0.66866 0.27307 0.0
H153 H 0.72098 0.65978 0.37668 0.0
H154 H 0.80504 0.56657 0.33734 0.0
H155 H 0.79141 0.57506 0.2336 0.0
H156 H 0.84762 0.48101 0.78902 0.0
H157 H 0.83333 0.48865 0.68562 0.0
H158 H 0.75745 0.58955 0.72536 0.0
H159 H 0.77321 0.58261 0.82874 0.0
C160 C 0.12014 0.71755 0.51667 0.0
Eu161 Eu 0.16758 0.74941 0.41569 0.0
C162 C 0.13789 0.72668 0.57833 0.0
C163 C 0.14231 0.68483 0.60877 0.0
C164 C 0.15898 0.69269 0.66687 0.0
C165 C 0.17142 0.74254 0.69611 0.0
C166 C 0.16652 0.78425 0.66579 0.0
C167 C 0.14971 0.77632 0.60768 0.0
C168 C 0.1788 0.68377 0.33546 0.0
C169 C 0.30305 0.80288 0.43052 0.0
C170 C 0.29289 0.83661 0.21257 0.0
Eu171 Eu 0.24663 0.81075 0.31444 0.0
C172 C 0.27347 0.82607 0.15147 0.0
C173 C 0.27223 0.86873 0.1192 0.0
C174 C 0.25413 0.85952 0.06156 0.0
C175 C 0.23743 0.80761 0.03458 0.0
C176 C 0.23901 0.765 0.06665 0.0
C177 C 0.25672 0.77404 0.1245 0.0
C178 C 0.24228 0.87931 0.39512 0.0
C179 C 0.11004 0.75558 0.29996 0.0
O180 O 0.1231 0.76013 0.48815 0.0
O181 O 0.1361 0.68823 0.48553 0.0
O182 O 0.13133 0.67015 0.3599 0.0
O183 O 0.21726 0.72906 0.35583 0.0
O184 O 0.25472 0.78928 0.45543 0.0
O185 O 0.30933 0.80677 0.37372 0.0
O186 O 0.28705 0.79363 0.2426 0.0
O187 O 0.28102 0.86971 0.24273 0.0
O188 O 0.28652 0.892 0.3646 0.0
O189 O 0.20072 0.8338 0.37791 0.0
O190 O 0.15923 0.7724 0.27531 0.0
O191 O 0.10326 0.74974 0.35655 0.0
H192 H 0.13269 0.64577 0.58769 0.0
H193 H 0.16134 0.65928 0.68912 0.0
H194 H 0.17625 0.82337 0.68677 0.0
H195 H 0.14605 0.80918 0.58587 0.0
H196 H 0.28541 0.90942 0.13851 0.0
H197 H 0.25407 0.89342 0.03777 0.0
H198 H 0.22596 0.7244 0.04719 0.0
H199 H 0.25721 0.7402 0.14796 0.0
C200 C 0.3699 0.13513 0.83063 0.0
Eu201 Eu 0.40505 0.17895 0.72872 0.0
C202 C 0.38486 0.15444 0.89163 0.0
C203 C 0.41236 0.13322 0.92574 0.0
C204 C 0.4276 0.15115 0.983 0.0
C205 C 0.41518 0.19035 1.00797 0.0
C206 C 0.38721 0.21133 0.97409 0.0
C207 C 0.3724 0.19377 0.91646 0.0
C208 C 0.47705 0.16896 0.65779 0.0
C209 C 0.51413 0.30561 0.74996 0.0
C210 C 0.49067 0.31233 0.52751 0.0
Eu211 Eu 0.45412 0.26533 0.62807 0.0
C212 C 0.47693 0.29682 0.46542 0.0
C213 C 0.44732 0.31742 0.4339 0.0
C214 C 0.43408 0.30346 0.37545 0.0
C215 C 0.45042 0.26877 0.3467 0.0
C216 C 0.48062 0.24861 0.37807 0.0
C217 C 0.49377 0.26251 0.43669 0.0
C218 C 0.38757 0.28046 0.70253 0.0
C219 C 0.34775 0.13649 0.60621 0.0
O220 O 0.34549 0.15686 0.79966 0.0
O221 O 0.40728 0.1294 0.80114 0.0
O222 O 0.43507 0.12601 0.68203 0.0
O223 O 0.48171 0.21432 0.67563 0.0
O224 O 0.47056 0.26007 0.77118 0.0
O225 O 0.52193 0.31467 0.69356 0.0
O226 O 0.51337 0.28783 0.55678 0.0
O227 O 0.45356 0.31783 0.55781 0.0
O228 O 0.42986 0.32112 0.67602 0.0
O229 O 0.37946 0.23351 0.68437 0.0
O230 O 0.38955 0.18391 0.58583 0.0
O231 O 0.33996 0.12579 0.6623 0.0
H232 H 0.42219 0.10263 0.90805 0.0
H233 H 0.44844 0.13361 1.00809 0.0
H234 H 0.37742 0.24189 0.99191 0.0
H235 H 0.35135 0.21114 0.89148 0.0
H236 H 0.4344 0.34457 0.45446 0.0
H237 H 0.41161 0.32054 0.35255 0.0
H238 H 0.4935 0.22142 0.35756 0.0
H239 H 0.51706 0.24631 0.45944 0.0
H240 H 0.28179 0.22268 0.74714 0.0
H241 H 0.44807 0.3604 0.78133 0.0
H242 H 0.41556 0.38438 0.86879 0.0
H243 H 0.33824 0.37426 0.9287 0.0
H244 H 0.16961 0.24506 0.88987 0.0
H245 H 0.2039 0.20928 0.81167 0.0
C246 C 0.31072 0.25733 0.77438 0.0
C247 C 0.36707 0.28983 0.75792 0.0
C248 C 0.29112 0.2726 0.8236 0.0
C249 C 0.40439 0.33496 0.79306 0.0
C250 C 0.38588 0.34878 0.84309 0.0
C251 C 0.30938 0.33729 0.90402 0.0
C252 C 0.25193 0.31143 0.91516 0.0
C253 C 0.32914 0.31899 0.85784 0.0
C254 C 0.21425 0.26472 0.88224 0.0
C255 C 0.23383 0.2447 0.83737 0.0
H256 H 0.05485 0.39453 0.1064 0.0
H257 H 0.09426 0.26157 0.09566 0.0
H258 H 0.02943 0.21228 0.17581 0.0
H259 H 0.9538 0.20343 0.24217 0.0
H260 H 0.91569 0.33761 0.24788 0.0
H261 H 0.98811 0.39049 0.17688 0.0
C262 C 0.04946 0.35483 0.12177 0.0
C263 C 0.07812 0.33095 0.09482 0.0
C264 C 0.01232 0.32711 0.16695 0.0
C265 C 0.07203 0.28033 0.11582 0.0
C266 C 0.03494 0.25221 0.16139 0.0
C267 C 0.96245 0.24469 0.22843 0.0
C268 C 0.92983 0.26692 0.2498 0.0
C269 C 0.00374 0.27458 0.18638 0.0
C270 C 0.94054 0.32002 0.23177 0.0
C271 C 0.98173 0.35014 0.19108 0.0
H272 H 0.74502 0.11392 0.49269 0.0
H273 H 0.74272 0.00265 0.35995 0.0
H274 H 0.71921 0.92889 0.43189 0.0
H275 H 0.68831 0.8931 0.52988 0.0
H276 H 0.68613 0.0028 0.66231 0.0
H277 H 0.72216 0.08032 0.5934 0.0
C278 C 0.74137 0.07421 0.48018 0.0
C279 C 0.74679 0.06373 0.42178 0.0
C280 C 0.72635 0.03172 0.52155 0.0
C281 C 0.73989 0.01161 0.40514 0.0
C282 C 0.72603 0.96945 0.4461 0.0
C283 C 0.69697 0.93437 0.54391 0.0
C284 C 0.68436 0.94228 0.60085 0.0
C285 C 0.71757 0.97856 0.50406 0.0
C286 C 0.69602 0.9959 0.61877 0.0
C287 C 0.71652 0.04021 0.57932 0.0
H288 H 0.64615 0.77097 0.84274 0.0
H289 H 0.71283 0.72813 0.69527 0.0
H290 H 0.76972 0.70546 0.75893 0.0
H291 H 0.78968 0.68533 0.85553 0.0
H292 H 0.71603 0.71809 1.00457 0.0
H293 H 0.67397 0.75895 0.94176 0.0
C294 C 0.67449 0.7583 0.82492 0.0
C295 C 0.67611 0.75161 0.76479 0.0
C296 C 0.7053 0.74315 0.86208 0.0
C297 C 0.71161 0.73384 0.74158 0.0
C298 C 0.74384 0.72071 0.77792 0.0
C299 C 0.76518 0.70219 0.87458 0.0
C300 C 0.75528 0.69782 0.93456 0.0
C301 C 0.73943 0.72329 0.83817 0.0
C302 C 0.72421 0.72077 0.95851 0.0
C303 C 0.69974 0.74371 0.92252 0.0
H304 H 0.10907 0.77716 0.18529 0.0
H305 H -0.00061 0.69343 0.32941 0.0
H306 H 0.91831 0.65483 0.26463 0.0
H307 H 0.87954 0.63862 0.16586 0.0
H308 H 0.98914 0.72281 0.02205 0.0
H309 H 0.0693 0.76779 0.08801 0.0
C310 C 0.06741 0.75092 0.20271 0.0
C311 C 0.06046 0.73785 0.2621 0.0
C312 C 0.02098 0.72874 0.16521 0.0
C313 C 0.00605 0.70422 0.28393 0.0
C314 C 0.95962 0.6819 0.24686 0.0
C315 C 0.92086 0.66744 0.14912 0.0
C316 C 0.92858 0.67704 0.08919 0.0
C317 C 0.96673 0.69298 0.18727 0.0
C318 C 0.98223 0.71463 0.06802 0.0
C319 C 0.02808 0.74021 0.10568 0.0
H320 H 0.2867 0.02216 0.62106 0.0
H321 H 0.33416 0.15228 0.4929 0.0
H322 H 0.2988 0.08236 0.41607 0.0
H323 H 0.2676 0.98624 0.38399 0.0
H324 H 0.22063 0.85518 0.50968 0.0
H325 H 0.24162 0.92274 0.58863 0.0
C326 C 0.28777 0.03499 0.5765 0.0
C327 C 0.31382 0.09253 0.56285 0.0
C328 C 0.2679 0.99431 0.53192 0.0
C329 C 0.31504 0.1084 0.50473 0.0
C330 C 0.29494 0.06843 0.46057 0.0
C331 C 0.26043 0.9724 0.42871 0.0
C332 C 0.24195 0.91601 0.44134 0.0
C333 C 0.27333 0.01161 0.47346 0.0
C334 C 0.23347 0.89825 0.49918 0.0
C335 C 0.24619 0.93707 0.54424 0.0
H336 H 0.13345 0.41205 0.5989 0.0
H337 H 0.30759 0.47493 0.64029 0.0
H338 H 0.32636 0.46308 0.53937 0.0
H339 H 0.29323 0.43472 0.43949 0.0
H340 H 0.11848 0.36973 0.39878 0.0
H341 H 0.10038 0.3839 0.49899 0.0
C342 C 0.17563 0.42374 0.58569 0.0
C343 C 0.21905 0.44437 0.62705 0.0
C344 C 0.18607 0.41664 0.52768 0.0
C345 C 0.27332 0.45844 0.60942 0.0
C346 C 0.28412 0.45189 0.55169 0.0
C347 C 0.25106 0.42315 0.45259 0.0
C348 C 0.20733 0.40116 0.41146 0.0
C349 C 0.24075 0.43075 0.51051 0.0
C350 C 0.15314 0.38742 0.42917 0.0
C351 C 0.14264 0.39517 0.48662 0.0
H352 H 0.8263 0.23778 0.96158 0.0
H353 H 0.65369 0.11318 0.92804 0.0
H354 H 0.67151 0.12212 0.8243 0.0
H355 H 0.73607 0.16497 0.74248 0.0
H356 H 0.90712 0.29291 0.77553 0.0
H357 H 0.88955 0.28395 0.87979 0.0
C358 C 0.79226 0.21313 0.93172 0.0
C359 C 0.73882 0.17443 0.95313 0.0
C360 C 0.80247 0.21916 0.87178 0.0
C361 C 0.69561 0.1424 0.91328 0.0
C362 C 0.7056 0.14774 0.85372 0.0
C363 C 0.76947 0.19071 0.77262 0.0
C364 C 0.82284 0.22935 0.75141 0.0
C365 C 0.75893 0.1857 0.83247 0.0
C366 C 0.86558 0.26308 0.79083 0.0
C367 C 0.85561 0.25783 0.85043 0.0
H368 H 0.58366 0.72282 0.28038 0.0
H369 H 0.53832 0.84726 0.32584 0.0
H370 H 0.55136 0.87923 0.22548 0.0
H371 H 0.57445 0.87096 0.12472 0.0
H372 H 0.61994 0.74662 0.07925 0.0
H373 H 0.60691 0.71466 0.1796 0.0
C374 C 0.57609 0.75655 0.26818 0.0
C375 C 0.56001 0.78259 0.31044 0.0
C376 C 0.58352 0.77459 0.21045 0.0
C377 C 0.55129 0.82692 0.2942 0.0
C378 C 0.55849 0.84504 0.23682 0.0
C379 C 0.58208 0.83726 0.1369 0.0
C380 C 0.59817 0.81125 0.09462 0.0
C381 C 0.57469 0.81925 0.19463 0.0
C382 C 0.60695 0.76695 0.11088 0.0
C383 C 0.59975 0.74882 0.16826 0.0
H384 H 0.80679 0.63135 0.63693 0.0
H385 H 0.7614 0.45787 0.61343 0.0
H386 H 0.74959 0.46529 0.50969 0.0
H387 H 0.75121 0.52068 0.42515 0.0
H388 H 0.79537 0.69372 0.44897 0.0
H389 H 0.80734 0.68633 0.55273 0.0
C390 C 0.79372 0.59492 0.60933 0.0
C391 C 0.78533 0.54418 0.63341 0.0
C392 C 0.78655 0.5993 0.54947 0.0
C393 C 0.76914 0.49778 0.59636 0.0
C394 C 0.76202 0.50186 0.53688 0.0
C395 C 0.76391 0.55694 0.45293 0.0
C396 C 0.77225 0.60767 0.42895 0.0
C397 C 0.77079 0.55245 0.51285 0.0
C398 C 0.78794 0.65392 0.46604 0.0
C399 C 0.79508 0.64983 0.5255 0.0
H400 H 0.13971 0.78879 0.78228 0.0
H401 H 0.24298 0.71458 0.74937 0.0
H402 H 0.27101 0.72648 0.85109 0.0
H403 H 0.26752 0.75941 0.94932 0.0
H404 H 0.16573 0.83522 0.98177 0.0
H405 H 0.13663 0.82216 0.88021 0.0
C406 C 0.1688 0.77573 0.79718 0.0
C407 C 0.18906 0.75072 0.75807 0.0
C408 C 0.18517 0.78313 0.85571 0.0
C409 C 0.22605 0.73323 0.77854 0.0
C410 C 0.24239 0.7403 0.8367 0.0
C411 C 0.2386 0.77262 0.93422 0.0
C412 C 0.21888 0.79831 0.97305 0.0
C413 C 0.22218 0.76515 0.8757 0.0
C414 C 0.182 0.8159 0.95264 0.0
C415 C 0.16518 0.80825 0.89463 0.0
H416 H 0.51576 0.26273 0.26105 0.0
H417 H 0.35157 0.24075 0.2919 0.0
H418 H 0.32714 0.21714 0.19007 0.0
H419 H 0.3514 0.20051 0.09221 0.0
H420 H 0.51494 0.22101 0.06162 0.0
H421 H 0.54027 0.24676 0.1631 0.0
C422 C 0.47446 0.25232 0.24566 0.0
C423 C 0.43568 0.25368 0.28438 0.0
C424 C 0.46046 0.2384 0.18689 0.0
C425 C 0.38262 0.24084 0.26317 0.0
C426 C 0.36845 0.22703 0.20487 0.0
C427 C 0.39276 0.21115 0.10766 0.0
C428 C 0.4311 0.2086 0.06931 0.0
C429 C 0.40698 0.22564 0.16629 0.0
C430 C 0.48435 0.22194 0.09029 0.0
C431 C 0.49894 0.23684 0.14833 0.0
H432 H 0.25641 0.54708 0.18022 0.0
H433 H 0.1145 0.52141 0.07794 0.0
H434 H 0.09437 0.5764 0.14789 0.0
H435 H 0.11649 0.63013 0.24022 0.0
H436 H 0.26441 0.66295 0.33583 0.0
H437 H 0.28294 0.60667 0.26682 0.0
C438 C 0.22133 0.55395 0.17313 0.0
C439 C 0.18685 0.53033 0.12436 0.0
C440 C 0.21093 0.58642 0.21266 0.0
C441 C 0.14182 0.53974 0.1151 0.0
C442 C 0.13013 0.57078 0.15525 0.0
C443 C 0.15248 0.62448 0.24579 0.0
C444 C 0.1885 0.64938 0.29336 0.0
C445 C 0.16412 0.5939 0.20454 0.0
C446 C 0.23594 0.64347 0.29968 0.0
C447 C 0.24658 0.61147 0.26026 0.0
H448 H 0.68687 0.18719 0.53315 0.0
H449 H 0.58203 0.15707 0.38266 0.0
H450 H 0.5055 0.14606 0.44497 0.0
H451 H 0.47018 0.15009 0.54249 0.0
H452 H 0.57727 0.18406 0.69116 0.0
H453 H 0.65142 0.18844 0.62927 0.0
C454 C 0.64734 0.17813 0.51369 0.0
C455 C 0.64044 0.17333 0.45314 0.0
C456 C 0.60398 0.17261 0.54958 0.0
C457 C 0.58864 0.16121 0.42906 0.0
C458 C 0.54485 0.15493 0.46468 0.0
C459 C 0.5096 0.15766 0.56102 0.0
C460 C 0.51869 0.1662 0.62091 0.0
C461 C 0.55228 0.16121 0.52495 0.0
C462 C 0.56978 0.17694 0.64502 0.0
C463 C 0.61204 0.17964 0.60969 0.0
H464 H 0.29827 0.49643 0.88948 0.0
H465 H 0.4223 0.54474 0.02398 0.0
H466 H 0.49153 0.62052 0.96299 0.0
H467 H 0.51524 0.67447 0.87243 0.0
H468 H 0.39182 0.62328 0.73605 0.0
H469 H 0.3234 0.54706 0.79657 0.0
C470 C 0.34023 0.52408 0.90534 0.0
C471 C 0.35512 0.51637 0.96119 0.0
C472 C 0.37966 0.5667 0.86972 0.0
C473 C 0.41018 0.55053 0.98101 0.0
C474 C 0.44955 0.59378 0.94629 0.0
C475 C 0.47331 0.64671 0.85609 0.0
C476 C 0.45826 0.65485 0.80025 0.0
C477 C 0.43454 0.60257 0.89078 0.0
C478 C 0.40428 0.6178 0.77897 0.0
C479 C 0.36513 0.57434 0.81358 0.0
H480 H 0.75688 0.28297 0.23321 0.0
H481 H 0.88329 0.41529 0.33833 0.0
H482 H 0.88609 0.48561 0.2719 0.0
H483 H 0.85123 0.50948 0.18533 0.0
H484 H 0.73045 0.37834 0.0746 0.0
H485 H 0.72715 0.30696 0.14096 0.0
C486 C 0.78473 0.32709 0.24133 0.0
C487 C 0.81914 0.34403 0.29078 0.0
C488 C 0.7876 0.36719 0.20163 0.0
C489 C 0.85606 0.40138 0.30069 0.0
C490 C 0.85785 0.44154 0.26267 0.0
C491 C 0.8248 0.46517 0.17541 0.0
C492 C 0.79108 0.44881 0.12552 0.0
C493 C 0.8238 0.42491 0.21314 0.0
C494 C 0.75718 0.39157 0.11261 0.0
C495 C 0.755 0.35094 0.15076 0.0
H496 H 0.32096 0.83852 0.54179 0.0
H497 H 0.39103 0.78782 0.40317 0.0
H498 H 0.46458 0.79501 0.46827 0.0
H499 H 0.50679 0.81253 0.56602 0.0
H500 H 0.43952 0.86754 0.70283 0.0
H501 H 0.36701 0.86237 0.63709 0.0
C502 C 0.35251 0.82928 0.52581 0.0
C503 C 0.35039 0.81217 0.46801 0.0
C504 C 0.3949 0.83414 0.56323 0.0
C505 C 0.39195 0.80119 0.44751 0.0
C506 C 0.43382 0.80504 0.48476 0.0
C507 C 0.4759 0.82288 0.58119 0.0
C508 C 0.47725 0.83914 0.63901 0.0
C509 C 0.43524 0.82077 0.54287 0.0
C510 C 0.43861 0.85455 0.65833 0.0
C511 C 0.39729 0.85152 0.62087 0.0
H512 H 0.68717 0.51532 0.89697 0.0
H513 H 0.59384 0.40503 0.03732 0.0
H514 H 0.53484 0.3316 0.9677 0.0
H515 H 0.51 0.29943 0.86744 0.0
H516 H 0.60449 0.40925 0.7268 0.0
H517 H 0.66358 0.48214 0.79641 0.0
C518 C 0.65411 0.47508 0.91231 0.0
C519 C 0.64489 0.46541 0.97215 0.0
C520 C 0.62096 0.43305 0.87211 0.0
C521 C 0.60163 0.41338 0.99146 0.0
C522 C 0.56807 0.37142 0.9517 0.0
C523 C 0.54375 0.33913 0.85176 0.0
C524 C 0.55274 0.34872 0.79175 0.0
C525 C 0.57746 0.38084 0.89196 0.0
C526 C 0.59667 0.40055 0.7726 0.0
C527 C 0.63042 0.44235 0.81241 0.0
loop_
_geom_bond_atom_site_label_1
_geom_bond_atom_site_label_2
_geom_bond_distance
_geom_bond_site_symmetry_2
_ccdc_geom_bond_type
C0 Eu1 2.835 . S
C0 C2 1.500 . S
C0 O20 1.257 . S
C0 O21 1.260 . S
Eu1 C0 2.835 . S
Eu1 O20 2.473 . S
Eu1 O21 2.480 . S
Eu1 O22 2.430 . S
Eu1 O23 2.670 1_554 S
Eu1 O24 2.394 . S
Eu1 O29 2.355 . S
Eu1 O31 2.374 1_554 S
C2 C0 1.500 . S
C2 C3 1.377 . S
C2 C7 1.377 . S
C3 C2 1.377 . S
C3 C4 1.395 . S
C3 H32 0.931 . S
C4 C3 1.395 . S
C4 C5 1.383 . S
C4 H33 0.931 . S
C5 C4 1.383 . S
C5 C6 1.394 . S
C6 C5 1.394 . S
C6 C7 1.378 . S
C6 H34 0.931 . S
C7 C2 1.377 . S
C7 C6 1.378 . S
C7 H35 0.931 . S
C8 O22 1.259 1_556 S
C8 O23 1.270 . S
C9 O24 1.251 . S
C9 O25 1.251 . S
C10 Eu11 2.835 . S
C10 C12 1.500 . S
C10 O26 1.257 . S
C10 O27 1.260 . S
Eu11 C10 2.835 . S
Eu11 O23 2.355 . S
Eu11 O25 2.374 1_556 S
Eu11 O26 2.473 . S
Eu11 O27 2.480 . S
Eu11 O28 2.430 . S
Eu11 O29 2.670 1_556 S
Eu11 O30 2.394 . S
C12 C10 1.500 . S
C12 C13 1.377 . S
C12 C17 1.377 . S
C13 C12 1.377 . S
C13 C14 1.395 . S
C13 H36 0.931 . S
C14 C13 1.395 . S
C14 C15 1.383 . S
C14 H37 0.931 . S
C15 C14 1.383 . S
C15 C16 1.394 . S
C16 C15 1.394 . S
C16 C17 1.378 . S
C16 H38 0.931 . S
C17 C12 1.377 . S
C17 C16 1.378 . S
C17 H39 0.931 . S
C18 O28 1.259 1_554 S
C18 O29 1.270 . S
C19 O30 1.251 . S
C19 O31 1.251 . S
O20 C0 1.257 . S
O20 Eu1 2.473 . S
O21 C0 1.260 . S
O21 Eu1 2.480 . S
O22 Eu1 2.430 . S
O22 C8 1.259 1_554 S
O23 Eu1 2.670 1_556 S
O23 C8 1.270 . S
O23 Eu11 2.355 . S
O24 Eu1 2.394 . S
O24 C9 1.251 . S
O25 C9 1.251 . S
O25 Eu11 2.374 1_554 S
O26 C10 1.257 . S
O26 Eu11 2.473 . S
O27 C10 1.260 . S
O27 Eu11 2.480 . S
O28 Eu11 2.430 . S
O28 C18 1.259 1_556 S
O29 Eu1 2.355 . S
O29 Eu11 2.670 1_554 S
O29 C18 1.270 . S
O30 Eu11 2.394 . S
O30 C19 1.251 . S
O31 Eu1 2.374 1_556 S
O31 C19 1.251 . S
H32 C3 0.931 . S
H33 C4 0.931 . S
H34 C6 0.931 . S
H35 C7 0.931 . S
H36 C13 0.931 . S
H37 C14 0.931 . S
H38 C16 0.931 . S
H39 C17 0.931 . S
C40 Eu41 2.835 . S
C40 C42 1.500 . S
C40 O60 1.257 . S
C40 O61 1.260 . S
Eu41 C40 2.835 . S
Eu41 O60 2.473 . S
Eu41 O61 2.480 . S
Eu41 O62 2.430 . S
Eu41 O63 2.670 . S
Eu41 O64 2.394 . S
Eu41 O69 2.355 . S
Eu41 O71 2.374 . S
C42 C40 1.500 . S
C42 C43 1.377 . S
C42 C47 1.377 . S
C43 C42 1.377 . S
C43 C44 1.395 . S
C43 H72 0.931 . S
C44 C43 1.395 . S
C44 C45 1.383 . S
C44 H73 0.931 . S
C45 C44 1.383 . S
C45 C46 1.394 . S
C46 C45 1.394 . S
C46 C47 1.378 . S
C46 H74 0.931 . S
C47 C42 1.377 . S
C47 C46 1.378 . S
C47 H75 0.931 . S
C48 O62 1.259 . S
C48 O63 1.270 . S
C49 O64 1.251 . S
C49 O65 1.251 . S
C50 Eu51 2.835 . S
C50 C52 1.500 . S
C50 O66 1.257 . S
C50 O67 1.260 . S
Eu51 C50 2.835 . S
Eu51 O63 2.355 . S
Eu51 O65 2.374 . S
Eu51 O66 2.473 . S
Eu51 O67 2.480 . S
Eu51 O68 2.430 . S
Eu51 O69 2.670 . S
Eu51 O70 2.394 . S
C52 C50 1.500 . S
C52 C53 1.377 . S
C52 C57 1.377 . S
C53 C52 1.377 . S
C53 C54 1.395 . S
C53 H76 0.931 . S
C54 C53 1.395 . S
C54 C55 1.383 1_554 S
C54 H77 0.931 . S
C55 C54 1.383 1_556 S
C55 C56 1.394 1_556 S
C56 C55 1.394 1_554 S
C56 C57 1.378 . S
C56 H78 0.931 1_554 S
C57 C52 1.377 . S
C57 C56 1.378 . S
C57 H79 0.931 . S
C58 O68 1.259 . S
C58 O69 1.270 . S
C59 O70 1.251 . S
C59 O71 1.251 . S
O60 C40 1.257 . S
O60 Eu41 2.473 . S
O61 C40 1.260 . S
O61 Eu41 2.480 . S
O62 Eu41 2.430 . S
O62 C48 1.259 . S
O63 Eu41 2.670 . S
O63 C48 1.270 . S
O63 Eu51 2.355 . S
O64 Eu41 2.394 . S
O64 C49 1.251 . S
O65 C49 1.251 . S
O65 Eu51 2.374 . S
O66 C50 1.257 . S
O66 Eu51 2.473 . S
O67 C50 1.260 . S
O67 Eu51 2.480 . S
O68 Eu51 2.430 . S
O68 C58 1.259 . S
O69 Eu41 2.355 . S
O69 Eu51 2.670 . S
O69 C58 1.270 . S
O70 Eu51 2.394 . S
O70 C59 1.251 . S
O71 Eu41 2.374 . S
O71 C59 1.251 . S
H72 C43 0.931 . S
H73 C44 0.931 . S
H74 C46 0.931 . S
H75 C47 0.931 . S
H76 C53 0.931 . S
H77 C54 0.931 . S
H78 C56 0.931 1_556 S
H79 C57 0.931 . S
C80 Eu81 2.835 . S
C80 C82 1.500 . S
C80 O100 1.257 . S
C80 O101 1.260 . S
Eu81 C80 2.835 . S
Eu81 O100 2.473 . S
Eu81 O101 2.480 . S
Eu81 O102 2.430 . S
Eu81 O103 2.670 . S
Eu81 O104 2.394 . S
Eu81 O109 2.355 . S
Eu81 O111 2.374 . S
C82 C80 1.500 . S
C82 C83 1.377 . S
C82 C87 1.377 . S
C83 C82 1.377 . S
C83 C84 1.395 . S
C83 H112 0.931 . S
C84 C83 1.395 . S
C84 C85 1.383 1_556 S
C84 H113 0.931 1_556 S
C85 C84 1.383 1_554 S
C85 C86 1.394 . S
C86 C85 1.394 . S
C86 C87 1.378 1_554 S
C86 H114 0.931 . S
C87 C82 1.377 . S
C87 C86 1.378 1_556 S
C87 H115 0.931 . S
C88 O102 1.259 . S
C88 O103 1.270 . S
C89 O104 1.251 . S
C89 O105 1.251 . S
C90 Eu91 2.835 . S
C90 C92 1.500 . S
C90 O106 1.257 . S
C90 O107 1.260 . S
Eu91 C90 2.835 . S
Eu91 O103 2.355 . S
Eu91 O105 2.374 . S
Eu91 O106 2.473 . S
Eu91 O107 2.480 . S
Eu91 O108 2.430 . S
Eu91 O109 2.670 . S
Eu91 O110 2.394 . S
C92 C90 1.500 . S
C92 C93 1.377 . S
C92 C97 1.377 . S
C93 C92 1.377 . S
C93 C94 1.395 . S
C93 H116 0.931 . S
C94 C93 1.395 . S
C94 C95 1.383 . S
C94 H117 0.931 . S
C95 C94 1.383 . S
C95 C96 1.394 . S
C96 C95 1.394 . S
C96 C97 1.378 . S
C96 H118 0.931 . S
C97 C92 1.377 . S
C97 C96 1.378 . S
C97 H119 0.931 . S
C98 O108 1.259 . S
C98 O109 1.270 . S
C99 O110 1.251 . S
C99 O111 1.251 . S
O100 C80 1.257 . S
O100 Eu81 2.473 . S
O101 C80 1.260 . S
O101 Eu81 2.480 . S
O102 Eu81 2.430 . S
O102 C88 1.259 . S
O103 Eu81 2.670 . S
O103 C88 1.270 . S
O103 Eu91 2.355 . S
O104 Eu81 2.394 . S
O104 C89 1.251 . S
O105 C89 1.251 . S
O105 Eu91 2.374 . S
O106 C90 1.257 . S
O106 Eu91 2.473 . S
O107 C90 1.260 . S
O107 Eu91 2.480 . S
O108 Eu91 2.430 . S
O108 C98 1.259 . S
O109 Eu81 2.355 . S
O109 Eu91 2.670 . S
O109 C98 1.270 . S
O110 Eu91 2.394 . S
O110 C99 1.251 . S
O111 Eu81 2.374 . S
O111 C99 1.251 . S
H112 C83 0.931 . S
H113 C84 0.931 1_554 S
H114 C86 0.931 . S
H115 C87 0.931 . S
H116 C93 0.931 . S
H117 C94 0.931 . S
H118 C96 0.931 . S
H119 C97 0.931 . S
C120 Eu121 2.835 . S
C120 C122 1.500 . S
C120 O140 1.257 . S
C120 O141 1.260 . S
Eu121 C120 2.835 . S
Eu121 O140 2.473 . S
Eu121 O141 2.480 . S
Eu121 O142 2.430 . S
Eu121 O143 2.670 1_554 S
Eu121 O144 2.394 . S
Eu121 O149 2.355 . S
Eu121 O151 2.374 1_554 S
C122 C120 1.500 . S
C122 C123 1.377 . S
C122 C127 1.377 . S
C123 C122 1.377 . S
C123 C124 1.395 . S
C123 H152 0.931 . S
C124 C123 1.395 . S
C124 C125 1.383 . S
C124 H153 0.931 . S
C125 C124 1.383 . S
C125 C126 1.394 . S
C126 C125 1.394 . S
C126 C127 1.378 . S
C126 H154 0.931 . S
C127 C122 1.377 . S
C127 C126 1.378 . S
C127 H155 0.931 . S
C128 O142 1.259 1_556 S
C128 O143 1.270 . S
C129 O144 1.251 . S
C129 O145 1.251 . S
C130 Eu131 2.835 . S
C130 C132 1.500 . S
C130 O146 1.257 . S
C130 O147 1.260 . S
Eu131 C130 2.835 . S
Eu131 O143 2.355 . S
Eu131 O145 2.374 1_556 S
Eu131 O146 2.473 . S
Eu131 O147 2.480 . S
Eu131 O148 2.430 . S
Eu131 O149 2.670 1_556 S
Eu131 O150 2.394 . S
C132 C130 1.500 . S
C132 C133 1.377 . S
C132 C137 1.377 . S
C133 C132 1.377 . S
C133 C134 1.395 . S
C133 H156 0.931 . S
C134 C133 1.395 . S
C134 C135 1.383 . S
C134 H157 0.931 . S
C135 C134 1.383 . S
C135 C136 1.394 . S
C136 C135 1.394 . S
C136 C137 1.378 . S
C136 H158 0.931 . S
C137 C132 1.377 . S
C137 C136 1.378 . S
C137 H159 0.931 . S
C138 O148 1.259 1_554 S
C138 O149 1.270 . S
C139 O150 1.251 . S
C139 O151 1.251 . S
O140 C120 1.257 . S
O140 Eu121 2.473 . S
O141 C120 1.260 . S
O141 Eu121 2.480 . S
O142 Eu121 2.430 . S
O142 C128 1.259 1_554 S
O143 Eu121 2.670 1_556 S
O143 C128 1.270 . S
O143 Eu131 2.355 . S
O144 Eu121 2.394 . S
O144 C129 1.251 . S
O145 C129 1.251 . S
O145 Eu131 2.374 1_554 S
O146 C130 1.257 . S
O146 Eu131 2.473 . S
O147 C130 1.260 . S
O147 Eu131 2.480 . S
O148 Eu131 2.430 . S
O148 C138 1.259 1_556 S
O149 Eu121 2.355 . S
O149 Eu131 2.670 1_554 S
O149 C138 1.270 . S
O150 Eu131 2.394 . S
O150 C139 1.251 . S
O151 Eu121 2.374 1_556 S
O151 C139 1.251 . S
H152 C123 0.931 . S
H153 C124 0.931 . S
H154 C126 0.931 . S
H155 C127 0.931 . S
H156 C133 0.931 . S
H157 C134 0.931 . S
H158 C136 0.931 . S
H159 C137 0.931 . S
C160 Eu161 2.835 . S
C160 C162 1.500 . S
C160 O180 1.257 . S
C160 O181 1.260 . S
Eu161 C160 2.835 . S
Eu161 O180 2.473 . S
Eu161 O181 2.480 . S
Eu161 O182 2.430 . S
Eu161 O183 2.670 . S
Eu161 O184 2.394 . S
Eu161 O189 2.355 . S
Eu161 O191 2.374 . S
C162 C160 1.500 . S
C162 C163 1.377 . S
C162 C167 1.377 . S
C163 C162 1.377 . S
C163 C164 1.395 . S
C163 H192 0.931 . S
C164 C163 1.395 . S
C164 C165 1.383 . S
C164 H193 0.931 . S
C165 C164 1.383 . S
C165 C166 1.394 . S
C166 C165 1.394 . S
C166 C167 1.378 . S
C166 H194 0.931 . S
C167 C162 1.377 . S
C167 C166 1.378 . S
C167 H195 0.931 . S
C168 O182 1.259 . S
C168 O183 1.270 . S
C169 O184 1.251 . S
C169 O185 1.251 . S
C170 Eu171 2.835 . S
C170 C172 1.500 . S
C170 O186 1.257 . S
C170 O187 1.260 . S
Eu171 C170 2.835 . S
Eu171 O183 2.355 . S
Eu171 O185 2.374 . S
Eu171 O186 2.473 . S
Eu171 O187 2.480 . S
Eu171 O188 2.430 . S
Eu171 O189 2.670 . S
Eu171 O190 2.394 . S
C172 C170 1.500 . S
C172 C173 1.377 . S
C172 C177 1.377 . S
C173 C172 1.377 . S
C173 C174 1.395 . S
C173 H196 0.931 . S
C174 C173 1.395 . S
C174 C175 1.383 1_554 S
C174 H197 0.931 . S
C175 C174 1.383 1_556 S
C175 C176 1.394 1_556 S
C176 C175 1.394 1_554 S
C176 C177 1.378 . S
C176 H198 0.931 1_554 S
C177 C172 1.377 . S
C177 C176 1.378 . S
C177 H199 0.931 . S
C178 O188 1.259 . S
C178 O189 1.270 . S
C179 O190 1.251 . S
C179 O191 1.251 . S
O180 C160 1.257 . S
O180 Eu161 2.473 . S
O181 C160 1.260 . S
O181 Eu161 2.480 . S
O182 Eu161 2.430 . S
O182 C168 1.259 . S
O183 Eu161 2.670 . S
O183 C168 1.270 . S
O183 Eu171 2.355 . S
O184 Eu161 2.394 . S
O184 C169 1.251 . S
O185 C169 1.251 . S
O185 Eu171 2.374 . S
O186 C170 1.257 . S
O186 Eu171 2.473 . S
O187 C170 1.260 . S
O187 Eu171 2.480 . S
O188 Eu171 2.430 . S
O188 C178 1.259 . S
O189 Eu161 2.355 . S
O189 Eu171 2.670 . S
O189 C178 1.270 . S
O190 Eu171 2.394 . S
O190 C179 1.251 . S
O191 Eu161 2.374 . S
O191 C179 1.251 . S
H192 C163 0.931 . S
H193 C164 0.931 . S
H194 C166 0.931 . S
H195 C167 0.931 . S
H196 C173 0.931 . S
H197 C174 0.931 . S
H198 C176 0.931 1_556 S
H199 C177 0.931 . S
C200 Eu201 2.835 . S
C200 C202 1.500 . S
C200 O220 1.257 . S
C200 O221 1.260 . S
Eu201 C200 2.835 . S
Eu201 O220 2.473 . S
Eu201 O221 2.480 . S
Eu201 O222 2.430 . S
Eu201 O223 2.670 . S
Eu201 O224 2.394 . S
Eu201 O229 2.355 . S
Eu201 O231 2.374 . S
C202 C200 1.500 . S
C202 C203 1.377 . S
C202 C207 1.377 . S
C203 C202 1.377 . S
C203 C204 1.395 . S
C203 H232 0.931 . S
C204 C203 1.395 . S
C204 C205 1.383 1_556 S
C204 H233 0.931 1_556 S
C205 C204 1.383 1_554 S
C205 C206 1.394 . S
C206 C205 1.394 . S
C206 C207 1.378 1_554 S
C206 H234 0.931 . S
C207 C202 1.377 . S
C207 C206 1.378 1_556 S
C207 H235 0.931 . S
C208 O222 1.259 . S
C208 O223 1.270 . S
C209 O224 1.251 . S
C209 O225 1.251 . S
C210 Eu211 2.835 . S
C210 C212 1.500 . S
C210 O226 1.257 . S
C210 O227 1.260 . S
Eu211 C210 2.835 . S
Eu211 O223 2.355 . S
Eu211 O225 2.374 . S
Eu211 O226 2.473 . S
Eu211 O227 2.480 . S
Eu211 O228 2.430 . S
Eu211 O229 2.670 . S
Eu211 O230 2.394 . S
C212 C210 1.500 . S
C212 C213 1.377 . S
C212 C217 1.377 . S
C213 C212 1.377 . S
C213 C214 1.395 . S
C213 H236 0.931 . S
C214 C213 1.395 . S
C214 C215 1.383 . S
C214 H237 0.931 . S
C215 C214 1.383 . S
C215 C216 1.394 . S
C216 C215 1.394 . S
C216 C217 1.378 . S
C216 H238 0.931 . S
C217 C212 1.377 . S
C217 C216 1.378 . S
C217 H239 0.931 . S
C218 O228 1.259 . S
C218 O229 1.270 . S
C219 O230 1.251 . S
C219 O231 1.251 . S
O220 C200 1.257 . S
O220 Eu201 2.473 . S
O221 C200 1.260 . S
O221 Eu201 2.480 . S
O222 Eu201 2.430 . S
O222 C208 1.259 . S
O223 Eu201 2.670 . S
O223 C208 1.270 . S
O223 Eu211 2.355 . S
O224 Eu201 2.394 . S
O224 C209 1.251 . S
O225 C209 1.251 . S
O225 Eu211 2.374 . S
O226 C210 1.257 . S
O226 Eu211 2.473 . S
O227 C210 1.260 . S
O227 Eu211 2.480 . S
O228 Eu211 2.430 . S
O228 C218 1.259 . S
O229 Eu201 2.355 . S
O229 Eu211 2.670 . S
O229 C218 1.270 . S
O230 Eu211 2.394 . S
O230 C219 1.251 . S
O231 Eu201 2.374 . S
O231 C219 1.251 . S
H232 C203 0.931 . S
H233 C204 0.931 1_554 S
H234 C206 0.931 . S
H235 C207 0.931 . S
H236 C213 0.931 . S
H237 C214 0.931 . S
H238 C216 0.931 . S
H239 C217 0.931 . S
H240 C246 0.930 . S
H241 C249 0.930 . S
H242 C250 0.930 . S
H243 C251 0.930 . S
H244 C254 0.930 . S
H245 C255 0.930 . S
C246 H240 0.930 . S
C246 C247 1.355 . S
C246 C248 1.415 . S
C247 C246 1.355 . S
C247 C249 1.419 . S
C248 C246 1.415 . S
C248 C253 1.425 . S
C248 C255 1.409 . S
C249 H241 0.930 . S
C249 C247 1.419 . S
C249 C250 1.362 . S
C250 H242 0.930 . S
C250 C249 1.362 . S
C250 C253 1.409 . S
C251 H243 0.930 . S
C251 C252 1.355 . S
C251 C253 1.415 . S
C252 C251 1.355 . S
C252 C254 1.419 . S
C253 C248 1.425 . S
C253 C250 1.409 . S
C253 C251 1.415 . S
C254 H244 0.930 . S
C254 C252 1.419 . S
C254 C255 1.362 . S
C255 H245 0.930 . S
C255 C248 1.409 . S
C255 C254 1.362 . S
H256 C262 0.930 1_655 S
H257 C265 0.930 . S
H258 C266 0.930 . S
H259 C267 0.930 . S
H260 C270 0.930 . S
H261 C271 0.930 . S
C262 H256 0.930 1_455 S
C262 C263 1.355 . S
C262 C264 1.415 1_455 S
C263 C262 1.355 . S
C263 C265 1.419 . S
C264 C262 1.415 1_655 S
C264 C269 1.425 1_655 S
C264 C271 1.409 . S
C265 H257 0.930 . S
C265 C263 1.419 . S
C265 C266 1.362 . S
C266 H258 0.930 . S
C266 C265 1.362 . S
C266 C269 1.409 . S
C267 H259 0.930 . S
C267 C268 1.355 . S
C267 C269 1.415 1_655 S
C268 C267 1.355 . S
C268 C270 1.419 . S
C269 C264 1.425 1_455 S
C269 C266 1.409 . S
C269 C267 1.415 1_455 S
C270 H260 0.930 . S
C270 C268 1.419 . S
C270 C271 1.362 . S
C271 H261 0.930 . S
C271 C264 1.409 . S
C271 C270 1.362 . S
H272 C278 0.930 . S
H273 C281 0.930 . S
H274 C282 0.930 . S
H275 C283 0.930 . S
H276 C286 0.930 . S
H277 C287 0.930 . S
C278 H272 0.930 . S
C278 C279 1.355 . S
C278 C280 1.413 1_545 S
C279 C278 1.355 . S
C279 C281 1.419 . S
C280 C278 1.413 1_565 S
C280 C285 1.427 . S
C280 C287 1.409 . S
C281 H273 0.930 . S
C281 C279 1.419 . S
C281 C282 1.362 . S
C282 H274 0.930 . S
C282 C281 1.362 . S
C282 C285 1.409 1_545 S
C283 H275 0.930 . S
C283 C284 1.355 . S
C283 C285 1.415 . S
C284 C283 1.355 . S
C284 C286 1.419 . S
C285 C280 1.427 . S
C285 C282 1.409 1_565 S
C285 C283 1.415 . S
C286 H276 0.930 . S
C286 C284 1.419 . S
C286 C287 1.362 . S
C287 H277 0.930 . S
C287 C280 1.409 . S
C287 C286 1.362 . S
H288 C294 0.930 . S
H289 C297 0.930 . S
H290 C298 0.930 . S
H291 C299 0.930 . S
H292 C302 0.930 . S
H293 C303 0.930 . S
C294 H288 0.930 . S
C294 C295 1.355 . S
C294 C296 1.415 . S
C295 C294 1.355 . S
C295 C297 1.419 . S
C296 C294 1.415 . S
C296 C301 1.425 . S
C296 C303 1.409 . S
C297 H289 0.930 . S
C297 C295 1.419 . S
C297 C298 1.362 . S
C298 H290 0.930 . S
C298 C297 1.362 . S
C298 C301 1.409 . S
C299 H291 0.930 . S
C299 C300 1.355 . S
C299 C301 1.415 . S
C300 C299 1.355 . S
C300 C302 1.419 . S
C301 C296 1.425 . S
C301 C298 1.409 . S
C301 C299 1.415 . S
C302 H292 0.930 . S
C302 C300 1.419 . S
C302 C303 1.362 . S
C303 H293 0.930 . S
C303 C296 1.409 . S
C303 C302 1.362 . S
H304 C310 0.930 . S
H305 C313 0.930 . S
H306 C314 0.930 . S
H307 C315 0.930 . S
H308 C318 0.930 . S
H309 C319 0.930 . S
C310 H304 0.930 . S
C310 C311 1.355 . S
C310 C312 1.415 . S
C311 C310 1.355 . S
C311 C313 1.419 . S
C312 C310 1.415 . S
C312 C317 1.425 1_455 S
C312 C319 1.409 . S
C313 H305 0.930 . S
C313 C311 1.419 . S
C313 C314 1.362 1_455 S
C314 H306 0.930 . S
C314 C313 1.362 1_655 S
C314 C317 1.409 . S
C315 H307 0.930 . S
C315 C316 1.355 . S
C315 C317 1.415 . S
C316 C315 1.355 . S
C316 C318 1.419 . S
C317 C312 1.425 1_655 S
C317 C314 1.409 . S
C317 C315 1.415 . S
C318 H308 0.930 . S
C318 C316 1.419 . S
C318 C319 1.362 1_655 S
C319 H309 0.930 . S
C319 C312 1.409 . S
C319 C318 1.362 1_455 S
H320 C326 0.930 . S
H321 C329 0.930 . S
H322 C330 0.930 . S
H323 C331 0.930 . S
H324 C334 0.930 . S
H325 C335 0.930 . S
C326 H320 0.930 . S
C326 C327 1.355 . S
C326 C328 1.422 . S
C327 C326 1.355 . S
C327 C329 1.419 . S
C328 C326 1.422 . S
C328 C333 1.433 . S
C328 C335 1.395 1_545 S
C329 H321 0.930 . S
C329 C327 1.419 . S
C329 C330 1.362 . S
C330 H322 0.930 . S
C330 C329 1.362 . S
C330 C333 1.409 . S
C331 H323 0.930 . S
C331 C332 1.355 . S
C331 C333 1.415 1_565 S
C332 C331 1.355 . S
C332 C334 1.419 . S
C333 C328 1.433 . S
C333 C330 1.409 . S
C333 C331 1.415 1_545 S
C334 H324 0.930 . S
C334 C332 1.419 . S
C334 C335 1.362 . S
C335 H325 0.930 . S
C335 C328 1.395 1_565 S
C335 C334 1.362 . S
H336 C342 0.930 . S
H337 C345 0.930 . S
H338 C346 0.930 . S
H339 C347 0.930 . S
H340 C350 0.930 . S
H341 C351 0.930 . S
C342 H336 0.930 . S
C342 C343 1.355 . S
C342 C344 1.415 . S
C343 C342 1.355 . S
C343 C345 1.419 . S
C344 C342 1.415 . S
C344 C349 1.425 . S
C344 C351 1.409 . S
C345 H337 0.930 . S
C345 C343 1.419 . S
C345 C346 1.362 . S
C346 H338 0.930 . S
C346 C345 1.362 . S
C346 C349 1.409 . S
C347 H339 0.930 . S
C347 C348 1.355 . S
C347 C349 1.415 . S
C348 C347 1.355 . S
C348 C350 1.419 . S
C349 C344 1.425 . S
C349 C346 1.409 . S
C349 C347 1.415 . S
C350 H340 0.930 . S
C350 C348 1.419 . S
C350 C351 1.362 . S
C351 H341 0.930 . S
C351 C344 1.409 . S
C351 C350 1.362 . S
H352 C358 0.930 . S
H353 C361 0.930 . S
H354 C362 0.930 . S
H355 C363 0.930 . S
H356 C366 0.930 . S
H357 C367 0.930 . S
C358 H352 0.930 . S
C358 C359 1.355 . S
C358 C360 1.415 . S
C359 C358 1.355 . S
C359 C361 1.419 . S
C360 C358 1.415 . S
C360 C365 1.425 . S
C360 C367 1.409 . S
C361 H353 0.930 . S
C361 C359 1.419 . S
C361 C362 1.362 . S
C362 H354 0.930 . S
C362 C361 1.362 . S
C362 C365 1.409 . S
C363 H355 0.930 . S
C363 C364 1.355 . S
C363 C365 1.415 . S
C364 C363 1.355 . S
C364 C366 1.419 . S
C365 C360 1.425 . S
C365 C362 1.409 . S
C365 C363 1.415 . S
C366 H356 0.930 . S
C366 C364 1.419 . S
C366 C367 1.362 . S
C367 H357 0.930 . S
C367 C360 1.409 . S
C367 C366 1.362 . S
H368 C374 0.930 . S
H369 C377 0.930 . S
H370 C378 0.930 . S
H371 C379 0.930 . S
H372 C382 0.930 . S
H373 C383 0.930 . S
C374 H368 0.930 . S
C374 C375 1.355 . S
C374 C376 1.415 . S
C375 C374 1.355 . S
C375 C377 1.419 . S
C376 C374 1.415 . S
C376 C381 1.425 . S
C376 C383 1.409 . S
C377 H369 0.930 . S
C377 C375 1.419 . S
C377 C378 1.362 . S
C378 H370 0.930 . S
C378 C377 1.362 . S
C378 C381 1.409 . S
C379 H371 0.930 . S
C379 C380 1.355 . S
C379 C381 1.415 . S
C380 C379 1.355 . S
C380 C382 1.419 . S
C381 C376 1.425 . S
C381 C378 1.409 . S
C381 C379 1.415 . S
C382 H372 0.930 . S
C382 C380 1.419 . S
C382 C383 1.362 . S
C383 H373 0.930 . S
C383 C376 1.409 . S
C383 C382 1.362 . S
H384 C390 0.930 . S
H385 C393 0.930 . S
H386 C394 0.930 . S
H387 C395 0.930 . S
H388 C398 0.930 . S
H389 C399 0.930 . S
C390 H384 0.930 . S
C390 C391 1.355 . S
C390 C392 1.415 . S
C391 C390 1.355 . S
C391 C393 1.419 . S
C392 C390 1.415 . S
C392 C397 1.425 . S
C392 C399 1.409 . S
C393 H385 0.930 . S
C393 C391 1.419 . S
C393 C394 1.362 . S
C394 H386 0.930 . S
C394 C393 1.362 . S
C394 C397 1.409 . S
C395 H387 0.930 . S
C395 C396 1.355 . S
C395 C397 1.415 . S
C396 C395 1.355 . S
C396 C398 1.419 . S
C397 C392 1.425 . S
C397 C394 1.409 . S
C397 C395 1.415 . S
C398 H388 0.930 . S
C398 C396 1.419 . S
C398 C399 1.362 . S
C399 H389 0.930 . S
C399 C392 1.409 . S
C399 C398 1.362 . S
H400 C406 0.930 . S
H401 C409 0.930 . S
H402 C410 0.930 . S
H403 C411 0.930 . S
H404 C414 0.930 . S
H405 C415 0.930 . S
C406 H400 0.930 . S
C406 C407 1.355 . S
C406 C408 1.415 . S
C407 C406 1.355 . S
C407 C409 1.419 . S
C408 C406 1.415 . S
C408 C413 1.425 . S
C408 C415 1.409 . S
C409 H401 0.930 . S
C409 C407 1.419 . S
C409 C410 1.362 . S
C410 H402 0.930 . S
C410 C409 1.362 . S
C410 C413 1.409 . S
C411 H403 0.930 . S
C411 C412 1.355 . S
C411 C413 1.415 . S
C412 C411 1.355 . S
C412 C414 1.419 . S
C413 C408 1.425 . S
C413 C410 1.409 . S
C413 C411 1.415 . S
C414 H404 0.930 . S
C414 C412 1.419 . S
C414 C415 1.362 . S
C415 H405 0.930 . S
C415 C408 1.409 . S
C415 C414 1.362 . S
H416 C422 0.930 . S
H417 C425 0.930 . S
H418 C426 0.930 . S
H419 C427 0.930 . S
H420 C430 0.930 . S
H421 C431 0.930 . S
C422 H416 0.930 . S
C422 C423 1.355 . S
C422 C424 1.415 . S
C423 C422 1.355 . S
C423 C425 1.419 . S
C424 C422 1.415 . S
C424 C429 1.425 . S
C424 C431 1.409 . S
C425 H417 0.930 . S
C425 C423 1.419 . S
C425 C426 1.362 . S
C426 H418 0.930 . S
C426 C425 1.362 . S
C426 C429 1.409 . S
C427 H419 0.930 . S
C427 C428 1.355 . S
C427 C429 1.415 . S
C428 C427 1.355 . S
C428 C430 1.419 . S
C429 C424 1.425 . S
C429 C426 1.409 . S
C429 C427 1.415 . S
C430 H420 0.930 . S
C430 C428 1.419 . S
C430 C431 1.362 . S
C431 H421 0.930 . S
C431 C424 1.409 . S
C431 C430 1.362 . S
H432 C438 0.930 . S
H433 C441 0.930 . S
H434 C442 0.930 . S
H435 C443 0.930 . S
H436 C446 0.930 . S
H437 C447 0.930 . S
C438 H432 0.930 . S
C438 C439 1.355 . S
C438 C440 1.415 . S
C439 C438 1.355 . S
C439 C441 1.419 . S
C440 C438 1.415 . S
C440 C445 1.425 . S
C440 C447 1.409 . S
C441 H433 0.930 . S
C441 C439 1.419 . S
C441 C442 1.362 . S
C442 H434 0.930 . S
C442 C441 1.362 . S
C442 C445 1.409 . S
C443 H435 0.930 . S
C443 C444 1.355 . S
C443 C445 1.415 . S
C444 C443 1.355 . S
C444 C446 1.419 . S
C445 C440 1.425 . S
C445 C442 1.409 . S
C445 C443 1.415 . S
C446 H436 0.930 . S
C446 C444 1.419 . S
C446 C447 1.362 . S
C447 H437 0.930 . S
C447 C440 1.409 . S
C447 C446 1.362 . S
H448 C454 0.930 . S
H449 C457 0.930 . S
H450 C458 0.930 . S
H451 C459 0.930 . S
H452 C462 0.930 . S
H453 C463 0.930 . S
C454 H448 0.930 . S
C454 C455 1.355 . S
C454 C456 1.415 . S
C455 C454 1.355 . S
C455 C457 1.419 . S
C456 C454 1.415 . S
C456 C461 1.425 . S
C456 C463 1.409 . S
C457 H449 0.930 . S
C457 C455 1.419 . S
C457 C458 1.362 . S
C458 H450 0.930 . S
C458 C457 1.362 . S
C458 C461 1.409 . S
C459 H451 0.930 . S
C459 C460 1.355 . S
C459 C461 1.415 . S
C460 C459 1.355 . S
C460 C462 1.419 . S
C461 C456 1.425 . S
C461 C458 1.409 . S
C461 C459 1.415 . S
C462 H452 0.930 . S
C462 C460 1.419 . S
C462 C463 1.362 . S
C463 H453 0.930 . S
C463 C456 1.409 . S
C463 C462 1.362 . S
H464 C470 0.930 . S
H465 C473 0.930 . S
H466 C474 0.930 . S
H467 C475 0.930 . S
H468 C478 0.930 . S
H469 C479 0.930 . S
C470 H464 0.930 . S
C470 C471 1.355 . S
C470 C472 1.415 . S
C471 C470 1.355 . S
C471 C473 1.419 . S
C472 C470 1.415 . S
C472 C477 1.425 . S
C472 C479 1.409 . S
C473 H465 0.930 . S
C473 C471 1.419 . S
C473 C474 1.362 . S
C474 H466 0.930 . S
C474 C473 1.362 . S
C474 C477 1.409 . S
C475 H467 0.930 . S
C475 C476 1.355 . S
C475 C477 1.415 . S
C476 C475 1.355 . S
C476 C478 1.419 . S
C477 C472 1.425 . S
C477 C474 1.409 . S
C477 C475 1.415 . S
C478 H468 0.930 . S
C478 C476 1.419 . S
C478 C479 1.362 . S
C479 H469 0.930 . S
C479 C472 1.409 . S
C479 C478 1.362 . S
H480 C486 0.930 . S
H481 C489 0.930 . S
H482 C490 0.930 . S
H483 C491 0.930 . S
H484 C494 0.930 . S
H485 C495 0.930 . S
C486 H480 0.930 . S
C486 C487 1.355 . S
C486 C488 1.415 . S
C487 C486 1.355 . S
C487 C489 1.419 . S
C488 C486 1.415 . S
C488 C493 1.425 . S
C488 C495 1.409 . S
C489 H481 0.930 . S
C489 C487 1.419 . S
C489 C490 1.362 . S
C490 H482 0.930 . S
C490 C489 1.362 . S
C490 C493 1.409 . S
C491 H483 0.930 . S
C491 C492 1.355 . S
C491 C493 1.415 . S
C492 C491 1.355 . S
C492 C494 1.419 . S
C493 C488 1.425 . S
C493 C490 1.409 . S
C493 C491 1.415 . S
C494 H484 0.930 . S
C494 C492 1.419 . S
C494 C495 1.362 . S
C495 H485 0.930 . S
C495 C488 1.409 . S
C495 C494 1.362 . S
H496 C502 0.930 . S
H497 C505 0.930 . S
H498 C506 0.930 . S
H499 C507 0.930 . S
H500 C510 0.930 . S
H501 C511 0.930 . S
C502 H496 0.930 . S
C502 C503 1.355 . S
C502 C504 1.415 . S
C503 C502 1.355 . S
C503 C505 1.419 . S
C504 C502 1.415 . S
C504 C509 1.425 . S
C504 C511 1.409 . S
C505 H497 0.930 . S
C505 C503 1.419 . S
C505 C506 1.362 . S
C506 H498 0.930 . S
C506 C505 1.362 . S
C506 C509 1.409 . S
C507 H499 0.930 . S
C507 C508 1.355 . S
C507 C509 1.415 . S
C508 C507 1.355 . S
C508 C510 1.419 . S
C509 C504 1.425 . S
C509 C506 1.409 . S
C509 C507 1.415 . S
C510 H500 0.930 . S
C510 C508 1.419 . S
C510 C511 1.362 . S
C511 H501 0.930 . S
C511 C504 1.409 . S
C511 C510 1.362 . S
H512 C518 0.930 . S
H513 C521 0.930 1_554 S
H514 C522 0.930 . S
H515 C523 0.930 . S
H516 C526 0.930 . S
H517 C527 0.930 . S
C518 H512 0.930 . S
C518 C519 1.355 . S
C518 C520 1.415 . S
C519 C518 1.355 . S
C519 C521 1.419 . S
C520 C518 1.415 . S
C520 C525 1.425 . S
C520 C527 1.409 . S
C521 H513 0.930 1_556 S
C521 C519 1.419 . S
C521 C522 1.362 . S
C522 H514 0.930 . S
C522 C521 1.362 . S
C522 C525 1.409 . S
C523 H515 0.930 . S
C523 C524 1.355 . S
C523 C525 1.415 . S
C524 C523 1.355 . S
C524 C526 1.419 . S
C525 C520 1.425 . S
C525 C522 1.409 . S
C525 C523 1.415 . S
C526 H516 0.930 . S
C526 C524 1.419 . S
C526 C527 1.362 . S
C527 H517 0.930 . S
C527 C520 1.409 . S
C527 C526 1.362 . S
C247 C218 1.340 . S
C252 C19 1.460 . S
C263 C18 1.382 . S
C268 C59 1.445 . S
C279 C58 1.422 . S
C284 C99 1.441 . S
C295 C98 1.426 . S
C300 C139 1.442 . S
C311 C179 1.461 . S
C316 C138 1.340 . S
C327 C219 1.453 . S
C332 C178 1.352 . S
C343 C15 1.561 . S
C348 C5 1.561 . S
C359 C55 1.634 . S
C364 C45 1.634 . S
C375 C95 1.560 . S
C380 C85 1.560 . S
C391 C135 1.566 . S
C396 C125 1.566 . S
C407 C165 1.619 . S
C412 C175 1.619 . S
C423 C215 1.654 . S
C428 C205 1.654 . S
C439 C9 1.772 . S
C444 C168 1.770 . S
C455 C49 1.763 . S
C460 C208 1.765 . S
C471 C8 1.749 . S
C476 C89 1.747 . S
C487 C48 1.741 . S
C492 C129 1.744 . S
C503 C169 1.743 . S
C508 C88 1.744 . S
C519 C128 1.755 . S
C524 C209 1.752 . S
