# Generated by pormake.
# Topology afi, (4)-cn, num edge types: 1
# Building blocks:
#     Node 0, Type 0, BuildingBlock: CEKHIL_clean_sbu_0, # of connection points: 4
#     Node 1, Type 0, BuildingBlock: CEKHIL_clean_sbu_0, # of connection points: 4
#     Node 2, Type 0, BuildingBlock: CEKHIL_clean_sbu_0, # of connection points: 4
#     Node 3, Type 0, BuildingBlock: CEKHIL_clean_sbu_0, # of connection points: 4
#     Node 4, Type 0, BuildingBlock: CEKHIL_clean_sbu_0, # of connection points: 4
#     Node 5, Type 0, BuildingBlock: CEKHIL_clean_sbu_0, # of connection points: 4
#     Node 6, Type 0, BuildingBlock: CEKHIL_clean_sbu_0, # of connection points: 4
#     Node 7, Type 0, BuildingBlock: CEKHIL_clean_sbu_0, # of connection points: 4
#     Node 8, Type 0, BuildingBlock: CEKHIL_clean_sbu_0, # of connection points: 4
#     Node 9, Type 0, BuildingBlock: CEKHIL_clean_sbu_0, # of connection points: 4
#     Node 10, Type 0, BuildingBlock: CEKHIL_clean_sbu_0, # of connection points: 4
#     Node 11, Type 0, BuildingBlock: CEKHIL_clean_sbu_0, # of connection points: 4
#     Node 12, Type 0, BuildingBlock: CEKHIL_clean_sbu_0, # of connection points: 4
#     Node 13, Type 0, BuildingBlock: CEKHIL_clean_sbu_0, # of connection points: 4
#     Node 14, Type 0, BuildingBlock: CEKHIL_clean_sbu_0, # of connection points: 4
#     Node 15, Type 0, BuildingBlock: CEKHIL_clean_sbu_0, # of connection points: 4
#     Node 16, Type 0, BuildingBlock: CEKHIL_clean_sbu_0, # of connection points: 4
#     Node 17, Type 0, BuildingBlock: CEKHIL_clean_sbu_0, # of connection points: 4
#     Node 18, Type 0, BuildingBlock: CEKHIL_clean_sbu_0, # of connection points: 4
#     Node 19, Type 0, BuildingBlock: CEKHIL_clean_sbu_0, # of connection points: 4
#     Node 20, Type 0, BuildingBlock: CEKHIL_clean_sbu_0, # of connection points: 4
#     Node 21, Type 0, BuildingBlock: CEKHIL_clean_sbu_0, # of connection points: 4
#     Node 22, Type 0, BuildingBlock: CEKHIL_clean_sbu_0, # of connection points: 4
#     Node 23, Type 0, BuildingBlock: CEKHIL_clean_sbu_0, # of connection points: 4
#     Edge 24, Type (0, 0), BuildingBlock: OJICUG_clean_linker_0, # of connection points: 2
#     Edge 25, Type (0, 0), BuildingBlock: OJICUG_clean_linker_0, # of connection points: 2
#     Edge 26, Type (0, 0), BuildingBlock: OJICUG_clean_linker_0, # of connection points: 2
#     Edge 27, Type (0, 0), BuildingBlock: OJICUG_clean_linker_0, # of connection points: 2
#     Edge 28, Type (0, 0), BuildingBlock: OJICUG_clean_linker_0, # of connection points: 2
#     Edge 29, Type (0, 0), BuildingBlock: OJICUG_clean_linker_0, # of connection points: 2
#     Edge 30, Type (0, 0), BuildingBlock: OJICUG_clean_linker_0, # of connection points: 2
#     Edge 31, Type (0, 0), BuildingBlock: OJICUG_clean_linker_0, # of connection points: 2
#     Edge 32, Type (0, 0), BuildingBlock: OJICUG_clean_linker_0, # of connection points: 2
#     Edge 33, Type (0, 0), BuildingBlock: OJICUG_clean_linker_0, # of connection points: 2
#     Edge 34, Type (0, 0), BuildingBlock: OJICUG_clean_linker_0, # of connection points: 2
#     Edge 35, Type (0, 0), BuildingBlock: OJICUG_clean_linker_0, # of connection points: 2
#     Edge 36, Type (0, 0), BuildingBlock: OJICUG_clean_linker_0, # of connection points: 2
#     Edge 37, Type (0, 0), BuildingBlock: OJICUG_clean_linker_0, # of connection points: 2
#     Edge 38, Type (0, 0), BuildingBlock: OJICUG_clean_linker_0, # of connection points: 2
#     Edge 39, Type (0, 0), BuildingBlock: OJICUG_clean_linker_0, # of connection points: 2
#     Edge 40, Type (0, 0), BuildingBlock: OJICUG_clean_linker_0, # of connection points: 2
#     Edge 41, Type (0, 0), BuildingBlock: OJICUG_clean_linker_0, # of connection points: 2
#     Edge 42, Type (0, 0), BuildingBlock: OJICUG_clean_linker_0, # of connection points: 2
#     Edge 43, Type (0, 0), BuildingBlock: OJICUG_clean_linker_0, # of connection points: 2
#     Edge 44, Type (0, 0), BuildingBlock: OJICUG_clean_linker_0, # of connection points: 2
#     Edge 45, Type (0, 0), BuildingBlock: OJICUG_clean_linker_0, # of connection points: 2
#     Edge 46, Type (0, 0), BuildingBlock: OJICUG_clean_linker_0, # of connection points: 2
#     Edge 47, Type (0, 0), BuildingBlock: OJICUG_clean_linker_0, # of connection points: 2
#     Edge 48, Type (0, 0), BuildingBlock: OJICUG_clean_linker_0, # of connection points: 2
#     Edge 49, Type (0, 0), BuildingBlock: OJICUG_clean_linker_0, # of connection points: 2
#     Edge 50, Type (0, 0), BuildingBlock: OJICUG_clean_linker_0, # of connection points: 2
#     Edge 51, Type (0, 0), BuildingBlock: OJICUG_clean_linker_0, # of connection points: 2
#     Edge 52, Type (0, 0), BuildingBlock: OJICUG_clean_linker_0, # of connection points: 2
#     Edge 53, Type (0, 0), BuildingBlock: OJICUG_clean_linker_0, # of connection points: 2
#     Edge 54, Type (0, 0), BuildingBlock: OJICUG_clean_linker_0, # of connection points: 2
#     Edge 55, Type (0, 0), BuildingBlock: OJICUG_clean_linker_0, # of connection points: 2
#     Edge 56, Type (0, 0), BuildingBlock: OJICUG_clean_linker_0, # of connection points: 2
#     Edge 57, Type (0, 0), BuildingBlock: OJICUG_clean_linker_0, # of connection points: 2
#     Edge 58, Type (0, 0), BuildingBlock: OJICUG_clean_linker_0, # of connection points: 2
#     Edge 59, Type (0, 0), BuildingBlock: OJICUG_clean_linker_0, # of connection points: 2
#     Edge 60, Type (0, 0), BuildingBlock: OJICUG_clean_linker_0, # of connection points: 2
#     Edge 61, Type (0, 0), BuildingBlock: OJICUG_clean_linker_0, # of connection points: 2
#     Edge 62, Type (0, 0), BuildingBlock: OJICUG_clean_linker_0, # of connection points: 2
#     Edge 63, Type (0, 0), BuildingBlock: OJICUG_clean_linker_0, # of connection points: 2
#     Edge 64, Type (0, 0), BuildingBlock: OJICUG_clean_linker_0, # of connection points: 2
#     Edge 65, Type (0, 0), BuildingBlock: OJICUG_clean_linker_0, # of connection points: 2
#     Edge 66, Type (0, 0), BuildingBlock: OJICUG_clean_linker_0, # of connection points: 2
#     Edge 67, Type (0, 0), BuildingBlock: OJICUG_clean_linker_0, # of connection points: 2
#     Edge 68, Type (0, 0), BuildingBlock: OJICUG_clean_linker_0, # of connection points: 2
#     Edge 69, Type (0, 0), BuildingBlock: OJICUG_clean_linker_0, # of connection points: 2
#     Edge 70, Type (0, 0), BuildingBlock: OJICUG_clean_linker_0, # of connection points: 2
#     Edge 71, Type (0, 0), BuildingBlock: OJICUG_clean_linker_0, # of connection points: 2
# Relax obj value: 0.097
# Max RMSD: 0.106
# Mean RMSD: 0.106
data_MOF--net-afi--node1-CEKHIL_clean_sbu_0--edge1-OJICUG_clean_linker_0
_symmetry_space_group_name_H-M    P1
_symmetry_Int_Tables_number       1
_symmetry_cell_setting            triclinic
loop_
_symmetry_equiv_pos_as_xyz
'x, y, z'
_cell_length_a     49.079995
_cell_length_b     48.971747
_cell_length_c     28.293926
_cell_angle_alpha  90.002714
_cell_angle_beta   89.998519
_cell_angle_gamma 120.05628
loop_
_atom_site_label
_atom_site_type_symbol
_atom_site_fract_x
_atom_site_fract_y
_atom_site_fract_z
_atom_type_partial_charge
Co0 Co 0.47986 0.14232 0.19976 0.0
O1 O 0.50001 0.18771 0.19793 0.0
O2 O 0.45317 0.15634 0.22921 0.0
C3 C 0.5231 0.14091 0.22412 0.0
O4 O 0.4524 0.09474 0.21171 0.0
Co5 Co 0.50246 0.10544 0.13651 0.0
O6 O 0.47203 0.06813 0.17303 0.0
C7 C 0.46734 0.13381 0.09456 0.0
C8 C 0.47561 0.18491 0.22015 0.0
C9 C 0.45237 0.06904 0.2014 0.0
O10 O 0.46002 0.13953 0.13565 0.0
O11 O 0.48603 0.12309 0.08798 0.0
O12 O 0.50559 0.14505 0.25448 0.0
O13 O 0.51526 0.14003 0.18044 0.0
Co14 Co 0.34824 0.4764 0.19952 0.0
O15 O 0.32346 0.49693 0.1977 0.0
O16 O 0.30736 0.4498 0.22859 0.0
C17 C 0.39307 0.5194 0.22442 0.0
O18 O 0.36784 0.44852 0.21136 0.0
Co19 Co 0.40783 0.49889 0.13666 0.0
O20 O 0.41414 0.46804 0.17297 0.0
C21 C 0.34448 0.46425 0.09418 0.0
C22 C 0.3016 0.47249 0.21966 0.0
C23 C 0.39337 0.44832 0.20113 0.0
O24 O 0.33129 0.45684 0.13516 0.0
O25 O 0.37396 0.48283 0.08786 0.0
O26 O 0.37123 0.50185 0.25455 0.0
O27 O 0.38621 0.51177 0.18066 0.0
Co28 Co 0.88348 0.34321 0.19974 0.0
O29 O 0.83821 0.31812 0.19703 0.0
O30 O 0.86905 0.30228 0.22905 0.0
C31 C 0.88478 0.38791 0.22412 0.0
O32 O 0.93087 0.36323 0.21256 0.0
Co33 Co 0.92079 0.40294 0.13699 0.0
O34 O 0.9577 0.40965 0.17418 0.0
C35 C 0.89325 0.33945 0.09477 0.0
C36 C 0.84067 0.29634 0.21944 0.0
C37 C 0.95658 0.38896 0.20258 0.0
O38 O 0.88675 0.32625 0.13578 0.0
O39 O 0.90419 0.36896 0.08819 0.0
O40 O 0.88039 0.36608 0.25437 0.0
O41 O 0.88598 0.38112 0.18044 0.0
Co42 Co 0.54789 0.87775 0.19808 0.0
O43 O 0.52817 0.8324 0.19601 0.0
O44 O 0.57503 0.86407 0.22696 0.0
C45 C 0.50448 0.87858 0.2233 0.0
O46 O 0.57501 0.92532 0.2101 0.0
Co47 Co 0.52423 0.91419 0.13585 0.0
O48 O 0.55487 0.95164 0.17193 0.0
C49 C 0.56043 0.8873 0.09283 0.0
C50 C 0.55273 0.83542 0.21802 0.0
C51 C 0.57483 0.95092 0.1999 0.0
O52 O 0.56765 0.8811 0.13367 0.0
O53 O 0.54145 0.89772 0.08672 0.0
O54 O 0.52229 0.8746 0.25325 0.0
O55 O 0.51213 0.87962 0.1795 0.0
Co56 Co 0.681 0.5448 0.19934 0.0
O57 O 0.70576 0.52424 0.19749 0.0
O58 O 0.72188 0.57134 0.22848 0.0
C59 C 0.63616 0.50178 0.22418 0.0
O60 O 0.66143 0.5727 0.21128 0.0
Co61 Co 0.62142 0.52241 0.13653 0.0
O62 O 0.61512 0.55324 0.17294 0.0
C63 C 0.68477 0.55697 0.09401 0.0
C64 C 0.7276 0.54863 0.21955 0.0
C65 C 0.6359 0.57293 0.20112 0.0
O66 O 0.69796 0.56439 0.135 0.0
O67 O 0.65529 0.5384 0.08771 0.0
O68 O 0.658 0.51931 0.25432 0.0
O69 O 0.64302 0.50945 0.18042 0.0
Co70 Co 0.14514 0.67734 0.1993 0.0
O71 O 0.19041 0.70248 0.19695 0.0
O72 O 0.15941 0.71826 0.22854 0.0
C73 C 0.14381 0.63267 0.22392 0.0
O74 O 0.09772 0.65731 0.21184 0.0
Co75 Co 0.10794 0.61751 0.1367 0.0
O76 O 0.07097 0.61077 0.17375 0.0
C77 C 0.13588 0.68094 0.09415 0.0
C78 C 0.18784 0.72422 0.21928 0.0
C79 C 0.07204 0.63152 0.20198 0.0
O80 O 0.14206 0.69421 0.13511 0.0
O81 O 0.125 0.65142 0.08779 0.0
O82 O 0.14809 0.6545 0.2541 0.0
O83 O 0.1427 0.63944 0.1802 0.0
Co84 Co 0.88232 0.54432 0.30369 0.0
O85 O 0.83701 0.52388 0.30579 0.0
O86 O 0.86803 0.57098 0.27482 0.0
C87 C 0.88394 0.50122 0.27863 0.0
O88 O 0.92974 0.57212 0.29147 0.0
Co89 Co 0.91964 0.52177 0.36592 0.0
O90 O 0.95666 0.55254 0.32932 0.0
C91 C 0.89115 0.55647 0.40901 0.0
C92 C 0.8396 0.54834 0.28384 0.0
C93 C 0.9555 0.57229 0.30132 0.0
O94 O 0.88515 0.56387 0.36815 0.0
O95 O 0.9021 0.5379 0.41504 0.0
O96 O 0.87961 0.51879 0.24859 0.0
O97 O 0.88492 0.50891 0.32241 0.0
Co98 Co 0.34734 0.87884 0.30357 0.0
O99 O 0.32189 0.8335 0.30632 0.0
O100 O 0.3065 0.86481 0.27458 0.0
C101 C 0.39162 0.87962 0.27873 0.0
O102 O 0.36766 0.92634 0.29064 0.0
Co103 Co 0.40732 0.91594 0.36565 0.0
O104 O 0.41421 0.95301 0.32846 0.0
C105 C 0.34422 0.8889 0.40863 0.0
C106 C 0.30028 0.83626 0.28406 0.0
C107 C 0.3935 0.95201 0.30031 0.0
O108 O 0.33083 0.88241 0.36776 0.0
O109 O 0.37367 0.89965 0.41483 0.0
O110 O 0.36979 0.87541 0.2487 0.0
O111 O 0.38507 0.88097 0.32248 0.0
Co112 Co 0.47873 0.34384 0.30325 0.0
O113 O 0.49901 0.31884 0.30614 0.0
O114 O 0.4523 0.30284 0.27414 0.0
C115 C 0.52203 0.38854 0.27866 0.0
O116 O 0.45123 0.3637 0.29025 0.0
Co117 Co 0.50103 0.40376 0.36556 0.0
O118 O 0.47068 0.41022 0.32834 0.0
C119 C 0.4654 0.34039 0.40824 0.0
C120 C 0.4748 0.29698 0.28379 0.0
C121 C 0.45113 0.3894 0.30005 0.0
O122 O 0.4586 0.32705 0.36733 0.0
O123 O 0.48394 0.36993 0.41457 0.0
O124 O 0.50462 0.36662 0.24851 0.0
O125 O 0.51405 0.38184 0.32236 0.0
Co126 Co 0.14654 0.47635 0.30315 0.0
O127 O 0.19184 0.49684 0.3052 0.0
O128 O 0.16088 0.44979 0.27404 0.0
C129 C 0.14481 0.51944 0.27836 0.0
O130 O 0.0991 0.44853 0.29108 0.0
Co131 Co 0.10936 0.49878 0.36595 0.0
O132 O 0.07225 0.46794 0.32957 0.0
C133 C 0.13793 0.46399 0.4084 0.0
C134 C 0.1893 0.47244 0.28314 0.0
C135 C 0.07334 0.44828 0.30132 0.0
O136 O 0.14377 0.45664 0.36741 0.0
O137 O 0.12708 0.48261 0.41476 0.0
O138 O 0.14915 0.50193 0.24821 0.0
O139 O 0.14393 0.51171 0.3221 0.0
Co140 Co 0.68088 0.14123 0.30175 0.0
O141 O 0.70615 0.18659 0.30447 0.0
O142 O 0.72168 0.15545 0.27251 0.0
C143 C 0.6364 0.14018 0.27745 0.0
O144 O 0.66075 0.09374 0.28878 0.0
Co145 Co 0.62107 0.10374 0.36414 0.0
O146 O 0.61415 0.06689 0.32647 0.0
C147 C 0.68435 0.13112 0.40668 0.0
C148 C 0.72782 0.18395 0.28216 0.0
C149 C 0.63491 0.06803 0.2983 0.0
O150 O 0.69769 0.13792 0.36579 0.0
O151 O 0.65486 0.12 0.41304 0.0
O152 O 0.65813 0.14449 0.24714 0.0
O153 O 0.64314 0.13884 0.3211 0.0
Co154 Co 0.55054 0.67734 0.30339 0.0
O155 O 0.53014 0.70225 0.30597 0.0
O156 O 0.57688 0.7183 0.27407 0.0
C157 C 0.50731 0.63254 0.27889 0.0
O158 O 0.57815 0.65758 0.29059 0.0
Co159 Co 0.52843 0.61758 0.36592 0.0
O160 O 0.55873 0.61107 0.32867 0.0
C161 C 0.56382 0.68103 0.40844 0.0
C162 C 0.5543 0.72407 0.2835 0.0
C163 C 0.57828 0.63189 0.30038 0.0
O164 O 0.57059 0.69431 0.36748 0.0
O165 O 0.54541 0.65147 0.41484 0.0
O166 O 0.52472 0.65441 0.24869 0.0
O167 O 0.51526 0.63932 0.3226 0.0
Co168 Co 0.54923 0.87962 0.80193 0.0
O169 O 0.52979 0.83433 0.80515 0.0
O170 O 0.57623 0.8658 0.77289 0.0
C171 C 0.50524 0.87956 0.7775 0.0
O172 O 0.57593 0.92719 0.78842 0.0
Co173 Co 0.5259 0.9168 0.86315 0.0
O174 O 0.55035 0.95101 0.81747 0.0
C175 C 0.56328 0.89117 0.90666 0.0
C176 C 0.55414 0.83721 0.78271 0.0
C177 C 0.57198 0.95124 0.79237 0.0
O178 O 0.56945 0.8836 0.86607 0.0
O179 O 0.54498 0.90244 0.91257 0.0
O180 O 0.52291 0.87557 0.74726 0.0
O181 O 0.51352 0.88136 0.82112 0.0
Co182 Co 0.6808 0.54464 0.80277 0.0
O183 O 0.70528 0.52377 0.80486 0.0
O184 O 0.72179 0.57089 0.77369 0.0
C185 C 0.63582 0.50176 0.77795 0.0
O186 O 0.6615 0.57279 0.79065 0.0
Co187 Co 0.62126 0.52265 0.86554 0.0
O188 O 0.61524 0.55362 0.82906 0.0
C189 C 0.68461 0.55704 0.90806 0.0
C190 C 0.72728 0.54805 0.78281 0.0
C191 C 0.63607 0.57321 0.80084 0.0
O192 O 0.69782 0.56426 0.86708 0.0
O193 O 0.6551 0.53864 0.91439 0.0
O194 O 0.65773 0.51916 0.74781 0.0
O195 O 0.64269 0.50947 0.82169 0.0
Co196 Co 0.14503 0.67713 0.80311 0.0
O197 O 0.19031 0.70234 0.80541 0.0
O198 O 0.15927 0.71805 0.7738 0.0
C199 C 0.14373 0.63247 0.77856 0.0
O200 O 0.09756 0.65694 0.79068 0.0
Co201 Co 0.10811 0.61737 0.86602 0.0
O202 O 0.07107 0.61043 0.82896 0.0
C203 C 0.13597 0.68086 0.90831 0.0
C204 C 0.18772 0.72406 0.78307 0.0
C205 C 0.07197 0.63107 0.80066 0.0
O206 O 0.14196 0.69404 0.86728 0.0
O207 O 0.12525 0.65137 0.91477 0.0
O208 O 0.14798 0.65426 0.74833 0.0
O209 O 0.14269 0.6393 0.82226 0.0
Co210 Co 0.47892 0.14268 0.80341 0.0
O211 O 0.49889 0.18803 0.80535 0.0
O212 O 0.45195 0.15655 0.77448 0.0
C213 C 0.52218 0.14164 0.77827 0.0
O214 O 0.45164 0.09505 0.79152 0.0
Co215 Co 0.50229 0.10618 0.866 0.0
O216 O 0.4718 0.06876 0.82975 0.0
C217 C 0.46718 0.1343 0.90875 0.0
C218 C 0.47439 0.18516 0.78337 0.0
C219 C 0.45189 0.06947 0.80168 0.0
O220 O 0.45939 0.13974 0.86783 0.0
O221 O 0.48614 0.12386 0.91492 0.0
O222 O 0.5044 0.14562 0.74827 0.0
O223 O 0.51457 0.14066 0.82207 0.0
Co224 Co 0.34838 0.47733 0.80311 0.0
O225 O 0.32341 0.49769 0.80505 0.0
O226 O 0.30756 0.45067 0.77391 0.0
C227 C 0.39316 0.52051 0.77844 0.0
O228 O 0.36811 0.44962 0.79106 0.0
Co229 Co 0.40793 0.4998 0.86599 0.0
O230 O 0.41435 0.46905 0.82957 0.0
C231 C 0.34456 0.46487 0.90834 0.0
C232 C 0.30165 0.47323 0.78298 0.0
C233 C 0.39363 0.44939 0.80129 0.0
O234 O 0.3314 0.45756 0.86733 0.0
O235 O 0.37402 0.4835 0.91475 0.0
O236 O 0.37137 0.50299 0.74823 0.0
O237 O 0.38628 0.51275 0.82217 0.0
Co238 Co 0.88299 0.34124 0.804 0.0
O239 O 0.8378 0.31589 0.80752 0.0
O240 O 0.86854 0.30007 0.77523 0.0
C241 C 0.88378 0.38567 0.77921 0.0
O242 O 0.93034 0.36149 0.79057 0.0
Co243 Co 0.9203 0.40152 0.86584 0.0
O244 O 0.95711 0.40811 0.82851 0.0
C245 C 0.89299 0.33832 0.90899 0.0
C246 C 0.84018 0.294 0.78534 0.0
C247 C 0.95601 0.38734 0.80026 0.0
O248 O 0.88679 0.32486 0.86817 0.0
O249 O 0.90358 0.36782 0.91505 0.0
O250 O 0.87933 0.36371 0.74917 0.0
O251 O 0.88534 0.37913 0.82288 0.0
Co252 Co 0.14597 0.47589 0.69949 0.0
O253 O 0.19129 0.49666 0.69745 0.0
O254 O 0.16057 0.44955 0.72861 0.0
C255 C 0.14398 0.51885 0.72427 0.0
O256 O 0.09855 0.4478 0.71158 0.0
Co257 Co 0.10841 0.49791 0.63681 0.0
O258 O 0.0714 0.46689 0.67316 0.0
C259 C 0.13729 0.46342 0.59426 0.0
C260 C 0.18893 0.47235 0.71952 0.0
C261 C 0.07268 0.44731 0.70137 0.0
O262 O 0.14336 0.45625 0.63522 0.0
O263 O 0.12616 0.48181 0.58794 0.0
O264 O 0.14841 0.5014 0.75442 0.0
O265 O 0.1431 0.51111 0.68053 0.0
Co266 Co 0.67946 0.14193 0.6977 0.0
O267 O 0.70625 0.187 0.69842 0.0
O268 O 0.71975 0.15358 0.7275 0.0
C269 C 0.63596 0.1425 0.7231 0.0
O270 O 0.65653 0.09366 0.7057 0.0
Co271 Co 0.62048 0.11147 0.6317 0.0
O272 O 0.60952 0.07327 0.6692 0.0
C273 C 0.68416 0.13639 0.59174 0.0
C274 C 0.72702 0.18272 0.72021 0.0
C275 C 0.62891 0.07029 0.69567 0.0
O276 O 0.69634 0.1397 0.63316 0.0
O277 O 0.65537 0.12827 0.58443 0.0
O278 O 0.65685 0.14448 0.75326 0.0
O279 O 0.64328 0.14284 0.67934 0.0
Co280 Co 0.551 0.6782 0.69949 0.0
O281 O 0.53081 0.7033 0.69681 0.0
O282 O 0.57756 0.71923 0.72855 0.0
C283 C 0.50763 0.63356 0.7242 0.0
O284 O 0.57843 0.65821 0.71227 0.0
Co285 Co 0.5284 0.61822 0.63719 0.0
O286 O 0.55882 0.6117 0.6741 0.0
C287 C 0.56383 0.68156 0.59437 0.0
C288 C 0.55507 0.72514 0.71908 0.0
C289 C 0.57846 0.63248 0.70234 0.0
O290 O 0.57097 0.69492 0.63527 0.0
O291 O 0.54516 0.65204 0.58815 0.0
O292 O 0.52515 0.65544 0.75432 0.0
O293 O 0.51557 0.64025 0.68049 0.0
Co294 Co 0.88176 0.54257 0.70029 0.0
O295 O 0.83645 0.52229 0.69817 0.0
O296 O 0.86759 0.56925 0.72944 0.0
C297 C 0.88322 0.49926 0.72492 0.0
O298 O 0.92921 0.57026 0.71254 0.0
Co299 Co 0.91896 0.52018 0.6376 0.0
O300 O 0.95614 0.55102 0.67389 0.0
C301 C 0.8907 0.55524 0.59509 0.0
C302 C 0.83912 0.54675 0.72022 0.0
C303 C 0.95501 0.57061 0.70224 0.0
O304 O 0.8847 0.56244 0.63609 0.0
O305 O 0.90156 0.53663 0.58871 0.0
O306 O 0.87897 0.5168 0.75512 0.0
O307 O 0.88424 0.50711 0.68121 0.0
Co308 Co 0.34732 0.87905 0.69956 0.0
O309 O 0.32192 0.83368 0.69663 0.0
O310 O 0.30649 0.86485 0.72874 0.0
C311 C 0.39172 0.87988 0.72392 0.0
O312 O 0.36754 0.92653 0.71274 0.0
Co313 Co 0.40726 0.91652 0.63744 0.0
O314 O 0.41403 0.95346 0.67482 0.0
C315 C 0.34408 0.88926 0.59462 0.0
C316 C 0.3003 0.83634 0.71904 0.0
C317 C 0.3933 0.9523 0.70309 0.0
O318 O 0.33069 0.88267 0.63549 0.0
O319 O 0.37354 0.90013 0.58838 0.0
O320 O 0.36996 0.87556 0.75417 0.0
O321 O 0.38505 0.88135 0.68028 0.0
Co322 Co 0.47806 0.34411 0.69906 0.0
O323 O 0.49816 0.31894 0.6964 0.0
O324 O 0.45147 0.30318 0.72828 0.0
C325 C 0.52144 0.38874 0.72358 0.0
O326 O 0.45073 0.36417 0.71187 0.0
Co327 Co 0.5006 0.40396 0.63654 0.0
O328 O 0.47044 0.41071 0.67378 0.0
C329 C 0.46495 0.34054 0.59401 0.0
C330 C 0.4739 0.29719 0.71878 0.0
C331 C 0.45082 0.38996 0.70207 0.0
O332 O 0.45798 0.32727 0.63497 0.0
O333 O 0.48358 0.37006 0.58763 0.0
O334 O 0.50396 0.3669 0.75378 0.0
O335 O 0.51349 0.382 0.67988 0.0
C336 C 0.41601 0.0107 0.20127 0.0
C337 C 0.43062 0.03943 0.22614 0.0
H338 H 0.39147 0.96014 0.20568 0.0
C339 C 0.42855 0.03894 0.27563 0.0
H340 H 0.41748 0.01052 0.16307 0.0
C341 C 0.4145 1.01017 0.29996 0.0
C342 C 0.40137 0.98146 0.27513 0.0
H343 H 0.43998 0.06075 0.2956 0.0
H344 H 0.41523 1.01036 0.33824 0.0
C345 C 0.40104 0.98193 0.22557 0.0
C346 C 0.42863 0.39667 0.22529 0.0
C347 C 0.42945 0.39705 0.27486 0.0
H348 H 0.4166 0.41315 0.16277 0.0
C349 C 0.41391 0.41016 0.29966 0.0
H350 H 0.44082 0.3871 0.20542 0.0
C351 C 0.39927 0.42424 0.2753 0.0
C352 C 0.4009 0.42633 0.22582 0.0
H353 H 0.41446 0.41093 0.33794 0.0
H354 H 0.38899 0.43571 0.29527 0.0
C355 C 0.4149 0.41165 0.20097 0.0
C356 C 0.01463 0.41014 0.20282 0.0
C357 C 0.98599 0.39679 0.22768 0.0
H358 H 0.06509 0.43595 0.20711 0.0
C359 C 0.98648 0.39631 0.27724 0.0
H360 H 0.0148 0.41098 0.16454 0.0
C361 C 0.01521 0.41139 0.30151 0.0
C362 C 0.04386 0.42628 0.2766 0.0
H363 H 0.96474 0.38656 0.29717 0.0
H364 H 0.01504 0.41278 0.33972 0.0
C365 C 0.04336 0.42431 0.22711 0.0
C366 C 0.61062 1.00935 0.19912 0.0
C367 C 0.59686 0.98066 0.22409 0.0
H368 H 0.63484 0.05991 0.20343 0.0
C369 C 0.60027 0.98125 0.27338 0.0
H370 H 0.60815 1.00947 0.16107 0.0
C371 C 0.61475 1.01007 0.29762 0.0
C372 C 0.62699 0.0387 0.2728 0.0
H373 H 0.58956 0.95948 0.29345 0.0
H374 H 0.61501 1.00995 0.33591 0.0
C375 C 0.62601 0.03817 0.22325 0.0
C376 C 0.61544 0.61104 0.29984 0.0
C377 C 0.59993 0.62423 0.27512 0.0
H378 H 0.6403 0.58543 0.29531 0.0
C379 C 0.60074 0.62465 0.22555 0.0
H380 H 0.61489 0.61024 0.33811 0.0
C381 C 0.61443 0.60965 0.20114 0.0
C382 C 0.6284 0.59491 0.22592 0.0
H383 H 0.58857 0.63426 0.20573 0.0
H384 H 0.61272 0.60819 0.16295 0.0
C385 C 0.63003 0.59696 0.2754 0.0
C386 C 1.01394 0.61014 0.20243 0.0
C387 C 0.04265 0.62369 0.22715 0.0
H388 H 0.96349 0.58421 0.20701 0.0
C389 C 0.04226 0.62439 0.27672 0.0
H390 H 1.01368 0.60912 0.16417 0.0
C391 C 1.0136 0.60933 0.30115 0.0
C392 C 0.98489 0.59427 0.2764 0.0
H393 H 0.06405 0.63429 0.29654 0.0
H394 H 1.01386 0.6081 0.33937 0.0
C395 C 0.98527 0.596 0.22688 0.0
C396 C 0.57589 0.98361 0.72334 0.0
C397 C 0.59048 0.97938 0.76289 0.0
H398 H 0.57675 0.01514 0.6708 0.0
C399 C 0.61966 1.00436 0.77798 0.0
H400 H 0.55313 0.96479 0.7116 0.0
C401 C 0.63335 0.03372 0.75479 0.0
C402 C 0.61781 0.03848 0.71654 0.0
H403 H 0.63101 1.00168 0.80904 0.0
H404 H 0.65521 0.05302 0.76823 0.0
C405 C 0.58941 0.01265 0.7003 0.0
C406 C 0.62998 0.59714 0.72661 0.0
C407 C 0.62871 0.59532 0.77612 0.0
H408 H 0.61452 0.61032 0.66412 0.0
C409 C 0.61509 0.61034 0.80107 0.0
H410 H 0.63995 0.58539 0.70657 0.0
C411 C 0.60138 0.62539 0.77686 0.0
C412 C 0.60018 0.62475 0.72731 0.0
H413 H 0.61365 0.60905 0.83929 0.0
H414 H 0.58947 0.63521 0.79685 0.0
C415 C 0.61536 0.61129 0.70238 0.0
C416 C 1.01313 0.60768 0.70183 0.0
C417 C 0.98451 0.59276 0.72683 0.0
H418 H 0.06361 0.63287 0.70601 0.0
C419 C 0.98508 0.59502 0.7763 0.0
H420 H 1.01327 0.60609 0.66364 0.0
C421 C 1.01385 0.60954 0.80051 0.0
C422 C 0.04247 0.62295 0.77557 0.0
H423 H 0.96338 0.58339 0.79638 0.0
H424 H 1.01374 0.60891 0.83879 0.0
C425 C 0.04189 0.62311 0.726 0.0
C426 C 0.42764 0.03915 0.72773 0.0
C427 C 0.43013 0.03974 0.77717 0.0
H428 H 0.41409 0.01049 0.66518 0.0
C429 C 0.41601 0.01104 0.80212 0.0
H430 H 0.4387 0.06093 0.70769 0.0
C431 C 0.40112 0.98222 0.77792 0.0
C432 C 0.40103 0.98169 0.72835 0.0
H433 H 0.41782 0.01092 0.84028 0.0
H434 H 0.39195 0.96047 0.79783 0.0
C435 C 0.41367 1.01035 0.70347 0.0
C436 C 0.41508 0.41266 0.80131 0.0
C437 C 0.40113 0.42742 0.77652 0.0
H438 H 0.44077 0.38788 0.79675 0.0
C439 C 0.3994 0.42527 0.72705 0.0
H440 H 0.41685 0.41418 0.8395 0.0
C441 C 0.41386 0.41105 0.70262 0.0
C442 C 0.42933 0.39782 0.72736 0.0
H443 H 0.38914 0.4368 0.70713 0.0
H444 H 0.41433 0.41176 0.66434 0.0
C445 C 0.42863 0.39752 0.77693 0.0
C446 C 0.04278 0.42297 0.77552 0.0
C447 C 0.04325 0.42511 0.72605 0.0
H448 H 0.01426 0.40933 0.83813 0.0
C449 C 0.01458 0.4102 0.70118 0.0
H450 H 0.06453 0.43462 0.7955 0.0
C451 C 0.98587 0.39493 0.72548 0.0
C452 C 0.9854 0.39524 0.77505 0.0
H453 H 0.01437 0.41172 0.66299 0.0
H454 H 0.96411 0.3852 0.7056 0.0
C455 C 1.01407 0.4086 0.79986 0.0
C456 C 0.44595 0.21245 0.24426 0.0
C457 C 0.47461 0.21318 0.23632 0.0
H458 H 0.42342 0.23873 0.2646 0.0
C459 C 0.50293 0.24144 0.24442 0.0
H460 H 0.42377 0.19098 0.23825 0.0
C461 C 0.50272 0.26828 0.26057 0.0
C462 C 0.4742 0.26784 0.26788 0.0
H463 H 0.52538 0.24271 0.23891 0.0
H464 H 0.52503 0.28961 0.26663 0.0
C465 C 0.44575 0.23973 0.25923 0.0
C466 C 0.24586 0.50017 0.2596 0.0
C467 C 0.21768 0.47168 0.26716 0.0
H468 H 0.29404 0.52262 0.23782 0.0
C469 C 0.2171 0.44308 0.25878 0.0
H470 H 0.24703 0.5226 0.26546 0.0
C471 C 0.24442 0.44309 0.24385 0.0
C472 C 0.27246 0.4717 0.2357 0.0
H473 H 0.19568 0.42076 0.26436 0.0
H474 H 0.24351 0.42078 0.23808 0.0
C475 C 0.27277 0.50019 0.2435 0.0
C476 C 0.78503 0.21161 0.25811 0.0
C477 C 0.75714 0.21234 0.26642 0.0
H478 H 0.83381 0.23796 0.23765 0.0
C479 C 0.75712 0.24069 0.25903 0.0
H480 H 0.7857 0.19007 0.26358 0.0
C481 C 0.78416 0.26761 0.24312 0.0
C482 C 0.8122 0.26716 0.23536 0.0
H483 H 0.73597 0.24197 0.26485 0.0
H484 H 0.78321 0.28901 0.23754 0.0
C485 C 0.81251 0.23897 0.24339 0.0
C486 C 0.58269 0.80827 0.24261 0.0
C487 C 0.55394 0.80731 0.23447 0.0
H488 H 0.60547 0.78235 0.26363 0.0
C489 C 0.52572 0.77902 0.24288 0.0
H490 H 0.6048 0.82978 0.23641 0.0
C491 C 0.52611 0.75237 0.25955 0.0
C492 C 0.55472 0.75304 0.26708 0.0
H493 H 0.5032 0.77757 0.23726 0.0
H494 H 0.50387 0.73101 0.26585 0.0
C495 C 0.58307 0.78118 0.2581 0.0
C496 C 0.75625 0.5208 0.24368 0.0
C497 C 0.75666 0.54932 0.23581 0.0
H498 H 0.78183 0.49827 0.26591 0.0
C499 C 0.78471 0.57789 0.24415 0.0
H500 H 0.73496 0.49839 0.23787 0.0
C501 C 0.81194 0.57782 0.25933 0.0
C502 C 0.81127 0.54917 0.26776 0.0
H503 H 0.78569 0.60023 0.23834 0.0
H504 H 0.83337 0.6001 0.26502 0.0
C505 C 0.78307 0.52072 0.26003 0.0
C506 C 0.21583 0.78146 0.24397 0.0
C507 C 0.21621 0.75332 0.23568 0.0
H508 H 0.24248 0.83023 0.26491 0.0
C509 C 0.24419 0.75283 0.24377 0.0
H510 H 0.19457 0.78249 0.238 0.0
C511 C 0.27111 0.77965 0.26026 0.0
C512 C 0.27103 0.80795 0.26791 0.0
H513 H 0.24519 0.73147 0.23803 0.0
H514 H 0.29222 0.77834 0.2663 0.0
C515 C 0.2432 0.80872 0.25927 0.0
C516 C 0.58415 0.78249 0.74343 0.0
C517 C 0.55571 0.75429 0.73514 0.0
H518 H 0.60609 0.83132 0.76407 0.0
C519 C 0.52718 0.75376 0.74287 0.0
H520 H 0.60649 0.78356 0.73772 0.0
C521 C 0.52696 0.78059 0.75904 0.0
C522 C 0.55526 0.80894 0.76673 0.0
H523 H 0.50488 0.73236 0.73709 0.0
H524 H 0.50449 0.77923 0.76482 0.0
C525 C 0.58392 0.80977 0.7584 0.0
C526 C 0.78452 0.57692 0.75885 0.0
C527 C 0.75629 0.54848 0.76692 0.0
H528 H 0.83329 0.59878 0.73866 0.0
C529 C 0.75566 0.51983 0.75924 0.0
H530 H 0.78568 0.59935 0.76453 0.0
C531 C 0.78246 0.51951 0.74337 0.0
C532 C 0.81084 0.54783 0.73594 0.0
H533 H 0.73424 0.49752 0.76486 0.0
H534 H 0.78105 0.49696 0.73761 0.0
C535 C 0.81173 0.57659 0.74416 0.0
C536 C 0.24317 0.8087 0.74366 0.0
C537 C 0.27101 0.80796 0.73498 0.0
H538 H 0.1945 0.78242 0.76477 0.0
C539 C 0.27105 0.77962 0.74235 0.0
H540 H 0.24247 0.83024 0.73825 0.0
C541 C 0.2441 0.75274 0.75862 0.0
C542 C 0.2161 0.75321 0.76677 0.0
H543 H 0.29217 0.77831 0.73626 0.0
H544 H 0.24508 0.73135 0.76417 0.0
C545 C 0.21576 0.78139 0.75874 0.0
C546 C 0.50165 0.26839 0.74224 0.0
C547 C 0.47317 0.26804 0.73493 0.0
H548 H 0.5242 0.24278 0.76413 0.0
C549 C 0.44468 0.24002 0.74383 0.0
H550 H 0.52399 0.28965 0.73599 0.0
C551 C 0.4448 0.21275 0.75906 0.0
C552 C 0.47341 0.2134 0.76701 0.0
H553 H 0.42239 0.2391 0.73845 0.0
H554 H 0.42259 0.19134 0.76525 0.0
C555 C 0.50177 0.24157 0.75865 0.0
C556 C 0.24548 0.50042 0.74321 0.0
C557 C 0.21742 0.47181 0.73554 0.0
H558 H 0.29366 0.52314 0.76508 0.0
C559 C 0.21707 0.44332 0.74382 0.0
H560 H 0.24646 0.52277 0.73743 0.0
C561 C 0.2445 0.44354 0.75876 0.0
C562 C 0.27241 0.47226 0.76701 0.0
H563 H 0.19576 0.42093 0.73816 0.0
H564 H 0.24377 0.42131 0.76444 0.0
C565 C 0.27249 0.50063 0.75932 0.0
C566 C 0.78318 0.26482 0.76497 0.0
C567 C 0.81158 0.26468 0.76991 0.0
H568 H 0.73475 0.23935 0.74489 0.0
C569 C 0.81206 0.23685 0.75915 0.0
H570 H 0.78199 0.28586 0.77273 0.0
C571 C 0.78447 0.20964 0.744 0.0
C572 C 0.75633 0.21026 0.73808 0.0
H573 H 0.83362 0.23606 0.76271 0.0
H574 H 0.78532 0.18846 0.73594 0.0
C575 C 0.75609 0.23815 0.74876 0.0
C576 C 0.43175 0.11314 0.02641 0.0
C577 C 0.45446 0.13955 0.05135 0.0
H578 H 0.41718 0.09125 0.95851 0.0
C579 C 0.47345 0.1677 0.02666 0.0
H580 H 0.41727 0.09102 0.04469 0.0
C581 C 0.47341 0.16782 0.97719 0.0
C582 C 0.45436 0.13981 0.95223 0.0
H583 H 0.49155 0.18816 0.04513 0.0
H584 H 0.49148 0.18838 0.95887 0.0
C585 C 0.43169 0.11328 0.97698 0.0
C586 C 0.31719 0.471 0.97669 0.0
C587 C 0.32604 0.45192 0.95166 0.0
H588 H 0.31488 0.48894 0.04473 0.0
C589 C 0.32959 0.42902 0.97629 0.0
H590 H 0.31494 0.48924 0.95847 0.0
C591 C 0.32956 0.42885 0.02571 0.0
C592 C 0.32598 0.45158 0.05079 0.0
H593 H 0.33701 0.41448 0.95774 0.0
H594 H 0.33696 0.41418 0.04392 0.0
C595 C 0.31715 0.47082 0.02617 0.0
C596 C 0.91461 0.32482 0.97742 0.0
C597 C 0.88787 0.3201 0.95252 0.0
H598 H 0.93687 0.3335 0.04516 0.0
C599 C 0.85974 0.31044 0.97737 0.0
H600 H 0.9367 0.33284 0.95901 0.0
C601 C 0.85983 0.31083 0.02686 0.0
C602 C 0.88805 0.32084 0.05162 0.0
H603 H 0.839 0.30727 0.95891 0.0
H604 H 0.83915 0.30791 0.0452 0.0
C605 C 0.91471 0.32521 0.02683 0.0
C606 C 0.55672 0.85558 0.02312 0.0
C607 C 0.57441 0.88331 0.0494 0.0
H608 H 0.5404 0.83617 0.95413 0.0
C609 C 0.59664 0.91079 0.02598 0.0
H610 H 0.53898 0.83429 0.04039 0.0
C611 C 0.59731 0.91193 0.9766 0.0
C612 C 0.57589 0.88554 0.9503 0.0
H613 H 0.61011 0.93259 0.0455 0.0
H614 H 0.61128 0.93456 0.95939 0.0
C615 C 0.55753 0.85667 0.97365 0.0
C616 C 0.69978 0.5926 0.02581 0.0
C617 C 0.70324 0.5697 0.0506 0.0
H618 H 0.6924 0.60732 0.95808 0.0
C619 C 0.7119 0.55043 0.02568 0.0
H620 H 0.69251 0.60729 0.04426 0.0
C621 C 0.71185 0.55045 0.97619 0.0
C622 C 0.70313 0.56973 0.95145 0.0
H623 H 0.71406 0.53218 0.04402 0.0
H624 H 0.71397 0.53221 0.95775 0.0
C625 C 0.69973 0.59262 0.97638 0.0
C626 C 0.16944 0.70882 0.97649 0.0
C627 C 0.14136 0.69938 0.95162 0.0
H628 H 0.19 0.71157 0.0444 0.0
C629 C 0.1148 0.69524 0.97644 0.0
H630 H 0.19003 0.71153 0.95812 0.0
C631 C 0.11477 0.69526 0.02587 0.0
C632 C 0.14131 0.69942 0.05078 0.0
H633 H 0.09273 0.68739 0.95804 0.0
H634 H 0.09269 0.68741 0.0442 0.0
C635 C 0.16942 0.70884 0.02598 0.0
C636 C 0.91174 0.59117 0.52723 0.0
C637 C 0.88524 0.5683 0.55177 0.0
H638 H 0.93392 0.6062 0.45962 0.0
C639 C 0.85728 0.54945 0.5267 0.0
H640 H 0.93373 0.60553 0.54579 0.0
C641 C 0.85738 0.54985 0.47722 0.0
C642 C 0.88546 0.56907 0.45262 0.0
H643 H 0.83675 0.53122 0.54485 0.0
H644 H 0.83693 0.53189 0.45857 0.0
C645 C 0.91184 0.59156 0.4778 0.0
C646 C 0.33066 0.91099 0.52616 0.0
C647 C 0.32579 0.88417 0.55119 0.0
H648 H 0.33911 0.93309 0.45828 0.0
C649 C 0.31577 0.85585 0.52649 0.0
H650 H 0.33897 0.93323 0.54443 0.0
C651 C 0.31587 0.85577 0.47699 0.0
C652 C 0.32596 0.88401 0.45204 0.0
H653 H 0.31248 0.83504 0.54503 0.0
H654 H 0.31264 0.8349 0.45873 0.0
C655 C 0.33075 0.91091 0.47674 0.0
C656 C 0.4704 0.31234 0.5261 0.0
C657 C 0.45186 0.32204 0.55069 0.0
H658 H 0.48834 0.30939 0.45841 0.0
C659 C 0.42967 0.32639 0.52561 0.0
H660 H 0.4881 0.30945 0.54469 0.0
C661 C 0.4298 0.32635 0.47619 0.0
C662 C 0.45213 0.32196 0.45157 0.0
H663 H 0.41554 0.33444 0.5438 0.0
H664 H 0.41576 0.33436 0.45765 0.0
C665 C 0.47054 0.3123 0.47661 0.0
C666 C 0.17123 0.47 0.52631 0.0
C667 C 0.14315 0.45075 0.55088 0.0
H668 H 0.1919 0.48841 0.45865 0.0
C669 C 0.11688 0.42802 0.52576 0.0
H670 H 0.19158 0.48812 0.54492 0.0
C671 C 0.11706 0.42817 0.47634 0.0
C672 C 0.14351 0.45107 0.45175 0.0
H673 H 0.09481 0.41335 0.54395 0.0
H674 H 0.09512 0.41361 0.45778 0.0
C675 C 0.17141 0.47016 0.47683 0.0
C676 C 0.713 0.16635 0.47276 0.0
C677 C 0.70291 0.13736 0.45007 0.0
H678 H 0.71587 0.1891 0.53876 0.0
C679 C 0.69812 0.11128 0.4771 0.0
H680 H 0.71628 0.18662 0.45264 0.0
C681 C 0.69811 0.11277 0.52645 0.0
C682 C 0.7027 0.14027 0.54901 0.0
H683 H 0.68979 0.08855 0.46036 0.0
H684 H 0.6898 0.09113 0.54641 0.0
C685 C 0.71275 0.16777 0.52215 0.0
C686 C 0.55831 0.70918 0.47641 0.0
C687 C 0.57689 0.69956 0.45176 0.0
H688 H 0.54051 0.71221 0.54419 0.0
C689 C 0.59923 0.69538 0.47677 0.0
H690 H 0.5405 0.71193 0.4579 0.0
C691 C 0.59926 0.69558 0.52619 0.0
C692 C 0.57693 0.69992 0.55092 0.0
H693 H 0.61339 0.68739 0.45853 0.0
H694 H 0.61343 0.68771 0.54469 0.0
C695 C 0.55833 0.70935 0.52591 0.0
C696 C 0.55823 0.13792 0.28571 0.0
C697 C 0.55093 0.13856 0.23792 0.0
H698 H 0.59085 0.13761 0.33562 0.0
C699 C 0.57121 0.13817 0.2031 0.0
H700 H 0.54303 0.1381 0.31332 0.0
C701 C 0.59872 0.13811 0.21582 0.0
C702 C 0.60638 0.13818 0.26362 0.0
H703 H 0.5662 0.1386 0.16591 0.0
H704 H 0.61418 0.13844 0.18822 0.0
C705 C 0.58562 0.13761 0.29843 0.0
C706 C 0.47189 0.59491 0.21698 0.0
C707 C 0.4793 0.60247 0.26485 0.0
H708 H 0.43896 0.56254 0.16673 0.0
C709 C 0.45889 0.58162 0.29946 0.0
H710 H 0.48719 0.61043 0.18953 0.0
C711 C 0.43112 0.55427 0.28645 0.0
C712 C 0.42334 0.54711 0.23858 0.0
H713 H 0.46397 0.58678 0.3367 0.0
H714 H 0.41554 0.53902 0.31389 0.0
C715 C 0.44426 0.56744 0.20397 0.0
C716 C 0.88678 0.46617 0.21653 0.0
C717 C 0.88638 0.47344 0.26441 0.0
H718 H 0.88692 0.43355 0.16627 0.0
C719 C 0.88706 0.45315 0.29901 0.0
H720 H 0.88637 0.48139 0.1891 0.0
C721 C 0.88716 0.42564 0.28599 0.0
C722 C 0.88683 0.41799 0.23813 0.0
H723 H 0.88682 0.45813 0.33626 0.0
H724 H 0.88704 0.41016 0.31345 0.0
C725 C 0.88713 0.43878 0.20351 0.0
C726 C 0.46968 0.8815 0.28563 0.0
C727 C 0.4767 0.88088 0.2377 0.0
H728 H 0.4374 0.88191 0.33615 0.0
C729 C 0.45624 0.88134 0.20327 0.0
H730 H 0.48503 0.88126 0.31295 0.0
C731 C 0.42886 0.8815 0.2165 0.0
C732 C 0.4215 0.88145 0.26444 0.0
H733 H 0.46103 0.88092 0.16598 0.0
H734 H 0.41328 0.88124 0.18918 0.0
C735 C 0.44241 0.8819 0.29887 0.0
C736 C 0.59814 0.46687 0.28618 0.0
C737 C 0.60591 0.47404 0.23831 0.0
H738 H 0.56531 0.43435 0.33643 0.0
C739 C 0.58504 0.45366 0.2037 0.0
H740 H 0.61369 0.48216 0.31362 0.0
C741 C 0.55744 0.42616 0.21671 0.0
C742 C 0.55003 0.41861 0.26458 0.0
H743 H 0.59034 0.45856 0.16646 0.0
H744 H 0.54216 0.4106 0.18927 0.0
C745 C 0.57041 0.4395 0.29919 0.0
C746 C 0.14154 0.595 0.28586 0.0
C747 C 0.14179 0.60261 0.23799 0.0
H748 H 0.14198 0.56255 0.3361 0.0
C749 C 0.14143 0.5818 0.20337 0.0
H750 H 0.14171 0.6105 0.31331 0.0
C751 C 0.14181 0.55442 0.21637 0.0
C752 C 0.1423 0.54719 0.26424 0.0
H753 H 0.14157 0.58699 0.16613 0.0
H754 H 0.14218 0.53919 0.18892 0.0
C755 C 0.14167 0.5675 0.29886 0.0
C756 C 0.46995 0.88219 0.71578 0.0
C757 C 0.47723 0.88155 0.76358 0.0
H758 H 0.43734 0.88249 0.66582 0.0
C759 C 0.45686 0.88181 0.79837 0.0
H760 H 0.48524 0.88214 0.68822 0.0
C761 C 0.42931 0.8818 0.7856 0.0
C762 C 0.42171 0.8818 0.7378 0.0
H763 H 0.46184 0.88138 0.83556 0.0
H764 H 0.41381 0.8814 0.81318 0.0
C765 C 0.44253 0.88244 0.70302 0.0
C766 C 0.58456 0.45382 0.79847 0.0
C767 C 0.60551 0.4741 0.76384 0.0
H768 H 0.54157 0.41089 0.81295 0.0
C769 C 0.59775 0.46689 0.71597 0.0
H770 H 0.58986 0.45876 0.83571 0.0
C771 C 0.56996 0.43956 0.70299 0.0
C772 C 0.54951 0.41877 0.73762 0.0
H773 H 0.61335 0.4821 0.68852 0.0
H774 H 0.56487 0.43438 0.66575 0.0
C775 C 0.5569 0.42637 0.78549 0.0
C776 C 0.14108 0.5946 0.71668 0.0
C777 C 0.14151 0.60232 0.76454 0.0
H778 H 0.14119 0.56195 0.66648 0.0
C779 C 0.14111 0.5815 0.79919 0.0
H780 H 0.14127 0.6101 0.68921 0.0
C781 C 0.14128 0.55402 0.78622 0.0
C782 C 0.1416 0.54668 0.73836 0.0
H783 H 0.14138 0.58678 0.83642 0.0
H784 H 0.14163 0.53879 0.81369 0.0
C785 C 0.141 0.56699 0.70372 0.0
C786 C 0.58546 0.14069 0.70283 0.0
C787 C 0.60594 0.14033 0.73732 0.0
H788 H 0.5429 0.14136 0.68868 0.0
C789 C 0.59787 0.13889 0.78519 0.0
H790 H 0.59101 0.14172 0.66559 0.0
C791 C 0.57022 0.13852 0.79836 0.0
C792 C 0.55017 0.13974 0.76391 0.0
H793 H 0.61312 0.13849 0.81253 0.0
H794 H 0.56488 0.1379 0.83562 0.0
C795 C 0.55789 0.14048 0.716 0.0
C796 C 0.44433 0.56859 0.79906 0.0
C797 C 0.42345 0.54825 0.7644 0.0
H798 H 0.48729 0.61155 0.81359 0.0
C799 C 0.43131 0.55541 0.71655 0.0
H800 H 0.43896 0.56368 0.83629 0.0
C801 C 0.45912 0.58273 0.70361 0.0
C802 C 0.47952 0.60356 0.73826 0.0
H803 H 0.41577 0.54016 0.68907 0.0
H804 H 0.46428 0.58786 0.66638 0.0
C805 C 0.47201 0.59603 0.78612 0.0
C806 C 0.88634 0.43665 0.79973 0.0
C807 C 0.88574 0.41572 0.76509 0.0
H808 H 0.88593 0.47942 0.81427 0.0
C809 C 0.8858 0.42328 0.71724 0.0
H810 H 0.88634 0.43151 0.83696 0.0
C811 C 0.8858 0.45086 0.70429 0.0
C812 C 0.88548 0.47132 0.73894 0.0
H813 H 0.88544 0.40769 0.68976 0.0
H814 H 0.88538 0.45579 0.66706 0.0
C815 C 0.88608 0.4641 0.78679 0.0
loop_
_geom_bond_atom_site_label_1
_geom_bond_atom_site_label_2
_geom_bond_distance
_geom_bond_site_symmetry_2
_ccdc_geom_bond_type
Co0 O1 2.216 . S
Co0 O2 2.091 . S
Co0 O4 2.004 . S
Co0 O10 2.021 . S
Co0 O12 2.137 . S
Co0 O13 2.244 . S
O1 Co0 2.216 . S
O1 C8 1.247 . S
O2 Co0 2.091 . S
O2 C8 1.261 . S
C3 O12 1.247 . S
C3 O13 1.272 . S
O4 Co0 2.004 . S
O4 C9 1.259 . S
Co5 O6 2.061 . S
Co5 O11 2.052 . S
Co5 O13 2.135 . S
O6 Co5 2.061 . S
O6 C9 1.235 . S
C7 O10 1.238 . S
C7 O11 1.241 . S
C8 O1 1.247 . S
C8 O2 1.261 . S
C9 O4 1.259 . S
C9 O6 1.235 . S
O10 Co0 2.021 . S
O10 C7 1.238 . S
O11 Co5 2.052 . S
O11 C7 1.241 . S
O12 Co0 2.137 . S
O12 C3 1.247 . S
O13 Co0 2.244 . S
O13 C3 1.272 . S
O13 Co5 2.135 . S
Co14 O15 2.216 . S
Co14 O16 2.091 . S
Co14 O18 2.004 . S
Co14 O24 2.021 . S
Co14 O26 2.137 . S
Co14 O27 2.244 . S
O15 Co14 2.216 . S
O15 C22 1.247 . S
O16 Co14 2.091 . S
O16 C22 1.261 . S
C17 O26 1.247 . S
C17 O27 1.272 . S
O18 Co14 2.004 . S
O18 C23 1.259 . S
Co19 O20 2.061 . S
Co19 O25 2.052 . S
Co19 O27 2.135 . S
O20 Co19 2.061 . S
O20 C23 1.235 . S
C21 O24 1.238 . S
C21 O25 1.241 . S
C22 O15 1.247 . S
C22 O16 1.261 . S
C23 O18 1.259 . S
C23 O20 1.235 . S
O24 Co14 2.021 . S
O24 C21 1.238 . S
O25 Co19 2.052 . S
O25 C21 1.241 . S
O26 Co14 2.137 . S
O26 C17 1.247 . S
O27 Co14 2.244 . S
O27 C17 1.272 . S
O27 Co19 2.135 . S
Co28 O29 2.216 . S
Co28 O30 2.091 . S
Co28 O32 2.004 . S
Co28 O38 2.021 . S
Co28 O40 2.137 . S
Co28 O41 2.244 . S
O29 Co28 2.216 . S
O29 C36 1.247 . S
O30 Co28 2.091 . S
O30 C36 1.261 . S
C31 O40 1.247 . S
C31 O41 1.272 . S
O32 Co28 2.004 . S
O32 C37 1.259 . S
Co33 O34 2.061 . S
Co33 O39 2.052 . S
Co33 O41 2.135 . S
O34 Co33 2.061 . S
O34 C37 1.235 . S
C35 O38 1.238 . S
C35 O39 1.241 . S
C36 O29 1.247 . S
C36 O30 1.261 . S
C37 O32 1.259 . S
C37 O34 1.235 . S
O38 Co28 2.021 . S
O38 C35 1.238 . S
O39 Co33 2.052 . S
O39 C35 1.241 . S
O40 Co28 2.137 . S
O40 C31 1.247 . S
O41 Co28 2.244 . S
O41 C31 1.272 . S
O41 Co33 2.135 . S
Co42 O43 2.216 . S
Co42 O44 2.091 . S
Co42 O46 2.004 . S
Co42 O52 2.021 . S
Co42 O54 2.137 . S
Co42 O55 2.244 . S
O43 Co42 2.216 . S
O43 C50 1.247 . S
O44 Co42 2.091 . S
O44 C50 1.261 . S
C45 O54 1.247 . S
C45 O55 1.272 . S
O46 Co42 2.004 . S
O46 C51 1.259 . S
Co47 O48 2.061 . S
Co47 O53 2.052 . S
Co47 O55 2.135 . S
O48 Co47 2.061 . S
O48 C51 1.235 . S
C49 O52 1.238 . S
C49 O53 1.241 . S
C50 O43 1.247 . S
C50 O44 1.261 . S
C51 O46 1.259 . S
C51 O48 1.235 . S
O52 Co42 2.021 . S
O52 C49 1.238 . S
O53 Co47 2.052 . S
O53 C49 1.241 . S
O54 Co42 2.137 . S
O54 C45 1.247 . S
O55 Co42 2.244 . S
O55 C45 1.272 . S
O55 Co47 2.135 . S
Co56 O57 2.216 . S
Co56 O58 2.091 . S
Co56 O60 2.004 . S
Co56 O66 2.021 . S
Co56 O68 2.137 . S
Co56 O69 2.244 . S
O57 Co56 2.216 . S
O57 C64 1.247 . S
O58 Co56 2.091 . S
O58 C64 1.261 . S
C59 O68 1.247 . S
C59 O69 1.272 . S
O60 Co56 2.004 . S
O60 C65 1.259 . S
Co61 O62 2.061 . S
Co61 O67 2.052 . S
Co61 O69 2.135 . S
O62 Co61 2.061 . S
O62 C65 1.235 . S
C63 O66 1.238 . S
C63 O67 1.241 . S
C64 O57 1.247 . S
C64 O58 1.261 . S
C65 O60 1.259 . S
C65 O62 1.235 . S
O66 Co56 2.021 . S
O66 C63 1.238 . S
O67 Co61 2.052 . S
O67 C63 1.241 . S
O68 Co56 2.137 . S
O68 C59 1.247 . S
O69 Co56 2.244 . S
O69 C59 1.272 . S
O69 Co61 2.135 . S
Co70 O71 2.216 . S
Co70 O72 2.091 . S
Co70 O74 2.004 . S
Co70 O80 2.021 . S
Co70 O82 2.137 . S
Co70 O83 2.244 . S
O71 Co70 2.216 . S
O71 C78 1.247 . S
O72 Co70 2.091 . S
O72 C78 1.261 . S
C73 O82 1.247 . S
C73 O83 1.272 . S
O74 Co70 2.004 . S
O74 C79 1.259 . S
Co75 O76 2.061 . S
Co75 O81 2.052 . S
Co75 O83 2.135 . S
O76 Co75 2.061 . S
O76 C79 1.235 . S
C77 O80 1.238 . S
C77 O81 1.241 . S
C78 O71 1.247 . S
C78 O72 1.261 . S
C79 O74 1.259 . S
C79 O76 1.235 . S
O80 Co70 2.021 . S
O80 C77 1.238 . S
O81 Co75 2.052 . S
O81 C77 1.241 . S
O82 Co70 2.137 . S
O82 C73 1.247 . S
O83 Co70 2.244 . S
O83 C73 1.272 . S
O83 Co75 2.135 . S
Co84 O85 2.216 . S
Co84 O86 2.091 . S
Co84 O88 2.004 . S
Co84 O94 2.021 . S
Co84 O96 2.137 . S
Co84 O97 2.244 . S
O85 Co84 2.216 . S
O85 C92 1.247 . S
O86 Co84 2.091 . S
O86 C92 1.261 . S
C87 O96 1.247 . S
C87 O97 1.272 . S
O88 Co84 2.004 . S
O88 C93 1.259 . S
Co89 O90 2.061 . S
Co89 O95 2.052 . S
Co89 O97 2.135 . S
O90 Co89 2.061 . S
O90 C93 1.235 . S
C91 O94 1.238 . S
C91 O95 1.241 . S
C92 O85 1.247 . S
C92 O86 1.261 . S
C93 O88 1.259 . S
C93 O90 1.235 . S
O94 Co84 2.021 . S
O94 C91 1.238 . S
O95 Co89 2.052 . S
O95 C91 1.241 . S
O96 Co84 2.137 . S
O96 C87 1.247 . S
O97 Co84 2.244 . S
O97 C87 1.272 . S
O97 Co89 2.135 . S
Co98 O99 2.216 . S
Co98 O100 2.091 . S
Co98 O102 2.004 . S
Co98 O108 2.021 . S
Co98 O110 2.137 . S
Co98 O111 2.244 . S
O99 Co98 2.216 . S
O99 C106 1.247 . S
O100 Co98 2.091 . S
O100 C106 1.261 . S
C101 O110 1.247 . S
C101 O111 1.272 . S
O102 Co98 2.004 . S
O102 C107 1.259 . S
Co103 O104 2.061 . S
Co103 O109 2.052 . S
Co103 O111 2.135 . S
O104 Co103 2.061 . S
O104 C107 1.235 . S
C105 O108 1.238 . S
C105 O109 1.241 . S
C106 O99 1.247 . S
C106 O100 1.261 . S
C107 O102 1.259 . S
C107 O104 1.235 . S
O108 Co98 2.021 . S
O108 C105 1.238 . S
O109 Co103 2.052 . S
O109 C105 1.241 . S
O110 Co98 2.137 . S
O110 C101 1.247 . S
O111 Co98 2.244 . S
O111 C101 1.272 . S
O111 Co103 2.135 . S
Co112 O113 2.216 . S
Co112 O114 2.091 . S
Co112 O116 2.004 . S
Co112 O122 2.021 . S
Co112 O124 2.137 . S
Co112 O125 2.244 . S
O113 Co112 2.216 . S
O113 C120 1.247 . S
O114 Co112 2.091 . S
O114 C120 1.261 . S
C115 O124 1.247 . S
C115 O125 1.272 . S
O116 Co112 2.004 . S
O116 C121 1.259 . S
Co117 O118 2.061 . S
Co117 O123 2.052 . S
Co117 O125 2.135 . S
O118 Co117 2.061 . S
O118 C121 1.235 . S
C119 O122 1.238 . S
C119 O123 1.241 . S
C120 O113 1.247 . S
C120 O114 1.261 . S
C121 O116 1.259 . S
C121 O118 1.235 . S
O122 Co112 2.021 . S
O122 C119 1.238 . S
O123 Co117 2.052 . S
O123 C119 1.241 . S
O124 Co112 2.137 . S
O124 C115 1.247 . S
O125 Co112 2.244 . S
O125 C115 1.272 . S
O125 Co117 2.135 . S
Co126 O127 2.216 . S
Co126 O128 2.091 . S
Co126 O130 2.004 . S
Co126 O136 2.021 . S
Co126 O138 2.137 . S
Co126 O139 2.244 . S
O127 Co126 2.216 . S
O127 C134 1.247 . S
O128 Co126 2.091 . S
O128 C134 1.261 . S
C129 O138 1.247 . S
C129 O139 1.272 . S
O130 Co126 2.004 . S
O130 C135 1.259 . S
Co131 O132 2.061 . S
Co131 O137 2.052 . S
Co131 O139 2.135 . S
O132 Co131 2.061 . S
O132 C135 1.235 . S
C133 O136 1.238 . S
C133 O137 1.241 . S
C134 O127 1.247 . S
C134 O128 1.261 . S
C135 O130 1.259 . S
C135 O132 1.235 . S
O136 Co126 2.021 . S
O136 C133 1.238 . S
O137 Co131 2.052 . S
O137 C133 1.241 . S
O138 Co126 2.137 . S
O138 C129 1.247 . S
O139 Co126 2.244 . S
O139 C129 1.272 . S
O139 Co131 2.135 . S
Co140 O141 2.216 . S
Co140 O142 2.091 . S
Co140 O144 2.004 . S
Co140 O150 2.021 . S
Co140 O152 2.137 . S
Co140 O153 2.244 . S
O141 Co140 2.216 . S
O141 C148 1.247 . S
O142 Co140 2.091 . S
O142 C148 1.261 . S
C143 O152 1.247 . S
C143 O153 1.272 . S
O144 Co140 2.004 . S
O144 C149 1.259 . S
Co145 O146 2.061 . S
Co145 O151 2.052 . S
Co145 O153 2.135 . S
O146 Co145 2.061 . S
O146 C149 1.235 . S
C147 O150 1.238 . S
C147 O151 1.241 . S
C148 O141 1.247 . S
C148 O142 1.261 . S
C149 O144 1.259 . S
C149 O146 1.235 . S
O150 Co140 2.021 . S
O150 C147 1.238 . S
O151 Co145 2.052 . S
O151 C147 1.241 . S
O152 Co140 2.137 . S
O152 C143 1.247 . S
O153 Co140 2.244 . S
O153 C143 1.272 . S
O153 Co145 2.135 . S
Co154 O155 2.216 . S
Co154 O156 2.091 . S
Co154 O158 2.004 . S
Co154 O164 2.021 . S
Co154 O166 2.137 . S
Co154 O167 2.244 . S
O155 Co154 2.216 . S
O155 C162 1.247 . S
O156 Co154 2.091 . S
O156 C162 1.261 . S
C157 O166 1.247 . S
C157 O167 1.272 . S
O158 Co154 2.004 . S
O158 C163 1.259 . S
Co159 O160 2.061 . S
Co159 O165 2.052 . S
Co159 O167 2.135 . S
O160 Co159 2.061 . S
O160 C163 1.235 . S
C161 O164 1.238 . S
C161 O165 1.241 . S
C162 O155 1.247 . S
C162 O156 1.261 . S
C163 O158 1.259 . S
C163 O160 1.235 . S
O164 Co154 2.021 . S
O164 C161 1.238 . S
O165 Co159 2.052 . S
O165 C161 1.241 . S
O166 Co154 2.137 . S
O166 C157 1.247 . S
O167 Co154 2.244 . S
O167 C157 1.272 . S
O167 Co159 2.135 . S
Co168 O169 2.216 . S
Co168 O170 2.091 . S
Co168 O172 2.004 . S
Co168 O178 2.021 . S
Co168 O180 2.137 . S
Co168 O181 2.244 . S
O169 Co168 2.216 . S
O169 C176 1.247 . S
O170 Co168 2.091 . S
O170 C176 1.261 . S
C171 O180 1.247 . S
C171 O181 1.272 . S
O172 Co168 2.004 . S
O172 C177 1.259 . S
Co173 O174 2.061 . S
Co173 O179 2.052 . S
Co173 O181 2.135 . S
O174 Co173 2.061 . S
O174 C177 1.235 . S
C175 O178 1.238 . S
C175 O179 1.241 . S
C176 O169 1.247 . S
C176 O170 1.261 . S
C177 O172 1.259 . S
C177 O174 1.235 . S
O178 Co168 2.021 . S
O178 C175 1.238 . S
O179 Co173 2.052 . S
O179 C175 1.241 . S
O180 Co168 2.137 . S
O180 C171 1.247 . S
O181 Co168 2.244 . S
O181 C171 1.272 . S
O181 Co173 2.135 . S
Co182 O183 2.216 . S
Co182 O184 2.091 . S
Co182 O186 2.004 . S
Co182 O192 2.021 . S
Co182 O194 2.137 . S
Co182 O195 2.244 . S
O183 Co182 2.216 . S
O183 C190 1.247 . S
O184 Co182 2.091 . S
O184 C190 1.261 . S
C185 O194 1.247 . S
C185 O195 1.272 . S
O186 Co182 2.004 . S
O186 C191 1.259 . S
Co187 O188 2.061 . S
Co187 O193 2.052 . S
Co187 O195 2.135 . S
O188 Co187 2.061 . S
O188 C191 1.235 . S
C189 O192 1.238 . S
C189 O193 1.241 . S
C190 O183 1.247 . S
C190 O184 1.261 . S
C191 O186 1.259 . S
C191 O188 1.235 . S
O192 Co182 2.021 . S
O192 C189 1.238 . S
O193 Co187 2.052 . S
O193 C189 1.241 . S
O194 Co182 2.137 . S
O194 C185 1.247 . S
O195 Co182 2.244 . S
O195 C185 1.272 . S
O195 Co187 2.135 . S
Co196 O197 2.216 . S
Co196 O198 2.091 . S
Co196 O200 2.004 . S
Co196 O206 2.021 . S
Co196 O208 2.137 . S
Co196 O209 2.244 . S
O197 Co196 2.216 . S
O197 C204 1.247 . S
O198 Co196 2.091 . S
O198 C204 1.261 . S
C199 O208 1.247 . S
C199 O209 1.272 . S
O200 Co196 2.004 . S
O200 C205 1.259 . S
Co201 O202 2.061 . S
Co201 O207 2.052 . S
Co201 O209 2.135 . S
O202 Co201 2.061 . S
O202 C205 1.235 . S
C203 O206 1.238 . S
C203 O207 1.241 . S
C204 O197 1.247 . S
C204 O198 1.261 . S
C205 O200 1.259 . S
C205 O202 1.235 . S
O206 Co196 2.021 . S
O206 C203 1.238 . S
O207 Co201 2.052 . S
O207 C203 1.241 . S
O208 Co196 2.137 . S
O208 C199 1.247 . S
O209 Co196 2.244 . S
O209 C199 1.272 . S
O209 Co201 2.135 . S
Co210 O211 2.216 . S
Co210 O212 2.091 . S
Co210 O214 2.004 . S
Co210 O220 2.021 . S
Co210 O222 2.137 . S
Co210 O223 2.244 . S
O211 Co210 2.216 . S
O211 C218 1.247 . S
O212 Co210 2.091 . S
O212 C218 1.261 . S
C213 O222 1.247 . S
C213 O223 1.272 . S
O214 Co210 2.004 . S
O214 C219 1.259 . S
Co215 O216 2.061 . S
Co215 O221 2.052 . S
Co215 O223 2.135 . S
O216 Co215 2.061 . S
O216 C219 1.235 . S
C217 O220 1.238 . S
C217 O221 1.241 . S
C218 O211 1.247 . S
C218 O212 1.261 . S
C219 O214 1.259 . S
C219 O216 1.235 . S
O220 Co210 2.021 . S
O220 C217 1.238 . S
O221 Co215 2.052 . S
O221 C217 1.241 . S
O222 Co210 2.137 . S
O222 C213 1.247 . S
O223 Co210 2.244 . S
O223 C213 1.272 . S
O223 Co215 2.135 . S
Co224 O225 2.216 . S
Co224 O226 2.091 . S
Co224 O228 2.004 . S
Co224 O234 2.021 . S
Co224 O236 2.137 . S
Co224 O237 2.244 . S
O225 Co224 2.216 . S
O225 C232 1.247 . S
O226 Co224 2.091 . S
O226 C232 1.261 . S
C227 O236 1.247 . S
C227 O237 1.272 . S
O228 Co224 2.004 . S
O228 C233 1.259 . S
Co229 O230 2.061 . S
Co229 O235 2.052 . S
Co229 O237 2.135 . S
O230 Co229 2.061 . S
O230 C233 1.235 . S
C231 O234 1.238 . S
C231 O235 1.241 . S
C232 O225 1.247 . S
C232 O226 1.261 . S
C233 O228 1.259 . S
C233 O230 1.235 . S
O234 Co224 2.021 . S
O234 C231 1.238 . S
O235 Co229 2.052 . S
O235 C231 1.241 . S
O236 Co224 2.137 . S
O236 C227 1.247 . S
O237 Co224 2.244 . S
O237 C227 1.272 . S
O237 Co229 2.135 . S
Co238 O239 2.216 . S
Co238 O240 2.091 . S
Co238 O242 2.004 . S
Co238 O248 2.021 . S
Co238 O250 2.137 . S
Co238 O251 2.244 . S
O239 Co238 2.216 . S
O239 C246 1.247 . S
O240 Co238 2.091 . S
O240 C246 1.261 . S
C241 O250 1.247 . S
C241 O251 1.272 . S
O242 Co238 2.004 . S
O242 C247 1.259 . S
Co243 O244 2.061 . S
Co243 O249 2.052 . S
Co243 O251 2.135 . S
O244 Co243 2.061 . S
O244 C247 1.235 . S
C245 O248 1.238 . S
C245 O249 1.241 . S
C246 O239 1.247 . S
C246 O240 1.261 . S
C247 O242 1.259 . S
C247 O244 1.235 . S
O248 Co238 2.021 . S
O248 C245 1.238 . S
O249 Co243 2.052 . S
O249 C245 1.241 . S
O250 Co238 2.137 . S
O250 C241 1.247 . S
O251 Co238 2.244 . S
O251 C241 1.272 . S
O251 Co243 2.135 . S
Co252 O253 2.216 . S
Co252 O254 2.091 . S
Co252 O256 2.004 . S
Co252 O262 2.021 . S
Co252 O264 2.137 . S
Co252 O265 2.244 . S
O253 Co252 2.216 . S
O253 C260 1.247 . S
O254 Co252 2.091 . S
O254 C260 1.261 . S
C255 O264 1.247 . S
C255 O265 1.272 . S
O256 Co252 2.004 . S
O256 C261 1.259 . S
Co257 O258 2.061 . S
Co257 O263 2.052 . S
Co257 O265 2.135 . S
O258 Co257 2.061 . S
O258 C261 1.235 . S
C259 O262 1.238 . S
C259 O263 1.241 . S
C260 O253 1.247 . S
C260 O254 1.261 . S
C261 O256 1.259 . S
C261 O258 1.235 . S
O262 Co252 2.021 . S
O262 C259 1.238 . S
O263 Co257 2.052 . S
O263 C259 1.241 . S
O264 Co252 2.137 . S
O264 C255 1.247 . S
O265 Co252 2.244 . S
O265 C255 1.272 . S
O265 Co257 2.135 . S
Co266 O267 2.216 . S
Co266 O268 2.091 . S
Co266 O270 2.004 . S
Co266 O276 2.021 . S
Co266 O278 2.137 . S
Co266 O279 2.244 . S
O267 Co266 2.216 . S
O267 C274 1.247 . S
O268 Co266 2.091 . S
O268 C274 1.261 . S
C269 O278 1.247 . S
C269 O279 1.272 . S
O270 Co266 2.004 . S
O270 C275 1.259 . S
Co271 O272 2.061 . S
Co271 O277 2.052 . S
Co271 O279 2.135 . S
O272 Co271 2.061 . S
O272 C275 1.235 . S
C273 O276 1.238 . S
C273 O277 1.241 . S
C274 O267 1.247 . S
C274 O268 1.261 . S
C275 O270 1.259 . S
C275 O272 1.235 . S
O276 Co266 2.021 . S
O276 C273 1.238 . S
O277 Co271 2.052 . S
O277 C273 1.241 . S
O278 Co266 2.137 . S
O278 C269 1.247 . S
O279 Co266 2.244 . S
O279 C269 1.272 . S
O279 Co271 2.135 . S
Co280 O281 2.216 . S
Co280 O282 2.091 . S
Co280 O284 2.004 . S
Co280 O290 2.021 . S
Co280 O292 2.137 . S
Co280 O293 2.244 . S
O281 Co280 2.216 . S
O281 C288 1.247 . S
O282 Co280 2.091 . S
O282 C288 1.261 . S
C283 O292 1.247 . S
C283 O293 1.272 . S
O284 Co280 2.004 . S
O284 C289 1.259 . S
Co285 O286 2.061 . S
Co285 O291 2.052 . S
Co285 O293 2.135 . S
O286 Co285 2.061 . S
O286 C289 1.235 . S
C287 O290 1.238 . S
C287 O291 1.241 . S
C288 O281 1.247 . S
C288 O282 1.261 . S
C289 O284 1.259 . S
C289 O286 1.235 . S
O290 Co280 2.021 . S
O290 C287 1.238 . S
O291 Co285 2.052 . S
O291 C287 1.241 . S
O292 Co280 2.137 . S
O292 C283 1.247 . S
O293 Co280 2.244 . S
O293 C283 1.272 . S
O293 Co285 2.135 . S
Co294 O295 2.216 . S
Co294 O296 2.091 . S
Co294 O298 2.004 . S
Co294 O304 2.021 . S
Co294 O306 2.137 . S
Co294 O307 2.244 . S
O295 Co294 2.216 . S
O295 C302 1.247 . S
O296 Co294 2.091 . S
O296 C302 1.261 . S
C297 O306 1.247 . S
C297 O307 1.272 . S
O298 Co294 2.004 . S
O298 C303 1.259 . S
Co299 O300 2.061 . S
Co299 O305 2.052 . S
Co299 O307 2.135 . S
O300 Co299 2.061 . S
O300 C303 1.235 . S
C301 O304 1.238 . S
C301 O305 1.241 . S
C302 O295 1.247 . S
C302 O296 1.261 . S
C303 O298 1.259 . S
C303 O300 1.235 . S
O304 Co294 2.021 . S
O304 C301 1.238 . S
O305 Co299 2.052 . S
O305 C301 1.241 . S
O306 Co294 2.137 . S
O306 C297 1.247 . S
O307 Co294 2.244 . S
O307 C297 1.272 . S
O307 Co299 2.135 . S
Co308 O309 2.216 . S
Co308 O310 2.091 . S
Co308 O312 2.004 . S
Co308 O318 2.021 . S
Co308 O320 2.137 . S
Co308 O321 2.244 . S
O309 Co308 2.216 . S
O309 C316 1.247 . S
O310 Co308 2.091 . S
O310 C316 1.261 . S
C311 O320 1.247 . S
C311 O321 1.272 . S
O312 Co308 2.004 . S
O312 C317 1.259 . S
Co313 O314 2.061 . S
Co313 O319 2.052 . S
Co313 O321 2.135 . S
O314 Co313 2.061 . S
O314 C317 1.235 . S
C315 O318 1.238 . S
C315 O319 1.241 . S
C316 O309 1.247 . S
C316 O310 1.261 . S
C317 O312 1.259 . S
C317 O314 1.235 . S
O318 Co308 2.021 . S
O318 C315 1.238 . S
O319 Co313 2.052 . S
O319 C315 1.241 . S
O320 Co308 2.137 . S
O320 C311 1.247 . S
O321 Co308 2.244 . S
O321 C311 1.272 . S
O321 Co313 2.135 . S
Co322 O323 2.216 . S
Co322 O324 2.091 . S
Co322 O326 2.004 . S
Co322 O332 2.021 . S
Co322 O334 2.137 . S
Co322 O335 2.244 . S
O323 Co322 2.216 . S
O323 C330 1.247 . S
O324 Co322 2.091 . S
O324 C330 1.261 . S
C325 O334 1.247 . S
C325 O335 1.272 . S
O326 Co322 2.004 . S
O326 C331 1.259 . S
Co327 O328 2.061 . S
Co327 O333 2.052 . S
Co327 O335 2.135 . S
O328 Co327 2.061 . S
O328 C331 1.235 . S
C329 O332 1.238 . S
C329 O333 1.241 . S
C330 O323 1.247 . S
C330 O324 1.261 . S
C331 O326 1.259 . S
C331 O328 1.235 . S
O332 Co322 2.021 . S
O332 C329 1.238 . S
O333 Co327 2.052 . S
O333 C329 1.241 . S
O334 Co322 2.137 . S
O334 C325 1.247 . S
O335 Co322 2.244 . S
O335 C325 1.272 . S
O335 Co327 2.135 . S
C336 C337 1.387 . S
C336 H340 0.950 . S
C336 C345 1.390 1_545 S
C337 C336 1.387 . S
C337 C339 1.387 . S
H338 C345 0.950 . S
C339 C337 1.387 . S
C339 C341 1.390 1_545 S
C339 H343 0.950 . S
H340 C336 0.950 . S
C341 C339 1.390 1_565 S
C341 C342 1.387 . S
C341 H344 0.950 . S
C342 C341 1.387 . S
C342 C345 1.387 . S
H343 C339 0.950 . S
H344 C341 0.950 . S
C345 C336 1.390 1_565 S
C345 H338 0.950 . S
C345 C342 1.387 . S
C346 C347 1.387 . S
C346 H350 0.950 . S
C346 C355 1.390 . S
C347 C346 1.387 . S
C347 C349 1.387 . S
H348 C355 0.950 . S
C349 C347 1.387 . S
C349 C351 1.390 . S
C349 H353 0.950 . S
H350 C346 0.950 . S
C351 C349 1.390 . S
C351 C352 1.387 . S
C351 H354 0.950 . S
C352 C351 1.387 . S
C352 C355 1.387 . S
H353 C349 0.950 . S
H354 C351 0.950 . S
C355 C346 1.390 . S
C355 H348 0.950 . S
C355 C352 1.387 . S
C356 C357 1.387 . S
C356 H360 0.950 . S
C356 C365 1.390 1_655 S
C357 C356 1.387 . S
C357 C359 1.387 . S
H358 C365 0.950 . S
C359 C357 1.387 . S
C359 C361 1.390 1_655 S
C359 H363 0.950 . S
H360 C356 0.950 . S
C361 C359 1.390 1_455 S
C361 C362 1.387 . S
C361 H364 0.950 . S
C362 C361 1.387 . S
C362 C365 1.387 . S
H363 C359 0.950 . S
H364 C361 0.950 . S
C365 C356 1.390 1_455 S
C365 H358 0.950 . S
C365 C362 1.387 . S
C366 C367 1.387 . S
C366 H370 0.950 . S
C366 C375 1.390 1_565 S
C367 C366 1.387 . S
C367 C369 1.387 . S
H368 C375 0.950 . S
C369 C367 1.387 . S
C369 C371 1.390 1_565 S
C369 H373 0.950 . S
H370 C366 0.950 . S
C371 C369 1.390 1_545 S
C371 C372 1.387 . S
C371 H374 0.950 . S
C372 C371 1.387 . S
C372 C375 1.387 . S
H373 C369 0.950 . S
H374 C371 0.950 . S
C375 C366 1.390 1_545 S
C375 H368 0.950 . S
C375 C372 1.387 . S
C376 C377 1.387 . S
C376 H380 0.950 . S
C376 C385 1.390 . S
C377 C376 1.387 . S
C377 C379 1.387 . S
H378 C385 0.950 . S
C379 C377 1.387 . S
C379 C381 1.390 . S
C379 H383 0.950 . S
H380 C376 0.950 . S
C381 C379 1.390 . S
C381 C382 1.387 . S
C381 H384 0.950 . S
C382 C381 1.387 . S
C382 C385 1.387 . S
H383 C379 0.950 . S
H384 C381 0.950 . S
C385 C376 1.390 . S
C385 H378 0.950 . S
C385 C382 1.387 . S
C386 C387 1.387 . S
C386 H390 0.950 . S
C386 C395 1.390 1_455 S
C387 C386 1.387 . S
C387 C389 1.387 . S
H388 C395 0.950 . S
C389 C387 1.387 . S
C389 C391 1.390 1_455 S
C389 H393 0.950 . S
H390 C386 0.950 . S
C391 C389 1.390 1_655 S
C391 C392 1.387 . S
C391 H394 0.950 . S
C392 C391 1.387 . S
C392 C395 1.387 . S
H393 C389 0.950 . S
H394 C391 0.950 . S
C395 C386 1.390 1_655 S
C395 H388 0.950 . S
C395 C392 1.387 . S
C396 C397 1.387 . S
C396 H400 0.950 . S
C396 C405 1.390 1_565 S
C397 C396 1.387 . S
C397 C399 1.387 . S
H398 C405 0.950 . S
C399 C397 1.387 . S
C399 C401 1.390 1_565 S
C399 H403 0.950 . S
H400 C396 0.950 . S
C401 C399 1.390 1_545 S
C401 C402 1.387 . S
C401 H404 0.950 . S
C402 C401 1.387 . S
C402 C405 1.387 . S
H403 C399 0.950 . S
H404 C401 0.950 . S
C405 C396 1.390 1_545 S
C405 H398 0.950 . S
C405 C402 1.387 . S
C406 C407 1.387 . S
C406 H410 0.950 . S
C406 C415 1.390 . S
C407 C406 1.387 . S
C407 C409 1.387 . S
H408 C415 0.950 . S
C409 C407 1.387 . S
C409 C411 1.390 . S
C409 H413 0.950 . S
H410 C406 0.950 . S
C411 C409 1.390 . S
C411 C412 1.387 . S
C411 H414 0.950 . S
C412 C411 1.387 . S
C412 C415 1.387 . S
H413 C409 0.950 . S
H414 C411 0.950 . S
C415 C406 1.390 . S
C415 H408 0.950 . S
C415 C412 1.387 . S
C416 C417 1.387 . S
C416 H420 0.950 . S
C416 C425 1.390 1_655 S
C417 C416 1.387 . S
C417 C419 1.387 . S
H418 C425 0.950 . S
C419 C417 1.387 . S
C419 C421 1.390 1_655 S
C419 H423 0.950 . S
H420 C416 0.950 . S
C421 C419 1.390 1_455 S
C421 C422 1.387 . S
C421 H424 0.950 . S
C422 C421 1.387 . S
C422 C425 1.387 . S
H423 C419 0.950 . S
H424 C421 0.950 . S
C425 C416 1.390 1_455 S
C425 H418 0.950 . S
C425 C422 1.387 . S
C426 C427 1.387 . S
C426 H430 0.950 . S
C426 C435 1.390 1_545 S
C427 C426 1.387 . S
C427 C429 1.387 . S
H428 C435 0.950 . S
C429 C427 1.387 . S
C429 C431 1.390 1_545 S
C429 H433 0.950 . S
H430 C426 0.950 . S
C431 C429 1.390 1_565 S
C431 C432 1.387 . S
C431 H434 0.950 . S
C432 C431 1.387 . S
C432 C435 1.387 . S
H433 C429 0.950 . S
H434 C431 0.950 . S
C435 C426 1.390 1_565 S
C435 H428 0.950 . S
C435 C432 1.387 . S
C436 C437 1.387 . S
C436 H440 0.950 . S
C436 C445 1.390 . S
C437 C436 1.387 . S
C437 C439 1.387 . S
H438 C445 0.950 . S
C439 C437 1.387 . S
C439 C441 1.390 . S
C439 H443 0.950 . S
H440 C436 0.950 . S
C441 C439 1.390 . S
C441 C442 1.387 . S
C441 H444 0.950 . S
C442 C441 1.387 . S
C442 C445 1.387 . S
H443 C439 0.950 . S
H444 C441 0.950 . S
C445 C436 1.390 . S
C445 H438 0.950 . S
C445 C442 1.387 . S
C446 C447 1.387 . S
C446 H450 0.950 . S
C446 C455 1.390 1_455 S
C447 C446 1.387 . S
C447 C449 1.387 . S
H448 C455 0.950 . S
C449 C447 1.387 . S
C449 C451 1.390 1_455 S
C449 H453 0.950 . S
H450 C446 0.950 . S
C451 C449 1.390 1_655 S
C451 C452 1.387 . S
C451 H454 0.950 . S
C452 C451 1.387 . S
C452 C455 1.387 . S
H453 C449 0.950 . S
H454 C451 0.950 . S
C455 C446 1.390 1_655 S
C455 H448 0.950 . S
C455 C452 1.387 . S
C456 C457 1.387 . S
C456 H460 0.950 . S
C456 C465 1.390 . S
C457 C456 1.387 . S
C457 C459 1.387 . S
H458 C465 0.950 . S
C459 C457 1.387 . S
C459 C461 1.390 . S
C459 H463 0.950 . S
H460 C456 0.950 . S
C461 C459 1.390 . S
C461 C462 1.387 . S
C461 H464 0.950 . S
C462 C461 1.387 . S
C462 C465 1.387 . S
H463 C459 0.950 . S
H464 C461 0.950 . S
C465 C456 1.390 . S
C465 H458 0.950 . S
C465 C462 1.387 . S
C466 C467 1.387 . S
C466 H470 0.950 . S
C466 C475 1.390 . S
C467 C466 1.387 . S
C467 C469 1.387 . S
H468 C475 0.950 . S
C469 C467 1.387 . S
C469 C471 1.390 . S
C469 H473 0.950 . S
H470 C466 0.950 . S
C471 C469 1.390 . S
C471 C472 1.387 . S
C471 H474 0.950 . S
C472 C471 1.387 . S
C472 C475 1.387 . S
H473 C469 0.950 . S
H474 C471 0.950 . S
C475 C466 1.390 . S
C475 H468 0.950 . S
C475 C472 1.387 . S
C476 C477 1.387 . S
C476 H480 0.950 . S
C476 C485 1.390 . S
C477 C476 1.387 . S
C477 C479 1.387 . S
H478 C485 0.950 . S
C479 C477 1.387 . S
C479 C481 1.390 . S
C479 H483 0.950 . S
H480 C476 0.950 . S
C481 C479 1.390 . S
C481 C482 1.387 . S
C481 H484 0.950 . S
C482 C481 1.387 . S
C482 C485 1.387 . S
H483 C479 0.950 . S
H484 C481 0.950 . S
C485 C476 1.390 . S
C485 H478 0.950 . S
C485 C482 1.387 . S
C486 C487 1.387 . S
C486 H490 0.950 . S
C486 C495 1.390 . S
C487 C486 1.387 . S
C487 C489 1.387 . S
H488 C495 0.950 . S
C489 C487 1.387 . S
C489 C491 1.390 . S
C489 H493 0.950 . S
H490 C486 0.950 . S
C491 C489 1.390 . S
C491 C492 1.387 . S
C491 H494 0.950 . S
C492 C491 1.387 . S
C492 C495 1.387 . S
H493 C489 0.950 . S
H494 C491 0.950 . S
C495 C486 1.390 . S
C495 H488 0.950 . S
C495 C492 1.387 . S
C496 C497 1.387 . S
C496 H500 0.950 . S
C496 C505 1.390 . S
C497 C496 1.387 . S
C497 C499 1.387 . S
H498 C505 0.950 . S
C499 C497 1.387 . S
C499 C501 1.390 . S
C499 H503 0.950 . S
H500 C496 0.950 . S
C501 C499 1.390 . S
C501 C502 1.387 . S
C501 H504 0.950 . S
C502 C501 1.387 . S
C502 C505 1.387 . S
H503 C499 0.950 . S
H504 C501 0.950 . S
C505 C496 1.390 . S
C505 H498 0.950 . S
C505 C502 1.387 . S
C506 C507 1.387 . S
C506 H510 0.950 . S
C506 C515 1.390 . S
C507 C506 1.387 . S
C507 C509 1.387 . S
H508 C515 0.950 . S
C509 C507 1.387 . S
C509 C511 1.390 . S
C509 H513 0.950 . S
H510 C506 0.950 . S
C511 C509 1.390 . S
C511 C512 1.387 . S
C511 H514 0.950 . S
C512 C511 1.387 . S
C512 C515 1.387 . S
H513 C509 0.950 . S
H514 C511 0.950 . S
C515 C506 1.390 . S
C515 H508 0.950 . S
C515 C512 1.387 . S
C516 C517 1.387 . S
C516 H520 0.950 . S
C516 C525 1.390 . S
C517 C516 1.387 . S
C517 C519 1.387 . S
H518 C525 0.950 . S
C519 C517 1.387 . S
C519 C521 1.390 . S
C519 H523 0.950 . S
H520 C516 0.950 . S
C521 C519 1.390 . S
C521 C522 1.387 . S
C521 H524 0.950 . S
C522 C521 1.387 . S
C522 C525 1.387 . S
H523 C519 0.950 . S
H524 C521 0.950 . S
C525 C516 1.390 . S
C525 H518 0.950 . S
C525 C522 1.387 . S
C526 C527 1.387 . S
C526 H530 0.950 . S
C526 C535 1.390 . S
C527 C526 1.387 . S
C527 C529 1.387 . S
H528 C535 0.950 . S
C529 C527 1.387 . S
C529 C531 1.390 . S
C529 H533 0.950 . S
H530 C526 0.950 . S
C531 C529 1.390 . S
C531 C532 1.387 . S
C531 H534 0.950 . S
C532 C531 1.387 . S
C532 C535 1.387 . S
H533 C529 0.950 . S
H534 C531 0.950 . S
C535 C526 1.390 . S
C535 H528 0.950 . S
C535 C532 1.387 . S
C536 C537 1.387 . S
C536 H540 0.950 . S
C536 C545 1.390 . S
C537 C536 1.387 . S
C537 C539 1.387 . S
H538 C545 0.950 . S
C539 C537 1.387 . S
C539 C541 1.390 . S
C539 H543 0.950 . S
H540 C536 0.950 . S
C541 C539 1.390 . S
C541 C542 1.387 . S
C541 H544 0.950 . S
C542 C541 1.387 . S
C542 C545 1.387 . S
H543 C539 0.950 . S
H544 C541 0.950 . S
C545 C536 1.390 . S
C545 H538 0.950 . S
C545 C542 1.387 . S
C546 C547 1.387 . S
C546 H550 0.950 . S
C546 C555 1.390 . S
C547 C546 1.387 . S
C547 C549 1.387 . S
H548 C555 0.950 . S
C549 C547 1.387 . S
C549 C551 1.390 . S
C549 H553 0.950 . S
H550 C546 0.950 . S
C551 C549 1.390 . S
C551 C552 1.387 . S
C551 H554 0.950 . S
C552 C551 1.387 . S
C552 C555 1.387 . S
H553 C549 0.950 . S
H554 C551 0.950 . S
C555 C546 1.390 . S
C555 H548 0.950 . S
C555 C552 1.387 . S
C556 C557 1.387 . S
C556 H560 0.950 . S
C556 C565 1.390 . S
C557 C556 1.387 . S
C557 C559 1.387 . S
H558 C565 0.950 . S
C559 C557 1.387 . S
C559 C561 1.390 . S
C559 H563 0.950 . S
H560 C556 0.950 . S
C561 C559 1.390 . S
C561 C562 1.387 . S
C561 H564 0.950 . S
C562 C561 1.387 . S
C562 C565 1.387 . S
H563 C559 0.950 . S
H564 C561 0.950 . S
C565 C556 1.390 . S
C565 H558 0.950 . S
C565 C562 1.387 . S
C566 C567 1.387 . S
C566 H570 0.950 . S
C566 C575 1.390 . S
C567 C566 1.387 . S
C567 C569 1.387 . S
H568 C575 0.950 . S
C569 C567 1.387 . S
C569 C571 1.390 . S
C569 H573 0.950 . S
H570 C566 0.950 . S
C571 C569 1.390 . S
C571 C572 1.387 . S
C571 H574 0.950 . S
C572 C571 1.387 . S
C572 C575 1.387 . S
H573 C569 0.950 . S
H574 C571 0.950 . S
C575 C566 1.390 . S
C575 H568 0.950 . S
C575 C572 1.387 . S
C576 C577 1.387 . S
C576 H580 0.950 . S
C576 C585 1.390 1_554 S
C577 C576 1.387 . S
C577 C579 1.387 . S
H578 C585 0.950 . S
C579 C577 1.387 . S
C579 C581 1.390 1_554 S
C579 H583 0.950 . S
H580 C576 0.950 . S
C581 C579 1.390 1_556 S
C581 C582 1.387 . S
C581 H584 0.950 . S
C582 C581 1.387 . S
C582 C585 1.387 . S
H583 C579 0.950 . S
H584 C581 0.950 . S
C585 C576 1.390 1_556 S
C585 H578 0.950 . S
C585 C582 1.387 . S
C586 C587 1.387 . S
C586 H590 0.950 . S
C586 C595 1.390 1_556 S
C587 C586 1.387 . S
C587 C589 1.387 . S
H588 C595 0.950 . S
C589 C587 1.387 . S
C589 C591 1.390 1_556 S
C589 H593 0.950 . S
H590 C586 0.950 . S
C591 C589 1.390 1_554 S
C591 C592 1.387 . S
C591 H594 0.950 . S
C592 C591 1.387 . S
C592 C595 1.387 . S
H593 C589 0.950 . S
H594 C591 0.950 . S
C595 C586 1.390 1_554 S
C595 H588 0.950 . S
C595 C592 1.387 . S
C596 C597 1.387 . S
C596 H600 0.950 . S
C596 C605 1.390 1_556 S
C597 C596 1.387 . S
C597 C599 1.387 . S
H598 C605 0.950 . S
C599 C597 1.387 . S
C599 C601 1.390 1_556 S
C599 H603 0.950 . S
H600 C596 0.950 . S
C601 C599 1.390 1_554 S
C601 C602 1.387 . S
C601 H604 0.950 . S
C602 C601 1.387 . S
C602 C605 1.387 . S
H603 C599 0.950 . S
H604 C601 0.950 . S
C605 C596 1.390 1_554 S
C605 H598 0.950 . S
C605 C602 1.387 . S
C606 C607 1.387 . S
C606 H610 0.950 . S
C606 C615 1.390 1_554 S
C607 C606 1.387 . S
C607 C609 1.387 . S
H608 C615 0.950 . S
C609 C607 1.387 . S
C609 C611 1.390 1_554 S
C609 H613 0.950 . S
H610 C606 0.950 . S
C611 C609 1.390 1_556 S
C611 C612 1.387 . S
C611 H614 0.950 . S
C612 C611 1.387 . S
C612 C615 1.387 . S
H613 C609 0.950 . S
H614 C611 0.950 . S
C615 C606 1.390 1_556 S
C615 H608 0.950 . S
C615 C612 1.387 . S
C616 C617 1.387 . S
C616 H620 0.950 . S
C616 C625 1.390 1_554 S
C617 C616 1.387 . S
C617 C619 1.387 . S
H618 C625 0.950 . S
C619 C617 1.387 . S
C619 C621 1.390 1_554 S
C619 H623 0.950 . S
H620 C616 0.950 . S
C621 C619 1.390 1_556 S
C621 C622 1.387 . S
C621 H624 0.950 . S
C622 C621 1.387 . S
C622 C625 1.387 . S
H623 C619 0.950 . S
H624 C621 0.950 . S
C625 C616 1.390 1_556 S
C625 H618 0.950 . S
C625 C622 1.387 . S
C626 C627 1.387 . S
C626 H630 0.950 . S
C626 C635 1.390 1_556 S
C627 C626 1.387 . S
C627 C629 1.387 . S
H628 C635 0.950 . S
C629 C627 1.387 . S
C629 C631 1.390 1_556 S
C629 H633 0.950 . S
H630 C626 0.950 . S
C631 C629 1.390 1_554 S
C631 C632 1.387 . S
C631 H634 0.950 . S
C632 C631 1.387 . S
C632 C635 1.387 . S
H633 C629 0.950 . S
H634 C631 0.950 . S
C635 C626 1.390 1_554 S
C635 H628 0.950 . S
C635 C632 1.387 . S
C636 C637 1.387 . S
C636 H640 0.950 . S
C636 C645 1.390 . S
C637 C636 1.387 . S
C637 C639 1.387 . S
H638 C645 0.950 . S
C639 C637 1.387 . S
C639 C641 1.390 . S
C639 H643 0.950 . S
H640 C636 0.950 . S
C641 C639 1.390 . S
C641 C642 1.387 . S
C641 H644 0.950 . S
C642 C641 1.387 . S
C642 C645 1.387 . S
H643 C639 0.950 . S
H644 C641 0.950 . S
C645 C636 1.390 . S
C645 H638 0.950 . S
C645 C642 1.387 . S
C646 C647 1.387 . S
C646 H650 0.950 . S
C646 C655 1.390 . S
C647 C646 1.387 . S
C647 C649 1.387 . S
H648 C655 0.950 . S
C649 C647 1.387 . S
C649 C651 1.390 . S
C649 H653 0.950 . S
H650 C646 0.950 . S
C651 C649 1.390 . S
C651 C652 1.387 . S
C651 H654 0.950 . S
C652 C651 1.387 . S
C652 C655 1.387 . S
H653 C649 0.950 . S
H654 C651 0.950 . S
C655 C646 1.390 . S
C655 H648 0.950 . S
C655 C652 1.387 . S
C656 C657 1.387 . S
C656 H660 0.950 . S
C656 C665 1.390 . S
C657 C656 1.387 . S
C657 C659 1.387 . S
H658 C665 0.950 . S
C659 C657 1.387 . S
C659 C661 1.390 . S
C659 H663 0.950 . S
H660 C656 0.950 . S
C661 C659 1.390 . S
C661 C662 1.387 . S
C661 H664 0.950 . S
C662 C661 1.387 . S
C662 C665 1.387 . S
H663 C659 0.950 . S
H664 C661 0.950 . S
C665 C656 1.390 . S
C665 H658 0.950 . S
C665 C662 1.387 . S
C666 C667 1.387 . S
C666 H670 0.950 . S
C666 C675 1.390 . S
C667 C666 1.387 . S
C667 C669 1.387 . S
H668 C675 0.950 . S
C669 C667 1.387 . S
C669 C671 1.390 . S
C669 H673 0.950 . S
H670 C666 0.950 . S
C671 C669 1.390 . S
C671 C672 1.387 . S
C671 H674 0.950 . S
C672 C671 1.387 . S
C672 C675 1.387 . S
H673 C669 0.950 . S
H674 C671 0.950 . S
C675 C666 1.390 . S
C675 H668 0.950 . S
C675 C672 1.387 . S
C676 C677 1.387 . S
C676 H680 0.950 . S
C676 C685 1.390 . S
C677 C676 1.387 . S
C677 C679 1.387 . S
H678 C685 0.950 . S
C679 C677 1.387 . S
C679 C681 1.390 . S
C679 H683 0.950 . S
H680 C676 0.950 . S
C681 C679 1.390 . S
C681 C682 1.387 . S
C681 H684 0.950 . S
C682 C681 1.387 . S
C682 C685 1.387 . S
H683 C679 0.950 . S
H684 C681 0.950 . S
C685 C676 1.390 . S
C685 H678 0.950 . S
C685 C682 1.387 . S
C686 C687 1.387 . S
C686 H690 0.950 . S
C686 C695 1.390 . S
C687 C686 1.387 . S
C687 C689 1.387 . S
H688 C695 0.950 . S
C689 C687 1.387 . S
C689 C691 1.390 . S
C689 H693 0.950 . S
H690 C686 0.950 . S
C691 C689 1.390 . S
C691 C692 1.387 . S
C691 H694 0.950 . S
C692 C691 1.387 . S
C692 C695 1.387 . S
H693 C689 0.950 . S
H694 C691 0.950 . S
C695 C686 1.390 . S
C695 H688 0.950 . S
C695 C692 1.387 . S
C696 C697 1.387 . S
C696 H700 0.950 . S
C696 C705 1.390 . S
C697 C696 1.387 . S
C697 C699 1.387 . S
H698 C705 0.950 . S
C699 C697 1.387 . S
C699 C701 1.390 . S
C699 H703 0.950 . S
H700 C696 0.950 . S
C701 C699 1.390 . S
C701 C702 1.387 . S
C701 H704 0.950 . S
C702 C701 1.387 . S
C702 C705 1.387 . S
H703 C699 0.950 . S
H704 C701 0.950 . S
C705 C696 1.390 . S
C705 H698 0.950 . S
C705 C702 1.387 . S
C706 C707 1.387 . S
C706 H710 0.950 . S
C706 C715 1.390 . S
C707 C706 1.387 . S
C707 C709 1.387 . S
H708 C715 0.950 . S
C709 C707 1.387 . S
C709 C711 1.390 . S
C709 H713 0.950 . S
H710 C706 0.950 . S
C711 C709 1.390 . S
C711 C712 1.387 . S
C711 H714 0.950 . S
C712 C711 1.387 . S
C712 C715 1.387 . S
H713 C709 0.950 . S
H714 C711 0.950 . S
C715 C706 1.390 . S
C715 H708 0.950 . S
C715 C712 1.387 . S
C716 C717 1.387 . S
C716 H720 0.950 . S
C716 C725 1.390 . S
C717 C716 1.387 . S
C717 C719 1.387 . S
H718 C725 0.950 . S
C719 C717 1.387 . S
C719 C721 1.390 . S
C719 H723 0.950 . S
H720 C716 0.950 . S
C721 C719 1.390 . S
C721 C722 1.387 . S
C721 H724 0.950 . S
C722 C721 1.387 . S
C722 C725 1.387 . S
H723 C719 0.950 . S
H724 C721 0.950 . S
C725 C716 1.390 . S
C725 H718 0.950 . S
C725 C722 1.387 . S
C726 C727 1.387 . S
C726 H730 0.950 . S
C726 C735 1.390 . S
C727 C726 1.387 . S
C727 C729 1.387 . S
H728 C735 0.950 . S
C729 C727 1.387 . S
C729 C731 1.390 . S
C729 H733 0.950 . S
H730 C726 0.950 . S
C731 C729 1.390 . S
C731 C732 1.387 . S
C731 H734 0.950 . S
C732 C731 1.387 . S
C732 C735 1.387 . S
H733 C729 0.950 . S
H734 C731 0.950 . S
C735 C726 1.390 . S
C735 H728 0.950 . S
C735 C732 1.387 . S
C736 C737 1.387 . S
C736 H740 0.950 . S
C736 C745 1.390 . S
C737 C736 1.387 . S
C737 C739 1.387 . S
H738 C745 0.950 . S
C739 C737 1.387 . S
C739 C741 1.390 . S
C739 H743 0.950 . S
H740 C736 0.950 . S
C741 C739 1.390 . S
C741 C742 1.387 . S
C741 H744 0.950 . S
C742 C741 1.387 . S
C742 C745 1.387 . S
H743 C739 0.950 . S
H744 C741 0.950 . S
C745 C736 1.390 . S
C745 H738 0.950 . S
C745 C742 1.387 . S
C746 C747 1.387 . S
C746 H750 0.950 . S
C746 C755 1.390 . S
C747 C746 1.387 . S
C747 C749 1.387 . S
H748 C755 0.950 . S
C749 C747 1.387 . S
C749 C751 1.390 . S
C749 H753 0.950 . S
H750 C746 0.950 . S
C751 C749 1.390 . S
C751 C752 1.387 . S
C751 H754 0.950 . S
C752 C751 1.387 . S
C752 C755 1.387 . S
H753 C749 0.950 . S
H754 C751 0.950 . S
C755 C746 1.390 . S
C755 H748 0.950 . S
C755 C752 1.387 . S
C756 C757 1.387 . S
C756 H760 0.950 . S
C756 C765 1.390 . S
C757 C756 1.387 . S
C757 C759 1.387 . S
H758 C765 0.950 . S
C759 C757 1.387 . S
C759 C761 1.390 . S
C759 H763 0.950 . S
H760 C756 0.950 . S
C761 C759 1.390 . S
C761 C762 1.387 . S
C761 H764 0.950 . S
C762 C761 1.387 . S
C762 C765 1.387 . S
H763 C759 0.950 . S
H764 C761 0.950 . S
C765 C756 1.390 . S
C765 H758 0.950 . S
C765 C762 1.387 . S
C766 C767 1.387 . S
C766 H770 0.950 . S
C766 C775 1.390 . S
C767 C766 1.387 . S
C767 C769 1.387 . S
H768 C775 0.950 . S
C769 C767 1.387 . S
C769 C771 1.390 . S
C769 H773 0.950 . S
H770 C766 0.950 . S
C771 C769 1.390 . S
C771 C772 1.387 . S
C771 H774 0.950 . S
C772 C771 1.387 . S
C772 C775 1.387 . S
H773 C769 0.950 . S
H774 C771 0.950 . S
C775 C766 1.390 . S
C775 H768 0.950 . S
C775 C772 1.387 . S
C776 C777 1.387 . S
C776 H780 0.950 . S
C776 C785 1.390 . S
C777 C776 1.387 . S
C777 C779 1.387 . S
H778 C785 0.950 . S
C779 C777 1.387 . S
C779 C781 1.390 . S
C779 H783 0.950 . S
H780 C776 0.950 . S
C781 C779 1.390 . S
C781 C782 1.387 . S
C781 H784 0.950 . S
C782 C781 1.387 . S
C782 C785 1.387 . S
H783 C779 0.950 . S
H784 C781 0.950 . S
C785 C776 1.390 . S
C785 H778 0.950 . S
C785 C782 1.387 . S
C786 C787 1.387 . S
C786 H790 0.950 . S
C786 C795 1.390 . S
C787 C786 1.387 . S
C787 C789 1.387 . S
H788 C795 0.950 . S
C789 C787 1.387 . S
C789 C791 1.390 . S
C789 H793 0.950 . S
H790 C786 0.950 . S
C791 C789 1.390 . S
C791 C792 1.387 . S
C791 H794 0.950 . S
C792 C791 1.387 . S
C792 C795 1.387 . S
H793 C789 0.950 . S
H794 C791 0.950 . S
C795 C786 1.390 . S
C795 H788 0.950 . S
C795 C792 1.387 . S
C796 C797 1.387 . S
C796 H800 0.950 . S
C796 C805 1.390 . S
C797 C796 1.387 . S
C797 C799 1.387 . S
H798 C805 0.950 . S
C799 C797 1.387 . S
C799 C801 1.390 . S
C799 H803 0.950 . S
H800 C796 0.950 . S
C801 C799 1.390 . S
C801 C802 1.387 . S
C801 H804 0.950 . S
C802 C801 1.387 . S
C802 C805 1.387 . S
H803 C799 0.950 . S
H804 C801 0.950 . S
C805 C796 1.390 . S
C805 H798 0.950 . S
C805 C802 1.387 . S
C806 C807 1.387 . S
C806 H810 0.950 . S
C806 C815 1.390 . S
C807 C806 1.387 . S
C807 C809 1.387 . S
H808 C815 0.950 . S
C809 C807 1.387 . S
C809 C811 1.390 . S
C809 H813 0.950 . S
H810 C806 0.950 . S
C811 C809 1.390 . S
C811 C812 1.387 . S
C811 H814 0.950 . S
C812 C811 1.387 . S
C812 C815 1.387 . S
H813 C809 0.950 . S
H814 C811 0.950 . S
C815 C806 1.390 . S
C815 H808 0.950 . S
C815 C812 1.387 . S
C337 C9 1.537 . S
C342 C107 1.537 . S
C347 C121 1.535 . S
C352 C23 1.537 . S
C357 C37 1.538 . S
C362 C135 1.535 . S
C367 C51 1.537 . S
C372 C149 1.537 . S
C377 C163 1.537 . S
C382 C65 1.536 . S
C387 C79 1.537 . S
C392 C93 1.536 . S
C397 C177 1.536 . S
C402 C275 1.536 . S
C407 C191 1.536 . S
C412 C289 1.536 . S
C417 C303 1.535 . S
C422 C205 1.538 . S
C427 C219 1.537 . S
C432 C317 1.537 . S
C437 C233 1.536 . S
C442 C331 1.537 . S
C447 C261 1.537 . S
C452 C247 1.535 . S
C457 C8 1.423 . S
C462 C120 1.423 . S
C467 C134 1.422 . S
C472 C22 1.422 . S
C477 C148 1.423 . S
C482 C36 1.423 . S
C487 C50 1.423 . S
C492 C162 1.423 . S
C497 C64 1.422 . S
C502 C92 1.422 . S
C507 C78 1.423 . S
C512 C106 1.423 . S
C517 C288 1.422 . S
C522 C176 1.422 . S
C527 C190 1.422 . S
C532 C302 1.422 . S
C537 C316 1.422 . S
C542 C204 1.422 . S
C547 C330 1.423 . S
C552 C218 1.423 . S
C557 C260 1.423 . S
C562 C232 1.423 . S
C567 C246 1.423 . S
C572 C274 1.423 . S
C577 C7 1.523 . S
C582 C217 1.526 . S
C587 C231 1.524 . S
C592 C21 1.526 . S
C597 C245 1.525 . S
C602 C35 1.524 . S
C607 C49 1.526 . S
C612 C175 1.523 . S
C617 C63 1.524 . S
C622 C189 1.525 . S
C627 C203 1.525 . S
C632 C77 1.525 . S
C637 C301 1.526 . S
C642 C91 1.524 . S
C647 C315 1.526 . S
C652 C105 1.523 . S
C657 C329 1.525 . S
C662 C119 1.525 . S
C667 C259 1.524 . S
C672 C133 1.526 . S
C677 C147 1.526 . S
C682 C273 1.523 . S
C687 C161 1.525 . S
C692 C287 1.525 . S
C697 C3 1.489 . S
C702 C143 1.489 . S
C707 C157 1.488 . S
C712 C17 1.488 . S
C717 C87 1.489 . S
C722 C31 1.488 . S
C727 C45 1.488 . S
C732 C101 1.488 . S
C737 C59 1.488 . S
C742 C115 1.488 . S
C747 C73 1.488 . S
C752 C129 1.488 . S
C757 C171 1.487 . S
C762 C311 1.487 . S
C767 C185 1.488 . S
C772 C325 1.488 . S
C777 C199 1.488 . S
C782 C255 1.489 . S
C787 C269 1.487 . S
C792 C213 1.487 . S
C797 C227 1.488 . S
C802 C283 1.488 . S
C807 C241 1.488 . S
C812 C297 1.487 . S
