# Generated by pormake.
# Topology unh, (4)-cn, num edge types: 1
# Building blocks:
#     Node 0, Type 0, BuildingBlock: NAWXER_clean_sbu_0, # of connection points: 4
#     Node 1, Type 0, BuildingBlock: NAWXER_clean_sbu_0, # of connection points: 4
#     Node 2, Type 0, BuildingBlock: NAWXER_clean_sbu_0, # of connection points: 4
#     Node 3, Type 0, BuildingBlock: NAWXER_clean_sbu_0, # of connection points: 4
#     Node 4, Type 0, BuildingBlock: NAWXER_clean_sbu_0, # of connection points: 4
#     Node 5, Type 0, BuildingBlock: NAWXER_clean_sbu_0, # of connection points: 4
#     Edge 6, Type (0, 0), BuildingBlock: FUNLAD_clean_linker_1, # of connection points: 2
#     Edge 7, Type (0, 0), BuildingBlock: FUNLAD_clean_linker_1, # of connection points: 2
#     Edge 8, Type (0, 0), BuildingBlock: FUNLAD_clean_linker_1, # of connection points: 2
#     Edge 9, Type (0, 0), BuildingBlock: FUNLAD_clean_linker_1, # of connection points: 2
#     Edge 10, Type (0, 0), BuildingBlock: FUNLAD_clean_linker_1, # of connection points: 2
#     Edge 11, Type (0, 0), BuildingBlock: FUNLAD_clean_linker_1, # of connection points: 2
#     Edge 12, Type (0, 0), BuildingBlock: FUNLAD_clean_linker_1, # of connection points: 2
#     Edge 13, Type (0, 0), BuildingBlock: FUNLAD_clean_linker_1, # of connection points: 2
#     Edge 14, Type (0, 0), BuildingBlock: FUNLAD_clean_linker_1, # of connection points: 2
#     Edge 15, Type (0, 0), BuildingBlock: FUNLAD_clean_linker_1, # of connection points: 2
#     Edge 16, Type (0, 0), BuildingBlock: FUNLAD_clean_linker_1, # of connection points: 2
#     Edge 17, Type (0, 0), BuildingBlock: FUNLAD_clean_linker_1, # of connection points: 2
# Relax obj value: 0.020
# Max RMSD: 0.247
# Mean RMSD: 0.247
data_MOF--net-unh--node1-NAWXER_clean_sbu_0--edge1-FUNLAD_clean_linker_1
_symmetry_space_group_name_H-M    P1
_symmetry_Int_Tables_number       1
_symmetry_cell_setting            triclinic
loop_
_symmetry_equiv_pos_as_xyz
'x, y, z'
_cell_length_a     45.879258
_cell_length_b     46.270854
_cell_length_c     22.047594
_cell_angle_alpha  90.510972
_cell_angle_beta   89.609409
_cell_angle_gamma 119.69766
loop_
_atom_site_label
_atom_site_type_symbol
_atom_site_fract_x
_atom_site_fract_y
_atom_site_fract_z
_atom_type_partial_charge
C0 C 0.11857 0.56365 0.16232 0.0
C1 C 0.20549 0.62357 0.01281 0.0
O2 O 0.13625 0.59456 0.15285 0.0
Zn3 Zn 0.16101 0.59219 0.08504 0.0
O4 O 0.12263 0.54299 0.12892 0.0
Zn5 Zn 0.15585 0.54772 0.05343 0.0
O6 O 0.18159 0.5289 0.08327 0.0
O7 O 0.19406 0.57673 0.12702 0.0
O8 O 0.19439 0.59215 1.00806 0.0
O9 O 0.19232 0.63429 0.05116 0.0
O10 O 0.12365 0.56798 0.01306 0.0
O11 O 0.1258 0.52253 0.9905 0.0
C12 C 0.19897 0.55183 0.12084 0.0
C13 C 0.11335 0.54114 0.98155 0.0
C14 C 0.57379 0.19558 0.23809 0.0
C15 C 0.55931 0.1071 0.37193 0.0
O16 O 0.55487 0.18321 0.28378 0.0
Zn17 Zn 0.56753 0.15097 0.30285 0.0
O18 O 0.59292 0.18404 0.2209 0.0
Zn19 Zn 0.60287 0.14515 0.25376 0.0
O20 O 0.59138 0.11549 0.18619 0.0
O21 O 0.54738 0.11509 0.22795 0.0
O22 O 0.58107 0.11155 0.33072 0.0
O23 O 0.54551 0.12495 0.37237 0.0
O24 O 0.61916 0.18201 0.33284 0.0
O25 O 0.64968 0.16905 0.27287 0.0
C26 C 0.55996 0.10429 0.18744 0.0
C27 C 0.64787 0.18602 0.3166 0.0
C28 C 0.46061 0.54384 0.36299 0.0
C29 C 0.44858 0.62056 0.49971 0.0
O30 O 0.47835 0.57527 0.36668 0.0
Zn31 Zn 0.4546 0.58178 0.43273 0.0
O32 O 0.43565 0.5283 0.39919 0.0
Zn33 Zn 0.41296 0.54187 0.47282 0.0
O34 O 0.36826 0.52656 0.44611 0.0
O35 O 0.40619 0.56901 0.39303 0.0
O36 O 0.42602 0.5903 0.50934 0.0
O37 O 0.47087 0.62702 0.45945 0.0
O38 O 0.4659 0.55952 0.50921 0.0
O39 O 0.41699 0.51913 0.54109 0.0
C40 C 0.37539 0.5474 0.40383 0.0
C41 C 0.44861 0.53565 0.54614 0.0
C42 C 0.84174 0.46464 0.63059 0.0
C43 C 0.92114 0.48155 0.4685 0.0
O44 O 0.85069 0.48502 0.58686 0.0
Zn45 Zn 0.88103 0.4727 0.54971 0.0
O46 O 0.85395 0.4451 0.63533 0.0
Zn47 Zn 0.88858 0.43478 0.58477 0.0
O48 O 0.92232 0.44385 0.64459 0.0
O49 O 0.92041 0.48872 0.61727 0.0
O50 O 0.9182 0.45884 0.50512 0.0
O51 O 0.90376 0.49564 0.47692 0.0
O52 O 0.84651 0.42359 0.5171 0.0
O53 O 0.86024 0.38894 0.5592 0.0
C54 C 0.93321 0.47492 0.6497 0.0
C55 C 0.84128 0.39397 0.52438 0.0
C56 C 0.40322 0.83228 0.81317 0.0
C57 C 0.48714 0.91951 0.68672 0.0
O58 O 0.39971 0.84992 0.77343 0.0
Zn59 Zn 0.44609 0.87674 0.75287 0.0
O60 O 0.43277 0.83795 0.82701 0.0
Zn61 Zn 0.48377 0.87319 0.79783 0.0
O62 O 0.50457 0.89904 0.86895 0.0
O63 O 0.46662 0.90973 0.83106 0.0
O64 O 0.50108 0.90967 0.72541 0.0
O65 O 0.45548 0.90674 0.68681 0.0
O66 O 0.45876 0.84025 0.71562 0.0
O67 O 0.50038 0.84462 0.77205 0.0
C68 C 0.48899 0.91521 0.87117 0.0
C69 C 0.48032 0.8311 0.72817 0.0
C70 C 0.56622 0.4667 0.86421 0.0
C71 C 0.57204 0.38209 0.98363 0.0
O72 O 0.54601 0.4356 0.86614 0.0
Zn73 Zn 0.56907 0.42545 0.92659 0.0
O74 O 0.59201 0.47977 0.89907 0.0
Zn75 Zn 0.61328 0.46151 0.96719 0.0
O76 O 0.65681 0.47432 0.93402 0.0
O77 O 0.61504 0.43641 0.87917 0.0
O78 O 0.59661 0.41107 0.99645 0.0
O79 O 0.5501 0.37923 0.94581 0.0
O80 O 0.56174 0.44839 1.00742 0.0
O81 O 0.61254 0.48414 0.0399 0.0
C82 C 0.64661 0.45547 0.88763 0.0
C83 C 0.581 0.47065 0.04581 0.0
H84 H 0.07798 0.50638 0.91455 0.0
C85 C 0.08675 0.53064 0.93566 0.0
H86 H 0.08177 0.57378 0.93701 0.0
H87 H 0.02448 0.52521 0.66453 0.0
H88 H 0.07998 0.57068 0.64133 0.0
H89 H 0.12056 0.60107 0.72294 0.0
H90 H 0.10583 0.58585 0.82848 0.0
C91 C 0.07305 0.54902 0.91846 0.0
C92 C 0.04641 0.53563 0.87119 0.0
C93 C 0.05478 0.54569 0.8101 0.0
C94 C 0.03102 0.52866 0.76317 0.0
C95 C 0.04097 0.53791 0.70222 0.0
C96 C 0.07291 0.56386 0.68818 0.0
C97 C 0.09578 0.58092 0.73412 0.0
C98 C 0.08703 0.57194 0.79444 0.0
H99 H 0.96713 0.52145 0.69869 0.0
C100 C 0.95969 0.49529 0.69401 0.0
H101 H 0.96592 0.45597 0.72653 0.0
H102 H 1.02123 0.51312 0.98437 0.0
H103 H 0.96506 0.46883 1.00877 0.0
H104 H 0.92347 0.43967 0.92796 0.0
H105 H 0.93774 0.45454 0.82236 0.0
C106 C 0.97406 0.48235 0.72936 0.0
C107 C 0.99852 0.50222 0.77787 0.0
C108 C 0.98966 0.49337 0.83946 0.0
C109 C 1.01359 0.51013 0.8861 0.0
C110 C 1.00409 0.50084 0.94718 0.0
C111 C 0.9719 0.47559 0.96182 0.0
C112 C 0.94849 0.45919 0.91632 0.0
C113 C 0.95707 0.4679 0.85583 0.0
H114 H 0.51702 0.94382 0.95139 0.0
C115 C 0.49772 0.94056 0.91926 0.0
H116 H 0.46563 0.95841 0.89092 0.0
H117 H 0.5186 0.01568 0.17405 0.0
H118 H 0.48339 0.95848 0.20511 0.0
H119 H 0.45271 0.91413 0.1294 0.0
H120 H 0.4576 0.92676 0.0219 0.0
C121 C 0.48403 0.96032 0.92384 0.0
C122 C 0.49666 0.9876 0.97008 0.0
C123 C 0.49228 0.98013 0.03291 0.0
C124 C 0.50894 1.00595 0.07671 0.0
C125 C 0.50575 0.99735 0.13887 0.0
C126 C 0.48569 0.96453 0.15737 0.0
C127 C 0.46849 0.93955 0.11474 0.0
C128 C 0.47167 0.9471 0.05319 0.0
H129 H 0.51097 0.06867 0.14627 0.0
C130 C 0.53789 0.07834 0.14354 0.0
H131 H 0.57736 0.07624 0.09768 0.0
H132 H 0.50763 0.01091 0.85364 0.0
H133 H 0.54039 0.06852 0.8226 0.0
H134 H 0.56775 0.11346 0.89859 0.0
H135 H 0.56267 0.10103 1.00617 0.0
C136 C 0.5504 0.06599 0.10178 0.0
C137 C 0.52899 0.0394 0.0576 0.0
C138 C 0.53148 0.04707 0.99497 0.0
C139 C 0.51533 0.02118 0.95118 0.0
C140 C 0.5191 0.02958 0.88888 0.0
C141 C 0.53785 0.06256 0.87041 0.0
C142 C 0.55329 0.08786 0.91319 0.0
C143 C 0.55026 0.08037 0.97477 0.0
H144 H 0.45272 0.49798 0.31643 0.0
C145 C 0.4687 0.52485 0.31817 0.0
H146 H 0.51093 0.56658 0.2808 0.0
H147 H 0.54096 0.44528 0.19945 0.0
H148 H 0.54656 0.43862 0.30704 0.0
H149 H 0.5336 0.47012 0.383 0.0
H150 H 0.51445 0.50801 0.35201 0.0
C151 C 0.49532 0.53965 0.28073 0.0
C152 C 0.50333 0.52043 0.23543 0.0
C153 C 0.51545 0.49906 0.25443 0.0
C154 C 0.52428 0.48192 0.21053 0.0
C155 C 0.53503 0.45977 0.23078 0.0
C156 C 0.53818 0.45557 0.29241 0.0
C157 C 0.53078 0.47322 0.33518 0.0
C158 C 0.5196 0.49478 0.31671 0.0
H159 H 0.58487 0.50049 0.12697 0.0
C160 C 0.56719 0.48194 0.09552 0.0
H161 H 0.51644 0.45435 0.06876 0.0
H162 H 0.47994 0.5585 0.18364 0.0
H163 H 0.4757 0.56617 0.076 0.0
H164 H 0.49278 0.53794 1.00003 0.0
H165 H 0.51406 0.50175 0.03111 0.0
C166 C 0.53432 0.47173 0.10137 0.0
C167 C 0.52223 0.48711 0.14772 0.0
C168 C 0.50971 0.50812 0.12879 0.0
C169 C 0.50026 0.52476 0.17264 0.0
C170 C 0.48784 0.54557 0.15233 0.0
C171 C 0.4852 0.55014 0.09067 0.0
C172 C 0.49479 0.53421 0.04789 0.0
C173 C 0.50693 0.51346 0.06642 0.0
H174 H 0.93868 0.50185 0.37707 0.0
C175 C 0.94412 0.49109 0.41602 0.0
H176 H 0.97735 0.47776 0.45561 0.0
H177 H 0.05211 0.4651 0.22829 0.0
H178 H 0.02774 0.41035 0.27284 0.0
H179 H 0.98732 0.39442 0.35737 0.0
H180 H 0.97155 0.43336 0.3987 0.0
C181 C 0.97198 0.48834 0.41631 0.0
C182 C 0.99533 0.4979 0.36302 0.0
C183 C 1.00339 0.47436 0.33776 0.0
C184 C 0.02585 0.48316 0.28748 0.0
C185 C 0.03461 0.45962 0.26534 0.0
C186 C 1.02085 0.42804 0.29059 0.0
C187 C 0.99815 0.4191 0.33826 0.0
C188 C 0.98942 0.44183 0.36171 0.0
H189 H 0.10056 0.56868 0.25213 0.0
C190 C 0.09433 0.55232 0.21286 0.0
H191 H 0.05766 0.50855 0.17017 0.0
H192 H 0.9926 0.55229 0.40764 0.0
H193 H 1.01177 0.60477 0.35651 0.0
H194 H 0.04038 0.61541 0.25732 0.0
H195 H 0.05158 0.57428 0.21065 0.0
C196 C 0.06411 0.52466 0.20983 0.0
C197 C 0.03918 0.51502 0.26065 0.0
C198 C 0.02945 0.53781 0.28368 0.0
C199 C 1.00954 0.53016 0.33725 0.0
C200 C 1.00477 0.55545 0.36415 0.0
C201 C 1.01607 0.58593 0.33567 0.0
C202 C 0.03241 0.59203 0.28011 0.0
C203 C 0.03906 0.56834 0.2542 0.0
H204 H 0.53055 0.07895 0.45154 0.0
C205 C 0.54942 0.08132 0.41875 0.0
H206 H 0.57989 0.06158 0.38872 0.0
H207 H 0.52599 1.00815 0.67283 0.0
H208 H 0.56294 0.06533 0.70319 0.0
H209 H 0.59501 0.10844 0.62694 0.0
H210 H 0.58971 0.0946 0.51962 0.0
C211 C 0.56189 0.06054 0.42215 0.0
C212 C 0.54864 0.03365 0.46852 0.0
C213 C 0.55337 0.04174 0.53126 0.0
C214 C 0.53606 0.01656 0.57537 0.0
C215 C 0.53947 0.02589 0.63742 0.0
C216 C 0.56049 0.05873 0.65552 0.0
C217 C 0.57845 0.08302 0.61259 0.0
C218 C 0.57502 0.07478 0.55114 0.0
H219 H 0.53511 0.95629 0.64441 0.0
C220 C 0.50804 0.9457 0.64275 0.0
H221 H 0.4674 0.94565 0.59829 0.0
H222 H 0.53651 1.00925 0.35228 0.0
H223 H 0.50212 0.95152 0.32184 0.0
H224 H 0.47387 0.90751 0.39834 0.0
H225 H 0.47966 0.921 0.50578 0.0
C226 C 0.49449 0.95686 0.60163 0.0
C227 C 0.51522 0.98303 0.55666 0.0
C228 C 0.51221 0.97469 0.49407 0.0
C229 C 0.52889 1.00001 0.44996 0.0
C230 C 0.52466 0.99101 0.38773 0.0
C231 C 0.50498 0.95794 0.3696 0.0
C232 C 0.48905 0.93317 0.41267 0.0
C233 C 0.49251 0.94128 0.4742 0.0
H234 H 0.57796 0.51448 0.82174 0.0
C235 C 0.56057 0.48784 0.82148 0.0
H236 H 0.51817 0.44809 0.77984 0.0
H237 H 0.49151 0.56926 0.69655 0.0
H238 H 0.48425 0.5767 0.80373 0.0
H239 H 0.49696 0.54645 0.88126 0.0
H240 H 0.51738 0.50898 0.85234 0.0
C241 C 0.5349 0.47483 0.78204 0.0
C242 C 0.52979 0.49547 0.73654 0.0
C243 C 0.51743 0.51694 0.75451 0.0
C244 C 0.50906 0.53357 0.70976 0.0
C245 C 0.49737 0.55536 0.72872 0.0
C246 C 0.49324 0.55997 0.79004 0.0
C247 C 0.50049 0.543 0.8337 0.0
C248 C 0.51235 0.52164 0.81643 0.0
H249 H 0.44835 0.50693 0.62521 0.0
C250 C 0.46469 0.52663 0.59432 0.0
H251 H 0.51502 0.55936 0.56877 0.0
H252 H 0.55579 0.45858 0.68711 0.0
H253 H 0.56315 0.45147 0.57991 0.0
H254 H 0.54741 0.47937 0.50242 0.0
H255 H 0.52431 0.51466 0.53162 0.0
C256 C 0.49808 0.54062 0.60047 0.0
C257 C 0.51215 0.52798 0.64729 0.0
C258 C 0.52606 0.50788 0.62947 0.0
C259 C 0.53483 0.49155 0.67414 0.0
C260 C 0.54834 0.47128 0.65504 0.0
C261 C 0.55279 0.46705 0.59367 0.0
C262 C 0.54395 0.48278 0.55004 0.0
C263 C 0.5307 0.50296 0.56743 0.0
H264 H 0.23409 0.53341 0.1364 0.0
C265 C 0.2258 0.55018 0.15405 0.0
H266 H 0.23185 0.58485 0.22231 0.0
H267 H 0.31117 0.49918 0.29435 0.0
H268 H 0.25703 0.44912 0.28503 0.0
H269 H 0.20649 0.4524 0.25928 0.0
H270 H 0.21027 0.5056 0.23952 0.0
C271 C 0.23985 0.56787 0.20471 0.0
C272 C 0.26806 0.56638 0.23532 0.0
C273 C 0.26461 0.53539 0.25306 0.0
C274 C 0.29295 0.53379 0.27437 0.0
C275 C 0.28985 0.50209 0.28321 0.0
C276 C 0.25899 0.47309 0.27728 0.0
C277 C 0.23061 0.47492 0.26235 0.0
C278 C 0.23322 0.50562 0.2504 0.0
H279 H 0.32299 0.53476 0.39098 0.0
C280 C 0.34782 0.54759 0.37047 0.0
H281 H 0.37685 0.57559 0.29615 0.0
H282 H 0.28383 0.62995 0.20528 0.0
H283 H 0.3365 0.68032 0.22395 0.0
H284 H 0.38347 0.67819 0.2733 0.0
H285 H 0.37832 0.62561 0.30288 0.0
C286 C 0.35204 0.56253 0.31659 0.0
C287 C 0.32359 0.56357 0.28594 0.0
C288 C 0.32667 0.59472 0.2707 0.0
C289 C 0.29912 0.59606 0.24423 0.0
C290 C 0.30351 0.62741 0.22693 0.0
C291 C 0.33369 0.6566 0.23726 0.0
C292 C 0.36015 0.65539 0.26491 0.0
C293 C 0.35684 0.62494 0.28155 0.0
H294 H 0.70221 0.21104 0.33442 0.0
C295 C 0.67905 0.21067 0.34688 0.0
H296 H 0.65717 0.23315 0.39996 0.0
H297 H 0.77304 0.30181 0.59203 0.0
H298 H 0.72774 0.26053 0.6534 0.0
H299 H 0.67522 0.21771 0.60615 0.0
H300 H 0.66752 0.21614 0.49725 0.0
C301 C 0.68014 0.2335 0.38629 0.0
C302 C 0.71239 0.259 0.41415 0.0
C303 C 0.71677 0.25924 0.47781 0.0
C304 C 0.74735 0.28356 0.50496 0.0
C305 C 0.7506 0.28366 0.56883 0.0
C306 C 0.72475 0.26012 0.60468 0.0
C307 C 0.69517 0.23603 0.57809 0.0
C308 C 0.69107 0.23546 0.51547 0.0
H309 H 0.79657 0.37254 0.46624 0.0
C310 C 0.81246 0.36635 0.49322 0.0
H311 H 0.81958 0.32754 0.52594 0.0
H312 H 0.71097 0.26899 0.29178 0.0
H313 H 0.75736 0.30811 0.22979 0.0
H314 H 0.81245 0.34594 0.27546 0.0
H315 H 0.82108 0.34548 0.38373 0.0
C316 C 0.80467 0.33436 0.4976 0.0
C317 C 0.77372 0.3074 0.46834 0.0
C318 C 0.76977 0.30644 0.4044 0.0
C319 C 0.73869 0.28307 0.37754 0.0
C320 C 0.73456 0.28478 0.31427 0.0
C321 C 0.76093 0.30737 0.27813 0.0
C322 C 0.79188 0.32877 0.30387 0.0
C323 C 0.7964 0.32843 0.3662 0.0
H324 H 0.50351 0.8013 0.70051 0.0
C325 C 0.48194 0.80463 0.69325 0.0
H326 H 0.4356 0.78657 0.64824 0.0
H327 H 0.46517 0.71081 0.43847 0.0
H328 H 0.45954 0.75269 0.38281 0.0
H329 H 0.45448 0.79697 0.43664 0.0
H330 H 0.45456 0.79937 0.54649 0.0
C331 C 0.45722 0.78346 0.65635 0.0
C332 C 0.45936 0.75604 0.62413 0.0
C333 C 0.45984 0.7553 0.55983 0.0
C334 C 0.46352 0.73018 0.52877 0.0
C335 C 0.46307 0.72962 0.4645 0.0
C336 C 0.45978 0.75349 0.4319 0.0
C337 C 0.45688 0.77839 0.46221 0.0
C338 C 0.45692 0.77944 0.52536 0.0
H339 H 0.42642 0.64029 0.5655 0.0
C340 C 0.44738 0.64732 0.53453 0.0
H341 H 0.49114 0.68708 0.49674 0.0
H342 H 0.45245 0.74571 0.7471 0.0
H343 H 0.46083 0.70561 0.80308 0.0
H344 H 0.47461 0.66677 0.74984 0.0
H345 H 0.47895 0.66711 0.64026 0.0
C346 C 0.47061 0.67961 0.52887 0.0
C347 C 0.46731 0.70612 0.56202 0.0
C348 C 0.46721 0.70709 0.62641 0.0
C349 C 0.4618 0.73115 0.65737 0.0
C350 C 0.45864 0.72947 0.72141 0.0
C351 C 0.46305 0.70632 0.75413 0.0
C352 C 0.47062 0.68434 0.72415 0.0
C353 C 0.47273 0.68462 0.6611 0.0
H354 H 0.66063 0.44282 0.79961 0.0
C355 C 0.67054 0.4555 0.84263 0.0
H356 H 0.71381 0.48316 0.89595 0.0
H357 H 0.75552 0.41203 0.6689 0.0
H358 H 0.71361 0.35909 0.70993 0.0
H359 H 0.67924 0.3567 0.79833 0.0
H360 H 0.68583 0.40725 0.84471 0.0
C361 C 0.70367 0.47008 0.85337 0.0
C362 C 0.72767 0.47114 0.80622 0.0
C363 C 0.7251 0.44132 0.78249 0.0
C364 C 0.74672 0.44274 0.7346 0.0
C365 C 0.74135 0.41253 0.70787 0.0
C366 C 0.71711 0.3819 0.7306 0.0
C367 C 0.69764 0.38056 0.78011 0.0
C368 C 0.70148 0.40981 0.80595 0.0
H369 H 0.81489 0.44948 0.71794 0.0
C370 C 0.81732 0.46289 0.67627 0.0
H371 H 0.79967 0.48957 0.62569 0.0
H372 H 0.73935 0.53303 0.84093 0.0
H373 H 0.78375 0.58598 0.80453 0.0
H374 H 0.82414 0.58847 0.72747 0.0
H375 H 0.8201 0.53802 0.68578 0.0
C376 C 0.79727 0.47594 0.66705 0.0
C377 C 0.77282 0.474 0.71408 0.0
C378 C 0.77593 0.50379 0.73892 0.0
C379 C 0.75314 0.50235 0.7845 0.0
C380 C 0.75631 0.53255 0.80715 0.0
C381 C 0.78166 0.56319 0.78654 0.0
C382 C 0.80436 0.56459 0.74309 0.0
C383 C 0.80168 0.53536 0.71943 0.0
H384 H 0.34928 0.80453 0.83493 0.0
C385 C 0.37301 0.80508 0.84173 0.0
H386 H 0.39695 0.78066 0.88005 0.0
H387 H 0.28509 0.70172 0.07688 0.0
H388 H 0.33322 0.73718 0.13928 0.0
H389 H 0.38573 0.78065 0.09317 0.0
H390 H 0.39057 0.78862 0.98432 0.0
C391 C 0.37341 0.78036 0.87259 0.0
C392 C 0.34209 0.75295 0.8998 0.0
C393 C 0.33955 0.74887 0.96362 0.0
C394 C 0.309 0.7243 0.99032 0.0
C395 C 0.30742 0.72041 0.05417 0.0
C396 C 0.33491 0.74053 0.09059 0.0
C397 C 0.36449 0.76496 0.06463 0.0
C398 C 0.36693 0.76923 1.00198 0.0
H399 H 0.24665 0.63704 0.94667 0.0
C400 C 0.23486 0.64706 0.97662 0.0
H401 H 0.23746 0.69036 0.01427 0.0
H402 H 0.34052 0.74915 0.77556 0.0
H403 H 0.29207 0.71456 0.71309 0.0
H404 H 0.23745 0.67601 0.7597 0.0
H405 H 0.23122 0.67118 0.86893 0.0
C406 C 0.24838 0.68022 0.98259 0.0
C407 C 0.28081 0.70414 0.95329 0.0
C408 C 0.28352 0.70774 0.88933 0.0
C409 C 0.3145 0.73144 0.86251 0.0
C410 C 0.31716 0.73289 0.79843 0.0
C411 C 0.28961 0.71295 0.76198 0.0
C412 C 0.25891 0.69114 0.78822 0.0
C413 C 0.25574 0.68847 0.85108 0.0
H414 H 0.55247 0.32807 0.98892 0.0
C415 C 0.56981 0.35182 1.0098 0.0
H416 H 0.60595 0.37632 0.07799 0.0
H417 H 0.52189 0.21172 0.13905 0.0
H418 H 0.47104 0.2155 0.13918 0.0
H419 H 0.47316 0.26879 0.1182 0.0
H420 H 0.52583 0.31808 0.09428 0.0
C421 C 0.58825 0.35258 0.05758 0.0
C422 C 0.58725 0.32179 0.08068 0.0
C423 C 0.55658 0.29403 0.09991 0.0
C424 C 0.55579 0.26416 0.11779 0.0
C425 C 0.52429 0.2357 0.1297 0.0
C426 C 0.49484 0.23742 0.12928 0.0
C427 C 0.496 0.26735 0.11707 0.0
C428 C 0.52642 0.2954 0.10266 0.0
H429 H 0.563 0.23665 0.23184 0.0
C430 C 0.57409 0.22391 0.20747 0.0
H431 H 0.59761 0.22154 0.12659 0.0
H432 H 0.65009 0.36946 0.04413 0.0
H433 H 0.70132 0.36677 0.05131 0.0
H434 H 0.70078 0.31724 0.09304 0.0
H435 H 0.6489 0.26982 0.12669 0.0
C436 C 0.58624 0.2339 0.15127 0.0
C437 C 0.58616 0.26322 0.12331 0.0
C438 C 0.61688 0.29111 0.10506 0.0
C439 C 0.61734 0.32015 0.08279 0.0
C440 C 0.64827 0.34711 0.06289 0.0
C441 C 0.67793 0.34587 0.06654 0.0
C442 C 0.67762 0.31797 0.08992 0.0
C443 C 0.64757 0.29086 0.10902 0.0
loop_
_geom_bond_atom_site_label_1
_geom_bond_atom_site_label_2
_geom_bond_distance
_geom_bond_site_symmetry_2
_ccdc_geom_bond_type
C0 O2 1.247 . S
C0 O4 1.258 . S
C1 O8 1.247 . S
C1 O9 1.258 . S
O2 C0 1.247 . S
O2 Zn3 2.028 . S
Zn3 O2 2.028 . S
Zn3 O7 2.035 . S
Zn3 O9 2.035 . S
Zn3 O10 2.028 . S
O4 C0 1.258 . S
O4 Zn5 2.035 . S
Zn5 O4 2.035 . S
Zn5 O6 2.028 . S
Zn5 O8 2.028 . S
Zn5 O11 2.035 . S
O6 Zn5 2.028 . S
O6 C12 1.247 . S
O7 Zn3 2.035 . S
O7 C12 1.258 . S
O8 C1 1.247 . S
O8 Zn5 2.028 . S
O9 C1 1.258 . S
O9 Zn3 2.035 . S
O10 Zn3 2.028 . S
O10 C13 1.247 . S
O11 Zn5 2.035 . S
O11 C13 1.258 . S
C12 O6 1.247 . S
C12 O7 1.258 . S
C13 O10 1.247 . S
C13 O11 1.258 . S
C14 O16 1.247 . S
C14 O18 1.258 . S
C15 O22 1.247 . S
C15 O23 1.258 . S
O16 C14 1.247 . S
O16 Zn17 2.028 . S
Zn17 O16 2.028 . S
Zn17 O21 2.035 . S
Zn17 O23 2.035 . S
Zn17 O24 2.028 . S
O18 C14 1.258 . S
O18 Zn19 2.035 . S
Zn19 O18 2.035 . S
Zn19 O20 2.028 . S
Zn19 O22 2.028 . S
Zn19 O25 2.035 . S
O20 Zn19 2.028 . S
O20 C26 1.247 . S
O21 Zn17 2.035 . S
O21 C26 1.258 . S
O22 C15 1.247 . S
O22 Zn19 2.028 . S
O23 C15 1.258 . S
O23 Zn17 2.035 . S
O24 Zn17 2.028 . S
O24 C27 1.247 . S
O25 Zn19 2.035 . S
O25 C27 1.258 . S
C26 O20 1.247 . S
C26 O21 1.258 . S
C27 O24 1.247 . S
C27 O25 1.258 . S
C28 O30 1.247 . S
C28 O32 1.258 . S
C29 O36 1.247 . S
C29 O37 1.258 . S
O30 C28 1.247 . S
O30 Zn31 2.028 . S
Zn31 O30 2.028 . S
Zn31 O35 2.035 . S
Zn31 O37 2.035 . S
Zn31 O38 2.028 . S
O32 C28 1.258 . S
O32 Zn33 2.035 . S
Zn33 O32 2.035 . S
Zn33 O34 2.028 . S
Zn33 O36 2.028 . S
Zn33 O39 2.035 . S
O34 Zn33 2.028 . S
O34 C40 1.247 . S
O35 Zn31 2.035 . S
O35 C40 1.258 . S
O36 C29 1.247 . S
O36 Zn33 2.028 . S
O37 C29 1.258 . S
O37 Zn31 2.035 . S
O38 Zn31 2.028 . S
O38 C41 1.247 . S
O39 Zn33 2.035 . S
O39 C41 1.258 . S
C40 O34 1.247 . S
C40 O35 1.258 . S
C41 O38 1.247 . S
C41 O39 1.258 . S
C42 O44 1.247 . S
C42 O46 1.258 . S
C43 O50 1.247 . S
C43 O51 1.258 . S
O44 C42 1.247 . S
O44 Zn45 2.028 . S
Zn45 O44 2.028 . S
Zn45 O49 2.035 . S
Zn45 O51 2.035 . S
Zn45 O52 2.028 . S
O46 C42 1.258 . S
O46 Zn47 2.035 . S
Zn47 O46 2.035 . S
Zn47 O48 2.028 . S
Zn47 O50 2.028 . S
Zn47 O53 2.035 . S
O48 Zn47 2.028 . S
O48 C54 1.247 . S
O49 Zn45 2.035 . S
O49 C54 1.258 . S
O50 C43 1.247 . S
O50 Zn47 2.028 . S
O51 C43 1.258 . S
O51 Zn45 2.035 . S
O52 Zn45 2.028 . S
O52 C55 1.247 . S
O53 Zn47 2.035 . S
O53 C55 1.258 . S
C54 O48 1.247 . S
C54 O49 1.258 . S
C55 O52 1.247 . S
C55 O53 1.258 . S
C56 O58 1.247 . S
C56 O60 1.258 . S
C57 O64 1.247 . S
C57 O65 1.258 . S
O58 C56 1.247 . S
O58 Zn59 2.028 . S
Zn59 O58 2.028 . S
Zn59 O63 2.035 . S
Zn59 O65 2.035 . S
Zn59 O66 2.028 . S
O60 C56 1.258 . S
O60 Zn61 2.035 . S
Zn61 O60 2.035 . S
Zn61 O62 2.028 . S
Zn61 O64 2.028 . S
Zn61 O67 2.035 . S
O62 Zn61 2.028 . S
O62 C68 1.247 . S
O63 Zn59 2.035 . S
O63 C68 1.258 . S
O64 C57 1.247 . S
O64 Zn61 2.028 . S
O65 C57 1.258 . S
O65 Zn59 2.035 . S
O66 Zn59 2.028 . S
O66 C69 1.247 . S
O67 Zn61 2.035 . S
O67 C69 1.258 . S
C68 O62 1.247 . S
C68 O63 1.258 . S
C69 O66 1.247 . S
C69 O67 1.258 . S
C70 O72 1.247 . S
C70 O74 1.258 . S
C71 O78 1.247 . S
C71 O79 1.258 . S
O72 C70 1.247 . S
O72 Zn73 2.028 . S
Zn73 O72 2.028 . S
Zn73 O77 2.035 . S
Zn73 O79 2.035 . S
Zn73 O80 2.028 . S
O74 C70 1.258 . S
O74 Zn75 2.035 . S
Zn75 O74 2.035 . S
Zn75 O76 2.028 . S
Zn75 O78 2.028 . S
Zn75 O81 2.035 . S
O76 Zn75 2.028 . S
O76 C82 1.247 . S
O77 Zn73 2.035 . S
O77 C82 1.258 . S
O78 C71 1.247 . S
O78 Zn75 2.028 . S
O79 C71 1.258 . S
O79 Zn73 2.035 . S
O80 Zn73 2.028 . S
O80 C83 1.247 . S
O81 Zn75 2.035 . S
O81 C83 1.258 . S
C82 O76 1.247 . S
C82 O77 1.258 . S
C83 O80 1.247 . S
C83 O81 1.258 . S
H84 C85 0.951 . S
C85 H84 0.951 . S
C85 C91 1.265 . S
H86 C91 0.950 . S
H87 C95 0.949 . S
H88 C96 0.935 1_655 S
H89 C97 0.951 . S
H90 C98 0.951 . S
C91 C85 1.265 . S
C91 H86 0.950 . S
C91 C92 1.478 . S
C92 C91 1.478 . S
C92 C93 1.397 . S
C92 C109 1.394 . S
C93 C92 1.397 . S
C93 C94 1.438 1_455 S
C93 C98 1.429 . S
C94 C93 1.438 1_655 S
C94 C95 1.428 . S
C94 C107 1.394 . S
C95 H87 0.949 . S
C95 C94 1.428 . S
C95 C96 1.345 1_655 S
C96 H88 0.935 1_455 S
C96 C95 1.345 1_455 S
C96 C97 1.424 . S
C97 H89 0.951 . S
C97 C96 1.424 . S
C97 C98 1.347 . S
C98 H90 0.951 . S
C98 C93 1.429 . S
C98 C97 1.347 . S
H99 C100 0.951 . S
C100 H99 0.951 . S
C100 C106 1.265 . S
H101 C106 0.950 . S
H102 C110 0.949 . S
H103 C111 0.935 1_455 S
H104 C112 0.951 . S
H105 C113 0.951 . S
C106 C100 1.265 . S
C106 H101 0.950 . S
C106 C107 1.478 . S
C107 C94 1.394 . S
C107 C106 1.478 . S
C107 C108 1.397 . S
C108 C107 1.397 . S
C108 C109 1.438 1_655 S
C108 C113 1.429 . S
C109 C92 1.394 . S
C109 C108 1.438 1_455 S
C109 C110 1.428 . S
C110 H102 0.949 . S
C110 C109 1.428 . S
C110 C111 1.345 1_455 S
C111 H103 0.935 1_655 S
C111 C110 1.345 1_655 S
C111 C112 1.424 . S
C112 H104 0.951 . S
C112 C111 1.424 . S
C112 C113 1.347 . S
C113 H105 0.951 . S
C113 C108 1.429 . S
C113 C112 1.347 . S
H114 C115 0.951 . S
C115 H114 0.951 . S
C115 C121 1.265 . S
H116 C121 0.950 . S
H117 C125 0.956 . S
H118 C126 0.950 . S
H119 C127 0.951 . S
H120 C128 0.951 . S
C121 C115 1.265 . S
C121 H116 0.950 . S
C121 C122 1.478 . S
C122 C121 1.478 . S
C122 C123 1.397 1_556 S
C122 C139 1.394 1_565 S
C123 C122 1.397 1_554 S
C123 C124 1.438 . S
C123 C128 1.429 . S
C124 C123 1.438 . S
C124 C125 1.428 . S
C124 C137 1.394 1_565 S
C125 H117 0.956 . S
C125 C124 1.428 . S
C125 C126 1.345 . S
C126 H118 0.950 . S
C126 C125 1.345 . S
C126 C127 1.424 . S
C127 H119 0.951 . S
C127 C126 1.424 . S
C127 C128 1.347 . S
C128 H120 0.951 . S
C128 C123 1.429 . S
C128 C127 1.347 . S
H129 C130 0.951 . S
C130 H129 0.951 . S
C130 C136 1.265 . S
H131 C136 0.950 . S
H132 C140 0.956 . S
H133 C141 0.950 . S
H134 C142 0.951 . S
H135 C143 0.951 . S
C136 C130 1.265 . S
C136 H131 0.950 . S
C136 C137 1.478 . S
C137 C124 1.394 1_545 S
C137 C136 1.478 . S
C137 C138 1.397 1_554 S
C138 C137 1.397 1_556 S
C138 C139 1.438 . S
C138 C143 1.429 . S
C139 C122 1.394 1_545 S
C139 C138 1.438 . S
C139 C140 1.428 . S
C140 H132 0.956 . S
C140 C139 1.428 . S
C140 C141 1.345 . S
C141 H133 0.950 . S
C141 C140 1.345 . S
C141 C142 1.424 . S
C142 H134 0.951 . S
C142 C141 1.424 . S
C142 C143 1.347 . S
C143 H135 0.951 . S
C143 C138 1.429 . S
C143 C142 1.347 . S
H144 C145 0.951 . S
C145 H144 0.951 . S
C145 C151 1.265 . S
H146 C151 0.950 . S
H147 C155 0.949 . S
H148 C156 0.950 . S
H149 C157 0.951 . S
H150 C158 0.951 . S
C151 C145 1.265 . S
C151 H146 0.950 . S
C151 C152 1.478 . S
C152 C151 1.478 . S
C152 C153 1.397 . S
C152 C169 1.394 . S
C153 C152 1.397 . S
C153 C154 1.438 . S
C153 C158 1.429 . S
C154 C153 1.438 . S
C154 C155 1.428 . S
C154 C167 1.394 . S
C155 H147 0.949 . S
C155 C154 1.428 . S
C155 C156 1.345 . S
C156 H148 0.950 . S
C156 C155 1.345 . S
C156 C157 1.424 . S
C157 H149 0.951 . S
C157 C156 1.424 . S
C157 C158 1.347 . S
C158 H150 0.951 . S
C158 C153 1.429 . S
C158 C157 1.347 . S
H159 C160 0.951 . S
C160 H159 0.951 . S
C160 C166 1.265 . S
H161 C166 0.950 . S
H162 C170 0.949 . S
H163 C171 0.950 . S
H164 C172 0.951 . S
H165 C173 0.951 . S
C166 C160 1.265 . S
C166 H161 0.950 . S
C166 C167 1.478 . S
C167 C154 1.394 . S
C167 C166 1.478 . S
C167 C168 1.397 . S
C168 C167 1.397 . S
C168 C169 1.438 . S
C168 C173 1.429 . S
C169 C152 1.394 . S
C169 C168 1.438 . S
C169 C170 1.428 . S
C170 H162 0.949 . S
C170 C169 1.428 . S
C170 C171 1.345 . S
C171 H163 0.950 . S
C171 C170 1.345 . S
C171 C172 1.424 . S
C172 H164 0.951 . S
C172 C171 1.424 . S
C172 C173 1.347 . S
C173 H165 0.951 . S
C173 C168 1.429 . S
C173 C172 1.347 . S
H174 C175 0.951 . S
C175 H174 0.951 . S
C175 C181 1.265 . S
H176 C181 0.950 . S
H177 C185 0.949 . S
H178 C186 0.950 . S
H179 C187 0.951 . S
H180 C188 0.951 . S
C181 C175 1.265 . S
C181 H176 0.950 . S
C181 C182 1.478 . S
C182 C181 1.478 . S
C182 C183 1.397 . S
C182 C199 1.394 . S
C183 C182 1.397 . S
C183 C184 1.438 1_655 S
C183 C188 1.429 . S
C184 C183 1.438 1_455 S
C184 C185 1.428 . S
C184 C197 1.394 . S
C185 H177 0.949 . S
C185 C184 1.428 . S
C185 C186 1.345 . S
C186 H178 0.950 . S
C186 C185 1.345 . S
C186 C187 1.424 1_455 S
C187 H179 0.951 . S
C187 C186 1.424 1_655 S
C187 C188 1.347 . S
C188 H180 0.951 . S
C188 C183 1.429 . S
C188 C187 1.347 . S
H189 C190 0.951 . S
C190 H189 0.951 . S
C190 C196 1.265 . S
H191 C196 0.950 . S
H192 C200 0.949 . S
H193 C201 0.950 . S
H194 C202 0.951 . S
H195 C203 0.951 . S
C196 C190 1.265 . S
C196 H191 0.950 . S
C196 C197 1.478 . S
C197 C184 1.394 . S
C197 C196 1.478 . S
C197 C198 1.397 . S
C198 C197 1.397 . S
C198 C199 1.438 1_455 S
C198 C203 1.429 . S
C199 C182 1.394 . S
C199 C198 1.438 1_655 S
C199 C200 1.428 . S
C200 H192 0.949 . S
C200 C199 1.428 . S
C200 C201 1.345 . S
C201 H193 0.950 . S
C201 C200 1.345 . S
C201 C202 1.424 1_655 S
C202 H194 0.951 . S
C202 C201 1.424 1_455 S
C202 C203 1.347 . S
C203 H195 0.951 . S
C203 C198 1.429 . S
C203 C202 1.347 . S
H204 C205 0.951 . S
C205 H204 0.951 . S
C205 C211 1.265 . S
H206 C211 0.950 . S
H207 C215 0.949 1_565 S
H208 C216 0.950 . S
H209 C217 0.951 . S
H210 C218 0.951 . S
C211 C205 1.265 . S
C211 H206 0.950 . S
C211 C212 1.478 . S
C212 C211 1.478 . S
C212 C213 1.397 . S
C212 C229 1.394 1_545 S
C213 C212 1.397 . S
C213 C214 1.438 . S
C213 C218 1.429 . S
C214 C213 1.438 . S
C214 C215 1.428 . S
C214 C227 1.394 1_545 S
C215 H207 0.949 1_545 S
C215 C214 1.428 . S
C215 C216 1.345 . S
C216 H208 0.950 . S
C216 C215 1.345 . S
C216 C217 1.424 . S
C217 H209 0.951 . S
C217 C216 1.424 . S
C217 C218 1.347 . S
C218 H210 0.951 . S
C218 C213 1.429 . S
C218 C217 1.347 . S
H219 C220 0.951 . S
C220 H219 0.951 . S
C220 C226 1.265 . S
H221 C226 0.950 . S
H222 C230 0.949 1_545 S
H223 C231 0.950 . S
H224 C232 0.951 . S
H225 C233 0.951 . S
C226 C220 1.265 . S
C226 H221 0.950 . S
C226 C227 1.478 . S
C227 C214 1.394 1_565 S
C227 C226 1.478 . S
C227 C228 1.397 . S
C228 C227 1.397 . S
C228 C229 1.438 . S
C228 C233 1.429 . S
C229 C212 1.394 1_565 S
C229 C228 1.438 . S
C229 C230 1.428 . S
C230 H222 0.949 1_565 S
C230 C229 1.428 . S
C230 C231 1.345 . S
C231 H223 0.950 . S
C231 C230 1.345 . S
C231 C232 1.424 . S
C232 H224 0.951 . S
C232 C231 1.424 . S
C232 C233 1.347 . S
C233 H225 0.951 . S
C233 C228 1.429 . S
C233 C232 1.347 . S
H234 C235 0.951 . S
C235 H234 0.951 . S
C235 C241 1.265 . S
H236 C241 0.950 . S
H237 C245 0.949 . S
H238 C246 0.950 . S
H239 C247 0.951 . S
H240 C248 0.951 . S
C241 C235 1.265 . S
C241 H236 0.950 . S
C241 C242 1.478 . S
C242 C241 1.478 . S
C242 C243 1.397 . S
C242 C259 1.394 . S
C243 C242 1.397 . S
C243 C244 1.438 . S
C243 C248 1.429 . S
C244 C243 1.438 . S
C244 C245 1.428 . S
C244 C257 1.394 . S
C245 H237 0.949 . S
C245 C244 1.428 . S
C245 C246 1.345 . S
C246 H238 0.950 . S
C246 C245 1.345 . S
C246 C247 1.424 . S
C247 H239 0.951 . S
C247 C246 1.424 . S
C247 C248 1.347 . S
C248 H240 0.951 . S
C248 C243 1.429 . S
C248 C247 1.347 . S
H249 C250 0.951 . S
C250 H249 0.951 . S
C250 C256 1.265 . S
H251 C256 0.950 . S
H252 C260 0.949 . S
H253 C261 0.950 . S
H254 C262 0.951 . S
H255 C263 0.951 . S
C256 C250 1.265 . S
C256 H251 0.950 . S
C256 C257 1.478 . S
C257 C244 1.394 . S
C257 C256 1.478 . S
C257 C258 1.397 . S
C258 C257 1.397 . S
C258 C259 1.438 . S
C258 C263 1.429 . S
C259 C242 1.394 . S
C259 C258 1.438 . S
C259 C260 1.428 . S
C260 H252 0.949 . S
C260 C259 1.428 . S
C260 C261 1.345 . S
C261 H253 0.950 . S
C261 C260 1.345 . S
C261 C262 1.424 . S
C262 H254 0.951 . S
C262 C261 1.424 . S
C262 C263 1.347 . S
C263 H255 0.951 . S
C263 C258 1.429 . S
C263 C262 1.347 . S
H264 C265 0.951 . S
C265 H264 0.951 . S
C265 C271 1.265 . S
H266 C271 0.950 . S
H267 C275 0.949 . S
H268 C276 0.950 . S
H269 C277 0.951 . S
H270 C278 0.951 . S
C271 C265 1.265 . S
C271 H266 0.950 . S
C271 C272 1.478 . S
C272 C271 1.478 . S
C272 C273 1.397 . S
C272 C289 1.394 . S
C273 C272 1.397 . S
C273 C274 1.438 . S
C273 C278 1.429 . S
C274 C273 1.438 . S
C274 C275 1.428 . S
C274 C287 1.394 . S
C275 H267 0.949 . S
C275 C274 1.428 . S
C275 C276 1.345 . S
C276 H268 0.950 . S
C276 C275 1.345 . S
C276 C277 1.424 . S
C277 H269 0.951 . S
C277 C276 1.424 . S
C277 C278 1.347 . S
C278 H270 0.951 . S
C278 C273 1.429 . S
C278 C277 1.347 . S
H279 C280 0.951 . S
C280 H279 0.951 . S
C280 C286 1.265 . S
H281 C286 0.950 . S
H282 C290 0.949 . S
H283 C291 0.950 . S
H284 C292 0.951 . S
H285 C293 0.951 . S
C286 C280 1.265 . S
C286 H281 0.950 . S
C286 C287 1.478 . S
C287 C274 1.394 . S
C287 C286 1.478 . S
C287 C288 1.397 . S
C288 C287 1.397 . S
C288 C289 1.438 . S
C288 C293 1.429 . S
C289 C272 1.394 . S
C289 C288 1.438 . S
C289 C290 1.428 . S
C290 H282 0.949 . S
C290 C289 1.428 . S
C290 C291 1.345 . S
C291 H283 0.950 . S
C291 C290 1.345 . S
C291 C292 1.424 . S
C292 H284 0.951 . S
C292 C291 1.424 . S
C292 C293 1.347 . S
C293 H285 0.951 . S
C293 C288 1.429 . S
C293 C292 1.347 . S
H294 C295 0.951 . S
C295 H294 0.951 . S
C295 C301 1.265 . S
H296 C301 0.950 . S
H297 C305 0.949 . S
H298 C306 0.950 . S
H299 C307 0.951 . S
H300 C308 0.951 . S
C301 C295 1.265 . S
C301 H296 0.950 . S
C301 C302 1.478 . S
C302 C301 1.478 . S
C302 C303 1.397 . S
C302 C319 1.394 . S
C303 C302 1.397 . S
C303 C304 1.438 . S
C303 C308 1.429 . S
C304 C303 1.438 . S
C304 C305 1.428 . S
C304 C317 1.394 . S
C305 H297 0.949 . S
C305 C304 1.428 . S
C305 C306 1.345 . S
C306 H298 0.950 . S
C306 C305 1.345 . S
C306 C307 1.424 . S
C307 H299 0.951 . S
C307 C306 1.424 . S
C307 C308 1.347 . S
C308 H300 0.951 . S
C308 C303 1.429 . S
C308 C307 1.347 . S
H309 C310 0.951 . S
C310 H309 0.951 . S
C310 C316 1.265 . S
H311 C316 0.950 . S
H312 C320 0.949 . S
H313 C321 0.950 . S
H314 C322 0.951 . S
H315 C323 0.951 . S
C316 C310 1.265 . S
C316 H311 0.950 . S
C316 C317 1.478 . S
C317 C304 1.394 . S
C317 C316 1.478 . S
C317 C318 1.397 . S
C318 C317 1.397 . S
C318 C319 1.438 . S
C318 C323 1.429 . S
C319 C302 1.394 . S
C319 C318 1.438 . S
C319 C320 1.428 . S
C320 H312 0.949 . S
C320 C319 1.428 . S
C320 C321 1.345 . S
C321 H313 0.950 . S
C321 C320 1.345 . S
C321 C322 1.424 . S
C322 H314 0.951 . S
C322 C321 1.424 . S
C322 C323 1.347 . S
C323 H315 0.951 . S
C323 C318 1.429 . S
C323 C322 1.347 . S
H324 C325 0.951 . S
C325 H324 0.951 . S
C325 C331 1.265 . S
H326 C331 0.950 . S
H327 C335 0.949 . S
H328 C336 0.950 . S
H329 C337 0.951 . S
H330 C338 0.951 . S
C331 C325 1.265 . S
C331 H326 0.950 . S
C331 C332 1.478 . S
C332 C331 1.478 . S
C332 C333 1.397 . S
C332 C349 1.394 . S
C333 C332 1.397 . S
C333 C334 1.438 . S
C333 C338 1.429 . S
C334 C333 1.438 . S
C334 C335 1.428 . S
C334 C347 1.394 . S
C335 H327 0.949 . S
C335 C334 1.428 . S
C335 C336 1.345 . S
C336 H328 0.950 . S
C336 C335 1.345 . S
C336 C337 1.424 . S
C337 H329 0.951 . S
C337 C336 1.424 . S
C337 C338 1.347 . S
C338 H330 0.951 . S
C338 C333 1.429 . S
C338 C337 1.347 . S
H339 C340 0.951 . S
C340 H339 0.951 . S
C340 C346 1.265 . S
H341 C346 0.950 . S
H342 C350 0.949 . S
H343 C351 0.950 . S
H344 C352 0.951 . S
H345 C353 0.951 . S
C346 C340 1.265 . S
C346 H341 0.950 . S
C346 C347 1.478 . S
C347 C334 1.394 . S
C347 C346 1.478 . S
C347 C348 1.397 . S
C348 C347 1.397 . S
C348 C349 1.438 . S
C348 C353 1.429 . S
C349 C332 1.394 . S
C349 C348 1.438 . S
C349 C350 1.428 . S
C350 H342 0.949 . S
C350 C349 1.428 . S
C350 C351 1.345 . S
C351 H343 0.950 . S
C351 C350 1.345 . S
C351 C352 1.424 . S
C352 H344 0.951 . S
C352 C351 1.424 . S
C352 C353 1.347 . S
C353 H345 0.951 . S
C353 C348 1.429 . S
C353 C352 1.347 . S
H354 C355 0.951 . S
C355 H354 0.951 . S
C355 C361 1.265 . S
H356 C361 0.950 . S
H357 C365 0.949 . S
H358 C366 0.950 . S
H359 C367 0.951 . S
H360 C368 0.951 . S
C361 C355 1.265 . S
C361 H356 0.950 . S
C361 C362 1.478 . S
C362 C361 1.478 . S
C362 C363 1.397 . S
C362 C379 1.394 . S
C363 C362 1.397 . S
C363 C364 1.438 . S
C363 C368 1.429 . S
C364 C363 1.438 . S
C364 C365 1.428 . S
C364 C377 1.394 . S
C365 H357 0.949 . S
C365 C364 1.428 . S
C365 C366 1.345 . S
C366 H358 0.950 . S
C366 C365 1.345 . S
C366 C367 1.424 . S
C367 H359 0.951 . S
C367 C366 1.424 . S
C367 C368 1.347 . S
C368 H360 0.951 . S
C368 C363 1.429 . S
C368 C367 1.347 . S
H369 C370 0.951 . S
C370 H369 0.951 . S
C370 C376 1.265 . S
H371 C376 0.950 . S
H372 C380 0.949 . S
H373 C381 0.950 . S
H374 C382 0.951 . S
H375 C383 0.951 . S
C376 C370 1.265 . S
C376 H371 0.950 . S
C376 C377 1.478 . S
C377 C364 1.394 . S
C377 C376 1.478 . S
C377 C378 1.397 . S
C378 C377 1.397 . S
C378 C379 1.438 . S
C378 C383 1.429 . S
C379 C362 1.394 . S
C379 C378 1.438 . S
C379 C380 1.428 . S
C380 H372 0.949 . S
C380 C379 1.428 . S
C380 C381 1.345 . S
C381 H373 0.950 . S
C381 C380 1.345 . S
C381 C382 1.424 . S
C382 H374 0.951 . S
C382 C381 1.424 . S
C382 C383 1.347 . S
C383 H375 0.951 . S
C383 C378 1.429 . S
C383 C382 1.347 . S
H384 C385 0.951 . S
C385 H384 0.951 . S
C385 C391 1.265 . S
H386 C391 0.950 . S
H387 C395 0.949 . S
H388 C396 0.950 . S
H389 C397 0.951 . S
H390 C398 0.951 1_556 S
C391 C385 1.265 . S
C391 H386 0.950 . S
C391 C392 1.478 . S
C392 C391 1.478 . S
C392 C393 1.397 . S
C392 C409 1.394 . S
C393 C392 1.397 . S
C393 C394 1.438 . S
C393 C398 1.429 1_556 S
C394 C393 1.438 . S
C394 C395 1.428 1_556 S
C394 C407 1.394 . S
C395 H387 0.949 . S
C395 C394 1.428 1_554 S
C395 C396 1.345 . S
C396 H388 0.950 . S
C396 C395 1.345 . S
C396 C397 1.424 . S
C397 H389 0.951 . S
C397 C396 1.424 . S
C397 C398 1.347 . S
C398 H390 0.951 1_554 S
C398 C393 1.429 1_554 S
C398 C397 1.347 . S
H399 C400 0.951 1_554 S
C400 H399 0.951 1_556 S
C400 C406 1.265 . S
H401 C406 0.950 . S
H402 C410 0.949 . S
H403 C411 0.950 . S
H404 C412 0.951 . S
H405 C413 0.951 . S
C406 C400 1.265 . S
C406 H401 0.950 . S
C406 C407 1.478 . S
C407 C394 1.394 . S
C407 C406 1.478 . S
C407 C408 1.397 . S
C408 C407 1.397 . S
C408 C409 1.438 . S
C408 C413 1.429 . S
C409 C392 1.394 . S
C409 C408 1.438 . S
C409 C410 1.428 . S
C410 H402 0.949 . S
C410 C409 1.428 . S
C410 C411 1.345 . S
C411 H403 0.950 . S
C411 C410 1.345 . S
C411 C412 1.424 . S
C412 H404 0.951 . S
C412 C411 1.424 . S
C412 C413 1.347 . S
C413 H405 0.951 . S
C413 C408 1.429 . S
C413 C412 1.347 . S
H414 C415 0.951 1_556 S
C415 H414 0.951 1_554 S
C415 C421 1.265 . S
H416 C421 0.950 . S
H417 C425 0.949 . S
H418 C426 0.950 . S
H419 C427 0.951 . S
H420 C428 0.951 . S
C421 C415 1.265 . S
C421 H416 0.950 . S
C421 C422 1.478 . S
C422 C421 1.478 . S
C422 C423 1.397 . S
C422 C439 1.394 . S
C423 C422 1.397 . S
C423 C424 1.438 . S
C423 C428 1.429 . S
C424 C423 1.438 . S
C424 C425 1.428 . S
C424 C437 1.394 . S
C425 H417 0.949 . S
C425 C424 1.428 . S
C425 C426 1.345 . S
C426 H418 0.950 . S
C426 C425 1.345 . S
C426 C427 1.424 . S
C427 H419 0.951 . S
C427 C426 1.424 . S
C427 C428 1.347 . S
C428 H420 0.951 . S
C428 C423 1.429 . S
C428 C427 1.347 . S
H429 C430 0.951 . S
C430 H429 0.951 . S
C430 C436 1.265 . S
H431 C436 0.950 . S
H432 C440 0.949 . S
H433 C441 0.950 . S
H434 C442 0.951 . S
H435 C443 0.951 . S
C436 C430 1.265 . S
C436 H431 0.950 . S
C436 C437 1.478 . S
C437 C424 1.394 . S
C437 C436 1.478 . S
C437 C438 1.397 . S
C438 C437 1.397 . S
C438 C439 1.438 . S
C438 C443 1.429 . S
C439 C422 1.394 . S
C439 C438 1.438 . S
C439 C440 1.428 . S
C440 H432 0.949 . S
C440 C439 1.428 . S
C440 C441 1.345 . S
C441 H433 0.950 . S
C441 C440 1.345 . S
C441 C442 1.424 . S
C442 H434 0.951 . S
C442 C441 1.424 . S
C442 C443 1.347 . S
C443 H435 0.951 . S
C443 C438 1.429 . S
C443 C442 1.347 . S
C85 C13 1.799 1_556 S
C100 C54 1.817 . S
C115 C68 1.807 . S
C130 C26 1.837 . S
C145 C28 1.811 . S
C160 C83 1.800 1_554 S
C175 C43 1.800 . S
C190 C0 1.811 . S
C205 C15 1.806 . S
C220 C57 1.835 . S
C235 C70 1.813 . S
C250 C41 1.799 . S
C265 C12 1.592 . S
C280 C40 1.584 . S
C295 C27 1.589 . S
C310 C55 1.625 . S
C325 C69 1.596 . S
C340 C29 1.630 . S
C355 C82 1.625 . S
C370 C42 1.622 . S
C385 C56 1.580 . S
C400 C1 1.614 1_556 S
C415 C71 1.608 1_554 S
C430 C14 1.579 . S
