# Generated by pormake.
# Topology tsi, (8)-cn, num edge types: 1
# Building blocks:
#     Node 0, Type 0, BuildingBlock: TAGTUT_clean_sbu_1, # of connection points: 8
#     Node 1, Type 0, BuildingBlock: TAGTUT_clean_sbu_1, # of connection points: 8
#     Node 2, Type 0, BuildingBlock: TAGTUT_clean_sbu_1, # of connection points: 8
#     Node 3, Type 0, BuildingBlock: TAGTUT_clean_sbu_1, # of connection points: 8
#     Edge 4, Type (0, 0), BuildingBlock: ZUJKAS_clean_linker_0, # of connection points: 2
#     Edge 5, Type (0, 0), BuildingBlock: ZUJKAS_clean_linker_0, # of connection points: 2
#     Edge 6, Type (0, 0), BuildingBlock: ZUJKAS_clean_linker_0, # of connection points: 2
#     Edge 7, Type (0, 0), BuildingBlock: ZUJKAS_clean_linker_0, # of connection points: 2
#     Edge 8, Type (0, 0), BuildingBlock: ZUJKAS_clean_linker_0, # of connection points: 2
#     Edge 9, Type (0, 0), BuildingBlock: ZUJKAS_clean_linker_0, # of connection points: 2
#     Edge 10, Type (0, 0), BuildingBlock: ZUJKAS_clean_linker_0, # of connection points: 2
#     Edge 11, Type (0, 0), BuildingBlock: ZUJKAS_clean_linker_0, # of connection points: 2
#     Edge 12, Type (0, 0), BuildingBlock: ZUJKAS_clean_linker_0, # of connection points: 2
#     Edge 13, Type (0, 0), BuildingBlock: ZUJKAS_clean_linker_0, # of connection points: 2
#     Edge 14, Type (0, 0), BuildingBlock: ZUJKAS_clean_linker_0, # of connection points: 2
#     Edge 15, Type (0, 0), BuildingBlock: ZUJKAS_clean_linker_0, # of connection points: 2
#     Edge 16, Type (0, 0), BuildingBlock: ZUJKAS_clean_linker_0, # of connection points: 2
#     Edge 17, Type (0, 0), BuildingBlock: ZUJKAS_clean_linker_0, # of connection points: 2
#     Edge 18, Type (0, 0), BuildingBlock: ZUJKAS_clean_linker_0, # of connection points: 2
#     Edge 19, Type (0, 0), BuildingBlock: ZUJKAS_clean_linker_0, # of connection points: 2
# Relax obj value: 0.133
# Max RMSD: 0.247
# Mean RMSD: 0.247
data_MOF--net-tsi--node1-TAGTUT_clean_sbu_1--edge1-ZUJKAS_clean_linker_0
_symmetry_space_group_name_H-M    P1
_symmetry_Int_Tables_number       1
_symmetry_cell_setting            triclinic
loop_
_symmetry_equiv_pos_as_xyz
'x, y, z'
_cell_length_a     19.687542
_cell_length_b     20.344871
_cell_length_c     81.385952
_cell_angle_alpha  93.269195
_cell_angle_beta   91.846236
_cell_angle_gamma 110.9585
loop_
_atom_site_label
_atom_site_type_symbol
_atom_site_fract_x
_atom_site_fract_y
_atom_site_fract_z
_atom_type_partial_charge
C0 C 0.03733 0.21425 0.42883 0.0
C1 C 0.00043 0.39743 0.41604 0.0
C2 C 0.86551 0.2279 0.3597 0.0
Mg3 Mg 0.11613 0.33533 0.40672 0.0
O4 O 0.04924 0.27505 0.39091 0.0
Mg5 Mg 0.94367 0.23495 0.3954 0.0
Mg6 Mg 0.0404 0.29858 0.36783 0.0
O7 O 0.0305 0.31846 0.34458 0.0
Mg8 Mg 0.97418 0.23874 0.33102 0.0
Mg9 Mg 0.13509 0.36475 0.33969 0.0
C10 C 0.21825 0.35803 0.37604 0.0
C11 C 0.09183 0.46915 0.36569 0.0
O12 O 0.97927 0.20133 0.41962 0.0
O13 O 0.09829 0.26188 0.42591 0.0
O14 O 0.95091 0.33969 0.41006 0.0
O15 O 0.06805 0.4103 0.41415 0.0
O16 O 0.21159 0.36303 0.3917 0.0
O17 O 0.16255 0.33358 0.36577 0.0
C18 C 0.98263 0.12763 0.36945 0.0
O19 O 0.02267 0.18054 0.36194 0.0
O20 O 0.94619 0.13561 0.38167 0.0
O21 O 0.08823 0.3867 0.31422 0.0
O22 O 0.97739 0.29922 0.31063 0.0
O23 O 0.14093 0.26588 0.3263 0.0
C24 C 0.02682 0.35436 0.30603 0.0
O25 O 0.03622 0.17446 0.32334 0.0
O26 O 0.87565 0.20828 0.34495 0.0
C27 C 0.10419 0.20236 0.32104 0.0
O28 O 0.91875 0.26617 0.36965 0.0
O29 O 0.05684 0.41633 0.37384 0.0
O30 O 0.12516 0.46174 0.35288 0.0
C31 C 0.97108 0.6592 0.69 0.0
C32 C 0.89407 0.80859 0.67335 0.0
C33 C 0.78479 0.64951 0.6188 0.0
Mg34 Mg 0.02512 0.77269 0.66451 0.0
O35 O 0.97074 0.6915 0.65113 0.0
Mg36 Mg 0.86576 0.64489 0.65564 0.0
Mg37 Mg 0.96236 0.70982 0.62771 0.0
O38 O 0.9549 0.7317 0.60443 0.0
Mg39 Mg 0.88951 0.66921 0.58868 0.0
Mg40 Mg 0.06093 0.7712 0.60037 0.0
C41 C 0.13658 0.78168 0.63657 0.0
C42 C 0.01955 0.88025 0.62535 0.0
O43 O 0.91102 0.62491 0.68147 0.0
O44 O 0.02014 0.71468 0.68542 0.0
O45 O 0.85855 0.74438 0.66844 0.0
O46 O 0.962 0.83719 0.67109 0.0
O47 O 0.1251 0.80226 0.65112 0.0
O48 O 0.08424 0.74273 0.62649 0.0
C49 C 0.91159 0.53964 0.63042 0.0
O50 O 0.94681 0.59214 0.62221 0.0
O51 O 0.87731 0.54742 0.64304 0.0
O52 O 0.02733 0.80162 0.57556 0.0
O53 O 0.90908 0.73944 0.56878 0.0
O54 O 0.05509 0.66523 0.58657 0.0
C55 C 0.97025 0.78688 0.56591 0.0
O56 O 0.93836 0.5935 0.58251 0.0
O57 O 0.79256 0.64349 0.60319 0.0
C58 C 0.00619 0.6066 0.58086 0.0
O59 O 0.83995 0.67399 0.62921 0.0
O60 O 0.97937 0.8279 0.633 0.0
O61 O 0.05676 0.87153 0.61334 0.0
C62 C 0.52823 0.71698 0.9295 0.0
C63 C 0.49067 0.89585 0.91435 0.0
C64 C 0.35575 0.71628 0.85948 0.0
Mg65 Mg 0.6066 0.83273 0.90613 0.0
O66 O 0.53989 0.7691 0.8908 0.0
Mg67 Mg 0.43435 0.73027 0.89537 0.0
Mg68 Mg 0.53035 0.78918 0.86747 0.0
O69 O 0.51979 0.80578 0.844 0.0
Mg70 Mg 0.46451 0.72367 0.83102 0.0
Mg71 Mg 0.62417 0.85209 0.83898 0.0
C72 C 0.70833 0.85005 0.87553 0.0
C73 C 0.58072 0.95895 0.86422 0.0
O74 O 0.4702 0.702 0.92017 0.0
O75 O 0.58924 0.76355 0.9262 0.0
O76 O 0.44128 0.83709 0.9089 0.0
O77 O 0.55824 0.90869 0.9124 0.0
O78 O 0.70199 0.85767 0.89115 0.0
O79 O 0.65242 0.82425 0.86536 0.0
C80 C 0.47348 0.61922 0.87053 0.0
O81 O 0.51275 0.67082 0.86253 0.0
O82 O 0.43751 0.62899 0.88268 0.0
O83 O 0.57629 0.87022 0.81325 0.0
O84 O 0.46706 0.78025 0.80996 0.0
O85 O 0.63084 0.75216 0.82637 0.0
C86 C 0.51546 0.83539 0.80506 0.0
O87 O 0.52746 0.65918 0.82426 0.0
O88 O 0.36597 0.69448 0.84493 0.0
C89 C 0.59512 0.68769 0.82172 0.0
O90 O 0.40882 0.75656 0.8692 0.0
O91 O 0.54646 0.90705 0.87269 0.0
O92 O 0.61363 0.95033 0.85144 0.0
C93 C 0.49058 0.16593 0.18919 0.0
C94 C 0.40938 0.31274 0.17243 0.0
C95 C 0.29488 0.1495 0.11897 0.0
Mg96 Mg 0.54014 0.27672 0.16302 0.0
O97 O 0.48459 0.19426 0.15019 0.0
Mg98 Mg 0.38041 0.14811 0.15542 0.0
Mg99 Mg 0.47316 0.21035 0.12672 0.0
O100 O 0.46263 0.23005 0.1034 0.0
Mg101 Mg 0.39514 0.167 0.08811 0.0
Mg102 Mg 0.56778 0.26937 0.09858 0.0
C103 C 0.64789 0.28361 0.13432 0.0
C104 C 0.52956 0.38025 0.12364 0.0
O105 O 0.4292 0.13122 0.18119 0.0
O106 O 0.53889 0.22066 0.1841 0.0
O107 O 0.37359 0.24823 0.16785 0.0
O108 O 0.4771 0.34108 0.16993 0.0
O109 O 0.63796 0.30571 0.14886 0.0
O110 O 0.59471 0.24304 0.12467 0.0
C111 C 0.42336 0.04081 0.13019 0.0
O112 O 0.45706 0.09246 0.12159 0.0
O113 O 0.39102 0.04971 0.14305 0.0
O114 O 0.53067 0.29802 0.07395 0.0
O115 O 0.41137 0.2368 0.0682 0.0
O116 O 0.56041 0.16275 0.08487 0.0
C117 C 0.47218 0.2834 0.06479 0.0
O118 O 0.44334 0.09129 0.08144 0.0
O119 O 0.30048 0.14201 0.10332 0.0
C120 C 0.51084 0.10416 0.07937 0.0
O121 O 0.35124 0.17489 0.12902 0.0
O122 O 0.49055 0.32861 0.13165 0.0
O123 O 0.56514 0.37054 0.11141 0.0
H124 H 0.87875 0.3577 0.43394 0.0
H125 H 0.87738 0.39641 0.4628 0.0
H126 H 0.08355 0.5652 0.4591 0.0
H127 H 0.085 0.52761 0.4302 0.0
H128 H 0.98852 0.38698 0.48338 0.0
H129 H 0.98012 0.65665 0.49028 0.0
H130 H 0.95104 0.60123 0.47132 0.0
H131 H 0.04634 0.64875 0.47642 0.0
C132 C 0.92204 0.40531 0.43896 0.0
C133 C 0.98292 0.43854 0.42982 0.0
C134 C 0.92151 0.42689 0.45557 0.0
C135 C 0.98093 0.4829 0.46318 0.0
C136 C 0.03694 0.52197 0.4535 0.0
H137 H 0.12919 0.6448 0.56338 0.0
H138 H 0.13146 0.6049 0.53466 0.0
C139 C 0.0376 0.50039 0.43691 0.0
C140 C 0.99043 0.49289 0.48143 0.0
H141 H 0.02024 0.61448 0.51407 0.0
C142 C -0.00521 0.43655 0.49012 0.0
C143 C -0.00026 0.55781 0.49017 0.0
C144 C -0.00656 0.61939 0.4816 0.0
C145 C 0.00902 0.44365 0.50728 0.0
C146 C 0.01836 0.50858 0.51601 0.0
C147 C 0.014 0.56491 0.50733 0.0
C148 C 0.02775 0.51862 0.53426 0.0
C149 C 0.01521 0.38207 0.51587 0.0
C150 C 0.97147 0.47989 0.54392 0.0
C151 C 0.9703 0.50216 0.56044 0.0
C152 C 0.02466 0.56441 0.56746 0.0
C153 C 0.08603 0.59701 0.5584 0.0
C154 C 0.08709 0.57473 0.54187 0.0
H155 H 0.02839 0.3447 0.50719 0.0
H156 H 0.05766 0.40022 0.52614 0.0
H157 H 0.96232 0.35285 0.52107 0.0
H158 H 0.92496 0.43654 0.53833 0.0
H159 H 0.92259 0.47531 0.56711 0.0
H160 H 0.52318 0.60973 0.79395 0.0
H161 H 0.57601 0.6263 0.76712 0.0
H162 H 0.79031 0.72579 0.79101 0.0
H163 H 0.73794 0.70825 0.81783 0.0
H164 H 0.63909 0.76466 0.76065 0.0
H165 H 0.8362 0.63113 0.75023 0.0
H166 H 0.76771 0.60408 0.76523 0.0
H167 H 0.85084 0.67836 0.7701 0.0
C168 C 0.58198 0.63072 0.79355 0.0
C169 C 0.62629 0.65897 0.80803 0.0
C170 C 0.61209 0.64131 0.77813 0.0
C171 C 0.68698 0.67859 0.77702 0.0
C172 C 0.73246 0.69663 0.79148 0.0
H173 H 0.96458 0.88591 0.70134 0.0
H174 H 0.91065 0.86813 0.72804 0.0
C175 C 0.7024 0.68602 0.80688 0.0
C176 C 0.71508 0.7103 0.76144 0.0
H177 H 0.84753 0.72888 0.73417 0.0
C178 C 0.6842 0.7562 0.75475 0.0
C179 C 0.77472 0.7004 0.75391 0.0
C180 C 0.80887 0.6503 0.76015 0.0
C181 C 0.71184 0.79307 0.7409 0.0
C182 C 0.77158 0.78327 0.73339 0.0
C183 C 0.80238 0.73729 0.74006 0.0
C184 C 0.80012 0.81547 0.7179 0.0
C185 C 0.67768 0.84312 0.73464 0.0
C186 C 0.7552 0.79758 0.70335 0.0
C187 C 0.78588 0.80886 0.68802 0.0
C188 C 0.86209 0.83645 0.68703 0.0
C189 C 0.90574 0.8645 0.70162 0.0
C190 C 0.87502 0.85322 0.71695 0.0
H191 H 0.64971 0.86181 0.7445 0.0
H192 H 0.71898 0.88965 0.7297 0.0
H193 H 0.63628 0.81523 0.72457 0.0
H194 H 0.69736 0.76809 0.70369 0.0
H195 H 0.7508 0.78682 0.677 0.0
H196 H 0.6402 0.71292 0.95 0.0
H197 H 0.63028 0.63848 0.97316 0.0
H198 H 0.39631 0.55681 0.96546 0.0
H199 H 0.40526 0.62987 0.94239 0.0
H200 H 0.55032 0.63131 0.00243 0.0
H201 H 0.45132 0.37896 0.9633 0.0
H202 H 0.49435 0.46348 0.95498 0.0
H203 H 0.40064 0.43554 0.96013 0.0
C204 C 0.58668 0.67935 0.9533 0.0
C205 C 0.52363 0.67667 0.94422 0.0
C206 C 0.58114 0.63689 0.96648 0.0
C207 C 0.51265 0.59127 0.97071 0.0
C208 C 0.44969 0.59051 0.96209 0.0
H209 H 0.35923 0.28726 0.04458 0.0
H210 H 0.36779 0.36234 0.0216 0.0
C211 C 0.45507 0.63257 0.94895 0.0
C212 C 0.50637 0.54411 0.98413 0.0
H213 H 0.44692 0.37046 0.99224 0.0
C214 C 0.52815 0.5743 0.00023 0.0
C215 C 0.47692 0.46984 0.98113 0.0
C216 C 0.455 0.43484 0.96394 0.0
C217 C 0.52022 0.53192 0.01355 0.0
C218 C 0.49091 0.45765 0.01054 0.0
C219 C 0.46901 0.42748 0.99444 0.0
C220 C 0.48537 0.41047 0.02393 0.0
C221 C 0.54217 0.56692 0.03074 0.0
C222 C 0.54875 0.41158 0.03241 0.0
C223 C 0.54415 0.36912 0.04545 0.0
C224 C 0.47596 0.32427 0.0502 0.0
C225 C 0.41248 0.32138 0.04127 0.0
C226 C 0.41723 0.36422 0.02818 0.0
H227 H 0.54533 0.62265 0.03139 0.0
H228 H 0.50313 0.538 0.03972 0.0
H229 H 0.59678 0.5667 0.03448 0.0
H230 H 0.60187 0.44575 0.02902 0.0
H231 H 0.59427 0.37206 0.0519 0.0
H232 H 0.05238 0.31102 0.27581 0.0
H233 H 0.95757 0.28065 0.25359 0.0
H234 H 0.85539 0.40812 0.27949 0.0
H235 H 0.95058 0.43894 0.30152 0.0
H236 H 0.82258 0.20364 0.26498 0.0
H237 H 0.80388 0.42696 0.23153 0.0
H238 H 0.88714 0.43008 0.24214 0.0
H239 H 0.81659 0.44521 0.25348 0.0
C240 C 0.01303 0.33708 0.27609 0.0
C241 C 0.00867 0.37736 0.29033 0.0
C242 C 0.95792 0.31852 0.26354 0.0
C243 C 0.8987 0.34116 0.26501 0.0
C244 C 0.90074 0.39046 0.27799 0.0
H245 H 0.46695 0.21404 0.21913 0.0
H246 H 0.56229 0.24696 0.2413 0.0
C247 C 0.95591 0.40896 0.29052 0.0
C248 C 0.82905 0.3023 0.25542 0.0
H249 H 0.69697 0.32304 0.23043 0.0
C250 C 0.79541 0.2296 0.25728 0.0
C251 C 0.79304 0.33643 0.24568 0.0
C252 C 0.82724 0.41386 0.24295 0.0
C253 C 0.72645 0.19027 0.24976 0.0
C254 C 0.6905 0.22433 0.23998 0.0
C255 C 0.72412 0.29707 0.23814 0.0
C256 C 0.62099 0.18528 0.23034 0.0
C257 C 0.6922 0.11294 0.2526 0.0
C258 C 0.6188 0.13472 0.21764 0.0
C259 C 0.56329 0.11468 0.20517 0.0
C260 C 0.51026 0.14594 0.20512 0.0
C261 C 0.50641 0.1881 0.21907 0.0
C262 C 0.56182 0.20813 0.23157 0.0
H263 H 0.71474 0.10039 0.2642 0.0
H264 H 0.63216 0.09643 0.25314 0.0
H265 H 0.70398 0.08138 0.24226 0.0
H266 H 0.66414 0.11692 0.21631 0.0
H267 H 0.56834 0.08338 0.19437 0.0
H268 H 0.26659 0.29351 0.17583 0.0
H269 H 0.21242 0.2782 0.20248 0.0
H270 H 0.42568 0.37637 0.22695 0.0
H271 H 0.48029 0.39081 0.20028 0.0
H272 H 0.35936 0.23802 0.23367 0.0
H273 H 0.16637 0.3775 0.24263 0.0
H274 H 0.15263 0.32938 0.22288 0.0
H275 H 0.23632 0.40273 0.22792 0.0
C276 C 0.30159 0.31592 0.18684 0.0
C277 C 0.37783 0.34214 0.18593 0.0
C278 C 0.27048 0.30661 0.20215 0.0
C279 C 0.31506 0.32498 0.21675 0.0
C280 C 0.39028 0.3612 0.21582 0.0
H281 H 0.2469 0.22254 0.31709 0.0
H282 H 0.30021 0.23973 0.29037 0.0
C283 C 0.42142 0.37056 0.2005 0.0
C284 C 0.28553 0.2946 0.23235 0.0
H285 H 0.1527 0.28111 0.25927 0.0
C286 C 0.31463 0.24805 0.23937 0.0
C287 C 0.22633 0.30651 0.23961 0.0
C288 C 0.19399 0.35725 0.23296 0.0
C289 C 0.28572 0.21258 0.25331 0.0
C290 C 0.22659 0.22457 0.2606 0.0
C291 C 0.19745 0.2711 0.25357 0.0
C292 C 0.19716 0.19414 0.27621 0.0
C293 C 0.31792 0.16161 0.25989 0.0
C294 C 0.12194 0.15822 0.2772 0.0
C295 C 0.09126 0.14784 0.29256 0.0
C296 C 0.13534 0.17487 0.30713 0.0
C297 C 0.21152 0.20115 0.30609 0.0
C298 C 0.24214 0.21152 0.29075 0.0
H299 H 0.34485 0.14094 0.25015 0.0
H300 H 0.35987 0.18947 0.26986 0.0
H301 H 0.27568 0.11639 0.26505 0.0
H302 H 0.08623 0.14379 0.26613 0.0
H303 H 0.03242 0.12762 0.29287 0.0
H304 H 0.95447 0.71064 0.72013 0.0
H305 H 0.05299 0.73935 0.7414 0.0
H306 H 0.13637 0.59469 0.7161 0.0
H307 H 0.03803 0.56651 0.69472 0.0
H308 H 0.13343 0.67697 0.76238 0.0
H309 H 0.28002 0.79726 0.70793 0.0
H310 H 0.18192 0.76206 0.70804 0.0
H311 H 0.23146 0.70354 0.70552 0.0
C312 C 0.99051 0.68096 0.71979 0.0
C313 C 0.98911 0.63676 0.70577 0.0
C314 C 0.04773 0.69844 0.73179 0.0
C315 C 0.10331 0.67109 0.72993 0.0
C316 C 0.09465 0.61742 0.71752 0.0
H317 H 0.53095 0.783 0.77491 0.0
H318 H 0.43143 0.75267 0.75383 0.0
C319 C 0.03747 0.60011 0.7055 0.0
C320 C 0.17506 0.70781 0.73881 0.0
H321 H 0.35041 0.81414 0.7329 0.0
C322 C 0.1809 0.70689 0.75597 0.0
C323 C 0.23661 0.74767 0.73036 0.0
C324 C 0.23247 0.75346 0.71197 0.0
C325 C 0.24725 0.74342 0.76492 0.0
C326 C 0.3088 0.78328 0.75648 0.0
C327 C 0.30296 0.78418 0.73931 0.0
C328 C 0.38051 0.82032 0.76535 0.0
C329 C 0.25138 0.73775 0.78332 0.0
C330 C 0.38898 0.8741 0.77771 0.0
C331 C 0.44671 0.89235 0.78962 0.0
C332 C 0.49586 0.85657 0.78927 0.0
C333 C 0.49432 0.81206 0.77531 0.0
C334 C 0.43655 0.79364 0.76342 0.0
H335 H 0.20397 0.69378 0.78735 0.0
H336 H 0.30208 0.72949 0.78727 0.0
H337 H 0.25202 0.78758 0.78975 0.0
H338 H 0.34691 0.89635 0.77918 0.0
H339 H 0.44621 0.92614 0.80036 0.0
H340 H 0.37085 0.85735 0.93283 0.0
H341 H 0.37335 0.89732 0.96165 0.0
H342 H 0.57617 0.06835 0.95633 0.0
H343 H 0.57461 0.02826 0.92742 0.0
H344 H 0.58733 0.97377 0.97863 0.0
H345 H 0.35296 0.05484 0.99185 0.0
H346 H 0.32797 0.97225 0.97976 0.0
H347 H 0.38503 0.05203 0.97137 0.0
C348 C 0.41415 0.90568 0.93747 0.0
C349 C 0.47364 0.93841 0.92789 0.0
C350 C 0.41564 0.92834 0.95408 0.0
C351 C 0.47567 0.98503 0.96123 0.0
C352 C 0.52979 0.02387 0.95109 0.0
H353 H 0.63041 0.14303 0.0608 0.0
H354 H 0.62767 0.10376 0.03191 0.0
C355 C 0.52843 1.0012 0.93451 0.0
C356 C 0.48812 0.99578 0.97943 0.0
H357 H 0.41363 0.02769 0.01487 0.0
C358 C 0.54968 0.98623 0.98656 0.0
C359 C 0.43849 0.01089 0.98975 0.0
C360 C 0.37273 0.02374 0.98281 0.0
C361 C 0.56248 0.99057 0.00374 0.0
C362 C 0.51283 0.00567 0.01406 0.0
C363 C 0.45129 0.01526 0.00693 0.0
C364 C 0.52519 0.0162 0.03227 0.0
C365 C 0.62821 0.97766 0.01068 0.0
C366 C 0.47101 0.97724 0.04238 0.0
C367 C 0.4725 0.99951 0.059 0.0
C368 C 0.52751 0.062 0.06568 0.0
C369 C 0.58697 0.0949 0.05611 0.0
C370 C 0.58534 0.07265 0.03947 0.0
H371 H 0.64796 0.94656 0.00163 0.0
H372 H 0.67299 0.02912 0.01373 0.0
H373 H 0.61589 0.94934 0.02211 0.0
H374 H 0.42454 0.93294 0.03711 0.0
H375 H 0.42631 0.97233 0.06607 0.0
H376 H 0.91942 0.10434 0.43731 0.0
H377 H 0.91062 0.03207 0.46053 0.0
H378 H 0.13499 0.15187 0.47576 0.0
H379 H 0.14462 0.22556 0.4525 0.0
H380 H -0.00374 0.94922 0.46773 0.0
H381 H 0.02044 0.15689 0.51749 0.0
H382 H -0.00069 0.16582 0.49617 0.0
H383 H 0.09112 0.17911 0.50307 0.0
C384 C 0.96708 0.11583 0.44559 0.0
C385 C 0.03279 0.17109 0.44306 0.0
C386 C 0.96182 0.07421 0.45883 0.0
C387 C 0.02187 0.08715 0.46988 0.0
C388 C 0.08776 0.14185 0.46744 0.0
H389 H 0.08993 0.89345 0.5569 0.0
H390 H 0.10071 0.9629 0.53312 0.0
C391 C 0.09321 0.18365 0.45412 0.0
C392 C 0.01508 0.04249 0.48384 0.0
H393 H 0.01564 0.04587 0.52577 0.0
C394 C 0.0004 0.97015 0.48043 0.0
C395 C 0.0202 0.07028 0.50033 0.0
C396 C 0.03304 0.14715 0.50457 0.0
C397 C 0.99176 0.92478 0.49318 0.0
C398 C -0.00311 0.95261 0.50967 0.0
C399 C 0.0116 0.02493 0.51307 0.0
C400 C 0.98955 0.90809 0.52367 0.0
C401 C 0.97871 0.84786 0.48897 0.0
C402 C 0.92315 0.85428 0.52621 0.0
C403 C 0.91652 0.81415 0.53987 0.0
C404 C 0.97626 0.82757 0.55119 0.0
C405 C 0.04269 0.88148 0.54847 0.0
C406 C 0.04912 0.92141 0.53488 0.0
H407 H 0.9912 0.83799 0.47605 0.0
H408 H 0.01238 0.82916 0.49738 0.0
H409 H 0.92061 0.81603 0.49049 0.0
H410 H 0.87628 0.84401 0.51775 0.0
H411 H 0.86463 0.77315 0.54161 0.0
H412 H 0.08409 0.092 0.35236 0.0
H413 H 0.10108 0.97831 0.3515 0.0
H414 H 0.90528 0.88917 0.37752 0.0
H415 H 0.88839 1.00232 0.37864 0.0
H416 H 0.02408 0.87027 0.3924 0.0
H417 H -0.00141 0.78868 0.32556 0.0
H418 H 0.06263 0.87626 0.33094 0.0
H419 H 0.96742 0.85645 0.33387 0.0
C420 C 0.04359 0.04769 0.3575 0.0
C421 C 0.98511 0.05641 0.36565 0.0
C422 C 0.0534 0.98269 0.35701 0.0
C423 C 0.00441 0.92521 0.36446 0.0
C424 C 0.94391 0.93285 0.37177 0.0
H425 H 0.9897 0.5016 0.38328 0.0
H426 H 0.96968 0.61399 0.38445 0.0
C427 C 0.93425 0.99761 0.37233 0.0
C428 C 0.01893 0.85891 0.36586 0.0
H429 H 0.0432 0.72304 0.34338 0.0
C430 C 0.0279 0.83781 0.38168 0.0
C431 C 0.02399 0.81677 0.35188 0.0
C432 C 0.01202 0.83517 0.33459 0.0
C433 C 0.04321 0.77644 0.38391 0.0
C434 C 0.04864 0.73449 0.36993 0.0
C435 C 0.03927 0.75541 0.3541 0.0
C436 C 0.06502 0.66912 0.37127 0.0
C437 C 0.05524 0.75803 0.4012 0.0
C438 C 0.12578 0.66306 0.36376 0.0
C439 C 0.137 0.59907 0.36298 0.0
C440 C 0.08759 0.5395 0.36969 0.0
C441 C 0.02903 0.54663 0.3781 0.0
C442 C 0.01753 0.61087 0.37877 0.0
H443 H 0.06778 0.80428 0.41027 0.0
H444 H 0.00498 0.71625 0.40477 0.0
H445 H 0.10047 0.73762 0.40195 0.0
H446 H 0.16333 0.70736 0.35797 0.0
H447 H 0.18294 0.59554 0.3565 0.0
H448 H 0.1834 0.73382 0.6086 0.0
H449 H 0.29745 0.7128 0.60649 0.0
H450 H 0.37347 0.82158 0.65436 0.0
H451 H 0.26034 0.84397 0.65655 0.0
H452 H 0.4837 0.84232 0.63133 0.0
H453 H 0.31631 0.5593 0.63577 0.0
H454 H 0.2885 0.59965 0.61904 0.0
H455 H 0.28152 0.62911 0.63995 0.0
C456 C 0.22513 0.75521 0.61848 0.0
C457 C 0.21189 0.78895 0.63294 0.0
C458 C 0.29001 0.7426 0.6173 0.0
C459 C 0.34234 0.7635 0.63053 0.0
C460 C 0.33297 0.80409 0.64414 0.0
H461 H 0.7477 0.69133 0.64871 0.0
H462 H 0.63507 0.71138 0.65404 0.0
C463 C 0.26825 0.81698 0.64533 0.0
C464 C 0.40333 0.73754 0.6309 0.0
H465 H 0.44152 0.5866 0.63127 0.0
C466 C 0.47473 0.78654 0.6314 0.0
C467 C 0.39096 0.66467 0.63123 0.0
C468 C 0.31525 0.61005 0.63162 0.0
C469 C 0.53443 0.76434 0.63158 0.0
C470 C 0.52198 0.69132 0.63157 0.0
C471 C 0.4506 0.64245 0.63137 0.0
C472 C 0.58233 0.6648 0.63026 0.0
C473 C 0.61015 0.81895 0.63118 0.0
C474 C 0.5872 0.62684 0.61572 0.0
C475 C 0.65118 0.61475 0.61271 0.0
C476 C 0.71132 0.64077 0.6242 0.0
C477 C 0.70292 0.67142 0.63956 0.0
C478 C 0.63878 0.68348 0.64257 0.0
H479 H 0.60918 0.8711 0.62807 0.0
H480 H 0.63879 0.82581 0.64348 0.0
H481 H 0.64216 0.80167 0.62203 0.0
H482 H 0.5436 0.61115 0.60618 0.0
H483 H 0.65536 0.58994 0.60085 0.0
H484 H 0.56777 0.57985 0.85161 0.0
H485 H 0.58367 0.46554 0.85038 0.0
H486 H 0.40344 0.38395 0.88147 0.0
H487 H 0.38629 0.49676 0.88255 0.0
H488 H 0.61672 0.40486 0.87803 0.0
H489 H 0.3598 0.22477 0.84559 0.0
H490 H 0.38994 0.31952 0.84516 0.0
H491 H 0.34596 0.27706 0.86276 0.0
C492 C 0.53029 0.53701 0.85782 0.0
C493 C 0.4758 0.54762 0.8672 0.0
C494 C 0.53976 0.47186 0.85719 0.0
C495 C 0.49445 0.41608 0.86575 0.0
C496 C 0.43823 0.42572 0.87453 0.0
H497 H 0.48779 0.99479 0.88435 0.0
H498 H 0.46983 0.10825 0.88667 0.0
C499 C 0.42878 0.49058 0.87519 0.0
C500 C 0.50931 0.34979 0.86669 0.0
H501 H 0.4328 0.17079 0.85922 0.0
C502 C 0.57672 0.35371 0.87381 0.0
C503 C 0.45668 0.28304 0.86139 0.0
C504 C 0.38428 0.27565 0.85316 0.0
C505 C 0.5927 0.29262 0.87588 0.0
C506 C 0.54027 0.22594 0.87049 0.0
C507 C 0.47267 0.22195 0.86348 0.0
C508 C 0.55631 0.16012 0.87083 0.0
C509 C 0.66522 0.29992 0.88403 0.0
C510 C 0.61158 0.15217 0.86141 0.0
C511 C 0.62194 0.0878 0.86008 0.0
C512 C 0.57694 0.02965 0.86806 0.0
C513 C 0.52356 0.03854 0.8781 0.0
C514 C 0.51299 0.10319 0.87937 0.0
H515 H 0.68953 0.3505 0.89172 0.0
H516 H 0.65976 0.25565 0.8919 0.0
H517 H 0.70354 0.29913 0.87439 0.0
H518 H 0.64486 0.19493 0.85451 0.0
H519 H 0.66366 0.08296 0.85226 0.0
H520 H 0.16236 0.07386 0.10368 0.0
H521 H 0.05033 0.09708 0.10767 0.0
H522 H 0.15217 0.23646 0.15054 0.0
H523 H 0.26438 0.2137 0.14663 0.0
H524 H -0.00613 0.15108 0.15144 0.0
H525 H 0.07259 0.3031 0.09599 0.0
H526 H 0.06638 0.21268 0.09366 0.0
H527 H 0.13504 0.27435 0.10767 0.0
C528 C 0.16013 0.10746 0.11431 0.0
C529 C 0.22259 0.14287 0.12471 0.0
C530 C 0.09626 0.12093 0.1165 0.0
C531 C 0.09414 0.16991 0.12911 0.0
C532 C 0.15333 0.19895 0.14065 0.0
H533 H 0.77477 0.36005 0.15214 0.0
H534 H 0.89051 0.34221 0.15017 0.0
C535 C 0.21726 0.18536 0.13848 0.0
C536 C 0.03433 0.19737 0.12896 0.0
H537 H 0.9594 0.29409 0.10664 0.0
C538 C 0.98632 0.1826 0.14173 0.0
C539 C 0.02554 0.239 0.11629 0.0
C540 C 0.07788 0.25889 0.10268 0.0
C541 C 0.92785 0.20659 0.14186 0.0
C542 C 0.91854 0.24751 0.12907 0.0
C543 C 0.96715 0.26299 0.11643 0.0
C544 C 0.85594 0.27103 0.12822 0.0
C545 C 0.87523 0.18619 0.15541 0.0
C546 C 0.8008 0.24136 0.11574 0.0
C547 C 0.73473 0.25182 0.11672 0.0
C548 C 0.72298 0.29181 0.13027 0.0
C549 C 0.78154 0.32795 0.1417 0.0
C550 C 0.84759 0.31751 0.14068 0.0
H551 H 0.88173 0.14309 0.16233 0.0
H552 H 0.88511 0.23268 0.16425 0.0
H553 H 0.81807 0.16891 0.15029 0.0
H554 H 0.80692 0.20609 0.1059 0.0
H555 H 0.69115 0.22383 0.1076 0.0
H556 H 0.11052 0.00434 0.61479 0.0
H557 H 0.09337 0.11718 0.61583 0.0
H558 H 0.90481 0.03172 0.64436 0.0
H559 H 0.9209 0.91747 0.64318 0.0
H560 H 0.87903 0.09477 0.61627 0.0
H561 H 0.127 0.2731 0.65223 0.0
H562 H 0.14571 0.22227 0.63541 0.0
H563 H 0.09662 0.1782 0.65231 0.0
C564 C 0.06617 0.00969 0.62159 0.0
C565 C 0.01691 0.95162 0.62886 0.0
C566 C 0.0567 0.07455 0.62223 0.0
C567 C -0.00187 0.08308 0.63025 0.0
C568 C 0.95055 0.02625 0.63814 0.0
H569 H 0.82481 0.41431 0.64109 0.0
H570 H 0.8441 0.30251 0.63915 0.0
C571 C 0.9601 0.96114 0.63755 0.0
C572 C 0.98333 0.14931 0.62911 0.0
H573 H 0.05762 0.32792 0.63758 0.0
C574 C 0.91783 0.14571 0.62103 0.0
C575 C 0.03444 0.2158 0.63513 0.0
C576 C 0.10461 0.22276 0.64439 0.0
C577 C 0.90235 0.20687 0.61869 0.0
C578 C 0.95327 0.27329 0.62479 0.0
C579 C 0.01896 0.27698 0.63277 0.0
C580 C 0.93723 0.33903 0.62415 0.0
C581 C 0.83205 0.19998 0.6095 0.0
C582 C 0.98289 0.39682 0.61621 0.0
C583 C 0.97197 0.46133 0.61729 0.0
C584 C 0.9159 0.4692 0.62655 0.0
C585 C 0.86863 0.41021 0.63389 0.0
C586 C 0.87931 0.34598 0.63273 0.0
H587 H 0.80983 0.1499 0.60157 0.0
H588 H 0.79095 0.19995 0.61852 0.0
H589 H 0.83982 0.24486 0.6017 0.0
H590 H 0.0281 0.39253 0.60957 0.0
H591 H 0.00954 0.50577 0.61156 0.0
H592 H 0.74025 0.78865 0.84758 0.0
H593 H 0.85243 0.76593 0.84364 0.0
H594 H 0.95229 0.90013 0.88736 0.0
H595 H 0.84025 0.92323 0.89143 0.0
H596 H 0.01012 0.85069 0.84321 0.0
H597 H 0.93013 0.6932 0.89778 0.0
H598 H 0.86808 0.7234 0.88638 0.0
H599 H 0.93662 0.78355 0.90067 0.0
C600 C 0.78691 0.81579 0.85596 0.0
C601 C 0.78094 0.85673 0.86997 0.0
C602 C 0.85084 0.80226 0.85376 0.0
C603 C 0.90944 0.82982 0.8655 0.0
C604 C 0.90677 0.87735 0.87838 0.0
H605 H 0.31196 0.77419 0.88642 0.0
H606 H 0.1962 0.79189 0.88824 0.0
C607 C 0.8429 0.89076 0.88062 0.0
C608 C 0.96925 0.80234 0.86544 0.0
H609 H 0.04377 0.7036 0.88716 0.0
C610 C 0.01749 0.81828 0.85273 0.0
C611 C 0.97778 0.75952 0.87787 0.0
C612 C 0.92514 0.73824 0.89139 0.0
C613 C 0.07595 0.79431 0.85242 0.0
C614 C 0.08505 0.75226 0.86497 0.0
C615 C 0.0362 0.73559 0.87756 0.0
C616 C 0.14768 0.72876 0.86567 0.0
C617 C 0.12878 0.81589 0.83894 0.0
C618 C 0.15628 0.68329 0.853 0.0
C619 C 0.22231 0.67286 0.85191 0.0
C620 C 0.2806 0.70802 0.86348 0.0
C621 C 0.26859 0.74699 0.87719 0.0
C622 C 0.20253 0.75742 0.87824 0.0
H623 H 0.12237 0.85959 0.83224 0.0
H624 H 0.18587 0.83282 0.84408 0.0
H625 H 0.11905 0.77008 0.8299 0.0
H626 H 0.11358 0.65937 0.84341 0.0
H627 H 0.22929 0.64159 0.84133 0.0
H628 H 0.61716 0.5029 0.11179 0.0
H629 H 0.60022 0.61583 0.11298 0.0
H630 H 0.4195 0.53377 0.14392 0.0
H631 H 0.43522 0.41937 0.14257 0.0
H632 H 0.38699 0.5949 0.11625 0.0
H633 H 0.64332 0.77441 0.14903 0.0
H634 H 0.65747 0.72229 0.13187 0.0
H635 H 0.61301 0.67963 0.1494 0.0
C636 C 0.57461 0.50901 0.11914 0.0
C637 C 0.52739 0.45184 0.12705 0.0
C638 C 0.56528 0.57393 0.11986 0.0
C639 C 0.50897 0.58345 0.12863 0.0
C640 C 0.46349 0.52753 0.13712 0.0
H641 H 0.34043 0.91697 0.14221 0.0
H642 H 0.35904 0.80488 0.13996 0.0
C643 C 0.47285 0.46234 0.13643 0.0
C644 C 0.49417 0.64976 0.12772 0.0
H645 H 0.57069 0.82868 0.13536 0.0
C646 C 0.42694 0.64599 0.12054 0.0
C647 C 0.54674 0.71642 0.13311 0.0
C648 C 0.61894 0.72362 0.14142 0.0
C649 C 0.41107 0.70714 0.11848 0.0
C650 C 0.46346 0.77372 0.12396 0.0
C651 C 0.53088 0.77758 0.13103 0.0
C652 C 0.44751 0.83956 0.12361 0.0
C653 C 0.33874 0.70005 0.11026 0.0
C654 C 0.49081 0.89642 0.11505 0.0
C655 C 0.48031 0.96109 0.11631 0.0
C656 C 0.42705 0.97009 0.12637 0.0
C657 C 0.38207 0.91203 0.13438 0.0
C658 C 0.39233 0.84761 0.13305 0.0
H659 H 0.31435 0.64943 0.10259 0.0
H660 H 0.30034 0.70111 0.11987 0.0
H661 H 0.34454 0.74429 0.10237 0.0
H662 H 0.5339 0.89125 0.10774 0.0
H663 H 0.51605 0.00479 0.11004 0.0
H664 H 0.8222 0.28224 0.38727 0.0
H665 H 0.70721 0.30113 0.38961 0.0
H666 H 0.62522 0.17867 0.34344 0.0
H667 H 0.73926 0.15849 0.34106 0.0
H668 H 0.66867 0.37509 0.36512 0.0
H669 H 0.44759 0.11729 0.37143 0.0
H670 H 0.54245 0.13178 0.37603 0.0
H671 H 0.50628 0.11678 0.35502 0.0
C672 C 0.77885 0.25705 0.3779 0.0
C673 C 0.79052 0.21999 0.3638 0.0
C674 C 0.71328 0.26826 0.37923 0.0
C675 C 0.65817 0.24181 0.36663 0.0
C676 C 0.66689 0.19904 0.35337 0.0
H677 H 0.25218 0.30524 0.34712 0.0
H678 H 0.36613 0.28739 0.34216 0.0
C679 C 0.73237 0.18773 0.35202 0.0
C680 C 0.59661 0.26705 0.36614 0.0
H681 H 0.41143 0.21263 0.36483 0.0
C682 C 0.61235 0.33968 0.36515 0.0
C683 C 0.52345 0.2205 0.36588 0.0
C684 C 0.50371 0.1423 0.36729 0.0
C685 C 0.55663 0.36714 0.36394 0.0
C686 C 0.48349 0.32075 0.36392 0.0
C687 C 0.46771 0.24798 0.36468 0.0
C688 C 0.42236 0.34655 0.36462 0.0
C689 C 0.5765 0.44536 0.36255 0.0
C690 C 0.41773 0.38885 0.37843 0.0
C691 C 0.35284 0.39954 0.38123 0.0
C692 C 0.29134 0.36738 0.37034 0.0
C693 C 0.29848 0.33096 0.35569 0.0
C694 C 0.36345 0.32019 0.3529 0.0
H695 H 0.63109 0.4694 0.35755 0.0
H696 H 0.5357 0.45635 0.35453 0.0
H697 H 0.5782 0.47143 0.37499 0.0
H698 H 0.46225 0.40897 0.38773 0.0
H699 H 0.34918 0.42817 0.3926 0.0
loop_
_geom_bond_atom_site_label_1
_geom_bond_atom_site_label_2
_geom_bond_distance
_geom_bond_site_symmetry_2
_ccdc_geom_bond_type
C0 O12 1.241 1_455 S
C0 O13 1.280 . S
C1 O14 1.277 . S
C1 O15 1.245 1_655 S
C2 O26 1.247 . S
C2 O28 1.289 . S
Mg3 O4 1.926 . S
Mg3 O13 1.984 . S
Mg3 O15 1.988 . S
Mg3 O16 2.061 . S
O4 Mg3 1.926 . S
O4 Mg5 1.986 1_455 S
O4 Mg6 1.917 . S
Mg5 O4 1.986 1_655 S
Mg5 O12 2.042 . S
Mg5 O14 2.041 . S
Mg5 O20 2.038 . S
Mg5 O28 2.238 . S
Mg6 O4 1.917 . S
Mg6 O7 1.917 1_455 S
Mg6 O17 2.106 . S
Mg6 O19 2.079 . S
Mg6 O28 2.106 1_455 S
Mg6 O29 2.079 . S
O7 Mg6 1.917 1_655 S
O7 Mg8 1.926 . S
O7 Mg9 1.986 1_655 S
Mg8 O7 1.926 . S
Mg8 O22 1.984 . S
Mg8 O25 1.988 . S
Mg8 O26 2.061 . S
Mg9 O7 1.986 1_455 S
Mg9 O17 2.238 . S
Mg9 O21 2.042 . S
Mg9 O23 2.041 . S
Mg9 O30 2.038 . S
C10 O16 1.247 . S
C10 O17 1.289 . S
C11 O29 1.245 . S
C11 O30 1.274 . S
O12 C0 1.241 1_655 S
O12 Mg5 2.042 . S
O13 C0 1.280 . S
O13 Mg3 1.984 . S
O14 C1 1.277 . S
O14 Mg5 2.041 . S
O15 C1 1.245 1_455 S
O15 Mg3 1.988 . S
O16 Mg3 2.061 . S
O16 C10 1.247 . S
O17 Mg6 2.106 . S
O17 Mg9 2.238 . S
O17 C10 1.289 . S
C18 O19 1.245 1_655 S
C18 O20 1.274 . S
O19 Mg6 2.079 . S
O19 C18 1.245 1_455 S
O20 Mg5 2.038 . S
O20 C18 1.274 . S
O21 Mg9 2.042 . S
O21 C24 1.241 1_455 S
O22 Mg8 1.984 . S
O22 C24 1.280 . S
O23 Mg9 2.041 . S
O23 C27 1.277 . S
C24 O21 1.241 1_655 S
C24 O22 1.280 . S
O25 Mg8 1.988 . S
O25 C27 1.245 1_655 S
O26 C2 1.247 . S
O26 Mg8 2.061 . S
C27 O23 1.277 . S
C27 O25 1.245 1_455 S
O28 C2 1.289 . S
O28 Mg5 2.238 . S
O28 Mg6 2.106 1_655 S
O29 Mg6 2.079 . S
O29 C11 1.245 . S
O30 Mg9 2.038 . S
O30 C11 1.274 . S
C31 O43 1.241 1_455 S
C31 O44 1.280 . S
C32 O45 1.277 . S
C32 O46 1.245 1_655 S
C33 O57 1.247 . S
C33 O59 1.289 . S
Mg34 O35 1.926 . S
Mg34 O44 1.984 . S
Mg34 O46 1.988 . S
Mg34 O47 2.061 . S
O35 Mg34 1.926 . S
O35 Mg36 1.986 1_455 S
O35 Mg37 1.917 . S
Mg36 O35 1.986 1_655 S
Mg36 O43 2.042 . S
Mg36 O45 2.041 . S
Mg36 O51 2.038 . S
Mg36 O59 2.238 . S
Mg37 O35 1.917 . S
Mg37 O38 1.917 1_455 S
Mg37 O48 2.106 . S
Mg37 O50 2.079 1_455 S
Mg37 O59 2.106 1_455 S
Mg37 O60 2.079 . S
O38 Mg37 1.917 1_655 S
O38 Mg39 1.926 . S
O38 Mg40 1.986 1_655 S
Mg39 O38 1.926 . S
Mg39 O53 1.984 . S
Mg39 O56 1.988 . S
Mg39 O57 2.061 . S
Mg40 O38 1.986 1_455 S
Mg40 O48 2.238 . S
Mg40 O52 2.042 . S
Mg40 O54 2.041 . S
Mg40 O61 2.038 . S
C41 O47 1.247 . S
C41 O48 1.289 . S
C42 O60 1.245 . S
C42 O61 1.274 . S
O43 C31 1.241 1_655 S
O43 Mg36 2.042 . S
O44 C31 1.280 . S
O44 Mg34 1.984 . S
O45 C32 1.277 . S
O45 Mg36 2.041 . S
O46 C32 1.245 1_455 S
O46 Mg34 1.988 . S
O47 Mg34 2.061 . S
O47 C41 1.247 . S
O48 Mg37 2.106 . S
O48 Mg40 2.238 . S
O48 C41 1.289 . S
C49 O50 1.245 . S
C49 O51 1.274 . S
O50 Mg37 2.079 1_655 S
O50 C49 1.245 . S
O51 Mg36 2.038 . S
O51 C49 1.274 . S
O52 Mg40 2.042 . S
O52 C55 1.241 1_455 S
O53 Mg39 1.984 . S
O53 C55 1.280 . S
O54 Mg40 2.041 . S
O54 C58 1.277 . S
C55 O52 1.241 1_655 S
C55 O53 1.280 . S
O56 Mg39 1.988 . S
O56 C58 1.245 1_655 S
O57 C33 1.247 . S
O57 Mg39 2.061 . S
C58 O54 1.277 . S
C58 O56 1.245 1_455 S
O59 C33 1.289 . S
O59 Mg36 2.238 . S
O59 Mg37 2.106 1_655 S
O60 Mg37 2.079 . S
O60 C42 1.245 . S
O61 Mg40 2.038 . S
O61 C42 1.274 . S
C62 O74 1.241 . S
C62 O75 1.280 . S
C63 O76 1.277 . S
C63 O77 1.245 . S
C64 O88 1.247 . S
C64 O90 1.289 . S
Mg65 O66 1.926 . S
Mg65 O75 1.984 . S
Mg65 O77 1.988 . S
Mg65 O78 2.061 . S
O66 Mg65 1.926 . S
O66 Mg67 1.986 . S
O66 Mg68 1.917 . S
Mg67 O66 1.986 . S
Mg67 O74 2.042 . S
Mg67 O76 2.041 . S
Mg67 O82 2.038 . S
Mg67 O90 2.238 . S
Mg68 O66 1.917 . S
Mg68 O69 1.917 . S
Mg68 O79 2.106 . S
Mg68 O81 2.079 . S
Mg68 O90 2.106 . S
Mg68 O91 2.079 . S
O69 Mg68 1.917 . S
O69 Mg70 1.926 . S
O69 Mg71 1.986 . S
Mg70 O69 1.926 . S
Mg70 O84 1.984 . S
Mg70 O87 1.988 . S
Mg70 O88 2.061 . S
Mg71 O69 1.986 . S
Mg71 O79 2.238 . S
Mg71 O83 2.042 . S
Mg71 O85 2.041 . S
Mg71 O92 2.038 . S
C72 O78 1.247 . S
C72 O79 1.289 . S
C73 O91 1.245 . S
C73 O92 1.274 . S
O74 C62 1.241 . S
O74 Mg67 2.042 . S
O75 C62 1.280 . S
O75 Mg65 1.984 . S
O76 C63 1.277 . S
O76 Mg67 2.041 . S
O77 C63 1.245 . S
O77 Mg65 1.988 . S
O78 Mg65 2.061 . S
O78 C72 1.247 . S
O79 Mg68 2.106 . S
O79 Mg71 2.238 . S
O79 C72 1.289 . S
C80 O81 1.245 . S
C80 O82 1.274 . S
O81 Mg68 2.079 . S
O81 C80 1.245 . S
O82 Mg67 2.038 . S
O82 C80 1.274 . S
O83 Mg71 2.042 . S
O83 C86 1.241 . S
O84 Mg70 1.984 . S
O84 C86 1.280 . S
O85 Mg71 2.041 . S
O85 C89 1.277 . S
C86 O83 1.241 . S
C86 O84 1.280 . S
O87 Mg70 1.988 . S
O87 C89 1.245 . S
O88 C64 1.247 . S
O88 Mg70 2.061 . S
C89 O85 1.277 . S
C89 O87 1.245 . S
O90 C64 1.289 . S
O90 Mg67 2.238 . S
O90 Mg68 2.106 . S
O91 Mg68 2.079 . S
O91 C73 1.245 . S
O92 Mg71 2.038 . S
O92 C73 1.274 . S
C93 O105 1.241 . S
C93 O106 1.280 . S
C94 O107 1.277 . S
C94 O108 1.245 . S
C95 O119 1.247 . S
C95 O121 1.289 . S
Mg96 O97 1.926 . S
Mg96 O106 1.984 . S
Mg96 O108 1.988 . S
Mg96 O109 2.061 . S
O97 Mg96 1.926 . S
O97 Mg98 1.986 . S
O97 Mg99 1.917 . S
Mg98 O97 1.986 . S
Mg98 O105 2.042 . S
Mg98 O107 2.041 . S
Mg98 O113 2.038 . S
Mg98 O121 2.238 . S
Mg99 O97 1.917 . S
Mg99 O100 1.917 . S
Mg99 O110 2.106 . S
Mg99 O112 2.079 . S
Mg99 O121 2.106 . S
Mg99 O122 2.079 . S
O100 Mg99 1.917 . S
O100 Mg101 1.926 . S
O100 Mg102 1.986 . S
Mg101 O100 1.926 . S
Mg101 O115 1.984 . S
Mg101 O118 1.988 . S
Mg101 O119 2.061 . S
Mg102 O100 1.986 . S
Mg102 O110 2.238 . S
Mg102 O114 2.042 . S
Mg102 O116 2.041 . S
Mg102 O123 2.038 . S
C103 O109 1.247 . S
C103 O110 1.289 . S
C104 O122 1.245 . S
C104 O123 1.274 . S
O105 C93 1.241 . S
O105 Mg98 2.042 . S
O106 C93 1.280 . S
O106 Mg96 1.984 . S
O107 C94 1.277 . S
O107 Mg98 2.041 . S
O108 C94 1.245 . S
O108 Mg96 1.988 . S
O109 Mg96 2.061 . S
O109 C103 1.247 . S
O110 Mg99 2.106 . S
O110 Mg102 2.238 . S
O110 C103 1.289 . S
C111 O112 1.245 . S
C111 O113 1.274 . S
O112 Mg99 2.079 . S
O112 C111 1.245 . S
O113 Mg98 2.038 . S
O113 C111 1.274 . S
O114 Mg102 2.042 . S
O114 C117 1.241 . S
O115 Mg101 1.984 . S
O115 C117 1.280 . S
O116 Mg102 2.041 . S
O116 C120 1.277 . S
C117 O114 1.241 . S
C117 O115 1.280 . S
O118 Mg101 1.988 . S
O118 C120 1.245 . S
O119 C95 1.247 . S
O119 Mg101 2.061 . S
C120 O116 1.277 . S
C120 O118 1.245 . S
O121 C95 1.289 . S
O121 Mg98 2.238 . S
O121 Mg99 2.106 . S
O122 Mg99 2.079 . S
O122 C104 1.245 . S
O123 Mg102 2.038 . S
O123 C104 1.274 . S
H124 C132 0.929 . S
H125 C134 0.930 . S
H126 C136 0.930 . S
H127 C139 0.929 . S
H128 C142 0.930 . S
H129 C144 0.960 . S
H130 C144 0.960 . S
H131 C144 0.960 . S
C132 H124 0.929 . S
C132 C133 1.377 . S
C132 C134 1.384 . S
C133 C132 1.377 . S
C133 C139 1.390 1_655 S
C134 H125 0.930 . S
C134 C132 1.384 . S
C134 C135 1.372 . S
C135 C134 1.372 . S
C135 C136 1.400 1_655 S
C135 C140 1.490 . S
C136 H126 0.930 . S
C136 C135 1.400 1_455 S
C136 C139 1.386 . S
H137 C153 0.930 . S
H138 C154 0.931 . S
C139 H127 0.929 . S
C139 C133 1.390 1_455 S
C139 C136 1.386 . S
C140 C135 1.490 . S
C140 C142 1.395 . S
C140 C143 1.403 1_655 S
H141 C147 0.930 . S
C142 H128 0.930 . S
C142 C140 1.395 . S
C142 C145 1.403 . S
C143 C140 1.403 1_455 S
C143 C144 1.524 . S
C143 C147 1.400 . S
C144 H129 0.960 . S
C144 H130 0.960 . S
C144 H131 0.960 . S
C144 C143 1.524 . S
C145 C142 1.403 . S
C145 C146 1.392 1_655 S
C145 C149 1.495 . S
C146 C145 1.392 1_455 S
C146 C147 1.385 . S
C146 C148 1.478 . S
C147 H141 0.930 . S
C147 C143 1.400 . S
C147 C146 1.385 . S
C148 C146 1.478 . S
C148 C150 1.381 1_455 S
C148 C154 1.383 . S
C149 C145 1.495 . S
C149 H155 0.959 . S
C149 H156 0.961 . S
C149 H157 0.960 . S
C150 C148 1.381 1_655 S
C150 C151 1.394 . S
C150 H158 0.930 . S
C151 C150 1.394 . S
C151 C152 1.383 1_655 S
C151 H159 0.929 . S
C152 C151 1.383 1_455 S
C152 C153 1.377 . S
C153 H137 0.930 . S
C153 C152 1.377 . S
C153 C154 1.379 . S
C154 H138 0.931 . S
C154 C148 1.383 . S
C154 C153 1.379 . S
H155 C149 0.959 . S
H156 C149 0.961 . S
H157 C149 0.960 . S
H158 C150 0.930 . S
H159 C151 0.929 . S
H160 C168 0.929 . S
H161 C170 0.930 . S
H162 C172 0.930 . S
H163 C175 0.929 . S
H164 C178 0.930 . S
H165 C180 0.960 . S
H166 C180 0.960 . S
H167 C180 0.960 . S
C168 H160 0.929 . S
C168 C169 1.377 . S
C168 C170 1.384 . S
C169 C168 1.377 . S
C169 C175 1.390 . S
C170 H161 0.930 . S
C170 C168 1.384 . S
C170 C171 1.372 . S
C171 C170 1.372 . S
C171 C172 1.400 . S
C171 C176 1.490 . S
C172 H162 0.930 . S
C172 C171 1.400 . S
C172 C175 1.386 . S
H173 C189 0.930 . S
H174 C190 0.931 . S
C175 H163 0.929 . S
C175 C169 1.390 . S
C175 C172 1.386 . S
C176 C171 1.490 . S
C176 C178 1.395 . S
C176 C179 1.403 . S
H177 C183 0.930 . S
C178 H164 0.930 . S
C178 C176 1.395 . S
C178 C181 1.403 . S
C179 C176 1.403 . S
C179 C180 1.524 . S
C179 C183 1.400 . S
C180 H165 0.960 . S
C180 H166 0.960 . S
C180 H167 0.960 . S
C180 C179 1.524 . S
C181 C178 1.403 . S
C181 C182 1.392 . S
C181 C185 1.495 . S
C182 C181 1.392 . S
C182 C183 1.385 . S
C182 C184 1.478 . S
C183 H177 0.930 . S
C183 C179 1.400 . S
C183 C182 1.385 . S
C184 C182 1.478 . S
C184 C186 1.381 . S
C184 C190 1.383 . S
C185 C181 1.495 . S
C185 H191 0.959 . S
C185 H192 0.961 . S
C185 H193 0.960 . S
C186 C184 1.381 . S
C186 C187 1.394 . S
C186 H194 0.930 . S
C187 C186 1.394 . S
C187 C188 1.383 . S
C187 H195 0.929 . S
C188 C187 1.383 . S
C188 C189 1.377 . S
C189 H173 0.930 . S
C189 C188 1.377 . S
C189 C190 1.379 . S
C190 H174 0.931 . S
C190 C184 1.383 . S
C190 C189 1.379 . S
H191 C185 0.959 . S
H192 C185 0.961 . S
H193 C185 0.960 . S
H194 C186 0.930 . S
H195 C187 0.929 . S
H196 C204 0.929 . S
H197 C206 0.930 . S
H198 C208 0.930 . S
H199 C211 0.929 . S
H200 C214 0.945 . S
H201 C216 0.960 . S
H202 C216 0.960 . S
H203 C216 0.960 . S
C204 H196 0.929 . S
C204 C205 1.377 . S
C204 C206 1.384 . S
C205 C204 1.377 . S
C205 C211 1.390 . S
C206 H197 0.930 . S
C206 C204 1.384 . S
C206 C207 1.372 . S
C207 C206 1.372 . S
C207 C208 1.400 . S
C207 C212 1.490 . S
C208 H198 0.930 . S
C208 C207 1.400 . S
C208 C211 1.386 . S
H209 C225 0.930 . S
H210 C226 0.931 . S
C211 H199 0.929 . S
C211 C205 1.390 . S
C211 C208 1.386 . S
C212 C207 1.490 . S
C212 C214 1.444 . S
C212 C215 1.403 . S
H213 C219 0.930 . S
C214 H200 0.945 . S
C214 C212 1.444 . S
C214 C217 1.343 1_556 S
C215 C212 1.403 . S
C215 C216 1.524 . S
C215 C219 1.400 1_556 S
C216 H201 0.960 . S
C216 H202 0.960 . S
C216 H203 0.960 . S
C216 C215 1.524 . S
C217 C214 1.343 1_554 S
C217 C218 1.392 . S
C217 C221 1.495 . S
C218 C217 1.392 . S
C218 C219 1.385 . S
C218 C220 1.478 . S
C219 H213 0.930 . S
C219 C215 1.400 1_554 S
C219 C218 1.385 . S
C220 C218 1.478 . S
C220 C222 1.381 . S
C220 C226 1.383 . S
C221 C217 1.495 . S
C221 H227 0.959 . S
C221 H228 0.961 . S
C221 H229 0.960 . S
C222 C220 1.381 . S
C222 C223 1.394 . S
C222 H230 0.930 . S
C223 C222 1.394 . S
C223 C224 1.383 . S
C223 H231 0.929 . S
C224 C223 1.383 . S
C224 C225 1.377 . S
C225 H209 0.930 . S
C225 C224 1.377 . S
C225 C226 1.379 . S
C226 H210 0.931 . S
C226 C220 1.383 . S
C226 C225 1.379 . S
H227 C221 0.959 . S
H228 C221 0.961 . S
H229 C221 0.960 . S
H230 C222 0.930 . S
H231 C223 0.929 . S
H232 C240 0.929 1_455 S
H233 C242 0.930 . S
H234 C244 0.930 . S
H235 C247 0.929 . S
H236 C250 0.930 . S
H237 C252 0.960 . S
H238 C252 0.960 . S
H239 C252 0.960 . S
C240 H232 0.929 1_655 S
C240 C241 1.377 . S
C240 C242 1.384 . S
C241 C240 1.377 . S
C241 C247 1.390 . S
C242 H233 0.930 . S
C242 C240 1.384 . S
C242 C243 1.372 . S
C243 C242 1.372 . S
C243 C244 1.400 . S
C243 C248 1.490 . S
C244 H234 0.930 . S
C244 C243 1.400 . S
C244 C247 1.386 . S
H245 C261 0.930 . S
H246 C262 0.931 . S
C247 H235 0.929 . S
C247 C241 1.390 . S
C247 C244 1.386 . S
C248 C243 1.490 . S
C248 C250 1.395 . S
C248 C251 1.403 . S
H249 C255 0.930 . S
C250 H236 0.930 . S
C250 C248 1.395 . S
C250 C253 1.403 . S
C251 C248 1.403 . S
C251 C252 1.524 . S
C251 C255 1.400 . S
C252 H237 0.960 . S
C252 H238 0.960 . S
C252 H239 0.960 . S
C252 C251 1.524 . S
C253 C250 1.403 . S
C253 C254 1.392 . S
C253 C257 1.495 . S
C254 C253 1.392 . S
C254 C255 1.385 . S
C254 C256 1.478 . S
C255 H249 0.930 . S
C255 C251 1.400 . S
C255 C254 1.385 . S
C256 C254 1.478 . S
C256 C258 1.381 . S
C256 C262 1.383 . S
C257 C253 1.495 . S
C257 H263 0.959 . S
C257 H264 0.961 . S
C257 H265 0.960 . S
C258 C256 1.381 . S
C258 C259 1.394 . S
C258 H266 0.930 . S
C259 C258 1.394 . S
C259 C260 1.383 . S
C259 H267 0.929 . S
C260 C259 1.383 . S
C260 C261 1.377 . S
C261 H245 0.930 . S
C261 C260 1.377 . S
C261 C262 1.379 . S
C262 H246 0.931 . S
C262 C256 1.383 . S
C262 C261 1.379 . S
H263 C257 0.959 . S
H264 C257 0.961 . S
H265 C257 0.960 . S
H266 C258 0.930 . S
H267 C259 0.929 . S
H268 C276 0.929 . S
H269 C278 0.930 . S
H270 C280 0.930 . S
H271 C283 0.929 . S
H272 C286 0.930 . S
H273 C288 0.960 . S
H274 C288 0.960 . S
H275 C288 0.960 . S
C276 H268 0.929 . S
C276 C277 1.377 . S
C276 C278 1.384 . S
C277 C276 1.377 . S
C277 C283 1.390 . S
C278 H269 0.930 . S
C278 C276 1.384 . S
C278 C279 1.372 . S
C279 C278 1.372 . S
C279 C280 1.400 . S
C279 C284 1.490 . S
C280 H270 0.930 . S
C280 C279 1.400 . S
C280 C283 1.386 . S
H281 C297 0.930 . S
H282 C298 0.931 . S
C283 H271 0.929 . S
C283 C277 1.390 . S
C283 C280 1.386 . S
C284 C279 1.490 . S
C284 C286 1.395 . S
C284 C287 1.403 . S
H285 C291 0.930 . S
C286 H272 0.930 . S
C286 C284 1.395 . S
C286 C289 1.403 . S
C287 C284 1.403 . S
C287 C288 1.524 . S
C287 C291 1.400 . S
C288 H273 0.960 . S
C288 H274 0.960 . S
C288 H275 0.960 . S
C288 C287 1.524 . S
C289 C286 1.403 . S
C289 C290 1.392 . S
C289 C293 1.495 . S
C290 C289 1.392 . S
C290 C291 1.385 . S
C290 C292 1.478 . S
C291 H285 0.930 . S
C291 C287 1.400 . S
C291 C290 1.385 . S
C292 C290 1.478 . S
C292 C294 1.381 . S
C292 C298 1.383 . S
C293 C289 1.495 . S
C293 H299 0.959 . S
C293 H300 0.961 . S
C293 H301 0.960 . S
C294 C292 1.381 . S
C294 C295 1.394 . S
C294 H302 0.930 . S
C295 C294 1.394 . S
C295 C296 1.383 . S
C295 H303 0.929 . S
C296 C295 1.383 . S
C296 C297 1.377 . S
C297 H281 0.930 . S
C297 C296 1.377 . S
C297 C298 1.379 . S
C298 H282 0.931 . S
C298 C292 1.383 . S
C298 C297 1.379 . S
H299 C293 0.959 . S
H300 C293 0.961 . S
H301 C293 0.960 . S
H302 C294 0.930 . S
H303 C295 0.929 . S
H304 C312 0.929 . S
H305 C314 0.930 . S
H306 C316 0.930 . S
H307 C319 0.929 . S
H308 C322 0.930 . S
H309 C324 0.960 . S
H310 C324 0.960 . S
H311 C324 0.960 . S
C312 H304 0.929 . S
C312 C313 1.377 . S
C312 C314 1.384 . S
C313 C312 1.377 . S
C313 C319 1.390 . S
C314 H305 0.930 . S
C314 C312 1.384 . S
C314 C315 1.372 . S
C315 C314 1.372 . S
C315 C316 1.400 . S
C315 C320 1.490 . S
C316 H306 0.930 . S
C316 C315 1.400 . S
C316 C319 1.386 . S
H317 C333 0.930 . S
H318 C334 0.931 . S
C319 H307 0.929 . S
C319 C313 1.390 . S
C319 C316 1.386 . S
C320 C315 1.490 . S
C320 C322 1.395 . S
C320 C323 1.403 . S
H321 C327 0.930 . S
C322 H308 0.930 . S
C322 C320 1.395 . S
C322 C325 1.403 . S
C323 C320 1.403 . S
C323 C324 1.524 . S
C323 C327 1.400 . S
C324 H309 0.960 . S
C324 H310 0.960 . S
C324 H311 0.960 . S
C324 C323 1.524 . S
C325 C322 1.403 . S
C325 C326 1.392 . S
C325 C329 1.495 . S
C326 C325 1.392 . S
C326 C327 1.385 . S
C326 C328 1.478 . S
C327 H321 0.930 . S
C327 C323 1.400 . S
C327 C326 1.385 . S
C328 C326 1.478 . S
C328 C330 1.381 . S
C328 C334 1.383 . S
C329 C325 1.495 . S
C329 H335 0.959 . S
C329 H336 0.961 . S
C329 H337 0.960 . S
C330 C328 1.381 . S
C330 C331 1.394 . S
C330 H338 0.930 . S
C331 C330 1.394 . S
C331 C332 1.383 . S
C331 H339 0.929 . S
C332 C331 1.383 . S
C332 C333 1.377 . S
C333 H317 0.930 . S
C333 C332 1.377 . S
C333 C334 1.379 . S
C334 H318 0.931 . S
C334 C328 1.383 . S
C334 C333 1.379 . S
H335 C329 0.959 . S
H336 C329 0.961 . S
H337 C329 0.960 . S
H338 C330 0.930 . S
H339 C331 0.929 . S
H340 C348 0.929 . S
H341 C350 0.930 . S
H342 C352 0.930 . S
H343 C355 0.929 . S
H344 C358 0.928 . S
H345 C360 0.960 . S
H346 C360 0.960 . S
H347 C360 0.960 . S
C348 H340 0.929 . S
C348 C349 1.377 . S
C348 C350 1.384 . S
C349 C348 1.377 . S
C349 C355 1.390 . S
C350 H341 0.930 . S
C350 C348 1.384 . S
C350 C351 1.372 . S
C351 C350 1.372 . S
C351 C352 1.400 . S
C351 C356 1.490 . S
C352 H342 0.930 . S
C352 C351 1.400 . S
C352 C355 1.386 . S
H353 C369 0.930 . S
H354 C370 0.931 . S
C355 H343 0.929 . S
C355 C349 1.390 . S
C355 C352 1.386 . S
C356 C351 1.490 . S
C356 C358 1.393 1_565 S
C356 C359 1.403 . S
H357 C363 0.933 . S
C358 H344 0.928 . S
C358 C356 1.393 1_545 S
C358 C361 1.408 1_556 S
C359 C356 1.403 . S
C359 C360 1.524 . S
C359 C363 1.395 1_566 S
C360 H345 0.960 . S
C360 H346 0.960 . S
C360 H347 0.960 . S
C360 C359 1.524 . S
C361 C358 1.408 1_554 S
C361 C362 1.392 . S
C361 C365 1.495 . S
C362 C361 1.392 . S
C362 C363 1.387 . S
C362 C364 1.478 . S
C363 H357 0.933 . S
C363 C359 1.395 1_544 S
C363 C362 1.387 . S
C364 C362 1.478 . S
C364 C366 1.381 . S
C364 C370 1.383 . S
C365 C361 1.495 . S
C365 H371 0.959 . S
C365 H372 0.961 . S
C365 H373 0.960 . S
C366 C364 1.381 . S
C366 C367 1.394 . S
C366 H374 0.930 . S
C367 C366 1.394 . S
C367 C368 1.383 . S
C367 H375 0.929 . S
C368 C367 1.383 . S
C368 C369 1.377 . S
C369 H353 0.930 . S
C369 C368 1.377 . S
C369 C370 1.379 . S
C370 H354 0.931 . S
C370 C364 1.383 . S
C370 C369 1.379 . S
H371 C365 0.959 . S
H372 C365 0.961 . S
H373 C365 0.960 . S
H374 C366 0.930 . S
H375 C367 0.929 . S
H376 C384 0.929 . S
H377 C386 0.930 1_665 S
H378 C388 0.930 . S
H379 C391 0.929 . S
H380 C394 0.930 . S
H381 C396 0.960 . S
H382 C396 0.960 . S
H383 C396 0.960 . S
C384 H376 0.929 . S
C384 C385 1.377 . S
C384 C386 1.384 . S
C385 C384 1.377 . S
C385 C391 1.390 . S
C386 H377 0.930 1_445 S
C386 C384 1.384 . S
C386 C387 1.372 . S
C387 C386 1.372 . S
C387 C388 1.400 . S
C387 C392 1.490 . S
C388 H378 0.930 . S
C388 C387 1.400 . S
C388 C391 1.386 . S
H389 C405 0.930 . S
H390 C406 0.931 1_545 S
C391 H379 0.929 . S
C391 C385 1.390 . S
C391 C388 1.386 . S
C392 C387 1.490 . S
C392 C394 1.395 1_545 S
C392 C395 1.403 1_455 S
H393 C399 0.930 . S
C394 H380 0.930 . S
C394 C392 1.395 1_565 S
C394 C397 1.403 . S
C395 C392 1.403 1_655 S
C395 C396 1.524 . S
C395 C399 1.400 . S
C396 H381 0.960 . S
C396 H382 0.960 . S
C396 H383 0.960 . S
C396 C395 1.524 . S
C397 C394 1.403 . S
C397 C398 1.394 . S
C397 C401 1.495 . S
C398 C397 1.394 . S
C398 C399 1.384 1_465 S
C398 C400 1.477 1_455 S
C399 H393 0.930 . S
C399 C395 1.400 . S
C399 C398 1.384 1_645 S
C400 C398 1.477 1_655 S
C400 C402 1.381 . S
C400 C406 1.383 1_655 S
C401 C397 1.495 . S
C401 H407 0.959 . S
C401 H408 0.961 . S
C401 H409 0.960 . S
C402 C400 1.381 . S
C402 C403 1.394 . S
C402 H410 0.930 . S
C403 C402 1.394 . S
C403 C404 1.383 . S
C403 H411 0.929 . S
C404 C403 1.383 . S
C404 C405 1.377 1_655 S
C405 H389 0.930 . S
C405 C404 1.377 1_455 S
C405 C406 1.379 . S
C406 H390 0.931 1_565 S
C406 C400 1.383 1_455 S
C406 C405 1.379 . S
H407 C401 0.959 . S
H408 C401 0.961 . S
H409 C401 0.960 . S
H410 C402 0.930 . S
H411 C403 0.929 . S
H412 C420 0.929 . S
H413 C422 0.930 . S
H414 C424 0.930 . S
H415 C427 0.929 . S
H416 C430 0.930 . S
H417 C432 0.960 . S
H418 C432 0.960 . S
H419 C432 0.960 1_655 S
C420 H412 0.929 . S
C420 C421 1.377 1_455 S
C420 C422 1.384 1_545 S
C421 C420 1.377 1_655 S
C421 C427 1.390 1_545 S
C422 H413 0.930 . S
C422 C420 1.384 1_565 S
C422 C423 1.372 . S
C423 C422 1.372 . S
C423 C424 1.400 1_455 S
C423 C428 1.490 . S
C424 H414 0.930 . S
C424 C423 1.400 1_655 S
C424 C427 1.386 . S
H425 C441 0.930 . S
H426 C442 0.931 . S
C427 H415 0.929 . S
C427 C421 1.390 1_565 S
C427 C424 1.386 . S
C428 C423 1.490 . S
C428 C430 1.395 . S
C428 C431 1.403 . S
H429 C435 0.930 . S
C430 H416 0.930 . S
C430 C428 1.395 . S
C430 C433 1.403 . S
C431 C428 1.403 . S
C431 C432 1.524 . S
C431 C435 1.400 . S
C432 H417 0.960 . S
C432 H418 0.960 . S
C432 H419 0.960 1_455 S
C432 C431 1.524 . S
C433 C430 1.403 . S
C433 C434 1.392 . S
C433 C437 1.495 . S
C434 C433 1.392 . S
C434 C435 1.385 . S
C434 C436 1.478 . S
C435 H429 0.930 . S
C435 C431 1.400 . S
C435 C434 1.385 . S
C436 C434 1.478 . S
C436 C438 1.381 . S
C436 C442 1.383 1_455 S
C437 C433 1.495 . S
C437 H443 0.959 . S
C437 H444 0.961 1_455 S
C437 H445 0.960 . S
C438 C436 1.381 . S
C438 C439 1.394 . S
C438 H446 0.930 . S
C439 C438 1.394 . S
C439 C440 1.383 . S
C439 H447 0.929 . S
C440 C439 1.383 . S
C440 C441 1.377 1_455 S
C441 H425 0.930 . S
C441 C440 1.377 1_655 S
C441 C442 1.379 . S
C442 H426 0.931 . S
C442 C436 1.383 1_655 S
C442 C441 1.379 . S
H443 C437 0.959 . S
H444 C437 0.961 1_655 S
H445 C437 0.960 . S
H446 C438 0.930 . S
H447 C439 0.929 . S
H448 C456 0.929 . S
H449 C458 0.930 . S
H450 C460 0.930 . S
H451 C463 0.929 . S
H452 C466 0.930 . S
H453 C468 0.960 . S
H454 C468 0.960 . S
H455 C468 0.960 . S
C456 H448 0.929 . S
C456 C457 1.377 . S
C456 C458 1.384 . S
C457 C456 1.377 . S
C457 C463 1.390 . S
C458 H449 0.930 . S
C458 C456 1.384 . S
C458 C459 1.372 . S
C459 C458 1.372 . S
C459 C460 1.400 . S
C459 C464 1.490 . S
C460 H450 0.930 . S
C460 C459 1.400 . S
C460 C463 1.386 . S
H461 C477 0.930 . S
H462 C478 0.931 . S
C463 H451 0.929 . S
C463 C457 1.390 . S
C463 C460 1.386 . S
C464 C459 1.490 . S
C464 C466 1.395 . S
C464 C467 1.403 . S
H465 C471 0.930 . S
C466 H452 0.930 . S
C466 C464 1.395 . S
C466 C469 1.403 . S
C467 C464 1.403 . S
C467 C468 1.524 . S
C467 C471 1.400 . S
C468 H453 0.960 . S
C468 H454 0.960 . S
C468 H455 0.960 . S
C468 C467 1.524 . S
C469 C466 1.403 . S
C469 C470 1.392 . S
C469 C473 1.495 . S
C470 C469 1.392 . S
C470 C471 1.385 . S
C470 C472 1.478 . S
C471 H465 0.930 . S
C471 C467 1.400 . S
C471 C470 1.385 . S
C472 C470 1.478 . S
C472 C474 1.381 . S
C472 C478 1.383 . S
C473 C469 1.495 . S
C473 H479 0.959 . S
C473 H480 0.961 . S
C473 H481 0.960 . S
C474 C472 1.381 . S
C474 C475 1.394 . S
C474 H482 0.930 . S
C475 C474 1.394 . S
C475 C476 1.383 . S
C475 H483 0.929 . S
C476 C475 1.383 . S
C476 C477 1.377 . S
C477 H461 0.930 . S
C477 C476 1.377 . S
C477 C478 1.379 . S
C478 H462 0.931 . S
C478 C472 1.383 . S
C478 C477 1.379 . S
H479 C473 0.959 . S
H480 C473 0.961 . S
H481 C473 0.960 . S
H482 C474 0.930 . S
H483 C475 0.929 . S
H484 C492 0.929 . S
H485 C494 0.930 . S
H486 C496 0.930 . S
H487 C499 0.929 . S
H488 C502 0.930 . S
H489 C504 0.960 . S
H490 C504 0.960 . S
H491 C504 0.960 . S
C492 H484 0.929 . S
C492 C493 1.377 . S
C492 C494 1.384 . S
C493 C492 1.377 . S
C493 C499 1.390 . S
C494 H485 0.930 . S
C494 C492 1.384 . S
C494 C495 1.372 . S
C495 C494 1.372 . S
C495 C496 1.400 . S
C495 C500 1.490 . S
C496 H486 0.930 . S
C496 C495 1.400 . S
C496 C499 1.386 . S
H497 C513 0.930 . S
H498 C514 0.931 . S
C499 H487 0.929 . S
C499 C493 1.390 . S
C499 C496 1.386 . S
C500 C495 1.490 . S
C500 C502 1.395 . S
C500 C503 1.403 . S
H501 C507 0.930 . S
C502 H488 0.930 . S
C502 C500 1.395 . S
C502 C505 1.403 . S
C503 C500 1.403 . S
C503 C504 1.524 . S
C503 C507 1.400 . S
C504 H489 0.960 . S
C504 H490 0.960 . S
C504 H491 0.960 . S
C504 C503 1.524 . S
C505 C502 1.403 . S
C505 C506 1.392 . S
C505 C509 1.495 . S
C506 C505 1.392 . S
C506 C507 1.385 . S
C506 C508 1.478 . S
C507 H501 0.930 . S
C507 C503 1.400 . S
C507 C506 1.385 . S
C508 C506 1.478 . S
C508 C510 1.381 . S
C508 C514 1.383 . S
C509 C505 1.495 . S
C509 H515 0.959 . S
C509 H516 0.961 . S
C509 H517 0.960 . S
C510 C508 1.381 . S
C510 C511 1.394 1_545 S
C510 H518 0.930 . S
C511 C510 1.394 1_565 S
C511 C512 1.383 . S
C511 H519 0.929 . S
C512 C511 1.383 . S
C512 C513 1.377 1_565 S
C513 H497 0.930 . S
C513 C512 1.377 1_545 S
C513 C514 1.379 . S
C514 H498 0.931 . S
C514 C508 1.383 . S
C514 C513 1.379 . S
H515 C509 0.959 . S
H516 C509 0.961 . S
H517 C509 0.960 . S
H518 C510 0.930 . S
H519 C511 0.929 . S
H520 C528 0.929 . S
H521 C530 0.930 . S
H522 C532 0.930 . S
H523 C535 0.929 . S
H524 C538 0.930 . S
H525 C540 0.960 . S
H526 C540 0.960 . S
H527 C540 0.960 . S
C528 H520 0.929 . S
C528 C529 1.377 . S
C528 C530 1.384 . S
C529 C528 1.377 . S
C529 C535 1.390 . S
C530 H521 0.930 . S
C530 C528 1.384 . S
C530 C531 1.372 . S
C531 C530 1.372 . S
C531 C532 1.400 . S
C531 C536 1.490 . S
C532 H522 0.930 . S
C532 C531 1.400 . S
C532 C535 1.386 . S
H533 C549 0.930 . S
H534 C550 0.931 . S
C535 H523 0.929 . S
C535 C529 1.390 . S
C535 C532 1.386 . S
C536 C531 1.490 . S
C536 C538 1.395 . S
C536 C539 1.403 . S
H537 C543 0.930 . S
C538 H524 0.930 . S
C538 C536 1.395 . S
C538 C541 1.403 1_455 S
C539 C536 1.403 . S
C539 C540 1.524 . S
C539 C543 1.400 1_455 S
C540 H525 0.960 . S
C540 H526 0.960 . S
C540 H527 0.960 . S
C540 C539 1.524 . S
C541 C538 1.403 1_655 S
C541 C542 1.392 . S
C541 C545 1.495 . S
C542 C541 1.392 . S
C542 C543 1.385 . S
C542 C544 1.478 . S
C543 H537 0.930 . S
C543 C539 1.400 1_655 S
C543 C542 1.385 . S
C544 C542 1.478 . S
C544 C546 1.381 . S
C544 C550 1.383 . S
C545 C541 1.495 . S
C545 H551 0.959 . S
C545 H552 0.961 . S
C545 H553 0.960 . S
C546 C544 1.381 . S
C546 C547 1.394 . S
C546 H554 0.930 . S
C547 C546 1.394 . S
C547 C548 1.383 . S
C547 H555 0.929 . S
C548 C547 1.383 . S
C548 C549 1.377 . S
C549 H533 0.930 . S
C549 C548 1.377 . S
C549 C550 1.379 . S
C550 H534 0.931 . S
C550 C544 1.383 . S
C550 C549 1.379 . S
H551 C545 0.959 . S
H552 C545 0.961 . S
H553 C545 0.960 . S
H554 C546 0.930 . S
H555 C547 0.929 . S
H556 C564 0.929 . S
H557 C566 0.930 . S
H558 C568 0.930 . S
H559 C571 0.929 . S
H560 C574 0.930 . S
H561 C576 0.960 . S
H562 C576 0.960 . S
H563 C576 0.960 . S
C564 H556 0.929 . S
C564 C565 1.377 1_655 S
C564 C566 1.384 1_565 S
C565 C564 1.377 1_455 S
C565 C571 1.390 1_565 S
C566 H557 0.930 . S
C566 C564 1.384 1_545 S
C566 C567 1.372 1_655 S
C567 C566 1.372 1_455 S
C567 C568 1.400 . S
C567 C572 1.490 . S
C568 H558 0.930 . S
C568 C567 1.400 . S
C568 C571 1.386 . S
H569 C585 0.930 . S
H570 C586 0.931 . S
C571 H559 0.929 . S
C571 C565 1.390 1_545 S
C571 C568 1.386 . S
C572 C567 1.490 . S
C572 C574 1.395 1_455 S
C572 C575 1.403 . S
H573 C579 0.930 . S
C574 H560 0.930 . S
C574 C572 1.395 1_655 S
C574 C577 1.403 . S
C575 C572 1.403 . S
C575 C576 1.524 . S
C575 C579 1.400 . S
C576 H561 0.960 . S
C576 H562 0.960 . S
C576 H563 0.960 . S
C576 C575 1.524 . S
C577 C574 1.403 . S
C577 C578 1.392 . S
C577 C581 1.495 . S
C578 C577 1.392 . S
C578 C579 1.385 1_655 S
C578 C580 1.478 . S
C579 H573 0.930 . S
C579 C575 1.400 . S
C579 C578 1.385 1_455 S
C580 C578 1.478 . S
C580 C582 1.381 . S
C580 C586 1.383 1_655 S
C581 C577 1.495 . S
C581 H587 0.959 . S
C581 H588 0.961 . S
C581 H589 0.960 . S
C582 C580 1.381 . S
C582 C583 1.394 . S
C582 H590 0.930 . S
C583 C582 1.394 . S
C583 C584 1.383 . S
C583 H591 0.929 . S
C584 C583 1.383 . S
C584 C585 1.377 1_655 S
C585 H569 0.930 . S
C585 C584 1.377 1_455 S
C585 C586 1.379 . S
C586 H570 0.931 . S
C586 C580 1.383 1_455 S
C586 C585 1.379 . S
H587 C581 0.959 . S
H588 C581 0.961 . S
H589 C581 0.960 . S
H590 C582 0.930 . S
H591 C583 0.929 . S
H592 C600 0.929 . S
H593 C602 0.930 . S
H594 C604 0.930 . S
H595 C607 0.929 . S
H596 C610 0.932 . S
H597 C612 0.960 . S
H598 C612 0.960 . S
H599 C612 0.960 . S
C600 H592 0.929 . S
C600 C601 1.377 . S
C600 C602 1.384 . S
C601 C600 1.377 . S
C601 C607 1.390 . S
C602 H593 0.930 . S
C602 C600 1.384 . S
C602 C603 1.372 . S
C603 C602 1.372 . S
C603 C604 1.400 . S
C603 C608 1.490 . S
C604 H594 0.930 . S
C604 C603 1.400 . S
C604 C607 1.386 . S
H605 C621 0.930 . S
H606 C622 0.931 . S
C607 H595 0.929 . S
C607 C601 1.390 . S
C607 C604 1.386 . S
C608 C603 1.490 . S
C608 C610 1.396 . S
C608 C611 1.403 . S
H609 C615 0.930 . S
C610 H596 0.932 . S
C610 C608 1.396 . S
C610 C613 1.400 1_655 S
C611 C608 1.403 . S
C611 C612 1.524 . S
C611 C615 1.400 1_655 S
C612 H597 0.960 . S
C612 H598 0.960 . S
C612 H599 0.960 . S
C612 C611 1.524 . S
C613 C610 1.400 1_455 S
C613 C614 1.392 . S
C613 C617 1.495 . S
C614 C613 1.392 . S
C614 C615 1.385 . S
C614 C616 1.478 . S
C615 H609 0.930 . S
C615 C611 1.400 1_455 S
C615 C614 1.385 . S
C616 C614 1.478 . S
C616 C618 1.381 . S
C616 C622 1.383 . S
C617 C613 1.495 . S
C617 H623 0.959 . S
C617 H624 0.961 . S
C617 H625 0.960 . S
C618 C616 1.381 . S
C618 C619 1.394 . S
C618 H626 0.930 . S
C619 C618 1.394 . S
C619 C620 1.383 . S
C619 H627 0.929 . S
C620 C619 1.383 . S
C620 C621 1.377 . S
C621 H605 0.930 . S
C621 C620 1.377 . S
C621 C622 1.379 . S
C622 H606 0.931 . S
C622 C616 1.383 . S
C622 C621 1.379 . S
H623 C617 0.959 . S
H624 C617 0.961 . S
H625 C617 0.960 . S
H626 C618 0.930 . S
H627 C619 0.929 . S
H628 C636 0.929 . S
H629 C638 0.930 . S
H630 C640 0.930 . S
H631 C643 0.929 . S
H632 C646 0.930 . S
H633 C648 0.960 . S
H634 C648 0.960 . S
H635 C648 0.960 . S
C636 H628 0.929 . S
C636 C637 1.377 . S
C636 C638 1.384 . S
C637 C636 1.377 . S
C637 C643 1.390 . S
C638 H629 0.930 . S
C638 C636 1.384 . S
C638 C639 1.372 . S
C639 C638 1.372 . S
C639 C640 1.400 . S
C639 C644 1.490 . S
C640 H630 0.930 . S
C640 C639 1.400 . S
C640 C643 1.386 . S
H641 C657 0.930 1_545 S
H642 C658 0.931 . S
C643 H631 0.929 . S
C643 C637 1.390 . S
C643 C640 1.386 . S
C644 C639 1.490 . S
C644 C646 1.395 . S
C644 C647 1.403 . S
H645 C651 0.930 . S
C646 H632 0.930 . S
C646 C644 1.395 . S
C646 C649 1.403 . S
C647 C644 1.403 . S
C647 C648 1.524 . S
C647 C651 1.400 . S
C648 H633 0.960 . S
C648 H634 0.960 . S
C648 H635 0.960 . S
C648 C647 1.524 . S
C649 C646 1.403 . S
C649 C650 1.392 . S
C649 C653 1.495 . S
C650 C649 1.392 . S
C650 C651 1.385 . S
C650 C652 1.478 . S
C651 H645 0.930 . S
C651 C647 1.400 . S
C651 C650 1.385 . S
C652 C650 1.478 . S
C652 C654 1.381 . S
C652 C658 1.383 . S
C653 C649 1.495 . S
C653 H659 0.959 . S
C653 H660 0.961 . S
C653 H661 0.960 . S
C654 C652 1.381 . S
C654 C655 1.394 . S
C654 H662 0.930 . S
C655 C654 1.394 . S
C655 C656 1.383 1_565 S
C655 H663 0.929 . S
C656 C655 1.383 1_545 S
C656 C657 1.377 1_545 S
C657 H641 0.930 1_565 S
C657 C656 1.377 1_565 S
C657 C658 1.379 . S
C658 H642 0.931 . S
C658 C652 1.383 . S
C658 C657 1.379 . S
H659 C653 0.959 . S
H660 C653 0.961 . S
H661 C653 0.960 . S
H662 C654 0.930 . S
H663 C655 0.929 . S
H664 C672 0.929 . S
H665 C674 0.930 . S
H666 C676 0.930 . S
H667 C679 0.929 . S
H668 C682 0.930 . S
H669 C684 0.960 . S
H670 C684 0.960 . S
H671 C684 0.960 . S
C672 H664 0.929 . S
C672 C673 1.377 . S
C672 C674 1.384 . S
C673 C672 1.377 . S
C673 C679 1.390 . S
C674 H665 0.930 . S
C674 C672 1.384 . S
C674 C675 1.372 . S
C675 C674 1.372 . S
C675 C676 1.400 . S
C675 C680 1.490 . S
C676 H666 0.930 . S
C676 C675 1.400 . S
C676 C679 1.386 . S
H677 C693 0.930 . S
H678 C694 0.931 . S
C679 H667 0.929 . S
C679 C673 1.390 . S
C679 C676 1.386 . S
C680 C675 1.490 . S
C680 C682 1.395 . S
C680 C683 1.403 . S
H681 C687 0.930 . S
C682 H668 0.930 . S
C682 C680 1.395 . S
C682 C685 1.403 . S
C683 C680 1.403 . S
C683 C684 1.524 . S
C683 C687 1.400 . S
C684 H669 0.960 . S
C684 H670 0.960 . S
C684 H671 0.960 . S
C684 C683 1.524 . S
C685 C682 1.403 . S
C685 C686 1.392 . S
C685 C689 1.495 . S
C686 C685 1.392 . S
C686 C687 1.385 . S
C686 C688 1.478 . S
C687 H681 0.930 . S
C687 C683 1.400 . S
C687 C686 1.385 . S
C688 C686 1.478 . S
C688 C690 1.381 . S
C688 C694 1.383 . S
C689 C685 1.495 . S
C689 H695 0.959 . S
C689 H696 0.961 . S
C689 H697 0.960 . S
C690 C688 1.381 . S
C690 C691 1.394 . S
C690 H698 0.930 . S
C691 C690 1.394 . S
C691 C692 1.383 . S
C691 H699 0.929 . S
C692 C691 1.383 . S
C692 C693 1.377 . S
C693 H677 0.930 . S
C693 C692 1.377 . S
C693 C694 1.379 . S
C694 H678 0.931 . S
C694 C688 1.383 . S
C694 C693 1.379 . S
H695 C689 0.959 . S
H696 C689 0.961 . S
H697 C689 0.960 . S
H698 C690 0.930 . S
H699 C691 0.929 . S
C133 C1 1.220 . S
C152 C58 1.213 . S
C169 C89 1.838 . S
C188 C32 1.837 . S
C205 C62 1.304 . S
C224 C117 1.295 . S
C241 C24 1.272 . S
C260 C93 1.314 . S
C277 C94 1.832 . S
C296 C27 1.860 . S
C313 C31 1.254 . S
C332 C86 1.233 . S
C349 C63 1.208 . S
C368 C120 1.238 . S
C385 C0 1.291 . S
C404 C55 1.252 . S
C421 C18 1.628 . S
C440 C11 1.638 . S
C457 C41 1.217 . S
C476 C33 1.218 . S
C493 C80 1.625 . S
C512 C73 1.607 . S
C529 C95 1.209 . S
C548 C103 1.191 . S
C565 C42 1.622 . S
C584 C49 1.613 . S
C601 C72 1.215 . S
C620 C64 1.198 . S
C637 C104 1.622 . S
C656 C111 1.614 . S
C673 C2 1.217 . S
C692 C10 1.216 . S
