# Generated by pormake.
# Topology xfz, (5)-cn, num edge types: 1
# Building blocks:
#     Node 0, Type 0, BuildingBlock: XOMCOT_clean_sbu_1, # of connection points: 5
#     Node 1, Type 0, BuildingBlock: XOMCOT_clean_sbu_1, # of connection points: 5
#     Node 2, Type 0, BuildingBlock: XOMCOT_clean_sbu_1, # of connection points: 5
#     Node 3, Type 0, BuildingBlock: XOMCOT_clean_sbu_1, # of connection points: 5
#     Node 4, Type 0, BuildingBlock: XOMCOT_clean_sbu_1, # of connection points: 5
#     Node 5, Type 0, BuildingBlock: XOMCOT_clean_sbu_1, # of connection points: 5
#     Node 6, Type 0, BuildingBlock: XOMCOT_clean_sbu_1, # of connection points: 5
#     Node 7, Type 0, BuildingBlock: XOMCOT_clean_sbu_1, # of connection points: 5
#     Node 8, Type 0, BuildingBlock: XOMCOT_clean_sbu_1, # of connection points: 5
#     Node 9, Type 0, BuildingBlock: XOMCOT_clean_sbu_1, # of connection points: 5
#     Node 10, Type 0, BuildingBlock: XOMCOT_clean_sbu_1, # of connection points: 5
#     Node 11, Type 0, BuildingBlock: XOMCOT_clean_sbu_1, # of connection points: 5
#     Node 12, Type 0, BuildingBlock: XOMCOT_clean_sbu_1, # of connection points: 5
#     Node 13, Type 0, BuildingBlock: XOMCOT_clean_sbu_1, # of connection points: 5
#     Node 14, Type 0, BuildingBlock: XOMCOT_clean_sbu_1, # of connection points: 5
#     Node 15, Type 0, BuildingBlock: XOMCOT_clean_sbu_1, # of connection points: 5
#     Edge 16, Type (0, 0), BuildingBlock: EZIPEK_clean_linker_0, # of connection points: 2
#     Edge 17, Type (0, 0), BuildingBlock: EZIPEK_clean_linker_0, # of connection points: 2
#     Edge 18, Type (0, 0), BuildingBlock: EZIPEK_clean_linker_0, # of connection points: 2
#     Edge 19, Type (0, 0), BuildingBlock: EZIPEK_clean_linker_0, # of connection points: 2
#     Edge 20, Type (0, 0), BuildingBlock: EZIPEK_clean_linker_0, # of connection points: 2
#     Edge 21, Type (0, 0), BuildingBlock: EZIPEK_clean_linker_0, # of connection points: 2
#     Edge 22, Type (0, 0), BuildingBlock: EZIPEK_clean_linker_0, # of connection points: 2
#     Edge 23, Type (0, 0), BuildingBlock: EZIPEK_clean_linker_0, # of connection points: 2
#     Edge 24, Type (0, 0), BuildingBlock: EZIPEK_clean_linker_0, # of connection points: 2
#     Edge 25, Type (0, 0), BuildingBlock: EZIPEK_clean_linker_0, # of connection points: 2
#     Edge 26, Type (0, 0), BuildingBlock: EZIPEK_clean_linker_0, # of connection points: 2
#     Edge 27, Type (0, 0), BuildingBlock: EZIPEK_clean_linker_0, # of connection points: 2
#     Edge 28, Type (0, 0), BuildingBlock: EZIPEK_clean_linker_0, # of connection points: 2
#     Edge 29, Type (0, 0), BuildingBlock: EZIPEK_clean_linker_0, # of connection points: 2
#     Edge 30, Type (0, 0), BuildingBlock: EZIPEK_clean_linker_0, # of connection points: 2
#     Edge 31, Type (0, 0), BuildingBlock: EZIPEK_clean_linker_0, # of connection points: 2
#     Edge 32, Type (0, 0), BuildingBlock: EZIPEK_clean_linker_0, # of connection points: 2
#     Edge 33, Type (0, 0), BuildingBlock: EZIPEK_clean_linker_0, # of connection points: 2
#     Edge 34, Type (0, 0), BuildingBlock: EZIPEK_clean_linker_0, # of connection points: 2
#     Edge 35, Type (0, 0), BuildingBlock: EZIPEK_clean_linker_0, # of connection points: 2
#     Edge 36, Type (0, 0), BuildingBlock: EZIPEK_clean_linker_0, # of connection points: 2
#     Edge 37, Type (0, 0), BuildingBlock: EZIPEK_clean_linker_0, # of connection points: 2
#     Edge 38, Type (0, 0), BuildingBlock: EZIPEK_clean_linker_0, # of connection points: 2
#     Edge 39, Type (0, 0), BuildingBlock: EZIPEK_clean_linker_0, # of connection points: 2
#     Edge 40, Type (0, 0), BuildingBlock: EZIPEK_clean_linker_0, # of connection points: 2
#     Edge 41, Type (0, 0), BuildingBlock: EZIPEK_clean_linker_0, # of connection points: 2
#     Edge 42, Type (0, 0), BuildingBlock: EZIPEK_clean_linker_0, # of connection points: 2
#     Edge 43, Type (0, 0), BuildingBlock: EZIPEK_clean_linker_0, # of connection points: 2
#     Edge 44, Type (0, 0), BuildingBlock: EZIPEK_clean_linker_0, # of connection points: 2
#     Edge 45, Type (0, 0), BuildingBlock: EZIPEK_clean_linker_0, # of connection points: 2
#     Edge 46, Type (0, 0), BuildingBlock: EZIPEK_clean_linker_0, # of connection points: 2
#     Edge 47, Type (0, 0), BuildingBlock: EZIPEK_clean_linker_0, # of connection points: 2
#     Edge 48, Type (0, 0), BuildingBlock: EZIPEK_clean_linker_0, # of connection points: 2
#     Edge 49, Type (0, 0), BuildingBlock: EZIPEK_clean_linker_0, # of connection points: 2
#     Edge 50, Type (0, 0), BuildingBlock: EZIPEK_clean_linker_0, # of connection points: 2
#     Edge 51, Type (0, 0), BuildingBlock: EZIPEK_clean_linker_0, # of connection points: 2
#     Edge 52, Type (0, 0), BuildingBlock: EZIPEK_clean_linker_0, # of connection points: 2
#     Edge 53, Type (0, 0), BuildingBlock: EZIPEK_clean_linker_0, # of connection points: 2
#     Edge 54, Type (0, 0), BuildingBlock: EZIPEK_clean_linker_0, # of connection points: 2
#     Edge 55, Type (0, 0), BuildingBlock: EZIPEK_clean_linker_0, # of connection points: 2
# Relax obj value: 0.598
# Max RMSD: 0.324
# Mean RMSD: 0.324
data_MOF--net-xfz--node1-XOMCOT_clean_sbu_1--edge1-EZIPEK_clean_linker_0
_symmetry_space_group_name_H-M    P1
_symmetry_Int_Tables_number       1
_symmetry_cell_setting            triclinic
loop_
_symmetry_equiv_pos_as_xyz
'x, y, z'
_cell_length_a     28.318051
_cell_length_b     28.360005
_cell_length_c     46.992951
_cell_angle_alpha  89.811286
_cell_angle_beta   90.110404
_cell_angle_gamma 89.895863
loop_
_atom_site_label
_atom_site_type_symbol
_atom_site_fract_x
_atom_site_fract_y
_atom_site_fract_z
_atom_type_partial_charge
C0 C 0.19064 0.3396 0.33539 0.0
C1 C 0.1688 0.31764 0.31289 0.0
N2 N 0.13407 0.34612 0.30361 0.0
N3 N 0.1692 0.38132 0.34057 0.0
C4 C 0.13494 0.38426 0.32057 0.0
H5 H 0.22194 0.32698 0.34613 0.0
Co6 Co 0.1911 0.42617 0.3665 0.0
C7 C 0.10633 0.473 0.39252 0.0
O8 O 0.13132 0.51144 0.39611 0.0
N9 N 0.21573 0.47013 0.39251 0.0
C10 C 0.25765 0.52657 0.41374 0.0
C11 C 0.24519 0.50692 0.38798 0.0
C12 C 0.21147 0.46778 0.42112 0.0
N13 N 0.2365 0.50148 0.43436 0.0
O14 O 0.20026 0.37639 0.39424 0.0
H15 H 0.25766 0.51854 0.36744 0.0
H16 H 0.19022 0.44185 0.43216 0.0
O17 O 0.1255 0.43699 0.38063 0.0
C18 C 0.24357 0.36565 0.39798 0.0
O19 O 0.27576 0.39072 0.38471 0.0
N20 N 0.18556 0.47291 0.33787 0.0
C21 C 0.18518 0.52812 0.28878 0.0
C22 C 0.1455 0.52633 0.30626 0.0
C23 C 0.14625 0.49842 0.33062 0.0
C24 C 0.22466 0.47449 0.32096 0.0
C25 C 0.22547 0.50233 0.29635 0.0
H26 H 0.11374 0.49534 0.34194 0.0
H27 H 0.25506 0.45309 0.32637 0.0
H28 H 0.11265 0.41465 0.31722 0.0
H29 H 0.17932 0.28484 0.303 0.0
H30 H 0.28048 0.55661 0.41713 0.0
H31 H 0.11357 0.54535 0.30061 0.0
H32 H 0.25668 0.50291 0.28307 0.0
C33 C 0.39119 0.79914 0.66563 0.0
C34 C 0.3664 0.82285 0.68604 0.0
N35 N 0.36931 0.86923 0.68032 0.0
N36 N 0.4099 0.8304 0.64722 0.0
C37 C 0.39521 0.87307 0.6563 0.0
H38 H 0.39725 0.76151 0.66493 0.0
Co39 Co 0.4512 0.80894 0.62011 0.0
C40 C 0.50958 0.88894 0.59994 0.0
O41 O 0.54522 0.85925 0.6003 0.0
N42 N 0.49174 0.7839 0.59226 0.0
C43 C 0.54525 0.74574 0.56616 0.0
C44 C 0.529 0.75386 0.59333 0.0
C45 C 0.48586 0.79276 0.56425 0.0
N46 N 0.51763 0.77011 0.54812 0.0
O47 O 0.39914 0.80516 0.594 0.0
H48 H 0.54421 0.73869 0.61227 0.0
H49 H 0.4591 0.8161 0.55567 0.0
O50 O 0.46796 0.87444 0.60696 0.0
C51 C 0.38283 0.76335 0.59427 0.0
O52 O 0.40576 0.73076 0.60867 0.0
N53 N 0.49868 0.81007 0.64803 0.0
C54 C 0.55198 0.80831 0.69768 0.0
C55 C 0.53798 0.85111 0.68577 0.0
C56 C 0.51039 0.8512 0.66138 0.0
C57 C 0.51035 0.76788 0.66024 0.0
C58 C 0.53819 0.76609 0.68483 0.0
H59 H 0.49616 0.88457 0.65452 0.0
H60 H 0.49623 0.73554 0.65159 0.0
H61 H 0.4057 0.90621 0.64674 0.0
H62 H 0.34922 0.80752 0.70443 0.0
H63 H 0.57495 0.72392 0.56009 0.0
H64 H 0.54665 0.88423 0.69596 0.0
H65 H 0.54729 0.73241 0.6943 0.0
C66 C 0.80414 0.62765 0.32369 0.0
C67 C 0.82597 0.64937 0.30114 0.0
N68 N 0.87282 0.64414 0.30444 0.0
N69 N 0.83703 0.60815 0.34093 0.0
C70 C 0.8788 0.61994 0.32897 0.0
H71 H 0.76645 0.62525 0.32695 0.0
Co72 Co 0.82138 0.57114 0.37243 0.0
C73 C 0.91197 0.52952 0.39574 0.0
O74 O 0.888 0.49594 0.40831 0.0
N75 N 0.80311 0.53496 0.40432 0.0
C76 C 0.77192 0.47999 0.43253 0.0
C77 C 0.77924 0.49371 0.40476 0.0
C78 C 0.80881 0.54607 0.43216 0.0
N79 N 0.79047 0.51307 0.44965 0.0
O80 O 0.81924 0.62774 0.39484 0.0
H81 H 0.7675 0.47465 0.38619 0.0
H82 H 0.82658 0.57746 0.43959 0.0
O83 O 0.89018 0.56109 0.38104 0.0
C84 C 0.77647 0.64203 0.39497 0.0
O85 O 0.74391 0.61462 0.38395 0.0
N86 N 0.81847 0.51796 0.3482 0.0
C87 C 0.81402 0.46396 0.29905 0.0
C88 C 0.85161 0.45852 0.31806 0.0
C89 C 0.85261 0.4851 0.3429 0.0
C90 C 0.77879 0.51916 0.33166 0.0
C91 C 0.77578 0.49242 0.30681 0.0
H92 H 0.88199 0.4799 0.3567 0.0
H93 H 0.75071 0.54358 0.33672 0.0
H94 H 0.91292 0.61048 0.33755 0.0
H95 H 0.80891 0.66681 0.28335 0.0
H96 H 0.7539 0.44848 0.43968 0.0
H97 H 0.88097 0.43538 0.31316 0.0
H98 H 0.74549 0.49631 0.29289 0.0
C99 C 0.63727 0.19094 0.6581 0.0
C100 C 0.65879 0.16955 0.68087 0.0
N101 N 0.65447 0.12269 0.67769 0.0
N102 N 0.61955 0.15771 0.64066 0.0
C103 C 0.63097 0.11616 0.653 0.0
H104 H 0.63282 0.22848 0.65505 0.0
Co105 Co 0.58221 0.17501 0.61033 0.0
C106 C 0.54393 0.08799 0.58375 0.0
O107 O 0.50392 0.11108 0.58124 0.0
N108 N 0.54506 0.19566 0.5794 0.0
C109 C 0.48976 0.22546 0.55069 0.0
C110 C 0.50132 0.21504 0.57843 0.0
C111 C 0.55931 0.19534 0.55196 0.0
N112 N 0.52644 0.2131 0.53423 0.0
O113 O 0.63901 0.18736 0.58899 0.0
H114 H 0.47856 0.22111 0.5964 0.0
H115 H 0.59302 0.1819 0.54481 0.0
O116 O 0.57882 0.10912 0.59582 0.0
C117 C 0.65032 0.23082 0.59001 0.0
O118 O 0.62027 0.26073 0.60129 0.0
N119 N 0.52924 0.16607 0.63385 0.0
C120 C 0.46814 0.16199 0.68009 0.0
C121 C 0.48393 0.1206 0.66724 0.0
C122 C 0.51532 0.12332 0.64454 0.0
C123 C 0.51402 0.20672 0.64631 0.0
C124 C 0.48273 0.20556 0.66923 0.0
H125 H 0.53111 0.09085 0.63755 0.0
H126 H 0.528 0.2402 0.63916 0.0
H127 H 0.61975 0.08214 0.64521 0.0
H128 H 0.67449 0.1869 0.69905 0.0
H129 H 0.45722 0.24125 0.54313 0.0
H130 H 0.47452 0.08645 0.67593 0.0
H131 H 0.47188 0.23815 0.67926 0.0
C132 C 0.20675 0.66128 0.66308 0.0
C133 C 0.18675 0.68503 0.68544 0.0
N134 N 0.14545 0.66415 0.69162 0.0
N135 N 0.17793 0.62599 0.65482 0.0
C136 C 0.14042 0.62902 0.67253 0.0
H137 H 0.24142 0.66787 0.65439 0.0
Co138 Co 0.19606 0.58183 0.62749 0.0
C139 C 0.11012 0.52985 0.60912 0.0
O140 O 0.13569 0.4913 0.61097 0.0
N141 N 0.2161 0.5384 0.59928 0.0
C142 C 0.24465 0.47879 0.57357 0.0
C143 C 0.2371 0.49551 0.60073 0.0
C144 C 0.21181 0.54671 0.57104 0.0
N145 N 0.22913 0.51155 0.55502 0.0
O146 O 0.20145 0.633 0.60041 0.0
H147 H 0.24602 0.47684 0.62005 0.0
H148 H 0.19572 0.57794 0.56199 0.0
O149 O 0.12926 0.56916 0.61644 0.0
C150 C 0.245 0.64312 0.597 0.0
O151 O 0.27683 0.61663 0.60973 0.0
N152 N 0.19585 0.53516 0.65598 0.0
C153 C 0.20719 0.48469 0.70645 0.0
C154 C 0.1621 0.49308 0.69533 0.0
C155 C 0.1571 0.51851 0.67011 0.0
C156 C 0.24001 0.52737 0.6667 0.0
C157 C 0.24664 0.50113 0.69158 0.0
H158 H 0.12181 0.52696 0.66327 0.0
H159 H 0.27023 0.5428 0.65616 0.0
H160 H 0.11099 0.60484 0.67252 0.0
H161 H 0.2028 0.71313 0.69762 0.0
H162 H 0.26093 0.44558 0.56786 0.0
H163 H 0.1309 0.48118 0.70655 0.0
H164 H 0.28198 0.49529 0.69974 0.0
C165 C 0.67031 0.8314 0.32129 0.0
C166 C 0.69178 0.85466 0.29914 0.0
N167 N 0.66794 0.895 0.29449 0.0
N168 N 0.6337 0.85738 0.33088 0.0
C169 C 0.6336 0.89633 0.31427 0.0
H170 H 0.67906 0.79634 0.32867 0.0
Co171 Co 0.59035 0.83527 0.35738 0.0
C172 C 0.53938 0.91937 0.3809 0.0
O173 O 0.50113 0.89329 0.38123 0.0
N174 N 0.54767 0.81109 0.38444 0.0
C175 C 0.49019 0.77546 0.40867 0.0
C176 C 0.50654 0.78717 0.38195 0.0
C177 C 0.55536 0.81315 0.41276 0.0
N178 N 0.5215 0.79146 0.42787 0.0
O179 O 0.64231 0.82581 0.38402 0.0
H180 H 0.48915 0.77841 0.36223 0.0
H181 H 0.58527 0.83055 0.42244 0.0
O182 O 0.57777 0.90065 0.37145 0.0
C183 C 0.65335 0.78212 0.38552 0.0
O184 O 0.6277 0.75165 0.37128 0.0
N185 N 0.54276 0.83986 0.32937 0.0
C186 C 0.4868 0.83686 0.28063 0.0
C187 C 0.49485 0.87952 0.29457 0.0
C188 C 0.52294 0.88037 0.31885 0.0
C189 C 0.5359 0.79811 0.31563 0.0
C190 C 0.50704 0.79553 0.29154 0.0
H191 H 0.53062 0.91435 0.32771 0.0
H192 H 0.55357 0.76667 0.3233 0.0
H193 H 0.60746 0.92399 0.31533 0.0
H194 H 0.71996 0.84122 0.28589 0.0
H195 H 0.45841 0.75596 0.41364 0.0
H196 H 0.48024 0.91219 0.28634 0.0
H197 H 0.50164 0.762 0.28107 0.0
C198 C 0.83408 0.33255 0.66929 0.0
C199 C 0.85948 0.30709 0.68898 0.0
N200 N 0.90239 0.32688 0.69137 0.0
N201 N 0.86086 0.36812 0.65917 0.0
C202 C 0.9028 0.36315 0.6727 0.0
H203 H 0.79726 0.32736 0.66413 0.0
Co204 Co 0.83507 0.41524 0.63612 0.0
C205 C 0.91191 0.4809 0.61887 0.0
O206 O 0.88042 0.5148 0.62045 0.0
N207 N 0.80677 0.46138 0.61208 0.0
C208 C 0.76579 0.51936 0.59119 0.0
C209 C 0.77619 0.49738 0.61667 0.0
C210 C 0.81373 0.4622 0.5836 0.0
N211 N 0.78916 0.49663 0.57049 0.0
O212 O 0.82999 0.36957 0.60577 0.0
H213 H 0.76195 0.50767 0.63696 0.0
H214 H 0.8368 0.43804 0.57248 0.0
O215 O 0.89936 0.43776 0.62366 0.0
C216 C 0.78703 0.35592 0.60467 0.0
O217 O 0.75606 0.37632 0.6214 0.0
N218 N 0.83583 0.45603 0.6677 0.0
C219 C 0.83079 0.50895 0.71726 0.0
C220 C 0.87442 0.49821 0.70523 0.0
C221 C 0.87624 0.4712 0.6807 0.0
C222 C 0.79331 0.46253 0.68076 0.0
C223 C 0.7897 0.49024 0.70524 0.0
H224 H 0.9106 0.46249 0.67263 0.0
H225 H 0.76191 0.44666 0.67184 0.0
H226 H 0.93203 0.38731 0.67056 0.0
H227 H 0.84611 0.27909 0.70244 0.0
H228 H 0.74245 0.54919 0.588 0.0
H229 H 0.90689 0.51123 0.71456 0.0
H230 H 0.75545 0.49718 0.71456 0.0
C231 C 0.33335 0.20165 0.32716 0.0
C232 C 0.30419 0.18041 0.30773 0.0
N233 N 0.32405 0.1392 0.30035 0.0
N234 N 0.37114 0.17375 0.33223 0.0
C235 C 0.36403 0.13541 0.31583 0.0
H236 H 0.32891 0.23683 0.3355 0.0
Co237 Co 0.42204 0.19563 0.3532 0.0
C238 C 0.48831 0.11629 0.36507 0.0
O239 O 0.52264 0.14672 0.36129 0.0
N240 N 0.47201 0.22047 0.37517 0.0
C241 C 0.53306 0.25901 0.39419 0.0
C242 C 0.5074 0.2513 0.36965 0.0
C243 C 0.47688 0.21055 0.40312 0.0
N244 N 0.51312 0.23357 0.41508 0.0
O245 O 0.38141 0.19718 0.38607 0.0
H246 H 0.51455 0.26772 0.34941 0.0
H247 H 0.45415 0.18671 0.41476 0.0
O248 O 0.44492 0.12997 0.36245 0.0
C249 C 0.36853 0.23954 0.39077 0.0
O250 O 0.38756 0.27344 0.37551 0.0
N251 N 0.45789 0.19782 0.31964 0.0
C252 C 0.50453 0.20881 0.2682 0.0
C253 C 0.49694 0.16391 0.27942 0.0
C254 C 0.47286 0.15909 0.30494 0.0
C255 C 0.46144 0.24154 0.30764 0.0
C256 C 0.48587 0.24813 0.28212 0.0
H257 H 0.46596 0.1239 0.31233 0.0
H258 H 0.44601 0.27159 0.3183 0.0
H259 H 0.389 0.10687 0.31351 0.0
H260 H 0.27341 0.19597 0.29769 0.0
H261 H 0.56323 0.28202 0.39667 0.0
H262 H 0.50999 0.1328 0.26862 0.0
H263 H 0.49053 0.28328 0.27352 0.0
C264 C 0.70761 0.84186 0.83331 0.0
C265 C 0.68881 0.81528 0.81178 0.0
N266 N 0.65137 0.83873 0.80134 0.0
N267 N 0.68175 0.88159 0.83656 0.0
C268 C 0.64756 0.87864 0.81664 0.0
H269 H 0.73996 0.83399 0.84455 0.0
Co270 Co 0.69837 0.93057 0.86083 0.0
C271 C 0.60674 0.98167 0.87724 0.0
O272 O 0.63051 0.01562 0.88943 0.0
N273 N 0.71742 0.97823 0.88616 0.0
C274 C 0.75429 0.03728 0.90816 0.0
C275 C 0.74536 0.01632 0.8822 0.0
C276 C 0.71104 0.97624 0.9146 0.0
N277 N 0.73309 0.01129 0.92843 0.0
O278 O 0.69921 0.88486 0.89157 0.0
H279 H 0.75975 0.02735 0.86195 0.0
H280 H 0.69057 0.94934 0.9253 0.0
O281 O 0.62876 0.94623 0.86628 0.0
C282 C 0.74213 0.8738 0.89682 0.0
O283 O 0.77557 0.89726 0.88357 0.0
N284 N 0.7025 0.97213 0.82926 0.0
C285 C 0.70038 0.01711 0.77668 0.0
C286 C 0.67781 0.03718 0.80014 0.0
C287 C 0.67962 0.01428 0.82637 0.0
C288 C 0.72974 0.95565 0.80743 0.0
C289 C 0.72803 0.97678 0.78059 0.0
H290 H 0.66155 0.03022 0.84381 0.0
H291 H 0.75058 0.92401 0.81028 0.0
H292 H 0.6225 0.90641 0.81205 0.0
H293 H 0.70326 0.78301 0.80312 0.0
H294 H 0.77581 0.06814 0.91197 0.0
H295 H 0.65719 0.0692 0.79788 0.0
H296 H 0.74671 0.96098 0.76292 0.0
C297 C 0.83591 0.33003 0.1537 0.0
C298 C 0.81273 0.34569 0.1775 0.0
N299 N 0.83961 0.379 0.18963 0.0
N300 N 0.87669 0.35414 0.15041 0.0
C301 C 0.87802 0.38354 0.17299 0.0
H302 H 0.8248 0.30076 0.14074 0.0
Co303 Co 0.92279 0.33972 0.12336 0.0
C304 C 0.96557 0.43092 0.10266 0.0
O305 O 1.00441 0.40799 0.09634 0.0
N306 N 0.96813 0.32238 0.09613 0.0
C307 C 0.0279 0.28826 0.07321 0.0
C308 C 1.00836 0.29713 0.09949 0.0
C309 C 0.96393 0.32806 0.06765 0.0
N310 N 0.99948 0.30747 0.05337 0.0
O311 O 0.87326 0.3329 0.09492 0.0
H312 H 0.02228 0.28469 0.11956 0.0
H313 H 0.93498 0.3464 0.05738 0.0
O314 O 0.93055 0.40842 0.11366 0.0
C315 C 0.86416 0.28976 0.08949 0.0
O316 O 0.89047 0.25716 0.10164 0.0
N317 N 0.96915 0.34198 0.15239 0.0
C318 C 0.02462 0.33518 0.20125 0.0
C319 C 0.02244 0.3773 0.18588 0.0
C320 C 0.99438 0.38011 0.1616 0.0
C321 C 0.97136 0.30045 0.16711 0.0
C322 C 0.99925 0.29609 0.19157 0.0
H323 H 0.99137 0.41399 0.1518 0.0
H324 H 0.95043 0.27082 0.16006 0.0
H325 H 0.90754 0.40588 0.17827 0.0
H326 H 0.78022 0.33181 0.18623 0.0
H327 H 0.05963 0.26821 0.06889 0.0
H328 H 0.04125 0.40828 0.19314 0.0
H329 H 1.00017 0.26303 0.20316 0.0
C330 C 0.30636 0.15609 0.81534 0.0
C331 C 0.32547 0.17499 0.79097 0.0
N332 N 0.36175 0.14737 0.78318 0.0
N333 N 0.3307 0.11689 0.82276 0.0
C334 C 0.36441 0.11264 0.80268 0.0
H335 H 0.27542 0.16907 0.8262 0.0
Co336 Co 0.31478 0.0756 0.85217 0.0
C337 C 0.40713 0.03043 0.87309 0.0
O338 O 0.38349 0.99812 0.887 0.0
N339 N 0.29768 0.03514 0.88236 0.0
C340 C 0.26484 0.97952 0.90939 0.0
C341 C 0.27218 0.99489 0.88187 0.0
C342 C 0.30458 0.04386 0.91037 0.0
N343 N 0.28496 0.01076 0.92715 0.0
O344 O 0.31158 0.13012 0.87687 0.0
H345 H 0.25848 0.9784 0.86287 0.0
H346 H 0.32323 0.07429 0.91846 0.0
O347 O 0.38489 0.06331 0.85942 0.0
C348 C 0.26849 0.14006 0.88277 0.0
O349 O 0.23684 0.10678 0.87915 0.0
N350 N 0.31088 0.02617 0.82558 0.0
C351 C 0.3121 0.97636 0.77503 0.0
C352 C 0.33902 0.96097 0.79829 0.0
C353 C 0.33761 0.98628 0.82363 0.0
C354 C 0.27907 0.03686 0.80461 0.0
C355 C 0.28012 0.01332 0.77865 0.0
H356 H 0.35983 0.97472 0.8407 0.0
H357 H 0.25591 0.06695 0.80701 0.0
H358 H 0.38884 0.08355 0.80143 0.0
H359 H 0.31271 0.20536 0.77923 0.0
H360 H 0.24485 0.94885 0.91592 0.0
H361 H 0.36322 0.93154 0.79626 0.0
H362 H 0.25827 0.02553 0.76116 0.0
C363 C 0.17051 0.69998 0.15847 0.0
C364 C 0.19316 0.67474 0.17943 0.0
N365 N 0.16402 0.64016 0.18796 0.0
N366 N 0.1276 0.68095 0.15354 0.0
C367 C 0.1247 0.64439 0.17195 0.0
H368 H 0.18344 0.73202 0.1488 0.0
Co369 Co 0.08224 0.70756 0.12948 0.0
C370 C 0.02397 0.62514 0.10613 0.0
O371 O 0.99265 0.65345 0.0948 0.0
N372 N 0.0386 0.73625 0.1046 0.0
C373 C 0.98598 0.78374 0.08362 0.0
C374 C 1.00581 0.77007 0.1093 0.0
C375 C 0.03905 0.73121 0.07604 0.0
N376 N 1.00749 0.75923 0.0629 0.0
O377 O 0.12963 0.70876 0.09944 0.0
H378 H 0.99736 0.78447 0.12996 0.0
H379 H 0.06165 0.7066 0.0649 0.0
O380 O 0.06035 0.64187 0.11913 0.0
C381 C 0.14547 0.75057 0.09598 0.0
O382 O 0.1265 0.78481 0.1109 0.0
N383 N 0.03864 0.71015 0.16041 0.0
C384 C 0.98812 0.70065 0.21091 0.0
C385 C 0.96811 0.68701 0.18502 0.0
C386 C 0.9937 0.69275 0.15992 0.0
C387 C 0.0559 0.72911 0.18506 0.0
C388 C 0.03175 0.72362 0.21078 0.0
H389 H 0.97745 0.68187 0.1405 0.0
H390 H 0.09012 0.74595 0.18519 0.0
H391 H 0.09334 0.62347 0.1751 0.0
H392 H 0.22683 0.68308 0.18911 0.0
H393 H 0.95828 0.80956 0.08037 0.0
H394 H 0.93368 0.67043 0.18436 0.0
H395 H 0.04769 0.73559 0.23044 0.0
C396 C 0.68316 0.19175 0.14285 0.0
C397 C 0.65995 0.21772 0.16307 0.0
N398 N 0.6201 0.19463 0.16978 0.0
N399 N 0.65758 0.15301 0.13652 0.0
C400 C 0.61914 0.1559 0.15332 0.0
H401 H 0.718 0.19922 0.13473 0.0
Co402 Co 0.67893 0.10494 0.11325 0.0
C403 C 0.59265 0.05543 0.08998 0.0
O404 O 0.61742 0.01628 0.0887 0.0
N405 N 0.70322 0.05745 0.08953 0.0
C406 C 0.74674 1.00007 0.07035 0.0
C407 C 0.73212 0.02055 0.09542 0.0
C408 C 0.70099 0.05855 0.06086 0.0
N409 N 0.72751 0.02473 0.04882 0.0
O410 O 0.68994 0.15152 0.08376 0.0
H411 H 0.74337 0.00967 0.11638 0.0
H412 H 0.68094 0.08436 0.04883 0.0
O413 O 0.61302 0.09284 0.09939 0.0
C414 C 0.7338 0.16161 0.08225 0.0
O415 O 0.76361 0.13671 0.09765 0.0
N416 N 0.67248 0.06241 0.14384 0.0
C417 C 0.67441 0.01001 0.194 0.0
C418 C 0.63254 0.01461 0.17843 0.0
C419 C 0.63215 0.04125 0.15348 0.0
C420 C 0.71305 0.05963 0.15945 0.0
C421 C 0.71511 0.03285 0.1844 0.0
H422 H 0.59869 0.04634 0.14315 0.0
H423 H 0.74411 0.0784 0.15234 0.0
H424 H 0.59247 0.12885 0.15498 0.0
H425 H 0.67311 0.24878 0.1738 0.0
H426 H 0.77017 0.97013 0.06804 0.0
H427 H 0.60026 0.99811 0.18574 0.0
H428 H 0.74791 0.0303 0.1962 0.0
C429 C 0.20001 0.32731 0.84192 0.0
C430 C 0.22542 0.34741 0.82022 0.0
N431 N 0.20563 0.38934 0.81402 0.0
N432 N 0.16468 0.35657 0.84956 0.0
C433 C 0.16998 0.39483 0.8327 0.0
H434 H 0.20358 0.29134 0.84911 0.0
Co435 Co 0.11402 0.33519 0.87095 0.0
C436 C 0.04445 0.41357 0.87875 0.0
O437 O 0.01112 0.38212 0.87479 0.0
N438 N 0.06365 0.31162 0.89328 0.0
C439 C 1.00181 0.27464 0.91257 0.0
C440 C 0.0276 0.2814 0.88805 0.0
C441 C 0.05846 0.32258 0.92106 0.0
N442 N 0.02217 0.29996 0.93332 0.0
O443 O 0.15269 0.34123 0.90522 0.0
H444 H 0.02007 0.26455 0.86807 0.0
H445 H 0.08161 0.34596 0.93263 0.0
O446 O 0.08828 0.40099 0.87712 0.0
C447 C 0.18651 0.31968 0.9181 0.0
O448 O 0.20094 0.33679 0.94256 0.0
N449 N 0.079 0.32805 0.83656 0.0
C450 C 0.02901 0.31432 0.78604 0.0
C451 C 0.03957 0.35968 0.7954 0.0
C452 C 0.06461 0.36578 0.82052 0.0
C453 C 0.07361 0.28353 0.82603 0.0
C454 C 0.04713 0.27562 0.8012 0.0
H455 H 0.07192 0.40137 0.82676 0.0
H456 H 0.08818 0.25386 0.83763 0.0
H457 H 0.14542 0.42398 0.83186 0.0
H458 H 0.2521 0.33004 0.80751 0.0
H459 H 0.97163 0.25168 0.91525 0.0
H460 H 0.02703 0.39037 0.78382 0.0
H461 H 0.04019 0.23995 0.79423 0.0
C462 C 0.30889 0.8597 0.15461 0.0
C463 C 0.33074 0.83515 0.17611 0.0
N464 N 0.37378 0.85397 0.17997 0.0
N465 N 0.33818 0.89344 0.14472 0.0
C466 C 0.37801 0.88842 0.1603 0.0
H467 H 0.27268 0.85517 0.14787 0.0
Co468 Co 0.31669 0.93832 0.11893 0.0
C469 C 0.39589 1.00305 0.10393 0.0
O470 O 0.36426 0.03692 0.10465 0.0
N471 N 0.29246 0.98202 0.09203 0.0
C472 C 0.25458 0.03737 0.06691 0.0
C473 C 0.26259 0.0193 0.09377 0.0
C474 C 0.30169 0.97835 0.06393 0.0
N475 N 0.27889 0.01096 0.0483 0.0
O476 O 0.31565 0.88935 0.09035 0.0
H477 H 0.24711 0.03291 0.113 0.0
H478 H 0.32466 0.95193 0.05479 0.0
O479 O 0.38304 0.95993 0.10882 0.0
C480 C 0.27285 0.87556 0.08806 0.0
O481 O 0.23998 0.89925 0.10163 0.0
N482 N 0.31293 0.98178 0.14901 0.0
C483 C 0.30158 0.0321 0.19924 0.0
C484 C 0.34659 0.02178 0.18904 0.0
C485 C 0.35151 0.99604 0.16419 0.0
C486 C 0.26872 0.98915 0.15968 0.0
C487 C 0.26204 0.01555 0.18446 0.0
H488 H 0.38669 0.98647 0.15796 0.0
H489 H 0.23848 0.97395 0.14903 0.0
H490 H 0.40838 0.91129 0.15874 0.0
H491 H 0.31479 0.80862 0.18962 0.0
H492 H 0.23194 0.06681 0.06136 0.0
H493 H 0.37784 0.0332 0.20044 0.0
H494 H 0.22671 0.0223 0.19225 0.0
C495 C 0.85741 0.701 0.83497 0.0
C496 C 0.83259 0.67805 0.81411 0.0
N497 N 0.85286 0.6357 0.81028 0.0
N498 N 0.89251 0.67287 0.84463 0.0
C499 C 0.88876 0.63312 0.82908 0.0
H500 H 0.85127 0.73678 0.84187 0.0
Co501 Co 0.9359 0.69287 0.87158 0.0
C502 C 0.9851 0.60751 0.89513 0.0
O503 O 0.02331 0.63354 0.89654 0.0
N504 N 0.97845 0.71587 0.89939 0.0
C505 C 0.03641 0.74946 0.92437 0.0
C506 C 0.02116 0.73704 0.89749 0.0
C507 C 0.96874 0.7164 0.92754 0.0
N508 N 1.0028 0.73694 0.94311 0.0
O509 O 0.88344 0.70197 0.89767 0.0
H510 H 0.04041 0.7432 0.87804 0.0
H511 H 0.9372 0.70161 0.93688 0.0
O512 O 0.94699 0.62663 0.88537 0.0
C513 C 0.87148 0.74532 0.89946 0.0
O514 O 0.89763 0.77692 0.88642 0.0
N515 N 0.98406 0.68766 0.84376 0.0
C516 C 0.03856 0.68778 0.79431 0.0
C517 C 0.02886 0.64566 0.80856 0.0
C518 C 1.00121 0.64621 0.833 0.0
C519 C 0.99313 0.72909 0.82995 0.0
C520 C 0.02098 0.73011 0.80534 0.0
H521 H 0.99147 0.6126 0.84171 0.0
H522 H 0.97746 0.76142 0.83768 0.0
H523 H 0.91286 0.60369 0.83039 0.0
H524 H 0.80398 0.69238 0.80142 0.0
H525 H 0.06915 0.76703 0.9297 0.0
H526 H 0.0413 0.61228 0.80024 0.0
H527 H 0.0276 0.76328 0.79461 0.0
C528 C 0.99021 0.52123 0.42017 0.0
C529 C 0.96415 0.52265 0.3943 0.0
C530 C 0.02476 0.47414 0.37159 0.0
C531 C 0.05406 0.47803 0.39586 0.0
N532 N 0.0638 0.50178 0.4445 0.0
N533 N 0.96483 0.51212 0.3433 0.0
C534 C 0.03635 0.50066 0.42059 0.0
C535 C 0.98403 0.50292 0.36934 0.0
N536 N 0.97057 0.53971 0.44423 0.0
N537 N 0.03407 0.44116 0.35133 0.0
H538 H 0.93647 0.53493 0.34055 0.0
H539 H 0.98058 0.50149 0.32432 0.0
H540 H 0.05922 0.41492 0.35446 0.0
H541 H 0.01192 0.43515 0.33397 0.0
H542 H 0.98475 0.5358 0.46453 0.0
H543 H 0.93897 0.55873 0.44377 0.0
H544 H 0.0559 0.52137 0.46255 0.0
H545 H 0.0953 0.48272 0.44604 0.0
C546 C 0.50388 0.01259 0.56647 0.0
C547 C 0.54271 0.035 0.5804 0.0
C548 C 0.55988 0.96185 0.60594 0.0
C549 C 0.51984 0.93958 0.59333 0.0
N550 N 0.46272 0.93973 0.55521 0.0
N551 N 0.62049 0.0206 0.5994 0.0
C552 C 0.49422 0.96384 0.57176 0.0
C553 C 0.57481 1.00654 0.59582 0.0
N554 N 0.47695 0.03755 0.54757 0.0
N555 N 0.58311 0.94156 0.62835 0.0
H556 H 0.63433 0.04987 0.58886 0.0
H557 H 0.64612 0.99933 0.60895 0.0
H558 H 0.57355 0.90945 0.63729 0.0
H559 H 0.60909 0.95918 0.63991 0.0
H560 H 0.44408 0.02647 0.54026 0.0
H561 H 0.48793 0.06964 0.53904 0.0
H562 H 0.44651 0.95383 0.53721 0.0
H563 H 0.45561 0.90397 0.55793 0.0
C564 C 0.99028 0.47168 0.59344 0.0
C565 C 0.96237 0.49477 0.61421 0.0
C566 C 0.02559 0.55357 0.6199 0.0
C567 C 0.0575 0.52419 0.60499 0.0
N568 N 0.06791 0.45659 0.57415 0.0
N569 N 0.95807 0.55526 0.65072 0.0
C570 C 0.03908 0.48361 0.59072 0.0
C571 C 0.98124 0.53509 0.62837 0.0
N572 N 0.96973 0.44033 0.57519 0.0
N573 N 0.03607 0.59978 0.62495 0.0
H574 H 0.92613 0.5431 0.65864 0.0
H575 H 0.97331 0.58124 0.66341 0.0
H576 H 0.06453 0.61688 0.61551 0.0
H577 H 0.01225 0.62306 0.63435 0.0
H578 H 0.98694 0.42623 0.55759 0.0
H579 H 0.93393 0.43191 0.57579 0.0
H580 H 0.05878 0.42306 0.56704 0.0
H581 H 0.10145 0.46726 0.56793 0.0
C582 C 0.49294 0.99192 0.39752 0.0
C583 C 0.53305 0.97229 0.38321 0.0
C584 C 0.5408 0.04567 0.35616 0.0
C585 C 0.50171 0.06601 0.37079 0.0
N586 N 0.45091 0.06255 0.4119 0.0
N587 N 0.60703 0.99271 0.36063 0.0
C588 C 0.48059 0.04031 0.39334 0.0
C589 C 0.56084 1.00285 0.36621 0.0
N590 N 0.46668 0.96483 0.41552 0.0
N591 N 0.55823 0.066 0.33199 0.0
H592 H 0.62531 0.96583 0.37106 0.0
H593 H 0.62903 0.01572 0.34952 0.0
H594 H 0.5436 0.09597 0.32266 0.0
H595 H 0.58383 0.04975 0.31943 0.0
H596 H 0.43332 0.97467 0.42274 0.0
H597 H 0.47784 0.93215 0.42286 0.0
H598 H 0.43874 0.047 0.43061 0.0
H599 H 0.44222 0.09817 0.41034 0.0
C600 C 0.53204 0.99647 0.8482 0.0
C601 C 0.55433 0.98871 0.87499 0.0
C602 C 0.48388 0.02081 0.89887 0.0
C603 C 0.45979 0.02423 0.87243 0.0
N604 N 0.45934 1.00856 0.82198 0.0
N605 N 0.54753 0.98487 0.92598 0.0
C606 C 0.48351 0.0104 0.84708 0.0
C607 C 0.52896 0.99844 0.90035 0.0
N608 N 0.55749 0.99237 0.8237 0.0
N609 N 0.46394 0.04012 0.92261 0.0
H610 H 0.57966 0.96696 0.92769 0.0
H611 H 0.5291 0.98687 0.94509 0.0
H612 H 0.43167 0.05796 0.92201 0.0
H613 H 0.48136 0.04276 0.94207 0.0
H614 H 0.54532 1.00388 0.80392 0.0
H615 H 0.59201 0.98004 0.82334 0.0
H616 H 0.47249 0.99271 0.80366 0.0
H617 H 0.42485 0.0204 0.81994 0.0
C618 C 0.98651 0.50558 0.07704 0.0
C619 C 0.96875 0.48369 0.10204 0.0
C620 C 0.99413 0.55176 0.13029 0.0
C621 C 0.01236 0.57384 0.10545 0.0
N622 N 0.02168 0.57453 0.0545 0.0
N623 N 0.93894 0.4949 0.14943 0.0
C624 C 1.00714 0.55148 0.07856 0.0
C625 C 0.9676 0.50938 0.12782 0.0
N626 N 0.98293 0.48212 0.05181 0.0
N627 N 1.00211 0.5711 0.1564 0.0
H628 H 0.91503 0.46751 0.14691 0.0
H629 H 0.93368 0.51402 0.16804 0.0
H630 H 0.02101 0.60207 0.15912 0.0
H631 H 0.99408 0.5541 0.17547 0.0
H632 H 0.99891 0.49278 0.03296 0.0
H633 H 0.96318 0.45123 0.0499 0.0
H634 H 0.01491 0.56312 0.03389 0.0
H635 H 0.04001 0.60641 0.05509 0.0
C636 C 0.47235 0.99833 0.07583 0.0
C637 C 0.44633 0.01733 0.09896 0.0
C638 C 0.50931 0.0765 0.10593 0.0
C639 C 0.53945 0.05107 0.08757 0.0
N640 N 0.54593 0.9958 0.04929 0.0
N641 N 0.44313 0.07347 0.13788 0.0
C642 C 0.51966 0.01415 0.07085 0.0
C643 C 0.46564 0.0562 0.11444 0.0
N644 N 0.451 0.96728 0.0577 0.0
N645 N 0.52035 0.1215 0.11372 0.0
H646 H 0.41076 0.06122 0.145 0.0
H647 H 0.4588 0.09738 0.15179 0.0
H648 H 0.548 0.14022 0.10452 0.0
H649 H 0.49776 0.1429 0.12549 0.0
H650 H 0.46612 0.95505 0.03897 0.0
H651 H 0.41638 0.95572 0.06029 0.0
H652 H 0.53796 0.96483 0.03851 0.0
H653 H 0.57591 0.01321 0.04199 0.0
C654 C 0.0302 0.53555 0.91328 0.0
C655 C 0.99193 0.55463 0.89698 0.0
C656 C 0.99127 0.48297 0.86813 0.0
C657 C 0.02922 0.46338 0.88431 0.0
N658 N 0.07508 0.46636 0.92761 0.0
N659 N 0.92287 0.53373 0.86958 0.0
C660 C 0.04608 0.48836 0.90841 0.0
C661 C 0.96824 0.52451 0.87771 0.0
N662 N 0.0511 0.5623 0.93381 0.0
N663 N 0.9778 0.46296 0.843 0.0
H664 H 0.90239 0.55966 0.87922 0.0
H665 H 0.90335 0.51094 0.85679 0.0
H666 H 0.99466 0.43377 0.83429 0.0
H667 H 0.95333 0.47869 0.82932 0.0
H668 H 0.0833 0.55378 0.94327 0.0
H669 H 0.03634 0.59365 0.94101 0.0
H670 H 0.084 0.48069 0.94727 0.0
H671 H 0.08694 0.43184 0.92523 0.0
C672 C 0.24643 0.27769 0.40209 0.0
C673 C 0.25944 0.32223 0.41306 0.0
C674 C 0.33565 0.29034 0.42808 0.0
C675 C 0.3282 0.25232 0.40926 0.0
N676 N 0.27341 0.2003 0.38636 0.0
N677 N 0.30641 0.36545 0.44618 0.0
C678 C 0.28194 0.2422 0.39955 0.0
C679 C 0.30054 0.32608 0.42997 0.0
N680 N 0.20096 0.27033 0.3936 0.0
N681 N 0.37786 0.29337 0.442 0.0
H682 H 0.27977 0.39087 0.44759 0.0
H683 H 0.33583 0.37206 0.45882 0.0
H684 H 0.40309 0.26656 0.44042 0.0
H685 H 0.38738 0.32085 0.45543 0.0
H686 H 0.18841 0.23861 0.38558 0.0
H687 H 0.17471 0.29558 0.39679 0.0
H688 H 0.2419 0.19178 0.37624 0.0
H689 H 0.29861 0.17344 0.38601 0.0
C690 C 0.29877 0.68047 0.56228 0.0
C691 C 0.26188 0.68621 0.58226 0.0
C692 C 0.29485 0.76169 0.59727 0.0
C693 C 0.33647 0.75059 0.58192 0.0
N694 N 0.37265 0.71064 0.54283 0.0
N695 N 0.21394 0.73983 0.60898 0.0
C696 C 0.33602 0.71403 0.56157 0.0
C697 C 0.25595 0.72995 0.59614 0.0
N698 N 0.29926 0.64105 0.5457 0.0
N699 N 0.29424 0.80028 0.61454 0.0
H700 H 0.18526 0.71692 0.60764 0.0
H701 H 0.20609 0.77192 0.61855 0.0
H702 H 0.32144 0.825 0.61451 0.0
H703 H 0.26746 0.80756 0.62901 0.0
H704 H 0.32669 0.6318 0.53212 0.0
H705 H 0.27103 0.61744 0.5457 0.0
H706 H 0.37491 0.68557 0.52679 0.0
H707 H 0.39975 0.7356 0.54248 0.0
C708 C 0.68957 0.72816 0.42125 0.0
C709 C 0.69601 0.76385 0.40047 0.0
C710 C 0.77229 0.72964 0.38724 0.0
C711 C 0.76167 0.68976 0.40439 0.0
N712 N 0.7212 0.65824 0.44487 0.0
N713 N 0.75059 0.8095 0.37294 0.0
C714 C 0.72419 0.69202 0.42419 0.0
C715 C 0.74024 0.76852 0.38684 0.0
N716 N 0.64885 0.72757 0.43672 0.0
N717 N 0.81075 0.72868 0.36979 0.0
H718 H 0.72755 0.83824 0.37319 0.0
H719 H 0.78322 0.81664 0.36375 0.0
H720 H 0.83588 0.70183 0.37073 0.0
H721 H 0.81725 0.75375 0.35407 0.0
H722 H 0.63885 0.70013 0.45015 0.0
H723 H 0.62464 0.75525 0.43566 0.0
H724 H 0.69617 0.65837 0.46105 0.0
H725 H 0.74675 0.63182 0.44692 0.0
C726 C 0.73451 0.32333 0.56741 0.0
C727 C 0.77051 0.31508 0.58774 0.0
C728 C 0.73806 0.23697 0.59815 0.0
C729 C 0.69761 0.24892 0.58166 0.0
N730 N 0.66454 0.29369 0.54311 0.0
N731 N 0.81742 0.25889 0.61336 0.0
C732 C 0.69878 0.28872 0.56341 0.0
C733 C 0.7762 0.26966 0.59971 0.0
N734 N 0.7332 0.36569 0.55356 0.0
N735 N 0.7384 0.19646 0.61393 0.0
H736 H 0.84542 0.28273 0.61415 0.0
H737 H 0.82552 0.2256 0.62139 0.0
H738 H 0.71246 0.1707 0.61198 0.0
H739 H 0.7638 0.18863 0.62927 0.0
H740 H 0.70557 0.37678 0.54052 0.0
H741 H 0.7605 0.39013 0.55562 0.0
H742 H 0.66387 0.32065 0.52805 0.0
H743 H 0.63852 0.26809 0.54013 0.0
C744 C 0.83124 0.80057 0.93217 0.0
C745 C 0.82725 0.76194 0.91331 0.0
C746 C 0.74632 0.78634 0.90178 0.0
C747 C 0.75679 0.83123 0.91316 0.0
N748 N 0.80066 0.8774 0.94644 0.0
N749 N 0.77718 0.71067 0.88598 0.0
C750 C 0.79602 0.83642 0.93153 0.0
C751 C 0.78293 0.75172 0.90061 0.0
N752 N 0.86998 0.80346 0.94939 0.0
N753 N 0.70206 0.77778 0.89157 0.0
H754 H 0.80221 0.68371 0.88669 0.0
H755 H 0.74809 0.70328 0.87321 0.0
H756 H 0.67507 0.80267 0.8933 0.0
H757 H 0.69097 0.74527 0.88388 0.0
H758 H 0.87555 0.83 0.96423 0.0
H759 H 0.89536 0.77674 0.94989 0.0
H760 H 0.82993 0.88613 0.95871 0.0
H761 H 0.774 0.90294 0.9463 0.0
C762 C 0.79483 0.19949 0.05237 0.0
C763 C 0.75248 0.2046 0.06796 0.0
C764 C 0.77592 0.28421 0.0822 0.0
C765 C 0.82236 0.27378 0.07275 0.0
N766 N 0.87075 0.2333 0.039 0.0
N767 N 0.69403 0.25809 0.08586 0.0
C768 C 0.82961 0.23551 0.054 0.0
C769 C 0.73988 0.24948 0.07869 0.0
N770 N 0.80244 0.15861 0.03781 0.0
N771 N 0.76717 0.3258 0.09571 0.0
H772 H 0.66748 0.23343 0.08215 0.0
H773 H 0.68153 0.29044 0.09302 0.0
H774 H 0.7918 0.35302 0.09618 0.0
H775 H 0.73583 0.33361 0.10621 0.0
H776 H 0.834 0.14992 0.02782 0.0
H777 H 0.77604 0.1331 0.03596 0.0
H778 H 0.87865 0.20726 0.02421 0.0
H779 H 0.89572 0.2603 0.04015 0.0
C780 C 0.25916 0.26927 0.90848 0.0
C781 C 0.20921 0.27544 0.90733 0.0
C782 C 0.20356 0.20071 0.88256 0.0
C783 C 0.25124 0.18901 0.88939 0.0
N784 N 0.32247 0.21258 0.91439 0.0
N785 N 0.13486 0.23487 0.9037 0.0
C786 C 0.27887 0.22345 0.90381 0.0
C787 C 0.18147 0.23784 0.89722 0.0
N788 N 0.28795 0.30693 0.91337 0.0
N789 N 0.17938 0.17801 0.86154 0.0
H790 H 0.12046 0.25596 0.91952 0.0
H791 H 0.11392 0.2065 0.89736 0.0
H792 H 0.19565 0.15507 0.84729 0.0
H793 H 0.14504 0.18768 0.85586 0.0
H794 H 0.32464 0.30467 0.91208 0.0
H795 H 0.27513 0.34124 0.91545 0.0
H796 H 0.34162 0.23578 0.92711 0.0
H797 H 0.3373 0.17906 0.9133 0.0
C798 C 0.21901 0.83344 0.05589 0.0
C799 C 0.25828 0.83067 0.07444 0.0
C800 C 0.23275 0.75215 0.08982 0.0
C801 C 0.18757 0.76234 0.07849 0.0
N802 N 0.1414 0.80248 0.04334 0.0
N803 N 0.31039 0.7826 0.10259 0.0
C804 C 0.1825 0.79921 0.05839 0.0
C805 C 0.2684 0.78765 0.08865 0.0
N806 N 0.2158 0.87087 0.03765 0.0
N807 N 0.24045 0.70935 0.10228 0.0
H808 H 0.33739 0.80733 0.10049 0.0
H809 H 0.31858 0.75446 0.11597 0.0
H810 H 0.21449 0.68327 0.10231 0.0
H811 H 0.27285 0.6984 0.11044 0.0
H812 H 0.1882 0.87632 0.02338 0.0
H813 H 0.24296 0.89566 0.03615 0.0
H814 H 0.13345 0.82945 0.02908 0.0
H815 H 0.11546 0.77649 0.04495 0.0
C816 C 0.17905 0.53422 0.23547 0.0
C817 C 0.1833 0.55666 0.26235 0.0
C818 C 0.16902 0.63338 0.24009 0.0
C819 C 0.16961 0.61165 0.21304 0.0
N820 N 0.18117 0.54308 0.18407 0.0
N821 N 0.19102 0.62802 0.28977 0.0
C822 C 0.17636 0.56245 0.21047 0.0
C823 C 0.18095 0.60645 0.26451 0.0
N824 N 0.17558 0.48621 0.23395 0.0
N825 N 0.15493 0.67928 0.24251 0.0
H826 H 0.20046 0.60933 0.30809 0.0
H827 H 0.19433 0.66441 0.29187 0.0
H828 H 0.14431 0.69948 0.22505 0.0
H829 H 0.14917 0.69575 0.26198 0.0
H830 H 0.16741 0.46825 0.21529 0.0
H831 H 0.17722 0.46433 0.2518 0.0
H832 H 0.19085 0.5081 0.1807 0.0
H833 H 0.179 0.56318 0.16547 0.0
C834 C 0.55539 0.80307 0.75085 0.0
C835 C 0.57909 0.80909 0.72449 0.0
C836 C 0.64973 0.83679 0.7491 0.0
C837 C 0.62707 0.82823 0.77541 0.0
N838 N 0.56231 0.797 0.80226 0.0
N839 N 0.65077 0.82306 0.69825 0.0
C840 C 0.58102 0.80935 0.77654 0.0
C841 C 0.62703 0.82316 0.72356 0.0
N842 N 0.50807 0.7936 0.75129 0.0
N843 N 0.69202 0.85988 0.74861 0.0
H844 H 0.63496 0.8131 0.67912 0.0
H845 H 0.68697 0.82875 0.69657 0.0
H846 H 0.70933 0.87069 0.76706 0.0
H847 H 0.708 0.87185 0.73001 0.0
H848 H 0.48779 0.79411 0.76974 0.0
H849 H 0.48819 0.78813 0.73289 0.0
H850 H 0.53068 0.77873 0.80454 0.0
H851 H 0.58043 0.8021 0.82137 0.0
C852 C 0.82195 0.4711 0.24587 0.0
C853 C 0.81683 0.44213 0.27045 0.0
C854 C 0.83226 0.37203 0.24175 0.0
C855 C 0.83217 0.40039 0.21692 0.0
N856 N 0.81942 0.47545 0.19434 0.0
N857 N 0.80794 0.36449 0.29088 0.0
C858 C 0.82479 0.44958 0.2187 0.0
C859 C 0.81916 0.39234 0.26811 0.0
N860 N 0.82643 0.51889 0.24849 0.0
N861 N 0.84718 0.32629 0.24034 0.0
H862 H 0.79725 0.37826 0.3104 0.0
H863 H 0.80482 0.32796 0.28956 0.0
H864 H 0.85912 0.31101 0.22152 0.0
H865 H 0.85245 0.3052 0.25827 0.0
H866 H 0.83561 0.5409 0.2316 0.0
H867 H 0.82515 0.53634 0.26794 0.0
H868 H 0.80927 0.51077 0.19422 0.0
H869 H 0.82108 0.46039 0.17414 0.0
C870 C 0.36754 0.13731 0.73132 0.0
C871 C 0.38848 0.15083 0.75739 0.0
C872 C 0.46283 0.16788 0.73318 0.0
C873 C 0.44034 0.15915 0.70666 0.0
N874 N 0.37001 0.1411 0.67982 0.0
N875 N 0.45318 0.18392 0.78354 0.0
C876 C 0.39226 0.14534 0.70552 0.0
C877 C 0.43541 0.16748 0.75843 0.0
N878 N 0.32468 0.11531 0.73149 0.0
N879 N 0.51061 0.17468 0.73434 0.0
H880 H 0.43374 0.18351 0.80238 0.0
H881 H 0.4855 0.20114 0.78526 0.0
H882 H 0.53205 0.17502 0.71632 0.0
H883 H 0.52964 0.17612 0.75329 0.0
H884 H 0.3096 0.09994 0.71356 0.0
H885 H 0.306 0.10882 0.7502 0.0
H886 H 0.33381 0.13575 0.67769 0.0
H887 H 0.38714 0.1467 0.66046 0.0
C888 C 0.19633 0.41169 0.73544 0.0
C889 C 0.21213 0.45898 0.73385 0.0
C890 C 0.22973 0.45762 0.78501 0.0
C891 C 0.20859 0.4127 0.78693 0.0
N892 N 0.16259 0.351 0.7652 0.0
N893 N 0.23869 0.5296 0.75768 0.0
C894 C 0.18944 0.39071 0.76246 0.0
C895 C 0.22783 0.48271 0.75877 0.0
N896 N 0.18876 0.38655 0.71108 0.0
N897 N 0.25181 0.4759 0.80833 0.0
H898 H 0.23751 0.54934 0.73897 0.0
H899 H 0.24554 0.54983 0.77567 0.0
H900 H 0.25269 0.45821 0.82785 0.0
H901 H 0.27209 0.50648 0.8078 0.0
H902 H 0.18158 0.35053 0.71104 0.0
H903 H 0.19443 0.40059 0.69082 0.0
H904 H 0.14371 0.33643 0.74836 0.0
H905 H 0.15513 0.33537 0.78476 0.0
C906 C 0.4093 0.85092 0.25678 0.0
C907 C 0.4571 0.83655 0.25462 0.0
C908 C 0.4481 0.82882 0.20294 0.0
C909 C 0.40237 0.84847 0.20503 0.0
N910 N 0.34393 0.88912 0.23297 0.0
N911 N 0.52469 0.81872 0.22515 0.0
C912 C 0.38411 0.86251 0.23171 0.0
C913 C 0.47734 0.82709 0.22754 0.0
N914 N 0.38774 0.85272 0.28275 0.0
N915 N 0.46307 0.81125 0.17749 0.0
H916 H 0.54742 0.81766 0.2426 0.0
H917 H 0.54208 0.81659 0.20568 0.0
H918 H 0.44219 0.81258 0.15918 0.0
H919 H 0.4943 0.79222 0.17511 0.0
H920 H 0.35167 0.8588 0.2852 0.0
H921 H 0.40488 0.84333 0.30162 0.0
H922 H 0.3315 0.90401 0.25176 0.0
H923 H 0.32601 0.90076 0.21486 0.0
C924 C 0.82356 0.52563 0.7696 0.0
C925 C 0.82932 0.54229 0.74132 0.0
C926 C 0.8534 0.61947 0.7589 0.0
C927 C 0.84434 0.60413 0.78704 0.0
N928 N 0.8141 0.54599 0.81945 0.0
N929 N 0.83926 0.60734 0.70869 0.0
C930 C 0.82734 0.5581 0.79248 0.0
C931 C 0.84071 0.59009 0.73588 0.0
N932 N 0.81642 0.47869 0.77461 0.0
N933 N 0.8768 0.66086 0.75426 0.0
H934 H 0.82978 0.58669 0.69125 0.0
H935 H 0.84292 0.643 0.70381 0.0
H936 H 0.88904 0.6821 0.77075 0.0
H937 H 0.88848 0.67162 0.73427 0.0
H938 H 0.8173 0.46363 0.79484 0.0
H939 H 0.81259 0.45413 0.7583 0.0
H940 H 0.79736 0.5144 0.82449 0.0
H941 H 0.81659 0.56937 0.83648 0.0
C942 C 0.58378 0.20531 0.24609 0.0
C943 C 0.53474 0.21354 0.24283 0.0
C944 C 0.54391 0.21654 0.1911 0.0
C945 C 0.59152 0.20247 0.19444 0.0
N946 N 0.65468 0.17442 0.22451 0.0
N947 N 0.46645 0.2237 0.21268 0.0
C948 C 0.6111 0.19473 0.2218 0.0
C949 C 0.51425 0.21869 0.21542 0.0
N950 N 0.60409 0.20758 0.27248 0.0
N951 N 0.52754 0.22818 0.16464 0.0
H952 H 0.44399 0.22674 0.23015 0.0
H953 H 0.44876 0.22225 0.19327 0.0
H954 H 0.54883 0.22639 0.14656 0.0
H955 H 0.49433 0.24273 0.16087 0.0
H956 H 0.64045 0.20627 0.2758 0.0
H957 H 0.58489 0.21537 0.29081 0.0
H958 H 0.66882 0.16362 0.24394 0.0
H959 H 0.6748 0.16382 0.20711 0.0
C960 C 0.63139 0.06459 0.71439 0.0
C961 C 0.66706 0.08838 0.69891 0.0
C962 C 0.72684 0.06135 0.73294 0.0
C963 C 0.6912 0.03655 0.74793 0.0
N964 N 0.61309 1.00265 0.7481 0.0
N965 N 0.74916 0.10067 0.689 0.0
C966 C 0.64462 0.03408 0.73693 0.0
C967 C 0.71508 0.08359 0.70674 0.0
N968 N 0.58488 0.07388 0.70907 0.0
N969 N 0.77098 0.06586 0.7444 0.0
H970 H 0.74094 0.11681 0.66961 0.0
H971 H 0.78513 0.09498 0.69217 0.0
H972 H 0.78082 0.05021 0.76362 0.0
H973 H 0.79682 0.0878 0.73588 0.0
H974 H 0.55753 0.06129 0.72178 0.0
H975 H 0.57378 0.09792 0.69368 0.0
H976 H 0.57991 0.99658 0.73923 0.0
H977 H 0.62199 0.97921 0.76444 0.0
C978 C 0.12919 0.34408 0.25124 0.0
C979 C 0.10671 0.34086 0.27805 0.0
C980 C 0.02967 0.33413 0.25469 0.0
C981 C 0.05273 0.33328 0.22787 0.0
N982 N 0.12473 0.3285 0.20068 0.0
N983 N 0.03738 0.32603 0.30595 0.0
C984 C 0.10267 0.33542 0.22618 0.0
C985 C 0.05738 0.33382 0.27995 0.0
N986 N 0.17529 0.35793 0.24972 0.0
N987 N 0.98153 0.33737 0.25601 0.0
H988 H 0.05712 0.32571 0.32473 0.0
H989 H 1.00228 0.31617 0.30871 0.0
H990 H 0.95997 0.33776 0.238 0.0
H991 H 0.9631 0.3433 0.27482 0.0
H992 H 0.19229 0.36572 0.23065 0.0
H993 H 0.19523 0.36625 0.26768 0.0
H994 H 0.1612 0.32513 0.19866 0.0
H995 H 0.10631 0.32175 0.18188 0.0
C996 C 0.3042 0.90569 0.70655 0.0
C997 C 0.35257 0.9056 0.69899 0.0
C998 C 0.36777 0.96584 0.73478 0.0
C999 C 0.32244 0.9575 0.74642 0.0
N1000 N 0.24677 0.91872 0.74386 0.0
N1001 N 0.43227 0.93168 0.70865 0.0
C1002 C 0.28995 0.92783 0.73218 0.0
C1003 C 0.38489 0.93534 0.7134 0.0
N1004 N 0.27235 0.88392 0.6892 0.0
N1005 N 0.39454 1.00255 0.7444 0.0
H1006 H 0.44683 0.9078 0.69444 0.0
H1007 H 0.45744 0.94914 0.7209 0.0
H1008 H 0.38251 0.02596 0.75988 0.0
H1009 H 0.42619 0.01261 0.73487 0.0
H1010 H 0.23596 0.88564 0.69225 0.0
H1011 H 0.28248 0.86805 0.67014 0.0
H1012 H 0.22371 0.89339 0.73592 0.0
H1013 H 0.23523 0.93428 0.76269 0.0
C1014 C 0.93892 0.72172 0.25368 0.0
C1015 C 0.96447 0.68756 0.23797 0.0
C1016 C 0.93303 0.62449 0.26821 0.0
C1017 C 0.90811 0.65868 0.28423 0.0
N1018 N 0.8954 0.73956 0.29685 0.0
N1019 N 0.99579 0.60864 0.23453 0.0
C1020 C 0.91378 0.70733 0.27839 0.0
C1021 C 0.96478 0.63959 0.24668 0.0
N1022 N 0.93702 0.76736 0.24431 0.0
N1023 N 0.92424 0.57763 0.27237 0.0
H1024 H 0.01976 0.61866 0.21879 0.0
H1025 H 1.00087 0.57431 0.24185 0.0
H1026 H 0.90092 0.56514 0.28774 0.0
H1027 H 0.93711 0.55124 0.25911 0.0
H1028 H 0.91483 0.79277 0.25304 0.0
H1029 H 0.95548 0.77921 0.22649 0.0
H1030 H 0.90152 0.77567 0.29537 0.0
H1031 H 0.8775 0.72948 0.31528 0.0
C1032 C 0.66901 0.93117 0.2176 0.0
C1033 C 0.67524 0.98055 0.22009 0.0
C1034 C 0.68144 0.97253 0.27192 0.0
C1035 C 0.67045 0.92408 0.26943 0.0
N1036 N 0.64167 0.86007 0.24063 0.0
N1037 N 0.67954 0.04981 0.24975 0.0
C1038 C 0.66094 0.90407 0.24245 0.0
C1039 C 0.6794 1.00181 0.24732 0.0
N1040 N 0.67173 0.91 0.19156 0.0
N1041 N 0.6948 0.99011 0.29771 0.0
H1042 H 0.67773 0.07236 0.23221 0.0
H1043 H 0.6775 0.06727 0.26917 0.0
H1044 H 0.69678 0.96915 0.31596 0.0
H1045 H 0.70754 0.0242 0.30051 0.0
H1046 H 0.67209 0.87353 0.18894 0.0
H1047 H 0.67829 0.92864 0.17281 0.0
H1048 H 0.63009 0.84544 0.22156 0.0
H1049 H 0.63228 0.84033 0.25848 0.0
C1050 C 0.01051 0.2958 0.73454 0.0
C1051 C 0.99504 0.30921 0.7621 0.0
C1052 C 0.91986 0.33658 0.74235 0.0
C1053 C 0.93396 0.32078 0.71511 0.0
N1054 N 0.98884 0.27957 0.68538 0.0
N1055 N 0.93103 0.33076 0.79327 0.0
C1056 C 0.97822 0.2985 0.71126 0.0
C1057 C 0.94829 0.32575 0.76629 0.0
N1058 N 0.05632 0.28234 0.73047 0.0
N1059 N 0.8805 0.36412 0.74509 0.0
H1060 H 0.95077 0.32229 0.81136 0.0
H1061 H 0.89582 0.33862 0.79759 0.0
H1062 H 0.85976 0.37441 0.72779 0.0
H1063 H 0.8712 0.38074 0.764 0.0
H1064 H 0.07124 0.27734 0.71048 0.0
H1065 H 0.08027 0.27848 0.74719 0.0
H1066 H 0.0186 0.25891 0.68163 0.0
H1067 H 0.96582 0.28197 0.66806 0.0
C1068 C 0.28846 0.04034 0.25192 0.0
C1069 C 0.29753 0.06147 0.22504 0.0
C1070 C 0.32456 0.13347 0.24813 0.0
C1071 C 0.31368 0.11333 0.27494 0.0
N1072 N 0.27858 0.05184 0.30283 0.0
N1073 N 0.31259 0.13122 0.19714 0.0
C1074 C 0.29332 0.068 0.27695 0.0
C1075 C 0.31158 0.10923 0.22307 0.0
N1076 N 0.27742 0.99354 0.25356 0.0
N1077 N 0.34982 0.17441 0.24668 0.0
H1078 H 0.30292 0.11423 0.17835 0.0
H1079 H 0.31842 0.16724 0.19463 0.0
H1080 H 0.36181 0.19222 0.26465 0.0
H1081 H 0.36285 0.18828 0.22772 0.0
H1082 H 0.27563 0.97485 0.27263 0.0
H1083 H 0.27251 0.97256 0.23562 0.0
H1084 H 0.25945 0.02085 0.30561 0.0
H1085 H 0.28264 0.07153 0.3214 0.0
C1086 C 0.0441 0.69197 0.74074 0.0
C1087 C 0.0666 0.68633 0.76763 0.0
C1088 C 0.13924 0.66126 0.74397 0.0
C1089 C 0.11831 0.671 0.71717 0.0
N1090 N 0.05367 0.70173 0.68967 0.0
N1091 N 0.13801 0.67477 0.7948 0.0
C1092 C 0.07146 0.68815 0.71545 0.0
C1093 C 0.11502 0.67387 0.7692 0.0
N1094 N 0.9964 0.69905 0.73934 0.0
N1095 N 0.18126 0.63765 0.74527 0.0
H1096 H 0.12137 0.68429 0.81373 0.0
H1097 H 0.17441 0.67054 0.79684 0.0
H1098 H 0.19874 0.62564 0.72718 0.0
H1099 H 0.19619 0.62565 0.76422 0.0
H1100 H 0.97727 0.69822 0.72041 0.0
H1101 H 0.97527 0.70238 0.75737 0.0
H1102 H 0.02138 0.71888 0.68719 0.0
H1103 H 0.0731 0.69907 0.6709 0.0
C1104 C 0.19152 0.52122 0.50765 0.0
C1105 C 0.23218 0.51118 0.52436 0.0
C1106 C 0.2776 0.4973 0.4808 0.0
C1107 C 0.23745 0.50967 0.46448 0.0
N1108 N 0.16225 0.5482 0.46205 0.0
N1109 N 0.31708 0.50429 0.52633 0.0
C1110 C 0.19626 0.52629 0.47786 0.0
C1111 C 0.27631 0.50333 0.51081 0.0
N1112 N 0.14799 0.52369 0.51993 0.0
N1113 N 0.31645 0.479 0.46772 0.0
H1114 H 0.31767 0.51216 0.54797 0.0
H1115 H 0.3505 0.50269 0.51715 0.0
H1116 H 0.31845 0.47491 0.4457 0.0
H1117 H 0.34499 0.46477 0.47886 0.0
H1118 H 0.11683 0.5264 0.50819 0.0
H1119 H 0.14261 0.51835 0.54156 0.0
H1120 H 0.13345 0.56546 0.47108 0.0
H1121 H 0.166 0.55362 0.44021 0.0
C1122 C 0.52516 0.82543 0.47618 0.0
C1123 C 0.52101 0.78544 0.45831 0.0
C1124 C 0.5136 0.73471 0.50024 0.0
C1125 C 0.52194 0.7742 0.51783 0.0
N1126 N 0.54678 0.85476 0.52266 0.0
N1127 N 0.52422 0.70085 0.45352 0.0
C1128 C 0.53113 0.81891 0.50579 0.0
C1129 C 0.51885 0.73959 0.47036 0.0
N1130 N 0.52157 0.86966 0.46497 0.0
N1131 N 0.49895 0.69315 0.51195 0.0
H1132 H 0.53113 0.70325 0.43179 0.0
H1133 H 0.52709 0.66673 0.46166 0.0
H1134 H 0.4938 0.68885 0.53377 0.0
H1135 H 0.48786 0.66456 0.49979 0.0
H1136 H 0.51949 0.90006 0.47729 0.0
H1137 H 0.51608 0.87542 0.4434 0.0
H1138 H 0.55792 0.88722 0.51472 0.0
H1139 H 0.55338 0.85016 0.54432 0.0
C1140 C 0.74619 0.51159 0.49495 0.0
C1141 C 0.78988 0.51312 0.48036 0.0
C1142 C 0.83143 0.51495 0.52606 0.0
C1143 C 0.78844 0.5059 0.54033 0.0
N1144 N 0.70555 0.48703 0.53773 0.0
N1145 N 0.8747 0.50719 0.48215 0.0
C1146 C 0.74579 0.50217 0.52466 0.0
C1147 C 0.83279 0.51269 0.49595 0.0
N1148 N 0.70522 0.52023 0.4805 0.0
N1149 N 0.87078 0.5264 0.54135 0.0
H1150 H 0.8766 0.50267 0.46027 0.0
H1151 H 0.90673 0.50201 0.49267 0.0
H1152 H 0.8702 0.52999 0.56342 0.0
H1153 H 0.9023 0.53716 0.53196 0.0
H1154 H 0.6726 0.52358 0.49052 0.0
H1155 H 0.70474 0.52898 0.45892 0.0
H1156 H 0.67463 0.47927 0.52665 0.0
H1157 H 0.70443 0.47765 0.55917 0.0
C1158 C 0.53839 0.18666 0.45618 0.0
C1159 C 0.52565 0.23096 0.44462 0.0
C1160 C 0.52596 0.26511 0.49222 0.0
C1161 C 0.53023 0.21929 0.50396 0.0
N1162 N 0.53612 0.13523 0.49727 0.0
N1163 N 0.50127 0.31157 0.4516 0.0
C1164 C 0.53592 0.17964 0.486 0.0
C1165 C 0.51834 0.27029 0.46257 0.0
N1166 N 0.55269 0.15144 0.43842 0.0
N1167 N 0.53005 0.30355 0.50944 0.0
H1168 H 0.49405 0.31628 0.43003 0.0
H1169 H 0.49045 0.33969 0.46423 0.0
H1170 H 0.53732 0.30055 0.53115 0.0
H1171 H 0.53123 0.33801 0.50171 0.0
H1172 H 0.56605 0.11927 0.44557 0.0
H1173 H 0.55549 0.15643 0.41647 0.0
H1174 H 0.53508 0.10478 0.48496 0.0
H1175 H 0.53335 0.12876 0.519 0.0
C1176 C 0.69027 0.01494 0.97373 0.0
C1177 C 0.73358 0.01714 0.95888 0.0
C1178 C 0.77504 0.02482 0.00444 0.0
C1179 C 0.73184 0.01684 0.0188 0.0
N1180 N 0.65245 0.98822 0.01663 0.0
N1181 N 0.81876 0.01207 0.9609 0.0
C1182 C 0.69072 1.00679 0.00323 0.0
C1183 C 0.77669 0.01879 0.97439 0.0
N1184 N 0.64874 0.02295 0.95989 0.0
N1185 N 0.81386 0.03922 0.01923 0.0
H1186 H 0.82115 1.00461 0.93927 0.0
H1187 H 0.85072 0.00896 0.97179 0.0
H1188 H 0.81346 0.04424 0.0412 0.0
H1189 H 0.84499 0.04986 0.00932 0.0
H1190 H 0.61635 0.02461 0.97038 0.0
H1191 H 0.64792 0.03424 0.93882 0.0
H1192 H 0.62294 0.97617 0.00551 0.0
H1193 H 0.65307 0.97987 0.03828 0.0
C1194 C 0.01252 0.25843 0.97957 0.0
C1195 C 0.01159 0.30066 0.96324 0.0
C1196 C 1.00913 0.34673 0.00695 0.0
C1197 C 1.00417 0.30482 0.02297 0.0
N1198 N 0.99054 0.22103 0.02397 0.0
N1199 N 0.99801 0.38443 0.96122 0.0
C1200 C 1.00253 0.26063 0.00911 0.0
C1201 C 1.00631 0.3447 0.97694 0.0
N1202 N 0.02602 0.21686 0.96747 0.0
N1203 N 0.01926 0.38802 0.02036 0.0
H1204 H 0.99381 0.38355 0.93917 0.0
H1205 H 0.99045 0.41703 0.97035 0.0
H1206 H 0.02429 0.38979 0.04231 0.0
H1207 H 0.02796 0.4188 0.0094 0.0
H1208 H 0.03137 0.18608 0.97922 0.0
H1209 H 0.03692 0.21418 0.94639 0.0
H1210 H 0.98459 0.18861 0.01424 0.0
H1211 H 0.98186 0.22177 0.04552 0.0
C1212 C 0.32329 0.01926 0.0036 0.0
C1213 C 0.27954 0.01423 0.01776 0.0
C1214 C 0.2388 0.01299 0.97184 0.0
C1215 C 0.283 0.01137 0.95779 0.0
N1216 N 0.36747 1.00308 0.96081 0.0
N1217 N 0.19656 0.99558 0.01527 0.0
C1218 C 0.32541 0.01191 0.97383 0.0
C1219 C 0.23738 1.00823 0.00189 0.0
N1220 N 0.36258 0.03192 0.01861 0.0
N1221 N 0.19841 0.02089 0.95666 0.0
H1222 H 0.1947 0.98945 0.03711 0.0
H1223 H 0.16596 0.98638 0.00428 0.0
H1224 H 0.19846 0.02693 0.93477 0.0
H1225 H 0.16572 0.0265 0.96625 0.0
H1226 H 0.39475 0.03987 0.00903 0.0
H1227 H 0.36157 0.03916 0.04036 0.0
H1228 H 0.39916 0.99898 0.97185 0.0
H1229 H 0.36959 0.9946 0.93934 0.0
C1230 C 0.98951 0.70684 0.99195 0.0
C1231 C 1.00154 0.74461 0.97348 0.0
C1232 C 0.01257 0.79579 0.01497 0.0
C1233 C 0.99773 0.75849 0.03286 0.0
N1234 N 0.95593 0.68564 0.03743 0.0
N1235 N 0.01004 0.82877 0.96738 0.0
C1236 C 0.9809 0.71627 0.02094 0.0
C1237 C 1.00891 0.79038 0.98494 0.0
N1238 N 0.98863 0.66162 0.98222 0.0
N1239 N 0.03131 0.83562 0.02656 0.0
H1240 H 1.00404 0.82645 0.94555 0.0
H1241 H 0.01151 0.86326 0.9749 0.0
H1242 H 0.034 0.8405 0.04849 0.0
H1243 H 0.04713 0.862 0.01442 0.0
H1244 H 0.984 0.63254 -0.00446 0.0
H1245 H 0.99778 0.65299 0.96147 0.0
H1246 H 0.94017 0.65521 0.02947 0.0
H1247 H 0.94593 0.69454 0.05808 0.0
loop_
_geom_bond_atom_site_label_1
_geom_bond_atom_site_label_2
_geom_bond_distance
_geom_bond_site_symmetry_2
_ccdc_geom_bond_type
C0 C1 1.351 . S
C0 N3 1.368 . S
C0 H5 0.931 . S
C1 C0 1.351 . S
C1 N2 1.373 . S
C1 H29 0.930 . S
N2 C1 1.373 . S
N2 C4 1.340 . S
N3 C0 1.368 . S
N3 C4 1.321 . S
N3 Co6 2.135 . S
C4 N2 1.340 . S
C4 N3 1.321 . S
C4 H28 0.930 . S
H5 C0 0.931 . S
Co6 N3 2.135 . S
Co6 N9 2.121 . S
Co6 O14 2.055 . S
Co6 O17 2.039 . S
Co6 N20 2.140 . S
C7 O8 1.227 . S
C7 O17 1.265 . S
O8 C7 1.227 . S
N9 Co6 2.121 . S
N9 C11 1.375 . S
N9 C12 1.313 . S
C10 C11 1.338 . S
C10 N13 1.377 . S
C10 H30 0.930 . S
C11 N9 1.375 . S
C11 C10 1.338 . S
C11 H15 0.931 . S
C12 N9 1.313 . S
C12 N13 1.344 . S
C12 H16 0.930 . S
N13 C10 1.377 . S
N13 C12 1.344 . S
O14 Co6 2.055 . S
O14 C18 1.253 . S
H15 C11 0.931 . S
H16 C12 0.930 . S
O17 Co6 2.039 . S
O17 C7 1.265 . S
C18 O14 1.253 . S
C18 O19 1.227 . S
O19 C18 1.227 . S
N20 Co6 2.140 . S
N20 C23 1.346 . S
N20 C24 1.345 . S
C21 C22 1.387 . S
C21 C25 1.391 . S
C22 C21 1.387 . S
C22 C23 1.369 . S
C22 H31 0.929 . S
C23 N20 1.346 . S
C23 C22 1.369 . S
C23 H26 0.928 . S
C24 N20 1.345 . S
C24 C25 1.371 . S
C24 H27 0.931 . S
C25 C21 1.391 . S
C25 C24 1.371 . S
C25 H32 0.930 . S
H26 C23 0.928 . S
H27 C24 0.931 . S
H28 C4 0.930 . S
H29 C1 0.930 . S
H30 C10 0.930 . S
H31 C22 0.929 . S
H32 C25 0.930 . S
C33 C34 1.351 . S
C33 N36 1.368 . S
C33 H38 0.931 . S
C34 C33 1.351 . S
C34 N35 1.373 . S
C34 H62 0.930 . S
N35 C34 1.373 . S
N35 C37 1.340 . S
N36 C33 1.368 . S
N36 C37 1.321 . S
N36 Co39 2.135 . S
C37 N35 1.340 . S
C37 N36 1.321 . S
C37 H61 0.930 . S
H38 C33 0.931 . S
Co39 N36 2.135 . S
Co39 N42 2.121 . S
Co39 O47 2.055 . S
Co39 O50 2.039 . S
Co39 N53 2.140 . S
C40 O41 1.227 . S
C40 O50 1.265 . S
O41 C40 1.227 . S
N42 Co39 2.121 . S
N42 C44 1.375 . S
N42 C45 1.313 . S
C43 C44 1.338 . S
C43 N46 1.377 . S
C43 H63 0.930 . S
C44 N42 1.375 . S
C44 C43 1.338 . S
C44 H48 0.931 . S
C45 N42 1.313 . S
C45 N46 1.344 . S
C45 H49 0.930 . S
N46 C43 1.377 . S
N46 C45 1.344 . S
O47 Co39 2.055 . S
O47 C51 1.253 . S
H48 C44 0.931 . S
H49 C45 0.930 . S
O50 Co39 2.039 . S
O50 C40 1.265 . S
C51 O47 1.253 . S
C51 O52 1.227 . S
O52 C51 1.227 . S
N53 Co39 2.140 . S
N53 C56 1.346 . S
N53 C57 1.345 . S
C54 C55 1.387 . S
C54 C58 1.391 . S
C55 C54 1.387 . S
C55 C56 1.369 . S
C55 H64 0.929 . S
C56 N53 1.346 . S
C56 C55 1.369 . S
C56 H59 0.928 . S
C57 N53 1.345 . S
C57 C58 1.371 . S
C57 H60 0.931 . S
C58 C54 1.391 . S
C58 C57 1.371 . S
C58 H65 0.930 . S
H59 C56 0.928 . S
H60 C57 0.931 . S
H61 C37 0.930 . S
H62 C34 0.930 . S
H63 C43 0.930 . S
H64 C55 0.929 . S
H65 C58 0.930 . S
C66 C67 1.351 . S
C66 N69 1.368 . S
C66 H71 0.931 . S
C67 C66 1.351 . S
C67 N68 1.373 . S
C67 H95 0.930 . S
N68 C67 1.373 . S
N68 C70 1.340 . S
N69 C66 1.368 . S
N69 C70 1.321 . S
N69 Co72 2.135 . S
C70 N68 1.340 . S
C70 N69 1.321 . S
C70 H94 0.930 . S
H71 C66 0.931 . S
Co72 N69 2.135 . S
Co72 N75 2.121 . S
Co72 O80 2.055 . S
Co72 O83 2.039 . S
Co72 N86 2.140 . S
C73 O74 1.227 . S
C73 O83 1.265 . S
O74 C73 1.227 . S
N75 Co72 2.121 . S
N75 C77 1.375 . S
N75 C78 1.313 . S
C76 C77 1.338 . S
C76 N79 1.377 . S
C76 H96 0.930 . S
C77 N75 1.375 . S
C77 C76 1.338 . S
C77 H81 0.931 . S
C78 N75 1.313 . S
C78 N79 1.344 . S
C78 H82 0.930 . S
N79 C76 1.377 . S
N79 C78 1.344 . S
O80 Co72 2.055 . S
O80 C84 1.253 . S
H81 C77 0.931 . S
H82 C78 0.930 . S
O83 Co72 2.039 . S
O83 C73 1.265 . S
C84 O80 1.253 . S
C84 O85 1.227 . S
O85 C84 1.227 . S
N86 Co72 2.140 . S
N86 C89 1.346 . S
N86 C90 1.345 . S
C87 C88 1.387 . S
C87 C91 1.391 . S
C88 C87 1.387 . S
C88 C89 1.369 . S
C88 H97 0.929 . S
C89 N86 1.346 . S
C89 C88 1.369 . S
C89 H92 0.928 . S
C90 N86 1.345 . S
C90 C91 1.371 . S
C90 H93 0.931 . S
C91 C87 1.391 . S
C91 C90 1.371 . S
C91 H98 0.930 . S
H92 C89 0.928 . S
H93 C90 0.931 . S
H94 C70 0.930 . S
H95 C67 0.930 . S
H96 C76 0.930 . S
H97 C88 0.929 . S
H98 C91 0.930 . S
C99 C100 1.351 . S
C99 N102 1.368 . S
C99 H104 0.931 . S
C100 C99 1.351 . S
C100 N101 1.373 . S
C100 H128 0.930 . S
N101 C100 1.373 . S
N101 C103 1.340 . S
N102 C99 1.368 . S
N102 C103 1.321 . S
N102 Co105 2.135 . S
C103 N101 1.340 . S
C103 N102 1.321 . S
C103 H127 0.930 . S
H104 C99 0.931 . S
Co105 N102 2.135 . S
Co105 N108 2.121 . S
Co105 O113 2.055 . S
Co105 O116 2.039 . S
Co105 N119 2.140 . S
C106 O107 1.227 . S
C106 O116 1.265 . S
O107 C106 1.227 . S
N108 Co105 2.121 . S
N108 C110 1.375 . S
N108 C111 1.313 . S
C109 C110 1.338 . S
C109 N112 1.377 . S
C109 H129 0.930 . S
C110 N108 1.375 . S
C110 C109 1.338 . S
C110 H114 0.931 . S
C111 N108 1.313 . S
C111 N112 1.344 . S
C111 H115 0.930 . S
N112 C109 1.377 . S
N112 C111 1.344 . S
O113 Co105 2.055 . S
O113 C117 1.253 . S
H114 C110 0.931 . S
H115 C111 0.930 . S
O116 Co105 2.039 . S
O116 C106 1.265 . S
C117 O113 1.253 . S
C117 O118 1.227 . S
O118 C117 1.227 . S
N119 Co105 2.140 . S
N119 C122 1.346 . S
N119 C123 1.345 . S
C120 C121 1.387 . S
C120 C124 1.391 . S
C121 C120 1.387 . S
C121 C122 1.369 . S
C121 H130 0.929 . S
C122 N119 1.346 . S
C122 C121 1.369 . S
C122 H125 0.928 . S
C123 N119 1.345 . S
C123 C124 1.371 . S
C123 H126 0.931 . S
C124 C120 1.391 . S
C124 C123 1.371 . S
C124 H131 0.930 . S
H125 C122 0.928 . S
H126 C123 0.931 . S
H127 C103 0.930 . S
H128 C100 0.930 . S
H129 C109 0.930 . S
H130 C121 0.929 . S
H131 C124 0.930 . S
C132 C133 1.351 . S
C132 N135 1.368 . S
C132 H137 0.931 . S
C133 C132 1.351 . S
C133 N134 1.373 . S
C133 H161 0.930 . S
N134 C133 1.373 . S
N134 C136 1.340 . S
N135 C132 1.368 . S
N135 C136 1.321 . S
N135 Co138 2.135 . S
C136 N134 1.340 . S
C136 N135 1.321 . S
C136 H160 0.930 . S
H137 C132 0.931 . S
Co138 N135 2.135 . S
Co138 N141 2.121 . S
Co138 O146 2.055 . S
Co138 O149 2.039 . S
Co138 N152 2.140 . S
C139 O140 1.227 . S
C139 O149 1.265 . S
O140 C139 1.227 . S
N141 Co138 2.121 . S
N141 C143 1.375 . S
N141 C144 1.313 . S
C142 C143 1.338 . S
C142 N145 1.377 . S
C142 H162 0.930 . S
C143 N141 1.375 . S
C143 C142 1.338 . S
C143 H147 0.931 . S
C144 N141 1.313 . S
C144 N145 1.344 . S
C144 H148 0.930 . S
N145 C142 1.377 . S
N145 C144 1.344 . S
O146 Co138 2.055 . S
O146 C150 1.253 . S
H147 C143 0.931 . S
H148 C144 0.930 . S
O149 Co138 2.039 . S
O149 C139 1.265 . S
C150 O146 1.253 . S
C150 O151 1.227 . S
O151 C150 1.227 . S
N152 Co138 2.140 . S
N152 C155 1.346 . S
N152 C156 1.345 . S
C153 C154 1.387 . S
C153 C157 1.391 . S
C154 C153 1.387 . S
C154 C155 1.369 . S
C154 H163 0.929 . S
C155 N152 1.346 . S
C155 C154 1.369 . S
C155 H158 0.928 . S
C156 N152 1.345 . S
C156 C157 1.371 . S
C156 H159 0.931 . S
C157 C153 1.391 . S
C157 C156 1.371 . S
C157 H164 0.930 . S
H158 C155 0.928 . S
H159 C156 0.931 . S
H160 C136 0.930 . S
H161 C133 0.930 . S
H162 C142 0.930 . S
H163 C154 0.929 . S
H164 C157 0.930 . S
C165 C166 1.351 . S
C165 N168 1.368 . S
C165 H170 0.931 . S
C166 C165 1.351 . S
C166 N167 1.373 . S
C166 H194 0.930 . S
N167 C166 1.373 . S
N167 C169 1.340 . S
N168 C165 1.368 . S
N168 C169 1.321 . S
N168 Co171 2.135 . S
C169 N167 1.340 . S
C169 N168 1.321 . S
C169 H193 0.930 . S
H170 C165 0.931 . S
Co171 N168 2.135 . S
Co171 N174 2.121 . S
Co171 O179 2.055 . S
Co171 O182 2.039 . S
Co171 N185 2.140 . S
C172 O173 1.227 . S
C172 O182 1.265 . S
O173 C172 1.227 . S
N174 Co171 2.121 . S
N174 C176 1.375 . S
N174 C177 1.313 . S
C175 C176 1.338 . S
C175 N178 1.377 . S
C175 H195 0.930 . S
C176 N174 1.375 . S
C176 C175 1.338 . S
C176 H180 0.931 . S
C177 N174 1.313 . S
C177 N178 1.344 . S
C177 H181 0.930 . S
N178 C175 1.377 . S
N178 C177 1.344 . S
O179 Co171 2.055 . S
O179 C183 1.253 . S
H180 C176 0.931 . S
H181 C177 0.930 . S
O182 Co171 2.039 . S
O182 C172 1.265 . S
C183 O179 1.253 . S
C183 O184 1.227 . S
O184 C183 1.227 . S
N185 Co171 2.140 . S
N185 C188 1.346 . S
N185 C189 1.345 . S
C186 C187 1.387 . S
C186 C190 1.391 . S
C187 C186 1.387 . S
C187 C188 1.369 . S
C187 H196 0.929 . S
C188 N185 1.346 . S
C188 C187 1.369 . S
C188 H191 0.928 . S
C189 N185 1.345 . S
C189 C190 1.371 . S
C189 H192 0.931 . S
C190 C186 1.391 . S
C190 C189 1.371 . S
C190 H197 0.930 . S
H191 C188 0.928 . S
H192 C189 0.931 . S
H193 C169 0.930 . S
H194 C166 0.930 . S
H195 C175 0.930 . S
H196 C187 0.929 . S
H197 C190 0.930 . S
C198 C199 1.351 . S
C198 N201 1.368 . S
C198 H203 0.931 . S
C199 C198 1.351 . S
C199 N200 1.373 . S
C199 H227 0.930 . S
N200 C199 1.373 . S
N200 C202 1.340 . S
N201 C198 1.368 . S
N201 C202 1.321 . S
N201 Co204 2.135 . S
C202 N200 1.340 . S
C202 N201 1.321 . S
C202 H226 0.930 . S
H203 C198 0.931 . S
Co204 N201 2.135 . S
Co204 N207 2.121 . S
Co204 O212 2.055 . S
Co204 O215 2.039 . S
Co204 N218 2.140 . S
C205 O206 1.227 . S
C205 O215 1.265 . S
O206 C205 1.227 . S
N207 Co204 2.121 . S
N207 C209 1.375 . S
N207 C210 1.313 . S
C208 C209 1.338 . S
C208 N211 1.377 . S
C208 H228 0.930 . S
C209 N207 1.375 . S
C209 C208 1.338 . S
C209 H213 0.931 . S
C210 N207 1.313 . S
C210 N211 1.344 . S
C210 H214 0.930 . S
N211 C208 1.377 . S
N211 C210 1.344 . S
O212 Co204 2.055 . S
O212 C216 1.253 . S
H213 C209 0.931 . S
H214 C210 0.930 . S
O215 Co204 2.039 . S
O215 C205 1.265 . S
C216 O212 1.253 . S
C216 O217 1.227 . S
O217 C216 1.227 . S
N218 Co204 2.140 . S
N218 C221 1.346 . S
N218 C222 1.345 . S
C219 C220 1.387 . S
C219 C223 1.391 . S
C220 C219 1.387 . S
C220 C221 1.369 . S
C220 H229 0.929 . S
C221 N218 1.346 . S
C221 C220 1.369 . S
C221 H224 0.928 . S
C222 N218 1.345 . S
C222 C223 1.371 . S
C222 H225 0.931 . S
C223 C219 1.391 . S
C223 C222 1.371 . S
C223 H230 0.930 . S
H224 C221 0.928 . S
H225 C222 0.931 . S
H226 C202 0.930 . S
H227 C199 0.930 . S
H228 C208 0.930 . S
H229 C220 0.929 . S
H230 C223 0.930 . S
C231 C232 1.351 . S
C231 N234 1.368 . S
C231 H236 0.931 . S
C232 C231 1.351 . S
C232 N233 1.373 . S
C232 H260 0.930 . S
N233 C232 1.373 . S
N233 C235 1.340 . S
N234 C231 1.368 . S
N234 C235 1.321 . S
N234 Co237 2.135 . S
C235 N233 1.340 . S
C235 N234 1.321 . S
C235 H259 0.930 . S
H236 C231 0.931 . S
Co237 N234 2.135 . S
Co237 N240 2.121 . S
Co237 O245 2.055 . S
Co237 O248 2.039 . S
Co237 N251 2.140 . S
C238 O239 1.227 . S
C238 O248 1.265 . S
O239 C238 1.227 . S
N240 Co237 2.121 . S
N240 C242 1.375 . S
N240 C243 1.313 . S
C241 C242 1.338 . S
C241 N244 1.377 . S
C241 H261 0.930 . S
C242 N240 1.375 . S
C242 C241 1.338 . S
C242 H246 0.931 . S
C243 N240 1.313 . S
C243 N244 1.344 . S
C243 H247 0.930 . S
N244 C241 1.377 . S
N244 C243 1.344 . S
O245 Co237 2.055 . S
O245 C249 1.253 . S
H246 C242 0.931 . S
H247 C243 0.930 . S
O248 Co237 2.039 . S
O248 C238 1.265 . S
C249 O245 1.253 . S
C249 O250 1.227 . S
O250 C249 1.227 . S
N251 Co237 2.140 . S
N251 C254 1.346 . S
N251 C255 1.345 . S
C252 C253 1.387 . S
C252 C256 1.391 . S
C253 C252 1.387 . S
C253 C254 1.369 . S
C253 H262 0.929 . S
C254 N251 1.346 . S
C254 C253 1.369 . S
C254 H257 0.928 . S
C255 N251 1.345 . S
C255 C256 1.371 . S
C255 H258 0.931 . S
C256 C252 1.391 . S
C256 C255 1.371 . S
C256 H263 0.930 . S
H257 C254 0.928 . S
H258 C255 0.931 . S
H259 C235 0.930 . S
H260 C232 0.930 . S
H261 C241 0.930 . S
H262 C253 0.929 . S
H263 C256 0.930 . S
C264 C265 1.351 . S
C264 N267 1.368 . S
C264 H269 0.931 . S
C265 C264 1.351 . S
C265 N266 1.373 . S
C265 H293 0.930 . S
N266 C265 1.373 . S
N266 C268 1.340 . S
N267 C264 1.368 . S
N267 C268 1.321 . S
N267 Co270 2.135 . S
C268 N266 1.340 . S
C268 N267 1.321 . S
C268 H292 0.930 . S
H269 C264 0.931 . S
Co270 N267 2.135 . S
Co270 N273 2.121 . S
Co270 O278 2.055 . S
Co270 O281 2.039 . S
Co270 N284 2.140 . S
C271 O272 1.227 . S
C271 O281 1.265 . S
O272 C271 1.227 . S
N273 Co270 2.121 . S
N273 C275 1.375 1_565 S
N273 C276 1.313 . S
C274 C275 1.338 . S
C274 N277 1.377 . S
C274 H294 0.930 . S
C275 N273 1.375 1_545 S
C275 C274 1.338 . S
C275 H279 0.931 . S
C276 N273 1.313 . S
C276 N277 1.344 1_565 S
C276 H280 0.930 . S
N277 C274 1.377 . S
N277 C276 1.344 1_545 S
O278 Co270 2.055 . S
O278 C282 1.253 . S
H279 C275 0.931 . S
H280 C276 0.930 . S
O281 Co270 2.039 . S
O281 C271 1.265 . S
C282 O278 1.253 . S
C282 O283 1.227 . S
O283 C282 1.227 . S
N284 Co270 2.140 . S
N284 C287 1.346 1_565 S
N284 C288 1.345 1_565 S
C285 C286 1.387 . S
C285 C289 1.391 . S
C286 C285 1.387 . S
C286 C287 1.369 . S
C286 H295 0.929 . S
C287 N284 1.346 1_545 S
C287 C286 1.369 . S
C287 H290 0.928 1_545 S
C288 N284 1.345 1_545 S
C288 C289 1.371 . S
C288 H291 0.931 . S
C289 C285 1.391 . S
C289 C288 1.371 . S
C289 H296 0.930 . S
H290 C287 0.928 1_565 S
H291 C288 0.931 . S
H292 C268 0.930 . S
H293 C265 0.930 . S
H294 C274 0.930 . S
H295 C286 0.929 . S
H296 C289 0.930 . S
C297 C298 1.351 . S
C297 N300 1.368 . S
C297 H302 0.931 . S
C298 C297 1.351 . S
C298 N299 1.373 . S
C298 H326 0.930 . S
N299 C298 1.373 . S
N299 C301 1.340 . S
N300 C297 1.368 . S
N300 C301 1.321 . S
N300 Co303 2.135 . S
C301 N299 1.340 . S
C301 N300 1.321 . S
C301 H325 0.930 . S
H302 C297 0.931 . S
Co303 N300 2.135 . S
Co303 N306 2.121 . S
Co303 O311 2.055 . S
Co303 O314 2.039 . S
Co303 N317 2.140 . S
C304 O305 1.227 . S
C304 O314 1.265 . S
O305 C304 1.227 . S
N306 Co303 2.121 . S
N306 C308 1.375 1_655 S
N306 C309 1.313 . S
C307 C308 1.338 . S
C307 N310 1.377 . S
C307 H327 0.930 . S
C308 N306 1.375 1_455 S
C308 C307 1.338 . S
C308 H312 0.931 . S
C309 N306 1.313 . S
C309 N310 1.344 1_655 S
C309 H313 0.930 . S
N310 C307 1.377 . S
N310 C309 1.344 1_455 S
O311 Co303 2.055 . S
O311 C315 1.253 . S
H312 C308 0.931 . S
H313 C309 0.930 . S
O314 Co303 2.039 . S
O314 C304 1.265 . S
C315 O311 1.253 . S
C315 O316 1.227 . S
O316 C315 1.227 . S
N317 Co303 2.140 . S
N317 C320 1.346 1_655 S
N317 C321 1.345 1_655 S
C318 C319 1.387 . S
C318 C322 1.391 . S
C319 C318 1.387 . S
C319 C320 1.369 . S
C319 H328 0.929 . S
C320 N317 1.346 1_455 S
C320 C319 1.369 . S
C320 H323 0.928 1_455 S
C321 N317 1.345 1_455 S
C321 C322 1.371 . S
C321 H324 0.931 . S
C322 C318 1.391 . S
C322 C321 1.371 . S
C322 H329 0.930 . S
H323 C320 0.928 1_655 S
H324 C321 0.931 . S
H325 C301 0.930 . S
H326 C298 0.930 . S
H327 C307 0.930 . S
H328 C319 0.929 . S
H329 C322 0.930 . S
C330 C331 1.351 . S
C330 N333 1.368 . S
C330 H335 0.931 . S
C331 C330 1.351 . S
C331 N332 1.373 . S
C331 H359 0.930 . S
N332 C331 1.373 . S
N332 C334 1.340 . S
N333 C330 1.368 . S
N333 C334 1.321 . S
N333 Co336 2.135 . S
C334 N332 1.340 . S
C334 N333 1.321 . S
C334 H358 0.930 . S
H335 C330 0.931 . S
Co336 N333 2.135 . S
Co336 N339 2.121 . S
Co336 O344 2.055 . S
Co336 O347 2.039 . S
Co336 N350 2.140 . S
C337 O338 1.227 . S
C337 O347 1.265 . S
O338 C337 1.227 . S
N339 Co336 2.121 . S
N339 C341 1.375 1_545 S
N339 C342 1.313 . S
C340 C341 1.338 . S
C340 N343 1.377 . S
C340 H360 0.930 . S
C341 N339 1.375 1_565 S
C341 C340 1.338 . S
C341 H345 0.931 . S
C342 N339 1.313 . S
C342 N343 1.344 1_545 S
C342 H346 0.930 . S
N343 C340 1.377 . S
N343 C342 1.344 1_565 S
O344 Co336 2.055 . S
O344 C348 1.253 . S
H345 C341 0.931 . S
H346 C342 0.930 . S
O347 Co336 2.039 . S
O347 C337 1.265 . S
C348 O344 1.253 . S
C348 O349 1.227 . S
O349 C348 1.227 . S
N350 Co336 2.140 . S
N350 C353 1.346 1_545 S
N350 C354 1.345 1_545 S
C351 C352 1.387 . S
C351 C355 1.391 . S
C352 C351 1.387 . S
C352 C353 1.369 . S
C352 H361 0.929 . S
C353 N350 1.346 1_565 S
C353 C352 1.369 . S
C353 H356 0.928 1_565 S
C354 N350 1.345 1_565 S
C354 C355 1.371 . S
C354 H357 0.931 . S
C355 C351 1.391 . S
C355 C354 1.371 . S
C355 H362 0.930 . S
H356 C353 0.928 1_545 S
H357 C354 0.931 . S
H358 C334 0.930 . S
H359 C331 0.930 . S
H360 C340 0.930 . S
H361 C352 0.929 . S
H362 C355 0.930 . S
C363 C364 1.351 . S
C363 N366 1.368 . S
C363 H368 0.931 . S
C364 C363 1.351 . S
C364 N365 1.373 . S
C364 H392 0.930 . S
N365 C364 1.373 . S
N365 C367 1.340 . S
N366 C363 1.368 . S
N366 C367 1.321 . S
N366 Co369 2.135 . S
C367 N365 1.340 . S
C367 N366 1.321 . S
C367 H391 0.930 . S
H368 C363 0.931 . S
Co369 N366 2.135 . S
Co369 N372 2.121 . S
Co369 O377 2.055 . S
Co369 O380 2.039 . S
Co369 N383 2.140 . S
C370 O371 1.227 . S
C370 O380 1.265 . S
O371 C370 1.227 . S
N372 Co369 2.121 . S
N372 C374 1.375 1_455 S
N372 C375 1.313 . S
C373 C374 1.338 . S
C373 N376 1.377 . S
C373 H393 0.930 . S
C374 N372 1.375 1_655 S
C374 C373 1.338 . S
C374 H378 0.931 . S
C375 N372 1.313 . S
C375 N376 1.344 1_455 S
C375 H379 0.930 . S
N376 C373 1.377 . S
N376 C375 1.344 1_655 S
O377 Co369 2.055 . S
O377 C381 1.253 . S
H378 C374 0.931 . S
H379 C375 0.930 . S
O380 Co369 2.039 . S
O380 C370 1.265 . S
C381 O377 1.253 . S
C381 O382 1.227 . S
O382 C381 1.227 . S
N383 Co369 2.140 . S
N383 C386 1.346 1_455 S
N383 C387 1.345 1_455 S
C384 C385 1.387 . S
C384 C388 1.391 . S
C385 C384 1.387 . S
C385 C386 1.369 . S
C385 H394 0.929 . S
C386 N383 1.346 1_655 S
C386 C385 1.369 . S
C386 H389 0.928 1_655 S
C387 N383 1.345 1_655 S
C387 C388 1.371 . S
C387 H390 0.931 . S
C388 C384 1.391 . S
C388 C387 1.371 . S
C388 H395 0.930 . S
H389 C386 0.928 1_455 S
H390 C387 0.931 . S
H391 C367 0.930 . S
H392 C364 0.930 . S
H393 C373 0.930 . S
H394 C385 0.929 . S
H395 C388 0.930 . S
C396 C397 1.351 . S
C396 N399 1.368 . S
C396 H401 0.931 . S
C397 C396 1.351 . S
C397 N398 1.373 . S
C397 H425 0.930 . S
N398 C397 1.373 . S
N398 C400 1.340 . S
N399 C396 1.368 . S
N399 C400 1.321 . S
N399 Co402 2.135 . S
C400 N398 1.340 . S
C400 N399 1.321 . S
C400 H424 0.930 . S
H401 C396 0.931 . S
Co402 N399 2.135 . S
Co402 N405 2.121 . S
Co402 O410 2.055 . S
Co402 O413 2.039 . S
Co402 N416 2.140 . S
C403 O404 1.227 . S
C403 O413 1.265 . S
O404 C403 1.227 . S
N405 Co402 2.121 . S
N405 C407 1.375 1_545 S
N405 C408 1.313 . S
C406 C407 1.338 . S
C406 N409 1.377 . S
C406 H426 0.930 . S
C407 N405 1.375 1_565 S
C407 C406 1.338 . S
C407 H411 0.931 . S
C408 N405 1.313 . S
C408 N409 1.344 1_545 S
C408 H412 0.930 . S
N409 C406 1.377 . S
N409 C408 1.344 1_565 S
O410 Co402 2.055 . S
O410 C414 1.253 . S
H411 C407 0.931 . S
H412 C408 0.930 . S
O413 Co402 2.039 . S
O413 C403 1.265 . S
C414 O410 1.253 . S
C414 O415 1.227 . S
O415 C414 1.227 . S
N416 Co402 2.140 . S
N416 C419 1.346 1_545 S
N416 C420 1.345 1_545 S
C417 C418 1.387 . S
C417 C421 1.391 . S
C418 C417 1.387 . S
C418 C419 1.369 . S
C418 H427 0.929 . S
C419 N416 1.346 1_565 S
C419 C418 1.369 . S
C419 H422 0.928 1_565 S
C420 N416 1.345 1_565 S
C420 C421 1.371 . S
C420 H423 0.931 . S
C421 C417 1.391 . S
C421 C420 1.371 . S
C421 H428 0.930 . S
H422 C419 0.928 1_545 S
H423 C420 0.931 . S
H424 C400 0.930 . S
H425 C397 0.930 . S
H426 C406 0.930 . S
H427 C418 0.929 . S
H428 C421 0.930 . S
C429 C430 1.351 . S
C429 N432 1.368 . S
C429 H434 0.931 . S
C430 C429 1.351 . S
C430 N431 1.373 . S
C430 H458 0.930 . S
N431 C430 1.373 . S
N431 C433 1.340 . S
N432 C429 1.368 . S
N432 C433 1.321 . S
N432 Co435 2.135 . S
C433 N431 1.340 . S
C433 N432 1.321 . S
C433 H457 0.930 . S
H434 C429 0.931 . S
Co435 N432 2.135 . S
Co435 N438 2.121 . S
Co435 O443 2.055 . S
Co435 O446 2.039 . S
Co435 N449 2.140 . S
C436 O437 1.227 . S
C436 O446 1.265 . S
O437 C436 1.227 . S
N438 Co435 2.121 . S
N438 C440 1.375 1_455 S
N438 C441 1.313 . S
C439 C440 1.338 . S
C439 N442 1.377 . S
C439 H459 0.930 . S
C440 N438 1.375 1_655 S
C440 C439 1.338 . S
C440 H444 0.931 . S
C441 N438 1.313 . S
C441 N442 1.344 1_455 S
C441 H445 0.930 . S
N442 C439 1.377 . S
N442 C441 1.344 1_655 S
O443 Co435 2.055 . S
O443 C447 1.253 . S
H444 C440 0.931 . S
H445 C441 0.930 . S
O446 Co435 2.039 . S
O446 C436 1.265 . S
C447 O443 1.253 . S
C447 O448 1.227 . S
O448 C447 1.227 . S
N449 Co435 2.140 . S
N449 C452 1.346 1_455 S
N449 C453 1.345 1_455 S
C450 C451 1.387 . S
C450 C454 1.391 . S
C451 C450 1.387 . S
C451 C452 1.369 . S
C451 H460 0.929 . S
C452 N449 1.346 1_655 S
C452 C451 1.369 . S
C452 H455 0.928 1_655 S
C453 N449 1.345 1_655 S
C453 C454 1.371 . S
C453 H456 0.931 . S
C454 C450 1.391 . S
C454 C453 1.371 . S
C454 H461 0.930 . S
H455 C452 0.928 1_455 S
H456 C453 0.931 . S
H457 C433 0.930 . S
H458 C430 0.930 . S
H459 C439 0.930 . S
H460 C451 0.929 . S
H461 C454 0.930 . S
C462 C463 1.351 . S
C462 N465 1.368 . S
C462 H467 0.931 . S
C463 C462 1.351 . S
C463 N464 1.373 . S
C463 H491 0.930 . S
N464 C463 1.373 . S
N464 C466 1.340 . S
N465 C462 1.368 . S
N465 C466 1.321 . S
N465 Co468 2.135 . S
C466 N464 1.340 . S
C466 N465 1.321 . S
C466 H490 0.930 . S
H467 C462 0.931 . S
Co468 N465 2.135 . S
Co468 N471 2.121 . S
Co468 O476 2.055 . S
Co468 O479 2.039 . S
Co468 N482 2.140 . S
C469 O470 1.227 . S
C469 O479 1.265 . S
O470 C469 1.227 . S
N471 Co468 2.121 . S
N471 C473 1.375 1_565 S
N471 C474 1.313 . S
C472 C473 1.338 . S
C472 N475 1.377 . S
C472 H492 0.930 . S
C473 N471 1.375 1_545 S
C473 C472 1.338 . S
C473 H477 0.931 . S
C474 N471 1.313 . S
C474 N475 1.344 1_565 S
C474 H478 0.930 . S
N475 C472 1.377 . S
N475 C474 1.344 1_545 S
O476 Co468 2.055 . S
O476 C480 1.253 . S
H477 C473 0.931 . S
H478 C474 0.930 . S
O479 Co468 2.039 . S
O479 C469 1.265 . S
C480 O476 1.253 . S
C480 O481 1.227 . S
O481 C480 1.227 . S
N482 Co468 2.140 . S
N482 C485 1.346 1_565 S
N482 C486 1.345 1_565 S
C483 C484 1.387 . S
C483 C487 1.391 . S
C484 C483 1.387 . S
C484 C485 1.369 . S
C484 H493 0.929 . S
C485 N482 1.346 1_545 S
C485 C484 1.369 . S
C485 H488 0.928 1_545 S
C486 N482 1.345 1_545 S
C486 C487 1.371 . S
C486 H489 0.931 . S
C487 C483 1.391 . S
C487 C486 1.371 . S
C487 H494 0.930 . S
H488 C485 0.928 1_565 S
H489 C486 0.931 . S
H490 C466 0.930 . S
H491 C463 0.930 . S
H492 C472 0.930 . S
H493 C484 0.929 . S
H494 C487 0.930 . S
C495 C496 1.351 . S
C495 N498 1.368 . S
C495 H500 0.931 . S
C496 C495 1.351 . S
C496 N497 1.373 . S
C496 H524 0.930 . S
N497 C496 1.373 . S
N497 C499 1.340 . S
N498 C495 1.368 . S
N498 C499 1.321 . S
N498 Co501 2.135 . S
C499 N497 1.340 . S
C499 N498 1.321 . S
C499 H523 0.930 . S
H500 C495 0.931 . S
Co501 N498 2.135 . S
Co501 N504 2.121 . S
Co501 O509 2.055 . S
Co501 O512 2.039 . S
Co501 N515 2.140 . S
C502 O503 1.227 . S
C502 O512 1.265 . S
O503 C502 1.227 . S
N504 Co501 2.121 . S
N504 C506 1.375 1_655 S
N504 C507 1.313 . S
C505 C506 1.338 . S
C505 N508 1.377 . S
C505 H525 0.930 . S
C506 N504 1.375 1_455 S
C506 C505 1.338 . S
C506 H510 0.931 . S
C507 N504 1.313 . S
C507 N508 1.344 1_655 S
C507 H511 0.930 . S
N508 C505 1.377 . S
N508 C507 1.344 1_455 S
O509 Co501 2.055 . S
O509 C513 1.253 . S
H510 C506 0.931 . S
H511 C507 0.930 . S
O512 Co501 2.039 . S
O512 C502 1.265 . S
C513 O509 1.253 . S
C513 O514 1.227 . S
O514 C513 1.227 . S
N515 Co501 2.140 . S
N515 C518 1.346 1_655 S
N515 C519 1.345 1_655 S
C516 C517 1.387 . S
C516 C520 1.391 . S
C517 C516 1.387 . S
C517 C518 1.369 . S
C517 H526 0.929 . S
C518 N515 1.346 1_455 S
C518 C517 1.369 . S
C518 H521 0.928 1_455 S
C519 N515 1.345 1_455 S
C519 C520 1.371 . S
C519 H522 0.931 . S
C520 C516 1.391 . S
C520 C519 1.371 . S
C520 H527 0.930 . S
H521 C518 0.928 1_655 S
H522 C519 0.931 . S
H523 C499 0.930 . S
H524 C496 0.930 . S
H525 C505 0.930 . S
H526 C517 0.929 . S
H527 C520 0.930 . S
C528 C529 1.363 . S
C528 C534 1.379 1_655 S
C528 N536 1.356 . S
C529 C528 1.363 . S
C529 C535 1.363 . S
C530 C531 1.363 . S
C530 C535 1.379 1_455 S
C530 N537 1.356 . S
C531 C530 1.363 . S
C531 C534 1.363 . S
N532 C534 1.356 . S
N532 H544 0.984 . S
N532 H545 0.985 . S
N533 C535 1.356 . S
N533 H538 0.984 . S
N533 H539 0.985 . S
C534 C528 1.379 1_455 S
C534 C531 1.363 . S
C534 N532 1.356 . S
C535 C529 1.363 . S
C535 C530 1.379 1_655 S
C535 N533 1.356 . S
N536 C528 1.356 . S
N536 H542 0.984 . S
N536 H543 0.984 . S
N537 C530 1.356 . S
N537 H540 0.984 . S
N537 H541 0.985 . S
H538 N533 0.984 . S
H539 N533 0.985 . S
H540 N537 0.984 . S
H541 N537 0.985 . S
H542 N536 0.984 . S
H543 N536 0.984 . S
H544 N532 0.984 . S
H545 N532 0.985 . S
C546 C547 1.363 . S
C546 C552 1.379 1_545 S
C546 N554 1.356 . S
C547 C546 1.363 . S
C547 C553 1.363 . S
C548 C549 1.363 . S
C548 C553 1.379 1_565 S
C548 N555 1.356 . S
C549 C548 1.363 . S
C549 C552 1.363 . S
N550 C552 1.356 . S
N550 H562 0.984 . S
N550 H563 0.985 . S
N551 C553 1.356 . S
N551 H556 0.984 . S
N551 H557 0.985 . S
C552 C546 1.379 1_565 S
C552 C549 1.363 . S
C552 N550 1.356 . S
C553 C547 1.363 . S
C553 C548 1.379 1_545 S
C553 N551 1.356 . S
N554 C546 1.356 . S
N554 H560 0.984 . S
N554 H561 0.984 . S
N555 C548 1.356 . S
N555 H558 0.984 . S
N555 H559 0.985 . S
H556 N551 0.984 . S
H557 N551 0.985 . S
H558 N555 0.984 . S
H559 N555 0.985 . S
H560 N554 0.984 . S
H561 N554 0.984 . S
H562 N550 0.984 . S
H563 N550 0.985 . S
C564 C565 1.363 . S
C564 C570 1.379 1_655 S
C564 N572 1.356 . S
C565 C564 1.363 . S
C565 C571 1.363 . S
C566 C567 1.363 . S
C566 C571 1.379 1_455 S
C566 N573 1.356 . S
C567 C566 1.363 . S
C567 C570 1.363 . S
N568 C570 1.356 . S
N568 H580 0.984 . S
N568 H581 0.985 . S
N569 C571 1.356 . S
N569 H574 0.984 . S
N569 H575 0.985 . S
C570 C564 1.379 1_455 S
C570 C567 1.363 . S
C570 N568 1.356 . S
C571 C565 1.363 . S
C571 C566 1.379 1_655 S
C571 N569 1.356 . S
N572 C564 1.356 . S
N572 H578 0.984 . S
N572 H579 0.984 . S
N573 C566 1.356 . S
N573 H576 0.984 . S
N573 H577 0.985 . S
H574 N569 0.984 . S
H575 N569 0.985 . S
H576 N573 0.984 . S
H577 N573 0.985 . S
H578 N572 0.984 . S
H579 N572 0.984 . S
H580 N568 0.984 . S
H581 N568 0.985 . S
C582 C583 1.363 . S
C582 C588 1.379 1_565 S
C582 N590 1.356 . S
C583 C582 1.363 . S
C583 C589 1.363 . S
C584 C585 1.363 . S
C584 C589 1.379 1_545 S
C584 N591 1.356 . S
C585 C584 1.363 . S
C585 C588 1.363 . S
N586 C588 1.356 . S
N586 H598 0.984 . S
N586 H599 0.985 . S
N587 C589 1.356 . S
N587 H592 0.984 . S
N587 H593 0.985 . S
C588 C582 1.379 1_545 S
C588 C585 1.363 . S
C588 N586 1.356 . S
C589 C583 1.363 . S
C589 C584 1.379 1_565 S
C589 N587 1.356 . S
N590 C582 1.356 . S
N590 H596 0.984 . S
N590 H597 0.984 . S
N591 C584 1.356 . S
N591 H594 0.984 . S
N591 H595 0.985 . S
H592 N587 0.984 . S
H593 N587 0.985 . S
H594 N591 0.984 . S
H595 N591 0.985 . S
H596 N590 0.984 . S
H597 N590 0.984 . S
H598 N586 0.984 . S
H599 N586 0.985 . S
C600 C601 1.363 1_545 S
C600 C606 1.379 . S
C600 N608 1.356 1_545 S
C601 C600 1.363 1_565 S
C601 C607 1.363 . S
C602 C603 1.363 1_565 S
C602 C607 1.379 . S
C602 N609 1.356 1_565 S
C603 C602 1.363 1_545 S
C603 C606 1.363 . S
N604 C606 1.356 . S
N604 H616 0.984 . S
N604 H617 0.985 . S
N605 C607 1.356 . S
N605 H610 0.984 . S
N605 H611 0.985 . S
C606 C600 1.379 . S
C606 C603 1.363 . S
C606 N604 1.356 . S
C607 C601 1.363 . S
C607 C602 1.379 . S
C607 N605 1.356 . S
N608 C600 1.356 1_565 S
N608 H614 0.984 1_565 S
N608 H615 0.984 . S
N609 C602 1.356 1_545 S
N609 H612 0.984 . S
N609 H613 0.985 1_545 S
H610 N605 0.984 . S
H611 N605 0.985 . S
H612 N609 0.984 . S
H613 N609 0.985 1_565 S
H614 N608 0.984 1_545 S
H615 N608 0.984 . S
H616 N604 0.984 . S
H617 N604 0.985 . S
C618 C619 1.363 1_455 S
C618 C624 1.379 . S
C618 N626 1.356 1_455 S
C619 C618 1.363 1_655 S
C619 C625 1.363 . S
C620 C621 1.363 1_655 S
C620 C625 1.379 . S
C620 N627 1.356 1_655 S
C621 C620 1.363 1_455 S
C621 C624 1.363 . S
N622 C624 1.356 . S
N622 H634 0.984 . S
N622 H635 0.985 . S
N623 C625 1.356 . S
N623 H628 0.984 . S
N623 H629 0.985 . S
C624 C618 1.379 . S
C624 C621 1.363 . S
C624 N622 1.356 . S
C625 C619 1.363 . S
C625 C620 1.379 . S
C625 N623 1.356 . S
N626 C618 1.356 1_655 S
N626 H632 0.984 1_655 S
N626 H633 0.984 . S
N627 C620 1.356 1_455 S
N627 H630 0.984 . S
N627 H631 0.985 1_455 S
H628 N623 0.984 . S
H629 N623 0.985 . S
H630 N627 0.984 . S
H631 N627 0.985 1_655 S
H632 N626 0.984 1_455 S
H633 N626 0.984 . S
H634 N622 0.984 . S
H635 N622 0.985 . S
C636 C637 1.363 . S
C636 C642 1.379 . S
C636 N644 1.356 . S
C637 C636 1.363 . S
C637 C643 1.363 1_565 S
C638 C639 1.363 . S
C638 C643 1.379 . S
C638 N645 1.356 . S
C639 C638 1.363 . S
C639 C642 1.363 1_545 S
N640 C642 1.356 1_545 S
N640 H652 0.984 1_545 S
N640 H653 0.985 . S
N641 C643 1.356 1_565 S
N641 H646 0.984 . S
N641 H647 0.985 1_565 S
C642 C636 1.379 . S
C642 C639 1.363 1_565 S
C642 N640 1.356 1_565 S
C643 C637 1.363 1_545 S
C643 C638 1.379 . S
C643 N641 1.356 1_545 S
N644 C636 1.356 . S
N644 H650 0.984 . S
N644 H651 0.984 . S
N645 C638 1.356 . S
N645 H648 0.984 . S
N645 H649 0.985 . S
H646 N641 0.984 . S
H647 N641 0.985 1_545 S
H648 N645 0.984 . S
H649 N645 0.985 . S
H650 N644 0.984 . S
H651 N644 0.984 . S
H652 N640 0.984 1_565 S
H653 N640 0.985 . S
C654 C655 1.363 1_455 S
C654 C660 1.379 . S
C654 N662 1.356 1_455 S
C655 C654 1.363 1_655 S
C655 C661 1.363 . S
C656 C657 1.363 1_655 S
C656 C661 1.379 . S
C656 N663 1.356 1_655 S
C657 C656 1.363 1_455 S
C657 C660 1.363 . S
N658 C660 1.356 . S
N658 H670 0.984 . S
N658 H671 0.985 . S
N659 C661 1.356 . S
N659 H664 0.984 . S
N659 H665 0.985 . S
C660 C654 1.379 . S
C660 C657 1.363 . S
C660 N658 1.356 . S
C661 C655 1.363 . S
C661 C656 1.379 . S
C661 N659 1.356 . S
N662 C654 1.356 1_655 S
N662 H668 0.984 1_655 S
N662 H669 0.984 . S
N663 C656 1.356 1_455 S
N663 H666 0.984 . S
N663 H667 0.985 1_455 S
H664 N659 0.984 . S
H665 N659 0.985 . S
H666 N663 0.984 . S
H667 N663 0.985 1_655 S
H668 N662 0.984 1_455 S
H669 N662 0.984 . S
H670 N658 0.984 . S
H671 N658 0.985 . S
C672 C673 1.363 . S
C672 C678 1.379 . S
C672 N680 1.356 . S
C673 C672 1.363 . S
C673 C679 1.363 . S
C674 C675 1.363 . S
C674 C679 1.379 . S
C674 N681 1.356 . S
C675 C674 1.363 . S
C675 C678 1.363 . S
N676 C678 1.356 . S
N676 H688 0.984 . S
N676 H689 0.985 . S
N677 C679 1.356 . S
N677 H682 0.984 . S
N677 H683 0.985 . S
C678 C672 1.379 . S
C678 C675 1.363 . S
C678 N676 1.356 . S
C679 C673 1.363 . S
C679 C674 1.379 . S
C679 N677 1.356 . S
N680 C672 1.356 . S
N680 H686 0.984 . S
N680 H687 0.984 . S
N681 C674 1.356 . S
N681 H684 0.984 . S
N681 H685 0.985 . S
H682 N677 0.984 . S
H683 N677 0.985 . S
H684 N681 0.984 . S
H685 N681 0.985 . S
H686 N680 0.984 . S
H687 N680 0.984 . S
H688 N676 0.984 . S
H689 N676 0.985 . S
C690 C691 1.363 . S
C690 C696 1.379 . S
C690 N698 1.356 . S
C691 C690 1.363 . S
C691 C697 1.363 . S
C692 C693 1.363 . S
C692 C697 1.379 . S
C692 N699 1.356 . S
C693 C692 1.363 . S
C693 C696 1.363 . S
N694 C696 1.356 . S
N694 H706 0.984 . S
N694 H707 0.985 . S
N695 C697 1.356 . S
N695 H700 0.984 . S
N695 H701 0.985 . S
C696 C690 1.379 . S
C696 C693 1.363 . S
C696 N694 1.356 . S
C697 C691 1.363 . S
C697 C692 1.379 . S
C697 N695 1.356 . S
N698 C690 1.356 . S
N698 H704 0.984 . S
N698 H705 0.984 . S
N699 C692 1.356 . S
N699 H702 0.984 . S
N699 H703 0.985 . S
H700 N695 0.984 . S
H701 N695 0.985 . S
H702 N699 0.984 . S
H703 N699 0.985 . S
H704 N698 0.984 . S
H705 N698 0.984 . S
H706 N694 0.984 . S
H707 N694 0.985 . S
C708 C709 1.363 . S
C708 C714 1.379 . S
C708 N716 1.356 . S
C709 C708 1.363 . S
C709 C715 1.363 . S
C710 C711 1.363 . S
C710 C715 1.379 . S
C710 N717 1.356 . S
C711 C710 1.363 . S
C711 C714 1.363 . S
N712 C714 1.356 . S
N712 H724 0.984 . S
N712 H725 0.985 . S
N713 C715 1.356 . S
N713 H718 0.984 . S
N713 H719 0.985 . S
C714 C708 1.379 . S
C714 C711 1.363 . S
C714 N712 1.356 . S
C715 C709 1.363 . S
C715 C710 1.379 . S
C715 N713 1.356 . S
N716 C708 1.356 . S
N716 H722 0.984 . S
N716 H723 0.984 . S
N717 C710 1.356 . S
N717 H720 0.984 . S
N717 H721 0.985 . S
H718 N713 0.984 . S
H719 N713 0.985 . S
H720 N717 0.984 . S
H721 N717 0.985 . S
H722 N716 0.984 . S
H723 N716 0.984 . S
H724 N712 0.984 . S
H725 N712 0.985 . S
C726 C727 1.363 . S
C726 C732 1.379 . S
C726 N734 1.356 . S
C727 C726 1.363 . S
C727 C733 1.363 . S
C728 C729 1.363 . S
C728 C733 1.379 . S
C728 N735 1.356 . S
C729 C728 1.363 . S
C729 C732 1.363 . S
N730 C732 1.356 . S
N730 H742 0.984 . S
N730 H743 0.985 . S
N731 C733 1.356 . S
N731 H736 0.984 . S
N731 H737 0.985 . S
C732 C726 1.379 . S
C732 C729 1.363 . S
C732 N730 1.356 . S
C733 C727 1.363 . S
C733 C728 1.379 . S
C733 N731 1.356 . S
N734 C726 1.356 . S
N734 H740 0.984 . S
N734 H741 0.984 . S
N735 C728 1.356 . S
N735 H738 0.984 . S
N735 H739 0.985 . S
H736 N731 0.984 . S
H737 N731 0.985 . S
H738 N735 0.984 . S
H739 N735 0.985 . S
H740 N734 0.984 . S
H741 N734 0.984 . S
H742 N730 0.984 . S
H743 N730 0.985 . S
C744 C745 1.363 . S
C744 C750 1.379 . S
C744 N752 1.356 . S
C745 C744 1.363 . S
C745 C751 1.363 . S
C746 C747 1.363 . S
C746 C751 1.379 . S
C746 N753 1.356 . S
C747 C746 1.363 . S
C747 C750 1.363 . S
N748 C750 1.356 . S
N748 H760 0.984 . S
N748 H761 0.985 . S
N749 C751 1.356 . S
N749 H754 0.984 . S
N749 H755 0.985 . S
C750 C744 1.379 . S
C750 C747 1.363 . S
C750 N748 1.356 . S
C751 C745 1.363 . S
C751 C746 1.379 . S
C751 N749 1.356 . S
N752 C744 1.356 . S
N752 H758 0.984 . S
N752 H759 0.984 . S
N753 C746 1.356 . S
N753 H756 0.984 . S
N753 H757 0.985 . S
H754 N749 0.984 . S
H755 N749 0.985 . S
H756 N753 0.984 . S
H757 N753 0.985 . S
H758 N752 0.984 . S
H759 N752 0.984 . S
H760 N748 0.984 . S
H761 N748 0.985 . S
C762 C763 1.363 . S
C762 C768 1.379 . S
C762 N770 1.356 . S
C763 C762 1.363 . S
C763 C769 1.363 . S
C764 C765 1.363 . S
C764 C769 1.379 . S
C764 N771 1.356 . S
C765 C764 1.363 . S
C765 C768 1.363 . S
N766 C768 1.356 . S
N766 H778 0.984 . S
N766 H779 0.985 . S
N767 C769 1.356 . S
N767 H772 0.984 . S
N767 H773 0.985 . S
C768 C762 1.379 . S
C768 C765 1.363 . S
C768 N766 1.356 . S
C769 C763 1.363 . S
C769 C764 1.379 . S
C769 N767 1.356 . S
N770 C762 1.356 . S
N770 H776 0.984 . S
N770 H777 0.984 . S
N771 C764 1.356 . S
N771 H774 0.984 . S
N771 H775 0.985 . S
H772 N767 0.984 . S
H773 N767 0.985 . S
H774 N771 0.984 . S
H775 N771 0.985 . S
H776 N770 0.984 . S
H777 N770 0.984 . S
H778 N766 0.984 . S
H779 N766 0.985 . S
C780 C781 1.363 . S
C780 C786 1.379 . S
C780 N788 1.356 . S
C781 C780 1.363 . S
C781 C787 1.363 . S
C782 C783 1.363 . S
C782 C787 1.379 . S
C782 N789 1.356 . S
C783 C782 1.363 . S
C783 C786 1.363 . S
N784 C786 1.356 . S
N784 H796 0.984 . S
N784 H797 0.985 . S
N785 C787 1.356 . S
N785 H790 0.984 . S
N785 H791 0.985 . S
C786 C780 1.379 . S
C786 C783 1.363 . S
C786 N784 1.356 . S
C787 C781 1.363 . S
C787 C782 1.379 . S
C787 N785 1.356 . S
N788 C780 1.356 . S
N788 H794 0.984 . S
N788 H795 0.984 . S
N789 C782 1.356 . S
N789 H792 0.984 . S
N789 H793 0.985 . S
H790 N785 0.984 . S
H791 N785 0.985 . S
H792 N789 0.984 . S
H793 N789 0.985 . S
H794 N788 0.984 . S
H795 N788 0.984 . S
H796 N784 0.984 . S
H797 N784 0.985 . S
C798 C799 1.363 . S
C798 C804 1.379 . S
C798 N806 1.356 . S
C799 C798 1.363 . S
C799 C805 1.363 . S
C800 C801 1.363 . S
C800 C805 1.379 . S
C800 N807 1.356 . S
C801 C800 1.363 . S
C801 C804 1.363 . S
N802 C804 1.356 . S
N802 H814 0.984 . S
N802 H815 0.985 . S
N803 C805 1.356 . S
N803 H808 0.984 . S
N803 H809 0.985 . S
C804 C798 1.379 . S
C804 C801 1.363 . S
C804 N802 1.356 . S
C805 C799 1.363 . S
C805 C800 1.379 . S
C805 N803 1.356 . S
N806 C798 1.356 . S
N806 H812 0.984 . S
N806 H813 0.984 . S
N807 C800 1.356 . S
N807 H810 0.984 . S
N807 H811 0.985 . S
H808 N803 0.984 . S
H809 N803 0.985 . S
H810 N807 0.984 . S
H811 N807 0.985 . S
H812 N806 0.984 . S
H813 N806 0.984 . S
H814 N802 0.984 . S
H815 N802 0.985 . S
C816 C817 1.363 . S
C816 C822 1.379 . S
C816 N824 1.356 . S
C817 C816 1.363 . S
C817 C823 1.363 . S
C818 C819 1.363 . S
C818 C823 1.379 . S
C818 N825 1.356 . S
C819 C818 1.363 . S
C819 C822 1.363 . S
N820 C822 1.356 . S
N820 H832 0.984 . S
N820 H833 0.985 . S
N821 C823 1.356 . S
N821 H826 0.984 . S
N821 H827 0.985 . S
C822 C816 1.379 . S
C822 C819 1.363 . S
C822 N820 1.356 . S
C823 C817 1.363 . S
C823 C818 1.379 . S
C823 N821 1.356 . S
N824 C816 1.356 . S
N824 H830 0.984 . S
N824 H831 0.984 . S
N825 C818 1.356 . S
N825 H828 0.984 . S
N825 H829 0.985 . S
H826 N821 0.984 . S
H827 N821 0.985 . S
H828 N825 0.984 . S
H829 N825 0.985 . S
H830 N824 0.984 . S
H831 N824 0.984 . S
H832 N820 0.984 . S
H833 N820 0.985 . S
C834 C835 1.363 . S
C834 C840 1.379 . S
C834 N842 1.356 . S
C835 C834 1.363 . S
C835 C841 1.363 . S
C836 C837 1.363 . S
C836 C841 1.379 . S
C836 N843 1.356 . S
C837 C836 1.363 . S
C837 C840 1.363 . S
N838 C840 1.356 . S
N838 H850 0.984 . S
N838 H851 0.985 . S
N839 C841 1.356 . S
N839 H844 0.984 . S
N839 H845 0.985 . S
C840 C834 1.379 . S
C840 C837 1.363 . S
C840 N838 1.356 . S
C841 C835 1.363 . S
C841 C836 1.379 . S
C841 N839 1.356 . S
N842 C834 1.356 . S
N842 H848 0.984 . S
N842 H849 0.984 . S
N843 C836 1.356 . S
N843 H846 0.984 . S
N843 H847 0.985 . S
H844 N839 0.984 . S
H845 N839 0.985 . S
H846 N843 0.984 . S
H847 N843 0.985 . S
H848 N842 0.984 . S
H849 N842 0.984 . S
H850 N838 0.984 . S
H851 N838 0.985 . S
C852 C853 1.363 . S
C852 C858 1.379 . S
C852 N860 1.356 . S
C853 C852 1.363 . S
C853 C859 1.363 . S
C854 C855 1.363 . S
C854 C859 1.379 . S
C854 N861 1.356 . S
C855 C854 1.363 . S
C855 C858 1.363 . S
N856 C858 1.356 . S
N856 H868 0.984 . S
N856 H869 0.985 . S
N857 C859 1.356 . S
N857 H862 0.984 . S
N857 H863 0.985 . S
C858 C852 1.379 . S
C858 C855 1.363 . S
C858 N856 1.356 . S
C859 C853 1.363 . S
C859 C854 1.379 . S
C859 N857 1.356 . S
N860 C852 1.356 . S
N860 H866 0.984 . S
N860 H867 0.984 . S
N861 C854 1.356 . S
N861 H864 0.984 . S
N861 H865 0.985 . S
H862 N857 0.984 . S
H863 N857 0.985 . S
H864 N861 0.984 . S
H865 N861 0.985 . S
H866 N860 0.984 . S
H867 N860 0.984 . S
H868 N856 0.984 . S
H869 N856 0.985 . S
C870 C871 1.363 . S
C870 C876 1.379 . S
C870 N878 1.356 . S
C871 C870 1.363 . S
C871 C877 1.363 . S
C872 C873 1.363 . S
C872 C877 1.379 . S
C872 N879 1.356 . S
C873 C872 1.363 . S
C873 C876 1.363 . S
N874 C876 1.356 . S
N874 H886 0.984 . S
N874 H887 0.985 . S
N875 C877 1.356 . S
N875 H880 0.984 . S
N875 H881 0.985 . S
C876 C870 1.379 . S
C876 C873 1.363 . S
C876 N874 1.356 . S
C877 C871 1.363 . S
C877 C872 1.379 . S
C877 N875 1.356 . S
N878 C870 1.356 . S
N878 H884 0.984 . S
N878 H885 0.984 . S
N879 C872 1.356 . S
N879 H882 0.984 . S
N879 H883 0.985 . S
H880 N875 0.984 . S
H881 N875 0.985 . S
H882 N879 0.984 . S
H883 N879 0.985 . S
H884 N878 0.984 . S
H885 N878 0.984 . S
H886 N874 0.984 . S
H887 N874 0.985 . S
C888 C889 1.363 . S
C888 C894 1.379 . S
C888 N896 1.356 . S
C889 C888 1.363 . S
C889 C895 1.363 . S
C890 C891 1.363 . S
C890 C895 1.379 . S
C890 N897 1.356 . S
C891 C890 1.363 . S
C891 C894 1.363 . S
N892 C894 1.356 . S
N892 H904 0.984 . S
N892 H905 0.985 . S
N893 C895 1.356 . S
N893 H898 0.984 . S
N893 H899 0.985 . S
C894 C888 1.379 . S
C894 C891 1.363 . S
C894 N892 1.356 . S
C895 C889 1.363 . S
C895 C890 1.379 . S
C895 N893 1.356 . S
N896 C888 1.356 . S
N896 H902 0.984 . S
N896 H903 0.984 . S
N897 C890 1.356 . S
N897 H900 0.984 . S
N897 H901 0.985 . S
H898 N893 0.984 . S
H899 N893 0.985 . S
H900 N897 0.984 . S
H901 N897 0.985 . S
H902 N896 0.984 . S
H903 N896 0.984 . S
H904 N892 0.984 . S
H905 N892 0.985 . S
C906 C907 1.363 . S
C906 C912 1.379 . S
C906 N914 1.356 . S
C907 C906 1.363 . S
C907 C913 1.363 . S
C908 C909 1.363 . S
C908 C913 1.379 . S
C908 N915 1.356 . S
C909 C908 1.363 . S
C909 C912 1.363 . S
N910 C912 1.356 . S
N910 H922 0.984 . S
N910 H923 0.985 . S
N911 C913 1.356 . S
N911 H916 0.984 . S
N911 H917 0.985 . S
C912 C906 1.379 . S
C912 C909 1.363 . S
C912 N910 1.356 . S
C913 C907 1.363 . S
C913 C908 1.379 . S
C913 N911 1.356 . S
N914 C906 1.356 . S
N914 H920 0.984 . S
N914 H921 0.984 . S
N915 C908 1.356 . S
N915 H918 0.984 . S
N915 H919 0.985 . S
H916 N911 0.984 . S
H917 N911 0.985 . S
H918 N915 0.984 . S
H919 N915 0.985 . S
H920 N914 0.984 . S
H921 N914 0.984 . S
H922 N910 0.984 . S
H923 N910 0.985 . S
C924 C925 1.363 . S
C924 C930 1.379 . S
C924 N932 1.356 . S
C925 C924 1.363 . S
C925 C931 1.363 . S
C926 C927 1.363 . S
C926 C931 1.379 . S
C926 N933 1.356 . S
C927 C926 1.363 . S
C927 C930 1.363 . S
N928 C930 1.356 . S
N928 H940 0.984 . S
N928 H941 0.985 . S
N929 C931 1.356 . S
N929 H934 0.984 . S
N929 H935 0.985 . S
C930 C924 1.379 . S
C930 C927 1.363 . S
C930 N928 1.356 . S
C931 C925 1.363 . S
C931 C926 1.379 . S
C931 N929 1.356 . S
N932 C924 1.356 . S
N932 H938 0.984 . S
N932 H939 0.984 . S
N933 C926 1.356 . S
N933 H936 0.984 . S
N933 H937 0.985 . S
H934 N929 0.984 . S
H935 N929 0.985 . S
H936 N933 0.984 . S
H937 N933 0.985 . S
H938 N932 0.984 . S
H939 N932 0.984 . S
H940 N928 0.984 . S
H941 N928 0.985 . S
C942 C943 1.363 . S
C942 C948 1.379 . S
C942 N950 1.356 . S
C943 C942 1.363 . S
C943 C949 1.363 . S
C944 C945 1.363 . S
C944 C949 1.379 . S
C944 N951 1.356 . S
C945 C944 1.363 . S
C945 C948 1.363 . S
N946 C948 1.356 . S
N946 H958 0.984 . S
N946 H959 0.985 . S
N947 C949 1.356 . S
N947 H952 0.984 . S
N947 H953 0.985 . S
C948 C942 1.379 . S
C948 C945 1.363 . S
C948 N946 1.356 . S
C949 C943 1.363 . S
C949 C944 1.379 . S
C949 N947 1.356 . S
N950 C942 1.356 . S
N950 H956 0.984 . S
N950 H957 0.984 . S
N951 C944 1.356 . S
N951 H954 0.984 . S
N951 H955 0.985 . S
H952 N947 0.984 . S
H953 N947 0.985 . S
H954 N951 0.984 . S
H955 N951 0.985 . S
H956 N950 0.984 . S
H957 N950 0.984 . S
H958 N946 0.984 . S
H959 N946 0.985 . S
C960 C961 1.363 . S
C960 C966 1.379 . S
C960 N968 1.356 . S
C961 C960 1.363 . S
C961 C967 1.363 . S
C962 C963 1.363 . S
C962 C967 1.379 . S
C962 N969 1.356 . S
C963 C962 1.363 . S
C963 C966 1.363 . S
N964 C966 1.356 . S
N964 H976 0.986 1_545 S
N964 H977 0.985 . S
N965 C967 1.356 . S
N965 H970 0.984 . S
N965 H971 0.985 . S
C966 C960 1.379 . S
C966 C963 1.363 . S
C966 N964 1.356 . S
C967 C961 1.363 . S
C967 C962 1.379 . S
C967 N965 1.356 . S
N968 C960 1.356 . S
N968 H974 0.984 . S
N968 H975 0.984 . S
N969 C962 1.356 . S
N969 H972 0.984 . S
N969 H973 0.985 . S
H970 N965 0.984 . S
H971 N965 0.985 . S
H972 N969 0.984 . S
H973 N969 0.985 . S
H974 N968 0.984 . S
H975 N968 0.984 . S
H976 N964 0.986 1_565 S
H977 N964 0.985 . S
C978 C979 1.363 . S
C978 C984 1.379 . S
C978 N986 1.356 . S
C979 C978 1.363 . S
C979 C985 1.363 . S
C980 C981 1.363 . S
C980 C985 1.379 . S
C980 N987 1.356 . S
C981 C980 1.363 . S
C981 C984 1.363 . S
N982 C984 1.356 . S
N982 H994 0.984 . S
N982 H995 0.985 . S
N983 C985 1.356 . S
N983 H988 0.984 . S
N983 H989 0.985 . S
C984 C978 1.379 . S
C984 C981 1.363 . S
C984 N982 1.356 . S
C985 C979 1.363 . S
C985 C980 1.379 . S
C985 N983 1.356 . S
N986 C978 1.356 . S
N986 H992 0.984 . S
N986 H993 0.984 . S
N987 C980 1.356 . S
N987 H990 0.984 . S
N987 H991 0.985 . S
H988 N983 0.984 . S
H989 N983 0.985 . S
H990 N987 0.984 . S
H991 N987 0.985 . S
H992 N986 0.984 . S
H993 N986 0.984 . S
H994 N982 0.984 . S
H995 N982 0.985 . S
C996 C997 1.363 . S
C996 C1002 1.379 . S
C996 N1004 1.356 . S
C997 C996 1.363 . S
C997 C1003 1.363 . S
C998 C999 1.363 . S
C998 C1003 1.379 . S
C998 N1005 1.356 . S
C999 C998 1.363 . S
C999 C1002 1.363 . S
N1000 C1002 1.356 . S
N1000 H1012 0.984 . S
N1000 H1013 0.985 . S
N1001 C1003 1.356 . S
N1001 H1006 0.984 . S
N1001 H1007 0.985 . S
C1002 C996 1.379 . S
C1002 C999 1.363 . S
C1002 N1000 1.356 . S
C1003 C997 1.363 . S
C1003 C998 1.379 . S
C1003 N1001 1.356 . S
N1004 C996 1.356 . S
N1004 H1010 0.984 . S
N1004 H1011 0.984 . S
N1005 C998 1.356 . S
N1005 H1008 0.984 . S
N1005 H1009 0.985 . S
H1006 N1001 0.984 . S
H1007 N1001 0.985 . S
H1008 N1005 0.984 . S
H1009 N1005 0.985 . S
H1010 N1004 0.984 . S
H1011 N1004 0.984 . S
H1012 N1000 0.984 . S
H1013 N1000 0.985 . S
C1014 C1015 1.363 . S
C1014 C1020 1.379 . S
C1014 N1022 1.356 . S
C1015 C1014 1.363 . S
C1015 C1021 1.363 . S
C1016 C1017 1.363 . S
C1016 C1021 1.379 . S
C1016 N1023 1.356 . S
C1017 C1016 1.363 . S
C1017 C1020 1.363 . S
N1018 C1020 1.356 . S
N1018 H1030 0.984 . S
N1018 H1031 0.985 . S
N1019 C1021 1.356 . S
N1019 H1024 0.984 . S
N1019 H1025 0.985 . S
C1020 C1014 1.379 . S
C1020 C1017 1.363 . S
C1020 N1018 1.356 . S
C1021 C1015 1.363 . S
C1021 C1016 1.379 . S
C1021 N1019 1.356 . S
N1022 C1014 1.356 . S
N1022 H1028 0.984 . S
N1022 H1029 0.984 . S
N1023 C1016 1.356 . S
N1023 H1026 0.984 . S
N1023 H1027 0.985 . S
H1024 N1019 0.984 . S
H1025 N1019 0.985 . S
H1026 N1023 0.984 . S
H1027 N1023 0.985 . S
H1028 N1022 0.984 . S
H1029 N1022 0.984 . S
H1030 N1018 0.984 . S
H1031 N1018 0.985 . S
C1032 C1033 1.363 . S
C1032 C1038 1.379 . S
C1032 N1040 1.356 . S
C1033 C1032 1.363 . S
C1033 C1039 1.363 . S
C1034 C1035 1.363 . S
C1034 C1039 1.379 . S
C1034 N1041 1.356 . S
C1035 C1034 1.363 . S
C1035 C1038 1.363 . S
N1036 C1038 1.356 . S
N1036 H1048 0.984 . S
N1036 H1049 0.985 . S
N1037 C1039 1.356 . S
N1037 H1042 0.984 . S
N1037 H1043 0.985 . S
C1038 C1032 1.379 . S
C1038 C1035 1.363 . S
C1038 N1036 1.356 . S
C1039 C1033 1.363 . S
C1039 C1034 1.379 . S
C1039 N1037 1.356 . S
N1040 C1032 1.356 . S
N1040 H1046 0.984 . S
N1040 H1047 0.984 . S
N1041 C1034 1.356 . S
N1041 H1044 0.984 . S
N1041 H1045 0.985 . S
H1042 N1037 0.984 . S
H1043 N1037 0.985 . S
H1044 N1041 0.984 . S
H1045 N1041 0.985 . S
H1046 N1040 0.984 . S
H1047 N1040 0.984 . S
H1048 N1036 0.984 . S
H1049 N1036 0.985 . S
C1050 C1051 1.363 . S
C1050 C1056 1.379 . S
C1050 N1058 1.356 . S
C1051 C1050 1.363 . S
C1051 C1057 1.363 . S
C1052 C1053 1.363 . S
C1052 C1057 1.379 . S
C1052 N1059 1.356 . S
C1053 C1052 1.363 . S
C1053 C1056 1.363 . S
N1054 C1056 1.356 . S
N1054 H1066 0.984 . S
N1054 H1067 0.985 . S
N1055 C1057 1.356 . S
N1055 H1060 0.984 . S
N1055 H1061 0.985 . S
C1056 C1050 1.379 . S
C1056 C1053 1.363 . S
C1056 N1054 1.356 . S
C1057 C1051 1.363 . S
C1057 C1052 1.379 . S
C1057 N1055 1.356 . S
N1058 C1050 1.356 . S
N1058 H1064 0.984 . S
N1058 H1065 0.984 . S
N1059 C1052 1.356 . S
N1059 H1062 0.984 . S
N1059 H1063 0.985 . S
H1060 N1055 0.984 . S
H1061 N1055 0.985 . S
H1062 N1059 0.984 . S
H1063 N1059 0.985 . S
H1064 N1058 0.984 . S
H1065 N1058 0.984 . S
H1066 N1054 0.984 . S
H1067 N1054 0.985 . S
C1068 C1069 1.363 . S
C1068 C1074 1.379 . S
C1068 N1076 1.356 . S
C1069 C1068 1.363 . S
C1069 C1075 1.363 . S
C1070 C1071 1.363 . S
C1070 C1075 1.379 . S
C1070 N1077 1.356 . S
C1071 C1070 1.363 . S
C1071 C1074 1.363 . S
N1072 C1074 1.356 . S
N1072 H1084 0.984 . S
N1072 H1085 0.985 . S
N1073 C1075 1.356 . S
N1073 H1078 0.984 . S
N1073 H1079 0.985 . S
C1074 C1068 1.379 . S
C1074 C1071 1.363 . S
C1074 N1072 1.356 . S
C1075 C1069 1.363 . S
C1075 C1070 1.379 . S
C1075 N1073 1.356 . S
N1076 C1068 1.356 . S
N1076 H1082 0.984 . S
N1076 H1083 0.984 . S
N1077 C1070 1.356 . S
N1077 H1080 0.984 . S
N1077 H1081 0.985 . S
H1078 N1073 0.984 . S
H1079 N1073 0.985 . S
H1080 N1077 0.984 . S
H1081 N1077 0.985 . S
H1082 N1076 0.984 . S
H1083 N1076 0.984 . S
H1084 N1072 0.984 . S
H1085 N1072 0.985 . S
C1086 C1087 1.363 . S
C1086 C1092 1.379 . S
C1086 N1094 1.356 . S
C1087 C1086 1.363 . S
C1087 C1093 1.363 . S
C1088 C1089 1.363 . S
C1088 C1093 1.379 . S
C1088 N1095 1.356 . S
C1089 C1088 1.363 . S
C1089 C1092 1.363 . S
N1090 C1092 1.356 . S
N1090 H1102 0.984 . S
N1090 H1103 0.985 . S
N1091 C1093 1.356 . S
N1091 H1096 0.984 . S
N1091 H1097 0.985 . S
C1092 C1086 1.379 . S
C1092 C1089 1.363 . S
C1092 N1090 1.356 . S
C1093 C1087 1.363 . S
C1093 C1088 1.379 . S
C1093 N1091 1.356 . S
N1094 C1086 1.356 . S
N1094 H1100 0.984 . S
N1094 H1101 0.984 . S
N1095 C1088 1.356 . S
N1095 H1098 0.984 . S
N1095 H1099 0.985 . S
H1096 N1091 0.984 . S
H1097 N1091 0.985 . S
H1098 N1095 0.984 . S
H1099 N1095 0.985 . S
H1100 N1094 0.984 . S
H1101 N1094 0.984 . S
H1102 N1090 0.984 . S
H1103 N1090 0.985 . S
C1104 C1105 1.363 . S
C1104 C1110 1.379 . S
C1104 N1112 1.356 . S
C1105 C1104 1.363 . S
C1105 C1111 1.363 . S
C1106 C1107 1.363 . S
C1106 C1111 1.379 . S
C1106 N1113 1.356 . S
C1107 C1106 1.363 . S
C1107 C1110 1.363 . S
N1108 C1110 1.356 . S
N1108 H1120 0.984 . S
N1108 H1121 0.985 . S
N1109 C1111 1.356 . S
N1109 H1114 0.984 . S
N1109 H1115 0.985 . S
C1110 C1104 1.379 . S
C1110 C1107 1.363 . S
C1110 N1108 1.356 . S
C1111 C1105 1.363 . S
C1111 C1106 1.379 . S
C1111 N1109 1.356 . S
N1112 C1104 1.356 . S
N1112 H1118 0.984 . S
N1112 H1119 0.984 . S
N1113 C1106 1.356 . S
N1113 H1116 0.984 . S
N1113 H1117 0.985 . S
H1114 N1109 0.984 . S
H1115 N1109 0.985 . S
H1116 N1113 0.984 . S
H1117 N1113 0.985 . S
H1118 N1112 0.984 . S
H1119 N1112 0.984 . S
H1120 N1108 0.984 . S
H1121 N1108 0.985 . S
C1122 C1123 1.363 . S
C1122 C1128 1.379 . S
C1122 N1130 1.356 . S
C1123 C1122 1.363 . S
C1123 C1129 1.363 . S
C1124 C1125 1.363 . S
C1124 C1129 1.379 . S
C1124 N1131 1.356 . S
C1125 C1124 1.363 . S
C1125 C1128 1.363 . S
N1126 C1128 1.356 . S
N1126 H1138 0.984 . S
N1126 H1139 0.985 . S
N1127 C1129 1.356 . S
N1127 H1132 0.984 . S
N1127 H1133 0.985 . S
C1128 C1122 1.379 . S
C1128 C1125 1.363 . S
C1128 N1126 1.356 . S
C1129 C1123 1.363 . S
C1129 C1124 1.379 . S
C1129 N1127 1.356 . S
N1130 C1122 1.356 . S
N1130 H1136 0.984 . S
N1130 H1137 0.984 . S
N1131 C1124 1.356 . S
N1131 H1134 0.984 . S
N1131 H1135 0.985 . S
H1132 N1127 0.984 . S
H1133 N1127 0.985 . S
H1134 N1131 0.984 . S
H1135 N1131 0.985 . S
H1136 N1130 0.984 . S
H1137 N1130 0.984 . S
H1138 N1126 0.984 . S
H1139 N1126 0.985 . S
C1140 C1141 1.363 . S
C1140 C1146 1.379 . S
C1140 N1148 1.356 . S
C1141 C1140 1.363 . S
C1141 C1147 1.363 . S
C1142 C1143 1.363 . S
C1142 C1147 1.379 . S
C1142 N1149 1.356 . S
C1143 C1142 1.363 . S
C1143 C1146 1.363 . S
N1144 C1146 1.356 . S
N1144 H1156 0.984 . S
N1144 H1157 0.985 . S
N1145 C1147 1.356 . S
N1145 H1150 0.984 . S
N1145 H1151 0.985 . S
C1146 C1140 1.379 . S
C1146 C1143 1.363 . S
C1146 N1144 1.356 . S
C1147 C1141 1.363 . S
C1147 C1142 1.379 . S
C1147 N1145 1.356 . S
N1148 C1140 1.356 . S
N1148 H1154 0.984 . S
N1148 H1155 0.984 . S
N1149 C1142 1.356 . S
N1149 H1152 0.984 . S
N1149 H1153 0.985 . S
H1150 N1145 0.984 . S
H1151 N1145 0.985 . S
H1152 N1149 0.984 . S
H1153 N1149 0.985 . S
H1154 N1148 0.984 . S
H1155 N1148 0.984 . S
H1156 N1144 0.984 . S
H1157 N1144 0.985 . S
C1158 C1159 1.363 . S
C1158 C1164 1.379 . S
C1158 N1166 1.356 . S
C1159 C1158 1.363 . S
C1159 C1165 1.363 . S
C1160 C1161 1.363 . S
C1160 C1165 1.379 . S
C1160 N1167 1.356 . S
C1161 C1160 1.363 . S
C1161 C1164 1.363 . S
N1162 C1164 1.356 . S
N1162 H1174 0.984 . S
N1162 H1175 0.985 . S
N1163 C1165 1.356 . S
N1163 H1168 0.984 . S
N1163 H1169 0.985 . S
C1164 C1158 1.379 . S
C1164 C1161 1.363 . S
C1164 N1162 1.356 . S
C1165 C1159 1.363 . S
C1165 C1160 1.379 . S
C1165 N1163 1.356 . S
N1166 C1158 1.356 . S
N1166 H1172 0.984 . S
N1166 H1173 0.984 . S
N1167 C1160 1.356 . S
N1167 H1170 0.984 . S
N1167 H1171 0.985 . S
H1168 N1163 0.984 . S
H1169 N1163 0.985 . S
H1170 N1167 0.984 . S
H1171 N1167 0.985 . S
H1172 N1166 0.984 . S
H1173 N1166 0.984 . S
H1174 N1162 0.984 . S
H1175 N1162 0.985 . S
C1176 C1177 1.363 1_565 S
C1176 C1182 1.379 1_556 S
C1176 N1184 1.356 . S
C1177 C1176 1.363 1_545 S
C1177 C1183 1.363 . S
C1178 C1179 1.363 1_545 S
C1178 C1183 1.379 1_554 S
C1178 N1185 1.356 . S
C1179 C1178 1.363 1_565 S
C1179 C1182 1.363 . S
N1180 C1182 1.356 . S
N1180 H1192 0.984 . S
N1180 H1193 0.985 . S
N1181 C1183 1.356 . S
N1181 H1186 0.984 . S
N1181 H1187 0.985 . S
C1182 C1176 1.379 1_554 S
C1182 C1179 1.363 . S
C1182 N1180 1.356 . S
C1183 C1177 1.363 . S
C1183 C1178 1.379 1_556 S
C1183 N1181 1.356 . S
N1184 C1176 1.356 . S
N1184 H1190 0.984 . S
N1184 H1191 0.984 . S
N1185 C1178 1.356 . S
N1185 H1188 0.984 . S
N1185 H1189 0.985 . S
H1186 N1181 0.984 . S
H1187 N1181 0.985 . S
H1188 N1185 0.984 . S
H1189 N1185 0.985 . S
H1190 N1184 0.984 . S
H1191 N1184 0.984 . S
H1192 N1180 0.984 . S
H1193 N1180 0.985 . S
C1194 C1195 1.363 . S
C1194 C1200 1.379 1_556 S
C1194 N1202 1.356 . S
C1195 C1194 1.363 . S
C1195 C1201 1.363 1_655 S
C1196 C1197 1.363 . S
C1196 C1201 1.379 1_554 S
C1196 N1203 1.356 . S
C1197 C1196 1.363 . S
C1197 C1200 1.363 1_455 S
N1198 C1200 1.356 . S
N1198 H1210 0.984 . S
N1198 H1211 0.985 . S
N1199 C1201 1.356 . S
N1199 H1204 0.984 . S
N1199 H1205 0.985 . S
C1200 C1194 1.379 1_554 S
C1200 C1197 1.363 1_655 S
C1200 N1198 1.356 . S
C1201 C1195 1.363 1_455 S
C1201 C1196 1.379 1_556 S
C1201 N1199 1.356 . S
N1202 C1194 1.356 . S
N1202 H1208 0.984 . S
N1202 H1209 0.984 . S
N1203 C1196 1.356 . S
N1203 H1206 0.984 . S
N1203 H1207 0.985 . S
H1204 N1199 0.984 . S
H1205 N1199 0.985 . S
H1206 N1203 0.984 . S
H1207 N1203 0.985 . S
H1208 N1202 0.984 . S
H1209 N1202 0.984 . S
H1210 N1198 0.984 . S
H1211 N1198 0.985 . S
C1212 C1213 1.363 1_565 S
C1212 C1218 1.379 1_554 S
C1212 N1220 1.356 . S
C1213 C1212 1.363 1_545 S
C1213 C1219 1.363 . S
C1214 C1215 1.363 1_545 S
C1214 C1219 1.379 1_556 S
C1214 N1221 1.356 . S
C1215 C1214 1.363 1_565 S
C1215 C1218 1.363 . S
N1216 C1218 1.356 . S
N1216 H1228 0.984 . S
N1216 H1229 0.985 . S
N1217 C1219 1.356 . S
N1217 H1222 0.984 . S
N1217 H1223 0.985 . S
C1218 C1212 1.379 1_556 S
C1218 C1215 1.363 . S
C1218 N1216 1.356 . S
C1219 C1213 1.363 . S
C1219 C1214 1.379 1_554 S
C1219 N1217 1.356 . S
N1220 C1212 1.356 . S
N1220 H1226 0.984 . S
N1220 H1227 0.984 . S
N1221 C1214 1.356 . S
N1221 H1224 0.984 . S
N1221 H1225 0.985 . S
H1222 N1217 0.984 . S
H1223 N1217 0.985 . S
H1224 N1221 0.984 . S
H1225 N1221 0.985 . S
H1226 N1220 0.984 . S
H1227 N1220 0.984 . S
H1228 N1216 0.984 . S
H1229 N1216 0.985 . S
C1230 C1231 1.363 1_655 S
C1230 C1236 1.379 1_556 S
C1230 N1238 1.356 . S
C1231 C1230 1.363 1_455 S
C1231 C1237 1.363 . S
C1232 C1233 1.363 1_455 S
C1232 C1237 1.379 1_554 S
C1232 N1239 1.356 . S
C1233 C1232 1.363 1_655 S
C1233 C1236 1.363 . S
N1234 C1236 1.356 . S
N1234 H1246 0.984 . S
N1234 H1247 0.985 . S
N1235 C1237 1.356 . S
N1235 H1240 0.984 . S
N1235 H1241 0.985 . S
C1236 C1230 1.379 1_554 S
C1236 C1233 1.363 . S
C1236 N1234 1.356 . S
C1237 C1231 1.363 . S
C1237 C1232 1.379 1_556 S
C1237 N1235 1.356 . S
N1238 C1230 1.356 . S
N1238 H1244 0.984 . S
N1238 H1245 0.984 . S
N1239 C1232 1.356 . S
N1239 H1242 0.984 . S
N1239 H1243 0.985 . S
H1240 N1235 0.984 . S
H1241 N1235 0.985 . S
H1242 N1239 0.984 . S
H1243 N1239 0.985 . S
H1244 N1238 0.984 . S
H1245 N1238 0.984 . S
H1246 N1234 0.984 . S
H1247 N1234 0.985 . S
C529 C73 1.441 . S
C531 C7 1.441 . S
C547 C106 1.441 . S
C549 C40 1.441 . S
C565 C205 1.441 . S
C567 C139 1.441 . S
C583 C172 1.441 . S
C585 C238 1.441 . S
C601 C271 1.441 . S
C603 C337 1.441 . S
C619 C304 1.441 . S
C621 C370 1.441 . S
C637 C469 1.441 . S
C639 C403 1.441 . S
C655 C502 1.441 . S
C657 C436 1.441 . S
C673 C18 1.306 . S
C675 C249 1.306 . S
C691 C150 1.306 . S
C693 C51 1.306 . S
C709 C183 1.306 . S
C711 C84 1.306 . S
C727 C216 1.306 . S
C729 C117 1.306 . S
C745 C513 1.306 . S
C747 C282 1.306 . S
C763 C414 1.306 . S
C765 C315 1.306 . S
C781 C447 1.306 . S
C783 C348 1.306 . S
C799 C480 1.306 . S
C801 C381 1.306 . S
C817 C21 1.033 . S
C819 N365 1.160 . S
C835 C54 1.033 . S
C837 N266 1.160 . S
C853 C87 1.033 . S
C855 N299 1.160 . S
C871 N332 1.160 . S
C873 C120 1.033 . S
C889 C153 1.033 . S
C891 N431 1.160 . S
C907 C186 1.033 . S
C909 N464 1.160 . S
C925 C219 1.033 . S
C927 N497 1.160 . S
C943 C252 1.033 . S
C945 N398 1.160 . S
C961 N101 1.160 . S
C963 C285 1.033 . S
C979 N2 1.160 . S
C981 C318 1.033 . S
C997 N35 1.160 . S
C999 C351 1.033 . S
C1015 C384 1.033 . S
C1017 N68 1.160 . S
C1033 C417 1.033 . S
C1035 N167 1.160 . S
C1051 C450 1.033 . S
C1053 N200 1.160 . S
C1069 C483 1.033 . S
C1071 N233 1.160 . S
C1087 C516 1.033 . S
C1089 N134 1.160 . S
C1105 N145 1.727 . S
C1107 N13 1.727 . S
C1123 N178 1.727 . S
C1125 N46 1.727 . S
C1141 N79 1.727 . S
C1143 N211 1.727 . S
C1159 N244 1.727 . S
C1161 N112 1.727 . S
C1177 N277 1.727 . S
C1179 N409 1.727 . S
C1195 N442 1.727 . S
C1197 N310 1.727 . S
C1213 N475 1.727 . S
C1215 N343 1.727 . S
C1231 N508 1.727 . S
C1233 N376 1.727 . S
