# Generated by pormake.
# Topology afi, (4)-cn, num edge types: 1
# Building blocks:
#     Node 0, Type 0, BuildingBlock: KUFVIS_clean_sbu_0, # of connection points: 4
#     Node 1, Type 0, BuildingBlock: KUFVIS_clean_sbu_0, # of connection points: 4
#     Node 2, Type 0, BuildingBlock: KUFVIS_clean_sbu_0, # of connection points: 4
#     Node 3, Type 0, BuildingBlock: KUFVIS_clean_sbu_0, # of connection points: 4
#     Node 4, Type 0, BuildingBlock: KUFVIS_clean_sbu_0, # of connection points: 4
#     Node 5, Type 0, BuildingBlock: KUFVIS_clean_sbu_0, # of connection points: 4
#     Node 6, Type 0, BuildingBlock: KUFVIS_clean_sbu_0, # of connection points: 4
#     Node 7, Type 0, BuildingBlock: KUFVIS_clean_sbu_0, # of connection points: 4
#     Node 8, Type 0, BuildingBlock: KUFVIS_clean_sbu_0, # of connection points: 4
#     Node 9, Type 0, BuildingBlock: KUFVIS_clean_sbu_0, # of connection points: 4
#     Node 10, Type 0, BuildingBlock: KUFVIS_clean_sbu_0, # of connection points: 4
#     Node 11, Type 0, BuildingBlock: KUFVIS_clean_sbu_0, # of connection points: 4
#     Node 12, Type 0, BuildingBlock: KUFVIS_clean_sbu_0, # of connection points: 4
#     Node 13, Type 0, BuildingBlock: KUFVIS_clean_sbu_0, # of connection points: 4
#     Node 14, Type 0, BuildingBlock: KUFVIS_clean_sbu_0, # of connection points: 4
#     Node 15, Type 0, BuildingBlock: KUFVIS_clean_sbu_0, # of connection points: 4
#     Node 16, Type 0, BuildingBlock: KUFVIS_clean_sbu_0, # of connection points: 4
#     Node 17, Type 0, BuildingBlock: KUFVIS_clean_sbu_0, # of connection points: 4
#     Node 18, Type 0, BuildingBlock: KUFVIS_clean_sbu_0, # of connection points: 4
#     Node 19, Type 0, BuildingBlock: KUFVIS_clean_sbu_0, # of connection points: 4
#     Node 20, Type 0, BuildingBlock: KUFVIS_clean_sbu_0, # of connection points: 4
#     Node 21, Type 0, BuildingBlock: KUFVIS_clean_sbu_0, # of connection points: 4
#     Node 22, Type 0, BuildingBlock: KUFVIS_clean_sbu_0, # of connection points: 4
#     Node 23, Type 0, BuildingBlock: KUFVIS_clean_sbu_0, # of connection points: 4
#     Edge 24, Type (0, 0), None
#     Edge 25, Type (0, 0), None
#     Edge 26, Type (0, 0), None
#     Edge 27, Type (0, 0), None
#     Edge 28, Type (0, 0), None
#     Edge 29, Type (0, 0), None
#     Edge 30, Type (0, 0), None
#     Edge 31, Type (0, 0), None
#     Edge 32, Type (0, 0), None
#     Edge 33, Type (0, 0), None
#     Edge 34, Type (0, 0), None
#     Edge 35, Type (0, 0), None
#     Edge 36, Type (0, 0), None
#     Edge 37, Type (0, 0), None
#     Edge 38, Type (0, 0), None
#     Edge 39, Type (0, 0), None
#     Edge 40, Type (0, 0), None
#     Edge 41, Type (0, 0), None
#     Edge 42, Type (0, 0), None
#     Edge 43, Type (0, 0), None
#     Edge 44, Type (0, 0), None
#     Edge 45, Type (0, 0), None
#     Edge 46, Type (0, 0), None
#     Edge 47, Type (0, 0), None
#     Edge 48, Type (0, 0), None
#     Edge 49, Type (0, 0), None
#     Edge 50, Type (0, 0), None
#     Edge 51, Type (0, 0), None
#     Edge 52, Type (0, 0), None
#     Edge 53, Type (0, 0), None
#     Edge 54, Type (0, 0), None
#     Edge 55, Type (0, 0), None
#     Edge 56, Type (0, 0), None
#     Edge 57, Type (0, 0), None
#     Edge 58, Type (0, 0), None
#     Edge 59, Type (0, 0), None
#     Edge 60, Type (0, 0), None
#     Edge 61, Type (0, 0), None
#     Edge 62, Type (0, 0), None
#     Edge 63, Type (0, 0), None
#     Edge 64, Type (0, 0), None
#     Edge 65, Type (0, 0), None
#     Edge 66, Type (0, 0), None
#     Edge 67, Type (0, 0), None
#     Edge 68, Type (0, 0), None
#     Edge 69, Type (0, 0), None
#     Edge 70, Type (0, 0), None
#     Edge 71, Type (0, 0), None
# Relax obj value: 0.066
# Max RMSD: 0.078
# Mean RMSD: 0.078
data_MOF--net-afi--node1-KUFVIS_clean_sbu_0--edge1-none
_symmetry_space_group_name_H-M    P1
_symmetry_Int_Tables_number       1
_symmetry_cell_setting            triclinic
loop_
_symmetry_equiv_pos_as_xyz
'x, y, z'
_cell_length_a     33.341485
_cell_length_b     33.301991
_cell_length_c     16.902119
_cell_angle_alpha  90.737304
_cell_angle_beta   90.33322
_cell_angle_gamma 120.09296
loop_
_atom_site_label
_atom_site_type_symbol
_atom_site_fract_x
_atom_site_fract_y
_atom_site_fract_z
_atom_type_partial_charge
Mn0 Mn 0.39574 0.07213 0.24823 0.0
Mn1 Mn 0.46991 0.11426 0.17484 0.0
C2 C 0.47408 0.07947 0.32737 0.0
C3 C 0.33757 -0.00875 0.25045 0.0
C4 C 0.41231 0.16861 0.24306 0.0
O5 O 0.3896 0.08394 0.11063 0.0
O6 O 0.46234 0.11954 0.0663 0.0
C7 C 0.44533 0.01332 0.16784 0.0
N8 N 0.47935 0.05874 0.155 0.0
C9 C 0.53551 0.03059 0.13805 0.0
C10 C 0.50023 -0.0138 0.15034 0.0
C11 C 0.45791 -0.02049 0.17602 0.0
C12 C 0.5245 0.0659 0.15 0.0
H13 H 0.45333 0.04782 0.15361 0.0
C14 C 0.41929 0.10121 0.04954 0.0
O15 O 0.32661 0.02182 0.26926 0.0
O16 O 0.37743 0.00786 0.22327 0.0
N17 N 0.54292 0.14879 0.18154 0.0
C18 C 0.60137 0.22489 0.20679 0.0
C19 C 0.6594 0.23126 0.20307 0.0
C20 C 0.66597 0.17859 0.17761 0.0
C21 C 0.61624 0.12017 0.16047 0.0
C22 C 0.55657 0.10707 0.16318 0.0
H23 H 0.58157 0.20573 0.20067 0.0
O24 O 0.43124 0.05279 0.34455 0.0
O25 O 0.46693 0.1031 0.27827 0.0
O26 O 0.39172 0.13255 0.28617 0.0
O27 O 0.44283 0.16473 0.19721 0.0
C28 C 0.62114 0.08366 0.13198 0.0
C29 C 0.58122 0.03947 0.12094 0.0
H30 H 0.50665 0.95762 0.14684 0.0
H31 H 0.43284 0.94676 0.19928 0.0
H32 H 0.68575 0.26961 0.21428 0.0
H33 H 0.66914 0.20941 0.19154 0.0
H34 H 0.65528 0.08842 0.1222 0.0
H35 H 0.58642 0.01069 0.10582 0.0
Mn36 Mn 0.28901 0.41667 0.24453 0.0
Mn37 Mn 0.30219 0.4601 0.16168 0.0
C38 C 0.40138 0.49437 0.26406 0.0
C39 C 0.32361 0.36395 0.24994 0.0
C40 C 0.19871 0.39439 0.2649 0.0
O41 O 0.27465 0.39469 0.10873 0.0
O42 O 0.26031 0.44833 0.07512 0.0
C43 C 0.36631 0.43982 0.06883 0.0
N44 N 0.35625 0.47343 0.09094 0.0
C45 C 0.43866 0.5312 0.08092 0.0
C46 C 0.44769 0.49622 0.06165 0.0
C47 C 0.41138 0.45048 0.05735 0.0
C48 C 0.39183 0.51797 0.09297 0.0
H49 H 0.34109 0.40363 0.0635 0.0
C50 C 0.26195 0.4133 0.05104 0.0
O51 O 0.31637 0.38224 0.30919 0.0
O52 O 0.30674 0.37092 0.18876 0.0
N53 N 0.3317 0.52988 0.16941 0.0
C54 C 0.31634 0.58107 0.237 0.0
C55 C 0.36586 0.63858 0.24007 0.0
C56 C 0.42061 0.65251 0.17954 0.0
C57 C 0.42734 0.6078 0.13016 0.0
C58 C 0.38284 0.54813 0.12548 0.0
H59 H 0.31549 0.56277 0.21969 0.0
O60 O 0.36001 0.47494 0.23399 0.0
O61 O 0.35727 0.47234 0.23521 0.0
O62 O 0.21609 0.36791 0.27668 0.0
O63 O 0.22939 0.42855 0.22184 0.0
C64 C 0.47024 0.61586 0.10676 0.0
C65 C 0.47605 0.57785 0.08889 0.0
H66 H 0.48267 0.50524 0.04687 0.0
H67 H 0.41701 0.42226 0.04621 0.0
H68 H 0.36441 0.65182 0.30214 0.0
H69 H 0.3958 0.65128 0.21399 0.0
H70 H 0.50002 0.65051 0.11101 0.0
H71 H 0.51116 0.58519 0.07877 0.0
Mn72 Mn 0.85228 0.31673 0.24541 0.0
Mn73 Mn 0.79843 0.30583 0.21906 0.0
C74 C 0.87363 0.40688 0.22597 0.0
C75 C 0.92649 0.31553 0.26203 0.0
C76 C 0.76023 0.21622 0.25643 0.0
O77 O 0.88168 0.31679 0.13103 0.0
O78 O 0.81017 0.27508 0.12437 0.0
C79 C 0.73369 0.27851 0.08657 0.0
N80 N 0.75856 0.30884 0.1464 0.0
C81 C 0.74078 0.36428 0.10255 0.0
C82 C 0.71356 0.33403 0.04106 0.0
C83 C 0.7081 0.28946 0.03596 0.0
C84 C 0.75829 0.3476 0.1591 0.0
H85 H 0.73177 0.24526 0.08016 0.0
C86 C 0.84711 0.29158 0.08616 0.0
O87 O 0.89445 0.30039 0.31067 0.0
O88 O 0.91425 0.32624 0.19794 0.0
N89 N 0.77872 0.33524 0.30551 0.0
C90 C 0.7623 0.34145 0.44013 0.0
C91 C 0.73893 0.38122 0.45344 0.0
C92 C 0.73138 0.41075 0.36685 0.0
C93 C 0.74847 0.40365 0.25889 0.0
C94 C 0.76903 0.3651 0.23457 0.0
H95 H 0.76817 0.33582 0.40777 0.0
O96 O 0.8957 0.39217 0.26543 0.0
O97 O 0.84468 0.3709 0.18589 0.0
O98 O 0.8058 0.23592 0.25881 0.0
O99 O 0.74933 0.2455 0.23866 0.0
C100 C 0.75451 0.42907 0.18659 0.0
C101 C 0.74746 0.40854 0.11194 0.0
H102 H 0.69495 0.34434 1.00156 0.0
H103 H 0.68476 0.26292 0.99516 0.0
H104 H 0.72859 0.38642 0.5114 0.0
H105 H 0.71574 0.43086 0.384 0.0
H106 H 0.75877 0.46274 0.18181 0.0
H107 H 0.73824 0.42387 0.06431 0.0
Mn108 Mn 0.51402 0.87731 0.26389 0.0
Mn109 Mn 0.42928 0.80021 0.15738 0.0
C110 C 0.43013 0.87311 0.27793 0.0
C111 C 0.56311 0.96116 0.30106 0.0
C112 C 0.50558 0.7748 0.2334 0.0
O113 O 0.53021 0.89043 0.13147 0.0
O114 O 0.47627 0.82693 0.07274 0.0
C115 C 0.42595 0.87798 0.08338 0.0
N116 N 0.40145 0.8357 0.11699 0.0
C117 C 0.33443 0.84583 0.12002 0.0
C118 C 0.36038 0.88979 0.09032 0.0
C119 C 0.40595 0.90526 0.06998 0.0
C120 C 0.35849 0.82264 0.13995 0.0
H121 H 0.46195 0.89385 0.07438 0.0
C122 C 0.51502 0.86366 0.06664 0.0
O123 O 0.5791 0.93306 0.29827 0.0
O124 O 0.52016 0.94165 0.27972 0.0
N125 N 0.37425 0.76927 0.23099 0.0
C126 C 0.33909 0.70437 0.31288 0.0
C127 C 0.27966 0.68724 0.33405 0.0
C128 C 0.25326 0.71971 0.28575 0.0
C129 C 0.28379 0.76931 0.22209 0.0
C130 C 0.34309 0.79279 0.19686 0.0
H131 H 0.35272 0.72069 0.29075 0.0
O132 O 0.47058 0.91003 0.2859 0.0
O133 O 0.44364 0.84365 0.24989 0.0
O134 O 0.52607 0.81528 0.27099 0.0
O135 O 0.47724 0.77279 0.17802 0.0
C136 C 0.26098 0.78635 0.17667 0.0
C137 C 0.28664 0.82676 0.13359 0.0
H138 H 0.34615 0.91256 0.08509 0.0
H139 H 0.42644 0.93919 0.04544 0.0
H140 H 0.26505 0.65765 0.38022 0.0
H141 H 0.26191 0.69954 0.31623 0.0
H142 H 0.22364 0.76971 0.17599 0.0
H143 H 0.2686 0.84334 0.10908 0.0
Mn144 Mn 0.62831 0.52811 0.25293 0.0
Mn145 Mn 0.62635 0.44741 0.14703 0.0
C146 C 0.54674 0.44583 0.24586 0.0
C147 C 0.59747 0.57854 0.27964 0.0
C148 C 0.72276 0.52049 0.23768 0.0
O149 O 0.63064 0.54744 0.12897 0.0
O150 O 0.65226 0.50249 0.07185 0.0
C151 C 0.5483 0.45279 0.08437 0.0
N152 N 0.56658 0.42325 0.09254 0.0
C153 C 0.48935 0.35522 0.08279 0.0
C154 C 0.47098 0.38421 0.07806 0.0
C155 C 0.50026 0.43195 0.08559 0.0
C156 C 0.53644 0.37649 0.10412 0.0
H157 H 0.57685 0.44777 0.07677 0.0
C158 C 0.64561 0.53693 0.06605 0.0
O159 O 0.64126 0.59389 0.28286 0.0
O160 O 0.57201 0.53488 0.26163 0.0
N161 N 0.59888 0.3882 0.21458 0.0
C162 C 0.61572 0.34695 0.31332 0.0
C163 C 0.56972 0.28802 0.31798 0.0
C164 C 0.51982 0.26706 0.25119 0.0
C165 C 0.50918 0.29963 0.17986 0.0
C166 C 0.5483 0.35873 0.16244 0.0
H167 H 0.61662 0.36111 0.29166 0.0
O168 O 0.55109 0.48681 0.2541 0.0
O169 O 0.59132 0.45816 0.23223 0.0
O170 O 0.70273 0.54305 0.2652 0.0
O171 O 0.69684 0.48738 0.18751 0.0
C172 C 0.47082 0.27892 0.12957 0.0
C173 C 0.45924 0.30701 0.08672 0.0
H174 H 0.43378 0.36948 0.07973 0.0
H175 H 0.48669 0.45286 0.10523 0.0
H176 H 0.57595 0.26654 0.35427 0.0
H177 H 0.49476 0.23476 0.24358 0.0
H178 H 0.44733 0.24196 0.12899 0.0
H179 H 0.4243 0.29143 0.06279 0.0
Mn180 Mn 0.08159 0.61697 0.28547 0.0
Mn181 Mn 0.10798 0.60376 0.22578 0.0
C182 C 0.05437 0.5256 0.33212 0.0
C183 C 0.00186 0.61048 0.2915 0.0
C184 C 0.15674 0.71175 0.29732 0.0
O185 O 0.07422 0.64337 0.16444 0.0
O186 O 0.12485 0.62716 0.1196 0.0
C187 C 0.0197 0.53762 0.12602 0.0
N188 N 0.05974 0.54333 0.16747 0.0
C189 C 0.03417 0.45961 0.14707 0.0
C190 C -0.00762 0.45353 0.11611 0.0
C191 C -0.01355 0.49192 0.10362 0.0
C192 C 0.06762 0.5049 0.17035 0.0
H193 H 0.05267 0.5595 0.14875 0.0
C194 C 0.09931 0.64419 0.10399 0.0
O195 O 0.02561 0.61168 0.34961 0.0
O196 O 0.02292 0.61236 0.22955 0.0
N197 N 0.14595 0.56885 0.23359 0.0
C198 C 0.21885 0.58693 0.28411 0.0
C199 C 0.22419 0.53526 0.29282 0.0
C200 C 0.17534 0.47684 0.24973 0.0
C201 C 0.12006 0.46832 0.21138 0.0
C202 C 0.10717 0.51409 0.20476 0.0
H203 H 0.2011 0.58764 0.27103 0.0
O204 O 0.07359 0.5636 0.37247 0.0
O205 O 0.05015 0.54403 0.26942 0.0
O206 O 0.1173 0.69008 0.33038 0.0
O207 O 0.15875 0.68077 0.25166 0.0
C208 C 0.08535 0.42655 0.1785 0.0
C209 C 0.04333 0.42224 0.14987 0.0
H210 H -0.03473 0.41945 0.09634 0.0
H211 H 0.95599 0.48674 0.07279 0.0
H212 H 0.25384 0.54419 0.33735 0.0
H213 H 0.20344 0.50328 0.27676 0.0
H214 H 0.09032 0.39698 0.17427 0.0
H215 H 0.01715 0.38842 0.12737 0.0
Mn216 Mn 0.8675 0.53352 0.2876 0.0
Mn217 Mn 0.81996 0.4675 0.35552 0.0
C218 C 0.87364 0.456 0.24133 0.0
C219 C 0.95133 0.58397 0.29375 0.0
C220 C 0.77108 0.52238 0.27659 0.0
O221 O 0.86098 0.54299 0.42851 0.0
O222 O 0.80428 0.47503 0.46056 0.0
C223 C 0.91515 0.50617 0.43592 0.0
N224 N 0.87538 0.46663 0.40414 0.0
C225 C 0.91262 0.41928 0.42184 0.0
C226 C 0.95393 0.46012 0.43921 0.0
C227 C 0.95443 0.50226 0.44906 0.0
C228 C 0.8742 0.42382 0.40197 0.0
H229 H 0.88278 0.4905 0.40801 0.0
C230 C 0.83245 0.5156 0.48483 0.0
O231 O 0.924 0.6005 0.28987 0.0
O232 O 0.93109 0.53974 0.29426 0.0
N233 N 0.78897 0.39519 0.35613 0.0
C234 C 0.7156 0.33109 0.33765 0.0
C235 C 0.716 0.27506 0.3557 0.0
C236 C 0.77142 0.27778 0.38469 0.0
C237 C 0.82717 0.3315 0.39516 0.0
C238 C 0.83437 0.3881 0.381 0.0
H239 H 0.73561 0.3546 0.341 0.0
O240 O 0.90721 0.4951 0.26895 0.0
O241 O 0.83807 0.46112 0.24992 0.0
O242 O 0.81321 0.55196 0.26088 0.0
O243 O 0.77014 0.48738 0.31248 0.0
C244 C 0.86648 0.33271 0.42481 0.0
C245 C 0.90883 0.37516 0.43176 0.0
H246 H -0.01559 0.45823 0.45368 0.0
H247 H -0.0148 0.53305 0.46994 0.0
H248 H 0.69718 0.29168 0.34001 0.0
H249 H 0.77034 0.2464 0.40348 0.0
H250 H 0.86475 0.30074 0.44239 0.0
H251 H 0.93891 0.37366 0.45221 0.0
Mn252 Mn 0.29257 0.86539 0.30923 0.0
Mn253 Mn 0.30624 0.78966 0.39903 0.0
C254 C 0.37805 0.87108 0.30094 0.0
C255 C 0.31769 0.94443 0.28124 0.0
C256 C 0.20396 0.76222 0.32962 0.0
O257 O 0.2891 0.87822 0.43732 0.0
O258 O 0.2861 0.81505 0.48272 0.0
C259 C 0.38299 0.86011 0.50016 0.0
N260 N 0.36698 0.82275 0.44882 0.0
C261 C 0.43958 0.82513 0.46015 0.0
C262 C 0.45495 0.86094 0.51678 0.0
C263 C 0.42718 0.8799 0.53416 0.0
C264 C 0.39557 0.80873 0.42476 0.0
H265 H 0.3637 0.87681 0.51414 0.0
C266 C 0.28179 0.84992 0.495 0.0
O267 O 0.27438 0.91415 0.28203 0.0
O268 O 0.3457 0.92963 0.29942 0.0
N269 N 0.32919 0.76228 0.31538 0.0
C270 C 0.30806 0.71215 0.20086 0.0
C271 C 0.35436 0.7022 0.1709 0.0
C272 C 0.40887 0.72695 0.23556 0.0
C273 C 0.42077 0.76403 0.32409 0.0
C274 C 0.38174 0.78143 0.35999 0.0
H275 H 0.30816 0.72369 0.22891 0.0
O276 O 0.37033 0.90558 0.2957 0.0
O277 O 0.33537 0.83877 0.32254 0.0
O278 O 0.21947 0.80349 0.30093 0.0
O279 O 0.23446 0.76004 0.37401 0.0
C280 C 0.4563 0.77392 0.37899 0.0
C281 C 0.46712 0.8058 0.44098 0.0
H282 H 0.4888 0.87536 0.54486 0.0
H283 H 0.43962 0.90982 0.57335 0.0
H284 H 0.3445 0.68011 0.11237 0.0
H285 H 0.3836 0.71235 0.1944 0.0
H286 H 0.47708 0.75794 0.37674 0.0
H287 H 0.49812 0.81539 0.47592 0.0
Mn288 Mn 0.4092 0.316 0.26138 0.0
Mn289 Mn 0.49247 0.31645 0.35175 0.0
C290 C 0.4938 0.39447 0.25199 0.0
C291 C 0.35667 0.34626 0.24985 0.0
C292 C 0.41752 0.22034 0.27257 0.0
O293 O 0.39757 0.31937 0.39094 0.0
O294 O 0.43711 0.28713 0.42022 0.0
C295 C 0.48592 0.39609 0.41425 0.0
N296 N 0.51515 0.37711 0.40366 0.0
C297 C 0.58375 0.45383 0.41185 0.0
C298 C 0.55518 0.47313 0.41527 0.0
C299 C 0.50702 0.44457 0.4117 0.0
C300 C 0.56228 0.40638 0.3934 0.0
H301 H 0.49032 0.3671 0.4132 0.0
C302 C 0.41019 0.30063 0.44438 0.0
O303 O 0.34301 0.30285 0.24464 0.0
O304 O 0.4011 0.37314 0.25875 0.0
N305 N 0.55129 0.34169 0.28715 0.0
C306 C 0.59133 0.32245 0.18963 0.0
C307 C 0.65041 0.36689 0.18465 0.0
C308 C 0.67273 0.4174 0.25161 0.0
C309 C 0.64037 0.42975 0.32278 0.0
C310 C 0.58114 0.39213 0.33909 0.0
H311 H 0.57733 0.32221 0.21139 0.0
O312 O 0.45374 0.39252 0.24985 0.0
O313 O 0.47993 0.34981 0.26683 0.0
O314 O 0.39412 0.24032 0.24807 0.0
O315 O 0.4519 0.24671 0.31857 0.0
C316 C 0.66048 0.46841 0.3735 0.0
C317 C 0.63222 0.48241 0.41104 0.0
H318 H 0.56991 0.51046 0.41855 0.0
H319 H 0.48542 0.46012 0.4118 0.0
H320 H 0.66842 0.36069 0.14053 0.0
H321 H 0.70478 0.44057 0.25978 0.0
H322 H 0.69749 0.49049 0.37846 0.0
H323 H 0.64821 0.5175 0.43493 0.0
Mn324 Mn 0.0539 0.39253 0.32574 0.0
Mn325 Mn 0.14091 0.48007 0.40026 0.0
C326 C 0.0514 0.47298 0.34086 0.0
C327 C -0.02607 0.34251 0.2924 0.0
C328 C 0.15499 0.39741 0.31609 0.0
O329 O 0.04926 0.38073 0.45602 0.0
O330 O 0.11944 0.43685 0.49639 0.0
C331 C 0.08221 0.49992 0.49814 0.0
N332 N 0.12318 0.51692 0.45996 0.0
C333 C 0.13836 0.59361 0.48233 0.0
C334 C 0.09741 0.5772 0.52268 0.0
C335 C 0.06669 0.53002 0.51954 0.0
C336 C 0.14498 0.56095 0.44009 0.0
H337 H 0.05729 0.46357 0.49548 0.0
C338 C 0.08011 0.40076 0.5139 0.0
O339 O 0.00261 0.32765 0.29288 0.0
O340 O -0.01028 0.38437 0.31891 0.0
N341 N 0.15467 0.52562 0.30532 0.0
C342 C 0.18549 0.54321 0.17614 0.0
C343 C 0.20516 0.60261 0.14882 0.0
C344 C 0.20048 0.64263 0.22208 0.0
C345 C 0.17594 0.62467 0.32685 0.0
C346 C 0.15452 0.56731 0.36299 0.0
H347 H 0.17716 0.53411 0.20841 0.0
O348 O 0.01553 0.43249 0.3266 0.0
O349 O 0.08281 0.46012 0.35153 0.0
O350 O 0.11064 0.37435 0.29968 0.0
O351 O 0.16495 0.43357 0.36119 0.0
C352 C 0.17991 0.65368 0.39027 0.0
C353 C 0.16129 0.63959 0.46368 0.0
H354 H 0.08516 0.6005 0.53975 0.0
H355 H 0.0313 0.51729 0.53315 0.0
H356 H 0.22017 0.60945 0.08458 0.0
H357 H 0.20541 0.62656 0.1768 0.0
H358 H 0.19768 0.68819 0.38824 0.0
H359 H 0.16028 0.6649 0.50358 0.0
Mn360 Mn 0.62152 0.10214 0.33458 0.0
Mn361 Mn 0.62524 0.14345 0.34049 0.0
C362 C 0.51727 0.07001 0.32187 0.0
C363 C 0.59141 0.01307 0.3159 0.0
C364 C 0.71771 0.17537 0.30245 0.0
O365 O 0.62732 0.0697 0.43975 0.0
O366 O 0.65348 0.14058 0.44499 0.0
C367 C 0.64458 0.21901 0.45626 0.0
N368 N 0.6164 0.1854 0.40313 0.0
C369 C 0.55498 0.19804 0.43319 0.0
C370 C 0.58381 0.23506 0.48357 0.0
C371 C 0.63084 0.25022 0.48343 0.0
C372 C 0.57583 0.18022 0.384 0.0
H373 H 0.67838 0.22425 0.47178 0.0
C374 C 0.64883 0.10618 0.4814 0.0
O375 O 0.59138 0.041 0.26857 0.0
O376 O 0.60917 0.03515 0.38017 0.0
N377 N 0.60084 0.16396 0.24447 0.0
C378 C 0.60194 0.18017 0.10793 0.0
C379 C 0.56007 0.19789 0.08182 0.0
C380 C 0.52321 0.20182 0.15726 0.0
C381 C 0.52486 0.18735 0.26936 0.0
C382 C 0.56421 0.17004 0.30617 0.0
H383 H 0.60584 0.17492 0.14185 0.0
O384 O 0.55328 0.08786 0.36756 0.0
O385 O 0.55521 0.08859 0.36733 0.0
O386 O 0.69586 0.1297 0.29704 0.0
O387 O 0.69001 0.18911 0.32423 0.0
C388 C 0.4978 0.18637 0.33692 0.0
C389 C 0.51168 0.19036 0.41529 0.0
H390 H 0.57151 0.25603 0.51261 0.0
H391 H 0.65522 0.28383 0.50899 0.0
H392 H 0.55765 0.20703 1.02156 0.0
H393 H 0.50287 0.21502 0.13015 0.0
H394 H 0.46794 0.1881 0.33722 0.0
H395 H 0.49292 0.19807 0.45968 0.0
Mn396 Mn 0.52284 0.63787 0.28701 0.0
Mn397 Mn 0.42476 0.62007 0.33106 0.0
C398 C 0.44628 0.55021 0.25952 0.0
C399 C 0.57453 0.60581 0.29489 0.0
C400 C 0.5002 0.72379 0.26737 0.0
O401 O 0.52577 0.64757 0.41926 0.0
O402 O 0.46171 0.6507 0.43026 0.0
C403 C 0.43401 0.54836 0.41891 0.0
N404 N 0.40567 0.56336 0.38682 0.0
C405 C 0.34151 0.48753 0.39716 0.0
C406 C 0.36972 0.47 0.4229 0.0
C407 C 0.41731 0.50072 0.42996 0.0
C408 C 0.36281 0.53271 0.36822 0.0
H409 H 0.4704 0.5707 0.42661 0.0
C410 C 0.49836 0.65545 0.46348 0.0
O411 O 0.59091 0.64972 0.28558 0.0
O412 O 0.53059 0.5825 0.30274 0.0
N413 N 0.38067 0.58224 0.2365 0.0
C414 C 0.34807 0.59384 0.11747 0.0
C415 C 0.28646 0.55068 0.10442 0.0
C416 C 0.25676 0.50503 0.18231 0.0
C417 C 0.28815 0.50146 0.2771 0.0
C418 C 0.34727 0.53954 0.29854 0.0
H419 H 0.36069 0.59582 0.14492 0.0
O420 O 0.48795 0.56004 0.27721 0.0
O421 O 0.45361 0.59334 0.27106 0.0
O422 O 0.53114 0.70994 0.26384 0.0
O423 O 0.45998 0.69218 0.29475 0.0
C424 C 0.26936 0.47483 0.34504 0.0
C425 C 0.29393 0.46081 0.3927 0.0
H426 H 0.35534 0.434 0.43883 0.0
H427 H 0.44019 0.48881 0.45045 0.0
H428 H 0.27197 0.55683 0.04555 0.0
H429 H 0.26626 0.52589 0.13606 0.0
H430 H 0.23637 0.46344 0.36122 0.0
H431 H 0.27563 0.43045 0.42906 0.0
Mn432 Mn 0.51806 0.88925 0.79657 0.0
Mn433 Mn 0.43354 0.83978 0.89506 0.0
C434 C 0.43598 0.87845 0.73927 0.0
C435 C 0.57602 0.96698 0.80384 0.0
C436 C 0.49794 0.79366 0.79388 0.0
O437 O 0.54122 0.87329 0.9155 0.0
O438 O 0.49148 0.88662 0.9518 0.0
C439 C 0.45622 0.93994 0.893 0.0
N440 N 0.42174 0.89355 0.9075 0.0
C441 C 0.36289 0.91744 0.92289 0.0
C442 C 0.39776 0.96307 0.91483 0.0
C443 C 0.44199 -0.02741 0.89232 0.0
C444 C 0.37552 0.88368 0.91056 0.0
H445 H 0.44581 0.90613 0.90285 0.0
C446 C 0.52262 0.88084 0.97689 0.0
O447 O 0.58326 0.93645 0.76934 0.0
O448 O 0.53623 0.95244 0.83549 0.0
N449 N 0.3631 0.80314 0.87134 0.0
C450 C 0.30874 0.72531 0.86343 0.0
C451 C 0.24789 0.71493 0.88074 0.0
C452 C 0.24003 0.76524 0.90005 0.0
C453 C 0.28606 0.82528 0.90237 0.0
C454 C 0.34592 0.8427 0.88846 0.0
H455 H 0.33048 0.74812 0.86428 0.0
O456 O 0.47539 0.90053 0.70336 0.0
O457 O 0.44808 0.86168 0.79636 0.0
O458 O 0.51618 0.82952 0.75025 0.0
O459 O 0.4694 0.79619 0.84945 0.0
C460 C 0.27897 0.86013 0.93218 0.0
C461 C 0.31679 0.90556 0.94106 0.0
H462 H 0.38972 -0.00938 0.91954 0.0
H463 H 0.46693 0.00589 0.87333 0.0
H464 H 0.27012 0.7017 0.86895 0.0
H465 H 0.20779 0.75919 0.92486 0.0
H466 H 0.2444 0.85265 0.94697 0.0
H467 H 0.3096 0.93272 0.95859 0.0
Mn468 Mn 0.61109 0.54488 0.80417 0.0
Mn469 Mn 0.59127 0.45865 0.89261 0.0
C470 C 0.53275 0.45942 0.75933 0.0
C471 C 0.58362 0.59812 0.79819 0.0
C472 C 0.6975 0.52968 0.80389 0.0
O473 O 0.64948 0.56782 0.92197 0.0
O474 O 0.59345 0.50613 0.96184 0.0
C475 C 0.50235 0.45713 0.92008 0.0
N476 N 0.52453 0.43154 0.91742 0.0
C477 C 0.44889 0.36158 0.91074 0.0
C478 C 0.42707 0.38764 0.91403 0.0
C479 C 0.45402 0.43556 0.91199 0.0
C480 C 0.49802 0.38604 0.90618 0.0
H481 H 0.52153 0.49435 0.92149 0.0
C482 C 0.62893 0.54164 0.98181 0.0
O483 O 0.62372 0.60873 0.77077 0.0
O484 O 0.56314 0.56051 0.83769 0.0
N485 N 0.57278 0.39994 0.83054 0.0
C486 C 0.60145 0.36527 0.74557 0.0
C487 C 0.55939 0.30748 0.71784 0.0
C488 C 0.50217 0.27824 0.77144 0.0
C489 C 0.48248 0.30804 0.83724 0.0
C490 C 0.51785 0.36779 0.86539 0.0
H491 H 0.59878 0.37899 0.76937 0.0
O492 O 0.54862 0.49901 0.72545 0.0
O493 O 0.5687 0.4745 0.80736 0.0
O494 O 0.675 0.54491 0.76101 0.0
O495 O 0.67124 0.50754 0.86711 0.0
C496 C 0.44012 0.28586 0.8744 0.0
C497 C 0.42216 0.31273 0.90447 0.0
H498 H 0.38961 0.37129 0.91298 0.0
H499 H 0.4368 0.45526 0.90611 0.0
H500 H 0.57173 0.29467 0.66367 0.0
H501 H 0.52976 0.28859 0.73782 0.0
H502 H 0.41885 0.2485 0.87279 0.0
H503 H 0.38569 0.29521 0.91898 0.0
Mn504 Mn 0.05528 0.63224 0.84431 0.0
Mn505 Mn 0.15129 0.64316 0.88102 0.0
C506 C 0.06044 0.55175 0.84724 0.0
C507 C -0.02634 0.5964 0.83323 0.0
C508 C 0.15028 0.72804 0.8116 0.0
O509 O 0.05992 0.63925 0.97309 0.0
O510 O 0.13617 0.66954 0.97853 0.0
C511 C 0.102 0.57115 0.99215 0.0
N512 N 0.14114 0.59611 0.94894 0.0
C513 C 0.16316 0.54169 0.97492 0.0
C514 C 0.12532 0.51765 0.02329 0.0
C515 C 0.09092 0.52819 1.01654 0.0
C516 C 0.16432 0.57655 0.92668 0.0
H517 H 0.07339 0.57691 0.99009 0.0
C518 C 0.098 0.65701 1.01523 0.0
O519 O -0.00069 0.64059 0.83512 0.0
O520 O -0.00587 0.57291 0.84696 0.0
N521 N 0.16623 0.615 0.78374 0.0
C522 C 0.17854 0.61003 0.64437 0.0
C523 C 0.18931 0.56302 0.62042 0.0
C524 C 0.19008 0.52593 0.70178 0.0
C525 C 0.17643 0.53088 0.80927 0.0
C526 C 0.16785 0.57581 0.8462 0.0
H527 H 0.1749 0.61561 0.67659 0.0
O528 O 0.02232 0.55346 0.84823 0.0
O529 O 0.09031 0.59757 0.84684 0.0
O530 O 0.10576 0.71011 0.82119 0.0
O531 O 0.16387 0.6999 0.82803 0.0
C532 C 0.17637 0.5036 0.87342 0.0
C533 C 0.18149 0.51603 0.95125 0.0
H534 H 0.11649 0.48394 0.04608 0.0
H535 H 0.05538 0.50174 1.01828 0.0
H536 H 0.19861 0.56366 0.55343 0.0
H537 H 0.19098 0.54195 0.65262 0.0
H538 H 0.18485 0.47856 0.87302 0.0
H539 H 0.18606 0.49434 0.99416 0.0
Mn540 Mn 0.39657 0.07497 0.77367 0.0
Mn541 Mn 0.49026 0.15703 0.84432 0.0
C542 C 0.47386 0.0664 0.77416 0.0
C543 C 0.33966 -0.00605 0.75796 0.0
C544 C 0.41699 0.18227 0.75892 0.0
O545 O 0.38887 0.07337 0.90591 0.0
O546 O 0.44369 0.14521 0.93051 0.0
C547 C 0.48494 0.08299 0.94588 0.0
N548 N 0.51128 0.12498 0.91114 0.0
C549 C 0.57907 0.12463 0.95258 0.0
C550 C 0.55268 0.08141 0.98384 0.0
C551 C 0.50525 0.06113 0.984 0.0
C552 C 0.55571 0.14063 0.90474 0.0
H553 H 0.44892 0.06242 0.93596 0.0
C554 C 0.41095 0.10726 0.95795 0.0
O555 O 0.32834 0.02549 0.75664 0.0
O556 O 0.38295 0.0085 0.77202 0.0
N557 N 0.54089 0.16615 0.76283 0.0
C558 C 0.58241 0.2126 0.65205 0.0
C559 C 0.64256 0.22558 0.6512 0.0
C560 C 0.66413 0.20432 0.73275 0.0
C561 C 0.63047 0.17082 0.81828 0.0
C562 C 0.57049 0.15302 0.83133 0.0
H563 H 0.56787 0.20183 0.67671 0.0
O564 O 0.4315 0.03199 0.76984 0.0
O565 O 0.46547 0.10136 0.7822 0.0
O566 O 0.38712 0.13764 0.75152 0.0
O567 O 0.45515 0.19069 0.79499 0.0
C568 C 0.65196 0.17054 0.88937 0.0
C569 C 0.62668 0.1437 0.95095 0.0
H570 H 0.5681 0.0604 0.99327 0.0
H571 H 0.48429 0.02694 1.00757 0.0
H572 H 0.66616 0.25256 0.60421 0.0
H573 H 0.65759 0.21735 0.6873 0.0
H574 H 0.68828 0.18759 0.8982 0.0
H575 H 0.64451 0.13538 0.99583 0.0
Mn576 Mn 0.30205 0.42798 0.78546 0.0
Mn577 Mn 0.31527 0.5143 0.88326 0.0
C578 C 0.37414 0.51579 0.7503 0.0
C579 C 0.3278 0.37504 0.77295 0.0
C580 C 0.21485 0.43801 0.79003 0.0
O581 O 0.26652 0.39883 0.89922 0.0
O582 O 0.30706 0.46613 0.9577 0.0
C583 C 0.40656 0.51894 0.91388 0.0
N584 N 0.38162 0.54332 0.91625 0.0
C585 C 0.45389 0.61736 0.9226 0.0
C586 C 0.47862 0.59413 0.92252 0.0
C587 C 0.45537 0.54618 0.91185 0.0
C588 C 0.40603 0.59102 0.90849 0.0
H589 H 0.37604 0.51906 0.92301 0.0
C590 C 0.2808 0.4232 0.96449 0.0
O591 O 0.28796 0.36533 0.74458 0.0
O592 O 0.35063 0.41321 0.81391 0.0
N593 N 0.3325 0.57318 0.82018 0.0
C594 C 0.30066 0.60838 0.74007 0.0
C595 C 0.33998 0.66906 0.72868 0.0
C596 C 0.39698 0.69724 0.784 0.0
C597 C 0.41825 0.66721 0.84421 0.0
C598 C 0.38628 0.60683 0.86063 0.0
H599 H 0.30386 0.59498 0.76006 0.0
O600 O 0.36115 0.4775 0.71126 0.0
O601 O 0.33965 0.49808 0.79997 0.0
O602 O 0.23804 0.4256 0.74408 0.0
O603 O 0.24027 0.46356 0.85206 0.0
C604 C 0.45733 0.69043 0.89337 0.0
C605 C 0.4771 0.66599 0.92553 0.0
H606 H 0.51616 0.61309 0.92628 0.0
H607 H 0.47609 0.53009 0.90405 0.0
H608 H 0.32502 0.68087 0.67874 0.0
H609 H 0.36876 0.68743 0.75054 0.0
H610 H 0.47542 0.72753 0.9014 0.0
H611 H 0.51233 0.68544 0.94848 0.0
Mn612 Mn 0.86482 0.32521 0.82196 0.0
Mn613 Mn 0.77679 0.32232 0.90575 0.0
C614 C 0.84615 0.39304 0.78654 0.0
C615 C 0.94591 0.35874 0.81695 0.0
C616 C 0.76493 0.22529 0.81083 0.0
O617 O 0.86618 0.2997 0.93899 0.0
O618 O 0.80882 0.30744 0.98696 0.0
C619 C 0.83863 0.40135 1.0125 0.0
N620 N 0.80284 0.38381 0.95811 0.0
C621 C 0.80498 0.45755 0.96112 0.0
C622 C 0.8398 0.47435 1.01903 0.0
C623 C 0.85693 0.44625 0.04386 0.0
C624 C 0.789 0.41263 0.93024 0.0
H625 H 0.85458 0.38217 0.03224 0.0
C626 C 0.84202 0.3 0.99831 0.0
O627 O 0.91852 0.31813 0.78657 0.0
O628 O 0.92679 0.37944 0.85146 0.0
N629 N 0.74183 0.34365 0.83296 0.0
C630 C 0.68514 0.31076 0.73168 0.0
C631 C 0.66804 0.34989 0.69279 0.0
C632 C 0.692 0.40907 0.74078 0.0
C633 C 0.73647 0.43143 0.83011 0.0
C634 C 0.75999 0.39711 0.8689 0.0
H635 H 0.69946 0.31466 0.75897 0.0
O636 O 0.86819 0.37864 0.74226 0.0
O637 O 0.83086 0.36068 0.84206 0.0
O638 O 0.80537 0.25325 0.77814 0.0
O639 O 0.75727 0.24841 0.86699 0.0
C640 C 0.7472 0.46768 0.88528 0.0
C641 C 0.7833 0.48295 0.94119 0.0
H642 H 0.85315 0.50852 0.04582 0.0
H643 H 0.8837 0.45897 0.08827 0.0
H644 H 0.64492 0.33362 0.63601 0.0
H645 H 0.67669 0.38021 0.70762 0.0
H646 H 0.72755 0.48457 0.89089 0.0
H647 H 0.79217 0.51433 0.9749 0.0
Mn648 Mn 0.07985 0.42964 0.78422 0.0
Mn649 Mn 0.10017 0.48533 0.68662 0.0
C650 C 0.06614 0.50307 0.83337 0.0
C651 C -0.00429 0.38322 0.80336 0.0
C652 C 0.15974 0.42811 0.7696 0.0
O653 O 0.07471 0.38755 0.66956 0.0
O654 O 0.05783 0.43214 0.6176 0.0
C655 C 0.00101 0.46962 0.6568 0.0
N656 N 0.0495 0.5023 0.66694 0.0
C657 C 0.03247 0.56641 0.67125 0.0
C658 C -0.01441 0.53411 0.66183 0.0
C659 C -0.02943 0.4869 0.66272 0.0
C660 C 0.0628 0.54894 0.68247 0.0
H661 H 0.035 0.479 0.64847 0.0
C662 C 0.06475 0.40026 0.60353 0.0
O663 O 0.02417 0.37531 0.83988 0.0
O664 O 0.01481 0.41762 0.7581 0.0
N665 N 0.14221 0.55442 0.72276 0.0
C666 C 0.22113 0.60633 0.74311 0.0
C667 C 0.23552 0.66606 0.73399 0.0
C668 C 0.18881 0.68006 0.70965 0.0
C669 C 0.12785 0.63686 0.69924 0.0
C670 C 0.10603 0.5757 0.70454 0.0
H671 H 0.20099 0.58827 0.73814 0.0
O672 O 0.085 0.48388 0.87386 0.0
O673 O 0.05464 0.47576 0.77197 0.0
O674 O 0.12919 0.41199 0.82297 0.0
O675 O 0.14683 0.44915 0.71545 0.0
C676 C 0.09492 0.64895 0.67959 0.0
C677 C 0.04813 0.6146 0.67058 0.0
H678 H -0.03984 0.5452 0.65878 0.0
H679 H 0.93474 0.463 0.67381 0.0
H680 H 0.27456 0.68787 0.73932 0.0
H681 H 0.21717 0.67909 0.72242 0.0
H682 H 0.10513 0.68495 0.67144 0.0
H683 H 0.02341 0.62602 0.6593 0.0
Mn684 Mn 0.6194 0.09451 0.74613 0.0
Mn685 Mn 0.61698 0.11671 0.69583 0.0
C686 C 0.52381 0.06308 0.77016 0.0
C687 C 0.60496 0.01607 0.79003 0.0
C688 C 0.72063 0.17044 0.77237 0.0
O689 O 0.64827 0.08623 0.62755 0.0
O690 O 0.62994 0.13553 0.58943 0.0
C691 C 0.55105 0.03782 0.57554 0.0
N692 N 0.55913 0.07685 0.6204 0.0
C693 C 0.49288 0.07512 0.5515 0.0
C694 C 0.48408 0.0344 0.51139 0.0
C695 C 0.5136 0.01639 0.52208 0.0
C696 C 0.53302 0.09721 0.59971 0.0
H697 H 0.57187 0.02174 0.58466 0.0
C698 C 0.64639 0.11065 0.56956 0.0
O699 O 0.60443 0.04584 0.83431 0.0
O700 O 0.61494 0.03079 0.72181 0.0
N701 N 0.58929 0.15888 0.70501 0.0
C702 C 0.6073 0.22618 0.77718 0.0
C703 C 0.56193 0.23945 0.77198 0.0
C704 C 0.51004 0.20449 0.70034 0.0
C705 C 0.50054 0.15275 0.64665 0.0
C706 C 0.54008 0.13176 0.64924 0.0
H707 H 0.60757 0.20918 0.76041 0.0
O708 O 0.55607 0.07284 0.82117 0.0
O709 O 0.54786 0.06494 0.7095 0.0
O710 O 0.69098 0.13396 0.80988 0.0
O711 O 0.69787 0.16185 0.70497 0.0
C712 C 0.46445 0.1292 0.59244 0.0
C713 C 0.46092 0.09163 0.54677 0.0
H714 H 0.45401 0.01594 0.47276 0.0
H715 H 0.50691 -0.01479 0.49012 0.0
H716 H 0.5679 0.26374 0.82472 0.0
H717 H 0.53375 0.22546 0.74088 0.0
H718 H 0.43893 0.13987 0.58484 0.0
H719 H 0.43113 0.07385 0.50733 0.0
Mn720 Mn 0.50601 0.65033 0.74423 0.0
Mn721 Mn 0.42248 0.65175 0.66178 0.0
C722 C 0.42515 0.56854 0.74331 0.0
C723 C 0.55667 0.61945 0.77032 0.0
C724 C 0.49387 0.74426 0.75381 0.0
O725 O 0.51718 0.65112 0.6127 0.0
O726 O 0.47289 0.67929 0.57884 0.0
C727 C 0.42494 0.57596 0.58051 0.0
N728 N 0.39656 0.5945 0.60047 0.0
C729 C 0.3282 0.51996 0.58655 0.0
C730 C 0.35534 0.50082 0.5684 0.0
C731 C 0.40337 0.52784 0.57642 0.0
C732 C 0.35125 0.56467 0.61924 0.0
H733 H 0.41952 0.60443 0.57748 0.0
C734 C 0.50131 0.66638 0.55676 0.0
O735 O 0.57208 0.66333 0.76841 0.0
O736 O 0.51341 0.59361 0.75136 0.0
N737 N 0.3701 0.6231 0.74275 0.0
C738 C 0.33511 0.63547 0.85766 0.0
C739 C 0.27929 0.5861 0.87706 0.0
C740 C 0.25547 0.53479 0.80702 0.0
C741 C 0.28369 0.52896 0.71982 0.0
C742 C 0.33964 0.57209 0.69044 0.0
H743 H 0.34761 0.63751 0.83085 0.0
O744 O 0.46611 0.57291 0.74461 0.0
O745 O 0.43664 0.61338 0.73444 0.0
O746 O 0.51966 0.7251 0.76771 0.0
O747 O 0.46024 0.72003 0.70545 0.0
C748 C 0.25851 0.49784 0.6577 0.0
C749 C 0.28099 0.49091 0.59549 0.0
H750 H 0.33945 0.46339 0.56299 0.0
H751 H 0.42441 0.51157 0.58 0.0
H752 H 0.26383 0.5934 0.93369 0.0
H753 H 0.26323 0.55877 0.84947 0.0
H754 H 0.22185 0.47524 0.65816 0.0
H755 H 0.26233 0.45939 0.55994 0.0
Mn756 Mn 0.84577 0.52732 0.76784 0.0
Mn757 Mn 0.76464 0.43961 0.67806 0.0
C758 C 0.8453 0.44394 0.77349 0.0
C759 C 0.92603 0.57288 0.80411 0.0
C760 C 0.74469 0.52359 0.76715 0.0
O761 O 0.85813 0.53978 0.63544 0.0
O762 O 0.78695 0.49034 0.59939 0.0
C763 C 0.8407 0.43763 0.59199 0.0
N764 N 0.79716 0.41161 0.62181 0.0
C765 C 0.80686 0.34432 0.60972 0.0
C766 C 0.85015 0.37101 0.57848 0.0
C767 C 0.86776 0.41817 0.57377 0.0
C768 C 0.78528 0.36764 0.64044 0.0
H769 H 0.85975 0.47408 0.59597 0.0
C770 C 0.82678 0.52167 0.57821 0.0
O771 O 0.90039 0.59137 0.79877 0.0
O772 O 0.907 0.53014 0.78177 0.0
N773 N 0.73914 0.38154 0.74375 0.0
C774 C 0.68095 0.34967 0.8368 0.0
C775 C 0.66995 0.29432 0.87222 0.0
C776 C 0.70337 0.2677 0.82849 0.0
C777 C 0.74878 0.29661 0.74517 0.0
C778 C 0.76428 0.3533 0.70853 0.0
H779 H 0.6958 0.36216 0.81057 0.0
O780 O 0.88152 0.48498 0.77797 0.0
O781 O 0.81396 0.45653 0.75591 0.0
O782 O 0.78928 0.5488 0.78361 0.0
O783 O 0.73814 0.48642 0.72833 0.0
C784 C 0.75807 0.27384 0.68268 0.0
C785 C 0.79016 0.29751 0.62396 0.0
H786 H 0.87287 0.35688 0.57161 0.0
H787 H 0.9033 0.44032 0.5608 0.0
H788 H 0.64012 0.28027 0.91848 0.0
H789 H 0.68294 0.276 0.85873 0.0
H790 H 0.74317 0.23765 0.67681 0.0
H791 H 0.80291 0.27874 0.58917 0.0
Mn792 Mn 0.29772 0.86389 0.7478 0.0
Mn793 Mn 0.28021 0.80403 0.72419 0.0
C794 C 0.38632 0.87838 0.72683 0.0
C795 C 0.30694 0.9443 0.74429 0.0
C796 C 0.19211 0.77308 0.76595 0.0
O797 O 0.29892 0.88932 0.62895 0.0
O798 O 0.25593 0.81733 0.62262 0.0
C799 C 0.25784 0.73969 0.58766 0.0
N800 N 0.28132 0.75967 0.65673 0.0
C801 C 0.34541 0.75388 0.61765 0.0
C802 C 0.32313 0.73317 0.54554 0.0
C803 C 0.27805 0.72431 0.53188 0.0
C804 C 0.32071 0.76225 0.67469 0.0
H805 H 0.225 0.73743 0.57428 0.0
C806 C 0.27433 0.8545 0.58414 0.0
O807 O 0.2926 0.91764 0.80168 0.0
O808 O 0.31051 0.9231 0.68415 0.0
N809 N 0.30027 0.77985 0.81993 0.0
C810 C 0.31123 0.77325 0.95855 0.0
C811 C 0.35932 0.76163 0.97675 0.0
C812 C 0.39199 0.75638 0.89301 0.0
C813 C 0.3814 0.76602 0.78241 0.0
C814 C 0.33463 0.77376 0.75227 0.0
H815 H 0.30412 0.77612 0.92607 0.0
O816 O 0.37423 0.90433 0.76104 0.0
O817 O 0.34838 0.84801 0.6925 0.0
O818 O 0.21518 0.81938 0.76872 0.0
O819 O 0.21921 0.76081 0.74359 0.0
C820 C 0.40774 0.77259 0.71194 0.0
C821 C 0.39002 0.76409 0.63465 0.0
H822 H 0.33991 0.72308 0.50127 0.0
H823 H 0.26035 0.70868 0.47712 0.0
H824 H 0.36654 0.75505 0.0359 0.0
H825 H 0.41261 0.7417 0.91263 0.0
H826 H 0.44038 0.77794 0.70857 0.0
H827 H 0.41087 0.76191 0.58757 0.0
Mn828 Mn 0.40191 0.32079 0.72298 0.0
Mn829 Mn 0.48881 0.32855 0.65229 0.0
C830 C 0.48188 0.40613 0.74231 0.0
C831 C 0.35204 0.35181 0.74425 0.0
C832 C 0.41453 0.22732 0.71562 0.0
O833 O 0.39042 0.31518 0.59007 0.0
O834 O 0.45026 0.30792 0.55978 0.0
C835 C 0.4879 0.40889 0.58093 0.0
N836 N 0.51334 0.38911 0.60687 0.0
C837 C 0.58119 0.46258 0.60392 0.0
C838 C 0.5567 0.48356 0.57707 0.0
C839 C 0.50859 0.45708 0.57379 0.0
C840 C 0.55616 0.417 0.63023 0.0
H841 H 0.45109 0.39015 0.5763 0.0
C842 C 0.4142 0.30741 0.53684 0.0
O843 O 0.33571 0.30767 0.74235 0.0
O844 O 0.39502 0.37703 0.72693 0.0
N845 N 0.53335 0.35461 0.74517 0.0
C846 C 0.56407 0.33388 0.85701 0.0
C847 C 0.62076 0.37998 0.88785 0.0
C848 C 0.64995 0.43427 0.82868 0.0
C849 C 0.62406 0.44609 0.73789 0.0
C850 C 0.56699 0.40669 0.7012 0.0
H851 H 0.55271 0.33378 0.82967 0.0
O852 O 0.44042 0.39979 0.73324 0.0
O853 O 0.47143 0.36178 0.72889 0.0
O854 O 0.38971 0.24632 0.73777 0.0
O855 O 0.44895 0.25455 0.67128 0.0
C856 C 0.64904 0.47403 0.67268 0.0
C857 C 0.62823 0.48782 0.61662 0.0
H858 H 0.57399 0.52042 0.56537 0.0
H859 H 0.48794 0.47293 0.55993 0.0
H860 H 0.63287 0.36967 0.94572 0.0
H861 H 0.63962 0.40855 0.86657 0.0
H862 H 0.68487 0.49143 0.66434 0.0
H863 H 0.64925 0.51927 0.58394 0.0
loop_
_geom_bond_atom_site_label_1
_geom_bond_atom_site_label_2
_geom_bond_distance
_geom_bond_site_symmetry_2
_ccdc_geom_bond_type
Mn0 O5 2.095 . S
Mn0 O15 2.162 . S
Mn0 O16 2.297 . S
Mn0 O24 2.385 . S
Mn0 O25 2.209 . S
Mn0 O26 2.094 . S
Mn1 O6 2.121 . S
Mn1 N8 2.257 . S
Mn1 N17 2.282 . S
Mn1 O25 2.215 . S
Mn1 O27 2.117 . S
C2 O24 1.234 . S
C2 O25 1.283 . S
C3 O15 1.281 . S
C3 O16 1.236 . S
C4 O26 1.240 . S
C4 O27 1.264 . S
O5 Mn0 2.095 . S
O5 C14 1.250 . S
O6 Mn1 2.121 . S
O6 C14 1.258 . S
C7 N8 1.326 . S
C7 C11 1.460 1_554 S
C7 H13 0.929 1_554 S
N8 Mn1 2.257 . S
N8 C7 1.326 . S
N8 C12 1.362 . S
C9 C10 1.258 . S
C9 C12 1.431 . S
C9 C29 1.449 . S
C10 C9 1.258 . S
C10 C11 1.477 1_554 S
C10 H30 0.931 . S
C11 C7 1.460 1_556 S
C11 C10 1.477 1_556 S
C11 H31 0.930 . S
C12 N8 1.362 . S
C12 C9 1.431 . S
C12 C22 1.476 . S
H13 C7 0.929 1_556 S
C14 O5 1.250 . S
C14 O6 1.258 . S
O15 Mn0 2.162 . S
O15 C3 1.281 . S
O16 Mn0 2.297 . S
O16 C3 1.236 . S
N17 Mn1 2.282 . S
N17 C18 1.328 . S
N17 C22 1.318 . S
C18 N17 1.328 . S
C18 C19 1.457 . S
C18 H23 0.929 . S
C19 C18 1.457 . S
C19 C20 1.291 . S
C19 H32 0.931 . S
C20 C19 1.291 . S
C20 C21 1.373 . S
C20 H33 0.929 . S
C21 C20 1.373 . S
C21 C22 1.396 . S
C21 C28 1.403 . S
C22 C12 1.476 . S
C22 N17 1.318 . S
C22 C21 1.396 . S
H23 C18 0.929 . S
O24 Mn0 2.385 . S
O24 C2 1.234 . S
O25 Mn0 2.209 . S
O25 Mn1 2.215 . S
O25 C2 1.283 . S
O26 Mn0 2.094 . S
O26 C4 1.240 . S
O27 Mn1 2.117 . S
O27 C4 1.264 . S
C28 C21 1.403 . S
C28 C29 1.399 . S
C28 H34 0.929 . S
C29 C9 1.449 . S
C29 C28 1.399 . S
C29 H35 0.930 . S
H30 C10 0.931 . S
H31 C11 0.930 . S
H32 C19 0.931 . S
H33 C20 0.929 . S
H34 C28 0.929 . S
H35 C29 0.930 . S
Mn36 O41 2.095 . S
Mn36 O51 2.162 . S
Mn36 O52 2.297 . S
Mn36 O60 2.385 . S
Mn36 O61 2.209 . S
Mn36 O62 2.094 . S
Mn37 O42 2.121 . S
Mn37 N44 2.257 . S
Mn37 N53 2.282 . S
Mn37 O61 2.215 . S
Mn37 O63 2.117 . S
C38 O60 1.234 . S
C38 O61 1.283 . S
C39 O51 1.281 . S
C39 O52 1.236 . S
C40 O62 1.240 . S
C40 O63 1.264 . S
O41 Mn36 2.095 . S
O41 C50 1.250 . S
O42 Mn37 2.121 . S
O42 C50 1.258 . S
C43 N44 1.326 . S
C43 C47 1.460 1_554 S
C43 H49 0.929 1_554 S
N44 Mn37 2.257 . S
N44 C43 1.326 . S
N44 C48 1.362 . S
C45 C46 1.258 . S
C45 C48 1.431 . S
C45 C65 1.449 . S
C46 C45 1.258 . S
C46 C47 1.477 1_554 S
C46 H66 0.931 . S
C47 C43 1.460 1_556 S
C47 C46 1.477 1_556 S
C47 H67 0.930 . S
C48 N44 1.362 . S
C48 C45 1.431 . S
C48 C58 1.476 . S
H49 C43 0.929 1_556 S
C50 O41 1.250 . S
C50 O42 1.258 . S
O51 Mn36 2.162 . S
O51 C39 1.281 . S
O52 Mn36 2.297 . S
O52 C39 1.236 . S
N53 Mn37 2.282 . S
N53 C54 1.328 . S
N53 C58 1.318 . S
C54 N53 1.328 . S
C54 C55 1.457 . S
C54 H59 0.929 . S
C55 C54 1.457 . S
C55 C56 1.291 . S
C55 H68 0.931 . S
C56 C55 1.291 . S
C56 C57 1.373 . S
C56 H69 0.929 . S
C57 C56 1.373 . S
C57 C58 1.396 . S
C57 C64 1.403 . S
C58 C48 1.476 . S
C58 N53 1.318 . S
C58 C57 1.396 . S
H59 C54 0.929 . S
O60 Mn36 2.385 . S
O60 C38 1.234 . S
O61 Mn36 2.209 . S
O61 Mn37 2.215 . S
O61 C38 1.283 . S
O62 Mn36 2.094 . S
O62 C40 1.240 . S
O63 Mn37 2.117 . S
O63 C40 1.264 . S
C64 C57 1.403 . S
C64 C65 1.399 . S
C64 H70 0.929 . S
C65 C45 1.449 . S
C65 C64 1.399 . S
C65 H71 0.930 . S
H66 C46 0.931 . S
H67 C47 0.930 . S
H68 C55 0.931 . S
H69 C56 0.929 . S
H70 C64 0.929 . S
H71 C65 0.930 . S
Mn72 O77 2.095 . S
Mn72 O87 2.162 . S
Mn72 O88 2.297 . S
Mn72 O96 2.385 . S
Mn72 O97 2.209 . S
Mn72 O98 2.094 . S
Mn73 O78 2.121 . S
Mn73 N80 2.257 . S
Mn73 N89 2.282 . S
Mn73 O97 2.215 . S
Mn73 O99 2.117 . S
C74 O96 1.234 . S
C74 O97 1.283 . S
C75 O87 1.281 . S
C75 O88 1.236 . S
C76 O98 1.240 . S
C76 O99 1.264 . S
O77 Mn72 2.095 . S
O77 C86 1.250 . S
O78 Mn73 2.121 . S
O78 C86 1.258 . S
C79 N80 1.326 . S
C79 C83 1.460 1_554 S
C79 H85 0.929 1_554 S
N80 Mn73 2.257 . S
N80 C79 1.326 . S
N80 C84 1.362 . S
C81 C82 1.258 . S
C81 C84 1.431 . S
C81 C101 1.449 . S
C82 C81 1.258 . S
C82 C83 1.477 1_554 S
C82 H102 0.931 . S
C83 C79 1.460 1_556 S
C83 C82 1.477 1_556 S
C83 H103 0.930 . S
C84 N80 1.362 . S
C84 C81 1.431 . S
C84 C94 1.476 . S
H85 C79 0.929 1_556 S
C86 O77 1.250 . S
C86 O78 1.258 . S
O87 Mn72 2.162 . S
O87 C75 1.281 . S
O88 Mn72 2.297 . S
O88 C75 1.236 . S
N89 Mn73 2.282 . S
N89 C90 1.328 . S
N89 C94 1.318 . S
C90 N89 1.328 . S
C90 C91 1.457 . S
C90 H95 0.929 . S
C91 C90 1.457 . S
C91 C92 1.291 . S
C91 H104 0.931 . S
C92 C91 1.291 . S
C92 C93 1.373 . S
C92 H105 0.929 . S
C93 C92 1.373 . S
C93 C94 1.396 . S
C93 C100 1.403 . S
C94 C84 1.476 . S
C94 N89 1.318 . S
C94 C93 1.396 . S
H95 C90 0.929 . S
O96 Mn72 2.385 . S
O96 C74 1.234 . S
O97 Mn72 2.209 . S
O97 Mn73 2.215 . S
O97 C74 1.283 . S
O98 Mn72 2.094 . S
O98 C76 1.240 . S
O99 Mn73 2.117 . S
O99 C76 1.264 . S
C100 C93 1.403 . S
C100 C101 1.399 . S
C100 H106 0.929 . S
C101 C81 1.449 . S
C101 C100 1.399 . S
C101 H107 0.930 . S
H102 C82 0.931 . S
H103 C83 0.930 . S
H104 C91 0.931 . S
H105 C92 0.929 . S
H106 C100 0.929 . S
H107 C101 0.930 . S
Mn108 O113 2.095 . S
Mn108 O123 2.162 . S
Mn108 O124 2.297 . S
Mn108 O132 2.385 . S
Mn108 O133 2.209 . S
Mn108 O134 2.094 . S
Mn109 O114 2.121 . S
Mn109 N116 2.257 . S
Mn109 N125 2.282 . S
Mn109 O133 2.215 . S
Mn109 O135 2.117 . S
C110 O132 1.234 . S
C110 O133 1.283 . S
C111 O123 1.281 . S
C111 O124 1.236 . S
C112 O134 1.240 . S
C112 O135 1.264 . S
O113 Mn108 2.095 . S
O113 C122 1.250 . S
O114 Mn109 2.121 . S
O114 C122 1.258 . S
C115 N116 1.326 . S
C115 C119 1.460 1_554 S
C115 H121 0.929 1_554 S
N116 Mn109 2.257 . S
N116 C115 1.326 . S
N116 C120 1.362 . S
C117 C118 1.258 . S
C117 C120 1.431 . S
C117 C137 1.449 . S
C118 C117 1.258 . S
C118 C119 1.477 1_554 S
C118 H138 0.931 . S
C119 C115 1.460 1_556 S
C119 C118 1.477 1_556 S
C119 H139 0.930 . S
C120 N116 1.362 . S
C120 C117 1.431 . S
C120 C130 1.476 . S
H121 C115 0.929 1_556 S
C122 O113 1.250 . S
C122 O114 1.258 . S
O123 Mn108 2.162 . S
O123 C111 1.281 . S
O124 Mn108 2.297 . S
O124 C111 1.236 . S
N125 Mn109 2.282 . S
N125 C126 1.328 . S
N125 C130 1.318 . S
C126 N125 1.328 . S
C126 C127 1.457 . S
C126 H131 0.929 . S
C127 C126 1.457 . S
C127 C128 1.291 . S
C127 H140 0.931 . S
C128 C127 1.291 . S
C128 C129 1.373 . S
C128 H141 0.929 . S
C129 C128 1.373 . S
C129 C130 1.396 . S
C129 C136 1.403 . S
C130 C120 1.476 . S
C130 N125 1.318 . S
C130 C129 1.396 . S
H131 C126 0.929 . S
O132 Mn108 2.385 . S
O132 C110 1.234 . S
O133 Mn108 2.209 . S
O133 Mn109 2.215 . S
O133 C110 1.283 . S
O134 Mn108 2.094 . S
O134 C112 1.240 . S
O135 Mn109 2.117 . S
O135 C112 1.264 . S
C136 C129 1.403 . S
C136 C137 1.399 . S
C136 H142 0.929 . S
C137 C117 1.449 . S
C137 C136 1.399 . S
C137 H143 0.930 . S
H138 C118 0.931 . S
H139 C119 0.930 . S
H140 C127 0.931 . S
H141 C128 0.929 . S
H142 C136 0.929 . S
H143 C137 0.930 . S
Mn144 O149 2.095 . S
Mn144 O159 2.162 . S
Mn144 O160 2.297 . S
Mn144 O168 2.385 . S
Mn144 O169 2.209 . S
Mn144 O170 2.094 . S
Mn145 O150 2.121 . S
Mn145 N152 2.257 . S
Mn145 N161 2.282 . S
Mn145 O169 2.215 . S
Mn145 O171 2.117 . S
C146 O168 1.234 . S
C146 O169 1.283 . S
C147 O159 1.281 . S
C147 O160 1.236 . S
C148 O170 1.240 . S
C148 O171 1.264 . S
O149 Mn144 2.095 . S
O149 C158 1.250 . S
O150 Mn145 2.121 . S
O150 C158 1.258 . S
C151 N152 1.326 . S
C151 C155 1.460 1_554 S
C151 H157 0.929 1_554 S
N152 Mn145 2.257 . S
N152 C151 1.326 . S
N152 C156 1.362 . S
C153 C154 1.258 . S
C153 C156 1.431 . S
C153 C173 1.449 . S
C154 C153 1.258 . S
C154 C155 1.477 1_554 S
C154 H174 0.931 . S
C155 C151 1.460 1_556 S
C155 C154 1.477 1_556 S
C155 H175 0.930 . S
C156 N152 1.362 . S
C156 C153 1.431 . S
C156 C166 1.476 . S
H157 C151 0.929 1_556 S
C158 O149 1.250 . S
C158 O150 1.258 . S
O159 Mn144 2.162 . S
O159 C147 1.281 . S
O160 Mn144 2.297 . S
O160 C147 1.236 . S
N161 Mn145 2.282 . S
N161 C162 1.328 . S
N161 C166 1.318 . S
C162 N161 1.328 . S
C162 C163 1.457 . S
C162 H167 0.929 . S
C163 C162 1.457 . S
C163 C164 1.291 . S
C163 H176 0.931 . S
C164 C163 1.291 . S
C164 C165 1.373 . S
C164 H177 0.929 . S
C165 C164 1.373 . S
C165 C166 1.396 . S
C165 C172 1.403 . S
C166 C156 1.476 . S
C166 N161 1.318 . S
C166 C165 1.396 . S
H167 C162 0.929 . S
O168 Mn144 2.385 . S
O168 C146 1.234 . S
O169 Mn144 2.209 . S
O169 Mn145 2.215 . S
O169 C146 1.283 . S
O170 Mn144 2.094 . S
O170 C148 1.240 . S
O171 Mn145 2.117 . S
O171 C148 1.264 . S
C172 C165 1.403 . S
C172 C173 1.399 . S
C172 H178 0.929 . S
C173 C153 1.449 . S
C173 C172 1.399 . S
C173 H179 0.930 . S
H174 C154 0.931 . S
H175 C155 0.930 . S
H176 C163 0.931 . S
H177 C164 0.929 . S
H178 C172 0.929 . S
H179 C173 0.930 . S
Mn180 O185 2.095 . S
Mn180 O195 2.162 . S
Mn180 O196 2.297 . S
Mn180 O204 2.385 . S
Mn180 O205 2.209 . S
Mn180 O206 2.094 . S
Mn181 O186 2.121 . S
Mn181 N188 2.257 . S
Mn181 N197 2.282 . S
Mn181 O205 2.215 . S
Mn181 O207 2.117 . S
C182 O204 1.234 . S
C182 O205 1.283 . S
C183 O195 1.281 . S
C183 O196 1.236 . S
C184 O206 1.240 . S
C184 O207 1.264 . S
O185 Mn180 2.095 . S
O185 C194 1.250 . S
O186 Mn181 2.121 . S
O186 C194 1.258 . S
C187 N188 1.326 . S
C187 C191 1.460 1_554 S
C187 H193 0.929 1_554 S
N188 Mn181 2.257 . S
N188 C187 1.326 . S
N188 C192 1.362 . S
C189 C190 1.258 . S
C189 C192 1.431 . S
C189 C209 1.449 . S
C190 C189 1.258 . S
C190 C191 1.477 1_554 S
C190 H210 0.931 . S
C191 C187 1.460 1_556 S
C191 C190 1.477 1_556 S
C191 H211 0.930 . S
C192 N188 1.362 . S
C192 C189 1.431 . S
C192 C202 1.476 . S
H193 C187 0.929 1_556 S
C194 O185 1.250 . S
C194 O186 1.258 . S
O195 Mn180 2.162 . S
O195 C183 1.281 . S
O196 Mn180 2.297 . S
O196 C183 1.236 . S
N197 Mn181 2.282 . S
N197 C198 1.328 . S
N197 C202 1.318 . S
C198 N197 1.328 . S
C198 C199 1.457 . S
C198 H203 0.929 . S
C199 C198 1.457 . S
C199 C200 1.291 . S
C199 H212 0.931 . S
C200 C199 1.291 . S
C200 C201 1.373 . S
C200 H213 0.929 . S
C201 C200 1.373 . S
C201 C202 1.396 . S
C201 C208 1.403 . S
C202 C192 1.476 . S
C202 N197 1.318 . S
C202 C201 1.396 . S
H203 C198 0.929 . S
O204 Mn180 2.385 . S
O204 C182 1.234 . S
O205 Mn180 2.209 . S
O205 Mn181 2.215 . S
O205 C182 1.283 . S
O206 Mn180 2.094 . S
O206 C184 1.240 . S
O207 Mn181 2.117 . S
O207 C184 1.264 . S
C208 C201 1.403 . S
C208 C209 1.399 . S
C208 H214 0.929 . S
C209 C189 1.449 . S
C209 C208 1.399 . S
C209 H215 0.930 . S
H210 C190 0.931 . S
H211 C191 0.930 . S
H212 C199 0.931 . S
H213 C200 0.929 . S
H214 C208 0.929 . S
H215 C209 0.930 . S
Mn216 O221 2.095 . S
Mn216 O231 2.162 . S
Mn216 O232 2.297 . S
Mn216 O240 2.385 . S
Mn216 O241 2.209 . S
Mn216 O242 2.094 . S
Mn217 O222 2.121 . S
Mn217 N224 2.257 . S
Mn217 N233 2.282 . S
Mn217 O241 2.215 . S
Mn217 O243 2.117 . S
C218 O240 1.234 . S
C218 O241 1.283 . S
C219 O231 1.281 . S
C219 O232 1.236 . S
C220 O242 1.240 . S
C220 O243 1.264 . S
O221 Mn216 2.095 . S
O221 C230 1.250 . S
O222 Mn217 2.121 . S
O222 C230 1.258 . S
C223 N224 1.326 . S
C223 C227 1.460 . S
C223 H229 0.929 . S
N224 Mn217 2.257 . S
N224 C223 1.326 . S
N224 C228 1.362 . S
C225 C226 1.258 . S
C225 C228 1.431 . S
C225 C245 1.449 . S
C226 C225 1.258 . S
C226 C227 1.477 . S
C226 H246 0.931 . S
C227 C223 1.460 . S
C227 C226 1.477 . S
C227 H247 0.930 . S
C228 N224 1.362 . S
C228 C225 1.431 . S
C228 C238 1.476 . S
H229 C223 0.929 . S
C230 O221 1.250 . S
C230 O222 1.258 . S
O231 Mn216 2.162 . S
O231 C219 1.281 . S
O232 Mn216 2.297 . S
O232 C219 1.236 . S
N233 Mn217 2.282 . S
N233 C234 1.328 . S
N233 C238 1.318 . S
C234 N233 1.328 . S
C234 C235 1.457 . S
C234 H239 0.929 . S
C235 C234 1.457 . S
C235 C236 1.291 . S
C235 H248 0.931 . S
C236 C235 1.291 . S
C236 C237 1.373 . S
C236 H249 0.929 . S
C237 C236 1.373 . S
C237 C238 1.396 . S
C237 C244 1.403 . S
C238 C228 1.476 . S
C238 N233 1.318 . S
C238 C237 1.396 . S
H239 C234 0.929 . S
O240 Mn216 2.385 . S
O240 C218 1.234 . S
O241 Mn216 2.209 . S
O241 Mn217 2.215 . S
O241 C218 1.283 . S
O242 Mn216 2.094 . S
O242 C220 1.240 . S
O243 Mn217 2.117 . S
O243 C220 1.264 . S
C244 C237 1.403 . S
C244 C245 1.399 . S
C244 H250 0.929 . S
C245 C225 1.449 . S
C245 C244 1.399 . S
C245 H251 0.930 . S
H246 C226 0.931 . S
H247 C227 0.930 . S
H248 C235 0.931 . S
H249 C236 0.929 . S
H250 C244 0.929 . S
H251 C245 0.930 . S
Mn252 O257 2.095 . S
Mn252 O267 2.162 . S
Mn252 O268 2.297 . S
Mn252 O276 2.385 . S
Mn252 O277 2.209 . S
Mn252 O278 2.094 . S
Mn253 O258 2.121 . S
Mn253 N260 2.257 . S
Mn253 N269 2.282 . S
Mn253 O277 2.215 . S
Mn253 O279 2.117 . S
C254 O276 1.234 . S
C254 O277 1.283 . S
C255 O267 1.281 . S
C255 O268 1.236 . S
C256 O278 1.240 . S
C256 O279 1.264 . S
O257 Mn252 2.095 . S
O257 C266 1.250 . S
O258 Mn253 2.121 . S
O258 C266 1.258 . S
C259 N260 1.326 . S
C259 C263 1.460 . S
C259 H265 0.929 . S
N260 Mn253 2.257 . S
N260 C259 1.326 . S
N260 C264 1.362 . S
C261 C262 1.258 . S
C261 C264 1.431 . S
C261 C281 1.449 . S
C262 C261 1.258 . S
C262 C263 1.477 . S
C262 H282 0.931 . S
C263 C259 1.460 . S
C263 C262 1.477 . S
C263 H283 0.930 . S
C264 N260 1.362 . S
C264 C261 1.431 . S
C264 C274 1.476 . S
H265 C259 0.929 . S
C266 O257 1.250 . S
C266 O258 1.258 . S
O267 Mn252 2.162 . S
O267 C255 1.281 . S
O268 Mn252 2.297 . S
O268 C255 1.236 . S
N269 Mn253 2.282 . S
N269 C270 1.328 . S
N269 C274 1.318 . S
C270 N269 1.328 . S
C270 C271 1.457 . S
C270 H275 0.929 . S
C271 C270 1.457 . S
C271 C272 1.291 . S
C271 H284 0.931 . S
C272 C271 1.291 . S
C272 C273 1.373 . S
C272 H285 0.929 . S
C273 C272 1.373 . S
C273 C274 1.396 . S
C273 C280 1.403 . S
C274 C264 1.476 . S
C274 N269 1.318 . S
C274 C273 1.396 . S
H275 C270 0.929 . S
O276 Mn252 2.385 . S
O276 C254 1.234 . S
O277 Mn252 2.209 . S
O277 Mn253 2.215 . S
O277 C254 1.283 . S
O278 Mn252 2.094 . S
O278 C256 1.240 . S
O279 Mn253 2.117 . S
O279 C256 1.264 . S
C280 C273 1.403 . S
C280 C281 1.399 . S
C280 H286 0.929 . S
C281 C261 1.449 . S
C281 C280 1.399 . S
C281 H287 0.930 . S
H282 C262 0.931 . S
H283 C263 0.930 . S
H284 C271 0.931 . S
H285 C272 0.929 . S
H286 C280 0.929 . S
H287 C281 0.930 . S
Mn288 O293 2.095 . S
Mn288 O303 2.162 . S
Mn288 O304 2.297 . S
Mn288 O312 2.385 . S
Mn288 O313 2.209 . S
Mn288 O314 2.094 . S
Mn289 O294 2.121 . S
Mn289 N296 2.257 . S
Mn289 N305 2.282 . S
Mn289 O313 2.215 . S
Mn289 O315 2.117 . S
C290 O312 1.234 . S
C290 O313 1.283 . S
C291 O303 1.281 . S
C291 O304 1.236 . S
C292 O314 1.240 . S
C292 O315 1.264 . S
O293 Mn288 2.095 . S
O293 C302 1.250 . S
O294 Mn289 2.121 . S
O294 C302 1.258 . S
C295 N296 1.326 . S
C295 C299 1.460 . S
C295 H301 0.929 . S
N296 Mn289 2.257 . S
N296 C295 1.326 . S
N296 C300 1.362 . S
C297 C298 1.258 . S
C297 C300 1.431 . S
C297 C317 1.449 . S
C298 C297 1.258 . S
C298 C299 1.477 . S
C298 H318 0.931 . S
C299 C295 1.460 . S
C299 C298 1.477 . S
C299 H319 0.930 . S
C300 N296 1.362 . S
C300 C297 1.431 . S
C300 C310 1.476 . S
H301 C295 0.929 . S
C302 O293 1.250 . S
C302 O294 1.258 . S
O303 Mn288 2.162 . S
O303 C291 1.281 . S
O304 Mn288 2.297 . S
O304 C291 1.236 . S
N305 Mn289 2.282 . S
N305 C306 1.328 . S
N305 C310 1.318 . S
C306 N305 1.328 . S
C306 C307 1.457 . S
C306 H311 0.929 . S
C307 C306 1.457 . S
C307 C308 1.291 . S
C307 H320 0.931 . S
C308 C307 1.291 . S
C308 C309 1.373 . S
C308 H321 0.929 . S
C309 C308 1.373 . S
C309 C310 1.396 . S
C309 C316 1.403 . S
C310 C300 1.476 . S
C310 N305 1.318 . S
C310 C309 1.396 . S
H311 C306 0.929 . S
O312 Mn288 2.385 . S
O312 C290 1.234 . S
O313 Mn288 2.209 . S
O313 Mn289 2.215 . S
O313 C290 1.283 . S
O314 Mn288 2.094 . S
O314 C292 1.240 . S
O315 Mn289 2.117 . S
O315 C292 1.264 . S
C316 C309 1.403 . S
C316 C317 1.399 . S
C316 H322 0.929 . S
C317 C297 1.449 . S
C317 C316 1.399 . S
C317 H323 0.930 . S
H318 C298 0.931 . S
H319 C299 0.930 . S
H320 C307 0.931 . S
H321 C308 0.929 . S
H322 C316 0.929 . S
H323 C317 0.930 . S
Mn324 O329 2.095 . S
Mn324 O339 2.162 . S
Mn324 O340 2.297 . S
Mn324 O348 2.385 . S
Mn324 O349 2.209 . S
Mn324 O350 2.094 . S
Mn325 O330 2.121 . S
Mn325 N332 2.257 . S
Mn325 N341 2.282 . S
Mn325 O349 2.215 . S
Mn325 O351 2.117 . S
C326 O348 1.234 . S
C326 O349 1.283 . S
C327 O339 1.281 . S
C327 O340 1.236 . S
C328 O350 1.240 . S
C328 O351 1.264 . S
O329 Mn324 2.095 . S
O329 C338 1.250 . S
O330 Mn325 2.121 . S
O330 C338 1.258 . S
C331 N332 1.326 . S
C331 C335 1.460 . S
C331 H337 0.929 . S
N332 Mn325 2.257 . S
N332 C331 1.326 . S
N332 C336 1.362 . S
C333 C334 1.258 . S
C333 C336 1.431 . S
C333 C353 1.449 . S
C334 C333 1.258 . S
C334 C335 1.477 . S
C334 H354 0.931 . S
C335 C331 1.460 . S
C335 C334 1.477 . S
C335 H355 0.930 . S
C336 N332 1.362 . S
C336 C333 1.431 . S
C336 C346 1.476 . S
H337 C331 0.929 . S
C338 O329 1.250 . S
C338 O330 1.258 . S
O339 Mn324 2.162 . S
O339 C327 1.281 . S
O340 Mn324 2.297 . S
O340 C327 1.236 . S
N341 Mn325 2.282 . S
N341 C342 1.328 . S
N341 C346 1.318 . S
C342 N341 1.328 . S
C342 C343 1.457 . S
C342 H347 0.929 . S
C343 C342 1.457 . S
C343 C344 1.291 . S
C343 H356 0.931 . S
C344 C343 1.291 . S
C344 C345 1.373 . S
C344 H357 0.929 . S
C345 C344 1.373 . S
C345 C346 1.396 . S
C345 C352 1.403 . S
C346 C336 1.476 . S
C346 N341 1.318 . S
C346 C345 1.396 . S
H347 C342 0.929 . S
O348 Mn324 2.385 . S
O348 C326 1.234 . S
O349 Mn324 2.209 . S
O349 Mn325 2.215 . S
O349 C326 1.283 . S
O350 Mn324 2.094 . S
O350 C328 1.240 . S
O351 Mn325 2.117 . S
O351 C328 1.264 . S
C352 C345 1.403 . S
C352 C353 1.399 . S
C352 H358 0.929 . S
C353 C333 1.449 . S
C353 C352 1.399 . S
C353 H359 0.930 . S
H354 C334 0.931 . S
H355 C335 0.930 . S
H356 C343 0.931 . S
H357 C344 0.929 . S
H358 C352 0.929 . S
H359 C353 0.930 . S
Mn360 O365 2.095 . S
Mn360 O375 2.162 . S
Mn360 O376 2.297 . S
Mn360 O384 2.385 . S
Mn360 O385 2.209 . S
Mn360 O386 2.094 . S
Mn361 O366 2.121 . S
Mn361 N368 2.257 . S
Mn361 N377 2.282 . S
Mn361 O385 2.215 . S
Mn361 O387 2.117 . S
C362 O384 1.234 . S
C362 O385 1.283 . S
C363 O375 1.281 . S
C363 O376 1.236 . S
C364 O386 1.240 . S
C364 O387 1.264 . S
O365 Mn360 2.095 . S
O365 C374 1.250 . S
O366 Mn361 2.121 . S
O366 C374 1.258 . S
C367 N368 1.326 . S
C367 C371 1.460 . S
C367 H373 0.929 . S
N368 Mn361 2.257 . S
N368 C367 1.326 . S
N368 C372 1.362 . S
C369 C370 1.258 . S
C369 C372 1.431 . S
C369 C389 1.449 . S
C370 C369 1.258 . S
C370 C371 1.477 . S
C370 H390 0.931 . S
C371 C367 1.460 . S
C371 C370 1.477 . S
C371 H391 0.930 . S
C372 N368 1.362 . S
C372 C369 1.431 . S
C372 C382 1.476 . S
H373 C367 0.929 . S
C374 O365 1.250 . S
C374 O366 1.258 . S
O375 Mn360 2.162 . S
O375 C363 1.281 . S
O376 Mn360 2.297 . S
O376 C363 1.236 . S
N377 Mn361 2.282 . S
N377 C378 1.328 . S
N377 C382 1.318 . S
C378 N377 1.328 . S
C378 C379 1.457 . S
C378 H383 0.929 . S
C379 C378 1.457 . S
C379 C380 1.291 . S
C379 H392 0.931 . S
C380 C379 1.291 . S
C380 C381 1.373 . S
C380 H393 0.929 . S
C381 C380 1.373 . S
C381 C382 1.396 . S
C381 C388 1.403 . S
C382 C372 1.476 . S
C382 N377 1.318 . S
C382 C381 1.396 . S
H383 C378 0.929 . S
O384 Mn360 2.385 . S
O384 C362 1.234 . S
O385 Mn360 2.209 . S
O385 Mn361 2.215 . S
O385 C362 1.283 . S
O386 Mn360 2.094 . S
O386 C364 1.240 . S
O387 Mn361 2.117 . S
O387 C364 1.264 . S
C388 C381 1.403 . S
C388 C389 1.399 . S
C388 H394 0.929 . S
C389 C369 1.449 . S
C389 C388 1.399 . S
C389 H395 0.930 . S
H390 C370 0.931 . S
H391 C371 0.930 . S
H392 C379 0.931 . S
H393 C380 0.929 . S
H394 C388 0.929 . S
H395 C389 0.930 . S
Mn396 O401 2.095 . S
Mn396 O411 2.162 . S
Mn396 O412 2.297 . S
Mn396 O420 2.385 . S
Mn396 O421 2.209 . S
Mn396 O422 2.094 . S
Mn397 O402 2.121 . S
Mn397 N404 2.257 . S
Mn397 N413 2.282 . S
Mn397 O421 2.215 . S
Mn397 O423 2.117 . S
C398 O420 1.234 . S
C398 O421 1.283 . S
C399 O411 1.281 . S
C399 O412 1.236 . S
C400 O422 1.240 . S
C400 O423 1.264 . S
O401 Mn396 2.095 . S
O401 C410 1.250 . S
O402 Mn397 2.121 . S
O402 C410 1.258 . S
C403 N404 1.326 . S
C403 C407 1.460 . S
C403 H409 0.929 . S
N404 Mn397 2.257 . S
N404 C403 1.326 . S
N404 C408 1.362 . S
C405 C406 1.258 . S
C405 C408 1.431 . S
C405 C425 1.449 . S
C406 C405 1.258 . S
C406 C407 1.477 . S
C406 H426 0.931 . S
C407 C403 1.460 . S
C407 C406 1.477 . S
C407 H427 0.930 . S
C408 N404 1.362 . S
C408 C405 1.431 . S
C408 C418 1.476 . S
H409 C403 0.929 . S
C410 O401 1.250 . S
C410 O402 1.258 . S
O411 Mn396 2.162 . S
O411 C399 1.281 . S
O412 Mn396 2.297 . S
O412 C399 1.236 . S
N413 Mn397 2.282 . S
N413 C414 1.328 . S
N413 C418 1.318 . S
C414 N413 1.328 . S
C414 C415 1.457 . S
C414 H419 0.929 . S
C415 C414 1.457 . S
C415 C416 1.291 . S
C415 H428 0.931 . S
C416 C415 1.291 . S
C416 C417 1.373 . S
C416 H429 0.929 . S
C417 C416 1.373 . S
C417 C418 1.396 . S
C417 C424 1.403 . S
C418 C408 1.476 . S
C418 N413 1.318 . S
C418 C417 1.396 . S
H419 C414 0.929 . S
O420 Mn396 2.385 . S
O420 C398 1.234 . S
O421 Mn396 2.209 . S
O421 Mn397 2.215 . S
O421 C398 1.283 . S
O422 Mn396 2.094 . S
O422 C400 1.240 . S
O423 Mn397 2.117 . S
O423 C400 1.264 . S
C424 C417 1.403 . S
C424 C425 1.399 . S
C424 H430 0.929 . S
C425 C405 1.449 . S
C425 C424 1.399 . S
C425 H431 0.930 . S
H426 C406 0.931 . S
H427 C407 0.930 . S
H428 C415 0.931 . S
H429 C416 0.929 . S
H430 C424 0.929 . S
H431 C425 0.930 . S
Mn432 O437 2.095 . S
Mn432 O447 2.162 . S
Mn432 O448 2.297 . S
Mn432 O456 2.385 . S
Mn432 O457 2.209 . S
Mn432 O458 2.094 . S
Mn433 O438 2.121 . S
Mn433 N440 2.257 . S
Mn433 N449 2.282 . S
Mn433 O457 2.215 . S
Mn433 O459 2.117 . S
C434 O456 1.234 . S
C434 O457 1.283 . S
C435 O447 1.281 . S
C435 O448 1.236 . S
C436 O458 1.240 . S
C436 O459 1.264 . S
O437 Mn432 2.095 . S
O437 C446 1.250 . S
O438 Mn433 2.121 . S
O438 C446 1.258 . S
C439 N440 1.326 . S
C439 C443 1.460 1_556 S
C439 H445 0.929 1_556 S
N440 Mn433 2.257 . S
N440 C439 1.326 . S
N440 C444 1.362 . S
C441 C442 1.258 . S
C441 C444 1.431 . S
C441 C461 1.449 . S
C442 C441 1.258 . S
C442 C443 1.477 1_556 S
C442 H462 0.931 . S
C443 C439 1.460 1_554 S
C443 C442 1.477 1_554 S
C443 H463 0.930 . S
C444 N440 1.362 . S
C444 C441 1.431 . S
C444 C454 1.476 . S
H445 C439 0.929 1_554 S
C446 O437 1.250 . S
C446 O438 1.258 . S
O447 Mn432 2.162 . S
O447 C435 1.281 . S
O448 Mn432 2.297 . S
O448 C435 1.236 . S
N449 Mn433 2.282 . S
N449 C450 1.328 . S
N449 C454 1.318 . S
C450 N449 1.328 . S
C450 C451 1.457 . S
C450 H455 0.929 . S
C451 C450 1.457 . S
C451 C452 1.291 . S
C451 H464 0.931 . S
C452 C451 1.291 . S
C452 C453 1.373 . S
C452 H465 0.929 . S
C453 C452 1.373 . S
C453 C454 1.396 . S
C453 C460 1.403 . S
C454 C444 1.476 . S
C454 N449 1.318 . S
C454 C453 1.396 . S
H455 C450 0.929 . S
O456 Mn432 2.385 . S
O456 C434 1.234 . S
O457 Mn432 2.209 . S
O457 Mn433 2.215 . S
O457 C434 1.283 . S
O458 Mn432 2.094 . S
O458 C436 1.240 . S
O459 Mn433 2.117 . S
O459 C436 1.264 . S
C460 C453 1.403 . S
C460 C461 1.399 . S
C460 H466 0.929 . S
C461 C441 1.449 . S
C461 C460 1.399 . S
C461 H467 0.930 . S
H462 C442 0.931 . S
H463 C443 0.930 . S
H464 C451 0.931 . S
H465 C452 0.929 . S
H466 C460 0.929 . S
H467 C461 0.930 . S
Mn468 O473 2.095 . S
Mn468 O483 2.162 . S
Mn468 O484 2.297 . S
Mn468 O492 2.385 . S
Mn468 O493 2.209 . S
Mn468 O494 2.094 . S
Mn469 O474 2.121 . S
Mn469 N476 2.257 . S
Mn469 N485 2.282 . S
Mn469 O493 2.215 . S
Mn469 O495 2.117 . S
C470 O492 1.234 . S
C470 O493 1.283 . S
C471 O483 1.281 . S
C471 O484 1.236 . S
C472 O494 1.240 . S
C472 O495 1.264 . S
O473 Mn468 2.095 . S
O473 C482 1.250 . S
O474 Mn469 2.121 . S
O474 C482 1.258 . S
C475 N476 1.326 . S
C475 C479 1.460 1_556 S
C475 H481 0.929 1_556 S
N476 Mn469 2.257 . S
N476 C475 1.326 . S
N476 C480 1.362 . S
C477 C478 1.258 . S
C477 C480 1.431 . S
C477 C497 1.449 . S
C478 C477 1.258 . S
C478 C479 1.477 1_556 S
C478 H498 0.931 . S
C479 C475 1.460 1_554 S
C479 C478 1.477 1_554 S
C479 H499 0.930 . S
C480 N476 1.362 . S
C480 C477 1.431 . S
C480 C490 1.476 . S
H481 C475 0.929 1_554 S
C482 O473 1.250 . S
C482 O474 1.258 . S
O483 Mn468 2.162 . S
O483 C471 1.281 . S
O484 Mn468 2.297 . S
O484 C471 1.236 . S
N485 Mn469 2.282 . S
N485 C486 1.328 . S
N485 C490 1.318 . S
C486 N485 1.328 . S
C486 C487 1.457 . S
C486 H491 0.929 . S
C487 C486 1.457 . S
C487 C488 1.291 . S
C487 H500 0.931 . S
C488 C487 1.291 . S
C488 C489 1.373 . S
C488 H501 0.929 . S
C489 C488 1.373 . S
C489 C490 1.396 . S
C489 C496 1.403 . S
C490 C480 1.476 . S
C490 N485 1.318 . S
C490 C489 1.396 . S
H491 C486 0.929 . S
O492 Mn468 2.385 . S
O492 C470 1.234 . S
O493 Mn468 2.209 . S
O493 Mn469 2.215 . S
O493 C470 1.283 . S
O494 Mn468 2.094 . S
O494 C472 1.240 . S
O495 Mn469 2.117 . S
O495 C472 1.264 . S
C496 C489 1.403 . S
C496 C497 1.399 . S
C496 H502 0.929 . S
C497 C477 1.449 . S
C497 C496 1.399 . S
C497 H503 0.930 . S
H498 C478 0.931 . S
H499 C479 0.930 . S
H500 C487 0.931 . S
H501 C488 0.929 . S
H502 C496 0.929 . S
H503 C497 0.930 . S
Mn504 O509 2.095 . S
Mn504 O519 2.162 . S
Mn504 O520 2.297 . S
Mn504 O528 2.385 . S
Mn504 O529 2.209 . S
Mn504 O530 2.094 . S
Mn505 O510 2.121 . S
Mn505 N512 2.257 . S
Mn505 N521 2.282 . S
Mn505 O529 2.215 . S
Mn505 O531 2.117 . S
C506 O528 1.234 . S
C506 O529 1.283 . S
C507 O519 1.281 . S
C507 O520 1.236 . S
C508 O530 1.240 . S
C508 O531 1.264 . S
O509 Mn504 2.095 . S
O509 C518 1.250 . S
O510 Mn505 2.121 . S
O510 C518 1.258 . S
C511 N512 1.326 . S
C511 C515 1.460 1_556 S
C511 H517 0.929 1_556 S
N512 Mn505 2.257 . S
N512 C511 1.326 . S
N512 C516 1.362 . S
C513 C514 1.258 . S
C513 C516 1.431 . S
C513 C533 1.449 . S
C514 C513 1.258 . S
C514 C515 1.477 1_556 S
C514 H534 0.931 . S
C515 C511 1.460 1_554 S
C515 C514 1.477 1_554 S
C515 H535 0.930 . S
C516 N512 1.362 . S
C516 C513 1.431 . S
C516 C526 1.476 . S
H517 C511 0.929 1_554 S
C518 O509 1.250 . S
C518 O510 1.258 . S
O519 Mn504 2.162 . S
O519 C507 1.281 . S
O520 Mn504 2.297 . S
O520 C507 1.236 . S
N521 Mn505 2.282 . S
N521 C522 1.328 . S
N521 C526 1.318 . S
C522 N521 1.328 . S
C522 C523 1.457 . S
C522 H527 0.929 . S
C523 C522 1.457 . S
C523 C524 1.291 . S
C523 H536 0.931 . S
C524 C523 1.291 . S
C524 C525 1.373 . S
C524 H537 0.929 . S
C525 C524 1.373 . S
C525 C526 1.396 . S
C525 C532 1.403 . S
C526 C516 1.476 . S
C526 N521 1.318 . S
C526 C525 1.396 . S
H527 C522 0.929 . S
O528 Mn504 2.385 . S
O528 C506 1.234 . S
O529 Mn504 2.209 . S
O529 Mn505 2.215 . S
O529 C506 1.283 . S
O530 Mn504 2.094 . S
O530 C508 1.240 . S
O531 Mn505 2.117 . S
O531 C508 1.264 . S
C532 C525 1.403 . S
C532 C533 1.399 . S
C532 H538 0.929 . S
C533 C513 1.449 . S
C533 C532 1.399 . S
C533 H539 0.930 . S
H534 C514 0.931 . S
H535 C515 0.930 . S
H536 C523 0.931 . S
H537 C524 0.929 . S
H538 C532 0.929 . S
H539 C533 0.930 . S
Mn540 O545 2.095 . S
Mn540 O555 2.162 . S
Mn540 O556 2.297 . S
Mn540 O564 2.385 . S
Mn540 O565 2.209 . S
Mn540 O566 2.094 . S
Mn541 O546 2.121 . S
Mn541 N548 2.257 . S
Mn541 N557 2.282 . S
Mn541 O565 2.215 . S
Mn541 O567 2.117 . S
C542 O564 1.234 . S
C542 O565 1.283 . S
C543 O555 1.281 . S
C543 O556 1.236 . S
C544 O566 1.240 . S
C544 O567 1.264 . S
O545 Mn540 2.095 . S
O545 C554 1.250 . S
O546 Mn541 2.121 . S
O546 C554 1.258 . S
C547 N548 1.326 . S
C547 C551 1.460 1_556 S
C547 H553 0.929 1_556 S
N548 Mn541 2.257 . S
N548 C547 1.326 . S
N548 C552 1.362 . S
C549 C550 1.258 . S
C549 C552 1.431 . S
C549 C569 1.449 . S
C550 C549 1.258 . S
C550 C551 1.477 1_556 S
C550 H570 0.931 . S
C551 C547 1.460 1_554 S
C551 C550 1.477 1_554 S
C551 H571 0.930 . S
C552 N548 1.362 . S
C552 C549 1.431 . S
C552 C562 1.476 . S
H553 C547 0.929 1_554 S
C554 O545 1.250 . S
C554 O546 1.258 . S
O555 Mn540 2.162 . S
O555 C543 1.281 . S
O556 Mn540 2.297 . S
O556 C543 1.236 . S
N557 Mn541 2.282 . S
N557 C558 1.328 . S
N557 C562 1.318 . S
C558 N557 1.328 . S
C558 C559 1.457 . S
C558 H563 0.929 . S
C559 C558 1.457 . S
C559 C560 1.291 . S
C559 H572 0.931 . S
C560 C559 1.291 . S
C560 C561 1.373 . S
C560 H573 0.929 . S
C561 C560 1.373 . S
C561 C562 1.396 . S
C561 C568 1.403 . S
C562 C552 1.476 . S
C562 N557 1.318 . S
C562 C561 1.396 . S
H563 C558 0.929 . S
O564 Mn540 2.385 . S
O564 C542 1.234 . S
O565 Mn540 2.209 . S
O565 Mn541 2.215 . S
O565 C542 1.283 . S
O566 Mn540 2.094 . S
O566 C544 1.240 . S
O567 Mn541 2.117 . S
O567 C544 1.264 . S
C568 C561 1.403 . S
C568 C569 1.399 . S
C568 H574 0.929 . S
C569 C549 1.449 . S
C569 C568 1.399 . S
C569 H575 0.930 . S
H570 C550 0.931 . S
H571 C551 0.930 . S
H572 C559 0.931 . S
H573 C560 0.929 . S
H574 C568 0.929 . S
H575 C569 0.930 . S
Mn576 O581 2.095 . S
Mn576 O591 2.162 . S
Mn576 O592 2.297 . S
Mn576 O600 2.385 . S
Mn576 O601 2.209 . S
Mn576 O602 2.094 . S
Mn577 O582 2.121 . S
Mn577 N584 2.257 . S
Mn577 N593 2.282 . S
Mn577 O601 2.215 . S
Mn577 O603 2.117 . S
C578 O600 1.234 . S
C578 O601 1.283 . S
C579 O591 1.281 . S
C579 O592 1.236 . S
C580 O602 1.240 . S
C580 O603 1.264 . S
O581 Mn576 2.095 . S
O581 C590 1.250 . S
O582 Mn577 2.121 . S
O582 C590 1.258 . S
C583 N584 1.326 . S
C583 C587 1.460 1_556 S
C583 H589 0.929 1_556 S
N584 Mn577 2.257 . S
N584 C583 1.326 . S
N584 C588 1.362 . S
C585 C586 1.258 . S
C585 C588 1.431 . S
C585 C605 1.449 . S
C586 C585 1.258 . S
C586 C587 1.477 1_556 S
C586 H606 0.931 . S
C587 C583 1.460 1_554 S
C587 C586 1.477 1_554 S
C587 H607 0.930 . S
C588 N584 1.362 . S
C588 C585 1.431 . S
C588 C598 1.476 . S
H589 C583 0.929 1_554 S
C590 O581 1.250 . S
C590 O582 1.258 . S
O591 Mn576 2.162 . S
O591 C579 1.281 . S
O592 Mn576 2.297 . S
O592 C579 1.236 . S
N593 Mn577 2.282 . S
N593 C594 1.328 . S
N593 C598 1.318 . S
C594 N593 1.328 . S
C594 C595 1.457 . S
C594 H599 0.929 . S
C595 C594 1.457 . S
C595 C596 1.291 . S
C595 H608 0.931 . S
C596 C595 1.291 . S
C596 C597 1.373 . S
C596 H609 0.929 . S
C597 C596 1.373 . S
C597 C598 1.396 . S
C597 C604 1.403 . S
C598 C588 1.476 . S
C598 N593 1.318 . S
C598 C597 1.396 . S
H599 C594 0.929 . S
O600 Mn576 2.385 . S
O600 C578 1.234 . S
O601 Mn576 2.209 . S
O601 Mn577 2.215 . S
O601 C578 1.283 . S
O602 Mn576 2.094 . S
O602 C580 1.240 . S
O603 Mn577 2.117 . S
O603 C580 1.264 . S
C604 C597 1.403 . S
C604 C605 1.399 . S
C604 H610 0.929 . S
C605 C585 1.449 . S
C605 C604 1.399 . S
C605 H611 0.930 . S
H606 C586 0.931 . S
H607 C587 0.930 . S
H608 C595 0.931 . S
H609 C596 0.929 . S
H610 C604 0.929 . S
H611 C605 0.930 . S
Mn612 O617 2.095 . S
Mn612 O627 2.162 . S
Mn612 O628 2.297 . S
Mn612 O636 2.385 . S
Mn612 O637 2.209 . S
Mn612 O638 2.094 . S
Mn613 O618 2.121 . S
Mn613 N620 2.257 . S
Mn613 N629 2.282 . S
Mn613 O637 2.215 . S
Mn613 O639 2.117 . S
C614 O636 1.234 . S
C614 O637 1.283 . S
C615 O627 1.281 . S
C615 O628 1.236 . S
C616 O638 1.240 . S
C616 O639 1.264 . S
O617 Mn612 2.095 . S
O617 C626 1.250 . S
O618 Mn613 2.121 . S
O618 C626 1.258 . S
C619 N620 1.326 . S
C619 C623 1.460 1_556 S
C619 H625 0.929 1_556 S
N620 Mn613 2.257 . S
N620 C619 1.326 . S
N620 C624 1.362 . S
C621 C622 1.258 . S
C621 C624 1.431 . S
C621 C641 1.449 . S
C622 C621 1.258 . S
C622 C623 1.477 1_556 S
C622 H642 0.931 . S
C623 C619 1.460 1_554 S
C623 C622 1.477 1_554 S
C623 H643 0.930 . S
C624 N620 1.362 . S
C624 C621 1.431 . S
C624 C634 1.476 . S
H625 C619 0.929 1_554 S
C626 O617 1.250 . S
C626 O618 1.258 . S
O627 Mn612 2.162 . S
O627 C615 1.281 . S
O628 Mn612 2.297 . S
O628 C615 1.236 . S
N629 Mn613 2.282 . S
N629 C630 1.328 . S
N629 C634 1.318 . S
C630 N629 1.328 . S
C630 C631 1.457 . S
C630 H635 0.929 . S
C631 C630 1.457 . S
C631 C632 1.291 . S
C631 H644 0.931 . S
C632 C631 1.291 . S
C632 C633 1.373 . S
C632 H645 0.929 . S
C633 C632 1.373 . S
C633 C634 1.396 . S
C633 C640 1.403 . S
C634 C624 1.476 . S
C634 N629 1.318 . S
C634 C633 1.396 . S
H635 C630 0.929 . S
O636 Mn612 2.385 . S
O636 C614 1.234 . S
O637 Mn612 2.209 . S
O637 Mn613 2.215 . S
O637 C614 1.283 . S
O638 Mn612 2.094 . S
O638 C616 1.240 . S
O639 Mn613 2.117 . S
O639 C616 1.264 . S
C640 C633 1.403 . S
C640 C641 1.399 . S
C640 H646 0.929 . S
C641 C621 1.449 . S
C641 C640 1.399 . S
C641 H647 0.930 . S
H642 C622 0.931 . S
H643 C623 0.930 . S
H644 C631 0.931 . S
H645 C632 0.929 . S
H646 C640 0.929 . S
H647 C641 0.930 . S
Mn648 O653 2.095 . S
Mn648 O663 2.162 . S
Mn648 O664 2.297 . S
Mn648 O672 2.385 . S
Mn648 O673 2.209 . S
Mn648 O674 2.094 . S
Mn649 O654 2.121 . S
Mn649 N656 2.257 . S
Mn649 N665 2.282 . S
Mn649 O673 2.215 . S
Mn649 O675 2.117 . S
C650 O672 1.234 . S
C650 O673 1.283 . S
C651 O663 1.281 . S
C651 O664 1.236 . S
C652 O674 1.240 . S
C652 O675 1.264 . S
O653 Mn648 2.095 . S
O653 C662 1.250 . S
O654 Mn649 2.121 . S
O654 C662 1.258 . S
C655 N656 1.326 . S
C655 C659 1.460 . S
C655 H661 0.929 . S
N656 Mn649 2.257 . S
N656 C655 1.326 . S
N656 C660 1.362 . S
C657 C658 1.258 . S
C657 C660 1.431 . S
C657 C677 1.449 . S
C658 C657 1.258 . S
C658 C659 1.477 . S
C658 H678 0.931 . S
C659 C655 1.460 . S
C659 C658 1.477 . S
C659 H679 0.930 . S
C660 N656 1.362 . S
C660 C657 1.431 . S
C660 C670 1.476 . S
H661 C655 0.929 . S
C662 O653 1.250 . S
C662 O654 1.258 . S
O663 Mn648 2.162 . S
O663 C651 1.281 . S
O664 Mn648 2.297 . S
O664 C651 1.236 . S
N665 Mn649 2.282 . S
N665 C666 1.328 . S
N665 C670 1.318 . S
C666 N665 1.328 . S
C666 C667 1.457 . S
C666 H671 0.929 . S
C667 C666 1.457 . S
C667 C668 1.291 . S
C667 H680 0.931 . S
C668 C667 1.291 . S
C668 C669 1.373 . S
C668 H681 0.929 . S
C669 C668 1.373 . S
C669 C670 1.396 . S
C669 C676 1.403 . S
C670 C660 1.476 . S
C670 N665 1.318 . S
C670 C669 1.396 . S
H671 C666 0.929 . S
O672 Mn648 2.385 . S
O672 C650 1.234 . S
O673 Mn648 2.209 . S
O673 Mn649 2.215 . S
O673 C650 1.283 . S
O674 Mn648 2.094 . S
O674 C652 1.240 . S
O675 Mn649 2.117 . S
O675 C652 1.264 . S
C676 C669 1.403 . S
C676 C677 1.399 . S
C676 H682 0.929 . S
C677 C657 1.449 . S
C677 C676 1.399 . S
C677 H683 0.930 . S
H678 C658 0.931 . S
H679 C659 0.930 . S
H680 C667 0.931 . S
H681 C668 0.929 . S
H682 C676 0.929 . S
H683 C677 0.930 . S
Mn684 O689 2.095 . S
Mn684 O699 2.162 . S
Mn684 O700 2.297 . S
Mn684 O708 2.385 . S
Mn684 O709 2.209 . S
Mn684 O710 2.094 . S
Mn685 O690 2.121 . S
Mn685 N692 2.257 . S
Mn685 N701 2.282 . S
Mn685 O709 2.215 . S
Mn685 O711 2.117 . S
C686 O708 1.234 . S
C686 O709 1.283 . S
C687 O699 1.281 . S
C687 O700 1.236 . S
C688 O710 1.240 . S
C688 O711 1.264 . S
O689 Mn684 2.095 . S
O689 C698 1.250 . S
O690 Mn685 2.121 . S
O690 C698 1.258 . S
C691 N692 1.326 . S
C691 C695 1.460 . S
C691 H697 0.929 . S
N692 Mn685 2.257 . S
N692 C691 1.326 . S
N692 C696 1.362 . S
C693 C694 1.258 . S
C693 C696 1.431 . S
C693 C713 1.449 . S
C694 C693 1.258 . S
C694 C695 1.477 . S
C694 H714 0.931 . S
C695 C691 1.460 . S
C695 C694 1.477 . S
C695 H715 0.930 . S
C696 N692 1.362 . S
C696 C693 1.431 . S
C696 C706 1.476 . S
H697 C691 0.929 . S
C698 O689 1.250 . S
C698 O690 1.258 . S
O699 Mn684 2.162 . S
O699 C687 1.281 . S
O700 Mn684 2.297 . S
O700 C687 1.236 . S
N701 Mn685 2.282 . S
N701 C702 1.328 . S
N701 C706 1.318 . S
C702 N701 1.328 . S
C702 C703 1.457 . S
C702 H707 0.929 . S
C703 C702 1.457 . S
C703 C704 1.291 . S
C703 H716 0.931 . S
C704 C703 1.291 . S
C704 C705 1.373 . S
C704 H717 0.929 . S
C705 C704 1.373 . S
C705 C706 1.396 . S
C705 C712 1.403 . S
C706 C696 1.476 . S
C706 N701 1.318 . S
C706 C705 1.396 . S
H707 C702 0.929 . S
O708 Mn684 2.385 . S
O708 C686 1.234 . S
O709 Mn684 2.209 . S
O709 Mn685 2.215 . S
O709 C686 1.283 . S
O710 Mn684 2.094 . S
O710 C688 1.240 . S
O711 Mn685 2.117 . S
O711 C688 1.264 . S
C712 C705 1.403 . S
C712 C713 1.399 . S
C712 H718 0.929 . S
C713 C693 1.449 . S
C713 C712 1.399 . S
C713 H719 0.930 . S
H714 C694 0.931 . S
H715 C695 0.930 . S
H716 C703 0.931 . S
H717 C704 0.929 . S
H718 C712 0.929 . S
H719 C713 0.930 . S
Mn720 O725 2.095 . S
Mn720 O735 2.162 . S
Mn720 O736 2.297 . S
Mn720 O744 2.385 . S
Mn720 O745 2.209 . S
Mn720 O746 2.094 . S
Mn721 O726 2.121 . S
Mn721 N728 2.257 . S
Mn721 N737 2.282 . S
Mn721 O745 2.215 . S
Mn721 O747 2.117 . S
C722 O744 1.234 . S
C722 O745 1.283 . S
C723 O735 1.281 . S
C723 O736 1.236 . S
C724 O746 1.240 . S
C724 O747 1.264 . S
O725 Mn720 2.095 . S
O725 C734 1.250 . S
O726 Mn721 2.121 . S
O726 C734 1.258 . S
C727 N728 1.326 . S
C727 C731 1.460 . S
C727 H733 0.929 . S
N728 Mn721 2.257 . S
N728 C727 1.326 . S
N728 C732 1.362 . S
C729 C730 1.258 . S
C729 C732 1.431 . S
C729 C749 1.449 . S
C730 C729 1.258 . S
C730 C731 1.477 . S
C730 H750 0.931 . S
C731 C727 1.460 . S
C731 C730 1.477 . S
C731 H751 0.930 . S
C732 N728 1.362 . S
C732 C729 1.431 . S
C732 C742 1.476 . S
H733 C727 0.929 . S
C734 O725 1.250 . S
C734 O726 1.258 . S
O735 Mn720 2.162 . S
O735 C723 1.281 . S
O736 Mn720 2.297 . S
O736 C723 1.236 . S
N737 Mn721 2.282 . S
N737 C738 1.328 . S
N737 C742 1.318 . S
C738 N737 1.328 . S
C738 C739 1.457 . S
C738 H743 0.929 . S
C739 C738 1.457 . S
C739 C740 1.291 . S
C739 H752 0.931 . S
C740 C739 1.291 . S
C740 C741 1.373 . S
C740 H753 0.929 . S
C741 C740 1.373 . S
C741 C742 1.396 . S
C741 C748 1.403 . S
C742 C732 1.476 . S
C742 N737 1.318 . S
C742 C741 1.396 . S
H743 C738 0.929 . S
O744 Mn720 2.385 . S
O744 C722 1.234 . S
O745 Mn720 2.209 . S
O745 Mn721 2.215 . S
O745 C722 1.283 . S
O746 Mn720 2.094 . S
O746 C724 1.240 . S
O747 Mn721 2.117 . S
O747 C724 1.264 . S
C748 C741 1.403 . S
C748 C749 1.399 . S
C748 H754 0.929 . S
C749 C729 1.449 . S
C749 C748 1.399 . S
C749 H755 0.930 . S
H750 C730 0.931 . S
H751 C731 0.930 . S
H752 C739 0.931 . S
H753 C740 0.929 . S
H754 C748 0.929 . S
H755 C749 0.930 . S
Mn756 O761 2.095 . S
Mn756 O771 2.162 . S
Mn756 O772 2.297 . S
Mn756 O780 2.385 . S
Mn756 O781 2.209 . S
Mn756 O782 2.094 . S
Mn757 O762 2.121 . S
Mn757 N764 2.257 . S
Mn757 N773 2.282 . S
Mn757 O781 2.215 . S
Mn757 O783 2.117 . S
C758 O780 1.234 . S
C758 O781 1.283 . S
C759 O771 1.281 . S
C759 O772 1.236 . S
C760 O782 1.240 . S
C760 O783 1.264 . S
O761 Mn756 2.095 . S
O761 C770 1.250 . S
O762 Mn757 2.121 . S
O762 C770 1.258 . S
C763 N764 1.326 . S
C763 C767 1.460 . S
C763 H769 0.929 . S
N764 Mn757 2.257 . S
N764 C763 1.326 . S
N764 C768 1.362 . S
C765 C766 1.258 . S
C765 C768 1.431 . S
C765 C785 1.449 . S
C766 C765 1.258 . S
C766 C767 1.477 . S
C766 H786 0.931 . S
C767 C763 1.460 . S
C767 C766 1.477 . S
C767 H787 0.930 . S
C768 N764 1.362 . S
C768 C765 1.431 . S
C768 C778 1.476 . S
H769 C763 0.929 . S
C770 O761 1.250 . S
C770 O762 1.258 . S
O771 Mn756 2.162 . S
O771 C759 1.281 . S
O772 Mn756 2.297 . S
O772 C759 1.236 . S
N773 Mn757 2.282 . S
N773 C774 1.328 . S
N773 C778 1.318 . S
C774 N773 1.328 . S
C774 C775 1.457 . S
C774 H779 0.929 . S
C775 C774 1.457 . S
C775 C776 1.291 . S
C775 H788 0.931 . S
C776 C775 1.291 . S
C776 C777 1.373 . S
C776 H789 0.929 . S
C777 C776 1.373 . S
C777 C778 1.396 . S
C777 C784 1.403 . S
C778 C768 1.476 . S
C778 N773 1.318 . S
C778 C777 1.396 . S
H779 C774 0.929 . S
O780 Mn756 2.385 . S
O780 C758 1.234 . S
O781 Mn756 2.209 . S
O781 Mn757 2.215 . S
O781 C758 1.283 . S
O782 Mn756 2.094 . S
O782 C760 1.240 . S
O783 Mn757 2.117 . S
O783 C760 1.264 . S
C784 C777 1.403 . S
C784 C785 1.399 . S
C784 H790 0.929 . S
C785 C765 1.449 . S
C785 C784 1.399 . S
C785 H791 0.930 . S
H786 C766 0.931 . S
H787 C767 0.930 . S
H788 C775 0.931 . S
H789 C776 0.929 . S
H790 C784 0.929 . S
H791 C785 0.930 . S
Mn792 O797 2.095 . S
Mn792 O807 2.162 . S
Mn792 O808 2.297 . S
Mn792 O816 2.385 . S
Mn792 O817 2.209 . S
Mn792 O818 2.094 . S
Mn793 O798 2.121 . S
Mn793 N800 2.257 . S
Mn793 N809 2.282 . S
Mn793 O817 2.215 . S
Mn793 O819 2.117 . S
C794 O816 1.234 . S
C794 O817 1.283 . S
C795 O807 1.281 . S
C795 O808 1.236 . S
C796 O818 1.240 . S
C796 O819 1.264 . S
O797 Mn792 2.095 . S
O797 C806 1.250 . S
O798 Mn793 2.121 . S
O798 C806 1.258 . S
C799 N800 1.326 . S
C799 C803 1.460 . S
C799 H805 0.929 . S
N800 Mn793 2.257 . S
N800 C799 1.326 . S
N800 C804 1.362 . S
C801 C802 1.258 . S
C801 C804 1.431 . S
C801 C821 1.449 . S
C802 C801 1.258 . S
C802 C803 1.477 . S
C802 H822 0.931 . S
C803 C799 1.460 . S
C803 C802 1.477 . S
C803 H823 0.930 . S
C804 N800 1.362 . S
C804 C801 1.431 . S
C804 C814 1.476 . S
H805 C799 0.929 . S
C806 O797 1.250 . S
C806 O798 1.258 . S
O807 Mn792 2.162 . S
O807 C795 1.281 . S
O808 Mn792 2.297 . S
O808 C795 1.236 . S
N809 Mn793 2.282 . S
N809 C810 1.328 . S
N809 C814 1.318 . S
C810 N809 1.328 . S
C810 C811 1.457 . S
C810 H815 0.929 . S
C811 C810 1.457 . S
C811 C812 1.291 . S
C811 H824 0.931 . S
C812 C811 1.291 . S
C812 C813 1.373 . S
C812 H825 0.929 . S
C813 C812 1.373 . S
C813 C814 1.396 . S
C813 C820 1.403 . S
C814 C804 1.476 . S
C814 N809 1.318 . S
C814 C813 1.396 . S
H815 C810 0.929 . S
O816 Mn792 2.385 . S
O816 C794 1.234 . S
O817 Mn792 2.209 . S
O817 Mn793 2.215 . S
O817 C794 1.283 . S
O818 Mn792 2.094 . S
O818 C796 1.240 . S
O819 Mn793 2.117 . S
O819 C796 1.264 . S
C820 C813 1.403 . S
C820 C821 1.399 . S
C820 H826 0.929 . S
C821 C801 1.449 . S
C821 C820 1.399 . S
C821 H827 0.930 . S
H822 C802 0.931 . S
H823 C803 0.930 . S
H824 C811 0.931 . S
H825 C812 0.929 . S
H826 C820 0.929 . S
H827 C821 0.930 . S
Mn828 O833 2.095 . S
Mn828 O843 2.162 . S
Mn828 O844 2.297 . S
Mn828 O852 2.385 . S
Mn828 O853 2.209 . S
Mn828 O854 2.094 . S
Mn829 O834 2.121 . S
Mn829 N836 2.257 . S
Mn829 N845 2.282 . S
Mn829 O853 2.215 . S
Mn829 O855 2.117 . S
C830 O852 1.234 . S
C830 O853 1.283 . S
C831 O843 1.281 . S
C831 O844 1.236 . S
C832 O854 1.240 . S
C832 O855 1.264 . S
O833 Mn828 2.095 . S
O833 C842 1.250 . S
O834 Mn829 2.121 . S
O834 C842 1.258 . S
C835 N836 1.326 . S
C835 C839 1.460 . S
C835 H841 0.929 . S
N836 Mn829 2.257 . S
N836 C835 1.326 . S
N836 C840 1.362 . S
C837 C838 1.258 . S
C837 C840 1.431 . S
C837 C857 1.449 . S
C838 C837 1.258 . S
C838 C839 1.477 . S
C838 H858 0.931 . S
C839 C835 1.460 . S
C839 C838 1.477 . S
C839 H859 0.930 . S
C840 N836 1.362 . S
C840 C837 1.431 . S
C840 C850 1.476 . S
H841 C835 0.929 . S
C842 O833 1.250 . S
C842 O834 1.258 . S
O843 Mn828 2.162 . S
O843 C831 1.281 . S
O844 Mn828 2.297 . S
O844 C831 1.236 . S
N845 Mn829 2.282 . S
N845 C846 1.328 . S
N845 C850 1.318 . S
C846 N845 1.328 . S
C846 C847 1.457 . S
C846 H851 0.929 . S
C847 C846 1.457 . S
C847 C848 1.291 . S
C847 H860 0.931 . S
C848 C847 1.291 . S
C848 C849 1.373 . S
C848 H861 0.929 . S
C849 C848 1.373 . S
C849 C850 1.396 . S
C849 C856 1.403 . S
C850 C840 1.476 . S
C850 N845 1.318 . S
C850 C849 1.396 . S
H851 C846 0.929 . S
O852 Mn828 2.385 . S
O852 C830 1.234 . S
O853 Mn828 2.209 . S
O853 Mn829 2.215 . S
O853 C830 1.283 . S
O854 Mn828 2.094 . S
O854 C832 1.240 . S
O855 Mn829 2.117 . S
O855 C832 1.264 . S
C856 C849 1.403 . S
C856 C857 1.399 . S
C856 H862 0.929 . S
C857 C837 1.449 . S
C857 C856 1.399 . S
C857 H863 0.930 . S
H858 C838 0.931 . S
H859 C839 0.930 . S
H860 C847 0.931 . S
H861 C848 0.929 . S
H862 C856 0.929 . S
H863 C857 0.930 . S
C3 C255 1.566 1_545 S
C291 C39 1.566 . S
C75 C327 1.566 1_655 S
C111 C363 1.566 1_565 S
C399 C147 1.566 . S
C183 C219 1.566 1_455 S
C435 C687 1.566 1_565 S
C471 C723 1.566 . S
C759 C507 1.566 1_655 S
C543 C795 1.566 1_545 S
C579 C831 1.566 . S
C651 C615 1.566 1_455 S
C4 C292 1.350 . S
C328 C40 1.350 . S
C364 C76 1.350 . S
C112 C400 1.350 . S
C148 C220 1.350 . S
C184 C256 1.350 . S
C724 C436 1.350 . S
C472 C760 1.349 . S
C796 C508 1.350 . S
C832 C544 1.350 . S
C652 C580 1.350 . S
C616 C688 1.350 . S
C14 C554 1.356 1_554 S
C590 C50 1.356 1_556 S
C626 C86 1.356 1_556 S
C122 C446 1.356 1_554 S
C158 C482 1.356 1_554 S
C518 C194 1.356 1_556 S
C770 C230 1.356 . S
C806 C266 1.356 . S
C842 C302 1.356 . S
C662 C338 1.356 . S
C374 C698 1.356 . S
C410 C734 1.356 . S
C2 C362 1.598 . S
C398 C38 1.598 . S
C218 C74 1.598 . S
C110 C254 1.598 . S
C146 C290 1.598 . S
C182 C326 1.598 . S
C434 C794 1.598 . S
C470 C830 1.598 . S
C506 C650 1.598 . S
C686 C542 1.598 . S
C578 C722 1.598 . S
C614 C758 1.598 . S
