# Generated by pormake.
# Topology bcg, (8)-cn, num edge types: 1
# Building blocks:
#     Node 0, Type 0, BuildingBlock: EYACOX_clean_sbu_0, # of connection points: 8
#     Node 1, Type 0, BuildingBlock: EYACOX_clean_sbu_0, # of connection points: 8
#     Node 2, Type 0, BuildingBlock: EYACOX_clean_sbu_0, # of connection points: 8
#     Node 3, Type 0, BuildingBlock: EYACOX_clean_sbu_0, # of connection points: 8
#     Edge 4, Type (0, 0), BuildingBlock: FUNLAD_clean_linker_1, # of connection points: 2
#     Edge 5, Type (0, 0), BuildingBlock: FUNLAD_clean_linker_1, # of connection points: 2
#     Edge 6, Type (0, 0), BuildingBlock: FUNLAD_clean_linker_1, # of connection points: 2
#     Edge 7, Type (0, 0), BuildingBlock: FUNLAD_clean_linker_1, # of connection points: 2
#     Edge 8, Type (0, 0), BuildingBlock: FUNLAD_clean_linker_1, # of connection points: 2
#     Edge 9, Type (0, 0), BuildingBlock: FUNLAD_clean_linker_1, # of connection points: 2
#     Edge 10, Type (0, 0), BuildingBlock: FUNLAD_clean_linker_1, # of connection points: 2
#     Edge 11, Type (0, 0), BuildingBlock: FUNLAD_clean_linker_1, # of connection points: 2
#     Edge 12, Type (0, 0), BuildingBlock: FUNLAD_clean_linker_1, # of connection points: 2
#     Edge 13, Type (0, 0), BuildingBlock: FUNLAD_clean_linker_1, # of connection points: 2
#     Edge 14, Type (0, 0), BuildingBlock: FUNLAD_clean_linker_1, # of connection points: 2
#     Edge 15, Type (0, 0), BuildingBlock: FUNLAD_clean_linker_1, # of connection points: 2
#     Edge 16, Type (0, 0), BuildingBlock: FUNLAD_clean_linker_1, # of connection points: 2
#     Edge 17, Type (0, 0), BuildingBlock: FUNLAD_clean_linker_1, # of connection points: 2
#     Edge 18, Type (0, 0), BuildingBlock: FUNLAD_clean_linker_1, # of connection points: 2
#     Edge 19, Type (0, 0), BuildingBlock: FUNLAD_clean_linker_1, # of connection points: 2
# Relax obj value: 0.106
# Max RMSD: 0.195
# Mean RMSD: 0.195
data_MOF--net-bcg--node1-EYACOX_clean_sbu_0--edge1-FUNLAD_clean_linker_1
_symmetry_space_group_name_H-M    P1
_symmetry_Int_Tables_number       1
_symmetry_cell_setting            triclinic
loop_
_symmetry_equiv_pos_as_xyz
'x, y, z'
_cell_length_a     22.941962
_cell_length_b     19.925437
_cell_length_c     34.169757
_cell_angle_alpha  89.761567
_cell_angle_beta   121.98513
_cell_angle_gamma 90.768931
loop_
_atom_site_label
_atom_site_type_symbol
_atom_site_fract_x
_atom_site_fract_y
_atom_site_fract_z
_atom_type_partial_charge
Eu0 Eu 0.31646 0.12543 0.95386 0.0
Eu1 Eu 0.24856 0.20378 0.01014 0.0
O2 O 0.33442 0.12546 0.89696 0.0
O3 O 0.36988 0.04215 0.94448 0.0
O4 O 0.22177 0.0941 0.00088 0.0
O5 O 0.21601 0.07328 0.93296 0.0
O6 O 0.36666 0.08284 0.02614 0.0
O7 O 0.35674 0.17537 0.06215 0.0
C8 C 0.42907 0.06493 0.90461 0.0
C9 C 0.54023 0.05283 0.8926 0.0
C10 C 0.55193 0.04827 0.93704 0.0
C11 C 0.49619 0.05495 0.94321 0.0
C12 C 0.4751 0.0652 0.85396 0.0
C13 C 0.41948 0.07112 0.86024 0.0
C14 C 0.36783 0.06927 0.90891 0.0
C15 C 0.19648 0.06075 0.96207 0.0
O16 O 0.22993 0.20156 0.06671 0.0
O17 O 0.19299 0.28498 0.01923 0.0
C18 C 0.38421 0.11722 0.06371 0.0
O19 O 0.31354 0.28089 0.00135 0.0
O20 O 0.38658 0.21245 0.99236 0.0
O21 O 0.1685 0.20833 0.93459 0.0
O22 O 0.24142 0.20404 0.90753 0.0
C23 C 0.13347 0.26002 0.05774 0.0
C24 C 0.07582 0.30656 0.09476 0.0
C25 C 0.13256 0.30469 0.0894 0.0
C26 C 1.01864 0.2654 0.0663 0.0
C27 C 1.01834 0.21964 0.03493 0.0
C28 C 0.07655 0.21691 0.03111 0.0
C29 C 0.19585 0.25749 0.05493 0.0
C30 C 0.36947 0.27125 0.00044 0.0
C31 C 0.18183 0.21862 0.90215 0.0
H32 H 0.58414 0.05278 0.889 0.0
H33 H 0.50513 0.05311 0.97767 0.0
H34 H 0.36872 0.08105 0.83062 0.0
H35 H 0.17691 0.33674 0.11079 0.0
H36 H 0.97476 0.26798 0.06975 0.0
H37 H 0.07793 0.18087 0.00794 0.0
Eu38 Eu 0.79486 0.71495 0.97563 0.0
Eu39 Eu 0.73158 0.78595 0.03435 0.0
O40 O 0.80563 0.72107 0.91576 0.0
O41 O 0.85923 0.64406 0.96699 0.0
O42 O 0.66959 0.69122 0.00405 0.0
O43 O 0.74303 0.63064 0.9906 0.0
O44 O 0.88028 0.71803 0.05064 0.0
O45 O 0.8115 0.71103 0.08051 0.0
C46 C 0.91117 0.68444 0.92663 0.0
C47 C 1.02532 0.70527 0.91902 0.0
C48 C 1.0293 0.72396 0.95965 0.0
C49 C 0.97161 0.7146 0.96338 0.0
C50 C 0.96622 0.67582 0.882 0.0
C51 C 0.9086 0.66604 0.88581 0.0
C52 C 0.8498 0.67258 0.92963 0.0
C53 C 0.69063 0.63439 -0.00374 0.0
O54 O 0.71197 0.78388 0.09038 0.0
O55 O 0.68953 0.87355 0.04903 0.0
C56 C 0.87059 0.70156 0.08403 0.0
O57 O 0.82672 0.84262 0.04847 0.0
O58 O 0.79952 0.8271 0.97536 0.0
O59 O 0.66381 0.81595 0.95918 0.0
O60 O 0.68137 0.72395 0.92631 0.0
C61 C 0.62657 0.85509 0.08578 0.0
C62 C 0.58002 0.88115 0.13385 0.0
C63 C 0.63649 0.86997 0.1293 0.0
C64 C 0.5139 0.87835 0.0942 0.0
C65 C 0.50261 0.85892 0.05145 0.0
C66 C 0.55923 0.84714 0.04714 0.0
C67 C 0.68754 0.8444 0.08261 0.0
C68 C 0.83366 0.85998 0.01421 0.0
C69 C 0.64588 0.77686 0.92341 0.0
H70 H 0.06797 0.71814 0.91539 0.0
H71 H 0.97351 0.73088 -0.00573 0.0
H72 H 0.86186 0.64439 0.85709 0.0
H73 H 0.68801 0.87151 0.15971 0.0
H74 H 0.46975 0.88345 0.09731 0.0
H75 H 0.55103 0.83046 0.01441 0.0
Eu76 Eu 0.25233 0.69533 0.53219 0.0
Eu77 Eu 0.3201 0.79417 0.48492 0.0
O78 O 0.25224 0.65964 0.59302 0.0
O79 O 0.17345 0.62521 0.52494 0.0
O80 O 0.37072 0.69505 0.4993 0.0
O81 O 0.35667 0.65162 0.55646 0.0
O82 O 0.22758 0.64359 0.46657 0.0
O83 O 0.23009 0.73691 0.42773 0.0
C84 C 0.13958 0.64421 0.5787 0.0
C85 C 0.03661 0.66835 0.59689 0.0
C86 C 1.02528 0.68492 0.55381 0.0
C87 C 0.07621 0.67169 0.54422 0.0
C88 C 0.10035 0.64648 0.63287 0.0
C89 C 0.15166 0.63249 0.62334 0.0
C90 C 0.19318 0.62855 0.56841 0.0
C91 C 0.38931 0.65508 0.53441 0.0
O92 O 0.31534 0.8407 0.42501 0.0
O93 O 0.40658 0.85279 0.49283 0.0
C94 C 0.21113 0.67448 0.42814 0.0
O95 O 0.24226 0.85811 0.48686 0.0
O96 O 0.17404 0.77377 0.48916 0.0
O97 O 0.3782 0.81872 0.5607 0.0
O98 O 0.29766 0.78623 0.57773 0.0
C99 C 0.42307 0.84212 0.43004 0.0
C100 C 0.43667 0.82743 0.36461 0.0
C101 C 0.39592 0.84548 0.38211 0.0
C102 C 0.50362 0.80639 0.39434 0.0
C103 C 0.53249 0.80427 0.44194 0.0
C104 C 0.49231 0.8228 0.45988 0.0
C105 C 0.37961 0.86017 0.44861 0.0
C106 C 0.18489 0.83677 0.48275 0.0
C107 C 0.35393 0.81896 0.58783 0.0
H108 H 0.99435 0.67184 0.60221 0.0
H109 H 0.06642 0.68291 0.51019 0.0
H110 H 0.20064 0.61313 0.65042 0.0
H111 H 0.34384 0.86221 0.3587 0.0
H112 H 0.53443 0.79516 0.37986 0.0
H113 H 0.51509 0.82193 0.49692 0.0
Eu114 Eu 0.7439 0.25246 0.49646 0.0
Eu115 Eu 0.82403 0.3369 0.44974 0.0
O116 O 0.74521 0.21515 0.55759 0.0
O117 O 0.6524 0.20629 0.49002 0.0
O118 O 0.86 0.22992 0.45854 0.0
O119 O 0.82739 0.18309 0.50684 0.0
O120 O 0.71025 0.20475 0.42809 0.0
O121 O 0.71877 0.30049 0.39371 0.0
C122 C 0.6382 0.21822 0.55396 0.0
C123 C 0.55277 0.24744 0.58706 0.0
C124 C 0.54741 0.28534 0.55083 0.0
C125 C 0.58941 0.26991 0.53372 0.0
C126 C 0.60114 0.19654 0.60847 0.0
C127 C 0.64377 0.18179 0.59147 0.0
C128 C 0.68007 0.19859 0.53439 0.0
C129 C 0.86013 0.18094 0.48478 0.0
O130 O 0.83789 0.35256 0.39148 0.0
O131 O 0.89041 0.41817 0.4511 0.0
C132 C 0.69578 0.23886 0.3911 0.0
O133 O 0.76819 0.41257 0.4672 0.0
O134 O 0.68238 0.34223 0.45862 0.0
O135 O 0.90054 0.32082 0.52529 0.0
O136 O 0.82137 0.32791 0.54633 0.0
C137 C 0.93942 0.40949 0.40382 0.0
C138 C 0.97874 0.42601 0.34998 0.0
C139 C 0.9256 0.413 0.35822 0.0
C140 C 0.04583 0.4336 0.38786 0.0
C141 C 0.06187 0.42565 0.43326 0.0
C142 C 1.00822 0.41578 0.44134 0.0
C143 C 0.8807 0.40297 0.41088 0.0
C144 C 0.70867 0.40258 0.46344 0.0
C145 C 0.88532 0.33 0.55685 0.0
H146 H 0.51518 0.25491 0.59644 0.0
H147 H 0.58316 0.29707 0.50427 0.0
H148 H 0.68013 0.14121 0.6067 0.0
H149 H 0.87336 0.40665 0.32914 0.0
H150 H 0.08707 0.44292 0.38206 0.0
H151 H 1.02016 0.41173 0.47647 0.0
H152 H 0.64195 0.09403 -0.00268 0.0
C153 C 0.62488 0.04909 0.97599 0.0
H154 H 0.65256 0.96542 0.95315 0.0
H155 H 0.86585 0.1251 0.92547 0.0
H156 H 0.79606 0.06493 0.85332 0.0
H157 H 0.69943 0.99271 0.84032 0.0
H158 H 0.67286 0.97857 0.89932 0.0
C159 C 0.67138 0.01055 0.97397 0.0
C160 C 0.73963 0.03893 0.9855 0.0
C161 C 0.75546 0.04466 0.95043 0.0
C162 C 0.81161 0.08619 0.95777 0.0
C163 C 0.82473 0.0934 0.92191 0.0
C164 C 0.78504 0.05916 0.8803 0.0
C165 C 0.73062 0.01843 0.873 0.0
C166 C 0.71552 0.01134 0.90731 0.0
H167 H 0.97285 0.12153 0.00134 0.0
C168 C 0.96128 0.16904 0.01083 0.0
H169 H 0.88472 0.22584 0.01168 0.0
H170 H 0.73766 0.01994 0.06387 0.0
H171 H 0.81671 0.06937 0.13923 0.0
H172 H 0.91313 0.14209 0.15171 0.0
H173 H 0.93144 0.16529 0.08919 0.0
C174 C 0.89892 0.17739 0.00518 0.0
C175 C 0.85224 0.12069 0.00014 0.0
C176 C 0.8422 0.10729 0.03702 0.0
C177 C 0.78619 0.06608 0.02978 0.0
C178 C 0.77822 0.05267 0.06739 0.0
C179 C 0.82353 0.08019 0.11081 0.0
C180 C 0.87783 0.1211 0.11785 0.0
C181 C 0.88742 0.13451 0.08157 0.0
H182 H 0.0889 0.81454 0.99374 0.0
C183 C 0.09256 0.76041 -0.00572 0.0
H184 H 0.15581 0.67782 0.00973 0.0
H185 H 0.32658 0.79999 0.93199 0.0
H186 H 0.27748 0.69802 0.88713 0.0
H187 H 0.20055 0.62543 0.89918 0.0
H188 H 0.16978 0.65554 0.95394 0.0
C189 C 0.15406 0.73224 0.00925 0.0
C190 C 0.21064 0.76999 0.00857 0.0
C191 C 0.23186 0.74844 0.97823 0.0
C192 C 0.28067 0.78712 0.97375 0.0
C193 C 0.29424 0.76923 0.93927 0.0
C194 C 0.26587 0.71128 0.91295 0.0
C195 C 0.22232 0.67066 0.91958 0.0
C196 C 0.20482 0.68903 0.95132 0.0
H197 H 0.42609 0.78205 0.01105 0.0
C198 C 0.43213 0.836 0.01638 0.0
H199 H 0.38586 0.92736 0.01207 0.0
H200 H 0.18594 0.82319 0.07211 0.0
H201 H 0.24125 0.92071 0.12033 0.0
H202 H 0.33238 0.98232 0.11704 0.0
H203 H 0.36651 0.94932 0.0648 0.0
C204 C 0.37747 0.87362 0.00667 0.0
C205 C 0.31483 0.84266 0.00334 0.0
C206 C 0.29412 0.86411 0.03397 0.0
C207 C 0.24155 0.82821 0.03611 0.0
C208 C 0.2235 0.84976 0.06778 0.0
C209 C 0.25561 0.90519 0.09627 0.0
C210 C 0.30703 0.93978 0.09455 0.0
C211 C 0.32618 0.91988 0.06398 0.0
H212 H 0.63696 0.82094 0.50293 0.0
C213 C 0.60678 0.79012 0.47224 0.0
H214 H 0.60797 0.71569 0.42887 0.0
H215 H 0.88514 0.80585 0.44909 0.0
H216 H 0.80213 0.82468 0.36773 0.0
H217 H 0.67798 0.8112 0.33595 0.0
H218 H 0.63599 0.77895 0.38493 0.0
C219 C 0.63841 0.7476 0.45893 0.0
C220 C 0.71357 0.75215 0.47803 0.0
C221 C 0.73729 0.77074 0.44848 0.0
C222 C 0.80895 0.77757 0.46651 0.0
C223 C 0.8313 0.79794 0.43673 0.0
C224 C 0.78428 0.80964 0.39011 0.0
C225 C 0.71436 0.80211 0.37223 0.0
C226 C 0.69087 0.78337 0.40089 0.0
H227 H 0.92437 0.683 0.48855 0.0
C228 C 0.95757 0.71265 0.51934 0.0
H229 H 0.96627 0.79121 0.56295 0.0
H230 H 0.6862 0.70507 0.5422 0.0
H231 H 0.7688 0.68967 0.62387 0.0
H232 H 0.89199 0.71453 0.65704 0.0
H233 H 0.93296 0.75334 0.60869 0.0
C234 C 0.93159 0.7625 0.53199 0.0
C235 C 0.85667 0.76548 0.51384 0.0
C236 C 0.83278 0.75002 0.54378 0.0
C237 C 0.76136 0.74021 0.5254 0.0
C238 C 0.7395 0.71694 0.55492 0.0
C239 C 0.78642 0.70729 0.60181 0.0
C240 C 0.85574 0.72091 0.62041 0.0
C241 C 0.87881 0.74228 0.59198 0.0
H242 H 0.15142 0.45342 0.50311 0.0
C243 C 0.13565 0.42668 0.47128 0.0
H244 H 0.16582 0.36923 0.43338 0.0
H245 H 0.45101 0.45774 0.48781 0.0
H246 H 0.38418 0.52403 0.41837 0.0
H247 H 0.26076 0.54187 0.38556 0.0
H248 H 0.20229 0.49064 0.42036 0.0
C249 C 0.18279 0.39732 0.46493 0.0
C250 C 0.2585 0.40752 0.49479 0.0
C251 C 0.29289 0.4403 0.47557 0.0
C252 C 0.36459 0.4317 0.4954 0.0
C253 C 0.39664 0.46249 0.47404 0.0
C254 C 0.3591 0.50129 0.43453 0.0
C255 C 0.28946 0.51113 0.4159 0.0
C256 C 0.25643 0.48101 0.43594 0.0
H257 H 0.45401 0.32746 0.49094 0.0
C258 C 0.4904 0.33389 0.52773 0.0
H259 H 0.51282 0.37966 0.58947 0.0
H260 H 0.20963 0.34432 0.54307 0.0
H261 H 0.27681 0.28496 0.61544 0.0
H262 H 0.40268 0.27723 0.65367 0.0
H263 H 0.46175 0.32789 0.61978 0.0
C264 C 0.47489 0.37338 0.55295 0.0
C265 C 0.40253 0.3927 0.53581 0.0
C266 C 0.36957 0.3673 0.55847 0.0
C267 C 0.29708 0.37322 0.53719 0.0
C268 C 0.26455 0.34231 0.5582 0.0
C269 C 0.30251 0.30805 0.59976 0.0
C270 C 0.37333 0.30364 0.62124 0.0
C271 C 0.40667 0.33277 0.60107 0.0
H272 H 0.67395 0.52482 0.98946 0.0
C273 C 0.65439 0.57181 0.9938 0.0
H274 H 0.58073 0.61757 0.00394 0.0
H275 H 0.44413 0.31482 0.92359 0.0
H276 H 0.43412 0.34926 0.85218 0.0
H277 H 0.48325 0.45742 0.84704 0.0
H278 H 0.54307 0.53141 0.91337 0.0
C279 C 0.59957 0.5713 -0.00194 0.0
C280 C 0.56786 0.5073 0.00011 0.0
C281 C 0.53217 0.46531 0.96063 0.0
C282 C 0.50272 0.40371 0.96332 0.0
C283 C 0.46745 0.36233 0.92351 0.0
C284 C 0.46118 0.38153 0.88222 0.0
C285 C 0.48893 0.44235 0.87936 0.0
C286 C 0.52368 0.48413 0.91787 0.0
H287 H 0.39699 0.37878 0.01122 0.0
C288 C 0.41352 0.32971 0.00729 0.0
H289 H 0.4868 0.27621 0.00051 0.0
H290 H 0.63487 0.57576 0.08242 0.0
H291 H 0.64529 0.54083 0.15389 0.0
H292 H 0.59375 0.43382 0.15838 0.0
H293 H 0.5315 0.36116 0.09133 0.0
C294 C 0.47068 0.3245 0.00595 0.0
C295 C 0.5074 0.38548 0.00501 0.0
C296 C 0.54391 0.42693 0.04464 0.0
C297 C 0.57395 0.48821 0.04211 0.0
C298 C 0.61055 0.52877 0.08225 0.0
C299 C 0.61713 0.50923 0.12358 0.0
C300 C 0.58808 0.44903 0.1261 0.0
C301 C 0.55207 0.40801 0.08726 0.0
H302 H 0.69748 0.50871 0.47738 0.0
C303 C 0.67491 0.45864 0.47141 0.0
H304 H 0.60049 0.39623 0.47249 0.0
H305 H 0.57077 0.56206 0.61525 0.0
H306 H 0.64451 0.47268 0.66436 0.0
H307 H 0.69656 0.3939 0.63624 0.0
H308 H 0.67606 0.40465 0.55921 0.0
C309 C 0.62155 0.44662 0.47659 0.0
C310 C 0.59506 0.49781 0.4943 0.0
C311 C 0.60775 0.49086 0.5395 0.0
C312 C 0.57696 0.5355 0.55548 0.0
C313 C 0.59164 0.52845 0.60106 0.0
C314 C 0.63421 0.47765 0.62969 0.0
C315 C 0.66357 0.43334 0.61389 0.0
C316 C 0.65107 0.43989 0.56949 0.0
H317 H 0.43924 0.55627 0.55029 0.0
C318 C 0.44558 0.6092 0.54561 0.0
H319 H 0.50189 0.6849 0.53645 0.0
H320 H 0.55944 0.52329 0.4055 0.0
H321 H 0.48038 0.6079 0.35466 0.0
H322 H 0.42302 0.68256 0.38098 0.0
H323 H 0.44658 0.67544 0.45856 0.0
C324 C 0.4968 0.63132 0.54046 0.0
C325 C 0.53252 0.58599 0.52579 0.0
C326 C 0.52011 0.59308 0.48055 0.0
C327 C 0.55176 0.54903 0.46491 0.0
C328 C 0.53697 0.55566 0.41922 0.0
C329 C 0.49148 0.60386 0.38957 0.0
C330 C 0.45949 0.64615 0.40446 0.0
C331 C 0.47377 0.64149 0.44937 0.0
H332 H 0.09016 0.02519 0.91645 0.0
C333 C 0.13752 0.01652 0.94925 0.0
H334 H 0.18637 0.97361 0.01442 0.0
H335 H 0.95903 0.01099 0.05809 0.0
H336 H 0.05448 0.07517 0.11793 0.0
H337 H 0.15967 0.09341 0.1163 0.0
H338 H 0.16985 0.0471 0.05527 0.0
C339 C 0.13779 0.98025 0.98244 0.0
C340 C 0.0744 0.96725 0.983 0.0
C341 C 0.06959 0.99476 0.01957 0.0
C342 C 1.00928 0.98378 0.02083 0.0
C343 C 1.00492 0.01404 0.05672 0.0
C344 C 0.05909 0.05221 0.09104 0.0
C345 C 0.11813 0.06265 0.09003 0.0
C346 C 0.12333 0.03513 0.05464 0.0
H347 H 0.94165 0.89232 0.05482 0.0
C348 C 0.89337 0.89919 0.02228 0.0
H349 H 0.84193 0.93606 0.95483 0.0
H350 H 0.07032 0.90173 0.91111 0.0
H351 H 0.97492 0.83706 0.85108 0.0
H352 H 0.86931 0.81918 0.85222 0.0
H353 H 0.85865 0.86536 0.91313 0.0
C354 C 0.89124 0.93084 0.9868 0.0
C355 C 0.95411 0.945 0.9857 0.0
C356 C 0.95892 0.91768 0.94905 0.0
C357 C 1.01934 0.92859 0.94789 0.0
C358 C 1.0243 0.898 0.91238 0.0
C359 C 0.97019 0.85994 0.87794 0.0
C360 C 0.91083 0.84979 0.87864 0.0
C361 C 0.90528 0.87734 0.9139 0.0
H362 H 0.89955 0.08025 0.51229 0.0
C363 C 0.89748 0.1192 0.4892 0.0
H364 H 0.92359 0.14636 0.44045 0.0
H365 H 0.14513 0.90457 0.56029 0.0
H366 H 0.19119 0.97932 0.62637 0.0
H367 H 0.13494 0.08675 0.62072 0.0
H368 H 0.03204 0.1194 0.54945 0.0
C369 C 0.92772 0.10934 0.46522 0.0
C370 C 0.96309 0.04569 0.46896 0.0
C371 C 1.02441 0.02866 0.51081 0.0
C372 C 0.05857 0.96839 0.51352 0.0
C373 C 0.11842 0.95099 0.55601 0.0
C374 C 0.14521 0.99324 0.59425 0.0
C375 C 0.11341 0.05357 0.59111 0.0
C376 C 0.05389 0.07145 0.54998 0.0
H377 H 0.14447 0.93899 0.47016 0.0
C378 C 0.13311 0.88697 0.47379 0.0
H379 H 0.06338 0.82083 0.47813 0.0
H380 H 0.84455 0.06163 0.38447 0.0
H381 H 0.80159 0.98814 0.31794 0.0
H382 H 0.86395 0.88568 0.32223 0.0
H383 H 0.96955 0.85583 0.39328 0.0
C384 C 0.07643 0.87214 0.47447 0.0
C385 C 0.03346 0.92735 0.47385 0.0
C386 C 0.97148 0.94327 0.4325 0.0
C387 C 0.93606 0.0026 0.43001 0.0
C388 C 0.87415 0.01761 0.38814 0.0
C389 C 0.84881 0.97577 0.34973 0.0
C390 C 0.88396 0.91811 0.35212 0.0
C391 C 0.94449 0.90162 0.39301 0.0
H392 H 0.63968 0.23892 0.31536 0.0
C393 C 0.65386 0.20775 0.34525 0.0
H394 H 0.64719 0.11088 0.3684 0.0
H395 H 0.37085 0.06923 0.17101 0.0
H396 H 0.32928 0.05383 0.22294 0.0
H397 H 0.40812 0.06722 0.30712 0.0
H398 H 0.52897 0.09475 0.33985 0.0
C399 C 0.63462 0.14274 0.33916 0.0
C400 C 0.59224 0.11497 0.2917 0.0
C401 C 0.52269 0.09737 0.27373 0.0
C402 C 0.47733 0.09013 0.22536 0.0
C403 C 0.40727 0.07493 0.20764 0.0
C404 C 0.38292 0.06617 0.23703 0.0
C405 C 0.42731 0.07375 0.28443 0.0
C406 C 0.49642 0.08968 0.30276 0.0
H407 H 0.46083 0.04319 0.11114 0.0
C408 C 0.43621 0.09023 0.10924 0.0
H409 H 0.42492 0.16906 0.14552 0.0
H410 H 0.72692 0.12256 0.31793 0.0
H411 H 0.77114 0.12363 0.26697 0.0
H412 H 0.69205 0.11567 0.18249 0.0
H413 H 0.56895 0.10545 0.14858 0.0
C414 C 0.45211 0.1235 0.14787 0.0
C415 C 0.50183 0.10064 0.19548 0.0
C416 C 0.57346 0.10677 0.21415 0.0
C417 C 0.61892 0.11335 0.26265 0.0
C418 C 0.69037 0.11929 0.2811 0.0
C419 C 0.71626 0.11958 0.25231 0.0
C420 C 0.67171 0.11495 0.20475 0.0
C421 C 0.60102 0.10915 0.18567 0.0
H422 H 0.62495 0.85093 0.20701 0.0
C423 C 0.58761 0.88357 0.18 0.0
H424 H 0.50441 0.94831 0.159 0.0
H425 H 0.55172 0.93302 0.36279 0.0
H426 H 0.66643 0.97834 0.39378 0.0
H427 H 0.71556 0.98915 0.34506 0.0
H428 H 0.65049 0.95263 0.26478 0.0
C429 C 0.54105 0.91513 0.18576 0.0
C430 C 0.52339 0.8941 0.22009 0.0
C431 C 0.55985 0.91967 0.26549 0.0
C432 C 0.53011 0.91554 0.29295 0.0
C433 C 0.57017 0.93691 0.33959 0.0
C434 C 0.6365 0.96263 0.35801 0.0
C435 C 0.66431 0.9685 0.33059 0.0
C436 C 0.62639 0.94784 0.28463 0.0
H437 H 0.41469 0.78632 0.29969 0.0
C438 C 0.41488 0.83324 0.31588 0.0
H439 H 0.43606 0.93614 0.32119 0.0
H440 H 0.45812 0.81191 0.14498 0.0
H441 H 0.35061 0.75111 0.11708 0.0
H442 H 0.28742 0.76164 0.1569 0.0
H443 H 0.33298 0.83036 0.22568 0.0
C444 C 0.42974 0.89052 0.3019 0.0
C445 C 0.46211 0.88921 0.27372 0.0
C446 C 0.42883 0.85784 0.22971 0.0
C447 C 0.46178 0.85697 0.20434 0.0
C448 C 0.43261 0.81773 0.1637 0.0
C449 C 0.37151 0.78196 0.14776 0.0
C450 C 0.33628 0.78742 0.17041 0.0
C451 C 0.36346 0.82641 0.21023 0.0
H452 H 0.43041 0.89261 0.63686 0.0
C453 C 0.39402 0.85352 0.63264 0.0
H454 H 0.35594 0.79213 0.6646 0.0
H455 H 0.6609 0.87298 0.84569 0.0
H456 H 0.71255 0.84473 0.80156 0.0
H457 H 0.63964 0.81471 0.71908 0.0
H458 H 0.51632 0.81528 0.68024 0.0
C459 C 0.39262 0.83126 0.66928 0.0
C460 C 0.43967 0.85615 0.7173 0.0
C461 C 0.51238 0.85117 0.73952 0.0
C462 C 0.5546 0.86311 0.78774 0.0
C463 C 0.62696 0.86172 0.80934 0.0
C464 C 0.65712 0.84573 0.78447 0.0
C465 C 0.61606 0.82924 0.73803 0.0
C466 C 0.54467 0.83097 0.71582 0.0
H467 H 0.57319 0.75624 0.8505 0.0
C468 C 0.58913 0.79448 0.87707 0.0
H469 H 0.58012 0.89704 0.88937 0.0
H470 H 0.30511 0.88541 0.68447 0.0
H471 H 0.25679 0.91672 0.73017 0.0
H472 H 0.3307 0.92751 0.81491 0.0
H473 H 0.4538 0.90776 0.85442 0.0
C474 C 0.56528 0.85703 0.86431 0.0
C475 C 0.52433 0.8725 0.81419 0.0
C476 C 0.45327 0.88419 0.79187 0.0
C477 C 0.41079 0.87671 0.7432 0.0
C478 C 0.33956 0.88889 0.72153 0.0
C479 C 0.3113 0.90724 0.74732 0.0
C480 C 0.35291 0.91333 0.79504 0.0
C481 C 0.42319 0.90164 0.8173 0.0
H482 H 0.43174 0.11883 0.787 0.0
C483 C 0.46834 0.08094 0.80884 0.0
H484 H 0.5484 0.01763 0.81873 0.0
H485 H 0.47446 0.10724 0.61371 0.0
H486 H 0.37116 0.03908 0.58483 0.0
H487 H 0.33819 0.99354 0.63779 0.0
H488 H 0.40859 0.01609 0.72012 0.0
C489 C 0.51271 0.05663 0.79785 0.0
C490 C 0.52685 0.09026 0.76458 0.0
C491 C 0.48647 0.07564 0.71681 0.0
C492 C 0.50592 0.10187 0.68634 0.0
C493 C 0.46294 0.08814 0.63855 0.0
C494 C 0.40331 0.04918 0.62147 0.0
C495 C 0.38475 0.02346 0.65129 0.0
C496 C 0.42576 0.03628 0.69845 0.0
H497 H 0.61608 0.10331 0.64937 0.0
C498 C 0.60145 0.15568 0.64549 0.0
H499 H 0.57063 0.23515 0.67116 0.0
H500 H 0.61125 0.13537 0.85324 0.0
H501 H 0.7127 0.20592 0.88224 0.0
H502 H 0.75029 0.24578 0.8305 0.0
H503 H 0.68526 0.21653 0.74909 0.0
C504 C 0.57939 0.18161 0.67192 0.0
C505 C 0.5663 0.1424 0.70389 0.0
C506 C 0.60634 0.15722 0.75172 0.0
C507 C 0.58608 0.13215 0.78188 0.0
C508 C 0.62527 0.15111 0.82901 0.0
C509 C 0.68344 0.19212 0.84608 0.0
C510 C 0.7045 0.21467 0.81694 0.0
C511 C 0.66659 0.19767 0.77029 0.0
H512 H 0.13473 0.59653 0.38405 0.0
C513 C 0.16236 0.64116 0.38388 0.0
H514 H 0.17397 0.7134 0.343 0.0
H515 H 1.00414 0.56049 0.15325 0.0
H516 H 0.11604 0.51541 0.1767 0.0
H517 H 0.21487 0.5311 0.25632 0.0
H518 H 0.20229 0.59215 0.31287 0.0
C519 C 0.14599 0.66939 0.34362 0.0
C520 C 0.08483 0.6479 0.29898 0.0
C521 C 0.09335 0.61344 0.26623 0.0
C522 C 0.03689 0.60574 0.22013 0.0
C523 C 0.04618 0.5697 0.18829 0.0
C524 C 0.1099 0.54321 0.2014 0.0
C525 C 0.16551 0.55193 0.24627 0.0
C526 C 0.15766 0.58684 0.27841 0.0
H527 H 0.9801 0.69519 0.13889 0.0
C528 C 0.92864 0.67794 0.12834 0.0
H529 H 0.86648 0.62321 0.14577 0.0
H530 H 0.04903 0.7102 0.3548 0.0
H531 H 0.93635 0.74984 0.33234 0.0
H532 H 0.83837 0.73665 0.2523 0.0
H533 H 0.85268 0.68404 0.19437 0.0
C534 C 0.91808 0.64094 0.15711 0.0
C535 C 0.97269 0.63427 0.20671 0.0
C536 C 0.96241 0.66286 0.24055 0.0
C537 C 1.01877 0.67011 0.28677 0.0
C538 C 1.00807 0.7023 0.31936 0.0
C539 C 0.94352 0.72558 0.30691 0.0
C540 C 0.8884 0.71818 0.26187 0.0
C541 C 0.89745 0.68764 0.2289 0.0
H542 H 0.9314 0.38519 0.27894 0.0
C543 C 0.96712 0.42307 0.30257 0.0
H544 H 0.04123 0.49733 0.31402 0.0
H545 H 0.16627 0.33174 0.21948 0.0
H546 H 0.26087 0.33796 0.29894 0.0
H547 H 0.2462 0.38951 0.3585 0.0
H548 H 0.13706 0.43544 0.33896 0.0
C549 C 1.00712 0.45795 0.29114 0.0
C550 C 1.01768 0.43546 0.25358 0.0
C551 C 0.08313 0.41137 0.26525 0.0
C552 C 0.09208 0.38233 0.23072 0.0
C553 C 0.15681 0.35542 0.24394 0.0
C554 C 0.21167 0.3585 0.28954 0.0
C555 C 0.20341 0.3876 0.32308 0.0
C556 C 0.14013 0.41361 0.31133 0.0
H557 H 0.10917 0.39549 0.14182 0.0
C558 C 0.07649 0.35085 0.13042 0.0
H559 H 1.00888 0.29016 0.14056 0.0
H560 H 0.89136 0.49107 0.21797 0.0
H561 H 0.79897 0.49257 0.13726 0.0
H562 H 0.81418 0.44218 0.07747 0.0
H563 H 0.92202 0.3902 0.0979 0.0
C564 C 0.03962 0.33585 0.14992 0.0
C565 C 0.03622 0.37908 0.18429 0.0
C566 C 0.97269 0.40847 0.17209 0.0
C567 C 0.9635 0.43688 0.20667 0.0
C568 C 0.90017 0.46722 0.1932 0.0
C569 C 0.847 0.46883 0.14701 0.0
C570 C 0.8556 0.44051 0.11332 0.0
C571 C 0.91755 0.41056 0.12551 0.0
H572 H 0.08243 0.26763 0.85627 0.0
C573 C 0.12787 0.24777 0.85831 0.0
H574 H 0.17804 0.22865 0.82266 0.0
H575 H 0.85306 0.26204 0.65081 0.0
H576 H 0.82575 0.16916 0.68426 0.0
H577 H 0.91414 0.12136 0.75896 0.0
H578 H 1.02973 0.167 0.80077 0.0
C579 C 0.13239 0.24765 0.82072 0.0
C580 C 0.07799 0.27632 0.77606 0.0
C581 C 1.01081 0.24757 0.75155 0.0
C582 C 0.96051 0.27365 0.70777 0.0
C583 C 0.8936 0.24441 0.68411 0.0
C584 C 0.87713 0.19071 0.70285 0.0
C585 C 0.92681 0.16394 0.74492 0.0
C586 C 0.99301 0.19134 0.76889 0.0
H587 H 0.99152 0.31546 0.61462 0.0
C588 C 0.94093 0.33192 0.60567 0.0
H589 H 0.87774 0.36098 0.63012 0.0
H590 H 0.2005 0.34553 0.81529 0.0
H591 H 0.22854 0.43696 0.78077 0.0
H592 H 0.14256 0.47867 0.70332 0.0
H593 H 1.02742 0.43113 0.6607 0.0
C594 C 0.92853 0.34522 0.63908 0.0
C595 C 0.97852 0.32597 0.68762 0.0
C596 C 0.04517 0.35544 0.71244 0.0
C597 C 0.09487 0.33075 0.75681 0.0
C598 C 0.16096 0.36153 0.78111 0.0
C599 C 0.17768 0.41432 0.76182 0.0
C600 C 0.12922 0.43803 0.71831 0.0
C601 C 0.06351 0.40962 0.69395 0.0
H602 H 0.14079 0.59615 0.70105 0.0
C603 C 0.10999 0.63721 0.6793 0.0
H604 H 0.05088 0.72169 0.67295 0.0
H605 H 0.94818 0.54569 0.78645 0.0
H606 H 0.89678 0.46957 0.72073 0.0
H607 H 0.91963 0.48393 0.65833 0.0
H608 H 0.99767 0.57056 0.66263 0.0
C609 C 0.07612 0.67689 0.69261 0.0
C610 C 0.06744 0.66337 0.7321 0.0
C611 C 1.02137 0.61205 0.72887 0.0
C612 C 1.00496 0.60612 0.76358 0.0
C613 C 0.961 0.55316 0.76049 0.0
C614 C 0.9311 0.50928 0.72296 0.0
C615 C 0.94425 0.5171 0.68793 0.0
C616 C 0.98922 0.56731 0.69082 0.0
H617 H 0.91771 0.67295 0.80562 0.0
C618 C 0.96434 0.66213 0.8384 0.0
H619 H 0.06784 0.63215 0.87218 0.0
H620 H 0.15644 0.76754 0.74852 0.0
H621 H 0.19493 0.8527 0.8082 0.0
H622 H 0.15602 0.84972 0.86312 0.0
H623 H 0.08056 0.76065 0.85951 0.0
C624 C 1.02186 0.64445 0.83948 0.0
C625 C 0.03146 0.65364 0.79994 0.0
C626 C 0.07385 0.7074 0.8014 0.0
C627 C 0.09347 0.71105 0.76835 0.0
C628 C 0.1383 0.76365 0.77195 0.0
C629 C 0.16088 0.81275 0.80606 0.0
C630 C 0.13914 0.811 0.83702 0.0
C631 C 0.09631 0.75907 0.8349 0.0
loop_
_geom_bond_atom_site_label_1
_geom_bond_atom_site_label_2
_geom_bond_distance
_geom_bond_site_symmetry_2
_ccdc_geom_bond_type
Eu0 O2 2.472 . S
Eu0 O3 2.507 1_556 S
Eu0 O5 2.336 1_556 S
Eu0 O6 2.389 1_556 S
Eu0 C14 2.835 . S
Eu0 O20 2.396 1_556 S
Eu0 O22 2.323 . S
Eu1 O4 2.396 1_554 S
Eu1 O7 2.323 . S
Eu1 O16 2.472 . S
Eu1 O17 2.507 1_554 S
Eu1 O19 2.336 1_554 S
Eu1 O21 2.389 1_554 S
Eu1 C29 2.835 . S
O2 Eu0 2.472 . S
O2 C14 1.258 . S
O3 Eu0 2.507 1_554 S
O3 C14 1.246 1_554 S
O4 Eu1 2.396 1_556 S
O4 C15 1.216 1_556 S
O5 Eu0 2.336 1_554 S
O5 C15 1.279 . S
O6 Eu0 2.389 1_554 S
O6 C18 1.239 . S
O7 Eu1 2.323 . S
O7 C18 1.249 . S
C8 C11 1.390 . S
C8 C13 1.370 . S
C8 C14 1.489 . S
C9 C10 1.344 . S
C9 C12 1.413 . S
C9 H32 0.931 . S
C10 C9 1.344 . S
C10 C11 1.423 . S
C11 C8 1.390 . S
C11 C10 1.423 . S
C11 H33 0.930 1_556 S
C12 C9 1.413 . S
C12 C13 1.397 . S
C13 C8 1.370 . S
C13 C12 1.397 . S
C13 H34 0.932 . S
C14 Eu0 2.835 . S
C14 O2 1.258 . S
C14 O3 1.246 1_556 S
C14 C8 1.489 . S
C15 O4 1.216 1_554 S
C15 O5 1.279 . S
O16 Eu1 2.472 . S
O16 C29 1.258 . S
O17 Eu1 2.507 1_556 S
O17 C29 1.246 1_556 S
C18 O6 1.239 . S
C18 O7 1.249 . S
O19 Eu1 2.336 1_556 S
O19 C30 1.286 1_556 S
O20 Eu0 2.396 1_554 S
O20 C30 1.212 . S
O21 Eu1 2.389 1_556 S
O21 C31 1.239 . S
O22 Eu0 2.323 . S
O22 C31 1.249 . S
C23 C25 1.370 . S
C23 C28 1.390 1_455 S
C23 C29 1.489 . S
C24 C25 1.397 . S
C24 C26 1.413 1_455 S
C25 C23 1.370 . S
C25 C24 1.397 . S
C25 H35 0.932 . S
C26 C24 1.413 1_655 S
C26 C27 1.344 . S
C26 H36 0.931 . S
C27 C26 1.344 . S
C27 C28 1.423 . S
C28 C23 1.390 1_655 S
C28 C27 1.423 . S
C28 H37 0.930 1_554 S
C29 Eu1 2.835 . S
C29 O16 1.258 . S
C29 O17 1.246 1_554 S
C29 C23 1.489 . S
C30 O19 1.286 1_554 S
C30 O20 1.212 . S
C31 O21 1.239 . S
C31 O22 1.249 . S
H32 C9 0.931 . S
H33 C11 0.930 1_554 S
H34 C13 0.932 . S
H35 C25 0.932 . S
H36 C26 0.931 . S
H37 C28 0.930 1_556 S
Eu38 O40 2.472 . S
Eu38 O41 2.507 1_556 S
Eu38 O43 2.336 1_556 S
Eu38 O44 2.389 1_556 S
Eu38 C52 2.835 . S
Eu38 O58 2.396 1_556 S
Eu38 O60 2.323 . S
Eu39 O42 2.396 1_554 S
Eu39 O45 2.323 . S
Eu39 O54 2.472 . S
Eu39 O55 2.507 1_554 S
Eu39 O57 2.336 1_554 S
Eu39 O59 2.389 1_554 S
Eu39 C67 2.835 . S
O40 Eu38 2.472 . S
O40 C52 1.258 . S
O41 Eu38 2.507 1_554 S
O41 C52 1.246 1_554 S
O42 Eu39 2.396 1_556 S
O42 C53 1.216 1_556 S
O43 Eu38 2.336 1_554 S
O43 C53 1.279 . S
O44 Eu38 2.389 1_554 S
O44 C56 1.239 . S
O45 Eu39 2.323 . S
O45 C56 1.249 . S
C46 C49 1.390 1_655 S
C46 C51 1.370 . S
C46 C52 1.489 . S
C47 C48 1.344 . S
C47 C50 1.413 1_455 S
C47 H70 0.931 . S
C48 C47 1.344 . S
C48 C49 1.423 . S
C49 C46 1.390 1_455 S
C49 C48 1.423 . S
C49 H71 0.930 1_556 S
C50 C47 1.413 1_655 S
C50 C51 1.397 . S
C51 C46 1.370 . S
C51 C50 1.397 . S
C51 H72 0.932 . S
C52 Eu38 2.835 . S
C52 O40 1.258 . S
C52 O41 1.246 1_556 S
C52 C46 1.489 . S
C53 O42 1.216 1_554 S
C53 O43 1.279 . S
O54 Eu39 2.472 . S
O54 C67 1.258 . S
O55 Eu39 2.507 1_556 S
O55 C67 1.246 1_556 S
C56 O44 1.239 . S
C56 O45 1.249 . S
O57 Eu39 2.336 1_556 S
O57 C68 1.286 1_556 S
O58 Eu38 2.396 1_554 S
O58 C68 1.212 . S
O59 Eu39 2.389 1_556 S
O59 C69 1.239 . S
O60 Eu38 2.323 . S
O60 C69 1.249 . S
C61 C63 1.370 . S
C61 C66 1.390 . S
C61 C67 1.489 . S
C62 C63 1.397 . S
C62 C64 1.413 . S
C63 C61 1.370 . S
C63 C62 1.397 . S
C63 H73 0.932 . S
C64 C62 1.413 . S
C64 C65 1.344 . S
C64 H74 0.931 . S
C65 C64 1.344 . S
C65 C66 1.423 . S
C66 C61 1.390 . S
C66 C65 1.423 . S
C66 H75 0.930 1_554 S
C67 Eu39 2.835 . S
C67 O54 1.258 . S
C67 O55 1.246 1_554 S
C67 C61 1.489 . S
C68 O57 1.286 1_554 S
C68 O58 1.212 . S
C69 O59 1.239 . S
C69 O60 1.249 . S
H70 C47 0.931 . S
H71 C49 0.930 1_554 S
H72 C51 0.932 . S
H73 C63 0.932 . S
H74 C64 0.931 . S
H75 C66 0.930 1_556 S
Eu76 O78 2.472 . S
Eu76 O79 2.507 . S
Eu76 O81 2.336 . S
Eu76 O82 2.389 . S
Eu76 C90 2.835 . S
Eu76 O96 2.396 . S
Eu76 O98 2.323 . S
Eu77 O80 2.396 . S
Eu77 O83 2.323 . S
Eu77 O92 2.472 . S
Eu77 O93 2.507 . S
Eu77 O95 2.336 . S
Eu77 O97 2.389 . S
Eu77 C105 2.835 . S
O78 Eu76 2.472 . S
O78 C90 1.258 . S
O79 Eu76 2.507 . S
O79 C90 1.246 . S
O80 Eu77 2.396 . S
O80 C91 1.216 . S
O81 Eu76 2.336 . S
O81 C91 1.279 . S
O82 Eu76 2.389 . S
O82 C94 1.239 . S
O83 Eu77 2.323 . S
O83 C94 1.249 . S
C84 C87 1.390 1_455 S
C84 C89 1.370 . S
C84 C90 1.489 . S
C85 C86 1.344 . S
C85 C88 1.413 1_655 S
C85 H108 0.931 . S
C86 C85 1.344 . S
C86 C87 1.423 . S
C87 C84 1.390 1_655 S
C87 C86 1.423 . S
C87 H109 0.930 . S
C88 C85 1.413 1_455 S
C88 C89 1.397 . S
C89 C84 1.370 . S
C89 C88 1.397 . S
C89 H110 0.932 . S
C90 Eu76 2.835 . S
C90 O78 1.258 . S
C90 O79 1.246 . S
C90 C84 1.489 . S
C91 O80 1.216 . S
C91 O81 1.279 . S
O92 Eu77 2.472 . S
O92 C105 1.258 . S
O93 Eu77 2.507 . S
O93 C105 1.246 . S
C94 O82 1.239 . S
C94 O83 1.249 . S
O95 Eu77 2.336 . S
O95 C106 1.279 . S
O96 Eu76 2.396 . S
O96 C106 1.216 . S
O97 Eu77 2.389 . S
O97 C107 1.239 . S
O98 Eu76 2.323 . S
O98 C107 1.249 . S
C99 C101 1.370 . S
C99 C104 1.390 . S
C99 C105 1.489 . S
C100 C101 1.397 . S
C100 C102 1.413 . S
C101 C99 1.370 . S
C101 C100 1.397 . S
C101 H111 0.932 . S
C102 C100 1.413 . S
C102 C103 1.344 . S
C102 H112 0.931 . S
C103 C102 1.344 . S
C103 C104 1.423 . S
C104 C99 1.390 . S
C104 C103 1.423 . S
C104 H113 0.930 . S
C105 Eu77 2.835 . S
C105 O92 1.258 . S
C105 O93 1.246 . S
C105 C99 1.489 . S
C106 O95 1.279 . S
C106 O96 1.216 . S
C107 O97 1.239 . S
C107 O98 1.249 . S
H108 C85 0.931 . S
H109 C87 0.930 . S
H110 C89 0.932 . S
H111 C101 0.932 . S
H112 C102 0.931 . S
H113 C104 0.930 . S
Eu114 O116 2.472 . S
Eu114 O117 2.507 . S
Eu114 O119 2.336 . S
Eu114 O120 2.389 . S
Eu114 C128 2.835 . S
Eu114 O134 2.396 . S
Eu114 O136 2.323 . S
Eu115 O118 2.396 . S
Eu115 O121 2.323 . S
Eu115 O130 2.472 . S
Eu115 O131 2.507 . S
Eu115 O133 2.336 . S
Eu115 O135 2.389 . S
Eu115 C143 2.835 . S
O116 Eu114 2.472 . S
O116 C128 1.258 . S
O117 Eu114 2.507 . S
O117 C128 1.246 . S
O118 Eu115 2.396 . S
O118 C129 1.216 . S
O119 Eu114 2.336 . S
O119 C129 1.279 . S
O120 Eu114 2.389 . S
O120 C132 1.239 . S
O121 Eu115 2.323 . S
O121 C132 1.249 . S
C122 C125 1.390 . S
C122 C127 1.370 . S
C122 C128 1.489 . S
C123 C124 1.344 . S
C123 C126 1.413 . S
C123 H146 0.931 . S
C124 C123 1.344 . S
C124 C125 1.423 . S
C125 C122 1.390 . S
C125 C124 1.423 . S
C125 H147 0.930 . S
C126 C123 1.413 . S
C126 C127 1.397 . S
C127 C122 1.370 . S
C127 C126 1.397 . S
C127 H148 0.932 . S
C128 Eu114 2.835 . S
C128 O116 1.258 . S
C128 O117 1.246 . S
C128 C122 1.489 . S
C129 O118 1.216 . S
C129 O119 1.279 . S
O130 Eu115 2.472 . S
O130 C143 1.258 . S
O131 Eu115 2.507 . S
O131 C143 1.246 . S
C132 O120 1.239 . S
C132 O121 1.249 . S
O133 Eu115 2.336 . S
O133 C144 1.279 . S
O134 Eu114 2.396 . S
O134 C144 1.216 . S
O135 Eu115 2.389 . S
O135 C145 1.239 . S
O136 Eu114 2.323 . S
O136 C145 1.249 . S
C137 C139 1.370 . S
C137 C142 1.390 1_655 S
C137 C143 1.489 . S
C138 C139 1.397 . S
C138 C140 1.413 1_655 S
C139 C137 1.370 . S
C139 C138 1.397 . S
C139 H149 0.932 . S
C140 C138 1.413 1_455 S
C140 C141 1.344 . S
C140 H150 0.931 . S
C141 C140 1.344 . S
C141 C142 1.423 . S
C142 C137 1.390 1_455 S
C142 C141 1.423 . S
C142 H151 0.930 . S
C143 Eu115 2.835 . S
C143 O130 1.258 . S
C143 O131 1.246 . S
C143 C137 1.489 . S
C144 O133 1.279 . S
C144 O134 1.216 . S
C145 O135 1.239 . S
C145 O136 1.249 . S
H146 C123 0.931 . S
H147 C125 0.930 . S
H148 C127 0.932 . S
H149 C139 0.932 . S
H150 C140 0.931 . S
H151 C142 0.930 . S
H152 C153 0.951 . S
C153 H152 0.951 . S
C153 C159 1.265 . S
H154 C159 0.950 . S
H155 C163 0.949 . S
H156 C164 0.950 . S
H157 C165 0.951 . S
H158 C166 0.951 . S
C159 C153 1.265 . S
C159 H154 0.950 . S
C159 C160 1.478 . S
C160 C159 1.478 . S
C160 C161 1.397 . S
C160 C177 1.394 1_556 S
C161 C160 1.397 . S
C161 C162 1.438 . S
C161 C166 1.429 . S
C162 C161 1.438 . S
C162 C163 1.428 . S
C162 C175 1.394 1_556 S
C163 H155 0.949 . S
C163 C162 1.428 . S
C163 C164 1.345 . S
C164 H156 0.950 . S
C164 C163 1.345 . S
C164 C165 1.424 . S
C165 H157 0.951 . S
C165 C164 1.424 . S
C165 C166 1.347 . S
C166 H158 0.951 . S
C166 C161 1.429 . S
C166 C165 1.347 . S
H167 C168 0.951 . S
C168 H167 0.951 . S
C168 C174 1.265 . S
H169 C174 0.950 . S
H170 C178 0.949 . S
H171 C179 0.950 . S
H172 C180 0.951 . S
H173 C181 0.951 . S
C174 C168 1.265 . S
C174 H169 0.950 . S
C174 C175 1.478 . S
C175 C162 1.394 1_554 S
C175 C174 1.478 . S
C175 C176 1.397 . S
C176 C175 1.397 . S
C176 C177 1.438 . S
C176 C181 1.429 . S
C177 C160 1.394 1_554 S
C177 C176 1.438 . S
C177 C178 1.428 . S
C178 H170 0.949 . S
C178 C177 1.428 . S
C178 C179 1.345 . S
C179 H171 0.950 . S
C179 C178 1.345 . S
C179 C180 1.424 . S
C180 H172 0.951 . S
C180 C179 1.424 . S
C180 C181 1.347 . S
C181 H173 0.951 . S
C181 C176 1.429 . S
C181 C180 1.347 . S
H182 C183 0.951 . S
C183 H182 0.951 . S
C183 C189 1.265 . S
H184 C189 0.950 . S
H185 C193 0.949 . S
H186 C194 0.950 . S
H187 C195 0.951 . S
H188 C196 0.951 . S
C189 C183 1.265 . S
C189 H184 0.950 . S
C189 C190 1.478 . S
C190 C189 1.478 . S
C190 C191 1.397 . S
C190 C207 1.394 1_556 S
C191 C190 1.397 . S
C191 C192 1.438 . S
C191 C196 1.429 . S
C192 C191 1.438 . S
C192 C193 1.428 . S
C192 C205 1.394 1_556 S
C193 H185 0.949 . S
C193 C192 1.428 . S
C193 C194 1.345 . S
C194 H186 0.950 . S
C194 C193 1.345 . S
C194 C195 1.424 . S
C195 H187 0.951 . S
C195 C194 1.424 . S
C195 C196 1.347 . S
C196 H188 0.951 . S
C196 C191 1.429 . S
C196 C195 1.347 . S
H197 C198 0.951 . S
C198 H197 0.951 . S
C198 C204 1.265 . S
H199 C204 0.950 . S
H200 C208 0.949 . S
H201 C209 0.950 . S
H202 C210 0.951 . S
H203 C211 0.951 . S
C204 C198 1.265 . S
C204 H199 0.950 . S
C204 C205 1.478 . S
C205 C192 1.394 1_554 S
C205 C204 1.478 . S
C205 C206 1.397 . S
C206 C205 1.397 . S
C206 C207 1.438 . S
C206 C211 1.429 . S
C207 C190 1.394 1_554 S
C207 C206 1.438 . S
C207 C208 1.428 . S
C208 H200 0.949 . S
C208 C207 1.428 . S
C208 C209 1.345 . S
C209 H201 0.950 . S
C209 C208 1.345 . S
C209 C210 1.424 . S
C210 H202 0.951 . S
C210 C209 1.424 . S
C210 C211 1.347 . S
C211 H203 0.951 . S
C211 C206 1.429 . S
C211 C210 1.347 . S
H212 C213 0.951 . S
C213 H212 0.951 . S
C213 C219 1.265 . S
H214 C219 0.950 . S
H215 C223 0.949 . S
H216 C224 0.950 . S
H217 C225 0.951 . S
H218 C226 0.951 . S
C219 C213 1.265 . S
C219 H214 0.950 . S
C219 C220 1.478 . S
C220 C219 1.478 . S
C220 C221 1.397 . S
C220 C237 1.394 . S
C221 C220 1.397 . S
C221 C222 1.438 . S
C221 C226 1.429 . S
C222 C221 1.438 . S
C222 C223 1.428 . S
C222 C235 1.394 . S
C223 H215 0.949 . S
C223 C222 1.428 . S
C223 C224 1.345 . S
C224 H216 0.950 . S
C224 C223 1.345 . S
C224 C225 1.424 . S
C225 H217 0.951 . S
C225 C224 1.424 . S
C225 C226 1.347 . S
C226 H218 0.951 . S
C226 C221 1.429 . S
C226 C225 1.347 . S
H227 C228 0.951 . S
C228 H227 0.951 . S
C228 C234 1.265 . S
H229 C234 0.950 . S
H230 C238 0.949 . S
H231 C239 0.950 . S
H232 C240 0.951 . S
H233 C241 0.951 . S
C234 C228 1.265 . S
C234 H229 0.950 . S
C234 C235 1.478 . S
C235 C222 1.394 . S
C235 C234 1.478 . S
C235 C236 1.397 . S
C236 C235 1.397 . S
C236 C237 1.438 . S
C236 C241 1.429 . S
C237 C220 1.394 . S
C237 C236 1.438 . S
C237 C238 1.428 . S
C238 H230 0.949 . S
C238 C237 1.428 . S
C238 C239 1.345 . S
C239 H231 0.950 . S
C239 C238 1.345 . S
C239 C240 1.424 . S
C240 H232 0.951 . S
C240 C239 1.424 . S
C240 C241 1.347 . S
C241 H233 0.951 . S
C241 C236 1.429 . S
C241 C240 1.347 . S
H242 C243 0.951 . S
C243 H242 0.951 . S
C243 C249 1.265 . S
H244 C249 0.950 . S
H245 C253 0.949 . S
H246 C254 0.950 . S
H247 C255 0.951 . S
H248 C256 0.951 . S
C249 C243 1.265 . S
C249 H244 0.950 . S
C249 C250 1.478 . S
C250 C249 1.478 . S
C250 C251 1.397 . S
C250 C267 1.394 . S
C251 C250 1.397 . S
C251 C252 1.438 . S
C251 C256 1.429 . S
C252 C251 1.438 . S
C252 C253 1.428 . S
C252 C265 1.394 . S
C253 H245 0.949 . S
C253 C252 1.428 . S
C253 C254 1.345 . S
C254 H246 0.950 . S
C254 C253 1.345 . S
C254 C255 1.424 . S
C255 H247 0.951 . S
C255 C254 1.424 . S
C255 C256 1.347 . S
C256 H248 0.951 . S
C256 C251 1.429 . S
C256 C255 1.347 . S
H257 C258 0.951 . S
C258 H257 0.951 . S
C258 C264 1.265 . S
H259 C264 0.950 . S
H260 C268 0.949 . S
H261 C269 0.950 . S
H262 C270 0.951 . S
H263 C271 0.951 . S
C264 C258 1.265 . S
C264 H259 0.950 . S
C264 C265 1.478 . S
C265 C252 1.394 . S
C265 C264 1.478 . S
C265 C266 1.397 . S
C266 C265 1.397 . S
C266 C267 1.438 . S
C266 C271 1.429 . S
C267 C250 1.394 . S
C267 C266 1.438 . S
C267 C268 1.428 . S
C268 H260 0.949 . S
C268 C267 1.428 . S
C268 C269 1.345 . S
C269 H261 0.950 . S
C269 C268 1.345 . S
C269 C270 1.424 . S
C270 H262 0.951 . S
C270 C269 1.424 . S
C270 C271 1.347 . S
C271 H263 0.951 . S
C271 C266 1.429 . S
C271 C270 1.347 . S
H272 C273 0.951 . S
C273 H272 0.951 . S
C273 C279 1.265 1_554 S
H274 C279 0.950 . S
H275 C283 0.949 . S
H276 C284 0.950 . S
H277 C285 0.951 . S
H278 C286 0.951 . S
C279 C273 1.265 1_556 S
C279 H274 0.950 . S
C279 C280 1.478 . S
C280 C279 1.478 . S
C280 C281 1.397 1_556 S
C280 C297 1.394 . S
C281 C280 1.397 1_554 S
C281 C282 1.438 . S
C281 C286 1.429 . S
C282 C281 1.438 . S
C282 C283 1.428 . S
C282 C295 1.394 . S
C283 H275 0.949 . S
C283 C282 1.428 . S
C283 C284 1.345 . S
C284 H276 0.950 . S
C284 C283 1.345 . S
C284 C285 1.424 . S
C285 H277 0.951 . S
C285 C284 1.424 . S
C285 C286 1.347 . S
C286 H278 0.951 . S
C286 C281 1.429 . S
C286 C285 1.347 . S
H287 C288 0.929 1_556 S
C288 H287 0.929 1_554 S
C288 C294 1.266 . S
H289 C294 0.950 . S
H290 C298 0.949 . S
H291 C299 0.950 . S
H292 C300 0.951 . S
H293 C301 0.951 . S
C294 C288 1.266 . S
C294 H289 0.950 . S
C294 C295 1.478 . S
C295 C282 1.394 . S
C295 C294 1.478 . S
C295 C296 1.397 1_554 S
C296 C295 1.397 1_556 S
C296 C297 1.438 . S
C296 C301 1.429 . S
C297 C280 1.394 . S
C297 C296 1.438 . S
C297 C298 1.428 . S
C298 H290 0.949 . S
C298 C297 1.428 . S
C298 C299 1.345 . S
C299 H291 0.950 . S
C299 C298 1.345 . S
C299 C300 1.424 . S
C300 H292 0.951 . S
C300 C299 1.424 . S
C300 C301 1.347 . S
C301 H293 0.951 . S
C301 C296 1.429 . S
C301 C300 1.347 . S
H302 C303 0.951 . S
C303 H302 0.951 . S
C303 C309 1.265 . S
H304 C309 0.950 . S
H305 C313 0.949 . S
H306 C314 0.950 . S
H307 C315 0.951 . S
H308 C316 0.951 . S
C309 C303 1.265 . S
C309 H304 0.950 . S
C309 C310 1.478 . S
C310 C309 1.478 . S
C310 C311 1.397 . S
C310 C327 1.394 . S
C311 C310 1.397 . S
C311 C312 1.438 . S
C311 C316 1.429 . S
C312 C311 1.438 . S
C312 C313 1.428 . S
C312 C325 1.394 . S
C313 H305 0.949 . S
C313 C312 1.428 . S
C313 C314 1.345 . S
C314 H306 0.950 . S
C314 C313 1.345 . S
C314 C315 1.424 . S
C315 H307 0.951 . S
C315 C314 1.424 . S
C315 C316 1.347 . S
C316 H308 0.951 . S
C316 C311 1.429 . S
C316 C315 1.347 . S
H317 C318 0.951 . S
C318 H317 0.951 . S
C318 C324 1.265 . S
H319 C324 0.950 . S
H320 C328 0.949 . S
H321 C329 0.950 . S
H322 C330 0.951 . S
H323 C331 0.951 . S
C324 C318 1.265 . S
C324 H319 0.950 . S
C324 C325 1.478 . S
C325 C312 1.394 . S
C325 C324 1.478 . S
C325 C326 1.397 . S
C326 C325 1.397 . S
C326 C327 1.438 . S
C326 C331 1.429 . S
C327 C310 1.394 . S
C327 C326 1.438 . S
C327 C328 1.428 . S
C328 H320 0.949 . S
C328 C327 1.428 . S
C328 C329 1.345 . S
C329 H321 0.950 . S
C329 C328 1.345 . S
C329 C330 1.424 . S
C330 H322 0.951 . S
C330 C329 1.424 . S
C330 C331 1.347 . S
C331 H323 0.951 . S
C331 C326 1.429 . S
C331 C330 1.347 . S
H332 C333 0.951 . S
C333 H332 0.951 . S
C333 C339 1.265 1_556 S
H334 C339 0.950 . S
H335 C343 0.949 1_655 S
H336 C344 0.950 . S
H337 C345 0.951 . S
H338 C346 0.951 . S
C339 C333 1.265 1_554 S
C339 H334 0.950 . S
C339 C340 1.478 . S
C340 C339 1.478 . S
C340 C341 1.397 . S
C340 C357 1.394 1_454 S
C341 C340 1.397 . S
C341 C342 1.438 1_545 S
C341 C346 1.429 . S
C342 C341 1.438 1_565 S
C342 C343 1.428 . S
C342 C355 1.394 1_454 S
C343 H335 0.949 1_455 S
C343 C342 1.428 . S
C343 C344 1.345 . S
C344 H336 0.950 . S
C344 C343 1.345 . S
C344 C345 1.424 1_565 S
C345 H337 0.951 . S
C345 C344 1.424 1_545 S
C345 C346 1.347 . S
C346 H338 0.951 . S
C346 C341 1.429 . S
C346 C345 1.347 . S
H347 C348 0.951 . S
C348 H347 0.951 . S
C348 C354 1.265 1_554 S
H349 C354 0.950 . S
H350 C358 0.949 1_455 S
H351 C359 0.950 . S
H352 C360 0.951 . S
H353 C361 0.951 . S
C354 C348 1.265 1_556 S
C354 H349 0.950 . S
C354 C355 1.478 . S
C355 C342 1.394 1_656 S
C355 C354 1.478 . S
C355 C356 1.397 . S
C356 C355 1.397 . S
C356 C357 1.438 1_565 S
C356 C361 1.429 . S
C357 C340 1.394 1_656 S
C357 C356 1.438 1_545 S
C357 C358 1.428 . S
C358 H350 0.949 1_655 S
C358 C357 1.428 . S
C358 C359 1.345 . S
C359 H351 0.950 . S
C359 C358 1.345 . S
C359 C360 1.424 1_545 S
C360 H352 0.951 . S
C360 C359 1.424 1_565 S
C360 C361 1.347 . S
C361 H353 0.951 . S
C361 C356 1.429 . S
C361 C360 1.347 . S
H362 C363 0.951 . S
C363 H362 0.951 . S
C363 C369 1.265 . S
H364 C369 0.950 . S
H365 C373 0.949 . S
H366 C374 0.950 1_565 S
H367 C375 0.951 . S
H368 C376 0.951 . S
C369 C363 1.265 . S
C369 H364 0.950 . S
C369 C370 1.478 . S
C370 C369 1.478 . S
C370 C371 1.397 1_655 S
C370 C387 1.394 . S
C371 C370 1.397 1_455 S
C371 C372 1.438 1_545 S
C371 C376 1.429 . S
C372 C371 1.438 1_565 S
C372 C373 1.428 . S
C372 C385 1.394 . S
C373 H365 0.949 . S
C373 C372 1.428 . S
C373 C374 1.345 1_565 S
C374 H366 0.950 1_545 S
C374 C373 1.345 1_545 S
C374 C375 1.424 . S
C375 H367 0.951 . S
C375 C374 1.424 . S
C375 C376 1.347 . S
C376 H368 0.951 . S
C376 C371 1.429 . S
C376 C375 1.347 . S
H377 C378 0.951 . S
C378 H377 0.951 . S
C378 C384 1.265 . S
H379 C384 0.950 . S
H380 C388 0.949 . S
H381 C389 0.950 1_545 S
H382 C390 0.951 . S
H383 C391 0.951 . S
C384 C378 1.265 . S
C384 H379 0.950 . S
C384 C385 1.478 . S
C385 C372 1.394 . S
C385 C384 1.478 . S
C385 C386 1.397 1_455 S
C386 C385 1.397 1_655 S
C386 C387 1.438 1_565 S
C386 C391 1.429 . S
C387 C370 1.394 . S
C387 C386 1.438 1_545 S
C387 C388 1.428 . S
C388 H380 0.949 . S
C388 C387 1.428 . S
C388 C389 1.345 1_545 S
C389 H381 0.950 1_565 S
C389 C388 1.345 1_565 S
C389 C390 1.424 . S
C390 H382 0.951 . S
C390 C389 1.424 . S
C390 C391 1.347 . S
C391 H383 0.951 . S
C391 C386 1.429 . S
C391 C390 1.347 . S
H392 C393 0.951 . S
C393 H392 0.951 . S
C393 C399 1.265 . S
H394 C399 0.950 . S
H395 C403 0.949 . S
H396 C404 0.950 . S
H397 C405 0.951 . S
H398 C406 0.951 . S
C399 C393 1.265 . S
C399 H394 0.950 . S
C399 C400 1.478 . S
C400 C399 1.478 . S
C400 C401 1.397 . S
C400 C417 1.394 . S
C401 C400 1.397 . S
C401 C402 1.438 . S
C401 C406 1.429 . S
C402 C401 1.438 . S
C402 C403 1.428 . S
C402 C415 1.394 . S
C403 H395 0.949 . S
C403 C402 1.428 . S
C403 C404 1.345 . S
C404 H396 0.950 . S
C404 C403 1.345 . S
C404 C405 1.424 . S
C405 H397 0.951 . S
C405 C404 1.424 . S
C405 C406 1.347 . S
C406 H398 0.951 . S
C406 C401 1.429 . S
C406 C405 1.347 . S
H407 C408 0.951 . S
C408 H407 0.951 . S
C408 C414 1.265 . S
H409 C414 0.950 . S
H410 C418 0.949 . S
H411 C419 0.950 . S
H412 C420 0.951 . S
H413 C421 0.951 . S
C414 C408 1.265 . S
C414 H409 0.950 . S
C414 C415 1.478 . S
C415 C402 1.394 . S
C415 C414 1.478 . S
C415 C416 1.397 . S
C416 C415 1.397 . S
C416 C417 1.438 . S
C416 C421 1.429 . S
C417 C400 1.394 . S
C417 C416 1.438 . S
C417 C418 1.428 . S
C418 H410 0.949 . S
C418 C417 1.428 . S
C418 C419 1.345 . S
C419 H411 0.950 . S
C419 C418 1.345 . S
C419 C420 1.424 . S
C420 H412 0.951 . S
C420 C419 1.424 . S
C420 C421 1.347 . S
C421 H413 0.951 . S
C421 C416 1.429 . S
C421 C420 1.347 . S
H422 C423 0.951 . S
C423 H422 0.951 . S
C423 C429 1.265 . S
H424 C429 0.950 . S
H425 C433 0.949 . S
H426 C434 0.950 1_545 S
H427 C435 0.951 1_545 S
H428 C436 0.951 . S
C429 C423 1.265 . S
C429 H424 0.950 . S
C429 C430 1.478 . S
C430 C429 1.478 . S
C430 C431 1.397 . S
C430 C447 1.394 . S
C431 C430 1.397 . S
C431 C432 1.438 . S
C431 C436 1.429 . S
C432 C431 1.438 . S
C432 C433 1.428 . S
C432 C445 1.394 . S
C433 H425 0.949 . S
C433 C432 1.428 . S
C433 C434 1.345 . S
C434 H426 0.950 1_565 S
C434 C433 1.345 . S
C434 C435 1.424 . S
C435 H427 0.951 1_565 S
C435 C434 1.424 . S
C435 C436 1.347 . S
C436 H428 0.951 . S
C436 C431 1.429 . S
C436 C435 1.347 . S
H437 C438 0.951 . S
C438 H437 0.951 . S
C438 C444 1.265 . S
H439 C444 0.950 . S
H440 C448 0.949 . S
H441 C449 0.950 . S
H442 C450 0.951 . S
H443 C451 0.951 . S
C444 C438 1.265 . S
C444 H439 0.950 . S
C444 C445 1.478 . S
C445 C432 1.394 . S
C445 C444 1.478 . S
C445 C446 1.397 . S
C446 C445 1.397 . S
C446 C447 1.438 . S
C446 C451 1.429 . S
C447 C430 1.394 . S
C447 C446 1.438 . S
C447 C448 1.428 . S
C448 H440 0.949 . S
C448 C447 1.428 . S
C448 C449 1.345 . S
C449 H441 0.950 . S
C449 C448 1.345 . S
C449 C450 1.424 . S
C450 H442 0.951 . S
C450 C449 1.424 . S
C450 C451 1.347 . S
C451 H443 0.951 . S
C451 C446 1.429 . S
C451 C450 1.347 . S
H452 C453 0.951 . S
C453 H452 0.951 . S
C453 C459 1.265 . S
H454 C459 0.950 . S
H455 C463 0.949 . S
H456 C464 0.950 . S
H457 C465 0.951 . S
H458 C466 0.951 . S
C459 C453 1.265 . S
C459 H454 0.950 . S
C459 C460 1.478 . S
C460 C459 1.478 . S
C460 C461 1.397 . S
C460 C477 1.394 . S
C461 C460 1.397 . S
C461 C462 1.438 . S
C461 C466 1.429 . S
C462 C461 1.438 . S
C462 C463 1.428 . S
C462 C475 1.394 . S
C463 H455 0.949 . S
C463 C462 1.428 . S
C463 C464 1.345 . S
C464 H456 0.950 . S
C464 C463 1.345 . S
C464 C465 1.424 . S
C465 H457 0.951 . S
C465 C464 1.424 . S
C465 C466 1.347 . S
C466 H458 0.951 . S
C466 C461 1.429 . S
C466 C465 1.347 . S
H467 C468 0.951 . S
C468 H467 0.951 . S
C468 C474 1.265 . S
H469 C474 0.950 . S
H470 C478 0.949 . S
H471 C479 0.950 . S
H472 C480 0.951 . S
H473 C481 0.951 . S
C474 C468 1.265 . S
C474 H469 0.950 . S
C474 C475 1.478 . S
C475 C462 1.394 . S
C475 C474 1.478 . S
C475 C476 1.397 . S
C476 C475 1.397 . S
C476 C477 1.438 . S
C476 C481 1.429 . S
C477 C460 1.394 . S
C477 C476 1.438 . S
C477 C478 1.428 . S
C478 H470 0.949 . S
C478 C477 1.428 . S
C478 C479 1.345 . S
C479 H471 0.950 . S
C479 C478 1.345 . S
C479 C480 1.424 . S
C480 H472 0.951 . S
C480 C479 1.424 . S
C480 C481 1.347 . S
C481 H473 0.951 . S
C481 C476 1.429 . S
C481 C480 1.347 . S
H482 C483 0.951 . S
C483 H482 0.951 . S
C483 C489 1.265 . S
H484 C489 0.950 . S
H485 C493 0.949 . S
H486 C494 0.950 1_565 S
H487 C495 0.951 1_565 S
H488 C496 0.951 . S
C489 C483 1.265 . S
C489 H484 0.950 . S
C489 C490 1.478 . S
C490 C489 1.478 . S
C490 C491 1.397 . S
C490 C507 1.394 . S
C491 C490 1.397 . S
C491 C492 1.438 . S
C491 C496 1.429 . S
C492 C491 1.438 . S
C492 C493 1.428 . S
C492 C505 1.394 . S
C493 H485 0.949 . S
C493 C492 1.428 . S
C493 C494 1.345 . S
C494 H486 0.950 1_545 S
C494 C493 1.345 . S
C494 C495 1.424 . S
C495 H487 0.951 1_545 S
C495 C494 1.424 . S
C495 C496 1.347 . S
C496 H488 0.951 . S
C496 C491 1.429 . S
C496 C495 1.347 . S
H497 C498 0.951 . S
C498 H497 0.951 . S
C498 C504 1.265 . S
H499 C504 0.950 . S
H500 C508 0.949 . S
H501 C509 0.950 . S
H502 C510 0.951 . S
H503 C511 0.951 . S
C504 C498 1.265 . S
C504 H499 0.950 . S
C504 C505 1.478 . S
C505 C492 1.394 . S
C505 C504 1.478 . S
C505 C506 1.397 . S
C506 C505 1.397 . S
C506 C507 1.438 . S
C506 C511 1.429 . S
C507 C490 1.394 . S
C507 C506 1.438 . S
C507 C508 1.428 . S
C508 H500 0.949 . S
C508 C507 1.428 . S
C508 C509 1.345 . S
C509 H501 0.950 . S
C509 C508 1.345 . S
C509 C510 1.424 . S
C510 H502 0.951 . S
C510 C509 1.424 . S
C510 C511 1.347 . S
C511 H503 0.951 . S
C511 C506 1.429 . S
C511 C510 1.347 . S
H512 C513 0.951 . S
C513 H512 0.951 . S
C513 C519 1.265 . S
H514 C519 0.950 . S
H515 C523 0.949 . S
H516 C524 0.950 . S
H517 C525 0.951 . S
H518 C526 0.951 . S
C519 C513 1.265 . S
C519 H514 0.950 . S
C519 C520 1.478 . S
C520 C519 1.478 . S
C520 C521 1.397 . S
C520 C537 1.394 . S
C521 C520 1.397 . S
C521 C522 1.438 1_455 S
C521 C526 1.429 . S
C522 C521 1.438 1_655 S
C522 C523 1.428 . S
C522 C535 1.394 . S
C523 H515 0.949 . S
C523 C522 1.428 . S
C523 C524 1.345 . S
C524 H516 0.950 . S
C524 C523 1.345 . S
C524 C525 1.424 1_655 S
C525 H517 0.951 . S
C525 C524 1.424 1_455 S
C525 C526 1.347 . S
C526 H518 0.951 . S
C526 C521 1.429 . S
C526 C525 1.347 . S
H527 C528 0.951 . S
C528 H527 0.951 . S
C528 C534 1.265 . S
H529 C534 0.950 . S
H530 C538 0.949 . S
H531 C539 0.950 . S
H532 C540 0.951 . S
H533 C541 0.951 . S
C534 C528 1.265 . S
C534 H529 0.950 . S
C534 C535 1.478 . S
C535 C522 1.394 . S
C535 C534 1.478 . S
C535 C536 1.397 . S
C536 C535 1.397 . S
C536 C537 1.438 1_655 S
C536 C541 1.429 . S
C537 C520 1.394 . S
C537 C536 1.438 1_455 S
C537 C538 1.428 . S
C538 H530 0.949 . S
C538 C537 1.428 . S
C538 C539 1.345 . S
C539 H531 0.950 . S
C539 C538 1.345 . S
C539 C540 1.424 1_455 S
C540 H532 0.951 . S
C540 C539 1.424 1_655 S
C540 C541 1.347 . S
C541 H533 0.951 . S
C541 C536 1.429 . S
C541 C540 1.347 . S
H542 C543 0.951 . S
C543 H542 0.951 . S
C543 C549 1.265 . S
H544 C549 0.950 1_455 S
H545 C553 0.949 . S
H546 C554 0.950 . S
H547 C555 0.951 . S
H548 C556 0.951 . S
C549 C543 1.265 . S
C549 H544 0.950 1_655 S
C549 C550 1.478 . S
C550 C549 1.478 . S
C550 C551 1.397 1_655 S
C550 C567 1.394 . S
C551 C550 1.397 1_455 S
C551 C552 1.438 . S
C551 C556 1.429 . S
C552 C551 1.438 . S
C552 C553 1.428 . S
C552 C565 1.394 . S
C553 H545 0.949 . S
C553 C552 1.428 . S
C553 C554 1.345 . S
C554 H546 0.950 . S
C554 C553 1.345 . S
C554 C555 1.424 . S
C555 H547 0.951 . S
C555 C554 1.424 . S
C555 C556 1.347 . S
C556 H548 0.951 . S
C556 C551 1.429 . S
C556 C555 1.347 . S
H557 C558 0.951 . S
C558 H557 0.951 . S
C558 C564 1.265 . S
H559 C564 0.950 1_655 S
H560 C568 0.949 . S
H561 C569 0.950 . S
H562 C570 0.951 . S
H563 C571 0.951 . S
C564 C558 1.265 . S
C564 H559 0.950 1_455 S
C564 C565 1.478 . S
C565 C552 1.394 . S
C565 C564 1.478 . S
C565 C566 1.397 1_455 S
C566 C565 1.397 1_655 S
C566 C567 1.438 . S
C566 C571 1.429 . S
C567 C550 1.394 . S
C567 C566 1.438 . S
C567 C568 1.428 . S
C568 H560 0.949 . S
C568 C567 1.428 . S
C568 C569 1.345 . S
C569 H561 0.950 . S
C569 C568 1.345 . S
C569 C570 1.424 . S
C570 H562 0.951 . S
C570 C569 1.424 . S
C570 C571 1.347 . S
C571 H563 0.951 . S
C571 C566 1.429 . S
C571 C570 1.347 . S
H572 C573 0.951 . S
C573 H572 0.951 . S
C573 C579 1.265 . S
H574 C579 0.950 . S
H575 C583 0.949 . S
H576 C584 0.950 . S
H577 C585 0.951 . S
H578 C586 0.951 1_455 S
C579 C573 1.265 . S
C579 H574 0.950 . S
C579 C580 1.478 . S
C580 C579 1.478 . S
C580 C581 1.397 1_455 S
C580 C597 1.394 . S
C581 C580 1.397 1_655 S
C581 C582 1.438 . S
C581 C586 1.429 . S
C582 C581 1.438 . S
C582 C583 1.428 . S
C582 C595 1.394 . S
C583 H575 0.949 . S
C583 C582 1.428 . S
C583 C584 1.345 . S
C584 H576 0.950 . S
C584 C583 1.345 . S
C584 C585 1.424 . S
C585 H577 0.951 . S
C585 C584 1.424 . S
C585 C586 1.347 . S
C586 H578 0.951 1_655 S
C586 C581 1.429 . S
C586 C585 1.347 . S
H587 C588 0.951 . S
C588 H587 0.951 . S
C588 C594 1.265 . S
H589 C594 0.950 . S
H590 C598 0.949 . S
H591 C599 0.950 . S
H592 C600 0.951 . S
H593 C601 0.951 1_655 S
C594 C588 1.265 . S
C594 H589 0.950 . S
C594 C595 1.478 . S
C595 C582 1.394 . S
C595 C594 1.478 . S
C595 C596 1.397 1_655 S
C596 C595 1.397 1_455 S
C596 C597 1.438 . S
C596 C601 1.429 . S
C597 C580 1.394 . S
C597 C596 1.438 . S
C597 C598 1.428 . S
C598 H590 0.949 . S
C598 C597 1.428 . S
C598 C599 1.345 . S
C599 H591 0.950 . S
C599 C598 1.345 . S
C599 C600 1.424 . S
C600 H592 0.951 . S
C600 C599 1.424 . S
C600 C601 1.347 . S
C601 H593 0.951 1_455 S
C601 C596 1.429 . S
C601 C600 1.347 . S
H602 C603 0.951 . S
C603 H602 0.951 . S
C603 C609 1.265 . S
H604 C609 0.950 1_655 S
H605 C613 0.949 . S
H606 C614 0.950 . S
H607 C615 0.951 . S
H608 C616 0.951 . S
C609 C603 1.265 . S
C609 H604 0.950 1_455 S
C609 C610 1.478 . S
C610 C609 1.478 . S
C610 C611 1.397 1_455 S
C610 C627 1.394 . S
C611 C610 1.397 1_655 S
C611 C612 1.438 . S
C611 C616 1.429 . S
C612 C611 1.438 . S
C612 C613 1.428 . S
C612 C625 1.394 . S
C613 H605 0.949 . S
C613 C612 1.428 . S
C613 C614 1.345 . S
C614 H606 0.950 . S
C614 C613 1.345 . S
C614 C615 1.424 . S
C615 H607 0.951 . S
C615 C614 1.424 . S
C615 C616 1.347 . S
C616 H608 0.951 . S
C616 C611 1.429 . S
C616 C615 1.347 . S
H617 C618 0.951 . S
C618 H617 0.951 . S
C618 C624 1.265 . S
H619 C624 0.950 1_455 S
H620 C628 0.949 . S
H621 C629 0.950 . S
H622 C630 0.951 . S
H623 C631 0.951 . S
C624 C618 1.265 . S
C624 H619 0.950 1_655 S
C624 C625 1.478 . S
C625 C612 1.394 . S
C625 C624 1.478 . S
C625 C626 1.397 1_655 S
C626 C625 1.397 1_455 S
C626 C627 1.438 . S
C626 C631 1.429 . S
C627 C610 1.394 . S
C627 C626 1.438 . S
C627 C628 1.428 . S
C628 H620 0.949 . S
C628 C627 1.428 . S
C628 C629 1.345 . S
C629 H621 0.950 . S
C629 C628 1.345 . S
C629 C630 1.424 . S
C630 H622 0.951 . S
C630 C629 1.424 . S
C630 C631 1.347 . S
C631 H623 0.951 . S
C631 C626 1.429 . S
C631 C630 1.347 . S
C153 C10 0.841 . S
C168 C27 0.841 . S
C183 C48 0.818 . S
C198 C65 0.818 . S
C213 C103 0.976 . S
C228 C86 0.976 . S
C243 C141 0.976 . S
C258 C124 0.976 . S
C273 C53 1.609 . S
C288 C30 1.612 . S
C303 C144 1.701 . S
C318 C91 1.701 . S
C333 C15 1.623 1_556 S
C348 C68 1.616 . S
C363 C129 1.694 . S
C378 C106 1.694 . S
C393 C132 0.954 . S
C408 C18 0.954 . S
C423 C62 1.789 . S
C438 C100 1.789 . S
C453 C107 0.864 . S
C468 C69 0.872 . S
C483 C12 1.896 . S
C498 C126 1.896 . S
C513 C94 0.843 . S
C528 C56 0.842 . S
C543 C138 1.897 . S
C558 C24 1.897 . S
C573 C31 0.954 . S
C588 C145 0.954 . S
C603 C88 1.895 . S
C618 C50 1.895 . S
