# Generated by pormake.
# Topology smc, (6)-cn, num edge types: 1
# Building blocks:
#     Node 0, Type 0, BuildingBlock: KUMBOL_clean_sbu_0, # of connection points: 6
#     Node 1, Type 0, BuildingBlock: KUMBOL_clean_sbu_0, # of connection points: 6
#     Node 2, Type 0, BuildingBlock: KUMBOL_clean_sbu_0, # of connection points: 6
#     Node 3, Type 0, BuildingBlock: KUMBOL_clean_sbu_0, # of connection points: 6
#     Node 4, Type 0, BuildingBlock: KUMBOL_clean_sbu_0, # of connection points: 6
#     Node 5, Type 0, BuildingBlock: KUMBOL_clean_sbu_0, # of connection points: 6
#     Node 6, Type 0, BuildingBlock: KUMBOL_clean_sbu_0, # of connection points: 6
#     Node 7, Type 0, BuildingBlock: KUMBOL_clean_sbu_0, # of connection points: 6
#     Node 8, Type 0, BuildingBlock: KUMBOL_clean_sbu_0, # of connection points: 6
#     Edge 9, Type (0, 0), BuildingBlock: XIVTED_clean_linker_0, # of connection points: 2
#     Edge 10, Type (0, 0), BuildingBlock: XIVTED_clean_linker_0, # of connection points: 2
#     Edge 11, Type (0, 0), BuildingBlock: XIVTED_clean_linker_0, # of connection points: 2
#     Edge 12, Type (0, 0), BuildingBlock: XIVTED_clean_linker_0, # of connection points: 2
#     Edge 13, Type (0, 0), BuildingBlock: XIVTED_clean_linker_0, # of connection points: 2
#     Edge 14, Type (0, 0), BuildingBlock: XIVTED_clean_linker_0, # of connection points: 2
#     Edge 15, Type (0, 0), BuildingBlock: XIVTED_clean_linker_0, # of connection points: 2
#     Edge 16, Type (0, 0), BuildingBlock: XIVTED_clean_linker_0, # of connection points: 2
#     Edge 17, Type (0, 0), BuildingBlock: XIVTED_clean_linker_0, # of connection points: 2
#     Edge 18, Type (0, 0), BuildingBlock: XIVTED_clean_linker_0, # of connection points: 2
#     Edge 19, Type (0, 0), BuildingBlock: XIVTED_clean_linker_0, # of connection points: 2
#     Edge 20, Type (0, 0), BuildingBlock: XIVTED_clean_linker_0, # of connection points: 2
#     Edge 21, Type (0, 0), BuildingBlock: XIVTED_clean_linker_0, # of connection points: 2
#     Edge 22, Type (0, 0), BuildingBlock: XIVTED_clean_linker_0, # of connection points: 2
#     Edge 23, Type (0, 0), BuildingBlock: XIVTED_clean_linker_0, # of connection points: 2
#     Edge 24, Type (0, 0), BuildingBlock: XIVTED_clean_linker_0, # of connection points: 2
#     Edge 25, Type (0, 0), BuildingBlock: XIVTED_clean_linker_0, # of connection points: 2
#     Edge 26, Type (0, 0), BuildingBlock: XIVTED_clean_linker_0, # of connection points: 2
#     Edge 27, Type (0, 0), BuildingBlock: XIVTED_clean_linker_0, # of connection points: 2
#     Edge 28, Type (0, 0), BuildingBlock: XIVTED_clean_linker_0, # of connection points: 2
#     Edge 29, Type (0, 0), BuildingBlock: XIVTED_clean_linker_0, # of connection points: 2
#     Edge 30, Type (0, 0), BuildingBlock: XIVTED_clean_linker_0, # of connection points: 2
#     Edge 31, Type (0, 0), BuildingBlock: XIVTED_clean_linker_0, # of connection points: 2
#     Edge 32, Type (0, 0), BuildingBlock: XIVTED_clean_linker_0, # of connection points: 2
#     Edge 33, Type (0, 0), BuildingBlock: XIVTED_clean_linker_0, # of connection points: 2
#     Edge 34, Type (0, 0), BuildingBlock: XIVTED_clean_linker_0, # of connection points: 2
#     Edge 35, Type (0, 0), BuildingBlock: XIVTED_clean_linker_0, # of connection points: 2
# Relax obj value: 0.110
# Max RMSD: 0.288
# Mean RMSD: 0.288
data_MOF--net-smc--node1-KUMBOL_clean_sbu_0--edge1-XIVTED_clean_linker_0
_symmetry_space_group_name_H-M    P1
_symmetry_Int_Tables_number       1
_symmetry_cell_setting            triclinic
loop_
_symmetry_equiv_pos_as_xyz
'x, y, z'
_cell_length_a     37.870787
_cell_length_b     37.740629
_cell_length_c     40.645407
_cell_angle_alpha  90.019211
_cell_angle_beta   90.139082
_cell_angle_gamma 119.82455
loop_
_atom_site_label
_atom_site_type_symbol
_atom_site_fract_x
_atom_site_fract_y
_atom_site_fract_z
_atom_type_partial_charge
Gd0 Gd 1.00047 0.39795 0.01139 0.0
Gd1 Gd 0.05139 0.50803 0.99336 0.0
C2 C 0.99204 0.57234 0.04618 0.0
C3 C 0.96805 0.59609 1.0005 0.0
C4 C 1.00001 0.55478 0.99037 0.0
C5 C 1.00601 0.55328 0.02385 0.0
C6 C 0.98093 0.57631 0.9784 0.0
C7 C 0.97336 0.59392 0.03431 0.0
C8 C 0.99669 0.56873 0.07988 0.0
C9 C 1.01436 0.54614 0.0907 0.0
N10 N 1.02411 0.53206 0.0347 0.0
C11 C 0.0279 0.52797 0.06779 0.0
H12 H 0.04063 0.51035 0.07727 0.0
C13 C 1.01126 0.5404 0.93604 0.0
N14 N 1.01353 0.53603 0.96939 0.0
C15 C 0.99149 0.56026 0.92321 0.0
C16 C 0.976 0.57807 0.94448 0.0
H17 H 0.02618 0.53018 0.91898 0.0
H18 H 0.96264 0.6088 0.05111 0.0
H19 H 0.04799 0.37945 0.94935 0.0
H20 H 0.98617 0.58272 0.09774 0.0
H21 H 1.01753 0.54258 0.11678 0.0
H22 H 0.95374 0.61303 0.99169 0.0
H23 H 0.96222 0.37185 0.08763 0.0
H24 H 0.10538 0.31549 0.98824 0.0
H25 H 0.09049 0.34777 0.94134 0.0
H26 H 0.06108 0.29108 0.10043 0.0
H27 H 0.98942 0.56298 0.89686 0.0
H28 H 0.96137 0.59413 0.93444 0.0
H29 H 0.09439 0.29463 0.04766 0.0
H30 H 0.9688 0.33587 0.13585 0.0
N31 N 0.03995 0.36691 1.00073 0.0
C32 C 0.08679 0.32957 0.99199 0.0
C33 C 0.07842 0.34772 0.96546 0.0
C34 C 0.07012 0.32879 0.02284 0.0
C35 C 0.04623 0.34768 0.02642 0.0
C36 C 0.05433 0.36581 0.97018 0.0
N37 N 1.00417 0.36355 0.05845 0.0
C38 C 0.02747 0.34559 0.0561 0.0
C39 C 0.98569 0.33863 0.11364 0.0
C40 C 1.01119 0.3218 0.11218 0.0
C41 C 0.98206 0.35903 0.08626 0.0
C42 C 0.03209 0.32471 0.08305 0.0
H43 H 1.01396 0.30603 0.13344 0.0
O44 O 0.93482 0.36137 0.0173 0.0
O45 O 0.99309 0.45239 1.00351 0.0
O46 O 0.07903 0.49592 0.0412 0.0
O47 O 0.04191 0.42599 0.0541 0.0
O48 O 0.96228 0.41582 0.04295 0.0
O49 O 0.96527 0.34216 0.98288 0.0
O50 O 0.09475 0.55678 0.96154 0.0
O51 O 0.06 0.45412 0.99698 0.0
O52 O 1.00207 0.40607 0.9569 0.0
O53 O 1.01219 0.47157 0.94855 0.0
O54 O 0.08558 0.49204 0.95695 0.0
O55 O 0.10314 0.56294 0.01404 0.0
C56 C 0.96837 0.44726 0.02615 0.0
C57 C 0.05689 0.30698 0.07993 0.0
C58 C 0.07589 0.30903 0.04988 0.0
C59 C 0.93089 0.33306 0.99702 0.0
C60 C 0.90477 0.2907 0.00847 0.0
C61 C 0.92186 0.2686 0.02232 0.0
C62 C 0.86202 0.2729 0.00711 0.0
C63 C 0.83649 0.23355 0.02007 0.0
C64 C 0.89677 0.22949 0.03484 0.0
C65 C 0.85447 0.21212 0.03389 0.0
C66 C 0.07065 0.46366 0.06052 0.0
C67 C 0.08337 0.46105 0.97236 0.0
C68 C 0.11559 0.5811 0.98568 0.0
C69 C 0.12461 0.62445 0.98359 0.0
C70 C 0.09468 0.63288 0.97194 0.0
C71 C 0.16304 0.65791 0.99264 0.0
C72 C 0.16982 0.69846 0.99133 0.0
C73 C 0.10079 0.67237 0.97163 0.0
C74 C 0.1379 0.7049 0.98154 0.0
C75 C 0.99911 0.43329 0.93869 0.0
H76 H 0.95455 0.28165 0.02371 0.0
H77 H 0.84873 0.29014 0.99685 0.0
H78 H 0.91018 0.21264 0.04554 0.0
H79 H 0.83574 0.18174 0.04382 0.0
H80 H 0.06666 0.60926 0.96229 0.0
H81 H 0.1874 0.65255 1.00033 0.0
H82 H 0.07691 0.67785 0.96288 0.0
H83 H 0.14233 0.73552 0.98005 0.0
Gd84 Gd 0.65827 0.61618 0.01595 0.0
Gd85 Gd 0.55119 0.56514 0.98834 0.0
C86 C 0.4771 0.43737 0.03323 0.0
C87 C 0.46303 0.39346 0.98572 0.0
C88 C 0.50446 0.46746 0.97999 0.0
C89 C 0.49994 0.47218 0.0133 0.0
C90 C 0.48567 0.42787 0.96592 0.0
C91 C 0.45869 0.3982 0.01927 0.0
C92 C 0.47389 0.44276 0.06685 0.0
C93 C 0.49332 0.48198 0.08 0.0
N94 N 0.51885 0.51045 0.02645 0.0
C95 C 0.51558 0.5155 0.05948 0.0
H96 H 0.52971 0.54496 0.07082 0.0
C97 C 0.52732 0.49723 0.92769 0.0
N98 N 0.52657 0.50129 0.96123 0.0
C99 C 0.51019 0.45875 0.91294 0.0
C100 C 0.48969 0.42388 0.93218 0.0
H101 H 0.53919 0.5234 0.91161 0.0
H102 H 0.44132 0.37129 0.03429 0.0
H103 H 0.68963 0.69126 0.95968 0.0
H104 H 0.4568 0.41683 0.0829 0.0
H105 H 0.49115 0.4865 0.10606 0.0
H106 H 0.44868 0.36298 0.9753 0.0
H107 H 0.67338 0.5923 0.0927 0.0
H108 H 0.75466 0.80629 0.00859 0.0
H109 H 0.72691 0.7661 0.95754 0.0
H110 H 0.76035 0.76937 0.12043 0.0
H111 H 0.51165 0.45606 0.88653 0.0
H112 H 0.47587 0.39407 0.92059 0.0
H113 H 0.76663 0.8072 0.06944 0.0
H114 H 0.70345 0.62699 0.145 0.0
N115 N 0.69506 0.68812 0.01153 0.0
C116 C 0.73826 0.77323 0.00969 0.0
C117 C 0.72272 0.75067 0.98085 0.0
C118 C 0.73342 0.75282 0.03948 0.0
C119 C 0.71181 0.70971 0.03951 0.0
C120 C 0.70147 0.70798 0.9822 0.0
N121 N 0.68873 0.64717 0.06671 0.0
C122 C 0.70872 0.68858 0.06801 0.0
C123 C 0.70494 0.6447 0.12358 0.0
C124 C 0.72397 0.68717 0.1256 0.0
C125 C 0.68782 0.62511 0.09375 0.0
C126 C 0.72652 0.70972 0.09752 0.0
H127 H 0.73721 0.70226 0.14875 0.0
O128 O 0.69149 0.58352 0.02438 0.0
O129 O 0.60292 0.55661 1.00257 0.0
O130 O 0.55987 0.60124 0.03779 0.0
O131 O 0.6273 0.62885 0.05666 0.0
O132 O 0.63287 0.55816 0.04558 0.0
O133 O 0.71246 0.6309 0.98756 0.0
O134 O 0.50736 0.56371 0.95271 0.0
O135 O 0.60614 0.6246 0.9984 0.0
O136 O 0.6566 0.61848 0.96107 0.0
O137 O 0.59184 0.56821 0.94471 0.0
O138 O 0.57233 0.62217 0.95802 0.0
O139 O 0.49447 0.56179 1.00447 0.0
C140 C 0.60359 0.53518 0.02614 0.0
C141 C 0.74673 0.75259 0.09795 0.0
C142 C 0.75025 0.77411 0.06895 0.0
C143 C 0.71929 0.60442 1.00271 0.0
C144 C 0.76174 0.6169 0.01168 0.0
C145 C 0.79024 0.65792 0.0183 0.0
C146 C 0.77432 0.5874 0.01235 0.0
C147 C 0.81527 0.59903 0.01866 0.0
C148 C 0.83083 0.66947 0.02472 0.0
C149 C 0.84339 0.64034 0.02463 0.0
C150 C 0.58974 0.62156 0.06008 0.0
C151 C 0.60344 0.64647 0.97577 0.0
C152 C 0.48009 0.5584 0.97473 0.0
C153 C 0.43747 0.52445 0.96873 0.0
C154 C 0.43099 0.48838 0.95333 0.0
C155 C 0.40286 0.52749 0.97786 0.0
C156 C 0.36298 0.49401 0.97269 0.0
C157 C 0.39204 0.45525 0.94906 0.0
C158 C 0.3583 0.45785 0.95889 0.0
C159 C 0.63112 0.59368 0.93865 0.0
H160 H 0.78124 0.68105 0.01818 0.0
H161 H 0.75251 0.55564 0.0073 0.0
H162 H 0.85273 0.70119 0.02958 0.0
H163 H 0.87505 0.64998 0.02951 0.0
H164 H 0.45586 0.48569 0.94394 0.0
H165 H 0.40685 0.55548 0.9887 0.0
H166 H 0.38797 0.42762 0.93747 0.0
H167 H 0.32824 0.43194 0.95455 0.0
Gd168 Gd 0.44954 0.0604 0.01775 0.0
Gd169 Gd 0.49557 0.99999 0.99035 0.0
C170 C 0.62623 0.04884 0.02643 0.0
C171 C 0.66381 0.06615 0.97514 0.0
C172 C 0.59039 0.03874 0.97465 0.0
C173 C 0.58967 0.03628 0.00876 0.0
C174 C 0.62747 0.05305 0.95754 0.0
C175 C 0.66319 0.06403 0.00948 0.0
C176 C 0.62475 0.04605 0.06072 0.0
C177 C 0.58756 0.03119 0.07668 0.0
N178 N 0.55353 0.02222 0.0247 0.0
C179 C 0.55218 0.01935 0.0583 0.0
H180 H 0.52434 1.00845 0.07161 0.0
C181 C 0.55398 0.02342 0.92456 0.0
N182 N 0.55494 0.02649 0.95812 0.0
C183 C 0.58986 0.03747 0.90658 0.0
C184 C 0.6269 0.05297 0.92313 0.0
H185 H 0.52527 1.00969 0.91157 0.0
H186 H 0.69149 0.07414 0.02272 0.0
H187 H 0.37634 0.01936 0.95977 0.0
H188 H 0.65215 0.05548 0.0751 0.0
H189 H 0.58611 0.02904 0.10325 0.0
H190 H 0.69254 0.07756 0.96239 0.0
H191 H 0.47086 0.10113 0.09351 0.0
H192 H 0.26068 0.96038 0.00774 0.0
H193 H 0.30162 0.97801 0.95681 0.0
H194 H 0.2948 0.99994 0.12061 0.0
H195 H 0.58882 0.03571 0.87999 0.0
H196 H 0.65469 0.06362 0.90916 0.0
H197 H 0.25846 0.96828 0.06903 0.0
H198 H 0.43499 0.09398 0.14595 0.0
N199 N 0.37814 0.02383 0.01203 0.0
C200 C 0.29356 0.97844 0.00922 0.0
C201 C 0.31655 0.98839 0.98042 0.0
C202 C 0.31321 0.9932 0.03946 0.0
C203 C 0.35607 1.01648 0.03999 0.0
C204 C 0.359 1.01182 0.98224 0.0
N205 N 0.41744 0.05814 0.06796 0.0
C206 C 0.37636 0.03433 0.0689 0.0
C207 C 0.41816 0.07683 0.12451 0.0
C208 C 0.37617 0.05045 0.1264 0.0
C209 C 0.43836 0.08089 0.09478 0.0
C210 C 0.3546 0.02937 0.09823 0.0
H211 H 0.36059 0.04742 0.14944 0.0
O212 O 0.48214 0.12628 0.0254 0.0
O213 O 0.50696 0.0615 1.00371 0.0
O214 O 0.46373 0.97599 0.04134 0.0
O215 O 0.44386 0.02199 0.06098 0.0
O216 O 0.50935 0.0943 0.04527 0.0
O217 O 0.43073 0.09906 0.99235 0.0
O218 O 0.47401 0.94639 0.95954 0.0
O219 O 0.43733 0.99767 1.00237 0.0
O220 O 0.45089 0.05919 0.96248 0.0
O221 O 0.50191 0.04446 0.9488 0.0
O222 O 0.44038 0.97248 0.95805 0.0
O223 O 0.50739 0.95037 1.00371 0.0
C224 C 0.53023 0.08479 0.02594 0.0
C225 C 0.31206 1.00452 0.09824 0.0
C226 C 0.29138 0.98648 0.06888 0.0
C227 C 0.45781 0.1325 0.00682 0.0
C228 C 0.44377 0.15955 0.02056 0.0
C229 C 0.40601 0.14309 0.03642 0.0
C230 C 0.46895 0.20235 0.01874 0.0
C231 C 0.45668 0.22861 0.03303 0.0
C232 C 0.39349 0.16885 0.05025 0.0
C233 C 0.41853 0.2112 0.04866 0.0
C234 C 0.44864 0.98999 0.06465 0.0
C235 C 0.41596 0.9758 0.97839 0.0
C236 C 0.49199 0.93047 0.97635 0.0
C237 C 0.5162 0.91626 0.95701 0.0
C238 C 0.52145 0.92411 0.923 0.0
C239 C 0.53222 0.89295 0.97149 0.0
C240 C 0.55386 0.87868 0.95213 0.0
C241 C 0.54313 0.91079 0.9041 0.0
C242 C 0.5591 0.88832 0.91838 0.0
C243 C 0.47807 0.06016 0.94171 0.0
H244 H 0.38625 0.11036 0.03818 0.0
H245 H 0.49839 0.2151 0.0069 0.0
H246 H 0.36426 0.15593 0.06238 0.0
H247 H 0.40787 0.23039 0.0595 0.0
H248 H 0.50823 0.94006 0.91056 0.0
H249 H 0.52764 0.88579 0.99748 0.0
H250 H 0.54684 0.9172 0.87799 0.0
H251 H 0.57444 0.87725 0.90249 0.0
Gd252 Gd 0.66552 0.72935 0.34439 0.0
Gd253 Gd 0.71546 0.83968 0.32741 0.0
C254 C 0.65375 0.90078 0.38186 0.0
C255 C 0.62595 0.92165 0.33693 0.0
C256 C 0.66116 0.88358 0.3258 0.0
C257 C 0.66828 0.88263 0.35913 0.0
C258 C 0.64023 0.90356 0.31438 0.0
C259 C 0.63277 0.92033 0.37057 0.0
C260 C 0.6601 0.89824 0.41542 0.0
C261 C 0.68004 0.87762 0.42571 0.0
N262 N 0.6883 0.86306 0.36944 0.0
C263 C 0.69393 0.86019 0.40242 0.0
H264 H 0.70865 0.8443 0.41159 0.0
C265 C 0.67373 0.87168 0.27116 0.0
N266 N 0.67592 0.86643 0.30438 0.0
C267 C 0.65227 0.89005 0.25885 0.0
C268 C 0.63501 0.90564 0.28055 0.0
H269 H 0.6897 0.86304 0.25381 0.0
H270 H 0.62135 0.93424 0.38772 0.0
H271 H 0.71245 0.71279 0.28072 0.0
H272 H 0.64925 0.91159 0.43357 0.0
H273 H 0.6847 0.87503 0.45169 0.0
H274 H 0.6097 0.93686 0.32858 0.0
H275 H 0.62871 0.70144 0.42077 0.0
H276 H 0.77075 0.64825 0.3164 0.0
H277 H 0.75502 0.6816 0.27081 0.0
H278 H 0.72804 0.62074 0.42887 0.0
H279 H 0.65011 0.89325 0.23257 0.0
H280 H 0.61899 0.92051 0.27092 0.0
H281 H 0.76063 0.62579 0.37543 0.0
H282 H 0.63612 0.6643 0.46779 0.0
N283 N 0.70525 0.69902 0.33194 0.0
C284 C 0.75216 0.66215 0.32101 0.0
C285 C 0.74331 0.6809 0.29521 0.0
C286 C 0.73592 0.66052 0.35221 0.0
C287 C 0.71201 0.67921 0.35691 0.0
C288 C 0.71917 0.69871 0.30103 0.0
N289 N 0.67028 0.69401 0.39036 0.0
C290 C 0.69366 0.67627 0.38695 0.0
C291 C 0.65269 0.66768 0.44526 0.0
C292 C 0.67823 0.65098 0.4427 0.0
C293 C 0.64859 0.68873 0.41857 0.0
C294 C 0.69872 0.65471 0.41317 0.0
H295 H 0.68134 0.63467 0.46342 0.0
O296 O 0.60015 0.69197 0.35163 0.0
O297 O 0.6574 0.78356 0.33754 0.0
O298 O 0.74368 0.82716 0.37471 0.0
O299 O 0.70739 0.75701 0.38693 0.0
O300 O 0.6279 0.74656 0.37718 0.0
O301 O 0.62981 0.67448 0.31502 0.0
O302 O 0.75775 0.8892 0.29562 0.0
O303 O 0.72456 0.78603 0.33025 0.0
O304 O 0.66593 0.73801 0.29004 0.0
O305 O 0.67712 0.804 0.28211 0.0
O306 O 0.75032 0.82475 0.29075 0.0
O307 O 0.76723 0.89459 0.34802 0.0
C308 C 0.63319 0.77796 0.36075 0.0
C309 C 0.72353 0.63716 0.40894 0.0
C310 C 0.74212 0.64008 0.37852 0.0
C311 C 0.59583 0.66453 0.33023 0.0
C312 C 0.57035 0.62169 0.34077 0.0
C313 C 0.58814 0.5993 0.35267 0.0
C314 C 0.52755 0.60357 0.34038 0.0
C315 C 0.50265 0.56354 0.35231 0.0
C316 C 0.56368 0.55954 0.36416 0.0
C317 C 0.52133 0.5418 0.36413 0.0
C318 C 0.7358 0.79474 0.39366 0.0
C319 C 0.74804 0.79344 0.30566 0.0
C320 C 0.77898 0.91321 0.31978 0.0
C321 C 0.78754 0.9564 0.31845 0.0
C322 C 0.75642 0.96448 0.3096 0.0
C323 C 0.82662 0.99004 0.32557 0.0
C324 C 0.8331 0.03049 0.32513 0.0
C325 C 0.76238 1.00391 0.31001 0.0
C326 C 0.80028 0.03666 0.318 0.0
C327 C 0.66365 0.76575 0.27203 0.0
H328 H 0.62089 0.6126 0.3533 0.0
H329 H 0.51374 0.62102 0.33164 0.0
H330 H 0.57762 0.54245 0.37332 0.0
H331 H 0.50312 0.51089 0.37319 0.0
H332 H 0.72753 0.94061 0.30163 0.0
H333 H 0.85168 0.98489 0.33121 0.0
H334 H 0.73764 1.00916 0.3034 0.0
H335 H 0.80443 0.06721 0.31721 0.0
Gd336 Gd 0.32275 0.94555 0.3496 0.0
Gd337 Gd 0.21506 0.89448 0.32391 0.0
C338 C 0.14223 0.76845 0.37212 0.0
C339 C 0.12846 0.72265 0.32599 0.0
C340 C 0.16908 0.79644 0.31825 0.0
C341 C 0.16471 0.80248 0.35132 0.0
C342 C 0.15061 0.75628 0.30531 0.0
C343 C 0.12421 0.72872 0.35928 0.0
C344 C 0.13893 0.77515 0.40545 0.0
C345 C 0.1576 0.8149 0.41745 0.0
N346 N 0.18321 0.84129 0.36341 0.0
C347 C 0.17934 0.84762 0.39609 0.0
H348 H 0.19209 0.8775 0.40645 0.0
C349 C 0.19106 0.82399 0.26519 0.0
N350 N 0.19066 0.82954 0.29858 0.0
C351 C 0.17421 0.78492 0.25158 0.0
C352 C 0.15435 0.75089 0.27177 0.0
H353 H 0.20237 0.84928 0.24825 0.0
H354 H 0.10715 0.70242 0.37498 0.0
H355 H 0.35318 0.02038 0.29335 0.0
H356 H 0.12212 0.74985 0.42214 0.0
H357 H 0.15502 0.82046 0.44322 0.0
H358 H 0.11438 0.69176 0.31644 0.0
H359 H 0.34369 0.9228 0.42488 0.0
H360 H 0.41284 0.13551 0.34277 0.0
H361 H 0.38756 0.09531 0.29143 0.0
H362 H 0.42114 0.09914 0.45427 0.0
H363 H 0.17541 0.78111 0.22529 0.0
H364 H 0.14076 0.72061 0.26105 0.0
H365 H 0.42471 0.13659 0.40368 0.0
H366 H 0.37378 0.95782 0.47715 0.0
N367 N 0.35734 1.01742 0.34528 0.0
C368 C 0.39761 0.10247 0.34375 0.0
C369 C 0.38346 0.0799 0.31475 0.0
C370 C 0.39338 0.08215 0.3735 0.0
C371 C 0.37336 0.03908 0.37336 0.0
C372 C 0.36378 0.03724 0.31595 0.0
N373 N 0.35381 0.97685 0.40009 0.0
C374 C 0.37177 0.01817 0.40166 0.0
C375 C 0.37306 0.97513 0.45619 0.0
C376 C 0.38943 1.01732 0.4587 0.0
C377 C 0.35583 0.95534 0.42644 0.0
C378 C 0.38956 0.0395 0.43109 0.0
H379 H 0.4028 0.03257 0.48177 0.0
O380 O 0.35316 0.90945 0.35282 0.0
O381 O 0.26703 0.88573 0.33716 0.0
O382 O 0.22584 0.93247 0.37254 0.0
O383 O 0.29221 0.95555 0.39221 0.0
O384 O 0.29782 0.88844 0.38018 0.0
O385 O 0.38142 0.96599 0.32602 0.0
O386 O 0.17037 0.89132 0.28839 0.0
O387 O 0.27039 0.95422 0.33286 0.0
O388 O 0.31996 0.94693 0.29454 0.0
O389 O 0.25405 0.89781 0.27923 0.0
O390 O 0.23538 0.95089 0.29302 0.0
O391 O 0.15859 0.89169 0.34013 0.0
C392 C 0.26806 0.86501 0.36121 0.0
C393 C 0.40769 0.08223 0.43181 0.0
C394 C 0.40964 0.10354 0.40303 0.0
C395 C 0.38547 0.93588 0.33732 0.0
C396 C 0.42475 0.94588 0.35287 0.0
C397 C 0.44702 0.98234 0.37065 0.0
C398 C 0.43936 0.91795 0.35117 0.0
C399 C 0.47567 0.9262 0.36753 0.0
C400 C 0.48312 0.99088 0.38649 0.0
C401 C 0.49732 0.96313 0.38505 0.0
C402 C 0.25555 0.95079 0.39527 0.0
C403 C 0.26701 0.97557 0.3101 0.0
C404 C 0.14355 0.88697 0.31051 0.0
C405 C 0.10086 0.85272 0.3054 0.0
C406 C 0.09427 0.81582 0.29155 0.0
C407 C 0.06631 0.85628 0.31373 0.0
C408 C 0.02638 0.82259 0.30928 0.0
C409 C 0.05527 0.78253 0.28797 0.0
C410 C 1.0216 0.78572 0.29699 0.0
C411 C 0.29321 0.92264 0.27255 0.0
H412 H 0.43643 1.00415 0.37246 0.0
H413 H 0.42198 0.8895 0.33783 0.0
H414 H 0.50014 0.01912 0.40009 0.0
H415 H 0.52556 0.97076 0.39749 0.0
H416 H 0.11912 0.81258 0.28283 0.0
H417 H 0.07039 0.88483 0.32341 0.0
H418 H 0.05111 0.75428 0.27758 0.0
H419 H 0.99149 0.75962 0.29327 0.0
Gd420 Gd 0.11568 0.38982 0.35038 0.0
Gd421 Gd 0.16183 0.32995 0.3213 0.0
C422 C 0.29358 0.37926 0.35453 0.0
C423 C 0.32947 0.39597 0.30243 0.0
C424 C 0.25607 0.36857 0.30356 0.0
C425 C 0.25647 0.36648 0.33766 0.0
C426 C 0.29256 0.38264 0.28563 0.0
C427 C 0.32998 0.3943 0.33678 0.0
C428 C 0.29319 0.37681 0.38883 0.0
C429 C 0.25649 0.36197 0.40558 0.0
N430 N 0.22085 0.35248 0.35435 0.0
C431 C 0.22053 0.34989 0.38796 0.0
H432 H 0.19308 0.33924 0.40184 0.0
C433 C 0.21794 0.35241 0.25431 0.0
N434 N 0.22008 0.35603 0.28783 0.0
C435 C 0.2532 0.36624 0.23552 0.0
C436 C 0.2908 0.38205 0.25124 0.0
H437 H 0.18876 0.33845 0.24202 0.0
H438 H 0.3587 0.40458 0.3494 0.0
H439 H 0.04261 0.35052 0.29225 0.0
H440 H 0.32104 0.38646 0.40262 0.0
H441 H 0.25589 0.36009 0.43216 0.0
H442 H 0.35776 0.40721 0.28905 0.0
H443 H 0.13764 0.4273 0.42723 0.0
H444 H 0.9268 0.29294 0.33999 0.0
H445 H 0.96782 0.31058 0.28911 0.0
H446 H 0.96108 0.3291 0.45338 0.0
H447 H 0.25125 0.36408 0.20896 0.0
H448 H 0.31811 0.39252 0.23665 0.0
H449 H 0.9246 0.29962 0.40141 0.0
H450 H 0.10185 0.41896 0.47989 0.0
N451 N 0.04433 0.35434 0.34454 0.0
C452 C 0.95971 0.31042 0.34155 0.0
C453 C 0.98275 0.32037 0.31278 0.0
C454 C 0.97938 0.32431 0.37189 0.0
C455 C 1.02228 0.34686 0.37254 0.0
C456 C 1.02523 0.34301 0.3147 0.0
N457 N 0.08385 0.38647 0.40097 0.0
C458 C 0.04267 0.36352 0.40169 0.0
C459 C 0.08486 0.40303 0.45811 0.0
C460 C 0.0427 0.37755 0.4597 0.0
C461 C 0.10502 0.40776 0.42825 0.0
C462 C 1.02095 0.35802 0.43114 0.0
H463 H 0.02716 0.37395 0.48285 0.0
O464 O 0.14836 0.45541 0.35928 0.0
O465 O 0.17293 0.39101 0.3358 0.0
O466 O 0.13187 0.30607 0.37279 0.0
O467 O 0.10832 0.34918 0.39247 0.0
O468 O 0.1757 0.42323 0.37778 0.0
O469 O 0.09738 0.42932 0.32571 0.0
O470 O 0.13936 0.27599 0.29078 0.0
O471 O 0.1037 0.32759 0.33387 0.0
O472 O 0.11705 0.38969 0.29504 0.0
O473 O 0.16798 0.3751 0.28044 0.0
O474 O 0.10633 0.30271 0.28928 0.0
O475 O 0.17378 0.28036 0.33441 0.0
C476 C 0.19643 0.41402 0.35802 0.0
C477 C 0.97831 0.33405 0.43095 0.0
C478 C 0.95756 0.31724 0.40136 0.0
C479 C 0.12448 0.46232 0.3407 0.0
C480 C 0.11067 0.4894 0.35474 0.0
C481 C 0.07345 0.47307 0.3714 0.0
C482 C 0.13566 0.53217 0.35242 0.0
C483 C 0.12377 0.55855 0.36704 0.0
C484 C 0.06131 0.49894 0.38562 0.0
C485 C 0.0862 0.54129 0.38356 0.0
C486 C 0.11515 0.31845 0.39596 0.0
C487 C 0.08213 0.30613 0.30981 0.0
C488 C 0.15769 0.26018 0.30728 0.0
C489 C 0.18138 0.2457 0.28757 0.0
C490 C 0.18562 0.25292 0.25345 0.0
C491 C 0.19799 0.2228 0.30185 0.0
C492 C 0.21919 0.20832 0.28218 0.0
C493 C 0.2068 0.23933 0.23422 0.0
C494 C 0.22334 0.21726 0.2483 0.0
C495 C 0.14411 0.39096 0.27395 0.0
H496 H 0.05383 0.44035 0.3735 0.0
H497 H 0.16469 0.54483 0.33992 0.0
H498 H 0.0325 0.48612 0.39839 0.0
H499 H 0.07586 0.56058 0.39471 0.0
H500 H 0.17199 0.26861 0.24119 0.0
H501 H 0.19425 0.21617 0.32795 0.0
H502 H 0.20973 0.24524 0.20802 0.0
H503 H 0.23832 0.20599 0.2322 0.0
Gd504 Gd 0.33554 0.06471 0.67822 0.0
Gd505 Gd 0.38529 0.17471 0.65984 0.0
C506 C 0.32407 0.23815 0.71136 0.0
C507 C 0.29638 0.25752 0.66538 0.0
C508 C 0.33152 0.21905 0.65593 0.0
C509 C 0.3385 0.21913 0.68941 0.0
C510 C 0.31073 0.23873 0.6436 0.0
C511 C 0.30313 0.25733 0.69916 0.0
C512 C 0.33057 0.23693 0.74506 0.0
C513 C 0.35065 0.21681 0.75627 0.0
N514 N 0.35844 0.19986 0.70063 0.0
C515 C 0.3644 0.19844 0.73373 0.0
H516 H 0.37934 0.18305 0.74353 0.0
C517 C 0.34446 0.20558 0.60188 0.0
N518 N 0.34631 0.20118 0.63528 0.0
C519 C 0.32318 0.22368 0.58867 0.0
C520 C 0.30578 0.23988 0.60962 0.0
H521 H 0.36047 0.1963 0.58511 0.0
H522 H 0.29175 0.27186 0.7157 0.0
H523 H 0.38295 0.04709 0.61546 0.0
H524 H 0.31982 0.251 0.76263 0.0
H525 H 0.35553 0.21533 0.78237 0.0
H526 H 0.28021 0.27252 0.65632 0.0
H527 H 0.29749 0.03698 0.75441 0.0
H528 H 0.44238 0.98464 0.65328 0.0
H529 H 0.42623 1.01647 0.60678 0.0
H530 H 0.39916 0.95913 0.7657 0.0
H531 H 0.32126 0.22617 0.56227 0.0
H532 H 0.28989 0.25454 0.59929 0.0
H533 H 0.43228 0.96357 0.71264 0.0
H534 H 0.30518 1.00119 0.80222 0.0
N535 N 0.37561 0.03443 0.66686 0.0
C536 C 0.42342 0.99825 0.65733 0.0
C537 C 0.41433 1.01614 0.63103 0.0
C538 C 0.40694 0.99709 0.68834 0.0
C539 C 0.38254 1.01537 0.69232 0.0
C540 C 0.38977 0.03362 0.63614 0.0
N541 N 0.34 0.03004 0.72483 0.0
C542 C 0.36391 1.01278 0.72214 0.0
C543 C 0.3221 1.00449 0.77992 0.0
C544 C 0.34824 0.98844 0.77812 0.0
C545 C 0.31787 0.02482 0.75276 0.0
C546 C 0.36914 0.99198 0.74886 0.0
H547 H 0.35146 0.97271 0.79922 0.0
O548 O 0.2698 0.02854 0.68408 0.0
O549 O 0.32741 0.11892 0.67102 0.0
O550 O 0.41303 0.16288 0.70781 0.0
O551 O 0.3769 0.09294 0.72084 0.0
O552 O 0.29853 0.08255 0.71112 0.0
O553 O 0.30003 1.00854 0.6502 0.0
O554 O 0.42827 0.22338 0.62775 0.0
O555 O 0.39465 0.12125 0.66358 0.0
O556 O 0.33665 0.07265 0.62376 0.0
O557 O 0.34558 0.13766 0.61549 0.0
O558 O 0.41978 0.15903 0.62343 0.0
O559 O 0.43688 0.22996 0.68022 0.0
C560 C 0.30374 0.11383 0.69455 0.0
C561 C 0.39449 0.97493 0.74537 0.0
C562 C 0.41337 0.9775 0.71517 0.0
C563 C 0.26568 0.99984 0.66417 0.0
C564 C 0.23935 0.95767 0.676 0.0
C565 C 0.2563 0.93574 0.69042 0.0
C566 C 0.19659 0.93986 0.67438 0.0
C567 C 0.17093 0.90069 0.68764 0.0
C568 C 0.2311 0.89682 0.70321 0.0
C569 C 0.18881 0.87946 0.702 0.0
C570 C 0.40511 0.13083 0.72726 0.0
C571 C 0.41805 0.12833 0.63897 0.0
C572 C 0.44911 0.24795 0.65178 0.0
C573 C 0.45773 0.29112 0.64952 0.0
C574 C 0.42703 0.29904 0.63898 0.0
C575 C 0.49645 0.3249 0.65743 0.0
C576 C 0.50289 0.36531 0.65601 0.0
C577 C 0.43295 0.33846 0.63844 0.0
C578 C 0.47044 0.37135 0.64716 0.0
C579 C 0.33294 0.09949 0.60567 0.0
H580 H 0.28898 0.94878 0.692 0.0
H581 H 0.18339 0.95695 0.66367 0.0
H582 H 0.24442 0.88011 0.71434 0.0
H583 H 0.17002 0.84921 0.71215 0.0
H584 H 0.3985 0.27504 0.63045 0.0
H585 H 0.52125 0.31989 0.66439 0.0
H586 H 0.40854 0.34359 0.63054 0.0
H587 H 0.47464 0.40189 0.64568 0.0
Gd588 Gd 0.99167 0.28014 0.68609 0.0
Gd589 Gd 0.88591 0.23084 0.65579 0.0
C590 C 0.80969 0.10197 0.69817 0.0
C591 C 0.79712 0.05931 0.65003 0.0
C592 C 0.83883 0.13342 0.64569 0.0
C593 C 0.83329 0.13727 0.67895 0.0
C594 C 0.82034 0.09425 0.6309 0.0
C595 C 0.79176 0.06317 0.68355 0.0
C596 C 0.80514 0.10654 0.73171 0.0
C597 C 0.82381 0.14546 0.74545 0.0
N598 N 0.85172 0.1752 0.69272 0.0
C599 C 0.84683 0.17949 0.72559 0.0
H600 H 0.86005 0.20876 0.73722 0.0
C601 C 0.86275 0.1647 0.59402 0.0
N602 N 0.86141 0.16775 0.62761 0.0
C603 C 0.84591 0.12666 0.57855 0.0
C604 C 0.82508 0.09124 0.59714 0.0
H605 H 0.87496 0.19143 0.57855 0.0
H606 H 0.77384 0.03588 0.69803 0.0
H607 H 0.02547 0.35651 0.63079 0.0
H608 H 0.78741 0.08022 0.74723 0.0
H609 H 0.82039 0.14936 0.77141 0.0
H610 H 0.78302 0.02913 0.63908 0.0
H611 H 1.00759 0.25512 0.76212 0.0
H612 H 0.08268 0.47024 0.68241 0.0
H613 H 0.06028 0.4315 0.63021 0.0
H614 H 0.08399 0.43071 0.79421 0.0
H615 H 0.84787 0.12475 0.55211 0.0
H616 H 0.81148 0.06177 0.58499 0.0
H617 H 0.09084 0.46961 0.74373 0.0
H618 H 0.03457 0.28864 0.81552 0.0
N619 N 0.02674 0.3521 0.68292 0.0
C620 C 0.06731 0.43718 0.68284 0.0
C621 C 0.05478 0.41542 0.65335 0.0
C622 C 0.06124 0.41603 0.71242 0.0
C623 C 0.04112 0.37297 0.71157 0.0
C624 C 0.03488 0.37272 0.65382 0.0
N625 N 1.01974 0.30998 0.73765 0.0
C626 C 0.03773 0.35126 0.73983 0.0
C627 C 0.03532 0.30659 0.79449 0.0
C628 C 0.05172 0.34873 0.79755 0.0
C629 C 1.01992 0.28766 0.76411 0.0
C630 C 0.05372 0.37174 0.76991 0.0
H631 H 0.06364 0.36331 0.82111 0.0
O632 O 1.02217 0.24431 0.69109 0.0
O633 O 0.93663 0.22113 0.67124 0.0
O634 O 0.89359 0.2664 0.70527 0.0
O635 O 0.95873 0.28889 0.72744 0.0
O636 O 0.96483 0.22165 0.71513 0.0
O637 O 0.05116 0.30066 0.66403 0.0
O638 O 0.84308 0.23082 0.61981 0.0
O639 O 0.94072 0.29 0.66728 0.0
O640 O 0.9922 0.28307 0.63119 0.0
O641 O 0.92776 0.23414 0.61305 0.0
O642 O 0.90911 0.28807 0.62549 0.0
O643 O 0.8293 0.22812 0.67141 0.0
C644 C 0.93614 0.19921 0.69494 0.0
C645 C 0.07192 0.41445 0.77126 0.0
C646 C 0.07575 0.43658 0.74254 0.0
C647 C 0.05482 0.27053 0.67583 0.0
C648 C 0.09379 0.28046 0.69187 0.0
C649 C 0.11507 0.31617 0.7107 0.0
C650 C 0.10917 0.25323 0.6894 0.0
C651 C 0.14532 0.26141 0.70601 0.0
C652 C 0.15102 0.32469 0.7268 0.0
C653 C 0.16601 0.29763 0.72457 0.0
C654 C 0.92193 0.284 0.7291 0.0
C655 C 0.93918 0.31215 0.64429 0.0
C656 C 0.8155 0.22545 0.64155 0.0
C657 C 0.77279 0.19195 0.63497 0.0
C658 C 0.76617 0.15612 0.61905 0.0
C659 C 0.73824 0.19512 0.64414 0.0
C660 C 0.69827 0.16202 0.63842 0.0
C661 C 0.72712 0.12338 0.61417 0.0
C662 C 0.69345 0.12611 0.62399 0.0
C663 C 0.96742 0.25903 0.60808 0.0
H664 H 0.10383 0.33741 0.71308 0.0
H665 H 0.09251 0.22534 0.67524 0.0
H666 H 0.1673 0.35237 0.74121 0.0
H667 H 0.19413 0.30527 0.73722 0.0
H668 H 0.79104 0.15331 0.60977 0.0
H669 H 0.74235 0.22292 0.65547 0.0
H670 H 0.72295 0.09593 0.60217 0.0
H671 H 0.66333 0.10049 0.61923 0.0
Gd672 Gd 0.7838 0.72457 0.68278 0.0
Gd673 Gd 0.83077 0.66507 0.65481 0.0
C674 C 0.96147 0.71457 0.69098 0.0
C675 C 0.99917 0.73238 0.63973 0.0
C676 C 0.92567 0.70446 0.63918 0.0
C677 C 0.92491 0.70184 0.67327 0.0
C678 C 0.96282 0.71908 0.62209 0.0
C679 C 0.9985 0.73012 0.67407 0.0
C680 C 0.95992 0.71162 0.72526 0.0
C681 C 0.92267 0.69646 0.74118 0.0
N682 N 0.88871 0.68747 0.68916 0.0
C683 C 0.88729 0.6845 0.72276 0.0
H684 H 0.85939 0.67359 0.73603 0.0
C685 C 0.88931 0.68908 0.58905 0.0
N686 N 0.89021 0.69201 0.62263 0.0
C687 C 0.92525 0.70342 0.5711 0.0
C688 C 0.96229 0.71912 0.58769 0.0
H689 H 0.86061 0.67528 0.57604 0.0
H690 H 0.02681 0.74038 0.68733 0.0
H691 H 0.71229 0.68584 0.62336 0.0
H692 H 0.98732 0.72118 0.73967 0.0
H693 H 0.92118 0.69426 0.76774 0.0
H694 H 0.02794 0.74404 0.62701 0.0
H695 H 0.80353 0.76127 0.75989 0.0
H696 H 0.59522 0.62734 0.66902 0.0
H697 H 0.63763 0.64573 0.61889 0.0
H698 H 0.62632 0.66236 0.78294 0.0
H699 H 0.92426 0.70177 0.5445 0.0
H700 H 0.99013 0.73001 0.57373 0.0
H701 H 0.59131 0.63334 0.73037 0.0
H702 H 0.76628 0.75229 0.81188 0.0
N703 N 0.7126 0.68896 0.67568 0.0
C704 C 0.62807 0.64487 0.67117 0.0
C705 C 0.6519 0.65526 0.64282 0.0
C706 C 0.64689 0.65844 0.70185 0.0
C707 C 0.68977 0.68108 0.70326 0.0
C708 C 0.69432 0.67799 0.6455 0.0
N709 N 0.75051 0.72061 0.73273 0.0
C710 C 0.70932 0.69752 0.73273 0.0
C711 C 0.74991 0.73656 0.78983 0.0
C712 C 0.70773 0.71095 0.79068 0.0
C713 C 0.77089 0.74165 0.76035 0.0
C714 C 0.68679 0.69166 0.76177 0.0
H715 H 0.69155 0.70708 0.81354 0.0
O716 O 0.81549 0.78995 0.69274 0.0
O717 O 0.84156 0.72615 0.6691 0.0
O718 O 0.79919 0.64042 0.70569 0.0
O719 O 0.77538 0.68351 0.72483 0.0
O720 O 0.8431 0.75782 0.71109 0.0
O721 O 0.76664 0.76438 0.65717 0.0
O722 O 0.80952 0.61151 0.62396 0.0
O723 O 0.77223 0.66247 0.6663 0.0
O724 O 0.78655 0.72515 0.62752 0.0
O725 O 0.83723 0.7099 0.61358 0.0
O726 O 0.77611 0.63793 0.62189 0.0
O727 O 0.84271 0.61556 0.66825 0.0
C728 C 0.86445 0.74903 0.69168 0.0
C729 C 0.64418 0.66758 0.76083 0.0
C730 C 0.62425 0.65102 0.7309 0.0
C731 C 0.79264 0.7971 0.67311 0.0
C732 C 0.77769 0.82366 0.6863 0.0
C733 C 0.73925 0.80667 0.70106 0.0
C734 C 0.80262 0.86653 0.68498 0.0
C735 C 0.7894 0.89233 0.69869 0.0
C736 C 0.7258 0.83196 0.71431 0.0
C737 C 0.75059 0.87438 0.71322 0.0
C738 C 0.78193 0.65262 0.72852 0.0
C739 C 0.75137 0.64127 0.64186 0.0
C740 C 0.82751 0.59567 0.64086 0.0
C741 C 0.85197 0.58164 0.62167 0.0
C742 C 0.85755 0.58969 0.58769 0.0
C743 C 0.86802 0.5584 0.63624 0.0
C744 C 0.89003 0.54444 0.61702 0.0
C745 C 0.87952 0.5766 0.56893 0.0
C746 C 0.89554 0.55423 0.58331 0.0
C747 C 0.81363 0.72594 0.60671 0.0
H748 H 0.71967 0.77387 0.7024 0.0
H749 H 0.83257 0.87969 0.67398 0.0
H750 H 0.69605 0.81863 0.72559 0.0
H751 H 0.7392 0.8932 0.72359 0.0
H752 H 0.84436 0.60564 0.57519 0.0
H753 H 0.86324 0.55111 0.66221 0.0
H754 H 0.88347 0.58315 0.54284 0.0
H755 H 0.91121 0.54341 0.56754 0.0
H756 H 0.33616 0.53937 0.94013 0.0
H757 H 0.11444 0.4338 0.02152 0.0
H758 H 0.30226 0.44949 0.0167 0.0
H759 H 0.14015 0.48425 0.92412 0.0
H760 H 0.18396 0.44429 0.02514 0.0
H761 H 0.2665 0.52829 0.94018 0.0
C762 C 0.31439 0.51833 0.95772 0.0
C763 C 0.32517 0.49586 0.97883 0.0
C764 C 0.17425 0.45277 1.00288 0.0
C765 C 0.24498 0.48202 0.97844 0.0
C766 C 0.13447 0.44645 1.00086 0.0
C767 C 0.12131 0.45815 0.97277 0.0
C768 C 0.20148 0.47188 0.97671 0.0
C769 C 0.14879 0.47472 0.9464 0.0
C770 C 0.27444 0.51144 0.95737 0.0
C771 C 0.2953 0.46791 1.00042 0.0
N772 N 0.18752 0.48157 0.94918 0.0
N773 N 0.25662 0.46174 0.99968 0.0
H774 H 0.51721 0.81464 0.99632 0.0
H775 H 0.64125 0.7114 0.93436 0.0
H776 H 0.62565 0.88047 0.9377 0.0
H777 H 0.57312 0.6737 0.02443 0.0
H778 H 0.63631 0.77377 0.93508 0.0
H779 H 0.53722 0.76321 0.00824 0.0
C780 C 0.54559 0.81884 0.9865 0.0
C781 C 0.56925 0.85171 0.9654 0.0
C782 C 0.62364 0.75252 0.95536 0.0
C783 C 0.5918 0.79225 0.97825 0.0
C784 C 0.6269 0.71712 0.95513 0.0
C785 C 0.60995 0.68836 0.98055 0.0
C786 C 0.60125 0.75828 0.98027 0.0
C787 C 0.58911 0.69609 1.00561 0.0
C788 C 0.55689 0.78927 0.99314 0.0
C789 C 0.60569 0.85513 0.95329 0.0
N790 N 0.5849 0.72992 1.00465 0.0
N791 N 0.61537 0.82551 0.95933 0.0
H792 H 0.36741 0.94615 0.03418 0.0
H793 H 0.23881 0.72316 0.95547 0.0
H794 H 0.37272 0.91893 0.93192 0.0
H795 H 0.19116 0.75937 0.03686 0.0
H796 H 0.29779 0.79249 0.95373 0.0
H797 H 0.30914 0.87672 0.04135 0.0
C798 C 0.35602 0.92594 0.01317 0.0
C799 C 0.37533 0.93844 0.98247 0.0
C800 C 0.27477 0.78507 0.97237 0.0
C801 C 0.30987 0.85858 0.99076 0.0
C802 C 0.24153 0.74532 0.97373 0.0
C803 C 0.21034 0.73541 0.99656 0.0
C804 C 0.27709 0.81514 0.9942 0.0
C805 C 0.21485 0.76574 0.01911 0.0
C806 C 0.32299 0.8862 0.01733 0.0
C807 C 0.3591 0.9107 0.95611 0.0
N808 N 0.24749 0.80428 0.01733 0.0
N809 N 0.32792 0.87209 0.96096 0.0
H810 H 0.47278 0.2827 0.08338 0.0
H811 H 0.59348 0.4843 0.97392 0.0
H812 H 0.50134 0.27813 0.98136 0.0
H813 H 0.57873 0.48495 0.07888 0.0
H814 H 0.56264 0.40944 0.97555 0.0
H815 H 0.5127 0.35702 0.08165 0.0
C816 C 0.48751 0.29735 0.06056 0.0
C817 C 0.48338 0.27398 0.03241 0.0
C818 C 0.56627 0.42596 0.99824 0.0
C819 C 0.52975 0.35971 0.03029 0.0
C820 C 0.58355 0.46857 0.99726 0.0
C821 C 0.5867 0.49038 0.02612 0.0
C822 C 0.55237 0.40525 0.02836 0.0
C823 C 0.57538 0.46898 0.05593 0.0
C824 C 0.51059 0.3399 0.05964 0.0
C825 C 0.50382 0.29484 1.0037 0.0
N826 N 0.55808 0.42763 0.05622 0.0
N827 N 0.52581 0.3365 1.00328 0.0
H828 H 0.58258 0.11392 0.07748 0.0
H829 H 0.78591 0.22871 0.96925 0.0
H830 H 0.57986 0.11401 0.97155 0.0
H831 H 0.78399 0.1957 0.07104 0.0
H832 H 0.71111 0.19499 0.96989 0.0
H833 H 0.65706 0.15301 0.07597 0.0
C834 C 0.5978 0.12221 0.05387 0.0
C835 C 0.57524 0.10936 0.02461 0.0
C836 C 0.72714 0.19529 0.99208 0.0
C837 C 0.66049 0.15503 0.02257 0.0
C838 C 0.7698 0.2147 0.99178 0.0
C839 C 0.79127 0.21493 0.0201 0.0
C840 C 0.70584 0.17662 0.02109 0.0
C841 C 0.76875 0.19595 0.04854 0.0
C842 C 0.64028 0.14448 0.05299 0.0
C843 C 0.59631 0.12205 0.99466 0.0
N844 N 0.72744 0.17775 0.04832 0.0
N845 N 0.63782 0.14396 0.99437 0.0
H846 H 0.93196 0.46126 0.07848 0.0
H847 H 0.79965 0.54002 0.06453 0.0
H848 H 0.93523 0.46437 0.9726 0.0
H849 H 0.86343 0.58976 0.97366 0.0
H850 H 0.82964 0.49538 0.06754 0.0
H851 H 0.88758 0.4913 0.0776 0.0
C852 C 0.92289 0.46791 0.05503 0.0
C853 C 0.93863 0.46203 0.02565 0.0
C854 C 0.83714 0.51601 0.04693 0.0
C855 C 0.88666 0.49513 0.02419 0.0
C856 C 0.81968 0.54114 0.04506 0.0
C857 C 0.82934 0.56864 0.01892 0.0
C858 C 0.86424 0.51825 0.02228 0.0
C859 C 0.8554 0.56903 0.99429 0.0
C860 C 0.89722 0.48473 0.05447 0.0
C861 C 0.92508 0.47004 0.99587 0.0
N862 N 0.87178 0.54414 0.9965 0.0
N863 N 0.90058 0.48696 0.99591 0.0
H864 H 0.80309 0.81452 0.25635 0.0
H865 H 0.96731 0.78186 0.35536 0.0
H866 H 0.78049 0.76739 0.35488 0.0
H867 H 0.99762 0.86411 0.27342 0.0
H868 H 0.89782 0.77147 0.35495 0.0
H869 H 0.87201 0.82485 0.25972 0.0
C870 C 0.81237 0.80561 0.27865 0.0
C871 C 0.78581 0.79021 0.30564 0.0
C872 C 0.91984 0.79237 0.33745 0.0
C873 C 0.86549 0.80258 0.30984 0.0
C874 C 0.95962 0.7987 0.33793 0.0
C875 C 0.98856 0.82466 0.31486 0.0
C876 C 0.90849 0.81128 0.31312 0.0
C877 C 0.97661 0.84465 0.29211 0.0
C878 C 0.85199 0.812 0.28067 0.0
C879 C 0.79983 0.77938 0.33376 0.0
N880 N 0.93746 0.8372 0.29158 0.0
N881 N 0.83865 0.78581 0.33525 0.0
H882 H 0.29095 0.21075 0.26656 0.0
H883 H 0.23907 1.00411 0.35965 0.0
H884 H 0.1845 0.14513 0.32738 0.0
H885 H 0.30232 0.03933 0.26725 0.0
H886 H 0.23417 0.0662 0.35942 0.0
H887 H 0.30993 0.15891 0.27824 0.0
C888 C 0.27169 0.18569 0.28269 0.0
C889 C 0.23537 0.18196 0.29531 0.0
C890 C 0.25033 0.06104 0.33973 0.0
C891 C 0.25776 0.12271 0.30935 0.0
C892 C 0.2541 0.02597 0.34027 0.0
C893 C 0.27345 1.01749 0.31448 0.0
C894 C 0.2657 0.08792 0.31298 0.0
C895 C 0.28878 0.04545 0.28837 0.0
C896 C 0.28269 0.15613 0.28934 0.0
C897 C 0.2126 0.14937 0.31694 0.0
N898 N 0.2848 0.07943 0.28835 0.0
N899 N 0.22395 0.12081 0.32302 0.0
H900 H 0.0331 0.27735 0.36523 0.0
H901 H 0.90005 0.05463 0.28657 0.0
H902 H 0.03859 0.24941 0.26323 0.0
H903 H 0.85713 0.09203 0.3704 0.0
H904 H 0.95957 0.12356 0.28379 0.0
H905 H 0.97395 0.2085 0.37238 0.0
C906 C 1.02157 0.25708 0.34428 0.0
C907 C 0.04117 0.2692 0.3137 0.0
C908 C 0.93744 0.11652 0.30313 0.0
C909 C 0.97464 0.18996 0.3219 0.0
C910 C 0.90388 0.07698 0.30504 0.0
C911 C 0.87388 0.06753 0.32892 0.0
C912 C 0.94125 0.14679 0.32543 0.0
C913 C 0.87983 0.09807 0.35179 0.0
C914 C 0.98804 0.21767 0.34841 0.0
C915 C 1.02474 0.24145 0.28735 0.0
N916 N 0.91274 0.13635 0.34946 0.0
N917 N 0.99301 0.20312 0.29216 0.0
H918 H 0.24354 0.81616 0.41473 0.0
H919 H 0.16596 0.60693 0.31419 0.0
H920 H 0.2582 0.81295 0.30995 0.0
H921 H 0.14192 0.61371 0.41698 0.0
H922 H 0.20596 0.68192 0.31252 0.0
H923 H 0.21362 0.74192 0.41664 0.0
C924 C 0.24035 0.79964 0.39209 0.0
C925 C 0.25136 0.82026 0.36195 0.0
C926 C 0.19215 0.66693 0.33547 0.0
C927 C 0.21804 0.73529 0.36387 0.0
C928 C 0.16944 0.62412 0.33647 0.0
C929 C 0.15029 0.60391 0.36573 0.0
C930 C 0.19614 0.68971 0.36403 0.0
C931 C 0.15559 0.62787 0.39376 0.0
C932 C 0.22334 0.75727 0.39315 0.0
C933 C 0.24831 0.79779 0.3335 0.0
N934 N 0.17786 0.6693 0.39219 0.0
N935 N 0.23141 0.75638 0.33506 0.0
H936 H 0.24447 0.44352 0.3029 0.0
H937 H 0.45157 0.52185 0.40316 0.0
H938 H 0.25022 0.44361 0.40874 0.0
H939 H 0.45053 0.56143 0.30383 0.0
H940 H 0.37729 0.48821 0.40413 0.0
H941 H 0.31933 0.48307 0.3011 0.0
C942 C 0.26156 0.45176 0.32573 0.0
C943 C 0.24137 0.43901 0.35601 0.0
C944 C 0.39325 0.50447 0.38217 0.0
C945 C 0.32664 0.48466 0.35421 0.0
C946 C 0.43569 0.52348 0.38152 0.0
C947 C 0.45739 0.54449 0.35334 0.0
C948 C 0.37199 0.50594 0.35432 0.0
C949 C 0.43507 0.54585 0.32614 0.0
C950 C 0.30419 0.47457 0.32471 0.0
C951 C 0.26475 0.45191 0.38489 0.0
N952 N 0.39359 0.52655 0.32719 0.0
N953 N 0.3061 0.47338 0.38329 0.0
H954 H 0.50504 0.90185 0.41918 0.0
H955 H 0.59558 0.7914 0.30827 0.0
H956 H 0.48255 0.88374 0.31481 0.0
H957 H 0.59938 0.79319 0.41416 0.0
H958 H 0.54985 0.82009 0.30983 0.0
H959 H 0.53651 0.859 0.41768 0.0
C960 C 0.50652 0.88866 0.39591 0.0
C961 C 0.49132 0.89676 0.36702 0.0
C962 C 0.56038 0.81394 0.33276 0.0
C963 C 0.52745 0.84716 0.36513 0.0
C964 C 0.58669 0.79782 0.33186 0.0
C965 C 0.60274 0.79182 0.36114 0.0
C966 C 0.55012 0.82414 0.36318 0.0
C967 C 0.58879 0.79878 0.39103 0.0
C968 C 0.52431 0.86391 0.39511 0.0
C969 C 0.49368 0.87825 0.33771 0.0
N970 N 0.56403 0.81538 0.39129 0.0
N971 N 0.51183 0.85475 0.33743 0.0
H972 H 0.67124 0.20739 0.60608 0.0
H973 H 0.44972 0.10159 0.68816 0.0
H974 H 0.63773 0.11755 0.68262 0.0
H975 H 0.47506 0.15224 0.59081 0.0
H976 H 0.51936 0.11233 0.69159 0.0
H977 H 0.6016 0.19637 0.60644 0.0
C978 C 0.64957 0.18638 0.62374 0.0
C979 C 0.6605 0.16394 0.64477 0.0
C980 C 0.50954 0.12082 0.66938 0.0
C981 C 0.58025 0.15013 0.64472 0.0
C982 C 0.46968 0.11435 0.66746 0.0
C983 C 0.45634 0.12597 0.63942 0.0
C984 C 0.5367 0.14 0.64317 0.0
C985 C 0.4838 0.14274 0.61305 0.0
C986 C 0.60961 0.17952 0.62357 0.0
C987 C 0.63071 0.13599 0.66642 0.0
N988 N 0.52259 0.1497 0.61573 0.0
N989 N 0.59201 0.12985 0.66586 0.0
H990 H 0.90641 0.33752 0.69246 0.0
H991 H 0.96272 0.54785 0.60351 0.0
H992 H 0.97705 0.37815 0.60372 0.0
H993 H 0.85336 0.47963 0.66061 0.0
H994 H 0.98152 0.4959 0.61525 0.0
H995 H 0.90071 0.39913 0.69263 0.0
C996 C 0.92278 0.3604 0.67405 0.0
C997 C 0.94448 0.35359 0.64921 0.0
C998 C 0.95366 0.49254 0.62554 0.0
C999 C 0.93588 0.42357 0.64805 0.0
C1000 C 0.94278 0.52218 0.61885 0.0
C1001 C 0.90577 0.51781 0.6304 0.0
C1002 C 0.92785 0.45833 0.64447 0.0
C1003 C 0.88203 0.48439 0.65103 0.0
C1004 C 0.9186 0.39525 0.67371 0.0
C1005 C 0.96163 0.38293 0.62418 0.0
N1006 N 0.89327 0.45575 0.65714 0.0
N1007 N 0.95718 0.41665 0.62431 0.0
H1008 H 0.70817 0.58727 0.59366 0.0
H1009 H 0.52609 0.42416 0.70353 0.0
H1010 H 0.70112 0.61027 0.69656 0.0
H1011 H 0.56951 0.39283 0.61665 0.0
H1012 H 0.5853 0.49361 0.70146 0.0
H1013 H 0.65006 0.51874 0.60009 0.0
C1014 C 0.69396 0.57814 0.61761 0.0
C1015 C 0.71015 0.60448 0.64479 0.0
C1016 C 0.5823 0.47131 0.68325 0.0
C1017 C 0.64337 0.52533 0.6524 0.0
C1018 C 0.54884 0.43159 0.68464 0.0
C1019 C 0.54336 0.40249 0.66058 0.0
C1020 C 0.60987 0.48234 0.65704 0.0
C1021 C 0.57303 0.41401 0.63606 0.0
C1022 C 0.66103 0.53874 0.62132 0.0
C1023 C 0.69009 0.59086 0.6751 0.0
N1024 N 0.60462 0.45312 0.63465 0.0
N1025 N 0.65782 0.55214 0.67817 0.0
H1026 H 0.80281 0.94563 0.74912 0.0
H1027 H 0.92729 0.14911 0.64244 0.0
H1028 H 0.83604 0.94279 0.64814 0.0
H1029 H 0.90925 0.14802 0.74707 0.0
H1030 H 0.8962 0.07419 0.64337 0.0
H1031 H 0.84235 0.02 0.74819 0.0
C1032 C 0.81848 0.96067 0.7267 0.0
C1033 C 0.81579 0.93777 0.6986 0.0
C1034 C 0.89917 0.09035 0.66614 0.0
C1035 C 0.86174 0.02356 0.6974 0.0
C1036 C 0.9166 0.13299 0.66555 0.0
C1037 C 0.91897 0.15436 0.69451 0.0
C1038 C 0.88433 0.06914 0.69595 0.0
C1039 C 0.9066 0.13243 0.72404 0.0
C1040 C 0.84134 1.00325 0.72624 0.0
C1041 C 0.8374 0.95913 0.67043 0.0
N1042 N 0.8892 0.09106 0.72394 0.0
N1043 N 0.85915 1.00081 0.67044 0.0
H1044 H 0.91635 0.77849 0.74351 0.0
H1045 H 0.12056 0.89498 0.63629 0.0
H1046 H 0.91456 0.77915 0.63758 0.0
H1047 H 0.1181 0.8634 0.73852 0.0
H1048 H 0.0457 0.86062 0.63648 0.0
H1049 H 0.9908 0.8184 0.74244 0.0
C1050 C 0.93177 0.78708 0.72 0.0
C1051 C 0.90948 0.77415 0.69061 0.0
C1052 C 0.06163 0.86139 0.65887 0.0
C1053 C 0.99474 0.82076 0.68906 0.0
C1054 C 0.10432 0.88117 0.65883 0.0
C1055 C 0.12567 0.88197 0.68741 0.0
C1056 C 0.04014 0.84288 0.68786 0.0
C1057 C 0.10298 0.86322 0.71583 0.0
C1058 C 0.97425 0.80982 0.71937 0.0
C1059 C 0.9308 0.78725 0.66079 0.0
N1060 N 0.06164 0.84462 0.71534 0.0
N1061 N 0.9723 0.80959 0.66074 0.0
H1062 H 0.26531 0.12761 0.64279 0.0
H1063 H 0.17539 0.23645 0.75679 0.0
H1064 H 0.27158 0.1298 0.7486 0.0
H1065 H 0.15318 0.2209 0.65226 0.0
H1066 H 0.2076 0.19436 0.75407 0.0
H1067 H 0.21995 0.15672 0.6454 0.0
C1068 C 0.25707 0.13424 0.66658 0.0
C1069 C 0.27369 0.12819 0.69551 0.0
C1070 C 0.19535 0.1997 0.73172 0.0
C1071 C 0.22143 0.16089 0.69877 0.0
C1072 C 0.17713 0.22403 0.73322 0.0
C1073 C 0.16174 0.23261 0.70467 0.0
C1074 C 0.19867 0.18377 0.70137 0.0
C1075 C 0.16442 0.21502 0.67493 0.0
C1076 C 0.23098 0.1506 0.66808 0.0
C1077 C 0.26055 0.13541 0.7257 0.0
N1078 N 0.18291 0.19184 0.67399 0.0
N1079 N 0.23592 0.15214 0.72655 0.0
H1080 H 0.16533 0.37546 0.21247 0.0
H1081 H 0.0932 0.5149 0.1154 0.0
H1082 H 0.12567 0.4509 0.26145 0.0
H1083 H 0.10332 0.41561 0.07305 0.0
H1084 H 0.12021 0.50422 0.1676 0.0
H1085 H 0.15828 0.40247 0.15954 0.0
C1086 C 0.15589 0.39816 0.21225 0.0
C1087 C 0.14568 0.41042 0.24159 0.0
C1088 C 0.11744 0.48558 0.14643 0.0
C1089 C 0.13728 0.44158 0.18088 0.0
C1090 C 0.10244 0.49201 0.11653 0.0
C1091 C 0.09648 0.46664 0.08934 0.0
C1092 C 0.12686 0.45386 0.14891 0.0
C1093 C 0.10807 0.43666 0.09274 0.0
C1094 C 0.15159 0.41349 0.18195 0.0
C1095 C 0.13325 0.43994 0.23948 0.0
N1096 N 0.12239 0.43107 0.12174 0.0
N1097 N 0.12914 0.45424 0.20978 0.0
H1098 H 0.68531 0.80416 0.21111 0.0
H1099 H 0.54188 0.59333 0.11591 0.0
H1100 H 0.5977 0.69265 0.25846 0.0
H1101 H 0.63206 0.70308 0.06817 0.0
H1102 H 0.55324 0.63262 0.16698 0.0
H1103 H 0.65838 0.77147 0.15725 0.0
C1104 C 0.65989 0.77323 0.2102 0.0
C1105 C 0.64405 0.751 0.23929 0.0
C1106 C 0.56981 0.64837 0.14506 0.0
C1107 C 0.61323 0.71318 0.17799 0.0
C1108 C 0.56279 0.62593 0.11577 0.0
C1109 C 0.58542 0.64506 0.08754 0.0
C1110 C 0.59998 0.69007 0.14618 0.0
C1111 C 0.61336 0.68727 0.08922 0.0
C1112 C 0.64464 0.75439 0.17949 0.0
C1113 C 0.61128 0.71077 0.23663 0.0
N1114 N 0.62015 0.70816 0.11796 0.0
N1115 N 0.59728 0.69314 0.20672 0.0
H1116 H 0.38632 0.91096 0.07605 0.0
H1117 H 0.34107 0.99325 0.24076 0.0
H1118 H 0.4711 0.02266 0.12495 0.0
H1119 H 0.28354 0.86299 0.22717 0.0
H1120 H 0.38089 1.0034 0.19139 0.0
H1121 H 0.34349 0.88992 0.12599 0.0
C1122 C 0.39679 0.93027 0.09767 0.0
C1123 C 0.43249 0.96862 0.09636 0.0
C1124 C 0.35952 0.97248 0.19896 0.0
C1125 C 0.38305 0.9456 0.15279 0.0
C1126 C 0.3365 0.96666 0.22715 0.0
C1127 C 0.30923 0.92724 0.23846 0.0
C1128 C 0.35553 0.93868 0.18137 0.0
C1129 C 0.30412 0.89395 0.21923 0.0
C1130 C 0.37205 0.91848 0.12599 0.0
C1131 C 0.4441 0.99271 0.12493 0.0
N1132 N 0.3273 0.90037 0.19162 0.0
N1133 N 0.41925 0.98121 0.15155 0.0
H1134 H 0.49847 0.04303 0.8805 0.0
H1135 H 0.4272 0.18226 0.78205 0.0
H1136 H 0.4609 0.12076 0.92845 0.0
H1137 H 0.4388 0.0837 0.73994 0.0
H1138 H 0.45416 0.17195 0.83436 0.0
H1139 H 0.49165 0.06952 0.82719 0.0
C1140 C 0.48958 0.06615 0.87996 0.0
C1141 C 0.47989 0.07923 0.90912 0.0
C1142 C 0.4517 0.15337 0.81323 0.0
C1143 C 0.47168 0.10973 0.84801 0.0
C1144 C 0.43672 0.15959 0.78325 0.0
C1145 C 0.43112 0.13428 0.7561 0.0
C1146 C 0.46142 0.12187 0.81589 0.0
C1147 C 0.44317 0.10464 0.75963 0.0
C1148 C 0.48538 0.08116 0.84945 0.0
C1149 C 0.46807 0.10918 0.90662 0.0
N1150 N 0.45739 0.09918 0.78874 0.0
N1151 N 0.46404 0.12314 0.87675 0.0
H1152 H 1.02015 0.47001 0.87707 0.0
H1153 H 0.87645 0.25639 0.78593 0.0
H1154 H 0.93274 0.36012 0.92644 0.0
H1155 H 0.96261 0.36578 0.73549 0.0
H1156 H 0.88872 0.29681 0.83646 0.0
H1157 H 0.99244 0.43581 0.82381 0.0
C1158 C 0.99459 0.43914 0.87672 0.0
C1159 C 0.97901 0.4178 0.90622 0.0
C1160 C 0.90412 0.31223 0.81408 0.0
C1161 C 0.94734 0.37825 0.84562 0.0
C1162 C 0.89653 0.28914 0.7851 0.0
C1163 C 0.91757 0.30788 0.75618 0.0
C1164 C 0.93348 0.35423 0.81424 0.0
C1165 C 0.9448 0.35029 0.75698 0.0
C1166 C 0.97891 0.41944 0.84636 0.0
C1167 C 0.94609 0.37757 0.90429 0.0
N1168 N 0.95227 0.37185 0.78546 0.0
N1169 N 0.93169 0.35911 0.87471 0.0
H1170 H 0.81273 0.68201 0.78822 0.0
H1171 H 0.60687 0.53659 0.88712 0.0
H1172 H 0.71386 0.5777 0.74089 0.0
H1173 H 0.69881 0.65884 0.91424 0.0
H1174 H 0.64572 0.54345 0.83622 0.0
H1175 H 0.77418 0.66366 0.83925 0.0
C1176 C 0.78349 0.65413 0.78898 0.0
C1177 C 0.76681 0.63119 0.76028 0.0
C1178 C 0.65704 0.56866 0.85345 0.0
C1179 C 0.72086 0.61099 0.81853 0.0
C1180 C 0.63466 0.56493 0.88233 0.0
C1181 C 0.64941 0.59709 0.90535 0.0
C1182 C 0.69448 0.60461 0.84789 0.0
C1183 C 0.68604 0.63289 0.8978 0.0
C1184 C 0.76095 0.64411 0.81798 0.0
C1185 C 0.72802 0.59614 0.76248 0.0
N1186 N 0.7071 0.63545 0.87015 0.0
N1187 N 0.70602 0.58735 0.79097 0.0
H1188 H 0.76131 0.84767 0.44767 0.0
H1189 H 0.83121 0.70676 0.54527 0.0
H1190 H 0.76724 0.7456 0.4062 0.0
H1191 H 0.79873 0.78811 0.59374 0.0
H1192 H 0.82315 0.73253 0.49201 0.0
H1193 H 0.7898 0.83789 0.4994 0.0
C1194 C 0.76976 0.8242 0.44891 0.0
C1195 C 0.76204 0.7977 0.42219 0.0
C1196 C 0.81832 0.74515 0.51436 0.0
C1197 C 0.79426 0.78606 0.48122 0.0
C1198 C 0.82327 0.73058 0.54482 0.0
C1199 C 0.81533 0.74491 0.57413 0.0
C1200 C 0.80558 0.77449 0.51312 0.0
C1201 C 0.80458 0.77564 0.57179 0.0
C1202 C 0.78566 0.81833 0.47854 0.0
C1203 C 0.77296 0.76723 0.42567 0.0
N1204 N 0.79974 0.78913 0.54196 0.0
N1205 N 0.78817 0.76218 0.45442 0.0
H1206 H 0.29778 0.03267 0.40067 0.0
H1207 H 0.26517 0.02712 0.59468 0.0
H1208 H 0.21175 0.92519 0.45327 0.0
H1209 H 0.35424 0.13427 0.54336 0.0
H1210 H 0.23784 0.99315 0.54218 0.0
H1211 H 0.31078 0.07316 0.45063 0.0
C1212 C 0.28029 0.01785 0.42249 0.0
C1213 C 0.25273 0.97556 0.42244 0.0
C1214 C 0.26297 0.02425 0.54217 0.0
C1215 C 0.26883 0.02179 0.48058 0.0
C1216 C 0.27863 0.0438 0.57222 0.0
C1217 C 0.31226 0.08359 0.57348 0.0
C1218 C 0.28122 0.04429 0.51274 0.0
C1219 C 0.32819 0.10372 0.54356 0.0
C1220 C 0.28819 0.04101 0.4512 0.0
C1221 C 0.23232 0.95779 0.45183 0.0
N1222 N 0.31288 0.08364 0.5144 0.0
N1223 N 0.24106 0.98091 0.47976 0.0
H1224 H 0.93956 0.20685 0.5531 0.0
H1225 H 0.1479 0.34755 0.45532 0.0
H1226 H 0.04143 0.31963 0.58801 0.0
H1227 H 0.04677 0.24431 0.40902 0.0
H1228 H 0.11098 0.32932 0.50715 0.0
H1229 H 0.97778 0.21403 0.50194 0.0
C1230 C 0.96952 0.23319 0.55007 0.0
C1231 C 0.98693 0.26263 0.57524 0.0
C1232 C 0.09687 0.30994 0.48594 0.0
C1233 C 0.03123 0.27046 0.51718 0.0
C1234 C 0.11849 0.31991 0.45644 0.0
C1235 C 0.10074 0.29717 0.42785 0.0
C1236 C 0.0566 0.27717 0.48705 0.0
C1237 C 0.06176 0.26254 0.43051 0.0
C1238 C 0.99151 0.23707 0.52097 0.0
C1239 C 0.02632 0.29581 0.5698 0.0
N1240 N 0.04067 0.25387 0.45945 0.0
N1241 N 0.04682 0.29862 0.54173 0.0
loop_
_geom_bond_atom_site_label_1
_geom_bond_atom_site_label_2
_geom_bond_distance
_geom_bond_site_symmetry_2
_ccdc_geom_bond_type
Gd0 N31 2.661 1_654 S
Gd0 N37 2.622 . S
Gd0 O44 2.545 . S
Gd0 O45 2.614 . S
Gd0 O47 2.429 1_655 S
Gd0 O48 2.545 . S
Gd0 O49 2.412 1_554 S
Gd0 O51 2.362 1_655 S
Gd0 O52 2.324 1_554 S
Gd0 C59 2.828 . S
Gd1 N10 2.661 1_556 S
Gd1 N14 2.601 . S
Gd1 O45 2.355 1_456 S
Gd1 O46 2.324 1_556 S
Gd1 O50 2.545 . S
Gd1 O51 2.606 1_556 S
Gd1 O53 2.429 . S
Gd1 O54 2.545 . S
Gd1 O55 2.412 1_556 S
Gd1 C68 2.828 . S
C2 C5 1.417 1_554 S
C2 C7 1.431 1_554 S
C2 C8 1.412 . S
C3 C6 1.437 . S
C3 C7 1.317 . S
C3 H22 0.929 . S
C4 C5 1.432 . S
C4 C6 1.431 . S
C4 N14 1.337 1_655 S
C5 C2 1.417 1_556 S
C5 C4 1.432 . S
C5 N10 1.350 1_656 S
C6 C3 1.437 . S
C6 C4 1.431 . S
C6 C16 1.391 . S
C7 C2 1.431 1_556 S
C7 C3 1.317 . S
C7 H18 0.930 . S
C8 C2 1.412 . S
C8 C9 1.355 . S
C8 H20 0.930 . S
C9 C8 1.355 . S
C9 C11 1.402 . S
C9 H21 0.930 . S
N10 Gd1 2.661 1_554 S
N10 C5 1.350 1_454 S
N10 C11 1.307 1_455 S
C11 C9 1.402 . S
C11 N10 1.307 1_655 S
C11 H12 0.910 1_655 S
H12 C11 0.910 1_455 S
C13 N14 1.334 . S
C13 C15 1.394 . S
C13 H17 0.930 . S
N14 Gd1 2.601 . S
N14 C4 1.337 1_455 S
N14 C13 1.334 . S
C15 C13 1.394 . S
C15 C16 1.359 1_455 S
C15 H27 0.930 . S
C16 C6 1.391 . S
C16 C15 1.359 1_655 S
C16 H28 0.929 . S
H17 C13 0.930 . S
H18 C7 0.930 . S
H19 C36 0.930 . S
H20 C8 0.930 . S
H21 C9 0.930 . S
H22 C3 0.929 . S
H23 C41 0.930 . S
H24 C32 0.930 . S
H25 C33 0.930 . S
H26 C57 0.929 . S
H27 C15 0.930 . S
H28 C16 0.929 . S
H29 C58 0.930 . S
H30 C39 0.930 . S
N31 Gd0 2.661 1_456 S
N31 C35 1.350 1_556 S
N31 C36 1.307 . S
C32 H24 0.930 . S
C32 C33 1.355 . S
C32 C34 1.412 . S
C33 H25 0.930 . S
C33 C32 1.355 . S
C33 C36 1.402 . S
C34 C32 1.412 . S
C34 C35 1.417 1_556 S
C34 C58 1.431 1_556 S
C35 N31 1.350 1_554 S
C35 C34 1.417 1_554 S
C35 C38 1.426 . S
C36 H19 0.930 . S
C36 N31 1.307 . S
C36 C33 1.402 . S
N37 Gd0 2.622 . S
N37 C38 1.336 1_655 S
N37 C41 1.340 . S
C38 C35 1.426 . S
C38 N37 1.336 1_455 S
C38 C42 1.413 . S
C39 H30 0.930 . S
C39 C40 1.359 1_655 S
C39 C41 1.394 . S
C40 C39 1.359 1_455 S
C40 C42 1.391 . S
C40 H43 0.929 . S
C41 H23 0.930 . S
C41 N37 1.340 . S
C41 C39 1.394 . S
C42 C38 1.413 . S
C42 C40 1.391 . S
C42 C57 1.437 . S
H43 C40 0.929 . S
O44 Gd0 2.545 . S
O44 C59 1.258 . S
O45 Gd0 2.614 . S
O45 Gd1 2.355 1_654 S
O45 C56 1.292 . S
O46 Gd1 2.324 1_554 S
O46 C66 1.254 . S
O47 Gd0 2.429 1_455 S
O47 C66 1.268 . S
O48 Gd0 2.545 . S
O48 C56 1.250 . S
O49 Gd0 2.412 1_556 S
O49 C59 1.252 1_556 S
O50 Gd1 2.545 . S
O50 C68 1.258 . S
O51 Gd0 2.362 1_455 S
O51 Gd1 2.606 1_554 S
O51 C67 1.284 1_554 S
O52 Gd0 2.324 1_556 S
O52 C75 1.254 . S
O53 Gd1 2.429 . S
O53 C75 1.268 1_455 S
O54 Gd1 2.545 . S
O54 C67 1.250 . S
O55 Gd1 2.412 1_554 S
O55 C68 1.252 1_554 S
C56 O45 1.292 . S
C56 O48 1.250 . S
C57 H26 0.929 . S
C57 C42 1.437 . S
C57 C58 1.317 . S
C58 H29 0.930 . S
C58 C34 1.431 1_554 S
C58 C57 1.317 . S
C59 Gd0 2.828 . S
C59 O44 1.258 . S
C59 O49 1.252 1_554 S
C59 C60 1.497 . S
C60 C59 1.497 . S
C60 C61 1.395 . S
C60 C62 1.380 1_554 S
C61 C60 1.395 . S
C61 C64 1.398 . S
C61 H76 0.930 . S
C62 C60 1.380 1_556 S
C62 C63 1.391 . S
C62 H77 0.930 . S
C63 C62 1.391 . S
C63 C65 1.387 1_556 S
C64 C61 1.398 . S
C64 C65 1.380 . S
C64 H78 0.930 . S
C65 C63 1.387 1_554 S
C65 C64 1.380 . S
C65 H79 0.930 . S
C66 O46 1.254 . S
C66 O47 1.268 . S
C67 O51 1.284 1_556 S
C67 O54 1.250 . S
C68 Gd1 2.828 . S
C68 O50 1.258 . S
C68 O55 1.252 1_556 S
C68 C69 1.497 . S
C69 C68 1.497 . S
C69 C70 1.395 . S
C69 C71 1.380 1_556 S
C70 C69 1.395 . S
C70 C73 1.398 . S
C70 H80 0.930 . S
C71 C69 1.380 1_554 S
C71 C72 1.391 . S
C71 H81 0.930 . S
C72 C71 1.391 . S
C72 C74 1.387 1_554 S
C73 C70 1.398 . S
C73 C74 1.380 . S
C73 H82 0.930 . S
C74 C72 1.387 1_556 S
C74 C73 1.380 . S
C74 H83 0.930 . S
C75 O52 1.254 . S
C75 O53 1.268 1_655 S
H76 C61 0.930 . S
H77 C62 0.930 . S
H78 C64 0.930 . S
H79 C65 0.930 . S
H80 C70 0.930 . S
H81 C71 0.930 . S
H82 C73 0.930 . S
H83 C74 0.930 . S
Gd84 N115 2.661 1_554 S
Gd84 N121 2.601 . S
Gd84 O128 2.545 . S
Gd84 O129 2.614 . S
Gd84 O131 2.429 . S
Gd84 O132 2.545 . S
Gd84 O133 2.412 1_554 S
Gd84 O135 2.362 . S
Gd84 O136 2.324 1_554 S
Gd84 C143 2.828 . S
Gd85 N94 2.661 1_556 S
Gd85 N98 2.601 . S
Gd85 O129 2.355 1_556 S
Gd85 O130 2.324 1_556 S
Gd85 O134 2.545 . S
Gd85 O135 2.606 1_556 S
Gd85 O137 2.429 . S
Gd85 O138 2.545 . S
Gd85 O139 2.412 1_556 S
Gd85 C152 2.828 . S
C86 C89 1.417 1_554 S
C86 C91 1.431 1_554 S
C86 C92 1.412 . S
C87 C90 1.437 . S
C87 C91 1.317 . S
C87 H106 0.929 . S
C88 C89 1.426 . S
C88 C90 1.413 . S
C88 N98 1.359 . S
C89 C86 1.417 1_556 S
C89 C88 1.426 . S
C89 N94 1.350 1_556 S
C90 C87 1.437 . S
C90 C88 1.413 . S
C90 C100 1.391 . S
C91 C86 1.431 1_556 S
C91 C87 1.317 . S
C91 H102 0.930 . S
C92 C86 1.412 . S
C92 C93 1.355 . S
C92 H104 0.930 . S
C93 C92 1.355 . S
C93 C95 1.402 . S
C93 H105 0.930 . S
N94 Gd85 2.661 1_554 S
N94 C89 1.350 1_554 S
N94 C95 1.307 . S
C95 C93 1.402 . S
C95 N94 1.307 . S
C95 H96 0.930 . S
H96 C95 0.930 . S
C97 N98 1.334 . S
C97 C99 1.394 . S
C97 H101 0.930 . S
N98 Gd85 2.601 . S
N98 C88 1.359 . S
N98 C97 1.334 . S
C99 C97 1.394 . S
C99 C100 1.359 . S
C99 H111 0.930 . S
C100 C90 1.391 . S
C100 C99 1.359 . S
C100 H112 0.929 . S
H101 C97 0.930 . S
H102 C91 0.930 . S
H103 C120 0.930 . S
H104 C92 0.930 . S
H105 C93 0.930 . S
H106 C87 0.929 . S
H107 C125 0.930 . S
H108 C116 0.930 . S
H109 C117 0.930 . S
H110 C141 0.929 . S
H111 C99 0.930 . S
H112 C100 0.929 . S
H113 C142 0.930 . S
H114 C123 0.930 . S
N115 Gd84 2.661 1_556 S
N115 C119 1.350 1_556 S
N115 C120 1.307 . S
C116 H108 0.930 . S
C116 C117 1.355 . S
C116 C118 1.412 . S
C117 H109 0.930 . S
C117 C116 1.355 . S
C117 C120 1.402 . S
C118 C116 1.412 . S
C118 C119 1.417 1_556 S
C118 C142 1.431 1_556 S
C119 N115 1.350 1_554 S
C119 C118 1.417 1_554 S
C119 C122 1.426 . S
C120 H103 0.930 . S
C120 N115 1.307 . S
C120 C117 1.402 . S
N121 Gd84 2.601 . S
N121 C122 1.359 . S
N121 C125 1.334 . S
C122 C119 1.426 . S
C122 N121 1.359 . S
C122 C126 1.413 . S
C123 H114 0.930 . S
C123 C124 1.359 . S
C123 C125 1.394 . S
C124 C123 1.359 . S
C124 C126 1.391 . S
C124 H127 0.929 . S
C125 H107 0.930 . S
C125 N121 1.334 . S
C125 C123 1.394 . S
C126 C122 1.413 . S
C126 C124 1.391 . S
C126 C141 1.437 . S
H127 C124 0.929 . S
O128 Gd84 2.545 . S
O128 C143 1.258 . S
O129 Gd84 2.614 . S
O129 Gd85 2.355 1_554 S
O129 C140 1.292 . S
O130 Gd85 2.324 1_554 S
O130 C150 1.254 . S
O131 Gd84 2.429 . S
O131 C150 1.268 . S
O132 Gd84 2.545 . S
O132 C140 1.250 . S
O133 Gd84 2.412 1_556 S
O133 C143 1.252 1_556 S
O134 Gd85 2.545 . S
O134 C152 1.258 . S
O135 Gd84 2.362 . S
O135 Gd85 2.606 1_554 S
O135 C151 1.284 1_554 S
O136 Gd84 2.324 1_556 S
O136 C159 1.254 . S
O137 Gd85 2.429 . S
O137 C159 1.268 . S
O138 Gd85 2.545 . S
O138 C151 1.250 . S
O139 Gd85 2.412 1_554 S
O139 C152 1.252 1_554 S
C140 O129 1.292 . S
C140 O132 1.250 . S
C141 H110 0.929 . S
C141 C126 1.437 . S
C141 C142 1.317 . S
C142 H113 0.930 . S
C142 C118 1.431 1_554 S
C142 C141 1.317 . S
C143 Gd84 2.828 . S
C143 O128 1.258 . S
C143 O133 1.252 1_554 S
C143 C144 1.497 . S
C144 C143 1.497 . S
C144 C145 1.395 . S
C144 C146 1.380 1_554 S
C145 C144 1.395 . S
C145 C148 1.398 . S
C145 H160 0.930 . S
C146 C144 1.380 1_556 S
C146 C147 1.391 . S
C146 H161 0.930 . S
C147 C146 1.391 . S
C147 C149 1.387 1_556 S
C148 C145 1.398 . S
C148 C149 1.380 . S
C148 H162 0.930 . S
C149 C147 1.387 1_554 S
C149 C148 1.380 . S
C149 H163 0.930 . S
C150 O130 1.254 . S
C150 O131 1.268 . S
C151 O135 1.284 1_556 S
C151 O138 1.250 . S
C152 Gd85 2.828 . S
C152 O134 1.258 . S
C152 O139 1.252 1_556 S
C152 C153 1.497 . S
C153 C152 1.497 . S
C153 C154 1.395 . S
C153 C155 1.380 1_556 S
C154 C153 1.395 . S
C154 C157 1.398 . S
C154 H164 0.930 . S
C155 C153 1.380 1_554 S
C155 C156 1.391 . S
C155 H165 0.930 . S
C156 C155 1.391 . S
C156 C158 1.387 1_554 S
C157 C154 1.398 . S
C157 C158 1.380 . S
C157 H166 0.930 . S
C158 C156 1.387 1_556 S
C158 C157 1.380 . S
C158 H167 0.930 . S
C159 O136 1.254 . S
C159 O137 1.268 . S
H160 C145 0.930 . S
H161 C146 0.930 . S
H162 C148 0.930 . S
H163 C149 0.930 . S
H164 C154 0.930 . S
H165 C155 0.930 . S
H166 C157 0.930 . S
H167 C158 0.930 . S
Gd168 N199 2.661 1_554 S
Gd168 N205 2.601 . S
Gd168 O212 2.545 . S
Gd168 O213 2.614 . S
Gd168 O215 2.429 . S
Gd168 O216 2.545 . S
Gd168 O217 2.412 1_554 S
Gd168 O219 2.362 1_545 S
Gd168 O220 2.324 1_554 S
Gd168 C227 2.828 . S
Gd169 N178 2.661 1_566 S
Gd169 N182 2.601 . S
Gd169 O213 2.355 1_566 S
Gd169 O214 2.324 1_556 S
Gd169 O218 2.545 . S
Gd169 O219 2.606 1_556 S
Gd169 O221 2.418 1_565 S
Gd169 O222 2.545 . S
Gd169 O223 2.412 1_556 S
Gd169 C236 2.828 . S
C170 C173 1.417 1_554 S
C170 C175 1.431 1_554 S
C170 C176 1.412 . S
C171 C174 1.437 . S
C171 C175 1.317 . S
C171 H190 0.929 . S
C172 C173 1.426 . S
C172 C174 1.413 . S
C172 N182 1.359 1_545 S
C173 C170 1.417 1_556 S
C173 C172 1.426 . S
C173 N178 1.350 1_556 S
C174 C171 1.437 . S
C174 C172 1.413 . S
C174 C184 1.391 . S
C175 C170 1.431 1_556 S
C175 C171 1.317 . S
C175 H186 0.930 . S
C176 C170 1.412 . S
C176 C177 1.355 . S
C176 H188 0.930 . S
C177 C176 1.355 . S
C177 C179 1.402 . S
C177 H189 0.930 . S
N178 Gd169 2.661 1_544 S
N178 C173 1.350 1_554 S
N178 C179 1.307 . S
C179 C177 1.402 . S
C179 N178 1.307 . S
C179 H180 0.930 . S
H180 C179 0.930 . S
C181 N182 1.334 . S
C181 C183 1.394 . S
C181 H185 0.930 . S
N182 Gd169 2.601 . S
N182 C172 1.359 1_565 S
N182 C181 1.334 . S
C183 C181 1.394 . S
C183 C184 1.359 1_565 S
C183 H195 0.930 . S
C184 C174 1.391 . S
C184 C183 1.359 1_545 S
C184 H196 0.929 . S
H185 C181 0.930 . S
H186 C175 0.930 . S
H187 C204 0.931 1_545 S
H188 C176 0.930 . S
H189 C177 0.930 . S
H190 C171 0.929 . S
H191 C209 0.930 . S
H192 C200 0.930 . S
H193 C201 0.930 . S
H194 C225 0.929 . S
H195 C183 0.930 . S
H196 C184 0.929 . S
H197 C226 0.930 . S
H198 C207 0.930 . S
N199 Gd168 2.661 1_556 S
N199 C203 1.350 1_546 S
N199 C204 1.307 1_545 S
C200 H192 0.930 . S
C200 C201 1.355 . S
C200 C202 1.412 . S
C201 H193 0.930 . S
C201 C200 1.355 . S
C201 C204 1.402 . S
C202 C200 1.412 . S
C202 C203 1.417 1_556 S
C202 C226 1.431 1_556 S
C203 N199 1.350 1_564 S
C203 C202 1.417 1_554 S
C203 C206 1.426 . S
C204 H187 0.931 1_565 S
C204 N199 1.307 1_565 S
C204 C201 1.402 . S
N205 Gd168 2.601 . S
N205 C206 1.359 1_545 S
N205 C209 1.334 . S
C206 C203 1.426 . S
C206 N205 1.359 1_565 S
C206 C210 1.413 . S
C207 H198 0.930 . S
C207 C208 1.359 1_545 S
C207 C209 1.394 . S
C208 C207 1.359 1_565 S
C208 C210 1.391 . S
C208 H211 0.929 . S
C209 H191 0.930 . S
C209 N205 1.334 . S
C209 C207 1.394 . S
C210 C206 1.413 . S
C210 C208 1.391 . S
C210 C225 1.437 . S
H211 C208 0.929 . S
O212 Gd168 2.545 . S
O212 C227 1.258 . S
O213 Gd168 2.614 . S
O213 Gd169 2.355 1_544 S
O213 C224 1.292 . S
O214 Gd169 2.324 1_554 S
O214 C234 1.254 . S
O215 Gd168 2.429 . S
O215 C234 1.268 1_545 S
O216 Gd168 2.545 . S
O216 C224 1.250 . S
O217 Gd168 2.412 1_556 S
O217 C227 1.252 1_556 S
O218 Gd169 2.545 . S
O218 C236 1.258 . S
O219 Gd168 2.362 1_565 S
O219 Gd169 2.606 1_554 S
O219 C235 1.284 1_554 S
O220 Gd168 2.324 1_556 S
O220 C243 1.254 . S
O221 Gd169 2.418 1_545 S
O221 C243 1.288 . S
O222 Gd169 2.545 . S
O222 C235 1.250 . S
O223 Gd169 2.412 1_554 S
O223 C236 1.252 1_554 S
C224 O213 1.292 . S
C224 O216 1.250 . S
C225 H194 0.929 . S
C225 C210 1.437 . S
C225 C226 1.317 . S
C226 H197 0.930 . S
C226 C202 1.431 1_554 S
C226 C225 1.317 . S
C227 Gd168 2.828 . S
C227 O212 1.258 . S
C227 O217 1.252 1_554 S
C227 C228 1.497 . S
C228 C227 1.497 . S
C228 C229 1.395 . S
C228 C230 1.380 1_554 S
C229 C228 1.395 . S
C229 C232 1.398 . S
C229 H244 0.930 . S
C230 C228 1.380 1_556 S
C230 C231 1.391 . S
C230 H245 0.930 . S
C231 C230 1.391 . S
C231 C233 1.387 1_556 S
C232 C229 1.398 . S
C232 C233 1.380 . S
C232 H246 0.930 . S
C233 C231 1.387 1_554 S
C233 C232 1.380 . S
C233 H247 0.930 . S
C234 O214 1.254 . S
C234 O215 1.268 1_565 S
C235 O219 1.284 1_556 S
C235 O222 1.250 . S
C236 Gd169 2.828 . S
C236 O218 1.258 . S
C236 O223 1.252 1_556 S
C236 C237 1.497 . S
C237 C236 1.497 . S
C237 C238 1.395 . S
C237 C239 1.380 1_556 S
C238 C237 1.395 . S
C238 C241 1.398 . S
C238 H248 0.930 . S
C239 C237 1.380 1_554 S
C239 C240 1.391 . S
C239 H249 0.930 . S
C240 C239 1.391 . S
C240 C242 1.387 1_554 S
C241 C238 1.398 . S
C241 C242 1.380 . S
C241 H250 0.930 . S
C242 C240 1.387 1_556 S
C242 C241 1.380 . S
C242 H251 0.930 . S
C243 O220 1.254 . S
C243 O221 1.288 . S
H244 C229 0.930 . S
H245 C230 0.930 . S
H246 C232 0.930 . S
H247 C233 0.930 . S
H248 C238 0.930 . S
H249 C239 0.930 . S
H250 C241 0.930 . S
H251 C242 0.930 . S
Gd252 N283 2.661 . S
Gd252 N289 2.601 . S
Gd252 O296 2.545 . S
Gd252 O297 2.606 . S
Gd252 O299 2.429 . S
Gd252 O300 2.545 . S
Gd252 O301 2.412 . S
Gd252 O303 2.362 . S
Gd252 O304 2.324 . S
Gd252 C311 2.828 . S
Gd253 N262 2.661 . S
Gd253 N266 2.601 . S
Gd253 O297 2.362 . S
Gd253 O298 2.324 . S
Gd253 O302 2.545 . S
Gd253 O303 2.606 . S
Gd253 O305 2.429 . S
Gd253 O306 2.545 . S
Gd253 O307 2.412 . S
Gd253 C320 2.828 . S
C254 C257 1.417 . S
C254 C259 1.431 . S
C254 C260 1.412 . S
C255 C258 1.437 . S
C255 C259 1.317 . S
C255 H274 0.929 . S
C256 C257 1.426 . S
C256 C258 1.413 . S
C256 N266 1.359 . S
C257 C254 1.417 . S
C257 C256 1.426 . S
C257 N262 1.350 . S
C258 C255 1.437 . S
C258 C256 1.413 . S
C258 C268 1.391 . S
C259 C254 1.431 . S
C259 C255 1.317 . S
C259 H270 0.930 . S
C260 C254 1.412 . S
C260 C261 1.355 . S
C260 H272 0.930 . S
C261 C260 1.355 . S
C261 C263 1.402 . S
C261 H273 0.930 . S
N262 Gd253 2.661 . S
N262 C257 1.350 . S
N262 C263 1.307 . S
C263 C261 1.402 . S
C263 N262 1.307 . S
C263 H264 0.930 . S
H264 C263 0.930 . S
C265 N266 1.334 . S
C265 C267 1.394 . S
C265 H269 0.930 . S
N266 Gd253 2.601 . S
N266 C256 1.359 . S
N266 C265 1.334 . S
C267 C265 1.394 . S
C267 C268 1.359 . S
C267 H279 0.930 . S
C268 C258 1.391 . S
C268 C267 1.359 . S
C268 H280 0.929 . S
H269 C265 0.930 . S
H270 C259 0.930 . S
H271 C288 0.930 . S
H272 C260 0.930 . S
H273 C261 0.930 . S
H274 C255 0.929 . S
H275 C293 0.930 . S
H276 C284 0.930 . S
H277 C285 0.930 . S
H278 C309 0.929 . S
H279 C267 0.930 . S
H280 C268 0.929 . S
H281 C310 0.930 . S
H282 C291 0.930 . S
N283 Gd252 2.661 . S
N283 C287 1.350 . S
N283 C288 1.307 . S
C284 H276 0.930 . S
C284 C285 1.355 . S
C284 C286 1.412 . S
C285 H277 0.930 . S
C285 C284 1.355 . S
C285 C288 1.402 . S
C286 C284 1.412 . S
C286 C287 1.417 . S
C286 C310 1.431 . S
C287 N283 1.350 . S
C287 C286 1.417 . S
C287 C290 1.426 . S
C288 H271 0.930 . S
C288 N283 1.307 . S
C288 C285 1.402 . S
N289 Gd252 2.601 . S
N289 C290 1.359 . S
N289 C293 1.334 . S
C290 C287 1.426 . S
C290 N289 1.359 . S
C290 C294 1.413 . S
C291 H282 0.930 . S
C291 C292 1.359 . S
C291 C293 1.394 . S
C292 C291 1.359 . S
C292 C294 1.391 . S
C292 H295 0.929 . S
C293 H275 0.930 . S
C293 N289 1.334 . S
C293 C291 1.394 . S
C294 C290 1.413 . S
C294 C292 1.391 . S
C294 C309 1.437 . S
H295 C292 0.929 . S
O296 Gd252 2.545 . S
O296 C311 1.258 . S
O297 Gd252 2.606 . S
O297 Gd253 2.362 . S
O297 C308 1.284 . S
O298 Gd253 2.324 . S
O298 C318 1.254 . S
O299 Gd252 2.429 . S
O299 C318 1.268 . S
O300 Gd252 2.545 . S
O300 C308 1.250 . S
O301 Gd252 2.412 . S
O301 C311 1.252 . S
O302 Gd253 2.545 . S
O302 C320 1.258 . S
O303 Gd252 2.362 . S
O303 Gd253 2.606 . S
O303 C319 1.284 . S
O304 Gd252 2.324 . S
O304 C327 1.254 . S
O305 Gd253 2.429 . S
O305 C327 1.268 . S
O306 Gd253 2.545 . S
O306 C319 1.250 . S
O307 Gd253 2.412 . S
O307 C320 1.252 . S
C308 O297 1.284 . S
C308 O300 1.250 . S
C309 H278 0.929 . S
C309 C294 1.437 . S
C309 C310 1.317 . S
C310 H281 0.930 . S
C310 C286 1.431 . S
C310 C309 1.317 . S
C311 Gd252 2.828 . S
C311 O296 1.258 . S
C311 O301 1.252 . S
C311 C312 1.497 . S
C312 C311 1.497 . S
C312 C313 1.395 . S
C312 C314 1.380 . S
C313 C312 1.395 . S
C313 C316 1.398 . S
C313 H328 0.930 . S
C314 C312 1.380 . S
C314 C315 1.391 . S
C314 H329 0.930 . S
C315 C314 1.391 . S
C315 C317 1.387 . S
C316 C313 1.398 . S
C316 C317 1.380 . S
C316 H330 0.930 . S
C317 C315 1.387 . S
C317 C316 1.380 . S
C317 H331 0.930 . S
C318 O298 1.254 . S
C318 O299 1.268 . S
C319 O303 1.284 . S
C319 O306 1.250 . S
C320 Gd253 2.828 . S
C320 O302 1.258 . S
C320 O307 1.252 . S
C320 C321 1.497 . S
C321 C320 1.497 . S
C321 C322 1.395 . S
C321 C323 1.380 . S
C322 C321 1.395 . S
C322 C325 1.398 1_565 S
C322 H332 0.930 . S
C323 C321 1.380 . S
C323 C324 1.391 1_565 S
C323 H333 0.930 . S
C324 C323 1.391 1_545 S
C324 C326 1.387 . S
C325 C322 1.398 1_545 S
C325 C326 1.380 . S
C325 H334 0.930 . S
C326 C324 1.387 . S
C326 C325 1.380 . S
C326 H335 0.930 . S
C327 O304 1.254 . S
C327 O305 1.268 . S
H328 C313 0.930 . S
H329 C314 0.930 . S
H330 C316 0.930 . S
H331 C317 0.930 . S
H332 C322 0.930 . S
H333 C323 0.930 . S
H334 C325 0.930 . S
H335 C326 0.930 . S
Gd336 N367 2.661 . S
Gd336 N373 2.601 . S
Gd336 O380 2.545 . S
Gd336 O381 2.606 . S
Gd336 O383 2.429 . S
Gd336 O384 2.545 . S
Gd336 O385 2.412 . S
Gd336 O387 2.362 . S
Gd336 O388 2.324 . S
Gd336 C395 2.828 . S
Gd337 N346 2.661 . S
Gd337 N350 2.601 . S
Gd337 O381 2.362 . S
Gd337 O382 2.324 . S
Gd337 O386 2.545 . S
Gd337 O387 2.606 . S
Gd337 O389 2.429 . S
Gd337 O390 2.545 . S
Gd337 O391 2.412 . S
Gd337 C404 2.828 . S
C338 C341 1.417 . S
C338 C343 1.431 . S
C338 C344 1.412 . S
C339 C342 1.437 . S
C339 C343 1.317 . S
C339 H358 0.929 . S
C340 C341 1.426 . S
C340 C342 1.413 . S
C340 N350 1.359 . S
C341 C338 1.417 . S
C341 C340 1.426 . S
C341 N346 1.350 . S
C342 C339 1.437 . S
C342 C340 1.413 . S
C342 C352 1.391 . S
C343 C338 1.431 . S
C343 C339 1.317 . S
C343 H354 0.930 . S
C344 C338 1.412 . S
C344 C345 1.355 . S
C344 H356 0.930 . S
C345 C344 1.355 . S
C345 C347 1.402 . S
C345 H357 0.930 . S
N346 Gd337 2.661 . S
N346 C341 1.350 . S
N346 C347 1.307 . S
C347 C345 1.402 . S
C347 N346 1.307 . S
C347 H348 0.930 . S
H348 C347 0.930 . S
C349 N350 1.334 . S
C349 C351 1.394 . S
C349 H353 0.930 . S
N350 Gd337 2.601 . S
N350 C340 1.359 . S
N350 C349 1.334 . S
C351 C349 1.394 . S
C351 C352 1.359 . S
C351 H363 0.930 . S
C352 C342 1.391 . S
C352 C351 1.359 . S
C352 H364 0.929 . S
H353 C349 0.930 . S
H354 C343 0.930 . S
H355 C372 0.930 . S
H356 C344 0.930 . S
H357 C345 0.930 . S
H358 C339 0.929 . S
H359 C377 0.930 . S
H360 C368 0.930 . S
H361 C369 0.930 . S
H362 C393 0.929 . S
H363 C351 0.930 . S
H364 C352 0.929 . S
H365 C394 0.930 . S
H366 C375 0.930 . S
N367 Gd336 2.661 . S
N367 C371 1.350 . S
N367 C372 1.307 . S
C368 H360 0.930 . S
C368 C369 1.355 . S
C368 C370 1.412 . S
C369 H361 0.930 . S
C369 C368 1.355 . S
C369 C372 1.402 1_545 S
C370 C368 1.412 . S
C370 C371 1.417 1_545 S
C370 C394 1.431 . S
C371 N367 1.350 . S
C371 C370 1.417 1_565 S
C371 C374 1.426 . S
C372 H355 0.930 . S
C372 N367 1.307 . S
C372 C369 1.402 1_565 S
N373 Gd336 2.601 . S
N373 C374 1.359 . S
N373 C377 1.334 . S
C374 C371 1.426 . S
C374 N373 1.359 . S
C374 C378 1.413 1_565 S
C375 H366 0.930 . S
C375 C376 1.359 1_565 S
C375 C377 1.394 . S
C376 C375 1.359 1_545 S
C376 C378 1.391 . S
C376 H379 0.929 . S
C377 H359 0.930 . S
C377 N373 1.334 . S
C377 C375 1.394 . S
C378 C374 1.413 1_545 S
C378 C376 1.391 . S
C378 C393 1.437 . S
H379 C376 0.929 . S
O380 Gd336 2.545 . S
O380 C395 1.258 . S
O381 Gd336 2.606 . S
O381 Gd337 2.362 . S
O381 C392 1.284 . S
O382 Gd337 2.324 . S
O382 C402 1.254 . S
O383 Gd336 2.429 . S
O383 C402 1.268 . S
O384 Gd336 2.545 . S
O384 C392 1.250 . S
O385 Gd336 2.412 . S
O385 C395 1.252 . S
O386 Gd337 2.545 . S
O386 C404 1.258 . S
O387 Gd336 2.362 . S
O387 Gd337 2.606 . S
O387 C403 1.284 . S
O388 Gd336 2.324 . S
O388 C411 1.254 . S
O389 Gd337 2.429 . S
O389 C411 1.268 . S
O390 Gd337 2.545 . S
O390 C403 1.250 . S
O391 Gd337 2.412 . S
O391 C404 1.252 . S
C392 O381 1.284 . S
C392 O384 1.250 . S
C393 H362 0.929 . S
C393 C378 1.437 . S
C393 C394 1.317 . S
C394 H365 0.930 . S
C394 C370 1.431 . S
C394 C393 1.317 . S
C395 Gd336 2.828 . S
C395 O380 1.258 . S
C395 O385 1.252 . S
C395 C396 1.497 . S
C396 C395 1.497 . S
C396 C397 1.395 . S
C396 C398 1.380 . S
C397 C396 1.395 . S
C397 C400 1.398 . S
C397 H412 0.930 . S
C398 C396 1.380 . S
C398 C399 1.391 . S
C398 H413 0.930 . S
C399 C398 1.391 . S
C399 C401 1.387 . S
C400 C397 1.398 . S
C400 C401 1.380 . S
C400 H414 0.930 . S
C401 C399 1.387 . S
C401 C400 1.380 . S
C401 H415 0.930 . S
C402 O382 1.254 . S
C402 O383 1.268 . S
C403 O387 1.284 . S
C403 O390 1.250 . S
C404 Gd337 2.828 . S
C404 O386 1.258 . S
C404 O391 1.252 . S
C404 C405 1.497 . S
C405 C404 1.497 . S
C405 C406 1.395 . S
C405 C407 1.380 . S
C406 C405 1.395 . S
C406 C409 1.398 1_455 S
C406 H416 0.930 . S
C407 C405 1.380 . S
C407 C408 1.391 1_455 S
C407 H417 0.930 . S
C408 C407 1.391 1_655 S
C408 C410 1.387 . S
C409 C406 1.398 1_655 S
C409 C410 1.380 . S
C409 H418 0.930 . S
C410 C408 1.387 . S
C410 C409 1.380 . S
C410 H419 0.930 . S
C411 O388 1.254 . S
C411 O389 1.268 . S
H412 C397 0.930 . S
H413 C398 0.930 . S
H414 C400 0.930 . S
H415 C401 0.930 . S
H416 C406 0.930 . S
H417 C407 0.930 . S
H418 C409 0.930 . S
H419 C410 0.930 . S
Gd420 N451 2.661 . S
Gd420 N457 2.601 . S
Gd420 O464 2.545 . S
Gd420 O465 2.606 . S
Gd420 O467 2.429 . S
Gd420 O468 2.545 . S
Gd420 O469 2.412 . S
Gd420 O471 2.362 . S
Gd420 O472 2.324 . S
Gd420 C479 2.828 . S
Gd421 N430 2.661 . S
Gd421 N434 2.601 . S
Gd421 O465 2.362 . S
Gd421 O466 2.324 . S
Gd421 O470 2.545 . S
Gd421 O471 2.606 . S
Gd421 O473 2.429 . S
Gd421 O474 2.545 . S
Gd421 O475 2.412 . S
Gd421 C488 2.828 . S
C422 C425 1.417 . S
C422 C427 1.431 . S
C422 C428 1.412 . S
C423 C426 1.437 . S
C423 C427 1.317 . S
C423 H442 0.929 . S
C424 C425 1.426 . S
C424 C426 1.413 . S
C424 N434 1.359 . S
C425 C422 1.417 . S
C425 C424 1.426 . S
C425 N430 1.350 . S
C426 C423 1.437 . S
C426 C424 1.413 . S
C426 C436 1.391 . S
C427 C422 1.431 . S
C427 C423 1.317 . S
C427 H438 0.930 . S
C428 C422 1.412 . S
C428 C429 1.355 . S
C428 H440 0.930 . S
C429 C428 1.355 . S
C429 C431 1.402 . S
C429 H441 0.930 . S
N430 Gd421 2.661 . S
N430 C425 1.350 . S
N430 C431 1.307 . S
C431 C429 1.402 . S
C431 N430 1.307 . S
C431 H432 0.930 . S
H432 C431 0.930 . S
C433 N434 1.334 . S
C433 C435 1.394 . S
C433 H437 0.930 . S
N434 Gd421 2.601 . S
N434 C424 1.359 . S
N434 C433 1.334 . S
C435 C433 1.394 . S
C435 C436 1.359 . S
C435 H447 0.930 . S
C436 C426 1.391 . S
C436 C435 1.359 . S
C436 H448 0.929 . S
H437 C433 0.930 . S
H438 C427 0.930 . S
H439 C456 0.930 . S
H440 C428 0.930 . S
H441 C429 0.930 . S
H442 C423 0.929 . S
H443 C461 0.930 . S
H444 C452 0.930 . S
H445 C453 0.930 . S
H446 C477 0.929 . S
H447 C435 0.930 . S
H448 C436 0.929 . S
H449 C478 0.930 . S
H450 C459 0.930 . S
N451 Gd420 2.661 . S
N451 C455 1.350 . S
N451 C456 1.307 . S
C452 H444 0.930 . S
C452 C453 1.355 1_655 S
C452 C454 1.412 . S
C453 H445 0.930 . S
C453 C452 1.355 1_455 S
C453 C456 1.402 . S
C454 C452 1.412 . S
C454 C455 1.417 1_655 S
C454 C478 1.431 . S
C455 N451 1.350 . S
C455 C454 1.417 1_455 S
C455 C458 1.426 . S
C456 H439 0.930 . S
C456 N451 1.307 . S
C456 C453 1.402 . S
N457 Gd420 2.601 . S
N457 C458 1.359 . S
N457 C461 1.334 . S
C458 C455 1.426 . S
C458 N457 1.359 . S
C458 C462 1.413 1_455 S
C459 H450 0.930 . S
C459 C460 1.359 1_455 S
C459 C461 1.394 . S
C460 C459 1.359 1_655 S
C460 C462 1.391 . S
C460 H463 0.929 . S
C461 H443 0.930 . S
C461 N457 1.334 . S
C461 C459 1.394 . S
C462 C458 1.413 1_655 S
C462 C460 1.391 . S
C462 C477 1.437 . S
H463 C460 0.929 . S
O464 Gd420 2.545 . S
O464 C479 1.258 . S
O465 Gd420 2.606 . S
O465 Gd421 2.362 . S
O465 C476 1.284 . S
O466 Gd421 2.324 . S
O466 C486 1.254 . S
O467 Gd420 2.429 . S
O467 C486 1.268 . S
O468 Gd420 2.545 . S
O468 C476 1.250 . S
O469 Gd420 2.412 . S
O469 C479 1.252 . S
O470 Gd421 2.545 . S
O470 C488 1.258 . S
O471 Gd420 2.362 . S
O471 Gd421 2.606 . S
O471 C487 1.284 . S
O472 Gd420 2.324 . S
O472 C495 1.254 . S
O473 Gd421 2.429 . S
O473 C495 1.268 . S
O474 Gd421 2.545 . S
O474 C487 1.250 . S
O475 Gd421 2.412 . S
O475 C488 1.252 . S
C476 O465 1.284 . S
C476 O468 1.250 . S
C477 H446 0.929 . S
C477 C462 1.437 . S
C477 C478 1.317 . S
C478 H449 0.930 . S
C478 C454 1.431 . S
C478 C477 1.317 . S
C479 Gd420 2.828 . S
C479 O464 1.258 . S
C479 O469 1.252 . S
C479 C480 1.497 . S
C480 C479 1.497 . S
C480 C481 1.395 . S
C480 C482 1.380 . S
C481 C480 1.395 . S
C481 C484 1.398 . S
C481 H496 0.930 . S
C482 C480 1.380 . S
C482 C483 1.391 . S
C482 H497 0.930 . S
C483 C482 1.391 . S
C483 C485 1.387 . S
C484 C481 1.398 . S
C484 C485 1.380 . S
C484 H498 0.930 . S
C485 C483 1.387 . S
C485 C484 1.380 . S
C485 H499 0.930 . S
C486 O466 1.254 . S
C486 O467 1.268 . S
C487 O471 1.284 . S
C487 O474 1.250 . S
C488 Gd421 2.828 . S
C488 O470 1.258 . S
C488 O475 1.252 . S
C488 C489 1.497 . S
C489 C488 1.497 . S
C489 C490 1.395 . S
C489 C491 1.380 . S
C490 C489 1.395 . S
C490 C493 1.398 . S
C490 H500 0.930 . S
C491 C489 1.380 . S
C491 C492 1.391 . S
C491 H501 0.930 . S
C492 C491 1.391 . S
C492 C494 1.387 . S
C493 C490 1.398 . S
C493 C494 1.380 . S
C493 H502 0.930 . S
C494 C492 1.387 . S
C494 C493 1.380 . S
C494 H503 0.930 . S
C495 O472 1.254 . S
C495 O473 1.268 . S
H496 C481 0.930 . S
H497 C482 0.930 . S
H498 C484 0.930 . S
H499 C485 0.930 . S
H500 C490 0.930 . S
H501 C491 0.930 . S
H502 C493 0.930 . S
H503 C494 0.930 . S
Gd504 N535 2.661 . S
Gd504 N541 2.601 . S
Gd504 O548 2.545 . S
Gd504 O549 2.606 . S
Gd504 O551 2.429 . S
Gd504 O552 2.545 . S
Gd504 O553 2.412 . S
Gd504 O555 2.362 . S
Gd504 O556 2.324 . S
Gd504 C563 2.828 . S
Gd505 N514 2.661 . S
Gd505 N518 2.601 . S
Gd505 O549 2.362 . S
Gd505 O550 2.324 . S
Gd505 O554 2.545 . S
Gd505 O555 2.606 . S
Gd505 O557 2.429 . S
Gd505 O558 2.545 . S
Gd505 O559 2.412 . S
Gd505 C572 2.828 . S
C506 C509 1.417 . S
C506 C511 1.431 . S
C506 C512 1.412 . S
C507 C510 1.437 . S
C507 C511 1.317 . S
C507 H526 0.929 . S
C508 C509 1.426 . S
C508 C510 1.413 . S
C508 N518 1.359 . S
C509 C506 1.417 . S
C509 C508 1.426 . S
C509 N514 1.350 . S
C510 C507 1.437 . S
C510 C508 1.413 . S
C510 C520 1.391 . S
C511 C506 1.431 . S
C511 C507 1.317 . S
C511 H522 0.930 . S
C512 C506 1.412 . S
C512 C513 1.355 . S
C512 H524 0.930 . S
C513 C512 1.355 . S
C513 C515 1.402 . S
C513 H525 0.930 . S
N514 Gd505 2.661 . S
N514 C509 1.350 . S
N514 C515 1.307 . S
C515 C513 1.402 . S
C515 N514 1.307 . S
C515 H516 0.930 . S
H516 C515 0.930 . S
C517 N518 1.334 . S
C517 C519 1.394 . S
C517 H521 0.930 . S
N518 Gd505 2.601 . S
N518 C508 1.359 . S
N518 C517 1.334 . S
C519 C517 1.394 . S
C519 C520 1.359 . S
C519 H531 0.930 . S
C520 C510 1.391 . S
C520 C519 1.359 . S
C520 H532 0.929 . S
H521 C517 0.930 . S
H522 C511 0.930 . S
H523 C540 0.930 . S
H524 C512 0.930 . S
H525 C513 0.930 . S
H526 C507 0.929 . S
H527 C545 0.930 . S
H528 C536 0.930 1_565 S
H529 C537 0.930 . S
H530 C561 0.929 . S
H531 C519 0.930 . S
H532 C520 0.929 . S
H533 C562 0.930 . S
H534 C543 0.930 . S
N535 Gd504 2.661 . S
N535 C539 1.350 . S
N535 C540 1.307 . S
C536 H528 0.930 1_545 S
C536 C537 1.355 . S
C536 C538 1.412 . S
C537 H529 0.930 . S
C537 C536 1.355 . S
C537 C540 1.402 . S
C538 C536 1.412 . S
C538 C539 1.417 . S
C538 C562 1.431 1_545 S
C539 N535 1.350 . S
C539 C538 1.417 . S
C539 C542 1.426 . S
C540 H523 0.930 . S
C540 N535 1.307 . S
C540 C537 1.402 . S
N541 Gd504 2.601 . S
N541 C542 1.359 . S
N541 C545 1.334 . S
C542 C539 1.426 . S
C542 N541 1.359 . S
C542 C546 1.406 1_545 S
C543 H534 0.930 . S
C543 C544 1.359 1_545 S
C543 C545 1.394 . S
C544 C543 1.359 1_565 S
C544 C546 1.390 . S
C544 H547 0.929 . S
C545 H527 0.930 . S
C545 N541 1.334 . S
C545 C543 1.394 . S
C546 C542 1.406 1_565 S
C546 C544 1.390 . S
C546 C561 1.445 . S
H547 C544 0.929 . S
O548 Gd504 2.545 . S
O548 C563 1.258 . S
O549 Gd504 2.606 . S
O549 Gd505 2.362 . S
O549 C560 1.284 . S
O550 Gd505 2.324 . S
O550 C570 1.254 . S
O551 Gd504 2.429 . S
O551 C570 1.268 . S
O552 Gd504 2.545 . S
O552 C560 1.250 . S
O553 Gd504 2.412 . S
O553 C563 1.252 . S
O554 Gd505 2.545 . S
O554 C572 1.258 . S
O555 Gd504 2.362 . S
O555 Gd505 2.606 . S
O555 C571 1.284 . S
O556 Gd504 2.324 . S
O556 C579 1.254 . S
O557 Gd505 2.429 . S
O557 C579 1.268 . S
O558 Gd505 2.545 . S
O558 C571 1.250 . S
O559 Gd505 2.412 . S
O559 C572 1.252 . S
C560 O549 1.284 . S
C560 O552 1.250 . S
C561 H530 0.929 . S
C561 C546 1.445 . S
C561 C562 1.317 . S
C562 H533 0.930 . S
C562 C538 1.431 1_565 S
C562 C561 1.317 . S
C563 Gd504 2.828 . S
C563 O548 1.258 . S
C563 O553 1.252 . S
C563 C564 1.497 1_545 S
C564 C563 1.497 1_565 S
C564 C565 1.395 . S
C564 C566 1.380 . S
C565 C564 1.395 . S
C565 C568 1.398 . S
C565 H580 0.930 . S
C566 C564 1.380 . S
C566 C567 1.391 . S
C566 H581 0.930 . S
C567 C566 1.391 . S
C567 C569 1.387 . S
C568 C565 1.398 . S
C568 C569 1.380 . S
C568 H582 0.930 . S
C569 C567 1.387 . S
C569 C568 1.380 . S
C569 H583 0.930 . S
C570 O550 1.254 . S
C570 O551 1.268 . S
C571 O555 1.284 . S
C571 O558 1.250 . S
C572 Gd505 2.828 . S
C572 O554 1.258 . S
C572 O559 1.252 . S
C572 C573 1.497 . S
C573 C572 1.497 . S
C573 C574 1.395 . S
C573 C575 1.380 . S
C574 C573 1.395 . S
C574 C577 1.398 . S
C574 H584 0.930 . S
C575 C573 1.380 . S
C575 C576 1.391 . S
C575 H585 0.930 . S
C576 C575 1.391 . S
C576 C578 1.387 . S
C577 C574 1.398 . S
C577 C578 1.380 . S
C577 H586 0.930 . S
C578 C576 1.387 . S
C578 C577 1.380 . S
C578 H587 0.930 . S
C579 O556 1.254 . S
C579 O557 1.268 . S
H580 C565 0.930 . S
H581 C566 0.930 . S
H582 C568 0.930 . S
H583 C569 0.930 . S
H584 C574 0.930 . S
H585 C575 0.930 . S
H586 C577 0.930 . S
H587 C578 0.930 . S
Gd588 N619 2.661 . S
Gd588 N625 2.601 . S
Gd588 O632 2.545 . S
Gd588 O633 2.606 . S
Gd588 O635 2.429 . S
Gd588 O636 2.545 . S
Gd588 O637 2.412 . S
Gd588 O639 2.362 . S
Gd588 O640 2.324 . S
Gd588 C647 2.828 1_655 S
Gd589 N598 2.661 . S
Gd589 N602 2.601 . S
Gd589 O633 2.362 . S
Gd589 O634 2.324 . S
Gd589 O638 2.545 . S
Gd589 O639 2.606 . S
Gd589 O641 2.429 . S
Gd589 O642 2.545 . S
Gd589 O643 2.412 . S
Gd589 C656 2.828 . S
C590 C593 1.417 . S
C590 C595 1.448 . S
C590 C596 1.412 . S
C591 C594 1.437 . S
C591 C595 1.323 . S
C591 H610 0.929 1_545 S
C592 C593 1.426 . S
C592 C594 1.413 . S
C592 N602 1.359 . S
C593 C590 1.417 . S
C593 C592 1.426 . S
C593 N598 1.350 . S
C594 C591 1.437 . S
C594 C592 1.413 . S
C594 C604 1.391 . S
C595 C590 1.448 . S
C595 C591 1.323 . S
C595 H606 0.907 1_545 S
C596 C590 1.412 . S
C596 C597 1.355 . S
C596 H608 0.930 . S
C597 C596 1.355 . S
C597 C599 1.402 . S
C597 H609 0.930 . S
N598 Gd589 2.661 . S
N598 C593 1.350 . S
N598 C599 1.307 . S
C599 C597 1.402 . S
C599 N598 1.307 . S
C599 H600 0.930 . S
H600 C599 0.930 . S
C601 N602 1.334 . S
C601 C603 1.394 . S
C601 H605 0.930 . S
N602 Gd589 2.601 . S
N602 C592 1.359 . S
N602 C601 1.334 . S
C603 C601 1.394 . S
C603 C604 1.359 . S
C603 H615 0.930 . S
C604 C594 1.391 . S
C604 C603 1.359 . S
C604 H616 0.929 . S
H605 C601 0.930 . S
H606 C595 0.907 1_565 S
H607 C624 0.930 . S
H608 C596 0.930 . S
H609 C597 0.930 . S
H610 C591 0.929 1_565 S
H611 C629 0.930 . S
H612 C620 0.930 . S
H613 C621 0.930 . S
H614 C645 0.929 . S
H615 C603 0.930 . S
H616 C604 0.929 . S
H617 C646 0.930 . S
H618 C627 0.930 . S
N619 Gd588 2.661 . S
N619 C623 1.350 . S
N619 C624 1.307 . S
C620 H612 0.930 . S
C620 C621 1.355 1_455 S
C620 C622 1.412 . S
C621 H613 0.930 . S
C621 C620 1.355 1_655 S
C621 C624 1.402 . S
C622 C620 1.412 . S
C622 C623 1.417 1_455 S
C622 C646 1.431 . S
C623 N619 1.350 . S
C623 C622 1.417 1_655 S
C623 C626 1.426 . S
C624 H607 0.930 . S
C624 N619 1.307 . S
C624 C621 1.402 . S
N625 Gd588 2.601 . S
N625 C626 1.359 . S
N625 C629 1.334 . S
C626 C623 1.426 . S
C626 N625 1.359 . S
C626 C630 1.413 1_655 S
C627 H618 0.930 . S
C627 C628 1.359 1_655 S
C627 C629 1.394 . S
C628 C627 1.359 1_455 S
C628 C630 1.391 . S
C628 H631 0.929 . S
C629 H611 0.930 . S
C629 N625 1.334 . S
C629 C627 1.394 . S
C630 C626 1.413 1_455 S
C630 C628 1.391 . S
C630 C645 1.437 . S
H631 C628 0.929 . S
O632 Gd588 2.545 . S
O632 C647 1.258 1_655 S
O633 Gd588 2.606 . S
O633 Gd589 2.362 . S
O633 C644 1.284 . S
O634 Gd589 2.324 . S
O634 C654 1.254 . S
O635 Gd588 2.429 . S
O635 C654 1.268 . S
O636 Gd588 2.545 . S
O636 C644 1.250 . S
O637 Gd588 2.412 . S
O637 C647 1.252 1_655 S
O638 Gd589 2.545 . S
O638 C656 1.258 . S
O639 Gd588 2.362 . S
O639 Gd589 2.606 . S
O639 C655 1.284 . S
O640 Gd588 2.324 . S
O640 C663 1.254 . S
O641 Gd589 2.429 . S
O641 C663 1.268 . S
O642 Gd589 2.545 . S
O642 C655 1.250 . S
O643 Gd589 2.412 . S
O643 C656 1.252 . S
C644 O633 1.284 . S
C644 O636 1.250 . S
C645 H614 0.929 . S
C645 C630 1.437 . S
C645 C646 1.317 . S
C646 H617 0.930 . S
C646 C622 1.431 . S
C646 C645 1.317 . S
C647 Gd588 2.828 1_455 S
C647 O632 1.258 1_455 S
C647 O637 1.252 1_455 S
C647 C648 1.497 . S
C648 C647 1.497 . S
C648 C649 1.395 . S
C648 C650 1.380 . S
C649 C648 1.395 . S
C649 C652 1.398 . S
C649 H664 0.930 . S
C650 C648 1.380 . S
C650 C651 1.391 . S
C650 H665 0.930 . S
C651 C650 1.391 . S
C651 C653 1.387 . S
C652 C649 1.398 . S
C652 C653 1.380 . S
C652 H666 0.930 . S
C653 C651 1.387 . S
C653 C652 1.380 . S
C653 H667 0.930 . S
C654 O634 1.254 . S
C654 O635 1.268 . S
C655 O639 1.284 . S
C655 O642 1.250 . S
C656 Gd589 2.828 . S
C656 O638 1.258 . S
C656 O643 1.252 . S
C656 C657 1.497 . S
C657 C656 1.497 . S
C657 C658 1.395 . S
C657 C659 1.380 . S
C658 C657 1.395 . S
C658 C661 1.398 . S
C658 H668 0.930 . S
C659 C657 1.380 . S
C659 C660 1.391 . S
C659 H669 0.930 . S
C660 C659 1.391 . S
C660 C662 1.387 . S
C661 C658 1.398 . S
C661 C662 1.380 . S
C661 H670 0.930 . S
C662 C660 1.387 . S
C662 C661 1.380 . S
C662 H671 0.930 . S
C663 O640 1.254 . S
C663 O641 1.268 . S
H664 C649 0.930 . S
H665 C650 0.930 . S
H666 C652 0.930 . S
H667 C653 0.930 . S
H668 C658 0.930 . S
H669 C659 0.930 . S
H670 C661 0.930 . S
H671 C662 0.930 . S
Gd672 N703 2.661 . S
Gd672 N709 2.601 . S
Gd672 O716 2.545 . S
Gd672 O717 2.606 . S
Gd672 O719 2.429 . S
Gd672 O720 2.545 . S
Gd672 O721 2.412 . S
Gd672 O723 2.362 . S
Gd672 O724 2.324 . S
Gd672 C731 2.828 . S
Gd673 N682 2.661 . S
Gd673 N686 2.601 . S
Gd673 O717 2.362 . S
Gd673 O718 2.324 . S
Gd673 O722 2.545 . S
Gd673 O723 2.606 . S
Gd673 O725 2.429 . S
Gd673 O726 2.545 . S
Gd673 O727 2.412 . S
Gd673 C740 2.828 . S
C674 C677 1.417 . S
C674 C679 1.431 1_655 S
C674 C680 1.412 . S
C675 C678 1.437 1_455 S
C675 C679 1.317 . S
C675 H694 0.929 . S
C676 C677 1.426 . S
C676 C678 1.413 . S
C676 N686 1.359 . S
C677 C674 1.417 . S
C677 C676 1.426 . S
C677 N682 1.350 . S
C678 C675 1.437 1_655 S
C678 C676 1.413 . S
C678 C688 1.391 . S
C679 C674 1.431 1_455 S
C679 C675 1.317 . S
C679 H690 0.930 . S
C680 C674 1.412 . S
C680 C681 1.355 . S
C680 H692 0.930 1_655 S
C681 C680 1.355 . S
C681 C683 1.402 . S
C681 H693 0.930 . S
N682 Gd673 2.661 . S
N682 C677 1.350 . S
N682 C683 1.307 . S
C683 C681 1.402 . S
C683 N682 1.307 . S
C683 H684 0.930 . S
H684 C683 0.930 . S
C685 N686 1.334 . S
C685 C687 1.394 . S
C685 H689 0.930 . S
N686 Gd673 2.601 . S
N686 C676 1.359 . S
N686 C685 1.334 . S
C687 C685 1.394 . S
C687 C688 1.359 . S
C687 H699 0.930 . S
C688 C678 1.391 . S
C688 C687 1.359 . S
C688 H700 0.929 . S
H689 C685 0.930 . S
H690 C679 0.930 . S
H691 C708 0.930 . S
H692 C680 0.930 1_455 S
H693 C681 0.930 . S
H694 C675 0.929 . S
H695 C713 0.930 . S
H696 C704 0.930 . S
H697 C705 0.930 . S
H698 C729 0.929 . S
H699 C687 0.930 . S
H700 C688 0.929 . S
H701 C730 0.930 . S
H702 C711 0.930 . S
N703 Gd672 2.661 . S
N703 C707 1.350 . S
N703 C708 1.307 . S
C704 H696 0.930 . S
C704 C705 1.355 . S
C704 C706 1.412 . S
C705 H697 0.930 . S
C705 C704 1.355 . S
C705 C708 1.402 . S
C706 C704 1.412 . S
C706 C707 1.417 . S
C706 C730 1.431 . S
C707 N703 1.350 . S
C707 C706 1.417 . S
C707 C710 1.426 . S
C708 H691 0.930 . S
C708 N703 1.307 . S
C708 C705 1.402 . S
N709 Gd672 2.601 . S
N709 C710 1.359 . S
N709 C713 1.334 . S
C710 C707 1.426 . S
C710 N709 1.359 . S
C710 C714 1.413 . S
C711 H702 0.930 . S
C711 C712 1.359 . S
C711 C713 1.394 . S
C712 C711 1.359 . S
C712 C714 1.391 . S
C712 H715 0.929 . S
C713 H695 0.930 . S
C713 N709 1.334 . S
C713 C711 1.394 . S
C714 C710 1.413 . S
C714 C712 1.391 . S
C714 C729 1.437 . S
H715 C712 0.929 . S
O716 Gd672 2.545 . S
O716 C731 1.258 . S
O717 Gd672 2.606 . S
O717 Gd673 2.362 . S
O717 C728 1.284 . S
O718 Gd673 2.324 . S
O718 C738 1.254 . S
O719 Gd672 2.429 . S
O719 C738 1.268 . S
O720 Gd672 2.545 . S
O720 C728 1.250 . S
O721 Gd672 2.412 . S
O721 C731 1.252 . S
O722 Gd673 2.545 . S
O722 C740 1.258 . S
O723 Gd672 2.362 . S
O723 Gd673 2.606 . S
O723 C739 1.284 . S
O724 Gd672 2.324 . S
O724 C747 1.254 . S
O725 Gd673 2.429 . S
O725 C747 1.268 . S
O726 Gd673 2.545 . S
O726 C739 1.250 . S
O727 Gd673 2.412 . S
O727 C740 1.252 . S
C728 O717 1.284 . S
C728 O720 1.250 . S
C729 H698 0.929 . S
C729 C714 1.437 . S
C729 C730 1.317 . S
C730 H701 0.930 . S
C730 C706 1.431 . S
C730 C729 1.317 . S
C731 Gd672 2.828 . S
C731 O716 1.258 . S
C731 O721 1.252 . S
C731 C732 1.497 . S
C732 C731 1.497 . S
C732 C733 1.395 . S
C732 C734 1.380 . S
C733 C732 1.395 . S
C733 C736 1.398 . S
C733 H748 0.930 . S
C734 C732 1.380 . S
C734 C735 1.391 . S
C734 H749 0.930 . S
C735 C734 1.391 . S
C735 C737 1.387 . S
C736 C733 1.398 . S
C736 C737 1.380 . S
C736 H750 0.930 . S
C737 C735 1.387 . S
C737 C736 1.380 . S
C737 H751 0.930 . S
C738 O718 1.254 . S
C738 O719 1.268 . S
C739 O723 1.284 . S
C739 O726 1.250 . S
C740 Gd673 2.828 . S
C740 O722 1.258 . S
C740 O727 1.252 . S
C740 C741 1.497 . S
C741 C740 1.497 . S
C741 C742 1.395 . S
C741 C743 1.380 . S
C742 C741 1.395 . S
C742 C745 1.398 . S
C742 H752 0.930 . S
C743 C741 1.380 . S
C743 C744 1.391 . S
C743 H753 0.930 . S
C744 C743 1.391 . S
C744 C746 1.387 . S
C745 C742 1.398 . S
C745 C746 1.380 . S
C745 H754 0.930 . S
C746 C744 1.387 . S
C746 C745 1.380 . S
C746 H755 0.930 . S
C747 O724 1.254 . S
C747 O725 1.268 . S
H748 C733 0.930 . S
H749 C734 0.930 . S
H750 C736 0.930 . S
H751 C737 0.930 . S
H752 C742 0.930 . S
H753 C743 0.930 . S
H754 C745 0.930 . S
H755 C746 0.930 . S
H756 C762 0.930 . S
H757 C766 0.930 . S
H758 C771 0.929 . S
H759 C769 0.929 . S
H760 C764 0.929 . S
H761 C770 0.929 . S
C762 H756 0.930 . S
C762 C763 1.367 1_556 S
C762 C770 1.378 . S
C763 C762 1.367 1_554 S
C763 C771 1.433 . S
C764 H760 0.929 . S
C764 C766 1.378 . S
C764 C768 1.350 . S
C765 C768 1.463 . S
C765 C770 1.350 1_554 S
C765 N773 1.427 . S
C766 H757 0.930 . S
C766 C764 1.378 . S
C766 C767 1.367 . S
C767 C766 1.367 . S
C767 C769 1.433 1_554 S
C768 C764 1.350 . S
C768 C765 1.463 . S
C768 N772 1.427 1_554 S
C769 H759 0.929 . S
C769 C767 1.433 1_556 S
C769 N772 1.384 . S
C770 H761 0.929 . S
C770 C762 1.378 . S
C770 C765 1.350 1_556 S
C771 H758 0.929 . S
C771 C763 1.433 . S
C771 N773 1.384 . S
N772 C768 1.427 1_556 S
N772 C769 1.384 . S
N773 C765 1.427 . S
N773 C771 1.384 . S
H774 C780 0.930 . S
H775 C784 0.930 . S
H776 C789 0.925 1_556 S
H777 C787 0.929 . S
H778 C782 0.929 . S
H779 C788 0.929 . S
C780 H774 0.930 . S
C780 C781 1.367 . S
C780 C788 1.378 . S
C781 C780 1.367 . S
C781 C789 1.439 . S
C782 H778 0.929 . S
C782 C784 1.378 . S
C782 C786 1.350 1_556 S
C783 C786 1.463 . S
C783 C788 1.350 . S
C783 N791 1.427 1_554 S
C784 H775 0.930 . S
C784 C782 1.378 . S
C784 C785 1.367 1_556 S
C785 C784 1.367 1_554 S
C785 C787 1.433 . S
C786 C782 1.350 1_554 S
C786 C783 1.463 . S
C786 N790 1.427 . S
C787 H777 0.929 . S
C787 C785 1.433 . S
C787 N790 1.384 . S
C788 H779 0.929 . S
C788 C780 1.378 . S
C788 C783 1.350 . S
C789 H776 0.925 1_554 S
C789 C781 1.439 . S
C789 N791 1.383 1_554 S
N790 C786 1.427 . S
N790 C787 1.384 . S
N791 C783 1.427 1_556 S
N791 C789 1.383 1_556 S
H792 C798 0.930 . S
H793 C802 0.930 . S
H794 C807 0.929 . S
H795 C805 0.929 . S
H796 C800 0.929 . S
H797 C806 0.929 . S
C798 H792 0.930 . S
C798 C799 1.367 . S
C798 C806 1.378 . S
C799 C798 1.367 . S
C799 C807 1.433 1_554 S
C800 H796 0.929 . S
C800 C802 1.378 . S
C800 C804 1.350 1_556 S
C801 C804 1.463 . S
C801 C806 1.350 . S
C801 N809 1.427 1_554 S
C802 H793 0.930 . S
C802 C800 1.378 . S
C802 C803 1.367 1_556 S
C803 C802 1.367 1_554 S
C803 C805 1.433 . S
C804 C800 1.350 1_554 S
C804 C801 1.463 . S
C804 N808 1.427 . S
C805 H795 0.929 . S
C805 C803 1.433 . S
C805 N808 1.384 . S
C806 H797 0.929 . S
C806 C798 1.378 . S
C806 C801 1.350 . S
C807 H794 0.929 . S
C807 C799 1.433 1_556 S
C807 N809 1.384 . S
N808 C804 1.427 . S
N808 C805 1.384 . S
N809 C801 1.427 1_556 S
N809 C807 1.384 . S
H810 C816 0.930 . S
H811 C820 0.930 . S
H812 C825 0.929 . S
H813 C823 0.929 . S
H814 C818 0.929 . S
H815 C824 0.929 . S
C816 H810 0.930 . S
C816 C817 1.367 1_554 S
C816 C824 1.378 . S
C817 C816 1.367 1_556 S
C817 C825 1.433 . S
C818 H814 0.929 . S
C818 C820 1.378 . S
C818 C822 1.350 . S
C819 C822 1.463 . S
C819 C824 1.350 1_556 S
C819 N827 1.427 . S
C820 H811 0.930 . S
C820 C818 1.378 . S
C820 C821 1.367 1_556 S
C821 C820 1.367 1_554 S
C821 C823 1.433 . S
C822 C818 1.350 . S
C822 C819 1.463 . S
C822 N826 1.427 1_556 S
C823 H813 0.929 . S
C823 C821 1.433 . S
C823 N826 1.384 . S
C824 H815 0.929 . S
C824 C816 1.378 . S
C824 C819 1.350 1_554 S
C825 H812 0.929 . S
C825 C817 1.433 . S
C825 N827 1.384 . S
N826 C822 1.427 1_554 S
N826 C823 1.384 . S
N827 C819 1.427 . S
N827 C825 1.384 . S
H828 C834 0.930 . S
H829 C838 0.930 . S
H830 C843 0.929 . S
H831 C841 0.929 . S
H832 C836 0.929 . S
H833 C842 0.929 . S
C834 H828 0.930 . S
C834 C835 1.367 . S
C834 C842 1.378 . S
C835 C834 1.367 . S
C835 C843 1.433 1_554 S
C836 H832 0.929 . S
C836 C838 1.378 . S
C836 C840 1.350 . S
C837 C840 1.463 . S
C837 C842 1.350 1_556 S
C837 N845 1.427 . S
C838 H829 0.930 . S
C838 C836 1.378 . S
C838 C839 1.367 . S
C839 C838 1.367 . S
C839 C841 1.433 1_556 S
C840 C836 1.350 . S
C840 C837 1.463 . S
C840 N844 1.427 1_556 S
C841 H831 0.929 . S
C841 C839 1.433 1_554 S
C841 N844 1.384 . S
C842 H833 0.929 . S
C842 C834 1.378 . S
C842 C837 1.350 1_554 S
C843 H830 0.929 . S
C843 C835 1.433 1_556 S
C843 N845 1.384 . S
N844 C840 1.427 1_554 S
N844 C841 1.384 . S
N845 C837 1.427 . S
N845 C843 1.384 . S
H846 C852 0.930 . S
H847 C856 0.930 . S
H848 C861 0.929 . S
H849 C859 0.929 . S
H850 C854 0.929 . S
H851 C860 0.929 . S
C852 H846 0.930 . S
C852 C853 1.367 . S
C852 C860 1.378 . S
C853 C852 1.367 . S
C853 C861 1.433 1_554 S
C854 H850 0.929 . S
C854 C856 1.378 . S
C854 C858 1.350 . S
C855 C858 1.463 . S
C855 C860 1.350 1_556 S
C855 N863 1.427 . S
C856 H847 0.930 . S
C856 C854 1.378 . S
C856 C857 1.367 . S
C857 C856 1.367 . S
C857 C859 1.433 1_556 S
C858 C854 1.350 . S
C858 C855 1.463 . S
C858 N862 1.427 1_556 S
C859 H849 0.929 . S
C859 C857 1.433 1_554 S
C859 N862 1.384 . S
C860 H851 0.929 . S
C860 C852 1.378 . S
C860 C855 1.350 1_554 S
C861 H848 0.929 . S
C861 C853 1.433 1_556 S
C861 N863 1.384 . S
N862 C858 1.427 1_554 S
N862 C859 1.384 . S
N863 C855 1.427 . S
N863 C861 1.384 . S
H864 C870 0.930 . S
H865 C874 0.930 . S
H866 C879 0.929 . S
H867 C877 0.929 . S
H868 C872 0.929 . S
H869 C878 0.929 . S
C870 H864 0.930 . S
C870 C871 1.367 . S
C870 C878 1.378 . S
C871 C870 1.367 . S
C871 C879 1.433 . S
C872 H868 0.929 . S
C872 C874 1.378 . S
C872 C876 1.350 . S
C873 C876 1.463 . S
C873 C878 1.350 . S
C873 N881 1.427 . S
C874 H865 0.930 . S
C874 C872 1.378 . S
C874 C875 1.367 . S
C875 C874 1.367 . S
C875 C877 1.433 . S
C876 C872 1.350 . S
C876 C873 1.463 . S
C876 N880 1.427 . S
C877 H867 0.929 . S
C877 C875 1.433 . S
C877 N880 1.384 . S
C878 H869 0.929 . S
C878 C870 1.378 . S
C878 C873 1.350 . S
C879 H866 0.929 . S
C879 C871 1.433 . S
C879 N881 1.384 . S
N880 C876 1.427 . S
N880 C877 1.384 . S
N881 C873 1.427 . S
N881 C879 1.384 . S
H882 C888 0.930 . S
H883 C892 0.930 . S
H884 C897 0.929 . S
H885 C895 0.929 . S
H886 C890 0.929 . S
H887 C896 0.929 . S
C888 H882 0.930 . S
C888 C889 1.367 . S
C888 C896 1.378 . S
C889 C888 1.367 . S
C889 C897 1.433 . S
C890 H886 0.929 . S
C890 C892 1.378 . S
C890 C894 1.350 1_565 S
C891 C894 1.463 . S
C891 C896 1.350 . S
C891 N899 1.427 . S
C892 H883 0.930 . S
C892 C890 1.378 . S
C892 C893 1.367 . S
C893 C892 1.367 . S
C893 C895 1.433 1_565 S
C894 C890 1.350 1_545 S
C894 C891 1.463 . S
C894 N898 1.427 . S
C895 H885 0.929 . S
C895 C893 1.433 1_545 S
C895 N898 1.384 . S
C896 H887 0.929 . S
C896 C888 1.378 . S
C896 C891 1.350 . S
C897 H884 0.929 . S
C897 C889 1.433 . S
C897 N899 1.384 . S
N898 C894 1.427 . S
N898 C895 1.384 . S
N899 C891 1.427 . S
N899 C897 1.384 . S
H900 C906 0.930 . S
H901 C910 0.930 . S
H902 C915 0.929 . S
H903 C913 0.929 . S
H904 C908 0.929 . S
H905 C914 0.936 . S
C906 H900 0.930 . S
C906 C907 1.367 . S
C906 C914 1.373 1_455 S
C907 C906 1.367 . S
C907 C915 1.433 . S
C908 H904 0.929 . S
C908 C910 1.378 . S
C908 C912 1.350 . S
C909 C912 1.463 . S
C909 C914 1.348 . S
C909 N917 1.427 1_655 S
C910 H901 0.930 . S
C910 C908 1.378 . S
C910 C911 1.367 . S
C911 C910 1.367 . S
C911 C913 1.433 . S
C912 C908 1.350 . S
C912 C909 1.463 . S
C912 N916 1.427 . S
C913 H903 0.929 . S
C913 C911 1.433 . S
C913 N916 1.384 . S
C914 H905 0.936 . S
C914 C906 1.373 1_655 S
C914 C909 1.348 . S
C915 H902 0.929 . S
C915 C907 1.433 . S
C915 N917 1.384 . S
N916 C912 1.427 . S
N916 C913 1.384 . S
N917 C909 1.427 1_455 S
N917 C915 1.384 . S
H918 C924 0.930 . S
H919 C928 0.930 . S
H920 C933 0.929 . S
H921 C931 0.929 . S
H922 C926 0.929 . S
H923 C932 0.929 . S
C924 H918 0.930 . S
C924 C925 1.367 . S
C924 C932 1.378 . S
C925 C924 1.367 . S
C925 C933 1.433 . S
C926 H922 0.929 . S
C926 C928 1.378 . S
C926 C930 1.350 . S
C927 C930 1.463 . S
C927 C932 1.350 . S
C927 N935 1.427 . S
C928 H919 0.930 . S
C928 C926 1.378 . S
C928 C929 1.367 . S
C929 C928 1.367 . S
C929 C931 1.433 . S
C930 C926 1.350 . S
C930 C927 1.463 . S
C930 N934 1.427 . S
C931 H921 0.929 . S
C931 C929 1.433 . S
C931 N934 1.384 . S
C932 H923 0.929 . S
C932 C924 1.378 . S
C932 C927 1.350 . S
C933 H920 0.929 . S
C933 C925 1.433 . S
C933 N935 1.384 . S
N934 C930 1.427 . S
N934 C931 1.384 . S
N935 C927 1.427 . S
N935 C933 1.384 . S
H936 C942 0.930 . S
H937 C946 0.930 . S
H938 C951 0.929 . S
H939 C949 0.929 . S
H940 C944 0.929 . S
H941 C950 0.929 . S
C942 H936 0.930 . S
C942 C943 1.367 . S
C942 C950 1.378 . S
C943 C942 1.367 . S
C943 C951 1.433 . S
C944 H940 0.929 . S
C944 C946 1.378 . S
C944 C948 1.350 . S
C945 C948 1.463 . S
C945 C950 1.350 . S
C945 N953 1.427 . S
C946 H937 0.930 . S
C946 C944 1.378 . S
C946 C947 1.367 . S
C947 C946 1.367 . S
C947 C949 1.433 . S
C948 C944 1.350 . S
C948 C945 1.463 . S
C948 N952 1.427 . S
C949 H939 0.929 . S
C949 C947 1.433 . S
C949 N952 1.384 . S
C950 H941 0.929 . S
C950 C942 1.378 . S
C950 C945 1.350 . S
C951 H938 0.929 . S
C951 C943 1.433 . S
C951 N953 1.384 . S
N952 C948 1.427 . S
N952 C949 1.384 . S
N953 C945 1.427 . S
N953 C951 1.384 . S
H954 C960 0.930 . S
H955 C964 0.930 . S
H956 C969 0.929 . S
H957 C967 0.929 . S
H958 C962 0.929 . S
H959 C968 0.929 . S
C960 H954 0.930 . S
C960 C961 1.367 . S
C960 C968 1.378 . S
C961 C960 1.367 . S
C961 C969 1.433 . S
C962 H958 0.929 . S
C962 C964 1.378 . S
C962 C966 1.350 . S
C963 C966 1.463 . S
C963 C968 1.350 . S
C963 N971 1.427 . S
C964 H955 0.930 . S
C964 C962 1.378 . S
C964 C965 1.367 . S
C965 C964 1.367 . S
C965 C967 1.433 . S
C966 C962 1.350 . S
C966 C963 1.463 . S
C966 N970 1.427 . S
C967 H957 0.929 . S
C967 C965 1.433 . S
C967 N970 1.384 . S
C968 H959 0.929 . S
C968 C960 1.378 . S
C968 C963 1.350 . S
C969 H956 0.929 . S
C969 C961 1.433 . S
C969 N971 1.384 . S
N970 C966 1.427 . S
N970 C967 1.384 . S
N971 C963 1.427 . S
N971 C969 1.384 . S
H972 C978 0.930 . S
H973 C982 0.930 . S
H974 C987 0.929 . S
H975 C985 0.929 . S
H976 C980 0.929 . S
H977 C986 0.929 . S
C978 H972 0.930 . S
C978 C979 1.367 . S
C978 C986 1.378 . S
C979 C978 1.367 . S
C979 C987 1.433 . S
C980 H976 0.929 . S
C980 C982 1.378 . S
C980 C984 1.350 . S
C981 C984 1.463 . S
C981 C986 1.350 . S
C981 N989 1.427 . S
C982 H973 0.930 . S
C982 C980 1.378 . S
C982 C983 1.367 . S
C983 C982 1.367 . S
C983 C985 1.433 . S
C984 C980 1.350 . S
C984 C981 1.463 . S
C984 N988 1.427 . S
C985 H975 0.929 . S
C985 C983 1.433 . S
C985 N988 1.384 . S
C986 H977 0.929 . S
C986 C978 1.378 . S
C986 C981 1.350 . S
C987 H974 0.929 . S
C987 C979 1.433 . S
C987 N989 1.384 . S
N988 C984 1.427 . S
N988 C985 1.384 . S
N989 C981 1.427 . S
N989 C987 1.384 . S
H990 C996 0.930 . S
H991 C1000 0.930 . S
H992 C1005 0.929 . S
H993 C1003 0.929 . S
H994 C998 0.929 . S
H995 C1004 0.929 . S
C996 H990 0.930 . S
C996 C997 1.367 . S
C996 C1004 1.378 . S
C997 C996 1.367 . S
C997 C1005 1.433 . S
C998 H994 0.929 . S
C998 C1000 1.378 . S
C998 C1002 1.350 . S
C999 C1002 1.463 . S
C999 C1004 1.350 . S
C999 N1007 1.427 . S
C1000 H991 0.930 . S
C1000 C998 1.378 . S
C1000 C1001 1.367 . S
C1001 C1000 1.367 . S
C1001 C1003 1.433 . S
C1002 C998 1.350 . S
C1002 C999 1.463 . S
C1002 N1006 1.427 . S
C1003 H993 0.929 . S
C1003 C1001 1.433 . S
C1003 N1006 1.384 . S
C1004 H995 0.929 . S
C1004 C996 1.378 . S
C1004 C999 1.350 . S
C1005 H992 0.929 . S
C1005 C997 1.433 . S
C1005 N1007 1.384 . S
N1006 C1002 1.427 . S
N1006 C1003 1.384 . S
N1007 C999 1.427 . S
N1007 C1005 1.384 . S
H1008 C1014 0.930 . S
H1009 C1018 0.930 . S
H1010 C1023 0.929 . S
H1011 C1021 0.929 . S
H1012 C1016 0.929 . S
H1013 C1022 0.929 . S
C1014 H1008 0.930 . S
C1014 C1015 1.367 . S
C1014 C1022 1.378 . S
C1015 C1014 1.367 . S
C1015 C1023 1.433 . S
C1016 H1012 0.929 . S
C1016 C1018 1.378 . S
C1016 C1020 1.350 . S
C1017 C1020 1.463 . S
C1017 C1022 1.350 . S
C1017 N1025 1.427 . S
C1018 H1009 0.930 . S
C1018 C1016 1.378 . S
C1018 C1019 1.367 . S
C1019 C1018 1.367 . S
C1019 C1021 1.433 . S
C1020 C1016 1.350 . S
C1020 C1017 1.463 . S
C1020 N1024 1.427 . S
C1021 H1011 0.929 . S
C1021 C1019 1.433 . S
C1021 N1024 1.384 . S
C1022 H1013 0.929 . S
C1022 C1014 1.378 . S
C1022 C1017 1.350 . S
C1023 H1010 0.929 . S
C1023 C1015 1.433 . S
C1023 N1025 1.384 . S
N1024 C1020 1.427 . S
N1024 C1021 1.384 . S
N1025 C1017 1.427 . S
N1025 C1023 1.384 . S
H1026 C1032 0.930 . S
H1027 C1036 0.930 . S
H1028 C1041 0.929 . S
H1029 C1039 0.929 . S
H1030 C1034 0.929 . S
H1031 C1040 0.929 . S
C1032 H1026 0.930 . S
C1032 C1033 1.367 . S
C1032 C1040 1.378 . S
C1033 C1032 1.367 . S
C1033 C1041 1.433 . S
C1034 H1030 0.929 . S
C1034 C1036 1.378 . S
C1034 C1038 1.350 . S
C1035 C1038 1.463 1_565 S
C1035 C1040 1.350 . S
C1035 N1043 1.427 . S
C1036 H1027 0.930 . S
C1036 C1034 1.378 . S
C1036 C1037 1.367 . S
C1037 C1036 1.367 . S
C1037 C1039 1.433 . S
C1038 C1034 1.350 . S
C1038 C1035 1.463 1_545 S
C1038 N1042 1.427 . S
C1039 H1029 0.929 . S
C1039 C1037 1.433 . S
C1039 N1042 1.384 . S
C1040 H1031 0.929 . S
C1040 C1032 1.378 . S
C1040 C1035 1.350 . S
C1041 H1028 0.929 . S
C1041 C1033 1.433 . S
C1041 N1043 1.384 . S
N1042 C1038 1.427 . S
N1042 C1039 1.384 . S
N1043 C1035 1.427 . S
N1043 C1041 1.384 . S
H1044 C1050 0.930 . S
H1045 C1054 0.930 . S
H1046 C1059 0.929 . S
H1047 C1057 0.929 . S
H1048 C1052 0.929 . S
H1049 C1058 0.929 . S
C1050 H1044 0.930 . S
C1050 C1051 1.367 . S
C1050 C1058 1.378 . S
C1051 C1050 1.367 . S
C1051 C1059 1.433 . S
C1052 H1048 0.929 . S
C1052 C1054 1.378 . S
C1052 C1056 1.350 . S
C1053 C1056 1.463 1_655 S
C1053 C1058 1.350 . S
C1053 N1061 1.427 . S
C1054 H1045 0.930 . S
C1054 C1052 1.378 . S
C1054 C1055 1.367 . S
C1055 C1054 1.367 . S
C1055 C1057 1.433 . S
C1056 C1052 1.350 . S
C1056 C1053 1.463 1_455 S
C1056 N1060 1.427 . S
C1057 H1047 0.929 . S
C1057 C1055 1.433 . S
C1057 N1060 1.384 . S
C1058 H1049 0.929 . S
C1058 C1050 1.378 . S
C1058 C1053 1.350 . S
C1059 H1046 0.929 . S
C1059 C1051 1.433 . S
C1059 N1061 1.384 . S
N1060 C1056 1.427 . S
N1060 C1057 1.384 . S
N1061 C1053 1.427 . S
N1061 C1059 1.384 . S
H1062 C1068 0.930 . S
H1063 C1072 0.930 . S
H1064 C1077 0.929 . S
H1065 C1075 0.929 . S
H1066 C1070 0.929 . S
H1067 C1076 0.929 . S
C1068 H1062 0.930 . S
C1068 C1069 1.367 . S
C1068 C1076 1.378 . S
C1069 C1068 1.367 . S
C1069 C1077 1.433 . S
C1070 H1066 0.929 . S
C1070 C1072 1.378 . S
C1070 C1074 1.350 . S
C1071 C1074 1.463 . S
C1071 C1076 1.350 . S
C1071 N1079 1.427 . S
C1072 H1063 0.930 . S
C1072 C1070 1.378 . S
C1072 C1073 1.367 . S
C1073 C1072 1.367 . S
C1073 C1075 1.433 . S
C1074 C1070 1.350 . S
C1074 C1071 1.463 . S
C1074 N1078 1.427 . S
C1075 H1065 0.929 . S
C1075 C1073 1.433 . S
C1075 N1078 1.384 . S
C1076 H1067 0.929 . S
C1076 C1068 1.378 . S
C1076 C1071 1.350 . S
C1077 H1064 0.929 . S
C1077 C1069 1.433 . S
C1077 N1079 1.384 . S
N1078 C1074 1.427 . S
N1078 C1075 1.384 . S
N1079 C1071 1.427 . S
N1079 C1077 1.384 . S
H1080 C1086 0.930 . S
H1081 C1090 0.930 . S
H1082 C1095 0.929 . S
H1083 C1093 0.929 . S
H1084 C1088 0.929 . S
H1085 C1094 0.929 . S
C1086 H1080 0.930 . S
C1086 C1087 1.367 . S
C1086 C1094 1.378 . S
C1087 C1086 1.367 . S
C1087 C1095 1.433 . S
C1088 H1084 0.929 . S
C1088 C1090 1.378 . S
C1088 C1092 1.350 . S
C1089 C1092 1.463 . S
C1089 C1094 1.350 . S
C1089 N1097 1.427 . S
C1090 H1081 0.930 . S
C1090 C1088 1.378 . S
C1090 C1091 1.367 . S
C1091 C1090 1.367 . S
C1091 C1093 1.433 . S
C1092 C1088 1.350 . S
C1092 C1089 1.463 . S
C1092 N1096 1.427 . S
C1093 H1083 0.929 . S
C1093 C1091 1.433 . S
C1093 N1096 1.384 . S
C1094 H1085 0.929 . S
C1094 C1086 1.378 . S
C1094 C1089 1.350 . S
C1095 H1082 0.929 . S
C1095 C1087 1.433 . S
C1095 N1097 1.384 . S
N1096 C1092 1.427 . S
N1096 C1093 1.384 . S
N1097 C1089 1.427 . S
N1097 C1095 1.384 . S
H1098 C1104 0.930 . S
H1099 C1108 0.930 . S
H1100 C1113 0.929 . S
H1101 C1111 0.929 . S
H1102 C1106 0.929 . S
H1103 C1112 0.929 . S
C1104 H1098 0.930 . S
C1104 C1105 1.367 . S
C1104 C1112 1.378 . S
C1105 C1104 1.367 . S
C1105 C1113 1.433 . S
C1106 H1102 0.929 . S
C1106 C1108 1.378 . S
C1106 C1110 1.350 . S
C1107 C1110 1.463 . S
C1107 C1112 1.350 . S
C1107 N1115 1.427 . S
C1108 H1099 0.930 . S
C1108 C1106 1.378 . S
C1108 C1109 1.367 . S
C1109 C1108 1.367 . S
C1109 C1111 1.433 . S
C1110 C1106 1.350 . S
C1110 C1107 1.463 . S
C1110 N1114 1.427 . S
C1111 H1101 0.929 . S
C1111 C1109 1.433 . S
C1111 N1114 1.384 . S
C1112 H1103 0.929 . S
C1112 C1104 1.378 . S
C1112 C1107 1.350 . S
C1113 H1100 0.929 . S
C1113 C1105 1.433 . S
C1113 N1115 1.384 . S
N1114 C1110 1.427 . S
N1114 C1111 1.384 . S
N1115 C1107 1.427 . S
N1115 C1113 1.384 . S
H1116 C1122 0.930 . S
H1117 C1126 0.930 . S
H1118 C1131 0.929 1_545 S
H1119 C1129 0.929 . S
H1120 C1124 0.929 . S
H1121 C1130 0.929 . S
C1122 H1116 0.930 . S
C1122 C1123 1.367 . S
C1122 C1130 1.378 . S
C1123 C1122 1.367 . S
C1123 C1131 1.433 . S
C1124 H1120 0.929 . S
C1124 C1126 1.378 . S
C1124 C1128 1.350 . S
C1125 C1128 1.463 . S
C1125 C1130 1.350 . S
C1125 N1133 1.427 . S
C1126 H1117 0.930 . S
C1126 C1124 1.378 . S
C1126 C1127 1.367 . S
C1127 C1126 1.367 . S
C1127 C1129 1.433 . S
C1128 C1124 1.350 . S
C1128 C1125 1.463 . S
C1128 N1132 1.427 . S
C1129 H1119 0.929 . S
C1129 C1127 1.433 . S
C1129 N1132 1.384 . S
C1130 H1121 0.929 . S
C1130 C1122 1.378 . S
C1130 C1125 1.350 . S
C1131 H1118 0.929 1_565 S
C1131 C1123 1.433 . S
C1131 N1133 1.384 . S
N1132 C1128 1.427 . S
N1132 C1129 1.384 . S
N1133 C1125 1.427 . S
N1133 C1131 1.384 . S
H1134 C1140 0.930 . S
H1135 C1144 0.930 . S
H1136 C1149 0.929 . S
H1137 C1147 0.929 . S
H1138 C1142 0.929 . S
H1139 C1148 0.929 . S
C1140 H1134 0.930 . S
C1140 C1141 1.367 . S
C1140 C1148 1.378 . S
C1141 C1140 1.367 . S
C1141 C1149 1.433 . S
C1142 H1138 0.929 . S
C1142 C1144 1.378 . S
C1142 C1146 1.350 . S
C1143 C1146 1.463 . S
C1143 C1148 1.350 . S
C1143 N1151 1.427 . S
C1144 H1135 0.930 . S
C1144 C1142 1.378 . S
C1144 C1145 1.367 . S
C1145 C1144 1.367 . S
C1145 C1147 1.433 . S
C1146 C1142 1.350 . S
C1146 C1143 1.463 . S
C1146 N1150 1.427 . S
C1147 H1137 0.929 . S
C1147 C1145 1.433 . S
C1147 N1150 1.384 . S
C1148 H1139 0.929 . S
C1148 C1140 1.378 . S
C1148 C1143 1.350 . S
C1149 H1136 0.929 . S
C1149 C1141 1.433 . S
C1149 N1151 1.384 . S
N1150 C1146 1.427 . S
N1150 C1147 1.384 . S
N1151 C1143 1.427 . S
N1151 C1149 1.384 . S
H1152 C1158 0.930 . S
H1153 C1162 0.930 . S
H1154 C1167 0.929 . S
H1155 C1165 0.929 . S
H1156 C1160 0.929 . S
H1157 C1166 0.929 . S
C1158 H1152 0.930 . S
C1158 C1159 1.367 . S
C1158 C1166 1.378 . S
C1159 C1158 1.367 . S
C1159 C1167 1.433 . S
C1160 H1156 0.929 . S
C1160 C1162 1.378 . S
C1160 C1164 1.350 . S
C1161 C1164 1.463 . S
C1161 C1166 1.350 . S
C1161 N1169 1.427 . S
C1162 H1153 0.930 . S
C1162 C1160 1.378 . S
C1162 C1163 1.367 . S
C1163 C1162 1.367 . S
C1163 C1165 1.433 . S
C1164 C1160 1.350 . S
C1164 C1161 1.463 . S
C1164 N1168 1.427 . S
C1165 H1155 0.929 . S
C1165 C1163 1.433 . S
C1165 N1168 1.384 . S
C1166 H1157 0.929 . S
C1166 C1158 1.378 . S
C1166 C1161 1.350 . S
C1167 H1154 0.929 . S
C1167 C1159 1.433 . S
C1167 N1169 1.384 . S
N1168 C1164 1.427 . S
N1168 C1165 1.384 . S
N1169 C1161 1.427 . S
N1169 C1167 1.384 . S
H1170 C1176 0.930 . S
H1171 C1180 0.930 . S
H1172 C1185 0.929 . S
H1173 C1183 0.929 . S
H1174 C1178 0.929 . S
H1175 C1184 0.929 . S
C1176 H1170 0.930 . S
C1176 C1177 1.367 . S
C1176 C1184 1.378 . S
C1177 C1176 1.367 . S
C1177 C1185 1.433 . S
C1178 H1174 0.929 . S
C1178 C1180 1.378 . S
C1178 C1182 1.350 . S
C1179 C1182 1.463 . S
C1179 C1184 1.350 . S
C1179 N1187 1.427 . S
C1180 H1171 0.930 . S
C1180 C1178 1.378 . S
C1180 C1181 1.367 . S
C1181 C1180 1.367 . S
C1181 C1183 1.433 . S
C1182 C1178 1.350 . S
C1182 C1179 1.463 . S
C1182 N1186 1.427 . S
C1183 H1173 0.929 . S
C1183 C1181 1.433 . S
C1183 N1186 1.384 . S
C1184 H1175 0.929 . S
C1184 C1176 1.378 . S
C1184 C1179 1.350 . S
C1185 H1172 0.929 . S
C1185 C1177 1.433 . S
C1185 N1187 1.384 . S
N1186 C1182 1.427 . S
N1186 C1183 1.384 . S
N1187 C1179 1.427 . S
N1187 C1185 1.384 . S
H1188 C1194 0.930 . S
H1189 C1198 0.930 . S
H1190 C1203 0.929 . S
H1191 C1201 0.929 . S
H1192 C1196 0.929 . S
H1193 C1202 0.929 . S
C1194 H1188 0.930 . S
C1194 C1195 1.367 . S
C1194 C1202 1.378 . S
C1195 C1194 1.367 . S
C1195 C1203 1.433 . S
C1196 H1192 0.929 . S
C1196 C1198 1.378 . S
C1196 C1200 1.350 . S
C1197 C1200 1.463 . S
C1197 C1202 1.350 . S
C1197 N1205 1.427 . S
C1198 H1189 0.930 . S
C1198 C1196 1.378 . S
C1198 C1199 1.367 . S
C1199 C1198 1.367 . S
C1199 C1201 1.433 . S
C1200 C1196 1.350 . S
C1200 C1197 1.463 . S
C1200 N1204 1.427 . S
C1201 H1191 0.929 . S
C1201 C1199 1.433 . S
C1201 N1204 1.384 . S
C1202 H1193 0.929 . S
C1202 C1194 1.378 . S
C1202 C1197 1.350 . S
C1203 H1190 0.929 . S
C1203 C1195 1.433 . S
C1203 N1205 1.384 . S
N1204 C1200 1.427 . S
N1204 C1201 1.384 . S
N1205 C1197 1.427 . S
N1205 C1203 1.384 . S
H1206 C1212 0.930 . S
H1207 C1216 0.930 . S
H1208 C1221 0.929 . S
H1209 C1219 0.929 . S
H1210 C1214 0.929 1_565 S
H1211 C1220 0.929 1_545 S
C1212 H1206 0.930 . S
C1212 C1213 1.367 . S
C1212 C1220 1.378 . S
C1213 C1212 1.367 . S
C1213 C1221 1.433 . S
C1214 H1210 0.929 1_545 S
C1214 C1216 1.378 . S
C1214 C1218 1.350 . S
C1215 C1218 1.463 1_565 S
C1215 C1220 1.350 . S
C1215 N1223 1.427 . S
C1216 H1207 0.930 . S
C1216 C1214 1.378 . S
C1216 C1217 1.367 . S
C1217 C1216 1.367 . S
C1217 C1219 1.433 . S
C1218 C1214 1.350 . S
C1218 C1215 1.463 1_545 S
C1218 N1222 1.427 . S
C1219 H1209 0.929 . S
C1219 C1217 1.433 . S
C1219 N1222 1.384 . S
C1220 H1211 0.929 1_565 S
C1220 C1212 1.378 . S
C1220 C1215 1.350 . S
C1221 H1208 0.929 . S
C1221 C1213 1.433 . S
C1221 N1223 1.384 . S
N1222 C1218 1.427 . S
N1222 C1219 1.384 . S
N1223 C1215 1.427 . S
N1223 C1221 1.384 . S
H1224 C1230 0.930 . S
H1225 C1234 0.930 . S
H1226 C1239 0.929 . S
H1227 C1237 0.929 . S
H1228 C1232 0.929 . S
H1229 C1238 0.929 . S
C1230 H1224 0.930 . S
C1230 C1231 1.367 . S
C1230 C1238 1.378 . S
C1231 C1230 1.367 . S
C1231 C1239 1.433 . S
C1232 H1228 0.929 . S
C1232 C1234 1.378 . S
C1232 C1236 1.350 . S
C1233 C1236 1.463 1_655 S
C1233 C1238 1.350 . S
C1233 N1241 1.427 1_655 S
C1234 H1225 0.930 . S
C1234 C1232 1.378 . S
C1234 C1235 1.367 . S
C1235 C1234 1.367 . S
C1235 C1237 1.433 . S
C1236 C1232 1.350 . S
C1236 C1233 1.463 1_455 S
C1236 N1240 1.427 . S
C1237 H1227 0.929 . S
C1237 C1235 1.433 . S
C1237 N1240 1.384 . S
C1238 H1229 0.929 . S
C1238 C1230 1.378 . S
C1238 C1233 1.350 . S
C1239 H1226 0.929 . S
C1239 C1231 1.433 . S
C1239 N1241 1.384 1_655 S
N1240 C1236 1.427 . S
N1240 C1237 1.384 . S
N1241 C1233 1.427 1_455 S
N1241 C1239 1.384 1_455 S
C763 C156 1.159 . S
C767 C67 1.341 1_554 S
C781 C240 1.190 . S
C785 C151 1.348 1_554 S
C799 C235 1.346 1_554 S
C803 C72 1.164 . S
C817 C231 1.167 . S
C821 C140 1.335 . S
C835 C224 1.329 . S
C839 C63 1.193 . S
C853 C56 1.333 . S
C857 C147 1.190 . S
C871 C319 1.331 . S
C875 C408 1.179 . S
C889 C492 1.161 . S
C893 C403 1.330 . S
C907 C487 1.347 . S
C911 C324 1.165 . S
C925 C392 1.327 . S
C929 C483 1.188 . S
C943 C476 1.331 . S
C947 C315 1.162 . S
C961 C399 1.163 . S
C965 C308 1.332 . S
C979 C660 1.162 . S
C983 C571 1.344 . S
C997 C655 1.334 . S
C1001 C744 1.157 . S
C1015 C739 1.338 . S
C1019 C576 1.189 . S
C1033 C735 1.180 . S
C1037 C644 1.336 . S
C1051 C728 1.326 . S
C1055 C567 1.185 . S
C1069 C560 1.336 . S
C1073 C651 1.178 . S
C1087 C495 2.570 . S
C1091 C66 2.628 . S
C1105 C327 2.570 . S
C1109 C150 2.629 . S
C1123 C234 2.632 . S
C1127 C411 2.559 . S
C1141 C243 2.564 . S
C1145 C570 2.633 . S
C1159 C75 2.564 . S
C1163 C654 2.633 . S
C1177 C738 2.624 . S
C1181 C159 2.570 . S
C1195 C318 2.633 . S
C1199 C747 2.564 . S
C1213 C402 2.628 . S
C1217 C579 2.561 . S
C1231 C663 2.569 . S
C1235 C486 2.629 . S
