# Generated by pormake.
# Topology yfl, (5)-cn, num edge types: 1
# Building blocks:
#     Node 0, Type 0, BuildingBlock: XOMCOT_clean_sbu_0, # of connection points: 5
#     Node 1, Type 0, BuildingBlock: XOMCOT_clean_sbu_0, # of connection points: 5
#     Node 2, Type 0, BuildingBlock: XOMCOT_clean_sbu_0, # of connection points: 5
#     Node 3, Type 0, BuildingBlock: XOMCOT_clean_sbu_0, # of connection points: 5
#     Node 4, Type 0, BuildingBlock: XOMCOT_clean_sbu_0, # of connection points: 5
#     Node 5, Type 0, BuildingBlock: XOMCOT_clean_sbu_0, # of connection points: 5
#     Node 6, Type 0, BuildingBlock: XOMCOT_clean_sbu_0, # of connection points: 5
#     Node 7, Type 0, BuildingBlock: XOMCOT_clean_sbu_0, # of connection points: 5
#     Node 8, Type 0, BuildingBlock: XOMCOT_clean_sbu_0, # of connection points: 5
#     Node 9, Type 0, BuildingBlock: XOMCOT_clean_sbu_0, # of connection points: 5
#     Node 10, Type 0, BuildingBlock: XOMCOT_clean_sbu_0, # of connection points: 5
#     Node 11, Type 0, BuildingBlock: XOMCOT_clean_sbu_0, # of connection points: 5
#     Node 12, Type 0, BuildingBlock: XOMCOT_clean_sbu_0, # of connection points: 5
#     Node 13, Type 0, BuildingBlock: XOMCOT_clean_sbu_0, # of connection points: 5
#     Node 14, Type 0, BuildingBlock: XOMCOT_clean_sbu_0, # of connection points: 5
#     Node 15, Type 0, BuildingBlock: XOMCOT_clean_sbu_0, # of connection points: 5
#     Edge 16, Type (0, 0), BuildingBlock: XIVTED_clean_linker_0, # of connection points: 2
#     Edge 17, Type (0, 0), BuildingBlock: XIVTED_clean_linker_0, # of connection points: 2
#     Edge 18, Type (0, 0), BuildingBlock: XIVTED_clean_linker_0, # of connection points: 2
#     Edge 19, Type (0, 0), BuildingBlock: XIVTED_clean_linker_0, # of connection points: 2
#     Edge 20, Type (0, 0), BuildingBlock: XIVTED_clean_linker_0, # of connection points: 2
#     Edge 21, Type (0, 0), BuildingBlock: XIVTED_clean_linker_0, # of connection points: 2
#     Edge 22, Type (0, 0), BuildingBlock: XIVTED_clean_linker_0, # of connection points: 2
#     Edge 23, Type (0, 0), BuildingBlock: XIVTED_clean_linker_0, # of connection points: 2
#     Edge 24, Type (0, 0), BuildingBlock: XIVTED_clean_linker_0, # of connection points: 2
#     Edge 25, Type (0, 0), BuildingBlock: XIVTED_clean_linker_0, # of connection points: 2
#     Edge 26, Type (0, 0), BuildingBlock: XIVTED_clean_linker_0, # of connection points: 2
#     Edge 27, Type (0, 0), BuildingBlock: XIVTED_clean_linker_0, # of connection points: 2
#     Edge 28, Type (0, 0), BuildingBlock: XIVTED_clean_linker_0, # of connection points: 2
#     Edge 29, Type (0, 0), BuildingBlock: XIVTED_clean_linker_0, # of connection points: 2
#     Edge 30, Type (0, 0), BuildingBlock: XIVTED_clean_linker_0, # of connection points: 2
#     Edge 31, Type (0, 0), BuildingBlock: XIVTED_clean_linker_0, # of connection points: 2
#     Edge 32, Type (0, 0), BuildingBlock: XIVTED_clean_linker_0, # of connection points: 2
#     Edge 33, Type (0, 0), BuildingBlock: XIVTED_clean_linker_0, # of connection points: 2
#     Edge 34, Type (0, 0), BuildingBlock: XIVTED_clean_linker_0, # of connection points: 2
#     Edge 35, Type (0, 0), BuildingBlock: XIVTED_clean_linker_0, # of connection points: 2
#     Edge 36, Type (0, 0), BuildingBlock: XIVTED_clean_linker_0, # of connection points: 2
#     Edge 37, Type (0, 0), BuildingBlock: XIVTED_clean_linker_0, # of connection points: 2
#     Edge 38, Type (0, 0), BuildingBlock: XIVTED_clean_linker_0, # of connection points: 2
#     Edge 39, Type (0, 0), BuildingBlock: XIVTED_clean_linker_0, # of connection points: 2
#     Edge 40, Type (0, 0), BuildingBlock: XIVTED_clean_linker_0, # of connection points: 2
#     Edge 41, Type (0, 0), BuildingBlock: XIVTED_clean_linker_0, # of connection points: 2
#     Edge 42, Type (0, 0), BuildingBlock: XIVTED_clean_linker_0, # of connection points: 2
#     Edge 43, Type (0, 0), BuildingBlock: XIVTED_clean_linker_0, # of connection points: 2
#     Edge 44, Type (0, 0), BuildingBlock: XIVTED_clean_linker_0, # of connection points: 2
#     Edge 45, Type (0, 0), BuildingBlock: XIVTED_clean_linker_0, # of connection points: 2
#     Edge 46, Type (0, 0), BuildingBlock: XIVTED_clean_linker_0, # of connection points: 2
#     Edge 47, Type (0, 0), BuildingBlock: XIVTED_clean_linker_0, # of connection points: 2
#     Edge 48, Type (0, 0), BuildingBlock: XIVTED_clean_linker_0, # of connection points: 2
#     Edge 49, Type (0, 0), BuildingBlock: XIVTED_clean_linker_0, # of connection points: 2
#     Edge 50, Type (0, 0), BuildingBlock: XIVTED_clean_linker_0, # of connection points: 2
#     Edge 51, Type (0, 0), BuildingBlock: XIVTED_clean_linker_0, # of connection points: 2
#     Edge 52, Type (0, 0), BuildingBlock: XIVTED_clean_linker_0, # of connection points: 2
#     Edge 53, Type (0, 0), BuildingBlock: XIVTED_clean_linker_0, # of connection points: 2
#     Edge 54, Type (0, 0), BuildingBlock: XIVTED_clean_linker_0, # of connection points: 2
#     Edge 55, Type (0, 0), BuildingBlock: XIVTED_clean_linker_0, # of connection points: 2
# Relax obj value: 0.347
# Max RMSD: 0.254
# Mean RMSD: 0.254
data_MOF--net-yfl--node1-XOMCOT_clean_sbu_0--edge1-XIVTED_clean_linker_0
_symmetry_space_group_name_H-M    P1
_symmetry_Int_Tables_number       1
_symmetry_cell_setting            triclinic
loop_
_symmetry_equiv_pos_as_xyz
'x, y, z'
_cell_length_a     30.390398
_cell_length_b     30.261096
_cell_length_c     103.04591
_cell_angle_alpha  89.894341
_cell_angle_beta   90.084295
_cell_angle_gamma 90.128683
loop_
_atom_site_label
_atom_site_type_symbol
_atom_site_fract_x
_atom_site_fract_y
_atom_site_fract_z
_atom_type_partial_charge
Co0 Co 0.03647 0.31433 0.31436 0.0
C1 C 0.10841 0.27367 0.32947 0.0
C2 C 0.13281 0.30871 0.31295 0.0
C3 C 0.16797 0.29661 0.32058 0.0
N4 N 0.09535 0.29369 0.31841 0.0
N5 N 0.15251 0.27489 0.33108 0.0
H6 H 0.08604 0.26219 0.33679 0.0
H7 H 0.13434 0.33046 0.30462 0.0
C8 C 0.07345 0.29038 0.28807 0.0
O9 O 0.08987 0.25354 0.29277 0.0
N10 N 0.97817 0.33573 0.31051 0.0
C11 C 0.94079 0.32497 0.3168 0.0
C12 C 0.90548 0.33974 0.3096 0.0
C13 C 0.96532 0.35756 0.29978 0.0
N14 N 0.92108 0.36001 0.29887 0.0
C15 C 0.01007 0.22968 0.32421 0.0
C16 C 0.97658 0.19765 0.30113 0.0
C17 C 0.97624 0.17027 0.31211 0.0
C18 C 0.99267 0.1871 0.32382 0.0
C19 C -0.00527 0.23989 0.30195 0.0
N20 N 0.01339 0.25459 0.31322 0.0
H21 H 0.01951 0.24294 0.33348 0.0
H22 H 0.9925 0.26113 0.29355 0.0
H23 H 0.93926 0.30533 0.32557 0.0
H24 H 0.98773 0.36862 0.29233 0.0
O25 O 0.02609 0.32643 0.33261 0.0
O26 O 0.05562 0.37298 0.31835 0.0
O27 O 0.05131 0.31631 0.29531 0.0
C28 C 0.04312 0.3651 0.33018 0.0
H29 H 0.20174 0.30679 0.3191 0.0
H30 H 0.87108 0.33416 0.31178 0.0
H31 H 0.96234 0.18689 0.29203 0.0
H32 H 0.99241 0.16759 0.33264 0.0
Co33 Co 0.31716 0.94567 0.68419 0.0
C34 C 0.2833 0.86992 0.66906 0.0
C35 C 0.33042 0.84973 0.68332 0.0
C36 C 0.3203 0.8139 0.67566 0.0
N37 N 0.30675 0.88478 0.67928 0.0
N38 N 0.29087 0.82679 0.6666 0.0
H39 H 0.26339 0.8907 0.66298 0.0
H40 H 0.3555 0.85086 0.69077 0.0
C41 C 0.30227 0.89837 0.70959 0.0
O42 O 0.26969 0.87574 0.70445 0.0
N43 N 0.32814 0.00635 0.68884 0.0
C44 C 0.31078 0.042 0.68289 0.0
C45 C 0.32113 0.07902 0.69 0.0
C46 C 0.34956 0.02205 0.69932 0.0
N47 N 0.34552 0.0663 0.70027 0.0
C48 C 0.23118 0.96367 0.67427 0.0
C49 C 0.19157 0.98076 0.69783 0.0
C50 C 0.16661 0.98456 0.68644 0.0
C51 C 0.18722 0.97636 0.67454 0.0
C52 C 0.23571 0.96848 0.6971 0.0
N53 N 0.25454 0.95797 0.68547 0.0
H54 H 0.24685 0.96042 0.66496 0.0
H55 H 0.25483 0.96932 0.7059 0.0
H56 H 0.29031 0.04091 0.67431 0.0
H57 H 0.36556 0.00146 0.7065 0.0
O58 O 0.32709 0.96125 0.66614 0.0
O59 O 0.37801 0.93791 0.68002 0.0
O60 O 0.32226 0.92793 0.70298 0.0
C61 C 0.36802 0.95135 0.66841 0.0
H62 H 0.33606 0.7819 0.67611 0.0
H63 H 0.31035 0.11246 0.68806 0.0
H64 H 0.17741 0.98761 0.70725 0.0
H65 H 0.17003 0.98108 0.66543 0.0
Co66 Co 0.95267 0.69196 0.31406 0.0
C67 C 0.87698 0.70133 0.33124 0.0
C68 C 0.86105 0.66064 0.31483 0.0
C69 C 0.82547 0.66121 0.3231 0.0
N70 N 0.89312 0.68583 0.32 0.0
N71 N 0.83576 0.68657 0.33345 0.0
H72 H 0.89573 0.72185 0.33783 0.0
H73 H 0.86404 0.64155 0.30602 0.0
C74 C 0.94492 0.70245 0.28511 0.0
O75 O 0.97354 0.73505 0.28544 0.0
N76 N 0.01306 0.69688 0.3081 0.0
C77 C 0.0459 0.72357 0.31218 0.0
C78 C 0.08316 0.71465 0.30507 0.0
C79 C 0.03143 0.67099 0.29896 0.0
N80 N 0.07387 0.6817 0.29672 0.0
C81 C 0.96357 0.78088 0.32294 0.0
C82 C 0.90711 0.81946 0.30521 0.0
C83 C 0.92993 0.84633 0.31397 0.0
C84 C 0.95758 0.8265 0.32315 0.0
C85 C 0.91372 0.77392 0.30546 0.0
N86 N 0.94404 0.75549 0.31364 0.0
H87 H 0.98366 0.76599 0.33039 0.0
H88 H 0.89367 0.75363 0.29921 0.0
H89 H 0.04391 0.7476 0.31983 0.0
H90 H 0.01342 0.64575 0.29375 0.0
O91 O 0.97374 0.68501 0.33177 0.0
O92 O 0.96206 0.63071 0.31765 0.0
O93 O 0.93203 0.68405 0.29562 0.0
C94 C 0.97357 0.64291 0.32925 0.0
H95 H 0.79539 0.64242 0.32193 0.0
H96 H 0.11464 0.73114 0.30601 0.0
H97 H 0.88395 0.83347 0.29835 0.0
H98 H 0.97501 0.84608 0.3303 0.0
Co99 Co 0.69063 0.06287 0.68987 0.0
C100 C 0.71006 0.13736 0.67246 0.0
C101 C 0.67439 0.15817 0.68935 0.0
C102 C 0.67659 0.19304 0.68079 0.0
N103 N 0.69514 0.12328 0.68406 0.0
N104 N 0.69884 0.17974 0.67019 0.0
H105 H 0.72494 0.11587 0.66532 0.0
H106 H 0.65583 0.15734 0.69828 0.0
C107 C 0.70986 0.07942 0.71859 0.0
O108 O 0.74459 0.05363 0.7186 0.0
N109 N 0.68435 0.00139 0.69569 0.0
C110 C 0.68243 0.96494 0.68808 0.0
C111 C 0.67553 0.92815 0.69569 0.0
C112 C 0.677 0.98582 0.70781 0.0
N113 N 0.67264 0.94152 0.70807 0.0
C114 C 0.77339 0.02478 0.6836 0.0
C115 C 0.82538 0.08957 0.69473 0.0
C116 C 0.84554 0.054 0.68841 0.0
C117 C 0.81887 0.02137 0.68281 0.0
C118 C 0.77949 0.09161 0.69533 0.0
N119 N 0.75418 0.05872 0.69012 0.0
H120 H 0.7537 0.00054 0.67864 0.0
H121 H 0.76425 0.11977 0.69992 0.0
H122 H 0.68564 0.96462 0.67764 0.0
H123 H 0.67257 0.00584 0.71631 0.0
O124 O 0.68026 0.04444 0.67214 0.0
O125 O 0.6288 0.06472 0.68625 0.0
O126 O 0.68732 0.08499 0.70825 0.0
C127 C 0.6389 0.05158 0.67462 0.0
H128 H 0.66044 0.22467 0.68186 0.0
H129 H 0.6733 0.89424 0.69242 0.0
H130 H 0.84477 0.11599 0.69894 0.0
H131 H 0.83294 0.99328 0.67782 0.0
Co132 Co 0.02824 0.19616 0.93635 0.0
C133 C 0.09272 0.18468 0.9155 0.0
C134 C 0.10308 0.13792 0.93091 0.0
C135 C 0.13334 0.12985 0.92124 0.0
N136 N 0.07783 0.17229 0.92724 0.0
N137 N 0.12676 0.15956 0.91167 0.0
H138 H 0.0783 0.2108 0.90972 0.0
H139 H 0.09931 0.11972 0.93988 0.0
C140 C 0.06146 0.22046 0.9629 0.0
O141 O 0.03688 0.2561 0.96293 0.0
N142 N 0.97773 0.219 0.94573 0.0
C143 C 0.95406 0.25648 0.94435 0.0
C144 C 0.92048 0.25632 0.95334 0.0
C145 C 0.9581 0.1969 0.95548 0.0
N146 N 0.92319 0.21874 0.96034 0.0
C147 C 0.02296 0.27524 0.92145 0.0
C148 C 0.09983 0.31366 0.93029 0.0
C149 C 0.07433 0.33641 0.92107 0.0
C150 C 0.03559 0.31625 0.91659 0.0
C151 C 0.08546 0.27286 0.93509 0.0
N152 N 0.04656 0.25494 0.93101 0.0
H153 H 0.99333 0.26016 0.91771 0.0
H154 H 0.10636 0.25528 0.9418 0.0
H155 H 0.96007 0.28268 0.93751 0.0
H156 H 0.96924 0.16501 0.95885 0.0
O157 O 0.99052 0.1806 0.92176 0.0
O158 O 0.00573 0.13757 0.93867 0.0
O159 O 0.06434 0.19672 0.95272 0.0
C160 C 0.98531 0.14303 0.92773 0.0
H161 H 0.15832 0.1044 0.92125 0.0
H162 H 0.89636 0.28214 0.95467 0.0
H163 H 0.13081 0.32697 0.93372 0.0
H164 H 0.01429 0.33229 0.90961 0.0
Co165 Co 0.16154 0.95592 0.06733 0.0
C166 C 0.18255 0.88484 0.08591 0.0
C167 C 0.14274 0.86128 0.07012 0.0
C168 C 0.1501 0.82681 0.07856 0.0
N169 N 0.16331 0.89744 0.07473 0.0
N170 N 0.17502 0.84172 0.08849 0.0
H171 H 0.20126 0.90695 0.09206 0.0
H172 H 0.12277 0.86029 0.06144 0.0
C173 C 0.17923 0.93395 0.03931 0.0
O174 O 0.21169 0.9627 0.03895 0.0
N175 N 0.15786 0.01538 0.05981 0.0
C176 C 0.16384 0.05437 0.06598 0.0
C177 C 0.15513 0.08854 0.05753 0.0
C178 C 0.14316 0.02694 0.04787 0.0
N179 N 0.14248 0.07118 0.0461 0.0
C180 C 0.24768 0.98922 0.07268 0.0
C181 C 0.29303 0.91957 0.06169 0.0
C182 C 0.31658 0.9546 0.06721 0.0
C183 C 0.29337 0.98958 0.07285 0.0
C184 C 0.24722 0.92063 0.06173 0.0
N185 N 0.22515 0.95607 0.06671 0.0
H186 H 0.23062 0.01512 0.07767 0.0
H187 H 0.22942 0.89275 0.05779 0.0
H188 H 0.17253 0.05828 0.07607 0.0
H189 H 0.13107 0.00386 0.04074 0.0
O190 O 0.15371 0.98037 0.0845 0.0
O191 O 0.10019 0.95827 0.07115 0.0
O192 O 0.15676 0.92852 0.04965 0.0
C193 C 0.11195 0.97433 0.08235 0.0
H194 H 0.1366 0.79382 0.0777 0.0
H195 H 0.15792 0.12344 0.05966 0.0
H196 H 0.30978 0.89133 0.05758 0.0
H197 H 0.31029 0.01717 0.07732 0.0
Co198 Co 0.95435 0.76206 0.93627 0.0
C199 C 0.87752 0.75583 0.91892 0.0
C200 C 0.87877 0.70239 0.93259 0.0
C201 C 0.84286 0.69687 0.92448 0.0
N202 N 0.90025 0.73949 0.92906 0.0
N203 N 0.8422 0.73083 0.91598 0.0
H204 H 0.88722 0.78458 0.9134 0.0
H205 H 0.88894 0.68055 0.94034 0.0
C206 C 0.90825 0.77927 0.96005 0.0
O207 O 0.91641 0.73683 0.96124 0.0
N208 N 0.00861 0.7843 0.94332 0.0
C209 C 0.04321 0.79976 0.93655 0.0
C210 C 0.07442 0.81478 0.94516 0.0
C211 C 0.01931 0.7893 0.95589 0.0
N212 N 0.05931 0.80836 0.95734 0.0
C213 C 0.98964 0.71173 0.91474 0.0
C214 C 0.03096 0.65227 0.9312 0.0
C215 C 0.03498 0.64664 0.91776 0.0
C216 C 0.01371 0.67665 0.90943 0.0
C217 C 0.00631 0.68701 0.93603 0.0
N218 N 0.98652 0.7161 0.92787 0.0
H219 H 0.97317 0.73492 0.9084 0.0
H220 H 0.00268 0.69095 0.94641 0.0
H221 H 0.04526 0.8008 0.92607 0.0
H222 H -0.00191 0.7793 0.96375 0.0
O223 O 0.95972 0.80692 0.92193 0.0
O224 O 0.92579 0.82082 0.93948 0.0
O225 O 0.91959 0.79896 0.9494 0.0
C226 C 0.93841 0.83546 0.92835 0.0
H227 H 0.81923 0.67008 0.9248 0.0
H228 H 0.10518 0.83046 0.94255 0.0
H229 H 0.04561 0.62916 0.93798 0.0
H230 H 0.01561 0.67294 0.89899 0.0
Co231 Co 0.78565 0.06032 0.05952 0.0
C232 C 0.76007 0.12911 0.07839 0.0
C233 C 0.78653 0.15741 0.06104 0.0
C234 C 0.78112 0.19058 0.07 0.0
N235 N 0.7723 0.11884 0.06617 0.0
N236 N 0.76492 0.17252 0.08094 0.0
H237 H 0.75176 0.10507 0.08571 0.0
H238 H 0.80352 0.16077 0.05189 0.0
C239 C 0.7556 0.10916 0.03553 0.0
O240 O 0.72237 0.12693 0.04175 0.0
N241 N 0.80007 0.00244 0.05293 0.0
C242 C 0.78857 0.96348 0.05826 0.0
C243 C 0.80045 0.93014 0.04991 0.0
C244 C 0.81911 0.99241 0.0415 0.0
N245 N 0.81947 0.94833 0.03931 0.0
C246 C 0.70441 0.03761 0.07146 0.0
C247 C 0.65932 0.01654 0.049 0.0
C248 C 0.63762 0.01362 0.06096 0.0
C249 C 0.66111 0.02333 0.0723 0.0
C250 C 0.7031 0.03039 0.04863 0.0
N251 N 0.72434 0.04299 0.05973 0.0
H252 H 0.72224 0.04271 0.08034 0.0
H253 H 0.72 0.03001 0.03944 0.0
H254 H 0.77115 0.95972 0.06735 0.0
H255 H 0.83184 0.01694 0.03486 0.0
O256 O 0.80204 0.04135 0.07675 0.0
O257 O 0.84678 0.0729 0.06239 0.0
O258 O 0.78194 0.08268 0.04124 0.0
C259 C 0.84085 0.05671 0.07397 0.0
H260 H 0.79229 0.22441 0.06899 0.0
H261 H 0.79371 0.89535 0.05132 0.0
H262 H 0.64274 0.00842 0.04001 0.0
H263 H 0.64649 0.01921 0.0818 0.0
Co264 Co 0.55807 0.79797 0.81409 0.0
C265 C 0.63145 0.77614 0.83212 0.0
C266 C 0.64947 0.82481 0.81796 0.0
C267 C 0.68348 0.82064 0.82667 0.0
N268 N 0.61702 0.79646 0.82125 0.0
N269 N 0.67196 0.79015 0.83559 0.0
H270 H 0.61175 0.75451 0.83806 0.0
H271 H 0.64756 0.84859 0.81013 0.0
C272 C 0.6168 0.78522 0.79078 0.0
O273 O 0.64361 0.75973 0.79741 0.0
N274 N 0.49942 0.80077 0.80699 0.0
C275 C 0.46295 0.78103 0.81165 0.0
C276 C 0.42848 0.78977 0.80333 0.0
C277 C 0.48678 0.82158 0.79605 0.0
N278 N 0.44359 0.81525 0.79353 0.0
C279 C 0.54569 0.71269 0.82528 0.0
C280 C 0.5406 0.66632 0.80228 0.0
C281 C 0.53243 0.6441 0.81398 0.0
C282 C 0.53543 0.66789 0.82559 0.0
C283 C 0.55018 0.71138 0.8024 0.0
N284 N 0.55367 0.73395 0.81384 0.0
H285 H 0.54452 0.73068 0.83428 0.0
H286 H 0.5521 0.72815 0.7932 0.0
H287 H 0.46165 0.76121 0.82039 0.0
H288 H 0.50905 0.83996 0.78988 0.0
O289 O 0.53435 0.80921 0.83119 0.0
O290 O 0.55698 0.86038 0.81721 0.0
O291 O 0.58215 0.80104 0.79595 0.0
C292 C 0.54039 0.85075 0.82849 0.0
H293 H 0.71354 0.83989 0.82674 0.0
H294 H 0.39496 0.77822 0.80443 0.0
H295 H 0.53829 0.64946 0.79305 0.0
H296 H 0.52765 0.65274 0.83484 0.0
Co297 Co 0.82468 0.44423 0.18349 0.0
C298 C 0.79824 0.37048 0.16632 0.0
C299 C 0.81946 0.34629 0.18479 0.0
C300 C 0.81002 0.3107 0.17695 0.0
N301 N 0.81075 0.38399 0.17825 0.0
N302 N 0.79659 0.32607 0.16533 0.0
H303 H 0.79364 0.39252 0.15819 0.0
H304 H 0.83418 0.34423 0.1943 0.0
C305 C 0.80316 0.40564 0.21002 0.0
O306 O 0.76511 0.39 0.20602 0.0
N307 N 0.83988 0.50371 0.18863 0.0
C308 C 0.82598 0.5419 0.18329 0.0
C309 C 0.8392 0.57641 0.19115 0.0
C310 C 0.8619 0.51538 0.19943 0.0
N311 N 0.86128 0.55942 0.20136 0.0
C312 C 0.73477 0.45188 0.1751 0.0
C313 C 0.70314 0.48765 0.19792 0.0
C314 C 0.67354 0.47636 0.18806 0.0
C315 C 0.68979 0.45922 0.17643 0.0
C316 C 0.74783 0.47902 0.19626 0.0
N317 N 0.76283 0.45915 0.18521 0.0
H318 H 0.74684 0.44067 0.1659 0.0
H319 H 0.77031 0.48759 0.20399 0.0
H320 H 0.80554 0.54426 0.17471 0.0
H321 H 0.87673 0.49203 0.20603 0.0
O322 O 0.83432 0.46122 0.16556 0.0
O323 O 0.88465 0.43346 0.17898 0.0
O324 O 0.8289 0.4257 0.20219 0.0
C325 C 0.87483 0.44888 0.16756 0.0
H326 H 0.81424 0.27629 0.17952 0.0
H327 H 0.83067 0.61087 0.18991 0.0
H328 H 0.69173 0.50185 0.20695 0.0
H329 H 0.66792 0.45185 0.1684 0.0
Co330 Co 0.41154 0.17625 0.81265 0.0
C331 C 0.33199 0.19089 0.82813 0.0
C332 C 0.31698 0.16224 0.80959 0.0
C333 C 0.27927 0.16238 0.81695 0.0
N334 N 0.34992 0.17987 0.81665 0.0
N335 N 0.28893 0.18022 0.82859 0.0
H336 H 0.35086 0.20268 0.83635 0.0
H337 H 0.32078 0.14726 0.80014 0.0
C338 C 0.41632 0.20198 0.7846 0.0
O339 O 0.45035 0.22731 0.78725 0.0
N340 N 0.47378 0.17038 0.80841 0.0
C341 C 0.51003 0.18333 0.81501 0.0
C342 C 0.54691 0.17112 0.80813 0.0
C343 C 0.48949 0.14812 0.79808 0.0
N344 N 0.53383 0.14942 0.79739 0.0
C345 C 0.44055 0.25739 0.82411 0.0
C346 C 0.39594 0.31281 0.80737 0.0
C347 C 0.42609 0.3311 0.81618 0.0
C348 C 0.44732 0.30278 0.82496 0.0
C349 C 0.3907 0.26708 0.80678 0.0
N350 N 0.41572 0.2399 0.81437 0.0
H351 H 0.45536 0.23637 0.83132 0.0
H352 H 0.36678 0.2536 0.80011 0.0
H353 H 0.5106 0.1998 0.82424 0.0
H354 H 0.46861 0.13154 0.79111 0.0
O355 O 0.42446 0.1595 0.83035 0.0
O356 O 0.40796 0.11323 0.81429 0.0
O357 O 0.39671 0.18062 0.79362 0.0
C358 C 0.41806 0.11916 0.82645 0.0
H359 H 0.24787 0.14808 0.81426 0.0
H360 H 0.58062 0.17879 0.81068 0.0
H361 H 0.37681 0.33351 0.80091 0.0
H362 H 0.46996 0.31517 0.83221 0.0
Co363 Co 0.19733 0.55148 0.18879 0.0
C364 C 0.21587 0.62772 0.17153 0.0
C365 C 0.18805 0.64857 0.18953 0.0
C366 C 0.19089 0.68463 0.18143 0.0
N367 N 0.20494 0.61287 0.18348 0.0
N368 N 0.20815 0.67136 0.17007 0.0
H369 H 0.22576 0.60651 0.16367 0.0
H370 H 0.17104 0.64805 0.19872 0.0
C371 C 0.21662 0.59493 0.2144 0.0
O372 O 0.25108 0.61472 0.20931 0.0
N373 N 0.18796 0.49086 0.19395 0.0
C374 C 0.20638 0.45448 0.18879 0.0
C375 C 0.19343 0.41826 0.19599 0.0
C376 C 0.1636 0.47645 0.20401 0.0
N377 N 0.16658 0.43223 0.20556 0.0
C378 C 0.2872 0.55017 0.18009 0.0
C379 C 0.32209 0.51609 0.20279 0.0
C380 C 0.35027 0.52641 0.19249 0.0
C381 C 0.33241 0.54337 0.181 0.0
C382 C 0.27714 0.52408 0.20152 0.0
N383 N 0.26034 0.54235 0.19043 0.0
H384 H 0.27388 0.56036 0.17091 0.0
H385 H 0.2557 0.51503 0.20945 0.0
H386 H 0.22862 0.4545 0.1806 0.0
H387 H 0.1454 0.49815 0.21036 0.0
O388 O 0.189 0.53397 0.17087 0.0
O389 O 0.13641 0.55656 0.18431 0.0
O390 O 0.1924 0.56966 0.2075 0.0
C391 C 0.14762 0.54277 0.17284 0.0
H392 H 0.17763 0.71712 0.18337 0.0
H393 H 0.20345 0.38441 0.19439 0.0
H394 H 0.33468 0.5021 0.21173 0.0
H395 H 0.35306 0.55001 0.17266 0.0
Co396 Co 0.54357 0.67691 0.43408 0.0
C397 C 0.61781 0.69723 0.4165 0.0
C398 C 0.64069 0.67018 0.43445 0.0
C399 C 0.67595 0.67416 0.42617 0.0
N400 N 0.60418 0.6858 0.42853 0.0
N401 N 0.66133 0.69089 0.41485 0.0
H402 H 0.59595 0.70672 0.40874 0.0
H403 H 0.64144 0.65326 0.44367 0.0
C404 C 0.58753 0.69308 0.46008 0.0
O405 O 0.60588 0.72983 0.45592 0.0
N406 N 0.48348 0.66656 0.43953 0.0
C407 C 0.44631 0.67892 0.43335 0.0
C408 C 0.41074 0.66919 0.4412 0.0
C409 C 0.47011 0.64939 0.45093 0.0
N410 N 0.42605 0.6511 0.45227 0.0
C411 C 0.54059 0.76707 0.42574 0.0
C412 C 0.50938 0.80145 0.44879 0.0
C413 C 0.51879 0.83001 0.43847 0.0
C414 C 0.53409 0.81238 0.42679 0.0
C415 C 0.517 0.75627 0.44737 0.0
N416 N 0.53406 0.73983 0.4361 0.0
H417 H 0.5497 0.75397 0.41646 0.0
H418 H 0.509 0.73451 0.45535 0.0
H419 H 0.44523 0.69552 0.42405 0.0
H420 H 0.49207 0.63702 0.45833 0.0
O421 O 0.52511 0.67005 0.41618 0.0
O422 O 0.54896 0.61629 0.42917 0.0
O423 O 0.56331 0.66996 0.45257 0.0
C424 C 0.53467 0.62849 0.41781 0.0
H425 H 0.70893 0.66215 0.42796 0.0
H426 H 0.37664 0.67705 0.43923 0.0
H427 H 0.49661 0.81392 0.45788 0.0
H428 H 0.53989 0.83333 0.41842 0.0
Co429 Co 0.68992 0.43217 0.56251 0.0
C430 C 0.70065 0.3572 0.58026 0.0
C431 C 0.65823 0.341 0.56425 0.0
C432 C 0.65786 0.3063 0.57292 0.0
N433 N 0.68489 0.3728 0.56894 0.0
N434 N 0.68452 0.31669 0.58294 0.0
H435 H 0.72067 0.37647 0.58687 0.0
H436 H 0.63839 0.34396 0.55558 0.0
C437 C 0.7022 0.42347 0.53373 0.0
O438 O 0.73386 0.45309 0.53417 0.0
N439 N 0.69351 0.49223 0.5559 0.0
C440 C 0.7224 0.52508 0.5584 0.0
C441 C 0.71295 0.56041 0.55043 0.0
C442 C 0.66608 0.5088 0.54685 0.0
N443 N 0.67777 0.5499 0.54304 0.0
C444 C 0.77616 0.44692 0.5725 0.0
C445 C 0.82063 0.3938 0.55515 0.0
C446 C 0.84458 0.41843 0.56423 0.0
C447 C 0.82175 0.44422 0.57322 0.0
C448 C 0.77481 0.39707 0.55489 0.0
N449 N 0.75345 0.42589 0.56289 0.0
H450 H 0.75923 0.46692 0.57955 0.0
H451 H 0.75678 0.37617 0.54829 0.0
H452 H 0.7492 0.52395 0.56522 0.0
H453 H 0.639 0.49006 0.54283 0.0
O454 O 0.68054 0.45518 0.57985 0.0
O455 O 0.62818 0.44016 0.56542 0.0
O456 O 0.68444 0.40944 0.5442 0.0
C457 C 0.63895 0.454 0.57692 0.0
H458 H 0.63795 0.27669 0.57222 0.0
H459 H 0.73193 0.59061 0.54974 0.0
H460 H 0.83712 0.37217 0.54836 0.0
H461 H 0.83899 0.46336 0.58051 0.0
Co462 Co 0.43357 0.30763 0.43246 0.0
C463 C 0.36414 0.27581 0.4151 0.0
C464 C 0.33695 0.31011 0.43145 0.0
C465 C 0.30321 0.29887 0.42315 0.0
N466 N 0.37498 0.29561 0.42634 0.0
N467 N 0.32044 0.27759 0.41283 0.0
H468 H 0.38808 0.26185 0.40853 0.0
H469 H 0.33415 0.32937 0.44023 0.0
C470 C 0.42645 0.29439 0.46125 0.0
O471 O 0.46066 0.26792 0.46078 0.0
N472 N 0.49286 0.32133 0.43858 0.0
C473 C 0.532 0.31203 0.43302 0.0
C474 C 0.56537 0.32752 0.44087 0.0
C475 C 0.5033 0.34507 0.44923 0.0
N476 N 0.54713 0.34769 0.45118 0.0
C477 C 0.4738 0.22477 0.42599 0.0
C478 C 0.42221 0.1736 0.44221 0.0
C479 C 0.45629 0.15347 0.43527 0.0
C480 C 0.48148 0.17948 0.42679 0.0
C481 C 0.41547 0.21891 0.441 0.0
N482 N 0.44316 0.24441 0.43369 0.0
H483 H 0.49162 0.24366 0.41888 0.0
H484 H 0.38797 0.2335 0.44602 0.0
H485 H 0.53669 0.29584 0.42383 0.0
H486 H 0.47931 0.36026 0.45553 0.0
O487 O 0.45282 0.31755 0.41477 0.0
O488 O 0.42575 0.36854 0.42807 0.0
O489 O 0.4108 0.3111 0.45081 0.0
C490 C 0.44128 0.3584 0.4167 0.0
H491 H 0.26905 0.30816 0.42425 0.0
H492 H 0.60028 0.32301 0.43931 0.0
H493 H 0.40115 0.15477 0.44865 0.0
H494 H 0.50639 0.16491 0.42065 0.0
Co495 Co 0.30653 0.55678 0.56343 0.0
C496 C 0.27049 0.62075 0.58178 0.0
C497 C 0.29403 0.653 0.56455 0.0
C498 C 0.28172 0.68478 0.57337 0.0
N499 N 0.28704 0.613 0.5699 0.0
N500 N 0.26735 0.66441 0.58426 0.0
H501 H 0.26307 0.59482 0.58867 0.0
H502 H 0.30955 0.65876 0.55527 0.0
C503 C 0.28223 0.56439 0.53497 0.0
O504 O 0.25973 0.52731 0.53562 0.0
N505 N 0.32767 0.49983 0.55706 0.0
C506 C 0.33263 0.462 0.56392 0.0
C507 C 0.34901 0.42963 0.55595 0.0
C508 C 0.34407 0.49026 0.54522 0.0
N509 N 0.35562 0.44742 0.54414 0.0
C510 C 0.23564 0.49992 0.57109 0.0
C511 C 0.17046 0.54369 0.55752 0.0
C512 C 0.16003 0.50445 0.56408 0.0
C513 C 0.19299 0.48309 0.57119 0.0
C514 C 0.21361 0.55947 0.55774 0.0
N515 N 0.24611 0.53605 0.56379 0.0
H516 H 0.25997 0.48414 0.57706 0.0
H517 H 0.22104 0.59028 0.55289 0.0
H518 H 0.32587 0.45788 0.57413 0.0
H519 H 0.34894 0.51411 0.53757 0.0
O520 O 0.32438 0.54 0.58077 0.0
O521 O 0.36636 0.57455 0.5663 0.0
O522 O 0.30098 0.57996 0.54511 0.0
C523 C 0.36233 0.55728 0.57781 0.0
H524 H 0.28622 0.72005 0.5722 0.0
H525 H 0.35474 0.39547 0.55857 0.0
H526 H 0.14547 0.56222 0.55236 0.0
H527 H 0.18609 0.45333 0.57669 0.0
H528 H 0.13508 0.25725 0.27113 0.0
H529 H 0.09221 0.44931 0.21911 0.0
H530 H 0.03278 0.35536 0.27417 0.0
H531 H 0.19909 0.35635 0.21602 0.0
H532 H 0.06537 0.40955 0.23811 0.0
H533 H 0.15425 0.28699 0.2497 0.0
C534 C 0.11632 0.28464 0.26725 0.0
C535 C 0.08261 0.30417 0.27455 0.0
C536 C 0.09455 0.39758 0.23324 0.0
C537 C 0.10439 0.33839 0.25011 0.0
C538 C 0.11 0.42045 0.22241 0.0
C539 C 0.14825 0.40649 0.21603 0.0
C540 C 0.11761 0.36049 0.23783 0.0
C541 C 0.1694 0.36822 0.2206 0.0
C542 C 0.12736 0.3017 0.25504 0.0
C543 C 0.0594 0.33959 0.26902 0.0
N544 N 0.15404 0.34679 0.2313 0.0
N545 N 0.07089 0.35567 0.2572 0.0
H546 H 0.46072 0.88792 0.77892 0.0
H547 H 0.27504 0.83232 0.72616 0.0
H548 H 0.37145 0.77748 0.78244 0.0
H549 H 0.36506 0.94255 0.72347 0.0
H550 H 0.30599 0.81425 0.74749 0.0
H551 H 0.42259 0.91074 0.7592 0.0
C552 C 0.43311 0.86842 0.77554 0.0
C553 C 0.41955 0.8305 0.78231 0.0
C554 C 0.31871 0.84256 0.74225 0.0
C555 C 0.37536 0.85663 0.75971 0.0
C556 C 0.30099 0.85295 0.73008 0.0
C557 C 0.31764 0.88883 0.72295 0.0
C558 C 0.35332 0.86824 0.74729 0.0
C559 C 0.35131 0.9144 0.72854 0.0
C560 C 0.41114 0.88161 0.76431 0.0
C561 C 0.38291 0.80706 0.7776 0.0
N562 N 0.36812 0.90347 0.74031 0.0
N563 N 0.36227 0.82032 0.76654 0.0
H564 H 0.89113 0.6438 0.20374 0.0
H565 H 0.89324 0.62993 0.28119 0.0
H566 H 0.85933 0.52674 0.2258 0.0
H567 H 0.96218 0.733 0.26043 0.0
H568 H 0.87246 0.59676 0.26061 0.0
H569 H 0.91037 0.68167 0.22411 0.0
C570 C 0.8883 0.62614 0.21285 0.0
C571 C 0.87403 0.58199 0.21307 0.0
C572 C 0.89206 0.62669 0.26053 0.0
C573 C 0.89534 0.62492 0.23628 0.0
C574 C 0.9038 0.64585 0.2723 0.0
C575 C 0.92968 0.6843 0.27256 0.0
C576 C 0.90597 0.64612 0.24885 0.0
C577 C 0.94231 0.70329 0.26068 0.0
C578 C 0.89936 0.64763 0.22443 0.0
C579 C 0.87096 0.56047 0.22512 0.0
N580 N 0.93034 0.68397 0.24927 0.0
N581 N 0.88133 0.58218 0.2362 0.0
H582 H 0.50771 0.14007 0.7724 0.0
H583 H 0.73626 0.06109 0.74373 0.0
H584 H 0.6215 0.12952 0.79732 0.0
H585 H 0.63719 0.13067 0.72166 0.0
H586 H 0.695 0.07763 0.76368 0.0
H587 H 0.55383 0.12498 0.75377 0.0
C588 C 0.54233 0.13424 0.77401 0.0
C589 C 0.56065 0.13654 0.78649 0.0
C590 C 0.68279 0.08954 0.75444 0.0
C591 C 0.61411 0.11934 0.76502 0.0
C592 C 0.70632 0.08029 0.74307 0.0
C593 C 0.69 0.09414 0.73096 0.0
C594 C 0.64257 0.11214 0.75359 0.0
C595 C 0.65095 0.11886 0.73071 0.0
C596 C 0.56881 0.12599 0.76331 0.0
C597 C 0.60606 0.1287 0.78786 0.0
N598 N 0.62842 0.12655 0.7418 0.0
N599 N 0.63134 0.12033 0.77723 0.0
H600 H 0.10928 0.15435 0.04382 0.0
H601 H 0.11418 0.14816 0.96613 0.0
H602 H 0.15224 0.04227 0.02138 0.0
H603 H 0.05069 0.25211 0.98774 0.0
H604 H 0.13586 0.1134 0.98648 0.0
H605 H 0.09386 0.19423 0.02361 0.0
C606 C 0.11558 0.13816 0.03466 0.0
C607 C 0.13194 0.09478 0.03431 0.0
C608 C 0.11744 0.14397 0.9868 0.0
C609 C 0.1145 0.14031 0.01114 0.0
C610 C 0.10521 0.16405 0.97515 0.0
C611 C 0.08029 0.2031 0.97519 0.0
C612 C 0.10481 0.16293 0.99864 0.0
C613 C 0.06985 0.22206 0.98723 0.0
C614 C 0.10665 0.16091 0.02312 0.0
C615 C 0.13907 0.07534 0.02214 0.0
N616 N 0.08192 0.20165 0.99848 0.0
N617 N 0.13042 0.09825 0.01107 0.0
H618 H 0.1448 0.83362 0.96113 0.0
H619 H 0.10948 0.87803 0.03659 0.0
H620 H 0.02117 0.81531 0.9812 0.0
H621 H 0.21654 0.93672 0.015 0.0
H622 H 0.08308 0.84344 0.0168 0.0
H623 H 0.17713 0.86118 0.98124 0.0
C624 C 0.12431 0.83526 0.96968 0.0
C625 C 0.07985 0.82218 0.96931 0.0
C626 C 0.11243 0.86378 0.01638 0.0
C627 C 0.11722 0.85299 0.99242 0.0
C628 C 0.12766 0.8835 0.0277 0.0
C629 C 0.16513 0.91068 0.02744 0.0
C630 C 0.13483 0.871 0.00469 0.0
C631 C 0.18736 0.91625 0.01562 0.0
C632 C 0.14298 0.85089 0.98118 0.0
C633 C 0.05552 0.82442 0.98088 0.0
N634 N 0.17176 0.89665 0.00466 0.0
N635 N 0.07452 0.83955 0.99192 0.0
H636 H 0.88469 0.74697 0.98378 0.0
H637 H 0.8302 0.98254 0.01494 0.0
H638 H 0.89576 0.86915 0.96234 0.0
H639 H 0.84076 0.86142 0.03694 0.0
H640 H 0.85081 0.94217 0.99538 0.0
H641 H 0.86356 0.78864 0.00296 0.0
C642 C 0.88238 0.7826 0.98306 0.0
C643 C 0.89201 0.80454 0.97139 0.0
C644 C 0.84865 0.92451 0.0045 0.0
C645 C 0.86796 0.85272 0.99347 0.0
C646 C 0.83713 0.94762 0.01574 0.0
C647 C 0.83348 0.92549 0.02771 0.0
C648 C 0.85643 0.87884 0.00519 0.0
C649 C 0.84237 0.87994 0.02798 0.0
C650 C 0.87046 0.80643 0.99407 0.0
C651 C 0.88846 0.85082 0.9711 0.0
N652 N 0.85326 0.85822 0.01691 0.0
N653 N 0.87677 0.87339 0.98199 0.0
H654 H 0.73818 0.18865 0.02353 0.0
H655 H 0.94166 0.15677 0.97862 0.0
H656 H 0.80071 0.06241 0.01766 0.0
H657 H 0.84011 0.24726 0.96612 0.0
H658 H 0.89258 0.12852 0.99511 0.0
H659 H 0.77463 0.21638 0.00376 0.0
C660 C 0.7586 0.16651 0.01791 0.0
C661 C 0.76735 0.12352 0.02234 0.0
C662 C 0.88088 0.15431 0.98867 0.0
C663 C 0.8093 0.155 0.00017 0.0
C664 C 0.90891 0.17049 0.97918 0.0
C665 C 0.89489 0.20393 0.97069 0.0
C666 C 0.83861 0.17211 0.98996 0.0
C667 C 0.85242 0.22148 0.97242 0.0
C668 C 0.77946 0.18238 0.00672 0.0
C669 C 0.79405 0.09612 0.01476 0.0
N670 N 0.82567 0.20544 0.98193 0.0
N671 N 0.81471 0.11256 0.00419 0.0
H672 H 0.55967 0.79705 0.77079 0.0
H673 H 0.71547 0.94994 0.73083 0.0
H674 H 0.69735 0.8056 0.78069 0.0
H675 H 0.61796 0.87152 0.71099 0.0
H676 H 0.70518 0.90428 0.75033 0.0
H677 H 0.5759 0.83003 0.74956 0.0
C678 C 0.59342 0.80529 0.76838 0.0
C679 C 0.62733 0.7986 0.77741 0.0
C680 C 0.68636 0.89688 0.74166 0.0
C681 C 0.64573 0.8373 0.75346 0.0
C682 C 0.69191 0.92304 0.73063 0.0
C683 C 0.66737 0.91435 0.71939 0.0
C684 C 0.65519 0.86263 0.74153 0.0
C685 C 0.6375 0.87898 0.7195 0.0
C686 C 0.6026 0.82398 0.75631 0.0
C687 C 0.67044 0.80995 0.77391 0.0
N688 N 0.63168 0.85473 0.7305 0.0
N689 N 0.67836 0.82963 0.76226 0.0
H690 H 0.87987 0.43418 0.22083 0.0
H691 H 0.84294 0.32704 0.29017 0.0
H692 H 0.75868 0.36713 0.23055 0.0
H693 H 0.94425 0.42261 0.28144 0.0
H694 H 0.80934 0.34177 0.26898 0.0
H695 H 0.90281 0.42937 0.24322 0.0
C696 C 0.85776 0.41867 0.22768 0.0
C697 C 0.817 0.40136 0.22374 0.0
C698 C 0.83857 0.35991 0.2718 0.0
C699 C 0.8438 0.39499 0.24965 0.0
C700 C 0.85763 0.35176 0.28393 0.0
C701 C 0.89686 0.37324 0.2875 0.0
C702 C 0.8591 0.38952 0.26321 0.0
C703 C 0.91461 0.40463 0.27896 0.0
C704 C 0.87101 0.41593 0.24054 0.0
C705 C 0.79037 0.38093 0.23314 0.0
N706 N 0.89589 0.41145 0.26718 0.0
N707 N 0.80438 0.37802 0.24569 0.0
H708 H 0.42344 0.06616 0.71287 0.0
H709 H 0.33613 0.17732 0.77527 0.0
H710 H 0.29505 0.12616 0.71253 0.0
H711 H 0.4694 0.20452 0.76321 0.0
H712 H 0.31942 0.15101 0.75333 0.0
H713 H 0.44168 0.10848 0.73258 0.0
C714 C 0.39939 0.08856 0.71692 0.0
C715 C 0.35787 0.09302 0.71116 0.0
C716 C 0.35213 0.1633 0.75548 0.0
C717 C 0.37784 0.1403 0.73357 0.0
C718 C 0.36169 0.17819 0.76795 0.0
C719 C 0.40428 0.19268 0.77104 0.0
C720 C 0.38574 0.16166 0.74619 0.0
C721 C 0.43621 0.19336 0.76122 0.0
C722 C 0.40978 0.11275 0.72804 0.0
C723 C 0.32754 0.1223 0.71668 0.0
N724 N 0.42659 0.17703 0.74926 0.0
N725 N 0.33782 0.14433 0.72775 0.0
H726 H 0.24486 0.66167 0.23045 0.0
H727 H 0.06921 0.60081 0.28547 0.0
H728 H 0.15795 0.54873 0.22912 0.0
H729 H 0.1417 0.72358 0.28463 0.0
H730 H 0.1103 0.5759 0.26656 0.0
H731 H 0.21629 0.67947 0.25205 0.0
C732 C 0.22016 0.64037 0.23475 0.0
C733 C 0.20334 0.60401 0.22791 0.0
C734 C 0.11748 0.60818 0.27057 0.0
C735 C 0.17062 0.62409 0.25254 0.0
C736 C 0.09387 0.62249 0.28135 0.0
C737 C 0.10151 0.66463 0.28655 0.0
C738 C 0.14896 0.63621 0.2649 0.0
C739 C 0.13473 0.69084 0.28098 0.0
C740 C 0.20379 0.6506 0.24705 0.0
C741 C 0.17142 0.57746 0.23395 0.0
N742 N 0.15693 0.67638 0.27037 0.0
N743 N 0.15595 0.58818 0.24587 0.0
H744 H 0.68822 0.63774 0.5376 0.0
H745 H 0.55633 0.61703 0.47083 0.0
H746 H 0.6285 0.51784 0.52306 0.0
H747 H 0.63987 0.72902 0.47933 0.0
H748 H 0.5741 0.58574 0.49179 0.0
H749 H 0.66348 0.6763 0.51799 0.0
C750 C 0.66985 0.61947 0.53038 0.0
C751 C 0.6606 0.57425 0.53209 0.0
C752 C 0.58854 0.61723 0.48914 0.0
C753 C 0.63181 0.61844 0.50973 0.0
C754 C 0.57825 0.63535 0.47713 0.0
C755 C 0.59681 0.67575 0.47323 0.0
C756 C 0.61781 0.63939 0.49741 0.0
C757 C 0.62501 0.69769 0.48191 0.0
C758 C 0.65566 0.64161 0.51921 0.0
C759 C 0.63606 0.55266 0.52242 0.0
N760 N 0.6349 0.67908 0.49361 0.0
N761 N 0.6227 0.57491 0.5117 0.0
H762 H 0.51428 0.34737 0.47558 0.0
H763 H 0.73031 0.44502 0.50914 0.0
H764 H 0.63057 0.37972 0.45352 0.0
H765 H 0.62883 0.3732 0.5296 0.0
H766 H 0.69277 0.42836 0.48861 0.0
H767 H 0.55338 0.36589 0.49546 0.0
C768 C 0.54789 0.35898 0.47489 0.0
C769 C 0.56914 0.36206 0.46283 0.0
C770 C 0.67902 0.41607 0.49761 0.0
C771 C 0.61453 0.38271 0.48568 0.0
C772 C 0.70044 0.42544 0.50932 0.0
C773 C 0.68278 0.41041 0.52112 0.0
C774 C 0.63943 0.39205 0.49775 0.0
C775 C 0.64383 0.3854 0.52077 0.0
C776 C 0.5704 0.36907 0.48628 0.0
C777 C 0.61309 0.37655 0.46261 0.0
N778 N 0.62338 0.3773 0.5093 0.0
N779 N 0.63438 0.38642 0.47388 0.0
H780 H 0.40609 0.37379 0.5419 0.0
H781 H 0.36138 0.35468 0.46561 0.0
H782 H 0.33077 0.46802 0.51964 0.0
H783 H 0.45804 0.27511 0.48559 0.0
H784 H 0.34385 0.39093 0.48602 0.0
H785 H 0.42102 0.33273 0.5219 0.0
C786 C 0.3928 0.38586 0.53281 0.0
C787 C 0.3673 0.42446 0.53243 0.0
C788 C 0.36875 0.36538 0.48597 0.0
C789 C 0.38387 0.37761 0.5096 0.0
C790 C 0.37862 0.34442 0.47432 0.0
C791 C 0.41146 0.31194 0.47386 0.0
C792 C 0.39175 0.35377 0.49729 0.0
C793 C 0.43254 0.30002 0.48548 0.0
C794 C 0.40137 0.36249 0.52142 0.0
C795 C 0.35113 0.43884 0.52038 0.0
N796 N 0.42249 0.32113 0.49673 0.0
N797 N 0.35952 0.41531 0.50947 0.0
H798 H 0.25868 0.5351 0.51062 0.0
H799 H 0.45195 0.66718 0.47683 0.0
H800 H 0.33524 0.63548 0.53013 0.0
H801 H 0.3447 0.61436 0.45422 0.0
H802 H 0.41135 0.65041 0.49664 0.0
H803 H 0.2899 0.55965 0.48986 0.0
C804 C 0.28143 0.5627 0.51054 0.0
C805 C 0.29466 0.58294 0.52218 0.0
C806 C 0.39648 0.64264 0.48736 0.0
C807 C 0.33088 0.61049 0.49855 0.0
C808 C 0.41983 0.65182 0.47607 0.0
C809 C 0.4017 0.64176 0.46392 0.0
C810 C 0.35489 0.62256 0.48655 0.0
C811 C 0.35963 0.6226 0.46344 0.0
C812 C 0.29925 0.5766 0.49869 0.0
C813 C 0.3243 0.61854 0.52146 0.0
N814 N 0.33772 0.6131 0.47464 0.0
N815 N 0.34181 0.63071 0.50989 0.0
H816 H 0.98562 0.11176 0.29206 0.0
H817 H 0.91724 0.90413 0.33399 0.0
H818 H 0.92921 0.12356 0.33036 0.0
H819 H 0.93442 0.89855 0.29247 0.0
H820 H 0.91959 0.98486 0.33285 0.0
H821 H 0.9646 0.03409 0.29176 0.0
C822 C 0.9682 0.09828 0.30033 0.0
C823 C 0.9597 0.12422 0.31132 0.0
C824 C 0.92223 0.96599 0.32397 0.0
C825 C 0.93643 0.03494 0.31114 0.0
C826 C 0.92114 0.92002 0.32463 0.0
C827 C 0.92606 0.89486 0.31332 0.0
C828 C 0.92901 0.98678 0.31194 0.0
C829 C 0.93042 0.91687 0.30141 0.0
C830 C 0.95638 0.05381 0.30017 0.0
C831 C 0.93753 0.1046 0.32182 0.0
N832 N 0.93241 0.96164 0.30104 0.0
N833 N 0.92715 0.06098 0.32153 0.0
H834 H 0.12706 0.04458 0.70277 0.0
H835 H 0.89421 0.0277 0.66755 0.0
H836 H 0.09914 0.95573 0.671 0.0
H837 H 0.9073 0.07247 0.70714 0.0
H838 H 0.97309 0.01385 0.66692 0.0
H839 H 0.04949 0.06607 0.70302 0.0
C840 C 0.10472 0.02937 0.6959 0.0
C841 C 0.11977 -0.00182 0.68685 0.0
C842 C 0.9587 0.02682 0.67573 0.0
C843 C 0.0315 0.02361 0.6869 0.0
C844 C 0.91368 0.03462 0.67612 0.0
C845 C 0.89401 0.05045 0.68751 0.0
C846 C 0.98442 0.03526 0.68676 0.0
C847 C 0.92113 0.06022 0.69817 0.0
C848 C 0.06057 0.04194 0.69601 0.0
C849 C 0.08936 0.9804 0.67801 0.0
N850 N 0.96507 0.0522 0.69757 0.0
N851 N 0.04675 0.99346 0.67824 0.0
H852 H 0.11432 0.61395 0.92563 0.0
H853 H 0.05966 0.37591 0.89722 0.0
H854 H 0.00734 0.58833 0.89911 0.0
H855 H 0.11558 0.40181 0.93506 0.0
H856 H 0.06402 0.45489 0.89234 0.0
H857 H 0.13942 0.53787 0.92282 0.0
C858 C 0.09685 0.59262 0.91893 0.0
C859 C 0.05796 0.60692 0.91288 0.0
C860 C 0.07618 0.44288 0.90158 0.0
C861 C 0.08652 0.52026 0.90963 0.0
C862 C 0.07333 0.39789 0.90447 0.0
C863 C 0.08587 0.38205 0.91678 0.0
C864 C 0.09253 0.47209 0.91095 0.0
C865 C 0.10521 0.41209 0.92548 0.0
C866 C 0.11117 0.54931 0.91734 0.0
C867 C 0.03717 0.57841 0.90407 0.0
N868 N 0.10738 0.4557 0.92246 0.0
N869 N 0.05117 0.53595 0.90291 0.0
H870 H 0.59309 0.95153 0.04644 0.0
H871 H 0.37176 0.97924 0.08682 0.0
H872 H 0.5754 0.04616 0.07736 0.0
H873 H 0.37163 0.93122 0.04737 0.0
H874 H 0.45123 0.98905 0.08556 0.0
H875 H 0.51531 0.93097 0.04839 0.0
C876 C 0.57294 0.96806 0.05359 0.0
C877 C 0.59084 0.00052 0.06179 0.0
C878 C 0.43379 0.97614 0.07721 0.0
C879 C 0.50278 0.97635 0.06425 0.0
C880 C 0.38851 0.97066 0.0779 0.0
C881 C 0.36508 0.95524 0.06709 0.0
C882 C 0.45582 0.96589 0.06566 0.0
C883 C 0.38855 0.94327 0.05592 0.0
C884 C 0.52878 0.95607 0.05475 0.0
C885 C 0.56336 0.02034 0.07102 0.0
N886 N 0.43281 0.9492 0.05544 0.0
N887 N 0.52076 0.00782 0.07202 0.0
H888 H 0.43144 0.38528 0.79489 0.0
H889 H 0.55154 0.5796 0.83188 0.0
H890 H 0.44629 0.38605 0.83663 0.0
H891 H 0.47853 0.60217 0.79646 0.0
H892 H 0.52206 0.50455 0.83269 0.0
H893 H 0.45595 0.46202 0.79427 0.0
C894 C 0.43918 0.40163 0.80395 0.0
C895 C 0.43695 0.37889 0.81584 0.0
C896 C 0.51258 0.52608 0.82476 0.0
C897 C 0.46642 0.46622 0.81507 0.0
C898 C 0.52931 0.56891 0.82428 0.0
C899 C 0.51747 0.59743 0.8141 0.0
C900 C 0.48438 0.51141 0.81488 0.0
C901 C 0.48927 0.58127 0.80437 0.0
C902 C 0.45351 0.44533 0.80355 0.0
C903 C 0.44841 0.40177 0.82721 0.0
N904 N 0.47378 0.53923 0.80499 0.0
N905 N 0.4631 0.44407 0.82653 0.0
H906 H 0.60978 0.41467 0.18431 0.0
H907 H 0.39074 0.45086 0.20061 0.0
H908 H 0.62935 0.55024 0.19584 0.0
H909 H 0.41757 0.58259 0.18659 0.0
H910 H 0.46998 0.436 0.20094 0.0
H911 H 0.5303 0.42436 0.18673 0.0
C912 C 0.59718 0.44639 0.18742 0.0
C913 C 0.62581 0.48175 0.1899 0.0
C914 C 0.45844 0.46804 0.19773 0.0
C915 C 0.5355 0.49292 0.19283 0.0
C916 C 0.41342 0.47666 0.19768 0.0
C917 C 0.39788 0.51783 0.19346 0.0
C918 C 0.48789 0.50101 0.19362 0.0
C919 C 0.42843 0.55023 0.18973 0.0
C920 C 0.55201 0.45175 0.18895 0.0
C921 C 0.60815 0.52218 0.19394 0.0
N922 N 0.47214 0.54117 0.18994 0.0
N923 N 0.56389 0.52689 0.19512 0.0
H924 H 0.57549 0.89609 0.43204 0.0
H925 H 0.39679 0.08566 0.43824 0.0
H926 H 0.44537 0.87234 0.44723 0.0
H927 H 0.53627 0.11218 0.43567 0.0
H928 H 0.41286 0.00707 0.44057 0.0
H929 H 0.5609 0.97549 0.43225 0.0
C930 C 0.54392 0.90778 0.43548 0.0
C931 C 0.51148 0.87793 0.43958 0.0
C932 C 0.4399 0.03019 0.43957 0.0
C933 C 0.49443 0.96826 0.43977 0.0
C934 C 0.4308 0.07508 0.43828 0.0
C935 C 0.46525 0.10563 0.43672 0.0
C936 C 0.48369 0.01572 0.43916 0.0
C937 C 0.50862 0.0898 0.43659 0.0
C938 C 0.53567 0.95297 0.43565 0.0
C939 C 0.47125 0.89449 0.44406 0.0
N940 N 0.51659 0.04589 0.43772 0.0
N941 N 0.46364 0.93868 0.44391 0.0
H942 H 0.10578 0.4969 0.54303 0.0
H943 H 0.90144 0.41223 0.58472 0.0
H944 H 0.11197 0.47006 0.58415 0.0
H945 H 0.89772 0.42871 0.54314 0.0
H946 H 0.98045 0.42712 0.58442 0.0
H947 H 0.03082 0.46752 0.5426 0.0
C948 C 0.09127 0.48489 0.55197 0.0
C949 C 0.11493 0.48616 0.56366 0.0
C950 C 0.96251 0.42695 0.57534 0.0
C951 C 0.02953 0.45214 0.56323 0.0
C952 C 0.91747 0.41848 0.57552 0.0
C953 C 0.89312 0.41973 0.56396 0.0
C954 C 0.98319 0.43721 0.56353 0.0
C955 C 0.91541 0.42735 0.55226 0.0
C956 C 0.04868 0.46778 0.5517 0.0
C957 C 0.09496 0.46944 0.57491 0.0
N958 N 0.95917 0.43641 0.55236 0.0
N959 N 0.05328 0.45339 0.57443 0.0
H960 H 0.05033 0.63373 0.34281 0.0
H961 H 0.10657 0.42695 0.33333 0.0
H962 H 0.92228 0.57564 0.33714 0.0
H963 H 0.98073 0.38532 0.34818 0.0
H964 H 0.09502 0.49977 0.3425 0.0
H965 H 0.07551 0.56425 0.35272 0.0
C966 C 0.0272 0.60678 0.3441 0.0
C967 C 0.98471 0.60941 0.33892 0.0
C968 C 0.07065 0.47447 0.34439 0.0
C969 C 0.01319 0.53022 0.34966 0.0
C970 C 0.07724 0.43281 0.33904 0.0
C971 C 0.04398 0.40085 0.33974 0.0
C972 C 0.02978 0.4844 0.35005 0.0
C973 C 0.00682 0.40956 0.3473 0.0
C974 C 0.0416 0.56707 0.34961 0.0
C975 C 0.95568 0.57411 0.3408 0.0
N976 N -0.0001 0.45121 0.35177 0.0
N977 N 0.97068 0.53558 0.34582 0.0
H978 H 0.37804 0.02586 0.65403 0.0
H979 H 0.63333 0.98188 0.65798 0.0
H980 H 0.43882 0.90075 0.66269 0.0
H981 H 0.56568 0.09988 0.67001 0.0
H982 H 0.56566 0.95654 0.64721 0.0
H983 H 0.44956 0.05434 0.64683 0.0
C984 C 0.40598 0.0037 0.65374 0.0
C985 C 0.40325 0.9614 0.6592 0.0
C986 C 0.5663 0.98878 0.65175 0.0
C987 C 0.48433 0.99349 0.65114 0.0
C988 C 0.60472 0.00317 0.6579 0.0
C989 C 0.60422 0.0423 0.66513 0.0
C990 C 0.52784 0.0142 0.65277 0.0
C991 C 0.56669 0.06893 0.66476 0.0
C992 C 0.44673 0.02 0.6497 0.0
C993 C 0.44018 0.93393 0.65875 0.0
N994 N 0.52964 0.05407 0.65885 0.0
N995 N 0.47962 0.95076 0.65506 0.0
H996 H 0.91194 0.1079 0.93808 0.0
H997 H 0.97516 0.87829 0.90759 0.0
H998 H 0.00281 0.09383 0.90636 0.0
H999 H 0.88424 0.89621 0.93923 0.0
H1000 H 0.97115 0.95766 0.90296 0.0
H1001 H 0.88531 0.03293 0.93423 0.0
C1002 C 0.92497 0.08939 0.92996 0.0
C1003 C 0.95932 0.1066 0.92248 0.0
C1004 C 0.95142 0.94409 0.91076 0.0
C1005 C 0.93113 0.0202 0.91845 0.0
C1006 C 0.95376 0.89885 0.9134 0.0
C1007 C 0.93087 0.88112 0.92401 0.0
C1008 C 0.92611 0.97149 0.91882 0.0
C1009 C 0.90325 0.90888 0.93116 0.0
C1010 C 0.91017 0.04646 0.92782 0.0
C1011 C 0.9759 0.08145 0.91222 0.0
N1012 N 0.90214 0.95279 0.92855 0.0
N1013 N 0.96239 0.03891 0.91069 0.0
H1014 H 0.91035 0.11272 0.07576 0.0
H1015 H 0.04656 0.92396 0.09212 0.0
H1016 H 0.85262 -0.0024 0.09367 0.0
H1017 H 0.10067 0.05552 0.09291 0.0
H1018 H 0.97649 0.95276 0.09972 0.0
H1019 H 0.97778 0.09998 0.08796 0.0
C1020 C 0.91178 0.08516 0.08247 0.0
C1021 C 0.87697 0.05501 0.08336 0.0
C1022 C 0.00399 0.97536 0.09878 0.0
C1023 C 0.95398 0.03959 0.09713 0.0
C1024 C 0.04396 0.95879 0.09443 0.0
C1025 C 0.07845 0.98782 0.0916 0.0
C1026 C -0.00173 0.02136 0.09952 0.0
C1027 C 0.07415 0.03244 0.09481 0.0
C1028 C 0.95006 0.07811 0.08958 0.0
C1029 C 0.87952 0.02077 0.09248 0.0
N1030 N 0.03401 0.04831 0.09816 0.0
N1031 N 0.9181 0.01302 0.09872 0.0
H1032 H 0.37294 0.0419 0.82715 0.0
H1033 H 0.46612 0.851 0.84325 0.0
H1034 H 0.48259 0.11035 0.84453 0.0
H1035 H 0.57837 0.93049 0.83265 0.0
H1036 H 0.42907 0.91778 0.85116 0.0
H1037 H 0.39955 0.97278 0.83643 0.0
C1038 C 0.40184 0.04242 0.83332 0.0
C1039 C 0.42622 0.08127 0.83493 0.0
C1040 C 0.46239 0.92023 0.8475 0.0
C1041 C 0.4573 0.00267 0.84536 0.0
C1042 C 0.48356 0.88226 0.84307 0.0
C1043 C 0.5246 0.88595 0.83698 0.0
C1044 C 0.48281 0.96152 0.84579 0.0
C1045 C 0.54612 0.92683 0.83699 0.0
C1046 C 0.41681 0.0031 0.83875 0.0
C1047 C 0.46324 0.0807 0.84303 0.0
N1048 N 0.52462 0.96334 0.84112 0.0
N1049 N 0.47874 0.04152 0.84755 0.0
H1050 H 0.88668 0.5232 0.15313 0.0
H1051 H 0.1402 0.47123 0.15699 0.0
H1052 H 0.94416 0.39642 0.16168 0.0
H1053 H 0.07753 0.59411 0.16696 0.0
H1054 H 0.07177 0.44694 0.14644 0.0
H1055 H 0.95862 0.5494 0.14556 0.0
C1056 C 0.91394 0.50023 0.15278 0.0
C1057 C 0.91019 0.45807 0.15829 0.0
C1058 C 0.07369 0.47994 0.15046 0.0
C1059 C 0.99186 0.48763 0.14983 0.0
C1060 C 0.11262 0.49378 0.15644 0.0
C1061 C 0.11368 0.53415 0.16306 0.0
C1062 C 0.03621 0.50699 0.15109 0.0
C1063 C 0.07734 0.56229 0.16216 0.0
C1064 C 0.95497 0.51523 0.14853 0.0
C1065 C 0.94631 0.42953 0.15772 0.0
N1066 N 0.03969 0.54787 0.15649 0.0
N1067 N 0.98604 0.44512 0.15384 0.0
H1068 H 0.58807 0.56133 0.41083 0.0
H1069 H 0.38772 0.42681 0.41075 0.0
H1070 H 0.46201 0.61977 0.40257 0.0
H1071 H 0.51313 0.36936 0.40128 0.0
H1072 H 0.41134 0.49623 0.40099 0.0
H1073 H 0.56381 0.49312 0.40052 0.0
C1074 C 0.55571 0.56009 0.4064 0.0
C1075 C 0.5264 0.5953 0.40781 0.0
C1076 C 0.43334 0.46816 0.40057 0.0
C1077 C 0.49763 0.51712 0.39659 0.0
C1078 C 0.4198 0.42858 0.40619 0.0
C1079 C 0.44914 0.39318 0.4071 0.0
C1080 C 0.4772 0.47269 0.39646 0.0
C1081 C 0.48997 0.39648 0.40092 0.0
C1082 C 0.54179 0.52121 0.40048 0.0
C1083 C 0.48516 0.59274 0.40182 0.0
N1084 N 0.50353 0.43625 0.39625 0.0
N1085 N 0.47128 0.55355 0.39685 0.0
H1086 H 0.37727 0.49202 0.59551 0.0
H1087 H 0.63247 0.53546 0.58772 0.0
H1088 H 0.43579 0.60875 0.57871 0.0
H1089 H 0.56768 0.409 0.58532 0.0
H1090 H 0.564 0.56788 0.59606 0.0
H1091 H 0.44989 0.46974 0.60349 0.0
C1092 C 0.40509 0.51384 0.59396 0.0
C1093 C 0.40111 0.55154 0.58614 0.0
C1094 C 0.56543 0.53267 0.59422 0.0
C1095 C 0.48352 0.52646 0.59521 0.0
C1096 C 0.60436 0.51424 0.58953 0.0
C1097 C 0.60494 0.46989 0.58572 0.0
C1098 C 0.52751 0.5062 0.59514 0.0
C1099 C 0.56792 0.44356 0.58804 0.0
C1100 C 0.44644 0.50107 0.59849 0.0
C1101 C 0.43796 0.5788 0.58444 0.0
N1102 N 0.53033 0.46227 0.59244 0.0
N1103 N 0.47796 0.56528 0.58872 0.0
H1104 H 0.35541 0.27096 0.38859 0.0
H1105 H 0.11968 0.26202 0.35554 0.0
H1106 H 0.23375 0.2584 0.40987 0.0
H1107 H 0.24102 0.26344 0.33368 0.0
H1108 H 0.16143 0.2522 0.37528 0.0
H1109 H 0.31507 0.25994 0.36842 0.0
C1110 C 0.32034 0.26514 0.38908 0.0
C1111 C 0.29788 0.26613 0.40099 0.0
C1112 C 0.17898 0.25425 0.36616 0.0
C1113 C 0.25133 0.25423 0.37782 0.0
C1114 C 0.15502 0.25966 0.35475 0.0
C1115 C 0.17667 0.26426 0.34276 0.0
C1116 C 0.22507 0.25379 0.3657 0.0
C1117 C 0.22281 0.26116 0.34266 0.0
C1118 C 0.29725 0.25909 0.37751 0.0
C1119 C 0.25228 0.25884 0.40092 0.0
N1120 N 0.24549 0.25664 0.35397 0.0
N1121 N 0.23047 0.25364 0.38951 0.0
H1122 H 0.2614 0.85971 0.64348 0.0
H1123 H 0.27654 0.62728 0.60823 0.0
H1124 H 0.28878 0.73747 0.66364 0.0
H1125 H 0.24059 0.74852 0.5888 0.0
H1126 H 0.27235 0.6652 0.62896 0.0
H1127 H 0.24513 0.81813 0.62399 0.0
C1128 C 0.2634 0.8241 0.64395 0.0
C1129 C 0.27703 0.80222 0.65531 0.0
C1130 C 0.26487 0.68342 0.62018 0.0
C1131 C 0.25912 0.75423 0.63271 0.0
C1132 C 0.26696 0.66167 0.60828 0.0
C1133 C 0.25941 0.68485 0.59666 0.0
C1134 C 0.25543 0.72876 0.62049 0.0
C1135 C 0.24761 0.72956 0.59746 0.0
C1136 C 0.25428 0.8003 0.63271 0.0
C1137 C 0.27935 0.75588 0.65508 0.0
N1138 N 0.24645 0.75017 0.60915 0.0
N1139 N 0.27095 0.73347 0.64392 0.0
H1140 H 0.8667 0.70337 0.35772 0.0
H1141 H 0.62937 0.68311 0.39028 0.0
H1142 H 0.74702 0.68163 0.33601 0.0
H1143 H 0.74874 0.70592 0.41203 0.0
H1144 H 0.6714 0.68668 0.37024 0.0
H1145 H 0.82364 0.70876 0.37754 0.0
C1146 C 0.83131 0.70028 0.35706 0.0
C1147 C 0.81045 0.69201 0.34514 0.0
C1148 C 0.68842 0.69116 0.37938 0.0
C1149 C 0.76093 0.69742 0.36792 0.0
C1150 C 0.66435 0.68947 0.39086 0.0
C1151 C 0.68556 0.6944 0.4029 0.0
C1152 C 0.73411 0.6977 0.3799 0.0
C1153 C 0.73118 0.70151 0.40299 0.0
C1154 C 0.80674 0.70304 0.36843 0.0
C1155 C 0.76451 0.68746 0.345 0.0
N1156 N 0.75397 0.70286 0.39166 0.0
N1157 N 0.7413 0.6901 0.35622 0.0
H1158 H 0.76663 0.18287 0.65325 0.0
H1159 H 0.61933 0.27523 0.59589 0.0
H1160 H 0.63241 0.22422 0.65882 0.0
H1161 H 0.75742 0.30736 0.59776 0.0
H1162 H 0.62446 0.24163 0.61748 0.0
H1163 H 0.76512 0.21576 0.63133 0.0
C1164 C 0.73708 0.19917 0.64986 0.0
C1165 C 0.69977 0.20142 0.6578 0.0
C1166 C 0.65367 0.25584 0.61312 0.0
C1167 C 0.69735 0.23754 0.63292 0.0
C1168 C 0.65086 0.27454 0.60079 0.0
C1169 C 0.68807 0.29387 0.59511 0.0
C1170 C 0.69415 0.25578 0.61968 0.0
C1171 C 0.72806 0.29285 0.60191 0.0
C1172 C 0.73623 0.21783 0.63744 0.0
C1173 C 0.66204 0.22252 0.65304 0.0
N1174 N 0.73019 0.27385 0.61387 0.0
N1175 N 0.66162 0.23938 0.64084 0.0
H1176 H 0.14976 0.23516 0.89954 0.0
H1177 H 0.23387 0.11462 0.8359 0.0
H1178 H 0.1569 0.09331 0.89658 0.0
H1179 H 0.28455 0.24174 0.84748 0.0
H1180 H 0.19329 0.10987 0.85638 0.0
H1181 H 0.18831 0.24165 0.87871 0.0
C1182 C 0.15944 0.20545 0.89445 0.0
C1183 C 0.15037 0.16364 0.8997 0.0
C1184 C 0.21313 0.13887 0.85439 0.0
C1185 C 0.19363 0.17074 0.87598 0.0
C1186 C 0.23583 0.14181 0.84269 0.0
C1187 C 0.26228 0.17876 0.84005 0.0
C1188 C 0.2164 0.17345 0.86339 0.0
C1189 C 0.26448 0.21276 0.84924 0.0
C1190 C 0.1815 0.20915 0.88265 0.0
C1191 C 0.16375 0.12606 0.89286 0.0
N1192 N 0.24161 0.20943 0.86052 0.0
N1193 N 0.18445 0.13046 0.88126 0.0
H1194 H 0.21705 0.76027 0.16765 0.0
H1195 H 0.18776 0.75342 0.09051 0.0
H1196 H 0.20366 0.64046 0.14529 0.0
H1197 H 0.19029 0.87427 0.11266 0.0
H1198 H 0.20192 0.7118 0.11036 0.0
H1199 H 0.21515 0.80298 0.14747 0.0
C1200 C 0.21387 0.74292 0.15852 0.0
C1201 C 0.21034 0.69666 0.15822 0.0
C1202 C 0.19964 0.74745 0.11089 0.0
C1203 C 0.20845 0.74526 0.13509 0.0
C1204 C 0.19137 0.77121 0.09955 0.0
C1205 C 0.18733 0.81735 0.09994 0.0
C1206 C 0.20376 0.76993 0.12274 0.0
C1207 C 0.19331 0.83877 0.11189 0.0
C1208 C 0.21299 0.7673 0.147 0.0
C1209 C 0.20702 0.6759 0.14607 0.0
N1210 N 0.20086 0.81484 0.12284 0.0
N1211 N 0.20589 0.70036 0.13503 0.0
H1212 H 0.8185 0.81022 0.9063 0.0
H1213 H 0.67103 0.71246 0.84881 0.0
H1214 H 0.79693 0.6702 0.90166 0.0
H1215 H 0.72439 0.84462 0.84957 0.0
H1216 H 0.70883 0.6967 0.8694 0.0
H1217 H 0.77473 0.82397 0.88696 0.0
C1218 C 0.80452 0.7823 0.90119 0.0
C1219 C 0.81206 0.73894 0.90546 0.0
C1220 C 0.71225 0.72907 0.86502 0.0
C1221 C 0.76145 0.75448 0.88327 0.0
C1222 C 0.69066 0.7381 0.85332 0.0
C1223 C 0.69485 0.77982 0.84745 0.0
C1224 C 0.73764 0.76224 0.87093 0.0
C1225 C 0.72083 0.81183 0.85363 0.0
C1226 C 0.77943 0.79018 0.89015 0.0
C1227 C 0.79195 0.70412 0.89867 0.0
N1228 N 0.74107 0.8024 0.86503 0.0
N1229 N 0.76775 0.71261 0.88782 0.0
H1230 H 0.74252 0.25702 0.08615 0.0
H1231 H 0.82118 0.24162 0.15973 0.0
H1232 H 0.78444 0.13557 0.10425 0.0
H1233 H 0.74914 0.35301 0.14439 0.0
H1234 H 0.80801 0.20213 0.1395 0.0
H1235 H 0.74535 0.29342 0.10736 0.0
C1236 C 0.75197 0.23803 0.09462 0.0
C1237 C 0.76308 0.19329 0.09347 0.0
C1238 C 0.79488 0.23515 0.14061 0.0
C1239 C 0.76677 0.23448 0.11768 0.0
C1240 C 0.80226 0.25772 0.1522 0.0
C1241 C 0.78677 0.30107 0.15377 0.0
C1242 C 0.77212 0.25611 0.13046 0.0
C1243 C 0.76271 0.32016 0.14354 0.0
C1244 C 0.75344 0.25866 0.10671 0.0
C1245 C 0.77496 0.16995 0.10472 0.0
N1246 N 0.75646 0.29772 0.13229 0.0
N1247 N 0.77687 0.19092 0.11634 0.0
loop_
_geom_bond_atom_site_label_1
_geom_bond_atom_site_label_2
_geom_bond_distance
_geom_bond_site_symmetry_2
_ccdc_geom_bond_type
Co0 N4 2.148 . S
Co0 N10 2.128 1_455 S
Co0 N20 2.194 . S
Co0 O25 2.351 1_455 S
Co0 O26 2.155 . S
Co0 O27 2.096 . S
C1 N4 1.301 . S
C1 N5 1.328 . S
C1 H6 0.930 . S
C2 C3 1.333 . S
C2 N4 1.317 . S
C2 H7 0.930 . S
C3 C2 1.333 . S
C3 N5 1.350 . S
C3 H29 0.931 . S
N4 Co0 2.148 . S
N4 C1 1.301 . S
N4 C2 1.317 . S
N5 C1 1.328 . S
N5 C3 1.350 . S
H6 C1 0.930 . S
H7 C2 0.930 . S
C8 O9 1.224 . S
C8 O27 1.247 . S
O9 C8 1.224 . S
N10 Co0 2.128 1_655 S
N10 C11 1.355 . S
N10 C13 1.311 . S
C11 N10 1.355 . S
C11 C12 1.363 . S
C11 H23 0.929 . S
C12 C11 1.363 . S
C12 N14 1.375 . S
C12 H30 0.931 . S
C13 N10 1.311 . S
C13 N14 1.347 . S
C13 H24 0.929 . S
N14 C12 1.375 . S
N14 C13 1.347 . S
C15 C18 1.365 . S
C15 N20 1.328 1_655 S
C15 H21 0.929 . S
C16 C17 1.362 1_455 S
C16 C19 1.378 . S
C16 H31 0.929 . S
C17 C16 1.362 1_655 S
C17 C18 1.366 . S
C18 C15 1.365 . S
C18 C17 1.366 . S
C18 H32 0.930 . S
C19 C16 1.378 . S
C19 N20 1.315 . S
C19 H22 0.930 . S
N20 Co0 2.194 . S
N20 C15 1.328 1_455 S
N20 C19 1.315 . S
H21 C15 0.929 . S
H22 C19 0.930 . S
H23 C11 0.929 . S
H24 C13 0.929 . S
O25 Co0 2.351 1_655 S
O25 C28 1.244 . S
O26 Co0 2.155 . S
O26 C28 1.240 1_455 S
O27 Co0 2.096 . S
O27 C8 1.247 . S
C28 O25 1.244 . S
C28 O26 1.240 1_655 S
H29 C3 0.931 . S
H30 C12 0.931 . S
H31 C16 0.929 . S
H32 C18 0.930 . S
Co33 N37 2.148 . S
Co33 N43 2.128 1_565 S
Co33 N53 2.194 . S
Co33 O58 2.351 1_565 S
Co33 O59 2.155 . S
Co33 O60 2.096 . S
C34 N37 1.301 . S
C34 N38 1.328 . S
C34 H39 0.930 . S
C35 C36 1.333 . S
C35 N37 1.317 . S
C35 H40 0.930 . S
C36 C35 1.333 . S
C36 N38 1.350 . S
C36 H62 0.931 . S
N37 Co33 2.148 . S
N37 C34 1.301 . S
N37 C35 1.317 . S
N38 C34 1.328 . S
N38 C36 1.350 . S
H39 C34 0.930 . S
H40 C35 0.930 . S
C41 O42 1.224 . S
C41 O60 1.247 . S
O42 C41 1.224 . S
N43 Co33 2.128 1_545 S
N43 C44 1.355 . S
N43 C46 1.311 . S
C44 N43 1.355 . S
C44 C45 1.363 . S
C44 H56 0.929 . S
C45 C44 1.363 . S
C45 N47 1.375 . S
C45 H63 0.931 . S
C46 N43 1.311 . S
C46 N47 1.347 . S
C46 H57 0.929 . S
N47 C45 1.375 . S
N47 C46 1.347 . S
C48 C51 1.365 . S
C48 N53 1.328 1_545 S
C48 H54 0.929 . S
C49 C50 1.362 1_565 S
C49 C52 1.378 . S
C49 H64 0.929 . S
C50 C49 1.362 1_545 S
C50 C51 1.366 . S
C51 C48 1.365 . S
C51 C50 1.366 . S
C51 H65 0.930 . S
C52 C49 1.378 . S
C52 N53 1.315 . S
C52 H55 0.930 . S
N53 Co33 2.194 . S
N53 C48 1.328 1_565 S
N53 C52 1.315 . S
H54 C48 0.929 . S
H55 C52 0.930 . S
H56 C44 0.929 . S
H57 C46 0.929 . S
O58 Co33 2.351 1_545 S
O58 C61 1.244 . S
O59 Co33 2.155 . S
O59 C61 1.240 1_565 S
O60 Co33 2.096 . S
O60 C41 1.247 . S
C61 O58 1.244 . S
C61 O59 1.240 1_545 S
H62 C36 0.931 . S
H63 C45 0.931 . S
H64 C49 0.929 . S
H65 C51 0.930 . S
Co66 N70 2.148 . S
Co66 N76 2.128 1_655 S
Co66 N86 2.194 . S
Co66 O91 2.351 1_655 S
Co66 O92 2.155 . S
Co66 O93 2.096 . S
C67 N70 1.301 . S
C67 N71 1.328 . S
C67 H72 0.930 . S
C68 C69 1.333 . S
C68 N70 1.317 . S
C68 H73 0.930 . S
C69 C68 1.333 . S
C69 N71 1.350 . S
C69 H95 0.931 . S
N70 Co66 2.148 . S
N70 C67 1.301 . S
N70 C68 1.317 . S
N71 C67 1.328 . S
N71 C69 1.350 . S
H72 C67 0.930 . S
H73 C68 0.930 . S
C74 O75 1.224 . S
C74 O93 1.247 . S
O75 C74 1.224 . S
N76 Co66 2.128 1_455 S
N76 C77 1.355 . S
N76 C79 1.311 . S
C77 N76 1.355 . S
C77 C78 1.363 . S
C77 H89 0.929 . S
C78 C77 1.363 . S
C78 N80 1.375 . S
C78 H96 0.931 . S
C79 N76 1.311 . S
C79 N80 1.347 . S
C79 H90 0.929 . S
N80 C78 1.375 . S
N80 C79 1.347 . S
C81 C84 1.365 . S
C81 N86 1.328 1_455 S
C81 H87 0.929 . S
C82 C83 1.362 1_655 S
C82 C85 1.378 . S
C82 H97 0.929 . S
C83 C82 1.362 1_455 S
C83 C84 1.366 . S
C84 C81 1.365 . S
C84 C83 1.366 . S
C84 H98 0.930 . S
C85 C82 1.378 . S
C85 N86 1.315 . S
C85 H88 0.930 . S
N86 Co66 2.194 . S
N86 C81 1.328 1_655 S
N86 C85 1.315 . S
H87 C81 0.929 . S
H88 C85 0.930 . S
H89 C77 0.929 . S
H90 C79 0.929 . S
O91 Co66 2.351 1_455 S
O91 C94 1.244 . S
O92 Co66 2.155 . S
O92 C94 1.240 1_655 S
O93 Co66 2.096 . S
O93 C74 1.247 . S
C94 O91 1.244 . S
C94 O92 1.240 1_455 S
H95 C69 0.931 . S
H96 C78 0.931 . S
H97 C82 0.929 . S
H98 C84 0.930 . S
Co99 N103 2.148 . S
Co99 N109 2.128 1_545 S
Co99 N119 2.194 . S
Co99 O124 2.351 1_545 S
Co99 O125 2.155 . S
Co99 O126 2.096 . S
C100 N103 1.301 . S
C100 N104 1.328 . S
C100 H105 0.930 . S
C101 C102 1.333 . S
C101 N103 1.317 . S
C101 H106 0.930 . S
C102 C101 1.333 . S
C102 N104 1.350 . S
C102 H128 0.931 . S
N103 Co99 2.148 . S
N103 C100 1.301 . S
N103 C101 1.317 . S
N104 C100 1.328 . S
N104 C102 1.350 . S
H105 C100 0.930 . S
H106 C101 0.930 . S
C107 O108 1.224 . S
C107 O126 1.247 . S
O108 C107 1.224 . S
N109 Co99 2.128 1_565 S
N109 C110 1.355 . S
N109 C112 1.311 . S
C110 N109 1.355 . S
C110 C111 1.363 . S
C110 H122 0.929 . S
C111 C110 1.363 . S
C111 N113 1.375 . S
C111 H129 0.931 . S
C112 N109 1.311 . S
C112 N113 1.347 . S
C112 H123 0.929 . S
N113 C111 1.375 . S
N113 C112 1.347 . S
C114 C117 1.365 . S
C114 N119 1.328 1_565 S
C114 H120 0.929 . S
C115 C116 1.362 1_545 S
C115 C118 1.378 . S
C115 H130 0.929 . S
C116 C115 1.362 1_565 S
C116 C117 1.366 . S
C117 C114 1.365 . S
C117 C116 1.366 . S
C117 H131 0.930 . S
C118 C115 1.378 . S
C118 N119 1.315 . S
C118 H121 0.930 . S
N119 Co99 2.194 . S
N119 C114 1.328 1_545 S
N119 C118 1.315 . S
H120 C114 0.929 . S
H121 C118 0.930 . S
H122 C110 0.929 . S
H123 C112 0.929 . S
O124 Co99 2.351 1_565 S
O124 C127 1.244 . S
O125 Co99 2.155 . S
O125 C127 1.240 1_545 S
O126 Co99 2.096 . S
O126 C107 1.247 . S
C127 O124 1.244 . S
C127 O125 1.240 1_565 S
H128 C102 0.931 . S
H129 C111 0.931 . S
H130 C115 0.929 . S
H131 C117 0.930 . S
Co132 N136 2.148 . S
Co132 N142 2.128 1_455 S
Co132 N152 2.194 . S
Co132 O157 2.351 1_455 S
Co132 O158 2.155 . S
Co132 O159 2.096 . S
C133 N136 1.301 . S
C133 N137 1.328 . S
C133 H138 0.930 . S
C134 C135 1.333 . S
C134 N136 1.317 . S
C134 H139 0.930 . S
C135 C134 1.333 . S
C135 N137 1.350 . S
C135 H161 0.931 . S
N136 Co132 2.148 . S
N136 C133 1.301 . S
N136 C134 1.317 . S
N137 C133 1.328 . S
N137 C135 1.350 . S
H138 C133 0.930 . S
H139 C134 0.930 . S
C140 O141 1.224 . S
C140 O159 1.247 . S
O141 C140 1.224 . S
N142 Co132 2.128 1_655 S
N142 C143 1.355 . S
N142 C145 1.311 . S
C143 N142 1.355 . S
C143 C144 1.363 . S
C143 H155 0.929 . S
C144 C143 1.363 . S
C144 N146 1.375 . S
C144 H162 0.931 . S
C145 N142 1.311 . S
C145 N146 1.347 . S
C145 H156 0.929 . S
N146 C144 1.375 . S
N146 C145 1.347 . S
C147 C150 1.365 . S
C147 N152 1.328 1_655 S
C147 H153 0.929 . S
C148 C149 1.362 1_455 S
C148 C151 1.378 . S
C148 H163 0.929 . S
C149 C148 1.362 1_655 S
C149 C150 1.366 . S
C150 C147 1.365 . S
C150 C149 1.366 . S
C150 H164 0.930 . S
C151 C148 1.378 . S
C151 N152 1.315 . S
C151 H154 0.930 . S
N152 Co132 2.194 . S
N152 C147 1.328 1_455 S
N152 C151 1.315 . S
H153 C147 0.929 . S
H154 C151 0.930 . S
H155 C143 0.929 . S
H156 C145 0.929 . S
O157 Co132 2.351 1_655 S
O157 C160 1.244 . S
O158 Co132 2.155 . S
O158 C160 1.240 1_455 S
O159 Co132 2.096 . S
O159 C140 1.247 . S
C160 O157 1.244 . S
C160 O158 1.240 1_655 S
H161 C135 0.931 . S
H162 C144 0.931 . S
H163 C148 0.929 . S
H164 C150 0.930 . S
Co165 N169 2.148 . S
Co165 N175 2.128 1_565 S
Co165 N185 2.194 . S
Co165 O190 2.351 1_565 S
Co165 O191 2.155 . S
Co165 O192 2.096 . S
C166 N169 1.301 . S
C166 N170 1.328 . S
C166 H171 0.930 . S
C167 C168 1.333 . S
C167 N169 1.317 . S
C167 H172 0.930 . S
C168 C167 1.333 . S
C168 N170 1.350 . S
C168 H194 0.931 . S
N169 Co165 2.148 . S
N169 C166 1.301 . S
N169 C167 1.317 . S
N170 C166 1.328 . S
N170 C168 1.350 . S
H171 C166 0.930 . S
H172 C167 0.930 . S
C173 O174 1.224 . S
C173 O192 1.247 . S
O174 C173 1.224 . S
N175 Co165 2.128 1_545 S
N175 C176 1.355 . S
N175 C178 1.311 . S
C176 N175 1.355 . S
C176 C177 1.363 . S
C176 H188 0.929 . S
C177 C176 1.363 . S
C177 N179 1.375 . S
C177 H195 0.931 . S
C178 N175 1.311 . S
C178 N179 1.347 . S
C178 H189 0.929 . S
N179 C177 1.375 . S
N179 C178 1.347 . S
C180 C183 1.365 . S
C180 N185 1.328 1_545 S
C180 H186 0.929 . S
C181 C182 1.362 1_565 S
C181 C184 1.378 . S
C181 H196 0.929 . S
C182 C181 1.362 1_545 S
C182 C183 1.366 . S
C183 C180 1.365 . S
C183 C182 1.366 . S
C183 H197 0.930 . S
C184 C181 1.378 . S
C184 N185 1.315 . S
C184 H187 0.930 . S
N185 Co165 2.194 . S
N185 C180 1.328 1_565 S
N185 C184 1.315 . S
H186 C180 0.929 . S
H187 C184 0.930 . S
H188 C176 0.929 . S
H189 C178 0.929 . S
O190 Co165 2.351 1_545 S
O190 C193 1.244 . S
O191 Co165 2.155 . S
O191 C193 1.240 1_565 S
O192 Co165 2.096 . S
O192 C173 1.247 . S
C193 O190 1.244 . S
C193 O191 1.240 1_545 S
H194 C168 0.931 . S
H195 C177 0.931 . S
H196 C181 0.929 . S
H197 C183 0.930 . S
Co198 N202 2.148 . S
Co198 N208 2.128 1_655 S
Co198 N218 2.194 . S
Co198 O223 2.351 1_655 S
Co198 O224 2.155 . S
Co198 O225 2.096 . S
C199 N202 1.301 . S
C199 N203 1.328 . S
C199 H204 0.930 . S
C200 C201 1.333 . S
C200 N202 1.317 . S
C200 H205 0.930 . S
C201 C200 1.333 . S
C201 N203 1.350 . S
C201 H227 0.931 . S
N202 Co198 2.148 . S
N202 C199 1.301 . S
N202 C200 1.317 . S
N203 C199 1.328 . S
N203 C201 1.350 . S
H204 C199 0.930 . S
H205 C200 0.930 . S
C206 O207 1.224 . S
C206 O225 1.247 . S
O207 C206 1.224 . S
N208 Co198 2.128 1_455 S
N208 C209 1.355 . S
N208 C211 1.311 . S
C209 N208 1.355 . S
C209 C210 1.363 . S
C209 H221 0.929 . S
C210 C209 1.363 . S
C210 N212 1.375 . S
C210 H228 0.931 . S
C211 N208 1.311 . S
C211 N212 1.347 . S
C211 H222 0.929 . S
N212 C210 1.375 . S
N212 C211 1.347 . S
C213 C216 1.365 . S
C213 N218 1.328 1_455 S
C213 H219 0.929 . S
C214 C215 1.362 1_655 S
C214 C217 1.378 . S
C214 H229 0.929 . S
C215 C214 1.362 1_455 S
C215 C216 1.366 . S
C216 C213 1.365 . S
C216 C215 1.366 . S
C216 H230 0.930 . S
C217 C214 1.378 . S
C217 N218 1.315 . S
C217 H220 0.930 . S
N218 Co198 2.194 . S
N218 C213 1.328 1_655 S
N218 C217 1.315 . S
H219 C213 0.929 . S
H220 C217 0.930 . S
H221 C209 0.929 . S
H222 C211 0.929 . S
O223 Co198 2.351 1_455 S
O223 C226 1.244 . S
O224 Co198 2.155 . S
O224 C226 1.240 1_655 S
O225 Co198 2.096 . S
O225 C206 1.247 . S
C226 O223 1.244 . S
C226 O224 1.240 1_455 S
H227 C201 0.931 . S
H228 C210 0.931 . S
H229 C214 0.929 . S
H230 C216 0.930 . S
Co231 N235 2.148 . S
Co231 N241 2.128 1_545 S
Co231 N251 2.194 . S
Co231 O256 2.351 1_545 S
Co231 O257 2.155 . S
Co231 O258 2.096 . S
C232 N235 1.301 . S
C232 N236 1.328 . S
C232 H237 0.930 . S
C233 C234 1.333 . S
C233 N235 1.317 . S
C233 H238 0.930 . S
C234 C233 1.333 . S
C234 N236 1.350 . S
C234 H260 0.931 . S
N235 Co231 2.148 . S
N235 C232 1.301 . S
N235 C233 1.317 . S
N236 C232 1.328 . S
N236 C234 1.350 . S
H237 C232 0.930 . S
H238 C233 0.930 . S
C239 O240 1.224 . S
C239 O258 1.247 . S
O240 C239 1.224 . S
N241 Co231 2.128 1_565 S
N241 C242 1.355 . S
N241 C244 1.311 . S
C242 N241 1.355 . S
C242 C243 1.363 . S
C242 H254 0.929 . S
C243 C242 1.363 . S
C243 N245 1.375 . S
C243 H261 0.931 . S
C244 N241 1.311 . S
C244 N245 1.347 . S
C244 H255 0.929 . S
N245 C243 1.375 . S
N245 C244 1.347 . S
C246 C249 1.365 . S
C246 N251 1.328 1_565 S
C246 H252 0.929 . S
C247 C248 1.362 1_545 S
C247 C250 1.378 . S
C247 H262 0.929 . S
C248 C247 1.362 1_565 S
C248 C249 1.366 . S
C249 C246 1.365 . S
C249 C248 1.366 . S
C249 H263 0.930 . S
C250 C247 1.378 . S
C250 N251 1.315 . S
C250 H253 0.930 . S
N251 Co231 2.194 . S
N251 C246 1.328 1_545 S
N251 C250 1.315 . S
H252 C246 0.929 . S
H253 C250 0.930 . S
H254 C242 0.929 . S
H255 C244 0.929 . S
O256 Co231 2.351 1_565 S
O256 C259 1.244 . S
O257 Co231 2.155 . S
O257 C259 1.240 1_545 S
O258 Co231 2.096 . S
O258 C239 1.247 . S
C259 O256 1.244 . S
C259 O257 1.240 1_565 S
H260 C234 0.931 . S
H261 C243 0.931 . S
H262 C247 0.929 . S
H263 C249 0.930 . S
Co264 N268 2.148 . S
Co264 N274 2.128 . S
Co264 N284 2.194 . S
Co264 O289 2.351 . S
Co264 O290 2.155 . S
Co264 O291 2.096 . S
C265 N268 1.301 . S
C265 N269 1.328 . S
C265 H270 0.930 . S
C266 C267 1.333 . S
C266 N268 1.317 . S
C266 H271 0.930 . S
C267 C266 1.333 . S
C267 N269 1.350 . S
C267 H293 0.931 . S
N268 Co264 2.148 . S
N268 C265 1.301 . S
N268 C266 1.317 . S
N269 C265 1.328 . S
N269 C267 1.350 . S
H270 C265 0.930 . S
H271 C266 0.930 . S
C272 O273 1.224 . S
C272 O291 1.247 . S
O273 C272 1.224 . S
N274 Co264 2.128 . S
N274 C275 1.355 . S
N274 C277 1.311 . S
C275 N274 1.355 . S
C275 C276 1.363 . S
C275 H287 0.929 . S
C276 C275 1.363 . S
C276 N278 1.375 . S
C276 H294 0.931 . S
C277 N274 1.311 . S
C277 N278 1.347 . S
C277 H288 0.929 . S
N278 C276 1.375 . S
N278 C277 1.347 . S
C279 C282 1.365 . S
C279 N284 1.328 . S
C279 H285 0.929 . S
C280 C281 1.362 . S
C280 C283 1.378 . S
C280 H295 0.929 . S
C281 C280 1.362 . S
C281 C282 1.366 . S
C282 C279 1.365 . S
C282 C281 1.366 . S
C282 H296 0.930 . S
C283 C280 1.378 . S
C283 N284 1.315 . S
C283 H286 0.930 . S
N284 Co264 2.194 . S
N284 C279 1.328 . S
N284 C283 1.315 . S
H285 C279 0.929 . S
H286 C283 0.930 . S
H287 C275 0.929 . S
H288 C277 0.929 . S
O289 Co264 2.351 . S
O289 C292 1.244 . S
O290 Co264 2.155 . S
O290 C292 1.240 . S
O291 Co264 2.096 . S
O291 C272 1.247 . S
C292 O289 1.244 . S
C292 O290 1.240 . S
H293 C267 0.931 . S
H294 C276 0.931 . S
H295 C280 0.929 . S
H296 C282 0.930 . S
Co297 N301 2.148 . S
Co297 N307 2.128 . S
Co297 N317 2.194 . S
Co297 O322 2.351 . S
Co297 O323 2.155 . S
Co297 O324 2.096 . S
C298 N301 1.301 . S
C298 N302 1.328 . S
C298 H303 0.930 . S
C299 C300 1.333 . S
C299 N301 1.317 . S
C299 H304 0.930 . S
C300 C299 1.333 . S
C300 N302 1.350 . S
C300 H326 0.931 . S
N301 Co297 2.148 . S
N301 C298 1.301 . S
N301 C299 1.317 . S
N302 C298 1.328 . S
N302 C300 1.350 . S
H303 C298 0.930 . S
H304 C299 0.930 . S
C305 O306 1.224 . S
C305 O324 1.247 . S
O306 C305 1.224 . S
N307 Co297 2.128 . S
N307 C308 1.355 . S
N307 C310 1.311 . S
C308 N307 1.355 . S
C308 C309 1.363 . S
C308 H320 0.929 . S
C309 C308 1.363 . S
C309 N311 1.375 . S
C309 H327 0.931 . S
C310 N307 1.311 . S
C310 N311 1.347 . S
C310 H321 0.929 . S
N311 C309 1.375 . S
N311 C310 1.347 . S
C312 C315 1.365 . S
C312 N317 1.328 . S
C312 H318 0.929 . S
C313 C314 1.362 . S
C313 C316 1.378 . S
C313 H328 0.929 . S
C314 C313 1.362 . S
C314 C315 1.366 . S
C315 C312 1.365 . S
C315 C314 1.366 . S
C315 H329 0.930 . S
C316 C313 1.378 . S
C316 N317 1.315 . S
C316 H319 0.930 . S
N317 Co297 2.194 . S
N317 C312 1.328 . S
N317 C316 1.315 . S
H318 C312 0.929 . S
H319 C316 0.930 . S
H320 C308 0.929 . S
H321 C310 0.929 . S
O322 Co297 2.351 . S
O322 C325 1.244 . S
O323 Co297 2.155 . S
O323 C325 1.240 . S
O324 Co297 2.096 . S
O324 C305 1.247 . S
C325 O322 1.244 . S
C325 O323 1.240 . S
H326 C300 0.931 . S
H327 C309 0.931 . S
H328 C313 0.929 . S
H329 C315 0.930 . S
Co330 N334 2.148 . S
Co330 N340 2.128 . S
Co330 N350 2.194 . S
Co330 O355 2.351 . S
Co330 O356 2.155 . S
Co330 O357 2.096 . S
C331 N334 1.301 . S
C331 N335 1.328 . S
C331 H336 0.930 . S
C332 C333 1.333 . S
C332 N334 1.317 . S
C332 H337 0.930 . S
C333 C332 1.333 . S
C333 N335 1.350 . S
C333 H359 0.931 . S
N334 Co330 2.148 . S
N334 C331 1.301 . S
N334 C332 1.317 . S
N335 C331 1.328 . S
N335 C333 1.350 . S
H336 C331 0.930 . S
H337 C332 0.930 . S
C338 O339 1.224 . S
C338 O357 1.247 . S
O339 C338 1.224 . S
N340 Co330 2.128 . S
N340 C341 1.355 . S
N340 C343 1.311 . S
C341 N340 1.355 . S
C341 C342 1.363 . S
C341 H353 0.929 . S
C342 C341 1.363 . S
C342 N344 1.375 . S
C342 H360 0.931 . S
C343 N340 1.311 . S
C343 N344 1.347 . S
C343 H354 0.929 . S
N344 C342 1.375 . S
N344 C343 1.347 . S
C345 C348 1.365 . S
C345 N350 1.328 . S
C345 H351 0.929 . S
C346 C347 1.362 . S
C346 C349 1.378 . S
C346 H361 0.929 . S
C347 C346 1.362 . S
C347 C348 1.366 . S
C348 C345 1.365 . S
C348 C347 1.366 . S
C348 H362 0.930 . S
C349 C346 1.378 . S
C349 N350 1.315 . S
C349 H352 0.930 . S
N350 Co330 2.194 . S
N350 C345 1.328 . S
N350 C349 1.315 . S
H351 C345 0.929 . S
H352 C349 0.930 . S
H353 C341 0.929 . S
H354 C343 0.929 . S
O355 Co330 2.351 . S
O355 C358 1.244 . S
O356 Co330 2.155 . S
O356 C358 1.240 . S
O357 Co330 2.096 . S
O357 C338 1.247 . S
C358 O355 1.244 . S
C358 O356 1.240 . S
H359 C333 0.931 . S
H360 C342 0.931 . S
H361 C346 0.929 . S
H362 C348 0.930 . S
Co363 N367 2.148 . S
Co363 N373 2.128 . S
Co363 N383 2.194 . S
Co363 O388 2.351 . S
Co363 O389 2.155 . S
Co363 O390 2.096 . S
C364 N367 1.301 . S
C364 N368 1.328 . S
C364 H369 0.930 . S
C365 C366 1.333 . S
C365 N367 1.317 . S
C365 H370 0.930 . S
C366 C365 1.333 . S
C366 N368 1.350 . S
C366 H392 0.931 . S
N367 Co363 2.148 . S
N367 C364 1.301 . S
N367 C365 1.317 . S
N368 C364 1.328 . S
N368 C366 1.350 . S
H369 C364 0.930 . S
H370 C365 0.930 . S
C371 O372 1.224 . S
C371 O390 1.247 . S
O372 C371 1.224 . S
N373 Co363 2.128 . S
N373 C374 1.355 . S
N373 C376 1.311 . S
C374 N373 1.355 . S
C374 C375 1.363 . S
C374 H386 0.929 . S
C375 C374 1.363 . S
C375 N377 1.375 . S
C375 H393 0.931 . S
C376 N373 1.311 . S
C376 N377 1.347 . S
C376 H387 0.929 . S
N377 C375 1.375 . S
N377 C376 1.347 . S
C378 C381 1.365 . S
C378 N383 1.328 . S
C378 H384 0.929 . S
C379 C380 1.362 . S
C379 C382 1.378 . S
C379 H394 0.929 . S
C380 C379 1.362 . S
C380 C381 1.366 . S
C381 C378 1.365 . S
C381 C380 1.366 . S
C381 H395 0.930 . S
C382 C379 1.378 . S
C382 N383 1.315 . S
C382 H385 0.930 . S
N383 Co363 2.194 . S
N383 C378 1.328 . S
N383 C382 1.315 . S
H384 C378 0.929 . S
H385 C382 0.930 . S
H386 C374 0.929 . S
H387 C376 0.929 . S
O388 Co363 2.351 . S
O388 C391 1.244 . S
O389 Co363 2.155 . S
O389 C391 1.240 . S
O390 Co363 2.096 . S
O390 C371 1.247 . S
C391 O388 1.244 . S
C391 O389 1.240 . S
H392 C366 0.931 . S
H393 C375 0.931 . S
H394 C379 0.929 . S
H395 C381 0.930 . S
Co396 N400 2.148 . S
Co396 N406 2.128 . S
Co396 N416 2.194 . S
Co396 O421 2.351 . S
Co396 O422 2.155 . S
Co396 O423 2.096 . S
C397 N400 1.301 . S
C397 N401 1.328 . S
C397 H402 0.930 . S
C398 C399 1.333 . S
C398 N400 1.317 . S
C398 H403 0.930 . S
C399 C398 1.333 . S
C399 N401 1.350 . S
C399 H425 0.931 . S
N400 Co396 2.148 . S
N400 C397 1.301 . S
N400 C398 1.317 . S
N401 C397 1.328 . S
N401 C399 1.350 . S
H402 C397 0.930 . S
H403 C398 0.930 . S
C404 O405 1.224 . S
C404 O423 1.247 . S
O405 C404 1.224 . S
N406 Co396 2.128 . S
N406 C407 1.355 . S
N406 C409 1.311 . S
C407 N406 1.355 . S
C407 C408 1.363 . S
C407 H419 0.929 . S
C408 C407 1.363 . S
C408 N410 1.375 . S
C408 H426 0.931 . S
C409 N406 1.311 . S
C409 N410 1.347 . S
C409 H420 0.929 . S
N410 C408 1.375 . S
N410 C409 1.347 . S
C411 C414 1.365 . S
C411 N416 1.328 . S
C411 H417 0.929 . S
C412 C413 1.362 . S
C412 C415 1.378 . S
C412 H427 0.929 . S
C413 C412 1.362 . S
C413 C414 1.366 . S
C414 C411 1.365 . S
C414 C413 1.366 . S
C414 H428 0.930 . S
C415 C412 1.378 . S
C415 N416 1.315 . S
C415 H418 0.930 . S
N416 Co396 2.194 . S
N416 C411 1.328 . S
N416 C415 1.315 . S
H417 C411 0.929 . S
H418 C415 0.930 . S
H419 C407 0.929 . S
H420 C409 0.929 . S
O421 Co396 2.351 . S
O421 C424 1.244 . S
O422 Co396 2.155 . S
O422 C424 1.240 . S
O423 Co396 2.096 . S
O423 C404 1.247 . S
C424 O421 1.244 . S
C424 O422 1.240 . S
H425 C399 0.931 . S
H426 C408 0.931 . S
H427 C412 0.929 . S
H428 C414 0.930 . S
Co429 N433 2.148 . S
Co429 N439 2.128 . S
Co429 N449 2.194 . S
Co429 O454 2.351 . S
Co429 O455 2.155 . S
Co429 O456 2.096 . S
C430 N433 1.301 . S
C430 N434 1.328 . S
C430 H435 0.930 . S
C431 C432 1.333 . S
C431 N433 1.317 . S
C431 H436 0.930 . S
C432 C431 1.333 . S
C432 N434 1.350 . S
C432 H458 0.931 . S
N433 Co429 2.148 . S
N433 C430 1.301 . S
N433 C431 1.317 . S
N434 C430 1.328 . S
N434 C432 1.350 . S
H435 C430 0.930 . S
H436 C431 0.930 . S
C437 O438 1.224 . S
C437 O456 1.247 . S
O438 C437 1.224 . S
N439 Co429 2.128 . S
N439 C440 1.355 . S
N439 C442 1.311 . S
C440 N439 1.355 . S
C440 C441 1.363 . S
C440 H452 0.929 . S
C441 C440 1.363 . S
C441 N443 1.375 . S
C441 H459 0.931 . S
C442 N439 1.311 . S
C442 N443 1.347 . S
C442 H453 0.929 . S
N443 C441 1.375 . S
N443 C442 1.347 . S
C444 C447 1.365 . S
C444 N449 1.328 . S
C444 H450 0.929 . S
C445 C446 1.362 . S
C445 C448 1.378 . S
C445 H460 0.929 . S
C446 C445 1.362 . S
C446 C447 1.366 . S
C447 C444 1.365 . S
C447 C446 1.366 . S
C447 H461 0.930 . S
C448 C445 1.378 . S
C448 N449 1.315 . S
C448 H451 0.930 . S
N449 Co429 2.194 . S
N449 C444 1.328 . S
N449 C448 1.315 . S
H450 C444 0.929 . S
H451 C448 0.930 . S
H452 C440 0.929 . S
H453 C442 0.929 . S
O454 Co429 2.351 . S
O454 C457 1.244 . S
O455 Co429 2.155 . S
O455 C457 1.240 . S
O456 Co429 2.096 . S
O456 C437 1.247 . S
C457 O454 1.244 . S
C457 O455 1.240 . S
H458 C432 0.931 . S
H459 C441 0.931 . S
H460 C445 0.929 . S
H461 C447 0.930 . S
Co462 N466 2.148 . S
Co462 N472 2.128 . S
Co462 N482 2.194 . S
Co462 O487 2.351 . S
Co462 O488 2.155 . S
Co462 O489 2.096 . S
C463 N466 1.301 . S
C463 N467 1.328 . S
C463 H468 0.930 . S
C464 C465 1.333 . S
C464 N466 1.317 . S
C464 H469 0.930 . S
C465 C464 1.333 . S
C465 N467 1.350 . S
C465 H491 0.931 . S
N466 Co462 2.148 . S
N466 C463 1.301 . S
N466 C464 1.317 . S
N467 C463 1.328 . S
N467 C465 1.350 . S
H468 C463 0.930 . S
H469 C464 0.930 . S
C470 O471 1.224 . S
C470 O489 1.247 . S
O471 C470 1.224 . S
N472 Co462 2.128 . S
N472 C473 1.355 . S
N472 C475 1.311 . S
C473 N472 1.355 . S
C473 C474 1.363 . S
C473 H485 0.929 . S
C474 C473 1.363 . S
C474 N476 1.375 . S
C474 H492 0.931 . S
C475 N472 1.311 . S
C475 N476 1.347 . S
C475 H486 0.929 . S
N476 C474 1.375 . S
N476 C475 1.347 . S
C477 C480 1.365 . S
C477 N482 1.328 . S
C477 H483 0.929 . S
C478 C479 1.362 . S
C478 C481 1.378 . S
C478 H493 0.929 . S
C479 C478 1.362 . S
C479 C480 1.366 . S
C480 C477 1.365 . S
C480 C479 1.366 . S
C480 H494 0.930 . S
C481 C478 1.378 . S
C481 N482 1.315 . S
C481 H484 0.930 . S
N482 Co462 2.194 . S
N482 C477 1.328 . S
N482 C481 1.315 . S
H483 C477 0.929 . S
H484 C481 0.930 . S
H485 C473 0.929 . S
H486 C475 0.929 . S
O487 Co462 2.351 . S
O487 C490 1.244 . S
O488 Co462 2.155 . S
O488 C490 1.240 . S
O489 Co462 2.096 . S
O489 C470 1.247 . S
C490 O487 1.244 . S
C490 O488 1.240 . S
H491 C465 0.931 . S
H492 C474 0.931 . S
H493 C478 0.929 . S
H494 C480 0.930 . S
Co495 N499 2.148 . S
Co495 N505 2.128 . S
Co495 N515 2.194 . S
Co495 O520 2.351 . S
Co495 O521 2.155 . S
Co495 O522 2.096 . S
C496 N499 1.301 . S
C496 N500 1.328 . S
C496 H501 0.930 . S
C497 C498 1.333 . S
C497 N499 1.317 . S
C497 H502 0.930 . S
C498 C497 1.333 . S
C498 N500 1.350 . S
C498 H524 0.931 . S
N499 Co495 2.148 . S
N499 C496 1.301 . S
N499 C497 1.317 . S
N500 C496 1.328 . S
N500 C498 1.350 . S
H501 C496 0.930 . S
H502 C497 0.930 . S
C503 O504 1.224 . S
C503 O522 1.247 . S
O504 C503 1.224 . S
N505 Co495 2.128 . S
N505 C506 1.355 . S
N505 C508 1.311 . S
C506 N505 1.355 . S
C506 C507 1.363 . S
C506 H518 0.929 . S
C507 C506 1.363 . S
C507 N509 1.375 . S
C507 H525 0.931 . S
C508 N505 1.311 . S
C508 N509 1.347 . S
C508 H519 0.929 . S
N509 C507 1.375 . S
N509 C508 1.347 . S
C510 C513 1.365 . S
C510 N515 1.328 . S
C510 H516 0.929 . S
C511 C512 1.362 . S
C511 C514 1.378 . S
C511 H526 0.929 . S
C512 C511 1.362 . S
C512 C513 1.366 . S
C513 C510 1.365 . S
C513 C512 1.366 . S
C513 H527 0.930 . S
C514 C511 1.378 . S
C514 N515 1.315 . S
C514 H517 0.930 . S
N515 Co495 2.194 . S
N515 C510 1.328 . S
N515 C514 1.315 . S
H516 C510 0.929 . S
H517 C514 0.930 . S
H518 C506 0.929 . S
H519 C508 0.929 . S
O520 Co495 2.351 . S
O520 C523 1.244 . S
O521 Co495 2.155 . S
O521 C523 1.240 . S
O522 Co495 2.096 . S
O522 C503 1.247 . S
C523 O520 1.244 . S
C523 O521 1.240 . S
H524 C498 0.931 . S
H525 C507 0.931 . S
H526 C511 0.929 . S
H527 C513 0.930 . S
H528 C534 0.930 . S
H529 C538 0.930 . S
H530 C543 0.929 . S
H531 C541 0.929 . S
H532 C536 0.929 . S
H533 C542 0.929 . S
C534 H528 0.930 . S
C534 C535 1.367 . S
C534 C542 1.378 . S
C535 C534 1.367 . S
C535 C543 1.433 . S
C536 H532 0.929 . S
C536 C538 1.378 . S
C536 C540 1.350 . S
C537 C540 1.463 . S
C537 C542 1.350 . S
C537 N545 1.427 . S
C538 H529 0.930 . S
C538 C536 1.378 . S
C538 C539 1.367 . S
C539 C538 1.367 . S
C539 C541 1.433 . S
C540 C536 1.350 . S
C540 C537 1.463 . S
C540 N544 1.427 . S
C541 H531 0.929 . S
C541 C539 1.433 . S
C541 N544 1.384 . S
C542 H533 0.929 . S
C542 C534 1.378 . S
C542 C537 1.350 . S
C543 H530 0.929 . S
C543 C535 1.433 . S
C543 N545 1.384 . S
N544 C540 1.427 . S
N544 C541 1.384 . S
N545 C537 1.427 . S
N545 C543 1.384 . S
H546 C552 0.930 . S
H547 C556 0.930 . S
H548 C561 0.929 . S
H549 C559 0.929 . S
H550 C554 0.929 . S
H551 C560 0.929 . S
C552 H546 0.930 . S
C552 C553 1.367 . S
C552 C560 1.378 . S
C553 C552 1.367 . S
C553 C561 1.433 . S
C554 H550 0.929 . S
C554 C556 1.378 . S
C554 C558 1.350 . S
C555 C558 1.463 . S
C555 C560 1.350 . S
C555 N563 1.427 . S
C556 H547 0.930 . S
C556 C554 1.378 . S
C556 C557 1.367 . S
C557 C556 1.367 . S
C557 C559 1.433 . S
C558 C554 1.350 . S
C558 C555 1.463 . S
C558 N562 1.427 . S
C559 H549 0.929 . S
C559 C557 1.433 . S
C559 N562 1.384 . S
C560 H551 0.929 . S
C560 C552 1.378 . S
C560 C555 1.350 . S
C561 H548 0.929 . S
C561 C553 1.433 . S
C561 N563 1.384 . S
N562 C558 1.427 . S
N562 C559 1.384 . S
N563 C555 1.427 . S
N563 C561 1.384 . S
H564 C570 0.930 . S
H565 C574 0.930 . S
H566 C579 0.929 . S
H567 C577 0.929 . S
H568 C572 0.929 . S
H569 C578 0.929 . S
C570 H564 0.930 . S
C570 C571 1.367 . S
C570 C578 1.378 . S
C571 C570 1.367 . S
C571 C579 1.433 . S
C572 H568 0.929 . S
C572 C574 1.378 . S
C572 C576 1.350 . S
C573 C576 1.463 . S
C573 C578 1.350 . S
C573 N581 1.427 . S
C574 H565 0.930 . S
C574 C572 1.378 . S
C574 C575 1.367 . S
C575 C574 1.367 . S
C575 C577 1.433 . S
C576 C572 1.350 . S
C576 C573 1.463 . S
C576 N580 1.427 . S
C577 H567 0.929 . S
C577 C575 1.433 . S
C577 N580 1.384 . S
C578 H569 0.929 . S
C578 C570 1.378 . S
C578 C573 1.350 . S
C579 H566 0.929 . S
C579 C571 1.433 . S
C579 N581 1.384 . S
N580 C576 1.427 . S
N580 C577 1.384 . S
N581 C573 1.427 . S
N581 C579 1.384 . S
H582 C588 0.930 . S
H583 C592 0.930 . S
H584 C597 0.929 . S
H585 C595 0.929 . S
H586 C590 0.929 . S
H587 C596 0.929 . S
C588 H582 0.930 . S
C588 C589 1.367 . S
C588 C596 1.378 . S
C589 C588 1.367 . S
C589 C597 1.433 . S
C590 H586 0.929 . S
C590 C592 1.378 . S
C590 C594 1.350 . S
C591 C594 1.463 . S
C591 C596 1.350 . S
C591 N599 1.427 . S
C592 H583 0.930 . S
C592 C590 1.378 . S
C592 C593 1.367 . S
C593 C592 1.367 . S
C593 C595 1.433 . S
C594 C590 1.350 . S
C594 C591 1.463 . S
C594 N598 1.427 . S
C595 H585 0.929 . S
C595 C593 1.433 . S
C595 N598 1.384 . S
C596 H587 0.929 . S
C596 C588 1.378 . S
C596 C591 1.350 . S
C597 H584 0.929 . S
C597 C589 1.433 . S
C597 N599 1.384 . S
N598 C594 1.427 . S
N598 C595 1.384 . S
N599 C591 1.427 . S
N599 C597 1.384 . S
H600 C606 0.930 . S
H601 C610 0.930 . S
H602 C615 0.929 . S
H603 C613 0.929 . S
H604 C608 0.929 . S
H605 C614 0.929 . S
C606 H600 0.930 . S
C606 C607 1.367 . S
C606 C614 1.378 . S
C607 C606 1.367 . S
C607 C615 1.433 . S
C608 H604 0.929 . S
C608 C610 1.378 . S
C608 C612 1.350 . S
C609 C612 1.463 1_554 S
C609 C614 1.350 . S
C609 N617 1.427 . S
C610 H601 0.930 . S
C610 C608 1.378 . S
C610 C611 1.367 . S
C611 C610 1.367 . S
C611 C613 1.433 . S
C612 C608 1.350 . S
C612 C609 1.463 1_556 S
C612 N616 1.427 . S
C613 H603 0.929 . S
C613 C611 1.433 . S
C613 N616 1.384 . S
C614 H605 0.929 . S
C614 C606 1.378 . S
C614 C609 1.350 . S
C615 H602 0.929 . S
C615 C607 1.433 . S
C615 N617 1.384 . S
N616 C612 1.427 . S
N616 C613 1.384 . S
N617 C609 1.427 . S
N617 C615 1.384 . S
H618 C624 0.930 . S
H619 C628 0.930 . S
H620 C633 0.929 . S
H621 C631 0.929 . S
H622 C626 0.929 . S
H623 C632 0.929 . S
C624 H618 0.930 . S
C624 C625 1.367 . S
C624 C632 1.378 . S
C625 C624 1.367 . S
C625 C633 1.433 . S
C626 H622 0.929 . S
C626 C628 1.378 . S
C626 C630 1.350 . S
C627 C630 1.463 1_556 S
C627 C632 1.350 . S
C627 N635 1.427 . S
C628 H619 0.930 . S
C628 C626 1.378 . S
C628 C629 1.367 . S
C629 C628 1.367 . S
C629 C631 1.433 . S
C630 C626 1.350 . S
C630 C627 1.463 1_554 S
C630 N634 1.427 . S
C631 H621 0.929 . S
C631 C629 1.433 . S
C631 N634 1.384 . S
C632 H623 0.929 . S
C632 C624 1.378 . S
C632 C627 1.350 . S
C633 H620 0.929 . S
C633 C625 1.433 . S
C633 N635 1.384 . S
N634 C630 1.427 . S
N634 C631 1.384 . S
N635 C627 1.427 . S
N635 C633 1.384 . S
H636 C642 0.930 . S
H637 C646 0.930 . S
H638 C651 0.929 . S
H639 C649 0.929 . S
H640 C644 0.929 1_556 S
H641 C650 0.929 . S
C642 H636 0.930 . S
C642 C643 1.367 . S
C642 C650 1.378 . S
C643 C642 1.367 . S
C643 C651 1.433 . S
C644 H640 0.929 1_554 S
C644 C646 1.378 . S
C644 C648 1.350 . S
C645 C648 1.463 1_556 S
C645 C650 1.350 . S
C645 N653 1.427 . S
C646 H637 0.930 . S
C646 C644 1.378 . S
C646 C647 1.367 . S
C647 C646 1.367 . S
C647 C649 1.433 . S
C648 C644 1.350 . S
C648 C645 1.463 1_554 S
C648 N652 1.427 . S
C649 H639 0.929 . S
C649 C647 1.433 . S
C649 N652 1.384 . S
C650 H641 0.929 . S
C650 C642 1.378 . S
C650 C645 1.350 . S
C651 H638 0.929 . S
C651 C643 1.433 . S
C651 N653 1.384 . S
N652 C648 1.427 . S
N652 C649 1.384 . S
N653 C645 1.427 . S
N653 C651 1.384 . S
H654 C660 0.930 . S
H655 C664 0.930 . S
H656 C669 0.929 . S
H657 C667 0.929 . S
H658 C662 0.929 1_554 S
H659 C668 0.929 . S
C660 H654 0.930 . S
C660 C661 1.367 . S
C660 C668 1.378 . S
C661 C660 1.367 . S
C661 C669 1.433 . S
C662 H658 0.929 1_556 S
C662 C664 1.378 . S
C662 C666 1.350 . S
C663 C666 1.463 1_554 S
C663 C668 1.350 . S
C663 N671 1.427 . S
C664 H655 0.930 . S
C664 C662 1.378 . S
C664 C665 1.367 . S
C665 C664 1.367 . S
C665 C667 1.433 . S
C666 C662 1.350 . S
C666 C663 1.463 1_556 S
C666 N670 1.427 . S
C667 H657 0.929 . S
C667 C665 1.433 . S
C667 N670 1.384 . S
C668 H659 0.929 . S
C668 C660 1.378 . S
C668 C663 1.350 . S
C669 H656 0.929 . S
C669 C661 1.433 . S
C669 N671 1.384 . S
N670 C666 1.427 . S
N670 C667 1.384 . S
N671 C663 1.427 . S
N671 C669 1.384 . S
H672 C678 0.930 . S
H673 C682 0.930 . S
H674 C687 0.929 . S
H675 C685 0.929 . S
H676 C680 0.929 . S
H677 C686 0.929 . S
C678 H672 0.930 . S
C678 C679 1.367 . S
C678 C686 1.378 . S
C679 C678 1.367 . S
C679 C687 1.433 . S
C680 H676 0.929 . S
C680 C682 1.378 . S
C680 C684 1.350 . S
C681 C684 1.463 . S
C681 C686 1.350 . S
C681 N689 1.427 . S
C682 H673 0.930 . S
C682 C680 1.378 . S
C682 C683 1.367 . S
C683 C682 1.367 . S
C683 C685 1.433 . S
C684 C680 1.350 . S
C684 C681 1.463 . S
C684 N688 1.427 . S
C685 H675 0.929 . S
C685 C683 1.433 . S
C685 N688 1.384 . S
C686 H677 0.929 . S
C686 C678 1.378 . S
C686 C681 1.350 . S
C687 H674 0.929 . S
C687 C679 1.433 . S
C687 N689 1.384 . S
N688 C684 1.427 . S
N688 C685 1.384 . S
N689 C681 1.427 . S
N689 C687 1.384 . S
H690 C696 0.930 . S
H691 C700 0.930 . S
H692 C705 0.929 . S
H693 C703 0.929 . S
H694 C698 0.929 . S
H695 C704 0.929 . S
C696 H690 0.930 . S
C696 C697 1.367 . S
C696 C704 1.378 . S
C697 C696 1.367 . S
C697 C705 1.433 . S
C698 H694 0.929 . S
C698 C700 1.378 . S
C698 C702 1.350 . S
C699 C702 1.463 . S
C699 C704 1.350 . S
C699 N707 1.427 . S
C700 H691 0.930 . S
C700 C698 1.378 . S
C700 C701 1.367 . S
C701 C700 1.367 . S
C701 C703 1.433 . S
C702 C698 1.350 . S
C702 C699 1.463 . S
C702 N706 1.427 . S
C703 H693 0.929 . S
C703 C701 1.433 . S
C703 N706 1.384 . S
C704 H695 0.929 . S
C704 C696 1.378 . S
C704 C699 1.350 . S
C705 H692 0.929 . S
C705 C697 1.433 . S
C705 N707 1.384 . S
N706 C702 1.427 . S
N706 C703 1.384 . S
N707 C699 1.427 . S
N707 C705 1.384 . S
H708 C714 0.930 . S
H709 C718 0.930 . S
H710 C723 0.929 . S
H711 C721 0.929 . S
H712 C716 0.929 . S
H713 C722 0.929 . S
C714 H708 0.930 . S
C714 C715 1.367 . S
C714 C722 1.378 . S
C715 C714 1.367 . S
C715 C723 1.433 . S
C716 H712 0.929 . S
C716 C718 1.378 . S
C716 C720 1.350 . S
C717 C720 1.463 . S
C717 C722 1.350 . S
C717 N725 1.427 . S
C718 H709 0.930 . S
C718 C716 1.378 . S
C718 C719 1.367 . S
C719 C718 1.367 . S
C719 C721 1.433 . S
C720 C716 1.350 . S
C720 C717 1.463 . S
C720 N724 1.427 . S
C721 H711 0.929 . S
C721 C719 1.433 . S
C721 N724 1.384 . S
C722 H713 0.929 . S
C722 C714 1.378 . S
C722 C717 1.350 . S
C723 H710 0.929 . S
C723 C715 1.433 . S
C723 N725 1.384 . S
N724 C720 1.427 . S
N724 C721 1.384 . S
N725 C717 1.427 . S
N725 C723 1.384 . S
H726 C732 0.930 . S
H727 C736 0.930 . S
H728 C741 0.929 . S
H729 C739 0.929 . S
H730 C734 0.929 . S
H731 C740 0.929 . S
C732 H726 0.930 . S
C732 C733 1.367 . S
C732 C740 1.378 . S
C733 C732 1.367 . S
C733 C741 1.433 . S
C734 H730 0.929 . S
C734 C736 1.378 . S
C734 C738 1.350 . S
C735 C738 1.463 . S
C735 C740 1.350 . S
C735 N743 1.427 . S
C736 H727 0.930 . S
C736 C734 1.378 . S
C736 C737 1.367 . S
C737 C736 1.367 . S
C737 C739 1.433 . S
C738 C734 1.350 . S
C738 C735 1.463 . S
C738 N742 1.427 . S
C739 H729 0.929 . S
C739 C737 1.433 . S
C739 N742 1.384 . S
C740 H731 0.929 . S
C740 C732 1.378 . S
C740 C735 1.350 . S
C741 H728 0.929 . S
C741 C733 1.433 . S
C741 N743 1.384 . S
N742 C738 1.427 . S
N742 C739 1.384 . S
N743 C735 1.427 . S
N743 C741 1.384 . S
H744 C750 0.930 . S
H745 C754 0.930 . S
H746 C759 0.929 . S
H747 C757 0.929 . S
H748 C752 0.929 . S
H749 C758 0.929 . S
C750 H744 0.930 . S
C750 C751 1.367 . S
C750 C758 1.378 . S
C751 C750 1.367 . S
C751 C759 1.433 . S
C752 H748 0.929 . S
C752 C754 1.378 . S
C752 C756 1.350 . S
C753 C756 1.463 . S
C753 C758 1.350 . S
C753 N761 1.427 . S
C754 H745 0.930 . S
C754 C752 1.378 . S
C754 C755 1.367 . S
C755 C754 1.367 . S
C755 C757 1.433 . S
C756 C752 1.350 . S
C756 C753 1.463 . S
C756 N760 1.427 . S
C757 H747 0.929 . S
C757 C755 1.433 . S
C757 N760 1.384 . S
C758 H749 0.929 . S
C758 C750 1.378 . S
C758 C753 1.350 . S
C759 H746 0.929 . S
C759 C751 1.433 . S
C759 N761 1.384 . S
N760 C756 1.427 . S
N760 C757 1.384 . S
N761 C753 1.427 . S
N761 C759 1.384 . S
H762 C768 0.930 . S
H763 C772 0.930 . S
H764 C777 0.929 . S
H765 C775 0.929 . S
H766 C770 0.929 . S
H767 C776 0.929 . S
C768 H762 0.930 . S
C768 C769 1.367 . S
C768 C776 1.378 . S
C769 C768 1.367 . S
C769 C777 1.433 . S
C770 H766 0.929 . S
C770 C772 1.378 . S
C770 C774 1.350 . S
C771 C774 1.463 . S
C771 C776 1.350 . S
C771 N779 1.427 . S
C772 H763 0.930 . S
C772 C770 1.378 . S
C772 C773 1.367 . S
C773 C772 1.367 . S
C773 C775 1.433 . S
C774 C770 1.350 . S
C774 C771 1.463 . S
C774 N778 1.427 . S
C775 H765 0.929 . S
C775 C773 1.433 . S
C775 N778 1.384 . S
C776 H767 0.929 . S
C776 C768 1.378 . S
C776 C771 1.350 . S
C777 H764 0.929 . S
C777 C769 1.433 . S
C777 N779 1.384 . S
N778 C774 1.427 . S
N778 C775 1.384 . S
N779 C771 1.427 . S
N779 C777 1.384 . S
H780 C786 0.930 . S
H781 C790 0.930 . S
H782 C795 0.929 . S
H783 C793 0.929 . S
H784 C788 0.929 . S
H785 C794 0.929 . S
C786 H780 0.930 . S
C786 C787 1.367 . S
C786 C794 1.378 . S
C787 C786 1.367 . S
C787 C795 1.433 . S
C788 H784 0.929 . S
C788 C790 1.378 . S
C788 C792 1.350 . S
C789 C792 1.463 . S
C789 C794 1.350 . S
C789 N797 1.427 . S
C790 H781 0.930 . S
C790 C788 1.378 . S
C790 C791 1.367 . S
C791 C790 1.367 . S
C791 C793 1.433 . S
C792 C788 1.350 . S
C792 C789 1.463 . S
C792 N796 1.427 . S
C793 H783 0.929 . S
C793 C791 1.433 . S
C793 N796 1.384 . S
C794 H785 0.929 . S
C794 C786 1.378 . S
C794 C789 1.350 . S
C795 H782 0.929 . S
C795 C787 1.433 . S
C795 N797 1.384 . S
N796 C792 1.427 . S
N796 C793 1.384 . S
N797 C789 1.427 . S
N797 C795 1.384 . S
H798 C804 0.930 . S
H799 C808 0.930 . S
H800 C813 0.929 . S
H801 C811 0.929 . S
H802 C806 0.929 . S
H803 C812 0.929 . S
C804 H798 0.930 . S
C804 C805 1.367 . S
C804 C812 1.378 . S
C805 C804 1.367 . S
C805 C813 1.433 . S
C806 H802 0.929 . S
C806 C808 1.378 . S
C806 C810 1.350 . S
C807 C810 1.463 . S
C807 C812 1.350 . S
C807 N815 1.427 . S
C808 H799 0.930 . S
C808 C806 1.378 . S
C808 C809 1.367 . S
C809 C808 1.367 . S
C809 C811 1.433 . S
C810 C806 1.350 . S
C810 C807 1.463 . S
C810 N814 1.427 . S
C811 H801 0.929 . S
C811 C809 1.433 . S
C811 N814 1.384 . S
C812 H803 0.929 . S
C812 C804 1.378 . S
C812 C807 1.350 . S
C813 H800 0.929 . S
C813 C805 1.433 . S
C813 N815 1.384 . S
N814 C810 1.427 . S
N814 C811 1.384 . S
N815 C807 1.427 . S
N815 C813 1.384 . S
H816 C822 0.930 . S
H817 C826 0.930 . S
H818 C831 0.929 . S
H819 C829 0.929 . S
H820 C824 0.929 . S
H821 C830 0.929 . S
C822 H816 0.930 . S
C822 C823 1.367 1_455 S
C822 C830 1.378 . S
C823 C822 1.367 1_655 S
C823 C831 1.433 . S
C824 H820 0.929 . S
C824 C826 1.378 . S
C824 C828 1.350 1_655 S
C825 C828 1.463 1_645 S
C825 C830 1.350 1_655 S
C825 N833 1.427 . S
C826 H817 0.930 . S
C826 C824 1.378 . S
C826 C827 1.367 1_655 S
C827 C826 1.367 1_455 S
C827 C829 1.433 . S
C828 C824 1.350 1_455 S
C828 C825 1.463 1_465 S
C828 N832 1.427 . S
C829 H819 0.929 . S
C829 C827 1.433 . S
C829 N832 1.384 . S
C830 H821 0.929 . S
C830 C822 1.378 . S
C830 C825 1.350 1_455 S
C831 H818 0.929 . S
C831 C823 1.433 . S
C831 N833 1.384 . S
N832 C828 1.427 . S
N832 C829 1.384 . S
N833 C825 1.427 . S
N833 C831 1.384 . S
H834 C840 0.930 . S
H835 C844 0.930 . S
H836 C849 0.929 1_565 S
H837 C847 0.929 1_545 S
H838 C842 0.929 . S
H839 C848 0.929 . S
C840 H834 0.930 . S
C840 C841 1.367 . S
C840 C848 1.378 . S
C841 C840 1.367 . S
C841 C849 1.434 . S
C842 H838 0.929 . S
C842 C844 1.378 . S
C842 C846 1.350 . S
C843 C846 1.463 1_445 S
C843 C848 1.350 . S
C843 N851 1.427 1_545 S
C844 H835 0.930 . S
C844 C842 1.378 . S
C844 C845 1.367 . S
C845 C844 1.367 . S
C845 C847 1.434 . S
C846 C842 1.350 . S
C846 C843 1.463 1_665 S
C846 N850 1.427 1_565 S
C847 H837 0.929 1_565 S
C847 C845 1.434 . S
C847 N850 1.383 1_565 S
C848 H839 0.929 . S
C848 C840 1.378 . S
C848 C843 1.350 . S
C849 H836 0.929 1_545 S
C849 C841 1.434 . S
C849 N851 1.383 1_545 S
N850 C846 1.427 1_545 S
N850 C847 1.383 1_545 S
N851 C843 1.427 1_565 S
N851 C849 1.383 1_565 S
H852 C858 0.930 . S
H853 C862 0.930 . S
H854 C867 0.929 . S
H855 C865 0.929 . S
H856 C860 0.929 . S
H857 C866 0.929 . S
C858 H852 0.930 . S
C858 C859 1.367 1_655 S
C858 C866 1.378 . S
C859 C858 1.367 1_455 S
C859 C867 1.433 . S
C860 H856 0.929 . S
C860 C862 1.378 . S
C860 C864 1.350 1_455 S
C861 C864 1.463 1_455 S
C861 C866 1.350 1_455 S
C861 N869 1.427 . S
C862 H853 0.930 . S
C862 C860 1.378 . S
C862 C863 1.367 1_455 S
C863 C862 1.367 1_655 S
C863 C865 1.433 . S
C864 C860 1.350 1_655 S
C864 C861 1.463 1_655 S
C864 N868 1.427 . S
C865 H855 0.929 . S
C865 C863 1.433 . S
C865 N868 1.384 . S
C866 H857 0.929 . S
C866 C858 1.378 . S
C866 C861 1.350 1_655 S
C867 H854 0.929 . S
C867 C859 1.433 . S
C867 N869 1.384 . S
N868 C864 1.427 . S
N868 C865 1.384 . S
N869 C861 1.427 . S
N869 C867 1.384 . S
H870 C876 0.930 . S
H871 C880 0.930 . S
H872 C885 0.929 . S
H873 C883 0.929 . S
H874 C878 0.929 1_565 S
H875 C884 0.929 1_545 S
C876 H870 0.930 . S
C876 C877 1.367 . S
C876 C884 1.378 . S
C877 C876 1.367 . S
C877 C885 1.433 . S
C878 H874 0.929 1_545 S
C878 C880 1.378 . S
C878 C882 1.350 . S
C879 C882 1.463 1_565 S
C879 C884 1.350 . S
C879 N887 1.427 . S
C880 H871 0.930 . S
C880 C878 1.378 . S
C880 C881 1.367 . S
C881 C880 1.367 . S
C881 C883 1.433 . S
C882 C878 1.350 . S
C882 C879 1.463 1_545 S
C882 N886 1.427 . S
C883 H873 0.929 . S
C883 C881 1.433 . S
C883 N886 1.384 . S
C884 H875 0.929 1_565 S
C884 C876 1.378 . S
C884 C879 1.350 . S
C885 H872 0.929 . S
C885 C877 1.433 . S
C885 N887 1.384 . S
N886 C882 1.427 . S
N886 C883 1.384 . S
N887 C879 1.427 . S
N887 C885 1.384 . S
H888 C894 0.930 . S
H889 C898 0.930 . S
H890 C903 0.929 . S
H891 C901 0.929 . S
H892 C896 0.929 . S
H893 C902 0.929 . S
C894 H888 0.930 . S
C894 C895 1.367 . S
C894 C902 1.378 . S
C895 C894 1.367 . S
C895 C903 1.433 . S
C896 H892 0.929 . S
C896 C898 1.378 . S
C896 C900 1.350 . S
C897 C900 1.463 . S
C897 C902 1.350 . S
C897 N905 1.427 . S
C898 H889 0.930 . S
C898 C896 1.378 . S
C898 C899 1.367 . S
C899 C898 1.367 . S
C899 C901 1.433 . S
C900 C896 1.350 . S
C900 C897 1.463 . S
C900 N904 1.427 . S
C901 H891 0.929 . S
C901 C899 1.433 . S
C901 N904 1.384 . S
C902 H893 0.929 . S
C902 C894 1.378 . S
C902 C897 1.350 . S
C903 H890 0.929 . S
C903 C895 1.433 . S
C903 N905 1.384 . S
N904 C900 1.427 . S
N904 C901 1.384 . S
N905 C897 1.427 . S
N905 C903 1.384 . S
H906 C912 0.930 . S
H907 C916 0.930 . S
H908 C921 0.929 . S
H909 C919 0.929 . S
H910 C914 0.929 . S
H911 C920 0.929 . S
C912 H906 0.930 . S
C912 C913 1.367 . S
C912 C920 1.378 . S
C913 C912 1.367 . S
C913 C921 1.433 . S
C914 H910 0.929 . S
C914 C916 1.378 . S
C914 C918 1.350 . S
C915 C918 1.463 . S
C915 C920 1.350 . S
C915 N923 1.427 . S
C916 H907 0.930 . S
C916 C914 1.378 . S
C916 C917 1.367 . S
C917 C916 1.367 . S
C917 C919 1.433 . S
C918 C914 1.350 . S
C918 C915 1.463 . S
C918 N922 1.427 . S
C919 H909 0.929 . S
C919 C917 1.433 . S
C919 N922 1.384 . S
C920 H911 0.929 . S
C920 C912 1.378 . S
C920 C915 1.350 . S
C921 H908 0.929 . S
C921 C913 1.433 . S
C921 N923 1.384 . S
N922 C918 1.427 . S
N922 C919 1.384 . S
N923 C915 1.427 . S
N923 C921 1.384 . S
H924 C930 0.930 . S
H925 C934 0.930 . S
H926 C939 0.929 . S
H927 C937 0.929 . S
H928 C932 0.929 . S
H929 C938 0.929 . S
C930 H924 0.930 . S
C930 C931 1.367 . S
C930 C938 1.378 . S
C931 C930 1.367 . S
C931 C939 1.433 . S
C932 H928 0.929 . S
C932 C934 1.378 . S
C932 C936 1.350 . S
C933 C936 1.463 1_565 S
C933 C938 1.350 . S
C933 N941 1.427 . S
C934 H925 0.930 . S
C934 C932 1.378 . S
C934 C935 1.367 . S
C935 C934 1.367 . S
C935 C937 1.433 . S
C936 C932 1.350 . S
C936 C933 1.463 1_545 S
C936 N940 1.427 . S
C937 H927 0.929 . S
C937 C935 1.433 . S
C937 N940 1.384 . S
C938 H929 0.929 . S
C938 C930 1.378 . S
C938 C933 1.350 . S
C939 H926 0.929 . S
C939 C931 1.433 . S
C939 N941 1.384 . S
N940 C936 1.427 . S
N940 C937 1.384 . S
N941 C933 1.427 . S
N941 C939 1.384 . S
H942 C948 0.930 . S
H943 C952 0.930 . S
H944 C957 0.929 . S
H945 C955 0.929 . S
H946 C950 0.929 . S
H947 C956 0.929 . S
C948 H942 0.930 . S
C948 C949 1.367 . S
C948 C956 1.378 . S
C949 C948 1.367 . S
C949 C957 1.433 . S
C950 H946 0.929 . S
C950 C952 1.378 . S
C950 C954 1.350 . S
C951 C954 1.463 1_455 S
C951 C956 1.350 . S
C951 N959 1.427 . S
C952 H943 0.930 . S
C952 C950 1.378 . S
C952 C953 1.367 . S
C953 C952 1.367 . S
C953 C955 1.433 . S
C954 C950 1.350 . S
C954 C951 1.463 1_655 S
C954 N958 1.427 . S
C955 H945 0.929 . S
C955 C953 1.433 . S
C955 N958 1.384 . S
C956 H947 0.929 . S
C956 C948 1.378 . S
C956 C951 1.350 . S
C957 H944 0.929 . S
C957 C949 1.433 . S
C957 N959 1.384 . S
N958 C954 1.427 . S
N958 C955 1.384 . S
N959 C951 1.427 . S
N959 C957 1.384 . S
H960 C966 0.930 . S
H961 C970 0.930 . S
H962 C975 0.929 . S
H963 C973 0.929 . S
H964 C968 0.929 . S
H965 C974 0.929 . S
C966 H960 0.930 . S
C966 C967 1.367 . S
C966 C974 1.378 . S
C967 C966 1.367 . S
C967 C975 1.433 . S
C968 H964 0.929 . S
C968 C970 1.378 . S
C968 C972 1.350 . S
C969 C972 1.463 1_455 S
C969 C974 1.350 . S
C969 N977 1.427 . S
C970 H961 0.930 . S
C970 C968 1.378 . S
C970 C971 1.367 . S
C971 C970 1.367 . S
C971 C973 1.433 . S
C972 C968 1.350 . S
C972 C969 1.463 1_655 S
C972 N976 1.427 . S
C973 H963 0.929 . S
C973 C971 1.433 . S
C973 N976 1.384 . S
C974 H965 0.929 . S
C974 C966 1.378 . S
C974 C969 1.350 . S
C975 H962 0.929 . S
C975 C967 1.433 . S
C975 N977 1.384 . S
N976 C972 1.427 . S
N976 C973 1.384 . S
N977 C969 1.427 . S
N977 C975 1.384 . S
H978 C984 0.930 . S
H979 C988 0.930 . S
H980 C993 0.929 . S
H981 C991 0.929 . S
H982 C986 0.929 . S
H983 C992 0.929 . S
C984 H978 0.930 . S
C984 C985 1.367 . S
C984 C992 1.378 . S
C985 C984 1.367 . S
C985 C993 1.433 1_545 S
C986 H982 0.929 . S
C986 C988 1.378 . S
C986 C990 1.350 . S
C987 C990 1.463 1_545 S
C987 C992 1.350 . S
C987 N995 1.427 1_545 S
C988 H979 0.930 . S
C988 C986 1.378 . S
C988 C989 1.367 . S
C989 C988 1.367 . S
C989 C991 1.433 1_565 S
C990 C986 1.350 . S
C990 C987 1.463 1_565 S
C990 N994 1.427 1_565 S
C991 H981 0.929 . S
C991 C989 1.433 1_545 S
C991 N994 1.384 . S
C992 H983 0.929 . S
C992 C984 1.378 . S
C992 C987 1.350 . S
C993 H980 0.929 . S
C993 C985 1.433 1_565 S
C993 N995 1.384 . S
N994 C990 1.427 1_545 S
N994 C991 1.384 . S
N995 C987 1.427 1_565 S
N995 C993 1.384 . S
H996 C1002 0.930 . S
H997 C1006 0.930 . S
H998 C1011 0.929 . S
H999 C1009 0.929 . S
H1000 C1004 0.929 . S
H1001 C1010 0.929 . S
C1002 H996 0.930 . S
C1002 C1003 1.367 . S
C1002 C1010 1.378 . S
C1003 C1002 1.367 . S
C1003 C1011 1.433 1_655 S
C1004 H1000 0.929 . S
C1004 C1006 1.378 . S
C1004 C1008 1.350 . S
C1005 C1008 1.463 1_645 S
C1005 C1010 1.350 . S
C1005 N1013 1.427 1_655 S
C1006 H997 0.930 . S
C1006 C1004 1.378 . S
C1006 C1007 1.367 . S
C1007 C1006 1.367 . S
C1007 C1009 1.433 1_455 S
C1008 C1004 1.350 . S
C1008 C1005 1.463 1_465 S
C1008 N1012 1.427 1_455 S
C1009 H999 0.929 . S
C1009 C1007 1.433 1_655 S
C1009 N1012 1.384 . S
C1010 H1001 0.929 . S
C1010 C1002 1.378 . S
C1010 C1005 1.350 . S
C1011 H998 0.929 . S
C1011 C1003 1.433 1_455 S
C1011 N1013 1.384 . S
N1012 C1008 1.427 1_655 S
N1012 C1009 1.384 . S
N1013 C1005 1.427 1_455 S
N1013 C1011 1.384 . S
H1014 C1020 0.930 . S
H1015 C1024 0.930 . S
H1016 C1029 0.929 . S
H1017 C1027 0.929 . S
H1018 C1022 0.929 . S
H1019 C1028 0.929 . S
C1020 H1014 0.930 . S
C1020 C1021 1.367 1_545 S
C1020 C1028 1.378 . S
C1021 C1020 1.367 1_565 S
C1021 C1029 1.433 . S
C1022 H1018 0.929 . S
C1022 C1024 1.378 . S
C1022 C1026 1.350 1_565 S
C1023 C1026 1.463 1_665 S
C1023 C1028 1.350 1_565 S
C1023 N1031 1.427 . S
C1024 H1015 0.930 . S
C1024 C1022 1.378 . S
C1024 C1025 1.367 1_565 S
C1025 C1024 1.367 1_545 S
C1025 C1027 1.433 . S
C1026 C1022 1.350 1_545 S
C1026 C1023 1.463 1_445 S
C1026 N1030 1.427 . S
C1027 H1017 0.929 . S
C1027 C1025 1.433 . S
C1027 N1030 1.384 . S
C1028 H1019 0.929 . S
C1028 C1020 1.378 . S
C1028 C1023 1.350 1_545 S
C1029 H1016 0.929 . S
C1029 C1021 1.433 . S
C1029 N1031 1.384 . S
N1030 C1026 1.427 . S
N1030 C1027 1.384 . S
N1031 C1023 1.427 . S
N1031 C1029 1.384 . S
H1032 C1038 0.930 . S
H1033 C1042 0.930 . S
H1034 C1047 0.929 . S
H1035 C1045 0.929 . S
H1036 C1040 0.929 . S
H1037 C1046 0.929 . S
C1038 H1032 0.930 . S
C1038 C1039 1.367 . S
C1038 C1046 1.378 . S
C1039 C1038 1.367 . S
C1039 C1047 1.433 . S
C1040 H1036 0.929 . S
C1040 C1042 1.378 . S
C1040 C1044 1.350 . S
C1041 C1044 1.463 1_545 S
C1041 C1046 1.350 . S
C1041 N1049 1.427 . S
C1042 H1033 0.930 . S
C1042 C1040 1.378 . S
C1042 C1043 1.367 . S
C1043 C1042 1.367 . S
C1043 C1045 1.433 . S
C1044 C1040 1.350 . S
C1044 C1041 1.463 1_565 S
C1044 N1048 1.427 . S
C1045 H1035 0.929 . S
C1045 C1043 1.433 . S
C1045 N1048 1.384 . S
C1046 H1037 0.929 . S
C1046 C1038 1.378 . S
C1046 C1041 1.350 . S
C1047 H1034 0.929 . S
C1047 C1039 1.433 . S
C1047 N1049 1.384 . S
N1048 C1044 1.427 . S
N1048 C1045 1.384 . S
N1049 C1041 1.427 . S
N1049 C1047 1.384 . S
H1050 C1056 0.930 . S
H1051 C1060 0.930 . S
H1052 C1065 0.929 . S
H1053 C1063 0.929 . S
H1054 C1058 0.929 . S
H1055 C1064 0.929 . S
C1056 H1050 0.930 . S
C1056 C1057 1.367 . S
C1056 C1064 1.378 . S
C1057 C1056 1.367 . S
C1057 C1065 1.433 . S
C1058 H1054 0.929 . S
C1058 C1060 1.378 . S
C1058 C1062 1.350 . S
C1059 C1062 1.463 1_655 S
C1059 C1064 1.350 . S
C1059 N1067 1.427 . S
C1060 H1051 0.930 . S
C1060 C1058 1.378 . S
C1060 C1061 1.367 . S
C1061 C1060 1.367 . S
C1061 C1063 1.433 . S
C1062 C1058 1.350 . S
C1062 C1059 1.463 1_455 S
C1062 N1066 1.427 . S
C1063 H1053 0.929 . S
C1063 C1061 1.433 . S
C1063 N1066 1.384 . S
C1064 H1055 0.929 . S
C1064 C1056 1.378 . S
C1064 C1059 1.350 . S
C1065 H1052 0.929 . S
C1065 C1057 1.433 . S
C1065 N1067 1.384 . S
N1066 C1062 1.427 . S
N1066 C1063 1.384 . S
N1067 C1059 1.427 . S
N1067 C1065 1.384 . S
H1068 C1074 0.930 . S
H1069 C1078 0.930 . S
H1070 C1083 0.929 . S
H1071 C1081 0.929 . S
H1072 C1076 0.929 . S
H1073 C1082 0.929 . S
C1074 H1068 0.930 . S
C1074 C1075 1.367 . S
C1074 C1082 1.378 . S
C1075 C1074 1.367 . S
C1075 C1083 1.433 . S
C1076 H1072 0.929 . S
C1076 C1078 1.378 . S
C1076 C1080 1.350 . S
C1077 C1080 1.463 . S
C1077 C1082 1.350 . S
C1077 N1085 1.427 . S
C1078 H1069 0.930 . S
C1078 C1076 1.378 . S
C1078 C1079 1.367 . S
C1079 C1078 1.367 . S
C1079 C1081 1.433 . S
C1080 C1076 1.350 . S
C1080 C1077 1.463 . S
C1080 N1084 1.427 . S
C1081 H1071 0.929 . S
C1081 C1079 1.433 . S
C1081 N1084 1.384 . S
C1082 H1073 0.929 . S
C1082 C1074 1.378 . S
C1082 C1077 1.350 . S
C1083 H1070 0.929 . S
C1083 C1075 1.433 . S
C1083 N1085 1.384 . S
N1084 C1080 1.427 . S
N1084 C1081 1.384 . S
N1085 C1077 1.427 . S
N1085 C1083 1.384 . S
H1086 C1092 0.930 . S
H1087 C1096 0.930 . S
H1088 C1101 0.929 . S
H1089 C1099 0.929 . S
H1090 C1094 0.929 . S
H1091 C1100 0.929 . S
C1092 H1086 0.930 . S
C1092 C1093 1.367 . S
C1092 C1100 1.378 . S
C1093 C1092 1.367 . S
C1093 C1101 1.433 . S
C1094 H1090 0.929 . S
C1094 C1096 1.378 . S
C1094 C1098 1.350 . S
C1095 C1098 1.463 . S
C1095 C1100 1.350 . S
C1095 N1103 1.427 . S
C1096 H1087 0.930 . S
C1096 C1094 1.378 . S
C1096 C1097 1.367 . S
C1097 C1096 1.367 . S
C1097 C1099 1.433 . S
C1098 C1094 1.350 . S
C1098 C1095 1.463 . S
C1098 N1102 1.427 . S
C1099 H1089 0.929 . S
C1099 C1097 1.433 . S
C1099 N1102 1.384 . S
C1100 H1091 0.929 . S
C1100 C1092 1.378 . S
C1100 C1095 1.350 . S
C1101 H1088 0.929 . S
C1101 C1093 1.433 . S
C1101 N1103 1.384 . S
N1102 C1098 1.427 . S
N1102 C1099 1.384 . S
N1103 C1095 1.427 . S
N1103 C1101 1.384 . S
H1104 C1110 0.930 . S
H1105 C1114 0.930 . S
H1106 C1119 0.929 . S
H1107 C1117 0.929 . S
H1108 C1112 0.929 . S
H1109 C1118 0.929 . S
C1110 H1104 0.930 . S
C1110 C1111 1.367 . S
C1110 C1118 1.378 . S
C1111 C1110 1.367 . S
C1111 C1119 1.433 . S
C1112 H1108 0.929 . S
C1112 C1114 1.378 . S
C1112 C1116 1.350 . S
C1113 C1116 1.463 . S
C1113 C1118 1.350 . S
C1113 N1121 1.427 . S
C1114 H1105 0.930 . S
C1114 C1112 1.378 . S
C1114 C1115 1.367 . S
C1115 C1114 1.367 . S
C1115 C1117 1.433 . S
C1116 C1112 1.350 . S
C1116 C1113 1.463 . S
C1116 N1120 1.427 . S
C1117 H1107 0.929 . S
C1117 C1115 1.433 . S
C1117 N1120 1.384 . S
C1118 H1109 0.929 . S
C1118 C1110 1.378 . S
C1118 C1113 1.350 . S
C1119 H1106 0.929 . S
C1119 C1111 1.433 . S
C1119 N1121 1.384 . S
N1120 C1116 1.427 . S
N1120 C1117 1.384 . S
N1121 C1113 1.427 . S
N1121 C1119 1.384 . S
H1122 C1128 0.930 . S
H1123 C1132 0.930 . S
H1124 C1137 0.929 . S
H1125 C1135 0.929 . S
H1126 C1130 0.929 . S
H1127 C1136 0.929 . S
C1128 H1122 0.930 . S
C1128 C1129 1.367 . S
C1128 C1136 1.378 . S
C1129 C1128 1.367 . S
C1129 C1137 1.433 . S
C1130 H1126 0.929 . S
C1130 C1132 1.378 . S
C1130 C1134 1.350 . S
C1131 C1134 1.463 . S
C1131 C1136 1.350 . S
C1131 N1139 1.427 . S
C1132 H1123 0.930 . S
C1132 C1130 1.378 . S
C1132 C1133 1.367 . S
C1133 C1132 1.367 . S
C1133 C1135 1.433 . S
C1134 C1130 1.350 . S
C1134 C1131 1.463 . S
C1134 N1138 1.427 . S
C1135 H1125 0.929 . S
C1135 C1133 1.433 . S
C1135 N1138 1.384 . S
C1136 H1127 0.929 . S
C1136 C1128 1.378 . S
C1136 C1131 1.350 . S
C1137 H1124 0.929 . S
C1137 C1129 1.433 . S
C1137 N1139 1.384 . S
N1138 C1134 1.427 . S
N1138 C1135 1.384 . S
N1139 C1131 1.427 . S
N1139 C1137 1.384 . S
H1140 C1146 0.930 . S
H1141 C1150 0.930 . S
H1142 C1155 0.929 . S
H1143 C1153 0.929 . S
H1144 C1148 0.929 . S
H1145 C1154 0.929 . S
C1146 H1140 0.930 . S
C1146 C1147 1.367 . S
C1146 C1154 1.378 . S
C1147 C1146 1.367 . S
C1147 C1155 1.433 . S
C1148 H1144 0.929 . S
C1148 C1150 1.378 . S
C1148 C1152 1.350 . S
C1149 C1152 1.463 . S
C1149 C1154 1.350 . S
C1149 N1157 1.427 . S
C1150 H1141 0.930 . S
C1150 C1148 1.378 . S
C1150 C1151 1.367 . S
C1151 C1150 1.367 . S
C1151 C1153 1.433 . S
C1152 C1148 1.350 . S
C1152 C1149 1.463 . S
C1152 N1156 1.427 . S
C1153 H1143 0.929 . S
C1153 C1151 1.433 . S
C1153 N1156 1.384 . S
C1154 H1145 0.929 . S
C1154 C1146 1.378 . S
C1154 C1149 1.350 . S
C1155 H1142 0.929 . S
C1155 C1147 1.433 . S
C1155 N1157 1.384 . S
N1156 C1152 1.427 . S
N1156 C1153 1.384 . S
N1157 C1149 1.427 . S
N1157 C1155 1.384 . S
H1158 C1164 0.930 . S
H1159 C1168 0.930 . S
H1160 C1173 0.929 . S
H1161 C1171 0.929 . S
H1162 C1166 0.929 . S
H1163 C1172 0.929 . S
C1164 H1158 0.930 . S
C1164 C1165 1.367 . S
C1164 C1172 1.378 . S
C1165 C1164 1.367 . S
C1165 C1173 1.433 . S
C1166 H1162 0.929 . S
C1166 C1168 1.378 . S
C1166 C1170 1.350 . S
C1167 C1170 1.463 . S
C1167 C1172 1.350 . S
C1167 N1175 1.427 . S
C1168 H1159 0.930 . S
C1168 C1166 1.378 . S
C1168 C1169 1.367 . S
C1169 C1168 1.367 . S
C1169 C1171 1.433 . S
C1170 C1166 1.350 . S
C1170 C1167 1.463 . S
C1170 N1174 1.427 . S
C1171 H1161 0.929 . S
C1171 C1169 1.433 . S
C1171 N1174 1.384 . S
C1172 H1163 0.929 . S
C1172 C1164 1.378 . S
C1172 C1167 1.350 . S
C1173 H1160 0.929 . S
C1173 C1165 1.433 . S
C1173 N1175 1.384 . S
N1174 C1170 1.427 . S
N1174 C1171 1.384 . S
N1175 C1167 1.427 . S
N1175 C1173 1.384 . S
H1176 C1182 0.930 . S
H1177 C1186 0.930 . S
H1178 C1191 0.929 . S
H1179 C1189 0.929 . S
H1180 C1184 0.929 . S
H1181 C1190 0.929 . S
C1182 H1176 0.930 . S
C1182 C1183 1.367 . S
C1182 C1190 1.378 . S
C1183 C1182 1.367 . S
C1183 C1191 1.433 . S
C1184 H1180 0.929 . S
C1184 C1186 1.378 . S
C1184 C1188 1.350 . S
C1185 C1188 1.463 . S
C1185 C1190 1.350 . S
C1185 N1193 1.427 . S
C1186 H1177 0.930 . S
C1186 C1184 1.378 . S
C1186 C1187 1.367 . S
C1187 C1186 1.367 . S
C1187 C1189 1.433 . S
C1188 C1184 1.350 . S
C1188 C1185 1.463 . S
C1188 N1192 1.427 . S
C1189 H1179 0.929 . S
C1189 C1187 1.433 . S
C1189 N1192 1.384 . S
C1190 H1181 0.929 . S
C1190 C1182 1.378 . S
C1190 C1185 1.350 . S
C1191 H1178 0.929 . S
C1191 C1183 1.433 . S
C1191 N1193 1.384 . S
N1192 C1188 1.427 . S
N1192 C1189 1.384 . S
N1193 C1185 1.427 . S
N1193 C1191 1.384 . S
H1194 C1200 0.930 . S
H1195 C1204 0.930 . S
H1196 C1209 0.929 . S
H1197 C1207 0.929 . S
H1198 C1202 0.929 . S
H1199 C1208 0.929 . S
C1200 H1194 0.930 . S
C1200 C1201 1.367 . S
C1200 C1208 1.378 . S
C1201 C1200 1.367 . S
C1201 C1209 1.433 . S
C1202 H1198 0.929 . S
C1202 C1204 1.378 . S
C1202 C1206 1.350 . S
C1203 C1206 1.463 . S
C1203 C1208 1.350 . S
C1203 N1211 1.427 . S
C1204 H1195 0.930 . S
C1204 C1202 1.378 . S
C1204 C1205 1.367 . S
C1205 C1204 1.367 . S
C1205 C1207 1.433 . S
C1206 C1202 1.350 . S
C1206 C1203 1.463 . S
C1206 N1210 1.427 . S
C1207 H1197 0.929 . S
C1207 C1205 1.433 . S
C1207 N1210 1.384 . S
C1208 H1199 0.929 . S
C1208 C1200 1.378 . S
C1208 C1203 1.350 . S
C1209 H1196 0.929 . S
C1209 C1201 1.433 . S
C1209 N1211 1.384 . S
N1210 C1206 1.427 . S
N1210 C1207 1.384 . S
N1211 C1203 1.427 . S
N1211 C1209 1.384 . S
H1212 C1218 0.930 . S
H1213 C1222 0.930 . S
H1214 C1227 0.929 . S
H1215 C1225 0.929 . S
H1216 C1220 0.929 . S
H1217 C1226 0.929 . S
C1218 H1212 0.930 . S
C1218 C1219 1.367 . S
C1218 C1226 1.378 . S
C1219 C1218 1.367 . S
C1219 C1227 1.433 . S
C1220 H1216 0.929 . S
C1220 C1222 1.378 . S
C1220 C1224 1.350 . S
C1221 C1224 1.463 . S
C1221 C1226 1.350 . S
C1221 N1229 1.427 . S
C1222 H1213 0.930 . S
C1222 C1220 1.378 . S
C1222 C1223 1.367 . S
C1223 C1222 1.367 . S
C1223 C1225 1.433 . S
C1224 C1220 1.350 . S
C1224 C1221 1.463 . S
C1224 N1228 1.427 . S
C1225 H1215 0.929 . S
C1225 C1223 1.433 . S
C1225 N1228 1.384 . S
C1226 H1217 0.929 . S
C1226 C1218 1.378 . S
C1226 C1221 1.350 . S
C1227 H1214 0.929 . S
C1227 C1219 1.433 . S
C1227 N1229 1.384 . S
N1228 C1224 1.427 . S
N1228 C1225 1.384 . S
N1229 C1221 1.427 . S
N1229 C1227 1.384 . S
H1230 C1236 0.930 . S
H1231 C1240 0.930 . S
H1232 C1245 0.929 . S
H1233 C1243 0.929 . S
H1234 C1238 0.929 . S
H1235 C1244 0.929 . S
C1236 H1230 0.930 . S
C1236 C1237 1.367 . S
C1236 C1244 1.378 . S
C1237 C1236 1.367 . S
C1237 C1245 1.433 . S
C1238 H1234 0.929 . S
C1238 C1240 1.378 . S
C1238 C1242 1.350 . S
C1239 C1242 1.463 . S
C1239 C1244 1.350 . S
C1239 N1247 1.427 . S
C1240 H1231 0.930 . S
C1240 C1238 1.378 . S
C1240 C1241 1.367 . S
C1241 C1240 1.367 . S
C1241 C1243 1.433 . S
C1242 C1238 1.350 . S
C1242 C1239 1.463 . S
C1242 N1246 1.427 . S
C1243 H1233 0.929 . S
C1243 C1241 1.433 . S
C1243 N1246 1.384 . S
C1244 H1235 0.929 . S
C1244 C1236 1.378 . S
C1244 C1239 1.350 . S
C1245 H1232 0.929 . S
C1245 C1237 1.433 . S
C1245 N1247 1.384 . S
N1246 C1242 1.427 . S
N1246 C1243 1.384 . S
N1247 C1239 1.427 . S
N1247 C1245 1.384 . S
C535 C8 1.004 . S
C539 N377 1.000 . S
C553 N278 1.000 . S
C557 C41 1.005 . S
C571 N311 1.004 . S
C575 C74 0.997 . S
C589 N344 1.002 . S
C593 C107 1.004 . S
C607 N179 1.008 . S
C611 C140 0.994 . S
C625 N212 1.006 . S
C629 C173 0.996 . S
C643 C206 0.995 . S
C647 N245 1.008 . S
C661 C239 0.998 . S
C665 N146 1.006 . S
C679 C272 0.997 . S
C683 N113 1.007 . S
C697 C305 0.994 . S
C701 N14 1.008 . S
C715 N47 1.001 . S
C719 C338 1.005 . S
C733 C371 1.005 . S
C737 N80 1.000 . S
C751 N443 1.003 . S
C755 C404 0.999 . S
C769 N476 1.002 . S
C773 C437 1.004 . S
C787 N509 1.006 . S
C791 C470 0.995 . S
C805 C503 1.003 . S
C809 N410 1.003 . S
C823 C17 1.506 . S
C827 C83 1.508 . S
C841 C50 1.511 . S
C845 C116 1.513 . S
C859 C215 1.507 . S
C863 C149 1.510 . S
C877 C248 1.509 . S
C881 C182 1.512 . S
C895 C347 1.508 . S
C899 C281 1.511 . S
C913 C314 1.512 . S
C917 C380 1.509 . S
C931 C413 1.506 . S
C935 C479 1.505 . S
C949 C512 1.512 . S
C953 C446 1.514 . S
C967 C94 0.601 . S
C971 C28 0.646 . S
C985 C61 0.621 . S
C989 C127 0.646 . S
C1003 C160 0.608 . S
C1007 C226 0.648 . S
C1021 C259 0.628 . S
C1025 C193 0.595 . S
C1039 C358 0.642 . S
C1043 C292 0.597 . S
C1057 C325 0.645 . S
C1061 C391 0.621 . S
C1075 C424 0.614 . S
C1079 C490 0.601 . S
C1093 C523 0.620 . S
C1097 C457 0.646 . S
C1111 N467 1.509 . S
C1115 N5 1.511 . S
C1129 N38 1.509 . S
C1133 N500 1.511 . S
C1147 N71 1.511 . S
C1151 N401 1.512 . S
C1165 N104 1.507 . S
C1169 N434 1.504 . S
C1183 N137 1.507 . S
C1187 N335 1.504 . S
C1201 N368 1.500 . S
C1205 N170 1.498 . S
C1219 N203 1.503 . S
C1223 N269 1.506 . S
C1237 N236 1.502 . S
C1241 N302 1.500 . S
