# Generated by pormake.
# Topology qtz-e, (6)-cn, num edge types: 1
# Building blocks:
#     Node 0, Type 0, BuildingBlock: CUKXOW_clean_sbu_0, # of connection points: 6
#     Node 1, Type 0, BuildingBlock: CUKXOW_clean_sbu_0, # of connection points: 6
#     Node 2, Type 0, BuildingBlock: CUKXOW_clean_sbu_0, # of connection points: 6
#     Node 3, Type 0, BuildingBlock: CUKXOW_clean_sbu_0, # of connection points: 6
#     Node 4, Type 0, BuildingBlock: CUKXOW_clean_sbu_0, # of connection points: 6
#     Node 5, Type 0, BuildingBlock: CUKXOW_clean_sbu_0, # of connection points: 6
#     Edge 6, Type (0, 0), BuildingBlock: MIFKUJ_clean_linker_0, # of connection points: 2
#     Edge 7, Type (0, 0), BuildingBlock: MIFKUJ_clean_linker_0, # of connection points: 2
#     Edge 8, Type (0, 0), BuildingBlock: MIFKUJ_clean_linker_0, # of connection points: 2
#     Edge 9, Type (0, 0), BuildingBlock: MIFKUJ_clean_linker_0, # of connection points: 2
#     Edge 10, Type (0, 0), BuildingBlock: MIFKUJ_clean_linker_0, # of connection points: 2
#     Edge 11, Type (0, 0), BuildingBlock: MIFKUJ_clean_linker_0, # of connection points: 2
#     Edge 12, Type (0, 0), BuildingBlock: MIFKUJ_clean_linker_0, # of connection points: 2
#     Edge 13, Type (0, 0), BuildingBlock: MIFKUJ_clean_linker_0, # of connection points: 2
#     Edge 14, Type (0, 0), BuildingBlock: MIFKUJ_clean_linker_0, # of connection points: 2
#     Edge 15, Type (0, 0), BuildingBlock: MIFKUJ_clean_linker_0, # of connection points: 2
#     Edge 16, Type (0, 0), BuildingBlock: MIFKUJ_clean_linker_0, # of connection points: 2
#     Edge 17, Type (0, 0), BuildingBlock: MIFKUJ_clean_linker_0, # of connection points: 2
#     Edge 18, Type (0, 0), BuildingBlock: MIFKUJ_clean_linker_0, # of connection points: 2
#     Edge 19, Type (0, 0), BuildingBlock: MIFKUJ_clean_linker_0, # of connection points: 2
#     Edge 20, Type (0, 0), BuildingBlock: MIFKUJ_clean_linker_0, # of connection points: 2
#     Edge 21, Type (0, 0), BuildingBlock: MIFKUJ_clean_linker_0, # of connection points: 2
#     Edge 22, Type (0, 0), BuildingBlock: MIFKUJ_clean_linker_0, # of connection points: 2
#     Edge 23, Type (0, 0), BuildingBlock: MIFKUJ_clean_linker_0, # of connection points: 2
# Relax obj value: 0.121
# Max RMSD: 0.165
# Mean RMSD: 0.165
data_MOF--net-qtz-e--node1-CUKXOW_clean_sbu_0--edge1-MIFKUJ_clean_linker_0
_symmetry_space_group_name_H-M    P1
_symmetry_Int_Tables_number       1
_symmetry_cell_setting            triclinic
loop_
_symmetry_equiv_pos_as_xyz
'x, y, z'
_cell_length_a     33.537186
_cell_length_b     33.64198
_cell_length_c     48.364002
_cell_angle_alpha  89.983784
_cell_angle_beta   89.861989
_cell_angle_gamma 119.79216
loop_
_atom_site_label
_atom_site_type_symbol
_atom_site_fract_x
_atom_site_fract_y
_atom_site_fract_z
_atom_type_partial_charge
Tb0 Tb 0.16286 0.37779 0.0362 0.0
C1 C 0.26704 0.40653 0.04213 0.0
Tb2 Tb 0.23458 0.4427 0.99286 0.0
O3 O 0.17196 0.32029 0.02221 0.0
O4 O 0.1831 0.3732 0.99542 0.0
O5 O 0.22858 0.39661 0.05542 0.0
C6 C 0.28447 0.48439 0.94796 0.0
O7 O 0.27337 0.41738 1.01549 0.0
C8 C 0.23021 0.48033 0.03961 0.0
C9 C 0.12967 0.41494 0.98602 0.0
O10 O 0.27718 0.44519 0.95759 0.0
O11 O 0.26354 0.49975 0.96356 0.0
O12 O 0.26745 0.49578 0.02491 0.0
O13 O 0.19787 0.44827 0.02671 0.0
O14 O 0.17105 0.43258 0.97442 0.0
O15 O 0.11932 0.39424 1.01063 0.0
C16 C 0.10918 0.34977 0.08111 0.0
O17 O 0.09788 0.32989 0.05699 0.0
O18 O 0.15036 0.38476 0.07972 0.0
C19 C 0.18729 0.33841 0.998 0.0
Tb20 Tb 0.7919 0.18482 0.37558 0.0
C21 C 0.87803 0.28295 0.37658 0.0
Tb22 Tb 0.79755 0.25738 0.33338 0.0
O23 O 0.84921 0.18285 0.35449 0.0
O24 O 0.80494 0.19863 0.333 0.0
O25 O 0.85208 0.24521 0.39107 0.0
C26 C 0.81624 0.31433 0.29045 0.0
O27 O 0.86561 0.29191 0.35229 0.0
C28 C 0.74668 0.24404 0.37759 0.0
C29 C 0.71123 0.16068 0.33224 0.0
O30 O 0.80555 0.32098 0.31522 0.0
O31 O 0.81706 0.27627 0.29018 0.0
O32 O 0.73888 0.25731 0.35398 0.0
O33 O 0.78357 0.24301 0.37594 0.0
O34 O 0.73839 0.19758 0.31752 0.0
O35 O 0.72343 0.15092 0.35641 0.0
C36 C 0.76855 0.12906 0.41939 0.0
O37 O 0.776 0.11907 0.39461 0.0
O38 O 0.77432 0.17008 0.4193 0.0
C39 C 0.84114 0.19639 0.33098 0.0
Tb40 Tb 0.61708 0.77453 0.69782 0.0
C41 C 0.57458 0.83832 0.7037 0.0
Tb42 Tb 0.54738 0.77117 0.65422 0.0
O43 O 0.66804 0.8438 0.68279 0.0
O44 O 0.61845 0.79584 0.65675 0.0
O45 O 0.58903 0.81367 0.71722 0.0
C46 C 0.50593 0.77994 0.60963 0.0
O47 O 0.56589 0.83363 0.67683 0.0
C48 C 0.51165 0.72878 0.70121 0.0
C49 C 0.58326 0.70057 0.64922 0.0
O50 O 0.48788 0.74579 0.62688 0.0
O51 O 0.54763 0.80886 0.6172 0.0
O52 O 0.49284 0.74635 0.68565 0.0
O53 O 0.54639 0.73229 0.68897 0.0
O54 O 0.56095 0.71942 0.63726 0.0
O55 O 0.60525 0.71479 0.67334 0.0
C56 C 0.65485 0.75805 0.74174 0.0
O57 O 0.67243 0.76675 0.71692 0.0
O58 O 0.61667 0.75895 0.74158 0.0
C59 C 0.65004 0.83655 0.65824 0.0
Tb60 Tb 0.81259 0.61749 0.04033 0.0
C61 C 0.7038 0.57113 0.04779 0.0
Tb62 Tb 0.74687 0.5496 0.99697 0.0
O63 O 0.832 0.67724 1.01336 0.0
O64 O 0.76902 0.6179 1.00907 0.0
O65 O 0.74485 0.59177 0.05982 0.0
C66 C 0.70111 0.5033 0.95202 0.0
O67 O 0.6972 0.55712 0.02169 0.0
C68 C 0.76186 0.5135 0.04116 0.0
C69 C 0.85293 0.59234 0.98938 0.0
O70 O 0.70499 0.54175 0.96031 0.0
O71 O 0.72286 0.49106 0.96902 0.0
O72 O 0.72379 0.49378 0.02725 0.0
O73 O 0.79034 0.54932 0.02874 0.0
O74 O 0.81361 0.5798 0.97653 0.0
O75 O 0.85746 0.60077 1.01639 0.0
C76 C 0.85772 0.65187 0.08773 0.0
O77 O 0.87503 0.66459 0.06314 0.0
O78 O 0.81506 0.62027 0.08559 0.0
C79 C 0.79575 0.6557 0.99797 0.0
Tb80 Tb 0.198 0.82477 0.37055 0.0
C81 C 0.15966 0.72063 0.38053 0.0
Tb82 Tb 0.21166 0.76526 0.32558 0.0
O83 O 0.12574 0.79851 0.35766 0.0
O84 O 0.17361 0.79887 0.3309 0.0
O85 O 0.1788 0.76138 0.39247 0.0
C86 C 0.20738 0.71767 0.2806 0.0
O87 O 0.16065 0.71489 0.35343 0.0
C88 C 0.26426 0.78379 0.3693 0.0
C89 C 0.25395 0.87266 0.31578 0.0
O90 O 0.17199 0.71352 0.29422 0.0
O91 O 0.24492 0.74887 0.29218 0.0
O92 O 0.25492 0.75012 0.35256 0.0
O93 O 0.24879 0.80779 0.35906 0.0
O94 O 0.2467 0.83254 0.30606 0.0
O95 O 0.23759 0.87756 0.33993 0.0
C96 C 0.21459 0.88459 0.41155 0.0
O97 O 0.24252 0.88984 0.39154 0.0
O98 O 0.17687 0.84599 0.40819 0.0
C99 C 0.13163 0.78439 0.33378 0.0
Tb100 Tb 0.37341 0.18008 0.71235 0.0
C101 C 0.41794 0.11755 0.72603 0.0
Tb102 Tb 0.44284 0.17591 0.67179 0.0
O103 O 0.31686 0.14078 0.68333 0.0
O104 O 0.3743 0.13241 0.68427 0.0
O105 O 0.39324 0.13603 0.73495 0.0
C106 C 0.48667 0.16835 0.62739 0.0
O107 O 0.43582 0.12376 0.70075 0.0
C108 C 0.47891 0.2319 0.71342 0.0
C109 C 0.40215 0.24094 0.65906 0.0
O110 O 0.505 0.1986 0.64683 0.0
O111 O 0.44348 0.14164 0.63311 0.0
O112 O 0.49861 0.212 0.70097 0.0
O113 O 0.44284 0.22368 0.7006 0.0
O114 O 0.41911 0.2159 0.64882 0.0
O115 O 0.3881 0.23733 0.68513 0.0
C116 C 0.33665 0.19683 0.75715 0.0
O117 O 0.31552 0.18024 0.73391 0.0
O118 O 0.37798 0.20325 0.75519 0.0
C119 C 0.33799 0.12188 0.67134 0.0
H120 H 0.13149 0.65197 0.25354 0.0
H121 H 0.13005 0.60688 0.2132 0.0
H122 H 0.27826 0.67616 0.21341 0.0
H123 H 0.27979 0.72151 0.2532 0.0
H124 H 0.2471 0.67437 0.16306 0.0
H125 H 0.20937 0.56501 0.23726 0.0
H126 H 0.16402 0.51617 0.27629 0.0
H127 H 0.04613 0.44635 0.22381 0.0
H128 H 0.09048 0.49558 0.18451 0.0
H129 H 0.29816 0.54233 0.07277 0.0
H130 H 0.28946 0.5784 0.11462 0.0
H131 H 0.14198 0.50052 0.10621 0.0
H132 H 0.15061 0.46413 0.06453 0.0
H133 H 0.16592 0.50463 0.15942 0.0
H134 H 0.20067 0.61165 0.08588 0.0
H135 H 0.24391 0.65915 0.04589 0.0
H136 H 0.3639 0.73221 0.09646 0.0
H137 H 0.32154 0.6847 0.13669 0.0
C138 C 0.16367 0.65741 0.24492 0.0
C139 C 0.20577 0.69025 0.25639 0.0
C140 C 0.16282 0.63148 0.22201 0.0
C141 C 0.20406 0.63784 0.2104 0.0
C142 C 0.24601 0.67064 0.22198 0.0
C143 C 0.24687 0.69654 0.24472 0.0
C144 C 0.20423 0.61201 0.18552 0.0
C145 C 0.22975 0.63724 0.16245 0.0
C146 C 0.18009 0.56349 0.18425 0.0
C147 C 0.15312 0.53449 0.20801 0.0
C148 C 0.17361 0.53971 0.2341 0.0
C149 C 0.14809 0.51189 0.25625 0.0
C150 C 0.10215 0.47836 0.25254 0.0
C151 C 0.08163 0.47252 0.22664 0.0
C152 C 0.10694 0.5004 0.20444 0.0
C153 C 0.26394 0.53286 0.07995 0.0
C154 C 0.22509 0.50062 0.06545 0.0
C155 C 0.25896 0.55348 0.1038 0.0
C156 C 0.21504 0.54265 0.11334 0.0
C157 C 0.17616 0.50945 0.09925 0.0
C158 C 0.18115 0.48873 0.07544 0.0
C159 C 0.20986 0.56716 0.13742 0.0
C160 C 0.18314 0.54175 0.16013 0.0
C161 C 0.23247 0.61555 0.13836 0.0
C162 C 0.25804 0.64434 0.11424 0.0
C163 C 0.23638 0.63762 0.08843 0.0
C164 C 0.26071 0.66458 0.06572 0.0
C165 C 0.30665 0.69861 0.06861 0.0
C166 C 0.32832 0.70581 0.09424 0.0
C167 C 0.30416 0.67891 0.11701 0.0
H168 H 0.32543 0.71945 0.05101 0.0
H169 H 0.08253 0.45679 0.2697 0.0
H170 H 0.57719 0.22159 0.61533 0.0
H171 H 0.61588 0.22762 0.57145 0.0
H172 H 0.4882 0.12286 0.53665 0.0
H173 H 0.44974 0.11534 0.58126 0.0
H174 H 0.55498 0.11214 0.51731 0.0
H175 H 0.52886 0.23685 0.52217 0.0
H176 H 0.52717 0.30345 0.54209 0.0
H177 H 0.67451 0.37712 0.54634 0.0
H178 H 0.6771 0.31071 0.52678 0.0
H179 H 0.65392 0.20982 0.37898 0.0
H180 H 0.60399 0.18853 0.42011 0.0
H181 H 0.72161 0.22805 0.47246 0.0
H182 H 0.77141 0.24859 0.43151 0.0
H183 H 0.65168 0.26857 0.47912 0.0
H184 H 0.66774 0.13017 0.47325 0.0
H185 H 0.6578 0.06099 0.44932 0.0
H186 H 0.51359 0.01226 0.44048 0.0
H187 H 0.5226 0.08128 0.46403 0.0
C188 C 0.55745 0.19949 0.59842 0.0
C189 C 0.51033 0.16844 0.60154 0.0
C190 C 0.57952 0.20319 0.57325 0.0
C191 C 0.55479 0.1766 0.55041 0.0
C192 C 0.508 0.14408 0.55383 0.0
C193 C 0.48599 0.13994 0.57925 0.0
C194 C 0.57799 0.1839 0.52301 0.0
C195 C 0.57568 0.14633 0.50886 0.0
C196 C 0.60437 0.22836 0.51151 0.0
C197 C 0.60316 0.2686 0.52321 0.0
C198 C 0.56091 0.26713 0.52753 0.0
C199 C 0.55978 0.30487 0.53873 0.0
C200 C 0.60071 0.34444 0.54554 0.0
C201 C 0.64284 0.34641 0.54108 0.0
C202 C 0.64417 0.30874 0.5299 0.0
C203 C 0.66896 0.21371 0.39929 0.0
C204 C 0.71641 0.23069 0.40216 0.0
C205 C 0.64044 0.20129 0.42269 0.0
C206 C 0.65912 0.20638 0.44926 0.0
C207 C 0.70653 0.22349 0.45211 0.0
C208 C 0.73487 0.23513 0.42875 0.0
C209 C 0.63001 0.19715 0.47422 0.0
C210 C 0.63092 0.23448 0.4877 0.0
C211 C 0.60098 0.15236 0.48442 0.0
C212 C 0.59601 0.11128 0.46999 0.0
C213 C 0.63406 0.10506 0.46584 0.0
C214 C 0.62858 0.06582 0.45244 0.0
C215 C 0.58526 0.03253 0.44319 0.0
C216 C 0.54719 0.03821 0.44749 0.0
C217 C 0.55245 0.07733 0.46089 0.0
H218 H 0.58113 0.00216 0.43289 0.0
H219 H 0.59978 0.37361 0.55425 0.0
H220 H 0.29393 0.5617 0.92413 0.0
H221 H 0.33759 0.60049 0.88246 0.0
H222 H 0.38073 0.49984 0.87419 0.0
H223 H 0.33646 0.46036 0.91581 0.0
H224 H 0.44068 0.63288 0.87229 0.0
H225 H 0.36142 0.47428 0.8252 0.0
H226 H 0.29138 0.40001 0.8166 0.0
H227 H 0.21453 0.46912 0.80298 0.0
H228 H 0.28406 0.54368 0.81195 0.0
H229 H 0.54327 0.68321 0.7332 0.0
H230 H 0.51035 0.64238 0.77677 0.0
H231 H 0.39923 0.67133 0.76938 0.0
H232 H 0.4338 0.71511 0.72699 0.0
H233 H 0.37774 0.57166 0.77934 0.0
H234 H 0.46463 0.72889 0.81035 0.0
H235 H 0.53496 0.80367 0.81565 0.0
H236 H 0.59783 0.74009 0.86144 0.0
H237 H 0.52868 0.66451 0.85523 0.0
C238 C 0.31273 0.54783 0.91345 0.0
C239 C 0.31172 0.50796 0.92311 0.0
C240 C 0.33765 0.57003 0.88968 0.0
C241 C 0.36199 0.55278 0.87514 0.0
C242 C 0.36161 0.5133 0.88491 0.0
C243 C 0.33655 0.49095 0.90872 0.0
C244 C 0.38736 0.57638 0.84967 0.0
C245 C 0.42748 0.61921 0.85193 0.0
C246 C 0.36976 0.55888 0.82321 0.0
C247 C 0.32758 0.51423 0.81951 0.0
C248 C 0.3294 0.47346 0.82073 0.0
C249 C 0.28991 0.43141 0.81567 0.0
C250 C 0.24866 0.42993 0.80904 0.0
C251 C 0.24657 0.47037 0.808 0.0
C252 C 0.28593 0.51248 0.81316 0.0
C253 C 0.51262 0.68203 0.74132 0.0
C254 C 0.49174 0.70334 0.72714 0.0
C255 C 0.4936 0.65829 0.766 0.0
C256 C 0.45254 0.6541 0.77625 0.0
C257 C 0.43102 0.67434 0.76175 0.0
C258 C 0.45079 0.69931 0.7376 0.0
C259 C 0.43141 0.62799 0.80188 0.0
C260 C 0.39172 0.58496 0.79964 0.0
C261 C 0.44988 0.64529 0.8283 0.0
C262 C 0.49169 0.69078 0.83184 0.0
C263 C 0.49378 0.73062 0.82102 0.0
C264 C 0.53348 0.77321 0.8242 0.0
C265 C 0.57107 0.77658 0.83862 0.0
C266 C 0.56895 0.73738 0.84997 0.0
C267 C 0.52955 0.69461 0.84654 0.0
H268 H 0.6017 0.80959 0.84115 0.0
H269 H 0.21831 0.39744 0.8047 0.0
H270 H 0.82794 0.29568 0.2374 0.0
H271 H 0.82577 0.33515 0.19549 0.0
H272 H 0.81047 0.43329 0.24516 0.0
H273 H 0.81218 0.39343 0.28729 0.0
H274 H 0.74721 0.39986 0.20555 0.0
H275 H 0.91399 0.47336 0.20588 0.0
H276 H 0.98926 0.4769 0.20828 0.0
H277 H 0.95023 0.38073 0.14147 0.0
H278 H 0.87507 0.37732 0.1384 0.0
H279 H 0.83945 0.55332 0.07277 0.0
H280 H 0.85342 0.52419 0.11596 0.0
H281 H 0.71968 0.40326 0.10968 0.0
H282 H 0.70489 0.43328 0.06725 0.0
H283 H 0.86029 0.45232 0.12862 0.0
H284 H 0.67393 0.36516 0.17178 0.0
H285 H 0.60643 0.37603 0.1696 0.0
H286 H 0.69459 0.51977 0.15449 0.0
H287 H 0.76262 0.50989 0.157 0.0
C288 C 0.82469 0.32602 0.2394 0.0
C289 C 0.82007 0.34147 0.26557 0.0
C290 C 0.82373 0.34872 0.21541 0.0
C291 C 0.81814 0.38733 0.21713 0.0
C292 C 0.81478 0.40354 0.24334 0.0
C293 C 0.81585 0.38086 0.26738 0.0
C294 C 0.81211 0.40841 0.19159 0.0
C295 C 0.77197 0.41134 0.18875 0.0
C296 C 0.84455 0.424 0.16976 0.0
C297 C 0.88893 0.4248 0.17209 0.0
C298 C 0.92147 0.45286 0.1918 0.0
C299 C 0.96421 0.45512 0.19312 0.0
C300 C 0.9745 0.42905 0.17502 0.0
C301 C 0.94221 0.40092 0.15545 0.0
C302 C 0.89967 0.39901 0.15381 0.0
C303 C 0.81294 0.52071 0.08078 0.0
C304 C 0.77089 0.49574 0.06688 0.0
C305 C 0.82108 0.50393 0.10533 0.0
C306 C 0.78744 0.46171 0.11628 0.0
C307 C 0.74582 0.43632 0.10199 0.0
C308 C 0.73746 0.45338 0.07767 0.0
C309 C 0.79564 0.44424 0.14268 0.0
C310 C 0.8356 0.441 0.14545 0.0
C311 C 0.76392 0.43014 0.16491 0.0
C312 C 0.72328 0.43664 0.16429 0.0
C313 C 0.6789 0.39912 0.16817 0.0
C314 C 0.64056 0.40511 0.16683 0.0
C315 C 0.64621 0.44853 0.1618 0.0
C316 C 0.69025 0.48613 0.15828 0.0
C317 C 0.72869 0.48034 0.15964 0.0
H318 H 0.61648 0.45305 0.16069 0.0
H319 H 0.00741 0.43051 0.17618 0.0
H320 H 0.54225 0.82608 0.56157 0.0
H321 H 0.50108 0.83671 0.52311 0.0
H322 H 0.37346 0.76111 0.56815 0.0
H323 H 0.4145 0.74862 0.60584 0.0
H324 H 0.35808 0.73259 0.51998 0.0
H325 H 0.43002 0.88615 0.55547 0.0
H326 H 0.49391 0.95927 0.57239 0.0
H327 H 0.56506 0.97919 0.49526 0.0
H328 H 0.50103 0.90665 0.47761 0.0
H329 H 0.27244 0.84014 0.41256 0.0
H330 H 0.3159 0.85166 0.4555 0.0
H331 H 0.36273 0.76128 0.42511 0.0
H332 H 0.31933 0.74958 0.38259 0.0
H333 H 0.41108 0.87912 0.46963 0.0
H334 H 0.34155 0.68494 0.47235 0.0
H335 H 0.27582 0.6166 0.45196 0.0
H336 H 0.19371 0.68172 0.45674 0.0
H337 H 0.25868 0.75016 0.47758 0.0
C338 C 0.50548 0.81219 0.56322 0.0
C339 C 0.48145 0.78669 0.58653 0.0
C340 C 0.48195 0.81856 0.54137 0.0
C341 C 0.43408 0.80054 0.54283 0.0
C342 C 0.41029 0.77541 0.56642 0.0
C343 C 0.43369 0.76818 0.58793 0.0
C344 C 0.40829 0.80478 0.51902 0.0
C345 C 0.36954 0.7649 0.50937 0.0
C346 C 0.42256 0.84687 0.50502 0.0
C347 C 0.46086 0.89084 0.51531 0.0
C348 C 0.4593 0.90613 0.54213 0.0
C349 C 0.49546 0.94755 0.55179 0.0
C350 C 0.53361 0.97379 0.53494 0.0
C351 C 0.53542 0.9589 0.50824 0.0
C352 C 0.49906 0.91779 0.49833 0.0
C353 C 0.29262 0.82345 0.41496 0.0
C354 C 0.29237 0.79383 0.39442 0.0
C355 C 0.31755 0.83017 0.43939 0.0
C356 C 0.34221 0.80703 0.44351 0.0
C357 C 0.34366 0.77921 0.42238 0.0
C358 C 0.31863 0.77233 0.39819 0.0
C359 C 0.36204 0.807 0.47081 0.0
C360 C 0.39945 0.84733 0.48089 0.0
C361 C 0.34588 0.76569 0.48577 0.0
C362 C 0.3051 0.72275 0.47633 0.0
C363 C 0.30927 0.6844 0.46944 0.0
C364 C 0.27227 0.64581 0.45763 0.0
C365 C 0.23091 0.64516 0.45271 0.0
C366 C 0.22596 0.68253 0.4603 0.0
C367 C 0.26281 0.72115 0.47217 0.0
H368 H 0.2026 0.61552 0.44321 0.0
H369 H 0.56174 0.00566 0.54255 0.0
H370 H 0.69154 0.42265 0.934 0.0
H371 H 0.65107 0.37947 0.8927 0.0
H372 H 0.61503 0.48246 0.87251 0.0
H373 H 0.65489 0.52563 0.91423 0.0
H374 H 0.55164 0.3487 0.87895 0.0
H375 H 0.64182 0.49381 0.80039 0.0
H376 H 0.71793 0.56028 0.78968 0.0
H377 H 0.78369 0.49666 0.83251 0.0
H378 H 0.70796 0.43008 0.84361 0.0
H379 H 0.44587 0.28108 0.74123 0.0
H380 H 0.47925 0.32859 0.78272 0.0
H381 H 0.59293 0.30288 0.77892 0.0
H382 H 0.55846 0.25321 0.739 0.0
H383 H 0.61443 0.40006 0.78451 0.0
H384 H 0.52434 0.24702 0.8195 0.0
H385 H 0.4548 0.17313 0.82871 0.0
H386 H 0.39763 0.24148 0.87532 0.0
H387 H 0.46529 0.31612 0.86472 0.0
C388 C 0.67486 0.43603 0.92081 0.0
C389 C 0.67633 0.47745 0.92722 0.0
C390 C 0.65182 0.41136 0.89728 0.0
C391 C 0.6304 0.428 0.87959 0.0
C392 C 0.63157 0.46926 0.88594 0.0
C393 C 0.6542 0.49374 0.90973 0.0
C394 C 0.60613 0.40153 0.85476 0.0
C395 C 0.56488 0.3601 0.85823 0.0
C396 C 0.62411 0.41615 0.82792 0.0
C397 C 0.66935 0.45739 0.8231 0.0
C398 C 0.67256 0.49427 0.80769 0.0
C399 C 0.71559 0.53184 0.80147 0.0
C400 C 0.75562 0.53259 0.81029 0.0
C401 C 0.75268 0.49598 0.82562 0.0
C402 C 0.70971 0.45851 0.83208 0.0
C403 C 0.47741 0.28484 0.74967 0.0
C404 C 0.49897 0.26256 0.73738 0.0
C405 C 0.49662 0.31226 0.77312 0.0
C406 C 0.53833 0.31885 0.78385 0.0
C407 C 0.56064 0.29802 0.77093 0.0
C408 C 0.54085 0.26964 0.74816 0.0
C409 C 0.55937 0.34742 0.80856 0.0
C410 C 0.60023 0.3892 0.80512 0.0
C411 C 0.54142 0.33243 0.83546 0.0
C412 C 0.49955 0.28751 0.84062 0.0
C413 C 0.49633 0.24658 0.83091 0.0
C414 C 0.45717 0.20443 0.83643 0.0
C415 C 0.42144 0.20259 0.85228 0.0
C416 C 0.42487 0.2429 0.86265 0.0
C417 C 0.46348 0.28521 0.8567 0.0
H418 H 0.3913 0.16992 0.85671 0.0
H419 H 0.7889 0.56166 0.80543 0.0
H420 H 0.33865 0.3976 0.02332 0.0
H421 H 0.40979 0.41796 0.04779 0.0
H422 H 0.35627 0.44779 0.12126 0.0
H423 H 0.28449 0.42684 0.09689 0.0
H424 H 0.43757 0.52036 0.10358 0.0
H425 H 0.38512 0.36799 0.12796 0.0
H426 H 0.346 0.28406 0.12295 0.0
H427 H 0.44241 0.2975 0.05999 0.0
H428 H 0.48172 0.38151 0.06426 0.0
H429 H 0.68303 0.53891 0.10064 0.0
H430 H 0.60818 0.50991 0.12389 0.0
H431 H 0.55909 0.55338 0.05419 0.0
H432 H 0.63274 0.58101 0.03087 0.0
H433 H 0.52768 0.43999 0.09917 0.0
H434 H 0.48818 0.58804 0.07546 0.0
H435 H 0.52775 0.67204 0.07982 0.0
H436 H 0.61493 0.66701 0.14294 0.0
H437 H 0.57544 0.58286 0.13933 0.0
C438 C 0.34159 0.40736 0.04489 0.0
C439 C 0.30628 0.41091 0.05817 0.0
C440 C 0.38206 0.41861 0.05894 0.0
C441 C 0.3881 0.43403 0.08642 0.0
C442 C 0.35202 0.43552 0.10017 0.0
C443 C 0.31111 0.42351 0.08622 0.0
C444 C 0.43461 0.45534 0.09855 0.0
C445 C 0.45724 0.50272 0.10331 0.0
C446 C 0.45975 0.43187 0.09924 0.0
C447 C 0.43647 0.38121 0.09651 0.0
C448 C 0.39788 0.3531 0.11295 0.0
C449 C 0.37567 0.30547 0.11024 0.0
C450 C 0.39174 0.28546 0.09118 0.0
C451 C 0.43008 0.31305 0.0748 0.0
C452 C 0.45242 0.3607 0.07741 0.0
C453 C 0.65651 0.54334 0.09079 0.0
C454 C 0.66317 0.56197 0.06404 0.0
C455 C 0.61395 0.52675 0.10401 0.0
C456 C 0.5784 0.52999 0.09086 0.0
C457 C 0.58634 0.55128 0.06489 0.0
C458 C 0.62822 0.56678 0.05149 0.0
C459 C 0.53077 0.50537 0.10142 0.0
C460 C 0.50784 0.45735 0.10086 0.0
C461 C 0.50533 0.52824 0.10462 0.0
C462 C 0.52866 0.57894 0.10717 0.0
C463 C 0.51544 0.60471 0.0905 0.0
C464 C 0.53798 0.65242 0.09277 0.0
C465 C 0.57382 0.67485 0.11165 0.0
C466 C 0.58719 0.6496 0.12831 0.0
C467 C 0.56476 0.60188 0.12613 0.0
H468 H 0.59125 0.71179 0.11335 0.0
H469 H 0.37447 0.24857 0.08911 0.0
H470 H 0.09646 0.69869 0.42165 0.0
H471 H 0.05244 0.62335 0.44418 0.0
H472 H 0.13514 0.57704 0.40168 0.0
H473 H 0.17759 0.65116 0.37848 0.0
H474 H 0.00813 0.55154 0.40322 0.0
H475 H 0.13471 0.49262 0.44817 0.0
H476 H 0.1979 0.52036 0.48184 0.0
H477 H 0.15448 0.60934 0.51779 0.0
H478 H 0.0905 0.58163 0.48471 0.0
H479 H 0.9544 0.34876 0.35089 0.0
H480 H 0.0103 0.42206 0.37096 0.0
H481 H 0.94885 0.3754 0.45144 0.0
H482 H 0.8934 0.30132 0.43159 0.0
H483 H 0.05048 0.44629 0.44987 0.0
H484 H 0.90074 0.41824 0.42046 0.0
H485 H 0.83615 0.38573 0.38752 0.0
H486 H 0.92537 0.4727 0.32321 0.0
H487 H 0.99066 0.50516 0.35566 0.0
C488 C 0.10582 0.67264 0.41782 0.0
C489 C 0.13933 0.67974 0.39801 0.0
C490 C 0.08112 0.63002 0.43086 0.0
C491 C 0.09098 0.59499 0.42477 0.0
C492 C 0.12755 0.6039 0.40696 0.0
C493 C 0.15125 0.64586 0.39342 0.0
C494 C 0.05675 0.54676 0.43012 0.0
C495 C 0.01674 0.52861 0.41414 0.0
C496 C 0.06808 0.51707 0.44446 0.0
C497 C 0.10767 0.53502 0.4638 0.0
C498 C 0.13837 0.5179 0.46333 0.0
C499 C 0.17434 0.53358 0.48238 0.0
C500 C 0.18004 0.56639 0.50205 0.0
C501 C 0.14994 0.58381 0.5026 0.0
C502 C 0.11392 0.56826 0.48361 0.0
C503 C 0.95402 0.35346 0.37304 0.0
C504 C 0.91917 0.32001 0.38963 0.0
C505 C 0.98604 0.39515 0.3845 0.0
C506 C 0.98283 0.40412 0.41251 0.0
C507 C 0.95166 0.36889 0.42979 0.0
C508 C 0.91997 0.32673 0.41837 0.0
C509 C 0.0043 0.45211 0.42159 0.0
C510 C 0.04137 0.46959 0.43998 0.0
C511 C 0.99033 0.48157 0.40964 0.0
C512 C 0.95055 0.46414 0.39051 0.0
C513 C 0.90655 0.43045 0.3993 0.0
C514 C 0.86985 0.41197 0.3807 0.0
C515 C 0.87665 0.4272 0.3533 0.0
C516 C 0.92014 0.46104 0.34446 0.0
C517 C 0.95697 0.47956 0.36297 0.0
H518 H 0.84824 0.4128 0.33892 0.0
H519 H 0.20799 0.57857 0.51672 0.0
H520 H 0.49994 0.12641 0.7378 0.0
H521 H 0.51389 0.06863 0.75872 0.0
H522 H 0.36915 0.98505 0.77657 0.0
H523 H 0.35526 0.04391 0.75592 0.0
H524 H 0.49475 0.00614 0.80429 0.0
H525 H 0.3405 0.89433 0.74315 0.0
H526 H 0.28745 0.89799 0.70915 0.0
H527 H 0.40052 0.01442 0.67031 0.0
H528 H 0.45406 0.01108 0.70396 0.0
H529 H 0.5464 0.82752 0.75757 0.0
H530 H 0.50787 0.86449 0.78033 0.0
H531 H 0.53145 0.94842 0.70788 0.0
H532 H 0.56896 0.91123 0.68496 0.0
H533 H 0.44161 0.90258 0.72306 0.0
H534 H 0.59311 0.99177 0.76788 0.0
H535 H 0.65505 -0.00275 0.7979 0.0
H536 H 0.55894 0.93586 0.86476 0.0
H537 H 0.49637 0.92969 0.835 0.0
C538 C 0.47143 0.09649 0.74719 0.0
C539 C 0.42651 0.08864 0.7448 0.0
C540 C 0.47947 0.06384 0.75954 0.0
C541 C 0.44248 0.02243 0.76893 0.0
C542 C 0.3981 0.01695 0.76953 0.0
C543 C 0.39015 0.05023 0.75753 0.0
C544 C 0.4492 0.98235 0.76925 0.0
C545 C 0.48193 0.98214 0.78721 0.0
C546 C 0.4328 0.95146 0.74678 0.0
C547 C 0.40101 0.95253 0.72603 0.0
C548 C 0.35392 0.92049 0.72724 0.0
C549 C 0.32381 0.92256 0.70808 0.0
C550 C 0.34059 0.95647 0.68761 0.0
C551 C 0.38754 0.9882 0.68616 0.0
C552 C 0.41776 0.98618 0.70522 0.0
C553 C 0.54431 0.85469 0.74682 0.0
C554 C 0.56039 0.86651 0.71947 0.0
C555 C 0.52206 0.87548 0.75978 0.0
C556 C 0.51627 0.90859 0.74559 0.0
C557 C 0.53497 0.92234 0.71898 0.0
C558 C 0.55664 0.90135 0.70597 0.0
C559 C 0.48896 0.92801 0.75723 0.0
C560 C 0.45227 0.92408 0.74136 0.0
C561 C 0.50236 0.9554 0.7813 0.0
C562 C 0.54008 0.95981 0.79918 0.0
C563 C 0.5852 0.97923 0.78894 0.0
C564 C 0.6204 0.9825 0.80591 0.0
C565 C 0.61091 0.96677 0.8332 0.0
C566 C 0.56623 0.94794 0.84361 0.0
C567 C 0.5309 0.94459 0.82672 0.0
H568 H 0.63819 0.96927 0.84629 0.0
H569 H 0.31723 0.95812 0.67286 0.0
H570 H 0.54098 0.66082 0.60053 0.0
H571 H 0.5092 0.58041 0.58852 0.0
H572 H 0.57944 0.56236 0.65776 0.0
H573 H 0.61066 0.64254 0.67044 0.0
H574 H 0.53112 0.51045 0.57976 0.0
H575 H 0.49735 0.4796 0.69744 0.0
H576 H 0.49008 0.51913 0.73848 0.0
H577 H 0.44932 0.59657 0.68689 0.0
H578 H 0.45529 0.55674 0.64561 0.0
H579 H 0.47226 0.29069 0.62401 0.0
H580 H 0.49707 0.36768 0.60817 0.0
H581 H 0.37217 0.35806 0.64034 0.0
H582 H 0.34933 0.28185 0.65872 0.0
H583 H 0.43563 0.42572 0.66084 0.0
H584 H 0.40952 0.37867 0.56734 0.0
H585 H 0.41075 0.33648 0.52598 0.0
H586 H 0.55822 0.41187 0.5255 0.0
H587 H 0.558 0.45396 0.56715 0.0
C588 C 0.55086 0.64019 0.61279 0.0
C589 C 0.57698 0.65761 0.63708 0.0
C590 C 0.53291 0.59427 0.60568 0.0
C591 C 0.54106 0.56546 0.62271 0.0
C592 C 0.57228 0.5842 0.64467 0.0
C593 C 0.59002 0.63003 0.65191 0.0
C594 C 0.51042 0.51548 0.62116 0.0
C595 C 0.51004 0.49156 0.59733 0.0
C596 C 0.48133 0.49155 0.64365 0.0
C597 C 0.47719 0.51544 0.6684 0.0
C598 C 0.48663 0.5049 0.69486 0.0
C599 C 0.48271 0.52734 0.71816 0.0
C600 C 0.46926 0.56032 0.71527 0.0
C601 C 0.45976 0.57102 0.68908 0.0
C602 C 0.46341 0.54852 0.66572 0.0
C603 C 0.44935 0.3044 0.62697 0.0
C604 C 0.40921 0.2808 0.64291 0.0
C605 C 0.4634 0.3485 0.61757 0.0
C606 C 0.43655 0.36902 0.62291 0.0
C607 C 0.39377 0.3432 0.63619 0.0
C608 C 0.3806 0.29969 0.64662 0.0
C609 C 0.45714 0.4193 0.61971 0.0
C610 C 0.45571 0.44387 0.64279 0.0
C611 C 0.48334 0.44353 0.59618 0.0
C612 C 0.4837 0.41948 0.57047 0.0
C613 C 0.44224 0.38622 0.55847 0.0
C614 C 0.44276 0.36226 0.53498 0.0
C615 C 0.48454 0.37147 0.52314 0.0
C616 C 0.52589 0.40481 0.53468 0.0
C617 C 0.52558 0.42881 0.55821 0.0
H618 H 0.48488 0.35277 0.50501 0.0
H619 H 0.46596 0.57737 0.73335 0.0
H620 H 0.04537 0.39624 1.00536 0.0
H621 H -0.0028 0.42514 0.98685 0.0
H622 H 0.08821 0.48241 0.91678 0.0
H623 H 0.13697 0.45394 0.93524 0.0
H624 H 0.07831 0.54605 0.9424 0.0
H625 H 0.97682 0.40052 0.90613 0.0
H626 H 0.92973 0.31632 0.90483 0.0
H627 H 0.84528 0.31941 0.97071 0.0
H628 H 0.89222 0.40355 0.97273 0.0
H629 H 0.84947 0.56126 0.93661 0.0
H630 H 0.8999 0.53564 0.9168 0.0
H631 H 0.98686 0.58546 0.98875 0.0
H632 H 0.93694 0.61123 1.00866 0.0
H633 H 0.90818 0.46908 0.9411 0.0
H634 H 0.09277 0.60958 0.97504 0.0
H635 H 0.13977 0.69379 0.97476 0.0
H636 H 0.05831 0.70095 0.90868 0.0
H637 H 0.01121 0.61674 0.90823 0.0
C638 C 0.05457 0.41387 0.98564 0.0
C639 C 0.09544 0.42342 0.97205 0.0
C640 C 0.0268 0.43019 0.97497 0.0
C641 C 0.03916 0.45595 0.95041 0.0
C642 C 0.07815 0.46269 0.93578 0.0
C643 C 0.10597 0.44639 0.94643 0.0
C644 C 0.01522 0.48122 0.94262 0.0
C645 C 0.04112 0.52925 0.94162 0.0
C646 C 0.96684 0.45919 0.94072 0.0
C647 C 0.93817 0.40847 0.93958 0.0
C648 C 0.94836 0.38326 0.92045 0.0
C649 C 0.92167 0.33551 0.91958 0.0
C650 C 0.88454 0.31253 0.93768 0.0
C651 C 0.874 0.33726 0.95667 0.0
C652 C 0.9006 0.38501 0.95764 0.0
C653 C 0.88005 0.56797 0.9479 0.0
C654 C 0.88876 0.58748 0.9745 0.0
C655 C 0.9088 0.55327 0.93649 0.0
C656 C 0.94698 0.5585 0.95131 0.0
C657 C 0.95785 0.58153 0.97678 0.0
C658 C 0.92907 0.59602 0.98825 0.0
C659 C 0.97122 0.53383 0.94283 0.0
C660 C 0.9454 0.48589 0.94086 0.0
C661 C 0.01968 0.55595 0.9417 0.0
C662 C 0.04834 0.60671 0.94165 0.0
C663 C 0.08507 0.62904 0.96028 0.0
C664 C 0.11169 0.67682 0.9603 0.0
C665 C 0.10201 0.70271 0.94174 0.0
C666 C 0.06571 0.68086 0.92309 0.0
C667 C 0.039 0.6331 0.92297 0.0
H668 H 0.12264 0.73969 0.9418 0.0
H669 H 0.86393 0.27557 0.93697 0.0
H670 H 0.3036 0.87789 0.26968 0.0
H671 H 0.38032 0.94067 0.26042 0.0
H672 H 0.35882 0.02547 0.31853 0.0
H673 H 0.28229 0.96213 0.3288 0.0
H674 H 0.44049 0.02929 0.25078 0.0
H675 H 0.4367 0.05312 0.36886 0.0
H676 H 0.3899 0.01187 0.4097 0.0
H677 H 0.34269 0.88355 0.36799 0.0
H678 H 0.38962 0.92385 0.32731 0.0
H679 H 0.66522 0.1863 0.29721 0.0
H680 H 0.58482 0.14301 0.28438 0.0
H681 H 0.57031 0.02673 0.33073 0.0
H682 H 0.65081 0.07114 0.34495 0.0
H683 H 0.50645 0.04116 0.34422 0.0
H684 H 0.56626 0.0301 0.25709 0.0
H685 H 0.61504 0.05718 0.21537 0.0
H686 H 0.55368 0.13812 0.19262 0.0
H687 H 0.50494 0.112 0.23442 0.0
C688 C 0.31426 0.91042 0.27971 0.0
C689 C 0.28805 0.91431 0.30119 0.0
C690 C 0.35819 0.94654 0.27415 0.0
C691 C 0.37575 0.98678 0.28978 0.0
C692 C 0.34606 0.99398 0.30687 0.0
C693 C 0.30232 0.95763 0.31279 0.0
C694 C 0.42584 0.01378 0.29404 0.0
C695 C 0.45515 0.03263 0.27119 0.0
C696 C 0.44473 0.01593 0.32054 0.0
C697 C 0.41605 0.99155 0.34493 0.0
C698 C 0.41625 0.01609 0.36848 0.0
C699 C 0.38978 0.99285 0.39161 0.0
C700 C 0.36322 0.94509 0.39145 0.0
C701 C 0.3631 0.92048 0.36816 0.0
C702 C 0.38962 0.94349 0.34505 0.0
C703 C 0.64517 0.15122 0.30434 0.0
C704 C 0.66416 0.13197 0.32213 0.0
C705 C 0.5992 0.12641 0.29679 0.0
C706 C 0.57164 0.08147 0.30629 0.0
C707 C 0.59104 0.06149 0.32319 0.0
C708 C 0.63691 0.08673 0.33129 0.0
C709 C 0.5217 0.05713 0.30095 0.0
C710 C 0.49226 0.03871 0.32374 0.0
C711 C 0.50301 0.05363 0.27421 0.0
C712 C 0.53226 0.06943 0.24904 0.0
C713 C 0.56343 0.05397 0.24331 0.0
C714 C 0.59102 0.06909 0.21962 0.0
C715 C 0.58755 0.09945 0.20139 0.0
C716 C 0.55637 0.11465 0.20678 0.0
C717 C 0.52872 0.09966 0.23045 0.0
H718 H 0.60893 0.11111 0.18306 0.0
H719 H 0.34291 0.92717 0.40941 0.0
H720 H 0.38157 0.23756 0.80465 0.0
H721 H 0.3513 0.2581 0.84503 0.0
H722 H 0.21965 0.2037 0.80534 0.0
H723 H 0.24991 0.18371 0.76452 0.0
H724 H 0.2486 0.28831 0.8313 0.0
H725 H 0.23237 0.14299 0.85236 0.0
H726 H 0.25572 0.08472 0.85837 0.0
H727 H 0.35012 0.16577 0.92209 0.0
H728 H 0.32819 0.22513 0.91602 0.0
H729 H 0.13641 0.30209 0.952 0.0
H730 H 0.15623 0.27213 0.91128 0.0
H731 H 0.28363 0.30072 0.95008 0.0
H732 H 0.2619 0.32762 0.99163 0.0
H733 H 0.25178 0.22491 0.9234 0.0
H734 H 0.27219 0.37447 0.89779 0.0
H735 H 0.24286 0.4286 0.89353 0.0
H736 H 0.13581 0.33533 0.83965 0.0
H737 H 0.16412 0.28046 0.84364 0.0
C738 C 0.34608 0.2297 0.80459 0.0
C739 C 0.31789 0.20855 0.78159 0.0
C740 C 0.32886 0.24129 0.8277 0.0
C741 C 0.28307 0.23162 0.82845 0.0
C742 C 0.25504 0.21126 0.80527 0.0
C743 C 0.27227 0.19969 0.78205 0.0
C744 C 0.26476 0.24269 0.85357 0.0
C745 C 0.24885 0.27408 0.85139 0.0
C746 C 0.26549 0.22449 0.87988 0.0
C747 C 0.27909 0.18894 0.88342 0.0
C748 C 0.25858 0.14876 0.86739 0.0
C749 C 0.27147 0.11543 0.87087 0.0
C750 C 0.30444 0.12157 0.89057 0.0
C751 C 0.32454 0.16103 0.90686 0.0
C752 C 0.3119 0.19455 0.90339 0.0
C753 C 0.16825 0.30116 0.95188 0.0
C754 C 0.19759 0.31671 0.97481 0.0
C755 C 0.1799 0.28463 0.92849 0.0
C756 C 0.22215 0.28533 0.92711 0.0
C757 C 0.25096 0.29996 0.95047 0.0
C758 C 0.23861 0.31526 0.9742 0.0
C759 C 0.23666 0.27142 0.90134 0.0
C760 C 0.25178 0.23937 0.90335 0.0
C761 C 0.23515 0.28895 0.87489 0.0
C762 C 0.22007 0.32324 0.87117 0.0
C763 C 0.24246 0.36557 0.88499 0.0
C764 C 0.22599 0.39632 0.88268 0.0
C765 C 0.18743 0.3853 0.86651 0.0
C766 C 0.16553 0.3437 0.85231 0.0
C767 C 0.18188 0.31286 0.85446 0.0
H768 H 0.17475 0.40917 0.8648 0.0
H769 H 0.31439 0.09574 0.89322 0.0
H770 H 0.93145 0.21875 0.327 0.0
H771 H 0.98047 0.24512 0.28538 0.0
H772 H 0.86565 0.23025 0.23747 0.0
H773 H 0.81617 0.2015 0.2784 0.0
H774 H 0.94999 0.1932 0.22398 0.0
H775 H 0.92701 0.34909 0.21403 0.0
H776 H 0.91923 0.40435 0.24411 0.0
H777 H 0.00217 0.38931 0.30601 0.0
H778 H 0.01121 0.33481 0.27618 0.0
H779 H 0.02216 0.27697 0.08813 0.0
H780 H 0.97754 0.25197 0.13123 0.0
H781 H 0.08858 0.36436 0.17466 0.0
H782 H 0.13254 0.38998 0.13162 0.0
H783 H 0.01103 0.35414 0.19338 0.0
H784 H 0.07147 0.25342 0.17738 0.0
H785 H 0.08599 0.19907 0.15106 0.0
H786 H 0.94091 0.10497 0.14662 0.0
H787 H 0.92551 0.15905 0.17263 0.0
C788 C 0.91668 0.22062 0.30749 0.0
C789 C 0.87036 0.20923 0.30598 0.0
C790 C 0.94465 0.2358 0.28383 0.0
C791 C 0.9267 0.24023 0.25855 0.0
C792 C 0.8802 0.2276 0.2569 0.0
C793 C 0.85215 0.21165 0.28033 0.0
C794 C 0.95619 0.25837 0.23369 0.0
C795 C 0.96348 0.22835 0.21721 0.0
C796 C 0.97423 0.30435 0.22527 0.0
C797 C 0.96952 0.33773 0.24295 0.0
C798 C 0.94382 0.35785 0.23397 0.0
C799 C 0.93916 0.38897 0.25098 0.0
C800 C 0.95998 0.40013 0.27695 0.0
C801 C 0.98581 0.38044 0.28595 0.0
C802 C 0.99073 0.34947 0.26901 0.0
C803 C 0.03684 0.29637 0.10687 0.0
C804 C 0.08096 0.33508 0.1066 0.0
C805 C 0.01144 0.28203 0.13152 0.0
C806 C 0.02996 0.3058 0.1564 0.0
C807 C 0.07351 0.34531 0.15586 0.0
C808 C 0.09873 0.35977 0.13124 0.0
C809 C 0.00482 0.28879 0.18313 0.0
C810 C -0.00215 0.31896 0.19996 0.0
C811 C 0.98821 0.24312 0.19227 0.0
C812 C -0.00266 0.21046 0.17672 0.0
C813 C 0.04266 0.22127 0.17063 0.0
C814 C 0.05105 0.1905 0.15579 0.0
C815 C 0.01439 0.14865 0.14711 0.0
C816 C 0.96927 0.13743 0.15332 0.0
C817 C 0.96069 0.16811 0.16813 0.0
H818 H 0.02095 0.12487 0.13563 0.0
H819 H 0.95615 0.42408 0.29008 0.0
H820 H 0.69396 0.93053 0.65956 0.0
H821 H 0.7141 0.98261 0.61951 0.0
H822 H 0.65992 0.86673 0.56441 0.0
H823 H 0.63869 0.81492 0.60404 0.0
H824 H 0.75365 0.94585 0.55183 0.0
H825 H 0.59664 0.90443 0.57194 0.0
H826 H 0.53446 0.89666 0.60277 0.0
H827 H 0.60574 0.04221 0.61535 0.0
H828 H 0.66878 0.05058 0.58501 0.0
H829 H 0.74722 0.03942 0.42214 0.0
H830 H 0.72639 0.9908 0.46345 0.0
H831 H 0.74132 0.10355 0.51354 0.0
H832 H 0.76077 0.15166 0.47223 0.0
H833 H 0.66897 0.02814 0.53032 0.0
H834 H 0.82567 0.07179 0.51073 0.0
H835 H 0.89087 0.081 0.48229 0.0
H836 H 0.82454 0.93538 0.47076 0.0
H837 H 0.75863 0.92534 0.49885 0.0
C838 C 0.68667 0.91642 0.63886 0.0
C839 C 0.66487 0.86887 0.63479 0.0
C840 C 0.69796 0.94603 0.61609 0.0
C841 C 0.68842 0.92837 0.58907 0.0
C842 C 0.6676 0.88097 0.58508 0.0
C843 C 0.65546 0.85148 0.60773 0.0
C844 C 0.69983 0.95893 0.56473 0.0
C845 C 0.73501 0.96366 0.54697 0.0
C846 C 0.67601 0.98275 0.55882 0.0
C847 C 0.63774 0.97797 0.57659 0.0
C848 C 0.59926 0.93464 0.58155 0.0
C849 C 0.56389 0.93014 0.59893 0.0
C850 C 0.56637 0.96888 0.61122 0.0
C851 C 0.60403 0.0122 0.60596 0.0
C852 C 0.63959 0.01683 0.58867 0.0
C853 C 0.74606 0.05372 0.44199 0.0
C854 C 0.75602 0.09935 0.44406 0.0
C855 C 0.73428 0.02601 0.4656 0.0
C856 C 0.73303 0.0437 0.49176 0.0
C857 C 0.74217 0.0891 0.49368 0.0
C858 C 0.75358 0.11666 0.47007 0.0
C859 C 0.72304 0.01522 0.51718 0.0
C860 C 0.688 0.01073 0.53517 0.0
C861 C 0.7474 0.99197 0.52351 0.0
C862 C 0.78702 -0.00214 0.50667 0.0
C863 C 0.82484 0.04176 0.50196 0.0
C864 C 0.86195 0.04713 0.48593 0.0
C865 C 0.8618 0.00881 0.47467 0.0
C866 C 0.82458 0.96503 0.47947 0.0
C867 C 0.78736 0.95948 0.49546 0.0
H868 H 0.89056 0.01303 0.46227 0.0
H869 H 0.53892 0.96536 0.62464 0.0
H870 H 0.61541 0.73349 0.79239 0.0
H871 H 0.64798 0.72151 0.83456 0.0
H872 H 0.77126 0.75085 0.79018 0.0
H873 H 0.73832 0.76216 0.74743 0.0
H874 H 0.74168 0.67662 0.82683 0.0
H875 H 0.77266 0.83196 0.82937 0.0
H876 H 0.7529 0.89328 0.826 0.0
H877 H 0.65866 0.8344 0.89393 0.0
H878 H 0.67728 0.7723 0.89744 0.0
H879 H 0.85488 0.73175 0.96835 0.0
H880 H 0.83979 0.75757 0.92398 0.0
H881 H 0.70081 0.64447 0.92528 0.0
H882 H 0.71492 0.62014 0.97017 0.0
H883 H 0.75286 0.77058 0.9088 0.0
H884 H 0.70228 0.59799 0.86069 0.0
H885 H 0.72008 0.53586 0.86756 0.0
H886 H 0.85742 0.6334 0.89193 0.0
H887 H 0.84081 0.69637 0.8848 0.0
C888 C 0.64945 0.73733 0.79154 0.0
C889 C 0.6746 0.74921 0.7667 0.0
C890 C 0.66803 0.73062 0.81569 0.0
C891 C 0.71234 0.73618 0.81566 0.0
C892 C 0.73708 0.74666 0.79068 0.0
C893 C 0.71835 0.75322 0.76634 0.0
C894 C 0.7327 0.73199 0.842 0.0
C895 C 0.7447 0.69764 0.84457 0.0
C896 C 0.73685 0.75946 0.86527 0.0
C897 C 0.7262 0.7973 0.86356 0.0
C898 C 0.74754 0.83194 0.8435 0.0
C899 C 0.73656 0.86686 0.84158 0.0
C900 C 0.70454 0.86773 0.85973 0.0
C901 C 0.68355 0.83376 0.87992 0.0
C902 C 0.69434 0.79871 0.88191 0.0
C903 C 0.82099 0.71281 0.95929 0.0
C904 C 0.78634 0.67323 0.97227 0.0
C905 C 0.81244 0.7276 0.93404 0.0
C906 C 0.76935 0.70262 0.92136 0.0
C907 C 0.73439 0.66393 0.9347 0.0
C908 C 0.74266 0.6497 0.96011 0.0
C909 C 0.76101 0.71507 0.89348 0.0
C910 C 0.7508 0.75048 0.89077 0.0
C911 C 0.75897 0.68905 0.87007 0.0
C912 C 0.77021 0.65179 0.87233 0.0
C913 C 0.7364 0.60623 0.86726 0.0
C914 C 0.74619 0.57086 0.87137 0.0
C915 C 0.78967 0.58056 0.88034 0.0
C916 C 0.82369 0.62586 0.88504 0.0
C917 C 0.81412 0.66142 0.88099 0.0
H918 H 0.797 0.55299 0.88354 0.0
H919 H 0.69599 0.89472 0.85816 0.0
H920 H 0.15118 0.7795 0.28002 0.0
H921 H 0.09971 0.758 0.24049 0.0
H922 H 0.98737 0.73343 0.2947 0.0
H923 H 0.03921 0.75486 0.33478 0.0
H924 H 0.96509 0.66474 0.25393 0.0
H925 H 0.03431 0.82804 0.25887 0.0
H926 H 0.09896 0.90708 0.26269 0.0
H927 H 0.15599 0.89083 0.18679 0.0
H928 H 0.09201 0.81142 0.18272 0.0
H929 H 0.82195 0.63968 0.13961 0.0
H930 H 0.86386 0.6641 0.18331 0.0
H931 H 0.99239 0.72203 0.13863 0.0
H932 H 0.95041 0.69994 0.09488 0.0
H933 H 0.00187 0.77645 0.17765 0.0
H934 H 0.93862 0.61203 0.17456 0.0
H935 H 0.87746 0.53118 0.17165 0.0
H936 H 0.81248 0.54783 0.24385 0.0
H937 H 0.873 0.62892 0.24704 0.0
C938 C 0.11541 0.76904 0.28364 0.0
C939 C 0.09908 0.76869 0.31048 0.0
C940 C 0.08614 0.75713 0.26098 0.0
C941 C 0.03993 0.74476 0.26464 0.0
C942 C 0.02305 0.74314 0.29149 0.0
C943 C 0.05257 0.75536 0.31429 0.0
C944 C 0.00976 0.73379 0.24016 0.0
C945 C 0.9725 0.68933 0.23742 0.0
C946 C 0.02029 0.76566 0.21842 0.0
C947 C 0.05849 0.81365 0.2206 0.0
C948 C 0.06078 0.84121 0.24309 0.0
C949 C 0.09729 0.8861 0.24528 0.0
C950 C 0.1316 0.90394 0.22502 0.0
C951 C 0.12939 0.87696 0.20248 0.0
C952 C 0.09297 0.83202 0.2002 0.0
C953 C 0.85917 0.65795 0.13919 0.0
C954 C 0.88304 0.66797 0.11396 0.0
C955 C 0.88312 0.67154 0.16419 0.0
C956 C 0.93141 0.69411 0.16444 0.0
C957 C 0.95519 0.70465 0.13909 0.0
C958 C 0.93123 0.69196 0.11408 0.0
C959 C 0.95736 0.70681 0.19097 0.0
C960 C 0.99399 0.75177 0.19415 0.0
C961 C 0.94654 0.6752 0.21301 0.0
C962 C 0.91002 0.62661 0.21085 0.0
C963 C 0.91108 0.59852 0.18967 0.0
C964 C 0.87657 0.55264 0.188 0.0
C965 C 0.84108 0.53451 0.20752 0.0
C966 C 0.83999 0.56205 0.22874 0.0
C967 C 0.87437 0.60791 0.2305 0.0
H968 H 0.81442 0.49916 0.20634 0.0
H969 H 0.15986 0.93869 0.22677 0.0
H970 H 0.36688 0.06505 0.65116 0.0
H971 H 0.3497 0.02744 0.60593 0.0
H972 H 0.26001 0.08177 0.58779 0.0
H973 H 0.27825 0.12047 0.63273 0.0
H974 H 0.27583 0.96424 0.58211 0.0
H975 H 0.26827 0.1098 0.51964 0.0
H976 H 0.30589 0.19419 0.52047 0.0
H977 H 0.4212 0.20148 0.56351 0.0
H978 H 0.3845 0.11729 0.56258 0.0
H979 H 0.16254 0.87063 0.45768 0.0
H980 H 0.18634 0.91381 0.50098 0.0
H981 H 0.31865 0.00638 0.46513 0.0
H982 H 0.29446 0.96385 0.42155 0.0
H983 H 0.2914 0.05286 0.49674 0.0
H984 H 0.30923 0.92315 0.5075 0.0
H985 H 0.28816 0.84174 0.50563 0.0
H986 H 0.17921 0.8081 0.56398 0.0
H987 H 0.19945 0.88931 0.56608 0.0
C988 C 0.34363 0.06903 0.63742 0.0
C989 C 0.32445 0.09619 0.64514 0.0
C990 C 0.33362 0.04733 0.61168 0.0
C991 C 0.30411 0.05233 0.59325 0.0
C992 C 0.28357 0.07813 0.60143 0.0
C993 C 0.29368 0.09991 0.62717 0.0
C994 C 0.2949 0.03078 0.56543 0.0
C995 C 0.27912 0.98363 0.56349 0.0
C996 C 0.3011 0.05638 0.54094 0.0
C997 C 0.32338 0.10716 0.54131 0.0
C998 C 0.3017 0.12942 0.5292 0.0
C999 C 0.32286 0.17724 0.5297 0.0
C1000 C 0.36583 0.20319 0.54213 0.0
C1001 C 0.38783 0.18138 0.554 0.0
C1002 C 0.36683 0.13362 0.55352 0.0
C1003 C 0.19643 0.90058 0.45893 0.0
C1004 C 0.22684 0.91371 0.4364 0.0
C1005 C 0.21013 0.92506 0.48372 0.0
C1006 C 0.25459 0.96286 0.48648 0.0
C1007 C 0.28427 0.97725 0.46354 0.0
C1008 C 0.2705 0.95283 0.4387 0.0
C1009 C 0.27048 0.98605 0.51364 0.0
C1010 C 0.28783 0.0335 0.51542 0.0
C1011 C 0.26793 0.96118 0.53785 0.0
C1012 C 0.25558 0.91226 0.53675 0.0
C1013 C 0.28056 0.89834 0.51978 0.0
C1014 C 0.26882 0.85226 0.5187 0.0
C1015 C 0.23225 0.81976 0.53458 0.0
C1016 C 0.20749 0.83332 0.55166 0.0
C1017 C 0.21913 0.87939 0.55285 0.0
H1018 H 0.22319 0.78409 0.53369 0.0
H1019 H 0.38212 0.24018 0.5425 0.0
loop_
_geom_bond_atom_site_label_1
_geom_bond_atom_site_label_2
_geom_bond_distance
_geom_bond_site_symmetry_2
_ccdc_geom_bond_type
Tb0 O3 2.453 1_554 S
Tb0 O4 2.596 1_554 S
Tb0 O5 2.374 . S
Tb0 O13 2.343 . S
Tb0 O15 2.353 1_554 S
Tb0 O17 2.427 . S
Tb0 O18 2.513 . S
C1 O5 1.251 . S
C1 O7 1.263 . S
Tb2 O4 2.343 . S
Tb2 O7 2.353 1_556 S
Tb2 O10 2.427 . S
Tb2 O11 2.513 . S
Tb2 O12 2.453 1_556 S
Tb2 O13 2.596 1_556 S
Tb2 O14 2.374 . S
O3 Tb0 2.453 1_556 S
O3 C19 1.245 . S
O4 Tb0 2.596 1_556 S
O4 Tb2 2.343 . S
O4 C19 1.259 . S
O5 Tb0 2.374 . S
O5 C1 1.251 . S
C6 O10 1.275 . S
C6 O11 1.246 . S
O7 C1 1.263 . S
O7 Tb2 2.353 1_554 S
C8 O12 1.245 . S
C8 O13 1.259 . S
C9 O14 1.250 . S
C9 O15 1.263 . S
O10 Tb2 2.427 . S
O10 C6 1.275 . S
O11 Tb2 2.513 . S
O11 C6 1.246 . S
O12 Tb2 2.453 1_554 S
O12 C8 1.245 . S
O13 Tb0 2.343 . S
O13 Tb2 2.596 1_554 S
O13 C8 1.259 . S
O14 Tb2 2.374 . S
O14 C9 1.250 . S
O15 Tb0 2.353 1_556 S
O15 C9 1.263 . S
C16 O17 1.275 . S
C16 O18 1.246 . S
O17 Tb0 2.427 . S
O17 C16 1.275 . S
O18 Tb0 2.513 . S
O18 C16 1.246 . S
C19 O3 1.245 . S
C19 O4 1.259 . S
Tb20 O23 2.453 . S
Tb20 O24 2.596 . S
Tb20 O25 2.374 . S
Tb20 O33 2.343 . S
Tb20 O35 2.353 . S
Tb20 O37 2.427 . S
Tb20 O38 2.513 . S
C21 O25 1.251 . S
C21 O27 1.263 . S
Tb22 O24 2.343 . S
Tb22 O27 2.353 . S
Tb22 O30 2.427 . S
Tb22 O31 2.513 . S
Tb22 O32 2.453 . S
Tb22 O33 2.596 . S
Tb22 O34 2.374 . S
O23 Tb20 2.453 . S
O23 C39 1.245 . S
O24 Tb20 2.596 . S
O24 Tb22 2.343 . S
O24 C39 1.259 . S
O25 Tb20 2.374 . S
O25 C21 1.251 . S
C26 O30 1.275 . S
C26 O31 1.246 . S
O27 C21 1.263 . S
O27 Tb22 2.353 . S
C28 O32 1.245 . S
C28 O33 1.259 . S
C29 O34 1.250 . S
C29 O35 1.263 . S
O30 Tb22 2.427 . S
O30 C26 1.275 . S
O31 Tb22 2.513 . S
O31 C26 1.246 . S
O32 Tb22 2.453 . S
O32 C28 1.245 . S
O33 Tb20 2.343 . S
O33 Tb22 2.596 . S
O33 C28 1.259 . S
O34 Tb22 2.374 . S
O34 C29 1.250 . S
O35 Tb20 2.353 . S
O35 C29 1.263 . S
C36 O37 1.275 . S
C36 O38 1.246 . S
O37 Tb20 2.427 . S
O37 C36 1.275 . S
O38 Tb20 2.513 . S
O38 C36 1.246 . S
C39 O23 1.245 . S
C39 O24 1.259 . S
Tb40 O43 2.453 . S
Tb40 O44 2.596 . S
Tb40 O45 2.374 . S
Tb40 O53 2.343 . S
Tb40 O55 2.353 . S
Tb40 O57 2.427 . S
Tb40 O58 2.513 . S
C41 O45 1.251 . S
C41 O47 1.263 . S
Tb42 O44 2.343 . S
Tb42 O47 2.353 . S
Tb42 O50 2.427 . S
Tb42 O51 2.513 . S
Tb42 O52 2.453 . S
Tb42 O53 2.596 . S
Tb42 O54 2.374 . S
O43 Tb40 2.453 . S
O43 C59 1.245 . S
O44 Tb40 2.596 . S
O44 Tb42 2.343 . S
O44 C59 1.259 . S
O45 Tb40 2.374 . S
O45 C41 1.251 . S
C46 O50 1.275 . S
C46 O51 1.246 . S
O47 C41 1.263 . S
O47 Tb42 2.353 . S
C48 O52 1.245 . S
C48 O53 1.259 . S
C49 O54 1.250 . S
C49 O55 1.263 . S
O50 Tb42 2.427 . S
O50 C46 1.275 . S
O51 Tb42 2.513 . S
O51 C46 1.246 . S
O52 Tb42 2.453 . S
O52 C48 1.245 . S
O53 Tb40 2.343 . S
O53 Tb42 2.596 . S
O53 C48 1.259 . S
O54 Tb42 2.374 . S
O54 C49 1.250 . S
O55 Tb40 2.353 . S
O55 C49 1.263 . S
C56 O57 1.275 . S
C56 O58 1.246 . S
O57 Tb40 2.427 . S
O57 C56 1.275 . S
O58 Tb40 2.513 . S
O58 C56 1.246 . S
C59 O43 1.245 . S
C59 O44 1.259 . S
Tb60 O63 2.453 1_554 S
Tb60 O64 2.596 1_554 S
Tb60 O65 2.374 . S
Tb60 O73 2.343 . S
Tb60 O75 2.353 1_554 S
Tb60 O77 2.427 . S
Tb60 O78 2.513 . S
C61 O65 1.251 . S
C61 O67 1.263 . S
Tb62 O64 2.343 . S
Tb62 O67 2.353 1_556 S
Tb62 O70 2.427 . S
Tb62 O71 2.513 . S
Tb62 O72 2.453 1_556 S
Tb62 O73 2.596 1_556 S
Tb62 O74 2.374 . S
O63 Tb60 2.453 1_556 S
O63 C79 1.245 . S
O64 Tb60 2.596 1_556 S
O64 Tb62 2.343 . S
O64 C79 1.259 . S
O65 Tb60 2.374 . S
O65 C61 1.251 . S
C66 O70 1.275 . S
C66 O71 1.246 . S
O67 C61 1.263 . S
O67 Tb62 2.353 1_554 S
C68 O72 1.245 . S
C68 O73 1.259 . S
C69 O74 1.250 . S
C69 O75 1.263 . S
O70 Tb62 2.427 . S
O70 C66 1.275 . S
O71 Tb62 2.513 . S
O71 C66 1.246 . S
O72 Tb62 2.453 1_554 S
O72 C68 1.245 . S
O73 Tb60 2.343 . S
O73 Tb62 2.596 1_554 S
O73 C68 1.259 . S
O74 Tb62 2.374 . S
O74 C69 1.250 . S
O75 Tb60 2.353 1_556 S
O75 C69 1.263 . S
C76 O77 1.275 . S
C76 O78 1.246 . S
O77 Tb60 2.427 . S
O77 C76 1.275 . S
O78 Tb60 2.513 . S
O78 C76 1.246 . S
C79 O63 1.245 . S
C79 O64 1.259 . S
Tb80 O83 2.453 . S
Tb80 O84 2.596 . S
Tb80 O85 2.374 . S
Tb80 O93 2.343 . S
Tb80 O95 2.353 . S
Tb80 O97 2.427 . S
Tb80 O98 2.513 . S
C81 O85 1.251 . S
C81 O87 1.263 . S
Tb82 O84 2.343 . S
Tb82 O87 2.353 . S
Tb82 O90 2.427 . S
Tb82 O91 2.513 . S
Tb82 O92 2.453 . S
Tb82 O93 2.596 . S
Tb82 O94 2.374 . S
O83 Tb80 2.453 . S
O83 C99 1.245 . S
O84 Tb80 2.596 . S
O84 Tb82 2.343 . S
O84 C99 1.259 . S
O85 Tb80 2.374 . S
O85 C81 1.251 . S
C86 O90 1.275 . S
C86 O91 1.246 . S
O87 C81 1.263 . S
O87 Tb82 2.353 . S
C88 O92 1.245 . S
C88 O93 1.259 . S
C89 O94 1.250 . S
C89 O95 1.263 . S
O90 Tb82 2.427 . S
O90 C86 1.275 . S
O91 Tb82 2.513 . S
O91 C86 1.246 . S
O92 Tb82 2.453 . S
O92 C88 1.245 . S
O93 Tb80 2.343 . S
O93 Tb82 2.596 . S
O93 C88 1.259 . S
O94 Tb82 2.374 . S
O94 C89 1.250 . S
O95 Tb80 2.353 . S
O95 C89 1.263 . S
C96 O97 1.275 . S
C96 O98 1.246 . S
O97 Tb80 2.427 . S
O97 C96 1.275 . S
O98 Tb80 2.513 . S
O98 C96 1.246 . S
C99 O83 1.245 . S
C99 O84 1.259 . S
Tb100 O103 2.453 . S
Tb100 O104 2.596 . S
Tb100 O105 2.374 . S
Tb100 O113 2.343 . S
Tb100 O115 2.353 . S
Tb100 O117 2.427 . S
Tb100 O118 2.513 . S
C101 O105 1.251 . S
C101 O107 1.263 . S
Tb102 O104 2.343 . S
Tb102 O107 2.353 . S
Tb102 O110 2.427 . S
Tb102 O111 2.513 . S
Tb102 O112 2.453 . S
Tb102 O113 2.596 . S
Tb102 O114 2.374 . S
O103 Tb100 2.453 . S
O103 C119 1.245 . S
O104 Tb100 2.596 . S
O104 Tb102 2.343 . S
O104 C119 1.259 . S
O105 Tb100 2.374 . S
O105 C101 1.251 . S
C106 O110 1.275 . S
C106 O111 1.246 . S
O107 C101 1.263 . S
O107 Tb102 2.353 . S
C108 O112 1.245 . S
C108 O113 1.259 . S
C109 O114 1.250 . S
C109 O115 1.263 . S
O110 Tb102 2.427 . S
O110 C106 1.275 . S
O111 Tb102 2.513 . S
O111 C106 1.246 . S
O112 Tb102 2.453 . S
O112 C108 1.245 . S
O113 Tb100 2.343 . S
O113 Tb102 2.596 . S
O113 C108 1.259 . S
O114 Tb102 2.374 . S
O114 C109 1.250 . S
O115 Tb100 2.353 . S
O115 C109 1.263 . S
C116 O117 1.275 . S
C116 O118 1.246 . S
O117 Tb100 2.427 . S
O117 C116 1.275 . S
O118 Tb100 2.513 . S
O118 C116 1.246 . S
C119 O103 1.245 . S
C119 O104 1.259 . S
H120 C138 0.951 . S
H121 C140 0.951 . S
H122 C142 0.950 . S
H123 C143 0.950 . S
H124 C145 0.950 . S
H125 C148 0.950 . S
H126 C149 0.950 . S
H127 C151 0.950 . S
H128 C152 0.950 . S
H129 C153 0.951 . S
H130 C155 0.951 . S
H131 C157 0.950 . S
H132 C158 0.950 . S
H133 C160 0.950 . S
H134 C163 0.950 . S
H135 C164 0.950 . S
H136 C166 0.950 . S
H137 C167 0.950 . S
C138 H120 0.951 . S
C138 C139 1.366 . S
C138 C140 1.388 . S
C139 C138 1.366 . S
C139 C143 1.385 . S
C140 H121 0.951 . S
C140 C138 1.388 . S
C140 C141 1.366 . S
C141 C140 1.366 . S
C141 C142 1.414 . S
C141 C144 1.499 . S
C142 H122 0.950 . S
C142 C141 1.414 . S
C142 C143 1.374 . S
C143 H123 0.950 . S
C143 C139 1.385 . S
C143 C142 1.374 . S
C144 C141 1.499 . S
C144 C145 1.373 . S
C144 C146 1.389 . S
C145 H124 0.950 . S
C145 C144 1.373 . S
C145 C161 1.377 . S
C146 C144 1.389 . S
C146 C147 1.524 . S
C146 C160 1.377 . S
C147 C146 1.524 . S
C147 C148 1.397 . S
C147 C152 1.363 . S
C148 H125 0.950 . S
C148 C147 1.397 . S
C148 C149 1.334 . S
C149 H126 0.950 . S
C149 C148 1.334 . S
C149 C150 1.287 . S
C150 C149 1.287 . S
C150 C151 1.524 . S
C150 H169 0.913 . S
C151 H127 0.950 . S
C151 C150 1.524 . S
C151 C152 1.415 . S
C152 H128 0.950 . S
C152 C147 1.363 . S
C152 C151 1.415 . S
C153 H129 0.951 . S
C153 C154 1.366 . S
C153 C155 1.388 . S
C154 C153 1.366 . S
C154 C158 1.385 . S
C155 H130 0.951 . S
C155 C153 1.388 . S
C155 C156 1.366 . S
C156 C155 1.366 . S
C156 C157 1.414 . S
C156 C159 1.499 . S
C157 H131 0.950 . S
C157 C156 1.414 . S
C157 C158 1.374 . S
C158 H132 0.950 . S
C158 C154 1.385 . S
C158 C157 1.374 . S
C159 C156 1.499 . S
C159 C160 1.373 . S
C159 C161 1.389 . S
C160 H133 0.950 . S
C160 C146 1.377 . S
C160 C159 1.373 . S
C161 C145 1.377 . S
C161 C159 1.389 . S
C161 C162 1.524 . S
C162 C161 1.524 . S
C162 C163 1.397 . S
C162 C167 1.363 . S
C163 H134 0.950 . S
C163 C162 1.397 . S
C163 C164 1.334 . S
C164 H135 0.950 . S
C164 C163 1.334 . S
C164 C165 1.287 . S
C165 C164 1.287 . S
C165 C166 1.524 . S
C165 H168 0.999 . S
C166 H136 0.950 . S
C166 C165 1.524 . S
C166 C167 1.415 . S
C167 H137 0.950 . S
C167 C162 1.363 . S
C167 C166 1.415 . S
H168 C165 0.999 . S
H169 C150 0.913 . S
H170 C188 0.951 . S
H171 C190 0.951 . S
H172 C192 0.950 . S
H173 C193 0.950 . S
H174 C195 0.950 . S
H175 C198 0.950 . S
H176 C199 0.950 . S
H177 C201 0.950 . S
H178 C202 0.950 . S
H179 C203 0.951 . S
H180 C205 0.951 . S
H181 C207 0.950 . S
H182 C208 0.950 . S
H183 C210 0.950 . S
H184 C213 0.950 . S
H185 C214 0.950 . S
H186 C216 0.950 . S
H187 C217 0.950 . S
C188 H170 0.951 . S
C188 C189 1.366 . S
C188 C190 1.388 . S
C189 C188 1.366 . S
C189 C193 1.385 . S
C190 H171 0.951 . S
C190 C188 1.388 . S
C190 C191 1.366 . S
C191 C190 1.366 . S
C191 C192 1.414 . S
C191 C194 1.499 . S
C192 H172 0.950 . S
C192 C191 1.414 . S
C192 C193 1.374 . S
C193 H173 0.950 . S
C193 C189 1.385 . S
C193 C192 1.374 . S
C194 C191 1.499 . S
C194 C195 1.373 . S
C194 C196 1.389 . S
C195 H174 0.950 . S
C195 C194 1.373 . S
C195 C211 1.377 . S
C196 C194 1.389 . S
C196 C197 1.524 . S
C196 C210 1.377 . S
C197 C196 1.524 . S
C197 C198 1.397 . S
C197 C202 1.363 . S
C198 H175 0.950 . S
C198 C197 1.397 . S
C198 C199 1.334 . S
C199 H176 0.950 . S
C199 C198 1.334 . S
C199 C200 1.287 . S
C200 C199 1.287 . S
C200 C201 1.524 . S
C200 H219 0.913 . S
C201 H177 0.950 . S
C201 C200 1.524 . S
C201 C202 1.415 . S
C202 H178 0.950 . S
C202 C197 1.363 . S
C202 C201 1.415 . S
C203 H179 0.951 . S
C203 C204 1.366 . S
C203 C205 1.388 . S
C204 C203 1.366 . S
C204 C208 1.385 . S
C205 H180 0.951 . S
C205 C203 1.388 . S
C205 C206 1.366 . S
C206 C205 1.366 . S
C206 C207 1.414 . S
C206 C209 1.499 . S
C207 H181 0.950 . S
C207 C206 1.414 . S
C207 C208 1.374 . S
C208 H182 0.950 . S
C208 C204 1.385 . S
C208 C207 1.374 . S
C209 C206 1.499 . S
C209 C210 1.373 . S
C209 C211 1.389 . S
C210 H183 0.950 . S
C210 C196 1.377 . S
C210 C209 1.373 . S
C211 C195 1.377 . S
C211 C209 1.389 . S
C211 C212 1.524 . S
C212 C211 1.524 . S
C212 C213 1.397 . S
C212 C217 1.363 . S
C213 H184 0.950 . S
C213 C212 1.397 . S
C213 C214 1.334 . S
C214 H185 0.950 . S
C214 C213 1.334 . S
C214 C215 1.287 . S
C215 C214 1.287 . S
C215 C216 1.524 . S
C215 H218 0.999 . S
C216 H186 0.950 . S
C216 C215 1.524 . S
C216 C217 1.415 . S
C217 H187 0.950 . S
C217 C212 1.363 . S
C217 C216 1.415 . S
H218 C215 0.999 . S
H219 C200 0.913 . S
H220 C238 0.951 . S
H221 C240 0.951 . S
H222 C242 0.950 . S
H223 C243 0.950 . S
H224 C245 0.950 . S
H225 C248 0.950 . S
H226 C249 0.950 . S
H227 C251 0.950 . S
H228 C252 0.950 . S
H229 C253 0.951 . S
H230 C255 0.951 . S
H231 C257 0.950 . S
H232 C258 0.950 . S
H233 C260 0.950 . S
H234 C263 0.950 . S
H235 C264 0.950 . S
H236 C266 0.950 . S
H237 C267 0.950 . S
C238 H220 0.951 . S
C238 C239 1.366 . S
C238 C240 1.388 . S
C239 C238 1.366 . S
C239 C243 1.385 . S
C240 H221 0.951 . S
C240 C238 1.388 . S
C240 C241 1.366 . S
C241 C240 1.366 . S
C241 C242 1.414 . S
C241 C244 1.499 . S
C242 H222 0.950 . S
C242 C241 1.414 . S
C242 C243 1.374 . S
C243 H223 0.950 . S
C243 C239 1.385 . S
C243 C242 1.374 . S
C244 C241 1.499 . S
C244 C245 1.373 . S
C244 C246 1.389 . S
C245 H224 0.950 . S
C245 C244 1.373 . S
C245 C261 1.377 . S
C246 C244 1.389 . S
C246 C247 1.524 . S
C246 C260 1.377 . S
C247 C246 1.524 . S
C247 C248 1.397 . S
C247 C252 1.363 . S
C248 H225 0.950 . S
C248 C247 1.397 . S
C248 C249 1.334 . S
C249 H226 0.950 . S
C249 C248 1.334 . S
C249 C250 1.287 . S
C250 C249 1.287 . S
C250 C251 1.524 . S
C250 H269 0.913 . S
C251 H227 0.950 . S
C251 C250 1.524 . S
C251 C252 1.415 . S
C252 H228 0.950 . S
C252 C247 1.363 . S
C252 C251 1.415 . S
C253 H229 0.951 . S
C253 C254 1.366 . S
C253 C255 1.388 . S
C254 C253 1.366 . S
C254 C258 1.385 . S
C255 H230 0.951 . S
C255 C253 1.388 . S
C255 C256 1.366 . S
C256 C255 1.366 . S
C256 C257 1.414 . S
C256 C259 1.499 . S
C257 H231 0.950 . S
C257 C256 1.414 . S
C257 C258 1.374 . S
C258 H232 0.950 . S
C258 C254 1.385 . S
C258 C257 1.374 . S
C259 C256 1.499 . S
C259 C260 1.373 . S
C259 C261 1.389 . S
C260 H233 0.950 . S
C260 C246 1.377 . S
C260 C259 1.373 . S
C261 C245 1.377 . S
C261 C259 1.389 . S
C261 C262 1.524 . S
C262 C261 1.524 . S
C262 C263 1.397 . S
C262 C267 1.363 . S
C263 H234 0.950 . S
C263 C262 1.397 . S
C263 C264 1.334 . S
C264 H235 0.950 . S
C264 C263 1.334 . S
C264 C265 1.287 . S
C265 C264 1.287 . S
C265 C266 1.524 . S
C265 H268 0.999 . S
C266 H236 0.950 . S
C266 C265 1.524 . S
C266 C267 1.415 . S
C267 H237 0.950 . S
C267 C262 1.363 . S
C267 C266 1.415 . S
H268 C265 0.999 . S
H269 C250 0.913 . S
H270 C288 0.951 . S
H271 C290 0.951 . S
H272 C292 0.950 . S
H273 C293 0.950 . S
H274 C295 0.950 . S
H275 C298 0.950 . S
H276 C299 0.950 . S
H277 C301 0.950 . S
H278 C302 0.950 . S
H279 C303 0.951 . S
H280 C305 0.951 . S
H281 C307 0.950 . S
H282 C308 0.950 . S
H283 C310 0.950 . S
H284 C313 0.950 . S
H285 C314 0.950 . S
H286 C316 0.950 . S
H287 C317 0.950 . S
C288 H270 0.951 . S
C288 C289 1.366 . S
C288 C290 1.388 . S
C289 C288 1.366 . S
C289 C293 1.385 . S
C290 H271 0.951 . S
C290 C288 1.388 . S
C290 C291 1.366 . S
C291 C290 1.366 . S
C291 C292 1.414 . S
C291 C294 1.499 . S
C292 H272 0.950 . S
C292 C291 1.414 . S
C292 C293 1.374 . S
C293 H273 0.950 . S
C293 C289 1.385 . S
C293 C292 1.374 . S
C294 C291 1.499 . S
C294 C295 1.373 . S
C294 C296 1.389 . S
C295 H274 0.950 . S
C295 C294 1.373 . S
C295 C311 1.377 . S
C296 C294 1.389 . S
C296 C297 1.524 . S
C296 C310 1.377 . S
C297 C296 1.524 . S
C297 C298 1.397 . S
C297 C302 1.363 . S
C298 H275 0.950 . S
C298 C297 1.397 . S
C298 C299 1.334 . S
C299 H276 0.950 . S
C299 C298 1.334 . S
C299 C300 1.287 . S
C300 C299 1.287 . S
C300 C301 1.524 . S
C300 H319 0.913 . S
C301 H277 0.950 . S
C301 C300 1.524 . S
C301 C302 1.415 . S
C302 H278 0.950 . S
C302 C297 1.363 . S
C302 C301 1.415 . S
C303 H279 0.951 . S
C303 C304 1.366 . S
C303 C305 1.388 . S
C304 C303 1.366 . S
C304 C308 1.385 . S
C305 H280 0.951 . S
C305 C303 1.388 . S
C305 C306 1.366 . S
C306 C305 1.366 . S
C306 C307 1.414 . S
C306 C309 1.499 . S
C307 H281 0.950 . S
C307 C306 1.414 . S
C307 C308 1.374 . S
C308 H282 0.950 . S
C308 C304 1.385 . S
C308 C307 1.374 . S
C309 C306 1.499 . S
C309 C310 1.373 . S
C309 C311 1.389 . S
C310 H283 0.950 . S
C310 C296 1.377 . S
C310 C309 1.373 . S
C311 C295 1.377 . S
C311 C309 1.389 . S
C311 C312 1.524 . S
C312 C311 1.524 . S
C312 C313 1.397 . S
C312 C317 1.363 . S
C313 H284 0.950 . S
C313 C312 1.397 . S
C313 C314 1.334 . S
C314 H285 0.950 . S
C314 C313 1.334 . S
C314 C315 1.287 . S
C315 C314 1.287 . S
C315 C316 1.524 . S
C315 H318 0.999 . S
C316 H286 0.950 . S
C316 C315 1.524 . S
C316 C317 1.415 . S
C317 H287 0.950 . S
C317 C312 1.363 . S
C317 C316 1.415 . S
H318 C315 0.999 . S
H319 C300 0.913 . S
H320 C338 0.951 . S
H321 C340 0.951 . S
H322 C342 0.950 . S
H323 C343 0.950 . S
H324 C345 0.950 . S
H325 C348 0.950 . S
H326 C349 0.950 . S
H327 C351 0.950 . S
H328 C352 0.950 . S
H329 C353 0.951 . S
H330 C355 0.951 . S
H331 C357 0.950 . S
H332 C358 0.950 . S
H333 C360 0.950 . S
H334 C363 0.950 . S
H335 C364 0.950 . S
H336 C366 0.950 . S
H337 C367 0.950 . S
C338 H320 0.951 . S
C338 C339 1.366 . S
C338 C340 1.388 . S
C339 C338 1.366 . S
C339 C343 1.385 . S
C340 H321 0.951 . S
C340 C338 1.388 . S
C340 C341 1.366 . S
C341 C340 1.366 . S
C341 C342 1.414 . S
C341 C344 1.499 . S
C342 H322 0.950 . S
C342 C341 1.414 . S
C342 C343 1.374 . S
C343 H323 0.950 . S
C343 C339 1.385 . S
C343 C342 1.374 . S
C344 C341 1.499 . S
C344 C345 1.373 . S
C344 C346 1.389 . S
C345 H324 0.950 . S
C345 C344 1.373 . S
C345 C361 1.377 . S
C346 C344 1.389 . S
C346 C347 1.524 . S
C346 C360 1.377 . S
C347 C346 1.524 . S
C347 C348 1.397 . S
C347 C352 1.363 . S
C348 H325 0.950 . S
C348 C347 1.397 . S
C348 C349 1.334 . S
C349 H326 0.950 . S
C349 C348 1.334 . S
C349 C350 1.287 . S
C350 C349 1.287 . S
C350 C351 1.524 . S
C350 H369 0.913 . S
C351 H327 0.950 . S
C351 C350 1.524 . S
C351 C352 1.415 . S
C352 H328 0.950 . S
C352 C347 1.363 . S
C352 C351 1.415 . S
C353 H329 0.951 . S
C353 C354 1.366 . S
C353 C355 1.388 . S
C354 C353 1.366 . S
C354 C358 1.385 . S
C355 H330 0.951 . S
C355 C353 1.388 . S
C355 C356 1.366 . S
C356 C355 1.366 . S
C356 C357 1.414 . S
C356 C359 1.499 . S
C357 H331 0.950 . S
C357 C356 1.414 . S
C357 C358 1.374 . S
C358 H332 0.950 . S
C358 C354 1.385 . S
C358 C357 1.374 . S
C359 C356 1.499 . S
C359 C360 1.373 . S
C359 C361 1.389 . S
C360 H333 0.950 . S
C360 C346 1.377 . S
C360 C359 1.373 . S
C361 C345 1.377 . S
C361 C359 1.389 . S
C361 C362 1.524 . S
C362 C361 1.524 . S
C362 C363 1.397 . S
C362 C367 1.363 . S
C363 H334 0.950 . S
C363 C362 1.397 . S
C363 C364 1.334 . S
C364 H335 0.950 . S
C364 C363 1.334 . S
C364 C365 1.287 . S
C365 C364 1.287 . S
C365 C366 1.524 . S
C365 H368 0.999 . S
C366 H336 0.950 . S
C366 C365 1.524 . S
C366 C367 1.415 . S
C367 H337 0.950 . S
C367 C362 1.363 . S
C367 C366 1.415 . S
H368 C365 0.999 . S
H369 C350 0.913 . S
H370 C388 0.951 . S
H371 C390 0.951 . S
H372 C392 0.950 . S
H373 C393 0.950 . S
H374 C395 0.950 . S
H375 C398 0.950 . S
H376 C399 0.950 . S
H377 C401 0.950 . S
H378 C402 0.950 . S
H379 C403 0.951 . S
H380 C405 0.951 . S
H381 C407 0.950 . S
H382 C408 0.950 . S
H383 C410 0.950 . S
H384 C413 0.950 . S
H385 C414 0.950 . S
H386 C416 0.950 . S
H387 C417 0.950 . S
C388 H370 0.951 . S
C388 C389 1.366 . S
C388 C390 1.388 . S
C389 C388 1.366 . S
C389 C393 1.385 . S
C390 H371 0.951 . S
C390 C388 1.388 . S
C390 C391 1.366 . S
C391 C390 1.366 . S
C391 C392 1.414 . S
C391 C394 1.499 . S
C392 H372 0.950 . S
C392 C391 1.414 . S
C392 C393 1.374 . S
C393 H373 0.950 . S
C393 C389 1.385 . S
C393 C392 1.374 . S
C394 C391 1.499 . S
C394 C395 1.373 . S
C394 C396 1.389 . S
C395 H374 0.950 . S
C395 C394 1.373 . S
C395 C411 1.377 . S
C396 C394 1.389 . S
C396 C397 1.524 . S
C396 C410 1.377 . S
C397 C396 1.524 . S
C397 C398 1.397 . S
C397 C402 1.363 . S
C398 H375 0.950 . S
C398 C397 1.397 . S
C398 C399 1.334 . S
C399 H376 0.950 . S
C399 C398 1.334 . S
C399 C400 1.287 . S
C400 C399 1.287 . S
C400 C401 1.524 . S
C400 H419 0.913 . S
C401 H377 0.950 . S
C401 C400 1.524 . S
C401 C402 1.415 . S
C402 H378 0.950 . S
C402 C397 1.363 . S
C402 C401 1.415 . S
C403 H379 0.951 . S
C403 C404 1.366 . S
C403 C405 1.388 . S
C404 C403 1.366 . S
C404 C408 1.385 . S
C405 H380 0.951 . S
C405 C403 1.388 . S
C405 C406 1.366 . S
C406 C405 1.366 . S
C406 C407 1.414 . S
C406 C409 1.499 . S
C407 H381 0.950 . S
C407 C406 1.414 . S
C407 C408 1.374 . S
C408 H382 0.950 . S
C408 C404 1.385 . S
C408 C407 1.374 . S
C409 C406 1.499 . S
C409 C410 1.373 . S
C409 C411 1.389 . S
C410 H383 0.950 . S
C410 C396 1.377 . S
C410 C409 1.373 . S
C411 C395 1.377 . S
C411 C409 1.389 . S
C411 C412 1.524 . S
C412 C411 1.524 . S
C412 C413 1.397 . S
C412 C417 1.363 . S
C413 H384 0.950 . S
C413 C412 1.397 . S
C413 C414 1.334 . S
C414 H385 0.950 . S
C414 C413 1.334 . S
C414 C415 1.287 . S
C415 C414 1.287 . S
C415 C416 1.524 . S
C415 H418 0.999 . S
C416 H386 0.950 . S
C416 C415 1.524 . S
C416 C417 1.415 . S
C417 H387 0.950 . S
C417 C412 1.363 . S
C417 C416 1.415 . S
H418 C415 0.999 . S
H419 C400 0.913 . S
H420 C438 0.954 . S
H421 C440 0.951 . S
H422 C442 0.950 . S
H423 C443 0.950 . S
H424 C445 0.950 1_556 S
H425 C448 0.950 . S
H426 C449 0.950 . S
H427 C451 0.950 . S
H428 C452 0.950 . S
H429 C453 0.951 . S
H430 C455 0.951 . S
H431 C457 0.948 1_556 S
H432 C458 0.951 1_556 S
H433 C460 0.950 . S
H434 C463 0.950 . S
H435 C464 0.950 . S
H436 C466 0.950 . S
H437 C467 0.950 1_554 S
C438 H420 0.954 . S
C438 C439 1.366 . S
C438 C440 1.388 . S
C439 C438 1.366 . S
C439 C443 1.385 . S
C440 H421 0.951 . S
C440 C438 1.388 . S
C440 C441 1.366 . S
C441 C440 1.366 . S
C441 C442 1.414 . S
C441 C444 1.499 . S
C442 H422 0.950 . S
C442 C441 1.414 . S
C442 C443 1.374 . S
C443 H423 0.950 . S
C443 C439 1.385 . S
C443 C442 1.374 . S
C444 C441 1.499 . S
C444 C445 1.373 . S
C444 C446 1.389 . S
C445 H424 0.950 1_554 S
C445 C444 1.373 . S
C445 C461 1.377 . S
C446 C444 1.389 . S
C446 C447 1.524 . S
C446 C460 1.377 . S
C447 C446 1.524 . S
C447 C448 1.397 . S
C447 C452 1.363 . S
C448 H425 0.950 . S
C448 C447 1.397 . S
C448 C449 1.334 . S
C449 H426 0.950 . S
C449 C448 1.334 . S
C449 C450 1.287 . S
C450 C449 1.287 . S
C450 C451 1.524 . S
C450 H469 0.913 . S
C451 H427 0.950 . S
C451 C450 1.524 . S
C451 C452 1.415 . S
C452 H428 0.950 . S
C452 C447 1.363 . S
C452 C451 1.415 . S
C453 H429 0.951 . S
C453 C454 1.366 . S
C453 C455 1.388 . S
C454 C453 1.366 . S
C454 C458 1.385 . S
C455 H430 0.951 . S
C455 C453 1.388 . S
C455 C456 1.366 . S
C456 C455 1.366 . S
C456 C457 1.414 . S
C456 C459 1.499 . S
C457 H431 0.948 1_554 S
C457 C456 1.414 . S
C457 C458 1.374 . S
C458 H432 0.951 1_554 S
C458 C454 1.385 . S
C458 C457 1.374 . S
C459 C456 1.499 . S
C459 C460 1.373 . S
C459 C461 1.389 . S
C460 H433 0.950 . S
C460 C446 1.377 . S
C460 C459 1.373 . S
C461 C445 1.377 . S
C461 C459 1.389 . S
C461 C462 1.524 1_554 S
C462 C461 1.524 1_556 S
C462 C463 1.397 . S
C462 C467 1.363 . S
C463 H434 0.950 . S
C463 C462 1.397 . S
C463 C464 1.334 . S
C464 H435 0.950 . S
C464 C463 1.334 . S
C464 C465 1.287 . S
C465 C464 1.287 . S
C465 C466 1.524 . S
C465 H468 0.999 . S
C466 H436 0.950 . S
C466 C465 1.524 . S
C466 C467 1.415 . S
C467 H437 0.950 1_556 S
C467 C462 1.363 . S
C467 C466 1.415 . S
H468 C465 0.999 . S
H469 C450 0.913 . S
H470 C488 0.951 . S
H471 C490 0.951 . S
H472 C492 0.950 . S
H473 C493 0.950 . S
H474 C495 0.950 . S
H475 C498 0.950 . S
H476 C499 0.950 . S
H477 C501 0.950 . S
H478 C502 0.950 . S
H479 C503 0.951 . S
H480 C505 0.951 . S
H481 C507 0.950 . S
H482 C508 0.950 . S
H483 C510 0.950 . S
H484 C513 0.950 . S
H485 C514 0.950 . S
H486 C516 0.950 . S
H487 C517 0.950 . S
C488 H470 0.951 . S
C488 C489 1.366 . S
C488 C490 1.388 . S
C489 C488 1.366 . S
C489 C493 1.385 . S
C490 H471 0.951 . S
C490 C488 1.388 . S
C490 C491 1.366 . S
C491 C490 1.366 . S
C491 C492 1.414 . S
C491 C494 1.499 . S
C492 H472 0.950 . S
C492 C491 1.414 . S
C492 C493 1.374 . S
C493 H473 0.950 . S
C493 C489 1.385 . S
C493 C492 1.374 . S
C494 C491 1.499 . S
C494 C495 1.373 . S
C494 C496 1.389 1_455 S
C495 H474 0.950 . S
C495 C494 1.373 . S
C495 C511 1.377 . S
C496 C494 1.389 1_655 S
C496 C497 1.524 . S
C496 C510 1.377 . S
C497 C496 1.524 . S
C497 C498 1.397 1_655 S
C497 C502 1.363 . S
C498 H475 0.950 . S
C498 C497 1.397 1_455 S
C498 C499 1.334 . S
C499 H476 0.950 . S
C499 C498 1.334 . S
C499 C500 1.287 1_455 S
C500 C499 1.287 1_655 S
C500 C501 1.524 . S
C500 H519 0.913 . S
C501 H477 0.950 . S
C501 C500 1.524 . S
C501 C502 1.415 . S
C502 H478 0.950 . S
C502 C497 1.363 . S
C502 C501 1.415 . S
C503 H479 0.951 . S
C503 C504 1.366 . S
C503 C505 1.388 . S
C504 C503 1.366 . S
C504 C508 1.385 . S
C505 H480 0.951 . S
C505 C503 1.388 . S
C505 C506 1.366 . S
C506 C505 1.366 . S
C506 C507 1.414 . S
C506 C509 1.499 . S
C507 H481 0.950 . S
C507 C506 1.414 . S
C507 C508 1.374 . S
C508 H482 0.950 . S
C508 C504 1.385 . S
C508 C507 1.374 . S
C509 C506 1.499 . S
C509 C510 1.373 . S
C509 C511 1.389 1_655 S
C510 H483 0.950 . S
C510 C496 1.377 . S
C510 C509 1.373 . S
C511 C495 1.377 . S
C511 C509 1.389 1_455 S
C511 C512 1.524 . S
C512 C511 1.524 . S
C512 C513 1.397 1_455 S
C512 C517 1.363 . S
C513 H484 0.950 . S
C513 C512 1.397 1_655 S
C513 C514 1.334 . S
C514 H485 0.950 . S
C514 C513 1.334 . S
C514 C515 1.287 1_655 S
C515 C514 1.287 1_455 S
C515 C516 1.524 . S
C515 H518 0.999 . S
C516 H486 0.950 . S
C516 C515 1.524 . S
C516 C517 1.415 . S
C517 H487 0.950 . S
C517 C512 1.363 . S
C517 C516 1.415 . S
H518 C515 0.999 . S
H519 C500 0.913 . S
H520 C538 0.951 . S
H521 C540 0.951 . S
H522 C542 0.968 . S
H523 C543 0.950 . S
H524 C545 0.950 . S
H525 C548 0.950 . S
H526 C549 0.950 . S
H527 C551 0.950 . S
H528 C552 0.950 . S
H529 C553 0.951 . S
H530 C555 0.951 . S
H531 C557 0.968 . S
H532 C558 0.950 . S
H533 C560 0.950 . S
H534 C563 0.950 . S
H535 C564 0.950 . S
H536 C566 0.950 . S
H537 C567 0.950 . S
C538 H520 0.951 . S
C538 C539 1.366 . S
C538 C540 1.388 . S
C539 C538 1.366 . S
C539 C543 1.385 . S
C540 H521 0.951 . S
C540 C538 1.388 . S
C540 C541 1.366 . S
C541 C540 1.366 . S
C541 C542 1.414 . S
C541 C544 1.499 . S
C542 H522 0.968 . S
C542 C541 1.414 . S
C542 C543 1.374 . S
C543 H523 0.950 . S
C543 C539 1.385 . S
C543 C542 1.374 . S
C544 C541 1.499 . S
C544 C545 1.373 1_545 S
C544 C546 1.389 . S
C545 H524 0.950 . S
C545 C544 1.373 1_565 S
C545 C561 1.377 . S
C546 C544 1.389 . S
C546 C547 1.524 . S
C546 C560 1.377 . S
C547 C546 1.524 . S
C547 C548 1.397 . S
C547 C552 1.363 . S
C548 H525 0.950 . S
C548 C547 1.397 . S
C548 C549 1.334 . S
C549 H526 0.950 . S
C549 C548 1.334 . S
C549 C550 1.287 . S
C550 C549 1.287 . S
C550 C551 1.524 . S
C550 H569 0.913 . S
C551 H527 0.950 . S
C551 C550 1.524 . S
C551 C552 1.415 . S
C552 H528 0.950 . S
C552 C547 1.363 . S
C552 C551 1.415 . S
C553 H529 0.951 . S
C553 C554 1.366 . S
C553 C555 1.388 . S
C554 C553 1.366 . S
C554 C558 1.385 . S
C555 H530 0.951 . S
C555 C553 1.388 . S
C555 C556 1.366 . S
C556 C555 1.366 . S
C556 C557 1.414 . S
C556 C559 1.499 . S
C557 H531 0.968 . S
C557 C556 1.414 . S
C557 C558 1.374 . S
C558 H532 0.950 . S
C558 C554 1.385 . S
C558 C557 1.374 . S
C559 C556 1.499 . S
C559 C560 1.373 1_565 S
C559 C561 1.389 . S
C560 H533 0.950 . S
C560 C546 1.377 . S
C560 C559 1.373 1_545 S
C561 C545 1.377 . S
C561 C559 1.389 . S
C561 C562 1.524 . S
C562 C561 1.524 . S
C562 C563 1.397 . S
C562 C567 1.363 . S
C563 H534 0.950 . S
C563 C562 1.397 . S
C563 C564 1.334 . S
C564 H535 0.950 . S
C564 C563 1.334 . S
C564 C565 1.287 . S
C565 C564 1.287 . S
C565 C566 1.524 . S
C565 H568 0.999 . S
C566 H536 0.950 . S
C566 C565 1.524 . S
C566 C567 1.415 . S
C567 H537 0.950 . S
C567 C562 1.363 . S
C567 C566 1.415 . S
H568 C565 0.999 . S
H569 C550 0.913 . S
H570 C588 0.951 . S
H571 C590 0.951 . S
H572 C592 0.950 . S
H573 C593 0.950 . S
H574 C595 0.950 . S
H575 C598 0.950 . S
H576 C599 0.950 . S
H577 C601 0.950 . S
H578 C602 0.950 . S
H579 C603 0.951 . S
H580 C605 0.951 . S
H581 C607 0.950 . S
H582 C608 0.950 . S
H583 C610 0.950 . S
H584 C613 0.950 . S
H585 C614 0.950 . S
H586 C616 0.950 . S
H587 C617 0.950 . S
C588 H570 0.951 . S
C588 C589 1.366 . S
C588 C590 1.388 . S
C589 C588 1.366 . S
C589 C593 1.385 . S
C590 H571 0.951 . S
C590 C588 1.388 . S
C590 C591 1.366 . S
C591 C590 1.366 . S
C591 C592 1.414 . S
C591 C594 1.499 . S
C592 H572 0.950 . S
C592 C591 1.414 . S
C592 C593 1.374 . S
C593 H573 0.950 . S
C593 C589 1.385 . S
C593 C592 1.374 . S
C594 C591 1.499 . S
C594 C595 1.373 . S
C594 C596 1.389 . S
C595 H574 0.950 . S
C595 C594 1.373 . S
C595 C611 1.377 . S
C596 C594 1.389 . S
C596 C597 1.524 . S
C596 C610 1.377 . S
C597 C596 1.524 . S
C597 C598 1.397 . S
C597 C602 1.363 . S
C598 H575 0.950 . S
C598 C597 1.397 . S
C598 C599 1.334 . S
C599 H576 0.950 . S
C599 C598 1.334 . S
C599 C600 1.287 . S
C600 C599 1.287 . S
C600 C601 1.524 . S
C600 H619 0.913 . S
C601 H577 0.950 . S
C601 C600 1.524 . S
C601 C602 1.415 . S
C602 H578 0.950 . S
C602 C597 1.363 . S
C602 C601 1.415 . S
C603 H579 0.951 . S
C603 C604 1.366 . S
C603 C605 1.388 . S
C604 C603 1.366 . S
C604 C608 1.385 . S
C605 H580 0.951 . S
C605 C603 1.388 . S
C605 C606 1.366 . S
C606 C605 1.366 . S
C606 C607 1.414 . S
C606 C609 1.499 . S
C607 H581 0.950 . S
C607 C606 1.414 . S
C607 C608 1.374 . S
C608 H582 0.950 . S
C608 C604 1.385 . S
C608 C607 1.374 . S
C609 C606 1.499 . S
C609 C610 1.373 . S
C609 C611 1.389 . S
C610 H583 0.950 . S
C610 C596 1.377 . S
C610 C609 1.373 . S
C611 C595 1.377 . S
C611 C609 1.389 . S
C611 C612 1.524 . S
C612 C611 1.524 . S
C612 C613 1.397 . S
C612 C617 1.363 . S
C613 H584 0.950 . S
C613 C612 1.397 . S
C613 C614 1.334 . S
C614 H585 0.950 . S
C614 C613 1.334 . S
C614 C615 1.287 . S
C615 C614 1.287 . S
C615 C616 1.524 . S
C615 H618 0.999 . S
C616 H586 0.950 . S
C616 C615 1.524 . S
C616 C617 1.415 . S
C617 H587 0.950 . S
C617 C612 1.363 . S
C617 C616 1.415 . S
H618 C615 0.999 . S
H619 C600 0.913 . S
H620 C638 0.951 . S
H621 C640 0.951 . S
H622 C642 0.950 . S
H623 C643 0.950 . S
H624 C645 0.950 . S
H625 C648 0.950 . S
H626 C649 0.950 . S
H627 C651 0.950 . S
H628 C652 0.950 . S
H629 C653 0.951 . S
H630 C655 0.951 . S
H631 C657 0.950 . S
H632 C658 0.950 . S
H633 C660 0.950 . S
H634 C663 0.950 . S
H635 C664 0.950 . S
H636 C666 0.950 . S
H637 C667 0.950 . S
C638 H620 0.951 . S
C638 C639 1.366 1_554 S
C638 C640 1.388 . S
C639 C638 1.366 1_556 S
C639 C643 1.385 . S
C640 H621 0.951 . S
C640 C638 1.388 . S
C640 C641 1.366 1_554 S
C641 C640 1.366 1_556 S
C641 C642 1.414 . S
C641 C644 1.499 . S
C642 H622 0.950 . S
C642 C641 1.414 . S
C642 C643 1.374 . S
C643 H623 0.950 . S
C643 C639 1.385 . S
C643 C642 1.374 . S
C644 C641 1.499 . S
C644 C645 1.373 . S
C644 C646 1.389 1_456 S
C645 H624 0.950 . S
C645 C644 1.373 . S
C645 C661 1.377 . S
C646 C644 1.389 1_654 S
C646 C647 1.524 . S
C646 C660 1.377 . S
C647 C646 1.524 . S
C647 C648 1.397 . S
C647 C652 1.363 . S
C648 H625 0.950 . S
C648 C647 1.397 . S
C648 C649 1.334 . S
C649 H626 0.950 . S
C649 C648 1.334 . S
C649 C650 1.287 . S
C650 C649 1.287 . S
C650 C651 1.524 . S
C650 H669 0.913 . S
C651 H627 0.950 . S
C651 C650 1.524 . S
C651 C652 1.415 . S
C652 H628 0.950 . S
C652 C647 1.363 . S
C652 C651 1.415 . S
C653 H629 0.951 . S
C653 C654 1.366 . S
C653 C655 1.388 . S
C654 C653 1.366 . S
C654 C658 1.385 1_556 S
C655 H630 0.951 . S
C655 C653 1.388 . S
C655 C656 1.366 . S
C656 C655 1.366 . S
C656 C657 1.414 1_556 S
C656 C659 1.499 . S
C657 H631 0.950 . S
C657 C656 1.414 1_554 S
C657 C658 1.374 . S
C658 H632 0.950 . S
C658 C654 1.385 1_554 S
C658 C657 1.374 . S
C659 C656 1.499 . S
C659 C660 1.373 1_556 S
C659 C661 1.389 1_655 S
C660 H633 0.950 . S
C660 C646 1.377 . S
C660 C659 1.373 1_554 S
C661 C645 1.377 . S
C661 C659 1.389 1_455 S
C661 C662 1.524 . S
C662 C661 1.524 . S
C662 C663 1.397 . S
C662 C667 1.363 . S
C663 H634 0.950 . S
C663 C662 1.397 . S
C663 C664 1.334 . S
C664 H635 0.950 . S
C664 C663 1.334 . S
C664 C665 1.287 . S
C665 C664 1.287 . S
C665 C666 1.524 . S
C665 H668 0.999 . S
C666 H636 0.950 . S
C666 C665 1.524 . S
C666 C667 1.415 . S
C667 H637 0.950 . S
C667 C662 1.363 . S
C667 C666 1.415 . S
H668 C665 0.999 . S
H669 C650 0.913 . S
H670 C688 0.951 . S
H671 C690 0.951 . S
H672 C692 0.950 . S
H673 C693 0.950 . S
H674 C695 0.950 . S
H675 C698 0.950 . S
H676 C699 0.950 . S
H677 C701 0.950 . S
H678 C702 0.950 . S
H679 C703 0.951 . S
H680 C705 0.951 . S
H681 C707 0.950 . S
H682 C708 0.950 . S
H683 C710 0.950 . S
H684 C713 0.950 . S
H685 C714 0.950 . S
H686 C716 0.950 . S
H687 C717 0.950 . S
C688 H670 0.951 . S
C688 C689 1.366 . S
C688 C690 1.388 . S
C689 C688 1.366 . S
C689 C693 1.385 . S
C690 H671 0.951 . S
C690 C688 1.388 . S
C690 C691 1.366 . S
C691 C690 1.366 . S
C691 C692 1.414 . S
C691 C694 1.499 . S
C692 H672 0.950 . S
C692 C691 1.414 . S
C692 C693 1.374 . S
C693 H673 0.950 . S
C693 C689 1.385 . S
C693 C692 1.374 . S
C694 C691 1.499 . S
C694 C695 1.373 . S
C694 C696 1.389 . S
C695 H674 0.950 . S
C695 C694 1.373 . S
C695 C711 1.377 1_565 S
C696 C694 1.389 . S
C696 C697 1.524 . S
C696 C710 1.377 1_565 S
C697 C696 1.524 . S
C697 C698 1.397 . S
C697 C702 1.363 . S
C698 H675 0.950 . S
C698 C697 1.397 . S
C698 C699 1.334 . S
C699 H676 0.950 . S
C699 C698 1.334 . S
C699 C700 1.287 . S
C700 C699 1.287 . S
C700 C701 1.524 . S
C700 H719 0.913 . S
C701 H677 0.950 . S
C701 C700 1.524 . S
C701 C702 1.415 . S
C702 H678 0.950 . S
C702 C697 1.363 . S
C702 C701 1.415 . S
C703 H679 0.951 . S
C703 C704 1.366 . S
C703 C705 1.388 . S
C704 C703 1.366 . S
C704 C708 1.385 . S
C705 H680 0.951 . S
C705 C703 1.388 . S
C705 C706 1.366 . S
C706 C705 1.366 . S
C706 C707 1.414 . S
C706 C709 1.499 . S
C707 H681 0.950 . S
C707 C706 1.414 . S
C707 C708 1.374 . S
C708 H682 0.950 . S
C708 C704 1.385 . S
C708 C707 1.374 . S
C709 C706 1.499 . S
C709 C710 1.373 . S
C709 C711 1.389 . S
C710 H683 0.950 . S
C710 C696 1.377 1_545 S
C710 C709 1.373 . S
C711 C695 1.377 1_545 S
C711 C709 1.389 . S
C711 C712 1.524 . S
C712 C711 1.524 . S
C712 C713 1.397 . S
C712 C717 1.363 . S
C713 H684 0.950 . S
C713 C712 1.397 . S
C713 C714 1.334 . S
C714 H685 0.950 . S
C714 C713 1.334 . S
C714 C715 1.287 . S
C715 C714 1.287 . S
C715 C716 1.524 . S
C715 H718 0.999 . S
C716 H686 0.950 . S
C716 C715 1.524 . S
C716 C717 1.415 . S
C717 H687 0.950 . S
C717 C712 1.363 . S
C717 C716 1.415 . S
H718 C715 0.999 . S
H719 C700 0.913 . S
H720 C738 0.951 . S
H721 C740 0.951 . S
H722 C742 0.950 . S
H723 C743 0.950 . S
H724 C745 0.950 . S
H725 C748 0.950 . S
H726 C749 0.950 . S
H727 C751 0.950 . S
H728 C752 0.950 . S
H729 C753 0.951 . S
H730 C755 0.951 . S
H731 C757 0.950 . S
H732 C758 0.950 . S
H733 C760 0.950 . S
H734 C763 0.950 . S
H735 C764 0.950 . S
H736 C766 0.950 . S
H737 C767 0.950 . S
C738 H720 0.951 . S
C738 C739 1.366 . S
C738 C740 1.388 . S
C739 C738 1.366 . S
C739 C743 1.385 . S
C740 H721 0.951 . S
C740 C738 1.388 . S
C740 C741 1.366 . S
C741 C740 1.366 . S
C741 C742 1.414 . S
C741 C744 1.499 . S
C742 H722 0.950 . S
C742 C741 1.414 . S
C742 C743 1.374 . S
C743 H723 0.950 . S
C743 C739 1.385 . S
C743 C742 1.374 . S
C744 C741 1.499 . S
C744 C745 1.373 . S
C744 C746 1.389 . S
C745 H724 0.950 . S
C745 C744 1.373 . S
C745 C761 1.377 . S
C746 C744 1.389 . S
C746 C747 1.524 . S
C746 C760 1.377 . S
C747 C746 1.524 . S
C747 C748 1.397 . S
C747 C752 1.363 . S
C748 H725 0.950 . S
C748 C747 1.397 . S
C748 C749 1.334 . S
C749 H726 0.950 . S
C749 C748 1.334 . S
C749 C750 1.287 . S
C750 C749 1.287 . S
C750 C751 1.524 . S
C750 H769 0.913 . S
C751 H727 0.950 . S
C751 C750 1.524 . S
C751 C752 1.415 . S
C752 H728 0.950 . S
C752 C747 1.363 . S
C752 C751 1.415 . S
C753 H729 0.951 . S
C753 C754 1.366 . S
C753 C755 1.388 . S
C754 C753 1.366 . S
C754 C758 1.385 . S
C755 H730 0.951 . S
C755 C753 1.388 . S
C755 C756 1.366 . S
C756 C755 1.366 . S
C756 C757 1.414 . S
C756 C759 1.499 . S
C757 H731 0.950 . S
C757 C756 1.414 . S
C757 C758 1.374 . S
C758 H732 0.950 . S
C758 C754 1.385 . S
C758 C757 1.374 . S
C759 C756 1.499 . S
C759 C760 1.373 . S
C759 C761 1.389 . S
C760 H733 0.950 . S
C760 C746 1.377 . S
C760 C759 1.373 . S
C761 C745 1.377 . S
C761 C759 1.389 . S
C761 C762 1.524 . S
C762 C761 1.524 . S
C762 C763 1.397 . S
C762 C767 1.363 . S
C763 H734 0.950 . S
C763 C762 1.397 . S
C763 C764 1.334 . S
C764 H735 0.950 . S
C764 C763 1.334 . S
C764 C765 1.287 . S
C765 C764 1.287 . S
C765 C766 1.524 . S
C765 H768 0.999 . S
C766 H736 0.950 . S
C766 C765 1.524 . S
C766 C767 1.415 . S
C767 H737 0.950 . S
C767 C762 1.363 . S
C767 C766 1.415 . S
H768 C765 0.999 . S
H769 C750 0.913 . S
H770 C788 0.951 . S
H771 C790 0.951 . S
H772 C792 0.950 . S
H773 C793 0.950 . S
H774 C795 0.950 . S
H775 C798 0.950 1_655 S
H776 C799 0.950 . S
H777 C801 0.950 . S
H778 C802 0.950 . S
H779 C803 0.951 . S
H780 C805 0.951 . S
H781 C807 0.950 . S
H782 C808 0.950 . S
H783 C810 0.950 . S
H784 C813 0.950 1_455 S
H785 C814 0.950 . S
H786 C816 0.950 . S
H787 C817 0.950 . S
C788 H770 0.951 . S
C788 C789 1.366 . S
C788 C790 1.388 . S
C789 C788 1.366 . S
C789 C793 1.385 . S
C790 H771 0.951 . S
C790 C788 1.388 . S
C790 C791 1.366 . S
C791 C790 1.366 . S
C791 C792 1.414 . S
C791 C794 1.499 . S
C792 H772 0.950 . S
C792 C791 1.414 . S
C792 C793 1.374 . S
C793 H773 0.950 . S
C793 C789 1.385 . S
C793 C792 1.374 . S
C794 C791 1.499 . S
C794 C795 1.373 . S
C794 C796 1.389 1_655 S
C795 H774 0.950 . S
C795 C794 1.373 . S
C795 C811 1.377 . S
C796 C794 1.389 1_455 S
C796 C797 1.524 . S
C796 C810 1.377 . S
C797 C796 1.524 . S
C797 C798 1.397 . S
C797 C802 1.363 . S
C798 H775 0.950 1_455 S
C798 C797 1.397 . S
C798 C799 1.334 . S
C799 H776 0.950 . S
C799 C798 1.334 . S
C799 C800 1.287 . S
C800 C799 1.287 . S
C800 C801 1.524 . S
C800 H819 0.913 . S
C801 H777 0.950 . S
C801 C800 1.524 . S
C801 C802 1.415 . S
C802 H778 0.950 . S
C802 C797 1.363 . S
C802 C801 1.415 . S
C803 H779 0.951 . S
C803 C804 1.366 . S
C803 C805 1.388 . S
C804 C803 1.366 . S
C804 C808 1.385 . S
C805 H780 0.951 . S
C805 C803 1.388 . S
C805 C806 1.366 . S
C806 C805 1.366 . S
C806 C807 1.414 . S
C806 C809 1.499 . S
C807 H781 0.950 . S
C807 C806 1.414 . S
C807 C808 1.374 . S
C808 H782 0.950 . S
C808 C804 1.385 . S
C808 C807 1.374 . S
C809 C806 1.499 . S
C809 C810 1.373 . S
C809 C811 1.389 1_455 S
C810 H783 0.950 . S
C810 C796 1.377 . S
C810 C809 1.373 . S
C811 C795 1.377 . S
C811 C809 1.389 1_655 S
C811 C812 1.524 . S
C812 C811 1.524 . S
C812 C813 1.397 . S
C812 C817 1.363 . S
C813 H784 0.950 1_655 S
C813 C812 1.397 . S
C813 C814 1.334 . S
C814 H785 0.950 . S
C814 C813 1.334 . S
C814 C815 1.287 . S
C815 C814 1.287 . S
C815 C816 1.524 . S
C815 H818 0.999 . S
C816 H786 0.950 . S
C816 C815 1.524 . S
C816 C817 1.415 . S
C817 H787 0.950 . S
C817 C812 1.363 . S
C817 C816 1.415 . S
H818 C815 0.999 . S
H819 C800 0.913 . S
H820 C838 0.951 . S
H821 C840 0.951 . S
H822 C842 0.950 . S
H823 C843 0.950 . S
H824 C845 0.950 . S
H825 C848 0.950 . S
H826 C849 0.950 . S
H827 C851 0.950 . S
H828 C852 0.950 . S
H829 C853 0.951 . S
H830 C855 0.951 . S
H831 C857 0.950 . S
H832 C858 0.950 . S
H833 C860 0.950 . S
H834 C863 0.950 . S
H835 C864 0.950 . S
H836 C866 0.950 . S
H837 C867 0.950 . S
C838 H820 0.951 . S
C838 C839 1.366 . S
C838 C840 1.388 . S
C839 C838 1.366 . S
C839 C843 1.385 . S
C840 H821 0.951 . S
C840 C838 1.388 . S
C840 C841 1.366 . S
C841 C840 1.366 . S
C841 C842 1.414 . S
C841 C844 1.499 . S
C842 H822 0.950 . S
C842 C841 1.414 . S
C842 C843 1.374 . S
C843 H823 0.950 . S
C843 C839 1.385 . S
C843 C842 1.374 . S
C844 C841 1.499 . S
C844 C845 1.373 . S
C844 C846 1.389 . S
C845 H824 0.950 . S
C845 C844 1.373 . S
C845 C861 1.377 . S
C846 C844 1.389 . S
C846 C847 1.524 1_565 S
C846 C860 1.377 1_565 S
C847 C846 1.524 1_545 S
C847 C848 1.397 1_545 S
C847 C852 1.363 . S
C848 H825 0.950 . S
C848 C847 1.397 1_565 S
C848 C849 1.334 . S
C849 H826 0.950 . S
C849 C848 1.334 . S
C849 C850 1.287 1_565 S
C850 C849 1.287 1_545 S
C850 C851 1.524 . S
C850 H869 0.913 . S
C851 H827 0.950 . S
C851 C850 1.524 . S
C851 C852 1.415 . S
C852 H828 0.950 . S
C852 C847 1.363 . S
C852 C851 1.415 . S
C853 H829 0.951 . S
C853 C854 1.366 . S
C853 C855 1.388 . S
C854 C853 1.366 . S
C854 C858 1.385 . S
C855 H830 0.951 . S
C855 C853 1.388 . S
C855 C856 1.366 . S
C856 C855 1.366 . S
C856 C857 1.414 . S
C856 C859 1.499 . S
C857 H831 0.950 . S
C857 C856 1.414 . S
C857 C858 1.374 . S
C858 H832 0.950 . S
C858 C854 1.385 . S
C858 C857 1.374 . S
C859 C856 1.499 . S
C859 C860 1.373 . S
C859 C861 1.389 1_545 S
C860 H833 0.950 . S
C860 C846 1.377 1_545 S
C860 C859 1.373 . S
C861 C845 1.377 . S
C861 C859 1.389 1_565 S
C861 C862 1.524 . S
C862 C861 1.524 . S
C862 C863 1.397 1_565 S
C862 C867 1.363 . S
C863 H834 0.950 . S
C863 C862 1.397 1_545 S
C863 C864 1.334 . S
C864 H835 0.950 . S
C864 C863 1.334 . S
C864 C865 1.287 1_545 S
C865 C864 1.287 1_565 S
C865 C866 1.524 . S
C865 H868 0.999 . S
C866 H836 0.950 . S
C866 C865 1.524 . S
C866 C867 1.415 . S
C867 H837 0.950 . S
C867 C862 1.363 . S
C867 C866 1.415 . S
H868 C865 0.999 . S
H869 C850 0.913 . S
H870 C888 0.951 . S
H871 C890 0.951 . S
H872 C892 0.950 . S
H873 C893 0.950 . S
H874 C895 0.950 . S
H875 C898 0.950 . S
H876 C899 0.950 . S
H877 C901 0.950 . S
H878 C902 0.950 . S
H879 C903 0.951 . S
H880 C905 0.951 . S
H881 C907 0.950 . S
H882 C908 0.950 . S
H883 C910 0.950 . S
H884 C913 0.950 . S
H885 C914 0.950 . S
H886 C916 0.950 . S
H887 C917 0.950 . S
C888 H870 0.951 . S
C888 C889 1.366 . S
C888 C890 1.388 . S
C889 C888 1.366 . S
C889 C893 1.385 . S
C890 H871 0.951 . S
C890 C888 1.388 . S
C890 C891 1.366 . S
C891 C890 1.366 . S
C891 C892 1.414 . S
C891 C894 1.499 . S
C892 H872 0.950 . S
C892 C891 1.414 . S
C892 C893 1.374 . S
C893 H873 0.950 . S
C893 C889 1.385 . S
C893 C892 1.374 . S
C894 C891 1.499 . S
C894 C895 1.373 . S
C894 C896 1.389 . S
C895 H874 0.950 . S
C895 C894 1.373 . S
C895 C911 1.377 . S
C896 C894 1.389 . S
C896 C897 1.524 . S
C896 C910 1.377 . S
C897 C896 1.524 . S
C897 C898 1.397 . S
C897 C902 1.363 . S
C898 H875 0.950 . S
C898 C897 1.397 . S
C898 C899 1.334 . S
C899 H876 0.950 . S
C899 C898 1.334 . S
C899 C900 1.287 . S
C900 C899 1.287 . S
C900 C901 1.524 . S
C900 H919 0.913 . S
C901 H877 0.950 . S
C901 C900 1.524 . S
C901 C902 1.415 . S
C902 H878 0.950 . S
C902 C897 1.363 . S
C902 C901 1.415 . S
C903 H879 0.951 . S
C903 C904 1.366 . S
C903 C905 1.388 . S
C904 C903 1.366 . S
C904 C908 1.385 . S
C905 H880 0.951 . S
C905 C903 1.388 . S
C905 C906 1.366 . S
C906 C905 1.366 . S
C906 C907 1.414 . S
C906 C909 1.499 . S
C907 H881 0.950 . S
C907 C906 1.414 . S
C907 C908 1.374 . S
C908 H882 0.950 . S
C908 C904 1.385 . S
C908 C907 1.374 . S
C909 C906 1.499 . S
C909 C910 1.373 . S
C909 C911 1.389 . S
C910 H883 0.950 . S
C910 C896 1.377 . S
C910 C909 1.373 . S
C911 C895 1.377 . S
C911 C909 1.389 . S
C911 C912 1.524 . S
C912 C911 1.524 . S
C912 C913 1.397 . S
C912 C917 1.363 . S
C913 H884 0.950 . S
C913 C912 1.397 . S
C913 C914 1.334 . S
C914 H885 0.950 . S
C914 C913 1.334 . S
C914 C915 1.287 . S
C915 C914 1.287 . S
C915 C916 1.524 . S
C915 H918 0.999 . S
C916 H886 0.950 . S
C916 C915 1.524 . S
C916 C917 1.415 . S
C917 H887 0.950 . S
C917 C912 1.363 . S
C917 C916 1.415 . S
H918 C915 0.999 . S
H919 C900 0.913 . S
H920 C938 0.951 . S
H921 C940 0.951 . S
H922 C942 0.950 . S
H923 C943 0.950 . S
H924 C945 0.950 . S
H925 C948 0.950 . S
H926 C949 0.950 . S
H927 C951 0.950 . S
H928 C952 0.950 . S
H929 C953 0.951 . S
H930 C955 0.951 . S
H931 C957 0.950 . S
H932 C958 0.950 . S
H933 C960 0.950 . S
H934 C963 0.950 . S
H935 C964 0.950 . S
H936 C966 0.950 . S
H937 C967 0.950 . S
C938 H920 0.951 . S
C938 C939 1.366 . S
C938 C940 1.388 . S
C939 C938 1.366 . S
C939 C943 1.385 . S
C940 H921 0.951 . S
C940 C938 1.388 . S
C940 C941 1.366 . S
C941 C940 1.366 . S
C941 C942 1.414 . S
C941 C944 1.499 . S
C942 H922 0.950 . S
C942 C941 1.414 . S
C942 C943 1.374 . S
C943 H923 0.950 . S
C943 C939 1.385 . S
C943 C942 1.374 . S
C944 C941 1.499 . S
C944 C945 1.373 . S
C944 C946 1.389 . S
C945 H924 0.950 . S
C945 C944 1.373 . S
C945 C961 1.377 1_455 S
C946 C944 1.389 . S
C946 C947 1.524 . S
C946 C960 1.377 . S
C947 C946 1.524 . S
C947 C948 1.397 . S
C947 C952 1.363 . S
C948 H925 0.950 . S
C948 C947 1.397 . S
C948 C949 1.334 . S
C949 H926 0.950 . S
C949 C948 1.334 . S
C949 C950 1.287 . S
C950 C949 1.287 . S
C950 C951 1.524 . S
C950 H969 0.913 . S
C951 H927 0.950 . S
C951 C950 1.524 . S
C951 C952 1.415 . S
C952 H928 0.950 . S
C952 C947 1.363 . S
C952 C951 1.415 . S
C953 H929 0.951 . S
C953 C954 1.366 . S
C953 C955 1.388 . S
C954 C953 1.366 . S
C954 C958 1.385 . S
C955 H930 0.951 . S
C955 C953 1.388 . S
C955 C956 1.366 . S
C956 C955 1.366 . S
C956 C957 1.414 . S
C956 C959 1.499 . S
C957 H931 0.950 . S
C957 C956 1.414 . S
C957 C958 1.374 . S
C958 H932 0.950 . S
C958 C954 1.385 . S
C958 C957 1.374 . S
C959 C956 1.499 . S
C959 C960 1.373 1_655 S
C959 C961 1.389 . S
C960 H933 0.950 . S
C960 C946 1.377 . S
C960 C959 1.373 1_455 S
C961 C945 1.377 1_655 S
C961 C959 1.389 . S
C961 C962 1.524 . S
C962 C961 1.524 . S
C962 C963 1.397 . S
C962 C967 1.363 . S
C963 H934 0.950 . S
C963 C962 1.397 . S
C963 C964 1.334 . S
C964 H935 0.950 . S
C964 C963 1.334 . S
C964 C965 1.287 . S
C965 C964 1.287 . S
C965 C966 1.524 . S
C965 H968 0.999 . S
C966 H936 0.950 . S
C966 C965 1.524 . S
C966 C967 1.415 . S
C967 H937 0.950 . S
C967 C962 1.363 . S
C967 C966 1.415 . S
H968 C965 0.999 . S
H969 C950 0.913 . S
H970 C988 0.951 . S
H971 C990 0.951 . S
H972 C992 0.950 . S
H973 C993 0.950 . S
H974 C995 0.950 . S
H975 C998 0.950 . S
H976 C999 0.950 . S
H977 C1001 0.950 . S
H978 C1002 0.950 . S
H979 C1003 0.951 . S
H980 C1005 0.951 . S
H981 C1007 0.950 . S
H982 C1008 0.950 . S
H983 C1010 0.950 . S
H984 C1013 0.950 . S
H985 C1014 0.950 . S
H986 C1016 0.950 . S
H987 C1017 0.950 . S
C988 H970 0.951 . S
C988 C989 1.366 . S
C988 C990 1.388 . S
C989 C988 1.366 . S
C989 C993 1.385 . S
C990 H971 0.951 . S
C990 C988 1.388 . S
C990 C991 1.366 . S
C991 C990 1.366 . S
C991 C992 1.414 . S
C991 C994 1.499 . S
C992 H972 0.950 . S
C992 C991 1.414 . S
C992 C993 1.374 . S
C993 H973 0.950 . S
C993 C989 1.385 . S
C993 C992 1.374 . S
C994 C991 1.499 . S
C994 C995 1.373 1_545 S
C994 C996 1.389 . S
C995 H974 0.950 . S
C995 C994 1.373 1_565 S
C995 C1011 1.377 . S
C996 C994 1.389 . S
C996 C997 1.524 . S
C996 C1010 1.377 . S
C997 C996 1.524 . S
C997 C998 1.397 . S
C997 C1002 1.363 . S
C998 H975 0.950 . S
C998 C997 1.397 . S
C998 C999 1.334 . S
C999 H976 0.950 . S
C999 C998 1.334 . S
C999 C1000 1.287 . S
C1000 C999 1.287 . S
C1000 C1001 1.524 . S
C1000 H1019 0.913 . S
C1001 H977 0.950 . S
C1001 C1000 1.524 . S
C1001 C1002 1.415 . S
C1002 H978 0.950 . S
C1002 C997 1.363 . S
C1002 C1001 1.415 . S
C1003 H979 0.951 . S
C1003 C1004 1.366 . S
C1003 C1005 1.388 . S
C1004 C1003 1.366 . S
C1004 C1008 1.385 . S
C1005 H980 0.951 . S
C1005 C1003 1.388 . S
C1005 C1006 1.366 . S
C1006 C1005 1.366 . S
C1006 C1007 1.414 . S
C1006 C1009 1.499 . S
C1007 H981 0.950 . S
C1007 C1006 1.414 . S
C1007 C1008 1.374 . S
C1008 H982 0.950 . S
C1008 C1004 1.385 . S
C1008 C1007 1.374 . S
C1009 C1006 1.499 . S
C1009 C1010 1.373 1_565 S
C1009 C1011 1.389 . S
C1010 H983 0.950 . S
C1010 C996 1.377 . S
C1010 C1009 1.373 1_545 S
C1011 C995 1.377 . S
C1011 C1009 1.389 . S
C1011 C1012 1.524 . S
C1012 C1011 1.524 . S
C1012 C1013 1.397 . S
C1012 C1017 1.363 . S
C1013 H984 0.950 . S
C1013 C1012 1.397 . S
C1013 C1014 1.334 . S
C1014 H985 0.950 . S
C1014 C1013 1.334 . S
C1014 C1015 1.287 . S
C1015 C1014 1.287 . S
C1015 C1016 1.524 . S
C1015 H1018 0.999 . S
C1016 H986 0.950 . S
C1016 C1015 1.524 . S
C1016 C1017 1.415 . S
C1017 H987 0.950 . S
C1017 C1012 1.363 . S
C1017 C1016 1.415 . S
H1018 C1015 0.999 . S
H1019 C1000 0.913 . S
C139 C86 1.355 . S
C154 C8 1.310 . S
C189 C106 1.355 . S
C204 C28 1.309 . S
C239 C6 1.354 . S
C254 C48 1.309 . S
C289 C26 1.354 . S
C304 C68 1.310 . S
C339 C46 1.354 . S
C354 C88 1.310 . S
C389 C66 1.354 . S
C404 C108 1.309 . S
C439 C1 0.524 . S
C454 C61 0.524 . S
C489 C81 0.525 . S
C504 C21 0.524 . S
C539 C101 0.525 . S
C554 C41 0.526 . S
C589 C49 0.542 . S
C604 C109 0.543 . S
C639 C9 0.542 . S
C654 C69 0.542 . S
C689 C89 0.542 . S
C704 C29 0.543 . S
C739 C116 1.523 . S
C754 C19 1.506 . S
C789 C39 1.506 . S
C804 C16 1.524 . S
C839 C59 1.506 . S
C854 C36 1.524 . S
C889 C56 1.523 . S
C904 C79 1.506 . S
C939 C99 1.507 . S
C954 C76 1.524 . S
C989 C119 1.506 . S
C1004 C96 1.523 . S
