# Generated by pormake.
# Topology vbb, (4)-cn, num edge types: 1
# Building blocks:
#     Node 0, Type 0, BuildingBlock: ESEHIV_clean_sbu_0, # of connection points: 4
#     Node 1, Type 0, BuildingBlock: ESEHIV_clean_sbu_0, # of connection points: 4
#     Node 2, Type 0, BuildingBlock: ESEHIV_clean_sbu_0, # of connection points: 4
#     Node 3, Type 0, BuildingBlock: ESEHIV_clean_sbu_0, # of connection points: 4
#     Node 4, Type 0, BuildingBlock: ESEHIV_clean_sbu_0, # of connection points: 4
#     Node 5, Type 0, BuildingBlock: ESEHIV_clean_sbu_0, # of connection points: 4
#     Node 6, Type 0, BuildingBlock: ESEHIV_clean_sbu_0, # of connection points: 4
#     Node 7, Type 0, BuildingBlock: ESEHIV_clean_sbu_0, # of connection points: 4
#     Node 8, Type 0, BuildingBlock: ESEHIV_clean_sbu_0, # of connection points: 4
#     Node 9, Type 0, BuildingBlock: ESEHIV_clean_sbu_0, # of connection points: 4
#     Node 10, Type 0, BuildingBlock: ESEHIV_clean_sbu_0, # of connection points: 4
#     Node 11, Type 0, BuildingBlock: ESEHIV_clean_sbu_0, # of connection points: 4
#     Node 12, Type 0, BuildingBlock: ESEHIV_clean_sbu_0, # of connection points: 4
#     Node 13, Type 0, BuildingBlock: ESEHIV_clean_sbu_0, # of connection points: 4
#     Node 14, Type 0, BuildingBlock: ESEHIV_clean_sbu_0, # of connection points: 4
#     Node 15, Type 0, BuildingBlock: ESEHIV_clean_sbu_0, # of connection points: 4
#     Node 16, Type 0, BuildingBlock: ESEHIV_clean_sbu_0, # of connection points: 4
#     Node 17, Type 0, BuildingBlock: ESEHIV_clean_sbu_0, # of connection points: 4
#     Node 18, Type 0, BuildingBlock: ESEHIV_clean_sbu_0, # of connection points: 4
#     Node 19, Type 0, BuildingBlock: ESEHIV_clean_sbu_0, # of connection points: 4
#     Node 20, Type 0, BuildingBlock: ESEHIV_clean_sbu_0, # of connection points: 4
#     Node 21, Type 0, BuildingBlock: ESEHIV_clean_sbu_0, # of connection points: 4
#     Node 22, Type 0, BuildingBlock: ESEHIV_clean_sbu_0, # of connection points: 4
#     Node 23, Type 0, BuildingBlock: ESEHIV_clean_sbu_0, # of connection points: 4
#     Node 24, Type 0, BuildingBlock: ESEHIV_clean_sbu_0, # of connection points: 4
#     Node 25, Type 0, BuildingBlock: ESEHIV_clean_sbu_0, # of connection points: 4
#     Node 26, Type 0, BuildingBlock: ESEHIV_clean_sbu_0, # of connection points: 4
#     Node 27, Type 0, BuildingBlock: ESEHIV_clean_sbu_0, # of connection points: 4
#     Node 28, Type 0, BuildingBlock: ESEHIV_clean_sbu_0, # of connection points: 4
#     Node 29, Type 0, BuildingBlock: ESEHIV_clean_sbu_0, # of connection points: 4
#     Node 30, Type 0, BuildingBlock: ESEHIV_clean_sbu_0, # of connection points: 4
#     Node 31, Type 0, BuildingBlock: ESEHIV_clean_sbu_0, # of connection points: 4
#     Edge 32, Type (0, 0), BuildingBlock: XIVTED_clean_linker_0, # of connection points: 2
#     Edge 33, Type (0, 0), BuildingBlock: XIVTED_clean_linker_0, # of connection points: 2
#     Edge 34, Type (0, 0), BuildingBlock: XIVTED_clean_linker_0, # of connection points: 2
#     Edge 35, Type (0, 0), BuildingBlock: XIVTED_clean_linker_0, # of connection points: 2
#     Edge 36, Type (0, 0), BuildingBlock: XIVTED_clean_linker_0, # of connection points: 2
#     Edge 37, Type (0, 0), BuildingBlock: XIVTED_clean_linker_0, # of connection points: 2
#     Edge 38, Type (0, 0), BuildingBlock: XIVTED_clean_linker_0, # of connection points: 2
#     Edge 39, Type (0, 0), BuildingBlock: XIVTED_clean_linker_0, # of connection points: 2
#     Edge 40, Type (0, 0), BuildingBlock: XIVTED_clean_linker_0, # of connection points: 2
#     Edge 41, Type (0, 0), BuildingBlock: XIVTED_clean_linker_0, # of connection points: 2
#     Edge 42, Type (0, 0), BuildingBlock: XIVTED_clean_linker_0, # of connection points: 2
#     Edge 43, Type (0, 0), BuildingBlock: XIVTED_clean_linker_0, # of connection points: 2
#     Edge 44, Type (0, 0), BuildingBlock: XIVTED_clean_linker_0, # of connection points: 2
#     Edge 45, Type (0, 0), BuildingBlock: XIVTED_clean_linker_0, # of connection points: 2
#     Edge 46, Type (0, 0), BuildingBlock: XIVTED_clean_linker_0, # of connection points: 2
#     Edge 47, Type (0, 0), BuildingBlock: XIVTED_clean_linker_0, # of connection points: 2
#     Edge 48, Type (0, 0), BuildingBlock: XIVTED_clean_linker_0, # of connection points: 2
#     Edge 49, Type (0, 0), BuildingBlock: XIVTED_clean_linker_0, # of connection points: 2
#     Edge 50, Type (0, 0), BuildingBlock: XIVTED_clean_linker_0, # of connection points: 2
#     Edge 51, Type (0, 0), BuildingBlock: XIVTED_clean_linker_0, # of connection points: 2
#     Edge 52, Type (0, 0), BuildingBlock: XIVTED_clean_linker_0, # of connection points: 2
#     Edge 53, Type (0, 0), BuildingBlock: XIVTED_clean_linker_0, # of connection points: 2
#     Edge 54, Type (0, 0), BuildingBlock: XIVTED_clean_linker_0, # of connection points: 2
#     Edge 55, Type (0, 0), BuildingBlock: XIVTED_clean_linker_0, # of connection points: 2
#     Edge 56, Type (0, 0), BuildingBlock: XIVTED_clean_linker_0, # of connection points: 2
#     Edge 57, Type (0, 0), BuildingBlock: XIVTED_clean_linker_0, # of connection points: 2
#     Edge 58, Type (0, 0), BuildingBlock: XIVTED_clean_linker_0, # of connection points: 2
#     Edge 59, Type (0, 0), BuildingBlock: XIVTED_clean_linker_0, # of connection points: 2
#     Edge 60, Type (0, 0), BuildingBlock: XIVTED_clean_linker_0, # of connection points: 2
#     Edge 61, Type (0, 0), BuildingBlock: XIVTED_clean_linker_0, # of connection points: 2
#     Edge 62, Type (0, 0), BuildingBlock: XIVTED_clean_linker_0, # of connection points: 2
#     Edge 63, Type (0, 0), BuildingBlock: XIVTED_clean_linker_0, # of connection points: 2
#     Edge 64, Type (0, 0), BuildingBlock: XIVTED_clean_linker_0, # of connection points: 2
#     Edge 65, Type (0, 0), BuildingBlock: XIVTED_clean_linker_0, # of connection points: 2
#     Edge 66, Type (0, 0), BuildingBlock: XIVTED_clean_linker_0, # of connection points: 2
#     Edge 67, Type (0, 0), BuildingBlock: XIVTED_clean_linker_0, # of connection points: 2
#     Edge 68, Type (0, 0), BuildingBlock: XIVTED_clean_linker_0, # of connection points: 2
#     Edge 69, Type (0, 0), BuildingBlock: XIVTED_clean_linker_0, # of connection points: 2
#     Edge 70, Type (0, 0), BuildingBlock: XIVTED_clean_linker_0, # of connection points: 2
#     Edge 71, Type (0, 0), BuildingBlock: XIVTED_clean_linker_0, # of connection points: 2
#     Edge 72, Type (0, 0), BuildingBlock: XIVTED_clean_linker_0, # of connection points: 2
#     Edge 73, Type (0, 0), BuildingBlock: XIVTED_clean_linker_0, # of connection points: 2
#     Edge 74, Type (0, 0), BuildingBlock: XIVTED_clean_linker_0, # of connection points: 2
#     Edge 75, Type (0, 0), BuildingBlock: XIVTED_clean_linker_0, # of connection points: 2
#     Edge 76, Type (0, 0), BuildingBlock: XIVTED_clean_linker_0, # of connection points: 2
#     Edge 77, Type (0, 0), BuildingBlock: XIVTED_clean_linker_0, # of connection points: 2
#     Edge 78, Type (0, 0), BuildingBlock: XIVTED_clean_linker_0, # of connection points: 2
#     Edge 79, Type (0, 0), BuildingBlock: XIVTED_clean_linker_0, # of connection points: 2
#     Edge 80, Type (0, 0), BuildingBlock: XIVTED_clean_linker_0, # of connection points: 2
#     Edge 81, Type (0, 0), BuildingBlock: XIVTED_clean_linker_0, # of connection points: 2
#     Edge 82, Type (0, 0), BuildingBlock: XIVTED_clean_linker_0, # of connection points: 2
#     Edge 83, Type (0, 0), BuildingBlock: XIVTED_clean_linker_0, # of connection points: 2
#     Edge 84, Type (0, 0), BuildingBlock: XIVTED_clean_linker_0, # of connection points: 2
#     Edge 85, Type (0, 0), BuildingBlock: XIVTED_clean_linker_0, # of connection points: 2
#     Edge 86, Type (0, 0), BuildingBlock: XIVTED_clean_linker_0, # of connection points: 2
#     Edge 87, Type (0, 0), BuildingBlock: XIVTED_clean_linker_0, # of connection points: 2
#     Edge 88, Type (0, 0), BuildingBlock: XIVTED_clean_linker_0, # of connection points: 2
#     Edge 89, Type (0, 0), BuildingBlock: XIVTED_clean_linker_0, # of connection points: 2
#     Edge 90, Type (0, 0), BuildingBlock: XIVTED_clean_linker_0, # of connection points: 2
#     Edge 91, Type (0, 0), BuildingBlock: XIVTED_clean_linker_0, # of connection points: 2
#     Edge 92, Type (0, 0), BuildingBlock: XIVTED_clean_linker_0, # of connection points: 2
#     Edge 93, Type (0, 0), BuildingBlock: XIVTED_clean_linker_0, # of connection points: 2
#     Edge 94, Type (0, 0), BuildingBlock: XIVTED_clean_linker_0, # of connection points: 2
#     Edge 95, Type (0, 0), BuildingBlock: XIVTED_clean_linker_0, # of connection points: 2
# Relax obj value: 0.029
# Max RMSD: 0.075
# Mean RMSD: 0.075
data_MOF--net-vbb--node1-ESEHIV_clean_sbu_0--edge1-XIVTED_clean_linker_0
_symmetry_space_group_name_H-M    P1
_symmetry_Int_Tables_number       1
_symmetry_cell_setting            triclinic
loop_
_symmetry_equiv_pos_as_xyz
'x, y, z'
_cell_length_a     58.82906
_cell_length_b     35.994857
_cell_length_c     110.09519
_cell_angle_alpha  89.922116
_cell_angle_beta   90.038597
_cell_angle_gamma 89.951747
loop_
_atom_site_label
_atom_site_type_symbol
_atom_site_fract_x
_atom_site_fract_y
_atom_site_fract_z
_atom_type_partial_charge
Cu0 Cu 0.52871 0.00553 0.08872 0.0
N1 N 0.56054 0.00557 0.08952 0.0
N2 N 0.59565 0.0294 0.08995 0.0
C3 C 0.57378 0.03382 0.09336 0.0
C4 C 0.59627 0.99694 0.08384 0.0
C5 C 0.57462 0.98221 0.08365 0.0
O6 O 0.51695 0.03753 0.10146 0.0
C7 C 0.53255 0.03105 0.06424 0.0
O8 O 0.55115 0.04756 0.06802 0.0
H9 H 0.56723 0.05873 0.09758 0.0
H10 H 0.56918 0.95776 0.07875 0.0
N11 N 0.51663 0.95898 0.09241 0.0
N12 N 0.48916 0.91697 0.09528 0.0
C13 C 0.49565 0.9477 0.08917 0.0
C14 C 0.52377 0.93443 0.10081 0.0
C15 C 0.50682 0.90846 0.10262 0.0
C16 C 0.51865 0.0725 0.10277 0.0
O17 O 0.52738 0.09271 0.09399 0.0
H18 H 0.48464 0.96351 0.0832 0.0
H19 H 0.5395 0.93673 0.10585 0.0
O20 O 0.51946 0.01576 0.07199 0.0
H21 H 0.61105 0.98575 0.07927 0.0
H22 H 0.50705 0.88608 0.1092 0.0
Cu23 Cu 0.78298 0.24088 0.08653 0.0
N24 N 0.7513 0.24484 0.08831 0.0
N25 N 0.71526 0.22509 0.0893 0.0
C26 C 0.737 0.21864 0.09263 0.0
C27 C 0.7158 0.25698 0.08286 0.0
C28 C 0.73799 0.2692 0.08234 0.0
O29 O 0.79487 0.20349 0.09761 0.0
C30 C 0.77557 0.21935 0.06192 0.0
O31 O 0.7573 0.20291 0.06616 0.0
H32 H 0.74253 0.19353 0.09712 0.0
H33 H 0.74428 0.29226 0.077 0.0
N34 N 0.79758 0.28477 0.09101 0.0
N35 N 0.82656 0.32402 0.09382 0.0
C36 C 0.81863 0.29473 0.08745 0.0
C37 C 0.7919 0.30866 0.09988 0.0
C38 C 0.80978 0.33292 0.10165 0.0
C39 C 0.78909 0.16954 0.09832 0.0
O40 O 0.77558 0.15529 0.09004 0.0
H41 H 0.82852 0.27919 0.0809 0.0
H42 H 0.77638 0.30726 0.10513 0.0
O43 O 0.7897 0.23363 0.06934 0.0
H44 H 0.70143 0.26915 0.07816 0.0
H45 H 0.81065 0.35464 0.10843 0.0
Cu46 Cu 0.52484 0.24759 0.20096 0.0
N47 N 0.55661 0.24903 0.20031 0.0
N48 N 0.59194 0.22606 0.20005 0.0
C49 C 0.57022 0.22131 0.19642 0.0
C50 C 0.59209 0.25826 0.20631 0.0
C51 C 0.57029 0.27246 0.20641 0.0
O52 O 0.51396 0.21633 0.1878 0.0
C53 C 0.52904 0.21871 0.22503 0.0
O54 O 0.54764 0.20281 0.22097 0.0
H55 H 0.56399 0.19638 0.19209 0.0
H56 H 0.56445 0.29646 0.21142 0.0
N57 N 0.51205 0.29402 0.19785 0.0
N58 N 0.48428 0.33588 0.1955 0.0
C59 C 0.49059 0.30356 0.20075 0.0
C60 C 0.51971 0.32131 0.19057 0.0
C61 C 0.50257 0.34721 0.18909 0.0
C62 C 0.51592 0.18141 0.18642 0.0
O63 O 0.52417 0.16105 0.19531 0.0
H64 H 0.47931 0.28578 0.2059 0.0
H65 H 0.53611 0.32132 0.18613 0.0
O66 O 0.5158 0.23493 0.21754 0.0
H67 H 0.60662 0.26954 0.21108 0.0
H68 H 0.50326 0.37178 0.18342 0.0
Cu69 Cu 0.77794 0.01439 0.19925 0.0
N70 N 0.74643 0.00838 0.19901 0.0
N71 N 0.71049 0.02863 0.19905 0.0
C72 C 0.73178 0.03435 0.19492 0.0
C73 C 0.71172 0.9976 0.20592 0.0
C74 C 0.73392 0.98507 0.20584 0.0
O75 O 0.78411 0.05404 0.1877 0.0
C76 C 0.77366 0.04045 0.22345 0.0
O77 O 0.75626 0.05916 0.21912 0.0
H78 H 0.73709 0.05922 0.19016 0.0
H79 H 0.74085 0.96274 0.21129 0.0
N80 N 0.79312 0.9717 0.19407 0.0
N81 N 0.82217 0.93284 0.1908 0.0
C82 C 0.81413 0.96121 0.19757 0.0
C83 C 0.78752 0.94899 0.18485 0.0
C84 C 0.80542 0.92498 0.18281 0.0
C85 C 0.80195 0.05653 0.18121 0.0
O86 O 0.81968 0.0358 0.1838 0.0
H87 H 0.82391 0.97584 0.20438 0.0
H88 H 0.77199 0.95099 0.17962 0.0
O89 O 0.78654 0.02303 0.2161 0.0
H90 H 0.69792 0.9863 0.21127 0.0
H91 H 0.8063 0.90413 0.17575 0.0
Cu92 Cu 0.52725 0.99352 0.95166 0.0
N93 N 0.49553 0.99661 0.95103 0.0
N94 N 0.45998 0.97483 0.95049 0.0
C95 C 0.48154 0.9702 0.94661 0.0
C96 C 0.46032 0.00549 0.95752 0.0
C97 C 0.48226 0.01902 0.95777 0.0
O98 O 0.53774 0.96303 0.93823 0.0
C99 C 0.52257 0.96421 0.97567 0.0
O100 O 0.50342 0.94992 0.97172 0.0
H101 H 0.48741 0.94596 0.94174 0.0
H102 H 0.4885 0.04148 0.96337 0.0
N103 N 0.54113 0.03936 0.94915 0.0
N104 N 0.56986 0.07959 0.94708 0.0
C105 C 0.56379 0.04418 0.9495 0.0
C106 C 0.53234 0.07285 0.94643 0.0
C107 C 0.55005 0.09781 0.94518 0.0
C108 C 0.53578 0.92823 0.93661 0.0
O109 O 0.52742 0.90734 0.94532 0.0
H110 H 0.57553 0.02192 0.95158 0.0
H111 H 0.51441 0.07861 0.94532 0.0
O112 O 0.53618 0.97915 0.9681 0.0
H113 H 0.44607 0.01586 0.96273 0.0
H114 H 0.54844 0.12688 0.94282 0.0
Cu115 Cu 0.27087 0.76834 0.95136 0.0
N116 N 0.30235 0.76353 0.94974 0.0
N117 N 0.33832 0.78331 0.94881 0.0
C118 C 0.31629 0.79201 0.94699 0.0
C119 C 0.33833 0.74788 0.95282 0.0
C120 C 0.31609 0.73562 0.95331 0.0
O121 O 0.26332 0.81072 0.94114 0.0
C122 C 0.26766 0.74561 0.97528 0.0
O123 O 0.27261 0.71397 0.96997 0.0
H124 H 0.31028 0.81953 0.94462 0.0
H125 H 0.31033 0.70905 0.9567 0.0
N126 N 0.2552 0.72688 0.94551 0.0
N127 N 0.22578 0.68937 0.94167 0.0
C128 C 0.23428 0.71599 0.949 0.0
C129 C 0.26024 0.7062 0.93571 0.0
C130 C 0.2421 0.68303 0.9333 0.0
C131 C 0.24591 0.81301 0.9343 0.0
O132 O 0.22898 0.78973 0.93584 0.0
H133 H 0.22487 0.72924 0.95625 0.0
H134 H 0.27551 0.70915 0.93033 0.0
O135 O 0.26489 0.77441 0.96867 0.0
H136 H 0.35326 0.73253 0.95566 0.0
H137 H 0.24074 0.66387 0.92577 0.0
Cu138 Cu 0.52882 0.76111 0.83791 0.0
N139 N 0.4972 0.76012 0.83975 0.0
N140 N 0.46168 0.78201 0.84142 0.0
C141 C 0.48407 0.78971 0.84239 0.0
C142 C 0.46072 0.74582 0.83819 0.0
C143 C 0.48265 0.73242 0.83718 0.0
O144 O 0.54102 0.79349 0.85043 0.0
C145 C 0.52232 0.78527 0.81339 0.0
O146 O 0.50335 0.79994 0.81743 0.0
H147 H 0.49085 0.81703 0.84418 0.0
H148 H 0.48766 0.7049 0.83428 0.0
N149 N 0.54196 0.71521 0.84136 0.0
N150 N 0.57068 0.67519 0.8438 0.0
C151 C 0.56299 0.70534 0.83777 0.0
C152 C 0.53601 0.69032 0.84991 0.0
C153 C 0.55374 0.66553 0.85144 0.0
C154 C 0.53919 0.82845 0.85172 0.0
O155 O 0.53054 0.84861 0.8429 0.0
H156 H 0.5732 0.72192 0.83164 0.0
H157 H 0.5206 0.69168 0.85525 0.0
O158 O 0.53644 0.77152 0.82096 0.0
H159 H 0.44534 0.73031 0.8364 0.0
H160 H 0.55453 0.64328 0.85805 0.0
Cu161 Cu 0.27103 0.99262 0.83906 0.0
N162 N 0.30165 0.99335 0.84373 0.0
N163 N 0.33674 0.96985 0.84583 0.0
C164 C 0.31809 0.97232 0.83868 0.0
C165 C 0.33197 0.99097 0.85563 0.0
C166 C 0.3103 0.0051 0.85437 0.0
O167 O 0.25636 0.95485 0.849 0.0
C168 C 0.27878 0.00955 0.81505 0.0
O169 O 0.28896 0.03748 0.82047 0.0
H170 H 0.31556 0.95666 0.83041 0.0
H171 H 0.3008 0.01985 0.86124 0.0
N172 N 0.25587 0.03698 0.84251 0.0
N173 N 0.2264 0.07562 0.84468 0.0
C174 C 0.23378 0.04317 0.84 0.0
C175 C 0.26281 0.06675 0.8489 0.0
C176 C 0.24459 0.09058 0.85032 0.0
C177 C 0.26649 0.92483 0.85185 0.0
O178 O 0.28507 0.91551 0.84601 0.0
H179 H 0.22305 0.02338 0.83532 0.0
H180 H 0.2797 0.0705 0.85255 0.0
O181 O 0.26934 0.98474 0.8216 0.0
H182 H 0.3425 0.9933 0.86366 0.0
H183 H 0.24462 0.11661 0.85523 0.0
Cu184 Cu 0.52544 0.5075 0.58889 0.0
N185 N 0.5568 0.50933 0.59161 0.0
N186 N 0.59133 0.53496 0.59324 0.0
C187 C 0.56967 0.53951 0.58946 0.0
C188 C 0.59219 0.50006 0.59775 0.0
C189 C 0.57087 0.48432 0.59673 0.0
O190 O 0.51158 0.54093 0.60061 0.0
C191 C 0.52941 0.49369 0.56454 0.0
O192 O 0.54071 0.46577 0.56934 0.0
H193 H 0.56314 0.56442 0.58523 0.0
H194 H 0.56595 0.45691 0.59974 0.0
N195 N 0.51269 0.46152 0.59268 0.0
N196 N 0.48369 0.4221 0.59509 0.0
C197 C 0.49272 0.44939 0.5882 0.0
C198 C 0.51647 0.44107 0.60273 0.0
C199 C 0.49865 0.41663 0.60421 0.0
C200 C 0.51539 0.57537 0.60214 0.0
O201 O 0.52692 0.59389 0.59392 0.0
H202 H 0.4838 0.46313 0.58086 0.0
H203 H 0.52993 0.44613 0.60921 0.0
O204 O 0.52029 0.51732 0.57167 0.0
H205 H 0.60692 0.48717 0.60188 0.0
H206 H 0.49608 0.3982 0.61187 0.0
Cu207 Cu 0.78158 0.75117 0.58971 0.0
N208 N 0.75018 0.74938 0.59226 0.0
N209 N 0.71555 0.72406 0.5938 0.0
C210 C 0.73778 0.71809 0.59148 0.0
C211 C 0.71387 0.76089 0.59598 0.0
C212 C 0.73527 0.77644 0.59501 0.0
O213 O 0.79525 0.71799 0.60159 0.0
C214 C 0.77811 0.76575 0.56549 0.0
O215 O 0.76747 0.79408 0.57043 0.0
H216 H 0.74493 0.69153 0.589 0.0
H217 H 0.73956 0.80541 0.59617 0.0
N218 N 0.79427 0.79728 0.59337 0.0
N219 N 0.8229 0.83719 0.59615 0.0
C220 C 0.81513 0.8079 0.58974 0.0
C221 C 0.78855 0.82073 0.60237 0.0
C222 C 0.80615 0.8455 0.60408 0.0
C223 C 0.79328 0.68299 0.60269 0.0
O224 O 0.78385 0.66364 0.59393 0.0
H225 H 0.82528 0.79215 0.58336 0.0
H226 H 0.7736 0.81806 0.60801 0.0
O227 O 0.78678 0.7413 0.57251 0.0
H228 H 0.69839 0.77556 0.59826 0.0
H229 H 0.80711 0.86653 0.61108 0.0
Cu230 Cu 0.5267 0.74461 0.70101 0.0
N231 N 0.55834 0.74805 0.7 0.0
N232 N 0.59401 0.72679 0.69927 0.0
C233 C 0.57227 0.72122 0.69582 0.0
C234 C 0.59381 0.75857 0.70575 0.0
C235 C 0.57178 0.77174 0.70613 0.0
O236 O 0.51591 0.71323 0.68789 0.0
C237 C 0.53242 0.7161 0.72506 0.0
O238 O 0.55139 0.70166 0.72091 0.0
H239 H 0.5663 0.69615 0.69145 0.0
H240 H 0.56569 0.79504 0.7114 0.0
N241 N 0.51256 0.79013 0.6983 0.0
N242 N 0.48349 0.82973 0.6961 0.0
C243 C 0.49005 0.79532 0.69955 0.0
C244 C 0.52078 0.82233 0.69395 0.0
C245 C 0.50287 0.84692 0.69263 0.0
C246 C 0.51772 0.67832 0.68647 0.0
O247 O 0.52619 0.6578 0.69525 0.0
H248 H 0.47875 0.77385 0.70282 0.0
H249 H 0.53838 0.82724 0.69162 0.0
O250 O 0.51852 0.73102 0.71762 0.0
H251 H 0.60827 0.7701 0.71052 0.0
H252 H 0.50402 0.87481 0.68901 0.0
Cu253 Cu 0.7798 0.5097 0.70083 0.0
N254 N 0.74811 0.50762 0.69985 0.0
N255 N 0.71262 0.52974 0.6994 0.0
C256 C 0.73438 0.53524 0.69599 0.0
C257 C 0.71258 0.49721 0.7055 0.0
C258 C 0.73449 0.48354 0.70571 0.0
O259 O 0.79105 0.54144 0.68789 0.0
C260 C 0.77479 0.53904 0.72473 0.0
O261 O 0.75668 0.55564 0.72032 0.0
H262 H 0.74054 0.56062 0.69188 0.0
H263 H 0.74041 0.45943 0.71067 0.0
N264 N 0.79292 0.46362 0.69773 0.0
N265 N 0.82123 0.42283 0.69546 0.0
C266 C 0.81419 0.45415 0.70102 0.0
C267 C 0.78613 0.43729 0.68986 0.0
C268 C 0.80362 0.41203 0.68843 0.0
C269 C 0.78946 0.57644 0.68662 0.0
O270 O 0.78099 0.59665 0.69545 0.0
H271 H 0.82492 0.47155 0.70662 0.0
H272 H 0.7702 0.43775 0.68495 0.0
O273 O 0.78815 0.52208 0.7175 0.0
H274 H 0.69803 0.48538 0.71011 0.0
H275 H 0.80373 0.38849 0.68232 0.0
Cu276 Cu 0.52642 0.49806 0.44883 0.0
N277 N 0.49505 0.49586 0.44633 0.0
N278 N 0.46029 0.47128 0.4446 0.0
C279 C 0.48263 0.46449 0.44633 0.0
C280 C 0.45859 0.50857 0.44356 0.0
C281 C 0.48007 0.52366 0.44464 0.0
O282 O 0.54058 0.46596 0.4368 0.0
C283 C 0.52324 0.5115 0.47322 0.0
O284 O 0.512 0.53964 0.46853 0.0
H285 H 0.48979 0.43727 0.4479 0.0
H286 H 0.48438 0.55283 0.44435 0.0
N287 N 0.53805 0.54492 0.44524 0.0
N288 N 0.56532 0.58736 0.44275 0.0
C289 C 0.55822 0.55771 0.44922 0.0
C290 C 0.53211 0.56732 0.43597 0.0
C291 C 0.54891 0.59361 0.43442 0.0
C292 C 0.53928 0.43092 0.43554 0.0
O293 O 0.52987 0.41072 0.4441 0.0
H294 H 0.56849 0.54335 0.45591 0.0
H295 H 0.51762 0.56294 0.4301 0.0
O296 O 0.53207 0.48782 0.466 0.0
H297 H 0.443 0.5239 0.44206 0.0
H298 H 0.54967 0.61425 0.42727 0.0
Cu299 Cu 0.27152 0.25512 0.44872 0.0
N300 N 0.30224 0.25655 0.44459 0.0
N301 N 0.3368 0.28141 0.44238 0.0
C302 C 0.31666 0.28329 0.44822 0.0
C303 C 0.33504 0.25182 0.43491 0.0
C304 C 0.31362 0.23666 0.43624 0.0
O305 O 0.2561 0.28853 0.43757 0.0
C306 C 0.27981 0.24423 0.47294 0.0
O307 O 0.29204 0.21776 0.46796 0.0
H308 H 0.31206 0.30454 0.4547 0.0
H309 H 0.30646 0.21408 0.43102 0.0
N310 N 0.25849 0.20869 0.44616 0.0
N311 N 0.23064 0.16699 0.44408 0.0
C312 C 0.23595 0.20325 0.44529 0.0
C313 C 0.26795 0.17473 0.44549 0.0
C314 C 0.25077 0.14886 0.44422 0.0
C315 C 0.2615 0.32229 0.4358 0.0
O316 O 0.27583 0.33849 0.44325 0.0
H317 H 0.22368 0.22558 0.44594 0.0
H318 H 0.28598 0.16911 0.44611 0.0
O319 O 0.26874 0.26612 0.46599 0.0
H320 H 0.34777 0.24305 0.42842 0.0
H321 H 0.25296 0.1191 0.44349 0.0
Cu322 Cu 0.52736 0.25506 0.33871 0.0
N323 N 0.49586 0.25742 0.3408 0.0
N324 N 0.46149 0.28318 0.34297 0.0
C325 C 0.48417 0.28828 0.34372 0.0
C326 C 0.45881 0.24733 0.33966 0.0
C327 C 0.48007 0.23154 0.33828 0.0
O328 O 0.54119 0.28611 0.35112 0.0
C329 C 0.52113 0.27928 0.31415 0.0
O330 O 0.50232 0.2945 0.3182 0.0
H331 H 0.49221 0.31439 0.3459 0.0
H332 H 0.48377 0.20373 0.33514 0.0
N333 N 0.53845 0.20776 0.34206 0.0
N334 N 0.56506 0.16417 0.34463 0.0
C335 C 0.55947 0.19629 0.33906 0.0
C336 C 0.5303 0.18196 0.34976 0.0
C337 C 0.54673 0.15494 0.35137 0.0
C338 C 0.54099 0.32125 0.35227 0.0
O339 O 0.53304 0.34203 0.34341 0.0
H340 H 0.57107 0.21276 0.33365 0.0
H341 H 0.51418 0.18386 0.35444 0.0
O342 O 0.53504 0.26489 0.32171 0.0
H343 H 0.44273 0.23399 0.33774 0.0
H344 H 0.54563 0.13123 0.35739 0.0
Cu345 Cu 0.27311 0.50241 0.34061 0.0
N346 N 0.30434 0.50009 0.3436 0.0
N347 N 0.33884 0.47466 0.34576 0.0
C348 C 0.31641 0.46837 0.34421 0.0
C349 C 0.34095 0.51202 0.3461 0.0
C350 C 0.31965 0.52763 0.34474 0.0
O351 O 0.25855 0.47002 0.35237 0.0
C352 C 0.27731 0.51628 0.31641 0.0
O353 O 0.28739 0.5451 0.32136 0.0
H354 H 0.30892 0.44121 0.34306 0.0
H355 H 0.31573 0.55694 0.34432 0.0
N356 N 0.26093 0.54926 0.34379 0.0
N357 N 0.23369 0.59218 0.34566 0.0
C358 C 0.24022 0.56052 0.3401 0.0
C359 C 0.26784 0.57466 0.35194 0.0
C360 C 0.25108 0.60127 0.35309 0.0
C361 C 0.25897 0.43479 0.35316 0.0
O362 O 0.2676 0.41508 0.34426 0.0
H363 H 0.22943 0.54416 0.33421 0.0
H364 H 0.28321 0.57267 0.35729 0.0
O365 O 0.26866 0.49181 0.32341 0.0
H366 H 0.35673 0.5271 0.34716 0.0
H367 H 0.25125 0.62449 0.35932 0.0
Cu368 Cu 1.02558 0.00751 0.59096 0.0
N369 N 0.05694 0.00894 0.59366 0.0
N370 N 0.09174 0.03348 0.59529 0.0
C371 C 0.06935 0.04032 0.59383 0.0
C372 C 0.09351 0.99613 0.596 0.0
C373 C 0.07198 0.98105 0.595 0.0
O374 O 1.01162 0.03997 0.60291 0.0
C375 C 0.0289 0.99329 0.56676 0.0
O376 O 0.03909 0.96448 0.57169 0.0
H377 H 0.06214 0.06762 0.59248 0.0
H378 H 0.06769 0.95184 0.59501 0.0
N379 N 1.01282 0.96122 0.59427 0.0
N380 N 0.9843 0.92077 0.59641 0.0
C381 C 0.99209 0.95083 0.59038 0.0
C382 C 1.01847 0.93681 0.60304 0.0
C383 C 1.00089 0.91173 0.60436 0.0
C384 C 1.01281 0.07504 0.60406 0.0
O385 O 1.02194 0.09512 0.59537 0.0
H386 H 0.98206 0.9671 0.58407 0.0
H387 H 0.03344 0.93883 0.6087 0.0
O388 O 1.02063 0.01806 0.57377 0.0
H389 H 0.10919 0.98077 0.59715 0.0
H390 H 0.99987 0.88986 0.61109 0.0
Cu391 Cu 0.28123 0.24964 0.58827 0.0
N392 N 0.25076 0.24739 0.59299 0.0
N393 N 0.2166 0.22125 0.59561 0.0
C394 C 0.23584 0.2219 0.58892 0.0
C395 C 0.21947 0.24778 0.60414 0.0
C396 C 0.24063 0.26358 0.60257 0.0
O397 O 0.29764 0.217 0.59923 0.0
C398 C 0.27241 0.26076 0.56414 0.0
O399 O 0.26087 0.28793 0.56919 0.0
H400 H 0.23965 0.20283 0.58161 0.0
H401 H 0.24866 0.2834 0.60855 0.0
N402 N 0.29446 0.2962 0.59052 0.0
N403 N 0.32286 0.33707 0.59209 0.0
C404 C 0.31664 0.30279 0.58848 0.0
C405 C 0.28621 0.32761 0.59548 0.0
C406 C 0.3038 0.35286 0.59653 0.0
C407 C 0.29144 0.18425 0.60202 0.0
O408 O 0.27562 0.1678 0.59556 0.0
H409 H 0.32825 0.28204 0.58499 0.0
H410 H 0.26887 0.33161 0.59843 0.0
O411 O 0.28323 0.23834 0.57102 0.0
H412 H 0.20786 0.25349 0.61152 0.0
H413 H 0.30274 0.38041 0.60043 0.0
Cu414 Cu 1.02327 0.24735 0.70158 0.0
N415 N 0.0548 0.24853 0.69937 0.0
N416 N 0.09039 0.22758 0.69708 0.0
C417 C 0.06805 0.21901 0.69683 0.0
C418 C 0.09115 0.26421 0.69973 0.0
C419 C 0.06917 0.27702 0.70115 0.0
O420 O 1.0106 0.21499 0.68921 0.0
C421 C 0.03035 0.22176 0.72593 0.0
O422 O 0.04912 0.20699 0.72166 0.0
H423 H 0.06142 0.19132 0.69553 0.0
H424 H 0.06407 0.30483 0.70367 0.0
N425 N 1.01012 0.29332 0.69824 0.0
N426 N 0.98157 0.33367 0.69588 0.0
C427 C 0.98915 0.30336 0.70187 0.0
C428 C 1.01614 0.31822 0.68971 0.0
C429 C 0.99851 0.3432 0.68823 0.0
C430 C 1.01215 0.17997 0.68802 0.0
O431 O 1.02107 0.15995 0.6968 0.0
H432 H 0.97889 0.28685 0.708 0.0
H433 H 0.03151 0.31674 0.68435 0.0
O434 O 1.01623 0.23652 0.71857 0.0
H435 H 0.10644 0.28055 0.70081 0.0
H436 H 0.99777 0.36551 0.68164 0.0
Cu437 Cu 0.28275 0.01802 0.69959 0.0
N438 N 0.25215 0.01899 0.69507 0.0
N439 N 0.21742 0.04343 0.69261 0.0
C440 C 0.23705 0.04441 0.69899 0.0
C441 C 0.22027 0.01576 0.68446 0.0
C442 C 0.24175 1.00092 0.68595 0.0
O443 O 0.29848 0.05158 0.68866 0.0
C444 C 0.27436 0.00557 0.72365 0.0
O445 O 0.26299 0.9785 0.71845 0.0
H446 H 0.24092 0.06433 0.70604 0.0
H447 H 0.24969 0.98005 0.68031 0.0
N448 N 0.29662 0.9721 0.69708 0.0
N449 N 0.32542 0.93183 0.69524 0.0
C450 C 0.31929 0.96745 0.69725 0.0
C451 C 0.28786 0.93825 0.69492 0.0
C452 C 0.30562 0.91329 0.69378 0.0
C453 C 0.29183 0.08412 0.68589 0.0
O454 O 0.2758 0.10001 0.69235 0.0
H455 H 0.331 0.98995 0.69904 0.0
H456 H 0.26991 0.93213 0.69425 0.0
O457 O 0.2849 0.02863 0.71689 0.0
H458 H 0.20829 0.00826 0.67741 0.0
H459 H 0.304 0.88391 0.69192 0.0
Cu460 Cu 0.02836 0.98553 0.45129 0.0
N461 N 0.99706 0.98889 0.44912 0.0
N462 N 0.96162 0.96765 0.44696 0.0
C463 C 0.98385 0.95881 0.44761 0.0
C464 C 0.96079 0.00499 0.44812 0.0
C465 C 0.98277 0.01808 0.44943 0.0
O466 O 0.03695 0.94426 0.44081 0.0
C467 C 0.02772 0.00585 0.47538 0.0
O468 O 1.01981 0.03611 0.47019 0.0
H469 H 0.99049 0.93076 0.44743 0.0
H470 H 0.9879 0.04665 0.45071 0.0
N471 N 0.04343 0.02826 0.44612 0.0
N472 N 0.07246 0.0671 0.44298 0.0
C473 C 0.06469 0.03771 0.44937 0.0
C474 C 0.03729 0.05274 0.43748 0.0
C475 C 0.05516 0.07688 0.43556 0.0
C476 C 0.05422 0.94326 0.43384 0.0
O477 O 0.07073 0.96732 0.43537 0.0
H478 H 0.0745 0.02227 0.45599 0.0
H479 H 1.02138 0.05201 0.43256 0.0
O480 O 0.03357 0.97868 0.46863 0.0
H481 H 0.94546 0.02161 0.44808 0.0
H482 H 0.05575 0.09862 0.42877 0.0
Cu483 Cu 0.76845 0.76472 0.44999 0.0
N484 N 0.79901 0.76272 0.44546 0.0
N485 N 0.83421 0.78537 0.44347 0.0
C486 C 0.81547 0.78352 0.45053 0.0
C487 C 0.82952 0.76397 0.43372 0.0
C488 C 0.80773 0.75033 0.43492 0.0
O489 O 0.75407 0.80152 0.43944 0.0
C490 C 0.77627 0.74995 0.47415 0.0
O491 O 0.78566 0.72086 0.46898 0.0
H492 H 0.81288 0.79965 0.4587 0.0
H493 H 0.79822 0.73556 0.42805 0.0
N494 N 0.75344 0.72003 0.44705 0.0
N495 N 0.72427 0.68085 0.44518 0.0
C496 C 0.73128 0.71408 0.44938 0.0
C497 C 0.76079 0.68933 0.44129 0.0
C498 C 0.74274 0.66513 0.44005 0.0
C499 C 0.76469 0.83042 0.43594 0.0
O500 O 0.78364 0.83968 0.44146 0.0
H501 H 0.72028 0.73451 0.45356 0.0
H502 H 0.77787 0.68514 0.43796 0.0
O503 O 0.76705 0.77452 0.46739 0.0
H504 H 0.84017 0.76125 0.42576 0.0
H505 H 0.74308 0.63833 0.43561 0.0
Cu506 Cu 0.02849 0.76351 0.33827 0.0
N507 N 0.99703 0.76231 0.34123 0.0
N508 N 0.96156 0.78513 0.34183 0.0
C509 C 0.98213 0.78667 0.3364 0.0
C510 C 0.9634 0.75767 0.35014 0.0
C511 C 0.98521 0.74376 0.34977 0.0
O512 O 0.0416 0.80168 0.34875 0.0
C513 C 1.02418 0.74555 0.3141 0.0
O514 O 1.01429 0.71697 0.31932 0.0
H515 H 0.98683 0.80667 0.3295 0.0
H516 H 0.99208 0.72325 0.35587 0.0
N517 N 0.04356 0.71978 0.3428 0.0
N518 N 0.07369 0.68266 0.34555 0.0
C519 C 0.06407 0.70923 0.33855 0.0
C520 C 0.04016 0.69907 0.35283 0.0
C521 C 0.05856 0.676 0.35448 0.0
C522 C 0.03159 0.83193 0.35143 0.0
O523 O 1.01355 0.84201 0.34524 0.0
H524 H 0.0727 0.72332 0.33118 0.0
H525 H 0.02649 0.70274 0.35922 0.0
O526 O 0.03255 0.77088 0.32085 0.0
H527 H 0.95049 0.74992 0.35666 0.0
H528 H 0.06125 0.65752 0.36211 0.0
Cu529 Cu 0.76709 0.98474 0.33633 0.0
N530 N 0.79843 0.98878 0.33833 0.0
N531 N 0.83422 0.96851 0.34012 0.0
C532 C 0.81198 0.95957 0.3407 0.0
C533 C 0.83462 0.00513 0.33737 0.0
C534 C 0.81246 0.01757 0.33627 0.0
O535 O 0.75882 0.94162 0.3461 0.0
C536 C 0.77424 0.96612 0.31154 0.0
O537 O 0.79105 0.94593 0.31581 0.0
H538 H 0.80553 0.93172 0.34203 0.0
H539 H 0.80699 0.04517 0.33369 0.0
N540 N 0.75208 0.02619 0.3425 0.0
N541 N 0.72304 0.06447 0.34627 0.0
C542 C 0.73179 0.03888 0.33864 0.0
C543 C 0.75652 0.04465 0.35285 0.0
C544 C 0.73858 0.06831 0.35521 0.0
C545 C 0.74185 0.94025 0.35327 0.0
O546 O 0.72553 0.96495 0.35221 0.0
H547 H 0.72284 0.02738 0.33092 0.0
H548 H 0.77111 0.03965 0.35861 0.0
O549 O 0.7608 0.98205 0.31896 0.0
H550 H 0.84977 0.02159 0.33596 0.0
H551 H 0.73673 0.08588 0.36312 0.0
Cu552 Cu 1.02453 0.51228 0.08692 0.0
N553 N 0.05623 0.51273 0.08876 0.0
N554 N 0.09158 0.53535 0.09048 0.0
C555 C 0.0691 0.54265 0.09139 0.0
C556 C 0.09282 0.49915 0.0873 0.0
C557 C 0.07103 0.48533 0.08624 0.0
O558 O 1.01155 0.54345 0.09954 0.0
C559 C 0.03034 0.53882 0.06261 0.0
O560 O 0.04876 0.55484 0.06682 0.0
H561 H 0.06207 0.56983 0.0932 0.0
H562 H 0.06628 0.45765 0.08339 0.0
N563 N 1.01234 0.46549 0.09018 0.0
N564 N 0.98482 0.42338 0.0928 0.0
C565 C 0.99115 0.45492 0.08708 0.0
C566 C 1.01978 0.43967 0.09809 0.0
C567 C 1.00282 0.41361 0.09972 0.0
C568 C 1.01253 0.57841 0.10104 0.0
O569 O 1.02113 0.59954 0.09246 0.0
H570 H 0.97994 0.47166 0.08151 0.0
H571 H 0.03578 0.441 0.10291 0.0
O572 O 1.01672 0.52313 0.07002 0.0
H573 H 0.10833 0.48384 0.0856 0.0
H574 H 1.00333 0.39021 0.1059 0.0
Cu575 Cu 0.28398 0.74093 0.09024 0.0
N576 N 0.25344 0.74243 0.09508 0.0
N577 N 0.21808 0.71985 0.09696 0.0
C578 C 0.23671 0.72254 0.08981 0.0
C579 C 0.22318 0.73969 0.107 0.0
C580 C 0.24501 0.75325 0.10586 0.0
O581 O 0.29824 0.70192 0.09984 0.0
C582 C 0.27668 0.76033 0.06641 0.0
O583 O 0.26915 0.79003 0.07205 0.0
H584 H 0.23898 0.70775 0.08135 0.0
H585 H 0.25474 0.76689 0.11289 0.0
N586 N 0.29999 0.78448 0.09385 0.0
N587 N 0.32999 0.82209 0.09596 0.0
C588 C 0.32194 0.79052 0.09095 0.0
C589 C 0.29386 0.81344 0.10084 0.0
C590 C 0.31239 0.83662 0.10221 0.0
C591 C 0.28786 0.67186 0.10231 0.0
O592 O 0.26932 0.66356 0.09625 0.0
H593 H 0.33212 0.77116 0.08575 0.0
H594 H 0.27734 0.81701 0.10496 0.0
O595 O 0.28466 0.73364 0.07273 0.0
H596 H 0.21274 0.74146 0.11507 0.0
H597 H 0.31297 0.86189 0.10752 0.0
Cu598 Cu 1.0225 0.74984 0.19853 0.0
N599 N 0.05397 0.74764 0.19586 0.0
N600 N 0.08889 0.72287 0.19456 0.0
C601 C 0.06686 0.71704 0.19746 0.0
C602 C 0.08991 0.75893 0.19116 0.0
C603 C 0.06841 0.77412 0.19201 0.0
O604 O 1.00831 0.71689 0.18676 0.0
C605 C 0.02642 0.76443 0.22274 0.0
O606 O 0.03724 0.79248 0.21774 0.0
H607 H 0.06017 0.69115 0.20089 0.0
H608 H 0.06376 0.80248 0.18998 0.0
N609 N 1.0098 0.79614 0.19478 0.0
N610 N 0.98139 0.83678 0.19205 0.0
C611 C 0.98921 0.80769 0.19862 0.0
C612 C 1.01522 0.81874 0.18548 0.0
C613 C 0.99783 0.84396 0.18383 0.0
C614 C 1.01161 0.68239 0.18505 0.0
O615 O 1.02307 0.66302 0.1931 0.0
H616 H 0.97923 0.79277 0.20528 0.0
H617 H 0.02973 0.81513 0.17959 0.0
O618 O 1.01746 0.7402 0.21577 0.0
H619 H 0.10498 0.77333 0.1881 0.0
H620 H 0.99677 0.86451 0.17667 0.0
Cu621 Cu 0.28162 0.5153 0.20126 0.0
N622 N 0.25025 0.51349 0.19881 0.0
N623 N 0.21499 0.53617 0.19673 0.0
C624 C 0.23702 0.54397 0.19906 0.0
C625 C 0.21441 0.49899 0.195 0.0
C626 C 0.23622 0.48507 0.19627 0.0
O627 O 0.29102 0.55706 0.19123 0.0
C628 C 0.27926 0.49449 0.22528 0.0
O629 O 0.2703 0.46525 0.21999 0.0
H630 H 0.2436 0.57136 0.20102 0.0
H631 H 0.24147 0.45642 0.19532 0.0
N632 N 0.29659 0.47265 0.19578 0.0
N633 N 0.32577 0.43422 0.19233 0.0
C634 C 0.31698 0.46046 0.19973 0.0
C635 C 0.29218 0.45317 0.18564 0.0
C636 C 0.31015 0.42942 0.18348 0.0
C637 C 0.30853 0.55775 0.18444 0.0
O638 O 0.32466 0.53297 0.18603 0.0
H639 H 0.32602 0.47287 0.20727 0.0
H640 H 0.27765 0.45766 0.17979 0.0
O641 O 0.28643 0.52103 0.21863 0.0
H642 H 0.19943 0.48298 0.19277 0.0
H643 H 0.31202 0.41122 0.17573 0.0
Cu644 Cu 0.02893 0.50018 0.94921 0.0
N645 N 0.99744 0.49752 0.94677 0.0
N646 N 0.96312 0.47158 0.94445 0.0
C647 C 0.98582 0.46612 0.94441 0.0
C648 C 0.96035 0.50818 0.94672 0.0
C649 C 0.98156 0.52408 0.9482 0.0
O650 O 0.04308 0.46866 0.93706 0.0
C651 C 1.02229 0.4755 0.97371 0.0
O652 O 1.00392 0.45934 0.9695 0.0
H653 H 0.99389 0.43946 0.94309 0.0
H654 H 0.98512 0.55262 0.9506 0.0
N655 N 0.04042 0.54728 0.9458 0.0
N656 N 0.06754 0.59013 0.94335 0.0
C657 C 0.06129 0.5587 0.94915 0.0
C658 C 0.03307 0.57243 0.93764 0.0
C659 C 0.0498 0.59896 0.93611 0.0
C660 C 0.04298 0.43348 0.93612 0.0
O661 O 0.03504 0.41313 0.94507 0.0
H662 H 0.0724 0.54254 0.95496 0.0
H663 H 1.01736 0.57029 0.93258 0.0
O664 O 0.03609 0.49071 0.96629 0.0
H665 H 0.94417 0.52211 0.94783 0.0
H666 H 0.04933 0.62201 0.92979 0.0
Cu667 Cu 0.77203 0.26214 0.94894 0.0
N668 N 0.80349 0.26077 0.94636 0.0
N669 N 0.83883 0.28274 0.94387 0.0
C670 C 0.81635 0.29045 0.94349 0.0
C671 C 0.84005 0.24641 0.94694 0.0
C672 C 0.81825 0.233 0.9485 0.0
O673 O 0.75898 0.29393 0.9365 0.0
C674 C 0.78061 0.28659 0.97326 0.0
O675 O 0.80005 0.29869 0.96897 0.0
H676 H 0.80934 0.31781 0.94199 0.0
H677 H 0.81357 0.20545 0.95152 0.0
N678 N 0.75813 0.21635 0.94633 0.0
N679 N 0.72905 0.17654 0.94477 0.0
C680 C 0.73605 0.2101 0.94876 0.0
C681 C 0.76556 0.18568 0.94061 0.0
C682 C 0.74767 0.16094 0.93969 0.0
C683 C 0.76012 0.32898 0.93527 0.0
O684 O 0.76891 0.34925 0.94401 0.0
H685 H 0.72526 0.23041 0.95314 0.0
H686 H 0.78246 0.18216 0.93692 0.0
O687 O 0.76566 0.27423 0.96591 0.0
H688 H 0.85554 0.23076 0.94834 0.0
H689 H 0.74815 0.13431 0.93515 0.0
Cu690 Cu 0.02776 0.25859 0.83955 0.0
N691 N 0.99626 0.25975 0.84196 0.0
N692 N 0.96115 0.28292 0.84425 0.0
C693 C 0.98365 0.2904 0.84398 0.0
C694 C 0.95965 0.24583 0.84248 0.0
C695 C 0.9813 0.23167 0.84107 0.0
O696 O 0.04156 0.29103 0.85155 0.0
C697 C 1.02096 0.28253 0.81498 0.0
O698 O 1.00252 0.29854 0.81917 0.0
H699 H 0.99083 0.31794 0.84456 0.0
H700 H 0.98579 0.20311 0.8392 0.0
N701 N 0.03976 0.21204 0.84328 0.0
N702 N 0.06726 0.16999 0.846 0.0
C703 C 0.06036 0.20006 0.83966 0.0
C704 C 0.03331 0.18865 0.85217 0.0
C705 C 0.05028 0.16263 0.85388 0.0
C706 C 0.04065 0.32617 0.85254 0.0
O707 O 0.03172 0.3461 0.84375 0.0
H708 H 0.07092 0.21509 0.83328 0.0
H709 H 1.01816 0.19193 0.85763 0.0
O710 O 0.03482 0.26751 0.82243 0.0
H711 H 0.94405 0.23 0.84204 0.0
H712 H 0.05062 0.14117 0.86077 0.0
Cu713 Cu 0.77217 0.50074 0.83812 0.0
N714 N 0.80362 0.4994 0.84075 0.0
N715 N 0.83826 0.47464 0.84323 0.0
C716 C 0.81562 0.46853 0.84336 0.0
C717 C 0.84057 0.51115 0.84065 0.0
C718 C 0.81916 0.52632 0.83908 0.0
O719 O 0.75823 0.46854 0.85014 0.0
C720 C 0.7797 0.476 0.81374 0.0
O721 O 0.7979 0.45978 0.81817 0.0
H722 H 0.80788 0.44174 0.84489 0.0
H723 H 0.81525 0.55453 0.83641 0.0
N724 N 0.75978 0.54717 0.84152 0.0
N725 N 0.73152 0.58794 0.84411 0.0
C726 C 0.73872 0.5575 0.8381 0.0
C727 C 0.76627 0.57205 0.84994 0.0
C728 C 0.74883 0.59731 0.85156 0.0
C729 C 0.7589 0.4334 0.8512 0.0
O730 O 0.76749 0.41321 0.84239 0.0
H731 H 0.72813 0.54102 0.83214 0.0
H732 H 0.78182 0.57036 0.85516 0.0
O733 O 0.76562 0.49126 0.82099 0.0
H734 H 0.85656 0.52546 0.83936 0.0
H735 H 0.74847 0.61967 0.85812 0.0
H736 H 0.50753 0.03604 0.12378 0.0
H737 H 0.50673 0.21831 0.1652 0.0
H738 H 0.51939 0.14619 0.10957 0.0
H739 H 0.5167 0.10782 0.17958 0.0
H740 H 0.50439 0.19231 0.14477 0.0
H741 H 0.50388 0.06222 0.14411 0.0
C742 C 0.50912 0.06583 0.12488 0.0
C743 C 0.51392 0.08892 0.11489 0.0
C744 C 0.50694 0.17374 0.1524 0.0
C745 C 0.50972 0.11903 0.13828 0.0
C746 C 0.50817 0.1885 0.16411 0.0
C747 C 0.51205 0.16523 0.17418 0.0
C748 C 0.50935 0.13533 0.15069 0.0
C749 C 0.51379 0.12685 0.17211 0.0
C750 C 0.50713 0.08069 0.13654 0.0
C751 C 0.51578 0.12729 0.11697 0.0
N752 N 0.51248 0.11312 0.16061 0.0
N753 N 0.51373 0.14112 0.12843 0.0
H754 H 0.76398 0.07714 0.16859 0.0
H755 H 0.82504 0.17823 0.11386 0.0
H756 H 0.83726 0.07977 0.16671 0.0
H757 H 0.7629 0.11637 0.10915 0.0
H758 H 0.82921 0.15113 0.13424 0.0
H759 H 0.76217 0.10237 0.14799 0.0
C760 C 0.77971 0.08357 0.16393 0.0
C761 C 0.80084 0.07636 0.16941 0.0
C762 C 0.81484 0.14323 0.12866 0.0
C763 C 0.79877 0.10519 0.14579 0.0
C764 C 0.81247 0.15855 0.11705 0.0
C765 C 0.79367 0.14933 0.10978 0.0
C766 C 0.79794 0.11942 0.13316 0.0
C767 C 0.77777 0.12392 0.11439 0.0
C768 C 0.77863 0.09758 0.15212 0.0
C769 C 0.82063 0.08491 0.16283 0.0
N770 N 0.78008 0.11029 0.12586 0.0
N771 N 0.81913 0.09909 0.15137 0.0
H772 H 0.53726 0.90191 0.85868 0.0
H773 H 0.5363 0.85493 0.92947 0.0
H774 H 0.54965 0.79177 0.8728 0.0
H775 H 0.5449 0.96631 0.91563 0.0
H776 H 0.54036 0.83107 0.90874 0.0
H777 H 0.53939 0.92632 0.87943 0.0
C778 C 0.54068 0.88292 0.86609 0.0
C779 C 0.54319 0.8447 0.86394 0.0
C780 C 0.54156 0.86071 0.91027 0.0
C781 C 0.54527 0.87235 0.88775 0.0
C782 C 0.53923 0.87434 0.92211 0.0
C783 C 0.54019 0.91269 0.92433 0.0
C784 C 0.54456 0.88562 0.90054 0.0
C785 C 0.54403 0.93652 0.91439 0.0
C786 C 0.54188 0.89686 0.87795 0.0
C787 C 0.54757 0.82144 0.87396 0.0
N788 N 0.54583 0.92265 0.90295 0.0
N789 N 0.54821 0.83554 0.88541 0.0
H790 H 0.2266 0.92792 0.86493 0.0
H791 H 0.28365 0.84497 0.92432 0.0
H792 H 0.29397 0.88031 0.86547 0.0
H793 H 0.21171 0.83031 0.91816 0.0
H794 H 0.28722 0.87172 0.90405 0.0
H795 H 0.22015 0.90307 0.8855 0.0
C796 C 0.2399 0.91191 0.86929 0.0
C797 C 0.26082 0.90605 0.86344 0.0
C798 C 0.27062 0.86292 0.90719 0.0
C799 C 0.25382 0.87889 0.88699 0.0
C800 C 0.26849 0.84799 0.91881 0.0
C801 C 0.24733 0.83514 0.92295 0.0
C802 C 0.25144 0.8657 0.89967 0.0
C803 C 0.22835 0.8397 0.91532 0.0
C804 C 0.23622 0.8979 0.88101 0.0
C805 C 0.27752 0.88531 0.86955 0.0
N806 N 0.23084 0.85462 0.90401 0.0
N807 N 0.27376 0.87294 0.88103 0.0
H808 H 0.51856 0.6487 0.6089 0.0
H809 H 0.51661 0.60466 0.67969 0.0
H810 H 0.50235 0.54001 0.62306 0.0
H811 H 0.50875 0.7156 0.66533 0.0
H812 H 0.51242 0.57999 0.65905 0.0
H813 H 0.51587 0.67384 0.62952 0.0
C814 C 0.51415 0.63021 0.6163 0.0
C815 C 0.51074 0.59217 0.61421 0.0
C816 C 0.51139 0.60971 0.66046 0.0
C817 C 0.50807 0.62062 0.63788 0.0
C818 C 0.51381 0.6238 0.67224 0.0
C819 C 0.51312 0.66227 0.67428 0.0
C820 C 0.50862 0.63429 0.65062 0.0
C821 C 0.50943 0.68574 0.66424 0.0
C822 C 0.51263 0.64457 0.62808 0.0
C823 C 0.5051 0.56953 0.6242 0.0
N824 N 0.50758 0.67143 0.65286 0.0
N825 N 0.50424 0.58399 0.6356 0.0
H826 H 0.79035 0.65036 0.68011 0.0
H827 H 0.79164 0.60906 0.60908 0.0
H828 H 0.79926 0.54015 0.66543 0.0
H829 H 0.80442 0.71801 0.62395 0.0
H830 H 0.79401 0.58306 0.62963 0.0
H831 H 0.79491 0.67595 0.65961 0.0
C832 C 0.79346 0.63157 0.67262 0.0
C833 C 0.79433 0.59303 0.67453 0.0
C834 C 0.79655 0.6126 0.62836 0.0
C835 C 0.79926 0.62208 0.65101 0.0
C836 C 0.79523 0.62745 0.61662 0.0
C837 C 0.79773 0.66581 0.61474 0.0
C838 C 0.80006 0.63633 0.63832 0.0
C839 C 0.80233 0.68827 0.62491 0.0
C840 C 0.79609 0.64618 0.66091 0.0
C841 C 0.79843 0.57005 0.66443 0.0
N842 N 0.80306 0.67329 0.63625 0.0
N843 N 0.80049 0.58486 0.65312 0.0
H844 H 0.55174 0.46714 0.41467 0.0
H845 H 0.55099 0.28443 0.3734 0.0
H846 H 0.5391 0.35719 0.42884 0.0
H847 H 0.54211 0.39505 0.35893 0.0
H848 H 0.55437 0.31064 0.39375 0.0
H849 H 0.55594 0.44076 0.39437 0.0
C850 C 0.55015 0.43736 0.41357 0.0
C851 C 0.54488 0.41439 0.42353 0.0
C852 C 0.55187 0.3292 0.38611 0.0
C853 C 0.54969 0.38406 0.40019 0.0
C854 C 0.55004 0.31431 0.37445 0.0
C855 C 0.54607 0.33754 0.36438 0.0
C856 C 0.54994 0.36769 0.38779 0.0
C857 C 0.54504 0.37603 0.36639 0.0
C858 C 0.55245 0.42238 0.40194 0.0
C859 C 0.54304 0.37601 0.42146 0.0
N860 N 0.54687 0.38988 0.37786 0.0
N861 N 0.54535 0.36208 0.41003 0.0
H862 H 0.25694 0.36033 0.35894 0.0
H863 H 0.26474 0.39603 0.42973 0.0
H864 H 0.24923 0.46949 0.37463 0.0
H865 H 0.24504 0.28958 0.41513 0.0
H866 H 0.25975 0.42349 0.40954 0.0
H867 H 0.25314 0.33324 0.37931 0.0
C868 C 0.25415 0.37857 0.36661 0.0
C869 C 0.25356 0.41727 0.36504 0.0
C870 C 0.25622 0.39422 0.4108 0.0
C871 C 0.2496 0.38652 0.38837 0.0
C872 C 0.25907 0.37854 0.42233 0.0
C873 C 0.25536 0.34044 0.42414 0.0
C874 C 0.25008 0.37151 0.40095 0.0
C875 C 0.24805 0.3191 0.41418 0.0
C876 C 0.25198 0.36309 0.37823 0.0
C877 C 0.24989 0.43952 0.37536 0.0
N878 N 0.24599 0.3348 0.40298 0.0
N879 N 0.24838 0.42388 0.38657 0.0
H880 H 1.01264 0.14891 0.61057 0.0
H881 H 1.01234 0.1061 0.68149 0.0
H882 H 1.00158 0.03897 0.62513 0.0
H883 H 1.00141 0.21607 0.66688 0.0
H884 H 1.00868 0.08072 0.66093 0.0
H885 H 1.00875 0.17431 0.6311 0.0
C886 C 1.00912 0.13016 0.61803 0.0
C887 C 1.00756 0.09172 0.61608 0.0
C888 C 1.00684 0.11036 0.66226 0.0
C889 C 1.00347 0.12052 0.63965 0.0
C890 C 1.00892 0.12486 0.67401 0.0
C891 C 1.0073 0.1633 0.67595 0.0
C892 C 1.00344 0.13451 0.65236 0.0
C893 C 1.00285 0.18625 0.66586 0.0
C894 C 1.00692 0.14466 0.62976 0.0
C895 C 1.00299 0.06878 0.62615 0.0
N896 N 1.00136 0.17158 0.65452 0.0
N897 N 1.00139 0.08346 0.63749 0.0
H898 H 0.30784 0.22192 0.62171 0.0
H899 H 0.30907 0.04721 0.66625 0.0
H900 H 0.2892 0.11185 0.60982 0.0
H901 H 0.28843 0.15642 0.67808 0.0
H902 H 0.31351 0.07123 0.64558 0.0
H903 H 0.31245 0.19811 0.64241 0.0
C904 C 0.30521 0.19257 0.62338 0.0
C905 C 0.29801 0.16881 0.61401 0.0
C906 C 0.30834 0.08997 0.65276 0.0
C907 C 0.30342 0.14158 0.63767 0.0
C908 C 0.30595 0.07644 0.66458 0.0
C909 C 0.29825 0.09986 0.67392 0.0
C910 C 0.30347 0.12735 0.65029 0.0
C911 C 0.29429 0.13739 0.67115 0.0
C912 C 0.30769 0.17915 0.63522 0.0
C913 C 0.29466 0.13113 0.61677 0.0
N914 N 0.29693 0.15 0.65957 0.0
N915 N 0.29738 0.11866 0.62836 0.0
H916 H 1.00451 0.87918 0.36426 0.0
H917 H 0.08883 0.92521 0.41809 0.0
H918 H 0.0706 0.82701 0.36526 0.0
H919 H 1.01643 0.91359 0.42321 0.0
H920 H 0.08481 0.898 0.39769 0.0
H921 H 1.01114 0.90355 0.38463 0.0
C922 C 1.0206 0.87332 0.36867 0.0
C923 C 0.03702 0.85093 0.36302 0.0
C924 C 0.06993 0.9011 0.40338 0.0
C925 C 0.04462 0.8788 0.38641 0.0
C926 C 0.07218 0.91648 0.41501 0.0
C927 C 0.05295 0.92165 0.42239 0.0
C928 C 0.04823 0.89185 0.39903 0.0
C929 C 0.03177 0.91 0.4179 0.0
C930 C 1.02424 0.88694 0.38035 0.0
C931 C 0.05746 0.84409 0.36928 0.0
N932 N 0.02994 0.89622 0.40646 0.0
N933 N 0.06075 0.85809 0.38065 0.0
H934 H 0.72415 0.82814 0.42333 0.0
H935 H 0.77948 0.90579 0.36258 0.0
H936 H 0.79248 0.87132 0.42138 0.0
H937 H 0.70828 0.92442 0.3699 0.0
H938 H 0.7837 0.87872 0.38279 0.0
H939 H 0.71714 0.8518 0.40264 0.0
C940 C 0.73757 0.84286 0.41862 0.0
C941 C 0.7589 0.84795 0.42414 0.0
C942 C 0.76711 0.88841 0.37992 0.0
C943 C 0.75122 0.87373 0.40045 0.0
C944 C 0.7646 0.90353 0.36832 0.0
C945 C 0.74348 0.91763 0.36453 0.0
C946 C 0.74833 0.88672 0.38775 0.0
C947 C 0.72488 0.91405 0.37247 0.0
C948 C 0.73357 0.8562 0.40684 0.0
C949 C 0.77572 0.86701 0.41758 0.0
N950 N 0.72773 0.89896 0.38373 0.0
N951 N 0.77161 0.87877 0.40606 0.0
H952 H 0.99757 0.71911 0.16455 0.0
H953 H 1.00238 0.54002 0.12181 0.0
H954 H 1.0141 0.60936 0.17776 0.0
H955 H 1.0112 0.65172 0.10828 0.0
H956 H 0.99837 0.56468 0.14233 0.0
H957 H 0.99419 0.69402 0.14402 0.0
C958 C 1.00015 0.68961 0.1632 0.0
C959 C 1.00629 0.66634 0.17294 0.0
C960 C 1.00099 0.5838 0.13486 0.0
C961 C 1.00241 0.63755 0.14937 0.0
C962 C 1.00318 0.56981 0.1231 0.0
C963 C 1.00731 0.59382 0.11325 0.0
C964 C 1.00265 0.62217 0.13684 0.0
C965 C 1.00816 0.63215 0.11557 0.0
C966 C 0.99834 0.6754 0.15143 0.0
C967 C 1.00945 0.62838 0.17055 0.0
N968 N 1.00592 0.64513 0.12713 0.0
N969 N 1.00754 0.6152 0.159 0.0
H970 H 0.3436 0.57399 0.16875 0.0
H971 H 0.2602 0.6251 0.11496 0.0
H972 H 0.27147 0.58989 0.17382 0.0
H973 H 0.32716 0.67402 0.11595 0.0
H974 H 0.26653 0.59984 0.13526 0.0
H975 H 0.34019 0.60149 0.14834 0.0
C976 C 0.32715 0.58372 0.16566 0.0
C977 C 0.3078 0.57964 0.17303 0.0
C978 C 0.27989 0.61589 0.13099 0.0
C979 C 0.30376 0.60974 0.14965 0.0
C980 C 0.27642 0.63 0.11934 0.0
C981 C 0.29317 0.6518 0.11373 0.0
C982 C 0.30042 0.62297 0.13704 0.0
C983 C 0.31378 0.65741 0.11995 0.0
C984 C 0.32524 0.59925 0.15403 0.0
C985 C 0.28688 0.59257 0.16852 0.0
N986 N 0.31688 0.64299 0.13129 0.0
N987 N 0.28537 0.60647 0.15708 0.0
H988 H 0.04089 0.40026 0.8588 0.0
H989 H 0.04425 0.35942 0.92987 0.0
H990 H 0.05254 0.2908 0.87365 0.0
H991 H 0.05261 0.46934 0.91478 0.0
H992 H 0.0476 0.33352 0.90937 0.0
H993 H 0.04544 0.42634 0.8792 0.0
C994 C 0.04467 0.38175 0.8663 0.0
C995 C 0.04619 0.34325 0.86447 0.0
C996 C 0.04897 0.36328 0.91058 0.0
C997 C 0.05109 0.37284 0.8879 0.0
C998 C 0.04707 0.37808 0.92229 0.0
C999 C 0.04801 0.41664 0.92409 0.0
C1000 C 0.0515 0.38723 0.90056 0.0
C1001 C 0.05169 0.43944 0.91388 0.0
C1002 C 0.04726 0.39665 0.87796 0.0
C1003 C 0.05113 0.32065 0.87458 0.0
N1004 N 0.05302 0.42445 0.90257 0.0
N1005 N 0.05312 0.33571 0.88585 0.0
H1006 H 0.75969 0.40278 0.92862 0.0
H1007 H 0.75889 0.35949 0.85776 0.0
H1008 H 0.74927 0.29254 0.91425 0.0
H1009 H 0.74788 0.46944 0.87226 0.0
H1010 H 0.75541 0.33413 0.87835 0.0
H1011 H 0.7555 0.42796 0.90805 0.0
C1012 C 0.75627 0.38391 0.92119 0.0
C1013 C 0.75495 0.34547 0.9232 0.0
C1014 C 0.7535 0.36376 0.87698 0.0
C1015 C 0.75047 0.37402 0.89959 0.0
C1016 C 0.75546 0.37825 0.86522 0.0
C1017 C 0.75381 0.41668 0.86324 0.0
C1018 C 0.75019 0.38793 0.88686 0.0
C1019 C 0.74936 0.43962 0.87331 0.0
C1020 C 0.75388 0.39829 0.90944 0.0
C1021 C 0.75048 0.32237 0.91317 0.0
N1022 N 0.748 0.42497 0.88467 0.0
N1023 N 0.74869 0.33694 0.90182 0.0
H1024 H 0.35894 0.81989 0.07684 0.0
H1025 H 0.46601 0.89037 0.11472 0.0
H1026 H 0.3537 0.8546 0.11417 0.0
H1027 H 0.46098 0.90749 0.07607 0.0
H1028 H 0.42692 0.86661 0.11482 0.0
H1029 H 0.39847 0.84203 0.07647 0.0
C1030 C 0.36616 0.83211 0.08495 0.0
C1031 C 0.35305 0.83559 0.09554 0.0
C1032 C 0.43442 0.87545 0.10632 0.0
C1033 C 0.3982 0.86035 0.09525 0.0
C1034 C 0.45676 0.88867 0.10624 0.0
C1035 C 0.46672 0.90083 0.09536 0.0
C1036 C 0.42209 0.87369 0.09541 0.0
C1037 C 0.45385 0.89855 0.08464 0.0
C1038 C 0.38862 0.84484 0.08472 0.0
C1039 C 0.36315 0.85179 0.1058 0.0
N1040 N 0.43223 0.88504 0.08491 0.0
N1041 N 0.38517 0.86328 0.10544 0.0
H1042 H 0.85322 0.33243 0.07393 0.0
H1043 H 0.96301 0.39154 0.11186 0.0
H1044 H 0.85181 0.34959 0.11266 0.0
H1045 H 0.95525 0.41894 0.07396 0.0
H1046 H 0.92409 0.3673 0.11203 0.0
H1047 H 0.89237 0.35612 0.07346 0.0
C1048 C 0.86117 0.34121 0.08232 0.0
C1049 C 0.84924 0.33921 0.09334 0.0
C1050 C 0.93093 0.37854 0.10367 0.0
C1051 C 0.89402 0.36578 0.0929 0.0
C1052 C 0.95319 0.39205 0.10354 0.0
C1053 C 0.96238 0.40721 0.09286 0.0
C1054 C 0.91783 0.37959 0.093 0.0
C1055 C 0.94875 0.40769 0.08238 0.0
C1056 C 0.88343 0.35482 0.08204 0.0
C1057 C 0.86029 0.3511 0.10396 0.0
N1058 N 0.9272 0.39391 0.08269 0.0
N1059 N 0.8821 0.36358 0.10349 0.0
H1060 H 0.45368 0.33517 0.2139 0.0
H1061 H 0.3529 0.41675 0.17325 0.0
H1062 H 0.46328 0.37228 0.17701 0.0
H1063 H 0.35073 0.418 0.21238 0.0
H1064 H 0.39199 0.39358 0.17417 0.0
H1065 H 0.41465 0.35924 0.21331 0.0
C1066 C 0.44757 0.34846 0.20569 0.0
C1067 C 0.46176 0.35181 0.1955 0.0
C1068 C 0.38296 0.39889 0.18256 0.0
C1069 C 0.4171 0.379 0.19471 0.0
C1070 C 0.36058 0.41178 0.18204 0.0
C1071 C 0.34851 0.41918 0.19277 0.0
C1072 C 0.39332 0.39281 0.19389 0.0
C1073 C 0.35948 0.41282 0.20391 0.0
C1074 C 0.42535 0.36229 0.20538 0.0
C1075 C 0.45303 0.36949 0.18512 0.0
N1076 N 0.38122 0.3998 0.20419 0.0
N1077 N 0.43123 0.38212 0.18495 0.0
H1078 H 0.84656 0.90647 0.17175 0.0
H1079 H 0.95395 0.84548 0.21166 0.0
H1080 H 0.84987 0.92503 0.21039 0.0
H1081 H 0.95666 0.86185 0.17289 0.0
H1082 H 0.91463 0.86858 0.21163 0.0
H1083 H 0.88562 0.88323 0.17221 0.0
C1084 C 0.85542 0.90531 0.18036 0.0
C1085 C 0.8449 0.91767 0.19105 0.0
C1086 C 0.92391 0.86728 0.20314 0.0
C1087 C 0.88976 0.89126 0.19165 0.0
C1088 C 0.94628 0.85401 0.20316 0.0
C1089 C 0.95866 0.85192 0.19228 0.0
C1090 C 0.91369 0.87793 0.19213 0.0
C1091 C 0.94793 0.86347 0.18151 0.0
C1092 C 0.87781 0.89235 0.1806 0.0
C1093 C 0.8574 0.91605 0.20192 0.0
N1094 N 0.92606 0.87571 0.1817 0.0
N1095 N 0.87913 0.90296 0.20196 0.0
H1096 H 0.71587 0.10413 0.94322 0.0
H1097 H 0.58318 0.15166 0.9497 0.0
H1098 H 0.68947 0.2155 0.94691 0.0
H1099 H 0.60914 0.04127 0.94317 0.0
H1100 H 0.62205 0.17548 0.94902 0.0
H1101 H 0.67695 0.08039 0.94356 0.0
C1102 C 0.70197 0.12365 0.94406 0.0
C1103 C 0.70614 0.16194 0.94507 0.0
C1104 C 0.61922 0.14602 0.94774 0.0
C1105 C 0.66138 0.13484 0.94557 0.0
C1106 C 0.59697 0.13241 0.94806 0.0
C1107 C 0.59272 0.0943 0.94654 0.0
C1108 C 0.63746 0.12142 0.94587 0.0
C1109 C 0.61146 0.07072 0.9446 0.0
C1110 C 0.67971 0.11004 0.94431 0.0
C1111 C 0.6873 0.18576 0.9463 0.0
N1112 N 0.63293 0.08464 0.94433 0.0
N1113 N 0.66583 0.17184 0.94651 0.0
H1114 H 0.20001 0.66885 0.92235 0.0
H1115 H 0.09649 0.59459 0.96244 0.0
H1116 H 0.19938 0.67653 0.96143 0.0
H1117 H 0.08974 0.6229 0.92456 0.0
H1118 H 0.13538 0.61912 0.9622 0.0
H1119 H 0.16088 0.6458 0.92286 0.0
C1120 C 0.19171 0.66536 0.93105 0.0
C1121 C 0.203 0.67453 0.94187 0.0
C1122 C 0.12533 0.62017 0.95396 0.0
C1123 C 0.15815 0.64832 0.94252 0.0
C1124 C 0.10319 0.6061 0.95409 0.0
C1125 C 0.08985 0.60678 0.94352 0.0
C1126 C 0.13437 0.63449 0.94312 0.0
C1127 C 0.09931 0.6222 0.93294 0.0
C1128 C 0.1693 0.65253 0.93133 0.0
C1129 C 0.19125 0.67001 0.95288 0.0
N1130 N 0.12104 0.63513 0.93299 0.0
N1131 N 0.16952 0.65704 0.95293 0.0
H1132 H 0.59825 0.66956 0.82422 0.0
H1133 H 0.70779 0.61543 0.86323 0.0
H1134 H 0.59552 0.64908 0.86277 0.0
H1135 H 0.70306 0.59335 0.82485 0.0
H1136 H 0.6681 0.63624 0.86311 0.0
H1137 H 0.63805 0.649 0.82411 0.0
C1138 C 0.60604 0.66059 0.83264 0.0
C1139 C 0.59357 0.66085 0.8435 0.0
C1140 C 0.67578 0.62693 0.85471 0.0
C1141 C 0.63909 0.6379 0.84349 0.0
C1142 C 0.69848 0.61542 0.85475 0.0
C1143 C 0.70873 0.60273 0.84402 0.0
C1144 C 0.66332 0.62629 0.84382 0.0
C1145 C 0.69574 0.60275 0.83332 0.0
C1146 C 0.62868 0.64882 0.83257 0.0
C1147 C 0.60443 0.64887 0.85417 0.0
N1148 N 0.67374 0.61448 0.83347 0.0
N1149 N 0.62662 0.63819 0.85392 0.0
H1150 H 0.092 0.14644 0.86531 0.0
H1151 H 0.19614 0.07124 0.82622 0.0
H1152 H 0.09384 0.15775 0.82635 0.0
H1153 H 0.20425 0.11109 0.86285 0.0
H1154 H 0.15659 0.09332 0.82637 0.0
H1155 H 0.13119 0.1231 0.86493 0.0
C1156 C 0.10057 0.14353 0.85666 0.0
C1157 C 0.0897 0.15391 0.84583 0.0
C1158 C 0.16708 0.0973 0.83436 0.0
C1159 C 0.13442 0.12733 0.84533 0.0
C1160 C 0.18954 0.08462 0.83429 0.0
C1161 C 0.20344 0.08951 0.84452 0.0
C1162 C 0.15831 0.1142 0.84484 0.0
C1163 C 0.19416 0.10718 0.85474 0.0
C1164 C 0.12296 0.13057 0.85646 0.0
C1165 C 0.1017 0.15015 0.83489 0.0
N1166 N 0.1721 0.11859 0.85469 0.0
N1167 N 0.12339 0.13695 0.83489 0.0
H1168 H 0.46018 0.40469 0.57477 0.0
H1169 H 0.34222 0.37993 0.60946 0.0
H1170 H 0.4547 0.40956 0.61376 0.0
H1171 H 0.35547 0.32696 0.5751 0.0
H1172 H 0.38193 0.40077 0.61012 0.0
H1173 H 0.42024 0.38477 0.57368 0.0
C1174 C 0.45055 0.40138 0.58308 0.0
C1175 C 0.46074 0.4084 0.59436 0.0
C1176 C 0.3761 0.38468 0.60243 0.0
C1177 C 0.41515 0.38654 0.5932 0.0
C1178 C 0.35344 0.37311 0.60199 0.0
C1179 C 0.34563 0.35169 0.59221 0.0
C1180 C 0.39091 0.37534 0.5929 0.0
C1181 C 0.36093 0.34318 0.58284 0.0
C1182 C 0.42786 0.39003 0.58246 0.0
C1183 C 0.44758 0.40385 0.6049 0.0
N1184 N 0.38282 0.35517 0.58337 0.0
N1185 N 0.42541 0.39352 0.60406 0.0
H1186 H 0.84733 0.86155 0.61548 0.0
H1187 H 0.95706 0.91534 0.57666 0.0
H1188 H 0.85105 0.84394 0.5768 0.0
H1189 H 0.95915 0.8946 0.61521 0.0
H1190 H 0.91716 0.89547 0.57636 0.0
H1191 H 0.88713 0.88117 0.61542 0.0
C1192 C 0.85644 0.86227 0.60695 0.0
C1193 C 0.84585 0.8512 0.59611 0.0
C1194 C 0.92641 0.89504 0.58486 0.0
C1195 C 0.89149 0.87332 0.596 0.0
C1196 C 0.94912 0.90642 0.58504 0.0
C1197 C 0.96143 0.90647 0.59596 0.0
C1198 C 0.91581 0.88426 0.59574 0.0
C1199 C 0.95039 0.89454 0.60657 0.0
C1200 C 0.87923 0.87309 0.60694 0.0
C1201 C 0.85864 0.85207 0.58535 0.0
N1202 N 0.92816 0.88423 0.60621 0.0
N1203 N 0.88076 0.86306 0.58555 0.0
H1204 H 0.44391 0.79019 0.69601 0.0
H1205 H 0.36471 0.97008 0.69128 0.0
H1206 H 0.47005 0.90228 0.69523 0.0
H1207 H 0.3389 0.85985 0.6983 0.0
H1208 H 0.40323 0.94534 0.69145 0.0
H1209 H 0.40543 0.81485 0.69567 0.0
C1210 C 0.44169 0.82 0.69586 0.0
C1211 C 0.46051 0.84411 0.69574 0.0
C1212 C 0.38914 0.92656 0.69297 0.0
C1213 C 0.41607 0.87259 0.69512 0.0
C1214 C 0.36704 0.9407 0.69294 0.0
C1215 C 0.34832 0.91715 0.69489 0.0
C1216 C 0.39272 0.88847 0.69489 0.0
C1217 C 0.35264 0.87912 0.69667 0.0
C1218 C 0.41958 0.83406 0.69559 0.0
C1219 C 0.45623 0.88251 0.69524 0.0
N1220 N 0.37435 0.86601 0.69664 0.0
N1221 N 0.4345 0.89551 0.69495 0.0
H1222 H 0.84437 0.39254 0.67661 0.0
H1223 H 0.95423 0.34038 0.71551 0.0
H1224 H 0.85013 0.41993 0.71458 0.0
H1225 H 0.9567 0.35915 0.67687 0.0
H1226 H 0.91453 0.36158 0.71563 0.0
H1227 H 0.88397 0.37122 0.67678 0.0
C1228 C 0.8539 0.39363 0.68501 0.0
C1229 C 0.84399 0.40795 0.69561 0.0
C1230 C 0.92382 0.36124 0.70715 0.0
C1231 C 0.88924 0.38376 0.69587 0.0
C1232 C 0.9464 0.34911 0.70707 0.0
C1233 C 0.95875 0.34823 0.69618 0.0
C1234 C 0.91338 0.37181 0.6962 0.0
C1235 C 0.94787 0.35987 0.68548 0.0
C1236 C 0.87653 0.38182 0.68508 0.0
C1237 C 0.85722 0.40926 0.70622 0.0
N1238 N 0.92574 0.37086 0.68573 0.0
N1239 N 0.87914 0.39716 0.7061 0.0
H1240 H 0.59114 0.60805 0.42356 0.0
H1241 H 0.69317 0.68794 0.46311 0.0
H1242 H 0.59069 0.60219 0.46266 0.0
H1243 H 0.70312 0.64256 0.4273 0.0
H1244 H 0.65362 0.66606 0.4627 0.0
H1245 H 0.63032 0.63107 0.42426 0.0
C1246 C 0.59921 0.61213 0.43229 0.0
C1247 C 0.58771 0.60339 0.44308 0.0
C1248 C 0.66452 0.6608 0.45496 0.0
C1249 C 0.63242 0.62954 0.44395 0.0
C1250 C 0.68698 0.67336 0.45517 0.0
C1251 C 0.70136 0.66688 0.44524 0.0
C1252 C 0.65628 0.64243 0.44462 0.0
C1253 C 0.69262 0.64772 0.43519 0.0
C1254 C 0.6216 0.62488 0.43268 0.0
C1255 C 0.59907 0.60855 0.45416 0.0
N1256 N 0.67056 0.63645 0.43508 0.0
N1257 N 0.62079 0.62151 0.45432 0.0
H1258 H 0.08585 0.13644 0.43626 0.0
H1259 H 0.21737 0.09729 0.45057 0.0
H1260 H 0.1114 0.03186 0.44982 0.0
H1261 H 0.19213 0.2009 0.43609 0.0
H1262 H 0.17871 0.07253 0.45013 0.0
H1263 H 0.12469 0.16054 0.43606 0.0
C1264 C 0.09958 0.1185 0.43917 0.0
C1265 C 0.09523 0.08208 0.4431 0.0
C1266 C 0.18165 0.10068 0.44704 0.0
C1267 C 0.13982 0.10956 0.44295 0.0
C1268 C 0.20377 0.11477 0.44721 0.0
C1269 C 0.20808 0.15135 0.44342 0.0
C1270 C 0.16364 0.12328 0.44302 0.0
C1271 C 0.18963 0.1728 0.4393 0.0
C1272 C 0.12177 0.13232 0.4391 0.0
C1273 C 0.11377 0.06028 0.44691 0.0
N1274 N 0.16827 0.15849 0.43923 0.0
N1275 N 0.1352 0.07433 0.44673 0.0
H1276 H 0.69869 0.08201 0.32619 0.0
H1277 H 0.58552 0.12834 0.36341 0.0
H1278 H 0.69562 0.08134 0.36531 0.0
H1279 H 0.59539 0.16168 0.32616 0.0
H1280 H 0.62434 0.10374 0.36379 0.0
H1281 H 0.65947 0.10501 0.32555 0.0
C1282 C 0.68975 0.08678 0.33463 0.0
C1283 C 0.70044 0.0799 0.34581 0.0
C1284 C 0.61798 0.11636 0.35553 0.0
C1285 C 0.65556 0.10582 0.34517 0.0
C1286 C 0.59576 0.13006 0.35527 0.0
C1287 C 0.58723 0.14709 0.34474 0.0
C1288 C 0.6317 0.11929 0.34513 0.0
C1289 C 0.60139 0.14905 0.33449 0.0
C1290 C 0.66742 0.09998 0.33427 0.0
C1291 C 0.68814 0.08674 0.3565 0.0
N1292 N 0.6229 0.13526 0.33493 0.0
N1293 N 0.66631 0.09908 0.35592 0.0
H1294 H 0.21156 0.627 0.36402 0.0
H1295 H 0.09926 0.67009 0.32545 0.0
H1296 H 0.20455 0.59423 0.32654 0.0
H1297 H 0.10127 0.66702 0.36459 0.0
H1298 H 0.13921 0.64984 0.325 0.0
H1299 H 0.17261 0.65048 0.36367 0.0
C1300 C 0.20193 0.62519 0.35566 0.0
C1301 C 0.21133 0.6086 0.34529 0.0
C1302 C 0.13083 0.65351 0.33367 0.0
C1303 C 0.16657 0.63513 0.34486 0.0
C1304 C 0.10811 0.66512 0.33393 0.0
C1305 C 0.0969 0.66989 0.34506 0.0
C1306 C 0.14247 0.64732 0.34464 0.0
C1307 C 0.1091 0.66306 0.3558 0.0
C1308 C 0.1796 0.63827 0.3555 0.0
C1309 C 0.19787 0.60651 0.33476 0.0
N1310 N 0.13122 0.65233 0.35532 0.0
N1311 N 0.17616 0.61965 0.3348 0.0
H1312 H 0.49884 0.99065 0.05302 0.0
H1313 H 0.55709 1.00171 0.98719 0.0
H1314 H 0.55958 0.05366 0.04535 0.0
H1315 H 0.49494 0.94196 0.99439 0.0
H1316 H 0.55897 0.01907 1.00863 0.0
H1317 H 0.49705 0.97246 0.03163 0.0
C1318 C 0.51165 1.00107 0.04683 0.0
C1319 C 0.52939 0.02378 0.05105 0.0
C1320 C 0.54498 1.00197 1.00554 0.0
C1321 C 0.52765 1.00247 0.02652 0.0
C1322 C 0.54399 0.99178 0.99329 0.0
C1323 C 0.52581 0.97032 0.98892 0.0
C1324 C 0.52767 0.9907 1.01353 0.0
C1325 C 0.50929 0.95851 0.9973 0.0
C1326 C 0.5107 0.99044 0.03462 0.0
C1327 C 0.54556 0.03616 0.04256 0.0
N1328 N 0.51055 0.96899 1.00916 0.0
N1329 N 0.54436 0.02523 0.03075 0.0
H1330 H 0.80917 0.25778 0.04997 0.0
H1331 H 0.74585 0.25145 0.9854 0.0
H1332 H 0.74608 0.19965 0.04373 0.0
H1333 H 0.81001 0.30659 0.99142 0.0
H1334 H 0.74489 0.23424 1.0069 0.0
H1335 H 0.80967 0.27617 0.02858 0.0
C1336 C 0.79554 0.24852 0.04409 0.0
C1337 C 0.77756 0.22707 0.0487 0.0
C1338 C 0.75911 0.2503 1.00353 0.0
C1339 C 0.77786 0.24857 0.02417 0.0
C1340 C 0.75959 0.2604 0.99126 0.0
C1341 C 0.77807 0.28048 0.98654 0.0
C1342 C 0.77723 0.26032 1.01119 0.0
C1343 C 0.79543 0.29107 0.99461 0.0
C1344 C 0.79576 0.25924 0.03187 0.0
C1345 C 0.76032 0.21612 0.04062 0.0
N1346 N 0.79464 0.28072 1.00649 0.0
N1347 N 0.76085 0.2271 0.02879 0.0
H1348 H 0.49554 0.25785 0.23685 0.0
H1349 H 0.55458 0.23976 0.30238 0.0
H1350 H 0.55634 0.19377 0.24353 0.0
H1351 H 0.49354 0.30319 0.29565 0.0
H1352 H 0.55589 0.22338 0.28082 0.0
H1353 H 0.49415 0.27377 0.25843 0.0
C1354 C 0.50844 0.2467 0.24286 0.0
C1355 C 0.52609 0.2244 0.23832 0.0
C1356 C 0.54227 0.24104 0.28405 0.0
C1357 C 0.52481 0.24309 0.26308 0.0
C1358 C 0.5416 0.25063 0.29637 0.0
C1359 C 0.52392 0.27291 0.30089 0.0
C1360 C 0.52512 0.25374 0.27616 0.0
C1361 C 0.50751 0.28594 0.29262 0.0
C1362 C 0.50773 0.25604 0.25519 0.0
C1363 C 0.5424 0.21101 0.24659 0.0
N1364 N 0.50846 0.27606 0.28071 0.0
N1365 N 0.54142 0.22069 0.25852 0.0
H1366 H 0.74695 0.06872 0.24163 0.0
H1367 H 0.80163 0.93965 0.29339 0.0
H1368 H 0.80376 0.99509 0.23553 0.0
H1369 H 0.74514 0.01378 0.29966 0.0
H1370 H 0.80252 0.95948 0.27218 0.0
H1371 H 0.74666 0.05026 0.26299 0.0
C1372 C 0.75956 0.04901 0.24479 0.0
C1373 C 0.77539 0.03342 0.23672 0.0
C1374 C 0.78986 0.97133 0.27817 0.0
C1375 C 0.77491 0.0117 0.26122 0.0
C1376 C 0.78925 0.95986 0.29029 0.0
C1377 C 0.77327 0.97502 0.29837 0.0
C1378 C 0.7744 0.99828 0.27402 0.0
C1379 C 0.75773 1.00122 0.29379 0.0
C1380 C 0.75929 0.03831 0.257 0.0
C1381 C 0.79125 0.00791 0.24139 0.0
N1382 N 0.75874 0.01208 0.28195 0.0
N1383 N 0.79052 0.99772 0.25329 0.0
H1384 H 0.27459 0.68885 0.9913 0.0
H1385 H 0.26373 0.81526 0.05072 0.0
H1386 H 0.26044 0.80649 0.99001 0.0
H1387 H 0.28619 0.70109 0.05142 0.0
H1388 H 0.26058 0.8119 0.02866 0.0
H1389 H 0.27661 0.69216 1.01336 0.0
C1390 C 0.27177 0.71543 0.99565 0.0
C1391 C 0.26737 0.74751 0.98874 0.0
C1392 C 0.26622 0.78758 0.03361 0.0
C1393 C 0.26977 0.75143 1.01415 0.0
C1394 C 0.26803 0.78942 0.04624 0.0
C1395 C 0.27526 0.75837 0.05297 0.0
C1396 C 0.27156 0.75436 0.0276 0.0
C1397 C 0.28061 0.72573 0.04662 0.0
C1398 C 0.27301 0.71727 1.00828 0.0
C1399 C 0.26387 0.78107 0.99494 0.0
N1400 N 0.2786 0.72457 0.0343 0.0
N1401 N 0.26518 0.78216 1.0073 0.0
H1402 H 0.5604 0.69276 0.7435 0.0
H1403 H 0.49459 0.80828 0.79485 0.0
H1404 H 0.49872 0.75467 0.7369 0.0
H1405 H 0.55568 0.74516 0.80175 0.0
H1406 H 0.49629 0.78976 0.77355 0.0
H1407 H 0.55865 0.71068 0.76488 0.0
C1408 C 0.54631 0.70973 0.74656 0.0
C1409 C 0.52969 0.72222 0.73833 0.0
C1410 C 0.50941 0.78009 0.7797 0.0
C1411 C 0.52781 0.74339 0.76286 0.0
C1412 C 0.50853 0.79086 0.79188 0.0
C1413 C 0.52502 0.77828 0.80016 0.0
C1414 C 0.52687 0.75644 0.7757 0.0
C1415 C 0.54263 0.75565 0.79572 0.0
C1416 C 0.54542 0.72016 0.75878 0.0
C1417 C 0.51191 0.74428 0.74287 0.0
N1418 N 0.54302 0.74534 0.78383 0.0
N1419 N 0.51152 0.7543 0.75479 0.0
H1420 H 0.2966 0.05642 0.73816 0.0
H1421 H 0.25781 0.95802 0.80037 0.0
H1422 H 0.2539 0.95908 0.73986 0.0
H1423 H 0.29831 0.05788 0.799 0.0
H1424 H 0.25672 0.95749 0.77813 0.0
H1425 H 0.29785 0.05733 0.76044 0.0
C1426 C 0.28747 0.03533 0.7432 0.0
C1427 C 0.27515 0.00766 0.73711 0.0
C1428 C 0.26586 0.97952 0.7827 0.0
C1429 C 0.27654 0.0084 0.76259 0.0
C1430 C 0.2665 0.97978 0.79541 0.0
C1431 C 0.27814 0.00803 0.80159 0.0
C1432 C 0.27697 0.00768 0.77611 0.0
C1433 C 0.28909 0.03554 0.79465 0.0
C1434 C 0.28819 0.03581 0.75592 0.0
C1435 C 0.26364 0.98098 0.74413 0.0
N1436 N 0.28823 0.03468 0.78231 0.0
N1437 N 0.26464 0.982 0.75645 0.0
H1438 H 0.54389 0.4565 0.48689 0.0
H1439 H 0.50873 0.54832 0.5508 0.0
H1440 H 0.50609 0.5588 0.49024 0.0
H1441 H 0.54698 0.44642 0.5476 0.0
H1442 H 0.50745 0.55253 0.52857 0.0
H1443 H 0.54529 0.45215 0.50914 0.0
C1444 C 0.53593 0.47804 0.49228 0.0
C1445 C 0.52486 0.50802 0.48665 0.0
C1446 C 0.51612 0.52924 0.53274 0.0
C1447 C 0.52633 0.50325 0.51211 0.0
C1448 C 0.51682 0.52683 0.54544 0.0
C1449 C 0.52797 0.49701 0.55111 0.0
C1450 C 0.52663 0.50162 0.52564 0.0
C1451 C 0.53818 0.46997 0.54367 0.0
C1452 C 0.53671 0.47556 0.50498 0.0
C1453 C 0.51482 0.53513 0.49413 0.0
N1454 N 0.53727 0.47293 0.53137 0.0
N1455 N 0.51578 0.53208 0.50642 0.0
H1456 H 0.79667 0.71001 0.55136 0.0
H1457 H 0.759 0.80605 0.48846 0.0
H1458 H 0.76152 0.81507 0.54891 0.0
H1459 H 0.79464 0.70136 0.49054 0.0
H1460 H 0.76012 0.81001 0.51066 0.0
H1461 H 0.79663 0.70641 0.52908 0.0
C1462 C 0.78902 0.73232 0.54616 0.0
C1463 C 0.77906 0.76283 0.55204 0.0
C1464 C 0.76771 0.78618 0.50626 0.0
C1465 C 0.77888 0.75891 0.52657 0.0
C1466 C 0.76706 0.78393 0.49357 0.0
C1467 C 0.77671 0.75334 0.48759 0.0
C1468 C 0.77808 0.75763 0.51305 0.0
C1469 C 0.78695 0.72549 0.49472 0.0
C1470 C 0.78896 0.73027 0.53344 0.0
C1471 C 0.76937 0.79094 0.54481 0.0
N1472 N 0.78735 0.72829 0.50703 0.0
N1473 N 0.7695 0.78827 0.53251 0.0
H1474 H 0.80753 0.44952 0.79577 0.0
H1475 H 0.74746 0.56679 0.74273 0.0
H1476 H 0.74817 0.51798 0.80134 0.0
H1477 H 0.80647 0.49754 0.73716 0.0
H1478 H 0.74801 0.55048 0.76427 0.0
H1479 H 0.80719 0.46639 0.77428 0.0
C1480 C 0.79426 0.4678 0.79247 0.0
C1481 C 0.77786 0.48233 0.80043 0.0
C1482 C 0.76093 0.53901 0.75836 0.0
C1483 C 0.77757 0.50224 0.77575 0.0
C1484 C 0.76072 0.54851 0.74604 0.0
C1485 C 0.77694 0.53352 0.73806 0.0
C1486 C 0.77744 0.51424 0.76279 0.0
C1487 C 0.79364 0.50986 0.74293 0.0
C1488 C 0.79416 0.4776 0.78018 0.0
C1489 C 0.76113 0.50598 0.79557 0.0
N1490 N 0.79338 0.50083 0.75495 0.0
N1491 N 0.76149 0.51531 0.78358 0.0
H1492 H 0.3018 0.20084 0.48954 0.0
H1493 H 0.25035 0.30443 0.54761 0.0
H1494 H 0.25564 0.29383 0.48705 0.0
H1495 H 0.29591 0.21061 0.54996 0.0
H1496 H 0.25201 0.30089 0.52552 0.0
H1497 H 0.29988 0.20427 0.51159 0.0
C1498 C 0.29125 0.22209 0.49362 0.0
C1499 C 0.27884 0.24712 0.48638 0.0
C1500 C 0.26163 0.28102 0.53084 0.0
C1501 C 0.27656 0.2511 0.5118 0.0
C1502 C 0.2607 0.28297 0.54349 0.0
C1503 C 0.27304 0.25776 0.5507 0.0
C1504 C 0.27502 0.25367 0.52527 0.0
C1505 C 0.28611 0.23061 0.5448 0.0
C1506 C 0.29016 0.22397 0.50626 0.0
C1507 C 0.2655 0.27398 0.49225 0.0
N1508 N 0.28678 0.22933 0.53243 0.0
N1509 N 0.26471 0.27524 0.50461 0.0
H1510 H 0.29251 0.56673 0.29987 0.0
H1511 H 0.26475 0.44227 0.24158 0.0
H1512 H 0.26156 0.45827 0.30226 0.0
H1513 H 0.29431 0.55185 0.23971 0.0
H1514 H 0.26387 0.44697 0.26369 0.0
H1515 H 0.29335 0.5612 0.27788 0.0
C1516 C 0.28583 0.54167 0.29578 0.0
C1517 C 0.27696 0.51286 0.30298 0.0
C1518 C 0.27058 0.46997 0.25846 0.0
C1519 C 0.27797 0.50635 0.2776 0.0
C1520 C 0.27114 0.46733 0.24581 0.0
C1521 C 0.27962 0.49677 0.23874 0.0
C1522 C 0.27855 0.5023 0.26414 0.0
C1523 C 0.28764 0.52847 0.24477 0.0
C1524 C 0.28635 0.53857 0.28317 0.0
C1525 C 0.26853 0.48118 0.29708 0.0
N1526 N 0.28688 0.5304 0.25711 0.0
N1527 N 0.26928 0.47874 0.28473 0.0
H1528 H 0.04212 0.94767 0.48976 0.0
H1529 H 1.01253 0.05086 0.55256 0.0
H1530 H 1.01499 0.05896 0.49172 0.0
H1531 H 0.04303 0.94197 0.55025 0.0
H1532 H 1.01238 0.05411 0.53027 0.0
H1533 H 0.04201 0.94482 0.51199 0.0
C1534 C 0.03621 0.97152 0.49485 0.0
C1535 C 0.02857 0.00357 0.48884 0.0
C1536 C 1.01908 0.02952 0.53467 0.0
C1537 C 0.02827 1.00051 0.51431 0.0
C1538 C 1.01912 0.02765 0.54739 0.0
C1539 C 0.02783 0.99616 0.55331 0.0
C1540 C 0.02776 0.99965 0.52783 0.0
C1541 C 0.03619 0.9669 0.54612 0.0
C1542 C 0.03611 0.9699 0.50755 0.0
C1543 C 1.02105 0.03363 0.49594 0.0
N1544 N 0.03595 0.96937 0.53382 0.0
N1545 N 1.02106 0.03134 0.50826 0.0
H1546 H 0.05796 0.19591 0.74414 0.0
H1547 H 0.99363 0.30851 0.79669 0.0
H1548 H 0.99739 0.26114 0.7381 0.0
H1549 H 0.05349 0.24171 0.80295 0.0
H1550 H 0.99519 0.29233 0.77518 0.0
H1551 H 0.05634 0.21166 0.7657 0.0
C1552 C 0.04416 0.21322 0.74735 0.0
C1553 C 0.02779 0.22722 0.73924 0.0
C1554 C 1.00805 0.28133 0.78123 0.0
C1555 C 1.02603 0.24584 0.76399 0.0
C1556 C 1.00726 0.29073 0.79354 0.0
C1557 C 1.02345 0.27647 0.8017 0.0
C1558 C 1.02514 0.25737 0.77698 0.0
C1559 C 0.04066 0.25347 0.79702 0.0
C1560 C 0.04332 0.22237 0.75968 0.0
C1561 C 1.01035 0.24961 0.74398 0.0
N1562 N 0.04099 0.24454 0.78501 0.0
N1563 N 1.01001 0.25835 0.75601 0.0
H1564 H 0.04307 0.81388 0.23922 0.0
H1565 H 1.00757 0.69533 0.29775 0.0
H1566 H 1.00795 0.70886 0.23705 0.0
H1567 H 0.04189 0.80111 0.29963 0.0
H1568 H 1.0077 0.69953 0.27564 0.0
H1569 H 0.04269 0.80941 0.26127 0.0
C1570 C 0.03521 0.7898 0.24337 0.0
C1571 C 1.02552 0.76164 0.2362 0.0
C1572 C 1.01522 0.72184 0.28087 0.0
C1573 C 1.02511 0.75637 0.26166 0.0
C1574 C 1.01519 0.71949 0.29353 0.0
C1575 C 1.02475 0.74796 0.30062 0.0
C1576 C 1.02487 0.7529 0.27516 0.0
C1577 C 0.03434 0.7785 0.29457 0.0
C1578 C 0.03503 0.78731 0.25601 0.0
C1579 C 1.0156 0.73123 0.24218 0.0
N1580 N 0.03414 0.78015 0.2822 0.0
N1581 N 1.01568 0.72938 0.25455 0.0
H1582 H 0.99518 0.44897 0.99199 0.0
H1583 H 0.05728 0.5658 0.04432 0.0
H1584 H 0.05429 0.51734 0.98576 0.0
H1585 H 0.99821 0.49734 0.05055 0.0
H1586 H 0.05602 0.54932 0.02282 0.0
H1587 H 0.99635 0.46571 1.01347 0.0
C1588 C 1.00857 0.4672 0.99515 0.0
C1589 C 1.02465 0.48176 0.987 0.0
C1590 C 0.04325 0.53804 0.02887 0.0
C1591 C 1.02589 0.50151 1.01167 0.0
C1592 C 0.04387 0.54762 0.04116 0.0
C1593 C 0.02783 0.53294 0.04931 0.0
C1594 C 0.0265 0.51347 0.02462 0.0
C1595 C 1.0109 0.50943 0.04463 0.0
C1596 C 1.00914 0.47693 1.00743 0.0
C1597 C 0.04156 0.50534 0.99167 0.0
N1598 N 1.01076 0.50031 0.03263 0.0
N1599 N 0.04166 0.51459 1.00366 0.0
H1600 H 0.60708 0.07246 0.10916 0.0
H1601 H 0.68689 0.20617 0.07101 0.0
H1602 H 0.62386 0.05017 0.0718 0.0
H1603 H 0.70231 0.18296 0.10852 0.0
H1604 H 0.65753 0.15782 0.07147 0.0
H1605 H 0.63641 0.12145 0.10952 0.0
C1606 C 0.617 0.07788 0.10107 0.0
C1607 C 0.61328 0.05713 0.09048 0.0
C1608 C 0.66725 0.16349 0.07962 0.0
C1609 C 0.64615 0.11338 0.09071 0.0
C1610 C 0.68381 0.19125 0.0794 0.0
C1611 C 0.69689 0.19864 0.08978 0.0
C1612 C 0.66336 0.14349 0.09037 0.0
C1613 C 0.69253 0.17801 0.10035 0.0
C1614 C 0.63369 0.10564 0.10129 0.0
C1615 C 0.62646 0.06521 0.08019 0.0
N1616 N 0.67597 0.15151 0.10043 0.0
N1617 N 0.64213 0.09296 0.08051 0.0
H1618 H 0.62048 0.20647 0.21824 0.0
H1619 H 0.69624 0.0681 0.17957 0.0
H1620 H 0.60335 0.1822 0.18104 0.0
H1621 H 0.68369 0.05055 0.21768 0.0
H1622 H 0.66679 0.11684 0.17941 0.0
H1623 H 0.649 0.15671 0.21778 0.0
C1624 C 0.62298 0.19096 0.20993 0.0
C1625 C 0.60969 0.1985 0.19963 0.0
C1626 C 0.6704 0.10205 0.18777 0.0
C1627 C 0.64221 0.14172 0.19904 0.0
C1628 C 0.68713 0.07439 0.18786 0.0
C1629 C 0.69216 0.05514 0.19862 0.0
C1630 C 0.65915 0.11121 0.19861 0.0
C1631 C 0.68005 0.06438 0.20917 0.0
C1632 C 0.63905 0.16239 0.20971 0.0
C1633 C 0.61329 0.17713 0.18915 0.0
N1634 N 0.6643 0.09206 0.20894 0.0
N1635 N 0.62937 0.14987 0.18907 0.0
H1636 H 0.44456 0.94051 0.93029 0.0
H1637 H 0.37117 0.79124 0.96578 0.0
H1638 H 0.43532 0.94679 0.96902 0.0
H1639 H 0.34782 0.83411 0.93142 0.0
H1640 H 0.40128 0.83859 0.96599 0.0
H1641 H 0.41483 0.89222 0.92936 0.0
C1642 C 0.43617 0.93172 0.93855 0.0
C1643 C 0.44206 0.94777 0.94971 0.0
C1644 C 0.38964 0.83741 0.95838 0.0
C1645 C 0.4089 0.89222 0.9488 0.0
C1646 C 0.37265 0.8103 0.95821 0.0
C1647 C 0.35712 0.80886 0.94855 0.0
C1648 C 0.39143 0.86262 0.94868 0.0
C1649 C 0.3595 0.8345 0.93902 0.0
C1650 C 0.4193 0.90435 0.93803 0.0
C1651 C 0.43093 0.93541 0.96023 0.0
N1652 N 0.37646 0.86022 0.93926 0.0
N1653 N 0.41505 0.90806 0.95955 0.0
H1654 H 0.41999 0.77757 0.83069 0.0
H1655 H 0.37885 0.97558 0.85582 0.0
H1656 H 0.46084 0.84705 0.85399 0.0
H1657 H 0.33756 0.90458 0.83326 0.0
H1658 H 0.40938 0.92948 0.85494 0.0
H1659 H 0.38969 0.82388 0.83147 0.0
C1660 C 0.42257 0.80234 0.83606 0.0
C1661 C 0.44313 0.80828 0.84226 0.0
C1662 C 0.39366 0.92407 0.85014 0.0
C1663 C 0.40846 0.86192 0.84306 0.0
C1664 C 0.3762 0.95039 0.85066 0.0
C1665 C 0.35552 0.94415 0.84461 0.0
C1666 C 0.39049 0.89106 0.84355 0.0
C1667 C 0.35321 0.91106 0.83794 0.0
C1668 C 0.40528 0.82899 0.83643 0.0
C1669 C 0.44548 0.84138 0.84892 0.0
N1670 N 0.37041 0.88579 0.83763 0.0
N1671 N 0.42841 0.86689 0.84913 0.0
H1672 H 0.71996 0.64943 0.59712 0.0
H1673 H 0.58652 0.61023 0.59221 0.0
H1674 H 0.67004 0.73535 0.59085 0.0
H1675 H 0.63708 0.52344 0.5944 0.0
H1676 H 0.61671 0.65639 0.59227 0.0
H1677 H 0.68977 0.60321 0.59681 0.0
C1678 C 0.70269 0.65869 0.59559 0.0
C1679 C 0.69766 0.69655 0.59391 0.0
C1680 C 0.62122 0.62725 0.59271 0.0
C1681 C 0.66279 0.64341 0.59373 0.0
C1682 C 0.60394 0.60071 0.59259 0.0
C1683 C 0.60915 0.56261 0.59322 0.0
C1684 C 0.64398 0.61583 0.59352 0.0
C1685 C 0.63216 0.55236 0.59399 0.0
C1686 C 0.6854 0.63217 0.59548 0.0
C1687 C 0.67479 0.70666 0.59227 0.0
N1688 N 0.64869 0.57878 0.59412 0.0
N1689 N 0.65824 0.68027 0.5922 0.0
H1690 H 0.60648 0.68586 0.6798 0.0
H1691 H 0.6844 0.54871 0.71772 0.0
H1692 H 0.62197 0.70553 0.71748 0.0
H1693 H 0.70056 0.57344 0.68042 0.0
H1694 H 0.65563 0.59812 0.71743 0.0
H1695 H 0.63585 0.63694 0.67937 0.0
C1696 C 0.6162 0.67995 0.68793 0.0
C1697 C 0.61206 0.69987 0.69865 0.0
C1698 C 0.66541 0.59259 0.7093 0.0
C1699 C 0.64493 0.64368 0.69834 0.0
C1700 C 0.68162 0.56425 0.70942 0.0
C1701 C 0.6947 0.55698 0.69905 0.0
C1702 C 0.66191 0.61326 0.69864 0.0
C1703 C 0.69076 0.57833 0.68858 0.0
C1704 C 0.63288 0.65222 0.68769 0.0
C1705 C 0.62493 0.69116 0.709 0.0
N1706 N 0.67454 0.60537 0.68859 0.0
N1707 N 0.64061 0.6634 0.70864 0.0
H1708 H 0.4156 0.48211 0.44985 0.0
H1709 H 0.38141 0.2701 0.43705 0.0
H1710 H 0.46353 0.39832 0.43844 0.0
H1711 H 0.33398 0.35427 0.44876 0.0
H1712 H 0.4118 0.31649 0.43747 0.0
H1713 H 0.38544 0.43557 0.44937 0.0
C1714 C 0.41979 0.45402 0.44718 0.0
C1715 C 0.44221 0.44421 0.44421 0.0
C1716 C 0.39473 0.32475 0.43998 0.0
C1717 C 0.40771 0.39052 0.44374 0.0
C1718 C 0.37736 0.29828 0.4397 0.0
C1719 C 0.35507 0.30813 0.44292 0.0
C1720 C 0.38979 0.36144 0.44346 0.0
C1721 C 0.35091 0.34508 0.4464 0.0
C1722 C 0.40256 0.42735 0.44698 0.0
C1723 C 0.44661 0.40712 0.44097 0.0
N1724 N 0.36806 0.37032 0.44655 0.0
N1725 N 0.42954 0.38169 0.44082 0.0
H1726 H 0.46613 0.35764 0.33949 0.0
H1727 H 0.33499 0.4019 0.35222 0.0
H1728 H 0.41691 0.2734 0.34876 0.0
H1729 H 0.38368 0.48397 0.3404 0.0
H1730 H 0.36496 0.35503 0.352 0.0
H1731 H 0.43651 0.40463 0.34095 0.0
C1732 C 0.44915 0.34896 0.34197 0.0
C1733 C 0.4441 0.31134 0.34406 0.0
C1734 C 0.36909 0.38331 0.34947 0.0
C1735 C 0.40983 0.36535 0.34557 0.0
C1736 C 0.35193 0.41014 0.34954 0.0
C1737 C 0.35669 0.44707 0.34624 0.0
C1738 C 0.39126 0.39335 0.3461 0.0
C1739 C 0.37917 0.45606 0.34311 0.0
C1740 C 0.43216 0.3759 0.3427 0.0
C1741 C 0.42158 0.30194 0.34697 0.0
N1742 N 0.39556 0.4294 0.34308 0.0
N1743 N 0.40529 0.32875 0.34764 0.0
H1744 H 0.08876 0.10553 0.60242 0.0
H1745 H 0.21884 0.15052 0.58692 0.0
H1746 H 0.136 0.02387 0.58879 0.0
H1747 H 0.17292 0.22975 0.60312 0.0
H1748 H 0.18837 0.10462 0.58675 0.0
H1749 H 0.11902 0.15183 0.60214 0.0
C1750 C 0.10548 0.09732 0.59932 0.0
C1751 C 0.10977 0.06068 0.59557 0.0
C1752 C 0.18493 0.13206 0.59032 0.0
C1753 C 0.14467 0.11373 0.59531 0.0
C1754 C 0.2023 0.15849 0.59032 0.0
C1755 C 0.19847 0.19426 0.59501 0.0
C1756 C 0.16347 0.14135 0.59501 0.0
C1757 C 0.17672 0.20251 0.59952 0.0
C1758 C 0.12281 0.12379 0.59922 0.0
C1759 C 0.13193 0.05162 0.59186 0.0
N1760 N 0.16007 0.17631 0.5994 0.0
N1761 N 0.14851 0.07797 0.59178 0.0
H1762 H 0.17391 0.03337 0.68479 0.0
H1763 H 0.13346 0.236 0.70581 0.0
H1764 H 0.218 0.11369 0.70186 0.0
H1765 H 0.09067 0.1601 0.68587 0.0
H1766 H 0.16445 0.19116 0.70462 0.0
H1767 H 0.14296 0.07871 0.68544 0.0
C1768 C 0.17715 0.06046 0.68866 0.0
C1769 C 0.19871 0.06947 0.6933 0.0
C1770 C 0.14829 0.18433 0.70048 0.0
C1771 C 0.16319 0.12161 0.69414 0.0
C1772 C 0.13056 0.21012 0.70108 0.0
C1773 C 0.10926 0.20198 0.69596 0.0
C1774 C 0.1448 0.14998 0.69472 0.0
C1775 C 0.1066 0.16752 0.69012 0.0
C1776 C 0.15942 0.08635 0.68906 0.0
C1777 C 0.2017 0.10503 0.69834 0.0
N1778 N 0.12411 0.14283 0.68968 0.0
N1779 N 0.1842 0.12969 0.69861 0.0
H1780 H 0.96216 0.89997 0.43617 0.0
H1781 H 0.83419 0.85214 0.45509 0.0
H1782 H 0.91847 0.97607 0.45542 0.0
H1783 H 0.87678 0.77829 0.43425 0.0
H1784 H 0.86517 0.89692 0.45586 0.0
H1785 H 0.9313 0.85479 0.43564 0.0
C1786 C 0.94608 0.90718 0.44031 0.0
C1787 C 0.94298 0.94183 0.44592 0.0
C1788 C 0.8678 0.87087 0.45115 0.0
C1789 C 0.90742 0.89012 0.44529 0.0
C1790 C 0.85015 0.84501 0.45081 0.0
C1791 C 0.85288 0.81114 0.44464 0.0
C1792 C 0.88842 0.86294 0.44529 0.0
C1793 C 0.87386 0.80408 0.43903 0.0
C1794 C 0.92842 0.88137 0.43996 0.0
C1795 C 0.92159 0.94985 0.45093 0.0
N1796 N 0.8908 0.82973 0.43949 0.0
N1797 N 0.90467 0.92412 0.45055 0.0
H1798 H 0.96335 0.85596 0.33293 0.0
H1799 H 0.8352 0.90181 0.3517 0.0
H1800 H 0.91736 0.77523 0.34835 0.0
H1801 H 0.87657 0.97623 0.33033 0.0
H1802 H 0.86603 0.85663 0.35159 0.0
H1803 H 0.93253 0.9012 0.33254 0.0
C1804 C 0.94676 0.84743 0.3361 0.0
C1805 C 0.94308 0.81145 0.3407 0.0
C1806 C 0.86839 0.88284 0.34692 0.0
C1807 C 0.9077 0.86379 0.34051 0.0
C1808 C 0.85073 0.90871 0.34695 0.0
C1809 C 0.8531 0.94291 0.34091 0.0
C1810 C 0.88876 0.89112 0.34087 0.0
C1811 C 0.87394 0.95045 0.33517 0.0
C1812 C 0.92917 0.87352 0.33596 0.0
C1813 C 0.92117 0.80263 0.34488 0.0
N1814 N 0.89092 0.92473 0.33527 0.0
N1815 N 0.90439 0.82861 0.34473 0.0
H1816 H 0.17602 0.72581 0.10704 0.0
H1817 H 0.13346 0.531 0.08002 0.0
H1818 H 0.21644 0.6561 0.08361 0.0
H1819 H 0.09209 0.60054 0.10304 0.0
H1820 H 0.16396 0.57668 0.08129 0.0
H1821 H 0.14489 0.68093 0.10554 0.0
C1822 C 0.17836 0.70119 0.10155 0.0
C1823 C 0.19898 0.69494 0.09544 0.0
C1824 C 0.14822 0.58198 0.08607 0.0
C1825 C 0.16332 0.64326 0.09367 0.0
C1826 C 0.13079 0.55568 0.08543 0.0
C1827 C 0.11006 0.56172 0.09144 0.0
C1828 C 0.14504 0.61471 0.0928 0.0
C1829 C 0.10762 0.59475 0.09814 0.0
C1830 C 0.16055 0.67557 0.10068 0.0
C1831 C 0.20087 0.66259 0.08836 0.0
N1832 N 0.12486 0.61992 0.09864 0.0
N1833 N 0.18336 0.638 0.08772 0.0
H1834 H 0.13449 0.73664 0.19495 0.0
H1835 H 0.16959 0.52184 0.19891 0.0
H1836 H 0.08563 0.64715 0.19478 0.0
H1837 H 0.21744 0.61102 0.19312 0.0
H1838 H 0.13859 0.56713 0.19823 0.0
H1839 H 0.16508 0.69092 0.19519 0.0
C1840 C 0.13009 0.70748 0.19491 0.0
C1841 C 0.10726 0.69603 0.19485 0.0
C1842 C 0.1559 0.57672 0.19711 0.0
C1843 C 0.14247 0.6432 0.19527 0.0
C1844 C 0.17365 0.5508 0.19744 0.0
C1845 C 0.19634 0.56241 0.19614 0.0
C1846 C 0.1608 0.61463 0.19551 0.0
C1847 C 0.2004 0.60057 0.1944 0.0
C1848 C 0.14765 0.68129 0.1951 0.0
C1849 C 0.10284 0.65758 0.195 0.0
N1850 N 0.18287 0.62519 0.19416 0.0
N1851 N 0.12024 0.63264 0.19522 0.0
H1852 H 0.83796 0.35074 0.93288 0.0
H1853 H 0.9667 0.39852 0.95047 0.0
H1854 H 0.88229 0.27565 0.95232 0.0
H1855 H 0.91949 0.48009 0.93666 0.0
H1856 H 0.93694 0.35159 0.9494 0.0
H1857 H 0.86844 0.39665 0.93248 0.0
C1858 C 0.85402 0.34377 0.93709 0.0
C1859 C 0.85731 0.30911 0.94275 0.0
C1860 C 0.93307 0.37971 0.94656 0.0
C1861 C 0.89254 0.36177 0.94217 0.0
C1862 C 0.95015 0.40656 0.94708 0.0
C1863 C 0.94568 0.44343 0.9436 0.0
C1864 C 0.91126 0.38957 0.94248 0.0
C1865 C 0.92367 0.45215 0.93953 0.0
C1866 C 0.87148 0.37008 0.93681 0.0
C1867 C 0.87882 0.30168 0.94778 0.0
N1868 N 0.90731 0.42544 0.93906 0.0
N1869 N 0.89553 0.32778 0.9474 0.0
H1870 H 0.91716 0.27386 0.83696 0.0
H1871 H 0.88207 0.48491 0.85046 0.0
H1872 H 0.96279 0.35351 0.85323 0.0
H1873 H 0.83525 0.40097 0.838 0.0
H1874 H 0.91207 0.43768 0.8514 0.0
H1875 H 0.88701 0.32021 0.83742 0.0
C1876 C 0.92089 0.3009 0.84074 0.0
C1877 C 0.94276 0.30958 0.84502 0.0
C1878 C 0.89518 0.42961 0.84853 0.0
C1879 C 0.90811 0.36334 0.84539 0.0
C1880 C 0.87807 0.45662 0.84793 0.0
C1881 C 0.85602 0.44701 0.84419 0.0
C1882 C 0.89027 0.39272 0.84526 0.0
C1883 C 0.85182 0.40973 0.84112 0.0
C1884 C 0.9036 0.32753 0.84093 0.0
C1885 C 0.9464 0.34553 0.84964 0.0
N1886 N 0.86876 0.38409 0.84168 0.0
N1887 N 0.92932 0.37106 0.84966 0.0
loop_
_geom_bond_atom_site_label_1
_geom_bond_atom_site_label_2
_geom_bond_distance
_geom_bond_site_symmetry_2
_ccdc_geom_bond_type
Cu0 N1 1.999 . S
Cu0 O6 1.974 . S
Cu0 N11 1.985 1_545 S
Cu0 O20 1.959 1_545 S
N1 Cu0 1.999 . S
N1 C3 1.263 . S
N1 C5 1.389 . S
N2 C3 1.358 . S
N2 C4 1.400 . S
C3 N1 1.263 . S
C3 N2 1.358 . S
C3 H9 0.930 . S
C4 N2 1.400 . S
C4 C5 1.351 . S
C4 H21 0.930 . S
C5 N1 1.389 . S
C5 C4 1.351 . S
C5 H10 0.930 1_545 S
O6 Cu0 1.974 . S
O6 C16 1.282 . S
C7 O8 1.261 . S
C7 O20 1.251 1_545 S
O8 C7 1.261 . S
H9 C3 0.930 . S
H10 C5 0.930 1_565 S
N11 Cu0 1.985 1_565 S
N11 C13 1.335 . S
N11 C14 1.399 . S
N12 C13 1.345 . S
N12 C15 1.336 . S
C13 N11 1.335 . S
C13 N12 1.345 . S
C13 H18 0.930 . S
C14 N11 1.399 . S
C14 C15 1.363 . S
C14 H19 0.910 1_565 S
C15 N12 1.336 . S
C15 C14 1.363 . S
C15 H22 0.929 . S
C16 O6 1.282 . S
C16 O17 1.216 . S
O17 C16 1.216 . S
H18 C13 0.930 . S
H19 C14 0.910 1_545 S
O20 Cu0 1.959 1_565 S
O20 C7 1.251 1_565 S
H21 C4 0.930 . S
H22 C15 0.929 . S
Cu23 N24 1.999 . S
Cu23 O29 1.974 . S
Cu23 N34 1.985 . S
Cu23 O43 1.959 . S
N24 Cu23 1.999 . S
N24 C26 1.263 . S
N24 C28 1.389 . S
N25 C26 1.358 . S
N25 C27 1.400 . S
C26 N24 1.263 . S
C26 N25 1.358 . S
C26 H32 0.930 . S
C27 N25 1.400 . S
C27 C28 1.351 . S
C27 H44 0.930 . S
C28 N24 1.389 . S
C28 C27 1.351 . S
C28 H33 0.930 . S
O29 Cu23 1.974 . S
O29 C39 1.282 . S
C30 O31 1.261 . S
C30 O43 1.251 . S
O31 C30 1.261 . S
H32 C26 0.930 . S
H33 C28 0.930 . S
N34 Cu23 1.985 . S
N34 C36 1.335 . S
N34 C37 1.390 . S
N35 C36 1.345 . S
N35 C38 1.336 . S
C36 N34 1.335 . S
C36 N35 1.345 . S
C36 H41 0.930 . S
C37 N34 1.390 . S
C37 C38 1.346 . S
C37 H42 0.930 . S
C38 N35 1.336 . S
C38 C37 1.346 . S
C38 H45 0.929 . S
C39 O29 1.282 . S
C39 O40 1.216 . S
O40 C39 1.216 . S
H41 C36 0.930 . S
H42 C37 0.930 . S
O43 Cu23 1.959 . S
O43 C30 1.251 . S
H44 C27 0.930 . S
H45 C38 0.929 . S
Cu46 N47 1.999 . S
Cu46 O52 1.974 . S
Cu46 N57 1.985 . S
Cu46 O66 1.959 . S
N47 Cu46 1.999 . S
N47 C49 1.263 . S
N47 C51 1.389 . S
N48 C49 1.358 . S
N48 C50 1.400 . S
C49 N47 1.263 . S
C49 N48 1.358 . S
C49 H55 0.930 . S
C50 N48 1.400 . S
C50 C51 1.351 . S
C50 H67 0.930 . S
C51 N47 1.389 . S
C51 C50 1.351 . S
C51 H56 0.930 . S
O52 Cu46 1.974 . S
O52 C62 1.282 . S
C53 O54 1.261 . S
C53 O66 1.251 . S
O54 C53 1.261 . S
H55 C49 0.930 . S
H56 C51 0.930 . S
N57 Cu46 1.985 . S
N57 C59 1.335 . S
N57 C60 1.390 . S
N58 C59 1.345 . S
N58 C61 1.336 . S
C59 N57 1.335 . S
C59 N58 1.345 . S
C59 H64 0.930 . S
C60 N57 1.390 . S
C60 C61 1.346 . S
C60 H65 0.930 . S
C61 N58 1.336 . S
C61 C60 1.346 . S
C61 H68 0.929 . S
C62 O52 1.282 . S
C62 O63 1.216 . S
O63 C62 1.216 . S
H64 C59 0.930 . S
H65 C60 0.930 . S
O66 Cu46 1.959 . S
O66 C53 1.251 . S
H67 C50 0.930 . S
H68 C61 0.929 . S
Cu69 N70 1.999 . S
Cu69 O75 1.974 . S
Cu69 N80 1.985 1_545 S
Cu69 O89 1.959 1_545 S
N70 Cu69 1.999 . S
N70 C72 1.263 . S
N70 C74 1.389 . S
N71 C72 1.358 . S
N71 C73 1.400 . S
C72 N70 1.263 . S
C72 N71 1.358 . S
C72 H78 0.930 . S
C73 N71 1.400 . S
C73 C74 1.351 . S
C73 H90 0.930 . S
C74 N70 1.389 . S
C74 C73 1.351 . S
C74 H79 0.930 1_545 S
O75 Cu69 1.974 . S
O75 C85 1.282 . S
C76 O77 1.261 . S
C76 O89 1.251 1_545 S
O77 C76 1.261 . S
H78 C72 0.930 . S
H79 C74 0.930 1_565 S
N80 Cu69 1.985 1_565 S
N80 C82 1.335 . S
N80 C83 1.399 . S
N81 C82 1.345 . S
N81 C84 1.336 . S
C82 N80 1.335 . S
C82 N81 1.345 . S
C82 H87 0.930 . S
C83 N80 1.399 . S
C83 C84 1.362 . S
C83 H88 0.910 1_565 S
C84 N81 1.336 . S
C84 C83 1.362 . S
C84 H91 0.929 . S
C85 O75 1.282 . S
C85 O86 1.216 . S
O86 C85 1.216 . S
H87 C82 0.930 . S
H88 C83 0.910 1_545 S
O89 Cu69 1.959 1_565 S
O89 C76 1.251 1_565 S
H90 C73 0.930 . S
H91 C84 0.929 . S
Cu92 N93 1.999 . S
Cu92 O98 1.974 . S
Cu92 N103 1.985 1_565 S
Cu92 O112 1.959 1_565 S
N93 Cu92 1.999 . S
N93 C95 1.263 . S
N93 C97 1.389 . S
N94 C95 1.358 . S
N94 C96 1.400 . S
C95 N93 1.263 . S
C95 N94 1.358 . S
C95 H101 0.930 . S
C96 N94 1.400 . S
C96 C97 1.351 . S
C96 H113 0.930 . S
C97 N93 1.389 . S
C97 C96 1.351 . S
C97 H102 0.930 1_565 S
O98 Cu92 1.974 . S
O98 C108 1.282 . S
C99 O100 1.261 . S
C99 O112 1.251 1_565 S
O100 C99 1.261 . S
H101 C95 0.930 . S
H102 C97 0.930 1_545 S
N103 Cu92 1.985 1_545 S
N103 C105 1.335 . S
N103 C106 1.399 . S
N104 C105 1.345 . S
N104 C107 1.336 . S
C105 N103 1.335 . S
C105 N104 1.345 . S
C105 H110 0.930 . S
C106 N103 1.399 . S
C106 C107 1.363 . S
C106 H111 0.910 1_545 S
C107 N104 1.336 . S
C107 C106 1.363 . S
C107 H114 0.929 . S
C108 O98 1.282 . S
C108 O109 1.216 . S
O109 C108 1.216 . S
H110 C105 0.930 . S
H111 C106 0.910 1_565 S
O112 Cu92 1.959 1_545 S
O112 C99 1.251 1_545 S
H113 C96 0.930 . S
H114 C107 0.929 . S
Cu115 N116 1.999 . S
Cu115 O121 1.974 . S
Cu115 N126 1.985 . S
Cu115 O135 1.959 . S
N116 Cu115 1.999 . S
N116 C118 1.263 . S
N116 C120 1.389 . S
N117 C118 1.358 . S
N117 C119 1.400 . S
C118 N116 1.263 . S
C118 N117 1.358 . S
C118 H124 0.930 . S
C119 N117 1.400 . S
C119 C120 1.351 . S
C119 H136 0.930 . S
C120 N116 1.389 . S
C120 C119 1.351 . S
C120 H125 0.930 . S
O121 Cu115 1.974 . S
O121 C131 1.282 . S
C122 O123 1.261 . S
C122 O135 1.251 . S
O123 C122 1.261 . S
H124 C118 0.930 . S
H125 C120 0.930 . S
N126 Cu115 1.985 . S
N126 C128 1.335 . S
N126 C129 1.390 . S
N127 C128 1.345 . S
N127 C130 1.336 . S
C128 N126 1.335 . S
C128 N127 1.345 . S
C128 H133 0.930 . S
C129 N126 1.390 . S
C129 C130 1.346 . S
C129 H134 0.930 . S
C130 N127 1.336 . S
C130 C129 1.346 . S
C130 H137 0.929 . S
C131 O121 1.282 . S
C131 O132 1.216 . S
O132 C131 1.216 . S
H133 C128 0.930 . S
H134 C129 0.930 . S
O135 Cu115 1.959 . S
O135 C122 1.251 . S
H136 C119 0.930 . S
H137 C130 0.929 . S
Cu138 N139 1.999 . S
Cu138 O144 1.974 . S
Cu138 N149 1.985 . S
Cu138 O158 1.959 . S
N139 Cu138 1.999 . S
N139 C141 1.263 . S
N139 C143 1.389 . S
N140 C141 1.358 . S
N140 C142 1.400 . S
C141 N139 1.263 . S
C141 N140 1.358 . S
C141 H147 0.930 . S
C142 N140 1.400 . S
C142 C143 1.351 . S
C142 H159 0.930 . S
C143 N139 1.389 . S
C143 C142 1.351 . S
C143 H148 0.930 . S
O144 Cu138 1.974 . S
O144 C154 1.282 . S
C145 O146 1.261 . S
C145 O158 1.251 . S
O146 C145 1.261 . S
H147 C141 0.930 . S
H148 C143 0.930 . S
N149 Cu138 1.985 . S
N149 C151 1.335 . S
N149 C152 1.390 . S
N150 C151 1.345 . S
N150 C153 1.336 . S
C151 N149 1.335 . S
C151 N150 1.345 . S
C151 H156 0.930 . S
C152 N149 1.390 . S
C152 C153 1.346 . S
C152 H157 0.930 . S
C153 N150 1.336 . S
C153 C152 1.346 . S
C153 H160 0.929 . S
C154 O144 1.282 . S
C154 O155 1.216 . S
O155 C154 1.216 . S
H156 C151 0.930 . S
H157 C152 0.930 . S
O158 Cu138 1.959 . S
O158 C145 1.251 . S
H159 C142 0.930 . S
H160 C153 0.929 . S
Cu161 N162 1.999 . S
Cu161 O167 1.974 . S
Cu161 N172 1.985 1_565 S
Cu161 O181 1.959 1_565 S
N162 Cu161 1.999 . S
N162 C164 1.263 . S
N162 C166 1.389 . S
N163 C164 1.358 . S
N163 C165 1.400 . S
C164 N162 1.263 . S
C164 N163 1.358 . S
C164 H170 0.930 . S
C165 N163 1.400 . S
C165 C166 1.351 . S
C165 H182 0.930 . S
C166 N162 1.389 . S
C166 C165 1.351 . S
C166 H171 0.930 1_565 S
O167 Cu161 1.974 . S
O167 C177 1.282 . S
C168 O169 1.261 . S
C168 O181 1.251 1_565 S
O169 C168 1.261 . S
H170 C164 0.930 . S
H171 C166 0.930 1_545 S
N172 Cu161 1.985 1_545 S
N172 C174 1.335 . S
N172 C175 1.399 . S
N173 C174 1.345 . S
N173 C176 1.336 . S
C174 N172 1.335 . S
C174 N173 1.345 . S
C174 H179 0.930 . S
C175 N172 1.399 . S
C175 C176 1.362 . S
C175 H180 0.910 1_545 S
C176 N173 1.336 . S
C176 C175 1.362 . S
C176 H183 0.929 . S
C177 O167 1.282 . S
C177 O178 1.216 . S
O178 C177 1.216 . S
H179 C174 0.930 . S
H180 C175 0.910 1_565 S
O181 Cu161 1.959 1_545 S
O181 C168 1.251 1_545 S
H182 C165 0.930 . S
H183 C176 0.929 . S
Cu184 N185 1.999 . S
Cu184 O190 1.974 . S
Cu184 N195 1.985 . S
Cu184 O204 1.959 . S
N185 Cu184 1.999 . S
N185 C187 1.263 . S
N185 C189 1.389 . S
N186 C187 1.358 . S
N186 C188 1.400 . S
C187 N185 1.263 . S
C187 N186 1.358 . S
C187 H193 0.930 . S
C188 N186 1.400 . S
C188 C189 1.351 . S
C188 H205 0.930 . S
C189 N185 1.389 . S
C189 C188 1.351 . S
C189 H194 0.930 . S
O190 Cu184 1.974 . S
O190 C200 1.282 . S
C191 O192 1.261 . S
C191 O204 1.251 . S
O192 C191 1.261 . S
H193 C187 0.930 . S
H194 C189 0.930 . S
N195 Cu184 1.985 . S
N195 C197 1.335 . S
N195 C198 1.390 . S
N196 C197 1.345 . S
N196 C199 1.336 . S
C197 N195 1.335 . S
C197 N196 1.345 . S
C197 H202 0.930 . S
C198 N195 1.390 . S
C198 C199 1.346 . S
C198 H203 0.930 . S
C199 N196 1.336 . S
C199 C198 1.346 . S
C199 H206 0.929 . S
C200 O190 1.282 . S
C200 O201 1.216 . S
O201 C200 1.216 . S
H202 C197 0.930 . S
H203 C198 0.930 . S
O204 Cu184 1.959 . S
O204 C191 1.251 . S
H205 C188 0.930 . S
H206 C199 0.929 . S
Cu207 N208 1.999 . S
Cu207 O213 1.974 . S
Cu207 N218 1.985 . S
Cu207 O227 1.959 . S
N208 Cu207 1.999 . S
N208 C210 1.263 . S
N208 C212 1.389 . S
N209 C210 1.358 . S
N209 C211 1.400 . S
C210 N208 1.263 . S
C210 N209 1.358 . S
C210 H216 0.930 . S
C211 N209 1.400 . S
C211 C212 1.351 . S
C211 H228 0.930 . S
C212 N208 1.389 . S
C212 C211 1.351 . S
C212 H217 0.930 . S
O213 Cu207 1.974 . S
O213 C223 1.282 . S
C214 O215 1.261 . S
C214 O227 1.251 . S
O215 C214 1.261 . S
H216 C210 0.930 . S
H217 C212 0.930 . S
N218 Cu207 1.985 . S
N218 C220 1.335 . S
N218 C221 1.390 . S
N219 C220 1.345 . S
N219 C222 1.336 . S
C220 N218 1.335 . S
C220 N219 1.345 . S
C220 H225 0.930 . S
C221 N218 1.390 . S
C221 C222 1.346 . S
C221 H226 0.930 . S
C222 N219 1.336 . S
C222 C221 1.346 . S
C222 H229 0.929 . S
C223 O213 1.282 . S
C223 O224 1.216 . S
O224 C223 1.216 . S
H225 C220 0.930 . S
H226 C221 0.930 . S
O227 Cu207 1.959 . S
O227 C214 1.251 . S
H228 C211 0.930 . S
H229 C222 0.929 . S
Cu230 N231 1.999 . S
Cu230 O236 1.974 . S
Cu230 N241 1.985 . S
Cu230 O250 1.959 . S
N231 Cu230 1.999 . S
N231 C233 1.263 . S
N231 C235 1.389 . S
N232 C233 1.358 . S
N232 C234 1.400 . S
C233 N231 1.263 . S
C233 N232 1.358 . S
C233 H239 0.930 . S
C234 N232 1.400 . S
C234 C235 1.351 . S
C234 H251 0.930 . S
C235 N231 1.389 . S
C235 C234 1.351 . S
C235 H240 0.930 . S
O236 Cu230 1.974 . S
O236 C246 1.282 . S
C237 O238 1.261 . S
C237 O250 1.251 . S
O238 C237 1.261 . S
H239 C233 0.930 . S
H240 C235 0.930 . S
N241 Cu230 1.985 . S
N241 C243 1.335 . S
N241 C244 1.390 . S
N242 C243 1.345 . S
N242 C245 1.336 . S
C243 N241 1.335 . S
C243 N242 1.345 . S
C243 H248 0.930 . S
C244 N241 1.390 . S
C244 C245 1.346 . S
C244 H249 0.930 . S
C245 N242 1.336 . S
C245 C244 1.346 . S
C245 H252 0.929 . S
C246 O236 1.282 . S
C246 O247 1.216 . S
O247 C246 1.216 . S
H248 C243 0.930 . S
H249 C244 0.930 . S
O250 Cu230 1.959 . S
O250 C237 1.251 . S
H251 C234 0.930 . S
H252 C245 0.929 . S
Cu253 N254 1.999 . S
Cu253 O259 1.974 . S
Cu253 N264 1.985 . S
Cu253 O273 1.959 . S
N254 Cu253 1.999 . S
N254 C256 1.263 . S
N254 C258 1.389 . S
N255 C256 1.358 . S
N255 C257 1.400 . S
C256 N254 1.263 . S
C256 N255 1.358 . S
C256 H262 0.930 . S
C257 N255 1.400 . S
C257 C258 1.351 . S
C257 H274 0.930 . S
C258 N254 1.389 . S
C258 C257 1.351 . S
C258 H263 0.930 . S
O259 Cu253 1.974 . S
O259 C269 1.282 . S
C260 O261 1.261 . S
C260 O273 1.251 . S
O261 C260 1.261 . S
H262 C256 0.930 . S
H263 C258 0.930 . S
N264 Cu253 1.985 . S
N264 C266 1.335 . S
N264 C267 1.390 . S
N265 C266 1.345 . S
N265 C268 1.336 . S
C266 N264 1.335 . S
C266 N265 1.345 . S
C266 H271 0.930 . S
C267 N264 1.390 . S
C267 C268 1.346 . S
C267 H272 0.930 . S
C268 N265 1.336 . S
C268 C267 1.346 . S
C268 H275 0.929 . S
C269 O259 1.282 . S
C269 O270 1.216 . S
O270 C269 1.216 . S
H271 C266 0.930 . S
H272 C267 0.930 . S
O273 Cu253 1.959 . S
O273 C260 1.251 . S
H274 C257 0.930 . S
H275 C268 0.929 . S
Cu276 N277 1.999 . S
Cu276 O282 1.974 . S
Cu276 N287 1.985 . S
Cu276 O296 1.959 . S
N277 Cu276 1.999 . S
N277 C279 1.263 . S
N277 C281 1.389 . S
N278 C279 1.358 . S
N278 C280 1.400 . S
C279 N277 1.263 . S
C279 N278 1.358 . S
C279 H285 0.930 . S
C280 N278 1.400 . S
C280 C281 1.351 . S
C280 H297 0.930 . S
C281 N277 1.389 . S
C281 C280 1.351 . S
C281 H286 0.930 . S
O282 Cu276 1.974 . S
O282 C292 1.282 . S
C283 O284 1.261 . S
C283 O296 1.251 . S
O284 C283 1.261 . S
H285 C279 0.930 . S
H286 C281 0.930 . S
N287 Cu276 1.985 . S
N287 C289 1.335 . S
N287 C290 1.390 . S
N288 C289 1.345 . S
N288 C291 1.336 . S
C289 N287 1.335 . S
C289 N288 1.345 . S
C289 H294 0.930 . S
C290 N287 1.390 . S
C290 C291 1.346 . S
C290 H295 0.930 . S
C291 N288 1.336 . S
C291 C290 1.346 . S
C291 H298 0.929 . S
C292 O282 1.282 . S
C292 O293 1.216 . S
O293 C292 1.216 . S
H294 C289 0.930 . S
H295 C290 0.930 . S
O296 Cu276 1.959 . S
O296 C283 1.251 . S
H297 C280 0.930 . S
H298 C291 0.929 . S
Cu299 N300 1.999 . S
Cu299 O305 1.974 . S
Cu299 N310 1.985 . S
Cu299 O319 1.959 . S
N300 Cu299 1.999 . S
N300 C302 1.263 . S
N300 C304 1.389 . S
N301 C302 1.358 . S
N301 C303 1.400 . S
C302 N300 1.263 . S
C302 N301 1.358 . S
C302 H308 0.930 . S
C303 N301 1.400 . S
C303 C304 1.351 . S
C303 H320 0.930 . S
C304 N300 1.389 . S
C304 C303 1.351 . S
C304 H309 0.930 . S
O305 Cu299 1.974 . S
O305 C315 1.282 . S
C306 O307 1.261 . S
C306 O319 1.251 . S
O307 C306 1.261 . S
H308 C302 0.930 . S
H309 C304 0.930 . S
N310 Cu299 1.985 . S
N310 C312 1.335 . S
N310 C313 1.390 . S
N311 C312 1.345 . S
N311 C314 1.336 . S
C312 N310 1.335 . S
C312 N311 1.345 . S
C312 H317 0.930 . S
C313 N310 1.390 . S
C313 C314 1.346 . S
C313 H318 0.930 . S
C314 N311 1.336 . S
C314 C313 1.346 . S
C314 H321 0.929 . S
C315 O305 1.282 . S
C315 O316 1.216 . S
O316 C315 1.216 . S
H317 C312 0.930 . S
H318 C313 0.930 . S
O319 Cu299 1.959 . S
O319 C306 1.251 . S
H320 C303 0.930 . S
H321 C314 0.929 . S
Cu322 N323 1.999 . S
Cu322 O328 1.974 . S
Cu322 N333 1.985 . S
Cu322 O342 1.959 . S
N323 Cu322 1.999 . S
N323 C325 1.263 . S
N323 C327 1.389 . S
N324 C325 1.358 . S
N324 C326 1.400 . S
C325 N323 1.263 . S
C325 N324 1.358 . S
C325 H331 0.930 . S
C326 N324 1.400 . S
C326 C327 1.351 . S
C326 H343 0.930 . S
C327 N323 1.389 . S
C327 C326 1.351 . S
C327 H332 0.930 . S
O328 Cu322 1.974 . S
O328 C338 1.282 . S
C329 O330 1.261 . S
C329 O342 1.251 . S
O330 C329 1.261 . S
H331 C325 0.930 . S
H332 C327 0.930 . S
N333 Cu322 1.985 . S
N333 C335 1.335 . S
N333 C336 1.390 . S
N334 C335 1.345 . S
N334 C337 1.336 . S
C335 N333 1.335 . S
C335 N334 1.345 . S
C335 H340 0.930 . S
C336 N333 1.390 . S
C336 C337 1.346 . S
C336 H341 0.930 . S
C337 N334 1.336 . S
C337 C336 1.346 . S
C337 H344 0.929 . S
C338 O328 1.282 . S
C338 O339 1.216 . S
O339 C338 1.216 . S
H340 C335 0.930 . S
H341 C336 0.930 . S
O342 Cu322 1.959 . S
O342 C329 1.251 . S
H343 C326 0.930 . S
H344 C337 0.929 . S
Cu345 N346 1.999 . S
Cu345 O351 1.974 . S
Cu345 N356 1.985 . S
Cu345 O365 1.959 . S
N346 Cu345 1.999 . S
N346 C348 1.263 . S
N346 C350 1.389 . S
N347 C348 1.358 . S
N347 C349 1.400 . S
C348 N346 1.263 . S
C348 N347 1.358 . S
C348 H354 0.930 . S
C349 N347 1.400 . S
C349 C350 1.351 . S
C349 H366 0.930 . S
C350 N346 1.389 . S
C350 C349 1.351 . S
C350 H355 0.930 . S
O351 Cu345 1.974 . S
O351 C361 1.282 . S
C352 O353 1.261 . S
C352 O365 1.251 . S
O353 C352 1.261 . S
H354 C348 0.930 . S
H355 C350 0.930 . S
N356 Cu345 1.985 . S
N356 C358 1.335 . S
N356 C359 1.390 . S
N357 C358 1.345 . S
N357 C360 1.336 . S
C358 N356 1.335 . S
C358 N357 1.345 . S
C358 H363 0.930 . S
C359 N356 1.390 . S
C359 C360 1.346 . S
C359 H364 0.930 . S
C360 N357 1.336 . S
C360 C359 1.346 . S
C360 H367 0.929 . S
C361 O351 1.282 . S
C361 O362 1.216 . S
O362 C361 1.216 . S
H363 C358 0.930 . S
H364 C359 0.930 . S
O365 Cu345 1.959 . S
O365 C352 1.251 . S
H366 C349 0.930 . S
H367 C360 0.929 . S
Cu368 N369 1.999 . S
Cu368 O374 1.974 . S
Cu368 N379 1.985 1_445 S
Cu368 O388 1.959 1_545 S
N369 Cu368 1.999 . S
N369 C371 1.263 . S
N369 C373 1.389 . S
N370 C371 1.358 . S
N370 C372 1.400 . S
C371 N369 1.263 . S
C371 N370 1.358 . S
C371 H377 0.930 . S
C372 N370 1.400 . S
C372 C373 1.351 . S
C372 H389 0.930 . S
C373 N369 1.389 . S
C373 C372 1.351 . S
C373 H378 0.930 1_545 S
O374 Cu368 1.974 . S
O374 C384 1.282 1_455 S
C375 O376 1.261 . S
C375 O388 1.251 1_645 S
O376 C375 1.261 . S
H377 C371 0.930 . S
H378 C373 0.930 1_565 S
N379 Cu368 1.985 1_665 S
N379 C381 1.335 . S
N379 C382 1.391 . S
N380 C381 1.345 . S
N380 C383 1.336 . S
C381 N379 1.335 . S
C381 N380 1.345 . S
C381 H386 0.930 . S
C382 N379 1.391 . S
C382 C383 1.349 . S
C382 H387 0.927 1_565 S
C383 N380 1.336 . S
C383 C382 1.349 . S
C383 H390 0.929 . S
C384 O374 1.282 1_655 S
C384 O385 1.216 . S
O385 C384 1.216 . S
H386 C381 0.930 . S
H387 C382 0.927 1_545 S
O388 Cu368 1.959 1_565 S
O388 C375 1.251 1_465 S
H389 C372 0.930 . S
H390 C383 0.929 . S
Cu391 N392 1.999 . S
Cu391 O397 1.974 . S
Cu391 N402 1.985 . S
Cu391 O411 1.959 . S
N392 Cu391 1.999 . S
N392 C394 1.263 . S
N392 C396 1.389 . S
N393 C394 1.358 . S
N393 C395 1.400 . S
C394 N392 1.263 . S
C394 N393 1.358 . S
C394 H400 0.930 . S
C395 N393 1.400 . S
C395 C396 1.351 . S
C395 H412 0.930 . S
C396 N392 1.389 . S
C396 C395 1.351 . S
C396 H401 0.930 . S
O397 Cu391 1.974 . S
O397 C407 1.282 . S
C398 O399 1.261 . S
C398 O411 1.251 . S
O399 C398 1.261 . S
H400 C394 0.930 . S
H401 C396 0.930 . S
N402 Cu391 1.985 . S
N402 C404 1.335 . S
N402 C405 1.390 . S
N403 C404 1.345 . S
N403 C406 1.336 . S
C404 N402 1.335 . S
C404 N403 1.345 . S
C404 H409 0.930 . S
C405 N402 1.390 . S
C405 C406 1.346 . S
C405 H410 0.930 . S
C406 N403 1.336 . S
C406 C405 1.346 . S
C406 H413 0.929 . S
C407 O397 1.282 . S
C407 O408 1.216 . S
O408 C407 1.216 . S
H409 C404 0.930 . S
H410 C405 0.930 . S
O411 Cu391 1.959 . S
O411 C398 1.251 . S
H412 C395 0.930 . S
H413 C406 0.929 . S
Cu414 N415 1.999 . S
Cu414 O420 1.974 . S
Cu414 N425 1.985 1_455 S
Cu414 O434 1.959 . S
N415 Cu414 1.999 . S
N415 C417 1.263 . S
N415 C419 1.389 . S
N416 C417 1.358 . S
N416 C418 1.400 . S
C417 N415 1.263 . S
C417 N416 1.358 . S
C417 H423 0.930 . S
C418 N416 1.400 . S
C418 C419 1.351 . S
C418 H435 0.930 . S
C419 N415 1.389 . S
C419 C418 1.351 . S
C419 H424 0.930 . S
O420 Cu414 1.974 . S
O420 C430 1.282 1_455 S
C421 O422 1.261 . S
C421 O434 1.251 1_655 S
O422 C421 1.261 . S
H423 C417 0.930 . S
H424 C419 0.930 . S
N425 Cu414 1.985 1_655 S
N425 C427 1.335 . S
N425 C428 1.390 . S
N426 C427 1.345 . S
N426 C429 1.336 . S
C427 N425 1.335 . S
C427 N426 1.345 . S
C427 H432 0.930 . S
C428 N425 1.390 . S
C428 C429 1.346 . S
C428 H433 0.930 . S
C429 N426 1.336 . S
C429 C428 1.346 . S
C429 H436 0.929 . S
C430 O420 1.282 1_655 S
C430 O431 1.216 . S
O431 C430 1.216 . S
H432 C427 0.930 . S
H433 C428 0.930 . S
O434 Cu414 1.959 . S
O434 C421 1.251 1_455 S
H435 C418 0.930 . S
H436 C429 0.929 . S
Cu437 N438 1.999 . S
Cu437 O443 1.974 . S
Cu437 N448 1.985 1_545 S
Cu437 O457 1.959 1_545 S
N438 Cu437 1.999 . S
N438 C440 1.263 . S
N438 C442 1.389 . S
N439 C440 1.358 . S
N439 C441 1.400 . S
C440 N438 1.263 . S
C440 N439 1.358 . S
C440 H446 0.930 . S
C441 N439 1.400 . S
C441 C442 1.351 . S
C441 H458 0.930 . S
C442 N438 1.389 . S
C442 C441 1.351 . S
C442 H447 0.930 1_545 S
O443 Cu437 1.974 . S
O443 C453 1.282 . S
C444 O445 1.261 . S
C444 O457 1.251 1_545 S
O445 C444 1.261 . S
H446 C440 0.930 . S
H447 C442 0.930 1_565 S
N448 Cu437 1.985 1_565 S
N448 C450 1.335 . S
N448 C451 1.390 . S
N449 C450 1.345 . S
N449 C452 1.336 . S
C450 N448 1.335 . S
C450 N449 1.345 . S
C450 H455 0.930 . S
C451 N448 1.390 . S
C451 C452 1.346 . S
C451 H456 0.930 1_565 S
C452 N449 1.336 . S
C452 C451 1.346 . S
C452 H459 0.929 . S
C453 O443 1.282 . S
C453 O454 1.216 . S
O454 C453 1.216 . S
H455 C450 0.930 . S
H456 C451 0.930 1_545 S
O457 Cu437 1.959 1_565 S
O457 C444 1.251 1_565 S
H458 C441 0.930 . S
H459 C452 0.929 . S
Cu460 N461 1.999 . S
Cu460 O466 1.974 . S
Cu460 N471 1.985 1_665 S
Cu460 O480 1.959 1_565 S
N461 Cu460 1.999 . S
N461 C463 1.263 . S
N461 C465 1.389 . S
N462 C463 1.358 . S
N462 C464 1.400 . S
C463 N461 1.263 . S
C463 N462 1.358 . S
C463 H469 0.930 . S
C464 N462 1.400 . S
C464 C465 1.351 . S
C464 H481 0.930 . S
C465 N461 1.389 . S
C465 C464 1.351 . S
C465 H470 0.930 1_565 S
O466 Cu460 1.974 . S
O466 C476 1.282 1_655 S
C467 O468 1.261 . S
C467 O480 1.251 1_465 S
O468 C467 1.261 . S
H469 C463 0.930 . S
H470 C465 0.930 1_545 S
N471 Cu460 1.985 1_445 S
N471 C473 1.335 . S
N471 C474 1.391 . S
N472 C473 1.345 . S
N472 C475 1.336 . S
C473 N471 1.335 . S
C473 N472 1.345 . S
C473 H478 0.930 . S
C474 N471 1.391 . S
C474 C475 1.349 . S
C474 H479 0.926 1_545 S
C475 N472 1.336 . S
C475 C474 1.349 . S
C475 H482 0.929 . S
C476 O466 1.282 1_455 S
C476 O477 1.216 . S
O477 C476 1.216 . S
H478 C473 0.930 . S
H479 C474 0.926 1_565 S
O480 Cu460 1.959 1_545 S
O480 C467 1.251 1_645 S
H481 C464 0.930 . S
H482 C475 0.929 . S
Cu483 N484 1.999 . S
Cu483 O489 1.974 . S
Cu483 N494 1.985 . S
Cu483 O503 1.959 . S
N484 Cu483 1.999 . S
N484 C486 1.263 . S
N484 C488 1.389 . S
N485 C486 1.358 . S
N485 C487 1.400 . S
C486 N484 1.263 . S
C486 N485 1.358 . S
C486 H492 0.930 . S
C487 N485 1.400 . S
C487 C488 1.351 . S
C487 H504 0.930 . S
C488 N484 1.389 . S
C488 C487 1.351 . S
C488 H493 0.930 . S
O489 Cu483 1.974 . S
O489 C499 1.282 . S
C490 O491 1.261 . S
C490 O503 1.251 . S
O491 C490 1.261 . S
H492 C486 0.930 . S
H493 C488 0.930 . S
N494 Cu483 1.985 . S
N494 C496 1.335 . S
N494 C497 1.390 . S
N495 C496 1.345 . S
N495 C498 1.336 . S
C496 N494 1.335 . S
C496 N495 1.345 . S
C496 H501 0.930 . S
C497 N494 1.390 . S
C497 C498 1.346 . S
C497 H502 0.930 . S
C498 N495 1.336 . S
C498 C497 1.346 . S
C498 H505 0.929 . S
C499 O489 1.282 . S
C499 O500 1.216 . S
O500 C499 1.216 . S
H501 C496 0.930 . S
H502 C497 0.930 . S
O503 Cu483 1.959 . S
O503 C490 1.251 . S
H504 C487 0.930 . S
H505 C498 0.929 . S
Cu506 N507 1.999 . S
Cu506 O512 1.974 . S
Cu506 N517 1.985 1_655 S
Cu506 O526 1.959 . S
N507 Cu506 1.999 . S
N507 C509 1.263 . S
N507 C511 1.389 . S
N508 C509 1.358 . S
N508 C510 1.400 . S
C509 N507 1.263 . S
C509 N508 1.358 . S
C509 H515 0.930 . S
C510 N508 1.400 . S
C510 C511 1.351 . S
C510 H527 0.930 . S
C511 N507 1.389 . S
C511 C510 1.351 . S
C511 H516 0.930 . S
O512 Cu506 1.974 . S
O512 C522 1.282 1_655 S
C513 O514 1.261 . S
C513 O526 1.251 1_455 S
O514 C513 1.261 . S
H515 C509 0.930 . S
H516 C511 0.930 . S
N517 Cu506 1.985 1_455 S
N517 C519 1.335 . S
N517 C520 1.390 . S
N518 C519 1.345 . S
N518 C521 1.336 . S
C519 N517 1.335 . S
C519 N518 1.345 . S
C519 H524 0.930 . S
C520 N517 1.390 . S
C520 C521 1.346 . S
C520 H525 0.930 . S
C521 N518 1.336 . S
C521 C520 1.346 . S
C521 H528 0.929 . S
C522 O512 1.282 1_455 S
C522 O523 1.216 . S
O523 C522 1.216 . S
H524 C519 0.930 . S
H525 C520 0.930 . S
O526 Cu506 1.959 . S
O526 C513 1.251 1_655 S
H527 C510 0.930 . S
H528 C521 0.929 . S
Cu529 N530 1.999 . S
Cu529 O535 1.974 . S
Cu529 N540 1.985 1_565 S
Cu529 O549 1.959 1_565 S
N530 Cu529 1.999 . S
N530 C532 1.263 . S
N530 C534 1.389 . S
N531 C532 1.358 . S
N531 C533 1.400 . S
C532 N530 1.263 . S
C532 N531 1.358 . S
C532 H538 0.930 . S
C533 N531 1.400 . S
C533 C534 1.351 . S
C533 H550 0.930 . S
C534 N530 1.389 . S
C534 C533 1.351 . S
C534 H539 0.930 1_565 S
O535 Cu529 1.974 . S
O535 C545 1.282 . S
C536 O537 1.261 . S
C536 O549 1.251 1_565 S
O537 C536 1.261 . S
H538 C532 0.930 . S
H539 C534 0.930 1_545 S
N540 Cu529 1.985 1_545 S
N540 C542 1.335 . S
N540 C543 1.390 . S
N541 C542 1.345 . S
N541 C544 1.336 . S
C542 N540 1.335 . S
C542 N541 1.345 . S
C542 H547 0.930 . S
C543 N540 1.390 . S
C543 C544 1.346 . S
C543 H548 0.930 1_545 S
C544 N541 1.336 . S
C544 C543 1.346 . S
C544 H551 0.929 . S
C545 O535 1.282 . S
C545 O546 1.216 . S
O546 C545 1.216 . S
H547 C542 0.930 . S
H548 C543 0.930 1_565 S
O549 Cu529 1.959 1_545 S
O549 C536 1.251 1_545 S
H550 C533 0.930 . S
H551 C544 0.929 . S
Cu552 N553 1.999 . S
Cu552 O558 1.974 . S
Cu552 N563 1.985 1_455 S
Cu552 O572 1.959 . S
N553 Cu552 1.999 . S
N553 C555 1.263 . S
N553 C557 1.389 . S
N554 C555 1.358 . S
N554 C556 1.400 . S
C555 N553 1.263 . S
C555 N554 1.358 . S
C555 H561 0.930 . S
C556 N554 1.400 . S
C556 C557 1.351 . S
C556 H573 0.930 . S
C557 N553 1.389 . S
C557 C556 1.351 . S
C557 H562 0.930 . S
O558 Cu552 1.974 . S
O558 C568 1.282 1_455 S
C559 O560 1.261 . S
C559 O572 1.251 1_655 S
O560 C559 1.261 . S
H561 C555 0.930 . S
H562 C557 0.930 . S
N563 Cu552 1.985 1_655 S
N563 C565 1.335 . S
N563 C566 1.390 . S
N564 C565 1.345 . S
N564 C567 1.336 . S
C565 N563 1.335 . S
C565 N564 1.345 . S
C565 H570 0.930 . S
C566 N563 1.390 . S
C566 C567 1.346 . S
C566 H571 0.930 . S
C567 N564 1.336 . S
C567 C566 1.346 . S
C567 H574 0.929 . S
C568 O558 1.282 1_655 S
C568 O569 1.216 . S
O569 C568 1.216 . S
H570 C565 0.930 . S
H571 C566 0.930 . S
O572 Cu552 1.959 . S
O572 C559 1.251 1_455 S
H573 C556 0.930 . S
H574 C567 0.929 . S
Cu575 N576 1.999 . S
Cu575 O581 1.974 . S
Cu575 N586 1.985 . S
Cu575 O595 1.959 . S
N576 Cu575 1.999 . S
N576 C578 1.263 . S
N576 C580 1.389 . S
N577 C578 1.358 . S
N577 C579 1.400 . S
C578 N576 1.263 . S
C578 N577 1.358 . S
C578 H584 0.930 . S
C579 N577 1.400 . S
C579 C580 1.351 . S
C579 H596 0.930 . S
C580 N576 1.389 . S
C580 C579 1.351 . S
C580 H585 0.930 . S
O581 Cu575 1.974 . S
O581 C591 1.282 . S
C582 O583 1.261 . S
C582 O595 1.251 . S
O583 C582 1.261 . S
H584 C578 0.930 . S
H585 C580 0.930 . S
N586 Cu575 1.985 . S
N586 C588 1.335 . S
N586 C589 1.390 . S
N587 C588 1.345 . S
N587 C590 1.336 . S
C588 N586 1.335 . S
C588 N587 1.345 . S
C588 H593 0.930 . S
C589 N586 1.390 . S
C589 C590 1.346 . S
C589 H594 0.930 . S
C590 N587 1.336 . S
C590 C589 1.346 . S
C590 H597 0.929 . S
C591 O581 1.282 . S
C591 O592 1.216 . S
O592 C591 1.216 . S
H593 C588 0.930 . S
H594 C589 0.930 . S
O595 Cu575 1.959 . S
O595 C582 1.251 . S
H596 C579 0.930 . S
H597 C590 0.929 . S
Cu598 N599 1.999 . S
Cu598 O604 1.974 . S
Cu598 N609 1.985 1_455 S
Cu598 O618 1.959 . S
N599 Cu598 1.999 . S
N599 C601 1.263 . S
N599 C603 1.389 . S
N600 C601 1.358 . S
N600 C602 1.400 . S
C601 N599 1.263 . S
C601 N600 1.358 . S
C601 H607 0.930 . S
C602 N600 1.400 . S
C602 C603 1.351 . S
C602 H619 0.930 . S
C603 N599 1.389 . S
C603 C602 1.351 . S
C603 H608 0.930 . S
O604 Cu598 1.974 . S
O604 C614 1.282 1_455 S
C605 O606 1.261 . S
C605 O618 1.251 1_655 S
O606 C605 1.261 . S
H607 C601 0.930 . S
H608 C603 0.930 . S
N609 Cu598 1.985 1_655 S
N609 C611 1.335 . S
N609 C612 1.390 . S
N610 C611 1.345 . S
N610 C613 1.336 . S
C611 N609 1.335 . S
C611 N610 1.345 . S
C611 H616 0.930 . S
C612 N609 1.390 . S
C612 C613 1.346 . S
C612 H617 0.930 . S
C613 N610 1.336 . S
C613 C612 1.346 . S
C613 H620 0.929 . S
C614 O604 1.282 1_655 S
C614 O615 1.216 . S
O615 C614 1.216 . S
H616 C611 0.930 . S
H617 C612 0.930 . S
O618 Cu598 1.959 . S
O618 C605 1.251 1_455 S
H619 C602 0.930 . S
H620 C613 0.929 . S
Cu621 N622 1.999 . S
Cu621 O627 1.974 . S
Cu621 N632 1.985 . S
Cu621 O641 1.959 . S
N622 Cu621 1.999 . S
N622 C624 1.263 . S
N622 C626 1.389 . S
N623 C624 1.358 . S
N623 C625 1.400 . S
C624 N622 1.263 . S
C624 N623 1.358 . S
C624 H630 0.930 . S
C625 N623 1.400 . S
C625 C626 1.351 . S
C625 H642 0.930 . S
C626 N622 1.389 . S
C626 C625 1.351 . S
C626 H631 0.930 . S
O627 Cu621 1.974 . S
O627 C637 1.282 . S
C628 O629 1.261 . S
C628 O641 1.251 . S
O629 C628 1.261 . S
H630 C624 0.930 . S
H631 C626 0.930 . S
N632 Cu621 1.985 . S
N632 C634 1.335 . S
N632 C635 1.390 . S
N633 C634 1.345 . S
N633 C636 1.336 . S
C634 N632 1.335 . S
C634 N633 1.345 . S
C634 H639 0.930 . S
C635 N632 1.390 . S
C635 C636 1.346 . S
C635 H640 0.930 . S
C636 N633 1.336 . S
C636 C635 1.346 . S
C636 H643 0.929 . S
C637 O627 1.282 . S
C637 O638 1.216 . S
O638 C637 1.216 . S
H639 C634 0.930 . S
H640 C635 0.930 . S
O641 Cu621 1.959 . S
O641 C628 1.251 . S
H642 C625 0.930 . S
H643 C636 0.929 . S
Cu644 N645 1.999 . S
Cu644 O650 1.974 . S
Cu644 N655 1.985 1_655 S
Cu644 O664 1.959 . S
N645 Cu644 1.999 . S
N645 C647 1.263 . S
N645 C649 1.389 . S
N646 C647 1.358 . S
N646 C648 1.400 . S
C647 N645 1.263 . S
C647 N646 1.358 . S
C647 H653 0.930 . S
C648 N646 1.400 . S
C648 C649 1.351 . S
C648 H665 0.930 . S
C649 N645 1.389 . S
C649 C648 1.351 . S
C649 H654 0.930 . S
O650 Cu644 1.974 . S
O650 C660 1.282 1_655 S
C651 O652 1.261 . S
C651 O664 1.251 1_455 S
O652 C651 1.261 . S
H653 C647 0.930 . S
H654 C649 0.930 . S
N655 Cu644 1.985 1_455 S
N655 C657 1.335 . S
N655 C658 1.390 . S
N656 C657 1.345 . S
N656 C659 1.336 . S
C657 N655 1.335 . S
C657 N656 1.345 . S
C657 H662 0.930 . S
C658 N655 1.390 . S
C658 C659 1.346 . S
C658 H663 0.930 . S
C659 N656 1.336 . S
C659 C658 1.346 . S
C659 H666 0.929 . S
C660 O650 1.282 1_455 S
C660 O661 1.216 . S
O661 C660 1.216 . S
H662 C657 0.930 . S
H663 C658 0.930 . S
O664 Cu644 1.959 . S
O664 C651 1.251 1_655 S
H665 C648 0.930 . S
H666 C659 0.929 . S
Cu667 N668 1.999 . S
Cu667 O673 1.974 . S
Cu667 N678 1.985 . S
Cu667 O687 1.959 . S
N668 Cu667 1.999 . S
N668 C670 1.263 . S
N668 C672 1.389 . S
N669 C670 1.358 . S
N669 C671 1.400 . S
C670 N668 1.263 . S
C670 N669 1.358 . S
C670 H676 0.930 . S
C671 N669 1.400 . S
C671 C672 1.351 . S
C671 H688 0.930 . S
C672 N668 1.389 . S
C672 C671 1.351 . S
C672 H677 0.930 . S
O673 Cu667 1.974 . S
O673 C683 1.282 . S
C674 O675 1.261 . S
C674 O687 1.251 . S
O675 C674 1.261 . S
H676 C670 0.930 . S
H677 C672 0.930 . S
N678 Cu667 1.985 . S
N678 C680 1.335 . S
N678 C681 1.390 . S
N679 C680 1.345 . S
N679 C682 1.336 . S
C680 N678 1.335 . S
C680 N679 1.345 . S
C680 H685 0.930 . S
C681 N678 1.390 . S
C681 C682 1.346 . S
C681 H686 0.930 . S
C682 N679 1.336 . S
C682 C681 1.346 . S
C682 H689 0.929 . S
C683 O673 1.282 . S
C683 O684 1.216 . S
O684 C683 1.216 . S
H685 C680 0.930 . S
H686 C681 0.930 . S
O687 Cu667 1.959 . S
O687 C674 1.251 . S
H688 C671 0.930 . S
H689 C682 0.929 . S
Cu690 N691 1.999 . S
Cu690 O696 1.974 . S
Cu690 N701 1.985 1_655 S
Cu690 O710 1.959 . S
N691 Cu690 1.999 . S
N691 C693 1.263 . S
N691 C695 1.389 . S
N692 C693 1.358 . S
N692 C694 1.400 . S
C693 N691 1.263 . S
C693 N692 1.358 . S
C693 H699 0.930 . S
C694 N692 1.400 . S
C694 C695 1.351 . S
C694 H711 0.930 . S
C695 N691 1.389 . S
C695 C694 1.351 . S
C695 H700 0.930 . S
O696 Cu690 1.974 . S
O696 C706 1.282 1_655 S
C697 O698 1.261 . S
C697 O710 1.251 1_455 S
O698 C697 1.261 . S
H699 C693 0.930 . S
H700 C695 0.930 . S
N701 Cu690 1.985 1_455 S
N701 C703 1.335 . S
N701 C704 1.390 . S
N702 C703 1.345 . S
N702 C705 1.336 . S
C703 N701 1.335 . S
C703 N702 1.345 . S
C703 H708 0.930 . S
C704 N701 1.390 . S
C704 C705 1.346 . S
C704 H709 0.930 . S
C705 N702 1.336 . S
C705 C704 1.346 . S
C705 H712 0.929 . S
C706 O696 1.282 1_455 S
C706 O707 1.216 . S
O707 C706 1.216 . S
H708 C703 0.930 . S
H709 C704 0.930 . S
O710 Cu690 1.959 . S
O710 C697 1.251 1_655 S
H711 C694 0.930 . S
H712 C705 0.929 . S
Cu713 N714 1.999 . S
Cu713 O719 1.974 . S
Cu713 N724 1.985 . S
Cu713 O733 1.959 . S
N714 Cu713 1.999 . S
N714 C716 1.263 . S
N714 C718 1.389 . S
N715 C716 1.358 . S
N715 C717 1.400 . S
C716 N714 1.263 . S
C716 N715 1.358 . S
C716 H722 0.930 . S
C717 N715 1.400 . S
C717 C718 1.351 . S
C717 H734 0.930 . S
C718 N714 1.389 . S
C718 C717 1.351 . S
C718 H723 0.930 . S
O719 Cu713 1.974 . S
O719 C729 1.282 . S
C720 O721 1.261 . S
C720 O733 1.251 . S
O721 C720 1.261 . S
H722 C716 0.930 . S
H723 C718 0.930 . S
N724 Cu713 1.985 . S
N724 C726 1.335 . S
N724 C727 1.390 . S
N725 C726 1.345 . S
N725 C728 1.336 . S
C726 N724 1.335 . S
C726 N725 1.345 . S
C726 H731 0.930 . S
C727 N724 1.390 . S
C727 C728 1.346 . S
C727 H732 0.930 . S
C728 N725 1.336 . S
C728 C727 1.346 . S
C728 H735 0.929 . S
C729 O719 1.282 . S
C729 O730 1.216 . S
O730 C729 1.216 . S
H731 C726 0.930 . S
H732 C727 0.930 . S
O733 Cu713 1.959 . S
O733 C720 1.251 . S
H734 C717 0.930 . S
H735 C728 0.929 . S
H736 C742 0.930 . S
H737 C746 0.930 . S
H738 C751 0.929 . S
H739 C749 0.929 . S
H740 C744 0.929 . S
H741 C750 0.929 . S
C742 H736 0.930 . S
C742 C743 1.367 . S
C742 C750 1.378 . S
C743 C742 1.367 . S
C743 C751 1.433 . S
C744 H740 0.929 . S
C744 C746 1.378 . S
C744 C748 1.350 . S
C745 C748 1.463 . S
C745 C750 1.350 . S
C745 N753 1.427 . S
C746 H737 0.930 . S
C746 C744 1.378 . S
C746 C747 1.367 . S
C747 C746 1.367 . S
C747 C749 1.433 . S
C748 C744 1.350 . S
C748 C745 1.463 . S
C748 N752 1.427 . S
C749 H739 0.929 . S
C749 C747 1.433 . S
C749 N752 1.384 . S
C750 H741 0.929 . S
C750 C742 1.378 . S
C750 C745 1.350 . S
C751 H738 0.929 . S
C751 C743 1.433 . S
C751 N753 1.384 . S
N752 C748 1.427 . S
N752 C749 1.384 . S
N753 C745 1.427 . S
N753 C751 1.384 . S
H754 C760 0.930 . S
H755 C764 0.930 . S
H756 C769 0.929 . S
H757 C767 0.929 . S
H758 C762 0.929 . S
H759 C768 0.929 . S
C760 H754 0.930 . S
C760 C761 1.367 . S
C760 C768 1.378 . S
C761 C760 1.367 . S
C761 C769 1.433 . S
C762 H758 0.929 . S
C762 C764 1.378 . S
C762 C766 1.350 . S
C763 C766 1.463 . S
C763 C768 1.350 . S
C763 N771 1.427 . S
C764 H755 0.930 . S
C764 C762 1.378 . S
C764 C765 1.367 . S
C765 C764 1.367 . S
C765 C767 1.433 . S
C766 C762 1.350 . S
C766 C763 1.463 . S
C766 N770 1.427 . S
C767 H757 0.929 . S
C767 C765 1.433 . S
C767 N770 1.384 . S
C768 H759 0.929 . S
C768 C760 1.378 . S
C768 C763 1.350 . S
C769 H756 0.929 . S
C769 C761 1.433 . S
C769 N771 1.384 . S
N770 C766 1.427 . S
N770 C767 1.384 . S
N771 C763 1.427 . S
N771 C769 1.384 . S
H772 C778 0.930 . S
H773 C782 0.930 . S
H774 C787 0.929 . S
H775 C785 0.929 . S
H776 C780 0.929 . S
H777 C786 0.929 . S
C778 H772 0.930 . S
C778 C779 1.367 . S
C778 C786 1.378 . S
C779 C778 1.367 . S
C779 C787 1.433 . S
C780 H776 0.929 . S
C780 C782 1.378 . S
C780 C784 1.350 . S
C781 C784 1.463 . S
C781 C786 1.350 . S
C781 N789 1.427 . S
C782 H773 0.930 . S
C782 C780 1.378 . S
C782 C783 1.367 . S
C783 C782 1.367 . S
C783 C785 1.433 . S
C784 C780 1.350 . S
C784 C781 1.463 . S
C784 N788 1.427 . S
C785 H775 0.929 . S
C785 C783 1.433 . S
C785 N788 1.384 . S
C786 H777 0.929 . S
C786 C778 1.378 . S
C786 C781 1.350 . S
C787 H774 0.929 . S
C787 C779 1.433 . S
C787 N789 1.384 . S
N788 C784 1.427 . S
N788 C785 1.384 . S
N789 C781 1.427 . S
N789 C787 1.384 . S
H790 C796 0.930 . S
H791 C800 0.930 . S
H792 C805 0.929 . S
H793 C803 0.929 . S
H794 C798 0.929 . S
H795 C804 0.929 . S
C796 H790 0.930 . S
C796 C797 1.367 . S
C796 C804 1.378 . S
C797 C796 1.367 . S
C797 C805 1.433 . S
C798 H794 0.929 . S
C798 C800 1.378 . S
C798 C802 1.350 . S
C799 C802 1.463 . S
C799 C804 1.350 . S
C799 N807 1.427 . S
C800 H791 0.930 . S
C800 C798 1.378 . S
C800 C801 1.367 . S
C801 C800 1.367 . S
C801 C803 1.433 . S
C802 C798 1.350 . S
C802 C799 1.463 . S
C802 N806 1.427 . S
C803 H793 0.929 . S
C803 C801 1.433 . S
C803 N806 1.384 . S
C804 H795 0.929 . S
C804 C796 1.378 . S
C804 C799 1.350 . S
C805 H792 0.929 . S
C805 C797 1.433 . S
C805 N807 1.384 . S
N806 C802 1.427 . S
N806 C803 1.384 . S
N807 C799 1.427 . S
N807 C805 1.384 . S
H808 C814 0.930 . S
H809 C818 0.930 . S
H810 C823 0.929 . S
H811 C821 0.929 . S
H812 C816 0.929 . S
H813 C822 0.929 . S
C814 H808 0.930 . S
C814 C815 1.367 . S
C814 C822 1.378 . S
C815 C814 1.367 . S
C815 C823 1.433 . S
C816 H812 0.929 . S
C816 C818 1.378 . S
C816 C820 1.350 . S
C817 C820 1.463 . S
C817 C822 1.350 . S
C817 N825 1.427 . S
C818 H809 0.930 . S
C818 C816 1.378 . S
C818 C819 1.367 . S
C819 C818 1.367 . S
C819 C821 1.433 . S
C820 C816 1.350 . S
C820 C817 1.463 . S
C820 N824 1.427 . S
C821 H811 0.929 . S
C821 C819 1.433 . S
C821 N824 1.384 . S
C822 H813 0.929 . S
C822 C814 1.378 . S
C822 C817 1.350 . S
C823 H810 0.929 . S
C823 C815 1.433 . S
C823 N825 1.384 . S
N824 C820 1.427 . S
N824 C821 1.384 . S
N825 C817 1.427 . S
N825 C823 1.384 . S
H826 C832 0.930 . S
H827 C836 0.930 . S
H828 C841 0.929 . S
H829 C839 0.929 . S
H830 C834 0.929 . S
H831 C840 0.929 . S
C832 H826 0.930 . S
C832 C833 1.367 . S
C832 C840 1.378 . S
C833 C832 1.367 . S
C833 C841 1.433 . S
C834 H830 0.929 . S
C834 C836 1.378 . S
C834 C838 1.350 . S
C835 C838 1.463 . S
C835 C840 1.350 . S
C835 N843 1.427 . S
C836 H827 0.930 . S
C836 C834 1.378 . S
C836 C837 1.367 . S
C837 C836 1.367 . S
C837 C839 1.433 . S
C838 C834 1.350 . S
C838 C835 1.463 . S
C838 N842 1.427 . S
C839 H829 0.929 . S
C839 C837 1.433 . S
C839 N842 1.384 . S
C840 H831 0.929 . S
C840 C832 1.378 . S
C840 C835 1.350 . S
C841 H828 0.929 . S
C841 C833 1.433 . S
C841 N843 1.384 . S
N842 C838 1.427 . S
N842 C839 1.384 . S
N843 C835 1.427 . S
N843 C841 1.384 . S
H844 C850 0.930 . S
H845 C854 0.930 . S
H846 C859 0.929 . S
H847 C857 0.929 . S
H848 C852 0.929 . S
H849 C858 0.929 . S
C850 H844 0.930 . S
C850 C851 1.367 . S
C850 C858 1.378 . S
C851 C850 1.367 . S
C851 C859 1.433 . S
C852 H848 0.929 . S
C852 C854 1.378 . S
C852 C856 1.350 . S
C853 C856 1.463 . S
C853 C858 1.350 . S
C853 N861 1.427 . S
C854 H845 0.930 . S
C854 C852 1.378 . S
C854 C855 1.367 . S
C855 C854 1.367 . S
C855 C857 1.433 . S
C856 C852 1.350 . S
C856 C853 1.463 . S
C856 N860 1.427 . S
C857 H847 0.929 . S
C857 C855 1.433 . S
C857 N860 1.384 . S
C858 H849 0.929 . S
C858 C850 1.378 . S
C858 C853 1.350 . S
C859 H846 0.929 . S
C859 C851 1.433 . S
C859 N861 1.384 . S
N860 C856 1.427 . S
N860 C857 1.384 . S
N861 C853 1.427 . S
N861 C859 1.384 . S
H862 C868 0.930 . S
H863 C872 0.930 . S
H864 C877 0.929 . S
H865 C875 0.929 . S
H866 C870 0.929 . S
H867 C876 0.929 . S
C868 H862 0.930 . S
C868 C869 1.367 . S
C868 C876 1.378 . S
C869 C868 1.367 . S
C869 C877 1.433 . S
C870 H866 0.929 . S
C870 C872 1.378 . S
C870 C874 1.350 . S
C871 C874 1.463 . S
C871 C876 1.350 . S
C871 N879 1.427 . S
C872 H863 0.930 . S
C872 C870 1.378 . S
C872 C873 1.367 . S
C873 C872 1.367 . S
C873 C875 1.433 . S
C874 C870 1.350 . S
C874 C871 1.463 . S
C874 N878 1.427 . S
C875 H865 0.929 . S
C875 C873 1.433 . S
C875 N878 1.384 . S
C876 H867 0.929 . S
C876 C868 1.378 . S
C876 C871 1.350 . S
C877 H864 0.929 . S
C877 C869 1.433 . S
C877 N879 1.384 . S
N878 C874 1.427 . S
N878 C875 1.384 . S
N879 C871 1.427 . S
N879 C877 1.384 . S
H880 C886 0.930 . S
H881 C890 0.930 . S
H882 C895 0.929 . S
H883 C893 0.929 . S
H884 C888 0.929 . S
H885 C894 0.929 . S
C886 H880 0.930 . S
C886 C887 1.372 . S
C886 C894 1.378 . S
C887 C886 1.372 . S
C887 C895 1.429 1_655 S
C888 H884 0.929 . S
C888 C890 1.378 . S
C888 C892 1.353 . S
C889 C892 1.462 1_655 S
C889 C894 1.357 . S
C889 N897 1.420 1_655 S
C890 H881 0.930 . S
C890 C888 1.378 . S
C890 C891 1.368 . S
C891 C890 1.368 . S
C891 C893 1.432 1_455 S
C892 C888 1.353 . S
C892 C889 1.462 1_455 S
C892 N896 1.424 1_455 S
C893 H883 0.929 . S
C893 C891 1.432 1_655 S
C893 N896 1.384 . S
C894 H885 0.929 . S
C894 C886 1.378 . S
C894 C889 1.357 . S
C895 H882 0.929 . S
C895 C887 1.429 1_455 S
C895 N897 1.384 . S
N896 C892 1.424 1_655 S
N896 C893 1.384 . S
N897 C889 1.420 1_455 S
N897 C895 1.384 . S
H898 C904 0.930 . S
H899 C908 0.930 . S
H900 C913 0.929 . S
H901 C911 0.929 . S
H902 C906 0.929 . S
H903 C912 0.929 . S
C904 H898 0.930 . S
C904 C905 1.367 . S
C904 C912 1.378 . S
C905 C904 1.367 . S
C905 C913 1.433 . S
C906 H902 0.929 . S
C906 C908 1.378 . S
C906 C910 1.350 . S
C907 C910 1.463 . S
C907 C912 1.350 . S
C907 N915 1.427 . S
C908 H899 0.930 . S
C908 C906 1.378 . S
C908 C909 1.367 . S
C909 C908 1.367 . S
C909 C911 1.433 . S
C910 C906 1.350 . S
C910 C907 1.463 . S
C910 N914 1.427 . S
C911 H901 0.929 . S
C911 C909 1.433 . S
C911 N914 1.384 . S
C912 H903 0.929 . S
C912 C904 1.378 . S
C912 C907 1.350 . S
C913 H900 0.929 . S
C913 C905 1.433 . S
C913 N915 1.384 . S
N914 C910 1.427 . S
N914 C911 1.384 . S
N915 C907 1.427 . S
N915 C913 1.384 . S
H916 C922 0.930 . S
H917 C926 0.930 . S
H918 C931 0.929 . S
H919 C929 0.929 . S
H920 C924 0.929 . S
H921 C930 0.929 . S
C922 H916 0.930 . S
C922 C923 1.375 . S
C922 C930 1.378 . S
C923 C922 1.375 . S
C923 C931 1.425 1_655 S
C924 H920 0.929 . S
C924 C926 1.378 . S
C924 C928 1.372 . S
C925 C928 1.461 1_655 S
C925 C930 1.365 . S
C925 N933 1.412 1_655 S
C926 H917 0.930 . S
C926 C924 1.378 . S
C926 C927 1.382 . S
C927 C926 1.382 . S
C927 C929 1.418 1_455 S
C928 C924 1.372 . S
C928 C925 1.461 1_455 S
C928 N932 1.405 1_455 S
C929 H919 0.929 . S
C929 C927 1.418 1_655 S
C929 N932 1.384 . S
C930 H921 0.929 . S
C930 C922 1.378 . S
C930 C925 1.365 . S
C931 H918 0.929 . S
C931 C923 1.425 1_455 S
C931 N933 1.384 . S
N932 C928 1.405 1_655 S
N932 C929 1.384 . S
N933 C925 1.412 1_455 S
N933 C931 1.384 . S
H934 C940 0.930 . S
H935 C944 0.930 . S
H936 C949 0.929 . S
H937 C947 0.929 . S
H938 C942 0.929 . S
H939 C948 0.929 . S
C940 H934 0.930 . S
C940 C941 1.367 . S
C940 C948 1.378 . S
C941 C940 1.367 . S
C941 C949 1.433 . S
C942 H938 0.929 . S
C942 C944 1.378 . S
C942 C946 1.350 . S
C943 C946 1.463 . S
C943 C948 1.350 . S
C943 N951 1.427 . S
C944 H935 0.930 . S
C944 C942 1.378 . S
C944 C945 1.367 . S
C945 C944 1.367 . S
C945 C947 1.433 . S
C946 C942 1.350 . S
C946 C943 1.463 . S
C946 N950 1.427 . S
C947 H937 0.929 . S
C947 C945 1.433 . S
C947 N950 1.384 . S
C948 H939 0.929 . S
C948 C940 1.378 . S
C948 C943 1.350 . S
C949 H936 0.929 . S
C949 C941 1.433 . S
C949 N951 1.384 . S
N950 C946 1.427 . S
N950 C947 1.384 . S
N951 C943 1.427 . S
N951 C949 1.384 . S
H952 C958 0.930 . S
H953 C962 0.930 . S
H954 C967 0.929 . S
H955 C965 0.929 . S
H956 C960 0.929 . S
H957 C966 0.929 . S
C958 H952 0.930 . S
C958 C959 1.366 . S
C958 C966 1.378 . S
C959 C958 1.366 . S
C959 C967 1.434 1_455 S
C960 H956 0.929 . S
C960 C962 1.378 . S
C960 C964 1.351 . S
C961 C964 1.462 1_455 S
C961 C966 1.349 . S
C961 N969 1.428 1_455 S
C962 H953 0.930 . S
C962 C960 1.378 . S
C962 C963 1.367 . S
C963 C962 1.367 . S
C963 C965 1.433 1_655 S
C964 C960 1.351 . S
C964 C961 1.462 1_655 S
C964 N968 1.426 1_655 S
C965 H955 0.929 . S
C965 C963 1.433 1_455 S
C965 N968 1.384 . S
C966 H957 0.929 . S
C966 C958 1.378 . S
C966 C961 1.349 . S
C967 H954 0.929 . S
C967 C959 1.434 1_655 S
C967 N969 1.384 . S
N968 C964 1.426 1_455 S
N968 C965 1.384 . S
N969 C961 1.428 1_655 S
N969 C967 1.384 . S
H970 C976 0.930 . S
H971 C980 0.930 . S
H972 C985 0.929 . S
H973 C983 0.929 . S
H974 C978 0.929 . S
H975 C984 0.929 . S
C976 H970 0.930 . S
C976 C977 1.367 . S
C976 C984 1.378 . S
C977 C976 1.367 . S
C977 C985 1.433 . S
C978 H974 0.929 . S
C978 C980 1.378 . S
C978 C982 1.350 . S
C979 C982 1.463 . S
C979 C984 1.350 . S
C979 N987 1.427 . S
C980 H971 0.930 . S
C980 C978 1.378 . S
C980 C981 1.367 . S
C981 C980 1.367 . S
C981 C983 1.433 . S
C982 C978 1.350 . S
C982 C979 1.463 . S
C982 N986 1.427 . S
C983 H973 0.929 . S
C983 C981 1.433 . S
C983 N986 1.384 . S
C984 H975 0.929 . S
C984 C976 1.378 . S
C984 C979 1.350 . S
C985 H972 0.929 . S
C985 C977 1.433 . S
C985 N987 1.384 . S
N986 C982 1.427 . S
N986 C983 1.384 . S
N987 C979 1.427 . S
N987 C985 1.384 . S
H988 C994 0.930 . S
H989 C998 0.930 . S
H990 C1003 0.929 . S
H991 C1001 0.929 . S
H992 C996 0.929 . S
H993 C1002 0.929 . S
C994 H988 0.930 . S
C994 C995 1.366 . S
C994 C1002 1.378 . S
C995 C994 1.366 . S
C995 C1003 1.434 1_655 S
C996 H992 0.929 . S
C996 C998 1.378 . S
C996 C1000 1.353 . S
C997 C1000 1.462 1_655 S
C997 C1002 1.351 . S
C997 N1005 1.427 1_655 S
C998 H989 0.930 . S
C998 C996 1.378 . S
C998 C999 1.369 . S
C999 C998 1.369 . S
C999 C1001 1.431 1_455 S
C1000 C996 1.353 . S
C1000 C997 1.462 1_455 S
C1000 N1004 1.424 1_455 S
C1001 H991 0.929 . S
C1001 C999 1.431 1_655 S
C1001 N1004 1.384 . S
C1002 H993 0.929 . S
C1002 C994 1.378 . S
C1002 C997 1.351 . S
C1003 H990 0.929 . S
C1003 C995 1.434 1_455 S
C1003 N1005 1.384 . S
N1004 C1000 1.424 1_655 S
N1004 C1001 1.384 . S
N1005 C997 1.427 1_455 S
N1005 C1003 1.384 . S
H1006 C1012 0.930 . S
H1007 C1016 0.930 . S
H1008 C1021 0.929 . S
H1009 C1019 0.929 . S
H1010 C1014 0.929 . S
H1011 C1020 0.929 . S
C1012 H1006 0.930 . S
C1012 C1013 1.367 . S
C1012 C1020 1.378 . S
C1013 C1012 1.367 . S
C1013 C1021 1.433 . S
C1014 H1010 0.929 . S
C1014 C1016 1.378 . S
C1014 C1018 1.350 . S
C1015 C1018 1.463 . S
C1015 C1020 1.350 . S
C1015 N1023 1.427 . S
C1016 H1007 0.930 . S
C1016 C1014 1.378 . S
C1016 C1017 1.367 . S
C1017 C1016 1.367 . S
C1017 C1019 1.433 . S
C1018 C1014 1.350 . S
C1018 C1015 1.463 . S
C1018 N1022 1.427 . S
C1019 H1009 0.929 . S
C1019 C1017 1.433 . S
C1019 N1022 1.384 . S
C1020 H1011 0.929 . S
C1020 C1012 1.378 . S
C1020 C1015 1.350 . S
C1021 H1008 0.929 . S
C1021 C1013 1.433 . S
C1021 N1023 1.384 . S
N1022 C1018 1.427 . S
N1022 C1019 1.384 . S
N1023 C1015 1.427 . S
N1023 C1021 1.384 . S
H1024 C1030 0.930 . S
H1025 C1034 0.930 . S
H1026 C1039 0.929 . S
H1027 C1037 0.929 . S
H1028 C1032 0.929 . S
H1029 C1038 0.929 . S
C1030 H1024 0.930 . S
C1030 C1031 1.367 . S
C1030 C1038 1.378 . S
C1031 C1030 1.367 . S
C1031 C1039 1.433 . S
C1032 H1028 0.929 . S
C1032 C1034 1.378 . S
C1032 C1036 1.350 . S
C1033 C1036 1.463 . S
C1033 C1038 1.350 . S
C1033 N1041 1.427 . S
C1034 H1025 0.930 . S
C1034 C1032 1.378 . S
C1034 C1035 1.367 . S
C1035 C1034 1.367 . S
C1035 C1037 1.433 . S
C1036 C1032 1.350 . S
C1036 C1033 1.463 . S
C1036 N1040 1.427 . S
C1037 H1027 0.929 . S
C1037 C1035 1.433 . S
C1037 N1040 1.384 . S
C1038 H1029 0.929 . S
C1038 C1030 1.378 . S
C1038 C1033 1.350 . S
C1039 H1026 0.929 . S
C1039 C1031 1.433 . S
C1039 N1041 1.384 . S
N1040 C1036 1.427 . S
N1040 C1037 1.384 . S
N1041 C1033 1.427 . S
N1041 C1039 1.384 . S
H1042 C1048 0.930 . S
H1043 C1052 0.930 . S
H1044 C1057 0.929 . S
H1045 C1055 0.929 . S
H1046 C1050 0.929 . S
H1047 C1056 0.929 . S
C1048 H1042 0.930 . S
C1048 C1049 1.367 . S
C1048 C1056 1.378 . S
C1049 C1048 1.367 . S
C1049 C1057 1.433 . S
C1050 H1046 0.929 . S
C1050 C1052 1.378 . S
C1050 C1054 1.350 . S
C1051 C1054 1.463 . S
C1051 C1056 1.350 . S
C1051 N1059 1.427 . S
C1052 H1043 0.930 . S
C1052 C1050 1.378 . S
C1052 C1053 1.367 . S
C1053 C1052 1.367 . S
C1053 C1055 1.433 . S
C1054 C1050 1.350 . S
C1054 C1051 1.463 . S
C1054 N1058 1.427 . S
C1055 H1045 0.929 . S
C1055 C1053 1.433 . S
C1055 N1058 1.384 . S
C1056 H1047 0.929 . S
C1056 C1048 1.378 . S
C1056 C1051 1.350 . S
C1057 H1044 0.929 . S
C1057 C1049 1.433 . S
C1057 N1059 1.384 . S
N1058 C1054 1.427 . S
N1058 C1055 1.384 . S
N1059 C1051 1.427 . S
N1059 C1057 1.384 . S
H1060 C1066 0.930 . S
H1061 C1070 0.930 . S
H1062 C1075 0.929 . S
H1063 C1073 0.929 . S
H1064 C1068 0.929 . S
H1065 C1074 0.929 . S
C1066 H1060 0.930 . S
C1066 C1067 1.367 . S
C1066 C1074 1.378 . S
C1067 C1066 1.367 . S
C1067 C1075 1.433 . S
C1068 H1064 0.929 . S
C1068 C1070 1.378 . S
C1068 C1072 1.350 . S
C1069 C1072 1.463 . S
C1069 C1074 1.350 . S
C1069 N1077 1.427 . S
C1070 H1061 0.930 . S
C1070 C1068 1.378 . S
C1070 C1071 1.367 . S
C1071 C1070 1.367 . S
C1071 C1073 1.433 . S
C1072 C1068 1.350 . S
C1072 C1069 1.463 . S
C1072 N1076 1.427 . S
C1073 H1063 0.929 . S
C1073 C1071 1.433 . S
C1073 N1076 1.384 . S
C1074 H1065 0.929 . S
C1074 C1066 1.378 . S
C1074 C1069 1.350 . S
C1075 H1062 0.929 . S
C1075 C1067 1.433 . S
C1075 N1077 1.384 . S
N1076 C1072 1.427 . S
N1076 C1073 1.384 . S
N1077 C1069 1.427 . S
N1077 C1075 1.384 . S
H1078 C1084 0.930 . S
H1079 C1088 0.930 . S
H1080 C1093 0.929 . S
H1081 C1091 0.929 . S
H1082 C1086 0.929 . S
H1083 C1092 0.929 . S
C1084 H1078 0.930 . S
C1084 C1085 1.367 . S
C1084 C1092 1.378 . S
C1085 C1084 1.367 . S
C1085 C1093 1.433 . S
C1086 H1082 0.929 . S
C1086 C1088 1.378 . S
C1086 C1090 1.350 . S
C1087 C1090 1.463 . S
C1087 C1092 1.350 . S
C1087 N1095 1.427 . S
C1088 H1079 0.930 . S
C1088 C1086 1.378 . S
C1088 C1089 1.367 . S
C1089 C1088 1.367 . S
C1089 C1091 1.433 . S
C1090 C1086 1.350 . S
C1090 C1087 1.463 . S
C1090 N1094 1.427 . S
C1091 H1081 0.929 . S
C1091 C1089 1.433 . S
C1091 N1094 1.384 . S
C1092 H1083 0.929 . S
C1092 C1084 1.378 . S
C1092 C1087 1.350 . S
C1093 H1080 0.929 . S
C1093 C1085 1.433 . S
C1093 N1095 1.384 . S
N1094 C1090 1.427 . S
N1094 C1091 1.384 . S
N1095 C1087 1.427 . S
N1095 C1093 1.384 . S
H1096 C1102 0.930 . S
H1097 C1106 0.930 . S
H1098 C1111 0.929 . S
H1099 C1109 0.929 . S
H1100 C1104 0.929 . S
H1101 C1110 0.929 . S
C1102 H1096 0.930 . S
C1102 C1103 1.367 . S
C1102 C1110 1.378 . S
C1103 C1102 1.367 . S
C1103 C1111 1.433 . S
C1104 H1100 0.929 . S
C1104 C1106 1.378 . S
C1104 C1108 1.350 . S
C1105 C1108 1.463 . S
C1105 C1110 1.350 . S
C1105 N1113 1.427 . S
C1106 H1097 0.930 . S
C1106 C1104 1.378 . S
C1106 C1107 1.367 . S
C1107 C1106 1.367 . S
C1107 C1109 1.433 . S
C1108 C1104 1.350 . S
C1108 C1105 1.463 . S
C1108 N1112 1.427 . S
C1109 H1099 0.929 . S
C1109 C1107 1.433 . S
C1109 N1112 1.384 . S
C1110 H1101 0.929 . S
C1110 C1102 1.378 . S
C1110 C1105 1.350 . S
C1111 H1098 0.929 . S
C1111 C1103 1.433 . S
C1111 N1113 1.384 . S
N1112 C1108 1.427 . S
N1112 C1109 1.384 . S
N1113 C1105 1.427 . S
N1113 C1111 1.384 . S
H1114 C1120 0.930 . S
H1115 C1124 0.930 . S
H1116 C1129 0.929 . S
H1117 C1127 0.929 . S
H1118 C1122 0.929 . S
H1119 C1128 0.929 . S
C1120 H1114 0.930 . S
C1120 C1121 1.367 . S
C1120 C1128 1.378 . S
C1121 C1120 1.367 . S
C1121 C1129 1.433 . S
C1122 H1118 0.929 . S
C1122 C1124 1.378 . S
C1122 C1126 1.350 . S
C1123 C1126 1.463 . S
C1123 C1128 1.350 . S
C1123 N1131 1.427 . S
C1124 H1115 0.930 . S
C1124 C1122 1.378 . S
C1124 C1125 1.367 . S
C1125 C1124 1.367 . S
C1125 C1127 1.433 . S
C1126 C1122 1.350 . S
C1126 C1123 1.463 . S
C1126 N1130 1.427 . S
C1127 H1117 0.929 . S
C1127 C1125 1.433 . S
C1127 N1130 1.384 . S
C1128 H1119 0.929 . S
C1128 C1120 1.378 . S
C1128 C1123 1.350 . S
C1129 H1116 0.929 . S
C1129 C1121 1.433 . S
C1129 N1131 1.384 . S
N1130 C1126 1.427 . S
N1130 C1127 1.384 . S
N1131 C1123 1.427 . S
N1131 C1129 1.384 . S
H1132 C1138 0.930 . S
H1133 C1142 0.930 . S
H1134 C1147 0.929 . S
H1135 C1145 0.929 . S
H1136 C1140 0.929 . S
H1137 C1146 0.929 . S
C1138 H1132 0.930 . S
C1138 C1139 1.367 . S
C1138 C1146 1.378 . S
C1139 C1138 1.367 . S
C1139 C1147 1.433 . S
C1140 H1136 0.929 . S
C1140 C1142 1.378 . S
C1140 C1144 1.350 . S
C1141 C1144 1.463 . S
C1141 C1146 1.350 . S
C1141 N1149 1.427 . S
C1142 H1133 0.930 . S
C1142 C1140 1.378 . S
C1142 C1143 1.367 . S
C1143 C1142 1.367 . S
C1143 C1145 1.433 . S
C1144 C1140 1.350 . S
C1144 C1141 1.463 . S
C1144 N1148 1.427 . S
C1145 H1135 0.929 . S
C1145 C1143 1.433 . S
C1145 N1148 1.384 . S
C1146 H1137 0.929 . S
C1146 C1138 1.378 . S
C1146 C1141 1.350 . S
C1147 H1134 0.929 . S
C1147 C1139 1.433 . S
C1147 N1149 1.384 . S
N1148 C1144 1.427 . S
N1148 C1145 1.384 . S
N1149 C1141 1.427 . S
N1149 C1147 1.384 . S
H1150 C1156 0.930 . S
H1151 C1160 0.930 . S
H1152 C1165 0.929 . S
H1153 C1163 0.929 . S
H1154 C1158 0.929 . S
H1155 C1164 0.929 . S
C1156 H1150 0.930 . S
C1156 C1157 1.367 . S
C1156 C1164 1.378 . S
C1157 C1156 1.367 . S
C1157 C1165 1.433 . S
C1158 H1154 0.929 . S
C1158 C1160 1.378 . S
C1158 C1162 1.350 . S
C1159 C1162 1.463 . S
C1159 C1164 1.350 . S
C1159 N1167 1.427 . S
C1160 H1151 0.930 . S
C1160 C1158 1.378 . S
C1160 C1161 1.367 . S
C1161 C1160 1.367 . S
C1161 C1163 1.433 . S
C1162 C1158 1.350 . S
C1162 C1159 1.463 . S
C1162 N1166 1.427 . S
C1163 H1153 0.929 . S
C1163 C1161 1.433 . S
C1163 N1166 1.384 . S
C1164 H1155 0.929 . S
C1164 C1156 1.378 . S
C1164 C1159 1.350 . S
C1165 H1152 0.929 . S
C1165 C1157 1.433 . S
C1165 N1167 1.384 . S
N1166 C1162 1.427 . S
N1166 C1163 1.384 . S
N1167 C1159 1.427 . S
N1167 C1165 1.384 . S
H1168 C1174 0.930 . S
H1169 C1178 0.930 . S
H1170 C1183 0.929 . S
H1171 C1181 0.929 . S
H1172 C1176 0.929 . S
H1173 C1182 0.929 . S
C1174 H1168 0.930 . S
C1174 C1175 1.367 . S
C1174 C1182 1.378 . S
C1175 C1174 1.367 . S
C1175 C1183 1.433 . S
C1176 H1172 0.929 . S
C1176 C1178 1.378 . S
C1176 C1180 1.350 . S
C1177 C1180 1.463 . S
C1177 C1182 1.350 . S
C1177 N1185 1.427 . S
C1178 H1169 0.930 . S
C1178 C1176 1.378 . S
C1178 C1179 1.367 . S
C1179 C1178 1.367 . S
C1179 C1181 1.433 . S
C1180 C1176 1.350 . S
C1180 C1177 1.463 . S
C1180 N1184 1.427 . S
C1181 H1171 0.929 . S
C1181 C1179 1.433 . S
C1181 N1184 1.384 . S
C1182 H1173 0.929 . S
C1182 C1174 1.378 . S
C1182 C1177 1.350 . S
C1183 H1170 0.929 . S
C1183 C1175 1.433 . S
C1183 N1185 1.384 . S
N1184 C1180 1.427 . S
N1184 C1181 1.384 . S
N1185 C1177 1.427 . S
N1185 C1183 1.384 . S
H1186 C1192 0.930 . S
H1187 C1196 0.930 . S
H1188 C1201 0.929 . S
H1189 C1199 0.929 . S
H1190 C1194 0.929 . S
H1191 C1200 0.929 . S
C1192 H1186 0.930 . S
C1192 C1193 1.367 . S
C1192 C1200 1.378 . S
C1193 C1192 1.367 . S
C1193 C1201 1.433 . S
C1194 H1190 0.929 . S
C1194 C1196 1.378 . S
C1194 C1198 1.350 . S
C1195 C1198 1.463 . S
C1195 C1200 1.350 . S
C1195 N1203 1.427 . S
C1196 H1187 0.930 . S
C1196 C1194 1.378 . S
C1196 C1197 1.367 . S
C1197 C1196 1.367 . S
C1197 C1199 1.433 . S
C1198 C1194 1.350 . S
C1198 C1195 1.463 . S
C1198 N1202 1.427 . S
C1199 H1189 0.929 . S
C1199 C1197 1.433 . S
C1199 N1202 1.384 . S
C1200 H1191 0.929 . S
C1200 C1192 1.378 . S
C1200 C1195 1.350 . S
C1201 H1188 0.929 . S
C1201 C1193 1.433 . S
C1201 N1203 1.384 . S
N1202 C1198 1.427 . S
N1202 C1199 1.384 . S
N1203 C1195 1.427 . S
N1203 C1201 1.384 . S
H1204 C1210 0.930 . S
H1205 C1214 0.930 . S
H1206 C1219 0.929 . S
H1207 C1217 0.929 . S
H1208 C1212 0.929 . S
H1209 C1218 0.929 . S
C1210 H1204 0.930 . S
C1210 C1211 1.367 . S
C1210 C1218 1.378 . S
C1211 C1210 1.367 . S
C1211 C1219 1.433 . S
C1212 H1208 0.929 . S
C1212 C1214 1.378 . S
C1212 C1216 1.350 . S
C1213 C1216 1.463 . S
C1213 C1218 1.350 . S
C1213 N1221 1.427 . S
C1214 H1205 0.930 . S
C1214 C1212 1.378 . S
C1214 C1215 1.367 . S
C1215 C1214 1.367 . S
C1215 C1217 1.433 . S
C1216 C1212 1.350 . S
C1216 C1213 1.463 . S
C1216 N1220 1.427 . S
C1217 H1207 0.929 . S
C1217 C1215 1.433 . S
C1217 N1220 1.384 . S
C1218 H1209 0.929 . S
C1218 C1210 1.378 . S
C1218 C1213 1.350 . S
C1219 H1206 0.929 . S
C1219 C1211 1.433 . S
C1219 N1221 1.384 . S
N1220 C1216 1.427 . S
N1220 C1217 1.384 . S
N1221 C1213 1.427 . S
N1221 C1219 1.384 . S
H1222 C1228 0.930 . S
H1223 C1232 0.930 . S
H1224 C1237 0.929 . S
H1225 C1235 0.929 . S
H1226 C1230 0.929 . S
H1227 C1236 0.929 . S
C1228 H1222 0.930 . S
C1228 C1229 1.367 . S
C1228 C1236 1.378 . S
C1229 C1228 1.367 . S
C1229 C1237 1.433 . S
C1230 H1226 0.929 . S
C1230 C1232 1.378 . S
C1230 C1234 1.350 . S
C1231 C1234 1.463 . S
C1231 C1236 1.350 . S
C1231 N1239 1.427 . S
C1232 H1223 0.930 . S
C1232 C1230 1.378 . S
C1232 C1233 1.367 . S
C1233 C1232 1.367 . S
C1233 C1235 1.433 . S
C1234 C1230 1.350 . S
C1234 C1231 1.463 . S
C1234 N1238 1.427 . S
C1235 H1225 0.929 . S
C1235 C1233 1.433 . S
C1235 N1238 1.384 . S
C1236 H1227 0.929 . S
C1236 C1228 1.378 . S
C1236 C1231 1.350 . S
C1237 H1224 0.929 . S
C1237 C1229 1.433 . S
C1237 N1239 1.384 . S
N1238 C1234 1.427 . S
N1238 C1235 1.384 . S
N1239 C1231 1.427 . S
N1239 C1237 1.384 . S
H1240 C1246 0.930 . S
H1241 C1250 0.930 . S
H1242 C1255 0.929 . S
H1243 C1253 0.929 . S
H1244 C1248 0.929 . S
H1245 C1254 0.929 . S
C1246 H1240 0.930 . S
C1246 C1247 1.367 . S
C1246 C1254 1.378 . S
C1247 C1246 1.367 . S
C1247 C1255 1.433 . S
C1248 H1244 0.929 . S
C1248 C1250 1.378 . S
C1248 C1252 1.350 . S
C1249 C1252 1.463 . S
C1249 C1254 1.350 . S
C1249 N1257 1.427 . S
C1250 H1241 0.930 . S
C1250 C1248 1.378 . S
C1250 C1251 1.367 . S
C1251 C1250 1.367 . S
C1251 C1253 1.433 . S
C1252 C1248 1.350 . S
C1252 C1249 1.463 . S
C1252 N1256 1.427 . S
C1253 H1243 0.929 . S
C1253 C1251 1.433 . S
C1253 N1256 1.384 . S
C1254 H1245 0.929 . S
C1254 C1246 1.378 . S
C1254 C1249 1.350 . S
C1255 H1242 0.929 . S
C1255 C1247 1.433 . S
C1255 N1257 1.384 . S
N1256 C1252 1.427 . S
N1256 C1253 1.384 . S
N1257 C1249 1.427 . S
N1257 C1255 1.384 . S
H1258 C1264 0.930 . S
H1259 C1268 0.930 . S
H1260 C1273 0.929 . S
H1261 C1271 0.929 . S
H1262 C1266 0.929 . S
H1263 C1272 0.929 . S
C1264 H1258 0.930 . S
C1264 C1265 1.367 . S
C1264 C1272 1.378 . S
C1265 C1264 1.367 . S
C1265 C1273 1.433 . S
C1266 H1262 0.929 . S
C1266 C1268 1.378 . S
C1266 C1270 1.350 . S
C1267 C1270 1.463 . S
C1267 C1272 1.350 . S
C1267 N1275 1.427 . S
C1268 H1259 0.930 . S
C1268 C1266 1.378 . S
C1268 C1269 1.367 . S
C1269 C1268 1.367 . S
C1269 C1271 1.433 . S
C1270 C1266 1.350 . S
C1270 C1267 1.463 . S
C1270 N1274 1.427 . S
C1271 H1261 0.929 . S
C1271 C1269 1.433 . S
C1271 N1274 1.384 . S
C1272 H1263 0.929 . S
C1272 C1264 1.378 . S
C1272 C1267 1.350 . S
C1273 H1260 0.929 . S
C1273 C1265 1.433 . S
C1273 N1275 1.384 . S
N1274 C1270 1.427 . S
N1274 C1271 1.384 . S
N1275 C1267 1.427 . S
N1275 C1273 1.384 . S
H1276 C1282 0.930 . S
H1277 C1286 0.930 . S
H1278 C1291 0.929 . S
H1279 C1289 0.929 . S
H1280 C1284 0.929 . S
H1281 C1290 0.929 . S
C1282 H1276 0.930 . S
C1282 C1283 1.367 . S
C1282 C1290 1.378 . S
C1283 C1282 1.367 . S
C1283 C1291 1.433 . S
C1284 H1280 0.929 . S
C1284 C1286 1.378 . S
C1284 C1288 1.350 . S
C1285 C1288 1.463 . S
C1285 C1290 1.350 . S
C1285 N1293 1.427 . S
C1286 H1277 0.930 . S
C1286 C1284 1.378 . S
C1286 C1287 1.367 . S
C1287 C1286 1.367 . S
C1287 C1289 1.433 . S
C1288 C1284 1.350 . S
C1288 C1285 1.463 . S
C1288 N1292 1.427 . S
C1289 H1279 0.929 . S
C1289 C1287 1.433 . S
C1289 N1292 1.384 . S
C1290 H1281 0.929 . S
C1290 C1282 1.378 . S
C1290 C1285 1.350 . S
C1291 H1278 0.929 . S
C1291 C1283 1.433 . S
C1291 N1293 1.384 . S
N1292 C1288 1.427 . S
N1292 C1289 1.384 . S
N1293 C1285 1.427 . S
N1293 C1291 1.384 . S
H1294 C1300 0.930 . S
H1295 C1304 0.930 . S
H1296 C1309 0.929 . S
H1297 C1307 0.929 . S
H1298 C1302 0.929 . S
H1299 C1308 0.929 . S
C1300 H1294 0.930 . S
C1300 C1301 1.367 . S
C1300 C1308 1.378 . S
C1301 C1300 1.367 . S
C1301 C1309 1.433 . S
C1302 H1298 0.929 . S
C1302 C1304 1.378 . S
C1302 C1306 1.350 . S
C1303 C1306 1.463 . S
C1303 C1308 1.350 . S
C1303 N1311 1.427 . S
C1304 H1295 0.930 . S
C1304 C1302 1.378 . S
C1304 C1305 1.367 . S
C1305 C1304 1.367 . S
C1305 C1307 1.433 . S
C1306 C1302 1.350 . S
C1306 C1303 1.463 . S
C1306 N1310 1.427 . S
C1307 H1297 0.929 . S
C1307 C1305 1.433 . S
C1307 N1310 1.384 . S
C1308 H1299 0.929 . S
C1308 C1300 1.378 . S
C1308 C1303 1.350 . S
C1309 H1296 0.929 . S
C1309 C1301 1.433 . S
C1309 N1311 1.384 . S
N1310 C1306 1.427 . S
N1310 C1307 1.384 . S
N1311 C1303 1.427 . S
N1311 C1309 1.384 . S
H1312 C1318 0.930 . S
H1313 C1322 0.930 . S
H1314 C1327 0.929 . S
H1315 C1325 0.929 . S
H1316 C1320 0.929 . S
H1317 C1326 0.929 . S
C1318 H1312 0.930 . S
C1318 C1319 1.367 . S
C1318 C1326 1.378 . S
C1319 C1318 1.367 . S
C1319 C1327 1.433 1_565 S
C1320 H1316 0.929 . S
C1320 C1322 1.378 . S
C1320 C1324 1.350 . S
C1321 C1324 1.463 1_564 S
C1321 C1326 1.350 . S
C1321 N1329 1.427 1_565 S
C1322 H1313 0.930 . S
C1322 C1320 1.378 . S
C1322 C1323 1.367 . S
C1323 C1322 1.367 . S
C1323 C1325 1.433 1_545 S
C1324 C1320 1.350 . S
C1324 C1321 1.463 1_546 S
C1324 N1328 1.427 1_545 S
C1325 H1315 0.929 . S
C1325 C1323 1.433 1_565 S
C1325 N1328 1.384 . S
C1326 H1317 0.929 . S
C1326 C1318 1.378 . S
C1326 C1321 1.350 . S
C1327 H1314 0.929 . S
C1327 C1319 1.433 1_545 S
C1327 N1329 1.384 . S
N1328 C1324 1.427 1_565 S
N1328 C1325 1.384 . S
N1329 C1321 1.427 1_545 S
N1329 C1327 1.384 . S
H1330 C1336 0.930 . S
H1331 C1340 0.930 . S
H1332 C1345 0.929 . S
H1333 C1343 0.929 . S
H1334 C1338 0.929 . S
H1335 C1344 0.929 . S
C1336 H1330 0.930 . S
C1336 C1337 1.367 . S
C1336 C1344 1.378 . S
C1337 C1336 1.367 . S
C1337 C1345 1.433 . S
C1338 H1334 0.929 . S
C1338 C1340 1.378 . S
C1338 C1342 1.350 . S
C1339 C1342 1.463 1_554 S
C1339 C1344 1.350 . S
C1339 N1347 1.427 . S
C1340 H1331 0.930 . S
C1340 C1338 1.378 . S
C1340 C1341 1.367 . S
C1341 C1340 1.367 . S
C1341 C1343 1.433 . S
C1342 C1338 1.350 . S
C1342 C1339 1.463 1_556 S
C1342 N1346 1.427 . S
C1343 H1333 0.929 . S
C1343 C1341 1.433 . S
C1343 N1346 1.384 . S
C1344 H1335 0.929 . S
C1344 C1336 1.378 . S
C1344 C1339 1.350 . S
C1345 H1332 0.929 . S
C1345 C1337 1.433 . S
C1345 N1347 1.384 . S
N1346 C1342 1.427 . S
N1346 C1343 1.384 . S
N1347 C1339 1.427 . S
N1347 C1345 1.384 . S
H1348 C1354 0.930 . S
H1349 C1358 0.930 . S
H1350 C1363 0.929 . S
H1351 C1361 0.929 . S
H1352 C1356 0.929 . S
H1353 C1362 0.929 . S
C1354 H1348 0.930 . S
C1354 C1355 1.367 . S
C1354 C1362 1.378 . S
C1355 C1354 1.367 . S
C1355 C1363 1.433 . S
C1356 H1352 0.929 . S
C1356 C1358 1.378 . S
C1356 C1360 1.350 . S
C1357 C1360 1.463 . S
C1357 C1362 1.350 . S
C1357 N1365 1.427 . S
C1358 H1349 0.930 . S
C1358 C1356 1.378 . S
C1358 C1359 1.367 . S
C1359 C1358 1.367 . S
C1359 C1361 1.433 . S
C1360 C1356 1.350 . S
C1360 C1357 1.463 . S
C1360 N1364 1.427 . S
C1361 H1351 0.929 . S
C1361 C1359 1.433 . S
C1361 N1364 1.384 . S
C1362 H1353 0.929 . S
C1362 C1354 1.378 . S
C1362 C1357 1.350 . S
C1363 H1350 0.929 . S
C1363 C1355 1.433 . S
C1363 N1365 1.384 . S
N1364 C1360 1.427 . S
N1364 C1361 1.384 . S
N1365 C1357 1.427 . S
N1365 C1363 1.384 . S
H1366 C1372 0.930 . S
H1367 C1376 0.930 . S
H1368 C1381 0.929 . S
H1369 C1379 0.929 . S
H1370 C1374 0.929 . S
H1371 C1380 0.929 . S
C1372 H1366 0.930 . S
C1372 C1373 1.373 . S
C1372 C1380 1.378 . S
C1373 C1372 1.373 . S
C1373 C1381 1.427 1_545 S
C1374 H1370 0.929 . S
C1374 C1376 1.378 . S
C1374 C1378 1.357 . S
C1375 C1378 1.462 1_545 S
C1375 C1380 1.350 . S
C1375 N1383 1.427 1_545 S
C1376 H1367 0.930 . S
C1376 C1374 1.378 . S
C1376 C1377 1.356 1_565 S
C1377 C1376 1.356 1_545 S
C1377 C1379 1.444 . S
C1378 C1374 1.357 . S
C1378 C1375 1.462 1_565 S
C1378 N1382 1.420 1_565 S
C1379 H1369 0.929 . S
C1379 C1377 1.444 . S
C1379 N1382 1.384 . S
C1380 H1371 0.929 . S
C1380 C1372 1.378 . S
C1380 C1375 1.350 . S
C1381 H1368 0.929 . S
C1381 C1373 1.427 1_565 S
C1381 N1383 1.384 . S
N1382 C1378 1.420 1_545 S
N1382 C1379 1.384 . S
N1383 C1375 1.427 1_565 S
N1383 C1381 1.384 . S
H1384 C1390 0.930 . S
H1385 C1394 0.930 . S
H1386 C1399 0.929 . S
H1387 C1397 0.929 . S
H1388 C1392 0.929 . S
H1389 C1398 0.929 . S
C1390 H1384 0.930 . S
C1390 C1391 1.367 . S
C1390 C1398 1.378 . S
C1391 C1390 1.367 . S
C1391 C1399 1.433 . S
C1392 H1388 0.929 . S
C1392 C1394 1.378 . S
C1392 C1396 1.350 . S
C1393 C1396 1.463 1_556 S
C1393 C1398 1.350 . S
C1393 N1401 1.427 . S
C1394 H1385 0.930 . S
C1394 C1392 1.378 . S
C1394 C1395 1.367 . S
C1395 C1394 1.367 . S
C1395 C1397 1.433 . S
C1396 C1392 1.350 . S
C1396 C1393 1.463 1_554 S
C1396 N1400 1.427 . S
C1397 H1387 0.929 . S
C1397 C1395 1.433 . S
C1397 N1400 1.384 . S
C1398 H1389 0.929 . S
C1398 C1390 1.378 . S
C1398 C1393 1.350 . S
C1399 H1386 0.929 . S
C1399 C1391 1.433 . S
C1399 N1401 1.384 . S
N1400 C1396 1.427 . S
N1400 C1397 1.384 . S
N1401 C1393 1.427 . S
N1401 C1399 1.384 . S
H1402 C1408 0.930 . S
H1403 C1412 0.930 . S
H1404 C1417 0.929 . S
H1405 C1415 0.929 . S
H1406 C1410 0.929 . S
H1407 C1416 0.929 . S
C1408 H1402 0.930 . S
C1408 C1409 1.367 . S
C1408 C1416 1.378 . S
C1409 C1408 1.367 . S
C1409 C1417 1.433 . S
C1410 H1406 0.929 . S
C1410 C1412 1.378 . S
C1410 C1414 1.350 . S
C1411 C1414 1.463 . S
C1411 C1416 1.350 . S
C1411 N1419 1.427 . S
C1412 H1403 0.930 . S
C1412 C1410 1.378 . S
C1412 C1413 1.367 . S
C1413 C1412 1.367 . S
C1413 C1415 1.433 . S
C1414 C1410 1.350 . S
C1414 C1411 1.463 . S
C1414 N1418 1.427 . S
C1415 H1405 0.929 . S
C1415 C1413 1.433 . S
C1415 N1418 1.384 . S
C1416 H1407 0.929 . S
C1416 C1408 1.378 . S
C1416 C1411 1.350 . S
C1417 H1404 0.929 . S
C1417 C1409 1.433 . S
C1417 N1419 1.384 . S
N1418 C1414 1.427 . S
N1418 C1415 1.384 . S
N1419 C1411 1.427 . S
N1419 C1417 1.384 . S
H1420 C1426 0.930 . S
H1421 C1430 0.930 . S
H1422 C1435 0.929 . S
H1423 C1433 0.929 . S
H1424 C1428 0.929 . S
H1425 C1434 0.929 . S
C1426 H1420 0.930 . S
C1426 C1427 1.367 . S
C1426 C1434 1.378 . S
C1427 C1426 1.367 . S
C1427 C1435 1.433 1_565 S
C1428 H1424 0.929 . S
C1428 C1430 1.378 . S
C1428 C1432 1.361 . S
C1429 C1432 1.462 1_565 S
C1429 C1434 1.350 . S
C1429 N1437 1.427 1_565 S
C1430 H1421 0.930 . S
C1430 C1428 1.378 . S
C1430 C1431 1.385 . S
C1431 C1430 1.385 . S
C1431 C1433 1.415 1_545 S
C1432 C1428 1.361 . S
C1432 C1429 1.462 1_545 S
C1432 N1436 1.416 1_545 S
C1433 H1423 0.929 . S
C1433 C1431 1.415 1_565 S
C1433 N1436 1.384 . S
C1434 H1425 0.929 . S
C1434 C1426 1.378 . S
C1434 C1429 1.350 . S
C1435 H1422 0.929 . S
C1435 C1427 1.433 1_545 S
C1435 N1437 1.384 . S
N1436 C1432 1.416 1_565 S
N1436 C1433 1.384 . S
N1437 C1429 1.427 1_545 S
N1437 C1435 1.384 . S
H1438 C1444 0.930 . S
H1439 C1448 0.930 . S
H1440 C1453 0.929 . S
H1441 C1451 0.929 . S
H1442 C1446 0.929 . S
H1443 C1452 0.929 . S
C1444 H1438 0.930 . S
C1444 C1445 1.367 . S
C1444 C1452 1.378 . S
C1445 C1444 1.367 . S
C1445 C1453 1.433 . S
C1446 H1442 0.929 . S
C1446 C1448 1.378 . S
C1446 C1450 1.350 . S
C1447 C1450 1.463 . S
C1447 C1452 1.350 . S
C1447 N1455 1.427 . S
C1448 H1439 0.930 . S
C1448 C1446 1.378 . S
C1448 C1449 1.367 . S
C1449 C1448 1.367 . S
C1449 C1451 1.433 . S
C1450 C1446 1.350 . S
C1450 C1447 1.463 . S
C1450 N1454 1.427 . S
C1451 H1441 0.929 . S
C1451 C1449 1.433 . S
C1451 N1454 1.384 . S
C1452 H1443 0.929 . S
C1452 C1444 1.378 . S
C1452 C1447 1.350 . S
C1453 H1440 0.929 . S
C1453 C1445 1.433 . S
C1453 N1455 1.384 . S
N1454 C1450 1.427 . S
N1454 C1451 1.384 . S
N1455 C1447 1.427 . S
N1455 C1453 1.384 . S
H1456 C1462 0.930 . S
H1457 C1466 0.930 . S
H1458 C1471 0.929 . S
H1459 C1469 0.929 . S
H1460 C1464 0.929 . S
H1461 C1470 0.929 . S
C1462 H1456 0.930 . S
C1462 C1463 1.367 . S
C1462 C1470 1.378 . S
C1463 C1462 1.367 . S
C1463 C1471 1.433 . S
C1464 H1460 0.929 . S
C1464 C1466 1.378 . S
C1464 C1468 1.350 . S
C1465 C1468 1.463 . S
C1465 C1470 1.350 . S
C1465 N1473 1.427 . S
C1466 H1457 0.930 . S
C1466 C1464 1.378 . S
C1466 C1467 1.367 . S
C1467 C1466 1.367 . S
C1467 C1469 1.433 . S
C1468 C1464 1.350 . S
C1468 C1465 1.463 . S
C1468 N1472 1.427 . S
C1469 H1459 0.929 . S
C1469 C1467 1.433 . S
C1469 N1472 1.384 . S
C1470 H1461 0.929 . S
C1470 C1462 1.378 . S
C1470 C1465 1.350 . S
C1471 H1458 0.929 . S
C1471 C1463 1.433 . S
C1471 N1473 1.384 . S
N1472 C1468 1.427 . S
N1472 C1469 1.384 . S
N1473 C1465 1.427 . S
N1473 C1471 1.384 . S
H1474 C1480 0.930 . S
H1475 C1484 0.930 . S
H1476 C1489 0.929 . S
H1477 C1487 0.929 . S
H1478 C1482 0.929 . S
H1479 C1488 0.929 . S
C1480 H1474 0.930 . S
C1480 C1481 1.367 . S
C1480 C1488 1.378 . S
C1481 C1480 1.367 . S
C1481 C1489 1.433 . S
C1482 H1478 0.929 . S
C1482 C1484 1.378 . S
C1482 C1486 1.350 . S
C1483 C1486 1.463 . S
C1483 C1488 1.350 . S
C1483 N1491 1.427 . S
C1484 H1475 0.930 . S
C1484 C1482 1.378 . S
C1484 C1485 1.367 . S
C1485 C1484 1.367 . S
C1485 C1487 1.433 . S
C1486 C1482 1.350 . S
C1486 C1483 1.463 . S
C1486 N1490 1.427 . S
C1487 H1477 0.929 . S
C1487 C1485 1.433 . S
C1487 N1490 1.384 . S
C1488 H1479 0.929 . S
C1488 C1480 1.378 . S
C1488 C1483 1.350 . S
C1489 H1476 0.929 . S
C1489 C1481 1.433 . S
C1489 N1491 1.384 . S
N1490 C1486 1.427 . S
N1490 C1487 1.384 . S
N1491 C1483 1.427 . S
N1491 C1489 1.384 . S
H1492 C1498 0.930 . S
H1493 C1502 0.930 . S
H1494 C1507 0.929 . S
H1495 C1505 0.929 . S
H1496 C1500 0.929 . S
H1497 C1506 0.929 . S
C1498 H1492 0.930 . S
C1498 C1499 1.367 . S
C1498 C1506 1.378 . S
C1499 C1498 1.367 . S
C1499 C1507 1.433 . S
C1500 H1496 0.929 . S
C1500 C1502 1.378 . S
C1500 C1504 1.350 . S
C1501 C1504 1.463 . S
C1501 C1506 1.350 . S
C1501 N1509 1.427 . S
C1502 H1493 0.930 . S
C1502 C1500 1.378 . S
C1502 C1503 1.367 . S
C1503 C1502 1.367 . S
C1503 C1505 1.433 . S
C1504 C1500 1.350 . S
C1504 C1501 1.463 . S
C1504 N1508 1.427 . S
C1505 H1495 0.929 . S
C1505 C1503 1.433 . S
C1505 N1508 1.384 . S
C1506 H1497 0.929 . S
C1506 C1498 1.378 . S
C1506 C1501 1.350 . S
C1507 H1494 0.929 . S
C1507 C1499 1.433 . S
C1507 N1509 1.384 . S
N1508 C1504 1.427 . S
N1508 C1505 1.384 . S
N1509 C1501 1.427 . S
N1509 C1507 1.384 . S
H1510 C1516 0.930 . S
H1511 C1520 0.930 . S
H1512 C1525 0.929 . S
H1513 C1523 0.929 . S
H1514 C1518 0.929 . S
H1515 C1524 0.929 . S
C1516 H1510 0.930 . S
C1516 C1517 1.367 . S
C1516 C1524 1.378 . S
C1517 C1516 1.367 . S
C1517 C1525 1.433 . S
C1518 H1514 0.929 . S
C1518 C1520 1.378 . S
C1518 C1522 1.350 . S
C1519 C1522 1.463 . S
C1519 C1524 1.350 . S
C1519 N1527 1.427 . S
C1520 H1511 0.930 . S
C1520 C1518 1.378 . S
C1520 C1521 1.367 . S
C1521 C1520 1.367 . S
C1521 C1523 1.433 . S
C1522 C1518 1.350 . S
C1522 C1519 1.463 . S
C1522 N1526 1.427 . S
C1523 H1513 0.929 . S
C1523 C1521 1.433 . S
C1523 N1526 1.384 . S
C1524 H1515 0.929 . S
C1524 C1516 1.378 . S
C1524 C1519 1.350 . S
C1525 H1512 0.929 . S
C1525 C1517 1.433 . S
C1525 N1527 1.384 . S
N1526 C1522 1.427 . S
N1526 C1523 1.384 . S
N1527 C1519 1.427 . S
N1527 C1525 1.384 . S
H1528 C1534 0.930 . S
H1529 C1538 0.930 . S
H1530 C1543 0.929 . S
H1531 C1541 0.929 . S
H1532 C1536 0.929 . S
H1533 C1542 0.929 . S
C1534 H1528 0.930 . S
C1534 C1535 1.368 1_655 S
C1534 C1542 1.378 . S
C1535 C1534 1.368 1_455 S
C1535 C1543 1.432 1_545 S
C1536 H1532 0.929 . S
C1536 C1538 1.378 . S
C1536 C1540 1.354 1_455 S
C1537 C1540 1.462 1_445 S
C1537 C1542 1.344 1_455 S
C1537 N1545 1.434 1_545 S
C1538 H1529 0.930 . S
C1538 C1536 1.378 . S
C1538 C1539 1.368 1_455 S
C1539 C1538 1.368 1_655 S
C1539 C1541 1.432 1_565 S
C1540 C1536 1.354 1_655 S
C1540 C1537 1.462 1_665 S
C1540 N1544 1.424 1_565 S
C1541 H1531 0.929 . S
C1541 C1539 1.432 1_545 S
C1541 N1544 1.384 . S
C1542 H1533 0.929 . S
C1542 C1534 1.378 . S
C1542 C1537 1.344 1_655 S
C1543 H1530 0.929 . S
C1543 C1535 1.432 1_565 S
C1543 N1545 1.384 . S
N1544 C1540 1.424 1_545 S
N1544 C1541 1.384 . S
N1545 C1537 1.434 1_565 S
N1545 C1543 1.384 . S
H1546 C1552 0.930 . S
H1547 C1556 0.930 . S
H1548 C1561 0.929 . S
H1549 C1559 0.928 1_655 S
H1550 C1554 0.929 . S
H1551 C1560 0.929 . S
C1552 H1546 0.930 . S
C1552 C1553 1.367 . S
C1552 C1560 1.378 . S
C1553 C1552 1.367 . S
C1553 C1561 1.433 . S
C1554 H1550 0.929 . S
C1554 C1556 1.378 . S
C1554 C1558 1.356 . S
C1555 C1558 1.459 1_655 S
C1555 C1560 1.358 . S
C1555 N1563 1.425 1_655 S
C1556 H1547 0.930 . S
C1556 C1554 1.378 . S
C1556 C1557 1.367 . S
C1557 C1556 1.367 . S
C1557 C1559 1.440 . S
C1558 C1554 1.356 . S
C1558 C1555 1.459 1_455 S
C1558 N1562 1.425 1_455 S
C1559 H1549 0.928 1_455 S
C1559 C1557 1.440 . S
C1559 N1562 1.381 1_455 S
C1560 H1551 0.929 . S
C1560 C1552 1.378 . S
C1560 C1555 1.358 . S
C1561 H1548 0.929 . S
C1561 C1553 1.433 . S
C1561 N1563 1.382 1_655 S
N1562 C1558 1.425 1_655 S
N1562 C1559 1.381 1_655 S
N1563 C1555 1.425 1_455 S
N1563 C1561 1.382 1_455 S
H1564 C1570 0.930 . S
H1565 C1574 0.930 . S
H1566 C1579 0.929 . S
H1567 C1577 0.929 . S
H1568 C1572 0.929 . S
H1569 C1578 0.929 . S
C1570 H1564 0.930 . S
C1570 C1571 1.367 1_455 S
C1570 C1578 1.378 . S
C1571 C1570 1.367 1_655 S
C1571 C1579 1.433 . S
C1572 H1568 0.929 . S
C1572 C1574 1.378 . S
C1572 C1576 1.350 1_655 S
C1573 C1576 1.462 1_655 S
C1573 C1578 1.340 1_655 S
C1573 N1581 1.438 . S
C1574 H1565 0.930 . S
C1574 C1572 1.378 . S
C1574 C1575 1.367 1_655 S
C1575 C1574 1.367 1_455 S
C1575 C1577 1.433 . S
C1576 C1572 1.350 1_455 S
C1576 C1573 1.462 1_455 S
C1576 N1580 1.428 . S
C1577 H1567 0.929 . S
C1577 C1575 1.433 . S
C1577 N1580 1.384 . S
C1578 H1569 0.929 . S
C1578 C1570 1.378 . S
C1578 C1573 1.340 1_455 S
C1579 H1566 0.929 . S
C1579 C1571 1.433 . S
C1579 N1581 1.384 . S
N1580 C1576 1.428 . S
N1580 C1577 1.384 . S
N1581 C1573 1.438 . S
N1581 C1579 1.384 . S
H1582 C1588 0.930 . S
H1583 C1592 0.930 . S
H1584 C1597 0.931 . S
H1585 C1595 0.933 . S
H1586 C1590 0.929 . S
H1587 C1596 0.929 . S
C1588 H1582 0.930 . S
C1588 C1589 1.367 . S
C1588 C1596 1.378 . S
C1589 C1588 1.367 . S
C1589 C1597 1.431 1_455 S
C1590 H1586 0.929 . S
C1590 C1592 1.378 . S
C1590 C1594 1.359 . S
C1591 C1594 1.460 1_456 S
C1591 C1596 1.350 . S
C1591 N1599 1.427 1_455 S
C1592 H1583 0.930 . S
C1592 C1590 1.378 . S
C1592 C1593 1.367 . S
C1593 C1592 1.367 . S
C1593 C1595 1.428 1_655 S
C1594 C1590 1.359 . S
C1594 C1591 1.460 1_654 S
C1594 N1598 1.422 1_655 S
C1595 H1585 0.933 . S
C1595 C1593 1.428 1_455 S
C1595 N1598 1.386 . S
C1596 H1587 0.929 . S
C1596 C1588 1.378 . S
C1596 C1591 1.350 . S
C1597 H1584 0.931 . S
C1597 C1589 1.431 1_655 S
C1597 N1599 1.385 . S
N1598 C1594 1.422 1_455 S
N1598 C1595 1.386 . S
N1599 C1591 1.427 1_655 S
N1599 C1597 1.385 . S
H1600 C1606 0.930 . S
H1601 C1610 0.930 . S
H1602 C1615 0.929 . S
H1603 C1613 0.929 . S
H1604 C1608 0.929 . S
H1605 C1614 0.929 . S
C1606 H1600 0.930 . S
C1606 C1607 1.367 . S
C1606 C1614 1.378 . S
C1607 C1606 1.367 . S
C1607 C1615 1.433 . S
C1608 H1604 0.929 . S
C1608 C1610 1.378 . S
C1608 C1612 1.350 . S
C1609 C1612 1.463 . S
C1609 C1614 1.350 . S
C1609 N1617 1.427 . S
C1610 H1601 0.930 . S
C1610 C1608 1.378 . S
C1610 C1611 1.367 . S
C1611 C1610 1.367 . S
C1611 C1613 1.433 . S
C1612 C1608 1.350 . S
C1612 C1609 1.463 . S
C1612 N1616 1.427 . S
C1613 H1603 0.929 . S
C1613 C1611 1.433 . S
C1613 N1616 1.384 . S
C1614 H1605 0.929 . S
C1614 C1606 1.378 . S
C1614 C1609 1.350 . S
C1615 H1602 0.929 . S
C1615 C1607 1.433 . S
C1615 N1617 1.384 . S
N1616 C1612 1.427 . S
N1616 C1613 1.384 . S
N1617 C1609 1.427 . S
N1617 C1615 1.384 . S
H1618 C1624 0.930 . S
H1619 C1628 0.930 . S
H1620 C1633 0.929 . S
H1621 C1631 0.929 . S
H1622 C1626 0.929 . S
H1623 C1632 0.929 . S
C1624 H1618 0.930 . S
C1624 C1625 1.367 . S
C1624 C1632 1.378 . S
C1625 C1624 1.367 . S
C1625 C1633 1.433 . S
C1626 H1622 0.929 . S
C1626 C1628 1.378 . S
C1626 C1630 1.350 . S
C1627 C1630 1.463 . S
C1627 C1632 1.350 . S
C1627 N1635 1.427 . S
C1628 H1619 0.930 . S
C1628 C1626 1.378 . S
C1628 C1629 1.367 . S
C1629 C1628 1.367 . S
C1629 C1631 1.433 . S
C1630 C1626 1.350 . S
C1630 C1627 1.463 . S
C1630 N1634 1.427 . S
C1631 H1621 0.929 . S
C1631 C1629 1.433 . S
C1631 N1634 1.384 . S
C1632 H1623 0.929 . S
C1632 C1624 1.378 . S
C1632 C1627 1.350 . S
C1633 H1620 0.929 . S
C1633 C1625 1.433 . S
C1633 N1635 1.384 . S
N1634 C1630 1.427 . S
N1634 C1631 1.384 . S
N1635 C1627 1.427 . S
N1635 C1633 1.384 . S
H1636 C1642 0.930 . S
H1637 C1646 0.930 . S
H1638 C1651 0.929 . S
H1639 C1649 0.929 . S
H1640 C1644 0.929 . S
H1641 C1650 0.929 . S
C1642 H1636 0.930 . S
C1642 C1643 1.367 . S
C1642 C1650 1.378 . S
C1643 C1642 1.367 . S
C1643 C1651 1.433 . S
C1644 H1640 0.929 . S
C1644 C1646 1.378 . S
C1644 C1648 1.350 . S
C1645 C1648 1.463 . S
C1645 C1650 1.350 . S
C1645 N1653 1.427 . S
C1646 H1637 0.930 . S
C1646 C1644 1.378 . S
C1646 C1647 1.367 . S
C1647 C1646 1.367 . S
C1647 C1649 1.433 . S
C1648 C1644 1.350 . S
C1648 C1645 1.463 . S
C1648 N1652 1.427 . S
C1649 H1639 0.929 . S
C1649 C1647 1.433 . S
C1649 N1652 1.384 . S
C1650 H1641 0.929 . S
C1650 C1642 1.378 . S
C1650 C1645 1.350 . S
C1651 H1638 0.929 . S
C1651 C1643 1.433 . S
C1651 N1653 1.384 . S
N1652 C1648 1.427 . S
N1652 C1649 1.384 . S
N1653 C1645 1.427 . S
N1653 C1651 1.384 . S
H1654 C1660 0.930 . S
H1655 C1664 0.930 . S
H1656 C1669 0.929 . S
H1657 C1667 0.929 . S
H1658 C1662 0.929 . S
H1659 C1668 0.929 . S
C1660 H1654 0.930 . S
C1660 C1661 1.367 . S
C1660 C1668 1.378 . S
C1661 C1660 1.367 . S
C1661 C1669 1.433 . S
C1662 H1658 0.929 . S
C1662 C1664 1.378 . S
C1662 C1666 1.350 . S
C1663 C1666 1.463 . S
C1663 C1668 1.350 . S
C1663 N1671 1.427 . S
C1664 H1655 0.930 . S
C1664 C1662 1.378 . S
C1664 C1665 1.367 . S
C1665 C1664 1.367 . S
C1665 C1667 1.433 . S
C1666 C1662 1.350 . S
C1666 C1663 1.463 . S
C1666 N1670 1.427 . S
C1667 H1657 0.929 . S
C1667 C1665 1.433 . S
C1667 N1670 1.384 . S
C1668 H1659 0.929 . S
C1668 C1660 1.378 . S
C1668 C1663 1.350 . S
C1669 H1656 0.929 . S
C1669 C1661 1.433 . S
C1669 N1671 1.384 . S
N1670 C1666 1.427 . S
N1670 C1667 1.384 . S
N1671 C1663 1.427 . S
N1671 C1669 1.384 . S
H1672 C1678 0.930 . S
H1673 C1682 0.930 . S
H1674 C1687 0.929 . S
H1675 C1685 0.929 . S
H1676 C1680 0.929 . S
H1677 C1686 0.929 . S
C1678 H1672 0.930 . S
C1678 C1679 1.367 . S
C1678 C1686 1.378 . S
C1679 C1678 1.367 . S
C1679 C1687 1.433 . S
C1680 H1676 0.929 . S
C1680 C1682 1.378 . S
C1680 C1684 1.350 . S
C1681 C1684 1.463 . S
C1681 C1686 1.350 . S
C1681 N1689 1.427 . S
C1682 H1673 0.930 . S
C1682 C1680 1.378 . S
C1682 C1683 1.367 . S
C1683 C1682 1.367 . S
C1683 C1685 1.433 . S
C1684 C1680 1.350 . S
C1684 C1681 1.463 . S
C1684 N1688 1.427 . S
C1685 H1675 0.929 . S
C1685 C1683 1.433 . S
C1685 N1688 1.384 . S
C1686 H1677 0.929 . S
C1686 C1678 1.378 . S
C1686 C1681 1.350 . S
C1687 H1674 0.929 . S
C1687 C1679 1.433 . S
C1687 N1689 1.384 . S
N1688 C1684 1.427 . S
N1688 C1685 1.384 . S
N1689 C1681 1.427 . S
N1689 C1687 1.384 . S
H1690 C1696 0.930 . S
H1691 C1700 0.930 . S
H1692 C1705 0.929 . S
H1693 C1703 0.929 . S
H1694 C1698 0.929 . S
H1695 C1704 0.929 . S
C1696 H1690 0.930 . S
C1696 C1697 1.367 . S
C1696 C1704 1.378 . S
C1697 C1696 1.367 . S
C1697 C1705 1.433 . S
C1698 H1694 0.929 . S
C1698 C1700 1.378 . S
C1698 C1702 1.350 . S
C1699 C1702 1.463 . S
C1699 C1704 1.350 . S
C1699 N1707 1.427 . S
C1700 H1691 0.930 . S
C1700 C1698 1.378 . S
C1700 C1701 1.367 . S
C1701 C1700 1.367 . S
C1701 C1703 1.433 . S
C1702 C1698 1.350 . S
C1702 C1699 1.463 . S
C1702 N1706 1.427 . S
C1703 H1693 0.929 . S
C1703 C1701 1.433 . S
C1703 N1706 1.384 . S
C1704 H1695 0.929 . S
C1704 C1696 1.378 . S
C1704 C1699 1.350 . S
C1705 H1692 0.929 . S
C1705 C1697 1.433 . S
C1705 N1707 1.384 . S
N1706 C1702 1.427 . S
N1706 C1703 1.384 . S
N1707 C1699 1.427 . S
N1707 C1705 1.384 . S
H1708 C1714 0.930 . S
H1709 C1718 0.930 . S
H1710 C1723 0.929 . S
H1711 C1721 0.929 . S
H1712 C1716 0.929 . S
H1713 C1722 0.929 . S
C1714 H1708 0.930 . S
C1714 C1715 1.367 . S
C1714 C1722 1.378 . S
C1715 C1714 1.367 . S
C1715 C1723 1.433 . S
C1716 H1712 0.929 . S
C1716 C1718 1.378 . S
C1716 C1720 1.350 . S
C1717 C1720 1.463 . S
C1717 C1722 1.350 . S
C1717 N1725 1.427 . S
C1718 H1709 0.930 . S
C1718 C1716 1.378 . S
C1718 C1719 1.367 . S
C1719 C1718 1.367 . S
C1719 C1721 1.433 . S
C1720 C1716 1.350 . S
C1720 C1717 1.463 . S
C1720 N1724 1.427 . S
C1721 H1711 0.929 . S
C1721 C1719 1.433 . S
C1721 N1724 1.384 . S
C1722 H1713 0.929 . S
C1722 C1714 1.378 . S
C1722 C1717 1.350 . S
C1723 H1710 0.929 . S
C1723 C1715 1.433 . S
C1723 N1725 1.384 . S
N1724 C1720 1.427 . S
N1724 C1721 1.384 . S
N1725 C1717 1.427 . S
N1725 C1723 1.384 . S
H1726 C1732 0.930 . S
H1727 C1736 0.930 . S
H1728 C1741 0.929 . S
H1729 C1739 0.929 . S
H1730 C1734 0.929 . S
H1731 C1740 0.929 . S
C1732 H1726 0.930 . S
C1732 C1733 1.367 . S
C1732 C1740 1.378 . S
C1733 C1732 1.367 . S
C1733 C1741 1.433 . S
C1734 H1730 0.929 . S
C1734 C1736 1.378 . S
C1734 C1738 1.350 . S
C1735 C1738 1.463 . S
C1735 C1740 1.350 . S
C1735 N1743 1.427 . S
C1736 H1727 0.930 . S
C1736 C1734 1.378 . S
C1736 C1737 1.367 . S
C1737 C1736 1.367 . S
C1737 C1739 1.433 . S
C1738 C1734 1.350 . S
C1738 C1735 1.463 . S
C1738 N1742 1.427 . S
C1739 H1729 0.929 . S
C1739 C1737 1.433 . S
C1739 N1742 1.384 . S
C1740 H1731 0.929 . S
C1740 C1732 1.378 . S
C1740 C1735 1.350 . S
C1741 H1728 0.929 . S
C1741 C1733 1.433 . S
C1741 N1743 1.384 . S
N1742 C1738 1.427 . S
N1742 C1739 1.384 . S
N1743 C1735 1.427 . S
N1743 C1741 1.384 . S
H1744 C1750 0.930 . S
H1745 C1754 0.930 . S
H1746 C1759 0.929 . S
H1747 C1757 0.929 . S
H1748 C1752 0.929 . S
H1749 C1758 0.929 . S
C1750 H1744 0.930 . S
C1750 C1751 1.367 . S
C1750 C1758 1.378 . S
C1751 C1750 1.367 . S
C1751 C1759 1.433 . S
C1752 H1748 0.929 . S
C1752 C1754 1.378 . S
C1752 C1756 1.350 . S
C1753 C1756 1.463 . S
C1753 C1758 1.350 . S
C1753 N1761 1.427 . S
C1754 H1745 0.930 . S
C1754 C1752 1.378 . S
C1754 C1755 1.367 . S
C1755 C1754 1.367 . S
C1755 C1757 1.433 . S
C1756 C1752 1.350 . S
C1756 C1753 1.463 . S
C1756 N1760 1.427 . S
C1757 H1747 0.929 . S
C1757 C1755 1.433 . S
C1757 N1760 1.384 . S
C1758 H1749 0.929 . S
C1758 C1750 1.378 . S
C1758 C1753 1.350 . S
C1759 H1746 0.929 . S
C1759 C1751 1.433 . S
C1759 N1761 1.384 . S
N1760 C1756 1.427 . S
N1760 C1757 1.384 . S
N1761 C1753 1.427 . S
N1761 C1759 1.384 . S
H1762 C1768 0.930 . S
H1763 C1772 0.930 . S
H1764 C1777 0.929 . S
H1765 C1775 0.929 . S
H1766 C1770 0.929 . S
H1767 C1776 0.929 . S
C1768 H1762 0.930 . S
C1768 C1769 1.367 . S
C1768 C1776 1.378 . S
C1769 C1768 1.367 . S
C1769 C1777 1.433 . S
C1770 H1766 0.929 . S
C1770 C1772 1.378 . S
C1770 C1774 1.350 . S
C1771 C1774 1.463 . S
C1771 C1776 1.350 . S
C1771 N1779 1.427 . S
C1772 H1763 0.930 . S
C1772 C1770 1.378 . S
C1772 C1773 1.367 . S
C1773 C1772 1.367 . S
C1773 C1775 1.433 . S
C1774 C1770 1.350 . S
C1774 C1771 1.463 . S
C1774 N1778 1.427 . S
C1775 H1765 0.929 . S
C1775 C1773 1.433 . S
C1775 N1778 1.384 . S
C1776 H1767 0.929 . S
C1776 C1768 1.378 . S
C1776 C1771 1.350 . S
C1777 H1764 0.929 . S
C1777 C1769 1.433 . S
C1777 N1779 1.384 . S
N1778 C1774 1.427 . S
N1778 C1775 1.384 . S
N1779 C1771 1.427 . S
N1779 C1777 1.384 . S
H1780 C1786 0.930 . S
H1781 C1790 0.930 . S
H1782 C1795 0.929 . S
H1783 C1793 0.929 . S
H1784 C1788 0.929 . S
H1785 C1794 0.929 . S
C1786 H1780 0.930 . S
C1786 C1787 1.367 . S
C1786 C1794 1.378 . S
C1787 C1786 1.367 . S
C1787 C1795 1.433 . S
C1788 H1784 0.929 . S
C1788 C1790 1.378 . S
C1788 C1792 1.350 . S
C1789 C1792 1.463 . S
C1789 C1794 1.350 . S
C1789 N1797 1.427 . S
C1790 H1781 0.930 . S
C1790 C1788 1.378 . S
C1790 C1791 1.367 . S
C1791 C1790 1.367 . S
C1791 C1793 1.433 . S
C1792 C1788 1.350 . S
C1792 C1789 1.463 . S
C1792 N1796 1.427 . S
C1793 H1783 0.929 . S
C1793 C1791 1.433 . S
C1793 N1796 1.384 . S
C1794 H1785 0.929 . S
C1794 C1786 1.378 . S
C1794 C1789 1.350 . S
C1795 H1782 0.929 . S
C1795 C1787 1.433 . S
C1795 N1797 1.384 . S
N1796 C1792 1.427 . S
N1796 C1793 1.384 . S
N1797 C1789 1.427 . S
N1797 C1795 1.384 . S
H1798 C1804 0.930 . S
H1799 C1808 0.930 . S
H1800 C1813 0.929 . S
H1801 C1811 0.929 . S
H1802 C1806 0.929 . S
H1803 C1812 0.929 . S
C1804 H1798 0.930 . S
C1804 C1805 1.367 . S
C1804 C1812 1.378 . S
C1805 C1804 1.367 . S
C1805 C1813 1.433 . S
C1806 H1802 0.929 . S
C1806 C1808 1.378 . S
C1806 C1810 1.350 . S
C1807 C1810 1.463 . S
C1807 C1812 1.350 . S
C1807 N1815 1.427 . S
C1808 H1799 0.930 . S
C1808 C1806 1.378 . S
C1808 C1809 1.367 . S
C1809 C1808 1.367 . S
C1809 C1811 1.433 . S
C1810 C1806 1.350 . S
C1810 C1807 1.463 . S
C1810 N1814 1.427 . S
C1811 H1801 0.929 . S
C1811 C1809 1.433 . S
C1811 N1814 1.384 . S
C1812 H1803 0.929 . S
C1812 C1804 1.378 . S
C1812 C1807 1.350 . S
C1813 H1800 0.929 . S
C1813 C1805 1.433 . S
C1813 N1815 1.384 . S
N1814 C1810 1.427 . S
N1814 C1811 1.384 . S
N1815 C1807 1.427 . S
N1815 C1813 1.384 . S
H1816 C1822 0.930 . S
H1817 C1826 0.930 . S
H1818 C1831 0.929 . S
H1819 C1829 0.929 . S
H1820 C1824 0.929 . S
H1821 C1830 0.929 . S
C1822 H1816 0.930 . S
C1822 C1823 1.367 . S
C1822 C1830 1.378 . S
C1823 C1822 1.367 . S
C1823 C1831 1.433 . S
C1824 H1820 0.929 . S
C1824 C1826 1.378 . S
C1824 C1828 1.350 . S
C1825 C1828 1.463 . S
C1825 C1830 1.350 . S
C1825 N1833 1.427 . S
C1826 H1817 0.930 . S
C1826 C1824 1.378 . S
C1826 C1827 1.367 . S
C1827 C1826 1.367 . S
C1827 C1829 1.433 . S
C1828 C1824 1.350 . S
C1828 C1825 1.463 . S
C1828 N1832 1.427 . S
C1829 H1819 0.929 . S
C1829 C1827 1.433 . S
C1829 N1832 1.384 . S
C1830 H1821 0.929 . S
C1830 C1822 1.378 . S
C1830 C1825 1.350 . S
C1831 H1818 0.929 . S
C1831 C1823 1.433 . S
C1831 N1833 1.384 . S
N1832 C1828 1.427 . S
N1832 C1829 1.384 . S
N1833 C1825 1.427 . S
N1833 C1831 1.384 . S
H1834 C1840 0.930 . S
H1835 C1844 0.930 . S
H1836 C1849 0.929 . S
H1837 C1847 0.929 . S
H1838 C1842 0.929 . S
H1839 C1848 0.929 . S
C1840 H1834 0.930 . S
C1840 C1841 1.367 . S
C1840 C1848 1.378 . S
C1841 C1840 1.367 . S
C1841 C1849 1.433 . S
C1842 H1838 0.929 . S
C1842 C1844 1.378 . S
C1842 C1846 1.350 . S
C1843 C1846 1.463 . S
C1843 C1848 1.350 . S
C1843 N1851 1.427 . S
C1844 H1835 0.930 . S
C1844 C1842 1.378 . S
C1844 C1845 1.367 . S
C1845 C1844 1.367 . S
C1845 C1847 1.433 . S
C1846 C1842 1.350 . S
C1846 C1843 1.463 . S
C1846 N1850 1.427 . S
C1847 H1837 0.929 . S
C1847 C1845 1.433 . S
C1847 N1850 1.384 . S
C1848 H1839 0.929 . S
C1848 C1840 1.378 . S
C1848 C1843 1.350 . S
C1849 H1836 0.929 . S
C1849 C1841 1.433 . S
C1849 N1851 1.384 . S
N1850 C1846 1.427 . S
N1850 C1847 1.384 . S
N1851 C1843 1.427 . S
N1851 C1849 1.384 . S
H1852 C1858 0.930 . S
H1853 C1862 0.930 . S
H1854 C1867 0.929 . S
H1855 C1865 0.929 . S
H1856 C1860 0.929 . S
H1857 C1866 0.929 . S
C1858 H1852 0.930 . S
C1858 C1859 1.367 . S
C1858 C1866 1.378 . S
C1859 C1858 1.367 . S
C1859 C1867 1.433 . S
C1860 H1856 0.929 . S
C1860 C1862 1.378 . S
C1860 C1864 1.350 . S
C1861 C1864 1.463 . S
C1861 C1866 1.350 . S
C1861 N1869 1.427 . S
C1862 H1853 0.930 . S
C1862 C1860 1.378 . S
C1862 C1863 1.367 . S
C1863 C1862 1.367 . S
C1863 C1865 1.433 . S
C1864 C1860 1.350 . S
C1864 C1861 1.463 . S
C1864 N1868 1.427 . S
C1865 H1855 0.929 . S
C1865 C1863 1.433 . S
C1865 N1868 1.384 . S
C1866 H1857 0.929 . S
C1866 C1858 1.378 . S
C1866 C1861 1.350 . S
C1867 H1854 0.929 . S
C1867 C1859 1.433 . S
C1867 N1869 1.384 . S
N1868 C1864 1.427 . S
N1868 C1865 1.384 . S
N1869 C1861 1.427 . S
N1869 C1867 1.384 . S
H1870 C1876 0.930 . S
H1871 C1880 0.930 . S
H1872 C1885 0.929 . S
H1873 C1883 0.929 . S
H1874 C1878 0.929 . S
H1875 C1884 0.929 . S
C1876 H1870 0.930 . S
C1876 C1877 1.367 . S
C1876 C1884 1.378 . S
C1877 C1876 1.367 . S
C1877 C1885 1.433 . S
C1878 H1874 0.929 . S
C1878 C1880 1.378 . S
C1878 C1882 1.350 . S
C1879 C1882 1.463 . S
C1879 C1884 1.350 . S
C1879 N1887 1.427 . S
C1880 H1871 0.930 . S
C1880 C1878 1.378 . S
C1880 C1881 1.367 . S
C1881 C1880 1.367 . S
C1881 C1883 1.433 . S
C1882 C1878 1.350 . S
C1882 C1879 1.463 . S
C1882 N1886 1.427 . S
C1883 H1873 0.929 . S
C1883 C1881 1.433 . S
C1883 N1886 1.384 . S
C1884 H1875 0.929 . S
C1884 C1876 1.378 . S
C1884 C1879 1.350 . S
C1885 H1872 0.929 . S
C1885 C1877 1.433 . S
C1885 N1887 1.384 . S
N1886 C1882 1.427 . S
N1886 C1883 1.384 . S
N1887 C1879 1.427 . S
N1887 C1885 1.384 . S
C743 C16 1.584 . S
C747 C62 1.583 . S
C761 C85 1.579 . S
C765 C39 1.574 . S
C779 C154 1.577 . S
C783 C108 1.574 . S
C797 C177 1.575 . S
C801 C131 1.579 . S
C815 C200 1.574 . S
C819 C246 1.574 . S
C833 C269 1.568 . S
C837 C223 1.572 . S
C851 C292 1.584 . S
C855 C338 1.582 . S
C869 C361 1.571 . S
C873 C315 1.568 . S
C887 C384 1.567 . S
C891 C430 1.568 1_455 S
C905 C407 1.581 . S
C909 C453 1.579 . S
C923 C522 1.569 1_655 S
C927 C476 1.568 . S
C941 C499 1.575 . S
C945 C545 1.581 . S
C959 C614 1.577 1_455 S
C963 C568 1.575 . S
C977 C637 1.571 . S
C981 C591 1.576 . S
C995 C706 1.568 1_655 S
C999 C660 1.566 . S
C1013 C683 1.573 . S
C1017 C729 1.570 . S
C1031 N587 1.816 . S
C1035 N12 1.807 . S
C1049 N35 1.814 . S
C1053 N564 1.802 . S
C1067 N58 1.817 . S
C1071 N633 1.808 . S
C1085 N81 1.805 . S
C1089 N610 1.809 . S
C1103 N679 1.810 . S
C1107 N104 1.816 . S
C1121 N127 1.805 . S
C1125 N656 1.809 . S
C1139 N150 1.815 . S
C1143 N725 1.806 . S
C1157 N702 1.804 . S
C1161 N173 1.809 . S
C1175 N196 1.817 . S
C1179 N403 1.808 . S
C1193 N219 1.806 . S
C1197 N380 1.809 . S
C1211 N242 1.807 . S
C1215 N449 1.813 . S
C1229 N265 1.807 . S
C1233 N426 1.809 . S
C1247 N288 1.808 . S
C1251 N495 1.817 . S
C1265 N472 1.808 . S
C1269 N311 1.809 . S
C1283 N541 1.817 . S
C1287 N334 1.809 . S
C1301 N357 1.806 . S
C1305 N518 1.809 . S
C1319 C7 1.621 1_565 S
C1323 C99 1.621 1_545 S
C1337 C30 1.616 . S
C1341 C674 1.616 . S
C1355 C53 1.621 . S
C1359 C329 1.621 . S
C1373 C76 1.608 . S
C1377 C536 1.604 1_545 S
C1391 C122 1.609 . S
C1395 C582 1.609 . S
C1409 C237 1.611 . S
C1413 C145 1.611 . S
C1427 C444 1.616 1_565 S
C1431 C168 1.612 1_545 S
C1445 C283 1.619 . S
C1449 C191 1.619 . S
C1463 C214 1.617 . S
C1467 C490 1.616 . S
C1481 C720 1.607 . S
C1485 C260 1.607 . S
C1499 C306 1.612 . S
C1503 C398 1.611 . S
C1517 C352 1.614 . S
C1521 C628 1.614 . S
C1535 C467 1.608 1_545 S
C1539 C375 1.608 1_565 S
C1553 C421 1.605 . S
C1557 C697 1.605 . S
C1571 C605 1.605 . S
C1575 C513 1.605 . S
C1589 C651 1.605 . S
C1593 C559 1.605 . S
C1607 N2 1.110 . S
C1611 N25 1.100 . S
C1625 N48 1.101 . S
C1629 N71 1.110 . S
C1643 N94 1.112 . S
C1647 N117 1.102 . S
C1661 N140 1.098 . S
C1665 N163 1.101 . S
C1679 N209 1.115 . S
C1683 N186 1.117 . S
C1697 N232 1.108 . S
C1701 N255 1.099 . S
C1715 N278 1.098 . S
C1719 N301 1.105 . S
C1733 N324 1.104 . S
C1737 N347 1.114 . S
C1751 N370 1.120 . S
C1755 N393 1.118 . S
C1769 N439 1.106 . S
C1773 N416 1.106 . S
C1787 N462 1.119 . S
C1791 N485 1.114 . S
C1805 N508 1.120 . S
C1809 N531 1.117 . S
C1823 N577 1.101 . S
C1827 N554 1.110 . S
C1841 N600 1.103 . S
C1845 N623 1.107 . S
C1859 N669 1.120 . S
C1863 N646 1.122 . S
C1877 N692 1.101 . S
C1881 N715 1.111 . S
