# Generated by pormake.
# Topology upa, (4)-cn, num edge types: 1
# Building blocks:
#     Node 0, Type 0, BuildingBlock: NAHDIM_clean_sbu_0, # of connection points: 4
#     Node 1, Type 0, BuildingBlock: NAHDIM_clean_sbu_0, # of connection points: 4
#     Node 2, Type 0, BuildingBlock: NAHDIM_clean_sbu_0, # of connection points: 4
#     Node 3, Type 0, BuildingBlock: NAHDIM_clean_sbu_0, # of connection points: 4
#     Node 4, Type 0, BuildingBlock: NAHDIM_clean_sbu_0, # of connection points: 4
#     Node 5, Type 0, BuildingBlock: NAHDIM_clean_sbu_0, # of connection points: 4
#     Node 6, Type 0, BuildingBlock: NAHDIM_clean_sbu_0, # of connection points: 4
#     Node 7, Type 0, BuildingBlock: NAHDIM_clean_sbu_0, # of connection points: 4
#     Edge 8, Type (0, 0), BuildingBlock: UVAHIK_clean_linker_0, # of connection points: 2
#     Edge 9, Type (0, 0), BuildingBlock: UVAHIK_clean_linker_0, # of connection points: 2
#     Edge 10, Type (0, 0), BuildingBlock: UVAHIK_clean_linker_0, # of connection points: 2
#     Edge 11, Type (0, 0), BuildingBlock: UVAHIK_clean_linker_0, # of connection points: 2
#     Edge 12, Type (0, 0), BuildingBlock: UVAHIK_clean_linker_0, # of connection points: 2
#     Edge 13, Type (0, 0), BuildingBlock: UVAHIK_clean_linker_0, # of connection points: 2
#     Edge 14, Type (0, 0), BuildingBlock: UVAHIK_clean_linker_0, # of connection points: 2
#     Edge 15, Type (0, 0), BuildingBlock: UVAHIK_clean_linker_0, # of connection points: 2
#     Edge 16, Type (0, 0), BuildingBlock: UVAHIK_clean_linker_0, # of connection points: 2
#     Edge 17, Type (0, 0), BuildingBlock: UVAHIK_clean_linker_0, # of connection points: 2
#     Edge 18, Type (0, 0), BuildingBlock: UVAHIK_clean_linker_0, # of connection points: 2
#     Edge 19, Type (0, 0), BuildingBlock: UVAHIK_clean_linker_0, # of connection points: 2
#     Edge 20, Type (0, 0), BuildingBlock: UVAHIK_clean_linker_0, # of connection points: 2
#     Edge 21, Type (0, 0), BuildingBlock: UVAHIK_clean_linker_0, # of connection points: 2
#     Edge 22, Type (0, 0), BuildingBlock: UVAHIK_clean_linker_0, # of connection points: 2
#     Edge 23, Type (0, 0), BuildingBlock: UVAHIK_clean_linker_0, # of connection points: 2
# Relax obj value: 0.271
# Max RMSD: 0.206
# Mean RMSD: 0.206
data_MOF--net-upa--node1-NAHDIM_clean_sbu_0--edge1-UVAHIK_clean_linker_0
_symmetry_space_group_name_H-M    P1
_symmetry_Int_Tables_number       1
_symmetry_cell_setting            triclinic
loop_
_symmetry_equiv_pos_as_xyz
'x, y, z'
_cell_length_a     34.22463
_cell_length_b     34.211871
_cell_length_c     53.858734
_cell_angle_alpha  89.979112
_cell_angle_beta   90.006898
_cell_angle_gamma 90.005022
loop_
_atom_site_label
_atom_site_type_symbol
_atom_site_fract_x
_atom_site_fract_y
_atom_site_fract_z
_atom_type_partial_charge
C0 C 0.26493 0.16467 0.27777 0.0
O1 O 0.239 0.14136 0.2676 0.0
O2 O 0.16587 0.22704 0.29398 0.0
Zn3 Zn 0.20097 0.18802 0.3111 0.0
O4 O 0.20644 0.19967 0.34758 0.0
C5 C 0.15298 0.12893 0.28884 0.0
O6 O 0.15436 0.15323 0.26996 0.0
O7 O 0.25484 0.18649 0.29577 0.0
C8 C 0.17723 0.19572 0.36193 0.0
O9 O 0.14329 0.18575 0.35243 0.0
C10 C 0.14972 0.25664 0.30388 0.0
O11 O 0.15915 0.26653 0.32666 0.0
O12 O 0.17281 0.13648 0.30823 0.0
C13 C 0.32957 0.77471 0.78505 0.0
O14 O 0.36238 0.75502 0.78325 0.0
O15 O 0.2616 0.67101 0.80492 0.0
Zn16 Zn 0.30342 0.70891 0.81563 0.0
O17 O 0.29857 0.71979 0.85224 0.0
C18 C 0.3591 0.66226 0.78931 0.0
O19 O 0.33428 0.66791 0.77104 0.0
O20 O 0.30111 0.76014 0.7971 0.0
C21 C 0.32903 0.72815 0.86464 0.0
O22 O 0.36276 0.73055 0.85308 0.0
C23 C 0.25789 0.64147 0.81907 0.0
O24 O 0.27752 0.64074 0.84003 0.0
O25 O 0.3534 0.67938 0.80993 0.0
C26 C 0.72795 0.81443 0.28836 0.0
O27 O 0.75339 0.83707 0.27712 0.0
O28 O 0.82675 0.749 0.29899 0.0
Zn29 Zn 0.79508 0.78891 0.31787 0.0
O30 O 0.79474 0.77728 0.35459 0.0
C31 C 0.84204 0.84694 0.2932 0.0
O32 O 0.83907 0.82231 0.27458 0.0
O33 O 0.73943 0.79182 0.30562 0.0
C34 C 0.82383 0.78792 0.36762 0.0
O35 O 0.85373 0.80466 0.35661 0.0
C36 C 0.84791 0.72308 0.30927 0.0
O37 O 0.84557 0.71799 0.33339 0.0
O38 O 0.82353 0.84001 0.31319 0.0
C39 C 0.66595 0.2295 0.77539 0.0
O40 O 0.64751 0.25701 0.76307 0.0
O41 O 0.72596 0.32633 0.79615 0.0
Zn42 Zn 0.68351 0.2922 0.8105 0.0
O43 O 0.68938 0.28764 0.84771 0.0
C44 C 0.6292 0.34192 0.78436 0.0
O45 O 0.65696 0.34195 0.76752 0.0
O46 O 0.68338 0.23811 0.79551 0.0
C47 C 0.67413 0.31363 0.86153 0.0
O48 O 0.65588 0.34324 0.8512 0.0
C49 C 0.75089 0.34463 0.80923 0.0
O50 O 0.75275 0.33772 0.83319 0.0
O51 O 0.63305 0.32075 0.80363 0.0
C52 C 0.76661 0.32505 0.20945 0.0
O53 O 0.74202 0.3507 0.21864 0.0
O54 O 0.66514 0.26254 0.19463 0.0
Zn55 Zn 0.70035 0.30243 0.17838 0.0
O56 O 0.70263 0.29379 0.14132 0.0
C57 C 0.65406 0.36059 0.20346 0.0
O58 O 0.65495 0.33475 0.2215 0.0
O59 O 0.75504 0.30167 0.19263 0.0
C60 C 0.67424 0.30625 0.1283 0.0
O61 O 0.64448 0.3229 0.1395 0.0
C62 C 0.64686 0.2359 0.18296 0.0
O63 O 0.6543 0.23028 0.15931 0.0
O64 O 0.67373 0.35429 0.18384 0.0
C65 C 0.19098 0.26254 0.71757 0.0
O66 O 0.20135 0.23187 0.7307 0.0
O67 O 0.22138 0.16864 0.69497 0.0
Zn68 Zn 0.18396 0.20545 0.678 0.0
O69 O 0.19643 0.21202 0.64172 0.0
C70 C 0.1189 0.16734 0.70124 0.0
O71 O 0.13721 0.17827 0.72151 0.0
O72 O 0.18232 0.25816 0.69479 0.0
C73 C 0.19504 0.18238 0.62752 0.0
O74 O 0.18731 0.14795 0.63716 0.0
C75 C 0.25286 0.15426 0.68643 0.0
O76 O 0.26609 0.16618 0.66482 0.0
O77 O 0.13217 0.17801 0.68027 0.0
C78 C 0.22926 0.67569 0.21052 0.0
O79 O 0.25584 0.65671 0.22331 0.0
O80 O 0.32605 0.74003 0.20013 0.0
Zn81 Zn 0.29521 0.70126 0.1798 0.0
O82 O 0.29438 0.71613 0.14364 0.0
C83 C 0.34318 0.64251 0.20255 0.0
O84 O 0.33958 0.66581 0.2218 0.0
O85 O 0.23964 0.69609 0.19192 0.0
C86 C 0.32528 0.71303 0.13069 0.0
O87 O 0.35773 0.70145 0.14146 0.0
C88 C 0.34416 0.76958 0.19162 0.0
O89 O 0.339 0.77977 0.16834 0.0
O90 O 0.32489 0.65053 0.18263 0.0
C91 C 0.82218 0.72826 0.71985 0.0
O92 O 0.84397 0.75487 0.73067 0.0
O93 O 0.75841 0.82512 0.69783 0.0
Zn94 Zn 0.80199 0.79089 0.68502 0.0
O95 O 0.79812 0.78386 0.6478 0.0
C96 C 0.85404 0.8427 0.7113 0.0
O97 O 0.82557 0.84281 0.72766 0.0
O98 O 0.80193 0.73756 0.70096 0.0
C99 C 0.8182 0.80544 0.6334 0.0
O100 O 0.84037 0.83289 0.64297 0.0
C101 C 0.73859 0.84714 0.68358 0.0
O102 O 0.74289 0.84385 0.65944 0.0
O103 O 0.85158 0.82045 0.69246 0.0
C104 C 0.10684 0.08456 0.26644 0.0
C105 C 0.12473 0.09627 0.28871 0.0
C106 C 0.07705 0.05662 0.26661 0.0
C107 C -0.00027 0.01912 0.30631 0.0
H108 H 0.99641 0.9318 0.26052 0.0
C109 C 0.88374 0.8973 0.31396 0.0
C110 C 0.87064 0.87925 0.29207 0.0
C111 C 0.91405 0.92463 0.31322 0.0
C112 C 0.99647 0.9564 0.27316 0.0
H113 H 0.12614 0.08718 0.32858 0.0
H114 H 0.07374 0.03867 0.32886 0.0
H115 H 0.05205 0.97633 0.25984 0.0
H116 H 0.87774 0.87699 0.2521 0.0
H117 H 0.92954 0.92578 0.25065 0.0
H118 H 0.94386 0.00011 0.31926 0.0
C119 C 0.08284 0.05116 0.3113 0.0
C120 C 0.02852 0.98171 0.27285 0.0
C121 C 0.11301 0.07868 0.3111 0.0
C122 C 0.8874 0.89022 0.26931 0.0
C123 C 0.91737 0.91794 0.26852 0.0
C124 C 0.96744 0.99415 0.30641 0.0
C125 C 0.06424 0.04028 0.28911 0.0
C126 C 0.03053 0.01316 0.28951 0.0
C127 C 0.93163 0.93494 0.29052 0.0
C128 C 0.96544 0.96233 0.28991 0.0
H129 H 0.11528 0.09757 0.2489 0.0
H130 H 0.06308 0.04884 0.24926 0.0
H131 H 0.0003 0.04356 0.3191 0.0
H132 H 0.87165 0.88923 0.33183 0.0
H133 H 0.92452 0.93663 0.33058 0.0
C134 C 0.40637 0.61566 0.80865 0.0
C135 C 0.38961 0.63189 0.78717 0.0
C136 C 0.43155 0.58369 0.80693 0.0
C137 C 0.49855 0.53158 0.76645 0.0
H138 H 0.4728 0.44124 0.80679 0.0
C139 C 0.5891 0.38987 0.76023 0.0
C140 C 0.5968 0.37033 0.78264 0.0
C141 C 0.56142 0.41988 0.7593 0.0
C142 C 0.48078 0.46632 0.79562 0.0
H143 H 0.38742 0.62846 0.74698 0.0
H144 H 0.4325 0.57306 0.74399 0.0
H145 H 0.43156 0.49924 0.80852 0.0
H146 H 0.58093 0.3663 0.82154 0.0
H147 H 0.53379 0.41926 0.82018 0.0
H148 H 0.54858 0.4996 0.75423 0.0
C149 C 0.42564 0.58493 0.76212 0.0
C150 C 0.45703 0.49946 0.79658 0.0
C151 C 0.39987 0.61654 0.76385 0.0
C152 C 0.57545 0.38059 0.80393 0.0
C153 C 0.54822 0.41095 0.80309 0.0
C154 C 0.52272 0.49866 0.76578 0.0
C155 C 0.44101 0.56773 0.78369 0.0
C156 C 0.46584 0.53245 0.78213 0.0
C157 C 0.54122 0.43141 0.78085 0.0
C158 C 0.5143 0.46564 0.78049 0.0
H159 H 0.39894 0.62672 0.8269 0.0
H160 H 0.44338 0.57114 0.82381 0.0
H161 H 0.50601 0.55679 0.75523 0.0
H162 H 0.60493 0.38242 0.74347 0.0
H163 H 0.55621 0.43431 0.74171 0.0
C164 C 0.60713 0.40304 0.22676 0.0
C165 C 0.62605 0.39343 0.20442 0.0
C166 C 0.57732 0.43096 0.22707 0.0
C167 C 0.50184 0.47176 0.18726 0.0
H168 H 0.49596 0.55521 0.23577 0.0
C169 C 0.38619 0.59407 0.18102 0.0
C170 C 0.37189 0.61029 0.20318 0.0
C171 C 0.41651 0.56674 0.18154 0.0
C172 C 0.49673 0.53167 0.22234 0.0
H173 H 0.62933 0.40638 0.16501 0.0
H174 H 0.57698 0.45481 0.16559 0.0
H175 H 0.55158 0.51064 0.2362 0.0
H176 H 0.37684 0.60931 0.2433 0.0
H177 H 0.42863 0.56052 0.2443 0.0
H178 H 0.44669 0.49183 0.17372 0.0
C179 C 0.58525 0.44067 0.18281 0.0
C180 C 0.52877 0.50635 0.22253 0.0
C181 C 0.6154 0.41318 0.18255 0.0
C182 C 0.38747 0.59752 0.2259 0.0
C183 C 0.41743 0.5698 0.22644 0.0
C184 C 0.46955 0.49671 0.18727 0.0
C185 C 0.56554 0.44937 0.20499 0.0
C186 C 0.53172 0.47634 0.20488 0.0
C187 C 0.43288 0.5546 0.20425 0.0
C188 C 0.46665 0.52716 0.20472 0.0
H189 H 0.61471 0.38833 0.24391 0.0
H190 H 0.56249 0.43709 0.24441 0.0
H191 H 0.50314 0.44842 0.17369 0.0
H192 H 0.37501 0.60358 0.1632 0.0
H193 H 0.42793 0.55615 0.16404 0.0
C194 C 0.07086 0.12766 0.72563 0.0
C195 C 0.08752 0.13772 0.70264 0.0
C196 C 0.04486 0.09626 0.72743 0.0
C197 C 0.02299 0.00343 0.69754 0.0
H198 H 0.92448 0.00817 0.73291 0.0
C199 C 0.90925 0.87973 0.69202 0.0
C200 C 0.88535 0.87239 0.71271 0.0
C201 C 0.93531 0.91112 0.69206 0.0
C202 C 0.95223 0.00608 0.72335 0.0
H203 H 0.08891 0.1236 0.66336 0.0
H204 H 0.0438 0.06862 0.6666 0.0
H205 H 0.96546 0.0664 0.7302 0.0
H206 H 0.87152 0.891 0.75018 0.0
H207 H 0.918 0.94499 0.7506 0.0
H208 H 0.01048 0.94311 0.69104 0.0
C209 C 0.051 0.08498 0.68321 0.0
C210 C 0.97552 0.03955 0.72168 0.0
C211 C 0.07657 0.11664 0.68135 0.0
C212 C 0.88936 0.89604 0.73388 0.0
C213 C 0.91575 0.92723 0.73402 0.0
C214 C -1e-05 0.96986 0.69946 0.0
C215 C 0.03546 0.07407 0.70632 0.0
C216 C 0.01089 0.03862 0.70852 0.0
C217 C 0.93846 0.93569 0.71292 0.0
C218 C 0.9641 0.97082 0.71216 0.0
H219 H 0.07869 0.14338 0.74236 0.0
H220 H 0.03331 0.08839 0.74548 0.0
H221 H 0.05052 0.00176 0.68766 0.0
H222 H 0.90675 0.86221 0.67535 0.0
H223 H 0.95187 0.91695 0.67534 0.0
C224 C 0.14891 0.19972 0.40472 0.0
C225 C 0.1818 0.20022 0.3891 0.0
C226 C 0.1533 0.20176 0.43048 0.0
C227 C 0.22303 0.17901 0.47981 0.0
H228 H 0.15443 0.24219 0.52073 0.0
C229 C 0.2016 0.15382 0.58495 0.0
C230 C 0.19943 0.1869 0.60034 0.0
C231 C 0.20316 0.15793 0.55916 0.0
C232 C 0.17405 0.22468 0.50954 0.0
H233 H 0.24508 0.20401 0.38827 0.0
H234 H 0.25269 0.20729 0.43331 0.0
H235 H 0.14966 0.24614 0.47552 0.0
H236 H 0.19808 0.25031 0.60075 0.0
H237 H 0.20053 0.25742 0.55565 0.0
H238 H 0.24703 0.15714 0.51383 0.0
C239 C 0.22355 0.20519 0.42557 0.0
C240 C 0.17108 0.22669 0.48369 0.0
C241 C 0.21915 0.20351 0.39979 0.0
C242 C 0.19969 0.22423 0.58941 0.0
C243 C 0.20088 0.22832 0.56359 0.0
C244 C 0.22575 0.17674 0.50566 0.0
C245 C 0.19068 0.20401 0.44118 0.0
C246 C 0.19531 0.20363 0.46857 0.0
C247 C 0.20225 0.1952 0.5482 0.0
C248 C 0.20107 0.19931 0.52079 0.0
H249 H 0.11974 0.19726 0.39708 0.0
H250 H 0.12746 0.20044 0.44206 0.0
H251 H 0.24188 0.16067 0.46863 0.0
H252 H 0.20152 0.12465 0.59279 0.0
H253 H 0.20386 0.13186 0.54776 0.0
C254 C 0.36138 0.73589 0.90601 0.0
C255 C 0.32698 0.73293 0.89191 0.0
C256 C 0.35966 0.73822 0.93188 0.0
C257 C 0.29449 0.71496 0.98457 0.0
H258 H 0.36934 0.77652 0.0219 0.0
C259 C 0.28873 0.72716 0.09138 0.0
C260 C 0.32441 0.72094 0.1037 0.0
C261 C 0.28777 0.73243 0.06566 0.0
C262 C 0.34835 0.75909 0.0117 0.0
H263 H 0.26369 0.73133 0.89384 0.0
H264 H 0.26063 0.73628 0.93894 0.0
H265 H 0.36948 0.77946 0.97662 0.0
H266 H 0.38717 0.71649 0.09876 0.0
H267 H 0.38546 0.72584 0.05387 0.0
H268 H 0.27341 0.69463 0.01969 0.0
C269 C 0.28902 0.73591 0.93006 0.0
C270 C 0.34847 0.76067 0.98577 0.0
C271 C 0.29076 0.73331 0.90419 0.0
C272 C 0.35919 0.72112 0.08983 0.0
C273 C 0.35826 0.72671 0.06414 0.0
C274 C 0.29419 0.71362 0.01048 0.0
C275 C 0.32347 0.73793 0.94426 0.0
C276 C 0.32184 0.73825 0.97186 0.0
C277 C 0.3225 0.73194 0.05175 0.0
C278 C 0.3214 0.73532 0.02431 0.0
H279 H 0.38977 0.73553 0.89714 0.0
H280 H 0.38681 0.73914 0.94219 0.0
H281 H 0.27399 0.69679 0.9745 0.0
H282 H 0.26141 0.72727 0.10154 0.0
H283 H 0.25983 0.73679 0.05662 0.0
C284 C 0.78986 0.7744 0.59518 0.0
C285 C 0.81756 0.79927 0.60624 0.0
C286 C 0.7898 0.76861 0.56946 0.0
C287 C 0.85341 0.77445 0.51469 0.0
H288 H 0.75741 0.78633 0.47721 0.0
C289 C 0.85365 0.79929 0.40933 0.0
C290 C 0.82352 0.78313 0.39491 0.0
C291 C 0.85266 0.79666 0.43517 0.0
C292 C 0.78437 0.78218 0.48741 0.0
H293 H 0.86694 0.83742 0.59902 0.0
H294 H 0.86693 0.82708 0.5543 0.0
H295 H 0.75579 0.79001 0.52247 0.0
H296 H 0.76915 0.7506 0.39628 0.0
H297 H 0.76778 0.74536 0.44149 0.0
H298 H 0.88213 0.76665 0.47981 0.0
C299 C 0.84539 0.81197 0.5655 0.0
C300 C 0.78341 0.7844 0.51332 0.0
C301 C 0.84519 0.8181 0.5911 0.0
C302 C 0.79272 0.76354 0.40689 0.0
C303 C 0.79183 0.76073 0.4328 0.0
C304 C 0.85435 0.7719 0.48884 0.0
C305 C 0.81774 0.78717 0.55441 0.0
C306 C 0.81805 0.78133 0.52716 0.0
C307 C 0.82164 0.77755 0.44725 0.0
C308 C 0.81997 0.77654 0.47484 0.0
H309 H 0.76817 0.75952 0.60636 0.0
H310 H 0.76824 0.74923 0.56137 0.0
H311 H 0.88046 0.7713 0.52495 0.0
H312 H 0.87773 0.81473 0.40071 0.0
H313 H 0.87577 0.81056 0.44569 0.0
C314 C 0.65212 0.33422 0.90374 0.0
C315 C 0.67584 0.31024 0.88887 0.0
C316 C 0.65267 0.33055 0.92954 0.0
C317 C 0.71252 0.2989 0.98182 0.0
H318 H 0.61357 0.29446 0.01679 0.0
C319 C 0.70362 0.28098 0.0887 0.0
C320 C 0.67482 0.30305 0.10092 0.0
C321 C 0.70411 0.27866 0.06276 0.0
C322 C 0.64148 0.29611 0.00737 0.0
H323 H 0.71929 0.26408 0.88941 0.0
H324 H 0.72062 0.25813 0.93473 0.0
H325 H 0.61423 0.29713 0.9716 0.0
H326 H 0.62417 0.34022 0.09552 0.0
H327 H 0.62561 0.33706 0.05052 0.0
H328 H 0.73983 0.29914 0.01757 0.0
C329 C 0.7015 0.27957 0.92628 0.0
C330 C 0.64181 0.29749 0.98148 0.0
C331 C 0.7006 0.28289 0.90039 0.0
C332 C 0.64658 0.3227 0.08671 0.0
C333 C 0.64727 0.32066 0.06084 0.0
C334 C 0.71221 0.29794 0.00779 0.0
C335 C 0.67726 0.30315 0.94107 0.0
C336 C 0.67729 0.29936 0.96846 0.0
C337 C 0.67597 0.29858 0.04851 0.0
C338 C 0.67664 0.29704 0.02089 0.0
H339 H 0.63273 0.35558 0.89547 0.0
H340 H 0.63403 0.34942 0.94052 0.0
H341 H 0.74028 0.30059 0.97222 0.0
H342 H 0.72569 0.26537 0.09916 0.0
H343 H 0.72636 0.26101 0.0539 0.0
C344 C 0.58932 0.19058 0.18117 0.0
C345 C 0.61275 0.21672 0.19473 0.0
C346 C 0.55382 0.17729 0.1909 0.0
C347 C 0.4942 0.17265 0.24875 0.0
H348 H 0.40689 0.17774 0.20294 0.0
C349 C 0.33444 0.18701 0.28117 0.0
C350 C 0.30571 0.16535 0.26857 0.0
C351 C 0.3729 0.18783 0.27251 0.0
C352 C 0.431 0.17558 0.2159 0.0
H353 H 0.61823 0.24767 0.22973 0.0
H354 H 0.55636 0.22498 0.24648 0.0
H355 H 0.47311 0.18721 0.18754 0.0
H356 H 0.29495 0.12739 0.23704 0.0
H357 H 0.36218 0.12905 0.22185 0.0
H358 H 0.45178 0.16225 0.27723 0.0
C359 C 0.56544 0.21437 0.22844 0.0
C360 C 0.46903 0.1809 0.20707 0.0
C361 C 0.60093 0.22756 0.21876 0.0
C362 C 0.31636 0.14441 0.24716 0.0
C363 C 0.35483 0.14546 0.2384 0.0
C364 C 0.45615 0.16752 0.2576 0.0
C365 C 0.54096 0.18988 0.21438 0.0
C366 C 0.50106 0.18011 0.22344 0.0
C367 C 0.38351 0.16721 0.25098 0.0
C368 C 0.42409 0.16954 0.24133 0.0
H369 H 0.59766 0.18145 0.16266 0.0
H370 H 0.53601 0.15787 0.17976 0.0
H371 H 0.51823 0.17121 0.2618 0.0
H372 H 0.32726 0.20345 0.29773 0.0
H373 H 0.3942 0.2053 0.28242 0.0
C374 C 0.29568 0.83929 0.78177 0.0
C375 C 0.32653 0.81463 0.77463 0.0
C376 C 0.29366 0.87762 0.77296 0.0
C377 C 0.32304 0.94099 0.7219 0.0
H378 H 0.30049 0.02452 0.7684 0.0
C379 C 0.3026 0.10028 0.68864 0.0
C380 C 0.27056 0.12008 0.69905 0.0
C381 C 0.3158 0.06512 0.69899 0.0
C382 C 0.30654 0.00155 0.75512 0.0
H383 H 0.37909 0.81066 0.75226 0.0
H384 H 0.37502 0.87765 0.73644 0.0
H385 H 0.30993 0.95811 0.78368 0.0
H386 H 0.22837 0.11927 0.72915 0.0
H387 H 0.25068 0.05808 0.74675 0.0
H388 H 0.31803 0.98394 0.6932 0.0
C389 C 0.35264 0.86722 0.74903 0.0
C390 C 0.31202 0.96354 0.76391 0.0
C391 C 0.35498 0.82896 0.75813 0.0
C392 C 0.25315 0.10486 0.72062 0.0
C393 C 0.26617 0.06974 0.73086 0.0
C394 C 0.31712 0.97898 0.71305 0.0
C395 C 0.32216 0.89202 0.75658 0.0
C396 C 0.31963 0.93277 0.74735 0.0
C397 C 0.29718 0.04899 0.71993 0.0
C398 C 0.30804 0.00962 0.72952 0.0
H399 H 0.27333 0.82921 0.79449 0.0
H400 H 0.26955 0.89595 0.77882 0.0
H401 H 0.32867 0.91775 0.70872 0.0
H402 H 0.31678 0.1113 0.67208 0.0
H403 H 0.34018 0.05025 0.69034 0.0
C404 C 0.6583 0.79456 0.29499 0.0
C405 C 0.68624 0.81525 0.2811 0.0
C406 C 0.61902 0.79478 0.28798 0.0
C407 C 0.54651 0.84679 0.24857 0.0
H408 H 0.49145 0.74791 0.25207 0.0
C409 C 0.40406 0.81147 0.19486 0.0
C410 C 0.37694 0.78619 0.20613 0.0
C411 C 0.43916 0.82069 0.20681 0.0
C412 C 0.50612 0.77595 0.25137 0.0
H413 H 0.69472 0.85283 0.2491 0.0
H414 H 0.62628 0.85247 0.23653 0.0
H415 H 0.55821 0.75211 0.26705 0.0
H416 H 0.36388 0.75363 0.23972 0.0
H417 H 0.42478 0.7701 0.2606 0.0
H418 H 0.49441 0.87018 0.23215 0.0
C419 C 0.63462 0.83664 0.25311 0.0
C420 C 0.54448 0.77836 0.25996 0.0
C421 C 0.67392 0.83659 0.26022 0.0
C422 C 0.38431 0.77282 0.23037 0.0
C423 C 0.41934 0.78204 0.2423 0.0
C424 C 0.50806 0.84432 0.23985 0.0
C425 C 0.60673 0.81549 0.26681 0.0
C426 C 0.56529 0.81372 0.25855 0.0
C427 C 0.44777 0.80485 0.23027 0.0
C428 C 0.48752 0.80879 0.24105 0.0
H429 H 0.66674 0.77811 0.31133 0.0
H430 H 0.59825 0.77872 0.29921 0.0
H431 H 0.56151 0.87461 0.24751 0.0
H432 H 0.39926 0.82236 0.17622 0.0
H433 H 0.4605 0.83827 0.19702 0.0
C434 C 0.68239 0.15856 0.78047 0.0
C435 C 0.66614 0.18878 0.76609 0.0
C436 C 0.68276 0.12015 0.77166 0.0
C437 C 0.68147 0.06388 0.71388 0.0
H438 H 0.65987 0.97613 0.75739 0.0
C439 C 0.69659 0.90652 0.67834 0.0
C440 C 0.71741 0.88112 0.69401 0.0
C441 C 0.68245 0.94216 0.6873 0.0
C442 C 0.66616 0.0003 0.74503 0.0
H443 H 0.63721 0.20224 0.73127 0.0
H444 H 0.63812 0.13515 0.71586 0.0
H445 H 0.65134 0.04276 0.77271 0.0
H446 H 0.73759 0.87215 0.73179 0.0
H447 H 0.71364 0.93438 0.74726 0.0
H448 H 0.69761 0.02177 0.68648 0.0
C449 C 0.65066 0.14128 0.73391 0.0
C450 C 0.66126 0.03844 0.75381 0.0
C451 C 0.65005 0.17967 0.74279 0.0
C452 C 0.72166 0.89101 0.71919 0.0
C453 C 0.70775 0.92674 0.72811 0.0
C454 C 0.68658 0.02579 0.70515 0.0
C455 C 0.66712 0.11112 0.74823 0.0
C456 C 0.6694 0.07064 0.73843 0.0
C457 C 0.68901 0.95327 0.7121 0.0
C458 C 0.67954 0.99351 0.72071 0.0
H459 H 0.69497 0.16455 0.79853 0.0
H460 H 0.69611 0.09765 0.78299 0.0
H461 H 0.68844 0.08807 0.70168 0.0
H462 H 0.6925 0.89961 0.65889 0.0
H463 H 0.66738 0.96151 0.6746 0.0
C464 C 0.09339 0.30363 0.30359 0.0
C465 C 0.11565 0.27487 0.29146 0.0
C466 C 0.05787 0.31628 0.29352 0.0
C467 C 0.99637 0.31328 0.23636 0.0
H468 H 0.91056 0.31796 0.28329 0.0
C469 C 0.83504 0.29921 0.20681 0.0
C470 C 0.80757 0.32383 0.2183 0.0
C471 C 0.87373 0.29821 0.21508 0.0
C472 C 0.93426 0.31733 0.26997 0.0
H473 H 0.11907 0.2385 0.25851 0.0
H474 H 0.05724 0.26007 0.24122 0.0
H475 H 0.97703 0.30925 0.29844 0.0
H476 H 0.79931 0.3668 0.24745 0.0
H477 H 0.86686 0.36485 0.26194 0.0
H478 H 0.95326 0.32016 0.20786 0.0
C479 C 0.06721 0.27322 0.25838 0.0
C480 C 0.97243 0.31247 0.27865 0.0
C481 C 0.10268 0.26067 0.26839 0.0
C482 C 0.8197 0.34745 0.23822 0.0
C483 C 0.85836 0.34625 0.24659 0.0
C484 C 0.95816 0.31794 0.22768 0.0
C485 C 0.04386 0.30044 0.27112 0.0
C486 C 0.00391 0.30978 0.26194 0.0
C487 C 0.8858 0.32162 0.23511 0.0
C488 C 0.92663 0.31944 0.24437 0.0
H489 H 0.10262 0.31535 0.32133 0.0
H490 H 0.04095 0.33782 0.30359 0.0
H491 H 0.01997 0.31198 0.223 0.0
H492 H 0.8267 0.28066 0.19141 0.0
H493 H 0.89406 0.27852 0.20607 0.0
C494 C 0.19619 0.30625 0.75469 0.0
C495 C 0.19041 0.30187 0.72903 0.0
C496 C 0.19716 0.3434 0.76543 0.0
C497 C 0.17276 0.44792 0.75412 0.0
H498 H 0.25292 0.46547 0.80373 0.0
C499 C 0.22733 0.60109 0.78532 0.0
C500 C 0.23806 0.60557 0.81036 0.0
C501 C 0.21514 0.56467 0.77635 0.0
C502 C 0.22994 0.46097 0.7902 0.0
H503 H 0.18037 0.33309 0.69454 0.0
H504 H 0.18296 0.39794 0.71317 0.0
H505 H 0.24455 0.40064 0.78622 0.0
H506 H 0.24147 0.57618 0.846 0.0
H507 H 0.21982 0.51302 0.83044 0.0
H508 H 0.15903 0.50884 0.75777 0.0
C509 C 0.18607 0.37265 0.72511 0.0
C510 C 0.22511 0.42371 0.78015 0.0
C511 C 0.18486 0.33545 0.71439 0.0
C512 C 0.23386 0.57362 0.82654 0.0
C513 C 0.22166 0.53734 0.81761 0.0
C514 C 0.17774 0.48535 0.76413 0.0
C515 C 0.19266 0.37711 0.75073 0.0
C516 C 0.19656 0.41668 0.76193 0.0
C517 C 0.21344 0.53211 0.79227 0.0
C518 C 0.20645 0.49227 0.78226 0.0
H519 H 0.20017 0.28097 0.76654 0.0
H520 H 0.20156 0.34569 0.78529 0.0
H521 H 0.15017 0.44342 0.74033 0.0
H522 H 0.23029 0.62514 0.77236 0.0
H523 H 0.20912 0.56154 0.75671 0.0
C524 C 0.17631 0.65554 0.24005 0.0
C525 C 0.1876 0.67381 0.21781 0.0
C526 C 0.13708 0.65501 0.2473 0.0
C527 C 0.04489 0.70857 0.23729 0.0
H528 H -0.00117 0.62065 0.2721 0.0
C529 C 0.88608 0.7149 0.26996 0.0
C530 C 0.8805 0.70536 0.29511 0.0
C531 C 0.92069 0.7047 0.25785 0.0
C532 C 0.01134 0.64542 0.26242 0.0
H533 H 0.16635 0.70471 0.18531 0.0
H534 H 0.09799 0.70322 0.19773 0.0
H535 H 0.06546 0.6156 0.25605 0.0
H536 H 0.9056 0.67491 0.32665 0.0
H537 H 0.96604 0.65734 0.30554 0.0
H538 H 0.99124 0.73864 0.24395 0.0
C539 C 0.1195 0.69 0.20986 0.0
C540 C 0.04952 0.6426 0.2533 0.0
C541 C 0.15871 0.69073 0.20269 0.0
C542 C 0.90902 0.68286 0.30731 0.0
C543 C 0.94366 0.67264 0.29517 0.0
C544 C 0.00678 0.71131 0.2463 0.0
C545 C 0.10824 0.67257 0.23241 0.0
C546 C 0.0669 0.67433 0.24086 0.0
C547 C 0.95044 0.6847 0.27059 0.0
C548 C 0.98967 0.67995 0.25919 0.0
H549 H 0.19785 0.64225 0.25213 0.0
H550 H 0.12954 0.64177 0.26493 0.0
H551 H 0.05753 0.73385 0.22824 0.0
H552 H 0.86456 0.73191 0.25992 0.0
H553 H 0.92474 0.71372 0.23874 0.0
C554 C 0.76402 0.39048 0.77399 0.0
C555 C 0.77179 0.37855 0.79847 0.0
C556 C 0.77819 0.42613 0.76513 0.0
C557 C 0.80732 0.52252 0.78881 0.0
H558 H 0.83246 0.54192 0.7197 0.0
C559 C 0.84156 0.67734 0.75108 0.0
C560 C 0.82202 0.68746 0.72903 0.0
C561 C 0.8414 0.63871 0.7596 0.0
C562 C 0.82542 0.53693 0.73905 0.0
H563 H 0.80299 0.39339 0.83224 0.0
H564 H 0.82837 0.4553 0.81659 0.0
H565 H 0.82414 0.47485 0.73423 0.0
H566 H 0.78731 0.66482 0.69851 0.0
H567 H 0.78699 0.59762 0.71341 0.0
H568 H 0.808 0.58465 0.7935 0.0
C569 C 0.8105 0.4375 0.80445 0.0
C570 C 0.82065 0.49853 0.74738 0.0
C571 C 0.79619 0.40186 0.81335 0.0
C572 C 0.80261 0.65807 0.71559 0.0
C573 C 0.8027 0.61946 0.72401 0.0
C574 C 0.8123 0.56089 0.7805 0.0
C575 C 0.80066 0.45061 0.78049 0.0
C576 C 0.81071 0.49089 0.77225 0.0
C577 C 0.82199 0.60936 0.74613 0.0
C578 C 0.82057 0.56854 0.75542 0.0
H579 H 0.74535 0.37325 0.76199 0.0
H580 H 0.76971 0.43537 0.74667 0.0
H581 H 0.79908 0.51782 0.80799 0.0
H582 H 0.85686 0.69927 0.76184 0.0
H583 H 0.8567 0.63174 0.77664 0.0
loop_
_geom_bond_atom_site_label_1
_geom_bond_atom_site_label_2
_geom_bond_distance
_geom_bond_site_symmetry_2
_ccdc_geom_bond_type
C0 O1 1.160 . S
C0 O7 1.185 . S
O1 C0 1.160 . S
O2 Zn3 1.899 . S
O2 C10 1.284 . S
Zn3 O2 1.899 . S
Zn3 O4 2.032 . S
Zn3 O7 2.086 . S
Zn3 O12 1.977 . S
O4 Zn3 2.032 . S
O4 C8 1.278 . S
C5 O6 1.203 . S
C5 O12 1.267 . S
O6 C5 1.203 . S
O7 C0 1.185 . S
O7 Zn3 2.086 . S
C8 O4 1.278 . S
C8 O9 1.211 . S
O9 C8 1.211 . S
C10 O2 1.284 . S
C10 O11 1.273 . S
O11 C10 1.273 . S
O12 Zn3 1.977 . S
O12 C5 1.267 . S
C13 O14 1.160 . S
C13 O20 1.185 . S
O14 C13 1.160 . S
O15 Zn16 1.899 . S
O15 C23 1.284 . S
Zn16 O15 1.899 . S
Zn16 O17 2.032 . S
Zn16 O20 2.086 . S
Zn16 O25 1.977 . S
O17 Zn16 2.032 . S
O17 C21 1.278 . S
C18 O19 1.203 . S
C18 O25 1.267 . S
O19 C18 1.203 . S
O20 C13 1.185 . S
O20 Zn16 2.086 . S
C21 O17 1.278 . S
C21 O22 1.211 . S
O22 C21 1.211 . S
C23 O15 1.284 . S
C23 O24 1.273 . S
O24 C23 1.273 . S
O25 Zn16 1.977 . S
O25 C18 1.267 . S
C26 O27 1.160 . S
C26 O33 1.185 . S
O27 C26 1.160 . S
O28 Zn29 1.899 . S
O28 C36 1.284 . S
Zn29 O28 1.899 . S
Zn29 O30 2.032 . S
Zn29 O33 2.086 . S
Zn29 O38 1.977 . S
O30 Zn29 2.032 . S
O30 C34 1.278 . S
C31 O32 1.203 . S
C31 O38 1.267 . S
O32 C31 1.203 . S
O33 C26 1.185 . S
O33 Zn29 2.086 . S
C34 O30 1.278 . S
C34 O35 1.211 . S
O35 C34 1.211 . S
C36 O28 1.284 . S
C36 O37 1.273 . S
O37 C36 1.273 . S
O38 Zn29 1.977 . S
O38 C31 1.267 . S
C39 O40 1.160 . S
C39 O46 1.185 . S
O40 C39 1.160 . S
O41 Zn42 1.899 . S
O41 C49 1.284 . S
Zn42 O41 1.899 . S
Zn42 O43 2.032 . S
Zn42 O46 2.086 . S
Zn42 O51 1.977 . S
O43 Zn42 2.032 . S
O43 C47 1.278 . S
C44 O45 1.203 . S
C44 O51 1.267 . S
O45 C44 1.203 . S
O46 C39 1.185 . S
O46 Zn42 2.086 . S
C47 O43 1.278 . S
C47 O48 1.211 . S
O48 C47 1.211 . S
C49 O41 1.284 . S
C49 O50 1.273 . S
O50 C49 1.273 . S
O51 Zn42 1.977 . S
O51 C44 1.267 . S
C52 O53 1.160 . S
C52 O59 1.185 . S
O53 C52 1.160 . S
O54 Zn55 1.899 . S
O54 C62 1.284 . S
Zn55 O54 1.899 . S
Zn55 O56 2.032 . S
Zn55 O59 2.086 . S
Zn55 O64 1.977 . S
O56 Zn55 2.032 . S
O56 C60 1.278 . S
C57 O58 1.203 . S
C57 O64 1.267 . S
O58 C57 1.203 . S
O59 C52 1.185 . S
O59 Zn55 2.086 . S
C60 O56 1.278 . S
C60 O61 1.211 . S
O61 C60 1.211 . S
C62 O54 1.284 . S
C62 O63 1.273 . S
O63 C62 1.273 . S
O64 Zn55 1.977 . S
O64 C57 1.267 . S
C65 O66 1.160 . S
C65 O72 1.185 . S
O66 C65 1.160 . S
O67 Zn68 1.899 . S
O67 C75 1.284 . S
Zn68 O67 1.899 . S
Zn68 O69 2.032 . S
Zn68 O72 2.086 . S
Zn68 O77 1.977 . S
O69 Zn68 2.032 . S
O69 C73 1.278 . S
C70 O71 1.203 . S
C70 O77 1.267 . S
O71 C70 1.203 . S
O72 C65 1.185 . S
O72 Zn68 2.086 . S
C73 O69 1.278 . S
C73 O74 1.211 . S
O74 C73 1.211 . S
C75 O67 1.284 . S
C75 O76 1.273 . S
O76 C75 1.273 . S
O77 Zn68 1.977 . S
O77 C70 1.267 . S
C78 O79 1.160 . S
C78 O85 1.185 . S
O79 C78 1.160 . S
O80 Zn81 1.899 . S
O80 C88 1.284 . S
Zn81 O80 1.899 . S
Zn81 O82 2.032 . S
Zn81 O85 2.086 . S
Zn81 O90 1.977 . S
O82 Zn81 2.032 . S
O82 C86 1.278 . S
C83 O84 1.203 . S
C83 O90 1.267 . S
O84 C83 1.203 . S
O85 C78 1.185 . S
O85 Zn81 2.086 . S
C86 O82 1.278 . S
C86 O87 1.211 . S
O87 C86 1.211 . S
C88 O80 1.284 . S
C88 O89 1.273 . S
O89 C88 1.273 . S
O90 Zn81 1.977 . S
O90 C83 1.267 . S
C91 O92 1.160 . S
C91 O98 1.185 . S
O92 C91 1.160 . S
O93 Zn94 1.899 . S
O93 C101 1.284 . S
Zn94 O93 1.899 . S
Zn94 O95 2.032 . S
Zn94 O98 2.086 . S
Zn94 O103 1.977 . S
O95 Zn94 2.032 . S
O95 C99 1.278 . S
C96 O97 1.203 . S
C96 O103 1.267 . S
O97 C96 1.203 . S
O98 C91 1.185 . S
O98 Zn94 2.086 . S
C99 O95 1.278 . S
C99 O100 1.211 . S
O100 C99 1.211 . S
C101 O93 1.284 . S
C101 O102 1.273 . S
O102 C101 1.273 . S
O103 Zn94 1.977 . S
O103 C96 1.267 . S
C104 C105 1.349 . S
C104 C106 1.327 . S
C104 H129 0.950 . S
C105 C104 1.349 . S
C105 C121 1.349 . S
C106 C104 1.327 . S
C106 C125 1.429 . S
C106 H130 0.950 . S
C107 C124 1.594 1_545 S
C107 C126 1.349 1_655 S
C107 H131 0.950 . S
H108 C112 0.950 . S
C109 C110 1.349 . S
C109 C111 1.327 . S
C109 H132 0.950 . S
C110 C109 1.349 . S
C110 C122 1.349 . S
C111 C109 1.327 . S
C111 C127 1.429 . S
C111 H133 0.950 . S
C112 H108 0.950 . S
C112 C120 1.594 1_565 S
C112 C128 1.349 1_455 S
H113 C121 0.950 . S
H114 C119 0.950 . S
H115 C120 0.949 . S
H116 C122 0.950 . S
H117 C123 0.950 . S
H118 C124 0.949 . S
C119 H114 0.950 . S
C119 C121 1.327 . S
C119 C125 1.429 . S
C120 C112 1.594 1_545 S
C120 H115 0.949 . S
C120 C126 1.368 . S
C121 C105 1.349 . S
C121 H113 0.950 . S
C121 C119 1.327 . S
C122 C110 1.349 . S
C122 H116 0.950 . S
C122 C123 1.327 . S
C123 H117 0.950 . S
C123 C122 1.327 . S
C123 C127 1.429 . S
C124 C107 1.594 1_565 S
C124 H118 0.949 . S
C124 C128 1.368 . S
C125 C106 1.429 . S
C125 C119 1.429 . S
C125 C126 1.523 . S
C126 C107 1.349 1_455 S
C126 C120 1.368 . S
C126 C125 1.523 . S
C127 C111 1.429 . S
C127 C123 1.429 . S
C127 C128 1.523 . S
C128 C112 1.349 1_655 S
C128 C124 1.368 . S
C128 C127 1.523 . S
H129 C104 0.950 . S
H130 C106 0.950 . S
H131 C107 0.950 . S
H132 C109 0.950 . S
H133 C111 0.950 . S
C134 C135 1.349 . S
C134 C136 1.327 . S
C134 H159 0.950 . S
C135 C134 1.349 . S
C135 C151 1.349 . S
C136 C134 1.327 . S
C136 C155 1.429 . S
C136 H160 0.950 . S
C137 C154 1.574 . S
C137 C156 1.368 . S
C137 H161 0.949 . S
H138 C142 0.949 . S
C139 C140 1.349 . S
C139 C141 1.327 . S
C139 H162 0.950 . S
C140 C139 1.349 . S
C140 C152 1.349 . S
C141 C139 1.327 . S
C141 C157 1.429 . S
C141 H163 0.950 . S
C142 H138 0.949 . S
C142 C150 1.574 . S
C142 C158 1.368 . S
H143 C151 0.950 . S
H144 C149 0.950 . S
H145 C150 0.949 . S
H146 C152 0.950 . S
H147 C153 0.950 . S
H148 C154 0.949 . S
C149 H144 0.950 . S
C149 C151 1.327 . S
C149 C155 1.429 . S
C150 C142 1.574 . S
C150 H145 0.949 . S
C150 C156 1.368 . S
C151 C135 1.349 . S
C151 H143 0.950 . S
C151 C149 1.327 . S
C152 C140 1.349 . S
C152 H146 0.950 . S
C152 C153 1.327 . S
C153 H147 0.950 . S
C153 C152 1.327 . S
C153 C157 1.429 . S
C154 C137 1.574 . S
C154 H148 0.949 . S
C154 C158 1.368 . S
C155 C136 1.429 . S
C155 C149 1.429 . S
C155 C156 1.523 . S
C156 C137 1.368 . S
C156 C150 1.368 . S
C156 C155 1.523 . S
C157 C141 1.429 . S
C157 C153 1.429 . S
C157 C158 1.523 . S
C158 C142 1.368 . S
C158 C154 1.368 . S
C158 C157 1.523 . S
H159 C134 0.950 . S
H160 C136 0.950 . S
H161 C137 0.949 . S
H162 C139 0.950 . S
H163 C141 0.950 . S
C164 C165 1.349 . S
C164 C166 1.327 . S
C164 H189 0.950 . S
C165 C164 1.349 . S
C165 C181 1.349 . S
C166 C164 1.327 . S
C166 C185 1.429 . S
C166 H190 0.950 . S
C167 C184 1.574 . S
C167 C186 1.368 . S
C167 H191 0.949 . S
H168 C172 0.949 . S
C169 C170 1.349 . S
C169 C171 1.327 . S
C169 H192 0.950 . S
C170 C169 1.349 . S
C170 C182 1.349 . S
C171 C169 1.327 . S
C171 C187 1.429 . S
C171 H193 0.950 . S
C172 H168 0.949 . S
C172 C180 1.574 . S
C172 C188 1.368 . S
H173 C181 0.950 . S
H174 C179 0.950 . S
H175 C180 0.949 . S
H176 C182 0.950 . S
H177 C183 0.950 . S
H178 C184 0.949 . S
C179 H174 0.950 . S
C179 C181 1.327 . S
C179 C185 1.429 . S
C180 C172 1.574 . S
C180 H175 0.949 . S
C180 C186 1.368 . S
C181 C165 1.349 . S
C181 H173 0.950 . S
C181 C179 1.327 . S
C182 C170 1.349 . S
C182 H176 0.950 . S
C182 C183 1.327 . S
C183 H177 0.950 . S
C183 C182 1.327 . S
C183 C187 1.429 . S
C184 C167 1.574 . S
C184 H178 0.949 . S
C184 C188 1.368 . S
C185 C166 1.429 . S
C185 C179 1.429 . S
C185 C186 1.523 . S
C186 C167 1.368 . S
C186 C180 1.368 . S
C186 C185 1.523 . S
C187 C171 1.429 . S
C187 C183 1.429 . S
C187 C188 1.523 . S
C188 C172 1.368 . S
C188 C184 1.368 . S
C188 C187 1.523 . S
H189 C164 0.950 . S
H190 C166 0.950 . S
H191 C167 0.949 . S
H192 C169 0.950 . S
H193 C171 0.950 . S
C194 C195 1.349 . S
C194 C196 1.327 . S
C194 H219 0.950 . S
C195 C194 1.349 . S
C195 C211 1.349 . S
C196 C194 1.327 . S
C196 C215 1.429 . S
C196 H220 0.950 . S
C197 C214 1.594 1_455 S
C197 C216 1.349 1_565 S
C197 H221 0.950 . S
H198 C202 0.950 . S
C199 C200 1.349 . S
C199 C201 1.327 . S
C199 H222 0.950 . S
C200 C199 1.349 . S
C200 C212 1.349 . S
C201 C199 1.327 . S
C201 C217 1.429 . S
C201 H223 0.950 . S
C202 H198 0.950 . S
C202 C210 1.594 1_655 S
C202 C218 1.349 1_545 S
H203 C211 0.950 . S
H204 C209 0.950 . S
H205 C210 0.949 . S
H206 C212 0.950 . S
H207 C213 0.950 . S
H208 C214 0.949 . S
C209 H204 0.950 . S
C209 C211 1.327 . S
C209 C215 1.429 . S
C210 C202 1.594 1_455 S
C210 H205 0.949 . S
C210 C216 1.368 . S
C211 C195 1.349 . S
C211 H203 0.950 . S
C211 C209 1.327 . S
C212 C200 1.349 . S
C212 H206 0.950 . S
C212 C213 1.327 . S
C213 H207 0.950 . S
C213 C212 1.327 . S
C213 C217 1.429 . S
C214 C197 1.594 1_655 S
C214 H208 0.949 . S
C214 C218 1.368 . S
C215 C196 1.429 . S
C215 C209 1.429 . S
C215 C216 1.523 . S
C216 C197 1.349 1_545 S
C216 C210 1.368 . S
C216 C215 1.523 . S
C217 C201 1.429 . S
C217 C213 1.429 . S
C217 C218 1.523 . S
C218 C202 1.349 1_565 S
C218 C214 1.368 . S
C218 C217 1.523 . S
H219 C194 0.950 . S
H220 C196 0.950 . S
H221 C197 0.950 . S
H222 C199 0.950 . S
H223 C201 0.950 . S
C224 C225 1.349 . S
C224 C226 1.327 . S
C224 H249 0.950 . S
C225 C224 1.349 . S
C225 C241 1.349 . S
C226 C224 1.327 . S
C226 C245 1.429 . S
C226 H250 0.950 . S
C227 C244 1.574 . S
C227 C246 1.368 . S
C227 H251 0.949 . S
H228 C232 0.949 . S
C229 C230 1.349 . S
C229 C231 1.327 . S
C229 H252 0.950 . S
C230 C229 1.349 . S
C230 C242 1.349 . S
C231 C229 1.327 . S
C231 C247 1.429 . S
C231 H253 0.950 . S
C232 H228 0.949 . S
C232 C240 1.574 . S
C232 C248 1.368 . S
H233 C241 0.950 . S
H234 C239 0.950 . S
H235 C240 0.949 . S
H236 C242 0.950 . S
H237 C243 0.950 . S
H238 C244 0.949 . S
C239 H234 0.950 . S
C239 C241 1.327 . S
C239 C245 1.429 . S
C240 C232 1.574 . S
C240 H235 0.949 . S
C240 C246 1.368 . S
C241 C225 1.349 . S
C241 H233 0.950 . S
C241 C239 1.327 . S
C242 C230 1.349 . S
C242 H236 0.950 . S
C242 C243 1.327 . S
C243 H237 0.950 . S
C243 C242 1.327 . S
C243 C247 1.429 . S
C244 C227 1.574 . S
C244 H238 0.949 . S
C244 C248 1.368 . S
C245 C226 1.429 . S
C245 C239 1.429 . S
C245 C246 1.523 . S
C246 C227 1.368 . S
C246 C240 1.368 . S
C246 C245 1.523 . S
C247 C231 1.429 . S
C247 C243 1.429 . S
C247 C248 1.523 . S
C248 C232 1.368 . S
C248 C244 1.368 . S
C248 C247 1.523 . S
H249 C224 0.950 . S
H250 C226 0.950 . S
H251 C227 0.949 . S
H252 C229 0.950 . S
H253 C231 0.950 . S
C254 C255 1.349 . S
C254 C256 1.327 . S
C254 H279 0.950 . S
C255 C254 1.349 . S
C255 C271 1.349 . S
C256 C254 1.327 . S
C256 C275 1.429 . S
C256 H280 0.950 . S
C257 C274 1.574 1_556 S
C257 C276 1.368 . S
C257 H281 0.949 . S
H258 C262 0.949 . S
C259 C260 1.349 . S
C259 C261 1.327 . S
C259 H282 0.950 . S
C260 C259 1.349 . S
C260 C272 1.349 . S
C261 C259 1.327 . S
C261 C277 1.429 . S
C261 H283 0.950 . S
C262 H258 0.949 . S
C262 C270 1.574 1_554 S
C262 C278 1.368 . S
H263 C271 0.950 . S
H264 C269 0.950 . S
H265 C270 0.949 . S
H266 C272 0.950 . S
H267 C273 0.950 . S
H268 C274 0.949 . S
C269 H264 0.950 . S
C269 C271 1.327 . S
C269 C275 1.429 . S
C270 C262 1.574 1_556 S
C270 H265 0.949 . S
C270 C276 1.368 . S
C271 C255 1.349 . S
C271 H263 0.950 . S
C271 C269 1.327 . S
C272 C260 1.349 . S
C272 H266 0.950 . S
C272 C273 1.327 . S
C273 H267 0.950 . S
C273 C272 1.327 . S
C273 C277 1.429 . S
C274 C257 1.574 1_554 S
C274 H268 0.949 . S
C274 C278 1.368 . S
C275 C256 1.429 . S
C275 C269 1.429 . S
C275 C276 1.523 . S
C276 C257 1.368 . S
C276 C270 1.368 . S
C276 C275 1.523 . S
C277 C261 1.429 . S
C277 C273 1.429 . S
C277 C278 1.523 . S
C278 C262 1.368 . S
C278 C274 1.368 . S
C278 C277 1.523 . S
H279 C254 0.950 . S
H280 C256 0.950 . S
H281 C257 0.949 . S
H282 C259 0.950 . S
H283 C261 0.950 . S
C284 C285 1.349 . S
C284 C286 1.327 . S
C284 H309 0.950 . S
C285 C284 1.349 . S
C285 C301 1.349 . S
C286 C284 1.327 . S
C286 C305 1.429 . S
C286 H310 0.950 . S
C287 C304 1.574 . S
C287 C306 1.368 . S
C287 H311 0.949 . S
H288 C292 0.949 . S
C289 C290 1.349 . S
C289 C291 1.327 . S
C289 H312 0.950 . S
C290 C289 1.349 . S
C290 C302 1.349 . S
C291 C289 1.327 . S
C291 C307 1.429 . S
C291 H313 0.950 . S
C292 H288 0.949 . S
C292 C300 1.574 . S
C292 C308 1.368 . S
H293 C301 0.950 . S
H294 C299 0.950 . S
H295 C300 0.949 . S
H296 C302 0.950 . S
H297 C303 0.950 . S
H298 C304 0.949 . S
C299 H294 0.950 . S
C299 C301 1.327 . S
C299 C305 1.429 . S
C300 C292 1.574 . S
C300 H295 0.949 . S
C300 C306 1.368 . S
C301 C285 1.349 . S
C301 H293 0.950 . S
C301 C299 1.327 . S
C302 C290 1.349 . S
C302 H296 0.950 . S
C302 C303 1.327 . S
C303 H297 0.950 . S
C303 C302 1.327 . S
C303 C307 1.429 . S
C304 C287 1.574 . S
C304 H298 0.949 . S
C304 C308 1.368 . S
C305 C286 1.429 . S
C305 C299 1.429 . S
C305 C306 1.523 . S
C306 C287 1.368 . S
C306 C300 1.368 . S
C306 C305 1.523 . S
C307 C291 1.429 . S
C307 C303 1.429 . S
C307 C308 1.523 . S
C308 C292 1.368 . S
C308 C304 1.368 . S
C308 C307 1.523 . S
H309 C284 0.950 . S
H310 C286 0.950 . S
H311 C287 0.949 . S
H312 C289 0.950 . S
H313 C291 0.950 . S
C314 C315 1.349 . S
C314 C316 1.327 . S
C314 H339 0.950 . S
C315 C314 1.349 . S
C315 C331 1.349 . S
C316 C314 1.327 . S
C316 C335 1.429 . S
C316 H340 0.950 . S
C317 C334 1.574 1_556 S
C317 C336 1.368 . S
C317 H341 0.949 . S
H318 C322 0.949 . S
C319 C320 1.349 . S
C319 C321 1.327 . S
C319 H342 0.950 . S
C320 C319 1.349 . S
C320 C332 1.349 . S
C321 C319 1.327 . S
C321 C337 1.429 . S
C321 H343 0.950 . S
C322 H318 0.949 . S
C322 C330 1.574 1_554 S
C322 C338 1.368 . S
H323 C331 0.950 . S
H324 C329 0.950 . S
H325 C330 0.949 . S
H326 C332 0.950 . S
H327 C333 0.950 . S
H328 C334 0.949 . S
C329 H324 0.950 . S
C329 C331 1.327 . S
C329 C335 1.429 . S
C330 C322 1.574 1_556 S
C330 H325 0.949 . S
C330 C336 1.368 . S
C331 C315 1.349 . S
C331 H323 0.950 . S
C331 C329 1.327 . S
C332 C320 1.349 . S
C332 H326 0.950 . S
C332 C333 1.327 . S
C333 H327 0.950 . S
C333 C332 1.327 . S
C333 C337 1.429 . S
C334 C317 1.574 1_554 S
C334 H328 0.949 . S
C334 C338 1.368 . S
C335 C316 1.429 . S
C335 C329 1.429 . S
C335 C336 1.523 . S
C336 C317 1.368 . S
C336 C330 1.368 . S
C336 C335 1.523 . S
C337 C321 1.429 . S
C337 C333 1.429 . S
C337 C338 1.523 . S
C338 C322 1.368 . S
C338 C334 1.368 . S
C338 C337 1.523 . S
H339 C314 0.950 . S
H340 C316 0.950 . S
H341 C317 0.949 . S
H342 C319 0.950 . S
H343 C321 0.950 . S
C344 C345 1.349 . S
C344 C346 1.327 . S
C344 H369 0.950 . S
C345 C344 1.349 . S
C345 C361 1.349 . S
C346 C344 1.327 . S
C346 C365 1.429 . S
C346 H370 0.950 . S
C347 C364 1.574 . S
C347 C366 1.368 . S
C347 H371 0.949 . S
H348 C352 0.949 . S
C349 C350 1.349 . S
C349 C351 1.327 . S
C349 H372 0.950 . S
C350 C349 1.349 . S
C350 C362 1.349 . S
C351 C349 1.327 . S
C351 C367 1.429 . S
C351 H373 0.950 . S
C352 H348 0.949 . S
C352 C360 1.574 . S
C352 C368 1.368 . S
H353 C361 0.950 . S
H354 C359 0.950 . S
H355 C360 0.949 . S
H356 C362 0.950 . S
H357 C363 0.950 . S
H358 C364 0.949 . S
C359 H354 0.950 . S
C359 C361 1.327 . S
C359 C365 1.429 . S
C360 C352 1.574 . S
C360 H355 0.949 . S
C360 C366 1.368 . S
C361 C345 1.349 . S
C361 H353 0.950 . S
C361 C359 1.327 . S
C362 C350 1.349 . S
C362 H356 0.950 . S
C362 C363 1.327 . S
C363 H357 0.950 . S
C363 C362 1.327 . S
C363 C367 1.429 . S
C364 C347 1.574 . S
C364 H358 0.949 . S
C364 C368 1.368 . S
C365 C346 1.429 . S
C365 C359 1.429 . S
C365 C366 1.523 . S
C366 C347 1.368 . S
C366 C360 1.368 . S
C366 C365 1.523 . S
C367 C351 1.429 . S
C367 C363 1.429 . S
C367 C368 1.523 . S
C368 C352 1.368 . S
C368 C364 1.368 . S
C368 C367 1.523 . S
H369 C344 0.950 . S
H370 C346 0.950 . S
H371 C347 0.949 . S
H372 C349 0.950 . S
H373 C351 0.950 . S
C374 C375 1.349 . S
C374 C376 1.327 . S
C374 H399 0.950 . S
C375 C374 1.349 . S
C375 C391 1.349 . S
C376 C374 1.327 . S
C376 C395 1.429 . S
C376 H400 0.950 . S
C377 C394 1.574 . S
C377 C396 1.368 . S
C377 H401 0.949 . S
H378 C382 0.949 . S
C379 C380 1.349 . S
C379 C381 1.327 1_545 S
C379 H402 0.950 . S
C380 C379 1.349 . S
C380 C392 1.349 . S
C381 C379 1.327 1_565 S
C381 C397 1.429 . S
C381 H403 0.950 . S
C382 H378 0.949 . S
C382 C390 1.574 . S
C382 C398 1.368 . S
H383 C391 0.950 . S
H384 C389 0.950 . S
H385 C390 0.949 . S
H386 C392 0.950 . S
H387 C393 0.950 . S
H388 C394 0.949 . S
C389 H384 0.950 . S
C389 C391 1.327 . S
C389 C395 1.429 . S
C390 C382 1.574 . S
C390 H385 0.949 . S
C390 C396 1.368 . S
C391 C375 1.349 . S
C391 H383 0.950 . S
C391 C389 1.327 . S
C392 C380 1.349 . S
C392 H386 0.950 . S
C392 C393 1.327 1_545 S
C393 H387 0.950 . S
C393 C392 1.327 1_565 S
C393 C397 1.429 . S
C394 C377 1.574 . S
C394 H388 0.949 . S
C394 C398 1.368 . S
C395 C376 1.429 . S
C395 C389 1.429 . S
C395 C396 1.523 . S
C396 C377 1.368 . S
C396 C390 1.368 . S
C396 C395 1.523 . S
C397 C381 1.429 . S
C397 C393 1.429 . S
C397 C398 1.523 . S
C398 C382 1.368 . S
C398 C394 1.368 . S
C398 C397 1.523 . S
H399 C374 0.950 . S
H400 C376 0.950 . S
H401 C377 0.949 . S
H402 C379 0.950 . S
H403 C381 0.950 . S
C404 C405 1.349 . S
C404 C406 1.327 . S
C404 H429 0.950 . S
C405 C404 1.349 . S
C405 C421 1.349 . S
C406 C404 1.327 . S
C406 C425 1.429 . S
C406 H430 0.950 . S
C407 C424 1.574 . S
C407 C426 1.368 . S
C407 H431 0.949 . S
H408 C412 0.949 . S
C409 C410 1.349 . S
C409 C411 1.327 . S
C409 H432 0.950 . S
C410 C409 1.349 . S
C410 C422 1.349 . S
C411 C409 1.327 . S
C411 C427 1.429 . S
C411 H433 0.950 . S
C412 H408 0.949 . S
C412 C420 1.574 . S
C412 C428 1.368 . S
H413 C421 0.950 . S
H414 C419 0.950 . S
H415 C420 0.949 . S
H416 C422 0.950 . S
H417 C423 0.950 . S
H418 C424 0.949 . S
C419 H414 0.950 . S
C419 C421 1.327 . S
C419 C425 1.429 . S
C420 C412 1.574 . S
C420 H415 0.949 . S
C420 C426 1.368 . S
C421 C405 1.349 . S
C421 H413 0.950 . S
C421 C419 1.327 . S
C422 C410 1.349 . S
C422 H416 0.950 . S
C422 C423 1.327 . S
C423 H417 0.950 . S
C423 C422 1.327 . S
C423 C427 1.429 . S
C424 C407 1.574 . S
C424 H418 0.949 . S
C424 C428 1.368 . S
C425 C406 1.429 . S
C425 C419 1.429 . S
C425 C426 1.523 . S
C426 C407 1.368 . S
C426 C420 1.368 . S
C426 C425 1.523 . S
C427 C411 1.429 . S
C427 C423 1.429 . S
C427 C428 1.523 . S
C428 C412 1.368 . S
C428 C424 1.368 . S
C428 C427 1.523 . S
H429 C404 0.950 . S
H430 C406 0.950 . S
H431 C407 0.949 . S
H432 C409 0.950 . S
H433 C411 0.950 . S
C434 C435 1.349 . S
C434 C436 1.327 . S
C434 H459 0.950 . S
C435 C434 1.349 . S
C435 C451 1.349 . S
C436 C434 1.327 . S
C436 C455 1.429 . S
C436 H460 0.950 . S
C437 C454 1.574 . S
C437 C456 1.368 . S
C437 H461 0.949 . S
H438 C442 0.949 . S
C439 C440 1.349 . S
C439 C441 1.327 1_565 S
C439 H462 0.950 . S
C440 C439 1.349 . S
C440 C452 1.349 . S
C441 C439 1.327 1_545 S
C441 C457 1.429 . S
C441 H463 0.950 . S
C442 H438 0.949 . S
C442 C450 1.574 . S
C442 C458 1.368 . S
H443 C451 0.950 . S
H444 C449 0.950 . S
H445 C450 0.949 . S
H446 C452 0.950 . S
H447 C453 0.950 . S
H448 C454 0.949 . S
C449 H444 0.950 . S
C449 C451 1.327 . S
C449 C455 1.429 . S
C450 C442 1.574 . S
C450 H445 0.949 . S
C450 C456 1.368 . S
C451 C435 1.349 . S
C451 H443 0.950 . S
C451 C449 1.327 . S
C452 C440 1.349 . S
C452 H446 0.950 . S
C452 C453 1.327 1_565 S
C453 H447 0.950 . S
C453 C452 1.327 1_545 S
C453 C457 1.429 . S
C454 C437 1.574 . S
C454 H448 0.949 . S
C454 C458 1.368 . S
C455 C436 1.429 . S
C455 C449 1.429 . S
C455 C456 1.523 . S
C456 C437 1.368 . S
C456 C450 1.368 . S
C456 C455 1.523 . S
C457 C441 1.429 . S
C457 C453 1.429 . S
C457 C458 1.523 . S
C458 C442 1.368 . S
C458 C454 1.368 . S
C458 C457 1.523 . S
H459 C434 0.950 . S
H460 C436 0.950 . S
H461 C437 0.949 . S
H462 C439 0.950 . S
H463 C441 0.950 . S
C464 C465 1.349 . S
C464 C466 1.327 1_455 S
C464 H489 0.950 . S
C465 C464 1.349 . S
C465 C481 1.349 . S
C466 C464 1.327 1_655 S
C466 C485 1.429 . S
C466 H490 0.950 . S
C467 C484 1.574 . S
C467 C486 1.368 . S
C467 H491 0.949 . S
H468 C472 0.949 . S
C469 C470 1.349 . S
C469 C471 1.327 . S
C469 H492 0.950 . S
C470 C469 1.349 . S
C470 C482 1.349 . S
C471 C469 1.327 . S
C471 C487 1.429 . S
C471 H493 0.950 . S
C472 H468 0.949 . S
C472 C480 1.574 . S
C472 C488 1.368 . S
H473 C481 0.950 . S
H474 C479 0.950 . S
H475 C480 0.949 . S
H476 C482 0.950 . S
H477 C483 0.950 . S
H478 C484 0.949 . S
C479 H474 0.950 . S
C479 C481 1.327 1_655 S
C479 C485 1.429 . S
C480 C472 1.574 . S
C480 H475 0.949 . S
C480 C486 1.368 . S
C481 C465 1.349 . S
C481 H473 0.950 . S
C481 C479 1.327 1_455 S
C482 C470 1.349 . S
C482 H476 0.950 . S
C482 C483 1.327 . S
C483 H477 0.950 . S
C483 C482 1.327 . S
C483 C487 1.429 . S
C484 C467 1.574 . S
C484 H478 0.949 . S
C484 C488 1.368 . S
C485 C466 1.429 . S
C485 C479 1.429 . S
C485 C486 1.523 . S
C486 C467 1.368 . S
C486 C480 1.368 . S
C486 C485 1.523 . S
C487 C471 1.429 . S
C487 C483 1.429 . S
C487 C488 1.523 . S
C488 C472 1.368 . S
C488 C484 1.368 . S
C488 C487 1.523 . S
H489 C464 0.950 . S
H490 C466 0.950 . S
H491 C467 0.949 . S
H492 C469 0.950 . S
H493 C471 0.950 . S
C494 C495 1.349 . S
C494 C496 1.327 . S
C494 H519 0.950 . S
C495 C494 1.349 . S
C495 C511 1.349 . S
C496 C494 1.327 . S
C496 C515 1.429 . S
C496 H520 0.950 . S
C497 C514 1.574 . S
C497 C516 1.368 . S
C497 H521 0.949 . S
H498 C502 0.949 . S
C499 C500 1.349 . S
C499 C501 1.327 . S
C499 H522 0.950 . S
C500 C499 1.349 . S
C500 C512 1.349 . S
C501 C499 1.327 . S
C501 C517 1.429 . S
C501 H523 0.950 . S
C502 H498 0.949 . S
C502 C510 1.574 . S
C502 C518 1.368 . S
H503 C511 0.950 . S
H504 C509 0.950 . S
H505 C510 0.949 . S
H506 C512 0.950 . S
H507 C513 0.950 . S
H508 C514 0.949 . S
C509 H504 0.950 . S
C509 C511 1.327 . S
C509 C515 1.429 . S
C510 C502 1.574 . S
C510 H505 0.949 . S
C510 C516 1.368 . S
C511 C495 1.349 . S
C511 H503 0.950 . S
C511 C509 1.327 . S
C512 C500 1.349 . S
C512 H506 0.950 . S
C512 C513 1.327 . S
C513 H507 0.950 . S
C513 C512 1.327 . S
C513 C517 1.429 . S
C514 C497 1.574 . S
C514 H508 0.949 . S
C514 C518 1.368 . S
C515 C496 1.429 . S
C515 C509 1.429 . S
C515 C516 1.523 . S
C516 C497 1.368 . S
C516 C510 1.368 . S
C516 C515 1.523 . S
C517 C501 1.429 . S
C517 C513 1.429 . S
C517 C518 1.523 . S
C518 C502 1.368 . S
C518 C514 1.368 . S
C518 C517 1.523 . S
H519 C494 0.950 . S
H520 C496 0.950 . S
H521 C497 0.949 . S
H522 C499 0.950 . S
H523 C501 0.950 . S
C524 C525 1.349 . S
C524 C526 1.327 . S
C524 H549 0.950 . S
C525 C524 1.349 . S
C525 C541 1.349 . S
C526 C524 1.327 . S
C526 C545 1.429 . S
C526 H550 0.950 . S
C527 C544 1.574 . S
C527 C546 1.368 . S
C527 H551 0.949 . S
H528 C532 0.949 . S
C529 C530 1.349 . S
C529 C531 1.327 1_655 S
C529 H552 0.950 . S
C530 C529 1.349 . S
C530 C542 1.349 . S
C531 C529 1.327 1_455 S
C531 C547 1.429 . S
C531 H553 0.950 . S
C532 H528 0.949 . S
C532 C540 1.574 . S
C532 C548 1.368 . S
H533 C541 0.950 . S
H534 C539 0.950 . S
H535 C540 0.949 . S
H536 C542 0.950 . S
H537 C543 0.950 . S
H538 C544 0.949 . S
C539 H534 0.950 . S
C539 C541 1.327 . S
C539 C545 1.429 . S
C540 C532 1.574 . S
C540 H535 0.949 . S
C540 C546 1.368 . S
C541 C525 1.349 . S
C541 H533 0.950 . S
C541 C539 1.327 . S
C542 C530 1.349 . S
C542 H536 0.950 . S
C542 C543 1.327 1_655 S
C543 H537 0.950 . S
C543 C542 1.327 1_455 S
C543 C547 1.429 . S
C544 C527 1.574 . S
C544 H538 0.949 . S
C544 C548 1.368 . S
C545 C526 1.429 . S
C545 C539 1.429 . S
C545 C546 1.523 . S
C546 C527 1.368 . S
C546 C540 1.368 . S
C546 C545 1.523 . S
C547 C531 1.429 . S
C547 C543 1.429 . S
C547 C548 1.523 . S
C548 C532 1.368 . S
C548 C544 1.368 . S
C548 C547 1.523 . S
H549 C524 0.950 . S
H550 C526 0.950 . S
H551 C527 0.949 . S
H552 C529 0.950 . S
H553 C531 0.950 . S
C554 C555 1.349 . S
C554 C556 1.327 . S
C554 H579 0.950 . S
C555 C554 1.349 . S
C555 C571 1.349 . S
C556 C554 1.327 . S
C556 C575 1.429 . S
C556 H580 0.950 . S
C557 C574 1.574 . S
C557 C576 1.368 . S
C557 H581 0.949 . S
H558 C562 0.949 . S
C559 C560 1.349 . S
C559 C561 1.327 . S
C559 H582 0.950 . S
C560 C559 1.349 . S
C560 C572 1.349 . S
C561 C559 1.327 . S
C561 C577 1.429 . S
C561 H583 0.950 . S
C562 H558 0.949 . S
C562 C570 1.574 . S
C562 C578 1.368 . S
H563 C571 0.950 . S
H564 C569 0.950 . S
H565 C570 0.949 . S
H566 C572 0.950 . S
H567 C573 0.950 . S
H568 C574 0.949 . S
C569 H564 0.950 . S
C569 C571 1.327 . S
C569 C575 1.429 . S
C570 C562 1.574 . S
C570 H565 0.949 . S
C570 C576 1.368 . S
C571 C555 1.349 . S
C571 H563 0.950 . S
C571 C569 1.327 . S
C572 C560 1.349 . S
C572 H566 0.950 . S
C572 C573 1.327 . S
C573 H567 0.950 . S
C573 C572 1.327 . S
C573 C577 1.429 . S
C574 C557 1.574 . S
C574 H568 0.949 . S
C574 C578 1.368 . S
C575 C556 1.429 . S
C575 C569 1.429 . S
C575 C576 1.523 . S
C576 C557 1.368 . S
C576 C570 1.368 . S
C576 C575 1.523 . S
C577 C561 1.429 . S
C577 C573 1.429 . S
C577 C578 1.523 . S
C578 C562 1.368 . S
C578 C574 1.368 . S
C578 C577 1.523 . S
H579 C554 0.950 . S
H580 C556 0.950 . S
H581 C557 0.949 . S
H582 C559 0.950 . S
H583 C561 0.950 . S
C105 C5 0.598 . S
C110 C31 0.598 . S
C135 C18 0.598 . S
C140 C44 0.598 . S
C165 C57 0.598 . S
C170 C83 0.598 . S
C195 C70 0.598 . S
C200 C96 0.598 . S
C225 C8 1.319 . S
C230 C73 1.319 . S
C255 C21 1.319 . S
C260 C86 1.319 . S
C285 C99 1.319 . S
C290 C34 1.319 . S
C315 C47 1.319 . S
C320 C60 1.319 . S
C345 C62 1.445 . S
C350 C0 1.473 . S
C375 C13 1.473 . S
C380 C75 1.445 . S
C405 C26 1.473 . S
C410 C88 1.445 . S
C435 C39 1.473 . S
C440 C101 1.445 . S
C465 C10 1.445 . S
C470 C52 1.473 . S
C495 C65 1.473 . S
C500 C23 1.445 . S
C525 C78 1.473 . S
C530 C36 1.445 . S
C555 C49 1.445 . S
C560 C91 1.473 . S
