# Generated by pormake.
# Topology uka, (4)-cn, num edge types: 1
# Building blocks:
#     Node 0, Type 0, BuildingBlock: CEKHIL_clean_sbu_0, # of connection points: 4
#     Node 1, Type 0, BuildingBlock: CEKHIL_clean_sbu_0, # of connection points: 4
#     Node 2, Type 0, BuildingBlock: CEKHIL_clean_sbu_0, # of connection points: 4
#     Node 3, Type 0, BuildingBlock: CEKHIL_clean_sbu_0, # of connection points: 4
#     Node 4, Type 0, BuildingBlock: CEKHIL_clean_sbu_0, # of connection points: 4
#     Node 5, Type 0, BuildingBlock: CEKHIL_clean_sbu_0, # of connection points: 4
#     Node 6, Type 0, BuildingBlock: CEKHIL_clean_sbu_0, # of connection points: 4
#     Node 7, Type 0, BuildingBlock: CEKHIL_clean_sbu_0, # of connection points: 4
#     Node 8, Type 0, BuildingBlock: CEKHIL_clean_sbu_0, # of connection points: 4
#     Node 9, Type 0, BuildingBlock: CEKHIL_clean_sbu_0, # of connection points: 4
#     Node 10, Type 0, BuildingBlock: CEKHIL_clean_sbu_0, # of connection points: 4
#     Node 11, Type 0, BuildingBlock: CEKHIL_clean_sbu_0, # of connection points: 4
#     Node 12, Type 0, BuildingBlock: CEKHIL_clean_sbu_0, # of connection points: 4
#     Node 13, Type 0, BuildingBlock: CEKHIL_clean_sbu_0, # of connection points: 4
#     Node 14, Type 0, BuildingBlock: CEKHIL_clean_sbu_0, # of connection points: 4
#     Node 15, Type 0, BuildingBlock: CEKHIL_clean_sbu_0, # of connection points: 4
#     Node 16, Type 0, BuildingBlock: CEKHIL_clean_sbu_0, # of connection points: 4
#     Node 17, Type 0, BuildingBlock: CEKHIL_clean_sbu_0, # of connection points: 4
#     Node 18, Type 0, BuildingBlock: CEKHIL_clean_sbu_0, # of connection points: 4
#     Node 19, Type 0, BuildingBlock: CEKHIL_clean_sbu_0, # of connection points: 4
#     Node 20, Type 0, BuildingBlock: CEKHIL_clean_sbu_0, # of connection points: 4
#     Node 21, Type 0, BuildingBlock: CEKHIL_clean_sbu_0, # of connection points: 4
#     Node 22, Type 0, BuildingBlock: CEKHIL_clean_sbu_0, # of connection points: 4
#     Node 23, Type 0, BuildingBlock: CEKHIL_clean_sbu_0, # of connection points: 4
#     Node 24, Type 0, BuildingBlock: CEKHIL_clean_sbu_0, # of connection points: 4
#     Node 25, Type 0, BuildingBlock: CEKHIL_clean_sbu_0, # of connection points: 4
#     Node 26, Type 0, BuildingBlock: CEKHIL_clean_sbu_0, # of connection points: 4
#     Node 27, Type 0, BuildingBlock: CEKHIL_clean_sbu_0, # of connection points: 4
#     Node 28, Type 0, BuildingBlock: CEKHIL_clean_sbu_0, # of connection points: 4
#     Node 29, Type 0, BuildingBlock: CEKHIL_clean_sbu_0, # of connection points: 4
#     Node 30, Type 0, BuildingBlock: CEKHIL_clean_sbu_0, # of connection points: 4
#     Node 31, Type 0, BuildingBlock: CEKHIL_clean_sbu_0, # of connection points: 4
#     Edge 32, Type (0, 0), BuildingBlock: OJICUG_clean_linker_0, # of connection points: 2
#     Edge 33, Type (0, 0), BuildingBlock: OJICUG_clean_linker_0, # of connection points: 2
#     Edge 34, Type (0, 0), BuildingBlock: OJICUG_clean_linker_0, # of connection points: 2
#     Edge 35, Type (0, 0), BuildingBlock: OJICUG_clean_linker_0, # of connection points: 2
#     Edge 36, Type (0, 0), BuildingBlock: OJICUG_clean_linker_0, # of connection points: 2
#     Edge 37, Type (0, 0), BuildingBlock: OJICUG_clean_linker_0, # of connection points: 2
#     Edge 38, Type (0, 0), BuildingBlock: OJICUG_clean_linker_0, # of connection points: 2
#     Edge 39, Type (0, 0), BuildingBlock: OJICUG_clean_linker_0, # of connection points: 2
#     Edge 40, Type (0, 0), BuildingBlock: OJICUG_clean_linker_0, # of connection points: 2
#     Edge 41, Type (0, 0), BuildingBlock: OJICUG_clean_linker_0, # of connection points: 2
#     Edge 42, Type (0, 0), BuildingBlock: OJICUG_clean_linker_0, # of connection points: 2
#     Edge 43, Type (0, 0), BuildingBlock: OJICUG_clean_linker_0, # of connection points: 2
#     Edge 44, Type (0, 0), BuildingBlock: OJICUG_clean_linker_0, # of connection points: 2
#     Edge 45, Type (0, 0), BuildingBlock: OJICUG_clean_linker_0, # of connection points: 2
#     Edge 46, Type (0, 0), BuildingBlock: OJICUG_clean_linker_0, # of connection points: 2
#     Edge 47, Type (0, 0), BuildingBlock: OJICUG_clean_linker_0, # of connection points: 2
#     Edge 48, Type (0, 0), BuildingBlock: OJICUG_clean_linker_0, # of connection points: 2
#     Edge 49, Type (0, 0), BuildingBlock: OJICUG_clean_linker_0, # of connection points: 2
#     Edge 50, Type (0, 0), BuildingBlock: OJICUG_clean_linker_0, # of connection points: 2
#     Edge 51, Type (0, 0), BuildingBlock: OJICUG_clean_linker_0, # of connection points: 2
#     Edge 52, Type (0, 0), BuildingBlock: OJICUG_clean_linker_0, # of connection points: 2
#     Edge 53, Type (0, 0), BuildingBlock: OJICUG_clean_linker_0, # of connection points: 2
#     Edge 54, Type (0, 0), BuildingBlock: OJICUG_clean_linker_0, # of connection points: 2
#     Edge 55, Type (0, 0), BuildingBlock: OJICUG_clean_linker_0, # of connection points: 2
#     Edge 56, Type (0, 0), BuildingBlock: OJICUG_clean_linker_0, # of connection points: 2
#     Edge 57, Type (0, 0), BuildingBlock: OJICUG_clean_linker_0, # of connection points: 2
#     Edge 58, Type (0, 0), BuildingBlock: OJICUG_clean_linker_0, # of connection points: 2
#     Edge 59, Type (0, 0), BuildingBlock: OJICUG_clean_linker_0, # of connection points: 2
#     Edge 60, Type (0, 0), BuildingBlock: OJICUG_clean_linker_0, # of connection points: 2
#     Edge 61, Type (0, 0), BuildingBlock: OJICUG_clean_linker_0, # of connection points: 2
#     Edge 62, Type (0, 0), BuildingBlock: OJICUG_clean_linker_0, # of connection points: 2
#     Edge 63, Type (0, 0), BuildingBlock: OJICUG_clean_linker_0, # of connection points: 2
#     Edge 64, Type (0, 0), BuildingBlock: OJICUG_clean_linker_0, # of connection points: 2
#     Edge 65, Type (0, 0), BuildingBlock: OJICUG_clean_linker_0, # of connection points: 2
#     Edge 66, Type (0, 0), BuildingBlock: OJICUG_clean_linker_0, # of connection points: 2
#     Edge 67, Type (0, 0), BuildingBlock: OJICUG_clean_linker_0, # of connection points: 2
#     Edge 68, Type (0, 0), BuildingBlock: OJICUG_clean_linker_0, # of connection points: 2
#     Edge 69, Type (0, 0), BuildingBlock: OJICUG_clean_linker_0, # of connection points: 2
#     Edge 70, Type (0, 0), BuildingBlock: OJICUG_clean_linker_0, # of connection points: 2
#     Edge 71, Type (0, 0), BuildingBlock: OJICUG_clean_linker_0, # of connection points: 2
#     Edge 72, Type (0, 0), BuildingBlock: OJICUG_clean_linker_0, # of connection points: 2
#     Edge 73, Type (0, 0), BuildingBlock: OJICUG_clean_linker_0, # of connection points: 2
#     Edge 74, Type (0, 0), BuildingBlock: OJICUG_clean_linker_0, # of connection points: 2
#     Edge 75, Type (0, 0), BuildingBlock: OJICUG_clean_linker_0, # of connection points: 2
#     Edge 76, Type (0, 0), BuildingBlock: OJICUG_clean_linker_0, # of connection points: 2
#     Edge 77, Type (0, 0), BuildingBlock: OJICUG_clean_linker_0, # of connection points: 2
#     Edge 78, Type (0, 0), BuildingBlock: OJICUG_clean_linker_0, # of connection points: 2
#     Edge 79, Type (0, 0), BuildingBlock: OJICUG_clean_linker_0, # of connection points: 2
#     Edge 80, Type (0, 0), BuildingBlock: OJICUG_clean_linker_0, # of connection points: 2
#     Edge 81, Type (0, 0), BuildingBlock: OJICUG_clean_linker_0, # of connection points: 2
#     Edge 82, Type (0, 0), BuildingBlock: OJICUG_clean_linker_0, # of connection points: 2
#     Edge 83, Type (0, 0), BuildingBlock: OJICUG_clean_linker_0, # of connection points: 2
#     Edge 84, Type (0, 0), BuildingBlock: OJICUG_clean_linker_0, # of connection points: 2
#     Edge 85, Type (0, 0), BuildingBlock: OJICUG_clean_linker_0, # of connection points: 2
#     Edge 86, Type (0, 0), BuildingBlock: OJICUG_clean_linker_0, # of connection points: 2
#     Edge 87, Type (0, 0), BuildingBlock: OJICUG_clean_linker_0, # of connection points: 2
#     Edge 88, Type (0, 0), BuildingBlock: OJICUG_clean_linker_0, # of connection points: 2
#     Edge 89, Type (0, 0), BuildingBlock: OJICUG_clean_linker_0, # of connection points: 2
#     Edge 90, Type (0, 0), BuildingBlock: OJICUG_clean_linker_0, # of connection points: 2
#     Edge 91, Type (0, 0), BuildingBlock: OJICUG_clean_linker_0, # of connection points: 2
#     Edge 92, Type (0, 0), BuildingBlock: OJICUG_clean_linker_0, # of connection points: 2
#     Edge 93, Type (0, 0), BuildingBlock: OJICUG_clean_linker_0, # of connection points: 2
#     Edge 94, Type (0, 0), BuildingBlock: OJICUG_clean_linker_0, # of connection points: 2
#     Edge 95, Type (0, 0), BuildingBlock: OJICUG_clean_linker_0, # of connection points: 2
# Relax obj value: 0.117
# Max RMSD: 0.170
# Mean RMSD: 0.170
data_MOF--net-uka--node1-CEKHIL_clean_sbu_0--edge1-OJICUG_clean_linker_0
_symmetry_space_group_name_H-M    P1
_symmetry_Int_Tables_number       1
_symmetry_cell_setting            triclinic
loop_
_symmetry_equiv_pos_as_xyz
'x, y, z'
_cell_length_a     43.40828
_cell_length_b     43.401478
_cell_length_c     30.43476
_cell_angle_alpha  89.967915
_cell_angle_beta   89.906701
_cell_angle_gamma 90.04738
loop_
_atom_site_label
_atom_site_type_symbol
_atom_site_fract_x
_atom_site_fract_y
_atom_site_fract_z
_atom_type_partial_charge
Co0 Co 0.13157 0.26329 0.26241 0.0
O1 O 0.16276 0.24326 0.22797 0.0
O2 O 0.1702 0.28408 0.27054 0.0
C3 C 0.11199 0.21969 0.29152 0.0
O4 O 0.1063 0.28928 0.30477 0.0
Co5 Co 0.06135 0.25137 0.25131 0.0
O6 O 0.0594 0.26795 0.31178 0.0
C7 C 0.09375 0.29581 0.193 0.0
C8 C 0.18184 0.26272 0.24566 0.0
C9 C 0.08045 0.28612 0.32485 0.0
O10 O 0.11986 0.29118 0.21193 0.0
O11 O 0.06885 0.28164 0.20299 0.0
O12 O 0.13673 0.23205 0.3077 0.0
O13 O 0.10145 0.23251 0.25632 0.0
Co14 Co 0.98416 0.88479 0.51486 0.0
O15 O 0.00402 0.9158 0.4798 0.0
O16 O 0.96342 0.92331 0.52294 0.0
C17 C 0.02783 0.86531 0.54359 0.0
O18 O 0.9583 0.86003 0.55777 0.0
Co19 Co 0.99571 0.81444 0.50539 0.0
O20 O 0.97949 0.81327 0.56617 0.0
C21 C 0.95001 0.84609 0.44828 0.0
C22 C 0.98466 0.93489 0.49774 0.0
C23 C 0.96135 0.83453 0.5786 0.0
O24 O 0.95581 0.87266 0.4652 0.0
O25 O 0.96382 0.82118 0.45909 0.0
O26 O 0.01568 0.8902 0.55966 0.0
O27 O 0.01476 0.85458 0.50871 0.0
Co28 Co 0.3644 0.73963 0.76326 0.0
O29 O 0.33394 0.7574 0.725 0.0
O30 O 0.32624 0.71834 0.77088 0.0
C31 C 0.38262 0.78458 0.79013 0.0
O32 O 0.38793 0.71604 0.8096 0.0
Co33 Co 0.43477 0.75196 0.75808 0.0
O34 O 0.43423 0.73775 0.81996 0.0
C35 C 0.40619 0.70207 0.70451 0.0
C36 C 0.31483 0.7383 0.74364 0.0
C37 C 0.41257 0.71991 0.83205 0.0
O38 O 0.37872 0.70916 0.71715 0.0
O39 O 0.43043 0.71664 0.71644 0.0
O40 O 0.35719 0.77283 0.80515 0.0
O41 O 0.3944 0.77053 0.7567 0.0
Co42 Co 0.50554 0.10326 0.01497 0.0
O43 O 0.48465 0.06964 0.98656 0.0
O44 O 0.52714 0.06546 0.02645 0.0
C45 C 0.46285 0.12396 0.04539 0.0
O46 O 0.53257 0.13135 0.05186 0.0
Co47 Co 0.49152 0.17242 -0.00413 0.0
O48 O 0.51136 0.17857 0.05375 0.0
C49 C 0.53407 0.13734 0.93794 0.0
C50 C 0.50481 0.05197 0.00556 0.0
C51 C 0.53014 0.15851 0.06817 0.0
O52 O 0.53153 0.11255 0.96108 0.0
O53 O 0.5191 0.16217 0.94543 0.0
O54 O 0.47623 0.10039 0.0633 0.0
O55 O 0.47395 0.13246 0.0079 0.0
Co56 Co 0.13635 0.73843 0.22263 0.0
O57 O 0.16944 0.75759 0.25468 0.0
O58 O 0.17416 0.71707 0.21084 0.0
C59 C 0.11638 0.78255 0.19537 0.0
O60 O 0.10929 0.71335 0.18175 0.0
Co61 Co 0.06675 0.75152 0.23879 0.0
O62 O 0.06223 0.7347 0.17869 0.0
C63 C 0.09957 0.70448 0.29229 0.0
C64 C 0.18735 0.73813 0.23458 0.0
C65 C 0.08273 0.71655 0.16389 0.0
O66 O 0.12558 0.70969 0.27305 0.0
O67 O 0.07474 0.71925 0.2841 0.0
O68 O 0.1405 0.77005 0.1776 0.0
O69 O 0.10696 0.76975 0.2313 0.0
Co70 Co 0.50497 0.88206 0.4711 0.0
O71 O 0.48675 0.91312 0.50788 0.0
O72 O 0.52551 0.92048 0.46135 0.0
C73 C 0.46029 0.86233 0.44563 0.0
O74 O 0.52892 0.85757 0.42602 0.0
Co75 Co 0.49382 0.81164 0.48052 0.0
O76 O 0.50788 0.81066 0.4186 0.0
C77 C 0.54296 0.84274 0.53254 0.0
C78 C 0.50548 0.93214 0.48833 0.0
C79 C 0.52539 0.83219 0.40514 0.0
O80 O 0.53565 0.86963 0.51791 0.0
O81 O 0.52878 0.81791 0.52222 0.0
O82 O 0.47158 0.88749 0.42904 0.0
O83 O 0.47464 0.85173 0.47954 0.0
Co84 Co 0.36339 0.26115 0.72508 0.0
O85 O 0.33205 0.24222 0.76058 0.0
O86 O 0.32514 0.28234 0.71641 0.0
C87 C 0.38225 0.21683 0.6974 0.0
O88 O 0.38874 0.28604 0.68152 0.0
Co89 Co 0.43347 0.24872 0.73583 0.0
O90 O 0.43542 0.2643 0.6748 0.0
C91 C 0.40212 0.29539 0.79162 0.0
C92 C 0.31325 0.26164 0.74221 0.0
C93 C 0.41447 0.28243 0.66136 0.0
O94 O 0.3757 0.28996 0.77409 0.0
O95 O 0.42689 0.281 0.78168 0.0
O96 O 0.35755 0.22916 0.68114 0.0
O97 O 0.39315 0.23011 0.73205 0.0
Co98 Co 0.98578 0.10868 0.97213 0.0
O99 O 0.00663 0.07649 0.00361 0.0
O100 O 0.96488 0.0702 0.96266 0.0
C101 C 0.02866 0.12914 0.94193 0.0
O102 O 0.9589 0.13509 0.93258 0.0
Co103 Co -0.00179 0.17859 0.98688 0.0
O104 O 0.97991 0.1823 0.9276 0.0
C105 C 0.95532 0.14454 0.04567 0.0
C106 C 0.98691 0.05787 0.98555 0.0
C107 C 0.96151 0.16157 0.91409 0.0
O108 O 0.95898 0.11906 0.02459 0.0
O109 O 0.96963 0.16956 0.03673 0.0
O110 O 0.01593 0.10482 0.92503 0.0
O111 O 0.01673 0.13863 0.97839 0.0
Co112 Co 0.8614 0.7341 0.72618 0.0
O113 O 0.83026 0.75236 0.76278 0.0
O114 O 0.82294 0.7132 0.71714 0.0
C115 C 0.8802 0.77901 0.70032 0.0
O116 O 0.88638 0.71016 0.68101 0.0
Co117 Co 0.93158 0.746 0.73567 0.0
O118 O 0.93256 0.73279 0.67347 0.0
C119 C 0.90054 0.69894 0.79136 0.0
C120 C 0.81124 0.73347 0.74375 0.0
C121 C 0.91156 0.7148 0.65975 0.0
O122 O 0.87401 0.70443 0.77412 0.0
O123 O 0.92524 0.71344 0.78124 0.0
O124 O 0.8554 0.76706 0.6837 0.0
O125 O 0.8913 0.76486 0.7341 0.0
Co126 Co 0.00811 0.1153 0.47914 0.0
O127 O 0.98843 0.08445 0.51472 0.0
O128 O 0.02904 0.07684 0.47164 0.0
C129 C 0.96436 0.1343 0.44997 0.0
O130 O 0.03381 0.13988 0.43575 0.0
Co131 Co 0.99635 0.18562 0.48801 0.0
O132 O 0.01287 0.18679 0.42744 0.0
C133 C 0.04237 0.1545 0.54506 0.0
C134 C 0.00786 0.06533 0.497 0.0
C135 C 0.03089 0.16544 0.41499 0.0
O136 O 0.03649 0.12786 0.5285 0.0
O137 O 0.02849 0.17934 0.53409 0.0
O138 O 0.97666 0.10929 0.43457 0.0
O139 O 0.97728 0.14547 0.48472 0.0
Co140 Co 0.63324 0.25817 0.21961 0.0
O141 O 0.6645 0.23661 0.25205 0.0
O142 O 0.67216 0.27824 0.21108 0.0
C143 C 0.61208 0.21587 0.18898 0.0
O144 O 0.60829 0.28573 0.17926 0.0
Co145 Co 0.5629 0.24815 0.23239 0.0
O146 O 0.56076 0.26588 0.17256 0.0
C147 C 0.59712 0.29085 0.29102 0.0
C148 C 0.68371 0.25609 0.23454 0.0
C149 C 0.58223 0.28365 0.15967 0.0
O150 O 0.62292 0.28534 0.2716 0.0
O151 O 0.57161 0.27783 0.28102 0.0
O152 O 0.63699 0.22791 0.17274 0.0
O153 O 0.6023 0.22807 0.22513 0.0
Co154 Co 0.49109 0.87442 0.98573 0.0
O155 O 0.51045 0.90387 0.02376 0.0
O156 O 0.46343 0.90818 -0.00387 0.0
C157 C 0.53158 0.86986 0.93963 0.0
O158 O 0.4641 0.85061 0.94322 0.0
Co159 Co 0.51781 0.80899 0.96832 0.0
O160 O 0.49214 0.81201 0.91462 0.0
C161 C 0.47897 0.82096 0.04763 0.0
C162 C 0.48635 0.92091 0.01679 0.0
C163 C 0.46882 0.82978 0.91408 0.0
O164 O 0.47419 0.84934 0.03672 0.0
O165 O 0.4967 0.80286 0.02601 0.0
O166 O 0.51261 0.89275 0.93584 0.0
O167 O 0.5271 0.8522 0.97313 0.0
Co168 Co 0.85851 0.26034 0.76294 0.0
O169 O 0.82726 0.23888 0.73029 0.0
O170 O 0.8194 0.27997 0.77211 0.0
C171 C 0.87972 0.21769 0.79263 0.0
O172 O 0.88356 0.28756 0.80382 0.0
Co173 Co 0.92886 0.25043 0.74972 0.0
O174 O 0.9311 0.26763 0.80981 0.0
C175 C 0.8946 0.29367 0.69191 0.0
C176 C 0.80791 0.25779 0.74861 0.0
C177 C 0.9097 0.28528 0.82319 0.0
O178 O 0.86878 0.2881 0.71136 0.0
O179 O 0.92005 0.28045 0.70156 0.0
O180 O 0.85487 0.22957 0.80921 0.0
O181 O 0.88946 0.23032 0.75673 0.0
Co182 Co 0.48461 0.11289 0.50826 0.0
O183 O 0.50402 0.08187 0.47272 0.0
O184 O 0.46312 0.07465 0.51541 0.0
C185 C 0.5285 0.1313 0.53789 0.0
O186 O 0.45906 0.13756 0.55163 0.0
Co187 Co 0.49723 0.1831 0.50019 0.0
O188 O 0.48087 0.18398 0.56089 0.0
C189 C 0.45141 0.15277 0.44195 0.0
C190 C 0.48425 0.06293 0.49021 0.0
C191 C 0.46248 0.1628 0.57297 0.0
O192 O 0.45667 0.126 0.45861 0.0
O193 O 0.46556 0.17738 0.4533 0.0
O194 O 0.51582 0.10638 0.55309 0.0
O195 O 0.51583 0.14274 0.50313 0.0
Co196 Co 0.62977 0.73444 0.26055 0.0
O197 O 0.66179 0.75396 0.2271 0.0
O198 O 0.66839 0.7148 0.27307 0.0
C199 C 0.60844 0.77846 0.28501 0.0
O200 O 0.60329 0.70944 0.30284 0.0
Co201 Co 0.55995 0.7443 0.24276 0.0
O202 O 0.5556 0.72949 0.30389 0.0
C203 C 0.59577 0.69927 0.18995 0.0
C204 C 0.68052 0.73554 0.24752 0.0
C205 C 0.57647 0.7125 0.32027 0.0
O206 O 0.62072 0.7047 0.21132 0.0
O207 O 0.57028 0.71333 0.19653 0.0
O208 O 0.63277 0.76717 0.30375 0.0
O209 O 0.59937 0.76433 0.24998 0.0
Co210 Co 0.00733 0.878 0.0056 0.0
O211 O 0.98804 0.90808 0.96816 0.0
O212 O 0.0305 0.91556 0.0072 0.0
C213 C 0.96361 0.86318 0.03975 0.0
O214 O 0.03328 0.85463 0.04985 0.0
Co215 Co 0.99129 0.80821 0.00786 0.0
O216 O 0.00981 0.81022 0.06727 0.0
C217 C 0.03701 0.83261 0.94333 0.0
C218 C 0.0089 0.92704 0.98267 0.0
C219 C 0.02973 0.83106 0.07477 0.0
O220 O 0.03315 0.86072 0.95599 0.0
O221 O 0.0222 0.80961 0.95915 0.0
O222 O 0.97779 0.88815 0.05165 0.0
O223 O 0.97484 0.84946 0.0057 0.0
Co224 Co 0.63036 0.76322 0.75241 0.0
O225 O 0.66172 0.73986 0.72266 0.0
O226 O 0.66973 0.78218 0.76189 0.0
C227 C 0.60689 0.72277 0.78469 0.0
O228 O 0.60508 0.79233 0.79001 0.0
Co229 Co 0.5603 0.7541 0.73255 0.0
O230 O 0.55424 0.78452 0.78008 0.0
C231 C 0.59877 0.79223 0.67362 0.0
C232 C 0.68114 0.75912 0.74007 0.0
C233 C 0.5767 0.79832 0.79836 0.0
O234 O 0.62253 0.78959 0.69861 0.0
O235 O 0.57331 0.77806 0.67989 0.0
O236 O 0.63195 0.73423 0.80109 0.0
O237 O 0.59859 0.73388 0.74713 0.0
Co238 Co 0.48623 0.38502 0.0065 0.0
O239 O 0.50627 0.41645 0.97238 0.0
O240 O 0.46534 0.42342 0.01507 0.0
C241 C 0.52964 0.36536 0.0357 0.0
O242 O 0.46019 0.35953 0.0485 0.0
Co243 Co 0.49814 0.31489 -0.00565 0.0
O244 O 0.48098 0.31234 0.05449 0.0
C245 C 0.45342 0.34753 0.93706 0.0
C246 C 0.48667 0.4353 0.99031 0.0
C247 C 0.46295 0.33342 0.06789 0.0
O248 O 0.45834 0.37356 0.95605 0.0
O249 O 0.46751 0.32254 0.94664 0.0
O250 O 0.51729 0.39009 0.0519 0.0
O251 O 0.51706 0.35497 0.00022 0.0
Co252 Co 0.86402 0.234 0.25467 0.0
O253 O 0.83348 0.25287 0.2177 0.0
O254 O 0.8257 0.21253 0.26117 0.0
C255 C 0.88192 0.27834 0.28388 0.0
O256 O 0.88799 0.20911 0.2995 0.0
Co257 Co 0.93427 0.24652 0.24839 0.0
O258 O 0.93412 0.23129 0.30969 0.0
C259 C 0.90507 0.19935 0.19106 0.0
C260 C 0.81431 0.2333 0.23514 0.0
C261 C 0.9128 0.21301 0.32163 0.0
O262 O 0.87798 0.20526 0.20623 0.0
O263 O 0.92951 0.21358 0.20298 0.0
O264 O 0.85676 0.26582 0.2985 0.0
O265 O 0.89392 0.26526 0.24976 0.0
Co266 Co 0.007 0.61549 0.50126 0.0
O267 O 0.9864 0.58362 0.46866 0.0
O268 O 0.02692 0.57666 0.5118 0.0
C269 C 0.96417 0.63691 0.53026 0.0
O270 O 0.03319 0.64145 0.54215 0.0
Co271 Co 0.99584 0.6854 0.48233 0.0
O272 O 0.02161 0.69184 0.53495 0.0
C273 C 0.04106 0.6504 0.42914 0.0
C274 C 0.0053 0.56467 0.48776 0.0
C275 C 0.03613 0.66984 0.55321 0.0
O276 O 0.03591 0.62527 0.45055 0.0
O277 O 0.02648 0.67558 0.43555 0.0
O278 O 0.97581 0.61202 0.54692 0.0
O279 O 0.9766 0.6461 0.49391 0.0
Co280 Co 0.62848 0.23034 0.73454 0.0
O281 O 0.65873 0.24917 0.77212 0.0
O282 O 0.66695 0.20906 0.72854 0.0
C283 C 0.61104 0.27489 0.70517 0.0
O284 O 0.60489 0.20564 0.68906 0.0
Co285 Co 0.55821 0.24311 0.73935 0.0
O286 O 0.55894 0.22796 0.67804 0.0
C287 C 0.58646 0.19502 0.79634 0.0
C288 C 0.67816 0.22999 0.7545 0.0
C289 C 0.58028 0.20962 0.66649 0.0
O290 O 0.61387 0.20124 0.78243 0.0
O291 O 0.56228 0.20942 0.78383 0.0
O292 O 0.63628 0.26233 0.69104 0.0
O293 O 0.59863 0.26171 0.73895 0.0
Co294 Co 0.00742 0.38386 0.97866 0.0
O295 O 0.98753 0.41479 0.01382 0.0
O296 O 0.02846 0.42234 0.97133 0.0
C297 C 0.96387 0.36472 0.94893 0.0
O298 O 0.0334 0.35922 0.93576 0.0
Co299 Co 0.99564 0.31356 0.98782 0.0
O300 O 0.0123 0.31237 0.9273 0.0
C301 C 0.04111 0.34488 0.04556 0.0
C302 C 0.00719 0.43388 -0.00354 0.0
C303 C 0.03046 0.33368 0.91498 0.0
O304 O 0.03541 0.37144 0.02856 0.0
O305 O 0.02734 0.31997 0.03454 0.0
O306 O 0.97627 0.38972 0.93353 0.0
O307 O 0.97655 0.35366 0.98394 0.0
Co308 Co 0.86078 0.7618 0.23272 0.0
O309 O 0.82998 0.74073 0.26688 0.0
O310 O 0.82205 0.78229 0.2259 0.0
C311 C 0.88072 0.71926 0.20119 0.0
O312 O 0.88525 0.78886 0.1909 0.0
Co313 Co 0.93121 0.75063 0.24332 0.0
O314 O 0.93336 0.77015 0.18471 0.0
C315 C 0.89863 0.79435 0.30219 0.0
C316 C 0.81069 0.76035 0.25004 0.0
C317 C 0.91163 0.78759 0.17194 0.0
O318 O 0.87247 0.78911 0.28378 0.0
O319 O 0.92372 0.78075 0.29174 0.0
O320 O 0.85555 0.73149 0.1863 0.0
O321 O 0.89137 0.73127 0.23694 0.0
Co322 Co 0.48336 0.61095 0.48459 0.0
O323 O 0.5076 0.5797 0.51303 0.0
O324 O 0.46413 0.57143 0.47669 0.0
C325 C 0.52283 0.63417 0.4495 0.0
O326 O 0.45315 0.63628 0.44891 0.0
Co327 Co 0.49368 0.68104 0.5037 0.0
O328 O 0.46146 0.68709 0.45866 0.0
C329 C 0.45758 0.64288 0.56545 0.0
C330 C 0.48791 0.56016 0.49701 0.0
C331 C 0.44694 0.66471 0.44127 0.0
O332 O 0.45869 0.61922 0.53998 0.0
O333 O 0.47213 0.66802 0.55843 0.0
O334 O 0.51079 0.6091 0.43398 0.0
O335 O 0.51295 0.64258 0.4877 0.0
Co336 Co 0.36247 0.2374 0.22587 0.0
O337 O 0.33188 0.25897 0.25976 0.0
O338 O 0.32348 0.21723 0.21942 0.0
C339 C 0.38288 0.27971 0.19412 0.0
O340 O 0.38654 0.20966 0.1846 0.0
Co341 Co 0.43309 0.24756 0.23451 0.0
O342 O 0.43419 0.22874 0.17534 0.0
C343 C 0.40038 0.20458 0.2948 0.0
C344 C 0.31236 0.23938 0.24333 0.0
C345 C 0.41232 0.21096 0.16404 0.0
O346 O 0.37401 0.21032 0.2773 0.0
O347 O 0.42561 0.21753 0.2832 0.0
O348 O 0.35766 0.2676 0.1791 0.0
O349 O 0.39349 0.26752 0.22975 0.0
Co350 Co 0.50894 0.61648 0.97628 0.0
O351 O 0.49078 0.5846 0.01162 0.0
O352 O 0.52879 0.57806 0.96363 0.0
C353 C 0.46409 0.63708 0.9537 0.0
O354 O 0.5325 0.64255 0.93188 0.0
Co355 Co 0.49902 0.68644 0.99219 0.0
O356 O 0.51205 0.69003 0.93013 0.0
C357 C 0.54639 0.65214 0.04275 0.0
C358 C 0.50897 0.56592 0.99061 0.0
C359 C 0.52881 0.669 0.91363 0.0
O360 O 0.53993 0.62659 0.02344 0.0
O361 O 0.53222 0.67751 0.03575 0.0
O362 O 0.47509 0.61252 0.93512 0.0
O363 O 0.47903 0.64677 0.9877 0.0
Co364 Co 0.13414 0.75702 0.72275 0.0
O365 O 0.16561 0.73559 0.75444 0.0
O366 O 0.17148 0.78081 0.72129 0.0
C367 C 0.11837 0.71645 0.68275 0.0
O368 O 0.10794 0.78517 0.68495 0.0
Co369 Co 0.06489 0.73852 0.72912 0.0
O370 O 0.06283 0.76117 0.67264 0.0
C371 C 0.0928 0.77922 0.79659 0.0
C372 C 0.18384 0.75767 0.74192 0.0
C373 C 0.0826 0.78194 0.66377 0.0
O374 O 0.11927 0.77869 0.7775 0.0
O375 O 0.06926 0.76399 0.78358 0.0
O376 O 0.14273 0.73187 0.67149 0.0
O377 O 0.10638 0.72382 0.72021 0.0
Co378 Co 0.97934 0.38403 0.47723 0.0
O379 O -0.00122 0.41535 0.51236 0.0
O380 O 0.95845 0.42257 0.46895 0.0
C381 C 0.02347 0.36505 0.44874 0.0
O382 O 0.95404 0.35898 0.43379 0.0
Co383 Co 0.99137 0.31384 0.48715 0.0
O384 O 0.97613 0.31257 0.42595 0.0
C385 C 0.94528 0.34499 0.54426 0.0
C386 C 0.97958 0.43438 0.49403 0.0
C387 C 0.95791 0.33357 0.41292 0.0
O388 O 0.95076 0.37156 0.52691 0.0
O389 O 0.95943 0.32022 0.53362 0.0
O390 O 0.01109 0.38983 0.43273 0.0
O391 O 0.01031 0.35405 0.48348 0.0
Co392 Co 0.36582 0.75035 0.25856 0.0
O393 O 0.33566 0.73067 0.22208 0.0
O394 O 0.33186 0.77797 0.24904 0.0
C395 C 0.37129 0.71023 0.30503 0.0
O396 O 0.39059 0.7777 0.29942 0.0
Co397 Co 0.43155 0.72354 0.27341 0.0
O398 O 0.43004 0.75009 0.32642 0.0
C399 C 0.41767 0.76087 0.19343 0.0
C400 C 0.31883 0.75493 0.22899 0.0
C401 C 0.41228 0.77342 0.32737 0.0
O402 O 0.38984 0.7666 0.20615 0.0
O403 O 0.43608 0.74306 0.21431 0.0
O404 O 0.34856 0.72931 0.30968 0.0
O405 O 0.38822 0.71444 0.27071 0.0
Co406 Co 0.98339 0.61499 0.01218 0.0
O407 O 0.00424 0.58355 0.97917 0.0
O408 O 0.96318 0.57624 0.02151 0.0
C409 C 0.02625 0.6359 0.04132 0.0
O410 O 0.95668 0.64038 0.05335 0.0
Co411 Co 0.99376 0.68516 -0.00192 0.0
O412 O 0.97682 0.68793 0.05834 0.0
C413 C 0.95067 0.65066 0.94055 0.0
C414 C 0.98487 0.56451 -0.0027 0.0
C415 C 0.95924 0.66665 0.07236 0.0
O416 O 0.95564 0.62517 0.96096 0.0
O417 O 0.96422 0.67609 0.94944 0.0
O418 O 0.01427 0.61112 0.05802 0.0
O419 O 0.01364 0.64567 0.00548 0.0
Co420 Co 0.13227 0.23862 0.75988 0.0
O421 O 0.16346 0.25944 0.72617 0.0
O422 O 0.1709 0.21811 0.76782 0.0
C423 C 0.11203 0.28149 0.79007 0.0
O424 O 0.10734 0.21168 0.80128 0.0
Co425 Co 0.0619 0.24956 0.74903 0.0
O426 O 0.05978 0.23135 0.80856 0.0
C427 C 0.09488 0.20568 0.69058 0.0
C428 C 0.18253 0.23984 0.74357 0.0
C429 C 0.08127 0.21351 0.821 0.0
O430 O 0.12104 0.21108 0.70891 0.0
O431 O 0.06972 0.21918 0.70099 0.0
O432 O 0.13693 0.26931 0.80596 0.0
O433 O 0.10172 0.26905 0.75446 0.0
Co434 Co 0.51576 0.38005 0.50874 0.0
O435 O 0.49618 0.41097 0.47313 0.0
O436 O 0.5364 0.41882 0.51654 0.0
C437 C 0.47167 0.36093 0.53711 0.0
O438 O 0.54109 0.35536 0.55267 0.0
Co439 Co 0.50417 0.30973 0.49956 0.0
O440 O 0.51889 0.309 0.56102 0.0
C441 C 0.5496 0.34109 0.4416 0.0
C442 C 0.51525 0.43028 0.49118 0.0
C443 C 0.53699 0.33014 0.574 0.0
O444 O 0.54432 0.36759 0.45918 0.0
O445 O 0.53556 0.31627 0.45237 0.0
O446 O 0.48389 0.38584 0.55301 0.0
O447 O 0.48502 0.34983 0.50262 0.0
C448 C 0.08403 0.1733 0.38803 0.0
C449 C 0.05233 0.17253 0.37948 0.0
H450 H 0.12818 0.18925 0.36635 0.0
C451 C 0.04113 0.18271 0.33893 0.0
H452 H 0.09295 0.16556 0.41939 0.0
C453 C 0.06129 0.19528 0.30808 0.0
C454 C 0.09262 0.19917 0.31841 0.0
H455 H 0.01667 0.18208 0.33189 0.0
H456 H 0.05188 0.20388 0.27756 0.0
C457 C 0.10408 0.18687 0.35781 0.0
C458 C 0.05919 0.85635 0.6111 0.0
C459 C 0.04811 0.84577 0.57046 0.0
H460 H 0.07966 0.84394 0.67275 0.0
C461 C 0.05299 0.81488 0.55844 0.0
H462 H 0.05597 0.8801 0.62102 0.0
C463 C 0.06557 0.79421 0.58843 0.0
C464 C 0.07464 0.80443 0.63003 0.0
H465 H 0.04531 0.80615 0.52701 0.0
H466 H 0.06721 0.77004 0.57974 0.0
C467 C 0.0727 0.83578 0.64061 0.0
C468 C 0.45451 0.81915 0.83683 0.0
C469 C 0.44542 0.82458 0.88029 0.0
H470 H 0.44097 0.80428 0.77297 0.0
C471 C 0.41419 0.82237 0.89178 0.0
H472 H 0.47847 0.82126 0.82723 0.0
C473 C 0.39276 0.81174 0.8611 0.0
C474 C 0.40234 0.80381 0.81844 0.0
H475 H 0.40676 0.8267 0.92522 0.0
H476 H 0.36922 0.80784 0.87162 0.0
C477 C 0.433 0.80951 0.80587 0.0
C478 C 0.42733 0.197 0.08814 0.0
C479 C 0.41888 0.18786 0.13055 0.0
H480 H 0.44601 0.1832 0.02636 0.0
C481 C 0.42047 0.15673 0.14251 0.0
H482 H 0.42604 0.22101 0.0785 0.0
C483 C 0.43299 0.13527 0.11346 0.0
C484 C 0.44344 0.14468 0.07187 0.0
H485 H 0.41405 0.14942 0.17533 0.0
H486 H 0.43595 0.1117 0.1244 0.0
C487 C 0.43884 0.17536 0.05854 0.0
C488 C 0.1054 0.81296 0.12768 0.0
C489 C 0.09573 0.80211 0.16895 0.0
H490 H 0.09159 0.83139 0.06543 0.0
C491 C 0.06477 0.80594 0.18151 0.0
H492 H 0.12918 0.81066 0.11733 0.0
C493 C 0.04317 0.81665 0.15126 0.0
C494 C 0.05258 0.8252 0.10897 0.0
H495 H 0.05672 0.79861 0.2135 0.0
H496 H 0.01902 0.81723 0.16032 0.0
C497 C 0.08397 0.82477 0.09803 0.0
C498 C 0.42547 0.78909 0.40329 0.0
C499 C 0.41851 0.7974 0.35998 0.0
H500 H 0.44216 0.80388 0.46565 0.0
C501 C 0.42013 0.82845 0.34731 0.0
H502 H 0.42384 0.76529 0.41382 0.0
C503 C 0.43154 0.85049 0.37652 0.0
C504 C 0.44083 0.84173 0.41894 0.0
H505 H 0.41465 0.83527 0.31398 0.0
H506 H 0.43482 0.87388 0.36502 0.0
C507 C 0.4359 0.81122 0.43286 0.0
C508 C 0.38966 0.1837 0.63141 0.0
C509 C 0.40139 0.19609 0.67059 0.0
H510 H 0.40036 0.16252 0.56964 0.0
C511 C 0.43279 0.1923 0.68045 0.0
H512 H 0.36548 0.18597 0.62323 0.0
C513 C 0.45276 0.1799 0.64924 0.0
C514 C 0.44128 0.16976 0.60883 0.0
H515 H 0.44241 0.20092 0.71083 0.0
H516 H 0.47728 0.17939 0.65589 0.0
C517 C 0.40951 0.17029 0.60084 0.0
C518 C 0.07283 0.15975 0.84486 0.0
C519 C 0.07407 0.19117 0.85528 0.0
H520 H 0.05713 0.11509 0.86464 0.0
C521 C 0.06469 0.20129 0.89682 0.0
H522 H 0.07997 0.15169 0.81273 0.0
C523 C 0.05262 0.18033 0.92699 0.0
C524 C 0.04843 0.1493 0.91508 0.0
H525 H 0.06569 0.22553 0.90527 0.0
H526 H 0.04475 0.18891 0.95842 0.0
C527 C 0.05977 0.13893 0.87446 0.0
C528 C 0.90813 0.82662 0.60515 0.0
C529 C 0.9398 0.82734 0.61392 0.0
H530 H 0.86396 0.8104 0.62624 0.0
C531 C 0.95086 0.8171 0.65451 0.0
H532 H 0.89932 0.83447 0.57378 0.0
C533 C 0.93061 0.80434 0.68507 0.0
C534 C 0.89936 0.8003 0.67435 0.0
H535 H 0.97529 0.81776 0.66175 0.0
H536 H 0.93993 0.79557 0.71556 0.0
C537 C 0.888 0.81286 0.63507 0.0
C538 C 0.94089 0.18494 0.43072 0.0
C539 C 0.9442 0.15328 0.42213 0.0
H540 H 0.92902 0.22915 0.40423 0.0
C541 C 0.93196 0.141 0.38319 0.0
H542 H 0.94939 0.19499 0.46086 0.0
C543 C 0.91919 0.16048 0.35164 0.0
C544 C 0.91919 0.19241 0.35838 0.0
H545 H 0.93386 0.11664 0.37599 0.0
H546 H 0.91153 0.15084 0.32069 0.0
C547 C 0.92916 0.2045 0.39852 0.0
C548 C 0.58339 0.16883 0.09335 0.0
C549 C 0.55172 0.16809 0.10227 0.0
H550 H 0.62763 0.18499 0.1142 0.0
C551 C 0.54055 0.17951 0.14221 0.0
H552 H 0.59228 0.16012 0.06248 0.0
C553 C 0.56075 0.19277 0.17233 0.0
C554 C 0.59216 0.196 0.16195 0.0
H555 H 0.51611 0.17891 0.14954 0.0
H556 H 0.55139 0.20202 0.20252 0.0
C557 C 0.60349 0.18304 0.12284 0.0
C558 C 0.53559 0.86123 0.85932 0.0
C559 C 0.54833 0.85793 0.90142 0.0
H560 H 0.53434 0.84392 0.79344 0.0
C561 C 0.5734 0.83801 0.90769 0.0
H562 H 0.51597 0.87615 0.85382 0.0
C563 C 0.58429 0.8201 0.87293 0.0
C564 C 0.56957 0.8213 0.83202 0.0
H565 H 0.58338 0.83503 0.94002 0.0
H566 H 0.60265 0.80372 0.8789 0.0
C567 C 0.54582 0.84261 0.82498 0.0
C568 C 0.93109 0.19472 0.80914 0.0
C569 C 0.89961 0.19755 0.81925 0.0
H570 H 0.97578 0.1816 0.83251 0.0
C571 C 0.88819 0.18412 0.85801 0.0
H572 H 0.94051 0.20431 0.77918 0.0
C573 C 0.90829 0.17008 0.88765 0.0
C574 C 0.94003 0.17 0.87924 0.0
H575 H 0.86398 0.1857 0.86639 0.0
H576 H 0.89931 0.16122 0.91841 0.0
C577 C 0.95128 0.18166 0.83944 0.0
C578 C 0.57335 0.15708 0.63679 0.0
C579 C 0.57403 0.18898 0.62975 0.0
H580 H 0.55804 0.11339 0.61262 0.0
C581 C 0.56463 0.20107 0.58931 0.0
H582 H 0.58053 0.14744 0.66799 0.0
C583 C 0.5528 0.18158 0.55711 0.0
C584 C 0.5488 0.15002 0.56594 0.0
H585 H 0.56527 0.22569 0.58339 0.0
H586 H 0.54472 0.19167 0.52673 0.0
C587 C 0.56048 0.13769 0.6052 0.0
C588 C 0.59896 0.81423 0.34716 0.0
C589 C 0.58796 0.79924 0.30949 0.0
H590 H 0.58715 0.8373 0.40697 0.0
C591 C 0.55634 0.80039 0.29966 0.0
H592 H 0.62328 0.81408 0.35514 0.0
C593 C 0.53565 0.81257 0.3301 0.0
C594 C 0.5466 0.82522 0.36936 0.0
H595 H 0.54726 0.7898 0.27025 0.0
H596 H 0.51112 0.81098 0.32387 0.0
C597 C 0.57837 0.8275 0.37672 0.0
C598 C 0.92417 0.8398 0.14479 0.0
C599 C 0.91819 0.8087 0.13594 0.0
H600 H 0.94333 0.88198 0.12052 0.0
C601 C 0.92261 0.79704 0.0936 0.0
H602 H 0.92092 0.84897 0.17758 0.0
C603 C 0.93469 0.81592 0.06081 0.0
C604 C 0.94351 0.84636 0.07052 0.0
H605 H 0.91802 0.773 0.08647 0.0
H606 H 0.93903 0.80599 0.02877 0.0
C607 C 0.93693 0.85857 0.11223 0.0
C608 C 0.53517 0.69434 0.84106 0.0
C609 C 0.54788 0.67727 0.8757 0.0
H610 H 0.54398 0.72105 0.78347 0.0
C611 C 0.57968 0.67173 0.87668 0.0
H612 H 0.51061 0.69876 0.83981 0.0
C613 C 0.59887 0.68534 0.84538 0.0
C614 C 0.58637 0.70383 0.81203 0.0
H615 H 0.5899 0.65876 0.90336 0.0
H616 H 0.62358 0.68245 0.84829 0.0
C617 C 0.55427 0.70706 0.8089 0.0
C618 C 0.56548 0.29419 0.08357 0.0
C619 C 0.57518 0.30526 0.12443 0.0
H620 H 0.54524 0.30518 0.02173 0.0
C621 C 0.57444 0.33692 0.13322 0.0
H622 H 0.56615 0.26974 0.07636 0.0
C623 C 0.56144 0.3571 0.10276 0.0
C624 C 0.54966 0.3458 0.06294 0.0
H625 H 0.58187 0.34573 0.16479 0.0
H626 H 0.55911 0.3812 0.1114 0.0
C627 C 0.55346 0.31448 0.05253 0.0
C628 C 0.93172 0.30332 0.30401 0.0
C629 C 0.90008 0.29917 0.312 0.0
H630 H 0.97525 0.31695 0.331 0.0
C631 C 0.88705 0.31145 0.35049 0.0
H632 H 0.94237 0.29472 0.27429 0.0
C633 C 0.9058 0.32524 0.38212 0.0
C634 C 0.93777 0.32628 0.37594 0.0
H635 H 0.86268 0.30888 0.35727 0.0
H636 H 0.89562 0.33294 0.41274 0.0
C637 C 0.95056 0.31613 0.33625 0.0
C638 C 0.9334 0.70821 0.58492 0.0
C639 C 0.91878 0.6954 0.62176 0.0
H640 H 0.95774 0.6996 0.52524 0.0
C641 C 0.91485 0.6634 0.62451 0.0
H642 H 0.93642 0.73293 0.58218 0.0
C643 C 0.92801 0.64425 0.59281 0.0
C644 C 0.94452 0.65694 0.55742 0.0
H645 H 0.90367 0.6531 0.6528 0.0
H646 H 0.92661 0.61951 0.59717 0.0
C647 C 0.94563 0.6891 0.55244 0.0
C648 C 0.58869 0.32215 0.60647 0.0
C649 C 0.55664 0.32316 0.61168 0.0
H650 H 0.63141 0.30572 0.63255 0.0
C651 C 0.54328 0.31297 0.65101 0.0
H652 H 0.59932 0.32985 0.57614 0.0
C653 C 0.56161 0.30007 0.68378 0.0
C654 C 0.59334 0.2959 0.67669 0.0
H655 H 0.51851 0.31375 0.65553 0.0
H656 H 0.55052 0.29138 0.71314 0.0
C657 C 0.60695 0.3083 0.63864 0.0
C658 C 0.93158 0.35774 0.88194 0.0
C659 C 0.94354 0.34574 0.92126 0.0
H660 H 0.91055 0.34749 0.81991 0.0
C661 C 0.93947 0.3143 0.93079 0.0
H662 H 0.93414 0.38194 0.87396 0.0
C663 C 0.9269 0.29461 0.8994 0.0
C664 C 0.91697 0.30637 0.85902 0.0
H665 H 0.94786 0.30445 0.96115 0.0
H666 H 0.92604 0.27007 0.90592 0.0
C667 C 0.91807 0.33815 0.85112 0.0
C668 C 0.95104 0.68474 0.1485 0.0
C669 C 0.93873 0.67404 0.10887 0.0
H670 H 0.94187 0.70577 0.21047 0.0
C671 C 0.90678 0.67403 0.10248 0.0
H672 H 0.97572 0.68471 0.15387 0.0
C673 C 0.88746 0.68712 0.13404 0.0
C674 C 0.89991 0.6997 0.17267 0.0
H675 H 0.897 0.66586 0.07188 0.0
H676 H 0.86303 0.68873 0.12724 0.0
C677 C 0.93165 0.69686 0.18068 0.0
C678 C 0.55164 0.70574 0.39303 0.0
C679 C 0.56786 0.69302 0.35756 0.0
H680 H 0.52571 0.69698 0.45135 0.0
C681 C 0.57235 0.66108 0.3554 0.0
H682 H 0.54799 0.7304 0.39512 0.0
C683 C 0.55872 0.64187 0.3867 0.0
C684 C 0.54129 0.65447 0.42117 0.0
H685 H 0.58463 0.65088 0.32801 0.0
H686 H 0.56092 0.61713 0.38311 0.0
C687 C 0.53893 0.68661 0.42512 0.0
C688 C 0.45368 0.31508 0.14369 0.0
C689 C 0.44192 0.32576 0.10371 0.0
H690 H 0.44371 0.29379 0.20524 0.0
C691 C 0.41009 0.32533 0.0962 0.0
H692 H 0.47825 0.31542 0.14992 0.0
C693 C 0.39038 0.31188 0.12701 0.0
C694 C 0.4023 0.29938 0.16602 0.0
H695 H 0.40074 0.33343 0.06529 0.0
H696 H 0.36608 0.30997 0.11939 0.0
C697 C 0.43389 0.30261 0.17512 0.0
C698 C 0.44201 0.68907 0.93891 0.0
C699 C 0.44322 0.65742 0.92917 0.0
H700 H 0.43223 0.7343 0.91412 0.0
C701 C 0.42865 0.64639 0.89118 0.0
H702 H 0.45218 0.69817 0.96861 0.0
C703 C 0.41608 0.667 0.86108 0.0
C704 C 0.41862 0.69879 0.86826 0.0
H705 H 0.42879 0.62206 0.88327 0.0
H706 H 0.40675 0.65818 0.83055 0.0
C707 C 0.43056 0.70977 0.90795 0.0
C708 C 0.07537 0.68115 0.66197 0.0
C709 C 0.10025 0.69998 0.64949 0.0
H710 H 0.03541 0.65614 0.64034 0.0
C711 C 0.1052 0.70636 0.60479 0.0
H712 H 0.07105 0.67607 0.69629 0.0
C713 C 0.08453 0.69573 0.57336 0.0
C714 C 0.05915 0.67792 0.58604 0.0
H715 H 0.12399 0.72106 0.59425 0.0
H716 H 0.08792 0.70206 0.53923 0.0
C717 C 0.05505 0.66985 0.63023 0.0
C718 C 0.04859 0.3148 0.43156 0.0
C719 C 0.04456 0.34623 0.42193 0.0
H720 H 0.06269 0.27068 0.40708 0.0
C721 C 0.05742 0.35836 0.38321 0.0
H722 H 0.03951 0.30486 0.4615 0.0
C723 C 0.07174 0.3389 0.35293 0.0
C724 C 0.07274 0.3071 0.3607 0.0
H725 H 0.05495 0.38256 0.37521 0.0
H726 H 0.07989 0.34835 0.32205 0.0
C727 C 0.06195 0.29523 0.40064 0.0
C728 C 0.40245 0.69651 0.41762 0.0
C729 C 0.42277 0.67205 0.40944 0.0
H730 H 0.36869 0.72701 0.39079 0.0
C731 C 0.42185 0.65677 0.3689 0.0
H732 H 0.40274 0.70843 0.44889 0.0
C733 C 0.40288 0.66777 0.33543 0.0
C734 C 0.38401 0.69351 0.34268 0.0
H735 H 0.43741 0.63786 0.36205 0.0
H736 H 0.40428 0.65732 0.30316 0.0
C737 C 0.38276 0.70686 0.38462 0.0
C738 C 0.06031 0.6439 0.10604 0.0
C739 C 0.04647 0.65569 0.06791 0.0
H740 H 0.08355 0.65444 0.16629 0.0
C741 C 0.04887 0.68735 0.05867 0.0
H742 H 0.05908 0.61955 0.11371 0.0
C743 C 0.06185 0.7073 0.0894 0.0
C744 C 0.07392 0.6956 0.12862 0.0
H745 H 0.03899 0.69706 0.02915 0.0
H746 H 0.06161 0.7319 0.08322 0.0
C747 C 0.07431 0.66375 0.13601 0.0
C748 C 0.10375 0.31348 0.85703 0.0
C749 C 0.09233 0.30124 0.81757 0.0
H750 H 0.09258 0.33429 0.9189 0.0
C751 C 0.06087 0.30449 0.80767 0.0
H752 H 0.12795 0.31159 0.86526 0.0
C753 C 0.04064 0.31647 0.83888 0.0
C754 C 0.05187 0.3267 0.87938 0.0
H755 H 0.05146 0.29594 0.77714 0.0
H756 H 0.01614 0.31671 0.83206 0.0
C757 C 0.08362 0.32648 0.8876 0.0
C758 C 0.44677 0.3106 0.55461 0.0
C759 C 0.45051 0.34212 0.56384 0.0
H760 H 0.43289 0.26651 0.57959 0.0
C761 C 0.43731 0.35441 0.60217 0.0
H762 H 0.45609 0.30055 0.52492 0.0
C763 C 0.42296 0.33502 0.63255 0.0
C764 C 0.42229 0.30315 0.62526 0.0
H765 H 0.43956 0.37868 0.60984 0.0
H766 H 0.41454 0.34461 0.66316 0.0
C767 C 0.4334 0.29111 0.58566 0.0
C768 C 0.25859 0.22524 0.22297 0.0
C769 C 0.27888 0.24461 0.24598 0.0
H770 H 0.2121 0.21625 0.20389 0.0
C771 C 0.26712 0.27067 0.26758 0.0
H772 H 0.267 0.20516 0.20559 0.0
C773 C 0.23564 0.27721 0.2662 0.0
C774 C 0.21538 0.25784 0.24315 0.0
H775 H 0.28226 0.28621 0.28515 0.0
H776 H 0.22716 0.29725 0.28362 0.0
C777 C 0.22718 0.23182 0.2215 0.0
C778 C 0.97056 0.98841 0.51956 0.0
C779 C 0.98962 0.9684 0.49553 0.0
H780 H 0.96186 0.03477 0.53982 0.0
C781 C 0.01542 0.98037 0.47349 0.0
H782 H 0.9507 0.97979 0.53732 0.0
C783 C 0.02205 0.01179 0.47546 0.0
C784 C 0.00299 0.03181 0.49945 0.0
H785 H 0.03074 0.96545 0.45515 0.0
H786 H 0.04191 0.02041 0.45767 0.0
C787 C 0.9772 0.01983 0.52152 0.0
C788 C 0.26882 0.76861 0.72007 0.0
C789 C 0.28125 0.74236 0.7404 0.0
H790 H 0.22815 0.79456 0.70568 0.0
C791 C 0.26151 0.72192 0.76253 0.0
H792 H 0.28355 0.78501 0.70332 0.0
C793 C 0.22996 0.72762 0.76446 0.0
C794 C 0.21749 0.75388 0.7443 0.0
H795 H 0.27045 0.70165 0.77892 0.0
H796 H 0.21532 0.71121 0.78138 0.0
C797 C 0.23719 0.77435 0.72208 0.0
C798 C 0.47241 0.00506 -0.00619 0.0
C799 C 0.49987 0.01839 0.00915 0.0
H800 H 0.44595 0.96386 0.98584 0.0
C801 C 0.52119 -0.00019 0.03153 0.0
H802 H 0.45522 0.01889 0.97722 0.0
C803 C 0.51568 0.96832 0.03703 0.0
C804 C 0.48869 0.95477 0.02039 0.0
H805 H 0.5423 0.00952 0.04447 0.0
H806 H 0.53312 0.95441 0.05292 0.0
C807 C 0.46682 0.9736 -0.0005 0.0
C808 C 0.2345 0.7693 0.25065 0.0
C809 C 0.22106 0.74258 0.23303 0.0
H810 H 0.27596 0.79483 0.26169 0.0
C811 C 0.23976 0.72157 0.2102 0.0
H812 H 0.22059 0.78623 0.26769 0.0
C813 C 0.2714 0.72669 0.20624 0.0
C814 C 0.28501 0.753 0.22487 0.0
H815 H 0.23001 0.70101 0.1956 0.0
H816 H 0.28534 0.70952 0.18975 0.0
C817 C 0.26614 0.77452 0.24648 0.0
C818 C 0.52008 0.98556 0.46646 0.0
C819 C 0.50105 0.96572 0.49093 0.0
H820 H 0.52924 0.03185 0.44616 0.0
C821 C 0.47576 0.97798 0.51377 0.0
H822 H 0.53956 0.97673 0.44812 0.0
C823 C 0.46959 0.0095 0.51209 0.0
C824 C 0.48863 0.02935 0.48763 0.0
H825 H 0.46046 0.9632 0.53245 0.0
H826 H 0.45012 0.01835 0.53046 0.0
C827 C 0.51393 0.01708 0.46483 0.0
C828 C 0.23592 0.22547 0.76543 0.0
C829 C 0.21607 0.24469 0.74147 0.0
H830 H 0.28219 0.21623 0.7854 0.0
C831 C 0.22829 0.27033 0.71929 0.0
H832 H 0.22713 0.20573 0.78329 0.0
C833 C 0.25981 0.27655 0.72094 0.0
C834 C 0.27966 0.25726 0.74481 0.0
H835 H 0.21348 0.28577 0.701 0.0
H836 H 0.26865 0.29624 0.703 0.0
C837 C 0.26741 0.23172 0.76714 0.0
C838 C 0.01874 0.01196 0.00466 0.0
C839 C 0.99206 0.02427 0.98544 0.0
H840 H 0.04551 0.97169 0.01757 0.0
C841 C 0.97203 0.00457 0.96253 0.0
H842 H 0.03488 0.02662 0.02195 0.0
C843 C 0.97831 0.97306 0.95956 0.0
C844 C 0.00478 0.9607 0.97937 0.0
H845 H 0.9515 0.01346 0.94683 0.0
H846 H 0.96205 0.95831 0.94266 0.0
C847 C 0.02507 0.98053 0.00157 0.0
C848 C 0.75761 0.71954 0.72171 0.0
C849 C 0.77767 0.73838 0.746 0.0
H850 H 0.71139 0.71166 0.70007 0.0
C851 C 0.76575 0.76424 0.76789 0.0
H852 H 0.76617 0.69959 0.70415 0.0
C853 C 0.7345 0.77143 0.76495 0.0
C854 C 0.71451 0.75282 0.74022 0.0
H855 H 0.78067 0.77939 0.78651 0.0
H856 H 0.726 0.7915 0.78228 0.0
C857 C 0.72631 0.72667 0.7189 0.0
C858 C 0.73728 0.27014 0.21228 0.0
C859 C 0.71722 0.25078 0.23584 0.0
H860 H 0.78372 0.27933 0.19259 0.0
C861 C 0.72917 0.22469 0.25709 0.0
H862 H 0.72869 0.29022 0.19509 0.0
C863 C 0.76063 0.21823 0.25515 0.0
C864 C 0.78074 0.23775 0.23195 0.0
H865 H 0.71422 0.20911 0.27501 0.0
H866 H 0.76923 0.19823 0.27253 0.0
C867 C 0.76874 0.26367 0.21032 0.0
C868 C 0.72326 0.26193 0.77746 0.0
C869 C 0.71167 0.23557 0.75641 0.0
H870 H 0.76266 0.2901 0.79054 0.0
C871 C 0.7319 0.21698 0.73198 0.0
H872 H 0.70818 0.27694 0.79606 0.0
C873 C 0.763 0.22479 0.72822 0.0
C874 C 0.77453 0.25132 0.74887 0.0
H875 H 0.72363 0.1967 0.71494 0.0
H876 H 0.77803 0.20987 0.70938 0.0
C877 C 0.75438 0.26974 0.77371 0.0
C878 C 0.75726 0.77379 0.22747 0.0
C879 C 0.77721 0.75506 0.25203 0.0
H880 H 0.71117 0.7818 0.20584 0.0
C881 C 0.76524 0.7293 0.2742 0.0
H882 H 0.76585 0.79362 0.20962 0.0
C883 C 0.73388 0.72234 0.27168 0.0
C884 C 0.714 0.74097 0.24683 0.0
H885 H 0.78013 0.71425 0.29299 0.0
H886 H 0.72521 0.7025 0.28944 0.0
C887 C 0.72599 0.76677 0.2248 0.0
C888 C 0.51627 0.48123 0.96471 0.0
C889 C 0.49133 0.46886 0.98829 0.0
H890 H 0.54184 0.52166 0.94772 0.0
C891 C 0.47287 0.48853 0.01378 0.0
H892 H 0.5311 0.46657 0.94515 0.0
C893 C 0.47931 0.51998 0.01581 0.0
C894 C 0.50425 0.53236 0.99224 0.0
H895 H 0.45369 0.47961 0.03272 0.0
H896 H 0.46449 0.53462 0.03541 0.0
C897 C 0.52266 0.51271 0.96663 0.0
C898 C 0.9663 0.48778 0.47006 0.0
C899 C 0.98489 0.46797 0.49512 0.0
H900 H 0.9586 0.53375 0.4472 0.0
C901 C 0.01076 0.48011 0.51675 0.0
H902 H 0.94639 0.47908 0.45259 0.0
C903 C 0.018 0.51138 0.51315 0.0
C904 C -0.00049 0.53114 0.48787 0.0
H905 H 0.02576 0.46537 0.53588 0.0
H906 H 0.03795 0.52009 0.53052 0.0
C907 C 0.97354 0.51904 0.46646 0.0
C908 C 0.97687 0.47952 0.02117 0.0
C909 C 0.00265 0.46743 -0.00075 0.0
H910 H 0.95062 0.5197 0.03688 0.0
C911 C 0.02211 0.48744 0.9758 0.0
H912 H 0.96127 0.46461 0.03912 0.0
C913 C 0.01578 0.51892 0.97401 0.0
C914 C 0.9899 0.53098 -0.00431 0.0
H915 H 0.042 0.47876 0.95821 0.0
H916 H 0.03134 0.53381 0.95594 0.0
C917 C 0.97054 0.51101 0.01939 0.0
C918 C 0.483 0.47538 0.46936 0.0
C919 C 0.5097 0.4638 0.4895 0.0
H920 H 0.45476 0.51479 0.45687 0.0
C921 C 0.52892 0.48412 0.51272 0.0
H922 H 0.46753 0.46025 0.45165 0.0
C923 C 0.52141 0.51531 0.51613 0.0
C924 C 0.4945 0.5268 0.49649 0.0
H925 H 0.5495 0.47584 0.52897 0.0
H926 H 0.53677 0.53042 0.53406 0.0
C927 C 0.47545 0.50655 0.47289 0.0
C928 C 0.05736 0.3548 0.12217 0.0
C929 C 0.06376 0.34197 0.08095 0.0
H930 H 0.06299 0.3498 0.19174 0.0
C931 C 0.08693 0.31955 0.07703 0.0
H932 H 0.03926 0.37178 0.12585 0.0
C933 C 0.10093 0.30743 0.11451 0.0
C934 C 0.09142 0.31731 0.15614 0.0
H935 H 0.09194 0.30923 0.0454 0.0
H936 H 0.11621 0.28783 0.11114 0.0
C937 C 0.07096 0.34227 0.15974 0.0
C938 C 0.92146 0.84129 0.334 0.0
C939 C 0.9009 0.81643 0.33833 0.0
H940 H 0.95277 0.87158 0.36718 0.0
C941 C 0.89062 0.80771 0.38012 0.0
H942 H 0.92991 0.848 0.30186 0.0
C943 C 0.90401 0.82086 0.41735 0.0
C944 C 0.92738 0.8431 0.41292 0.0
H945 H 0.87518 0.78826 0.38406 0.0
H946 H 0.89853 0.81134 0.44935 0.0
C947 C 0.93447 0.85481 0.37126 0.0
C948 C 0.39556 0.67492 0.63379 0.0
C949 C 0.41136 0.67636 0.67384 0.0
H950 H 0.39819 0.66106 0.56628 0.0
C951 C 0.43737 0.65759 0.68023 0.0
H952 H 0.37555 0.68928 0.62811 0.0
C953 C 0.45009 0.64127 0.64517 0.0
C954 C 0.43688 0.6435 0.60341 0.0
H955 H 0.44978 0.65817 0.7111 0.0
H956 H 0.4723 0.63028 0.64945 0.0
C957 C 0.40838 0.65855 0.59857 0.0
C958 C 0.59586 0.17162 0.87005 0.0
C959 C 0.58135 0.17048 0.82898 0.0
H960 H 0.59193 0.16032 0.93846 0.0
C961 C 0.55637 0.15029 0.82286 0.0
H962 H 0.61494 0.18724 0.87559 0.0
C963 C 0.54355 0.13457 0.8585 0.0
C964 C 0.55547 0.13897 0.90072 0.0
H965 H 0.54485 0.14906 0.79133 0.0
H966 H 0.52214 0.12211 0.85391 0.0
C967 C 0.5828 0.15604 0.9059 0.0
C968 C 0.09027 0.67251 0.40396 0.0
C969 C 0.06572 0.65206 0.39616 0.0
H970 H 0.12177 0.70504 0.37555 0.0
C971 C 0.05963 0.64255 0.35311 0.0
H972 H 0.09496 0.6805 0.43703 0.0
C973 C 0.075 0.65662 0.31799 0.0
C974 C 0.09656 0.68024 0.32568 0.0
H975 H 0.04043 0.62732 0.34633 0.0
H976 H 0.06726 0.65182 0.28485 0.0
C977 C 0.10571 0.68651 0.36884 0.0
C978 C 0.58238 0.84127 0.64097 0.0
C979 C 0.59889 0.81358 0.63644 0.0
H980 H 0.55149 0.87318 0.60998 0.0
C981 C 0.60378 0.80139 0.59447 0.0
H982 H 0.57789 0.85066 0.67334 0.0
C983 C 0.5885 0.81406 0.55846 0.0
C984 C 0.56824 0.83902 0.56415 0.0
H985 H 0.61595 0.77978 0.59041 0.0
H986 H 0.58972 0.80216 0.5272 0.0
C987 C 0.56713 0.85408 0.60481 0.0
C988 C 0.393 0.31167 0.86824 0.0
C989 C 0.40502 0.31833 0.82659 0.0
H990 H 0.39942 0.3168 0.93763 0.0
C991 C 0.42736 0.34156 0.822 0.0
H992 H 0.37613 0.29348 0.87242 0.0
C993 C 0.44032 0.35524 0.85914 0.0
C994 C 0.4313 0.34537 0.90102 0.0
H995 H 0.43711 0.3467 0.79002 0.0
H996 H 0.45988 0.37052 0.85515 0.0
C997 C 0.40633 0.32498 0.90543 0.0
C998 C 0.93346 0.1545 0.16172 0.0
C999 C 0.90928 0.17576 0.15699 0.0
H1000 H 0.96658 0.12618 0.12867 0.0
C1001 C 0.89503 0.17913 0.116 0.0
H1002 H 0.94481 0.15168 0.19316 0.0
C1003 C 0.90766 0.16464 0.07907 0.0
C1004 C 0.9342 0.1463 0.08312 0.0
H1005 H 0.87661 0.19567 0.1116 0.0
H1006 H 0.89884 0.17051 0.04685 0.0
C1007 C 0.94576 0.1397 0.12497 0.0
C1008 C 0.93965 0.6416 0.86226 0.0
C1009 C 0.9293 0.65156 0.90344 0.0
H1010 H 0.93764 0.6491 0.79279 0.0
C1011 C 0.90342 0.67089 0.90614 0.0
H1012 H 0.95991 0.62715 0.85957 0.0
C1013 C 0.89033 0.68307 0.86797 0.0
C1014 C 0.90353 0.67646 0.82703 0.0
H1015 H 0.89547 0.67916 0.93778 0.0
H1016 H 0.87263 0.70054 0.87091 0.0
C1017 C 0.92694 0.6542 0.82415 0.0
C1018 C 0.10225 0.19295 0.61243 0.0
C1019 C 0.09268 0.18369 0.65433 0.0
H1020 H 0.09333 0.19 0.5434 0.0
C1021 C 0.07244 0.15859 0.65874 0.0
H1022 H 0.11742 0.21261 0.60845 0.0
C1023 C 0.05896 0.14537 0.6216 0.0
C1024 C 0.06528 0.15764 0.58001 0.0
H1025 H 0.06451 0.15148 0.69098 0.0
H1026 H 0.04091 0.12836 0.62585 0.0
C1027 C 0.08839 0.18011 0.57535 0.0
C1028 C 0.5944 0.31544 0.40748 0.0
C1029 C 0.57143 0.3382 0.405 0.0
H1030 H 0.62191 0.28296 0.37171 0.0
C1031 C 0.56365 0.35066 0.36405 0.0
H1032 H 0.60038 0.30529 0.43887 0.0
C1033 C 0.57558 0.33752 0.3257 0.0
C1034 C 0.59581 0.3123 0.32814 0.0
H1035 H 0.54562 0.3678 0.36142 0.0
H1036 H 0.56656 0.34492 0.29424 0.0
C1037 C 0.60676 0.30271 0.36916 0.0
C1038 C 0.43647 0.82049 0.10517 0.0
C1039 C 0.46261 0.80696 0.08563 0.0
H1040 H 0.40096 0.81621 0.15443 0.0
C1041 C 0.47226 0.77787 0.10055 0.0
H1042 H 0.42821 0.8427 0.09406 0.0
C1043 C 0.45658 0.76274 0.13391 0.0
C1044 C 0.43076 0.77615 0.15405 0.0
H1045 H 0.49216 0.76649 0.08648 0.0
H1046 H 0.46512 0.74046 0.14436 0.0
C1047 C 0.42058 0.80513 0.13914 0.0
C1048 C 0.89982 0.31889 0.57603 0.0
C1049 C 0.92261 0.34178 0.57982 0.0
H1050 H 0.87159 0.28606 0.61012 0.0
C1051 C 0.92913 0.35423 0.62122 0.0
H1052 H 0.89476 0.30875 0.54431 0.0
C1053 C 0.91614 0.34096 0.65884 0.0
C1054 C 0.89617 0.31556 0.65525 0.0
H1055 H 0.94699 0.37149 0.62491 0.0
H1056 H 0.92428 0.34833 0.69081 0.0
C1057 C 0.88647 0.30597 0.6136 0.0
C1058 C 0.39268 0.19186 0.37309 0.0
C1059 C 0.40278 0.1828 0.33137 0.0
H1060 H 0.4006 0.1885 0.44237 0.0
C1061 C 0.42315 0.1578 0.32733 0.0
H1062 H 0.37739 0.21142 0.37682 0.0
C1063 C 0.43606 0.14436 0.36473 0.0
C1064 C 0.42908 0.15629 0.40628 0.0
H1065 H 0.43148 0.15082 0.29525 0.0
H1066 H 0.45413 0.12736 0.36084 0.0
C1067 C 0.406 0.17881 0.41046 0.0
C1068 C 0.59311 0.67524 0.07448 0.0
C1069 C 0.56971 0.65297 0.07735 0.0
H1070 H 0.62142 0.70699 0.11006 0.0
C1071 C 0.56282 0.63959 0.11807 0.0
H1072 H 0.59846 0.68601 0.04324 0.0
C1073 C 0.57563 0.6519 0.15629 0.0
C1074 C 0.59574 0.6772 0.15373 0.0
H1075 H 0.54452 0.6227 0.12093 0.0
H1076 H 0.56692 0.64425 0.18786 0.0
C1077 C 0.60632 0.68717 0.11263 0.0
C1078 C 0.07217 0.82655 0.83104 0.0
C1079 C 0.08816 0.79856 0.83536 0.0
H1080 H 0.04368 0.86023 0.86311 0.0
C1081 C 0.09212 0.78557 0.877 0.0
H1082 H 0.06845 0.83652 0.79883 0.0
C1083 C 0.07775 0.79881 0.91337 0.0
C1084 C 0.05931 0.82523 0.90851 0.0
H1085 H 0.1039 0.76373 0.88077 0.0
H1086 H 0.07905 0.78703 0.94472 0.0
C1087 C 0.05801 0.84006 0.86764 0.0
loop_
_geom_bond_atom_site_label_1
_geom_bond_atom_site_label_2
_geom_bond_distance
_geom_bond_site_symmetry_2
_ccdc_geom_bond_type
Co0 O1 2.216 . S
Co0 O2 2.091 . S
Co0 O4 2.004 . S
Co0 O10 2.021 . S
Co0 O12 2.137 . S
Co0 O13 2.244 . S
O1 Co0 2.216 . S
O1 C8 1.247 . S
O2 Co0 2.091 . S
O2 C8 1.261 . S
C3 O12 1.247 . S
C3 O13 1.272 . S
O4 Co0 2.004 . S
O4 C9 1.259 . S
Co5 O6 2.061 . S
Co5 O11 2.052 . S
Co5 O13 2.135 . S
O6 Co5 2.061 . S
O6 C9 1.235 . S
C7 O10 1.238 . S
C7 O11 1.241 . S
C8 O1 1.247 . S
C8 O2 1.261 . S
C9 O4 1.259 . S
C9 O6 1.235 . S
O10 Co0 2.021 . S
O10 C7 1.238 . S
O11 Co5 2.052 . S
O11 C7 1.241 . S
O12 Co0 2.137 . S
O12 C3 1.247 . S
O13 Co0 2.244 . S
O13 C3 1.272 . S
O13 Co5 2.135 . S
Co14 O15 2.216 . S
Co14 O16 2.091 . S
Co14 O18 2.004 . S
Co14 O24 2.021 . S
Co14 O26 2.137 . S
Co14 O27 2.244 . S
O15 Co14 2.216 . S
O15 C22 1.247 . S
O16 Co14 2.091 . S
O16 C22 1.261 . S
C17 O26 1.247 . S
C17 O27 1.272 . S
O18 Co14 2.004 . S
O18 C23 1.259 . S
Co19 O20 2.061 . S
Co19 O25 2.052 . S
Co19 O27 2.135 . S
O20 Co19 2.061 . S
O20 C23 1.235 . S
C21 O24 1.238 . S
C21 O25 1.241 . S
C22 O15 1.247 . S
C22 O16 1.261 . S
C23 O18 1.259 . S
C23 O20 1.235 . S
O24 Co14 2.021 . S
O24 C21 1.238 . S
O25 Co19 2.052 . S
O25 C21 1.241 . S
O26 Co14 2.137 . S
O26 C17 1.247 . S
O27 Co14 2.244 . S
O27 C17 1.272 . S
O27 Co19 2.135 . S
Co28 O29 2.216 . S
Co28 O30 2.091 . S
Co28 O32 2.004 . S
Co28 O38 2.021 . S
Co28 O40 2.137 . S
Co28 O41 2.244 . S
O29 Co28 2.216 . S
O29 C36 1.247 . S
O30 Co28 2.091 . S
O30 C36 1.261 . S
C31 O40 1.247 . S
C31 O41 1.272 . S
O32 Co28 2.004 . S
O32 C37 1.259 . S
Co33 O34 2.061 . S
Co33 O39 2.052 . S
Co33 O41 2.135 . S
O34 Co33 2.061 . S
O34 C37 1.235 . S
C35 O38 1.238 . S
C35 O39 1.241 . S
C36 O29 1.247 . S
C36 O30 1.261 . S
C37 O32 1.259 . S
C37 O34 1.235 . S
O38 Co28 2.021 . S
O38 C35 1.238 . S
O39 Co33 2.052 . S
O39 C35 1.241 . S
O40 Co28 2.137 . S
O40 C31 1.247 . S
O41 Co28 2.244 . S
O41 C31 1.272 . S
O41 Co33 2.135 . S
Co42 O43 2.216 . S
Co42 O44 2.091 . S
Co42 O46 2.004 . S
Co42 O52 2.021 1_554 S
Co42 O54 2.137 . S
Co42 O55 2.244 . S
O43 Co42 2.216 . S
O43 C50 1.247 . S
O44 Co42 2.091 . S
O44 C50 1.261 . S
C45 O54 1.247 . S
C45 O55 1.272 . S
O46 Co42 2.004 . S
O46 C51 1.259 . S
Co47 O48 2.061 . S
Co47 O53 2.052 1_554 S
Co47 O55 2.135 . S
O48 Co47 2.061 . S
O48 C51 1.235 . S
C49 O52 1.238 . S
C49 O53 1.241 . S
C50 O43 1.247 . S
C50 O44 1.261 . S
C51 O46 1.259 . S
C51 O48 1.235 . S
O52 Co42 2.021 1_556 S
O52 C49 1.238 . S
O53 Co47 2.052 1_556 S
O53 C49 1.241 . S
O54 Co42 2.137 . S
O54 C45 1.247 . S
O55 Co42 2.244 . S
O55 C45 1.272 . S
O55 Co47 2.135 . S
Co56 O57 2.216 . S
Co56 O58 2.091 . S
Co56 O60 2.004 . S
Co56 O66 2.021 . S
Co56 O68 2.137 . S
Co56 O69 2.244 . S
O57 Co56 2.216 . S
O57 C64 1.247 . S
O58 Co56 2.091 . S
O58 C64 1.261 . S
C59 O68 1.247 . S
C59 O69 1.272 . S
O60 Co56 2.004 . S
O60 C65 1.259 . S
Co61 O62 2.061 . S
Co61 O67 2.052 . S
Co61 O69 2.135 . S
O62 Co61 2.061 . S
O62 C65 1.235 . S
C63 O66 1.238 . S
C63 O67 1.241 . S
C64 O57 1.247 . S
C64 O58 1.261 . S
C65 O60 1.259 . S
C65 O62 1.235 . S
O66 Co56 2.021 . S
O66 C63 1.238 . S
O67 Co61 2.052 . S
O67 C63 1.241 . S
O68 Co56 2.137 . S
O68 C59 1.247 . S
O69 Co56 2.244 . S
O69 C59 1.272 . S
O69 Co61 2.135 . S
Co70 O71 2.216 . S
Co70 O72 2.091 . S
Co70 O74 2.004 . S
Co70 O80 2.021 . S
Co70 O82 2.137 . S
Co70 O83 2.244 . S
O71 Co70 2.216 . S
O71 C78 1.247 . S
O72 Co70 2.091 . S
O72 C78 1.261 . S
C73 O82 1.247 . S
C73 O83 1.272 . S
O74 Co70 2.004 . S
O74 C79 1.259 . S
Co75 O76 2.061 . S
Co75 O81 2.052 . S
Co75 O83 2.135 . S
O76 Co75 2.061 . S
O76 C79 1.235 . S
C77 O80 1.238 . S
C77 O81 1.241 . S
C78 O71 1.247 . S
C78 O72 1.261 . S
C79 O74 1.259 . S
C79 O76 1.235 . S
O80 Co70 2.021 . S
O80 C77 1.238 . S
O81 Co75 2.052 . S
O81 C77 1.241 . S
O82 Co70 2.137 . S
O82 C73 1.247 . S
O83 Co70 2.244 . S
O83 C73 1.272 . S
O83 Co75 2.135 . S
Co84 O85 2.216 . S
Co84 O86 2.091 . S
Co84 O88 2.004 . S
Co84 O94 2.021 . S
Co84 O96 2.137 . S
Co84 O97 2.244 . S
O85 Co84 2.216 . S
O85 C92 1.247 . S
O86 Co84 2.091 . S
O86 C92 1.261 . S
C87 O96 1.247 . S
C87 O97 1.272 . S
O88 Co84 2.004 . S
O88 C93 1.259 . S
Co89 O90 2.061 . S
Co89 O95 2.052 . S
Co89 O97 2.135 . S
O90 Co89 2.061 . S
O90 C93 1.235 . S
C91 O94 1.238 . S
C91 O95 1.241 . S
C92 O85 1.247 . S
C92 O86 1.261 . S
C93 O88 1.259 . S
C93 O90 1.235 . S
O94 Co84 2.021 . S
O94 C91 1.238 . S
O95 Co89 2.052 . S
O95 C91 1.241 . S
O96 Co84 2.137 . S
O96 C87 1.247 . S
O97 Co84 2.244 . S
O97 C87 1.272 . S
O97 Co89 2.135 . S
Co98 O99 2.216 . S
Co98 O100 2.091 . S
Co98 O102 2.004 . S
Co98 O108 2.021 1_556 S
Co98 O110 2.137 . S
Co98 O111 2.244 . S
O99 Co98 2.216 . S
O99 C106 1.247 . S
O100 Co98 2.091 . S
O100 C106 1.261 . S
C101 O110 1.247 . S
C101 O111 1.272 . S
O102 Co98 2.004 . S
O102 C107 1.259 . S
Co103 O104 2.061 . S
Co103 O109 2.052 1_556 S
Co103 O111 2.135 . S
O104 Co103 2.061 . S
O104 C107 1.235 . S
C105 O108 1.238 . S
C105 O109 1.241 . S
C106 O99 1.247 . S
C106 O100 1.261 . S
C107 O102 1.259 . S
C107 O104 1.235 . S
O108 Co98 2.021 1_554 S
O108 C105 1.238 . S
O109 Co103 2.052 1_554 S
O109 C105 1.241 . S
O110 Co98 2.137 . S
O110 C101 1.247 . S
O111 Co98 2.244 . S
O111 C101 1.272 . S
O111 Co103 2.135 . S
Co112 O113 2.216 . S
Co112 O114 2.091 . S
Co112 O116 2.004 . S
Co112 O122 2.021 . S
Co112 O124 2.137 . S
Co112 O125 2.244 . S
O113 Co112 2.216 . S
O113 C120 1.247 . S
O114 Co112 2.091 . S
O114 C120 1.261 . S
C115 O124 1.247 . S
C115 O125 1.272 . S
O116 Co112 2.004 . S
O116 C121 1.259 . S
Co117 O118 2.061 . S
Co117 O123 2.052 . S
Co117 O125 2.135 . S
O118 Co117 2.061 . S
O118 C121 1.235 . S
C119 O122 1.238 . S
C119 O123 1.241 . S
C120 O113 1.247 . S
C120 O114 1.261 . S
C121 O116 1.259 . S
C121 O118 1.235 . S
O122 Co112 2.021 . S
O122 C119 1.238 . S
O123 Co117 2.052 . S
O123 C119 1.241 . S
O124 Co112 2.137 . S
O124 C115 1.247 . S
O125 Co112 2.244 . S
O125 C115 1.272 . S
O125 Co117 2.135 . S
Co126 O127 2.216 . S
Co126 O128 2.091 . S
Co126 O130 2.004 . S
Co126 O136 2.021 . S
Co126 O138 2.137 . S
Co126 O139 2.244 . S
O127 Co126 2.216 . S
O127 C134 1.247 . S
O128 Co126 2.091 . S
O128 C134 1.261 . S
C129 O138 1.247 . S
C129 O139 1.272 . S
O130 Co126 2.004 . S
O130 C135 1.259 . S
Co131 O132 2.061 . S
Co131 O137 2.052 . S
Co131 O139 2.135 . S
O132 Co131 2.061 . S
O132 C135 1.235 . S
C133 O136 1.238 . S
C133 O137 1.241 . S
C134 O127 1.247 . S
C134 O128 1.261 . S
C135 O130 1.259 . S
C135 O132 1.235 . S
O136 Co126 2.021 . S
O136 C133 1.238 . S
O137 Co131 2.052 . S
O137 C133 1.241 . S
O138 Co126 2.137 . S
O138 C129 1.247 . S
O139 Co126 2.244 . S
O139 C129 1.272 . S
O139 Co131 2.135 . S
Co140 O141 2.216 . S
Co140 O142 2.091 . S
Co140 O144 2.004 . S
Co140 O150 2.021 . S
Co140 O152 2.137 . S
Co140 O153 2.244 . S
O141 Co140 2.216 . S
O141 C148 1.247 . S
O142 Co140 2.091 . S
O142 C148 1.261 . S
C143 O152 1.247 . S
C143 O153 1.272 . S
O144 Co140 2.004 . S
O144 C149 1.259 . S
Co145 O146 2.061 . S
Co145 O151 2.052 . S
Co145 O153 2.135 . S
O146 Co145 2.061 . S
O146 C149 1.235 . S
C147 O150 1.238 . S
C147 O151 1.241 . S
C148 O141 1.247 . S
C148 O142 1.261 . S
C149 O144 1.259 . S
C149 O146 1.235 . S
O150 Co140 2.021 . S
O150 C147 1.238 . S
O151 Co145 2.052 . S
O151 C147 1.241 . S
O152 Co140 2.137 . S
O152 C143 1.247 . S
O153 Co140 2.244 . S
O153 C143 1.272 . S
O153 Co145 2.135 . S
Co154 O155 2.216 . S
Co154 O156 2.091 . S
Co154 O158 2.004 . S
Co154 O164 2.021 1_556 S
Co154 O166 2.137 . S
Co154 O167 2.244 . S
O155 Co154 2.216 . S
O155 C162 1.247 . S
O156 Co154 2.091 . S
O156 C162 1.261 . S
C157 O166 1.247 . S
C157 O167 1.272 . S
O158 Co154 2.004 . S
O158 C163 1.259 . S
Co159 O160 2.061 . S
Co159 O165 2.052 1_556 S
Co159 O167 2.135 . S
O160 Co159 2.061 . S
O160 C163 1.235 . S
C161 O164 1.238 . S
C161 O165 1.241 . S
C162 O155 1.247 . S
C162 O156 1.261 . S
C163 O158 1.259 . S
C163 O160 1.235 . S
O164 Co154 2.021 1_554 S
O164 C161 1.238 . S
O165 Co159 2.052 1_554 S
O165 C161 1.241 . S
O166 Co154 2.137 . S
O166 C157 1.247 . S
O167 Co154 2.244 . S
O167 C157 1.272 . S
O167 Co159 2.135 . S
Co168 O169 2.216 . S
Co168 O170 2.091 . S
Co168 O172 2.004 . S
Co168 O178 2.021 . S
Co168 O180 2.137 . S
Co168 O181 2.244 . S
O169 Co168 2.216 . S
O169 C176 1.247 . S
O170 Co168 2.091 . S
O170 C176 1.261 . S
C171 O180 1.247 . S
C171 O181 1.272 . S
O172 Co168 2.004 . S
O172 C177 1.259 . S
Co173 O174 2.061 . S
Co173 O179 2.052 . S
Co173 O181 2.135 . S
O174 Co173 2.061 . S
O174 C177 1.235 . S
C175 O178 1.238 . S
C175 O179 1.241 . S
C176 O169 1.247 . S
C176 O170 1.261 . S
C177 O172 1.259 . S
C177 O174 1.235 . S
O178 Co168 2.021 . S
O178 C175 1.238 . S
O179 Co173 2.052 . S
O179 C175 1.241 . S
O180 Co168 2.137 . S
O180 C171 1.247 . S
O181 Co168 2.244 . S
O181 C171 1.272 . S
O181 Co173 2.135 . S
Co182 O183 2.216 . S
Co182 O184 2.091 . S
Co182 O186 2.004 . S
Co182 O192 2.021 . S
Co182 O194 2.137 . S
Co182 O195 2.244 . S
O183 Co182 2.216 . S
O183 C190 1.247 . S
O184 Co182 2.091 . S
O184 C190 1.261 . S
C185 O194 1.247 . S
C185 O195 1.272 . S
O186 Co182 2.004 . S
O186 C191 1.259 . S
Co187 O188 2.061 . S
Co187 O193 2.052 . S
Co187 O195 2.135 . S
O188 Co187 2.061 . S
O188 C191 1.235 . S
C189 O192 1.238 . S
C189 O193 1.241 . S
C190 O183 1.247 . S
C190 O184 1.261 . S
C191 O186 1.259 . S
C191 O188 1.235 . S
O192 Co182 2.021 . S
O192 C189 1.238 . S
O193 Co187 2.052 . S
O193 C189 1.241 . S
O194 Co182 2.137 . S
O194 C185 1.247 . S
O195 Co182 2.244 . S
O195 C185 1.272 . S
O195 Co187 2.135 . S
Co196 O197 2.216 . S
Co196 O198 2.091 . S
Co196 O200 2.004 . S
Co196 O206 2.021 . S
Co196 O208 2.137 . S
Co196 O209 2.244 . S
O197 Co196 2.216 . S
O197 C204 1.247 . S
O198 Co196 2.091 . S
O198 C204 1.261 . S
C199 O208 1.247 . S
C199 O209 1.272 . S
O200 Co196 2.004 . S
O200 C205 1.259 . S
Co201 O202 2.061 . S
Co201 O207 2.052 . S
Co201 O209 2.135 . S
O202 Co201 2.061 . S
O202 C205 1.235 . S
C203 O206 1.238 . S
C203 O207 1.241 . S
C204 O197 1.247 . S
C204 O198 1.261 . S
C205 O200 1.259 . S
C205 O202 1.235 . S
O206 Co196 2.021 . S
O206 C203 1.238 . S
O207 Co201 2.052 . S
O207 C203 1.241 . S
O208 Co196 2.137 . S
O208 C199 1.247 . S
O209 Co196 2.244 . S
O209 C199 1.272 . S
O209 Co201 2.135 . S
Co210 O211 2.216 . S
Co210 O212 2.091 . S
Co210 O214 2.004 . S
Co210 O220 2.021 1_554 S
Co210 O222 2.137 . S
Co210 O223 2.244 . S
O211 Co210 2.216 . S
O211 C218 1.247 . S
O212 Co210 2.091 . S
O212 C218 1.261 . S
C213 O222 1.247 . S
C213 O223 1.272 . S
O214 Co210 2.004 . S
O214 C219 1.259 . S
Co215 O216 2.061 . S
Co215 O221 2.052 1_554 S
Co215 O223 2.135 . S
O216 Co215 2.061 . S
O216 C219 1.235 . S
C217 O220 1.238 . S
C217 O221 1.241 . S
C218 O211 1.247 . S
C218 O212 1.261 . S
C219 O214 1.259 . S
C219 O216 1.235 . S
O220 Co210 2.021 1_556 S
O220 C217 1.238 . S
O221 Co215 2.052 1_556 S
O221 C217 1.241 . S
O222 Co210 2.137 . S
O222 C213 1.247 . S
O223 Co210 2.244 . S
O223 C213 1.272 . S
O223 Co215 2.135 . S
Co224 O225 2.216 . S
Co224 O226 2.091 . S
Co224 O228 2.004 . S
Co224 O234 2.021 . S
Co224 O236 2.137 . S
Co224 O237 2.244 . S
O225 Co224 2.216 . S
O225 C232 1.247 . S
O226 Co224 2.091 . S
O226 C232 1.261 . S
C227 O236 1.247 . S
C227 O237 1.272 . S
O228 Co224 2.004 . S
O228 C233 1.259 . S
Co229 O230 2.061 . S
Co229 O235 2.052 . S
Co229 O237 2.135 . S
O230 Co229 2.061 . S
O230 C233 1.235 . S
C231 O234 1.238 . S
C231 O235 1.241 . S
C232 O225 1.247 . S
C232 O226 1.261 . S
C233 O228 1.259 . S
C233 O230 1.235 . S
O234 Co224 2.021 . S
O234 C231 1.238 . S
O235 Co229 2.052 . S
O235 C231 1.241 . S
O236 Co224 2.137 . S
O236 C227 1.247 . S
O237 Co224 2.244 . S
O237 C227 1.272 . S
O237 Co229 2.135 . S
Co238 O239 2.216 . S
Co238 O240 2.091 . S
Co238 O242 2.004 . S
Co238 O248 2.021 1_554 S
Co238 O250 2.137 . S
Co238 O251 2.244 . S
O239 Co238 2.216 . S
O239 C246 1.247 . S
O240 Co238 2.091 . S
O240 C246 1.261 . S
C241 O250 1.247 . S
C241 O251 1.272 . S
O242 Co238 2.004 . S
O242 C247 1.259 . S
Co243 O244 2.061 . S
Co243 O249 2.052 1_554 S
Co243 O251 2.135 . S
O244 Co243 2.061 . S
O244 C247 1.235 . S
C245 O248 1.238 . S
C245 O249 1.241 . S
C246 O239 1.247 . S
C246 O240 1.261 . S
C247 O242 1.259 . S
C247 O244 1.235 . S
O248 Co238 2.021 1_556 S
O248 C245 1.238 . S
O249 Co243 2.052 1_556 S
O249 C245 1.241 . S
O250 Co238 2.137 . S
O250 C241 1.247 . S
O251 Co238 2.244 . S
O251 C241 1.272 . S
O251 Co243 2.135 . S
Co252 O253 2.216 . S
Co252 O254 2.091 . S
Co252 O256 2.004 . S
Co252 O262 2.021 . S
Co252 O264 2.137 . S
Co252 O265 2.244 . S
O253 Co252 2.216 . S
O253 C260 1.247 . S
O254 Co252 2.091 . S
O254 C260 1.261 . S
C255 O264 1.247 . S
C255 O265 1.272 . S
O256 Co252 2.004 . S
O256 C261 1.259 . S
Co257 O258 2.061 . S
Co257 O263 2.052 . S
Co257 O265 2.135 . S
O258 Co257 2.061 . S
O258 C261 1.235 . S
C259 O262 1.238 . S
C259 O263 1.241 . S
C260 O253 1.247 . S
C260 O254 1.261 . S
C261 O256 1.259 . S
C261 O258 1.235 . S
O262 Co252 2.021 . S
O262 C259 1.238 . S
O263 Co257 2.052 . S
O263 C259 1.241 . S
O264 Co252 2.137 . S
O264 C255 1.247 . S
O265 Co252 2.244 . S
O265 C255 1.272 . S
O265 Co257 2.135 . S
Co266 O267 2.216 . S
Co266 O268 2.091 . S
Co266 O270 2.004 . S
Co266 O276 2.021 . S
Co266 O278 2.137 . S
Co266 O279 2.244 . S
O267 Co266 2.216 . S
O267 C274 1.247 . S
O268 Co266 2.091 . S
O268 C274 1.261 . S
C269 O278 1.247 . S
C269 O279 1.272 . S
O270 Co266 2.004 . S
O270 C275 1.259 . S
Co271 O272 2.061 . S
Co271 O277 2.052 . S
Co271 O279 2.135 . S
O272 Co271 2.061 . S
O272 C275 1.235 . S
C273 O276 1.238 . S
C273 O277 1.241 . S
C274 O267 1.247 . S
C274 O268 1.261 . S
C275 O270 1.259 . S
C275 O272 1.235 . S
O276 Co266 2.021 . S
O276 C273 1.238 . S
O277 Co271 2.052 . S
O277 C273 1.241 . S
O278 Co266 2.137 . S
O278 C269 1.247 . S
O279 Co266 2.244 . S
O279 C269 1.272 . S
O279 Co271 2.135 . S
Co280 O281 2.216 . S
Co280 O282 2.091 . S
Co280 O284 2.004 . S
Co280 O290 2.021 . S
Co280 O292 2.137 . S
Co280 O293 2.244 . S
O281 Co280 2.216 . S
O281 C288 1.247 . S
O282 Co280 2.091 . S
O282 C288 1.261 . S
C283 O292 1.247 . S
C283 O293 1.272 . S
O284 Co280 2.004 . S
O284 C289 1.259 . S
Co285 O286 2.061 . S
Co285 O291 2.052 . S
Co285 O293 2.135 . S
O286 Co285 2.061 . S
O286 C289 1.235 . S
C287 O290 1.238 . S
C287 O291 1.241 . S
C288 O281 1.247 . S
C288 O282 1.261 . S
C289 O284 1.259 . S
C289 O286 1.235 . S
O290 Co280 2.021 . S
O290 C287 1.238 . S
O291 Co285 2.052 . S
O291 C287 1.241 . S
O292 Co280 2.137 . S
O292 C283 1.247 . S
O293 Co280 2.244 . S
O293 C283 1.272 . S
O293 Co285 2.135 . S
Co294 O295 2.216 . S
Co294 O296 2.091 . S
Co294 O298 2.004 . S
Co294 O304 2.021 1_556 S
Co294 O306 2.137 . S
Co294 O307 2.244 . S
O295 Co294 2.216 . S
O295 C302 1.247 . S
O296 Co294 2.091 . S
O296 C302 1.261 . S
C297 O306 1.247 . S
C297 O307 1.272 . S
O298 Co294 2.004 . S
O298 C303 1.259 . S
Co299 O300 2.061 . S
Co299 O305 2.052 1_556 S
Co299 O307 2.135 . S
O300 Co299 2.061 . S
O300 C303 1.235 . S
C301 O304 1.238 . S
C301 O305 1.241 . S
C302 O295 1.247 . S
C302 O296 1.261 . S
C303 O298 1.259 . S
C303 O300 1.235 . S
O304 Co294 2.021 1_554 S
O304 C301 1.238 . S
O305 Co299 2.052 1_554 S
O305 C301 1.241 . S
O306 Co294 2.137 . S
O306 C297 1.247 . S
O307 Co294 2.244 . S
O307 C297 1.272 . S
O307 Co299 2.135 . S
Co308 O309 2.216 . S
Co308 O310 2.091 . S
Co308 O312 2.004 . S
Co308 O318 2.021 . S
Co308 O320 2.137 . S
Co308 O321 2.244 . S
O309 Co308 2.216 . S
O309 C316 1.247 . S
O310 Co308 2.091 . S
O310 C316 1.261 . S
C311 O320 1.247 . S
C311 O321 1.272 . S
O312 Co308 2.004 . S
O312 C317 1.259 . S
Co313 O314 2.061 . S
Co313 O319 2.052 . S
Co313 O321 2.135 . S
O314 Co313 2.061 . S
O314 C317 1.235 . S
C315 O318 1.238 . S
C315 O319 1.241 . S
C316 O309 1.247 . S
C316 O310 1.261 . S
C317 O312 1.259 . S
C317 O314 1.235 . S
O318 Co308 2.021 . S
O318 C315 1.238 . S
O319 Co313 2.052 . S
O319 C315 1.241 . S
O320 Co308 2.137 . S
O320 C311 1.247 . S
O321 Co308 2.244 . S
O321 C311 1.272 . S
O321 Co313 2.135 . S
Co322 O323 2.216 . S
Co322 O324 2.091 . S
Co322 O326 2.004 . S
Co322 O332 2.021 . S
Co322 O334 2.137 . S
Co322 O335 2.244 . S
O323 Co322 2.216 . S
O323 C330 1.247 . S
O324 Co322 2.091 . S
O324 C330 1.261 . S
C325 O334 1.247 . S
C325 O335 1.272 . S
O326 Co322 2.004 . S
O326 C331 1.259 . S
Co327 O328 2.061 . S
Co327 O333 2.052 . S
Co327 O335 2.135 . S
O328 Co327 2.061 . S
O328 C331 1.235 . S
C329 O332 1.238 . S
C329 O333 1.241 . S
C330 O323 1.247 . S
C330 O324 1.261 . S
C331 O326 1.259 . S
C331 O328 1.235 . S
O332 Co322 2.021 . S
O332 C329 1.238 . S
O333 Co327 2.052 . S
O333 C329 1.241 . S
O334 Co322 2.137 . S
O334 C325 1.247 . S
O335 Co322 2.244 . S
O335 C325 1.272 . S
O335 Co327 2.135 . S
Co336 O337 2.216 . S
Co336 O338 2.091 . S
Co336 O340 2.004 . S
Co336 O346 2.021 . S
Co336 O348 2.137 . S
Co336 O349 2.244 . S
O337 Co336 2.216 . S
O337 C344 1.247 . S
O338 Co336 2.091 . S
O338 C344 1.261 . S
C339 O348 1.247 . S
C339 O349 1.272 . S
O340 Co336 2.004 . S
O340 C345 1.259 . S
Co341 O342 2.061 . S
Co341 O347 2.052 . S
Co341 O349 2.135 . S
O342 Co341 2.061 . S
O342 C345 1.235 . S
C343 O346 1.238 . S
C343 O347 1.241 . S
C344 O337 1.247 . S
C344 O338 1.261 . S
C345 O340 1.259 . S
C345 O342 1.235 . S
O346 Co336 2.021 . S
O346 C343 1.238 . S
O347 Co341 2.052 . S
O347 C343 1.241 . S
O348 Co336 2.137 . S
O348 C339 1.247 . S
O349 Co336 2.244 . S
O349 C339 1.272 . S
O349 Co341 2.135 . S
Co350 O351 2.216 . S
Co350 O352 2.091 . S
Co350 O354 2.004 . S
Co350 O360 2.021 1_556 S
Co350 O362 2.137 . S
Co350 O363 2.244 . S
O351 Co350 2.216 . S
O351 C358 1.247 . S
O352 Co350 2.091 . S
O352 C358 1.261 . S
C353 O362 1.247 . S
C353 O363 1.272 . S
O354 Co350 2.004 . S
O354 C359 1.259 . S
Co355 O356 2.061 . S
Co355 O361 2.052 1_556 S
Co355 O363 2.135 . S
O356 Co355 2.061 . S
O356 C359 1.235 . S
C357 O360 1.238 . S
C357 O361 1.241 . S
C358 O351 1.247 . S
C358 O352 1.261 . S
C359 O354 1.259 . S
C359 O356 1.235 . S
O360 Co350 2.021 1_554 S
O360 C357 1.238 . S
O361 Co355 2.052 1_554 S
O361 C357 1.241 . S
O362 Co350 2.137 . S
O362 C353 1.247 . S
O363 Co350 2.244 . S
O363 C353 1.272 . S
O363 Co355 2.135 . S
Co364 O365 2.216 . S
Co364 O366 2.091 . S
Co364 O368 2.004 . S
Co364 O374 2.021 . S
Co364 O376 2.137 . S
Co364 O377 2.244 . S
O365 Co364 2.216 . S
O365 C372 1.247 . S
O366 Co364 2.091 . S
O366 C372 1.261 . S
C367 O376 1.247 . S
C367 O377 1.272 . S
O368 Co364 2.004 . S
O368 C373 1.259 . S
Co369 O370 2.061 . S
Co369 O375 2.052 . S
Co369 O377 2.135 . S
O370 Co369 2.061 . S
O370 C373 1.235 . S
C371 O374 1.238 . S
C371 O375 1.241 . S
C372 O365 1.247 . S
C372 O366 1.261 . S
C373 O368 1.259 . S
C373 O370 1.235 . S
O374 Co364 2.021 . S
O374 C371 1.238 . S
O375 Co369 2.052 . S
O375 C371 1.241 . S
O376 Co364 2.137 . S
O376 C367 1.247 . S
O377 Co364 2.244 . S
O377 C367 1.272 . S
O377 Co369 2.135 . S
Co378 O379 2.216 . S
Co378 O380 2.091 . S
Co378 O382 2.004 . S
Co378 O388 2.021 . S
Co378 O390 2.137 . S
Co378 O391 2.244 . S
O379 Co378 2.216 . S
O379 C386 1.247 . S
O380 Co378 2.091 . S
O380 C386 1.261 . S
C381 O390 1.247 . S
C381 O391 1.272 . S
O382 Co378 2.004 . S
O382 C387 1.259 . S
Co383 O384 2.061 . S
Co383 O389 2.052 . S
Co383 O391 2.135 . S
O384 Co383 2.061 . S
O384 C387 1.235 . S
C385 O388 1.238 . S
C385 O389 1.241 . S
C386 O379 1.247 . S
C386 O380 1.261 . S
C387 O382 1.259 . S
C387 O384 1.235 . S
O388 Co378 2.021 . S
O388 C385 1.238 . S
O389 Co383 2.052 . S
O389 C385 1.241 . S
O390 Co378 2.137 . S
O390 C381 1.247 . S
O391 Co378 2.244 . S
O391 C381 1.272 . S
O391 Co383 2.135 . S
Co392 O393 2.216 . S
Co392 O394 2.091 . S
Co392 O396 2.004 . S
Co392 O402 2.021 . S
Co392 O404 2.137 . S
Co392 O405 2.244 . S
O393 Co392 2.216 . S
O393 C400 1.247 . S
O394 Co392 2.091 . S
O394 C400 1.261 . S
C395 O404 1.247 . S
C395 O405 1.272 . S
O396 Co392 2.004 . S
O396 C401 1.259 . S
Co397 O398 2.061 . S
Co397 O403 2.052 . S
Co397 O405 2.135 . S
O398 Co397 2.061 . S
O398 C401 1.235 . S
C399 O402 1.238 . S
C399 O403 1.241 . S
C400 O393 1.247 . S
C400 O394 1.261 . S
C401 O396 1.259 . S
C401 O398 1.235 . S
O402 Co392 2.021 . S
O402 C399 1.238 . S
O403 Co397 2.052 . S
O403 C399 1.241 . S
O404 Co392 2.137 . S
O404 C395 1.247 . S
O405 Co392 2.244 . S
O405 C395 1.272 . S
O405 Co397 2.135 . S
Co406 O407 2.216 . S
Co406 O408 2.091 . S
Co406 O410 2.004 . S
Co406 O416 2.021 1_554 S
Co406 O418 2.137 . S
Co406 O419 2.244 . S
O407 Co406 2.216 . S
O407 C414 1.247 . S
O408 Co406 2.091 . S
O408 C414 1.261 . S
C409 O418 1.247 . S
C409 O419 1.272 . S
O410 Co406 2.004 . S
O410 C415 1.259 . S
Co411 O412 2.061 . S
Co411 O417 2.052 1_554 S
Co411 O419 2.135 . S
O412 Co411 2.061 . S
O412 C415 1.235 . S
C413 O416 1.238 . S
C413 O417 1.241 . S
C414 O407 1.247 . S
C414 O408 1.261 . S
C415 O410 1.259 . S
C415 O412 1.235 . S
O416 Co406 2.021 1_556 S
O416 C413 1.238 . S
O417 Co411 2.052 1_556 S
O417 C413 1.241 . S
O418 Co406 2.137 . S
O418 C409 1.247 . S
O419 Co406 2.244 . S
O419 C409 1.272 . S
O419 Co411 2.135 . S
Co420 O421 2.216 . S
Co420 O422 2.091 . S
Co420 O424 2.004 . S
Co420 O430 2.021 . S
Co420 O432 2.137 . S
Co420 O433 2.244 . S
O421 Co420 2.216 . S
O421 C428 1.247 . S
O422 Co420 2.091 . S
O422 C428 1.261 . S
C423 O432 1.247 . S
C423 O433 1.272 . S
O424 Co420 2.004 . S
O424 C429 1.259 . S
Co425 O426 2.061 . S
Co425 O431 2.052 . S
Co425 O433 2.135 . S
O426 Co425 2.061 . S
O426 C429 1.235 . S
C427 O430 1.238 . S
C427 O431 1.241 . S
C428 O421 1.247 . S
C428 O422 1.261 . S
C429 O424 1.259 . S
C429 O426 1.235 . S
O430 Co420 2.021 . S
O430 C427 1.238 . S
O431 Co425 2.052 . S
O431 C427 1.241 . S
O432 Co420 2.137 . S
O432 C423 1.247 . S
O433 Co420 2.244 . S
O433 C423 1.272 . S
O433 Co425 2.135 . S
Co434 O435 2.216 . S
Co434 O436 2.091 . S
Co434 O438 2.004 . S
Co434 O444 2.021 . S
Co434 O446 2.137 . S
Co434 O447 2.244 . S
O435 Co434 2.216 . S
O435 C442 1.247 . S
O436 Co434 2.091 . S
O436 C442 1.261 . S
C437 O446 1.247 . S
C437 O447 1.272 . S
O438 Co434 2.004 . S
O438 C443 1.259 . S
Co439 O440 2.061 . S
Co439 O445 2.052 . S
Co439 O447 2.135 . S
O440 Co439 2.061 . S
O440 C443 1.235 . S
C441 O444 1.238 . S
C441 O445 1.241 . S
C442 O435 1.247 . S
C442 O436 1.261 . S
C443 O438 1.259 . S
C443 O440 1.235 . S
O444 Co434 2.021 . S
O444 C441 1.238 . S
O445 Co439 2.052 . S
O445 C441 1.241 . S
O446 Co434 2.137 . S
O446 C437 1.247 . S
O447 Co434 2.244 . S
O447 C437 1.272 . S
O447 Co439 2.135 . S
C448 C449 1.387 . S
C448 H452 0.950 . S
C448 C457 1.390 . S
C449 C448 1.387 . S
C449 C451 1.387 . S
H450 C457 0.950 . S
C451 C449 1.387 . S
C451 C453 1.390 . S
C451 H455 0.950 . S
H452 C448 0.950 . S
C453 C451 1.390 . S
C453 C454 1.387 . S
C453 H456 0.950 . S
C454 C453 1.387 . S
C454 C457 1.387 . S
H455 C451 0.950 . S
H456 C453 0.950 . S
C457 C448 1.390 . S
C457 H450 0.950 . S
C457 C454 1.387 . S
C458 C459 1.387 . S
C458 H462 0.950 . S
C458 C467 1.390 . S
C459 C458 1.387 . S
C459 C461 1.387 . S
H460 C467 0.950 . S
C461 C459 1.387 . S
C461 C463 1.390 . S
C461 H465 0.950 . S
H462 C458 0.950 . S
C463 C461 1.390 . S
C463 C464 1.387 . S
C463 H466 0.950 . S
C464 C463 1.387 . S
C464 C467 1.387 . S
H465 C461 0.950 . S
H466 C463 0.950 . S
C467 C458 1.390 . S
C467 H460 0.950 . S
C467 C464 1.387 . S
C468 C469 1.387 . S
C468 H472 0.950 . S
C468 C477 1.390 . S
C469 C468 1.387 . S
C469 C471 1.387 . S
H470 C477 0.950 . S
C471 C469 1.387 . S
C471 C473 1.390 . S
C471 H475 0.950 . S
H472 C468 0.950 . S
C473 C471 1.390 . S
C473 C474 1.387 . S
C473 H476 0.950 . S
C474 C473 1.387 . S
C474 C477 1.387 . S
H475 C471 0.950 . S
H476 C473 0.950 . S
C477 C468 1.390 . S
C477 H470 0.950 . S
C477 C474 1.387 . S
C478 C479 1.387 . S
C478 H482 0.950 . S
C478 C487 1.390 . S
C479 C478 1.387 . S
C479 C481 1.387 . S
H480 C487 0.950 . S
C481 C479 1.387 . S
C481 C483 1.390 . S
C481 H485 0.950 . S
H482 C478 0.950 . S
C483 C481 1.390 . S
C483 C484 1.387 . S
C483 H486 0.950 . S
C484 C483 1.387 . S
C484 C487 1.387 . S
H485 C481 0.950 . S
H486 C483 0.950 . S
C487 C478 1.390 . S
C487 H480 0.950 . S
C487 C484 1.387 . S
C488 C489 1.387 . S
C488 H492 0.950 . S
C488 C497 1.390 . S
C489 C488 1.387 . S
C489 C491 1.387 . S
H490 C497 0.950 . S
C491 C489 1.387 . S
C491 C493 1.390 . S
C491 H495 0.950 . S
H492 C488 0.950 . S
C493 C491 1.390 . S
C493 C494 1.387 . S
C493 H496 0.950 . S
C494 C493 1.387 . S
C494 C497 1.387 . S
H495 C491 0.950 . S
H496 C493 0.950 . S
C497 C488 1.390 . S
C497 H490 0.950 . S
C497 C494 1.387 . S
C498 C499 1.387 . S
C498 H502 0.950 . S
C498 C507 1.390 . S
C499 C498 1.387 . S
C499 C501 1.387 . S
H500 C507 0.950 . S
C501 C499 1.387 . S
C501 C503 1.390 . S
C501 H505 0.950 . S
H502 C498 0.950 . S
C503 C501 1.390 . S
C503 C504 1.387 . S
C503 H506 0.950 . S
C504 C503 1.387 . S
C504 C507 1.387 . S
H505 C501 0.950 . S
H506 C503 0.950 . S
C507 C498 1.390 . S
C507 H500 0.950 . S
C507 C504 1.387 . S
C508 C509 1.387 . S
C508 H512 0.950 . S
C508 C517 1.390 . S
C509 C508 1.387 . S
C509 C511 1.387 . S
H510 C517 0.950 . S
C511 C509 1.387 . S
C511 C513 1.390 . S
C511 H515 0.950 . S
H512 C508 0.950 . S
C513 C511 1.390 . S
C513 C514 1.387 . S
C513 H516 0.950 . S
C514 C513 1.387 . S
C514 C517 1.387 . S
H515 C511 0.950 . S
H516 C513 0.950 . S
C517 C508 1.390 . S
C517 H510 0.950 . S
C517 C514 1.387 . S
C518 C519 1.387 . S
C518 H522 0.950 . S
C518 C527 1.390 . S
C519 C518 1.387 . S
C519 C521 1.387 . S
H520 C527 0.950 . S
C521 C519 1.387 . S
C521 C523 1.390 . S
C521 H525 0.950 . S
H522 C518 0.950 . S
C523 C521 1.390 . S
C523 C524 1.387 . S
C523 H526 0.950 . S
C524 C523 1.387 . S
C524 C527 1.387 . S
H525 C521 0.950 . S
H526 C523 0.950 . S
C527 C518 1.390 . S
C527 H520 0.950 . S
C527 C524 1.387 . S
C528 C529 1.387 . S
C528 H532 0.950 . S
C528 C537 1.390 . S
C529 C528 1.387 . S
C529 C531 1.387 . S
H530 C537 0.950 . S
C531 C529 1.387 . S
C531 C533 1.390 . S
C531 H535 0.950 . S
H532 C528 0.950 . S
C533 C531 1.390 . S
C533 C534 1.387 . S
C533 H536 0.950 . S
C534 C533 1.387 . S
C534 C537 1.387 . S
H535 C531 0.950 . S
H536 C533 0.950 . S
C537 C528 1.390 . S
C537 H530 0.950 . S
C537 C534 1.387 . S
C538 C539 1.387 . S
C538 H542 0.950 . S
C538 C547 1.390 . S
C539 C538 1.387 . S
C539 C541 1.387 . S
H540 C547 0.950 . S
C541 C539 1.387 . S
C541 C543 1.390 . S
C541 H545 0.950 . S
H542 C538 0.950 . S
C543 C541 1.390 . S
C543 C544 1.387 . S
C543 H546 0.950 . S
C544 C543 1.387 . S
C544 C547 1.387 . S
H545 C541 0.950 . S
H546 C543 0.950 . S
C547 C538 1.390 . S
C547 H540 0.950 . S
C547 C544 1.387 . S
C548 C549 1.387 . S
C548 H552 0.950 . S
C548 C557 1.390 . S
C549 C548 1.387 . S
C549 C551 1.387 . S
H550 C557 0.950 . S
C551 C549 1.387 . S
C551 C553 1.390 . S
C551 H555 0.950 . S
H552 C548 0.950 . S
C553 C551 1.390 . S
C553 C554 1.387 . S
C553 H556 0.950 . S
C554 C553 1.387 . S
C554 C557 1.387 . S
H555 C551 0.950 . S
H556 C553 0.950 . S
C557 C548 1.390 . S
C557 H550 0.950 . S
C557 C554 1.387 . S
C558 C559 1.387 . S
C558 H562 0.950 . S
C558 C567 1.390 . S
C559 C558 1.387 . S
C559 C561 1.387 . S
H560 C567 0.950 . S
C561 C559 1.387 . S
C561 C563 1.390 . S
C561 H565 0.950 . S
H562 C558 0.950 . S
C563 C561 1.390 . S
C563 C564 1.387 . S
C563 H566 0.950 . S
C564 C563 1.387 . S
C564 C567 1.387 . S
H565 C561 0.950 . S
H566 C563 0.950 . S
C567 C558 1.390 . S
C567 H560 0.950 . S
C567 C564 1.387 . S
C568 C569 1.387 . S
C568 H572 0.950 . S
C568 C577 1.390 . S
C569 C568 1.387 . S
C569 C571 1.387 . S
H570 C577 0.950 . S
C571 C569 1.387 . S
C571 C573 1.390 . S
C571 H575 0.950 . S
H572 C568 0.950 . S
C573 C571 1.390 . S
C573 C574 1.387 . S
C573 H576 0.950 . S
C574 C573 1.387 . S
C574 C577 1.387 . S
H575 C571 0.950 . S
H576 C573 0.950 . S
C577 C568 1.390 . S
C577 H570 0.950 . S
C577 C574 1.387 . S
C578 C579 1.387 . S
C578 H582 0.950 . S
C578 C587 1.390 . S
C579 C578 1.387 . S
C579 C581 1.387 . S
H580 C587 0.950 . S
C581 C579 1.387 . S
C581 C583 1.390 . S
C581 H585 0.950 . S
H582 C578 0.950 . S
C583 C581 1.390 . S
C583 C584 1.387 . S
C583 H586 0.950 . S
C584 C583 1.387 . S
C584 C587 1.387 . S
H585 C581 0.950 . S
H586 C583 0.950 . S
C587 C578 1.390 . S
C587 H580 0.950 . S
C587 C584 1.387 . S
C588 C589 1.387 . S
C588 H592 0.950 . S
C588 C597 1.390 . S
C589 C588 1.387 . S
C589 C591 1.387 . S
H590 C597 0.950 . S
C591 C589 1.387 . S
C591 C593 1.390 . S
C591 H595 0.950 . S
H592 C588 0.950 . S
C593 C591 1.390 . S
C593 C594 1.387 . S
C593 H596 0.950 . S
C594 C593 1.387 . S
C594 C597 1.387 . S
H595 C591 0.950 . S
H596 C593 0.950 . S
C597 C588 1.390 . S
C597 H590 0.950 . S
C597 C594 1.387 . S
C598 C599 1.387 . S
C598 H602 0.950 . S
C598 C607 1.390 . S
C599 C598 1.387 . S
C599 C601 1.387 . S
H600 C607 0.950 . S
C601 C599 1.387 . S
C601 C603 1.390 . S
C601 H605 0.950 . S
H602 C598 0.950 . S
C603 C601 1.390 . S
C603 C604 1.387 . S
C603 H606 0.950 . S
C604 C603 1.387 . S
C604 C607 1.387 . S
H605 C601 0.950 . S
H606 C603 0.950 . S
C607 C598 1.390 . S
C607 H600 0.950 . S
C607 C604 1.387 . S
C608 C609 1.387 . S
C608 H612 0.950 . S
C608 C617 1.390 . S
C609 C608 1.387 . S
C609 C611 1.387 . S
H610 C617 0.950 . S
C611 C609 1.387 . S
C611 C613 1.390 . S
C611 H615 0.950 . S
H612 C608 0.950 . S
C613 C611 1.390 . S
C613 C614 1.387 . S
C613 H616 0.950 . S
C614 C613 1.387 . S
C614 C617 1.387 . S
H615 C611 0.950 . S
H616 C613 0.950 . S
C617 C608 1.390 . S
C617 H610 0.950 . S
C617 C614 1.387 . S
C618 C619 1.387 . S
C618 H622 0.950 . S
C618 C627 1.390 . S
C619 C618 1.387 . S
C619 C621 1.387 . S
H620 C627 0.950 . S
C621 C619 1.387 . S
C621 C623 1.390 . S
C621 H625 0.950 . S
H622 C618 0.950 . S
C623 C621 1.390 . S
C623 C624 1.387 . S
C623 H626 0.950 . S
C624 C623 1.387 . S
C624 C627 1.387 . S
H625 C621 0.950 . S
H626 C623 0.950 . S
C627 C618 1.390 . S
C627 H620 0.950 . S
C627 C624 1.387 . S
C628 C629 1.387 . S
C628 H632 0.950 . S
C628 C637 1.390 . S
C629 C628 1.387 . S
C629 C631 1.387 . S
H630 C637 0.950 . S
C631 C629 1.387 . S
C631 C633 1.390 . S
C631 H635 0.950 . S
H632 C628 0.950 . S
C633 C631 1.390 . S
C633 C634 1.387 . S
C633 H636 0.950 . S
C634 C633 1.387 . S
C634 C637 1.387 . S
H635 C631 0.950 . S
H636 C633 0.950 . S
C637 C628 1.390 . S
C637 H630 0.950 . S
C637 C634 1.387 . S
C638 C639 1.387 . S
C638 H642 0.950 . S
C638 C647 1.390 . S
C639 C638 1.387 . S
C639 C641 1.387 . S
H640 C647 0.950 . S
C641 C639 1.387 . S
C641 C643 1.390 . S
C641 H645 0.950 . S
H642 C638 0.950 . S
C643 C641 1.390 . S
C643 C644 1.387 . S
C643 H646 0.950 . S
C644 C643 1.387 . S
C644 C647 1.387 . S
H645 C641 0.950 . S
H646 C643 0.950 . S
C647 C638 1.390 . S
C647 H640 0.950 . S
C647 C644 1.387 . S
C648 C649 1.387 . S
C648 H652 0.950 . S
C648 C657 1.390 . S
C649 C648 1.387 . S
C649 C651 1.387 . S
H650 C657 0.950 . S
C651 C649 1.387 . S
C651 C653 1.390 . S
C651 H655 0.950 . S
H652 C648 0.950 . S
C653 C651 1.390 . S
C653 C654 1.387 . S
C653 H656 0.950 . S
C654 C653 1.387 . S
C654 C657 1.387 . S
H655 C651 0.950 . S
H656 C653 0.950 . S
C657 C648 1.390 . S
C657 H650 0.950 . S
C657 C654 1.387 . S
C658 C659 1.387 . S
C658 H662 0.950 . S
C658 C667 1.390 . S
C659 C658 1.387 . S
C659 C661 1.387 . S
H660 C667 0.950 . S
C661 C659 1.387 . S
C661 C663 1.390 . S
C661 H665 0.950 . S
H662 C658 0.950 . S
C663 C661 1.390 . S
C663 C664 1.387 . S
C663 H666 0.950 . S
C664 C663 1.387 . S
C664 C667 1.387 . S
H665 C661 0.950 . S
H666 C663 0.950 . S
C667 C658 1.390 . S
C667 H660 0.950 . S
C667 C664 1.387 . S
C668 C669 1.387 . S
C668 H672 0.950 . S
C668 C677 1.390 . S
C669 C668 1.387 . S
C669 C671 1.387 . S
H670 C677 0.950 . S
C671 C669 1.387 . S
C671 C673 1.390 . S
C671 H675 0.950 . S
H672 C668 0.950 . S
C673 C671 1.390 . S
C673 C674 1.387 . S
C673 H676 0.950 . S
C674 C673 1.387 . S
C674 C677 1.387 . S
H675 C671 0.950 . S
H676 C673 0.950 . S
C677 C668 1.390 . S
C677 H670 0.950 . S
C677 C674 1.387 . S
C678 C679 1.387 . S
C678 H682 0.950 . S
C678 C687 1.390 . S
C679 C678 1.387 . S
C679 C681 1.387 . S
H680 C687 0.950 . S
C681 C679 1.387 . S
C681 C683 1.390 . S
C681 H685 0.950 . S
H682 C678 0.950 . S
C683 C681 1.390 . S
C683 C684 1.387 . S
C683 H686 0.950 . S
C684 C683 1.387 . S
C684 C687 1.387 . S
H685 C681 0.950 . S
H686 C683 0.950 . S
C687 C678 1.390 . S
C687 H680 0.950 . S
C687 C684 1.387 . S
C688 C689 1.387 . S
C688 H692 0.950 . S
C688 C697 1.390 . S
C689 C688 1.387 . S
C689 C691 1.387 . S
H690 C697 0.950 . S
C691 C689 1.387 . S
C691 C693 1.390 . S
C691 H695 0.950 . S
H692 C688 0.950 . S
C693 C691 1.390 . S
C693 C694 1.387 . S
C693 H696 0.950 . S
C694 C693 1.387 . S
C694 C697 1.387 . S
H695 C691 0.950 . S
H696 C693 0.950 . S
C697 C688 1.390 . S
C697 H690 0.950 . S
C697 C694 1.387 . S
C698 C699 1.387 . S
C698 H702 0.950 . S
C698 C707 1.390 . S
C699 C698 1.387 . S
C699 C701 1.387 . S
H700 C707 0.950 . S
C701 C699 1.387 . S
C701 C703 1.390 . S
C701 H705 0.950 . S
H702 C698 0.950 . S
C703 C701 1.390 . S
C703 C704 1.387 . S
C703 H706 0.950 . S
C704 C703 1.387 . S
C704 C707 1.387 . S
H705 C701 0.950 . S
H706 C703 0.950 . S
C707 C698 1.390 . S
C707 H700 0.950 . S
C707 C704 1.387 . S
C708 C709 1.387 . S
C708 H712 0.950 . S
C708 C717 1.390 . S
C709 C708 1.387 . S
C709 C711 1.387 . S
H710 C717 0.950 . S
C711 C709 1.387 . S
C711 C713 1.390 . S
C711 H715 0.950 . S
H712 C708 0.950 . S
C713 C711 1.390 . S
C713 C714 1.387 . S
C713 H716 0.950 . S
C714 C713 1.387 . S
C714 C717 1.387 . S
H715 C711 0.950 . S
H716 C713 0.950 . S
C717 C708 1.390 . S
C717 H710 0.950 . S
C717 C714 1.387 . S
C718 C719 1.387 . S
C718 H722 0.950 . S
C718 C727 1.390 . S
C719 C718 1.387 . S
C719 C721 1.387 . S
H720 C727 0.950 . S
C721 C719 1.387 . S
C721 C723 1.390 . S
C721 H725 0.950 . S
H722 C718 0.950 . S
C723 C721 1.390 . S
C723 C724 1.387 . S
C723 H726 0.950 . S
C724 C723 1.387 . S
C724 C727 1.387 . S
H725 C721 0.950 . S
H726 C723 0.950 . S
C727 C718 1.390 . S
C727 H720 0.950 . S
C727 C724 1.387 . S
C728 C729 1.387 . S
C728 H732 0.950 . S
C728 C737 1.390 . S
C729 C728 1.387 . S
C729 C731 1.387 . S
H730 C737 0.950 . S
C731 C729 1.387 . S
C731 C733 1.390 . S
C731 H735 0.950 . S
H732 C728 0.950 . S
C733 C731 1.390 . S
C733 C734 1.387 . S
C733 H736 0.950 . S
C734 C733 1.387 . S
C734 C737 1.387 . S
H735 C731 0.950 . S
H736 C733 0.950 . S
C737 C728 1.390 . S
C737 H730 0.950 . S
C737 C734 1.387 . S
C738 C739 1.387 . S
C738 H742 0.950 . S
C738 C747 1.390 . S
C739 C738 1.387 . S
C739 C741 1.387 . S
H740 C747 0.950 . S
C741 C739 1.387 . S
C741 C743 1.390 . S
C741 H745 0.950 . S
H742 C738 0.950 . S
C743 C741 1.390 . S
C743 C744 1.387 . S
C743 H746 0.950 . S
C744 C743 1.387 . S
C744 C747 1.387 . S
H745 C741 0.950 . S
H746 C743 0.950 . S
C747 C738 1.390 . S
C747 H740 0.950 . S
C747 C744 1.387 . S
C748 C749 1.387 . S
C748 H752 0.950 . S
C748 C757 1.390 . S
C749 C748 1.387 . S
C749 C751 1.387 . S
H750 C757 0.950 . S
C751 C749 1.387 . S
C751 C753 1.390 . S
C751 H755 0.950 . S
H752 C748 0.950 . S
C753 C751 1.390 . S
C753 C754 1.387 . S
C753 H756 0.950 . S
C754 C753 1.387 . S
C754 C757 1.387 . S
H755 C751 0.950 . S
H756 C753 0.950 . S
C757 C748 1.390 . S
C757 H750 0.950 . S
C757 C754 1.387 . S
C758 C759 1.387 . S
C758 H762 0.950 . S
C758 C767 1.390 . S
C759 C758 1.387 . S
C759 C761 1.387 . S
H760 C767 0.950 . S
C761 C759 1.387 . S
C761 C763 1.390 . S
C761 H765 0.950 . S
H762 C758 0.950 . S
C763 C761 1.390 . S
C763 C764 1.387 . S
C763 H766 0.950 . S
C764 C763 1.387 . S
C764 C767 1.387 . S
H765 C761 0.950 . S
H766 C763 0.950 . S
C767 C758 1.390 . S
C767 H760 0.950 . S
C767 C764 1.387 . S
C768 C769 1.387 . S
C768 H772 0.950 . S
C768 C777 1.390 . S
C769 C768 1.387 . S
C769 C771 1.387 . S
H770 C777 0.950 . S
C771 C769 1.387 . S
C771 C773 1.390 . S
C771 H775 0.950 . S
H772 C768 0.950 . S
C773 C771 1.390 . S
C773 C774 1.387 . S
C773 H776 0.950 . S
C774 C773 1.387 . S
C774 C777 1.387 . S
H775 C771 0.950 . S
H776 C773 0.950 . S
C777 C768 1.390 . S
C777 H770 0.950 . S
C777 C774 1.387 . S
C778 C779 1.387 1_545 S
C778 H782 0.950 . S
C778 C787 1.390 1_655 S
C779 C778 1.387 1_565 S
C779 C781 1.387 . S
H780 C787 0.950 . S
C781 C779 1.387 . S
C781 C783 1.390 1_655 S
C781 H785 0.950 . S
H782 C778 0.950 . S
C783 C781 1.390 1_455 S
C783 C784 1.387 1_565 S
C783 H786 0.950 . S
C784 C783 1.387 1_545 S
C784 C787 1.387 . S
H785 C781 0.950 . S
H786 C783 0.950 . S
C787 C778 1.390 1_455 S
C787 H780 0.950 . S
C787 C784 1.387 . S
C788 C789 1.387 . S
C788 H792 0.950 . S
C788 C797 1.390 . S
C789 C788 1.387 . S
C789 C791 1.387 . S
H790 C797 0.950 . S
C791 C789 1.387 . S
C791 C793 1.390 . S
C791 H795 0.950 . S
H792 C788 0.950 . S
C793 C791 1.390 . S
C793 C794 1.387 . S
C793 H796 0.950 . S
C794 C793 1.387 . S
C794 C797 1.387 . S
H795 C791 0.950 . S
H796 C793 0.950 . S
C797 C788 1.390 . S
C797 H790 0.950 . S
C797 C794 1.387 . S
C798 C799 1.387 1_556 S
C798 H802 0.950 . S
C798 C807 1.390 . S
C799 C798 1.387 1_554 S
C799 C801 1.387 1_545 S
H800 C807 0.950 . S
C801 C799 1.387 1_565 S
C801 C803 1.390 . S
C801 H805 0.950 . S
H802 C798 0.950 . S
C803 C801 1.390 . S
C803 C804 1.387 1_554 S
C803 H806 0.950 . S
C804 C803 1.387 1_556 S
C804 C807 1.387 1_565 S
H805 C801 0.950 . S
H806 C803 0.950 . S
C807 C798 1.390 . S
C807 H800 0.950 . S
C807 C804 1.387 1_545 S
C808 C809 1.387 . S
C808 H812 0.950 . S
C808 C817 1.390 . S
C809 C808 1.387 . S
C809 C811 1.387 . S
H810 C817 0.950 . S
C811 C809 1.387 . S
C811 C813 1.390 . S
C811 H815 0.950 . S
H812 C808 0.950 . S
C813 C811 1.390 . S
C813 C814 1.387 . S
C813 H816 0.950 . S
C814 C813 1.387 . S
C814 C817 1.387 . S
H815 C811 0.950 . S
H816 C813 0.950 . S
C817 C808 1.390 . S
C817 H810 0.950 . S
C817 C814 1.387 . S
C818 C819 1.387 1_545 S
C818 H822 0.950 . S
C818 C827 1.390 . S
C819 C818 1.387 1_565 S
C819 C821 1.387 . S
H820 C827 0.950 . S
C821 C819 1.387 . S
C821 C823 1.390 . S
C821 H825 0.950 . S
H822 C818 0.950 . S
C823 C821 1.390 . S
C823 C824 1.387 1_565 S
C823 H826 0.950 . S
C824 C823 1.387 1_545 S
C824 C827 1.387 . S
H825 C821 0.950 . S
H826 C823 0.950 . S
C827 C818 1.390 . S
C827 H820 0.950 . S
C827 C824 1.387 . S
C828 C829 1.387 . S
C828 H832 0.950 . S
C828 C837 1.390 . S
C829 C828 1.387 . S
C829 C831 1.387 . S
H830 C837 0.950 . S
C831 C829 1.387 . S
C831 C833 1.390 . S
C831 H835 0.950 . S
H832 C828 0.950 . S
C833 C831 1.390 . S
C833 C834 1.387 . S
C833 H836 0.950 . S
C834 C833 1.387 . S
C834 C837 1.387 . S
H835 C831 0.950 . S
H836 C833 0.950 . S
C837 C828 1.390 . S
C837 H830 0.950 . S
C837 C834 1.387 . S
C838 C839 1.387 1_554 S
C838 H842 0.950 . S
C838 C847 1.390 1_645 S
C839 C838 1.387 1_556 S
C839 C841 1.387 . S
H840 C847 0.950 . S
C841 C839 1.387 . S
C841 C843 1.390 1_645 S
C841 H845 0.950 . S
H842 C838 0.950 . S
C843 C841 1.390 1_465 S
C843 C844 1.387 1_556 S
C843 H846 0.950 . S
C844 C843 1.387 1_554 S
C844 C847 1.387 . S
H845 C841 0.950 . S
H846 C843 0.950 . S
C847 C838 1.390 1_465 S
C847 H840 0.950 . S
C847 C844 1.387 . S
C848 C849 1.387 . S
C848 H852 0.950 . S
C848 C857 1.390 . S
C849 C848 1.387 . S
C849 C851 1.387 . S
H850 C857 0.950 . S
C851 C849 1.387 . S
C851 C853 1.390 . S
C851 H855 0.950 . S
H852 C848 0.950 . S
C853 C851 1.390 . S
C853 C854 1.387 . S
C853 H856 0.950 . S
C854 C853 1.387 . S
C854 C857 1.387 . S
H855 C851 0.950 . S
H856 C853 0.950 . S
C857 C848 1.390 . S
C857 H850 0.950 . S
C857 C854 1.387 . S
C858 C859 1.387 . S
C858 H862 0.950 . S
C858 C867 1.390 . S
C859 C858 1.387 . S
C859 C861 1.387 . S
H860 C867 0.950 . S
C861 C859 1.387 . S
C861 C863 1.390 . S
C861 H865 0.950 . S
H862 C858 0.950 . S
C863 C861 1.390 . S
C863 C864 1.387 . S
C863 H866 0.950 . S
C864 C863 1.387 . S
C864 C867 1.387 . S
H865 C861 0.950 . S
H866 C863 0.950 . S
C867 C858 1.390 . S
C867 H860 0.950 . S
C867 C864 1.387 . S
C868 C869 1.387 . S
C868 H872 0.950 . S
C868 C877 1.390 . S
C869 C868 1.387 . S
C869 C871 1.387 . S
H870 C877 0.950 . S
C871 C869 1.387 . S
C871 C873 1.390 . S
C871 H875 0.950 . S
H872 C868 0.950 . S
C873 C871 1.390 . S
C873 C874 1.387 . S
C873 H876 0.950 . S
C874 C873 1.387 . S
C874 C877 1.387 . S
H875 C871 0.950 . S
H876 C873 0.950 . S
C877 C868 1.390 . S
C877 H870 0.950 . S
C877 C874 1.387 . S
C878 C879 1.387 . S
C878 H882 0.950 . S
C878 C887 1.390 . S
C879 C878 1.387 . S
C879 C881 1.387 . S
H880 C887 0.950 . S
C881 C879 1.387 . S
C881 C883 1.390 . S
C881 H885 0.950 . S
H882 C878 0.950 . S
C883 C881 1.390 . S
C883 C884 1.387 . S
C883 H886 0.950 . S
C884 C883 1.387 . S
C884 C887 1.387 . S
H885 C881 0.950 . S
H886 C883 0.950 . S
C887 C878 1.390 . S
C887 H880 0.950 . S
C887 C884 1.387 . S
C888 C889 1.387 1_556 S
C888 H892 0.950 . S
C888 C897 1.390 . S
C889 C888 1.387 1_554 S
C889 C891 1.387 . S
H890 C897 0.950 . S
C891 C889 1.387 . S
C891 C893 1.390 . S
C891 H895 0.950 . S
H892 C888 0.950 . S
C893 C891 1.390 . S
C893 C894 1.387 1_554 S
C893 H896 0.950 . S
C894 C893 1.387 1_556 S
C894 C897 1.387 . S
H895 C891 0.950 . S
H896 C893 0.950 . S
C897 C888 1.390 . S
C897 H890 0.950 . S
C897 C894 1.387 . S
C898 C899 1.387 . S
C898 H902 0.950 . S
C898 C907 1.390 1_655 S
C899 C898 1.387 . S
C899 C901 1.387 . S
H900 C907 0.950 . S
C901 C899 1.387 . S
C901 C903 1.390 1_655 S
C901 H905 0.950 . S
H902 C898 0.950 . S
C903 C901 1.390 1_455 S
C903 C904 1.387 . S
C903 H906 0.950 . S
C904 C903 1.387 . S
C904 C907 1.387 . S
H905 C901 0.950 . S
H906 C903 0.950 . S
C907 C898 1.390 1_455 S
C907 H900 0.950 . S
C907 C904 1.387 . S
C908 C909 1.387 1_554 S
C908 H912 0.950 . S
C908 C917 1.390 1_455 S
C909 C908 1.387 1_556 S
C909 C911 1.387 . S
H910 C917 0.950 . S
C911 C909 1.387 . S
C911 C913 1.390 1_455 S
C911 H915 0.950 . S
H912 C908 0.950 . S
C913 C911 1.390 1_655 S
C913 C914 1.387 1_556 S
C913 H916 0.950 . S
C914 C913 1.387 1_554 S
C914 C917 1.387 . S
H915 C911 0.950 . S
H916 C913 0.950 . S
C917 C908 1.390 1_655 S
C917 H910 0.950 . S
C917 C914 1.387 . S
C918 C919 1.387 . S
C918 H922 0.950 . S
C918 C927 1.390 . S
C919 C918 1.387 . S
C919 C921 1.387 . S
H920 C927 0.950 . S
C921 C919 1.387 . S
C921 C923 1.390 . S
C921 H925 0.950 . S
H922 C918 0.950 . S
C923 C921 1.390 . S
C923 C924 1.387 . S
C923 H926 0.950 . S
C924 C923 1.387 . S
C924 C927 1.387 . S
H925 C921 0.950 . S
H926 C923 0.950 . S
C927 C918 1.390 . S
C927 H920 0.950 . S
C927 C924 1.387 . S
C928 C929 1.387 . S
C928 H932 0.950 . S
C928 C937 1.390 . S
C929 C928 1.387 . S
C929 C931 1.387 . S
H930 C937 0.950 . S
C931 C929 1.387 . S
C931 C933 1.390 . S
C931 H935 0.950 . S
H932 C928 0.950 . S
C933 C931 1.390 . S
C933 C934 1.387 . S
C933 H936 0.950 . S
C934 C933 1.387 . S
C934 C937 1.387 . S
H935 C931 0.950 . S
H936 C933 0.950 . S
C937 C928 1.390 . S
C937 H930 0.950 . S
C937 C934 1.387 . S
C938 C939 1.387 . S
C938 H942 0.950 . S
C938 C947 1.390 . S
C939 C938 1.387 . S
C939 C941 1.387 . S
H940 C947 0.950 . S
C941 C939 1.387 . S
C941 C943 1.390 . S
C941 H945 0.950 . S
H942 C938 0.950 . S
C943 C941 1.390 . S
C943 C944 1.387 . S
C943 H946 0.950 . S
C944 C943 1.387 . S
C944 C947 1.387 . S
H945 C941 0.950 . S
H946 C943 0.950 . S
C947 C938 1.390 . S
C947 H940 0.950 . S
C947 C944 1.387 . S
C948 C949 1.387 . S
C948 H952 0.950 . S
C948 C957 1.390 . S
C949 C948 1.387 . S
C949 C951 1.387 . S
H950 C957 0.950 . S
C951 C949 1.387 . S
C951 C953 1.390 . S
C951 H955 0.950 . S
H952 C948 0.950 . S
C953 C951 1.390 . S
C953 C954 1.387 . S
C953 H956 0.950 . S
C954 C953 1.387 . S
C954 C957 1.387 . S
H955 C951 0.950 . S
H956 C953 0.950 . S
C957 C948 1.390 . S
C957 H950 0.950 . S
C957 C954 1.387 . S
C958 C959 1.387 . S
C958 H962 0.950 . S
C958 C967 1.390 . S
C959 C958 1.387 . S
C959 C961 1.387 . S
H960 C967 0.950 . S
C961 C959 1.387 . S
C961 C963 1.390 . S
C961 H965 0.950 . S
H962 C958 0.950 . S
C963 C961 1.390 . S
C963 C964 1.387 . S
C963 H966 0.950 . S
C964 C963 1.387 . S
C964 C967 1.387 . S
H965 C961 0.950 . S
H966 C963 0.950 . S
C967 C958 1.390 . S
C967 H960 0.950 . S
C967 C964 1.387 . S
C968 C969 1.387 . S
C968 H972 0.950 . S
C968 C977 1.390 . S
C969 C968 1.387 . S
C969 C971 1.387 . S
H970 C977 0.950 . S
C971 C969 1.387 . S
C971 C973 1.390 . S
C971 H975 0.950 . S
H972 C968 0.950 . S
C973 C971 1.390 . S
C973 C974 1.387 . S
C973 H976 0.950 . S
C974 C973 1.387 . S
C974 C977 1.387 . S
H975 C971 0.950 . S
H976 C973 0.950 . S
C977 C968 1.390 . S
C977 H970 0.950 . S
C977 C974 1.387 . S
C978 C979 1.387 . S
C978 H982 0.950 . S
C978 C987 1.390 . S
C979 C978 1.387 . S
C979 C981 1.387 . S
H980 C987 0.950 . S
C981 C979 1.387 . S
C981 C983 1.390 . S
C981 H985 0.950 . S
H982 C978 0.950 . S
C983 C981 1.390 . S
C983 C984 1.387 . S
C983 H986 0.950 . S
C984 C983 1.387 . S
C984 C987 1.387 . S
H985 C981 0.950 . S
H986 C983 0.950 . S
C987 C978 1.390 . S
C987 H980 0.950 . S
C987 C984 1.387 . S
C988 C989 1.387 . S
C988 H992 0.950 . S
C988 C997 1.390 . S
C989 C988 1.387 . S
C989 C991 1.387 . S
H990 C997 0.950 . S
C991 C989 1.387 . S
C991 C993 1.390 . S
C991 H995 0.950 . S
H992 C988 0.950 . S
C993 C991 1.390 . S
C993 C994 1.387 . S
C993 H996 0.950 . S
C994 C993 1.387 . S
C994 C997 1.387 . S
H995 C991 0.950 . S
H996 C993 0.950 . S
C997 C988 1.390 . S
C997 H990 0.950 . S
C997 C994 1.387 . S
C998 C999 1.387 . S
C998 H1002 0.950 . S
C998 C1007 1.390 . S
C999 C998 1.387 . S
C999 C1001 1.387 . S
H1000 C1007 0.950 . S
C1001 C999 1.387 . S
C1001 C1003 1.390 . S
C1001 H1005 0.950 . S
H1002 C998 0.950 . S
C1003 C1001 1.390 . S
C1003 C1004 1.387 . S
C1003 H1006 0.950 . S
C1004 C1003 1.387 . S
C1004 C1007 1.387 . S
H1005 C1001 0.950 . S
H1006 C1003 0.950 . S
C1007 C998 1.390 . S
C1007 H1000 0.950 . S
C1007 C1004 1.387 . S
C1008 C1009 1.387 . S
C1008 H1012 0.950 . S
C1008 C1017 1.390 . S
C1009 C1008 1.387 . S
C1009 C1011 1.387 . S
H1010 C1017 0.950 . S
C1011 C1009 1.387 . S
C1011 C1013 1.390 . S
C1011 H1015 0.950 . S
H1012 C1008 0.950 . S
C1013 C1011 1.390 . S
C1013 C1014 1.387 . S
C1013 H1016 0.950 . S
C1014 C1013 1.387 . S
C1014 C1017 1.387 . S
H1015 C1011 0.950 . S
H1016 C1013 0.950 . S
C1017 C1008 1.390 . S
C1017 H1010 0.950 . S
C1017 C1014 1.387 . S
C1018 C1019 1.387 . S
C1018 H1022 0.950 . S
C1018 C1027 1.390 . S
C1019 C1018 1.387 . S
C1019 C1021 1.387 . S
H1020 C1027 0.950 . S
C1021 C1019 1.387 . S
C1021 C1023 1.390 . S
C1021 H1025 0.950 . S
H1022 C1018 0.950 . S
C1023 C1021 1.390 . S
C1023 C1024 1.387 . S
C1023 H1026 0.950 . S
C1024 C1023 1.387 . S
C1024 C1027 1.387 . S
H1025 C1021 0.950 . S
H1026 C1023 0.950 . S
C1027 C1018 1.390 . S
C1027 H1020 0.950 . S
C1027 C1024 1.387 . S
C1028 C1029 1.387 . S
C1028 H1032 0.950 . S
C1028 C1037 1.390 . S
C1029 C1028 1.387 . S
C1029 C1031 1.387 . S
H1030 C1037 0.950 . S
C1031 C1029 1.387 . S
C1031 C1033 1.390 . S
C1031 H1035 0.950 . S
H1032 C1028 0.950 . S
C1033 C1031 1.390 . S
C1033 C1034 1.387 . S
C1033 H1036 0.950 . S
C1034 C1033 1.387 . S
C1034 C1037 1.387 . S
H1035 C1031 0.950 . S
H1036 C1033 0.950 . S
C1037 C1028 1.390 . S
C1037 H1030 0.950 . S
C1037 C1034 1.387 . S
C1038 C1039 1.387 . S
C1038 H1042 0.950 . S
C1038 C1047 1.390 . S
C1039 C1038 1.387 . S
C1039 C1041 1.387 . S
H1040 C1047 0.950 . S
C1041 C1039 1.387 . S
C1041 C1043 1.390 . S
C1041 H1045 0.950 . S
H1042 C1038 0.950 . S
C1043 C1041 1.390 . S
C1043 C1044 1.387 . S
C1043 H1046 0.950 . S
C1044 C1043 1.387 . S
C1044 C1047 1.387 . S
H1045 C1041 0.950 . S
H1046 C1043 0.950 . S
C1047 C1038 1.390 . S
C1047 H1040 0.950 . S
C1047 C1044 1.387 . S
C1048 C1049 1.387 . S
C1048 H1052 0.950 . S
C1048 C1057 1.390 . S
C1049 C1048 1.387 . S
C1049 C1051 1.387 . S
H1050 C1057 0.950 . S
C1051 C1049 1.387 . S
C1051 C1053 1.390 . S
C1051 H1055 0.950 . S
H1052 C1048 0.950 . S
C1053 C1051 1.390 . S
C1053 C1054 1.387 . S
C1053 H1056 0.950 . S
C1054 C1053 1.387 . S
C1054 C1057 1.387 . S
H1055 C1051 0.950 . S
H1056 C1053 0.950 . S
C1057 C1048 1.390 . S
C1057 H1050 0.950 . S
C1057 C1054 1.387 . S
C1058 C1059 1.387 . S
C1058 H1062 0.950 . S
C1058 C1067 1.390 . S
C1059 C1058 1.387 . S
C1059 C1061 1.387 . S
H1060 C1067 0.950 . S
C1061 C1059 1.387 . S
C1061 C1063 1.390 . S
C1061 H1065 0.950 . S
H1062 C1058 0.950 . S
C1063 C1061 1.390 . S
C1063 C1064 1.387 . S
C1063 H1066 0.950 . S
C1064 C1063 1.387 . S
C1064 C1067 1.387 . S
H1065 C1061 0.950 . S
H1066 C1063 0.950 . S
C1067 C1058 1.390 . S
C1067 H1060 0.950 . S
C1067 C1064 1.387 . S
C1068 C1069 1.387 . S
C1068 H1072 0.950 . S
C1068 C1077 1.390 . S
C1069 C1068 1.387 . S
C1069 C1071 1.387 . S
H1070 C1077 0.950 . S
C1071 C1069 1.387 . S
C1071 C1073 1.390 . S
C1071 H1075 0.950 . S
H1072 C1068 0.950 . S
C1073 C1071 1.390 . S
C1073 C1074 1.387 . S
C1073 H1076 0.950 . S
C1074 C1073 1.387 . S
C1074 C1077 1.387 . S
H1075 C1071 0.950 . S
H1076 C1073 0.950 . S
C1077 C1068 1.390 . S
C1077 H1070 0.950 . S
C1077 C1074 1.387 . S
C1078 C1079 1.387 . S
C1078 H1082 0.950 . S
C1078 C1087 1.390 . S
C1079 C1078 1.387 . S
C1079 C1081 1.387 . S
H1080 C1087 0.950 . S
C1081 C1079 1.387 . S
C1081 C1083 1.390 . S
C1081 H1085 0.950 . S
H1082 C1078 0.950 . S
C1083 C1081 1.390 . S
C1083 C1084 1.387 . S
C1083 H1086 0.950 . S
C1084 C1083 1.387 . S
C1084 C1087 1.387 . S
H1085 C1081 0.950 . S
H1086 C1083 0.950 . S
C1087 C1078 1.390 . S
C1087 H1080 0.950 . S
C1087 C1084 1.387 . S
C449 C135 1.215 . S
C454 C3 1.347 . S
C459 C17 1.346 1_455 S
C464 C373 1.212 . S
C469 C163 1.218 . S
C474 C31 1.347 . S
C479 C345 1.217 . S
C484 C45 1.346 . S
C489 C59 1.346 . S
C494 C219 1.213 . S
C499 C401 1.216 . S
C504 C73 1.346 . S
C509 C87 1.346 . S
C514 C191 1.212 . S
C519 C429 1.212 . S
C524 C101 1.346 1_455 S
C529 C23 1.217 . S
C534 C115 1.346 . S
C539 C129 1.346 1_655 S
C544 C261 1.213 . S
C549 C51 1.217 . S
C554 C143 1.346 . S
C559 C157 1.346 . S
C564 C233 1.217 . S
C569 C171 1.346 . S
C574 C107 1.212 . S
C579 C289 1.217 . S
C584 C185 1.346 . S
C589 C199 1.346 . S
C594 C79 1.215 . S
C599 C317 1.217 . S
C604 C213 1.346 1_655 S
C609 C359 1.214 . S
C614 C227 1.345 . S
C619 C149 1.217 . S
C624 C241 1.346 . S
C629 C255 1.347 . S
C634 C387 1.218 . S
C639 C121 1.217 . S
C644 C269 1.346 1_655 S
C649 C443 1.212 . S
C654 C283 1.346 . S
C659 C297 1.345 1_655 S
C664 C177 1.212 . S
C669 C415 1.217 . S
C674 C311 1.346 . S
C679 C205 1.217 . S
C684 C325 1.346 . S
C689 C247 1.216 . S
C694 C339 1.347 . S
C699 C353 1.346 . S
C704 C37 1.212 . S
C709 C367 1.345 . S
C714 C275 1.213 . S
C719 C381 1.346 1_455 S
C724 C9 1.212 . S
C729 C331 1.217 . S
C734 C395 1.347 . S
C739 C409 1.346 1_455 S
C744 C65 1.217 . S
C749 C423 1.347 . S
C754 C303 1.217 . S
C759 C437 1.346 . S
C764 C93 1.213 . S
C769 C344 1.605 . S
C774 C8 1.605 . S
C779 C22 1.609 . S
C784 C134 1.609 . S
C789 C36 1.608 . S
C794 C372 1.608 . S
C799 C50 1.605 . S
C804 C162 1.605 . S
C809 C64 1.605 . S
C814 C400 1.605 . S
C819 C78 1.607 . S
C824 C190 1.607 . S
C829 C428 1.605 . S
C834 C92 1.605 . S
C839 C106 1.605 . S
C844 C218 1.605 . S
C849 C120 1.605 . S
C854 C232 1.605 . S
C859 C148 1.605 . S
C864 C260 1.605 . S
C869 C288 1.605 . S
C874 C176 1.605 . S
C879 C316 1.608 . S
C884 C204 1.608 . S
C889 C246 1.605 . S
C894 C358 1.605 . S
C899 C386 1.605 . S
C904 C274 1.605 . S
C909 C302 1.606 . S
C914 C414 1.606 . S
C919 C442 1.609 . S
C924 C330 1.609 . S
C929 C301 1.658 . S
C934 C7 1.656 . S
C939 C315 1.656 . S
C944 C21 1.658 . S
C949 C35 1.659 . S
C954 C329 1.657 . S
C959 C287 1.658 . S
C964 C49 1.656 . S
C969 C273 1.656 . S
C974 C63 1.658 . S
C979 C231 1.656 . S
C984 C77 1.658 . S
C989 C91 1.659 . S
C994 C245 1.657 . S
C999 C259 1.656 . S
C1004 C105 1.658 . S
C1009 C413 1.656 . S
C1014 C119 1.657 . S
C1019 C427 1.656 . S
C1024 C133 1.657 . S
C1029 C441 1.658 . S
C1034 C147 1.656 . S
C1039 C161 1.659 . S
C1044 C399 1.659 . S
C1049 C385 1.658 . S
C1054 C175 1.656 . S
C1059 C343 1.658 . S
C1064 C189 1.659 . S
C1069 C357 1.657 . S
C1074 C203 1.656 . S
C1079 C371 1.659 . S
C1084 C217 1.658 . S
