# Generated by pormake.
# Topology wmc, (6)-cn, num edge types: 1
# Building blocks:
#     Node 0, Type 0, BuildingBlock: JUFBIX_clean_sbu_0, # of connection points: 6
#     Node 1, Type 0, BuildingBlock: JUFBIX_clean_sbu_0, # of connection points: 6
#     Node 2, Type 0, BuildingBlock: JUFBIX_clean_sbu_0, # of connection points: 6
#     Node 3, Type 0, BuildingBlock: JUFBIX_clean_sbu_0, # of connection points: 6
#     Node 4, Type 0, BuildingBlock: JUFBIX_clean_sbu_0, # of connection points: 6
#     Node 5, Type 0, BuildingBlock: JUFBIX_clean_sbu_0, # of connection points: 6
#     Node 6, Type 0, BuildingBlock: JUFBIX_clean_sbu_0, # of connection points: 6
#     Node 7, Type 0, BuildingBlock: JUFBIX_clean_sbu_0, # of connection points: 6
#     Node 8, Type 0, BuildingBlock: JUFBIX_clean_sbu_0, # of connection points: 6
#     Node 9, Type 0, BuildingBlock: JUFBIX_clean_sbu_0, # of connection points: 6
#     Node 10, Type 0, BuildingBlock: JUFBIX_clean_sbu_0, # of connection points: 6
#     Node 11, Type 0, BuildingBlock: JUFBIX_clean_sbu_0, # of connection points: 6
#     Node 12, Type 0, BuildingBlock: JUFBIX_clean_sbu_0, # of connection points: 6
#     Node 13, Type 0, BuildingBlock: JUFBIX_clean_sbu_0, # of connection points: 6
#     Node 14, Type 0, BuildingBlock: JUFBIX_clean_sbu_0, # of connection points: 6
#     Node 15, Type 0, BuildingBlock: JUFBIX_clean_sbu_0, # of connection points: 6
#     Node 16, Type 0, BuildingBlock: JUFBIX_clean_sbu_0, # of connection points: 6
#     Node 17, Type 0, BuildingBlock: JUFBIX_clean_sbu_0, # of connection points: 6
#     Edge 18, Type (0, 0), BuildingBlock: OJICUG_clean_linker_0, # of connection points: 2
#     Edge 19, Type (0, 0), BuildingBlock: OJICUG_clean_linker_0, # of connection points: 2
#     Edge 20, Type (0, 0), BuildingBlock: OJICUG_clean_linker_0, # of connection points: 2
#     Edge 21, Type (0, 0), BuildingBlock: OJICUG_clean_linker_0, # of connection points: 2
#     Edge 22, Type (0, 0), BuildingBlock: OJICUG_clean_linker_0, # of connection points: 2
#     Edge 23, Type (0, 0), BuildingBlock: OJICUG_clean_linker_0, # of connection points: 2
#     Edge 24, Type (0, 0), BuildingBlock: OJICUG_clean_linker_0, # of connection points: 2
#     Edge 25, Type (0, 0), BuildingBlock: OJICUG_clean_linker_0, # of connection points: 2
#     Edge 26, Type (0, 0), BuildingBlock: OJICUG_clean_linker_0, # of connection points: 2
#     Edge 27, Type (0, 0), BuildingBlock: OJICUG_clean_linker_0, # of connection points: 2
#     Edge 28, Type (0, 0), BuildingBlock: OJICUG_clean_linker_0, # of connection points: 2
#     Edge 29, Type (0, 0), BuildingBlock: OJICUG_clean_linker_0, # of connection points: 2
#     Edge 30, Type (0, 0), BuildingBlock: OJICUG_clean_linker_0, # of connection points: 2
#     Edge 31, Type (0, 0), BuildingBlock: OJICUG_clean_linker_0, # of connection points: 2
#     Edge 32, Type (0, 0), BuildingBlock: OJICUG_clean_linker_0, # of connection points: 2
#     Edge 33, Type (0, 0), BuildingBlock: OJICUG_clean_linker_0, # of connection points: 2
#     Edge 34, Type (0, 0), BuildingBlock: OJICUG_clean_linker_0, # of connection points: 2
#     Edge 35, Type (0, 0), BuildingBlock: OJICUG_clean_linker_0, # of connection points: 2
#     Edge 36, Type (0, 0), BuildingBlock: OJICUG_clean_linker_0, # of connection points: 2
#     Edge 37, Type (0, 0), BuildingBlock: OJICUG_clean_linker_0, # of connection points: 2
#     Edge 38, Type (0, 0), BuildingBlock: OJICUG_clean_linker_0, # of connection points: 2
#     Edge 39, Type (0, 0), BuildingBlock: OJICUG_clean_linker_0, # of connection points: 2
#     Edge 40, Type (0, 0), BuildingBlock: OJICUG_clean_linker_0, # of connection points: 2
#     Edge 41, Type (0, 0), BuildingBlock: OJICUG_clean_linker_0, # of connection points: 2
#     Edge 42, Type (0, 0), BuildingBlock: OJICUG_clean_linker_0, # of connection points: 2
#     Edge 43, Type (0, 0), BuildingBlock: OJICUG_clean_linker_0, # of connection points: 2
#     Edge 44, Type (0, 0), BuildingBlock: OJICUG_clean_linker_0, # of connection points: 2
#     Edge 45, Type (0, 0), BuildingBlock: OJICUG_clean_linker_0, # of connection points: 2
#     Edge 46, Type (0, 0), BuildingBlock: OJICUG_clean_linker_0, # of connection points: 2
#     Edge 47, Type (0, 0), BuildingBlock: OJICUG_clean_linker_0, # of connection points: 2
#     Edge 48, Type (0, 0), BuildingBlock: OJICUG_clean_linker_0, # of connection points: 2
#     Edge 49, Type (0, 0), BuildingBlock: OJICUG_clean_linker_0, # of connection points: 2
#     Edge 50, Type (0, 0), BuildingBlock: OJICUG_clean_linker_0, # of connection points: 2
#     Edge 51, Type (0, 0), BuildingBlock: OJICUG_clean_linker_0, # of connection points: 2
#     Edge 52, Type (0, 0), BuildingBlock: OJICUG_clean_linker_0, # of connection points: 2
#     Edge 53, Type (0, 0), BuildingBlock: OJICUG_clean_linker_0, # of connection points: 2
#     Edge 54, Type (0, 0), BuildingBlock: OJICUG_clean_linker_0, # of connection points: 2
#     Edge 55, Type (0, 0), BuildingBlock: OJICUG_clean_linker_0, # of connection points: 2
#     Edge 56, Type (0, 0), BuildingBlock: OJICUG_clean_linker_0, # of connection points: 2
#     Edge 57, Type (0, 0), BuildingBlock: OJICUG_clean_linker_0, # of connection points: 2
#     Edge 58, Type (0, 0), BuildingBlock: OJICUG_clean_linker_0, # of connection points: 2
#     Edge 59, Type (0, 0), BuildingBlock: OJICUG_clean_linker_0, # of connection points: 2
#     Edge 60, Type (0, 0), BuildingBlock: OJICUG_clean_linker_0, # of connection points: 2
#     Edge 61, Type (0, 0), BuildingBlock: OJICUG_clean_linker_0, # of connection points: 2
#     Edge 62, Type (0, 0), BuildingBlock: OJICUG_clean_linker_0, # of connection points: 2
#     Edge 63, Type (0, 0), BuildingBlock: OJICUG_clean_linker_0, # of connection points: 2
#     Edge 64, Type (0, 0), BuildingBlock: OJICUG_clean_linker_0, # of connection points: 2
#     Edge 65, Type (0, 0), BuildingBlock: OJICUG_clean_linker_0, # of connection points: 2
#     Edge 66, Type (0, 0), BuildingBlock: OJICUG_clean_linker_0, # of connection points: 2
#     Edge 67, Type (0, 0), BuildingBlock: OJICUG_clean_linker_0, # of connection points: 2
#     Edge 68, Type (0, 0), BuildingBlock: OJICUG_clean_linker_0, # of connection points: 2
#     Edge 69, Type (0, 0), BuildingBlock: OJICUG_clean_linker_0, # of connection points: 2
#     Edge 70, Type (0, 0), BuildingBlock: OJICUG_clean_linker_0, # of connection points: 2
#     Edge 71, Type (0, 0), BuildingBlock: OJICUG_clean_linker_0, # of connection points: 2
# Relax obj value: 0.533
# Max RMSD: 0.262
# Mean RMSD: 0.262
data_MOF--net-wmc--node1-JUFBIX_clean_sbu_0--edge1-OJICUG_clean_linker_0
_symmetry_space_group_name_H-M    P1
_symmetry_Int_Tables_number       1
_symmetry_cell_setting            triclinic
loop_
_symmetry_equiv_pos_as_xyz
'x, y, z'
_cell_length_a     38.560575
_cell_length_b     38.520898
_cell_length_c     21.154088
_cell_angle_alpha  90.040423
_cell_angle_beta   89.857318
_cell_angle_gamma 120.03594
loop_
_atom_site_label
_atom_site_type_symbol
_atom_site_fract_x
_atom_site_fract_y
_atom_site_fract_z
_atom_type_partial_charge
Co0 Co 0.61738 0.11644 -0.00245 0.0
C1 C 0.53456 0.07359 0.97525 0.0
Co2 Co 0.59306 0.15764 0.98302 0.0
C3 C 0.68125 0.10855 0.05631 0.0
C4 C 0.65114 0.06179 -0.0116 0.0
N5 N 0.64818 0.09117 0.018 0.0
N6 N 0.70518 0.09223 0.05052 0.0
C7 C 0.68563 0.06218 0.00844 0.0
H8 H 0.68896 0.13443 0.08565 0.0
H9 H 0.63137 0.04333 0.95107 0.0
C10 C 0.67336 0.2006 -0.00121 0.0
N11 N 0.56961 0.18862 0.9676 0.0
C12 C 0.58124 0.22521 -0.00791 0.0
C13 C 0.53903 0.18111 0.92857 0.0
N14 N 0.55946 0.24101 0.96966 0.0
C15 C 0.53262 0.21325 0.92992 0.0
C16 C 0.59197 0.13798 0.10665 0.0
O17 O 0.66749 0.1654 0.00435 0.0
O18 O 0.64352 0.20514 -0.01028 0.0
O19 O 0.58426 0.15919 0.06988 0.0
O20 O 0.60673 0.11744 0.08469 0.0
O21 O 0.54245 0.10993 0.97492 0.0
H22 H 0.52308 0.15446 0.89986 0.0
H23 H 0.60551 0.24018 0.02553 0.0
O24 O 0.56352 0.06665 -0.01339 0.0
O25 O 0.62693 0.11551 0.91005 0.0
O26 O 0.60192 0.15554 0.89639 0.0
C27 C 0.61708 0.13551 0.87391 0.0
H28 H 0.69675 0.04336 -0.01 0.0
H29 H 0.51096 0.21658 0.90205 0.0
Co30 Co 0.95718 0.51648 -0.00096 0.0
C31 C 1.0002 0.47588 0.9822 0.0
Co32 Co 0.91653 0.45071 -0.01449 0.0
C33 C 0.96497 0.58904 0.05581 0.0
C34 C 1.0127 0.60489 -0.01008 0.0
N35 N 0.98249 0.57279 0.01877 0.0
N36 N 0.98209 0.62944 0.05005 0.0
C37 C 1.0127 0.63939 0.00918 0.0
H38 H 0.93855 0.57117 0.08432 0.0
H39 H 1.03165 0.60319 0.9537 0.0
C40 C 0.87349 0.48861 -0.00465 0.0
N41 N 0.88565 0.39613 0.97055 0.0
C42 C 0.84852 0.37145 -0.00656 0.0
C43 C 0.89392 0.37265 0.93355 0.0
N44 N 0.83313 0.33361 0.97202 0.0
C45 C 0.8617 0.33412 0.93455 0.0
C46 C 0.93255 0.47013 0.10882 0.0
O47 O 0.90843 0.51798 0.00316 0.0
O48 O 0.86925 0.45428 -0.0136 0.0
O49 O 0.91176 0.44102 0.07223 0.0
O50 O 0.95456 0.50517 0.08663 0.0
O51 O 0.96399 0.44721 0.98305 0.0
H52 H 0.92121 0.38305 0.90651 0.0
H53 H 0.83292 0.38112 0.02511 0.0
O54 O 1.00688 0.51201 -0.00922 0.0
O55 O 0.95967 0.52646 0.91106 0.0
O56 O 0.922 0.46087 0.89917 0.0
C57 C 0.94221 0.49575 0.8756 0.0
H58 H 1.03231 0.66927 -0.00894 0.0
H59 H 0.85896 0.30882 0.90804 0.0
Co60 Co 0.55781 0.4565 -0.00884 0.0
C61 C 0.59756 0.53885 0.96627 0.0
Co62 Co 0.62338 0.48065 0.97828 0.0
C63 C 0.48613 0.39298 0.05103 0.0
C64 C 0.46932 0.42172 0.98097 0.0
N65 N 0.50169 0.42552 0.01138 0.0
N66 N 0.44596 0.36858 0.04538 0.0
C67 C 0.43534 0.38728 0.00192 0.0
H68 H 0.5044 0.38599 0.08131 0.0
H69 H 0.47056 0.44087 0.94261 0.0
C70 C 0.58609 0.40064 -0.00336 0.0
N71 N 0.67792 0.50421 0.96298 0.0
C72 C 0.70298 0.49295 -0.01211 0.0
C73 C 0.70087 0.5344 0.92294 0.0
N74 N 0.74048 0.51459 0.96479 0.0
C75 C 0.73944 0.54098 0.92419 0.0
C76 C 0.60392 0.48348 0.10103 0.0
O77 O 0.55663 0.40644 -0.00118 0.0
O78 O 0.62073 0.43057 -0.01049 0.0
O79 O 0.63345 0.4919 0.06497 0.0
O80 O 0.5688 0.46724 0.07815 0.0
O81 O 0.62589 0.53085 0.96579 0.0
H82 H 0.69004 0.54986 0.89343 0.0
H83 H 0.69384 0.46896 0.02198 0.0
O84 O 0.56175 0.51015 0.97932 0.0
O85 O 0.54795 0.44688 0.90374 0.0
O86 O 0.61268 0.46925 0.89176 0.0
C87 C 0.57782 0.4549 0.86845 0.0
H88 H 0.40541 0.37558 0.98329 0.0
H89 H 0.76434 0.56235 0.8956 0.0
Co90 Co 0.91703 0.48113 0.48931 0.0
C91 C 0.87381 0.40168 0.51059 0.0
Co92 Co 0.95797 0.45603 0.49499 0.0
C93 C 0.8478 0.49099 0.47255 0.0
C94 C 0.90001 0.54516 0.50119 0.0
N95 N 0.88742 0.50705 0.48351 0.0
N96 N 0.83499 0.51732 0.48388 0.0
C97 C 0.86804 0.55157 0.50136 0.0
H98 H 0.82847 0.46007 0.45899 0.0
H99 H 0.92998 0.56625 0.51702 0.0
C100 C 1.00073 0.53741 0.46618 0.0
N101 N 0.98248 0.42362 0.50725 0.0
C102 C 0.96685 0.39097 0.54666 0.0
C103 C 1.00884 0.41908 0.47134 0.0
N104 N 0.98131 0.36583 0.53579 0.0
C105 C 1.00841 0.38411 0.48892 0.0
C106 C 0.92996 0.45437 0.37583 0.0
O107 O 0.96462 0.52984 0.46958 0.0
O108 O 1.00799 0.50885 0.47915 0.0
O109 O 0.95347 0.44679 0.40735 0.0
O110 O 0.91012 0.46843 0.40291 0.0
O111 O 0.90882 0.40691 0.50652 0.0
H112 H 1.02506 0.43815 0.43176 0.0
H113 H 0.94341 0.3845 0.58077 0.0
O114 O 0.86942 0.43204 0.50762 0.0
O115 O 0.92458 0.49386 0.57552 0.0
O116 O 0.96229 0.4663 0.58237 0.0
C117 C 0.94596 0.48428 0.60827 0.0
H118 H 0.86885 0.57869 0.51712 0.0
H119 H 1.02499 0.37184 0.46585 0.0
Co120 Co 0.59323 0.45076 0.47736 0.0
C121 C 0.67336 0.48803 0.4932 0.0
Co122 Co 0.61748 0.51627 0.49248 0.0
C123 C 0.58091 0.3715 0.48842 0.0
C124 C 0.53961 0.37289 0.42251 0.0
N125 N 0.56972 0.39628 0.46213 0.0
N126 N 0.55937 0.33371 0.46658 0.0
C127 C 0.53308 0.33429 0.42532 0.0
H128 H 0.60469 0.38108 0.52286 0.0
H129 H 0.52405 0.38339 0.39257 0.0
C130 C 0.53481 0.47634 0.46963 0.0
N131 N 0.64859 0.57239 0.51355 0.0
C132 C 0.68139 0.58775 0.55247 0.0
C133 C 0.65198 0.60505 0.48445 0.0
N134 N 0.70552 0.62807 0.54762 0.0
C135 C 0.68641 0.63898 0.50544 0.0
C136 C 0.61747 0.4971 0.3685 0.0
O137 O 0.54271 0.4479 0.46907 0.0
O138 O 0.56372 0.51227 0.48149 0.0
O139 O 0.62716 0.52687 0.40493 0.0
O140 O 0.60226 0.46179 0.39068 0.0
O141 O 0.66742 0.51729 0.49922 0.0
H142 H 0.63252 0.6041 0.44693 0.0
H143 H 0.68871 0.56927 0.5817 0.0
O144 O 0.64358 0.45359 0.48404 0.0
O145 O 0.58425 0.44034 0.56432 0.0
O146 O 0.60666 0.50453 0.57955 0.0
C147 C 0.59181 0.46918 0.60128 0.0
H148 H 0.51171 0.30901 0.39751 0.0
H149 H 0.69777 0.66911 0.48765 0.0
Co150 Co 0.62357 0.15892 0.48424 0.0
C151 C 0.58582 0.20128 0.50182 0.0
Co152 Co 0.55795 0.11726 0.49634 0.0
C153 C 0.70273 0.22631 0.49788 0.0
C154 C 0.70187 0.1845 0.43032 0.0
N155 N 0.6782 0.19055 0.47049 0.0
N156 N 0.74062 0.243 0.47623 0.0
C157 C 0.74033 0.21666 0.43392 0.0
H158 H 0.69292 0.24006 0.53293 0.0
H159 H 0.69165 0.15886 0.39938 0.0
C160 C 0.59815 0.07497 0.47161 0.0
N161 N 0.50171 0.09187 0.51581 0.0
C162 C 0.48606 0.1087 0.55562 0.0
C163 C 0.46945 0.06366 0.48456 0.0
N164 N 0.44599 0.09323 0.54926 0.0
C165 C 0.43548 0.06421 0.50518 0.0
C166 C 0.57867 0.13914 0.3739 0.0
O167 O 0.62651 0.11139 0.47159 0.0
O168 O 0.56228 0.06773 0.48443 0.0
O169 O 0.54866 0.11718 0.40888 0.0
O170 O 0.61345 0.15981 0.39752 0.0
O171 O 0.55643 0.16595 0.50383 0.0
H172 H 0.47082 0.04605 0.4458 0.0
H173 H 0.50425 0.13373 0.58646 0.0
O174 O 0.62052 0.20614 0.4954 0.0
O175 O 0.63302 0.15749 0.57098 0.0
O176 O 0.56837 0.11734 0.58344 0.0
C177 C 0.60338 0.13624 0.60669 0.0
H178 H 0.76574 0.22101 0.40592 0.0
H179 H 0.40567 0.0463 0.48589 0.0
Co180 Co 0.28439 0.45085 0.3292 0.0
C181 C 0.20185 0.40875 0.3048 0.0
Co182 Co 0.2606 0.49267 0.31723 0.0
C183 C 0.34802 0.44193 0.38653 0.0
C184 C 0.31837 0.39645 0.31656 0.0
N185 N 0.31511 0.42517 0.34783 0.0
N186 N 0.37214 0.42591 0.37944 0.0
C187 C 0.35286 0.39664 0.33604 0.0
H188 H 0.3555 0.46725 0.41712 0.0
H189 H 0.29883 0.37868 0.2785 0.0
C190 C 0.34071 0.53489 0.33463 0.0
N191 N 0.23773 0.52447 0.30391 0.0
C192 C 0.24918 0.56036 0.33108 0.0
C193 C 0.20792 0.51839 0.26417 0.0
N194 N 0.228 0.57708 0.30969 0.0
C195 C 0.20176 0.55064 0.26781 0.0
C196 C 0.2579 0.46987 0.43984 0.0
O197 O 0.33473 0.49953 0.33666 0.0
O198 O 0.31089 0.53976 0.32823 0.0
O199 O 0.24972 0.49119 0.40406 0.0
O200 O 0.27398 0.45084 0.41665 0.0
O201 O 0.21004 0.44521 0.30477 0.0
H202 H 0.19234 0.49266 0.23347 0.0
H203 H 0.27286 0.57418 0.36576 0.0
O204 O 0.23042 0.40142 0.3174 0.0
O205 O 0.29359 0.45087 0.24147 0.0
O206 O 0.27158 0.4936 0.23039 0.0
C207 C 0.28562 0.47286 0.20658 0.0
H208 H 0.36419 0.37829 0.31636 0.0
H209 H 0.18066 0.55497 0.2401 0.0
Co210 Co 0.62393 0.85049 0.32429 0.0
C211 C 0.66664 0.81039 0.30217 0.0
Co212 Co 0.58276 0.78488 0.30974 0.0
C213 C 0.63183 0.92254 0.38328 0.0
C214 C 0.67856 0.93911 0.31519 0.0
N215 N 0.6491 0.90674 0.34468 0.0
N216 N 0.64834 0.96289 0.37789 0.0
C217 C 0.67835 0.97331 0.33563 0.0
H218 H 0.60595 0.90436 0.4127 0.0
H219 H 0.69705 0.93778 0.27779 0.0
C220 C 0.53997 0.82234 0.32498 0.0
N221 N 0.55177 0.73031 0.29501 0.0
C222 C 0.51569 0.70555 0.32123 0.0
C223 C 0.55872 0.70685 0.25575 0.0
N224 N 0.49962 0.66767 0.29973 0.0
C225 C 0.5267 0.66822 0.25873 0.0
C226 C 0.60219 0.80375 0.43342 0.0
O227 O 0.57514 0.85159 0.3312 0.0
O228 O 0.53531 0.78789 0.31574 0.0
O229 O 0.58089 0.77485 0.39665 0.0
O230 O 0.62294 0.83904 0.41148 0.0
O231 O 0.63034 0.7819 0.30216 0.0
H232 H 0.58491 0.7173 0.22593 0.0
H233 H 0.5013 0.71519 0.35538 0.0
O234 O 0.67363 0.8464 0.31325 0.0
O235 O 0.62482 0.86073 0.23658 0.0
O236 O 0.58526 0.79549 0.22311 0.0
C237 C 0.60518 0.83069 0.2005 0.0
H238 H 0.69735 1.0033 0.31741 0.0
H239 H 0.523 0.64289 0.23119 0.0
Co240 Co 0.22376 0.79018 0.32821 0.0
C241 C 0.26205 0.87151 0.29951 0.0
Co242 Co 0.28974 0.81542 0.32198 0.0
C243 C 0.1501 0.72521 0.38038 0.0
C244 C 0.13636 0.75192 0.30303 0.0
N245 N 0.16696 0.75762 0.34049 0.0
N246 N 0.11093 0.69905 0.36822 0.0
C247 C 0.10218 0.71647 0.32008 0.0
H248 H 0.16709 0.71952 0.41538 0.0
H249 H 0.13937 0.77037 0.26253 0.0
C250 C 0.25375 0.73598 0.34335 0.0
N251 N 0.34521 0.84154 0.31589 0.0
C252 C 0.36883 0.82559 0.30442 0.0
C253 C 0.37065 0.87958 0.33393 0.0
N254 N 0.40791 0.85189 0.31585 0.0
C255 C 0.40904 0.88604 0.33385 0.0
C256 C 0.26382 0.81842 0.44125 0.0
O257 O 0.22395 0.74115 0.33964 0.0
O258 O 0.28847 0.76638 0.34005 0.0
O259 O 0.29481 0.82808 0.4083 0.0
O260 O 0.22954 0.80043 0.4155 0.0
O261 O 0.29068 0.86408 0.30253 0.0
H262 H 0.36167 0.90055 0.35022 0.0
H263 H 0.35729 0.79473 0.29049 0.0
O264 O 0.22628 0.84283 0.31259 0.0
O265 O 0.2191 0.78091 0.24066 0.0
O266 O 0.2841 0.80278 0.2355 0.0
C267 C 0.25015 0.78853 0.20879 0.0
H268 H 0.07376 0.70323 0.29563 0.0
H269 H 0.4353 0.91308 0.34987 0.0
Co270 Co 0.58188 0.81351 0.81088 0.0
C271 C 0.53912 0.7334 0.82873 0.0
Co272 Co 0.62322 0.78914 0.82228 0.0
C273 C 0.51438 0.8257 0.82144 0.0
C274 C 0.55806 0.86729 0.75654 0.0
N275 N 0.55081 0.83708 0.79645 0.0
N276 N 0.49852 0.84734 0.79853 0.0
C277 C 0.52603 0.87381 0.75797 0.0
H278 H 0.49946 0.8016 0.85535 0.0
H279 H 0.58434 0.88276 0.72685 0.0
C280 C 0.66582 0.87161 0.79788 0.0
N281 N 0.6485 0.75816 0.84125 0.0
C282 C 0.63157 0.7252 0.88005 0.0
C283 C 0.67749 0.75504 0.81059 0.0
N284 N 0.64777 0.7012 0.87362 0.0
C285 C 0.6773 0.72058 0.83053 0.0
C286 C 0.60141 0.78801 0.70023 0.0
O287 O 0.6295 0.86365 0.79788 0.0
O288 O 0.6729 0.84287 0.81055 0.0
O289 O 0.6234 0.77995 0.73481 0.0
O290 O 0.58083 0.80214 0.72427 0.0
O291 O 0.57434 0.73905 0.82985 0.0
H292 H 0.69554 0.77472 0.77273 0.0
H293 H 0.60609 0.71765 0.91032 0.0
O294 O 0.5345 0.76344 0.82265 0.0
O295 O 0.58353 0.82481 0.89761 0.0
O296 O 0.62299 0.79946 0.90939 0.0
C297 C 0.60452 0.81599 0.93302 0.0
H298 H 0.52249 0.89515 0.72944 0.0
H299 H 0.69589 0.70938 0.81143 0.0
Co300 Co 0.25839 0.78356 0.81812 0.0
C301 C 0.33929 0.82123 0.82812 0.0
Co302 Co 0.28353 0.84926 0.83212 0.0
C303 C 0.24682 0.70435 0.82604 0.0
C304 C 0.20313 0.70566 0.76544 0.0
N305 N 0.23463 0.72908 0.80274 0.0
N306 N 0.22447 0.66654 0.80458 0.0
C307 C 0.19671 0.66709 0.76667 0.0
H308 H 0.27183 0.71396 0.85807 0.0
H309 H 0.18647 0.71612 0.73813 0.0
C310 C 0.19993 0.80884 0.81502 0.0
N311 N 0.31465 0.90542 0.85274 0.0
C312 C 0.34806 0.92107 0.89032 0.0
C313 C 0.31712 0.93794 0.82456 0.0
N314 N 0.37167 0.96146 0.88553 0.0
C315 C 0.35161 0.97208 0.84478 0.0
C316 C 0.2783 0.82905 0.70859 0.0
O317 O 0.20747 0.78017 0.81569 0.0
O318 O 0.22936 0.84495 0.8239 0.0
O319 O 0.29143 0.85965 0.74432 0.0
O320 O 0.26347 0.79408 0.73185 0.0
O321 O 0.33371 0.85058 0.8361 0.0
H322 H 0.29688 0.93678 0.78822 0.0
H323 H 0.35613 0.90278 0.91857 0.0
O324 O 0.3092 0.78694 0.81894 0.0
O325 O 0.25312 0.77352 0.90479 0.0
O326 O 0.27448 0.83763 0.91952 0.0
C327 C 0.2614 0.80257 0.94153 0.0
H328 H 0.17431 0.64179 0.74004 0.0
H329 H 0.3623 1.0022 0.82746 0.0
Co330 Co 0.2886 0.49103 0.81549 0.0
C331 C 0.25128 0.53379 0.8326 0.0
Co332 Co 0.22317 0.44961 0.83099 0.0
C333 C 0.36811 0.55836 0.82407 0.0
C334 C 0.36567 0.51487 0.75847 0.0
N335 N 0.34293 0.52206 0.79898 0.0
N336 N 0.40555 0.57428 0.80068 0.0
C337 C 0.40428 0.54691 0.75961 0.0
H338 H 0.35908 0.57305 0.85863 0.0
H339 H 0.35469 0.48855 0.72889 0.0
C340 C 0.26312 0.40702 0.80674 0.0
N341 N 0.16719 0.42437 0.85298 0.0
C342 C 0.1519 0.44188 0.89212 0.0
C343 C 0.13445 0.39454 0.82501 0.0
N344 N 0.11154 0.42517 0.88847 0.0
C345 C 0.10053 0.39476 0.84688 0.0
C346 C 0.24192 0.46876 0.70704 0.0
O347 O 0.29147 0.4434 0.80623 0.0
O348 O 0.22727 0.39989 0.81947 0.0
O349 O 0.21221 0.44846 0.74357 0.0
O350 O 0.27714 0.4891 0.7291 0.0
O351 O 0.22198 0.49854 0.8381 0.0
H352 H 0.13528 0.37571 0.78775 0.0
H353 H 0.17039 0.468 0.92077 0.0
O354 O 0.2857 0.53844 0.82322 0.0
O355 O 0.29948 0.49245 0.90212 0.0
O356 O 0.23533 0.45078 0.91795 0.0
C357 C 0.27072 0.47128 0.93934 0.0
H358 H 0.42907 0.55047 0.73073 0.0
H359 H 0.07028 0.37549 0.83016 0.0
Co360 Co 0.95045 0.78171 0.66335 0.0
C361 C 0.86782 0.73906 0.6409 0.0
Co362 Co 0.92656 0.82321 0.64803 0.0
C363 C 1.01426 0.77449 0.72425 0.0
C364 C 0.98455 0.72691 0.65753 0.0
N365 N 0.98148 0.75675 0.68528 0.0
N366 N 1.03805 0.7579 0.72076 0.0
C367 C 1.01875 0.72734 0.6794 0.0
H368 H 1.02177 0.80067 0.75272 0.0
H369 H 0.96495 0.70789 0.62048 0.0
C370 C 1.00665 0.86591 0.66323 0.0
N371 N 0.90311 0.85407 0.63202 0.0
C372 C 0.91428 0.8903 0.65744 0.0
C373 C 0.87298 0.84686 0.59221 0.0
N374 N 0.89265 0.90623 0.63488 0.0
C375 C 0.86638 0.87889 0.59403 0.0
C376 C 0.92533 0.80414 0.77198 0.0
O377 O 1.00043 0.83062 0.66959 0.0
O378 O 0.97703 0.87077 0.65408 0.0
O379 O 0.91785 0.82533 0.73483 0.0
O380 O 0.93974 0.78321 0.75042 0.0
O381 O 0.87592 0.77547 0.64034 0.0
H382 H 0.85743 0.82049 0.5628 0.0
H383 H 0.93809 0.90491 0.69173 0.0
O384 O 0.8966 0.73191 0.65271 0.0
O385 O 0.96006 0.78029 0.5758 0.0
O386 O 0.93537 0.8206 0.56159 0.0
C387 C 0.95035 0.80033 0.53939 0.0
H388 H 1.02981 0.70806 0.66287 0.0
H389 H 0.84497 0.88242 0.56581 0.0
Co390 Co 0.29066 0.18207 0.66848 0.0
C391 C 0.33507 0.1435 0.64769 0.0
Co392 Co 0.25101 0.11554 0.66309 0.0
C393 C 0.29799 0.25524 0.72054 0.0
C394 C 0.34217 0.27057 0.64829 0.0
N395 N 0.31464 0.23893 0.68173 0.0
N396 N 0.31304 0.29513 0.71173 0.0
C397 C 0.34147 0.30485 0.6668 0.0
H398 H 0.27362 0.23765 0.75292 0.0
H399 H 0.35965 0.26851 0.60992 0.0
C400 C 0.20646 0.15171 0.6762 0.0
N401 N 0.22158 0.05991 0.6571 0.0
C402 C 0.18232 0.03636 0.64334 0.0
C403 C 0.2333 0.03435 0.6781 0.0
N404 N 0.1689 0.99727 0.65611 0.0
C405 C 0.20117 0.99599 0.67738 0.0
C406 C 0.27418 0.14168 0.78218 0.0
O407 O 0.2414 0.18178 0.67574 0.0
O408 O 0.20253 0.11711 0.67307 0.0
O409 O 0.25385 0.11045 0.74956 0.0
O410 O 0.29225 0.17583 0.75593 0.0
O411 O 0.29923 0.11445 0.65159 0.0
H412 H 0.26258 0.04322 0.69713 0.0
H413 H 0.16352 0.04793 0.62693 0.0
O414 O 0.34133 0.17944 0.65682 0.0
O415 O 0.28849 0.18706 0.58077 0.0
O416 O 0.24911 0.12108 0.57652 0.0
C417 C 0.26846 0.15493 0.54916 0.0
H418 H 0.35902 0.33429 0.64583 0.0
H419 H 0.20114 0.96969 0.6954 0.0
Co420 Co 0.89125 0.12166 0.65653 0.0
C421 C 0.93186 0.20401 0.63068 0.0
Co422 Co 0.95692 0.14552 0.64626 0.0
C423 C 0.81829 0.05836 0.71357 0.0
C424 C 0.80313 0.08757 0.64198 0.0
N425 N 0.83478 0.0911 0.67433 0.0
N426 N 0.77827 0.03406 0.70577 0.0
C427 C 0.76866 0.05306 0.66137 0.0
H428 H 0.83585 0.05108 0.74499 0.0
H429 H 0.80528 0.10689 0.60327 0.0
C430 C 0.91874 0.0654 0.66498 0.0
N431 N 1.01164 0.16822 0.63339 0.0
C432 C 1.03591 0.15677 0.66095 0.0
C433 C 1.03543 0.19749 0.59263 0.0
N434 N 0.07374 0.17746 0.63884 0.0
C435 C 0.0737 0.20338 0.59612 0.0
C436 C 0.93569 0.14878 0.76782 0.0
O437 O 0.88934 0.07131 0.66487 0.0
O438 O 0.95356 0.09529 0.65967 0.0
O439 O 0.96575 0.15745 0.73291 0.0
O440 O 0.90086 0.13202 0.74376 0.0
O441 O 0.96014 0.1959 0.63138 0.0
H442 H 1.02538 0.21271 0.56107 0.0
H443 H 1.02596 0.13334 0.69622 0.0
O444 O 0.89596 0.17555 0.64389 0.0
O445 O 0.88282 0.11249 0.56903 0.0
O446 O 0.94745 0.13361 0.55963 0.0
C447 C 0.91303 0.12 0.53497 0.0
H448 H 0.73919 0.04148 0.64094 0.0
H449 H 0.09912 0.22398 0.56764 0.0
Co450 Co 0.25136 0.15157 0.16408 0.0
C451 C 0.20692 0.07085 0.1789 0.0
Co452 Co 0.29096 0.1248 0.16745 0.0
C453 C 0.18302 0.16214 0.14466 0.0
C454 C 0.23351 0.21471 0.18205 0.0
N455 N 0.22201 0.17768 0.15987 0.0
N456 N 0.16949 0.18766 0.15762 0.0
C457 C 0.20142 0.22094 0.18062 0.0
H458 H 0.16454 0.13205 0.12671 0.0
H459 H 0.26264 0.23495 0.20181 0.0
C460 C 0.33513 0.20762 0.14505 0.0
N461 N 0.31514 0.0921 0.17792 0.0
C462 C 0.2995 0.0593 0.21697 0.0
C463 C 0.34033 0.08692 0.14008 0.0
N464 N 0.31278 0.03343 0.20401 0.0
C465 C 0.33917 0.05141 0.15614 0.0
C466 C 0.26612 0.12864 0.04931 0.0
O467 O 0.2994 0.20093 0.15048 0.0
O468 O 0.34139 0.17794 0.1536 0.0
O469 O 0.28684 0.11699 0.0798 0.0
O470 O 0.2475 0.14349 0.07775 0.0
O471 O 0.24185 0.0758 0.17704 0.0
H472 H 0.35598 0.10585 0.10006 0.0
H473 H 0.27663 0.05318 0.25201 0.0
O474 O 0.20296 0.1015 0.17613 0.0
O475 O 0.25605 0.16015 0.25043 0.0
O476 O 0.29453 0.13327 0.25503 0.0
C477 C 0.27704 0.14969 0.28211 0.0
H478 H 0.20117 0.24704 0.19896 0.0
H479 H 0.35464 0.03855 0.13127 0.0
Co480 Co 0.92712 0.11889 0.1441 0.0
C481 C 1.00741 0.15675 0.15804 0.0
Co482 Co 0.95124 0.1844 0.15929 0.0
C483 C 0.91521 0.03968 0.15449 0.0
C484 C 0.87306 0.04092 0.09024 0.0
N485 N 0.90368 0.0644 0.12897 0.0
N486 N 0.89331 1.0018 0.13307 0.0
C487 C 0.86652 1.00232 0.09283 0.0
H488 H 0.9394 0.04935 0.18816 0.0
H489 H 0.85707 0.05134 0.06114 0.0
C490 C 0.86833 0.14394 0.13883 0.0
N491 N 0.98222 0.24063 0.18002 0.0
C492 C 1.01533 0.25641 0.21834 0.0
C493 C 0.98517 0.27303 0.15065 0.0
N494 N 1.03923 0.29676 0.21287 0.0
C495 C 1.01963 0.3072 0.17087 0.0
C496 C 0.94946 0.1648 0.03509 0.0
O497 O 0.87632 0.11558 0.13844 0.0
O498 O 0.8973 0.18004 0.14935 0.0
O499 O 0.96034 0.19488 0.07137 0.0
O500 O 0.93437 0.12962 0.05762 0.0
O501 O 1.0012 0.18574 0.16526 0.0
H502 H 0.96539 0.27171 0.1134 0.0
H503 H 1.02304 0.2382 0.2475 0.0
O504 O 0.97781 0.12225 0.14826 0.0
O505 O 0.91979 0.10868 0.23092 0.0
O506 O 0.94101 0.17264 0.24662 0.0
C507 C 0.92719 0.13733 0.26811 0.0
H508 H 0.8447 0.97696 0.06563 0.0
H509 H 1.03066 0.33717 0.1526 0.0
Co510 Co 0.95735 0.82677 0.15015 0.0
C511 C 0.91927 0.86893 0.16737 0.0
Co512 Co 0.89169 0.78499 0.16191 0.0
C513 C 1.03622 0.89492 0.16363 0.0
C514 C 1.03612 0.85275 0.09757 0.0
N515 N 1.01209 0.85878 0.13694 0.0
N516 N 0.0742 0.91183 0.14228 0.0
C517 C 0.07439 0.88527 0.10095 0.0
H518 H 1.02611 0.90877 0.198 0.0
H519 H 1.02629 0.82687 0.06729 0.0
C520 C 0.9322 0.74287 0.13801 0.0
N521 N 0.8353 0.75919 0.18041 0.0
C522 C 0.81902 0.77585 0.21924 0.0
C523 C 0.80344 0.73055 0.14897 0.0
N524 N 0.77893 0.75986 0.21205 0.0
C525 C 0.76907 0.73069 0.16849 0.0
C526 C 0.91289 0.80694 0.0394 0.0
O527 O 0.96056 0.77931 0.13768 0.0
O528 O 0.8963 0.73566 0.15046 0.0
O529 O 0.88282 0.78492 0.07425 0.0
O530 O 0.94758 0.82776 0.06326 0.0
O531 O 0.88987 0.83358 0.16918 0.0
H532 H 0.80536 0.71289 0.11077 0.0
H533 H 0.83675 0.80112 0.24993 0.0
O534 O 0.95398 0.87379 0.16123 0.0
O535 O 0.96645 0.82517 0.23702 0.0
O536 O 0.90175 0.785 0.24924 0.0
C537 C 0.93675 0.8038 0.27258 0.0
H538 H 0.10001 0.88966 0.0735 0.0
H539 H 0.73946 0.71241 0.14871 0.0
C540 C 0.60487 0.31308 -0.00906 0.0
C541 C 0.56593 0.28064 0.98135 0.0
H542 H 0.64192 0.37661 0.00316 0.0
C543 C 0.53363 0.28774 0.98102 0.0
H544 H 0.63039 0.30854 -0.00914 0.0
C545 C 0.54014 0.32657 -0.01136 0.0
C546 C 0.57922 0.35926 -0.00407 0.0
H547 H 0.50332 0.26325 0.97443 0.0
H548 H 0.5146 0.33109 -0.01321 0.0
C549 C 0.61149 0.35206 -0.00223 0.0
C550 C 0.7474 0.22871 -0.0085 0.0
C551 C 0.71469 0.23515 -0.00273 0.0
H552 H 0.8108 0.25514 0.97888 0.0
C553 C 0.72183 0.27466 -0.00261 0.0
H554 H 0.74291 0.19862 -0.0091 0.0
C555 C 0.76082 0.30701 -0.00932 0.0
C556 C 0.79336 0.30047 0.98295 0.0
H557 H 0.69725 0.28058 0.00159 0.0
H558 H 0.76533 0.33709 -0.01056 0.0
C559 C 0.78627 0.26101 0.98406 0.0
C560 C 0.81297 0.54072 0.97708 0.0
C561 C 0.77363 0.50822 0.97644 0.0
H562 H 0.87533 0.56006 0.98481 0.0
C563 C 0.76716 0.46923 -0.0148 0.0
H564 H 0.8187 0.57105 0.97098 0.0
C565 C 0.79952 0.46276 -0.00748 0.0
C566 C 0.83894 0.49525 -0.00782 0.0
H567 H 0.73712 0.4436 0.98434 0.0
H568 H 0.79369 0.43231 -0.00236 0.0
C569 C 0.8453 0.53436 -0.0146 0.0
C570 C 0.74725 0.53435 0.48782 0.0
C571 C 0.71472 0.49503 0.49217 0.0
H572 H 0.81047 0.57218 0.47962 0.0
C573 C 0.72222 0.46292 0.49262 0.0
H574 H 0.74249 0.55978 0.48634 0.0
C575 C 0.76153 0.47008 0.48935 0.0
C576 C 0.7942 0.50952 0.48499 0.0
H577 H 0.69773 0.43226 0.49578 0.0
H578 H 0.76614 0.44463 0.49124 0.0
C579 C 0.7864 0.54148 0.48395 0.0
C580 C 0.61106 0.27524 0.50091 0.0
C581 C 0.57883 0.23567 0.49955 0.0
H582 H 0.63002 0.33757 0.49138 0.0
C583 C 0.53982 0.22906 0.49053 0.0
H584 H 0.64144 0.28129 0.50755 0.0
C585 C 0.53337 0.26123 0.48062 0.0
C586 C 0.56567 0.3007 0.48039 0.0
H587 H 0.51432 0.19891 0.48899 0.0
H588 H 0.50315 0.25526 0.47266 0.0
C589 C 0.6045 0.30745 0.49181 0.0
C590 C 0.81299 0.28917 0.4904 0.0
C591 C 0.77364 0.28217 0.49113 0.0
H592 H 0.87529 0.33213 0.49727 0.0
C593 C 0.76718 0.31437 0.50388 0.0
H594 H 0.8188 0.26486 0.4815 0.0
C595 C 0.7996 0.35316 0.51285 0.0
C596 C 0.83906 0.36035 0.50999 0.0
H597 H 0.73713 0.30989 0.50429 0.0
H598 H 0.79379 0.37764 0.52009 0.0
C599 C 0.8453 0.32772 0.50006 0.0
C600 C 0.27947 0.68744 0.34511 0.0
C601 C 0.24719 0.69464 0.34287 0.0
H602 H 0.29857 0.64408 0.3363 0.0
C603 C 0.20827 0.66197 0.33378 0.0
H604 H 0.3098 0.71195 0.35171 0.0
C605 C 0.20195 0.62337 0.32433 0.0
C606 C 0.23428 0.61634 0.32445 0.0
H607 H 0.18267 0.66637 0.33153 0.0
H608 H 0.17177 0.59903 0.31609 0.0
C609 C 0.27302 0.64859 0.33637 0.0
C610 C 0.4532 0.59511 0.31355 0.0
C611 C 0.4603 0.63457 0.31358 0.0
H612 H 0.40999 0.53272 0.3215 0.0
C613 C 0.42811 0.64117 0.32514 0.0
H614 H 0.47752 0.58922 0.30548 0.0
C615 C 0.38934 0.60887 0.33412 0.0
C616 C 0.38209 0.56933 0.33247 0.0
H617 H 0.43262 0.67126 0.32491 0.0
H618 H 0.36495 0.61484 0.34089 0.0
C619 C 0.41457 0.56284 0.3233 0.0
C620 C 0.51257 0.86876 0.31986 0.0
C621 C 0.50567 0.8294 0.32392 0.0
H622 H 0.48729 0.90669 0.31192 0.0
C623 C 0.46606 0.79732 0.32414 0.0
H624 H 0.54277 0.89417 0.31862 0.0
C625 C 0.43397 0.80455 0.32092 0.0
C626 C 0.44084 0.84403 0.31682 0.0
H627 H 0.45983 0.76664 0.32711 0.0
H628 H 0.40389 0.77912 0.32267 0.0
C629 C 0.48062 0.87597 0.31601 0.0
C630 C 0.45204 0.87337 0.8107 0.0
C631 C 0.45893 0.84089 0.8101 0.0
H632 H 0.40894 0.89266 0.81803 0.0
C633 C 0.42636 0.80187 0.81859 0.0
H634 H 0.47666 0.90372 0.8048 0.0
C635 C 0.38746 0.79537 0.82557 0.0
C636 C 0.3805 0.82785 0.82517 0.0
H637 H 0.4308 0.77626 0.81775 0.0
H638 H 0.36281 0.76491 0.83048 0.0
C639 C 0.41329 0.86697 0.81867 0.0
C640 C 0.20525 0.56173 0.82514 0.0
C641 C 0.24441 0.56824 0.83109 0.0
H642 H 0.16829 0.58809 0.81187 0.0
C643 C 0.27675 0.60776 0.83102 0.0
H644 H 0.17967 0.53162 0.82468 0.0
C645 C 0.27011 0.64004 0.82388 0.0
C646 C 0.23104 0.63343 0.81589 0.0
H647 H 0.30725 0.61372 0.83534 0.0
H648 H 0.29567 0.67013 0.82247 0.0
C649 C 0.19868 0.59398 0.81723 0.0
C650 C 0.47821 0.62065 0.81123 0.0
C651 C 0.43887 0.61374 0.81274 0.0
H652 H 0.54067 0.66375 0.81635 0.0
C653 C 0.43259 0.6462 0.82384 0.0
H654 H 0.48383 0.59612 0.80346 0.0
C655 C 0.4651 0.68505 0.83094 0.0
C656 C 0.5045 0.69209 0.82788 0.0
H657 H 0.40258 0.64178 0.82472 0.0
H658 H 0.45938 0.70965 0.83747 0.0
C659 C 0.51067 0.65936 0.81914 0.0
C660 C 0.94399 1.01677 0.66723 0.0
C661 C 0.91178 1.02401 0.66405 0.0
H662 H 0.96307 0.97341 0.6603 0.0
C663 C 0.87288 0.99146 0.6546 0.0
H664 H 0.9743 0.04122 0.67424 0.0
C665 C 0.86652 0.95274 0.6461 0.0
C666 C 0.89882 0.94565 0.64759 0.0
H667 H 0.8474 0.99602 0.65163 0.0
H668 H 0.83637 0.92836 0.6378 0.0
C669 C 0.93753 0.97792 0.65943 0.0
C670 C 0.11975 0.92466 0.65542 0.0
C671 C 0.12797 0.96456 0.65598 0.0
H672 H 0.07534 0.86256 0.65768 0.0
C673 C 0.09559 0.97177 0.65911 0.0
H674 H 0.14369 0.91781 0.65208 0.0
C675 C 0.0561 0.93984 0.66191 0.0
C676 C 0.04816 0.90007 0.66213 0.0
H677 H 0.1006 1.002 0.66061 0.0
H678 H 1.03183 0.94632 0.66432 0.0
C679 C 0.08043 0.89287 0.6587 0.0
C680 C 0.14589 0.20337 0.65393 0.0
C681 C 0.10652 0.17102 0.6537 0.0
H682 H 0.20806 0.2227 0.66248 0.0
C683 C 0.09983 0.13217 0.66551 0.0
H684 H 0.15183 0.2336 0.64568 0.0
C685 C 0.13212 0.12568 0.67481 0.0
C686 C 0.17163 0.15804 0.67336 0.0
H687 H 0.06973 0.10664 0.66514 0.0
H688 H 0.12621 0.09532 0.68165 0.0
C689 C 0.17803 0.19702 0.66406 0.0
C690 C 0.12056 0.21123 0.1547 0.0
C691 C 0.12865 0.17949 0.15551 0.0
H692 H 0.0762 0.22891 0.1551 0.0
C693 C 0.0962 0.13984 0.15682 0.0
H694 H 0.14461 0.24207 0.15271 0.0
C695 C 0.05671 0.13223 0.15775 0.0
C696 C 0.04887 0.16411 0.15785 0.0
H697 H 0.10112 0.11457 0.15844 0.0
H698 H 1.03237 0.10144 0.159 0.0
C699 C 0.08122 0.20365 0.15608 0.0
C700 C 0.87343 0.89693 0.15621 0.0
C701 C 0.91238 0.90339 0.16521 0.0
H702 H 0.83691 0.92333 0.13878 0.0
C703 C 0.94469 0.94291 0.16676 0.0
H704 H 0.84788 0.86682 0.15446 0.0
C705 C 0.93827 0.97523 0.15789 0.0
C706 C 0.89949 0.96866 0.14659 0.0
H707 H 0.97504 0.94886 0.17338 0.0
H708 H 0.96387 1.00531 0.15759 0.0
C709 C 0.86711 0.92921 0.14663 0.0
C710 C 0.13256 1.02232 0.17758 0.0
C711 C 0.17207 1.02955 0.17664 0.0
H712 H 0.0702 0.97884 0.16742 0.0
C713 C 0.17847 0.99693 0.16791 0.0
H714 H 0.12662 0.04678 0.1839 0.0
C715 C 0.14636 0.95833 0.15782 0.0
C716 C 0.10698 0.95121 0.15697 0.0
H717 H 0.20849 1.00132 0.16671 0.0
H718 H 0.15234 0.93403 0.15007 0.0
C719 C 0.10028 0.98343 0.16825 0.0
C720 C 0.56752 0.10194 0.27458 0.0
C721 C 0.57492 0.13713 0.30549 0.0
H722 H 0.5681 0.07501 0.18633 0.0
C723 C 0.58542 0.17194 0.27067 0.0
H724 H 0.56017 0.0751 0.30128 0.0
C725 C 0.58919 0.17175 0.20511 0.0
C726 C 0.584 0.13715 0.17442 0.0
H727 H 0.59185 0.19947 0.29438 0.0
H728 H 0.5981 0.1991 0.17886 0.0
C729 C 0.57252 0.10207 0.20934 0.0
C730 C 0.96701 0.47382 0.27525 0.0
C731 C 0.93028 0.45314 0.30718 0.0
H732 H 0.99626 0.49654 0.18624 0.0
C733 C 0.89426 0.43642 0.27342 0.0
H734 H 0.99503 0.48748 0.30102 0.0
C735 C 0.89501 0.4407 0.20795 0.0
C736 C 0.93172 0.46317 0.17651 0.0
H737 H 0.86572 0.42078 0.29782 0.0
H738 H 0.867 0.42799 0.18225 0.0
C739 C 0.96771 0.4794 0.21019 0.0
C740 C 0.64962 0.50445 0.26414 0.0
C741 C 0.6179 0.50167 0.30033 0.0
H742 H 0.67022 0.50122 0.17135 0.0
C743 C 0.58289 0.49567 0.27087 0.0
H744 H 0.67649 0.50826 0.28678 0.0
C745 C 0.57888 0.49087 0.20564 0.0
C746 C 0.60993 0.4921 0.16906 0.0
H747 H 0.55789 0.49271 0.29869 0.0
H748 H 0.55102 0.48511 0.18414 0.0
C749 C 0.64584 0.5001 0.19854 0.0
C750 C 0.96175 0.47389 0.78019 0.0
C751 C 0.94901 0.4987 0.80777 0.0
H752 H 0.97134 0.45038 0.69496 0.0
C753 C 0.9388 0.5219 0.76977 0.0
H754 H 0.96985 0.45589 0.80932 0.0
C755 C 0.93891 0.51822 0.70408 0.0
C756 C 0.94991 0.49186 0.67645 0.0
H757 H 0.92873 0.541 0.79076 0.0
H758 H 0.92937 0.53508 0.6751 0.0
C759 C 0.96259 0.47076 0.71497 0.0
C760 C 0.5712 0.48494 0.70357 0.0
C761 C 0.58346 0.46185 0.66896 0.0
H762 H 0.55807 0.49923 0.79526 0.0
C763 C 0.58908 0.43284 0.6999 0.0
H764 H 0.56643 0.50727 0.68035 0.0
C765 C 0.58506 0.42887 0.76545 0.0
C766 C 0.57386 0.45274 0.80002 0.0
H767 H 0.59858 0.41478 0.6739 0.0
H768 H 0.59194 0.40817 0.78937 0.0
C769 C 0.56593 0.48004 0.76879 0.0
C770 C 0.58165 0.1032 0.77644 0.0
C771 C 0.61721 0.13132 0.80577 0.0
H772 H 0.54937 0.08278 0.68989 0.0
C773 C 0.64941 0.15959 0.76955 0.0
H774 H 0.55631 0.08171 0.80433 0.0
C775 C 0.64556 0.16042 0.70403 0.0
C776 C 0.60918 0.13341 0.67468 0.0
H777 H 0.67673 0.18199 0.79214 0.0
H778 H 0.67037 0.18319 0.67682 0.0
C779 C 0.57761 0.1042 0.71129 0.0
C780 C 0.24121 0.49529 0.53733 0.0
C781 C 0.24884 0.46706 0.50779 0.0
H782 H 0.23264 0.51772 0.62551 0.0
C783 C 0.24887 0.43657 0.54413 0.0
H784 H 0.241 0.51907 0.51033 0.0
C785 C 0.24317 0.43539 0.60926 0.0
C786 C 0.23753 0.4647 0.63883 0.0
H787 H 0.25432 0.41422 0.52253 0.0
H788 H 0.24527 0.41285 0.63698 0.0
C789 C 0.23604 0.49437 0.60279 0.0
C790 C 0.56854 0.76687 0.53172 0.0
C791 C 0.60306 0.79643 0.50104 0.0
H792 H 0.54099 0.74126 0.6209 0.0
C793 C 0.63822 0.81974 0.53576 0.0
H794 H 0.54114 0.74862 0.50561 0.0
C795 C 0.63848 0.81441 0.60083 0.0
C796 C 0.60336 0.78646 0.63178 0.0
H797 H 0.66524 0.84247 0.51274 0.0
H798 H 0.66537 0.83372 0.62744 0.0
C799 C 0.56848 0.76245 0.59713 0.0
C800 C 0.30828 0.85538 0.60289 0.0
C801 C 0.2747 0.83226 0.64081 0.0
H802 H 0.33119 0.86871 0.50825 0.0
C803 C 0.23718 0.80775 0.61318 0.0
H804 H 0.33743 0.87425 0.62394 0.0
C805 C 0.23341 0.80484 0.54795 0.0
C806 C 0.26732 0.82584 0.50947 0.0
H807 H 0.21096 0.78981 0.64224 0.0
H808 H 0.20427 0.78467 0.52789 0.0
C809 C 0.30468 0.85193 0.53719 0.0
C810 C 0.63426 0.81846 0.03812 0.0
C811 C 0.60757 0.82457 0.00114 0.0
H812 H 0.65463 0.81665 0.13138 0.0
C813 C 0.58332 0.8377 0.03025 0.0
H814 H 0.65357 0.80868 0.01705 0.0
C815 C 0.5843 0.84255 0.09582 0.0
C816 C 0.60983 0.83474 0.13234 0.0
H817 H 0.56257 0.84275 0.00279 0.0
H818 H 0.56393 0.85053 0.11816 0.0
C819 C 0.63526 0.8234 0.10329 0.0
C820 C 0.27112 0.77448 0.04061 0.0
C821 C 0.25551 0.79567 0.00923 0.0
H822 H 0.28215 0.75616 0.13051 0.0
C823 C 0.23506 0.81117 0.0431 0.0
H824 H 0.28699 0.76239 0.01472 0.0
C825 C 0.23087 0.80617 0.10831 0.0
C826 C 0.2483 0.78686 0.14016 0.0
H827 H 0.22268 0.82739 0.01918 0.0
H828 H 0.21592 0.81926 0.1342 0.0
C829 C 0.26825 0.77081 0.1062 0.0
C830 C 0.25506 0.43541 0.04206 0.0
C831 C 0.27813 0.47059 0.00701 0.0
H832 H 0.24093 0.40845 0.13406 0.0
C833 C 0.30712 0.50544 0.03754 0.0
H834 H 0.23272 0.40816 0.01918 0.0
C835 C 0.31117 0.50576 0.10309 0.0
C836 C 0.28737 0.47083 0.13807 0.0
H837 H 0.32514 0.53288 0.01121 0.0
H838 H 0.33192 0.53347 0.12667 0.0
C839 C 0.26005 0.43541 0.10727 0.0
C840 C 0.90479 0.7687 0.875 0.0
C841 C 0.91766 0.80392 0.83976 0.0
H842 H 0.89154 0.74201 0.96718 0.0
C843 C 0.92464 0.83923 0.87016 0.0
H844 H 0.89902 0.74112 0.85219 0.0
C845 C 0.92122 0.83989 0.93574 0.0
C846 C 0.90926 0.80488 0.97091 0.0
H847 H 0.93466 0.8667 0.84364 0.0
H848 H 0.92896 0.86786 0.95919 0.0
C849 C 0.90007 0.76906 0.94026 0.0
C850 C 0.27052 0.10411 0.87927 0.0
C851 C 0.27415 0.13859 0.8504 0.0
H852 H 0.26577 0.07413 0.96704 0.0
C853 C 0.27554 0.16947 0.88705 0.0
H854 H 0.26947 0.08006 0.85121 0.0
C855 C 0.27222 0.16552 0.95207 0.0
C856 C 0.26846 0.1311 0.98108 0.0
H857 H 0.27807 0.19614 0.86538 0.0
H858 H 0.27307 0.18962 0.97978 0.0
C859 C 0.26834 0.10067 0.94483 0.0
C860 C 0.97868 0.17441 0.86448 0.0
C861 C 0.94074 0.15773 0.83588 0.0
H862 H 1.0114 0.19054 0.95191 0.0
C863 C 0.90707 0.14852 0.87329 0.0
H864 H 1.00516 0.18196 0.83667 0.0
C865 C 0.91085 0.15379 0.93839 0.0
C866 C 0.94832 0.1687 0.96697 0.0
H867 H 0.87751 0.13594 0.85268 0.0
H868 H 0.8842 0.14454 0.96683 0.0
C869 C 0.98242 0.17977 0.92997 0.0
C870 C 0.27366 0.18394 0.3791 0.0
C871 C 0.27822 0.15357 0.35037 0.0
H872 H 0.26762 0.20862 0.46665 0.0
C873 C 0.28096 0.12495 0.38728 0.0
H874 H 0.27162 0.20633 0.35091 0.0
C875 C 0.27751 0.12563 0.45233 0.0
C876 C 0.27225 0.15547 0.48107 0.0
H877 H 0.28427 0.10121 0.36581 0.0
H878 H 0.27903 0.10283 0.48026 0.0
C879 C 0.27132 0.18526 0.44465 0.0
C880 C 0.92868 0.1027 0.36595 0.0
C881 C 0.9197 0.12964 0.33574 0.0
H882 H 0.9339 0.07884 0.45474 0.0
C883 C 0.90435 0.14986 0.3708 0.0
H884 H 0.94056 0.08686 0.33944 0.0
C885 C 0.899 0.14397 0.43586 0.0
C886 C 0.91009 0.11877 0.46643 0.0
H887 H 0.89698 0.17052 0.34801 0.0
H888 H 0.88846 0.16086 0.46274 0.0
C889 C 0.92466 0.09791 0.43135 0.0
C890 C 0.91148 0.77001 0.3763 0.0
C891 C 0.94261 0.80029 0.34039 0.0
H892 H 0.89057 0.74588 0.46875 0.0
C893 C 0.97873 0.8275 0.37017 0.0
H894 H 0.88348 0.74841 0.35451 0.0
C895 C 0.98268 0.82584 0.43554 0.0
C896 C 0.9509 0.79648 0.47118 0.0
H897 H 1.0032 0.85106 0.3435 0.0
H898 H 1.00967 0.84849 0.45855 0.0
C899 C 0.91566 0.76814 0.44131 0.0
C900 C 0.43922 0.97429 0.92474 0.0
C901 C 0.41157 0.98762 0.91259 0.0
H902 H 0.49937 0.98999 0.95327 0.0
C903 C 0.42452 1.02811 0.9251 0.0
H904 H 0.43073 0.9434 0.91547 0.0
C905 C 0.46336 0.05443 0.94744 0.0
C906 C 0.49181 0.04198 0.95776 0.0
H907 H 0.40445 0.03971 0.9174 0.0
H908 H 0.47124 0.08528 0.95549 0.0
C909 C 0.47881 1.0011 0.94655 0.0
C910 C 1.0196 0.42374 0.95574 0.0
C911 C 1.03184 0.46476 0.96481 0.0
H912 H 1.03426 0.37947 0.92507 0.0
C913 C 0.07235 0.49276 0.95131 0.0
H914 H 0.98903 0.40067 0.96549 0.0
C915 C 0.09897 0.47999 0.92839 0.0
C916 C 0.08575 0.43889 0.91716 0.0
H917 H 0.08325 0.52452 0.9569 0.0
H918 H 0.12954 0.50245 0.91737 0.0
C919 C 0.04569 0.41122 0.93207 0.0
C920 C 0.66174 0.64814 0.91117 0.0
C921 C 0.63429 0.66144 0.90119 0.0
H922 H 0.67226 0.60128 0.9402 0.0
C923 C 0.59359 0.63426 0.91636 0.0
H924 H 0.69322 0.66786 0.9011 0.0
C925 C 0.58092 0.59476 0.93871 0.0
C926 C 0.60868 0.58142 0.94746 0.0
H927 H 0.57127 0.64305 0.90917 0.0
H928 H 0.54942 0.57457 0.94797 0.0
C929 C 0.64936 0.60941 0.93407 0.0
C930 C 0.07329 0.59536 0.44333 0.0
C931 C 1.03136 0.57919 0.44294 0.0
H932 H 0.13152 0.64603 0.42112 0.0
C933 C 1.01714 0.60403 0.41863 0.0
H934 H 0.08576 0.57765 0.46135 0.0
C935 C 1.04304 0.64273 0.39529 0.0
C936 C 0.08477 0.65912 0.39537 0.0
H937 H 0.98533 0.59349 0.41678 0.0
H938 H 1.03012 0.66003 0.3773 0.0
C939 C 0.09961 0.63486 0.42038 0.0
C940 C 0.4642 0.42445 0.43831 0.0
C941 C 0.49214 0.46516 0.45168 0.0
H942 H 0.40574 0.38053 0.40583 0.0
C943 C 0.47867 0.49288 0.44343 0.0
H944 H 0.47242 0.40156 0.44394 0.0
C945 C 0.4391 0.48016 0.42167 0.0
C946 C 0.41197 0.43944 0.40652 0.0
H947 H 0.49882 0.52441 0.45263 0.0
H948 H 0.43022 0.50246 0.41489 0.0
C949 C 0.4254 0.41202 0.41595 0.0
C950 C 0.66233 1.02994 0.41604 0.0
C951 C 0.63485 0.98915 0.40567 0.0
H952 H 0.67287 0.08735 0.44547 0.0
C953 C 0.59413 0.9756 0.42068 0.0
H954 H 0.69382 0.04176 0.40613 0.0
C955 C 0.5815 1.00241 0.44329 0.0
C956 C 0.60928 0.04355 0.45247 0.0
H957 H 0.57177 0.94449 0.4132 0.0
H958 H 0.54999 0.99106 0.45244 0.0
C959 C 0.64996 0.05629 0.43914 0.0
C960 C 0.13141 0.39023 0.27269 0.0
C961 C 0.15923 0.37738 0.28603 0.0
H962 H 0.07307 0.37584 0.24017 0.0
C963 C 0.14565 0.33615 0.27736 0.0
H964 H 0.13973 0.42136 0.27867 0.0
C965 C 0.10611 0.30935 0.25525 0.0
C966 C 0.07907 0.32301 0.24021 0.0
H967 H 0.16568 0.32468 0.28656 0.0
H968 H 0.09719 0.27816 0.24823 0.0
C969 C 0.09262 0.36391 0.25008 0.0
C970 C 0.73932 0.82692 0.27577 0.0
C971 C 0.69814 0.79918 0.28429 0.0
H972 H 0.79737 0.83645 0.24705 0.0
C973 C 0.68539 0.75843 0.27122 0.0
H974 H 0.75067 0.85847 0.28474 0.0
C975 C 0.71178 0.74598 0.24883 0.0
C976 C 0.75261 0.77341 0.23915 0.0
H977 H 0.65428 0.73555 0.27707 0.0
H978 H 0.69998 0.71447 0.23889 0.0
C979 C 0.76619 0.81416 0.25404 0.0
C980 C 0.24702 0.9292 0.27762 0.0
C981 C 0.27301 0.91331 0.2768 0.0
H982 H 0.23909 0.97971 0.25625 0.0
C983 C 0.31211 0.93847 0.25261 0.0
H984 H 0.21679 0.91123 0.29555 0.0
C985 C 0.32472 0.97724 0.22983 0.0
C986 C 0.29915 0.99336 0.23038 0.0
H987 H 0.33354 0.92814 0.25046 0.0
H988 H 0.35499 0.99482 0.21193 0.0
C989 C 0.26001 0.96876 0.25522 0.0
C990 C 0.76545 0.96735 0.74942 0.0
C991 C 0.75183 0.99426 0.73309 0.0
H992 H 0.74994 0.90783 0.78177 0.0
C993 C 0.71088 0.98065 0.74161 0.0
H994 H 0.79672 0.97641 0.74339 0.0
C995 C 0.68444 0.94188 0.76434 0.0
C996 C 0.69725 0.91416 0.77893 0.0
H997 H 0.69905 1.00016 0.73057 0.0
H998 H 0.65328 0.93353 0.76941 0.0
C999 C 0.73853 0.9278 0.77151 0.0
C1000 C 0.1053 0.81281 0.76096 0.0
C1001 C 0.07751 0.77171 0.74955 0.0
H1002 H 0.16541 0.85741 0.7897 0.0
C1003 C 0.08994 0.7441 0.76443 0.0
H1004 H 0.09717 0.83524 0.75003 0.0
C1005 C 0.12849 0.75667 0.78823 0.0
C1006 C 0.15719 0.7977 0.79747 0.0
H1007 H 0.06973 0.71235 0.75735 0.0
H1008 H 0.13601 0.73363 0.79793 0.0
C1009 C 0.14464 0.82565 0.78399 0.0
C1010 C 0.25927 0.30756 0.75712 0.0
C1011 C 0.2997 0.32142 0.73965 0.0
H1012 H 0.21533 0.32272 0.79111 0.0
C1013 C 0.32698 0.36244 0.74794 0.0
H1014 H 0.2371 0.27622 0.75131 0.0
C1015 C 0.3147 0.3887 0.77159 0.0
C1016 C 0.27424 0.37566 0.78735 0.0
H1017 H 0.35825 0.37446 0.73604 0.0
H1018 H 0.33748 0.41994 0.77636 0.0
C1019 C 0.24666 0.33431 0.78008 0.0
C1020 C 0.75838 0.69447 0.58795 0.0
C1021 C 0.74516 0.65389 0.57578 0.0
H1022 H 0.80514 0.75145 0.61888 0.0
C1023 C 0.77234 0.64016 0.58926 0.0
H1024 H 0.73866 0.70637 0.57923 0.0
C1025 C 0.8118 0.6667 0.61191 0.0
C1026 C 0.8251 0.70767 0.62275 0.0
H1027 H 0.76362 0.60918 0.58041 0.0
H1028 H 0.83204 0.65529 0.61957 0.0
C1029 C 0.79705 0.7205 0.6112 0.0
C1030 C 0.40751 0.16035 0.61735 0.0
C1031 C 0.36642 0.13264 0.62697 0.0
H1032 H 0.46516 0.16983 0.58608 0.0
C1033 C 0.35341 0.09196 0.61262 0.0
H1034 H 0.41906 0.19184 0.62716 0.0
C1035 C 0.37941 0.07953 0.58845 0.0
C1036 C 0.42014 0.10687 0.57796 0.0
H1037 H 0.32235 0.06906 0.61875 0.0
H1038 H 0.36738 0.04807 0.57778 0.0
C1039 C 0.43403 0.14759 0.59373 0.0
C1040 C 0.92845 0.30028 0.58447 0.0
C1041 C 0.96823 0.32609 0.56315 0.0
H1042 H 0.88508 0.2418 0.62152 0.0
C1043 C 0.99499 0.31146 0.56691 0.0
H1044 H 0.90666 0.31011 0.58226 0.0
C1045 C 0.98282 0.27283 0.59012 0.0
C1046 C 0.94298 0.24627 0.61004 0.0
H1047 H 1.0258 0.33008 0.55191 0.0
H1048 H 1.00515 0.26367 0.59141 0.0
C1049 C 0.91592 0.26085 0.60702 0.0
C1050 C 0.35343 0.27745 0.10967 0.0
C1051 C 0.36637 0.24973 0.12366 0.0
H1052 H 0.36749 0.33535 0.07494 0.0
C1053 C 0.40735 0.26296 0.1134 0.0
H1054 H 0.32243 0.26935 0.11637 0.0
C1055 C 0.43387 0.30219 0.08956 0.0
C1056 C 0.42009 0.32911 0.07419 0.0
H1057 H 0.41883 0.24297 0.12297 0.0
H1058 H 0.46492 0.31098 0.08149 0.0
C1059 C 0.37944 0.31585 0.08527 0.0
C1060 C 0.81209 0.16014 0.11203 0.0
C1061 C 0.82547 0.13248 0.1219 0.0
H1062 H 0.76359 0.16934 0.08251 0.0
C1063 C 0.79732 0.09153 0.1107 0.0
H1064 H 0.83242 0.19182 0.11952 0.0
C1065 C 0.7584 0.07879 0.08868 0.0
C1066 C 0.74508 0.10613 0.07748 0.0
H1067 H 0.80549 0.06871 0.11769 0.0
H1068 H 0.73857 0.04712 0.08014 0.0
C1069 C 0.7724 0.14711 0.09064 0.0
C1070 C 0.9279 0.64295 0.09019 0.0
C1071 C 0.96867 0.65614 0.07621 0.0
H1072 H 0.88383 0.65898 0.11991 0.0
C1073 C 0.99627 0.69698 0.08605 0.0
H1074 H 0.90544 0.61184 0.08297 0.0
C1075 C 0.98398 0.72369 0.10767 0.0
C1076 C 0.94327 0.71125 0.12008 0.0
H1077 H 1.02781 0.70855 0.0769 0.0
H1078 H 1.00696 0.75476 0.11369 0.0
C1079 C 0.91537 0.6701 0.11142 0.0
loop_
_geom_bond_atom_site_label_1
_geom_bond_atom_site_label_2
_geom_bond_distance
_geom_bond_site_symmetry_2
_ccdc_geom_bond_type
Co0 N5 2.057 . S
Co0 O17 2.021 . S
Co0 O20 2.062 . S
Co0 O24 2.117 . S
Co0 O25 2.020 1_554 S
C1 O21 1.259 1_556 S
C1 O24 1.257 1_556 S
Co2 N11 2.057 . S
Co2 O18 2.117 . S
Co2 O19 2.020 . S
Co2 O21 2.021 . S
Co2 O26 2.062 1_554 S
C3 N5 1.316 . S
C3 N6 1.347 . S
C3 H8 0.931 . S
C4 N5 1.375 . S
C4 C7 1.350 . S
C4 H9 0.930 1_554 S
N5 Co0 2.057 . S
N5 C3 1.316 . S
N5 C4 1.375 . S
N6 C3 1.347 . S
N6 C7 1.373 . S
C7 C4 1.350 . S
C7 N6 1.373 . S
C7 H28 0.931 . S
H8 C3 0.931 . S
H9 C4 0.930 1_556 S
C10 O17 1.259 . S
C10 O18 1.258 . S
N11 Co2 2.057 . S
N11 C12 1.316 1_554 S
N11 C13 1.375 . S
C12 N11 1.316 1_556 S
C12 N14 1.347 . S
C12 H23 0.931 . S
C13 N11 1.375 . S
C13 C15 1.350 1_554 S
C13 H22 0.930 . S
N14 C12 1.347 . S
N14 C15 1.373 . S
C15 C13 1.350 1_556 S
C15 N14 1.373 . S
C15 H29 0.931 . S
C16 O19 1.256 . S
C16 O20 1.255 . S
O17 Co0 2.021 . S
O17 C10 1.259 . S
O18 Co2 2.117 . S
O18 C10 1.258 . S
O19 Co2 2.020 . S
O19 C16 1.256 . S
O20 Co0 2.062 . S
O20 C16 1.255 . S
O21 C1 1.259 1_554 S
O21 Co2 2.021 . S
H22 C13 0.930 . S
H23 C12 0.931 . S
O24 Co0 2.117 . S
O24 C1 1.257 1_554 S
O25 Co0 2.020 1_556 S
O25 C27 1.256 . S
O26 Co2 2.062 1_556 S
O26 C27 1.255 . S
C27 O25 1.256 . S
C27 O26 1.255 . S
H28 C7 0.931 . S
H29 C15 0.931 . S
Co30 N35 2.057 . S
Co30 O47 2.021 . S
Co30 O50 2.062 . S
Co30 O54 2.117 . S
Co30 O55 2.020 1_554 S
C31 O51 1.259 1_556 S
C31 O54 1.257 1_556 S
Co32 N41 2.057 . S
Co32 O48 2.117 . S
Co32 O49 2.020 . S
Co32 O51 2.021 . S
Co32 O56 2.062 1_554 S
C33 N35 1.316 . S
C33 N36 1.347 . S
C33 H38 0.931 . S
C34 N35 1.375 . S
C34 C37 1.350 . S
C34 H39 0.930 1_554 S
N35 Co30 2.057 . S
N35 C33 1.316 . S
N35 C34 1.375 . S
N36 C33 1.347 . S
N36 C37 1.373 . S
C37 C34 1.350 . S
C37 N36 1.373 . S
C37 H58 0.931 . S
H38 C33 0.931 . S
H39 C34 0.930 1_556 S
C40 O47 1.259 . S
C40 O48 1.258 . S
N41 Co32 2.057 . S
N41 C42 1.316 1_554 S
N41 C43 1.375 . S
C42 N41 1.316 1_556 S
C42 N44 1.347 . S
C42 H53 0.931 . S
C43 N41 1.375 . S
C43 C45 1.350 1_554 S
C43 H52 0.930 . S
N44 C42 1.347 . S
N44 C45 1.373 . S
C45 C43 1.350 1_556 S
C45 N44 1.373 . S
C45 H59 0.931 . S
C46 O49 1.256 . S
C46 O50 1.255 . S
O47 Co30 2.021 . S
O47 C40 1.259 . S
O48 Co32 2.117 . S
O48 C40 1.258 . S
O49 Co32 2.020 . S
O49 C46 1.256 . S
O50 Co30 2.062 . S
O50 C46 1.255 . S
O51 C31 1.259 1_554 S
O51 Co32 2.021 . S
H52 C43 0.930 . S
H53 C42 0.931 . S
O54 Co30 2.117 . S
O54 C31 1.257 1_554 S
O55 Co30 2.020 1_556 S
O55 C57 1.256 . S
O56 Co32 2.062 1_556 S
O56 C57 1.255 . S
C57 O55 1.256 . S
C57 O56 1.255 . S
H58 C37 0.931 . S
H59 C45 0.931 . S
Co60 N65 2.057 . S
Co60 O77 2.021 . S
Co60 O80 2.062 . S
Co60 O84 2.117 . S
Co60 O85 2.020 1_554 S
C61 O81 1.259 1_556 S
C61 O84 1.257 1_556 S
Co62 N71 2.057 . S
Co62 O78 2.117 . S
Co62 O79 2.020 . S
Co62 O81 2.021 . S
Co62 O86 2.062 1_554 S
C63 N65 1.316 . S
C63 N66 1.347 . S
C63 H68 0.931 . S
C64 N65 1.375 . S
C64 C67 1.350 . S
C64 H69 0.930 1_554 S
N65 Co60 2.057 . S
N65 C63 1.316 . S
N65 C64 1.375 . S
N66 C63 1.347 . S
N66 C67 1.373 . S
C67 C64 1.350 . S
C67 N66 1.373 . S
C67 H88 0.931 . S
H68 C63 0.931 . S
H69 C64 0.930 1_556 S
C70 O77 1.259 . S
C70 O78 1.258 . S
N71 Co62 2.057 . S
N71 C72 1.316 1_554 S
N71 C73 1.375 . S
C72 N71 1.316 1_556 S
C72 N74 1.347 . S
C72 H83 0.931 . S
C73 N71 1.375 . S
C73 C75 1.350 1_554 S
C73 H82 0.930 . S
N74 C72 1.347 . S
N74 C75 1.373 . S
C75 C73 1.350 1_556 S
C75 N74 1.373 . S
C75 H89 0.931 . S
C76 O79 1.256 . S
C76 O80 1.255 . S
O77 Co60 2.021 . S
O77 C70 1.259 . S
O78 Co62 2.117 . S
O78 C70 1.258 . S
O79 Co62 2.020 . S
O79 C76 1.256 . S
O80 Co60 2.062 . S
O80 C76 1.255 . S
O81 C61 1.259 1_554 S
O81 Co62 2.021 . S
H82 C73 0.930 . S
H83 C72 0.931 . S
O84 Co60 2.117 . S
O84 C61 1.257 1_554 S
O85 Co60 2.020 1_556 S
O85 C87 1.256 . S
O86 Co62 2.062 1_556 S
O86 C87 1.255 . S
C87 O85 1.256 . S
C87 O86 1.255 . S
H88 C67 0.931 . S
H89 C75 0.931 . S
Co90 N95 2.057 . S
Co90 O107 2.021 . S
Co90 O110 2.062 . S
Co90 O114 2.117 . S
Co90 O115 2.020 . S
C91 O111 1.259 . S
C91 O114 1.258 . S
Co92 N101 2.057 . S
Co92 O108 2.117 . S
Co92 O109 2.020 . S
Co92 O111 2.021 . S
Co92 O116 2.062 . S
C93 N95 1.316 . S
C93 N96 1.347 . S
C93 H98 0.931 . S
C94 N95 1.375 . S
C94 C97 1.350 . S
C94 H99 0.930 . S
N95 Co90 2.057 . S
N95 C93 1.316 . S
N95 C94 1.375 . S
N96 C93 1.347 . S
N96 C97 1.373 . S
C97 C94 1.350 . S
C97 N96 1.373 . S
C97 H118 0.931 . S
H98 C93 0.931 . S
H99 C94 0.930 . S
C100 O107 1.259 . S
C100 O108 1.258 . S
N101 Co92 2.057 . S
N101 C102 1.316 . S
N101 C103 1.375 . S
C102 N101 1.316 . S
C102 N104 1.347 . S
C102 H113 0.931 . S
C103 N101 1.375 . S
C103 C105 1.350 . S
C103 H112 0.930 . S
N104 C102 1.347 . S
N104 C105 1.373 . S
C105 C103 1.350 . S
C105 N104 1.373 . S
C105 H119 0.931 . S
C106 O109 1.256 . S
C106 O110 1.255 . S
O107 Co90 2.021 . S
O107 C100 1.259 . S
O108 Co92 2.117 . S
O108 C100 1.258 . S
O109 Co92 2.020 . S
O109 C106 1.256 . S
O110 Co90 2.062 . S
O110 C106 1.255 . S
O111 C91 1.259 . S
O111 Co92 2.021 . S
H112 C103 0.930 . S
H113 C102 0.931 . S
O114 Co90 2.117 . S
O114 C91 1.258 . S
O115 Co90 2.020 . S
O115 C117 1.256 . S
O116 Co92 2.062 . S
O116 C117 1.255 . S
C117 O115 1.256 . S
C117 O116 1.255 . S
H118 C97 0.931 . S
H119 C105 0.931 . S
Co120 N125 2.057 . S
Co120 O137 2.021 . S
Co120 O140 2.062 . S
Co120 O144 2.117 . S
Co120 O145 2.020 . S
C121 O141 1.259 . S
C121 O144 1.258 . S
Co122 N131 2.057 . S
Co122 O138 2.117 . S
Co122 O139 2.020 . S
Co122 O141 2.021 . S
Co122 O146 2.062 . S
C123 N125 1.316 . S
C123 N126 1.347 . S
C123 H128 0.931 . S
C124 N125 1.375 . S
C124 C127 1.350 . S
C124 H129 0.930 . S
N125 Co120 2.057 . S
N125 C123 1.316 . S
N125 C124 1.375 . S
N126 C123 1.347 . S
N126 C127 1.373 . S
C127 C124 1.350 . S
C127 N126 1.373 . S
C127 H148 0.931 . S
H128 C123 0.931 . S
H129 C124 0.930 . S
C130 O137 1.259 . S
C130 O138 1.258 . S
N131 Co122 2.057 . S
N131 C132 1.316 . S
N131 C133 1.375 . S
C132 N131 1.316 . S
C132 N134 1.347 . S
C132 H143 0.931 . S
C133 N131 1.375 . S
C133 C135 1.350 . S
C133 H142 0.930 . S
N134 C132 1.347 . S
N134 C135 1.373 . S
C135 C133 1.350 . S
C135 N134 1.373 . S
C135 H149 0.931 . S
C136 O139 1.256 . S
C136 O140 1.255 . S
O137 Co120 2.021 . S
O137 C130 1.259 . S
O138 Co122 2.117 . S
O138 C130 1.258 . S
O139 Co122 2.020 . S
O139 C136 1.256 . S
O140 Co120 2.062 . S
O140 C136 1.255 . S
O141 C121 1.259 . S
O141 Co122 2.021 . S
H142 C133 0.930 . S
H143 C132 0.931 . S
O144 Co120 2.117 . S
O144 C121 1.258 . S
O145 Co120 2.020 . S
O145 C147 1.256 . S
O146 Co122 2.062 . S
O146 C147 1.255 . S
C147 O145 1.256 . S
C147 O146 1.255 . S
H148 C127 0.931 . S
H149 C135 0.931 . S
Co150 N155 2.057 . S
Co150 O167 2.021 . S
Co150 O170 2.062 . S
Co150 O174 2.117 . S
Co150 O175 2.020 . S
C151 O171 1.259 . S
C151 O174 1.258 . S
Co152 N161 2.057 . S
Co152 O168 2.117 . S
Co152 O169 2.020 . S
Co152 O171 2.021 . S
Co152 O176 2.062 . S
C153 N155 1.316 . S
C153 N156 1.347 . S
C153 H158 0.931 . S
C154 N155 1.375 . S
C154 C157 1.350 . S
C154 H159 0.930 . S
N155 Co150 2.057 . S
N155 C153 1.316 . S
N155 C154 1.375 . S
N156 C153 1.347 . S
N156 C157 1.373 . S
C157 C154 1.350 . S
C157 N156 1.373 . S
C157 H178 0.931 . S
H158 C153 0.931 . S
H159 C154 0.930 . S
C160 O167 1.259 . S
C160 O168 1.258 . S
N161 Co152 2.057 . S
N161 C162 1.316 . S
N161 C163 1.375 . S
C162 N161 1.316 . S
C162 N164 1.347 . S
C162 H173 0.931 . S
C163 N161 1.375 . S
C163 C165 1.350 . S
C163 H172 0.930 . S
N164 C162 1.347 . S
N164 C165 1.373 . S
C165 C163 1.350 . S
C165 N164 1.373 . S
C165 H179 0.931 . S
C166 O169 1.256 . S
C166 O170 1.255 . S
O167 Co150 2.021 . S
O167 C160 1.259 . S
O168 Co152 2.117 . S
O168 C160 1.258 . S
O169 Co152 2.020 . S
O169 C166 1.256 . S
O170 Co150 2.062 . S
O170 C166 1.255 . S
O171 C151 1.259 . S
O171 Co152 2.021 . S
H172 C163 0.930 . S
H173 C162 0.931 . S
O174 Co150 2.117 . S
O174 C151 1.258 . S
O175 Co150 2.020 . S
O175 C177 1.256 . S
O176 Co152 2.062 . S
O176 C177 1.255 . S
C177 O175 1.256 . S
C177 O176 1.255 . S
H178 C157 0.931 . S
H179 C165 0.931 . S
Co180 N185 2.057 . S
Co180 O197 2.021 . S
Co180 O200 2.062 . S
Co180 O204 2.117 . S
Co180 O205 2.020 . S
C181 O201 1.259 . S
C181 O204 1.258 . S
Co182 N191 2.057 . S
Co182 O198 2.117 . S
Co182 O199 2.020 . S
Co182 O201 2.021 . S
Co182 O206 2.062 . S
C183 N185 1.316 . S
C183 N186 1.347 . S
C183 H188 0.931 . S
C184 N185 1.375 . S
C184 C187 1.350 . S
C184 H189 0.930 . S
N185 Co180 2.057 . S
N185 C183 1.316 . S
N185 C184 1.375 . S
N186 C183 1.347 . S
N186 C187 1.373 . S
C187 C184 1.350 . S
C187 N186 1.373 . S
C187 H208 0.931 . S
H188 C183 0.931 . S
H189 C184 0.930 . S
C190 O197 1.259 . S
C190 O198 1.258 . S
N191 Co182 2.057 . S
N191 C192 1.316 . S
N191 C193 1.375 . S
C192 N191 1.316 . S
C192 N194 1.347 . S
C192 H203 0.931 . S
C193 N191 1.375 . S
C193 C195 1.350 . S
C193 H202 0.930 . S
N194 C192 1.347 . S
N194 C195 1.373 . S
C195 C193 1.350 . S
C195 N194 1.373 . S
C195 H209 0.931 . S
C196 O199 1.256 . S
C196 O200 1.255 . S
O197 Co180 2.021 . S
O197 C190 1.259 . S
O198 Co182 2.117 . S
O198 C190 1.258 . S
O199 Co182 2.020 . S
O199 C196 1.256 . S
O200 Co180 2.062 . S
O200 C196 1.255 . S
O201 C181 1.259 . S
O201 Co182 2.021 . S
H202 C193 0.930 . S
H203 C192 0.931 . S
O204 Co180 2.117 . S
O204 C181 1.258 . S
O205 Co180 2.020 . S
O205 C207 1.256 . S
O206 Co182 2.062 . S
O206 C207 1.255 . S
C207 O205 1.256 . S
C207 O206 1.255 . S
H208 C187 0.931 . S
H209 C195 0.931 . S
Co210 N215 2.057 . S
Co210 O227 2.021 . S
Co210 O230 2.062 . S
Co210 O234 2.117 . S
Co210 O235 2.020 . S
C211 O231 1.259 . S
C211 O234 1.258 . S
Co212 N221 2.057 . S
Co212 O228 2.117 . S
Co212 O229 2.020 . S
Co212 O231 2.021 . S
Co212 O236 2.062 . S
C213 N215 1.316 . S
C213 N216 1.347 . S
C213 H218 0.931 . S
C214 N215 1.375 . S
C214 C217 1.350 . S
C214 H219 0.930 . S
N215 Co210 2.057 . S
N215 C213 1.316 . S
N215 C214 1.375 . S
N216 C213 1.347 . S
N216 C217 1.373 . S
C217 C214 1.350 . S
C217 N216 1.373 . S
C217 H238 0.931 . S
H218 C213 0.931 . S
H219 C214 0.930 . S
C220 O227 1.259 . S
C220 O228 1.258 . S
N221 Co212 2.057 . S
N221 C222 1.316 . S
N221 C223 1.375 . S
C222 N221 1.316 . S
C222 N224 1.347 . S
C222 H233 0.931 . S
C223 N221 1.375 . S
C223 C225 1.350 . S
C223 H232 0.930 . S
N224 C222 1.347 . S
N224 C225 1.373 . S
C225 C223 1.350 . S
C225 N224 1.373 . S
C225 H239 0.931 . S
C226 O229 1.256 . S
C226 O230 1.255 . S
O227 Co210 2.021 . S
O227 C220 1.259 . S
O228 Co212 2.117 . S
O228 C220 1.258 . S
O229 Co212 2.020 . S
O229 C226 1.256 . S
O230 Co210 2.062 . S
O230 C226 1.255 . S
O231 C211 1.259 . S
O231 Co212 2.021 . S
H232 C223 0.930 . S
H233 C222 0.931 . S
O234 Co210 2.117 . S
O234 C211 1.258 . S
O235 Co210 2.020 . S
O235 C237 1.256 . S
O236 Co212 2.062 . S
O236 C237 1.255 . S
C237 O235 1.256 . S
C237 O236 1.255 . S
H238 C217 0.931 . S
H239 C225 0.931 . S
Co240 N245 2.057 . S
Co240 O257 2.021 . S
Co240 O260 2.062 . S
Co240 O264 2.117 . S
Co240 O265 2.020 . S
C241 O261 1.259 . S
C241 O264 1.258 . S
Co242 N251 2.057 . S
Co242 O258 2.117 . S
Co242 O259 2.020 . S
Co242 O261 2.021 . S
Co242 O266 2.062 . S
C243 N245 1.316 . S
C243 N246 1.347 . S
C243 H248 0.931 . S
C244 N245 1.375 . S
C244 C247 1.350 . S
C244 H249 0.930 . S
N245 Co240 2.057 . S
N245 C243 1.316 . S
N245 C244 1.375 . S
N246 C243 1.347 . S
N246 C247 1.373 . S
C247 C244 1.350 . S
C247 N246 1.373 . S
C247 H268 0.931 . S
H248 C243 0.931 . S
H249 C244 0.930 . S
C250 O257 1.259 . S
C250 O258 1.258 . S
N251 Co242 2.057 . S
N251 C252 1.316 . S
N251 C253 1.375 . S
C252 N251 1.316 . S
C252 N254 1.347 . S
C252 H263 0.931 . S
C253 N251 1.375 . S
C253 C255 1.350 . S
C253 H262 0.930 . S
N254 C252 1.347 . S
N254 C255 1.373 . S
C255 C253 1.350 . S
C255 N254 1.373 . S
C255 H269 0.931 . S
C256 O259 1.256 . S
C256 O260 1.255 . S
O257 Co240 2.021 . S
O257 C250 1.259 . S
O258 Co242 2.117 . S
O258 C250 1.258 . S
O259 Co242 2.020 . S
O259 C256 1.256 . S
O260 Co240 2.062 . S
O260 C256 1.255 . S
O261 C241 1.259 . S
O261 Co242 2.021 . S
H262 C253 0.930 . S
H263 C252 0.931 . S
O264 Co240 2.117 . S
O264 C241 1.258 . S
O265 Co240 2.020 . S
O265 C267 1.256 . S
O266 Co242 2.062 . S
O266 C267 1.255 . S
C267 O265 1.256 . S
C267 O266 1.255 . S
H268 C247 0.931 . S
H269 C255 0.931 . S
Co270 N275 2.057 . S
Co270 O287 2.021 . S
Co270 O290 2.062 . S
Co270 O294 2.117 . S
Co270 O295 2.020 . S
C271 O291 1.259 . S
C271 O294 1.258 . S
Co272 N281 2.057 . S
Co272 O288 2.117 . S
Co272 O289 2.020 . S
Co272 O291 2.021 . S
Co272 O296 2.062 . S
C273 N275 1.316 . S
C273 N276 1.347 . S
C273 H278 0.931 . S
C274 N275 1.375 . S
C274 C277 1.350 . S
C274 H279 0.930 . S
N275 Co270 2.057 . S
N275 C273 1.316 . S
N275 C274 1.375 . S
N276 C273 1.347 . S
N276 C277 1.373 . S
C277 C274 1.350 . S
C277 N276 1.373 . S
C277 H298 0.931 . S
H278 C273 0.931 . S
H279 C274 0.930 . S
C280 O287 1.259 . S
C280 O288 1.258 . S
N281 Co272 2.057 . S
N281 C282 1.316 . S
N281 C283 1.375 . S
C282 N281 1.316 . S
C282 N284 1.347 . S
C282 H293 0.931 . S
C283 N281 1.375 . S
C283 C285 1.350 . S
C283 H292 0.930 . S
N284 C282 1.347 . S
N284 C285 1.373 . S
C285 C283 1.350 . S
C285 N284 1.373 . S
C285 H299 0.931 . S
C286 O289 1.256 . S
C286 O290 1.255 . S
O287 Co270 2.021 . S
O287 C280 1.259 . S
O288 Co272 2.117 . S
O288 C280 1.258 . S
O289 Co272 2.020 . S
O289 C286 1.256 . S
O290 Co270 2.062 . S
O290 C286 1.255 . S
O291 C271 1.259 . S
O291 Co272 2.021 . S
H292 C283 0.930 . S
H293 C282 0.931 . S
O294 Co270 2.117 . S
O294 C271 1.258 . S
O295 Co270 2.020 . S
O295 C297 1.256 . S
O296 Co272 2.062 . S
O296 C297 1.255 . S
C297 O295 1.256 . S
C297 O296 1.255 . S
H298 C277 0.931 . S
H299 C285 0.931 . S
Co300 N305 2.057 . S
Co300 O317 2.021 . S
Co300 O320 2.062 . S
Co300 O324 2.117 . S
Co300 O325 2.020 . S
C301 O321 1.259 . S
C301 O324 1.258 . S
Co302 N311 2.057 . S
Co302 O318 2.117 . S
Co302 O319 2.020 . S
Co302 O321 2.021 . S
Co302 O326 2.062 . S
C303 N305 1.316 . S
C303 N306 1.347 . S
C303 H308 0.931 . S
C304 N305 1.375 . S
C304 C307 1.350 . S
C304 H309 0.930 . S
N305 Co300 2.057 . S
N305 C303 1.316 . S
N305 C304 1.375 . S
N306 C303 1.347 . S
N306 C307 1.373 . S
C307 C304 1.350 . S
C307 N306 1.373 . S
C307 H328 0.931 . S
H308 C303 0.931 . S
H309 C304 0.930 . S
C310 O317 1.259 . S
C310 O318 1.258 . S
N311 Co302 2.057 . S
N311 C312 1.316 . S
N311 C313 1.375 . S
C312 N311 1.316 . S
C312 N314 1.347 . S
C312 H323 0.931 . S
C313 N311 1.375 . S
C313 C315 1.350 . S
C313 H322 0.930 . S
N314 C312 1.347 . S
N314 C315 1.373 . S
C315 C313 1.350 . S
C315 N314 1.373 . S
C315 H329 0.931 . S
C316 O319 1.256 . S
C316 O320 1.255 . S
O317 Co300 2.021 . S
O317 C310 1.259 . S
O318 Co302 2.117 . S
O318 C310 1.258 . S
O319 Co302 2.020 . S
O319 C316 1.256 . S
O320 Co300 2.062 . S
O320 C316 1.255 . S
O321 C301 1.259 . S
O321 Co302 2.021 . S
H322 C313 0.930 . S
H323 C312 0.931 . S
O324 Co300 2.117 . S
O324 C301 1.258 . S
O325 Co300 2.020 . S
O325 C327 1.256 . S
O326 Co302 2.062 . S
O326 C327 1.255 . S
C327 O325 1.256 . S
C327 O326 1.255 . S
H328 C307 0.931 . S
H329 C315 0.931 . S
Co330 N335 2.057 . S
Co330 O347 2.021 . S
Co330 O350 2.062 . S
Co330 O354 2.117 . S
Co330 O355 2.020 . S
C331 O351 1.259 . S
C331 O354 1.258 . S
Co332 N341 2.057 . S
Co332 O348 2.117 . S
Co332 O349 2.020 . S
Co332 O351 2.021 . S
Co332 O356 2.062 . S
C333 N335 1.316 . S
C333 N336 1.347 . S
C333 H338 0.931 . S
C334 N335 1.375 . S
C334 C337 1.350 . S
C334 H339 0.930 . S
N335 Co330 2.057 . S
N335 C333 1.316 . S
N335 C334 1.375 . S
N336 C333 1.347 . S
N336 C337 1.373 . S
C337 C334 1.350 . S
C337 N336 1.373 . S
C337 H358 0.931 . S
H338 C333 0.931 . S
H339 C334 0.930 . S
C340 O347 1.259 . S
C340 O348 1.258 . S
N341 Co332 2.057 . S
N341 C342 1.316 . S
N341 C343 1.375 . S
C342 N341 1.316 . S
C342 N344 1.347 . S
C342 H353 0.931 . S
C343 N341 1.375 . S
C343 C345 1.350 . S
C343 H352 0.930 . S
N344 C342 1.347 . S
N344 C345 1.373 . S
C345 C343 1.350 . S
C345 N344 1.373 . S
C345 H359 0.931 . S
C346 O349 1.256 . S
C346 O350 1.255 . S
O347 Co330 2.021 . S
O347 C340 1.259 . S
O348 Co332 2.117 . S
O348 C340 1.258 . S
O349 Co332 2.020 . S
O349 C346 1.256 . S
O350 Co330 2.062 . S
O350 C346 1.255 . S
O351 C331 1.259 . S
O351 Co332 2.021 . S
H352 C343 0.930 . S
H353 C342 0.931 . S
O354 Co330 2.117 . S
O354 C331 1.258 . S
O355 Co330 2.020 . S
O355 C357 1.256 . S
O356 Co332 2.062 . S
O356 C357 1.255 . S
C357 O355 1.256 . S
C357 O356 1.255 . S
H358 C337 0.931 . S
H359 C345 0.931 . S
Co360 N365 2.057 . S
Co360 O377 2.021 1_655 S
Co360 O380 2.062 . S
Co360 O384 2.117 . S
Co360 O385 2.020 . S
C361 O381 1.259 . S
C361 O384 1.258 . S
Co362 N371 2.057 . S
Co362 O378 2.117 . S
Co362 O379 2.020 . S
Co362 O381 2.021 . S
Co362 O386 2.062 . S
C363 N365 1.316 1_455 S
C363 N366 1.347 . S
C363 H368 0.931 . S
C364 N365 1.375 . S
C364 C367 1.350 . S
C364 H369 0.930 . S
N365 Co360 2.057 . S
N365 C363 1.316 1_655 S
N365 C364 1.375 . S
N366 C363 1.347 . S
N366 C367 1.373 1_455 S
C367 C364 1.350 . S
C367 N366 1.373 1_655 S
C367 H388 0.931 . S
H368 C363 0.931 . S
H369 C364 0.930 . S
C370 O377 1.259 1_655 S
C370 O378 1.258 . S
N371 Co362 2.057 . S
N371 C372 1.316 . S
N371 C373 1.375 . S
C372 N371 1.316 . S
C372 N374 1.347 . S
C372 H383 0.931 . S
C373 N371 1.375 . S
C373 C375 1.350 . S
C373 H382 0.930 . S
N374 C372 1.347 . S
N374 C375 1.373 . S
C375 C373 1.350 . S
C375 N374 1.373 . S
C375 H389 0.931 . S
C376 O379 1.256 . S
C376 O380 1.255 . S
O377 Co360 2.021 1_455 S
O377 C370 1.259 1_455 S
O378 Co362 2.117 . S
O378 C370 1.258 . S
O379 Co362 2.020 . S
O379 C376 1.256 . S
O380 Co360 2.062 . S
O380 C376 1.255 . S
O381 C361 1.259 . S
O381 Co362 2.021 . S
H382 C373 0.930 . S
H383 C372 0.931 . S
O384 Co360 2.117 . S
O384 C361 1.258 . S
O385 Co360 2.020 . S
O385 C387 1.256 . S
O386 Co362 2.062 . S
O386 C387 1.255 . S
C387 O385 1.256 . S
C387 O386 1.255 . S
H388 C367 0.931 . S
H389 C375 0.931 . S
Co390 N395 2.057 . S
Co390 O407 2.021 . S
Co390 O410 2.062 . S
Co390 O414 2.117 . S
Co390 O415 2.020 . S
C391 O411 1.259 . S
C391 O414 1.258 . S
Co392 N401 2.057 . S
Co392 O408 2.117 . S
Co392 O409 2.020 . S
Co392 O411 2.021 . S
Co392 O416 2.062 . S
C393 N395 1.316 . S
C393 N396 1.347 . S
C393 H398 0.931 . S
C394 N395 1.375 . S
C394 C397 1.350 . S
C394 H399 0.930 . S
N395 Co390 2.057 . S
N395 C393 1.316 . S
N395 C394 1.375 . S
N396 C393 1.347 . S
N396 C397 1.373 . S
C397 C394 1.350 . S
C397 N396 1.373 . S
C397 H418 0.931 . S
H398 C393 0.931 . S
H399 C394 0.930 . S
C400 O407 1.259 . S
C400 O408 1.258 . S
N401 Co392 2.057 . S
N401 C402 1.316 . S
N401 C403 1.375 . S
C402 N401 1.316 . S
C402 N404 1.347 1_545 S
C402 H413 0.931 . S
C403 N401 1.375 . S
C403 C405 1.350 1_545 S
C403 H412 0.930 . S
N404 C402 1.347 1_565 S
N404 C405 1.373 . S
C405 C403 1.350 1_565 S
C405 N404 1.373 . S
C405 H419 0.931 . S
C406 O409 1.256 . S
C406 O410 1.255 . S
O407 Co390 2.021 . S
O407 C400 1.259 . S
O408 Co392 2.117 . S
O408 C400 1.258 . S
O409 Co392 2.020 . S
O409 C406 1.256 . S
O410 Co390 2.062 . S
O410 C406 1.255 . S
O411 C391 1.259 . S
O411 Co392 2.021 . S
H412 C403 0.930 . S
H413 C402 0.931 . S
O414 Co390 2.117 . S
O414 C391 1.258 . S
O415 Co390 2.020 . S
O415 C417 1.256 . S
O416 Co392 2.062 . S
O416 C417 1.255 . S
C417 O415 1.256 . S
C417 O416 1.255 . S
H418 C397 0.931 . S
H419 C405 0.931 . S
Co420 N425 2.057 . S
Co420 O437 2.021 1_545 S
Co420 O440 2.062 . S
Co420 O444 2.117 . S
Co420 O445 2.020 . S
C421 O441 1.259 . S
C421 O444 1.258 . S
Co422 N431 2.057 . S
Co422 O438 2.117 . S
Co422 O439 2.020 . S
Co422 O441 2.021 . S
Co422 O446 2.062 . S
C423 N425 1.316 1_565 S
C423 N426 1.347 . S
C423 H428 0.931 . S
C424 N425 1.375 . S
C424 C427 1.350 . S
C424 H429 0.930 . S
N425 Co420 2.057 . S
N425 C423 1.316 1_545 S
N425 C424 1.375 . S
N426 C423 1.347 . S
N426 C427 1.373 1_565 S
C427 C424 1.350 . S
C427 N426 1.373 1_545 S
C427 H448 0.931 . S
H428 C423 0.931 . S
H429 C424 0.930 . S
C430 O437 1.259 1_545 S
C430 O438 1.258 . S
N431 Co422 2.057 . S
N431 C432 1.316 . S
N431 C433 1.375 . S
C432 N431 1.316 . S
C432 N434 1.347 1_655 S
C432 H443 0.931 . S
C433 N431 1.375 . S
C433 C435 1.350 1_655 S
C433 H442 0.930 . S
N434 C432 1.347 1_455 S
N434 C435 1.373 . S
C435 C433 1.350 1_455 S
C435 N434 1.373 . S
C435 H449 0.931 . S
C436 O439 1.256 . S
C436 O440 1.255 . S
O437 Co420 2.021 1_565 S
O437 C430 1.259 1_565 S
O438 Co422 2.117 . S
O438 C430 1.258 . S
O439 Co422 2.020 . S
O439 C436 1.256 . S
O440 Co420 2.062 . S
O440 C436 1.255 . S
O441 C421 1.259 . S
O441 Co422 2.021 . S
H442 C433 0.930 . S
H443 C432 0.931 . S
O444 Co420 2.117 . S
O444 C421 1.258 . S
O445 Co420 2.020 . S
O445 C447 1.256 . S
O446 Co422 2.062 . S
O446 C447 1.255 . S
C447 O445 1.256 . S
C447 O446 1.255 . S
H448 C427 0.931 . S
H449 C435 0.931 . S
Co450 N455 2.057 . S
Co450 O467 2.021 . S
Co450 O470 2.062 . S
Co450 O474 2.117 . S
Co450 O475 2.020 . S
C451 O471 1.259 1_545 S
C451 O474 1.258 . S
Co452 N461 2.057 . S
Co452 O468 2.117 . S
Co452 O469 2.020 . S
Co452 O471 2.021 1_545 S
Co452 O476 2.062 . S
C453 N455 1.316 . S
C453 N456 1.347 . S
C453 H458 0.931 . S
C454 N455 1.375 . S
C454 C457 1.350 . S
C454 H459 0.930 . S
N455 Co450 2.057 . S
N455 C453 1.316 . S
N455 C454 1.375 . S
N456 C453 1.347 . S
N456 C457 1.373 . S
C457 C454 1.350 . S
C457 N456 1.373 . S
C457 H478 0.931 . S
H458 C453 0.931 . S
H459 C454 0.930 . S
C460 O467 1.259 . S
C460 O468 1.258 . S
N461 Co452 2.057 . S
N461 C462 1.316 1_545 S
N461 C463 1.375 . S
C462 N461 1.316 1_565 S
C462 N464 1.347 . S
C462 H473 0.931 . S
C463 N461 1.375 . S
C463 C465 1.350 . S
C463 H472 0.930 . S
N464 C462 1.347 . S
N464 C465 1.373 1_565 S
C465 C463 1.350 . S
C465 N464 1.373 1_545 S
C465 H479 0.931 . S
C466 O469 1.256 . S
C466 O470 1.255 . S
O467 Co450 2.021 . S
O467 C460 1.259 . S
O468 Co452 2.117 . S
O468 C460 1.258 . S
O469 Co452 2.020 . S
O469 C466 1.256 . S
O470 Co450 2.062 . S
O470 C466 1.255 . S
O471 C451 1.259 1_565 S
O471 Co452 2.021 1_565 S
H472 C463 0.930 . S
H473 C462 0.931 . S
O474 Co450 2.117 . S
O474 C451 1.258 . S
O475 Co450 2.020 . S
O475 C477 1.256 . S
O476 Co452 2.062 . S
O476 C477 1.255 . S
C477 O475 1.256 . S
C477 O476 1.255 . S
H478 C457 0.931 . S
H479 C465 0.931 . S
Co480 N485 2.057 . S
Co480 O497 2.021 . S
Co480 O500 2.062 . S
Co480 O504 2.117 . S
Co480 O505 2.020 . S
C481 O501 1.259 1_655 S
C481 O504 1.258 . S
Co482 N491 2.057 . S
Co482 O498 2.117 . S
Co482 O499 2.020 . S
Co482 O501 2.021 1_655 S
Co482 O506 2.062 . S
C483 N485 1.316 . S
C483 N486 1.347 1_545 S
C483 H488 0.931 . S
C484 N485 1.375 . S
C484 C487 1.350 1_545 S
C484 H489 0.930 . S
N485 Co480 2.057 . S
N485 C483 1.316 . S
N485 C484 1.375 . S
N486 C483 1.347 1_565 S
N486 C487 1.373 . S
C487 C484 1.350 1_565 S
C487 N486 1.373 . S
C487 H508 0.931 . S
H488 C483 0.931 . S
H489 C484 0.930 . S
C490 O497 1.259 . S
C490 O498 1.258 . S
N491 Co482 2.057 . S
N491 C492 1.316 1_655 S
N491 C493 1.375 . S
C492 N491 1.316 1_455 S
C492 N494 1.347 . S
C492 H503 0.931 . S
C493 N491 1.375 . S
C493 C495 1.350 . S
C493 H502 0.930 . S
N494 C492 1.347 . S
N494 C495 1.373 1_455 S
C495 C493 1.350 . S
C495 N494 1.373 1_655 S
C495 H509 0.931 . S
C496 O499 1.256 . S
C496 O500 1.255 . S
O497 Co480 2.021 . S
O497 C490 1.259 . S
O498 Co482 2.117 . S
O498 C490 1.258 . S
O499 Co482 2.020 . S
O499 C496 1.256 . S
O500 Co480 2.062 . S
O500 C496 1.255 . S
O501 C481 1.259 1_455 S
O501 Co482 2.021 1_455 S
H502 C493 0.930 . S
H503 C492 0.931 . S
O504 Co480 2.117 . S
O504 C481 1.258 . S
O505 Co480 2.020 . S
O505 C507 1.256 . S
O506 Co482 2.062 . S
O506 C507 1.255 . S
C507 O505 1.256 . S
C507 O506 1.255 . S
H508 C487 0.931 . S
H509 C495 0.931 . S
Co510 N515 2.057 . S
Co510 O527 2.021 . S
Co510 O530 2.062 . S
Co510 O534 2.117 . S
Co510 O535 2.020 . S
C511 O531 1.259 . S
C511 O534 1.258 . S
Co512 N521 2.057 . S
Co512 O528 2.117 . S
Co512 O529 2.020 . S
Co512 O531 2.021 . S
Co512 O536 2.062 . S
C513 N515 1.316 . S
C513 N516 1.347 1_655 S
C513 H518 0.931 . S
C514 N515 1.375 . S
C514 C517 1.350 1_655 S
C514 H519 0.930 . S
N515 Co510 2.057 . S
N515 C513 1.316 . S
N515 C514 1.375 . S
N516 C513 1.347 1_455 S
N516 C517 1.373 . S
C517 C514 1.350 1_455 S
C517 N516 1.373 . S
C517 H538 0.931 . S
H518 C513 0.931 . S
H519 C514 0.930 . S
C520 O527 1.259 . S
C520 O528 1.258 . S
N521 Co512 2.057 . S
N521 C522 1.316 . S
N521 C523 1.375 . S
C522 N521 1.316 . S
C522 N524 1.347 . S
C522 H533 0.931 . S
C523 N521 1.375 . S
C523 C525 1.350 . S
C523 H532 0.930 . S
N524 C522 1.347 . S
N524 C525 1.373 . S
C525 C523 1.350 . S
C525 N524 1.373 . S
C525 H539 0.931 . S
C526 O529 1.256 . S
C526 O530 1.255 . S
O527 Co510 2.021 . S
O527 C520 1.259 . S
O528 Co512 2.117 . S
O528 C520 1.258 . S
O529 Co512 2.020 . S
O529 C526 1.256 . S
O530 Co510 2.062 . S
O530 C526 1.255 . S
O531 C511 1.259 . S
O531 Co512 2.021 . S
H532 C523 0.930 . S
H533 C522 0.931 . S
O534 Co510 2.117 . S
O534 C511 1.258 . S
O535 Co510 2.020 . S
O535 C537 1.256 . S
O536 Co512 2.062 . S
O536 C537 1.255 . S
C537 O535 1.256 . S
C537 O536 1.255 . S
H538 C517 0.931 . S
H539 C525 0.931 . S
C540 C541 1.387 . S
C540 H544 0.950 . S
C540 C549 1.390 1_556 S
C541 C540 1.387 . S
C541 C543 1.387 . S
H542 C549 0.950 . S
C543 C541 1.387 . S
C543 C545 1.385 1_556 S
C543 H547 0.950 . S
H544 C540 0.950 . S
C545 C543 1.385 1_554 S
C545 C546 1.391 . S
C545 H548 0.952 . S
C546 C545 1.391 . S
C546 C549 1.387 . S
H547 C543 0.950 . S
H548 C545 0.952 . S
C549 C540 1.390 1_554 S
C549 H542 0.950 . S
C549 C546 1.387 . S
C550 C551 1.387 1_556 S
C550 H554 0.950 . S
C550 C559 1.390 . S
C551 C550 1.387 1_554 S
C551 C553 1.387 . S
H552 C559 0.950 . S
C553 C551 1.387 . S
C553 C555 1.390 . S
C553 H557 0.950 . S
H554 C550 0.950 . S
C555 C553 1.390 . S
C555 C556 1.387 1_554 S
C555 H558 0.950 . S
C556 C555 1.387 1_556 S
C556 C559 1.387 . S
H557 C553 0.950 . S
H558 C555 0.950 . S
C559 C550 1.390 . S
C559 H552 0.950 . S
C559 C556 1.387 . S
C560 C561 1.387 . S
C560 H564 0.950 . S
C560 C569 1.390 . S
C561 C560 1.387 . S
C561 C563 1.387 1_556 S
H562 C569 0.950 . S
C563 C561 1.387 1_554 S
C563 C565 1.390 . S
C563 H567 0.950 . S
H564 C560 0.950 . S
C565 C563 1.390 . S
C565 C566 1.387 . S
C565 H568 0.950 . S
C566 C565 1.387 . S
C566 C569 1.387 1_554 S
H567 C563 0.950 . S
H568 C565 0.950 . S
C569 C560 1.390 . S
C569 H562 0.950 . S
C569 C566 1.387 1_556 S
C570 C571 1.387 . S
C570 H574 0.950 . S
C570 C579 1.390 . S
C571 C570 1.387 . S
C571 C573 1.387 . S
H572 C579 0.950 . S
C573 C571 1.387 . S
C573 C575 1.390 . S
C573 H577 0.950 . S
H574 C570 0.950 . S
C575 C573 1.390 . S
C575 C576 1.387 . S
C575 H578 0.950 . S
C576 C575 1.387 . S
C576 C579 1.387 . S
H577 C573 0.950 . S
H578 C575 0.950 . S
C579 C570 1.390 . S
C579 H572 0.950 . S
C579 C576 1.387 . S
C580 C581 1.387 . S
C580 H584 0.950 . S
C580 C589 1.390 . S
C581 C580 1.387 . S
C581 C583 1.387 . S
H582 C589 0.950 . S
C583 C581 1.387 . S
C583 C585 1.390 . S
C583 H587 0.950 . S
H584 C580 0.950 . S
C585 C583 1.390 . S
C585 C586 1.387 . S
C585 H588 0.950 . S
C586 C585 1.387 . S
C586 C589 1.387 . S
H587 C583 0.950 . S
H588 C585 0.950 . S
C589 C580 1.390 . S
C589 H582 0.950 . S
C589 C586 1.387 . S
C590 C591 1.387 . S
C590 H594 0.950 . S
C590 C599 1.390 . S
C591 C590 1.387 . S
C591 C593 1.387 . S
H592 C599 0.950 . S
C593 C591 1.387 . S
C593 C595 1.390 . S
C593 H597 0.950 . S
H594 C590 0.950 . S
C595 C593 1.390 . S
C595 C596 1.387 . S
C595 H598 0.950 . S
C596 C595 1.387 . S
C596 C599 1.387 . S
H597 C593 0.950 . S
H598 C595 0.950 . S
C599 C590 1.390 . S
C599 H592 0.950 . S
C599 C596 1.387 . S
C600 C601 1.387 . S
C600 H604 0.950 . S
C600 C609 1.390 . S
C601 C600 1.387 . S
C601 C603 1.387 . S
H602 C609 0.950 . S
C603 C601 1.387 . S
C603 C605 1.390 . S
C603 H607 0.950 . S
H604 C600 0.950 . S
C605 C603 1.390 . S
C605 C606 1.387 . S
C605 H608 0.950 . S
C606 C605 1.387 . S
C606 C609 1.387 . S
H607 C603 0.950 . S
H608 C605 0.950 . S
C609 C600 1.390 . S
C609 H602 0.950 . S
C609 C606 1.387 . S
C610 C611 1.387 . S
C610 H614 0.950 . S
C610 C619 1.390 . S
C611 C610 1.387 . S
C611 C613 1.387 . S
H612 C619 0.950 . S
C613 C611 1.387 . S
C613 C615 1.390 . S
C613 H617 0.950 . S
H614 C610 0.950 . S
C615 C613 1.390 . S
C615 C616 1.387 . S
C615 H618 0.950 . S
C616 C615 1.387 . S
C616 C619 1.387 . S
H617 C613 0.950 . S
H618 C615 0.950 . S
C619 C610 1.390 . S
C619 H612 0.950 . S
C619 C616 1.387 . S
C620 C621 1.387 . S
C620 H624 0.950 . S
C620 C629 1.390 . S
C621 C620 1.387 . S
C621 C623 1.387 . S
H622 C629 0.950 . S
C623 C621 1.387 . S
C623 C625 1.390 . S
C623 H627 0.950 . S
H624 C620 0.950 . S
C625 C623 1.390 . S
C625 C626 1.387 . S
C625 H628 0.950 . S
C626 C625 1.387 . S
C626 C629 1.387 . S
H627 C623 0.950 . S
H628 C625 0.950 . S
C629 C620 1.390 . S
C629 H622 0.950 . S
C629 C626 1.387 . S
C630 C631 1.387 . S
C630 H634 0.950 . S
C630 C639 1.390 . S
C631 C630 1.387 . S
C631 C633 1.387 . S
H632 C639 0.950 . S
C633 C631 1.387 . S
C633 C635 1.390 . S
C633 H637 0.950 . S
H634 C630 0.950 . S
C635 C633 1.390 . S
C635 C636 1.387 . S
C635 H638 0.950 . S
C636 C635 1.387 . S
C636 C639 1.387 . S
H637 C633 0.950 . S
H638 C635 0.950 . S
C639 C630 1.390 . S
C639 H632 0.950 . S
C639 C636 1.387 . S
C640 C641 1.387 . S
C640 H644 0.950 . S
C640 C649 1.390 . S
C641 C640 1.387 . S
C641 C643 1.387 . S
H642 C649 0.950 . S
C643 C641 1.387 . S
C643 C645 1.390 . S
C643 H647 0.950 . S
H644 C640 0.950 . S
C645 C643 1.390 . S
C645 C646 1.387 . S
C645 H648 0.950 . S
C646 C645 1.387 . S
C646 C649 1.387 . S
H647 C643 0.950 . S
H648 C645 0.950 . S
C649 C640 1.390 . S
C649 H642 0.950 . S
C649 C646 1.387 . S
C650 C651 1.387 . S
C650 H654 0.950 . S
C650 C659 1.390 . S
C651 C650 1.387 . S
C651 C653 1.387 . S
H652 C659 0.950 . S
C653 C651 1.387 . S
C653 C655 1.390 . S
C653 H657 0.950 . S
H654 C650 0.950 . S
C655 C653 1.390 . S
C655 C656 1.387 . S
C655 H658 0.950 . S
C656 C655 1.387 . S
C656 C659 1.387 . S
H657 C653 0.950 . S
H658 C655 0.950 . S
C659 C650 1.390 . S
C659 H652 0.950 . S
C659 C656 1.387 . S
C660 C661 1.387 . S
C660 H664 0.950 . S
C660 C669 1.390 . S
C661 C660 1.387 . S
C661 C663 1.387 . S
H662 C669 0.950 . S
C663 C661 1.387 . S
C663 C665 1.390 . S
C663 H667 0.950 . S
H664 C660 0.950 . S
C665 C663 1.390 . S
C665 C666 1.387 . S
C665 H668 0.950 . S
C666 C665 1.387 . S
C666 C669 1.387 . S
H667 C663 0.950 . S
H668 C665 0.950 . S
C669 C660 1.390 . S
C669 H662 0.950 . S
C669 C666 1.387 . S
C670 C671 1.387 . S
C670 H674 0.950 . S
C670 C679 1.390 . S
C671 C670 1.387 . S
C671 C673 1.387 . S
H672 C679 0.950 . S
C673 C671 1.387 . S
C673 C675 1.390 . S
C673 H677 0.950 . S
H674 C670 0.950 . S
C675 C673 1.390 . S
C675 C676 1.387 . S
C675 H678 0.950 . S
C676 C675 1.387 . S
C676 C679 1.387 . S
H677 C673 0.950 . S
H678 C675 0.950 . S
C679 C670 1.390 . S
C679 H672 0.950 . S
C679 C676 1.387 . S
C680 C681 1.387 . S
C680 H684 0.950 . S
C680 C689 1.390 . S
C681 C680 1.387 . S
C681 C683 1.387 . S
H682 C689 0.950 . S
C683 C681 1.387 . S
C683 C685 1.390 . S
C683 H687 0.950 . S
H684 C680 0.950 . S
C685 C683 1.390 . S
C685 C686 1.387 . S
C685 H688 0.950 . S
C686 C685 1.387 . S
C686 C689 1.387 . S
H687 C683 0.950 . S
H688 C685 0.950 . S
C689 C680 1.390 . S
C689 H682 0.950 . S
C689 C686 1.387 . S
C690 C691 1.387 . S
C690 H694 0.950 . S
C690 C699 1.390 . S
C691 C690 1.387 . S
C691 C693 1.387 . S
H692 C699 0.950 . S
C693 C691 1.387 . S
C693 C695 1.390 . S
C693 H697 0.950 . S
H694 C690 0.950 . S
C695 C693 1.390 . S
C695 C696 1.387 . S
C695 H698 0.950 . S
C696 C695 1.387 . S
C696 C699 1.387 . S
H697 C693 0.950 . S
H698 C695 0.950 . S
C699 C690 1.390 . S
C699 H692 0.950 . S
C699 C696 1.387 . S
C700 C701 1.387 . S
C700 H704 0.950 . S
C700 C709 1.390 . S
C701 C700 1.387 . S
C701 C703 1.387 . S
H702 C709 0.950 . S
C703 C701 1.387 . S
C703 C705 1.390 . S
C703 H707 0.950 . S
H704 C700 0.950 . S
C705 C703 1.390 . S
C705 C706 1.387 . S
C705 H708 0.950 . S
C706 C705 1.387 . S
C706 C709 1.387 . S
H707 C703 0.950 . S
H708 C705 0.950 . S
C709 C700 1.390 . S
C709 H702 0.950 . S
C709 C706 1.387 . S
C710 C711 1.387 . S
C710 H714 0.950 . S
C710 C719 1.390 . S
C711 C710 1.387 . S
C711 C713 1.387 . S
H712 C719 0.950 . S
C713 C711 1.387 . S
C713 C715 1.390 . S
C713 H717 0.950 . S
H714 C710 0.950 . S
C715 C713 1.390 . S
C715 C716 1.387 . S
C715 H718 0.950 . S
C716 C715 1.387 . S
C716 C719 1.387 . S
H717 C713 0.950 . S
H718 C715 0.950 . S
C719 C710 1.390 . S
C719 H712 0.950 . S
C719 C716 1.387 . S
C720 C721 1.387 . S
C720 H724 0.950 . S
C720 C729 1.390 . S
C721 C720 1.387 . S
C721 C723 1.387 . S
H722 C729 0.950 . S
C723 C721 1.387 . S
C723 C725 1.390 . S
C723 H727 0.950 . S
H724 C720 0.950 . S
C725 C723 1.390 . S
C725 C726 1.387 . S
C725 H728 0.950 . S
C726 C725 1.387 . S
C726 C729 1.387 . S
H727 C723 0.950 . S
H728 C725 0.950 . S
C729 C720 1.390 . S
C729 H722 0.950 . S
C729 C726 1.387 . S
C730 C731 1.387 . S
C730 H734 0.950 . S
C730 C739 1.390 . S
C731 C730 1.387 . S
C731 C733 1.387 . S
H732 C739 0.950 . S
C733 C731 1.387 . S
C733 C735 1.390 . S
C733 H737 0.950 . S
H734 C730 0.950 . S
C735 C733 1.390 . S
C735 C736 1.387 . S
C735 H738 0.950 . S
C736 C735 1.387 . S
C736 C739 1.387 . S
H737 C733 0.950 . S
H738 C735 0.950 . S
C739 C730 1.390 . S
C739 H732 0.950 . S
C739 C736 1.387 . S
C740 C741 1.387 . S
C740 H744 0.950 . S
C740 C749 1.390 . S
C741 C740 1.387 . S
C741 C743 1.387 . S
H742 C749 0.950 . S
C743 C741 1.387 . S
C743 C745 1.390 . S
C743 H747 0.950 . S
H744 C740 0.950 . S
C745 C743 1.390 . S
C745 C746 1.387 . S
C745 H748 0.950 . S
C746 C745 1.387 . S
C746 C749 1.387 . S
H747 C743 0.950 . S
H748 C745 0.950 . S
C749 C740 1.390 . S
C749 H742 0.950 . S
C749 C746 1.387 . S
C750 C751 1.387 . S
C750 H754 0.950 . S
C750 C759 1.390 . S
C751 C750 1.387 . S
C751 C753 1.387 . S
H752 C759 0.950 . S
C753 C751 1.387 . S
C753 C755 1.390 . S
C753 H757 0.950 . S
H754 C750 0.950 . S
C755 C753 1.390 . S
C755 C756 1.387 . S
C755 H758 0.950 . S
C756 C755 1.387 . S
C756 C759 1.387 . S
H757 C753 0.950 . S
H758 C755 0.950 . S
C759 C750 1.390 . S
C759 H752 0.950 . S
C759 C756 1.387 . S
C760 C761 1.387 . S
C760 H764 0.950 . S
C760 C769 1.390 . S
C761 C760 1.387 . S
C761 C763 1.387 . S
H762 C769 0.950 . S
C763 C761 1.387 . S
C763 C765 1.390 . S
C763 H767 0.950 . S
H764 C760 0.950 . S
C765 C763 1.390 . S
C765 C766 1.387 . S
C765 H768 0.950 . S
C766 C765 1.387 . S
C766 C769 1.387 . S
H767 C763 0.950 . S
H768 C765 0.950 . S
C769 C760 1.390 . S
C769 H762 0.950 . S
C769 C766 1.387 . S
C770 C771 1.387 . S
C770 H774 0.950 . S
C770 C779 1.390 . S
C771 C770 1.387 . S
C771 C773 1.387 . S
H772 C779 0.950 . S
C773 C771 1.387 . S
C773 C775 1.390 . S
C773 H777 0.950 . S
H774 C770 0.950 . S
C775 C773 1.390 . S
C775 C776 1.387 . S
C775 H778 0.950 . S
C776 C775 1.387 . S
C776 C779 1.387 . S
H777 C773 0.950 . S
H778 C775 0.950 . S
C779 C770 1.390 . S
C779 H772 0.950 . S
C779 C776 1.387 . S
C780 C781 1.387 . S
C780 H784 0.950 . S
C780 C789 1.390 . S
C781 C780 1.387 . S
C781 C783 1.387 . S
H782 C789 0.950 . S
C783 C781 1.387 . S
C783 C785 1.390 . S
C783 H787 0.950 . S
H784 C780 0.950 . S
C785 C783 1.390 . S
C785 C786 1.387 . S
C785 H788 0.950 . S
C786 C785 1.387 . S
C786 C789 1.387 . S
H787 C783 0.950 . S
H788 C785 0.950 . S
C789 C780 1.390 . S
C789 H782 0.950 . S
C789 C786 1.387 . S
C790 C791 1.387 . S
C790 H794 0.950 . S
C790 C799 1.390 . S
C791 C790 1.387 . S
C791 C793 1.387 . S
H792 C799 0.950 . S
C793 C791 1.387 . S
C793 C795 1.390 . S
C793 H797 0.950 . S
H794 C790 0.950 . S
C795 C793 1.390 . S
C795 C796 1.387 . S
C795 H798 0.950 . S
C796 C795 1.387 . S
C796 C799 1.387 . S
H797 C793 0.950 . S
H798 C795 0.950 . S
C799 C790 1.390 . S
C799 H792 0.950 . S
C799 C796 1.387 . S
C800 C801 1.387 . S
C800 H804 0.950 . S
C800 C809 1.390 . S
C801 C800 1.387 . S
C801 C803 1.387 . S
H802 C809 0.950 . S
C803 C801 1.387 . S
C803 C805 1.390 . S
C803 H807 0.950 . S
H804 C800 0.950 . S
C805 C803 1.390 . S
C805 C806 1.387 . S
C805 H808 0.950 . S
C806 C805 1.387 . S
C806 C809 1.387 . S
H807 C803 0.950 . S
H808 C805 0.950 . S
C809 C800 1.390 . S
C809 H802 0.950 . S
C809 C806 1.387 . S
C810 C811 1.387 . S
C810 H814 0.950 . S
C810 C819 1.390 . S
C811 C810 1.387 . S
C811 C813 1.387 . S
H812 C819 0.950 . S
C813 C811 1.387 . S
C813 C815 1.390 . S
C813 H817 0.950 . S
H814 C810 0.950 . S
C815 C813 1.390 . S
C815 C816 1.387 . S
C815 H818 0.950 . S
C816 C815 1.387 . S
C816 C819 1.387 . S
H817 C813 0.950 . S
H818 C815 0.950 . S
C819 C810 1.390 . S
C819 H812 0.950 . S
C819 C816 1.387 . S
C820 C821 1.387 . S
C820 H824 0.950 . S
C820 C829 1.390 . S
C821 C820 1.387 . S
C821 C823 1.387 . S
H822 C829 0.950 . S
C823 C821 1.387 . S
C823 C825 1.390 . S
C823 H827 0.950 . S
H824 C820 0.950 . S
C825 C823 1.390 . S
C825 C826 1.387 . S
C825 H828 0.950 . S
C826 C825 1.387 . S
C826 C829 1.387 . S
H827 C823 0.950 . S
H828 C825 0.950 . S
C829 C820 1.390 . S
C829 H822 0.950 . S
C829 C826 1.387 . S
C830 C831 1.387 . S
C830 H834 0.950 . S
C830 C839 1.390 . S
C831 C830 1.387 . S
C831 C833 1.387 . S
H832 C839 0.950 . S
C833 C831 1.387 . S
C833 C835 1.390 . S
C833 H837 0.950 . S
H834 C830 0.950 . S
C835 C833 1.390 . S
C835 C836 1.387 . S
C835 H838 0.950 . S
C836 C835 1.387 . S
C836 C839 1.387 . S
H837 C833 0.950 . S
H838 C835 0.950 . S
C839 C830 1.390 . S
C839 H832 0.950 . S
C839 C836 1.387 . S
C840 C841 1.387 . S
C840 H844 0.950 . S
C840 C849 1.390 . S
C841 C840 1.387 . S
C841 C843 1.387 . S
H842 C849 0.950 . S
C843 C841 1.387 . S
C843 C845 1.390 . S
C843 H847 0.950 . S
H844 C840 0.950 . S
C845 C843 1.390 . S
C845 C846 1.387 . S
C845 H848 0.950 . S
C846 C845 1.387 . S
C846 C849 1.387 . S
H847 C843 0.950 . S
H848 C845 0.950 . S
C849 C840 1.390 . S
C849 H842 0.950 . S
C849 C846 1.387 . S
C850 C851 1.387 . S
C850 H854 0.950 . S
C850 C859 1.390 . S
C851 C850 1.387 . S
C851 C853 1.387 . S
H852 C859 0.950 . S
C853 C851 1.387 . S
C853 C855 1.390 . S
C853 H857 0.950 . S
H854 C850 0.950 . S
C855 C853 1.390 . S
C855 C856 1.387 . S
C855 H858 0.950 . S
C856 C855 1.387 . S
C856 C859 1.387 . S
H857 C853 0.950 . S
H858 C855 0.950 . S
C859 C850 1.390 . S
C859 H852 0.950 . S
C859 C856 1.387 . S
C860 C861 1.387 . S
C860 H864 0.950 . S
C860 C869 1.390 . S
C861 C860 1.387 . S
C861 C863 1.387 . S
H862 C869 0.950 . S
C863 C861 1.387 . S
C863 C865 1.390 . S
C863 H867 0.950 . S
H864 C860 0.950 . S
C865 C863 1.390 . S
C865 C866 1.387 . S
C865 H868 0.950 1_556 S
C866 C865 1.387 . S
C866 C869 1.387 . S
H867 C863 0.950 . S
H868 C865 0.950 1_554 S
C869 C860 1.390 . S
C869 H862 0.950 . S
C869 C866 1.387 . S
C870 C871 1.387 . S
C870 H874 0.950 . S
C870 C879 1.390 . S
C871 C870 1.387 . S
C871 C873 1.387 . S
H872 C879 0.950 . S
C873 C871 1.387 . S
C873 C875 1.390 . S
C873 H877 0.950 . S
H874 C870 0.950 . S
C875 C873 1.390 . S
C875 C876 1.387 . S
C875 H878 0.950 . S
C876 C875 1.387 . S
C876 C879 1.387 . S
H877 C873 0.950 . S
H878 C875 0.950 . S
C879 C870 1.390 . S
C879 H872 0.950 . S
C879 C876 1.387 . S
C880 C881 1.387 . S
C880 H884 0.950 . S
C880 C889 1.390 . S
C881 C880 1.387 . S
C881 C883 1.387 . S
H882 C889 0.950 . S
C883 C881 1.387 . S
C883 C885 1.390 . S
C883 H887 0.950 . S
H884 C880 0.950 . S
C885 C883 1.390 . S
C885 C886 1.387 . S
C885 H888 0.950 . S
C886 C885 1.387 . S
C886 C889 1.387 . S
H887 C883 0.950 . S
H888 C885 0.950 . S
C889 C880 1.390 . S
C889 H882 0.950 . S
C889 C886 1.387 . S
C890 C891 1.387 . S
C890 H894 0.950 . S
C890 C899 1.390 . S
C891 C890 1.387 . S
C891 C893 1.387 . S
H892 C899 0.950 . S
C893 C891 1.387 . S
C893 C895 1.390 . S
C893 H897 0.950 . S
H894 C890 0.950 . S
C895 C893 1.390 . S
C895 C896 1.387 . S
C895 H898 0.950 . S
C896 C895 1.387 . S
C896 C899 1.387 . S
H897 C893 0.950 . S
H898 C895 0.950 . S
C899 C890 1.390 . S
C899 H892 0.950 . S
C899 C896 1.387 . S
C900 C901 1.387 . S
C900 H904 0.950 1_556 S
C900 C909 1.390 1_566 S
C901 C900 1.387 . S
C901 C903 1.387 1_565 S
H902 C909 0.943 1_565 S
C903 C901 1.387 1_545 S
C903 C905 1.390 . S
C903 H907 0.950 . S
H904 C900 0.950 1_554 S
C905 C903 1.390 . S
C905 C906 1.387 . S
C905 H908 0.950 . S
C906 C905 1.387 . S
C906 C909 1.387 1_556 S
H907 C903 0.950 . S
H908 C905 0.950 . S
C909 C900 1.390 1_544 S
C909 H902 0.943 1_545 S
C909 C906 1.387 1_554 S
C910 C911 1.387 1_554 S
C910 H914 0.950 . S
C910 C919 1.390 1_554 S
C911 C910 1.387 1_556 S
C911 C913 1.387 . S
H912 C919 0.961 1_554 S
C913 C911 1.387 . S
C913 C915 1.390 1_655 S
C913 H917 0.950 . S
H914 C910 0.950 . S
C915 C913 1.390 1_455 S
C915 C916 1.387 . S
C915 H918 0.950 . S
C916 C915 1.387 . S
C916 C919 1.387 1_455 S
H917 C913 0.950 . S
H918 C915 0.950 . S
C919 C910 1.390 1_556 S
C919 H912 0.961 1_556 S
C919 C916 1.387 1_655 S
C920 C921 1.387 . S
C920 H924 0.949 . S
C920 C929 1.390 1_556 S
C921 C920 1.387 . S
C921 C923 1.387 . S
H922 C929 0.950 . S
C923 C921 1.387 . S
C923 C925 1.390 . S
C923 H927 0.950 . S
H924 C920 0.949 . S
C925 C923 1.390 . S
C925 C926 1.387 . S
C925 H928 0.950 . S
C926 C925 1.387 . S
C926 C929 1.387 1_556 S
H927 C923 0.950 . S
H928 C925 0.950 . S
C929 C920 1.390 1_554 S
C929 H922 0.950 . S
C929 C926 1.387 1_554 S
C930 C931 1.387 1_455 S
C930 H934 0.950 . S
C930 C939 1.390 . S
C931 C930 1.387 1_655 S
C931 C933 1.387 . S
H932 C939 0.950 . S
C933 C931 1.387 . S
C933 C935 1.390 . S
C933 H937 0.950 . S
H934 C930 0.950 . S
C935 C933 1.390 . S
C935 C936 1.387 1_655 S
C935 H938 0.950 . S
C936 C935 1.387 1_455 S
C936 C939 1.387 . S
H937 C933 0.950 . S
H938 C935 0.950 . S
C939 C930 1.390 . S
C939 H932 0.950 . S
C939 C936 1.387 . S
C940 C941 1.387 . S
C940 H944 0.950 . S
C940 C949 1.390 . S
C941 C940 1.387 . S
C941 C943 1.387 . S
H942 C949 0.950 . S
C943 C941 1.387 . S
C943 C945 1.390 . S
C943 H947 0.950 . S
H944 C940 0.950 . S
C945 C943 1.390 . S
C945 C946 1.387 . S
C945 H948 0.950 . S
C946 C945 1.387 . S
C946 C949 1.387 . S
H947 C943 0.950 . S
H948 C945 0.950 . S
C949 C940 1.390 . S
C949 H942 0.950 . S
C949 C946 1.387 . S
C950 C951 1.387 1_545 S
C950 H954 0.950 . S
C950 C959 1.390 . S
C951 C950 1.387 1_565 S
C951 C953 1.387 . S
H952 C959 0.950 . S
C953 C951 1.387 . S
C953 C955 1.390 . S
C953 H957 0.950 . S
H954 C950 0.950 . S
C955 C953 1.390 . S
C955 C956 1.387 1_565 S
C955 H958 0.950 . S
C956 C955 1.387 1_545 S
C956 C959 1.387 . S
H957 C953 0.950 . S
H958 C955 0.950 . S
C959 C950 1.390 . S
C959 H952 0.950 . S
C959 C956 1.387 . S
C960 C961 1.387 . S
C960 H964 0.950 . S
C960 C969 1.390 . S
C961 C960 1.387 . S
C961 C963 1.387 . S
H962 C969 0.950 . S
C963 C961 1.387 . S
C963 C965 1.390 . S
C963 H967 0.950 . S
H964 C960 0.950 . S
C965 C963 1.390 . S
C965 C966 1.387 . S
C965 H968 0.950 . S
C966 C965 1.387 . S
C966 C969 1.387 . S
H967 C963 0.950 . S
H968 C965 0.950 . S
C969 C960 1.390 . S
C969 H962 0.950 . S
C969 C966 1.387 . S
C970 C971 1.387 . S
C970 H974 0.950 . S
C970 C979 1.390 . S
C971 C970 1.387 . S
C971 C973 1.387 . S
H972 C979 0.950 . S
C973 C971 1.387 . S
C973 C975 1.390 . S
C973 H977 0.950 . S
H974 C970 0.950 . S
C975 C973 1.390 . S
C975 C976 1.387 . S
C975 H978 0.950 . S
C976 C975 1.387 . S
C976 C979 1.387 . S
H977 C973 0.950 . S
H978 C975 0.950 . S
C979 C970 1.390 . S
C979 H972 0.950 . S
C979 C976 1.387 . S
C980 C981 1.387 . S
C980 H984 0.950 . S
C980 C989 1.390 . S
C981 C980 1.387 . S
C981 C983 1.387 . S
H982 C989 0.950 . S
C983 C981 1.387 . S
C983 C985 1.390 . S
C983 H987 0.950 . S
H984 C980 0.950 . S
C985 C983 1.390 . S
C985 C986 1.387 . S
C985 H988 0.950 . S
C986 C985 1.387 . S
C986 C989 1.387 . S
H987 C983 0.950 . S
H988 C985 0.950 . S
C989 C980 1.390 . S
C989 H982 0.950 . S
C989 C986 1.387 . S
C990 C991 1.387 . S
C990 H994 0.950 . S
C990 C999 1.390 . S
C991 C990 1.387 . S
C991 C993 1.387 . S
H992 C999 0.950 . S
C993 C991 1.387 . S
C993 C995 1.390 . S
C993 H997 0.950 . S
H994 C990 0.950 . S
C995 C993 1.390 . S
C995 C996 1.387 . S
C995 H998 0.950 . S
C996 C995 1.387 . S
C996 C999 1.387 . S
H997 C993 0.950 . S
H998 C995 0.950 . S
C999 C990 1.390 . S
C999 H992 0.950 . S
C999 C996 1.387 . S
C1000 C1001 1.387 . S
C1000 H1004 0.950 . S
C1000 C1009 1.390 . S
C1001 C1000 1.387 . S
C1001 C1003 1.387 . S
H1002 C1009 0.950 . S
C1003 C1001 1.387 . S
C1003 C1005 1.390 . S
C1003 H1007 0.950 . S
H1004 C1000 0.950 . S
C1005 C1003 1.390 . S
C1005 C1006 1.387 . S
C1005 H1008 0.950 . S
C1006 C1005 1.387 . S
C1006 C1009 1.387 . S
H1007 C1003 0.950 . S
H1008 C1005 0.950 . S
C1009 C1000 1.390 . S
C1009 H1002 0.950 . S
C1009 C1006 1.387 . S
C1010 C1011 1.387 . S
C1010 H1014 0.950 . S
C1010 C1019 1.390 . S
C1011 C1010 1.387 . S
C1011 C1013 1.387 . S
H1012 C1019 0.950 . S
C1013 C1011 1.387 . S
C1013 C1015 1.390 . S
C1013 H1017 0.950 . S
H1014 C1010 0.950 . S
C1015 C1013 1.390 . S
C1015 C1016 1.387 . S
C1015 H1018 0.950 . S
C1016 C1015 1.387 . S
C1016 C1019 1.387 . S
H1017 C1013 0.950 . S
H1018 C1015 0.950 . S
C1019 C1010 1.390 . S
C1019 H1012 0.950 . S
C1019 C1016 1.387 . S
C1020 C1021 1.387 . S
C1020 H1024 0.950 . S
C1020 C1029 1.390 . S
C1021 C1020 1.387 . S
C1021 C1023 1.387 . S
H1022 C1029 0.950 . S
C1023 C1021 1.387 . S
C1023 C1025 1.390 . S
C1023 H1027 0.950 . S
H1024 C1020 0.950 . S
C1025 C1023 1.390 . S
C1025 C1026 1.387 . S
C1025 H1028 0.950 . S
C1026 C1025 1.387 . S
C1026 C1029 1.387 . S
H1027 C1023 0.950 . S
H1028 C1025 0.950 . S
C1029 C1020 1.390 . S
C1029 H1022 0.950 . S
C1029 C1026 1.387 . S
C1030 C1031 1.387 . S
C1030 H1034 0.950 . S
C1030 C1039 1.390 . S
C1031 C1030 1.387 . S
C1031 C1033 1.387 . S
H1032 C1039 0.950 . S
C1033 C1031 1.387 . S
C1033 C1035 1.390 . S
C1033 H1037 0.950 . S
H1034 C1030 0.950 . S
C1035 C1033 1.390 . S
C1035 C1036 1.387 . S
C1035 H1038 0.950 . S
C1036 C1035 1.387 . S
C1036 C1039 1.387 . S
H1037 C1033 0.950 . S
H1038 C1035 0.950 . S
C1039 C1030 1.390 . S
C1039 H1032 0.950 . S
C1039 C1036 1.387 . S
C1040 C1041 1.387 . S
C1040 H1044 0.950 . S
C1040 C1049 1.390 . S
C1041 C1040 1.387 . S
C1041 C1043 1.387 . S
H1042 C1049 0.950 . S
C1043 C1041 1.387 . S
C1043 C1045 1.390 . S
C1043 H1047 0.950 . S
H1044 C1040 0.950 . S
C1045 C1043 1.390 . S
C1045 C1046 1.387 . S
C1045 H1048 0.950 . S
C1046 C1045 1.387 . S
C1046 C1049 1.387 . S
H1047 C1043 0.950 . S
H1048 C1045 0.950 . S
C1049 C1040 1.390 . S
C1049 H1042 0.950 . S
C1049 C1046 1.387 . S
C1050 C1051 1.387 . S
C1050 H1054 0.950 . S
C1050 C1059 1.390 . S
C1051 C1050 1.387 . S
C1051 C1053 1.387 . S
H1052 C1059 0.950 . S
C1053 C1051 1.387 . S
C1053 C1055 1.390 . S
C1053 H1057 0.950 . S
H1054 C1050 0.950 . S
C1055 C1053 1.390 . S
C1055 C1056 1.387 . S
C1055 H1058 0.950 1_554 S
C1056 C1055 1.387 . S
C1056 C1059 1.387 . S
H1057 C1053 0.950 . S
H1058 C1055 0.950 1_556 S
C1059 C1050 1.390 . S
C1059 H1052 0.950 . S
C1059 C1056 1.387 . S
C1060 C1061 1.387 . S
C1060 H1064 0.950 . S
C1060 C1069 1.390 . S
C1061 C1060 1.387 . S
C1061 C1063 1.387 . S
H1062 C1069 0.950 . S
C1063 C1061 1.387 . S
C1063 C1065 1.390 . S
C1063 H1067 0.950 . S
H1064 C1060 0.950 . S
C1065 C1063 1.390 . S
C1065 C1066 1.387 . S
C1065 H1068 0.950 . S
C1066 C1065 1.387 . S
C1066 C1069 1.387 . S
H1067 C1063 0.950 . S
H1068 C1065 0.950 . S
C1069 C1060 1.390 . S
C1069 H1062 0.950 . S
C1069 C1066 1.387 . S
C1070 C1071 1.387 . S
C1070 H1074 0.950 . S
C1070 C1079 1.390 . S
C1071 C1070 1.387 . S
C1071 C1073 1.387 . S
H1072 C1079 0.950 . S
C1073 C1071 1.387 . S
C1073 C1075 1.390 . S
C1073 H1077 0.950 . S
H1074 C1070 0.950 . S
C1075 C1073 1.390 . S
C1075 C1076 1.387 . S
C1075 H1078 0.950 . S
C1076 C1075 1.387 . S
C1076 C1079 1.387 . S
H1077 C1073 0.950 . S
H1078 C1075 0.950 . S
C1079 C1070 1.390 . S
C1079 H1072 0.950 . S
C1079 C1076 1.387 . S
C541 N14 0.961 . S
C546 C70 1.265 . S
C551 C10 1.264 . S
C556 N44 0.959 . S
C561 N74 0.959 . S
C566 C40 1.264 . S
C571 C121 1.264 . S
C576 N96 0.960 . S
C581 C151 1.264 . S
C586 N126 0.959 . S
C591 N156 0.966 . S
C596 C91 1.267 . S
C601 C250 1.264 . S
C606 N194 0.959 . S
C611 N224 0.959 . S
C616 C190 1.264 . S
C621 C220 1.268 . S
C626 N254 0.967 . S
C631 N276 0.963 . S
C636 C301 1.265 . S
C641 C331 1.267 . S
C646 N306 0.966 . S
C651 N336 0.961 . S
C656 C271 1.265 . S
C661 C430 1.265 1_565 S
C666 N374 0.963 . S
C671 N404 0.967 . S
C676 C370 1.268 1_455 S
C681 N434 0.967 . S
C686 C400 1.268 . S
C691 N456 0.958 . S
C696 C481 1.264 1_455 S
C701 C511 1.267 . S
C706 N486 0.966 . S
C711 C451 1.267 1_565 S
C716 N516 0.965 . S
C721 C166 1.440 . S
C726 C16 1.443 . S
C731 C106 1.441 . S
C736 C46 1.444 . S
C741 C136 1.441 . S
C746 C76 1.444 . S
C751 C57 1.442 . S
C756 C117 1.445 . S
C761 C147 1.446 . S
C766 C87 1.444 . S
C771 C27 1.444 . S
C776 C177 1.446 . S
C781 C196 1.446 . S
C786 C346 1.444 . S
C791 C226 1.446 . S
C796 C286 1.443 . S
C801 C316 1.442 . S
C806 C256 1.445 . S
C811 C297 1.446 1_554 S
C816 C237 1.444 . S
C821 C327 1.443 1_554 S
C826 C267 1.441 . S
C831 C357 1.446 1_554 S
C836 C207 1.444 . S
C841 C376 1.443 . S
C846 C526 1.440 1_556 S
C851 C406 1.446 . S
C856 C466 1.444 1_556 S
C861 C436 1.443 . S
C866 C496 1.441 1_556 S
C871 C477 1.443 . S
C876 C417 1.441 . S
C881 C507 1.443 . S
C886 C447 1.441 . S
C891 C537 1.446 . S
C896 C387 1.444 . S
C901 N314 2.244 . S
C906 C1 2.191 . S
C911 C31 2.191 . S
C916 N344 2.244 . S
C921 N284 2.244 . S
C926 C61 2.191 . S
C931 C100 2.185 . S
C936 N246 2.243 . S
C941 C130 2.184 . S
C946 N186 2.243 . S
C951 N216 2.244 . S
C956 C160 2.186 . S
C961 C181 2.185 . S
C966 N494 2.243 . S
C971 C211 2.185 . S
C976 N524 2.244 . S
C981 C241 2.185 . S
C986 N464 2.243 . S
C991 N426 2.243 . S
C996 C280 2.185 . S
C1001 N366 2.244 . S
C1006 C310 2.186 . S
C1011 N396 2.243 . S
C1016 C340 2.184 . S
C1021 N134 2.243 . S
C1026 C361 2.184 . S
C1031 C391 2.184 . S
C1036 N164 2.243 . S
C1041 N104 2.244 . S
C1046 C421 2.186 . S
C1051 C460 2.184 . S
C1056 N66 2.243 . S
C1061 C490 2.186 . S
C1066 N6 2.244 . S
C1071 N36 2.243 . S
C1076 C520 2.184 . S
