# Generated by pormake.
# Topology upa, (4)-cn, num edge types: 1
# Building blocks:
#     Node 0, Type 0, BuildingBlock: UXUYUI_clean_sbu_0, # of connection points: 4
#     Node 1, Type 0, BuildingBlock: UXUYUI_clean_sbu_0, # of connection points: 4
#     Node 2, Type 0, BuildingBlock: UXUYUI_clean_sbu_0, # of connection points: 4
#     Node 3, Type 0, BuildingBlock: UXUYUI_clean_sbu_0, # of connection points: 4
#     Node 4, Type 0, BuildingBlock: UXUYUI_clean_sbu_0, # of connection points: 4
#     Node 5, Type 0, BuildingBlock: UXUYUI_clean_sbu_0, # of connection points: 4
#     Node 6, Type 0, BuildingBlock: UXUYUI_clean_sbu_0, # of connection points: 4
#     Node 7, Type 0, BuildingBlock: UXUYUI_clean_sbu_0, # of connection points: 4
#     Edge 8, Type (0, 0), BuildingBlock: XIVTED_clean_linker_0, # of connection points: 2
#     Edge 9, Type (0, 0), BuildingBlock: XIVTED_clean_linker_0, # of connection points: 2
#     Edge 10, Type (0, 0), BuildingBlock: XIVTED_clean_linker_0, # of connection points: 2
#     Edge 11, Type (0, 0), BuildingBlock: XIVTED_clean_linker_0, # of connection points: 2
#     Edge 12, Type (0, 0), BuildingBlock: XIVTED_clean_linker_0, # of connection points: 2
#     Edge 13, Type (0, 0), BuildingBlock: XIVTED_clean_linker_0, # of connection points: 2
#     Edge 14, Type (0, 0), BuildingBlock: XIVTED_clean_linker_0, # of connection points: 2
#     Edge 15, Type (0, 0), BuildingBlock: XIVTED_clean_linker_0, # of connection points: 2
#     Edge 16, Type (0, 0), BuildingBlock: XIVTED_clean_linker_0, # of connection points: 2
#     Edge 17, Type (0, 0), BuildingBlock: XIVTED_clean_linker_0, # of connection points: 2
#     Edge 18, Type (0, 0), BuildingBlock: XIVTED_clean_linker_0, # of connection points: 2
#     Edge 19, Type (0, 0), BuildingBlock: XIVTED_clean_linker_0, # of connection points: 2
#     Edge 20, Type (0, 0), BuildingBlock: XIVTED_clean_linker_0, # of connection points: 2
#     Edge 21, Type (0, 0), BuildingBlock: XIVTED_clean_linker_0, # of connection points: 2
#     Edge 22, Type (0, 0), BuildingBlock: XIVTED_clean_linker_0, # of connection points: 2
#     Edge 23, Type (0, 0), BuildingBlock: XIVTED_clean_linker_0, # of connection points: 2
# Relax obj value: 0.344
# Max RMSD: 0.248
# Mean RMSD: 0.248
data_MOF--net-upa--node1-UXUYUI_clean_sbu_0--edge1-XIVTED_clean_linker_0
_symmetry_space_group_name_H-M    P1
_symmetry_Int_Tables_number       1
_symmetry_cell_setting            triclinic
loop_
_symmetry_equiv_pos_as_xyz
'x, y, z'
_cell_length_a     38.662801
_cell_length_b     38.422876
_cell_length_c     63.580076
_cell_angle_alpha  90.023851
_cell_angle_beta   90.0195
_cell_angle_gamma 89.982086
loop_
_atom_site_label
_atom_site_type_symbol
_atom_site_fract_x
_atom_site_fract_y
_atom_site_fract_z
_atom_type_partial_charge
Li0 Li 0.15523 0.23889 0.31604 0.0
Li1 Li 0.18096 0.22637 0.34963 0.0
Li2 Li 0.21124 0.21545 0.31674 0.0
Li3 Li 0.1615 0.17758 0.32597 0.0
C4 C 0.18773 0.29494 0.32586 0.0
N5 N 0.16739 0.3631 0.31967 0.0
C6 C 0.17558 0.31474 0.34275 0.0
C7 C 0.18965 0.3098 0.30583 0.0
C8 C 0.16543 0.34917 0.3393 0.0
C9 C 0.17917 0.34429 0.30302 0.0
C10 C 0.10095 0.22303 0.34188 0.0
C11 C 0.04232 0.21934 0.32913 0.0
N12 N 0.03244 0.24314 0.3438 0.0
C13 C 0.09022 0.24729 0.3569 0.0
C14 C 0.07682 0.20872 0.32796 0.0
C15 C 0.05545 0.25715 0.3576 0.0
C16 C 0.11174 0.25296 0.28224 0.0
N17 N 0.12065 0.26571 0.30143 0.0
C18 C 0.07042 0.30217 0.30175 0.0
C19 C 0.10127 0.29073 0.31098 0.0
C20 C 0.0596 0.28779 0.2825 0.0
C21 C 0.08138 0.26378 0.27241 0.0
H22 H 0.12685 0.23246 0.27515 0.0
H23 H 0.10831 0.29998 0.32644 0.0
C24 C 0.21065 0.25634 0.38685 0.0
N25 N 0.18593 0.23489 0.37888 0.0
C26 C 0.21749 0.25649 0.40847 0.0
C27 C 0.17282 0.2131 0.41309 0.0
C28 C 0.16667 0.21402 0.39151 0.0
C29 C 0.19904 0.23394 0.42176 0.0
H30 H 0.22615 0.27202 0.37633 0.0
H31 H 0.14765 0.19679 0.38462 0.0
C32 C 0.19004 0.19019 0.2814 0.0
N33 N 0.22966 0.17098 0.24716 0.0
C34 C 0.20076 0.15567 0.27904 0.0
C35 C 0.19936 0.21493 0.26631 0.0
C36 C 0.22078 0.14647 0.26161 0.0
C37 C 0.21945 0.2047 0.24913 0.0
C38 C 0.22926 0.17762 0.35669 0.0
C39 C 0.25825 0.19913 0.35854 0.0
C40 C 0.22295 0.15223 0.37194 0.0
C41 C 0.28046 0.1949 0.37569 0.0
C42 C 0.24573 0.14888 0.38889 0.0
N43 N 0.27376 0.17012 0.3904 0.0
C44 C 0.26928 0.24224 0.29457 0.0
C45 C 0.27293 0.18255 0.3037 0.0
C46 C 0.3011 0.24044 0.28425 0.0
N47 N 0.25577 0.21345 0.30383 0.0
C48 C 0.30487 0.17958 0.2936 0.0
C49 C 0.31926 0.20872 0.28354 0.0
H50 H 0.25518 0.26651 0.29502 0.0
H51 H 0.26148 0.16005 0.31118 0.0
C52 C 0.12193 0.12534 0.30718 0.0
N53 N 0.13729 0.13518 0.32545 0.0
C54 C 0.09688 0.09924 0.30721 0.0
C55 C 0.10497 0.09308 0.34476 0.0
C56 C 0.12978 0.11942 0.344 0.0
C57 C 0.0874 0.08342 0.32629 0.0
H58 H 0.1274 0.13938 0.29282 0.0
H59 H 0.14152 0.12872 0.35837 0.0
O60 O 0.19778 0.26121 0.32892 0.0
O61 O 0.13498 0.21365 0.34067 0.0
O62 O 0.17129 0.19993 0.29866 0.0
O63 O 0.20639 0.18239 0.34053 0.0
H64 H 0.17368 0.30357 0.35832 0.0
H65 H 0.19873 0.29474 0.29255 0.0
H66 H 0.15585 0.36478 0.35221 0.0
H67 H 0.18032 0.35607 0.28758 0.0
H68 H 0.02342 0.20879 0.31832 0.0
H69 H 0.10865 0.25863 0.36774 0.0
H70 H 0.08478 0.19009 0.31616 0.0
H71 H 0.04679 0.27606 0.36906 0.0
H72 H 0.0545 0.32088 0.31002 0.0
H73 H 0.07391 0.25152 0.25776 0.0
H74 H 0.23813 0.27267 0.41455 0.0
H75 H 0.15782 0.19561 0.42284 0.0
H76 H 0.19417 0.1363 0.29072 0.0
H77 H 0.19152 0.24182 0.26801 0.0
H78 H 0.22942 0.11989 0.25964 0.0
H79 H 0.22704 0.2236 0.2374 0.0
H80 H 0.2632 0.21933 0.34708 0.0
H81 H 0.20052 0.13552 0.37083 0.0
H82 H 0.30288 0.21151 0.37738 0.0
H83 H 0.24104 0.1295 0.40089 0.0
H84 H 0.31147 0.26371 0.27701 0.0
H85 H 0.31778 0.15457 0.29329 0.0
H86 H 0.0836 0.09312 0.29268 0.0
H87 H 0.0987 0.08136 0.35976 0.0
Li88 Li 0.28398 0.718 0.81329 0.0
Li89 Li 0.28014 0.69739 0.84841 0.0
Li90 Li 0.32458 0.67327 0.82664 0.0
Li91 Li 0.2631 0.65742 0.82132 0.0
C92 C 0.34699 0.74102 0.82755 0.0
N93 N 0.40051 0.77954 0.81047 0.0
C94 C 0.35832 0.77147 0.83746 0.0
C95 C 0.36277 0.73043 0.80881 0.0
C96 C 0.38544 0.79051 0.82861 0.0
C97 C 0.38981 0.75016 0.80047 0.0
C98 C 0.21285 0.70748 0.84089 0.0
C99 C 0.16192 0.68526 0.85819 0.0
N100 N 0.15686 0.71688 0.86731 0.0
C101 C 0.20703 0.73982 0.85034 0.0
C102 C 0.19005 0.68 0.84476 0.0
C103 C 0.17864 0.74402 0.86369 0.0
C104 C 0.29815 0.7607 0.77725 0.0
N105 N 0.28259 0.75925 0.79643 0.0
C106 C 0.27246 0.82062 0.79583 0.0
C107 C 0.26973 0.78833 0.80574 0.0
C108 C 0.28876 0.82309 0.77614 0.0
C109 C 0.30123 0.79248 0.76668 0.0
H110 H 0.30926 0.7374 0.7705 0.0
H111 H 0.25846 0.78663 0.82124 0.0
C112 C 0.29632 0.73433 0.88506 0.0
N113 N 0.27256 0.71179 0.87717 0.0
C114 C 0.2955 0.744 0.90619 0.0
C115 C 0.2454 0.70735 0.91092 0.0
C116 C 0.24705 0.69861 0.88959 0.0
C117 C 0.2702 0.72997 0.91959 0.0
H118 H 0.31657 0.74417 0.87505 0.0
H119 H 0.22857 0.68045 0.88316 0.0
C120 C 0.2826 0.66138 0.78154 0.0
N121 N 0.2493 0.63607 0.74616 0.0
C122 C 0.29098 0.6285 0.77351 0.0
C123 C 0.25676 0.68102 0.77173 0.0
C124 C 0.27395 0.61624 0.7556 0.0
C125 C 0.24045 0.66791 0.75378 0.0
C126 C 0.28793 0.63458 0.86495 0.0
C127 C 0.31308 0.63864 0.88055 0.0
C128 C 0.25715 0.61713 0.86964 0.0
C129 C 0.30693 0.62537 0.90066 0.0
C130 C 0.25203 0.60412 0.88992 0.0
N131 N 0.27679 0.60852 0.90488 0.0
C132 C 0.39025 0.652 0.84259 0.0
C133 C 0.37573 0.63251 0.80839 0.0
C134 C 0.41833 0.62907 0.84331 0.0
N135 N 0.36895 0.65222 0.82559 0.0
C136 C 0.40308 0.60896 0.8085 0.0
C137 C 0.42415 0.606 0.82645 0.0
H138 H 0.38447 0.66834 0.85598 0.0
H139 H 0.35873 0.63372 0.79499 0.0
C140 C 0.21141 0.6165 0.79859 0.0
N141 N 0.23882 0.61673 0.81204 0.0
C142 C 0.20074 0.58519 0.78925 0.0
C143 C 0.24544 0.55516 0.80866 0.0
C144 C 0.25554 0.58685 0.81727 0.0
C145 C 0.21823 0.55407 0.79409 0.0
H146 H 0.19909 0.64074 0.79426 0.0
H147 H 0.27804 0.58783 0.82734 0.0
O148 O 0.31971 0.72274 0.83579 0.0
O149 O 0.2404 0.70281 0.8277 0.0
O150 O 0.29806 0.67339 0.79956 0.0
O151 O 0.29332 0.64776 0.84522 0.0
H152 H 0.3461 0.78061 0.85172 0.0
H153 H 0.3541 0.70749 0.80055 0.0
H154 H 0.39441 0.8141 0.83614 0.0
H155 H 0.40218 0.74222 0.78598 0.0
H156 H 0.14415 0.66417 0.86138 0.0
H157 H 0.22449 0.76132 0.84764 0.0
H158 H 0.19408 0.65483 0.83758 0.0
H159 H 0.17397 0.76883 0.87122 0.0
H160 H 0.26226 0.84349 0.80362 0.0
H161 H 0.31442 0.79329 0.75167 0.0
H162 H 0.31482 0.76199 0.91199 0.0
H163 H 0.22567 0.69548 0.92063 0.0
H164 H 0.3097 0.61208 0.78129 0.0
H165 H 0.24878 0.7058 0.77812 0.0
H166 H 0.28008 0.59079 0.74933 0.0
H167 H 0.22045 0.6829 0.74606 0.0
H168 H 0.33686 0.65237 0.87728 0.0
H169 H 0.23721 0.61405 0.85786 0.0
H170 H 0.32607 0.62856 0.91292 0.0
H171 H 0.22827 0.59072 0.89379 0.0
H172 H 0.43439 0.62851 0.85726 0.0
H173 H 0.40608 0.5918 0.79513 0.0
H174 H 0.17971 0.58543 0.778 0.0
H175 H 0.26016 0.53202 0.81248 0.0
Li176 Li 0.8495 0.75642 0.32431 0.0
Li177 Li 0.81007 0.76233 0.35352 0.0
Li178 Li 0.78958 0.77342 0.31611 0.0
Li179 Li 0.83092 0.81278 0.33506 0.0
C180 C 0.81508 0.6968 0.32179 0.0
N181 N 0.83351 0.632 0.30664 0.0
C182 C 0.83596 0.67481 0.33385 0.0
C183 C 0.8034 0.68578 0.30207 0.0
C184 C 0.8451 0.64219 0.32588 0.0
C185 C 0.81299 0.6529 0.2947 0.0
C186 C 0.87268 0.7673 0.36971 0.0
C187 C 0.88221 0.77217 0.40715 0.0
N188 N 0.90126 0.74243 0.40669 0.0
C189 C 0.89224 0.73665 0.36968 0.0
C190 C 0.86757 0.78515 0.38865 0.0
C191 C 0.90655 0.72459 0.3885 0.0
C192 C 0.92047 0.75416 0.3197 0.0
N193 N 0.89181 0.73714 0.31274 0.0
C194 C 0.92597 0.70626 0.28739 0.0
C195 C 0.894 0.71345 0.29686 0.0
C196 C 0.9559 0.72374 0.29427 0.0
C197 C 0.95278 0.74764 0.31085 0.0
H198 H 0.91805 0.7741 0.3316 0.0
H199 H 0.8709 0.70137 0.29079 0.0
C200 C 0.76987 0.76662 0.39015 0.0
N201 N 0.79487 0.7471 0.38082 0.0
C202 C 0.76263 0.76265 0.4115 0.0
C203 C 0.80482 0.71635 0.41296 0.0
C204 C 0.81104 0.72106 0.39148 0.0
C205 C 0.78122 0.73821 0.4234 0.0
H206 H 0.75667 0.78655 0.38128 0.0
H207 H 0.83028 0.70531 0.38368 0.0
C208 C 0.8509 0.79143 0.28811 0.0
N209 N 0.89057 0.78212 0.25244 0.0
C210 C 0.88261 0.80856 0.2861 0.0
C211 C 0.83916 0.76987 0.27191 0.0
C212 C 0.90236 0.8034 0.26797 0.0
C213 C 0.85964 0.76547 0.254 0.0
C214 C 0.77247 0.83532 0.34731 0.0
C215 C 0.75265 0.85491 0.33325 0.0
C216 C 0.78347 0.85038 0.36618 0.0
C217 C 0.74434 0.88933 0.33825 0.0
C218 C 0.77467 0.88488 0.37061 0.0
N219 N 0.75546 0.90348 0.35665 0.0
C220 C 0.72706 0.74608 0.29955 0.0
C221 C 0.74539 0.79936 0.28439 0.0
C222 C 0.69654 0.74685 0.28775 0.0
N223 N 0.75058 0.77223 0.29776 0.0
C224 C 0.71483 0.80161 0.2727 0.0
C225 C 0.68996 0.77523 0.27447 0.0
H226 H 0.73164 0.72506 0.31052 0.0
H227 H 0.76447 0.81988 0.28339 0.0
C228 C 0.86702 0.86855 0.35332 0.0
N229 N 0.84787 0.85897 0.33638 0.0
C230 C 0.88643 0.89905 0.35282 0.0
C231 C 0.86506 0.90997 0.31768 0.0
C232 C 0.84571 0.87935 0.31897 0.0
C233 C 0.88658 0.91952 0.33454 0.0
H234 H 0.86888 0.85153 0.36673 0.0
H235 H 0.83065 0.87074 0.3056 0.0
O236 O 0.80567 0.72871 0.32939 0.0
O237 O 0.85841 0.77961 0.35141 0.0
O238 O 0.83174 0.7952 0.30602 0.0
O239 O 0.78159 0.80181 0.34249 0.0
H240 H 0.84507 0.68287 0.34916 0.0
H241 H 0.78735 0.7025 0.29249 0.0
H242 H 0.86136 0.62497 0.33501 0.0
H243 H 0.80424 0.64406 0.27944 0.0
H244 H 0.87819 0.78561 0.42191 0.0
H245 H 0.896 0.72195 0.35539 0.0
H246 H 0.85183 0.80835 0.38923 0.0
H247 H 0.92166 0.70089 0.38866 0.0
H248 H 0.92712 0.68777 0.27456 0.0
H249 H 0.97483 0.76249 0.3163 0.0
H250 H 0.7442 0.78007 0.41884 0.0
H251 H 0.81928 0.69674 0.42147 0.0
H252 H 0.8921 0.82522 0.29857 0.0
H253 H 0.8147 0.75638 0.27327 0.0
H254 H 0.92712 0.8162 0.26628 0.0
H255 H 0.85101 0.74867 0.24139 0.0
H256 H 0.74375 0.84372 0.31864 0.0
H257 H 0.79903 0.83572 0.37719 0.0
H258 H 0.72908 0.90479 0.32748 0.0
H259 H 0.78321 0.89688 0.38509 0.0
H260 H 0.67774 0.72616 0.28951 0.0
H261 H 0.71048 0.82383 0.26256 0.0
H262 H 0.90304 0.90517 0.36603 0.0
H263 H 0.86438 0.92518 0.30335 0.0
Li264 Li 0.72801 0.33964 0.82033 0.0
Li265 Li 0.66937 0.32227 0.83017 0.0
Li266 Li 0.71889 0.30596 0.85273 0.0
Li267 Li 0.70906 0.27773 0.81824 0.0
C268 C 0.71036 0.38517 0.85081 0.0
N269 N 0.72983 0.4528 0.8595 0.0
C270 C 0.68868 0.41282 0.8453 0.0
C271 C 0.74173 0.39184 0.86094 0.0
C272 C 0.69906 0.44685 0.84976 0.0
C273 C 0.75116 0.42624 0.86516 0.0
C274 C 0.69071 0.31004 0.78188 0.0
C275 C 0.66267 0.28253 0.75236 0.0
N276 N 0.68997 0.29124 0.73995 0.0
C277 C 0.71843 0.31887 0.76883 0.0
C278 C 0.6625 0.29191 0.77359 0.0
C279 C 0.71758 0.30909 0.74767 0.0
C280 C 0.78214 0.38957 0.80824 0.0
N281 N 0.74841 0.3795 0.80761 0.0
C282 C 0.73193 0.43287 0.79124 0.0
C283 C 0.72364 0.40008 0.79896 0.0
C284 C 0.76622 0.44448 0.79206 0.0
C285 C 0.79178 0.42222 0.80024 0.0
H286 H 0.80129 0.37281 0.8154 0.0
H287 H 0.69702 0.39143 0.79882 0.0
C288 C 0.6079 0.34945 0.84822 0.0
N289 N 0.62505 0.34289 0.83 0.0
C290 C 0.58069 0.37339 0.84851 0.0
C291 C 0.5891 0.38265 0.81126 0.0
C292 C 0.61566 0.35818 0.81162 0.0
C293 C 0.57186 0.39145 0.83 0.0
H294 H 0.61679 0.33794 0.86276 0.0
H295 H 0.6306 0.35348 0.79754 0.0
C296 C 0.78268 0.28401 0.83845 0.0
N297 N 0.84133 0.25658 0.85689 0.0
C298 C 0.78834 0.24809 0.83824 0.0
C299 C 0.80692 0.30603 0.84787 0.0
C300 C 0.81816 0.23472 0.84768 0.0
C301 C 0.83637 0.29163 0.85718 0.0
C302 C 0.64665 0.26721 0.84954 0.0
C303 C 0.63756 0.26662 0.87081 0.0
C304 C 0.62196 0.25896 0.83428 0.0
C305 C 0.60367 0.25814 0.87645 0.0
C306 C 0.58835 0.25065 0.84055 0.0
N307 N 0.57996 0.25044 0.86133 0.0
C308 C 0.70949 0.32094 0.89448 0.0
C309 C 0.75286 0.27801 0.89025 0.0
C310 C 0.71134 0.31797 0.91629 0.0
N311 N 0.72983 0.30098 0.88192 0.0
C312 C 0.75602 0.2746 0.9121 0.0
C313 C 0.73474 0.29444 0.92551 0.0
H314 H 0.69072 0.33831 0.8875 0.0
H315 H 0.76818 0.2617 0.88007 0.0
C316 C 0.72913 0.23147 0.78481 0.0
N317 N 0.71116 0.23461 0.80309 0.0
C318 C 0.7277 0.20055 0.77322 0.0
C319 C 0.69114 0.1759 0.80014 0.0
C320 C 0.69286 0.20742 0.81102 0.0
C321 C 0.7082 0.1722 0.78073 0.0
H322 H 0.74414 0.25316 0.77903 0.0
H323 H 0.67938 0.21022 0.8258 0.0
O324 O 0.70118 0.35175 0.84599 0.0
O325 O 0.69102 0.31933 0.80264 0.0
O326 O 0.75391 0.29761 0.82907 0.0
O327 O 0.67957 0.27581 0.84366 0.0
H328 H 0.66432 0.40806 0.83742 0.0
H329 H 0.75869 0.37067 0.86538 0.0
H330 H 0.68269 0.46854 0.84543 0.0
H331 H 0.77546 0.43182 0.87289 0.0
H332 H 0.64108 0.26835 0.74575 0.0
H333 H 0.74054 0.33277 0.77499 0.0
H334 H 0.64074 0.28511 0.78346 0.0
H335 H 0.73892 0.31559 0.7374 0.0
H336 H 0.71161 0.44919 0.78486 0.0
H337 H 0.81852 0.43048 0.80109 0.0
H338 H 0.56788 0.37883 0.86329 0.0
H339 H 0.58398 0.39622 0.79667 0.0
H340 H 0.76986 0.23073 0.83092 0.0
H341 H 0.803 0.33391 0.84802 0.0
H342 H 0.82287 0.20696 0.8477 0.0
H343 H 0.8553 0.30833 0.86461 0.0
H344 H 0.65643 0.27265 0.88282 0.0
H345 H 0.62868 0.25918 0.81777 0.0
H346 H 0.59621 0.25769 0.89284 0.0
H347 H 0.56892 0.24439 0.8289 0.0
H348 H 0.69359 0.33317 0.92572 0.0
H349 H 0.77467 0.25631 0.91836 0.0
H350 H 0.74118 0.19925 0.75832 0.0
H351 H 0.67663 0.15464 0.80698 0.0
Li352 Li 0.66787 0.32536 0.17643 0.0
Li353 Li 0.71247 0.28749 0.18818 0.0
Li354 Li 0.68601 0.27966 0.15281 0.0
Li355 Li 0.65264 0.26776 0.18561 0.0
C356 C 0.72576 0.35155 0.15993 0.0
N357 N 0.74905 0.41841 0.15276 0.0
C358 C 0.73348 0.37339 0.17686 0.0
C359 C 0.73005 0.36357 0.13935 0.0
C360 C 0.74515 0.40717 0.17291 0.0
C361 C 0.74183 0.3975 0.13606 0.0
C362 C 0.67457 0.29081 0.22439 0.0
C363 C 0.68586 0.24313 0.2481 0.0
N364 N 0.67929 0.26442 0.26472 0.0
C365 C 0.6679 0.31219 0.24171 0.0
C366 C 0.68362 0.25596 0.2276 0.0
C367 C 0.67044 0.29837 0.26197 0.0
C368 C 0.62523 0.3738 0.1947 0.0
N369 N 0.64707 0.37038 0.17809 0.0
C370 C 0.62329 0.42111 0.1619 0.0
C371 C 0.64749 0.39411 0.16222 0.0
C372 C 0.59874 0.42367 0.17812 0.0
C373 C 0.60083 0.40046 0.1951 0.0
H374 H 0.62499 0.3543 0.20692 0.0
H375 H 0.66456 0.3906 0.14896 0.0
C376 C 0.78052 0.26398 0.19543 0.0
N377 N 0.7554 0.28555 0.20273 0.0
C378 C 0.81351 0.26455 0.20442 0.0
C379 C 0.79386 0.30894 0.22857 0.0
C380 C 0.76133 0.30765 0.21905 0.0
C381 C 0.82064 0.28756 0.22108 0.0
H382 H 0.77512 0.24691 0.18229 0.0
H383 H 0.74108 0.32499 0.22431 0.0
C384 C 0.61706 0.31436 0.14873 0.0
N385 N 0.57425 0.35871 0.12645 0.0
C386 C 0.58275 0.31926 0.15502 0.0
C387 C 0.6295 0.33194 0.13102 0.0
C388 C 0.56158 0.34189 0.14361 0.0
C389 C 0.60745 0.35417 0.11995 0.0
C390 C 0.687 0.21072 0.16719 0.0
C391 C 0.65692 0.20615 0.1553 0.0
C392 C 0.70873 0.18233 0.17095 0.0
C393 C 0.6491 0.17319 0.14734 0.0
C394 C 0.7 0.14976 0.16272 0.0
N395 N 0.67062 0.14591 0.15118 0.0
C396 C 0.72763 0.27018 0.11684 0.0
C397 C 0.66766 0.2615 0.11102 0.0
C398 C 0.73421 0.26794 0.09525 0.0
N399 N 0.69467 0.26787 0.12417 0.0
C400 C 0.67297 0.25978 0.08934 0.0
C401 C 0.70647 0.26387 0.08123 0.0
H402 H 0.74856 0.2755 0.12767 0.0
H403 H 0.64171 0.25973 0.11726 0.0
C404 C 0.59159 0.26968 0.20487 0.0
N405 N 0.61429 0.24498 0.19838 0.0
C406 C 0.55966 0.26038 0.21311 0.0
C407 C 0.57552 0.19984 0.20926 0.0
C408 C 0.60736 0.21044 0.20075 0.0
C409 C 0.55099 0.22514 0.21503 0.0
H410 H 0.5981 0.29686 0.20312 0.0
H411 H 0.62607 0.19123 0.19576 0.0
O412 O 0.7142 0.31848 0.16346 0.0
O413 O 0.67206 0.3042 0.20448 0.0
O414 O 0.63849 0.29285 0.15996 0.0
O415 O 0.69545 0.2427 0.17514 0.0
H416 H 0.73009 0.36449 0.19286 0.0
H417 H 0.72415 0.34694 0.12608 0.0
H418 H 0.75106 0.42445 0.18585 0.0
H419 H 0.74518 0.40722 0.12022 0.0
H420 H 0.69282 0.21623 0.25081 0.0
H421 H 0.66093 0.33923 0.23951 0.0
H422 H 0.68882 0.23889 0.21449 0.0
H423 H 0.66538 0.31465 0.27551 0.0
H424 H 0.62267 0.4387 0.1486 0.0
H425 H 0.5822 0.40123 0.2078 0.0
H426 H 0.83329 0.24734 0.1983 0.0
H427 H 0.79831 0.32737 0.24118 0.0
H428 H 0.57248 0.30581 0.16855 0.0
H429 H 0.65616 0.32919 0.12618 0.0
H430 H 0.53505 0.34606 0.14838 0.0
H431 H 0.61686 0.3681 0.10633 0.0
H432 H 0.63959 0.22765 0.15235 0.0
H433 H 0.73211 0.18545 0.18013 0.0
H434 H 0.62588 0.16928 0.13814 0.0
H435 H 0.71658 0.12756 0.16551 0.0
H436 H 0.76035 0.27144 0.08951 0.0
H437 H 0.651 0.25646 0.07895 0.0
H438 H 0.54172 0.28064 0.21777 0.0
H439 H 0.5697 0.17237 0.21069 0.0
Li440 Li 0.22157 0.21702 0.68431 0.0
Li441 Li 0.22838 0.18788 0.64916 0.0
Li442 Li 0.18717 0.16697 0.67476 0.0
Li443 Li 0.2475 0.15751 0.68127 0.0
C444 C 0.15382 0.21687 0.65617 0.0
N445 N 0.08402 0.2217 0.64728 0.0
C446 C 0.14146 0.20789 0.63624 0.0
C447 C 0.13074 0.22865 0.67151 0.0
C448 C 0.10607 0.21042 0.63207 0.0
C449 C 0.09553 0.23081 0.66673 0.0
C450 C 0.29829 0.19694 0.66147 0.0
C451 C 0.33691 0.16554 0.6385 0.0
N452 N 0.36366 0.1856 0.64531 0.0
C453 C 0.32612 0.21725 0.66823 0.0
C454 C 0.30367 0.17088 0.64647 0.0
C455 C 0.35899 0.21111 0.65987 0.0
C456 C 0.23936 0.26537 0.7166 0.0
N457 N 0.22223 0.26105 0.69811 0.0
C458 C 0.20119 0.31953 0.6995 0.0
C459 C 0.20363 0.28736 0.68938 0.0
C460 C 0.21812 0.32477 0.71881 0.0
C461 C 0.23764 0.29718 0.72727 0.0
H462 H 0.25387 0.24392 0.72321 0.0
H463 H 0.19016 0.28316 0.67469 0.0
C464 C 0.22069 0.17101 0.6069 0.0
N465 N 0.23514 0.19497 0.6199 0.0
C466 C 0.2219 0.17553 0.58516 0.0
C467 C 0.25346 0.22912 0.59052 0.0
C468 C 0.25158 0.22355 0.61225 0.0
C469 C 0.23819 0.20504 0.57665 0.0
H470 H 0.20719 0.14891 0.61347 0.0
H471 H 0.26269 0.24227 0.62302 0.0
C472 C 0.19264 0.17308 0.71925 0.0
N473 N 0.15274 0.1692 0.75529 0.0
C474 C 0.19152 0.14228 0.73099 0.0
C475 C 0.17356 0.20193 0.72599 0.0
C476 C 0.17115 0.14083 0.74911 0.0
C477 C 0.15355 0.19945 0.74422 0.0
C478 C 0.21671 0.10421 0.65874 0.0
C479 C 0.2053 0.08862 0.67734 0.0
C480 C 0.22588 0.08334 0.64161 0.0
C481 C 0.20326 0.05238 0.67852 0.0
C482 C 0.22346 0.04718 0.6434 0.0
N483 N 0.21232 0.03258 0.66167 0.0
C484 C 0.13469 0.12702 0.65744 0.0
C485 C 0.12315 0.14068 0.69306 0.0
C486 C 0.10691 0.10395 0.6569 0.0
N487 N 0.14308 0.14386 0.67556 0.0
C488 C 0.09527 0.11762 0.69329 0.0
C489 C 0.08752 0.09802 0.67523 0.0
H490 H 0.15061 0.13037 0.64361 0.0
H491 H 0.12937 0.15486 0.70713 0.0
C492 C 0.27756 0.11886 0.71407 0.0
N493 N 0.27795 0.1231 0.69286 0.0
C494 C 0.28807 0.08734 0.72298 0.0
C495 C 0.30304 0.06674 0.68826 0.0
C496 C 0.29205 0.09858 0.68003 0.0
C497 C 0.29939 0.06008 0.7099 0.0
H498 H 0.26634 0.1388 0.72393 0.0
H499 H 0.29193 0.10234 0.66319 0.0
O500 O 0.18826 0.21369 0.66072 0.0
O501 O 0.26599 0.2027 0.66954 0.0
O502 O 0.21284 0.17516 0.70158 0.0
O503 O 0.2198 0.13965 0.6574 0.0
H504 H 0.15893 0.19876 0.62417 0.0
H505 H 0.13985 0.23586 0.68698 0.0
H506 H 0.09612 0.20335 0.61675 0.0
H507 H 0.07736 0.2397 0.6785 0.0
H508 H 0.34145 0.14543 0.62691 0.0
H509 H 0.32234 0.23754 0.67983 0.0
H510 H 0.28249 0.15485 0.64106 0.0
H511 H 0.38078 0.22662 0.66497 0.0
H512 H 0.1855 0.33978 0.69248 0.0
H513 H 0.25152 0.30012 0.74196 0.0
H514 H 0.20912 0.15664 0.57519 0.0
H515 H 0.26653 0.25207 0.58466 0.0
H516 H 0.20605 0.1196 0.72618 0.0
H517 H 0.17391 0.22596 0.71725 0.0
H518 H 0.16998 0.11712 0.75826 0.0
H519 H 0.1386 0.22157 0.74954 0.0
H520 H 0.19826 0.10434 0.69073 0.0
H521 H 0.23512 0.09494 0.62716 0.0
H522 H 0.19457 0.04001 0.69286 0.0
H523 H 0.23057 0.03072 0.63029 0.0
H524 H 0.10131 0.09022 0.64242 0.0
H525 H 0.08109 0.11402 0.70781 0.0
H526 H 0.28469 0.08355 0.73972 0.0
H527 H 0.31235 0.04684 0.67761 0.0
Li528 Li 0.2905 0.72434 0.1836 0.0
Li529 Li 0.33194 0.68343 0.16595 0.0
Li530 Li 0.35058 0.74029 0.17548 0.0
Li531 Li 0.31157 0.73271 0.1463 0.0
C532 C 0.35173 0.70805 0.21237 0.0
N533 N 0.39205 0.72035 0.24746 0.0
C534 C 0.38194 0.68882 0.21566 0.0
C535 C 0.34182 0.73328 0.22702 0.0
C536 C 0.40204 0.69551 0.23347 0.0
C537 C 0.3626 0.73915 0.24465 0.0
C538 C 0.27294 0.6601 0.15588 0.0
C539 C 0.2729 0.60619 0.13643 0.0
N540 N 0.25474 0.59083 0.15221 0.0
C541 C 0.25427 0.64379 0.1719 0.0
C542 C 0.28232 0.64119 0.13798 0.0
C543 C 0.2453 0.60875 0.16975 0.0
C544 C 0.22331 0.74593 0.19363 0.0
N545 N 0.25063 0.72744 0.20108 0.0
C546 C 0.2173 0.70801 0.23051 0.0
C547 C 0.2484 0.70897 0.21927 0.0
C548 C 0.18822 0.72611 0.2229 0.0
C549 C 0.19177 0.74573 0.20435 0.0
H550 H 0.2258 0.76015 0.17902 0.0
H551 H 0.27038 0.69397 0.22462 0.0
C552 C 0.36987 0.62857 0.14877 0.0
N553 N 0.34954 0.63737 0.16534 0.0
C554 C 0.39075 0.5991 0.1497 0.0
C555 C 0.36808 0.58717 0.18439 0.0
C556 C 0.3474 0.6169 0.18271 0.0
C557 C 0.39104 0.57869 0.16802 0.0
H558 H 0.37169 0.64565 0.1354 0.0
H559 H 0.33142 0.62492 0.19581 0.0
C560 C 0.31556 0.80015 0.17697 0.0
N561 N 0.33148 0.86576 0.19187 0.0
C562 C 0.33703 0.82213 0.1653 0.0
C563 C 0.302 0.81158 0.19614 0.0
C564 C 0.34483 0.85519 0.17313 0.0
C565 C 0.3104 0.84484 0.20342 0.0
C566 C 0.37367 0.72679 0.13046 0.0
C567 C 0.39401 0.75688 0.12997 0.0
C568 C 0.36739 0.70859 0.11177 0.0
C569 C 0.40787 0.76811 0.11085 0.0
C570 C 0.38164 0.72074 0.09296 0.0
N571 N 0.40144 0.74998 0.0929 0.0
C572 C 0.42017 0.73816 0.18131 0.0
C573 C 0.39797 0.7873 0.19923 0.0
C574 C 0.4531 0.74419 0.18934 0.0
N575 N 0.39331 0.75946 0.18628 0.0
C576 C 0.43088 0.79466 0.20745 0.0
C577 C 0.45907 0.77275 0.20265 0.0
H578 H 0.4157 0.7154 0.17169 0.0
H579 H 0.37619 0.80318 0.20375 0.0
C580 C 0.27404 0.72608 0.10871 0.0
N581 N 0.29713 0.74694 0.11875 0.0
C582 C 0.26703 0.73084 0.08738 0.0
C583 C 0.30603 0.77996 0.08734 0.0
C584 C 0.31206 0.7744 0.10876 0.0
C585 C 0.28399 0.75738 0.07625 0.0
H586 H 0.2621 0.70475 0.11703 0.0
H587 H 0.33011 0.79083 0.11709 0.0
O588 O 0.33234 0.70276 0.19467 0.0
O589 O 0.28276 0.69414 0.15795 0.0
O590 O 0.30719 0.76792 0.16945 0.0
O591 O 0.3596 0.71545 0.14902 0.0
H592 H 0.39009 0.66936 0.20439 0.0
H593 H 0.31854 0.7484 0.22467 0.0
H594 H 0.42567 0.68107 0.23612 0.0
H595 H 0.35538 0.75876 0.25604 0.0
H596 H 0.28016 0.5912 0.12271 0.0
H597 H 0.24692 0.65795 0.1859 0.0
H598 H 0.29721 0.65326 0.12555 0.0
H599 H 0.2309 0.59578 0.18205 0.0
H600 H 0.21573 0.69221 0.24458 0.0
H601 H 0.17031 0.76053 0.19805 0.0
H602 H 0.40837 0.59397 0.13683 0.0
H603 H 0.36731 0.57196 0.19872 0.0
H604 H 0.34772 0.81368 0.15045 0.0
H605 H 0.28511 0.795 0.20527 0.0
H606 H 0.36154 0.87242 0.16432 0.0
H607 H 0.30016 0.85402 0.21825 0.0
H608 H 0.39879 0.77172 0.14411 0.0
H609 H 0.35095 0.68584 0.11164 0.0
H610 H 0.42359 0.79138 0.11027 0.0
H611 H 0.37671 0.70707 0.07839 0.0
H612 H 0.47334 0.7257 0.18568 0.0
H613 H 0.43402 0.81701 0.21764 0.0
H614 H 0.24998 0.71271 0.07947 0.0
H615 H 0.31928 0.80103 0.07941 0.0
Li616 Li 0.75442 0.8431 0.68007 0.0
Li617 Li 0.81625 0.83203 0.67732 0.0
Li618 Li 0.77871 0.80406 0.65171 0.0
Li619 Li 0.78109 0.78373 0.68723 0.0
C620 C 0.80559 0.87361 0.64325 0.0
N621 N 0.84903 0.91202 0.61769 0.0
C622 C 0.80299 0.90991 0.64269 0.0
C623 C 0.83059 0.85694 0.63096 0.0
C624 C 0.82511 0.92884 0.62963 0.0
C625 C 0.8522 0.87678 0.61809 0.0
C626 C 0.80845 0.84262 0.71769 0.0
C627 C 0.86047 0.84002 0.73867 0.0
N628 N 0.85322 0.87203 0.74665 0.0
C629 C 0.80153 0.8755 0.72617 0.0
C630 C 0.83816 0.82475 0.72405 0.0
C631 C 0.82445 0.88991 0.74077 0.0
C632 C 0.7135 0.8819 0.70863 0.0
N633 N 0.72379 0.87956 0.68823 0.0
C634 C 0.70974 0.93926 0.68231 0.0
C635 C 0.72022 0.90678 0.67478 0.0
C636 C 0.70262 0.94351 0.70384 0.0
C637 C 0.70267 0.9139 0.71682 0.0
H638 H 0.71712 0.85993 0.71904 0.0
H639 H 0.7281 0.90396 0.65857 0.0
C640 C 0.88967 0.84804 0.67562 0.0
N641 N 0.85717 0.85929 0.68011 0.0
C642 C 0.91751 0.87128 0.67645 0.0
C643 C 0.87762 0.91702 0.68614 0.0
C644 C 0.85081 0.89303 0.68519 0.0
C645 C 0.91156 0.90637 0.68171 0.0
H646 H 0.89389 0.82139 0.67085 0.0
H647 H 0.82452 0.90157 0.68783 0.0
C648 C 0.7123 0.78858 0.65681 0.0
N649 N 0.66086 0.77493 0.62777 0.0
C650 C 0.712 0.75701 0.64587 0.0
C651 C 0.68631 0.81311 0.65308 0.0
C652 C 0.68582 0.75064 0.63121 0.0
C653 C 0.66055 0.80573 0.63832 0.0
C654 C 0.83467 0.75272 0.67032 0.0
C655 C 0.8214 0.72233 0.66128 0.0
C656 C 0.86324 0.75055 0.68373 0.0
C657 C 0.83662 0.6903 0.66604 0.0
C658 C 0.87772 0.71804 0.68813 0.0
N659 N 0.8642 0.68883 0.67928 0.0
C660 C 0.79906 0.77013 0.61433 0.0
C661 C 0.75053 0.80694 0.6098 0.0
C662 C 0.79884 0.76149 0.59305 0.0
N663 N 0.77493 0.79214 0.62238 0.0
C664 C 0.74939 0.79908 0.5883 0.0
C665 C 0.77394 0.77617 0.57963 0.0
H666 H 0.81922 0.75995 0.6243 0.0
H667 H 0.73228 0.82526 0.6164 0.0
C668 C 0.78942 0.74208 0.72444 0.0
N669 N 0.77735 0.74248 0.70434 0.0
C670 C 0.79007 0.71104 0.73592 0.0
C671 C 0.76455 0.68163 0.70614 0.0
C672 C 0.76388 0.71331 0.6954 0.0
C673 C 0.77827 0.68015 0.72655 0.0
H674 H 0.79899 0.76566 0.73154 0.0
H675 H 0.75369 0.71435 0.67962 0.0
O676 O 0.78498 0.85461 0.6565 0.0
O677 O 0.78665 0.82827 0.70303 0.0
O678 O 0.7378 0.79546 0.67115 0.0
O679 O 0.81983 0.78435 0.66602 0.0
H680 H 0.78458 0.92348 0.6525 0.0
H681 H 0.83384 0.82904 0.63169 0.0
H682 H 0.82341 0.95693 0.62909 0.0
H683 H 0.87169 0.86418 0.60855 0.0
H684 H 0.88359 0.82644 0.74362 0.0
H685 H 0.77917 0.89019 0.72126 0.0
H686 H 0.8441 0.79945 0.71765 0.0
H687 H 0.81948 0.91542 0.74731 0.0
H688 H 0.70932 0.96128 0.67168 0.0
H689 H 0.69752 0.91603 0.73352 0.0
H690 H 0.94327 0.86197 0.67286 0.0
H691 H 0.87153 0.94393 0.6896 0.0
H692 H 0.73211 0.7379 0.64834 0.0
H693 H 0.68605 0.83762 0.66144 0.0
H694 H 0.68545 0.72646 0.6225 0.0
H695 H 0.64033 0.82452 0.63524 0.0
H696 H 0.79902 0.72329 0.65109 0.0
H697 H 0.87424 0.77366 0.6907 0.0
H698 H 0.82633 0.6666 0.65932 0.0
H699 H 0.89974 0.71604 0.69856 0.0
H700 H 0.8182 0.74359 0.58718 0.0
H701 H 0.73012 0.81156 0.57852 0.0
H702 H 0.80057 0.71101 0.75171 0.0
H703 H 0.75453 0.65851 0.69853 0.0
H704 H 0.06902 0.03278 0.29786 0.0
H705 H 0.90414 0.9696 0.36336 0.0
H706 H 0.03692 0.07969 0.35642 0.0
H707 H 0.92829 0.93303 0.30089 0.0
H708 H 0.95237 0.0106 0.36106 0.0
H709 H 0.01769 0.99576 0.29878 0.0
C710 C 0.0512 0.03532 0.31091 0.0
C711 C 0.05745 0.05929 0.32714 0.0
C712 C 0.94691 0.99386 0.34777 0.0
C713 C 0.99866 0.0169 0.32833 0.0
C714 C 0.91938 0.9705 0.34908 0.0
C715 C 0.91223 0.94789 0.3323 0.0
C716 C 0.96764 0.99437 0.32963 0.0
C717 C 0.93264 0.95025 0.3141 0.0
C718 C 0.0219 0.01416 0.31143 0.0
C719 C 0.03359 0.06114 0.34377 0.0
N720 N 0.95961 0.97284 0.31333 0.0
N721 N 0.0053 0.04022 0.34394 0.0
H722 H 0.44267 0.56892 0.86181 0.0
H723 H 0.52716 0.41384 0.79903 0.0
H724 H 0.46305 0.57555 0.79506 0.0
H725 H 0.5616 0.43883 0.86196 0.0
H726 H 0.49374 0.46773 0.79856 0.0
H727 H 0.47856 0.51669 0.86343 0.0
C728 C 0.45503 0.55992 0.84754 0.0
C729 C 0.44943 0.57682 0.8282 0.0
C730 C 0.50859 0.4612 0.81246 0.0
C731 C 0.4893 0.51611 0.82997 0.0
C732 C 0.52775 0.43047 0.81277 0.0
C733 C 0.54769 0.42168 0.83049 0.0
C734 C 0.50868 0.48302 0.83012 0.0
C735 C 0.54639 0.44402 0.84803 0.0
C736 C 0.47522 0.52984 0.8485 0.0
C737 C 0.46572 0.56311 0.81023 0.0
N738 N 0.52718 0.47364 0.84742 0.0
N739 N 0.4845 0.53332 0.81151 0.0
H740 H 0.55912 0.43659 0.14343 0.0
H741 H 0.42958 0.56527 0.20322 0.0
H742 H 0.5694 0.46401 0.20897 0.0
H743 H 0.41532 0.53165 0.139 0.0
H744 H 0.47975 0.52703 0.20601 0.0
H745 H 0.50671 0.47189 0.14145 0.0
C746 C 0.55063 0.4505 0.15733 0.0
C747 C 0.5688 0.44759 0.17636 0.0
C748 C 0.46548 0.52779 0.19136 0.0
C749 C 0.50833 0.4874 0.17433 0.0
C750 C 0.43655 0.54933 0.18982 0.0
C751 C 0.4182 0.55177 0.17081 0.0
C752 C 0.4763 0.50861 0.17374 0.0
C753 C 0.42895 0.53097 0.15386 0.0
C754 C 0.52046 0.4703 0.15626 0.0
C755 C 0.5561 0.46546 0.19401 0.0
N756 N 0.45742 0.51046 0.15568 0.0
N757 N 0.52666 0.48462 0.19256 0.0
H758 H 0.02529 0.09775 0.69623 0.0
H759 H 0.9662 0.91153 0.65423 0.0
H760 H 0.08943 0.03411 0.656 0.0
H761 H 0.92137 0.96101 0.7088 0.0
H762 H 0.00953 0.95779 0.65268 0.0
H763 H 0.98394 0.0499 0.69866 0.0
C764 C 0.03076 0.07376 0.68793 0.0
C765 C 0.06097 0.07007 0.67589 0.0
C766 C 0.99029 0.95836 0.66505 0.0
C767 C 0.01348 0.01532 0.67842 0.0
C768 C 0.9657 0.93181 0.66605 0.0
C769 C 0.93992 0.93243 0.6816 0.0
C770 C 0.98891 0.98586 0.67958 0.0
C771 C 0.94029 0.95978 0.69628 0.0
C772 C 0.00709 0.04647 0.6893 0.0
C773 C 0.06626 0.03849 0.66517 0.0
N774 N 0.9642 0.98551 0.69482 0.0
N775 N 0.04274 0.01237 0.66667 0.0
H776 H 0.20838 0.17394 0.44383 0.0
H777 H 0.22904 0.26679 0.55542 0.0
H778 H 0.2112 0.28557 0.45082 0.0
H779 H 0.24596 0.15704 0.54505 0.0
H780 H 0.22314 0.27492 0.51741 0.0
H781 H 0.22176 0.16771 0.48113 0.0
C782 C 0.2117 0.19717 0.45329 0.0
C783 C 0.20828 0.23033 0.4443 0.0
C784 C 0.22841 0.24912 0.52347 0.0
C785 C 0.22388 0.22342 0.48707 0.0
C786 C 0.232 0.24446 0.54517 0.0
C787 C 0.23771 0.21109 0.55353 0.0
C788 C 0.23035 0.22018 0.51002 0.0
C789 C 0.24085 0.18312 0.53942 0.0
C790 C 0.2196 0.19361 0.47455 0.0
C791 C 0.2136 0.25954 0.45717 0.0
N792 N 0.23687 0.18826 0.51844 0.0
N793 N 0.22085 0.25542 0.47798 0.0
H794 H 0.21516 0.73937 0.94661 0.0
H795 H 0.33572 0.76791 0.04767 0.0
H796 H 0.32683 0.73767 0.94517 0.0
H797 H 0.2257 0.75022 0.05179 0.0
H798 H 0.33168 0.7649 0.00941 0.0
H799 H 0.21749 0.74986 0.98457 0.0
C800 C 0.24016 0.74117 0.95422 0.0
C801 C 0.27084 0.73763 0.94256 0.0
C802 C 0.30835 0.76191 0.01865 0.0
C803 C 0.27364 0.75014 0.98599 0.0
C804 C 0.31059 0.76398 0.04052 0.0
C805 C 0.281 0.75928 0.05298 0.0
C806 C 0.27629 0.75516 0.00909 0.0
C807 C 0.24923 0.75362 0.0428 0.0
C808 C 0.24145 0.74736 0.97588 0.0
C809 C 0.30246 0.7408 0.95332 0.0
N810 N 0.24772 0.7516 0.02145 0.0
N811 N 0.30301 0.74681 0.97436 0.0
H812 H 0.83059 0.76861 0.55411 0.0
H813 H 0.72275 0.74409 0.44785 0.0
H814 H 0.71896 0.76643 0.5526 0.0
H815 H 0.83366 0.73356 0.45208 0.0
H816 H 0.72021 0.75139 0.4861 0.0
H817 H 0.83166 0.75524 0.51671 0.0
C818 C 0.80624 0.765 0.54598 0.0
C819 C 0.77461 0.76845 0.55666 0.0
C820 C 0.74505 0.74714 0.47867 0.0
C821 C 0.7757 0.75364 0.51347 0.0
C822 C 0.74653 0.74302 0.45684 0.0
C823 C 0.77848 0.73822 0.44672 0.0
C824 C 0.77578 0.74678 0.49046 0.0
C825 C 0.80842 0.73675 0.45919 0.0
C826 C 0.80689 0.75751 0.52454 0.0
C827 C 0.74395 0.76435 0.54503 0.0
N828 N 0.80635 0.74129 0.48034 0.0
N829 N 0.74526 0.75721 0.52407 0.0
H830 H 0.7475 0.23446 0.94829 0.0
H831 H 0.67453 0.30917 0.05493 0.0
H832 H 0.72332 0.34352 0.95634 0.0
H833 H 0.75098 0.22747 0.05568 0.0
H834 H 0.68457 0.317 0.01721 0.0
H835 H 0.74332 0.22678 0.98642 0.0
C836 C 0.74176 0.25692 0.95796 0.0
C837 C 0.73538 0.28969 0.94883 0.0
C838 C 0.69916 0.29736 0.02563 0.0
C839 C 0.72948 0.28055 0.99244 0.0
C840 C 0.69324 0.2927 0.04706 0.0
C841 C 0.71186 0.26754 0.0583 0.0
C842 C 0.72338 0.27626 0.01526 0.0
C843 C 0.73615 0.24714 0.04747 0.0
C844 C 0.73918 0.25237 0.97973 0.0
C845 C 0.72748 0.31754 0.96239 0.0
N846 N 0.74101 0.25169 0.02643 0.0
N847 N 0.7243 0.31223 0.98341 0.0
H848 H 0.48975 0.24897 0.20003 0.0
H849 H 0.37812 0.1735 0.29542 0.0
H850 H 0.53267 0.18092 0.24718 0.0
H851 H 0.33687 0.23783 0.24575 0.0
H852 H 0.43372 0.17178 0.27698 0.0
H853 H 0.43248 0.24072 0.21523 0.0
C854 C 0.48694 0.23197 0.21352 0.0
C855 C 0.51592 0.21584 0.22251 0.0
C856 C 0.41242 0.1861 0.27008 0.0
C857 C 0.4504 0.20653 0.24024 0.0
C858 C 0.38063 0.18701 0.28056 0.0
C859 C 0.35283 0.20615 0.27224 0.0
C860 C 0.41644 0.20443 0.25112 0.0
C861 C 0.35772 0.22336 0.253 0.0
C862 C 0.45425 0.22727 0.22222 0.0
C863 C 0.5109 0.19378 0.23981 0.0
N864 N 0.38888 0.2222 0.24319 0.0
N865 N 0.47875 0.19009 0.24832 0.0
H866 H 0.30899 0.88426 0.79453 0.0
H867 H 0.2809 0.99855 0.69109 0.0
H868 H 0.28004 0.84049 0.73455 0.0
H869 H 0.32553 0.03929 0.7483 0.0
H870 H 0.28171 0.94044 0.70639 0.0
H871 H 0.31537 0.94116 0.77784 0.0
C872 C 0.30385 0.88664 0.77784 0.0
C873 C 0.29366 0.85758 0.76595 0.0
C874 C 0.29165 0.96201 0.71554 0.0
C875 C 0.30122 0.92274 0.74667 0.0
C876 C 0.29153 0.99529 0.70673 0.0
C877 C 0.30328 0.02409 0.71837 0.0
C878 C 0.30329 0.95733 0.73626 0.0
C879 C 0.31582 0.01806 0.73879 0.0
C880 C 0.30776 0.91911 0.76829 0.0
C881 C 0.28806 0.86212 0.74431 0.0
N882 N 0.31528 0.98545 0.74712 0.0
N883 N 0.29167 0.89412 0.7354 0.0
H884 H 0.63859 0.82263 0.28069 0.0
H885 H 0.52266 0.75884 0.18497 0.0
H886 H 0.66597 0.73374 0.24288 0.0
H887 H 0.47619 0.79898 0.24185 0.0
H888 H 0.5791 0.76085 0.20203 0.0
H889 H 0.58227 0.82534 0.2626 0.0
C890 C 0.63273 0.8039 0.26845 0.0
C891 C 0.65667 0.77791 0.26318 0.0
C892 C 0.55649 0.76934 0.21069 0.0
C893 C 0.59309 0.78117 0.24237 0.0
C894 C 0.52412 0.76806 0.20104 0.0
C895 C 0.49415 0.77809 0.21205 0.0
C896 C 0.5593 0.78153 0.23138 0.0
C897 C 0.49832 0.79111 0.2326 0.0
C898 C 0.60071 0.80537 0.25825 0.0
C899 C 0.64804 0.75409 0.24734 0.0
N900 N 0.53028 0.79241 0.2416 0.0
N901 N 0.617 0.75642 0.23737 0.0
H902 H 0.65263 0.12745 0.77768 0.0
H903 H 0.74344 0.99969 0.69547 0.0
H904 H 0.75742 0.14107 0.75555 0.0
H905 H 0.65726 0.96768 0.73397 0.0
H906 H 0.74343 0.05609 0.71315 0.0
H907 H 0.64934 0.07275 0.7582 0.0
C908 C 0.67507 0.11899 0.76888 0.0
C909 C 0.7055 0.1391 0.76848 0.0
C910 C 0.72436 0.03683 0.71765 0.0
C911 C 0.70134 0.07671 0.74561 0.0
C912 C 0.72408 0.00473 0.7074 0.0
C913 C 0.70016 0.97894 0.71316 0.0
C914 C 0.70039 0.04346 0.73372 0.0
C915 C 0.67621 0.98677 0.72909 0.0
C916 C 0.673 0.0878 0.75763 0.0
C917 C 0.73325 0.12695 0.7562 0.0
N918 N 0.67689 0.01836 0.7388 0.0
N919 N 0.73047 0.09665 0.74527 0.0
H920 H 0.99844 0.2927 0.30415 0.0
H921 H 0.88244 0.28759 0.20003 0.0
H922 H 0.04033 0.29707 0.24129 0.0
H923 H 0.83958 0.29391 0.26258 0.0
H924 H 0.94045 0.29197 0.21498 0.0
H925 H 0.94013 0.29576 0.28942 0.0
C926 C 0.99545 0.295 0.28727 0.0
C927 C 0.02441 0.29453 0.27394 0.0
C928 C 0.91838 0.2925 0.22545 0.0
C929 C 0.95758 0.29715 0.25693 0.0
C930 C 0.88523 0.28968 0.21693 0.0
C931 C 0.85606 0.29014 0.23007 0.0
C932 C 0.92255 0.29562 0.24733 0.0
C933 C 0.86129 0.29365 0.25184 0.0
C934 C 0.96208 0.2964 0.27885 0.0
C935 C 0.01879 0.29686 0.25216 0.0
N936 N 0.89388 0.29607 0.25979 0.0
N937 N 0.98608 0.29781 0.24434 0.0
H938 H 0.21148 0.3359 0.76131 0.0
H939 H 0.20821 0.54398 0.75184 0.0
H940 H 0.21718 0.39091 0.70221 0.0
H941 H 0.21244 0.48867 0.81081 0.0
H942 H 0.20475 0.48817 0.73329 0.0
H943 H 0.20674 0.39158 0.7796 0.0
C944 C 0.21194 0.35966 0.75216 0.0
C945 C 0.21497 0.35858 0.73015 0.0
C946 C 0.20609 0.48825 0.7503 0.0
C947 C 0.20894 0.42264 0.75105 0.0
C948 C 0.2077 0.52012 0.7609 0.0
C949 C 0.21074 0.52096 0.7829 0.0
C950 C 0.20746 0.45701 0.76179 0.0
C951 C 0.21052 0.4892 0.79382 0.0
C952 C 0.20894 0.39149 0.76262 0.0
C953 C 0.21459 0.39034 0.71916 0.0
N954 N 0.20914 0.45857 0.78317 0.0
N955 N 0.21175 0.42101 0.72971 0.0
H956 H 0.175 0.72532 0.26544 0.0
H957 H 0.96888 0.71808 0.25191 0.0
H958 H 0.12356 0.72099 0.20523 0.0
H959 H 0.02048 0.71975 0.3121 0.0
H960 H 0.02529 0.71626 0.23454 0.0
H961 H 0.11876 0.72112 0.28281 0.0
C962 C 0.15194 0.72331 0.25585 0.0
C963 C 0.15415 0.72369 0.2338 0.0
C964 C 0.02428 0.71681 0.25156 0.0
C965 C 0.08944 0.7191 0.25365 0.0
C966 C 0.99203 0.71754 0.2615 0.0
C967 C 0.98985 0.71918 0.28353 0.0
C968 C 0.05468 0.71776 0.26369 0.0
C969 C 0.02086 0.71901 0.29508 0.0
C970 C 0.11977 0.72105 0.2658 0.0
C971 C 0.1232 0.72143 0.22225 0.0
N972 N 0.05191 0.71849 0.28505 0.0
N973 N 0.09222 0.71928 0.23229 0.0
H974 H 0.81299 0.4645 0.76204 0.0
H975 H 0.75893 0.66578 0.76706 0.0
H976 H 0.73716 0.50506 0.80526 0.0
H977 H 0.80282 0.61804 0.71176 0.0
H978 H 0.76082 0.60924 0.78491 0.0
H979 H 0.81991 0.52322 0.74716 0.0
C980 C 0.7983 0.48592 0.76859 0.0
C981 C 0.77436 0.4801 0.78476 0.0
C982 C 0.77017 0.6112 0.7689 0.0
C983 C 0.78202 0.54689 0.76796 0.0
C984 C 0.76922 0.64343 0.75876 0.0
C985 C 0.78045 0.64646 0.73787 0.0
C986 C 0.78291 0.5819 0.75817 0.0
C987 C 0.79343 0.61667 0.72778 0.0
C988 C 0.80202 0.51926 0.76004 0.0
C989 C 0.75569 0.50856 0.79267 0.0
N990 N 0.79432 0.58561 0.73803 0.0
N991 N 0.75985 0.54071 0.78417 0.0
loop_
_geom_bond_atom_site_label_1
_geom_bond_atom_site_label_2
_geom_bond_distance
_geom_bond_site_symmetry_2
_ccdc_geom_bond_type
Li0 N17 1.990 . S
Li0 O60 1.956 . S
Li0 O61 1.970 . S
Li0 O62 1.961 . S
Li1 N25 1.990 . S
Li1 O60 1.970 . S
Li1 O61 1.956 . S
Li1 O63 1.961 . S
Li2 N47 1.990 . S
Li2 O60 1.961 . S
Li2 O62 1.956 . S
Li2 O63 1.970 . S
Li3 N53 1.990 . S
Li3 O61 1.961 . S
Li3 O62 1.970 . S
Li3 O63 1.956 . S
C4 C6 1.348 . S
C4 C7 1.356 . S
C4 O60 1.325 . S
N5 C8 1.314 . S
N5 C9 1.279 . S
C6 C4 1.348 . S
C6 C8 1.353 . S
C6 H64 0.929 . S
C7 C4 1.356 . S
C7 C9 1.358 . S
C7 H65 0.930 . S
C8 N5 1.314 . S
C8 C6 1.353 . S
C8 H66 0.930 . S
C9 N5 1.279 . S
C9 C7 1.358 . S
C9 H67 0.930 . S
C10 C13 1.348 . S
C10 C14 1.356 . S
C10 O61 1.325 . S
C11 N12 1.279 1_455 S
C11 C14 1.358 . S
C11 H68 0.930 . S
N12 C11 1.279 1_655 S
N12 C15 1.314 . S
C13 C10 1.348 . S
C13 C15 1.353 1_455 S
C13 H69 0.929 . S
C14 C10 1.356 . S
C14 C11 1.358 . S
C14 H70 0.930 . S
C15 N12 1.314 . S
C15 C13 1.353 1_655 S
C15 H71 0.930 . S
C16 N17 1.314 . S
C16 C21 1.353 1_455 S
C16 H22 0.930 . S
N17 Li0 1.990 . S
N17 C16 1.314 . S
N17 C19 1.279 . S
C18 C19 1.358 . S
C18 C20 1.356 1_455 S
C18 H72 0.930 . S
C19 N17 1.279 . S
C19 C18 1.358 . S
C19 H23 0.930 . S
C20 C18 1.356 1_655 S
C20 C21 1.348 . S
C21 C16 1.353 1_655 S
C21 C20 1.348 . S
C21 H73 0.929 . S
H22 C16 0.930 . S
H23 C19 0.930 . S
C24 N25 1.314 . S
C24 C26 1.353 . S
C24 H30 0.930 . S
N25 Li1 1.990 . S
N25 C24 1.314 . S
N25 C28 1.279 . S
C26 C24 1.353 . S
C26 C29 1.348 . S
C26 H74 0.929 . S
C27 C28 1.358 . S
C27 C29 1.356 . S
C27 H75 0.930 . S
C28 N25 1.279 . S
C28 C27 1.358 . S
C28 H31 0.930 . S
C29 C26 1.348 . S
C29 C27 1.356 . S
H30 C24 0.930 . S
H31 C28 0.930 . S
C32 C34 1.348 . S
C32 C35 1.356 . S
C32 O62 1.325 . S
N33 C36 1.314 . S
N33 C37 1.279 . S
C34 C32 1.348 . S
C34 C36 1.353 . S
C34 H76 0.929 . S
C35 C32 1.356 . S
C35 C37 1.358 . S
C35 H77 0.930 . S
C36 N33 1.314 . S
C36 C34 1.353 . S
C36 H78 0.930 . S
C37 N33 1.279 . S
C37 C35 1.358 . S
C37 H79 0.930 . S
C38 C39 1.348 . S
C38 C40 1.356 . S
C38 O63 1.325 . S
C39 C38 1.348 . S
C39 C41 1.353 . S
C39 H80 0.929 . S
C40 C38 1.356 . S
C40 C42 1.358 . S
C40 H81 0.930 . S
C41 C39 1.353 . S
C41 N43 1.314 . S
C41 H82 0.930 . S
C42 C40 1.358 . S
C42 N43 1.279 . S
C42 H83 0.930 . S
N43 C41 1.314 . S
N43 C42 1.279 . S
C44 C46 1.353 . S
C44 N47 1.314 . S
C44 H50 0.930 . S
C45 N47 1.279 . S
C45 C48 1.358 . S
C45 H51 0.930 . S
C46 C44 1.353 . S
C46 C49 1.348 . S
C46 H84 0.929 . S
N47 Li2 1.990 . S
N47 C44 1.314 . S
N47 C45 1.279 . S
C48 C45 1.358 . S
C48 C49 1.356 . S
C48 H85 0.930 . S
C49 C46 1.348 . S
C49 C48 1.356 . S
H50 C44 0.930 . S
H51 C45 0.930 . S
C52 N53 1.314 . S
C52 C54 1.353 . S
C52 H58 0.930 . S
N53 Li3 1.990 . S
N53 C52 1.314 . S
N53 C56 1.279 . S
C54 C52 1.353 . S
C54 C57 1.348 . S
C54 H86 0.929 . S
C55 C56 1.358 . S
C55 C57 1.356 . S
C55 H87 0.930 . S
C56 N53 1.279 . S
C56 C55 1.358 . S
C56 H59 0.930 . S
C57 C54 1.348 . S
C57 C55 1.356 . S
H58 C52 0.930 . S
H59 C56 0.930 . S
O60 Li0 1.956 . S
O60 Li1 1.970 . S
O60 Li2 1.961 . S
O60 C4 1.325 . S
O61 Li0 1.970 . S
O61 Li1 1.956 . S
O61 Li3 1.961 . S
O61 C10 1.325 . S
O62 Li0 1.961 . S
O62 Li2 1.956 . S
O62 Li3 1.970 . S
O62 C32 1.325 . S
O63 Li1 1.961 . S
O63 Li2 1.970 . S
O63 Li3 1.956 . S
O63 C38 1.325 . S
H64 C6 0.929 . S
H65 C7 0.930 . S
H66 C8 0.930 . S
H67 C9 0.930 . S
H68 C11 0.930 . S
H69 C13 0.929 . S
H70 C14 0.930 . S
H71 C15 0.930 . S
H72 C18 0.930 . S
H73 C21 0.929 . S
H74 C26 0.929 . S
H75 C27 0.930 . S
H76 C34 0.929 . S
H77 C35 0.930 . S
H78 C36 0.930 . S
H79 C37 0.930 . S
H80 C39 0.929 . S
H81 C40 0.930 . S
H82 C41 0.930 . S
H83 C42 0.930 . S
H84 C46 0.929 . S
H85 C48 0.930 . S
H86 C54 0.929 . S
H87 C55 0.930 . S
Li88 N105 1.990 . S
Li88 O148 1.956 . S
Li88 O149 1.970 . S
Li88 O150 1.961 . S
Li89 N113 1.990 . S
Li89 O148 1.970 . S
Li89 O149 1.956 . S
Li89 O151 1.961 . S
Li90 N135 1.990 . S
Li90 O148 1.961 . S
Li90 O150 1.956 . S
Li90 O151 1.970 . S
Li91 N141 1.990 . S
Li91 O149 1.961 . S
Li91 O150 1.970 . S
Li91 O151 1.956 . S
C92 C94 1.348 . S
C92 C95 1.356 . S
C92 O148 1.325 . S
N93 C96 1.314 . S
N93 C97 1.279 . S
C94 C92 1.348 . S
C94 C96 1.353 . S
C94 H152 0.929 . S
C95 C92 1.356 . S
C95 C97 1.358 . S
C95 H153 0.930 . S
C96 N93 1.314 . S
C96 C94 1.353 . S
C96 H154 0.930 . S
C97 N93 1.279 . S
C97 C95 1.358 . S
C97 H155 0.930 . S
C98 C101 1.348 . S
C98 C102 1.356 . S
C98 O149 1.325 . S
C99 N100 1.279 . S
C99 C102 1.358 . S
C99 H156 0.930 . S
N100 C99 1.279 . S
N100 C103 1.314 . S
C101 C98 1.348 . S
C101 C103 1.353 . S
C101 H157 0.929 . S
C102 C98 1.356 . S
C102 C99 1.358 . S
C102 H158 0.930 . S
C103 N100 1.314 . S
C103 C101 1.353 . S
C103 H159 0.930 . S
C104 N105 1.314 . S
C104 C109 1.353 . S
C104 H110 0.930 . S
N105 Li88 1.990 . S
N105 C104 1.314 . S
N105 C107 1.279 . S
C106 C107 1.358 . S
C106 C108 1.356 . S
C106 H160 0.930 . S
C107 N105 1.279 . S
C107 C106 1.358 . S
C107 H111 0.930 . S
C108 C106 1.356 . S
C108 C109 1.348 . S
C109 C104 1.353 . S
C109 C108 1.348 . S
C109 H161 0.929 . S
H110 C104 0.930 . S
H111 C107 0.930 . S
C112 N113 1.314 . S
C112 C114 1.353 . S
C112 H118 0.930 . S
N113 Li89 1.990 . S
N113 C112 1.314 . S
N113 C116 1.279 . S
C114 C112 1.353 . S
C114 C117 1.348 . S
C114 H162 0.929 . S
C115 C116 1.358 . S
C115 C117 1.356 . S
C115 H163 0.930 . S
C116 N113 1.279 . S
C116 C115 1.358 . S
C116 H119 0.930 . S
C117 C114 1.348 . S
C117 C115 1.356 . S
H118 C112 0.930 . S
H119 C116 0.930 . S
C120 C122 1.348 . S
C120 C123 1.356 . S
C120 O150 1.325 . S
N121 C124 1.314 . S
N121 C125 1.279 . S
C122 C120 1.348 . S
C122 C124 1.353 . S
C122 H164 0.929 . S
C123 C120 1.356 . S
C123 C125 1.358 . S
C123 H165 0.930 . S
C124 N121 1.314 . S
C124 C122 1.353 . S
C124 H166 0.930 . S
C125 N121 1.279 . S
C125 C123 1.358 . S
C125 H167 0.930 . S
C126 C127 1.348 . S
C126 C128 1.356 . S
C126 O151 1.325 . S
C127 C126 1.348 . S
C127 C129 1.353 . S
C127 H168 0.929 . S
C128 C126 1.356 . S
C128 C130 1.358 . S
C128 H169 0.930 . S
C129 C127 1.353 . S
C129 N131 1.314 . S
C129 H170 0.930 . S
C130 C128 1.358 . S
C130 N131 1.279 . S
C130 H171 0.930 . S
N131 C129 1.314 . S
N131 C130 1.279 . S
C132 C134 1.353 . S
C132 N135 1.314 . S
C132 H138 0.930 . S
C133 N135 1.279 . S
C133 C136 1.358 . S
C133 H139 0.930 . S
C134 C132 1.353 . S
C134 C137 1.348 . S
C134 H172 0.929 . S
N135 Li90 1.990 . S
N135 C132 1.314 . S
N135 C133 1.279 . S
C136 C133 1.358 . S
C136 C137 1.356 . S
C136 H173 0.930 . S
C137 C134 1.348 . S
C137 C136 1.356 . S
H138 C132 0.930 . S
H139 C133 0.930 . S
C140 N141 1.314 . S
C140 C142 1.353 . S
C140 H146 0.930 . S
N141 Li91 1.990 . S
N141 C140 1.314 . S
N141 C144 1.279 . S
C142 C140 1.353 . S
C142 C145 1.348 . S
C142 H174 0.929 . S
C143 C144 1.358 . S
C143 C145 1.356 . S
C143 H175 0.930 . S
C144 N141 1.279 . S
C144 C143 1.358 . S
C144 H147 0.930 . S
C145 C142 1.348 . S
C145 C143 1.356 . S
H146 C140 0.930 . S
H147 C144 0.930 . S
O148 Li88 1.956 . S
O148 Li89 1.970 . S
O148 Li90 1.961 . S
O148 C92 1.325 . S
O149 Li88 1.970 . S
O149 Li89 1.956 . S
O149 Li91 1.961 . S
O149 C98 1.325 . S
O150 Li88 1.961 . S
O150 Li90 1.956 . S
O150 Li91 1.970 . S
O150 C120 1.325 . S
O151 Li89 1.961 . S
O151 Li90 1.970 . S
O151 Li91 1.956 . S
O151 C126 1.325 . S
H152 C94 0.929 . S
H153 C95 0.930 . S
H154 C96 0.930 . S
H155 C97 0.930 . S
H156 C99 0.930 . S
H157 C101 0.929 . S
H158 C102 0.930 . S
H159 C103 0.930 . S
H160 C106 0.930 . S
H161 C109 0.929 . S
H162 C114 0.929 . S
H163 C115 0.930 . S
H164 C122 0.929 . S
H165 C123 0.930 . S
H166 C124 0.930 . S
H167 C125 0.930 . S
H168 C127 0.929 . S
H169 C128 0.930 . S
H170 C129 0.930 . S
H171 C130 0.930 . S
H172 C134 0.929 . S
H173 C136 0.930 . S
H174 C142 0.929 . S
H175 C143 0.930 . S
Li176 N193 1.990 . S
Li176 O236 1.956 . S
Li176 O237 1.970 . S
Li176 O238 1.961 . S
Li177 N201 1.990 . S
Li177 O236 1.970 . S
Li177 O237 1.956 . S
Li177 O239 1.961 . S
Li178 N223 1.990 . S
Li178 O236 1.961 . S
Li178 O238 1.956 . S
Li178 O239 1.970 . S
Li179 N229 1.990 . S
Li179 O237 1.961 . S
Li179 O238 1.970 . S
Li179 O239 1.956 . S
C180 C182 1.348 . S
C180 C183 1.356 . S
C180 O236 1.325 . S
N181 C184 1.314 . S
N181 C185 1.279 . S
C182 C180 1.348 . S
C182 C184 1.353 . S
C182 H240 0.929 . S
C183 C180 1.356 . S
C183 C185 1.358 . S
C183 H241 0.930 . S
C184 N181 1.314 . S
C184 C182 1.353 . S
C184 H242 0.930 . S
C185 N181 1.279 . S
C185 C183 1.358 . S
C185 H243 0.930 . S
C186 C189 1.348 . S
C186 C190 1.356 . S
C186 O237 1.325 . S
C187 N188 1.279 1_655 S
C187 C190 1.358 . S
C187 H244 0.930 . S
N188 C187 1.279 1_455 S
N188 C191 1.314 . S
C189 C186 1.348 . S
C189 C191 1.353 1_655 S
C189 H245 0.929 . S
C190 C186 1.356 . S
C190 C187 1.358 . S
C190 H246 0.930 . S
C191 N188 1.314 . S
C191 C189 1.353 1_455 S
C191 H247 0.930 . S
C192 N193 1.314 . S
C192 C197 1.353 1_655 S
C192 H198 0.930 . S
N193 Li176 1.990 . S
N193 C192 1.314 . S
N193 C195 1.279 . S
C194 C195 1.358 . S
C194 C196 1.356 1_655 S
C194 H248 0.930 . S
C195 N193 1.279 . S
C195 C194 1.358 . S
C195 H199 0.930 . S
C196 C194 1.356 1_455 S
C196 C197 1.348 . S
C197 C192 1.353 1_455 S
C197 C196 1.348 . S
C197 H249 0.929 . S
H198 C192 0.930 . S
H199 C195 0.930 . S
C200 N201 1.314 . S
C200 C202 1.353 . S
C200 H206 0.930 . S
N201 Li177 1.990 . S
N201 C200 1.314 . S
N201 C204 1.279 . S
C202 C200 1.353 . S
C202 C205 1.348 . S
C202 H250 0.929 . S
C203 C204 1.358 . S
C203 C205 1.356 . S
C203 H251 0.930 . S
C204 N201 1.279 . S
C204 C203 1.358 . S
C204 H207 0.930 . S
C205 C202 1.348 . S
C205 C203 1.356 . S
H206 C200 0.930 . S
H207 C204 0.930 . S
C208 C210 1.348 . S
C208 C211 1.356 . S
C208 O238 1.325 . S
N209 C212 1.314 . S
N209 C213 1.279 . S
C210 C208 1.348 . S
C210 C212 1.353 . S
C210 H252 0.929 . S
C211 C208 1.356 . S
C211 C213 1.358 . S
C211 H253 0.930 . S
C212 N209 1.314 . S
C212 C210 1.353 . S
C212 H254 0.930 . S
C213 N209 1.279 . S
C213 C211 1.358 . S
C213 H255 0.930 . S
C214 C215 1.348 . S
C214 C216 1.356 . S
C214 O239 1.325 . S
C215 C214 1.348 . S
C215 C217 1.353 . S
C215 H256 0.929 . S
C216 C214 1.356 . S
C216 C218 1.358 . S
C216 H257 0.930 . S
C217 C215 1.353 . S
C217 N219 1.314 . S
C217 H258 0.930 . S
C218 C216 1.358 . S
C218 N219 1.279 . S
C218 H259 0.930 . S
N219 C217 1.314 . S
N219 C218 1.279 . S
C220 C222 1.353 . S
C220 N223 1.314 . S
C220 H226 0.930 . S
C221 N223 1.279 . S
C221 C224 1.358 . S
C221 H227 0.930 . S
C222 C220 1.353 . S
C222 C225 1.348 . S
C222 H260 0.929 . S
N223 Li178 1.990 . S
N223 C220 1.314 . S
N223 C221 1.279 . S
C224 C221 1.358 . S
C224 C225 1.356 . S
C224 H261 0.930 . S
C225 C222 1.348 . S
C225 C224 1.356 . S
H226 C220 0.930 . S
H227 C221 0.930 . S
C228 N229 1.314 . S
C228 C230 1.353 . S
C228 H234 0.930 . S
N229 Li179 1.990 . S
N229 C228 1.314 . S
N229 C232 1.279 . S
C230 C228 1.353 . S
C230 C233 1.348 . S
C230 H262 0.929 . S
C231 C232 1.358 . S
C231 C233 1.356 . S
C231 H263 0.930 . S
C232 N229 1.279 . S
C232 C231 1.358 . S
C232 H235 0.930 . S
C233 C230 1.348 . S
C233 C231 1.356 . S
H234 C228 0.930 . S
H235 C232 0.930 . S
O236 Li176 1.956 . S
O236 Li177 1.970 . S
O236 Li178 1.961 . S
O236 C180 1.325 . S
O237 Li176 1.970 . S
O237 Li177 1.956 . S
O237 Li179 1.961 . S
O237 C186 1.325 . S
O238 Li176 1.961 . S
O238 Li178 1.956 . S
O238 Li179 1.970 . S
O238 C208 1.325 . S
O239 Li177 1.961 . S
O239 Li178 1.970 . S
O239 Li179 1.956 . S
O239 C214 1.325 . S
H240 C182 0.929 . S
H241 C183 0.930 . S
H242 C184 0.930 . S
H243 C185 0.930 . S
H244 C187 0.930 . S
H245 C189 0.929 . S
H246 C190 0.930 . S
H247 C191 0.930 . S
H248 C194 0.930 . S
H249 C197 0.929 . S
H250 C202 0.929 . S
H251 C203 0.930 . S
H252 C210 0.929 . S
H253 C211 0.930 . S
H254 C212 0.930 . S
H255 C213 0.930 . S
H256 C215 0.929 . S
H257 C216 0.930 . S
H258 C217 0.930 . S
H259 C218 0.930 . S
H260 C222 0.929 . S
H261 C224 0.930 . S
H262 C230 0.929 . S
H263 C231 0.930 . S
Li264 N281 1.990 . S
Li264 O324 1.956 . S
Li264 O325 1.970 . S
Li264 O326 1.961 . S
Li265 N289 1.990 . S
Li265 O324 1.970 . S
Li265 O325 1.956 . S
Li265 O327 1.961 . S
Li266 N311 1.990 . S
Li266 O324 1.961 . S
Li266 O326 1.956 . S
Li266 O327 1.970 . S
Li267 N317 1.990 . S
Li267 O325 1.961 . S
Li267 O326 1.970 . S
Li267 O327 1.956 . S
C268 C270 1.348 . S
C268 C271 1.356 . S
C268 O324 1.325 . S
N269 C272 1.314 . S
N269 C273 1.279 . S
C270 C268 1.348 . S
C270 C272 1.353 . S
C270 H328 0.929 . S
C271 C268 1.356 . S
C271 C273 1.358 . S
C271 H329 0.930 . S
C272 N269 1.314 . S
C272 C270 1.353 . S
C272 H330 0.930 . S
C273 N269 1.279 . S
C273 C271 1.358 . S
C273 H331 0.930 . S
C274 C277 1.348 . S
C274 C278 1.356 . S
C274 O325 1.325 . S
C275 N276 1.279 . S
C275 C278 1.358 . S
C275 H332 0.930 . S
N276 C275 1.279 . S
N276 C279 1.314 . S
C277 C274 1.348 . S
C277 C279 1.353 . S
C277 H333 0.929 . S
C278 C274 1.356 . S
C278 C275 1.358 . S
C278 H334 0.930 . S
C279 N276 1.314 . S
C279 C277 1.353 . S
C279 H335 0.930 . S
C280 N281 1.314 . S
C280 C285 1.353 . S
C280 H286 0.930 . S
N281 Li264 1.990 . S
N281 C280 1.314 . S
N281 C283 1.279 . S
C282 C283 1.358 . S
C282 C284 1.356 . S
C282 H336 0.930 . S
C283 N281 1.279 . S
C283 C282 1.358 . S
C283 H287 0.930 . S
C284 C282 1.356 . S
C284 C285 1.348 . S
C285 C280 1.353 . S
C285 C284 1.348 . S
C285 H337 0.929 . S
H286 C280 0.930 . S
H287 C283 0.930 . S
C288 N289 1.314 . S
C288 C290 1.353 . S
C288 H294 0.930 . S
N289 Li265 1.990 . S
N289 C288 1.314 . S
N289 C292 1.279 . S
C290 C288 1.353 . S
C290 C293 1.348 . S
C290 H338 0.929 . S
C291 C292 1.358 . S
C291 C293 1.356 . S
C291 H339 0.930 . S
C292 N289 1.279 . S
C292 C291 1.358 . S
C292 H295 0.930 . S
C293 C290 1.348 . S
C293 C291 1.356 . S
H294 C288 0.930 . S
H295 C292 0.930 . S
C296 C298 1.348 . S
C296 C299 1.356 . S
C296 O326 1.325 . S
N297 C300 1.314 . S
N297 C301 1.279 . S
C298 C296 1.348 . S
C298 C300 1.353 . S
C298 H340 0.929 . S
C299 C296 1.356 . S
C299 C301 1.358 . S
C299 H341 0.930 . S
C300 N297 1.314 . S
C300 C298 1.353 . S
C300 H342 0.930 . S
C301 N297 1.279 . S
C301 C299 1.358 . S
C301 H343 0.930 . S
C302 C303 1.348 . S
C302 C304 1.356 . S
C302 O327 1.325 . S
C303 C302 1.348 . S
C303 C305 1.353 . S
C303 H344 0.929 . S
C304 C302 1.356 . S
C304 C306 1.358 . S
C304 H345 0.930 . S
C305 C303 1.353 . S
C305 N307 1.314 . S
C305 H346 0.930 . S
C306 C304 1.358 . S
C306 N307 1.279 . S
C306 H347 0.930 . S
N307 C305 1.314 . S
N307 C306 1.279 . S
C308 C310 1.353 . S
C308 N311 1.314 . S
C308 H314 0.930 . S
C309 N311 1.279 . S
C309 C312 1.358 . S
C309 H315 0.930 . S
C310 C308 1.353 . S
C310 C313 1.348 . S
C310 H348 0.929 . S
N311 Li266 1.990 . S
N311 C308 1.314 . S
N311 C309 1.279 . S
C312 C309 1.358 . S
C312 C313 1.356 . S
C312 H349 0.930 . S
C313 C310 1.348 . S
C313 C312 1.356 . S
H314 C308 0.930 . S
H315 C309 0.930 . S
C316 N317 1.314 . S
C316 C318 1.353 . S
C316 H322 0.930 . S
N317 Li267 1.990 . S
N317 C316 1.314 . S
N317 C320 1.279 . S
C318 C316 1.353 . S
C318 C321 1.348 . S
C318 H350 0.929 . S
C319 C320 1.358 . S
C319 C321 1.356 . S
C319 H351 0.930 . S
C320 N317 1.279 . S
C320 C319 1.358 . S
C320 H323 0.930 . S
C321 C318 1.348 . S
C321 C319 1.356 . S
H322 C316 0.930 . S
H323 C320 0.930 . S
O324 Li264 1.956 . S
O324 Li265 1.970 . S
O324 Li266 1.961 . S
O324 C268 1.325 . S
O325 Li264 1.970 . S
O325 Li265 1.956 . S
O325 Li267 1.961 . S
O325 C274 1.325 . S
O326 Li264 1.961 . S
O326 Li266 1.956 . S
O326 Li267 1.970 . S
O326 C296 1.325 . S
O327 Li265 1.961 . S
O327 Li266 1.970 . S
O327 Li267 1.956 . S
O327 C302 1.325 . S
H328 C270 0.929 . S
H329 C271 0.930 . S
H330 C272 0.930 . S
H331 C273 0.930 . S
H332 C275 0.930 . S
H333 C277 0.929 . S
H334 C278 0.930 . S
H335 C279 0.930 . S
H336 C282 0.930 . S
H337 C285 0.929 . S
H338 C290 0.929 . S
H339 C291 0.930 . S
H340 C298 0.929 . S
H341 C299 0.930 . S
H342 C300 0.930 . S
H343 C301 0.930 . S
H344 C303 0.929 . S
H345 C304 0.930 . S
H346 C305 0.930 . S
H347 C306 0.930 . S
H348 C310 0.929 . S
H349 C312 0.930 . S
H350 C318 0.929 . S
H351 C319 0.930 . S
Li352 N369 1.990 . S
Li352 O412 1.956 . S
Li352 O413 1.970 . S
Li352 O414 1.961 . S
Li353 N377 1.990 . S
Li353 O412 1.970 . S
Li353 O413 1.956 . S
Li353 O415 1.961 . S
Li354 N399 1.990 . S
Li354 O412 1.961 . S
Li354 O414 1.956 . S
Li354 O415 1.970 . S
Li355 N405 1.990 . S
Li355 O413 1.961 . S
Li355 O414 1.970 . S
Li355 O415 1.956 . S
C356 C358 1.348 . S
C356 C359 1.356 . S
C356 O412 1.325 . S
N357 C360 1.314 . S
N357 C361 1.279 . S
C358 C356 1.348 . S
C358 C360 1.353 . S
C358 H416 0.929 . S
C359 C356 1.356 . S
C359 C361 1.358 . S
C359 H417 0.930 . S
C360 N357 1.314 . S
C360 C358 1.353 . S
C360 H418 0.930 . S
C361 N357 1.279 . S
C361 C359 1.358 . S
C361 H419 0.930 . S
C362 C365 1.348 . S
C362 C366 1.356 . S
C362 O413 1.325 . S
C363 N364 1.279 . S
C363 C366 1.358 . S
C363 H420 0.930 . S
N364 C363 1.279 . S
N364 C367 1.314 . S
C365 C362 1.348 . S
C365 C367 1.353 . S
C365 H421 0.929 . S
C366 C362 1.356 . S
C366 C363 1.358 . S
C366 H422 0.930 . S
C367 N364 1.314 . S
C367 C365 1.353 . S
C367 H423 0.930 . S
C368 N369 1.314 . S
C368 C373 1.353 . S
C368 H374 0.930 . S
N369 Li352 1.990 . S
N369 C368 1.314 . S
N369 C371 1.279 . S
C370 C371 1.358 . S
C370 C372 1.356 . S
C370 H424 0.930 . S
C371 N369 1.279 . S
C371 C370 1.358 . S
C371 H375 0.930 . S
C372 C370 1.356 . S
C372 C373 1.348 . S
C373 C368 1.353 . S
C373 C372 1.348 . S
C373 H425 0.929 . S
H374 C368 0.930 . S
H375 C371 0.930 . S
C376 N377 1.314 . S
C376 C378 1.353 . S
C376 H382 0.930 . S
N377 Li353 1.990 . S
N377 C376 1.314 . S
N377 C380 1.279 . S
C378 C376 1.353 . S
C378 C381 1.348 . S
C378 H426 0.929 . S
C379 C380 1.358 . S
C379 C381 1.356 . S
C379 H427 0.930 . S
C380 N377 1.279 . S
C380 C379 1.358 . S
C380 H383 0.930 . S
C381 C378 1.348 . S
C381 C379 1.356 . S
H382 C376 0.930 . S
H383 C380 0.930 . S
C384 C386 1.348 . S
C384 C387 1.356 . S
C384 O414 1.325 . S
N385 C388 1.314 . S
N385 C389 1.279 . S
C386 C384 1.348 . S
C386 C388 1.353 . S
C386 H428 0.929 . S
C387 C384 1.356 . S
C387 C389 1.358 . S
C387 H429 0.930 . S
C388 N385 1.314 . S
C388 C386 1.353 . S
C388 H430 0.930 . S
C389 N385 1.279 . S
C389 C387 1.358 . S
C389 H431 0.930 . S
C390 C391 1.348 . S
C390 C392 1.356 . S
C390 O415 1.325 . S
C391 C390 1.348 . S
C391 C393 1.353 . S
C391 H432 0.929 . S
C392 C390 1.356 . S
C392 C394 1.358 . S
C392 H433 0.930 . S
C393 C391 1.353 . S
C393 N395 1.314 . S
C393 H434 0.930 . S
C394 C392 1.358 . S
C394 N395 1.279 . S
C394 H435 0.930 . S
N395 C393 1.314 . S
N395 C394 1.279 . S
C396 C398 1.353 . S
C396 N399 1.314 . S
C396 H402 0.930 . S
C397 N399 1.279 . S
C397 C400 1.358 . S
C397 H403 0.930 . S
C398 C396 1.353 . S
C398 C401 1.348 . S
C398 H436 0.929 . S
N399 Li354 1.990 . S
N399 C396 1.314 . S
N399 C397 1.279 . S
C400 C397 1.358 . S
C400 C401 1.356 . S
C400 H437 0.930 . S
C401 C398 1.348 . S
C401 C400 1.356 . S
H402 C396 0.930 . S
H403 C397 0.930 . S
C404 N405 1.314 . S
C404 C406 1.353 . S
C404 H410 0.930 . S
N405 Li355 1.990 . S
N405 C404 1.314 . S
N405 C408 1.279 . S
C406 C404 1.353 . S
C406 C409 1.348 . S
C406 H438 0.929 . S
C407 C408 1.358 . S
C407 C409 1.356 . S
C407 H439 0.930 . S
C408 N405 1.279 . S
C408 C407 1.358 . S
C408 H411 0.930 . S
C409 C406 1.348 . S
C409 C407 1.356 . S
H410 C404 0.930 . S
H411 C408 0.930 . S
O412 Li352 1.956 . S
O412 Li353 1.970 . S
O412 Li354 1.961 . S
O412 C356 1.325 . S
O413 Li352 1.970 . S
O413 Li353 1.956 . S
O413 Li355 1.961 . S
O413 C362 1.325 . S
O414 Li352 1.961 . S
O414 Li354 1.956 . S
O414 Li355 1.970 . S
O414 C384 1.325 . S
O415 Li353 1.961 . S
O415 Li354 1.970 . S
O415 Li355 1.956 . S
O415 C390 1.325 . S
H416 C358 0.929 . S
H417 C359 0.930 . S
H418 C360 0.930 . S
H419 C361 0.930 . S
H420 C363 0.930 . S
H421 C365 0.929 . S
H422 C366 0.930 . S
H423 C367 0.930 . S
H424 C370 0.930 . S
H425 C373 0.929 . S
H426 C378 0.929 . S
H427 C379 0.930 . S
H428 C386 0.929 . S
H429 C387 0.930 . S
H430 C388 0.930 . S
H431 C389 0.930 . S
H432 C391 0.929 . S
H433 C392 0.930 . S
H434 C393 0.930 . S
H435 C394 0.930 . S
H436 C398 0.929 . S
H437 C400 0.930 . S
H438 C406 0.929 . S
H439 C407 0.930 . S
Li440 N457 1.990 . S
Li440 O500 1.956 . S
Li440 O501 1.970 . S
Li440 O502 1.961 . S
Li441 N465 1.990 . S
Li441 O500 1.970 . S
Li441 O501 1.956 . S
Li441 O503 1.961 . S
Li442 N487 1.990 . S
Li442 O500 1.961 . S
Li442 O502 1.956 . S
Li442 O503 1.970 . S
Li443 N493 1.990 . S
Li443 O501 1.961 . S
Li443 O502 1.970 . S
Li443 O503 1.956 . S
C444 C446 1.348 . S
C444 C447 1.356 . S
C444 O500 1.325 . S
N445 C448 1.314 . S
N445 C449 1.279 . S
C446 C444 1.348 . S
C446 C448 1.353 . S
C446 H504 0.929 . S
C447 C444 1.356 . S
C447 C449 1.358 . S
C447 H505 0.930 . S
C448 N445 1.314 . S
C448 C446 1.353 . S
C448 H506 0.930 . S
C449 N445 1.279 . S
C449 C447 1.358 . S
C449 H507 0.930 . S
C450 C453 1.348 . S
C450 C454 1.356 . S
C450 O501 1.325 . S
C451 N452 1.279 . S
C451 C454 1.358 . S
C451 H508 0.930 . S
N452 C451 1.279 . S
N452 C455 1.314 . S
C453 C450 1.348 . S
C453 C455 1.353 . S
C453 H509 0.929 . S
C454 C450 1.356 . S
C454 C451 1.358 . S
C454 H510 0.930 . S
C455 N452 1.314 . S
C455 C453 1.353 . S
C455 H511 0.930 . S
C456 N457 1.314 . S
C456 C461 1.353 . S
C456 H462 0.930 . S
N457 Li440 1.990 . S
N457 C456 1.314 . S
N457 C459 1.279 . S
C458 C459 1.358 . S
C458 C460 1.356 . S
C458 H512 0.930 . S
C459 N457 1.279 . S
C459 C458 1.358 . S
C459 H463 0.930 . S
C460 C458 1.356 . S
C460 C461 1.348 . S
C461 C456 1.353 . S
C461 C460 1.348 . S
C461 H513 0.929 . S
H462 C456 0.930 . S
H463 C459 0.930 . S
C464 N465 1.314 . S
C464 C466 1.353 . S
C464 H470 0.930 . S
N465 Li441 1.990 . S
N465 C464 1.314 . S
N465 C468 1.279 . S
C466 C464 1.353 . S
C466 C469 1.348 . S
C466 H514 0.929 . S
C467 C468 1.358 . S
C467 C469 1.356 . S
C467 H515 0.930 . S
C468 N465 1.279 . S
C468 C467 1.358 . S
C468 H471 0.930 . S
C469 C466 1.348 . S
C469 C467 1.356 . S
H470 C464 0.930 . S
H471 C468 0.930 . S
C472 C474 1.348 . S
C472 C475 1.356 . S
C472 O502 1.325 . S
N473 C476 1.314 . S
N473 C477 1.279 . S
C474 C472 1.348 . S
C474 C476 1.353 . S
C474 H516 0.929 . S
C475 C472 1.356 . S
C475 C477 1.358 . S
C475 H517 0.930 . S
C476 N473 1.314 . S
C476 C474 1.353 . S
C476 H518 0.930 . S
C477 N473 1.279 . S
C477 C475 1.358 . S
C477 H519 0.930 . S
C478 C479 1.348 . S
C478 C480 1.356 . S
C478 O503 1.325 . S
C479 C478 1.348 . S
C479 C481 1.353 1_545 S
C479 H520 0.929 . S
C480 C478 1.356 . S
C480 C482 1.356 1_545 S
C480 H521 0.930 . S
C481 C479 1.353 1_565 S
C481 N483 1.314 . S
C481 H522 0.930 . S
C482 C480 1.356 1_565 S
C482 N483 1.281 . S
C482 H523 0.931 . S
N483 C481 1.314 . S
N483 C482 1.281 . S
C484 C486 1.353 . S
C484 N487 1.314 . S
C484 H490 0.930 . S
C485 N487 1.279 . S
C485 C488 1.358 . S
C485 H491 0.930 . S
C486 C484 1.353 . S
C486 C489 1.348 . S
C486 H524 0.929 . S
N487 Li442 1.990 . S
N487 C484 1.314 . S
N487 C485 1.279 . S
C488 C485 1.358 . S
C488 C489 1.356 . S
C488 H525 0.930 . S
C489 C486 1.348 . S
C489 C488 1.356 . S
H490 C484 0.930 . S
H491 C485 0.930 . S
C492 N493 1.314 . S
C492 C494 1.353 . S
C492 H498 0.930 . S
N493 Li443 1.990 . S
N493 C492 1.314 . S
N493 C496 1.279 . S
C494 C492 1.353 . S
C494 C497 1.348 1_545 S
C494 H526 0.929 . S
C495 C496 1.358 1_565 S
C495 C497 1.356 . S
C495 H527 0.930 . S
C496 N493 1.279 . S
C496 C495 1.358 1_545 S
C496 H499 0.938 . S
C497 C494 1.348 1_565 S
C497 C495 1.356 . S
H498 C492 0.930 . S
H499 C496 0.938 . S
O500 Li440 1.956 . S
O500 Li441 1.970 . S
O500 Li442 1.961 . S
O500 C444 1.325 . S
O501 Li440 1.970 . S
O501 Li441 1.956 . S
O501 Li443 1.961 . S
O501 C450 1.325 . S
O502 Li440 1.961 . S
O502 Li442 1.956 . S
O502 Li443 1.970 . S
O502 C472 1.325 . S
O503 Li441 1.961 . S
O503 Li442 1.970 . S
O503 Li443 1.956 . S
O503 C478 1.325 . S
H504 C446 0.929 . S
H505 C447 0.930 . S
H506 C448 0.930 . S
H507 C449 0.930 . S
H508 C451 0.930 . S
H509 C453 0.929 . S
H510 C454 0.930 . S
H511 C455 0.930 . S
H512 C458 0.930 . S
H513 C461 0.929 . S
H514 C466 0.929 . S
H515 C467 0.930 . S
H516 C474 0.929 . S
H517 C475 0.930 . S
H518 C476 0.930 . S
H519 C477 0.930 . S
H520 C479 0.929 . S
H521 C480 0.930 . S
H522 C481 0.930 . S
H523 C482 0.931 . S
H524 C486 0.929 . S
H525 C488 0.930 . S
H526 C494 0.929 . S
H527 C495 0.930 . S
Li528 N545 1.990 . S
Li528 O588 1.956 . S
Li528 O589 1.970 . S
Li528 O590 1.961 . S
Li529 N553 1.990 . S
Li529 O588 1.970 . S
Li529 O589 1.956 . S
Li529 O591 1.961 . S
Li530 N575 1.990 . S
Li530 O588 1.961 . S
Li530 O590 1.956 . S
Li530 O591 1.970 . S
Li531 N581 1.990 . S
Li531 O589 1.961 . S
Li531 O590 1.970 . S
Li531 O591 1.956 . S
C532 C534 1.348 . S
C532 C535 1.356 . S
C532 O588 1.325 . S
N533 C536 1.314 . S
N533 C537 1.279 . S
C534 C532 1.348 . S
C534 C536 1.353 . S
C534 H592 0.929 . S
C535 C532 1.356 . S
C535 C537 1.358 . S
C535 H593 0.930 . S
C536 N533 1.314 . S
C536 C534 1.353 . S
C536 H594 0.930 . S
C537 N533 1.279 . S
C537 C535 1.358 . S
C537 H595 0.930 . S
C538 C541 1.348 . S
C538 C542 1.356 . S
C538 O589 1.325 . S
C539 N540 1.279 . S
C539 C542 1.358 . S
C539 H596 0.930 . S
N540 C539 1.279 . S
N540 C543 1.314 . S
C541 C538 1.348 . S
C541 C543 1.353 . S
C541 H597 0.929 . S
C542 C538 1.356 . S
C542 C539 1.358 . S
C542 H598 0.930 . S
C543 N540 1.314 . S
C543 C541 1.353 . S
C543 H599 0.930 . S
C544 N545 1.314 . S
C544 C549 1.353 . S
C544 H550 0.930 . S
N545 Li528 1.990 . S
N545 C544 1.314 . S
N545 C547 1.279 . S
C546 C547 1.358 . S
C546 C548 1.356 . S
C546 H600 0.930 . S
C547 N545 1.279 . S
C547 C546 1.358 . S
C547 H551 0.930 . S
C548 C546 1.356 . S
C548 C549 1.348 . S
C549 C544 1.353 . S
C549 C548 1.348 . S
C549 H601 0.929 . S
H550 C544 0.930 . S
H551 C547 0.930 . S
C552 N553 1.314 . S
C552 C554 1.353 . S
C552 H558 0.930 . S
N553 Li529 1.990 . S
N553 C552 1.314 . S
N553 C556 1.279 . S
C554 C552 1.353 . S
C554 C557 1.348 . S
C554 H602 0.929 . S
C555 C556 1.358 . S
C555 C557 1.356 . S
C555 H603 0.930 . S
C556 N553 1.279 . S
C556 C555 1.358 . S
C556 H559 0.930 . S
C557 C554 1.348 . S
C557 C555 1.356 . S
H558 C552 0.930 . S
H559 C556 0.930 . S
C560 C562 1.348 . S
C560 C563 1.356 . S
C560 O590 1.325 . S
N561 C564 1.314 . S
N561 C565 1.279 . S
C562 C560 1.348 . S
C562 C564 1.353 . S
C562 H604 0.929 . S
C563 C560 1.356 . S
C563 C565 1.358 . S
C563 H605 0.930 . S
C564 N561 1.314 . S
C564 C562 1.353 . S
C564 H606 0.930 . S
C565 N561 1.279 . S
C565 C563 1.358 . S
C565 H607 0.930 . S
C566 C567 1.348 . S
C566 C568 1.356 . S
C566 O591 1.325 . S
C567 C566 1.348 . S
C567 C569 1.353 . S
C567 H608 0.929 . S
C568 C566 1.356 . S
C568 C570 1.358 . S
C568 H609 0.930 . S
C569 C567 1.353 . S
C569 N571 1.314 . S
C569 H610 0.930 . S
C570 C568 1.358 . S
C570 N571 1.279 . S
C570 H611 0.930 . S
N571 C569 1.314 . S
N571 C570 1.279 . S
C572 C574 1.353 . S
C572 N575 1.314 . S
C572 H578 0.930 . S
C573 N575 1.279 . S
C573 C576 1.358 . S
C573 H579 0.930 . S
C574 C572 1.353 . S
C574 C577 1.348 . S
C574 H612 0.929 . S
N575 Li530 1.990 . S
N575 C572 1.314 . S
N575 C573 1.279 . S
C576 C573 1.358 . S
C576 C577 1.356 . S
C576 H613 0.930 . S
C577 C574 1.348 . S
C577 C576 1.356 . S
H578 C572 0.930 . S
H579 C573 0.930 . S
C580 N581 1.314 . S
C580 C582 1.353 . S
C580 H586 0.930 . S
N581 Li531 1.990 . S
N581 C580 1.314 . S
N581 C584 1.279 . S
C582 C580 1.353 . S
C582 C585 1.348 . S
C582 H614 0.929 . S
C583 C584 1.358 . S
C583 C585 1.356 . S
C583 H615 0.930 . S
C584 N581 1.279 . S
C584 C583 1.358 . S
C584 H587 0.930 . S
C585 C582 1.348 . S
C585 C583 1.356 . S
H586 C580 0.930 . S
H587 C584 0.930 . S
O588 Li528 1.956 . S
O588 Li529 1.970 . S
O588 Li530 1.961 . S
O588 C532 1.325 . S
O589 Li528 1.970 . S
O589 Li529 1.956 . S
O589 Li531 1.961 . S
O589 C538 1.325 . S
O590 Li528 1.961 . S
O590 Li530 1.956 . S
O590 Li531 1.970 . S
O590 C560 1.325 . S
O591 Li529 1.961 . S
O591 Li530 1.970 . S
O591 Li531 1.956 . S
O591 C566 1.325 . S
H592 C534 0.929 . S
H593 C535 0.930 . S
H594 C536 0.930 . S
H595 C537 0.930 . S
H596 C539 0.930 . S
H597 C541 0.929 . S
H598 C542 0.930 . S
H599 C543 0.930 . S
H600 C546 0.930 . S
H601 C549 0.929 . S
H602 C554 0.929 . S
H603 C555 0.930 . S
H604 C562 0.929 . S
H605 C563 0.930 . S
H606 C564 0.930 . S
H607 C565 0.930 . S
H608 C567 0.929 . S
H609 C568 0.930 . S
H610 C569 0.930 . S
H611 C570 0.930 . S
H612 C574 0.929 . S
H613 C576 0.930 . S
H614 C582 0.929 . S
H615 C583 0.930 . S
Li616 N633 1.990 . S
Li616 O676 1.956 . S
Li616 O677 1.970 . S
Li616 O678 1.961 . S
Li617 N641 1.990 . S
Li617 O676 1.970 . S
Li617 O677 1.956 . S
Li617 O679 1.961 . S
Li618 N663 1.990 . S
Li618 O676 1.961 . S
Li618 O678 1.956 . S
Li618 O679 1.970 . S
Li619 N669 1.990 . S
Li619 O677 1.961 . S
Li619 O678 1.970 . S
Li619 O679 1.956 . S
C620 C622 1.348 . S
C620 C623 1.356 . S
C620 O676 1.325 . S
N621 C624 1.314 . S
N621 C625 1.281 . S
C622 C620 1.348 . S
C622 C624 1.353 1_565 S
C622 H680 0.929 . S
C623 C620 1.356 . S
C623 C625 1.356 1_565 S
C623 H681 0.930 . S
C624 N621 1.314 . S
C624 C622 1.353 1_545 S
C624 H682 0.930 . S
C625 N621 1.281 . S
C625 C623 1.356 1_545 S
C625 H683 0.931 . S
C626 C629 1.348 . S
C626 C630 1.356 . S
C626 O677 1.325 . S
C627 N628 1.279 . S
C627 C630 1.358 . S
C627 H684 0.930 . S
N628 C627 1.279 . S
N628 C631 1.314 . S
C629 C626 1.348 . S
C629 C631 1.353 . S
C629 H685 0.929 . S
C630 C626 1.356 . S
C630 C627 1.358 . S
C630 H686 0.930 . S
C631 N628 1.314 . S
C631 C629 1.353 . S
C631 H687 0.930 . S
C632 N633 1.314 . S
C632 C637 1.353 . S
C632 H638 0.930 . S
N633 Li616 1.990 . S
N633 C632 1.314 . S
N633 C635 1.279 . S
C634 C635 1.358 1_545 S
C634 C636 1.356 . S
C634 H688 0.930 . S
C635 N633 1.279 . S
C635 C634 1.358 1_565 S
C635 H639 0.938 . S
C636 C634 1.356 . S
C636 C637 1.348 1_545 S
C637 C632 1.353 . S
C637 C636 1.348 1_565 S
C637 H689 0.929 . S
H638 C632 0.930 . S
H639 C635 0.938 . S
C640 N641 1.314 . S
C640 C642 1.353 . S
C640 H646 0.930 . S
N641 Li617 1.990 . S
N641 C640 1.314 . S
N641 C644 1.279 . S
C642 C640 1.353 . S
C642 C645 1.348 . S
C642 H690 0.929 . S
C643 C644 1.358 . S
C643 C645 1.356 . S
C643 H691 0.930 . S
C644 N641 1.279 . S
C644 C643 1.358 . S
C644 H647 0.930 . S
C645 C642 1.348 . S
C645 C643 1.356 . S
H646 C640 0.930 . S
H647 C644 0.930 . S
C648 C650 1.348 . S
C648 C651 1.356 . S
C648 O678 1.325 . S
N649 C652 1.314 . S
N649 C653 1.279 . S
C650 C648 1.348 . S
C650 C652 1.353 . S
C650 H692 0.929 . S
C651 C648 1.356 . S
C651 C653 1.358 . S
C651 H693 0.930 . S
C652 N649 1.314 . S
C652 C650 1.353 . S
C652 H694 0.930 . S
C653 N649 1.279 . S
C653 C651 1.358 . S
C653 H695 0.930 . S
C654 C655 1.348 . S
C654 C656 1.356 . S
C654 O679 1.325 . S
C655 C654 1.348 . S
C655 C657 1.353 . S
C655 H696 0.929 . S
C656 C654 1.356 . S
C656 C658 1.358 . S
C656 H697 0.930 . S
C657 C655 1.353 . S
C657 N659 1.314 . S
C657 H698 0.930 . S
C658 C656 1.358 . S
C658 N659 1.279 . S
C658 H699 0.930 . S
N659 C657 1.314 . S
N659 C658 1.279 . S
C660 C662 1.353 . S
C660 N663 1.314 . S
C660 H666 0.930 . S
C661 N663 1.279 . S
C661 C664 1.358 . S
C661 H667 0.930 . S
C662 C660 1.353 . S
C662 C665 1.348 . S
C662 H700 0.929 . S
N663 Li618 1.990 . S
N663 C660 1.314 . S
N663 C661 1.279 . S
C664 C661 1.358 . S
C664 C665 1.356 . S
C664 H701 0.930 . S
C665 C662 1.348 . S
C665 C664 1.356 . S
H666 C660 0.930 . S
H667 C661 0.930 . S
C668 N669 1.314 . S
C668 C670 1.353 . S
C668 H674 0.930 . S
N669 Li619 1.990 . S
N669 C668 1.314 . S
N669 C672 1.279 . S
C670 C668 1.353 . S
C670 C673 1.348 . S
C670 H702 0.929 . S
C671 C672 1.358 . S
C671 C673 1.356 . S
C671 H703 0.930 . S
C672 N669 1.279 . S
C672 C671 1.358 . S
C672 H675 0.930 . S
C673 C670 1.348 . S
C673 C671 1.356 . S
H674 C668 0.930 . S
H675 C672 0.930 . S
O676 Li616 1.956 . S
O676 Li617 1.970 . S
O676 Li618 1.961 . S
O676 C620 1.325 . S
O677 Li616 1.970 . S
O677 Li617 1.956 . S
O677 Li619 1.961 . S
O677 C626 1.325 . S
O678 Li616 1.961 . S
O678 Li618 1.956 . S
O678 Li619 1.970 . S
O678 C648 1.325 . S
O679 Li617 1.961 . S
O679 Li618 1.970 . S
O679 Li619 1.956 . S
O679 C654 1.325 . S
H680 C622 0.929 . S
H681 C623 0.930 . S
H682 C624 0.930 . S
H683 C625 0.931 . S
H684 C627 0.930 . S
H685 C629 0.929 . S
H686 C630 0.930 . S
H687 C631 0.930 . S
H688 C634 0.930 . S
H689 C637 0.929 . S
H690 C642 0.929 . S
H691 C643 0.930 . S
H692 C650 0.929 . S
H693 C651 0.930 . S
H694 C652 0.930 . S
H695 C653 0.930 . S
H696 C655 0.929 . S
H697 C656 0.930 . S
H698 C657 0.930 . S
H699 C658 0.930 . S
H700 C662 0.929 . S
H701 C664 0.930 . S
H702 C670 0.929 . S
H703 C671 0.930 . S
H704 C710 0.930 . S
H705 C714 0.930 . S
H706 C719 0.929 . S
H707 C717 0.929 . S
H708 C712 0.929 1_545 S
H709 C718 0.929 1_565 S
C710 H704 0.930 . S
C710 C711 1.367 . S
C710 C718 1.378 . S
C711 C710 1.367 . S
C711 C719 1.433 . S
C712 H708 0.929 1_565 S
C712 C714 1.378 . S
C712 C716 1.350 . S
C713 C716 1.463 1_445 S
C713 C718 1.350 . S
C713 N721 1.427 . S
C714 H705 0.930 . S
C714 C712 1.378 . S
C714 C715 1.367 . S
C715 C714 1.367 . S
C715 C717 1.433 . S
C716 C712 1.350 . S
C716 C713 1.463 1_665 S
C716 N720 1.427 . S
C717 H707 0.929 . S
C717 C715 1.433 . S
C717 N720 1.384 . S
C718 H709 0.929 1_545 S
C718 C710 1.378 . S
C718 C713 1.350 . S
C719 H706 0.929 . S
C719 C711 1.433 . S
C719 N721 1.384 . S
N720 C716 1.427 . S
N720 C717 1.384 . S
N721 C713 1.427 . S
N721 C719 1.384 . S
H722 C728 0.930 . S
H723 C732 0.930 . S
H724 C737 0.929 . S
H725 C735 0.929 . S
H726 C730 0.929 . S
H727 C736 0.929 . S
C728 H722 0.930 . S
C728 C729 1.367 . S
C728 C736 1.378 . S
C729 C728 1.367 . S
C729 C737 1.433 . S
C730 H726 0.929 . S
C730 C732 1.378 . S
C730 C734 1.350 . S
C731 C734 1.463 . S
C731 C736 1.350 . S
C731 N739 1.427 . S
C732 H723 0.930 . S
C732 C730 1.378 . S
C732 C733 1.367 . S
C733 C732 1.367 . S
C733 C735 1.433 . S
C734 C730 1.350 . S
C734 C731 1.463 . S
C734 N738 1.427 . S
C735 H725 0.929 . S
C735 C733 1.433 . S
C735 N738 1.384 . S
C736 H727 0.929 . S
C736 C728 1.378 . S
C736 C731 1.350 . S
C737 H724 0.929 . S
C737 C729 1.433 . S
C737 N739 1.384 . S
N738 C734 1.427 . S
N738 C735 1.384 . S
N739 C731 1.427 . S
N739 C737 1.384 . S
H740 C746 0.930 . S
H741 C750 0.930 . S
H742 C755 0.929 . S
H743 C753 0.929 . S
H744 C748 0.929 . S
H745 C754 0.929 . S
C746 H740 0.930 . S
C746 C747 1.367 . S
C746 C754 1.378 . S
C747 C746 1.367 . S
C747 C755 1.433 . S
C748 H744 0.929 . S
C748 C750 1.378 . S
C748 C752 1.350 . S
C749 C752 1.463 . S
C749 C754 1.350 . S
C749 N757 1.427 . S
C750 H741 0.930 . S
C750 C748 1.378 . S
C750 C751 1.367 . S
C751 C750 1.367 . S
C751 C753 1.433 . S
C752 C748 1.350 . S
C752 C749 1.463 . S
C752 N756 1.427 . S
C753 H743 0.929 . S
C753 C751 1.433 . S
C753 N756 1.384 . S
C754 H745 0.929 . S
C754 C746 1.378 . S
C754 C749 1.350 . S
C755 H742 0.929 . S
C755 C747 1.433 . S
C755 N757 1.384 . S
N756 C752 1.427 . S
N756 C753 1.384 . S
N757 C749 1.427 . S
N757 C755 1.384 . S
H758 C764 0.930 1_655 S
H759 C768 0.930 1_455 S
H760 C773 0.929 . S
H761 C771 0.929 . S
H762 C766 0.929 . S
H763 C772 0.929 . S
C764 H758 0.930 1_455 S
C764 C765 1.367 . S
C764 C772 1.378 1_455 S
C765 C764 1.367 . S
C765 C773 1.433 . S
C766 H762 0.929 . S
C766 C768 1.378 1_455 S
C766 C770 1.350 1_455 S
C767 C770 1.463 1_445 S
C767 C772 1.350 1_455 S
C767 N775 1.427 . S
C768 H759 0.930 1_655 S
C768 C766 1.378 1_655 S
C768 C769 1.367 . S
C769 C768 1.367 . S
C769 C771 1.433 . S
C770 C766 1.350 1_655 S
C770 C767 1.463 1_665 S
C770 N774 1.427 . S
C771 H761 0.929 . S
C771 C769 1.433 . S
C771 N774 1.384 . S
C772 H763 0.929 . S
C772 C764 1.378 1_655 S
C772 C767 1.350 1_655 S
C773 H760 0.929 . S
C773 C765 1.433 . S
C773 N775 1.384 . S
N774 C770 1.427 . S
N774 C771 1.384 . S
N775 C767 1.427 . S
N775 C773 1.384 . S
H776 C782 0.930 . S
H777 C786 0.930 . S
H778 C791 0.929 . S
H779 C789 0.929 . S
H780 C784 0.929 . S
H781 C790 0.929 . S
C782 H776 0.930 . S
C782 C783 1.367 . S
C782 C790 1.378 . S
C783 C782 1.367 . S
C783 C791 1.433 . S
C784 H780 0.929 . S
C784 C786 1.378 . S
C784 C788 1.350 . S
C785 C788 1.463 . S
C785 C790 1.350 . S
C785 N793 1.427 . S
C786 H777 0.930 . S
C786 C784 1.378 . S
C786 C787 1.367 . S
C787 C786 1.367 . S
C787 C789 1.433 . S
C788 C784 1.350 . S
C788 C785 1.463 . S
C788 N792 1.427 . S
C789 H779 0.929 . S
C789 C787 1.433 . S
C789 N792 1.384 . S
C790 H781 0.929 . S
C790 C782 1.378 . S
C790 C785 1.350 . S
C791 H778 0.929 . S
C791 C783 1.433 . S
C791 N793 1.384 . S
N792 C788 1.427 . S
N792 C789 1.384 . S
N793 C785 1.427 . S
N793 C791 1.384 . S
H794 C800 0.930 . S
H795 C804 0.930 . S
H796 C809 0.929 . S
H797 C807 0.929 . S
H798 C802 0.929 . S
H799 C808 0.929 . S
C800 H794 0.930 . S
C800 C801 1.367 . S
C800 C808 1.378 . S
C801 C800 1.367 . S
C801 C809 1.433 . S
C802 H798 0.929 . S
C802 C804 1.378 . S
C802 C806 1.350 . S
C803 C806 1.463 1_556 S
C803 C808 1.350 . S
C803 N811 1.427 . S
C804 H795 0.930 . S
C804 C802 1.378 . S
C804 C805 1.367 . S
C805 C804 1.367 . S
C805 C807 1.433 . S
C806 C802 1.350 . S
C806 C803 1.463 1_554 S
C806 N810 1.427 . S
C807 H797 0.929 . S
C807 C805 1.433 . S
C807 N810 1.384 . S
C808 H799 0.929 . S
C808 C800 1.378 . S
C808 C803 1.350 . S
C809 H796 0.929 . S
C809 C801 1.433 . S
C809 N811 1.384 . S
N810 C806 1.427 . S
N810 C807 1.384 . S
N811 C803 1.427 . S
N811 C809 1.384 . S
H812 C818 0.930 . S
H813 C822 0.930 . S
H814 C827 0.929 . S
H815 C825 0.929 . S
H816 C820 0.929 . S
H817 C826 0.929 . S
C818 H812 0.930 . S
C818 C819 1.367 . S
C818 C826 1.378 . S
C819 C818 1.367 . S
C819 C827 1.433 . S
C820 H816 0.929 . S
C820 C822 1.378 . S
C820 C824 1.350 . S
C821 C824 1.463 . S
C821 C826 1.350 . S
C821 N829 1.427 . S
C822 H813 0.930 . S
C822 C820 1.378 . S
C822 C823 1.367 . S
C823 C822 1.367 . S
C823 C825 1.433 . S
C824 C820 1.350 . S
C824 C821 1.463 . S
C824 N828 1.427 . S
C825 H815 0.929 . S
C825 C823 1.433 . S
C825 N828 1.384 . S
C826 H817 0.929 . S
C826 C818 1.378 . S
C826 C821 1.350 . S
C827 H814 0.929 . S
C827 C819 1.433 . S
C827 N829 1.384 . S
N828 C824 1.427 . S
N828 C825 1.384 . S
N829 C821 1.427 . S
N829 C827 1.384 . S
H830 C836 0.930 . S
H831 C840 0.930 . S
H832 C845 0.929 . S
H833 C843 0.929 . S
H834 C838 0.929 . S
H835 C844 0.929 . S
C836 H830 0.930 . S
C836 C837 1.367 . S
C836 C844 1.378 . S
C837 C836 1.367 . S
C837 C845 1.433 . S
C838 H834 0.929 . S
C838 C840 1.378 . S
C838 C842 1.350 . S
C839 C842 1.463 1_556 S
C839 C844 1.350 . S
C839 N847 1.427 . S
C840 H831 0.930 . S
C840 C838 1.378 . S
C840 C841 1.367 . S
C841 C840 1.367 . S
C841 C843 1.433 . S
C842 C838 1.350 . S
C842 C839 1.463 1_554 S
C842 N846 1.427 . S
C843 H833 0.929 . S
C843 C841 1.433 . S
C843 N846 1.384 . S
C844 H835 0.929 . S
C844 C836 1.378 . S
C844 C839 1.350 . S
C845 H832 0.929 . S
C845 C837 1.433 . S
C845 N847 1.384 . S
N846 C842 1.427 . S
N846 C843 1.384 . S
N847 C839 1.427 . S
N847 C845 1.384 . S
H848 C854 0.930 . S
H849 C858 0.930 . S
H850 C863 0.929 . S
H851 C861 0.929 . S
H852 C856 0.929 . S
H853 C862 0.929 . S
C854 H848 0.930 . S
C854 C855 1.367 . S
C854 C862 1.378 . S
C855 C854 1.367 . S
C855 C863 1.433 . S
C856 H852 0.929 . S
C856 C858 1.378 . S
C856 C860 1.350 . S
C857 C860 1.463 . S
C857 C862 1.350 . S
C857 N865 1.427 . S
C858 H849 0.930 . S
C858 C856 1.378 . S
C858 C859 1.367 . S
C859 C858 1.367 . S
C859 C861 1.433 . S
C860 C856 1.350 . S
C860 C857 1.463 . S
C860 N864 1.427 . S
C861 H851 0.929 . S
C861 C859 1.433 . S
C861 N864 1.384 . S
C862 H853 0.929 . S
C862 C854 1.378 . S
C862 C857 1.350 . S
C863 H850 0.929 . S
C863 C855 1.433 . S
C863 N865 1.384 . S
N864 C860 1.427 . S
N864 C861 1.384 . S
N865 C857 1.427 . S
N865 C863 1.384 . S
H866 C872 0.930 . S
H867 C876 0.930 . S
H868 C881 0.929 . S
H869 C879 0.929 . S
H870 C874 0.929 . S
H871 C880 0.929 . S
C872 H866 0.930 . S
C872 C873 1.367 . S
C872 C880 1.378 . S
C873 C872 1.367 . S
C873 C881 1.433 . S
C874 H870 0.929 . S
C874 C876 1.378 . S
C874 C878 1.350 . S
C875 C878 1.463 . S
C875 C880 1.350 . S
C875 N883 1.427 . S
C876 H867 0.930 . S
C876 C874 1.378 . S
C876 C877 1.367 . S
C877 C876 1.367 . S
C877 C879 1.433 . S
C878 C874 1.350 . S
C878 C875 1.463 . S
C878 N882 1.427 . S
C879 H869 0.929 . S
C879 C877 1.433 . S
C879 N882 1.384 . S
C880 H871 0.929 . S
C880 C872 1.378 . S
C880 C875 1.350 . S
C881 H868 0.929 . S
C881 C873 1.433 . S
C881 N883 1.384 . S
N882 C878 1.427 . S
N882 C879 1.384 . S
N883 C875 1.427 . S
N883 C881 1.384 . S
H884 C890 0.930 . S
H885 C894 0.930 . S
H886 C899 0.929 . S
H887 C897 0.929 . S
H888 C892 0.929 . S
H889 C898 0.929 . S
C890 H884 0.930 . S
C890 C891 1.367 . S
C890 C898 1.378 . S
C891 C890 1.367 . S
C891 C899 1.433 . S
C892 H888 0.929 . S
C892 C894 1.378 . S
C892 C896 1.350 . S
C893 C896 1.463 . S
C893 C898 1.350 . S
C893 N901 1.427 . S
C894 H885 0.930 . S
C894 C892 1.378 . S
C894 C895 1.367 . S
C895 C894 1.367 . S
C895 C897 1.433 . S
C896 C892 1.350 . S
C896 C893 1.463 . S
C896 N900 1.427 . S
C897 H887 0.929 . S
C897 C895 1.433 . S
C897 N900 1.384 . S
C898 H889 0.929 . S
C898 C890 1.378 . S
C898 C893 1.350 . S
C899 H886 0.929 . S
C899 C891 1.433 . S
C899 N901 1.384 . S
N900 C896 1.427 . S
N900 C897 1.384 . S
N901 C893 1.427 . S
N901 C899 1.384 . S
H902 C908 0.930 . S
H903 C912 0.930 . S
H904 C917 0.929 . S
H905 C915 0.929 . S
H906 C910 0.929 . S
H907 C916 0.929 . S
C908 H902 0.930 . S
C908 C909 1.367 . S
C908 C916 1.378 . S
C909 C908 1.367 . S
C909 C917 1.433 . S
C910 H906 0.929 . S
C910 C912 1.378 . S
C910 C914 1.350 . S
C911 C914 1.463 . S
C911 C916 1.350 . S
C911 N919 1.427 . S
C912 H903 0.930 . S
C912 C910 1.378 . S
C912 C913 1.367 . S
C913 C912 1.367 . S
C913 C915 1.433 . S
C914 C910 1.350 . S
C914 C911 1.463 . S
C914 N918 1.427 . S
C915 H905 0.929 . S
C915 C913 1.433 . S
C915 N918 1.384 . S
C916 H907 0.929 . S
C916 C908 1.378 . S
C916 C911 1.350 . S
C917 H904 0.929 . S
C917 C909 1.433 . S
C917 N919 1.384 . S
N918 C914 1.427 . S
N918 C915 1.384 . S
N919 C911 1.427 . S
N919 C917 1.384 . S
H920 C926 0.930 . S
H921 C930 0.930 . S
H922 C935 0.929 . S
H923 C933 0.929 . S
H924 C928 0.929 . S
H925 C934 0.929 . S
C926 H920 0.930 . S
C926 C927 1.367 . S
C926 C934 1.378 . S
C927 C926 1.367 . S
C927 C935 1.433 . S
C928 H924 0.929 . S
C928 C930 1.378 . S
C928 C932 1.350 . S
C929 C932 1.463 . S
C929 C934 1.350 . S
C929 N937 1.427 . S
C930 H921 0.930 . S
C930 C928 1.378 . S
C930 C931 1.367 . S
C931 C930 1.367 . S
C931 C933 1.433 . S
C932 C928 1.350 . S
C932 C929 1.463 . S
C932 N936 1.427 . S
C933 H923 0.929 . S
C933 C931 1.433 . S
C933 N936 1.384 . S
C934 H925 0.929 . S
C934 C926 1.378 . S
C934 C929 1.350 . S
C935 H922 0.929 . S
C935 C927 1.433 . S
C935 N937 1.384 . S
N936 C932 1.427 . S
N936 C933 1.384 . S
N937 C929 1.427 . S
N937 C935 1.384 . S
H938 C944 0.930 . S
H939 C948 0.930 . S
H940 C953 0.929 . S
H941 C951 0.929 . S
H942 C946 0.929 . S
H943 C952 0.929 . S
C944 H938 0.930 . S
C944 C945 1.367 . S
C944 C952 1.378 . S
C945 C944 1.367 . S
C945 C953 1.433 . S
C946 H942 0.929 . S
C946 C948 1.378 . S
C946 C950 1.350 . S
C947 C950 1.463 . S
C947 C952 1.350 . S
C947 N955 1.427 . S
C948 H939 0.930 . S
C948 C946 1.378 . S
C948 C949 1.367 . S
C949 C948 1.367 . S
C949 C951 1.433 . S
C950 C946 1.350 . S
C950 C947 1.463 . S
C950 N954 1.427 . S
C951 H941 0.929 . S
C951 C949 1.433 . S
C951 N954 1.384 . S
C952 H943 0.929 . S
C952 C944 1.378 . S
C952 C947 1.350 . S
C953 H940 0.929 . S
C953 C945 1.433 . S
C953 N955 1.384 . S
N954 C950 1.427 . S
N954 C951 1.384 . S
N955 C947 1.427 . S
N955 C953 1.384 . S
H956 C962 0.930 . S
H957 C966 0.930 . S
H958 C971 0.929 . S
H959 C969 0.929 . S
H960 C964 0.929 . S
H961 C970 0.929 . S
C962 H956 0.930 . S
C962 C963 1.367 . S
C962 C970 1.378 . S
C963 C962 1.367 . S
C963 C971 1.433 . S
C964 H960 0.929 . S
C964 C966 1.378 . S
C964 C968 1.350 . S
C965 C968 1.463 . S
C965 C970 1.350 . S
C965 N973 1.427 . S
C966 H957 0.930 . S
C966 C964 1.378 . S
C966 C967 1.367 . S
C967 C966 1.367 . S
C967 C969 1.433 . S
C968 C964 1.350 . S
C968 C965 1.463 . S
C968 N972 1.427 . S
C969 H959 0.929 . S
C969 C967 1.433 . S
C969 N972 1.384 . S
C970 H961 0.929 . S
C970 C962 1.378 . S
C970 C965 1.350 . S
C971 H958 0.929 . S
C971 C963 1.433 . S
C971 N973 1.384 . S
N972 C968 1.427 . S
N972 C969 1.384 . S
N973 C965 1.427 . S
N973 C971 1.384 . S
H974 C980 0.930 . S
H975 C984 0.930 . S
H976 C989 0.929 . S
H977 C987 0.929 . S
H978 C982 0.929 . S
H979 C988 0.929 . S
C980 H974 0.930 . S
C980 C981 1.367 . S
C980 C988 1.378 . S
C981 C980 1.367 . S
C981 C989 1.433 . S
C982 H978 0.929 . S
C982 C984 1.378 . S
C982 C986 1.350 . S
C983 C986 1.463 . S
C983 C988 1.350 . S
C983 N991 1.427 . S
C984 H975 0.930 . S
C984 C982 1.378 . S
C984 C985 1.367 . S
C985 C984 1.367 . S
C985 C987 1.433 . S
C986 C982 1.350 . S
C986 C983 1.463 . S
C986 N990 1.427 . S
C987 H977 0.929 . S
C987 C985 1.433 . S
C987 N990 1.384 . S
C988 H979 0.929 . S
C988 C980 1.378 . S
C988 C983 1.350 . S
C989 H976 0.929 . S
C989 C981 1.433 . S
C989 N991 1.384 . S
N990 C986 1.427 . S
N990 C987 1.384 . S
N991 C983 1.427 . S
N991 C989 1.384 . S
C711 C57 0.711 . S
C715 C233 0.703 . S
C729 C137 0.674 . S
C733 C293 0.679 . S
C747 C372 0.674 . S
C751 C557 0.678 . S
C765 C489 0.703 . S
C769 C645 0.699 . S
C783 C29 1.891 . S
C787 C469 1.917 . S
C801 C117 1.921 . S
C805 C585 1.894 . S
C819 C665 1.917 . S
C823 C205 1.901 . S
C837 C313 1.916 . S
C841 C401 1.891 . S
C855 C409 1.781 . S
C859 C49 1.897 . S
C873 C108 1.859 . S
C877 C497 1.749 . S
C891 C225 1.897 . S
C895 C577 1.781 . S
C909 C321 1.860 . S
C913 C636 1.752 . S
C927 C20 1.792 . S
C931 C381 1.902 . S
C945 C460 1.866 . S
C949 C145 1.760 . S
C963 C548 1.905 . S
C967 C196 1.796 . S
C981 C284 1.763 . S
C985 C673 1.868 . S
