# Generated by pormake.
# Topology som, (6)-cn, num edge types: 1
# Building blocks:
#     Node 0, Type 0, BuildingBlock: INOVEN_clean_sbu_0, # of connection points: 6
#     Node 1, Type 0, BuildingBlock: INOVEN_clean_sbu_0, # of connection points: 6
#     Node 2, Type 0, BuildingBlock: INOVEN_clean_sbu_0, # of connection points: 6
#     Node 3, Type 0, BuildingBlock: INOVEN_clean_sbu_0, # of connection points: 6
#     Node 4, Type 0, BuildingBlock: INOVEN_clean_sbu_0, # of connection points: 6
#     Node 5, Type 0, BuildingBlock: INOVEN_clean_sbu_0, # of connection points: 6
#     Node 6, Type 0, BuildingBlock: INOVEN_clean_sbu_0, # of connection points: 6
#     Node 7, Type 0, BuildingBlock: INOVEN_clean_sbu_0, # of connection points: 6
#     Node 8, Type 0, BuildingBlock: INOVEN_clean_sbu_0, # of connection points: 6
#     Node 9, Type 0, BuildingBlock: INOVEN_clean_sbu_0, # of connection points: 6
#     Node 10, Type 0, BuildingBlock: INOVEN_clean_sbu_0, # of connection points: 6
#     Node 11, Type 0, BuildingBlock: INOVEN_clean_sbu_0, # of connection points: 6
#     Node 12, Type 0, BuildingBlock: INOVEN_clean_sbu_0, # of connection points: 6
#     Node 13, Type 0, BuildingBlock: INOVEN_clean_sbu_0, # of connection points: 6
#     Node 14, Type 0, BuildingBlock: INOVEN_clean_sbu_0, # of connection points: 6
#     Node 15, Type 0, BuildingBlock: INOVEN_clean_sbu_0, # of connection points: 6
#     Node 16, Type 0, BuildingBlock: INOVEN_clean_sbu_0, # of connection points: 6
#     Node 17, Type 0, BuildingBlock: INOVEN_clean_sbu_0, # of connection points: 6
#     Node 18, Type 0, BuildingBlock: INOVEN_clean_sbu_0, # of connection points: 6
#     Node 19, Type 0, BuildingBlock: INOVEN_clean_sbu_0, # of connection points: 6
#     Node 20, Type 0, BuildingBlock: INOVEN_clean_sbu_0, # of connection points: 6
#     Node 21, Type 0, BuildingBlock: INOVEN_clean_sbu_0, # of connection points: 6
#     Node 22, Type 0, BuildingBlock: INOVEN_clean_sbu_0, # of connection points: 6
#     Node 23, Type 0, BuildingBlock: INOVEN_clean_sbu_0, # of connection points: 6
#     Node 24, Type 0, BuildingBlock: INOVEN_clean_sbu_0, # of connection points: 6
#     Node 25, Type 0, BuildingBlock: INOVEN_clean_sbu_0, # of connection points: 6
#     Node 26, Type 0, BuildingBlock: INOVEN_clean_sbu_0, # of connection points: 6
#     Node 27, Type 0, BuildingBlock: INOVEN_clean_sbu_0, # of connection points: 6
#     Node 28, Type 0, BuildingBlock: INOVEN_clean_sbu_0, # of connection points: 6
#     Node 29, Type 0, BuildingBlock: INOVEN_clean_sbu_0, # of connection points: 6
#     Node 30, Type 0, BuildingBlock: INOVEN_clean_sbu_0, # of connection points: 6
#     Node 31, Type 0, BuildingBlock: INOVEN_clean_sbu_0, # of connection points: 6
#     Edge 32, Type (0, 0), BuildingBlock: UVAHIK_clean_linker_0, # of connection points: 2
#     Edge 33, Type (0, 0), BuildingBlock: UVAHIK_clean_linker_0, # of connection points: 2
#     Edge 34, Type (0, 0), BuildingBlock: UVAHIK_clean_linker_0, # of connection points: 2
#     Edge 35, Type (0, 0), BuildingBlock: UVAHIK_clean_linker_0, # of connection points: 2
#     Edge 36, Type (0, 0), BuildingBlock: UVAHIK_clean_linker_0, # of connection points: 2
#     Edge 37, Type (0, 0), BuildingBlock: UVAHIK_clean_linker_0, # of connection points: 2
#     Edge 38, Type (0, 0), BuildingBlock: UVAHIK_clean_linker_0, # of connection points: 2
#     Edge 39, Type (0, 0), BuildingBlock: UVAHIK_clean_linker_0, # of connection points: 2
#     Edge 40, Type (0, 0), BuildingBlock: UVAHIK_clean_linker_0, # of connection points: 2
#     Edge 41, Type (0, 0), BuildingBlock: UVAHIK_clean_linker_0, # of connection points: 2
#     Edge 42, Type (0, 0), BuildingBlock: UVAHIK_clean_linker_0, # of connection points: 2
#     Edge 43, Type (0, 0), BuildingBlock: UVAHIK_clean_linker_0, # of connection points: 2
#     Edge 44, Type (0, 0), BuildingBlock: UVAHIK_clean_linker_0, # of connection points: 2
#     Edge 45, Type (0, 0), BuildingBlock: UVAHIK_clean_linker_0, # of connection points: 2
#     Edge 46, Type (0, 0), BuildingBlock: UVAHIK_clean_linker_0, # of connection points: 2
#     Edge 47, Type (0, 0), BuildingBlock: UVAHIK_clean_linker_0, # of connection points: 2
#     Edge 48, Type (0, 0), BuildingBlock: UVAHIK_clean_linker_0, # of connection points: 2
#     Edge 49, Type (0, 0), BuildingBlock: UVAHIK_clean_linker_0, # of connection points: 2
#     Edge 50, Type (0, 0), BuildingBlock: UVAHIK_clean_linker_0, # of connection points: 2
#     Edge 51, Type (0, 0), BuildingBlock: UVAHIK_clean_linker_0, # of connection points: 2
#     Edge 52, Type (0, 0), BuildingBlock: UVAHIK_clean_linker_0, # of connection points: 2
#     Edge 53, Type (0, 0), BuildingBlock: UVAHIK_clean_linker_0, # of connection points: 2
#     Edge 54, Type (0, 0), BuildingBlock: UVAHIK_clean_linker_0, # of connection points: 2
#     Edge 55, Type (0, 0), BuildingBlock: UVAHIK_clean_linker_0, # of connection points: 2
#     Edge 56, Type (0, 0), BuildingBlock: UVAHIK_clean_linker_0, # of connection points: 2
#     Edge 57, Type (0, 0), BuildingBlock: UVAHIK_clean_linker_0, # of connection points: 2
#     Edge 58, Type (0, 0), BuildingBlock: UVAHIK_clean_linker_0, # of connection points: 2
#     Edge 59, Type (0, 0), BuildingBlock: UVAHIK_clean_linker_0, # of connection points: 2
#     Edge 60, Type (0, 0), BuildingBlock: UVAHIK_clean_linker_0, # of connection points: 2
#     Edge 61, Type (0, 0), BuildingBlock: UVAHIK_clean_linker_0, # of connection points: 2
#     Edge 62, Type (0, 0), BuildingBlock: UVAHIK_clean_linker_0, # of connection points: 2
#     Edge 63, Type (0, 0), BuildingBlock: UVAHIK_clean_linker_0, # of connection points: 2
#     Edge 64, Type (0, 0), BuildingBlock: UVAHIK_clean_linker_0, # of connection points: 2
#     Edge 65, Type (0, 0), BuildingBlock: UVAHIK_clean_linker_0, # of connection points: 2
#     Edge 66, Type (0, 0), BuildingBlock: UVAHIK_clean_linker_0, # of connection points: 2
#     Edge 67, Type (0, 0), BuildingBlock: UVAHIK_clean_linker_0, # of connection points: 2
#     Edge 68, Type (0, 0), BuildingBlock: UVAHIK_clean_linker_0, # of connection points: 2
#     Edge 69, Type (0, 0), BuildingBlock: UVAHIK_clean_linker_0, # of connection points: 2
#     Edge 70, Type (0, 0), BuildingBlock: UVAHIK_clean_linker_0, # of connection points: 2
#     Edge 71, Type (0, 0), BuildingBlock: UVAHIK_clean_linker_0, # of connection points: 2
#     Edge 72, Type (0, 0), BuildingBlock: UVAHIK_clean_linker_0, # of connection points: 2
#     Edge 73, Type (0, 0), BuildingBlock: UVAHIK_clean_linker_0, # of connection points: 2
#     Edge 74, Type (0, 0), BuildingBlock: UVAHIK_clean_linker_0, # of connection points: 2
#     Edge 75, Type (0, 0), BuildingBlock: UVAHIK_clean_linker_0, # of connection points: 2
#     Edge 76, Type (0, 0), BuildingBlock: UVAHIK_clean_linker_0, # of connection points: 2
#     Edge 77, Type (0, 0), BuildingBlock: UVAHIK_clean_linker_0, # of connection points: 2
#     Edge 78, Type (0, 0), BuildingBlock: UVAHIK_clean_linker_0, # of connection points: 2
#     Edge 79, Type (0, 0), BuildingBlock: UVAHIK_clean_linker_0, # of connection points: 2
#     Edge 80, Type (0, 0), BuildingBlock: UVAHIK_clean_linker_0, # of connection points: 2
#     Edge 81, Type (0, 0), BuildingBlock: UVAHIK_clean_linker_0, # of connection points: 2
#     Edge 82, Type (0, 0), BuildingBlock: UVAHIK_clean_linker_0, # of connection points: 2
#     Edge 83, Type (0, 0), BuildingBlock: UVAHIK_clean_linker_0, # of connection points: 2
#     Edge 84, Type (0, 0), BuildingBlock: UVAHIK_clean_linker_0, # of connection points: 2
#     Edge 85, Type (0, 0), BuildingBlock: UVAHIK_clean_linker_0, # of connection points: 2
#     Edge 86, Type (0, 0), BuildingBlock: UVAHIK_clean_linker_0, # of connection points: 2
#     Edge 87, Type (0, 0), BuildingBlock: UVAHIK_clean_linker_0, # of connection points: 2
#     Edge 88, Type (0, 0), BuildingBlock: UVAHIK_clean_linker_0, # of connection points: 2
#     Edge 89, Type (0, 0), BuildingBlock: UVAHIK_clean_linker_0, # of connection points: 2
#     Edge 90, Type (0, 0), BuildingBlock: UVAHIK_clean_linker_0, # of connection points: 2
#     Edge 91, Type (0, 0), BuildingBlock: UVAHIK_clean_linker_0, # of connection points: 2
#     Edge 92, Type (0, 0), BuildingBlock: UVAHIK_clean_linker_0, # of connection points: 2
#     Edge 93, Type (0, 0), BuildingBlock: UVAHIK_clean_linker_0, # of connection points: 2
#     Edge 94, Type (0, 0), BuildingBlock: UVAHIK_clean_linker_0, # of connection points: 2
#     Edge 95, Type (0, 0), BuildingBlock: UVAHIK_clean_linker_0, # of connection points: 2
#     Edge 96, Type (0, 0), BuildingBlock: UVAHIK_clean_linker_0, # of connection points: 2
#     Edge 97, Type (0, 0), BuildingBlock: UVAHIK_clean_linker_0, # of connection points: 2
#     Edge 98, Type (0, 0), BuildingBlock: UVAHIK_clean_linker_0, # of connection points: 2
#     Edge 99, Type (0, 0), BuildingBlock: UVAHIK_clean_linker_0, # of connection points: 2
#     Edge 100, Type (0, 0), BuildingBlock: UVAHIK_clean_linker_0, # of connection points: 2
#     Edge 101, Type (0, 0), BuildingBlock: UVAHIK_clean_linker_0, # of connection points: 2
#     Edge 102, Type (0, 0), BuildingBlock: UVAHIK_clean_linker_0, # of connection points: 2
#     Edge 103, Type (0, 0), BuildingBlock: UVAHIK_clean_linker_0, # of connection points: 2
#     Edge 104, Type (0, 0), BuildingBlock: UVAHIK_clean_linker_0, # of connection points: 2
#     Edge 105, Type (0, 0), BuildingBlock: UVAHIK_clean_linker_0, # of connection points: 2
#     Edge 106, Type (0, 0), BuildingBlock: UVAHIK_clean_linker_0, # of connection points: 2
#     Edge 107, Type (0, 0), BuildingBlock: UVAHIK_clean_linker_0, # of connection points: 2
#     Edge 108, Type (0, 0), BuildingBlock: UVAHIK_clean_linker_0, # of connection points: 2
#     Edge 109, Type (0, 0), BuildingBlock: UVAHIK_clean_linker_0, # of connection points: 2
#     Edge 110, Type (0, 0), BuildingBlock: UVAHIK_clean_linker_0, # of connection points: 2
#     Edge 111, Type (0, 0), BuildingBlock: UVAHIK_clean_linker_0, # of connection points: 2
#     Edge 112, Type (0, 0), BuildingBlock: UVAHIK_clean_linker_0, # of connection points: 2
#     Edge 113, Type (0, 0), BuildingBlock: UVAHIK_clean_linker_0, # of connection points: 2
#     Edge 114, Type (0, 0), BuildingBlock: UVAHIK_clean_linker_0, # of connection points: 2
#     Edge 115, Type (0, 0), BuildingBlock: UVAHIK_clean_linker_0, # of connection points: 2
#     Edge 116, Type (0, 0), BuildingBlock: UVAHIK_clean_linker_0, # of connection points: 2
#     Edge 117, Type (0, 0), BuildingBlock: UVAHIK_clean_linker_0, # of connection points: 2
#     Edge 118, Type (0, 0), BuildingBlock: UVAHIK_clean_linker_0, # of connection points: 2
#     Edge 119, Type (0, 0), BuildingBlock: UVAHIK_clean_linker_0, # of connection points: 2
#     Edge 120, Type (0, 0), BuildingBlock: UVAHIK_clean_linker_0, # of connection points: 2
#     Edge 121, Type (0, 0), BuildingBlock: UVAHIK_clean_linker_0, # of connection points: 2
#     Edge 122, Type (0, 0), BuildingBlock: UVAHIK_clean_linker_0, # of connection points: 2
#     Edge 123, Type (0, 0), BuildingBlock: UVAHIK_clean_linker_0, # of connection points: 2
#     Edge 124, Type (0, 0), BuildingBlock: UVAHIK_clean_linker_0, # of connection points: 2
#     Edge 125, Type (0, 0), BuildingBlock: UVAHIK_clean_linker_0, # of connection points: 2
#     Edge 126, Type (0, 0), BuildingBlock: UVAHIK_clean_linker_0, # of connection points: 2
#     Edge 127, Type (0, 0), BuildingBlock: UVAHIK_clean_linker_0, # of connection points: 2
# Relax obj value: 0.060
# Max RMSD: 0.126
# Mean RMSD: 0.126
data_MOF--net-som--node1-INOVEN_clean_sbu_0--edge1-UVAHIK_clean_linker_0
_symmetry_space_group_name_H-M    P1
_symmetry_Int_Tables_number       1
_symmetry_cell_setting            triclinic
loop_
_symmetry_equiv_pos_as_xyz
'x, y, z'
_cell_length_a     30.441013
_cell_length_b     73.202688
_cell_length_c     146.14063
_cell_angle_alpha  90.000235
_cell_angle_beta   90.021177
_cell_angle_gamma 89.98436
loop_
_atom_site_label
_atom_site_type_symbol
_atom_site_fract_x
_atom_site_fract_y
_atom_site_fract_z
_atom_type_partial_charge
Gd0 Gd 0.9948 0.49583 0.07659 0.0
Gd1 Gd 0.08507 0.47836 0.07785 0.0
C2 C 1.00234 0.45231 0.08026 0.0
C3 C 0.91507 0.50522 0.07248 0.0
C4 C 0.86852 0.4998 0.07362 0.0
C5 C 0.84905 0.49804 0.0823 0.0
C6 C 0.84218 0.49771 0.0658 0.0
C7 C 0.77722 0.49307 0.07528 0.0
C8 C 0.79712 0.49434 0.06661 0.0
C9 C 0.80386 0.49473 0.08311 0.0
C10 C 0.03213 0.49611 0.09343 0.0
C11 C 0.07502 0.52218 0.07409 0.0
C12 C 0.1646 0.46927 0.08234 0.0
C13 C 0.21133 0.47443 0.08123 0.0
C14 C 0.23117 0.47578 0.07257 0.0
C15 C 0.23746 0.47659 0.08907 0.0
C16 C 0.30294 0.48047 0.07966 0.0
C17 C 0.28268 0.47961 0.08831 0.0
C18 C 0.2765 0.47875 0.0718 0.0
C19 C 0.04993 0.47838 0.06078 0.0
O20 O 0.97838 0.46597 0.07713 0.0
O21 O 0.04441 0.45431 0.08227 0.0
O22 O 0.93608 0.51132 0.07968 0.0
O23 O 0.93957 0.49501 0.06718 0.0
O24 O 1.0086 0.50944 0.09024 0.0
O25 O 0.03272 0.48309 0.08782 0.0
O26 O 0.10006 0.50889 0.07739 0.0
O27 O 0.03406 0.51922 0.07163 0.0
O28 O 0.14398 0.46268 0.07521 0.0
O29 O 0.1399 0.47994 0.08736 0.0
O30 O 0.07439 0.4654 0.06402 0.0
O31 O 0.0477 0.49122 0.06651 0.0
H32 H 0.86849 0.49955 0.08846 0.0
H33 H 0.8563 0.49916 0.05904 0.0
H34 H 0.77762 0.49336 0.06043 0.0
H35 H 0.78973 0.49359 0.08989 0.0
H36 H 0.21188 0.47419 0.06639 0.0
H37 H 0.22304 0.47544 0.09582 0.0
H38 H 0.30199 0.48065 0.09451 0.0
H39 H 0.2909 0.47959 0.06504 0.0
Gd40 Gd 0.29261 0.73635 0.07565 0.0
Gd41 Gd 0.20185 0.75305 0.07719 0.0
C42 C 0.28348 0.77988 0.07887 0.0
C43 C 0.3721 0.72725 0.07123 0.0
C44 C 0.41863 0.73294 0.07203 0.0
C45 C 0.44 0.73391 0.08055 0.0
C46 C 0.44317 0.73587 0.06404 0.0
C47 C 0.51019 0.73956 0.07299 0.0
C48 C 0.48834 0.7392 0.0645 0.0
C49 C 0.48528 0.73721 0.08102 0.0
C50 C 0.25773 0.73667 0.09272 0.0
C51 C 0.21357 0.7091 0.07424 0.0
C52 C 0.12264 0.76197 0.08195 0.0
C53 C 0.07578 0.75713 0.08079 0.0
C54 C 0.0556 0.75673 0.07214 0.0
C55 C 0.04988 0.75437 0.08861 0.0
C56 C 0.9839 0.75196 0.07923 0.0
C57 C 1.00453 0.75177 0.08784 0.0
C58 C 1.01013 0.75415 0.07137 0.0
C59 C 0.23445 0.75225 0.05992 0.0
O60 O 0.30754 0.7664 0.07559 0.0
O61 O 0.24216 0.77737 0.08133 0.0
O62 O 0.35225 0.72142 0.07861 0.0
O63 O 0.34655 0.73701 0.06592 0.0
O64 O 0.28156 0.72342 0.08956 0.0
O65 O 0.25564 0.74937 0.08694 0.0
O66 O 0.18809 0.72244 0.07732 0.0
O67 O 0.25402 0.71217 0.07147 0.0
O68 O 0.14317 0.76911 0.07495 0.0
O69 O 0.14723 0.75079 0.08671 0.0
O70 O 0.20983 0.76521 0.06311 0.0
O71 O 0.23815 0.73978 0.06581 0.0
H72 H 0.42207 0.73164 0.08685 0.0
H73 H 0.42755 0.73513 0.05738 0.0
H74 H 0.50627 0.74128 0.05819 0.0
H75 H 0.501 0.73723 0.08767 0.0
H76 H 0.07469 0.75888 0.06598 0.0
H77 H 0.06463 0.75466 0.09536 0.0
H78 H 0.98554 0.74978 0.09403 0.0
H79 H 0.99537 0.75452 0.06463 0.0
Gd80 Gd 1.00054 0.73621 0.19729 0.0
Gd81 Gd 0.0915 0.75277 0.19587 0.0
C82 C 1.01014 0.77976 0.19413 0.0
C83 C 0.92086 0.72723 0.20161 0.0
C84 C 0.87444 0.73289 0.20065 0.0
C85 C 0.85506 0.73582 0.19204 0.0
C86 C 0.84809 0.73395 0.20851 0.0
C87 C 0.78317 0.73971 0.19918 0.0
C88 C 0.80302 0.73737 0.2078 0.0
C89 C 0.80987 0.73917 0.19132 0.0
C90 C 0.03586 0.73658 0.18026 0.0
C91 C 0.07932 0.70884 0.19879 0.0
C92 C 0.17095 0.76158 0.19123 0.0
C93 C 0.21763 0.75653 0.19244 0.0
C94 C 0.23654 0.75438 0.20116 0.0
C95 C 0.24457 0.75523 0.18469 0.0
C96 C 0.30911 0.75062 0.19429 0.0
C97 C 0.28975 0.75227 0.18559 0.0
C98 C 0.28185 0.75147 0.20207 0.0
C99 C 0.05836 0.75198 0.2131 0.0
O100 O 0.98584 0.76629 0.19734 0.0
O101 O 0.05156 0.77723 0.19174 0.0
O102 O 0.94105 0.72122 0.1943 0.0
O103 O 0.9461 0.73716 0.2069 0.0
O104 O 1.01177 0.72336 0.18336 0.0
O105 O 0.03794 0.74924 0.18605 0.0
O106 O 0.10501 0.72214 0.19575 0.0
O107 O 0.03882 0.71198 0.20151 0.0
O108 O 0.15036 0.76861 0.19826 0.0
O109 O 0.14632 0.75054 0.1864 0.0
O110 O 0.08315 0.76492 0.20995 0.0
O111 O 0.05474 0.73953 0.20719 0.0
H112 H 0.87456 0.73514 0.18586 0.0
H113 H 0.8622 0.7316 0.21522 0.0
H114 H 0.78345 0.73749 0.21398 0.0
H115 H 0.79575 0.74117 0.18459 0.0
H116 H 0.21654 0.75528 0.20727 0.0
H117 H 0.2308 0.75699 0.1779 0.0
H118 H 0.30972 0.75192 0.17946 0.0
H119 H 0.29557 0.75 0.20887 0.0
Gd120 Gd 0.29741 0.49569 0.19722 0.0
Gd121 Gd 0.2078 0.47799 0.19613 0.0
C122 C 0.2907 0.45214 0.19362 0.0
C123 C 0.37731 0.50532 0.20104 0.0
C124 C 0.42389 0.49982 0.19981 0.0
C125 C 0.44739 0.50486 0.19192 0.0
C126 C 0.44652 0.49104 0.20695 0.0
C127 C 0.51543 0.49315 0.19851 0.0
C128 C 0.49167 0.48769 0.2063 0.0
C129 C 0.49257 0.50151 0.19127 0.0
C130 C 0.25939 0.49596 0.18044 0.0
C131 C 0.21701 0.52183 0.19988 0.0
C132 C 0.12809 0.4687 0.19188 0.0
C133 C 0.08132 0.47389 0.19311 0.0
C134 C 0.05806 0.46892 0.20105 0.0
C135 C 0.05831 0.48225 0.1859 0.0
C136 C 0.98948 0.47986 0.19436 0.0
C137 C 1.01301 0.48526 0.18652 0.0
C138 C 1.01274 0.47191 0.20167 0.0
C139 C 0.24353 0.47807 0.21314 0.0
O140 O 0.31445 0.46588 0.19672 0.0
O141 O 0.24859 0.45403 0.19164 0.0
O142 O 0.35582 0.5112 0.19386 0.0
O143 O 0.35298 0.49537 0.2065 0.0
O144 O 0.28243 0.5094 0.18366 0.0
O145 O 0.25943 0.48286 0.18601 0.0
O146 O 0.19217 0.50847 0.19658 0.0
O147 O 0.25807 0.51896 0.20229 0.0
O148 O 0.14924 0.46219 0.19896 0.0
O149 O 0.15258 0.47923 0.18674 0.0
O150 O 0.2195 0.46496 0.2099 0.0
O151 O 0.2452 0.49096 0.20743 0.0
H152 H 0.43121 0.51189 0.18633 0.0
H153 H 0.42954 0.48714 0.21316 0.0
H154 H 0.50807 0.481 0.21196 0.0
H155 H 0.50986 0.50611 0.18521 0.0
H156 H 0.07457 0.46222 0.20669 0.0
H157 H 0.07514 0.48607 0.17965 0.0
H158 H 0.99632 0.49165 0.18081 0.0
H159 H 0.99568 0.46737 0.20776 0.0
Gd160 Gd 0.95319 0.50215 0.94618 0.0
Gd161 Gd 0.04406 0.48552 0.94781 0.0
C162 C 0.96506 0.45827 0.94932 0.0
C163 C 0.87406 0.51093 0.9413 0.0
C164 C 0.8272 0.50613 0.94247 0.0
C165 C 0.80733 0.50537 0.95114 0.0
C166 C 0.80105 0.50375 0.93465 0.0
C167 C 0.73536 0.50101 0.94409 0.0
C168 C 0.7557 0.50117 0.93545 0.0
C169 C 0.76186 0.50282 0.95194 0.0
C170 C 0.9854 0.50159 0.96348 0.0
C171 C 0.03474 0.52902 0.9445 0.0
C172 C 0.12357 0.47644 0.95224 0.0
C173 C 0.17012 0.48209 0.95146 0.0
C174 C 0.19132 0.48343 0.94294 0.0
C175 C 0.19485 0.48462 0.95947 0.0
C176 C 0.26171 0.48863 0.95051 0.0
C177 C 0.24004 0.48791 0.959 0.0
C178 C 0.23662 0.48668 0.94247 0.0
C179 C 1.00899 0.4857 0.93074 0.0
O180 O 0.93961 0.47154 0.94615 0.0
O181 O 1.00547 0.46142 0.95209 0.0
O182 O 0.89451 0.51828 0.94826 0.0
O183 O 0.89869 0.49958 0.93665 0.0
O184 O 0.96056 0.51443 0.96024 0.0
O185 O 0.98958 0.48906 0.95763 0.0
O186 O 0.05886 0.51559 0.94783 0.0
O187 O 0.99347 0.52645 0.94201 0.0
O188 O 0.10374 0.47061 0.94485 0.0
O189 O 0.09804 0.48622 0.95754 0.0
O190 O 0.03277 0.47244 0.93392 0.0
O191 O 1.00715 0.49842 0.93649 0.0
H192 H 0.82666 0.50721 0.9573 0.0
H193 H 0.81559 0.50431 0.92789 0.0
H194 H 0.7365 0.49948 0.92927 0.0
H195 H 0.74732 0.5029 0.9587 0.0
H196 H 0.17322 0.48147 0.93663 0.0
H197 H 0.17935 0.4836 0.96612 0.0
H198 H 0.25811 0.48967 0.96533 0.0
H199 H 0.25221 0.48699 0.93581 0.0
Gd200 Gd 0.83978 0.22725 0.94617 0.0
Gd201 Gd 0.74917 0.24398 0.94757 0.0
C202 C 0.8283 0.27105 0.94958 0.0
C203 C 0.91918 0.21848 0.94149 0.0
C204 C 0.96598 0.2234 0.94275 0.0
C205 C 0.98757 0.22075 0.95116 0.0
C206 C 0.99056 0.22921 0.93517 0.0
C207 C 0.05786 0.22871 0.94421 0.0
C208 C 0.0359 0.2319 0.93589 0.0
C209 C 0.033 0.2234 0.95188 0.0
C210 C 0.80645 0.2276 0.96337 0.0
C211 C 0.75825 0.2005 0.94419 0.0
C212 C 0.66935 0.25306 0.95174 0.0
C213 C 0.62292 0.24732 0.95068 0.0
C214 C 0.60042 0.24957 0.94234 0.0
C215 C 0.59949 0.24113 0.95835 0.0
C216 C 0.53153 0.24041 0.94953 0.0
C217 C 0.5544 0.23765 0.95778 0.0
C218 C 0.55527 0.24612 0.94177 0.0
C219 C 0.78533 0.24406 0.93061 0.0
O220 O 0.8537 0.25785 0.94633 0.0
O221 O 0.78772 0.26785 0.95222 0.0
O222 O 0.89839 0.21113 0.9484 0.0
O223 O 0.89463 0.22971 0.93675 0.0
O224 O 0.83137 0.21475 0.96016 0.0
O225 O 0.80283 0.2402 0.95755 0.0
O226 O 0.73402 0.21395 0.94745 0.0
O227 O 0.79972 0.203 0.94185 0.0
O228 O 0.68995 0.25913 0.94449 0.0
O229 O 0.69444 0.24316 0.95707 0.0
O230 O 0.76168 0.25734 0.9338 0.0
O231 O 0.7866 0.23119 0.93629 0.0
H232 H 0.96967 0.21614 0.95713 0.0
H233 H 0.97484 0.23125 0.92859 0.0
H234 H 0.05385 0.23628 0.92988 0.0
H235 H 0.04883 0.22065 0.95837 0.0
H236 H 0.61733 0.25449 0.93631 0.0
H237 H 0.61584 0.2394 0.96488 0.0
H238 H 0.53734 0.233 0.96385 0.0
H239 H 0.53869 0.24859 0.93533 0.0
Gd240 Gd 0.95146 0.22886 0.82746 0.0
Gd241 Gd 0.0425 0.24537 0.826 0.0
C242 C 0.96378 0.27279 0.82454 0.0
C243 C 0.87216 0.22007 0.83223 0.0
C244 C 0.82543 0.22508 0.83112 0.0
C245 C 0.80682 0.2285 0.82248 0.0
C246 C 0.79821 0.22513 0.83886 0.0
C247 C 0.73392 0.23103 0.82935 0.0
C248 C 0.75302 0.22809 0.838 0.0
C249 C 0.76149 0.23143 0.82161 0.0
C250 C 0.9841 0.22962 0.8102 0.0
C251 C 0.03283 0.20183 0.82911 0.0
C252 C 0.12217 0.25443 0.82169 0.0
C253 C 0.1686 0.24875 0.82258 0.0
C254 C 0.18739 0.24449 0.8311 0.0
C255 C 0.19548 0.24899 0.81479 0.0
C256 C 0.25982 0.24183 0.82405 0.0
C257 C 0.24054 0.24553 0.8155 0.0
C258 C 0.23257 0.24109 0.83183 0.0
C259 C 1.00712 0.24496 0.84304 0.0
O260 O 0.93809 0.2595 0.8276 0.0
O261 O 1.00423 0.26963 0.8218 0.0
O262 O 0.89241 0.2131 0.82514 0.0
O263 O 0.89698 0.23109 0.83702 0.0
O264 O 0.95921 0.21674 0.81338 0.0
O265 O 0.9882 0.24208 0.81611 0.0
O266 O 0.0571 0.2153 0.82588 0.0
O267 O 0.99147 0.20439 0.83155 0.0
O268 O 0.10212 0.26022 0.82906 0.0
O269 O 0.09686 0.24462 0.81636 0.0
O270 O 0.03109 0.25822 0.83994 0.0
O271 O 1.00526 0.23233 0.83723 0.0
H272 H 0.8271 0.22859 0.8164 0.0
H273 H 0.81179 0.22239 0.84558 0.0
H274 H 0.73284 0.22745 0.84409 0.0
H275 H 0.74799 0.2339 0.81487 0.0
H276 H 0.16741 0.24414 0.83723 0.0
H277 H 0.18179 0.25236 0.80815 0.0
H278 H 0.26051 0.24643 0.80939 0.0
H279 H 0.24625 0.23804 0.8385 0.0
Gd280 Gd 0.83718 0.50377 0.82786 0.0
Gd281 Gd 0.74694 0.4863 0.82661 0.0
C282 C 0.82717 0.45996 0.82406 0.0
C283 C 0.91666 0.5128 0.8324 0.0
C284 C 0.96341 0.50768 0.83128 0.0
C285 C 0.98334 0.50655 0.82262 0.0
C286 C 0.98947 0.50532 0.83912 0.0
C287 C 0.05506 0.50169 0.82972 0.0
C288 C 0.03471 0.50232 0.83835 0.0
C289 C 0.02869 0.5036 0.82185 0.0
C290 C 0.80228 0.50377 0.81079 0.0
C291 C 0.75441 0.52982 0.83026 0.0
C292 C 0.66716 0.47687 0.82257 0.0
C293 C 0.62063 0.48232 0.82373 0.0
C294 C 0.60111 0.4839 0.83241 0.0
C295 C 0.59433 0.48461 0.81592 0.0
C296 C 0.52935 0.48909 0.8254 0.0
C297 C 0.54929 0.488 0.81674 0.0
C298 C 0.55594 0.48723 0.83324 0.0
C299 C 0.78458 0.48599 0.84343 0.0
O300 O 0.8522 0.47324 0.82737 0.0
O301 O 0.78621 0.46294 0.8216 0.0
O302 O 0.89606 0.5195 0.82529 0.0
O303 O 0.89197 0.50206 0.83737 0.0
O304 O 0.82687 0.51671 0.81403 0.0
O305 O 0.79973 0.49093 0.81652 0.0
O306 O 0.73048 0.51615 0.82713 0.0
O307 O 0.79648 0.52783 0.83226 0.0
O308 O 0.68828 0.47084 0.82977 0.0
O309 O 0.69159 0.48701 0.81723 0.0
O310 O 0.76122 0.47262 0.84023 0.0
O311 O 0.7848 0.49903 0.83783 0.0
H312 H 0.96412 0.50829 0.81645 0.0
H313 H 0.97498 0.5063 0.84587 0.0
H314 H 0.05396 0.50114 0.84456 0.0
H315 H 0.04315 0.50293 0.81509 0.0
H316 H 0.6205 0.48223 0.83857 0.0
H317 H 0.60848 0.48329 0.80915 0.0
H318 H 0.52982 0.48914 0.81056 0.0
H319 H 0.54177 0.48823 0.84001 0.0
Gd320 Gd 0.99636 -0.00423 0.57744 0.0
Gd321 Gd 0.08619 0.97831 0.57835 0.0
C322 C 1.00379 0.9522 0.58078 0.0
C323 C 0.91632 0.00538 0.57374 0.0
C324 C 0.86986 -0.0003 0.57493 0.0
C325 C 0.84509 0.00628 0.58236 0.0
C326 C 0.84858 0.98922 0.56819 0.0
C327 C 0.77849 -0.00735 0.57609 0.0
C328 C 0.80347 0.9857 0.56878 0.0
C329 C 0.80002 0.00274 0.58295 0.0
C330 C 0.03455 -0.00425 0.59419 0.0
C331 C 0.07617 0.02226 0.57509 0.0
C332 C 0.16607 0.96898 0.58243 0.0
C333 C 0.21279 0.9741 0.58106 0.0
C334 C 0.23644 0.96761 0.57346 0.0
C335 C 0.23541 0.98391 0.58786 0.0
C336 C 0.30458 0.97998 0.57968 0.0
C337 C 0.2807 0.98686 0.58716 0.0
C338 C 0.28173 0.97056 0.57276 0.0
C339 C 0.05029 0.9788 0.56136 0.0
O340 O 0.97979 0.96592 0.57773 0.0
O341 O 0.04584 0.9542 0.58277 0.0
O342 O 0.93769 0.01093 0.58099 0.0
O343 O 0.94085 -0.0042 0.56815 0.0
O344 O 1.01121 0.00919 0.59106 0.0
O345 O 0.03471 0.98277 0.58855 0.0
O346 O 0.10147 0.00882 0.57813 0.0
O347 O 0.03513 0.01941 0.57267 0.0
O348 O 0.14453 0.96245 0.57541 0.0
O349 O 0.14187 0.97955 0.58761 0.0
O350 O 0.07446 0.96564 0.5645 0.0
O351 O 0.0485 -0.00846 0.56715 0.0
H352 H 0.86023 0.01465 0.58759 0.0
H353 H 0.86652 0.9841 0.56233 0.0
H354 H 0.78806 0.9777 0.56343 0.0
H355 H 0.78174 0.00852 0.58861 0.0
H356 H 0.22025 0.95975 0.56816 0.0
H357 H 0.21832 0.98892 0.59386 0.0
H358 H 0.29711 -0.00562 0.59255 0.0
H359 H 0.29908 0.96484 0.56696 0.0
Gd360 Gd 0.29701 0.23532 0.57645 0.0
Gd361 Gd 0.20681 0.25271 0.57772 0.0
C362 C 0.28939 0.27885 0.58006 0.0
C363 C 0.37676 0.22595 0.57236 0.0
C364 C 0.42334 0.23132 0.57353 0.0
C365 C 0.44301 0.23261 0.58221 0.0
C366 C 0.44953 0.23379 0.56572 0.0
C367 C 0.51472 0.23786 0.5752 0.0
C368 C 0.49463 0.23707 0.56654 0.0
C369 C 0.48823 0.23583 0.58304 0.0
C370 C 0.25994 0.23516 0.59332 0.0
C371 C 0.21707 0.20887 0.57403 0.0
C372 C 0.12723 0.26172 0.5822 0.0
C373 C 0.08054 0.25652 0.58106 0.0
C374 C 0.06062 0.25552 0.57239 0.0
C375 C 0.0545 0.25397 0.58887 0.0
C376 C 0.98897 0.2504 0.57944 0.0
C377 C 1.0093 0.2509 0.58809 0.0
C378 C 1.01532 0.25251 0.57159 0.0
C379 C 0.24159 0.25263 0.56063 0.0
O380 O 0.31333 0.26519 0.57692 0.0
O381 O 0.24739 0.27682 0.5821 0.0
O382 O 0.35568 0.21979 0.57953 0.0
O383 O 0.35232 0.23622 0.56707 0.0
O384 O 0.28339 0.2218 0.59013 0.0
O385 O 0.25925 0.24813 0.58769 0.0
O386 O 0.192 0.22215 0.57732 0.0
O387 O 0.25791 0.21188 0.57151 0.0
O388 O 0.14788 0.26839 0.5751 0.0
O389 O 0.15195 0.25103 0.58721 0.0
O390 O 0.21726 0.26563 0.56388 0.0
O391 O 0.24399 0.2398 0.56637 0.0
H392 H 0.42371 0.23079 0.58837 0.0
H393 H 0.43527 0.23269 0.55895 0.0
H394 H 0.51401 0.23834 0.56036 0.0
H395 H 0.50252 0.2366 0.58981 0.0
H396 H 0.07982 0.25742 0.56622 0.0
H397 H 0.06897 0.25485 0.59564 0.0
H398 H 0.99005 0.24956 0.59428 0.0
H399 H 1.00086 0.25195 0.56483 0.0
Gd400 Gd 0.99546 0.23629 0.69715 0.0
Gd401 Gd 0.08568 0.25381 0.69593 0.0
C402 C 1.00284 0.27983 0.69353 0.0
C403 C 0.91579 0.22685 0.70127 0.0
C404 C 0.86923 0.23233 0.70021 0.0
C405 C 0.8499 0.23489 0.69157 0.0
C406 C 0.84275 0.23367 0.70804 0.0
C407 C 0.7779 0.2391 0.69863 0.0
C408 C 0.79768 0.23706 0.70727 0.0
C409 C 0.8047 0.23821 0.69079 0.0
C410 C 0.03278 0.23606 0.68032 0.0
C411 C 0.07574 0.20991 0.69946 0.0
C412 C 0.16521 0.263 0.6915 0.0
C413 C 0.21196 0.25783 0.69258 0.0
C414 C 0.23155 0.25582 0.70124 0.0
C415 C 0.23833 0.25631 0.68474 0.0
C416 C 0.30357 0.25174 0.69416 0.0
C417 C 0.28355 0.25327 0.68551 0.0
C418 C 0.27689 0.25282 0.70201 0.0
C419 C 0.05055 0.25362 0.71299 0.0
O420 O 0.97894 0.26614 0.69663 0.0
O421 O 0.04494 0.27789 0.69155 0.0
O422 O 0.93659 0.22097 0.694 0.0
O423 O 0.94046 0.23688 0.70662 0.0
O424 O 1.00923 0.22274 0.6835 0.0
O425 O 0.03338 0.24909 0.68593 0.0
O426 O 0.1008 0.2233 0.69628 0.0
O427 O 0.03479 0.21279 0.70195 0.0
O428 O 0.14461 0.26941 0.69867 0.0
O429 O 0.14052 0.25246 0.68642 0.0
O430 O 0.07484 0.26667 0.70977 0.0
O431 O 0.0484 0.24082 0.70724 0.0
H432 H 0.86947 0.23397 0.6854 0.0
H433 H 0.85679 0.23161 0.71478 0.0
H434 H 0.77807 0.23744 0.71345 0.0
H435 H 0.79066 0.23996 0.68403 0.0
H436 H 0.21206 0.2569 0.70741 0.0
H437 H 0.22408 0.25798 0.678 0.0
H438 H 0.30304 0.25275 0.67932 0.0
H439 H 0.29109 0.25146 0.70877 0.0
Gd440 Gd 0.29444 -0.00433 0.69851 0.0
Gd441 Gd 0.20331 0.97923 0.69695 0.0
C442 C 0.28457 0.9522 0.6951 0.0
C443 C 0.37405 0.00458 0.70294 0.0
C444 C 0.42053 -0.00095 0.70197 0.0
C445 C 0.4392 -0.00489 0.69339 0.0
C446 C 0.44754 -0.00093 0.70974 0.0
C447 C 0.51176 -0.00769 0.70038 0.0
C448 C 0.4926 -0.0043 0.70898 0.0
C449 C 0.4844 -0.0082 0.69261 0.0
C450 C 0.25922 -0.00432 0.68146 0.0
C451 C 0.21565 0.02304 0.70024 0.0
C452 C 0.12394 0.97059 0.69216 0.0
C453 C 0.07726 0.97567 0.69327 0.0
C454 C 0.05865 0.97897 0.70191 0.0
C455 C 0.05008 0.9759 0.68552 0.0
C456 C 0.98581 0.98171 0.69504 0.0
C457 C 1.00491 0.97891 0.68638 0.0
C458 C 1.01334 0.98194 0.70279 0.0
C459 C 0.23636 0.97955 0.71419 0.0
O460 O 0.30899 0.96558 0.69838 0.0
O461 O 0.24316 0.95483 0.69272 0.0
O462 O 0.3539 0.01079 0.69566 0.0
O463 O 0.34889 -0.0056 0.70812 0.0
O464 O 0.28332 0.00883 0.68464 0.0
O465 O 0.25705 0.98293 0.6872 0.0
O466 O 0.19006 0.00988 0.69701 0.0
O467 O 0.25607 0.01973 0.70298 0.0
O468 O 0.14414 0.96353 0.69923 0.0
O469 O 0.14885 0.98161 0.68739 0.0
O470 O 0.21143 0.96673 0.71096 0.0
O471 O 0.24012 -0.00787 0.70836 0.0
H472 H 0.4191 -0.00506 0.68728 0.0
H473 H 0.43393 0.0022 0.71641 0.0
H474 H 0.51267 -0.00358 0.71509 0.0
H475 H 0.49798 0.98898 0.68591 0.0
H476 H 0.07891 0.97892 0.70801 0.0
H477 H 0.06366 0.97326 0.6788 0.0
H478 H 0.98475 0.97841 0.68028 0.0
H479 H 0.99984 0.98431 0.70954 0.0
Gd480 Gd 0.95168 0.00348 0.44689 0.0
Gd481 Gd 0.04271 0.98689 0.44848 0.0
C482 C 0.96376 0.95962 0.45004 0.0
C483 C 0.8724 0.01222 0.44206 0.0
C484 C 0.82566 0.00723 0.44318 0.0
C485 C 0.80695 0.00406 0.45182 0.0
C486 C 0.79851 0.00694 0.43542 0.0
C487 C 0.73413 0.00132 0.44493 0.0
C488 C 0.75331 0.004 0.43628 0.0
C489 C 0.76162 0.00116 0.45269 0.0
C490 C 0.98423 0.00296 0.46416 0.0
C491 C 0.03315 0.0304 0.44515 0.0
C492 C 0.12233 0.97787 0.45287 0.0
C493 C 0.16879 0.98345 0.45191 0.0
C494 C 0.18749 0.98739 0.44334 0.0
C495 C 0.19577 0.98348 0.45969 0.0
C496 C 0.26002 0.99028 0.45034 0.0
C497 C 0.24083 0.98689 0.45893 0.0
C498 C 0.23268 -0.00926 0.44257 0.0
C499 C 1.00748 0.98701 0.43142 0.0
O500 O 0.93832 0.97286 0.44684 0.0
O501 O 1.00412 0.96282 0.45284 0.0
O502 O 0.89263 0.0193 0.44912 0.0
O503 O 0.89724 0.00112 0.43732 0.0
O504 O 0.95936 0.0158 0.46094 0.0
O505 O 0.9883 0.99042 0.45831 0.0
O506 O 0.05738 0.01696 0.44844 0.0
O507 O 0.99178 0.02784 0.44272 0.0
O508 O 0.10217 0.9718 0.44557 0.0
O509 O 0.09714 0.98794 0.4581 0.0
O510 O 0.03142 0.9738 0.43459 0.0
O511 O 1.00559 -0.00025 0.43717 0.0
H512 H 0.82717 0.00416 0.45792 0.0
H513 H 0.81215 0.00948 0.42869 0.0
H514 H 0.73319 0.00445 0.43017 0.0
H515 H 0.74807 -0.00111 0.45945 0.0
H516 H 0.16744 0.98752 0.43722 0.0
H517 H 0.18215 0.98036 0.46636 0.0
H518 H 0.26087 0.98622 0.46505 0.0
H519 H 0.24627 -0.00645 0.43586 0.0
Gd520 Gd 0.83869 0.72858 0.44561 0.0
Gd521 Gd 0.7478 0.74522 0.44717 0.0
C522 C 0.82691 0.7724 0.449 0.0
C523 C 0.91786 0.71986 0.44075 0.0
C524 C 0.9647 0.72466 0.44196 0.0
C525 C 0.98493 0.72456 0.45061 0.0
C526 C 0.99052 0.7279 0.43418 0.0
C527 C 0.05654 0.72979 0.44357 0.0
C528 C 0.03586 0.73048 0.43497 0.0
C529 C 0.03039 0.72711 0.45141 0.0
C530 C 0.80599 0.7289 0.46286 0.0
C531 C 0.75714 0.70175 0.44377 0.0
C532 C 0.66821 0.75426 0.45153 0.0
C533 C 0.62169 0.74858 0.45068 0.0
C534 C 0.60009 0.74818 0.44218 0.0
C535 C 0.59738 0.74507 0.45865 0.0
C536 C 0.53016 0.74193 0.44972 0.0
C537 C 0.55221 0.74173 0.45818 0.0
C538 C 0.55483 0.74487 0.4417 0.0
C539 C 0.78335 0.74525 0.43015 0.0
O540 O 0.85241 0.75919 0.44577 0.0
O541 O 0.78637 0.76918 0.45167 0.0
O542 O 0.89733 0.71242 0.44767 0.0
O543 O 0.89326 0.73125 0.43611 0.0
O544 O 0.83104 0.71612 0.45962 0.0
O545 O 0.80198 0.74149 0.45704 0.0
O546 O 0.73292 0.71516 0.44708 0.0
O547 O 0.79849 0.70431 0.44135 0.0
O548 O 0.6882 0.76017 0.44418 0.0
O549 O 0.69365 0.74444 0.45683 0.0
O550 O 0.75959 0.75849 0.43334 0.0
O551 O 0.78498 0.73245 0.43586 0.0
H552 H 0.9659 0.72204 0.45674 0.0
H553 H 0.97572 0.728 0.42743 0.0
H554 H 0.0548 0.73284 0.42881 0.0
H555 H 0.0452 0.72635 0.45813 0.0
H556 H 0.61784 0.75093 0.4359 0.0
H557 H 0.61315 0.74537 0.4653 0.0
H558 H 0.53446 0.7392 0.46447 0.0
H559 H 0.53892 0.7453 0.43508 0.0
Gd560 Gd 0.95667 0.72735 0.32729 0.0
Gd561 Gd 0.04642 0.74495 0.32617 0.0
C562 C 0.96614 0.77118 0.32354 0.0
C563 C 0.87706 0.71816 0.33165 0.0
C564 C 0.83027 0.72328 0.3304 0.0
C565 C 0.80725 0.71853 0.3224 0.0
C566 C 0.80701 0.73134 0.33766 0.0
C567 C 0.7384 0.72911 0.32911 0.0
C568 C 0.7617 0.73428 0.33701 0.0
C569 C 0.7619 0.72146 0.32175 0.0
C570 C 0.99184 0.72745 0.31025 0.0
C571 C 0.03947 0.70141 0.32973 0.0
C572 C 0.12632 0.75457 0.32237 0.0
C573 C 0.17288 0.74901 0.32357 0.0
C574 C 0.19643 0.75386 0.33149 0.0
C575 C 0.19544 0.74039 0.31638 0.0
C576 C 0.2644 0.74229 0.32482 0.0
C577 C 0.24058 0.73701 0.317 0.0
C578 C 0.2416 0.75048 0.33212 0.0
C579 C 1.00838 0.74519 0.34295 0.0
O580 O 0.94124 0.75785 0.32684 0.0
O581 O 1.00715 0.76826 0.32111 0.0
O582 O 0.89814 0.71142 0.32462 0.0
O583 O 0.90155 0.7289 0.33669 0.0
O584 O 0.96754 0.71442 0.31348 0.0
O585 O 0.99406 0.7403 0.31598 0.0
O586 O 0.06325 0.71512 0.3266 0.0
O587 O 0.99744 0.70337 0.33176 0.0
O588 O 0.10492 0.76036 0.32957 0.0
O589 O 0.1019 0.74473 0.31687 0.0
O590 O 0.03134 0.75866 0.33974 0.0
O591 O 1.00857 0.73212 0.33737 0.0
H592 H 0.82396 0.71208 0.31671 0.0
H593 H 0.82368 0.73498 0.34395 0.0
H594 H 0.74482 0.74044 0.34276 0.0
H595 H 0.74502 0.71709 0.3156 0.0
H596 H 0.18029 0.76076 0.33712 0.0
H597 H 0.17842 0.73664 0.31014 0.0
H598 H 0.25694 0.73045 0.3113 0.0
H599 H 0.25894 0.75494 0.33819 0.0
Gd600 Gd 0.84053 0.00217 0.32798 0.0
Gd601 Gd 0.75026 0.98543 0.32679 0.0
C602 C 0.82904 0.95825 0.32498 0.0
C603 C 0.92024 0.01111 0.33236 0.0
C604 C 0.96698 0.00618 0.33089 0.0
C605 C 0.99024 0.01285 0.32327 0.0
C606 C 0.98999 -0.00366 0.33762 0.0
C607 C 0.0588 0.00063 0.32936 0.0
C608 C 0.0353 -0.00646 0.33684 0.0
C609 C 0.03556 0.01006 0.32251 0.0
C610 C 0.80683 0.00147 0.3108 0.0
C611 C 0.75911 0.02896 0.3299 0.0
C612 C 0.67017 0.97621 0.32291 0.0
C613 C 0.62381 0.98196 0.32415 0.0
C614 C 0.59911 0.97542 0.33158 0.0
C615 C 0.60253 -0.0075 0.31743 0.0
C616 C 0.53258 0.9892 0.32538 0.0
C617 C 0.55748 -0.00389 0.31805 0.0
C618 C 0.55411 0.97905 0.33221 0.0
C619 C 0.78677 0.98579 0.34373 0.0
O620 O 0.85463 0.97157 0.32803 0.0
O621 O 0.78843 0.96136 0.32233 0.0
O622 O 0.89877 0.01838 0.32552 0.0
O623 O 0.89607 -5e-05 0.33722 0.0
O624 O 0.83137 0.01446 0.31398 0.0
O625 O 0.80347 0.98891 0.31666 0.0
O626 O 0.73498 0.01546 0.32667 0.0
O627 O 0.80055 0.02647 0.33227 0.0
O628 O 0.69132 0.97031 0.33013 0.0
O629 O 0.69494 0.98594 0.31744 0.0
O630 O 0.76327 0.97241 0.34062 0.0
O631 O 0.78782 -0.00146 0.33798 0.0
H632 H 0.97373 0.02073 0.31802 0.0
H633 H 0.97317 -0.00881 0.34362 0.0
H634 H 0.05202 0.98599 0.34219 0.0
H635 H 0.05264 0.01592 0.31671 0.0
H636 H 0.61424 0.96701 0.33681 0.0
H637 H 0.62043 -0.00241 0.31155 0.0
H638 H 0.54204 0.00415 0.31272 0.0
H639 H 0.53588 0.97329 0.33788 0.0
Gd640 Gd 0.49978 0.49458 0.57616 0.0
Gd641 Gd 0.59079 0.47792 0.57766 0.0
C642 C 0.50924 0.45104 0.57942 0.0
C643 C 0.4202 0.50364 0.57176 0.0
C644 C 0.37374 0.49801 0.57266 0.0
C645 C 0.35497 0.4938 0.58119 0.0
C646 C 0.34682 0.49822 0.56487 0.0
C647 C 0.2825 0.49113 0.57414 0.0
C648 C 0.30176 0.49478 0.56559 0.0
C649 C 0.30978 0.49043 0.58192 0.0
C650 C 0.53502 0.49435 0.5932 0.0
C651 C 0.57885 0.52183 0.57465 0.0
C652 C 0.67014 0.46903 0.58238 0.0
C653 C 0.71687 0.47405 0.58127 0.0
C654 C 0.73547 0.47746 0.57264 0.0
C655 C 0.74412 0.4741 0.58901 0.0
C656 C 0.80838 0.48 0.57951 0.0
C657 C 0.78931 0.47706 0.58815 0.0
C658 C 0.7808 0.48038 0.57177 0.0
C659 C 0.55768 0.47861 0.56042 0.0
O660 O 0.48499 0.46452 0.57619 0.0
O661 O 0.55068 0.45354 0.58181 0.0
O662 O 0.44021 0.50957 0.5791 0.0
O663 O 0.44551 0.49369 0.5665 0.0
O664 O 0.51094 0.50755 0.59006 0.0
O665 O 0.5371 0.48163 0.58744 0.0
O666 O 0.60438 0.50852 0.57775 0.0
O667 O 0.53835 0.51873 0.57191 0.0
O668 O 0.6498 0.46216 0.57528 0.0
O669 O 0.64537 0.48 0.58722 0.0
O670 O 0.58243 0.46567 0.5636 0.0
O671 O 0.5541 0.4911 0.56631 0.0
H672 H 0.37498 0.49348 0.58732 0.0
H673 H 0.3605 0.50155 0.55823 0.0
H674 H 0.28177 0.49564 0.55947 0.0
H675 H 0.29614 0.48741 0.58859 0.0
H676 H 0.71517 0.47754 0.56655 0.0
H677 H 0.73056 0.47137 0.59573 0.0
H678 H 0.8095 0.47644 0.59425 0.0
H679 H 0.79427 0.48285 0.56502 0.0
Gd680 Gd 0.79512 0.73606 0.57574 0.0
Gd681 Gd 0.70452 0.75282 0.57724 0.0
C682 C 0.78614 0.77953 0.57924 0.0
C683 C 0.87481 0.72704 0.57145 0.0
C684 C 0.92131 0.73266 0.57252 0.0
C685 C 0.94384 0.7303 0.58084 0.0
C686 C 0.94477 0.73888 0.56485 0.0
C687 C 1.0128 0.73937 0.57365 0.0
C688 C 0.98991 0.74225 0.56541 0.0
C689 C 0.98904 0.73365 0.5814 0.0
C690 C 0.75956 0.73597 0.59275 0.0
C691 C 0.7159 0.70902 0.5738 0.0
C692 C 0.62514 0.76159 0.58194 0.0
C693 C 0.57835 0.75667 0.58065 0.0
C694 C 0.5569 0.75926 0.57222 0.0
C695 C 0.55366 0.75088 0.58822 0.0
C696 C 0.48651 0.75128 0.57913 0.0
C697 C 0.50833 0.74816 0.58747 0.0
C698 C 0.51149 0.75657 0.57147 0.0
C699 C 0.73783 0.75255 0.56002 0.0
O700 O 0.81029 0.76611 0.57592 0.0
O701 O 0.74472 0.777 0.58161 0.0
O702 O 0.85429 0.72075 0.57866 0.0
O703 O 0.84971 0.73714 0.56621 0.0
O704 O 0.78328 0.72273 0.58954 0.0
O705 O 0.75787 0.74883 0.58706 0.0
O706 O 0.69063 0.72222 0.5771 0.0
O707 O 0.7564 0.71223 0.5711 0.0
O708 O 0.64596 0.76898 0.57504 0.0
O709 O 0.64966 0.75032 0.58666 0.0
O710 O 0.71307 0.76542 0.56326 0.0
O711 O 0.7412 0.73991 0.56583 0.0
H712 H 0.9269 0.72537 0.58686 0.0
H713 H 0.92839 0.7407 0.55833 0.0
H714 H 1.00698 0.74692 0.55935 0.0
H715 H 1.00564 0.73109 0.58783 0.0
H716 H 0.57489 0.76385 0.56625 0.0
H717 H 0.56928 0.74888 0.59481 0.0
H718 H 0.4903 0.74378 0.59347 0.0
H719 H 0.49577 0.75929 0.56496 0.0
Gd720 Gd 0.49595 0.73607 0.69666 0.0
Gd721 Gd 0.58548 0.75376 0.69578 0.0
C722 C 0.50272 0.77962 0.69318 0.0
C723 C 0.41588 0.7263 0.70022 0.0
C724 C 0.36937 0.73181 0.69888 0.0
C725 C 0.34402 0.72356 0.69198 0.0
C726 C 0.34864 0.74388 0.705 0.0
C727 C 0.27797 0.73874 0.69756 0.0
C728 C 0.30351 0.74733 0.70434 0.0
C729 C 0.29895 0.72704 0.69131 0.0
C730 C 0.53469 0.73587 0.67996 0.0
C731 C 0.5762 0.70991 0.69945 0.0
C732 C 0.66536 0.76319 0.69176 0.0
C733 C 0.71212 0.7581 0.69314 0.0
C734 C 0.73673 0.76615 0.70022 0.0
C735 C 0.73382 0.7467 0.68685 0.0
C736 C 0.80392 0.75208 0.69449 0.0
C737 C 0.77913 0.74369 0.68753 0.0
C738 C 0.782 0.76313 0.70091 0.0
C739 C 0.54905 0.75358 0.71272 0.0
O740 O 0.47889 0.76587 0.69624 0.0
O741 O 0.54486 0.77772 0.69124 0.0
O742 O 0.43768 0.72066 0.69304 0.0
O743 O 0.43999 0.73605 0.70581 0.0
O744 O 0.51171 0.72238 0.68314 0.0
O745 O 0.53435 0.74897 0.68553 0.0
O746 O 0.60118 0.72328 0.69622 0.0
O747 O 0.53505 0.71278 0.70178 0.0
O748 O 0.64378 0.76961 0.6988 0.0
O749 O 0.64121 0.75268 0.68654 0.0
O750 O 0.57308 0.76673 0.70953 0.0
O751 O 0.54766 0.74072 0.707 0.0
H752 H 0.35877 0.71396 0.68725 0.0
H753 H 0.36703 0.75036 0.71046 0.0
H754 H 0.28851 0.75658 0.70921 0.0
H755 H 0.28024 0.72 0.68608 0.0
H756 H 0.72127 0.77526 0.70509 0.0
H757 H 0.71602 0.74044 0.68125 0.0
H758 H 0.79483 0.73493 0.68254 0.0
H759 H 0.80007 0.77002 0.70627 0.0
Gd760 Gd 0.79171 0.49536 0.69786 0.0
Gd761 Gd 0.70071 0.47885 0.69642 0.0
C762 C 0.78202 0.45182 0.69471 0.0
C763 C 0.87139 0.50433 0.70221 0.0
C764 C 0.91781 0.49868 0.70123 0.0
C765 C 0.93699 0.49562 0.69262 0.0
C766 C 0.94432 0.49774 0.70907 0.0
C767 C 1.00904 0.49185 0.69971 0.0
C768 C 0.98939 0.49432 0.70833 0.0
C769 C 0.98217 0.49227 0.69187 0.0
C770 C 0.75653 0.49495 0.68081 0.0
C771 C 0.71306 0.52278 0.69931 0.0
C772 C 0.62127 0.47007 0.69174 0.0
C773 C 0.57458 0.47511 0.69293 0.0
C774 C 0.55566 0.47738 0.70163 0.0
C775 C 0.54763 0.4763 0.68516 0.0
C776 C 0.48308 0.48101 0.69474 0.0
C777 C 0.50245 0.47924 0.68605 0.0
C778 C 0.51035 0.48028 0.70252 0.0
C779 C 0.73373 0.47966 0.71366 0.0
O780 O 0.80631 0.46528 0.69795 0.0
O781 O 0.74064 0.45439 0.69229 0.0
O782 O 0.85116 0.5104 0.69492 0.0
O783 O 0.8462 0.49432 0.70747 0.0
O784 O 0.78063 0.50817 0.68392 0.0
O785 O 0.75437 0.48232 0.68662 0.0
O786 O 0.68738 0.5095 0.69624 0.0
O787 O 0.75345 0.51959 0.70209 0.0
O788 O 0.6418 0.46303 0.69877 0.0
O789 O 0.64594 0.48111 0.68692 0.0
O790 O 0.7089 0.46673 0.7105 0.0
O791 O 0.73743 0.4921 0.70775 0.0
H792 H 0.91734 0.49621 0.68644 0.0
H793 H 0.93036 0.50018 0.71578 0.0
H794 H 1.00908 0.4943 0.7145 0.0
H795 H 0.99614 0.49017 0.68513 0.0
H796 H 0.57568 0.47657 0.70775 0.0
H797 H 0.56141 0.47445 0.67839 0.0
H798 H 0.48248 0.4795 0.67992 0.0
H799 H 0.49663 0.48184 0.70932 0.0
Gd800 Gd 0.45697 0.503 0.44614 0.0
Gd801 Gd 0.54706 0.48559 0.44736 0.0
C802 C 0.46707 0.45915 0.4498 0.0
C803 C 0.37748 0.51208 0.44164 0.0
C804 C 0.33068 0.50702 0.44282 0.0
C805 C 0.30886 0.50946 0.45122 0.0
C806 C 0.30633 0.50127 0.43518 0.0
C807 C 0.23882 0.50139 0.44416 0.0
C808 C 0.26101 0.49843 0.43585 0.0
C809 C 0.26346 0.50665 0.45188 0.0
C810 C 0.49169 0.50284 0.46323 0.0
C811 C 0.53956 0.52911 0.4438 0.0
C812 C 0.62687 0.47612 0.45134 0.0
C813 C 0.67342 0.48172 0.45028 0.0
C814 C 0.69591 0.47938 0.44196 0.0
C815 C 0.69697 0.48787 0.45795 0.0
C816 C 0.76496 0.48837 0.44915 0.0
C817 C 0.74212 0.49122 0.45739 0.0
C818 C 0.74113 0.48271 0.44139 0.0
C819 C 0.50947 0.48539 0.43053 0.0
O820 O 0.44191 0.47248 0.44657 0.0
O821 O 0.50803 0.46211 0.45225 0.0
O822 O 0.39832 0.51893 0.44868 0.0
O823 O 0.40206 0.50123 0.43669 0.0
O824 O 0.46717 0.51582 0.46001 0.0
O825 O 0.4943 0.49006 0.45747 0.0
O826 O 0.56348 0.51546 0.44695 0.0
O827 O 0.49758 0.52706 0.44174 0.0
O828 O 0.60592 0.47034 0.44407 0.0
O829 O 0.60213 0.48593 0.45678 0.0
O830 O 0.53274 0.47198 0.43373 0.0
O831 O 0.50925 0.4984 0.43614 0.0
H832 H 0.32655 0.51403 0.45722 0.0
H833 H 0.3222 0.4994 0.42861 0.0
H834 H 0.24326 0.49409 0.4298 0.0
H835 H 0.24746 0.50924 0.45836 0.0
H836 H 0.67892 0.47449 0.43592 0.0
H837 H 0.68065 0.48966 0.46448 0.0
H838 H 0.75924 0.49584 0.46346 0.0
H839 H 0.75768 0.48018 0.43496 0.0
Gd840 Gd 0.33542 0.22872 0.44611 0.0
Gd841 Gd 0.24559 0.24615 0.44727 0.0
C842 C 0.32539 0.27265 0.44952 0.0
C843 C 0.41504 0.21958 0.44173 0.0
C844 C 0.46181 0.22468 0.44302 0.0
C845 C 0.48445 0.22026 0.45112 0.0
C846 C 0.4854 0.23241 0.43573 0.0
C847 C 0.55364 0.23044 0.44442 0.0
C848 C 0.5307 0.23532 0.43643 0.0
C849 C 0.52979 0.22315 0.45182 0.0
C850 C 0.30097 0.2291 0.46321 0.0
C851 C 0.25285 0.2026 0.44388 0.0
C852 C 0.1657 0.2557 0.45114 0.0
C853 C 0.11915 0.25008 0.45002 0.0
C854 C 0.09553 0.25453 0.44205 0.0
C855 C 0.09666 0.24183 0.45733 0.0
C856 C 0.02763 0.2433 0.44889 0.0
C857 C 0.05152 0.23842 0.45676 0.0
C858 C 0.05036 0.25112 0.44148 0.0
C859 C 0.28299 0.24609 0.43042 0.0
O860 O 0.35052 0.25926 0.44636 0.0
O861 O 0.28454 0.26974 0.45204 0.0
O862 O 0.39391 0.21272 0.44872 0.0
O863 O 0.39059 0.23041 0.43673 0.0
O864 O 0.32515 0.21604 0.45998 0.0
O865 O 0.29835 0.24186 0.45744 0.0
O866 O 0.22909 0.2163 0.44702 0.0
O867 O 0.29477 0.20462 0.44176 0.0
O868 O 0.18683 0.26141 0.44389 0.0
O869 O 0.19036 0.24598 0.45664 0.0
O870 O 0.25992 0.25957 0.43359 0.0
O871 O 0.28319 0.23315 0.43608 0.0
H872 H 0.46745 0.21407 0.45685 0.0
H873 H 0.469 0.2358 0.42937 0.0
H874 H 0.54785 0.24122 0.43065 0.0
H875 H 0.54639 0.21902 0.45804 0.0
H876 H 0.11161 0.26113 0.43633 0.0
H877 H 0.11375 0.23841 0.4636 0.0
H878 H 0.03522 0.23215 0.46255 0.0
H879 H 0.03297 0.25527 0.43536 0.0
Gd880 Gd 0.45733 0.22748 0.32786 0.0
Gd881 Gd 0.54761 0.24493 0.3266 0.0
C882 C 0.46738 0.27129 0.32408 0.0
C883 C 0.37787 0.21845 0.3324 0.0
C884 C 0.33112 0.22357 0.33128 0.0
C885 C 0.31125 0.2248 0.32261 0.0
C886 C 0.30502 0.22582 0.33911 0.0
C887 C 0.23949 0.22956 0.32969 0.0
C888 C 0.25979 0.22882 0.33834 0.0
C889 C 0.2659 0.22775 0.32184 0.0
C890 C 0.49213 0.22751 0.31078 0.0
C891 C 0.54006 0.2014 0.33025 0.0
C892 C 0.62737 0.25433 0.32255 0.0
C893 C 0.67391 0.24887 0.32369 0.0
C894 C 0.69345 0.24717 0.33237 0.0
C895 C 0.70018 0.24669 0.31587 0.0
C896 C 0.7652 0.2421 0.32534 0.0
C897 C 0.74523 0.2433 0.31668 0.0
C898 C 0.73863 0.24384 0.33318 0.0
C899 C 0.51005 0.24524 0.34343 0.0
O900 O 0.44231 0.258 0.32736 0.0
O901 O 0.50837 0.26834 0.32164 0.0
O902 O 0.39846 0.21173 0.3253 0.0
O903 O 0.40257 0.22923 0.33736 0.0
O904 O 0.46754 0.21457 0.31401 0.0
O905 O 0.49475 0.24033 0.31652 0.0
O906 O 0.56402 0.21506 0.32713 0.0
O907 O 0.498 0.20341 0.33226 0.0
O908 O 0.60634 0.26035 0.32976 0.0
O909 O 0.60287 0.24421 0.31721 0.0
O910 O 0.53351 0.25858 0.34023 0.0
O911 O 0.50974 0.23221 0.33782 0.0
H912 H 0.33052 0.22314 0.31644 0.0
H913 H 0.31947 0.22476 0.34587 0.0
H914 H 0.2405 0.22992 0.34454 0.0
H915 H 0.25148 0.2285 0.31507 0.0
H916 H 0.67408 0.24875 0.33853 0.0
H917 H 0.68601 0.2481 0.3091 0.0
H918 H 0.76468 0.24226 0.3105 0.0
H919 H 0.75282 0.24275 0.33995 0.0
Gd920 Gd 0.33951 0.50197 0.32772 0.0
Gd921 Gd 0.24888 0.48534 0.32625 0.0
C922 C 0.32775 0.45809 0.32454 0.0
C923 C 0.41889 0.51069 0.33244 0.0
C924 C 0.46566 0.5058 0.33112 0.0
C925 C 0.48659 0.50776 0.3226 0.0
C926 C 0.49084 0.50065 0.33875 0.0
C927 C 0.55748 0.50051 0.3295 0.0
C928 C 0.53616 0.49798 0.33795 0.0
C929 C 0.532 0.50513 0.3218 0.0
C930 C 0.30672 0.50146 0.31047 0.0
C931 C 0.25807 0.52884 0.32954 0.0
C932 C 0.16912 0.47629 0.32201 0.0
C933 C 0.12266 0.48205 0.32294 0.0
C934 C 0.10012 0.48049 0.3313 0.0
C935 C 0.09923 0.48755 0.31513 0.0
C936 C 0.03117 0.48888 0.32389 0.0
C937 C 0.05409 0.49099 0.3156 0.0
C938 C 0.05492 0.48389 0.33177 0.0
C939 C 0.28458 0.48545 0.34327 0.0
O940 O 0.35331 0.47136 0.32767 0.0
O941 O 0.28721 0.46124 0.32186 0.0
O942 O 0.39802 0.51815 0.32556 0.0
O943 O 0.39443 0.49935 0.33713 0.0
O944 O 0.3315 0.51433 0.3137 0.0
O945 O 0.30284 0.4889 0.31631 0.0
O946 O 0.2339 0.51539 0.32625 0.0
O947 O 0.29943 0.52628 0.33196 0.0
O948 O 0.1894 0.47039 0.32933 0.0
O949 O 0.19446 0.48602 0.31665 0.0
O950 O 0.2609 0.47216 0.34009 0.0
O951 O 0.28608 0.49823 0.33754 0.0
H952 H 0.46817 0.51182 0.31659 0.0
H953 H 0.47559 0.49913 0.3454 0.0
H954 H 0.55458 0.49413 0.34399 0.0
H955 H 0.54733 0.50736 0.31521 0.0
H956 H 0.11705 0.47612 0.33744 0.0
H957 H 0.11563 0.48875 0.30858 0.0
H958 H 0.03703 0.49508 0.30943 0.0
H959 H 0.03831 0.48194 0.33825 0.0
Gd960 Gd 0.49603 -0.00444 0.077 0.0
Gd961 Gd 0.58625 0.97819 0.07834 0.0
C962 C 0.5037 0.95202 0.08059 0.0
C963 C 0.41633 0.00489 0.07284 0.0
C964 C 0.36974 -0.0005 0.074 0.0
C965 C 0.34983 -0.00138 0.08267 0.0
C966 C 0.34376 -0.00337 0.06619 0.0
C967 C 0.27833 -0.007 0.07563 0.0
C968 C 0.29865 -0.00664 0.06699 0.0
C969 C 0.30461 -0.00458 0.08347 0.0
C970 C 0.53274 -0.0043 0.09391 0.0
C971 C 0.57598 0.02206 0.07479 0.0
C972 C 0.66584 0.96918 0.08283 0.0
C973 C 0.71252 0.97434 0.08162 0.0
C974 C 0.73242 0.97487 0.07294 0.0
C975 C 0.7386 0.97731 0.0894 0.0
C976 C 0.80409 0.98039 0.07992 0.0
C977 C 0.78379 0.98035 0.08857 0.0
C978 C 0.77771 0.97786 0.0721 0.0
C979 C 0.55179 0.97839 0.06121 0.0
O980 O 0.47978 0.96568 0.07745 0.0
O981 O 0.54566 0.95406 0.08268 0.0
O982 O 0.43733 0.01112 0.08 0.0
O983 O 0.44085 -0.00541 0.06758 0.0
O984 O 0.50922 0.00902 0.0907 0.0
O985 O 0.53363 0.98273 0.08827 0.0
O986 O 0.60102 0.00874 0.07805 0.0
O987 O 0.53522 0.01908 0.0722 0.0
O988 O 0.64503 0.96238 0.07577 0.0
O989 O 0.64123 0.97997 0.0878 0.0
O990 O 0.57609 0.96538 0.06447 0.0
O991 O 0.54928 -0.00882 0.06697 0.0
H992 H 0.36894 0.00077 0.08883 0.0
H993 H 0.35819 -0.00259 0.05942 0.0
H994 H 0.27943 -0.00822 0.0608 0.0
H995 H 0.29014 -0.00502 0.09024 0.0
H996 H 0.71321 0.97264 0.0668 0.0
H997 H 0.72416 0.9768 0.09617 0.0
H998 H 0.80307 0.98203 0.09474 0.0
H999 H 0.79214 0.97805 0.06533 0.0
Gd1000 Gd 0.79362 0.23639 0.07618 0.0
Gd1001 Gd 0.70245 0.25292 0.07761 0.0
C1002 C 0.78378 0.27991 0.07947 0.0
C1003 C 0.87327 0.22741 0.07183 0.0
C1004 C 0.91969 0.23305 0.07276 0.0
C1005 C 0.9383 0.2374 0.08128 0.0
C1006 C 0.9467 0.23273 0.06498 0.0
C1007 C 1.01084 0.24001 0.07428 0.0
C1008 C 0.99172 0.23621 0.06572 0.0
C1009 C 0.98346 0.24082 0.08204 0.0
C1010 C 0.758 0.23651 0.09319 0.0
C1011 C 0.71477 0.20906 0.07445 0.0
C1012 C 0.62308 0.26171 0.08232 0.0
C1013 C 0.57636 0.25666 0.08124 0.0
C1014 C 0.55772 0.2531 0.07263 0.0
C1015 C 0.54919 0.25674 0.08899 0.0
C1016 C 0.48487 0.25068 0.07952 0.0
C1017 C 0.504 0.25376 0.08815 0.0
C1018 C 0.51239 0.25016 0.07178 0.0
C1019 C 0.73593 0.25239 0.06041 0.0
O1020 O 0.80823 0.26647 0.07626 0.0
O1021 O 0.7423 0.27734 0.0818 0.0
O1022 O 0.85321 0.22145 0.07917 0.0
O1023 O 0.84801 0.23737 0.06656 0.0
O1024 O 0.78217 0.22333 0.09005 0.0
O1025 O 0.75599 0.24924 0.08743 0.0
O1026 O 0.68908 0.22228 0.0776 0.0
O1027 O 0.75529 0.21229 0.07178 0.0
O1028 O 0.64329 0.26857 0.07521 0.0
O1029 O 0.64793 0.25079 0.08717 0.0
O1030 O 0.7109 0.26525 0.06357 0.0
O1031 O 0.7395 0.23988 0.06629 0.0
H1032 H 0.9182 0.23781 0.08739 0.0
H1033 H 0.93312 0.22929 0.05835 0.0
H1034 H 1.0118 0.23525 0.05963 0.0
H1035 H 0.99701 0.24395 0.08871 0.0
H1036 H 0.57797 0.25292 0.06653 0.0
H1037 H 0.5628 0.25958 0.09569 0.0
H1038 H 0.48386 0.2545 0.09425 0.0
H1039 H 0.49886 0.24758 0.06504 0.0
Gd1040 Gd 0.50038 0.23618 0.19773 0.0
Gd1041 Gd 0.59119 0.25271 0.19637 0.0
C1042 C 0.50995 0.2797 0.19451 0.0
C1043 C 0.42059 0.22723 0.20199 0.0
C1044 C 0.37416 0.23284 0.20087 0.0
C1045 C 0.35405 0.2337 0.19222 0.0
C1046 C 0.34847 0.23585 0.2087 0.0
C1047 C 0.28285 0.23948 0.19932 0.0
C1048 C 0.30338 0.23919 0.20794 0.0
C1049 C 0.30886 0.23697 0.19146 0.0
C1050 C 0.53591 0.23644 0.18072 0.0
C1051 C 0.57906 0.20882 0.19938 0.0
C1052 C 0.67076 0.26143 0.19179 0.0
C1053 C 0.7174 0.25639 0.19313 0.0
C1054 C 0.73693 0.25615 0.20185 0.0
C1055 C 0.74377 0.25323 0.18541 0.0
C1056 C 0.80888 0.25056 0.19504 0.0
C1057 C 0.78895 0.2503 0.18635 0.0
C1058 C 0.78221 0.25327 0.20279 0.0
C1059 C 0.55788 0.25201 0.21359 0.0
O1060 O 0.4856 0.26625 0.19772 0.0
O1061 O 0.55138 0.27713 0.19214 0.0
O1062 O 0.44119 0.22095 0.19478 0.0
O1063 O 0.44554 0.23738 0.20723 0.0
O1064 O 0.51184 0.22323 0.18384 0.0
O1065 O 0.53787 0.24914 0.18649 0.0
O1066 O 0.60472 0.22208 0.19629 0.0
O1067 O 0.53859 0.21201 0.20209 0.0
O1068 O 0.64985 0.2687 0.19871 0.0
O1069 O 0.64631 0.25026 0.18699 0.0
O1070 O 0.58269 0.26493 0.21043 0.0
O1071 O 0.55434 0.23953 0.2077 0.0
H1072 H 0.37294 0.23145 0.18604 0.0
H1073 H 0.36309 0.23509 0.21546 0.0
H1074 H 0.28433 0.24086 0.21414 0.0
H1075 H 0.29419 0.23735 0.18471 0.0
H1076 H 0.71745 0.25853 0.20793 0.0
H1077 H 0.72958 0.25352 0.17861 0.0
H1078 H 0.80848 0.24848 0.18023 0.0
H1079 H 0.79639 0.25331 0.20958 0.0
Gd1080 Gd 0.79735 -0.00451 0.19774 0.0
Gd1081 Gd 0.70715 0.97796 0.19647 0.0
C1082 C 0.79003 0.95197 0.19404 0.0
C1083 C 0.87705 0.00492 0.20184 0.0
C1084 C 0.92363 -0.00046 0.2007 0.0
C1085 C 0.94303 -0.00227 0.19201 0.0
C1086 C 0.95007 -0.00247 0.2085 0.0
C1087 C 1.01497 -0.0071 0.19901 0.0
C1088 C 0.99515 -0.00579 0.20768 0.0
C1089 C 0.98823 -0.00553 0.19118 0.0
C1090 C 0.76 -0.00421 0.1809 0.0
C1091 C 0.717 0.02179 0.20024 0.0
C1092 C 0.62763 0.96885 0.19198 0.0
C1093 C 0.58089 0.97401 0.19308 0.0
C1094 C 0.56104 0.97543 0.20174 0.0
C1095 C 0.55476 0.97612 0.18524 0.0
C1096 C 0.48926 0.9801 0.19463 0.0
C1097 C 0.50953 0.97917 0.18599 0.0
C1098 C 0.5157 0.97843 0.2025 0.0
C1099 C 0.7423 0.97797 0.21353 0.0
O1100 O 0.8139 0.96565 0.19718 0.0
O1101 O 0.74794 0.95394 0.19204 0.0
O1102 O 0.85598 0.01103 0.19466 0.0
O1103 O 0.85262 -0.00533 0.20714 0.0
O1104 O 0.78346 0.00912 0.1841 0.0
O1105 O 0.75948 0.98275 0.1865 0.0
O1106 O 0.69204 0.00848 0.19693 0.0
O1107 O 0.75795 0.01884 0.20272 0.0
O1108 O 0.64824 0.96229 0.19913 0.0
O1109 O 0.65234 0.97948 0.18695 0.0
O1110 O 0.71794 0.96497 0.21029 0.0
O1111 O 0.74446 -0.00918 0.20781 0.0
H1112 H 0.92351 -0.00082 0.18585 0.0
H1113 H 0.93601 -0.00098 0.21527 0.0
H1114 H 1.01472 -0.0067 0.21385 0.0
H1115 H 1.00231 -0.0067 0.1844 0.0
H1116 H 0.58031 0.97388 0.20792 0.0
H1117 H 0.56919 0.97492 0.17848 0.0
H1118 H 0.49023 0.98016 0.17979 0.0
H1119 H 0.5013 0.97932 0.20926 0.0
Gd1120 Gd 0.45806 0.00173 0.9467 0.0
Gd1121 Gd 0.54788 0.98433 0.94782 0.0
C1122 C 0.46816 0.95784 0.9502 0.0
C1123 C 0.37834 0.01086 0.94238 0.0
C1124 C 0.33159 0.00578 0.94374 0.0
C1125 C 0.30816 0.01188 0.95145 0.0
C1126 C 0.30876 -0.00363 0.93683 0.0
C1127 C 0.23979 -8e-05 0.94514 0.0
C1128 C 0.26347 -0.00659 0.93754 0.0
C1129 C 0.26285 0.00893 0.95215 0.0
C1130 C 0.49287 0.00147 0.96378 0.0
C1131 C 0.54052 0.02786 0.94438 0.0
C1132 C 0.62789 0.97477 0.95158 0.0
C1133 C 0.67439 0.98035 0.95034 0.0
C1134 C 0.69874 0.97405 0.94279 0.0
C1135 C 0.69615 0.99044 0.95716 0.0
C1136 C 0.76584 0.98718 0.94909 0.0
C1137 C 0.74128 -0.00614 0.95653 0.0
C1138 C 0.74385 0.97749 0.94216 0.0
C1139 C 0.51014 0.98434 0.93099 0.0
O1140 O 0.44303 0.97119 0.947 0.0
O1141 O 0.50903 0.96081 0.95271 0.0
O1142 O 0.39964 0.01775 0.94935 0.0
O1143 O 0.4027 2e-05 0.93738 0.0
O1144 O 0.46865 0.01452 0.96054 0.0
O1145 O 0.49537 0.98867 0.95802 0.0
O1146 O 0.56435 0.01419 0.94754 0.0
O1147 O 0.49861 0.02579 0.94227 0.0
O1148 O 0.60643 0.96897 0.94438 0.0
O1149 O 0.60347 0.98458 0.95709 0.0
O1150 O 0.53319 0.97085 0.93416 0.0
O1151 O 0.51009 -0.00271 0.93663 0.0
H1152 H 0.32451 0.01941 0.95685 0.0
H1153 H 0.32571 -0.00834 0.93076 0.0
H1154 H 0.24692 0.9862 0.93206 0.0
H1155 H 0.24566 0.01435 0.95804 0.0
H1156 H 0.68324 0.96598 0.93748 0.0
H1157 H 0.67854 -0.00467 0.96311 0.0
H1158 H 0.75704 0.00157 0.96194 0.0
H1159 H 0.7618 0.97193 0.9364 0.0
Gd1160 Gd 0.33564 0.72758 0.94571 0.0
Gd1161 Gd 0.24576 0.74506 0.94673 0.0
C1162 C 0.32569 0.77145 0.94933 0.0
C1163 C 0.41533 0.71841 0.94142 0.0
C1164 C 0.46209 0.7235 0.94272 0.0
C1165 C 0.48499 0.71866 0.95072 0.0
C1166 C 0.48545 0.73164 0.9355 0.0
C1167 C 0.55393 0.72925 0.94408 0.0
C1168 C 0.53075 0.73454 0.93618 0.0
C1169 C 0.53033 0.72155 0.9514 0.0
C1170 C 0.30019 0.72774 0.96273 0.0
C1171 C 0.2531 0.70153 0.94325 0.0
C1172 C 0.16575 0.75463 0.95046 0.0
C1173 C 0.11928 0.74893 0.94932 0.0
C1174 C 0.09537 0.75383 0.94146 0.0
C1175 C 0.09712 0.74014 0.95652 0.0
C1176 C 0.02784 0.74199 0.94819 0.0
C1177 C 0.05201 0.73666 0.95596 0.0
C1178 C 0.05024 0.75035 0.94089 0.0
C1179 C 0.28411 0.74527 0.92998 0.0
O1180 O 0.35097 0.75808 0.94619 0.0
O1181 O 0.28457 0.76855 0.95167 0.0
O1182 O 0.39412 0.71165 0.94843 0.0
O1183 O 0.39094 0.72916 0.93637 0.0
O1184 O 0.3246 0.71471 0.95953 0.0
O1185 O 0.29794 0.74056 0.95698 0.0
O1186 O 0.22915 0.71522 0.94634 0.0
O1187 O 0.29515 0.70352 0.94126 0.0
O1188 O 0.18701 0.76019 0.9432 0.0
O1189 O 0.19035 0.74505 0.95604 0.0
O1190 O 0.26095 0.75872 0.93316 0.0
O1191 O 0.28395 0.73222 0.93557 0.0
H1192 H 0.46819 0.71215 0.95638 0.0
H1193 H 0.46887 0.73535 0.9292 0.0
H1194 H 0.54772 0.74075 0.93046 0.0
H1195 H 0.54713 0.7171 0.95754 0.0
H1196 H 0.11119 0.76086 0.93583 0.0
H1197 H 0.11442 0.73635 0.96272 0.0
H1198 H 0.03595 0.72999 0.96166 0.0
H1199 H 0.03262 0.75485 0.93486 0.0
Gd1200 Gd 0.45304 0.7289 0.82721 0.0
Gd1201 Gd 0.54403 0.74548 0.82567 0.0
C1202 C 0.46507 0.77272 0.82387 0.0
C1203 C 0.37373 0.72024 0.83203 0.0
C1204 C 0.32702 0.72527 0.83087 0.0
C1205 C 0.30834 0.72821 0.8222 0.0
C1206 C 0.29989 0.72582 0.83862 0.0
C1207 C 0.23555 0.73125 0.82906 0.0
C1208 C 0.25471 0.72879 0.83774 0.0
C1209 C 0.26303 0.73115 0.8213 0.0
C1210 C 0.4858 0.72925 0.80996 0.0
C1211 C 0.53453 0.70199 0.82904 0.0
C1212 C 0.62367 0.75449 0.82132 0.0
C1213 C 0.67016 0.74894 0.82229 0.0
C1214 C 0.68911 0.7453 0.83087 0.0
C1215 C 0.69694 0.74863 0.81448 0.0
C1216 C 0.76144 0.74217 0.82382 0.0
C1217 C 0.74202 0.74525 0.81522 0.0
C1218 C 0.73431 0.74198 0.83163 0.0
C1219 C 0.5085 0.74545 0.8427 0.0
O1220 O 0.43959 0.75954 0.82711 0.0
O1221 O 0.50553 0.76946 0.82115 0.0
O1222 O 0.39401 0.71307 0.825 0.0
O1223 O 0.39855 0.73138 0.83676 0.0
O1224 O 0.46087 0.71644 0.8132 0.0
O1225 O 0.4898 0.74184 0.8158 0.0
O1226 O 0.55877 0.71541 0.82575 0.0
O1227 O 0.49313 0.70456 0.83144 0.0
O1228 O 0.60346 0.76056 0.82861 0.0
O1229 O 0.59855 0.74442 0.81608 0.0
O1230 O 0.53237 0.75867 0.83952 0.0
O1231 O 0.50678 0.73268 0.83696 0.0
H1232 H 0.32855 0.72791 0.8161 0.0
H1233 H 0.31352 0.72346 0.84537 0.0
H1234 H 0.2346 0.72855 0.84385 0.0
H1235 H 0.24948 0.73324 0.81453 0.0
H1236 H 0.66922 0.74539 0.83701 0.0
H1237 H 0.68314 0.75152 0.80779 0.0
H1238 H 0.76189 0.74571 0.80908 0.0
H1239 H 0.74809 0.73941 0.83834 0.0
Gd1240 Gd 0.33551 0.00346 0.82857 0.0
Gd1241 Gd 0.24509 0.98608 0.82722 0.0
C1242 C 0.3252 0.95958 0.82501 0.0
C1243 C 0.41494 0.01248 0.83317 0.0
C1244 C 0.46169 0.00738 0.83206 0.0
C1245 C 0.48102 0.00521 0.82339 0.0
C1246 C 0.48829 0.00605 0.83987 0.0
C1247 C 0.55328 0.00134 0.83041 0.0
C1248 C 0.5335 0.00303 0.83907 0.0
C1249 C 0.52636 0.00224 0.82258 0.0
C1250 C 0.30121 0.00327 0.81145 0.0
C1251 C 0.25282 0.02962 0.83081 0.0
C1252 C 0.16543 0.97671 0.82305 0.0
C1253 C 0.11888 0.98221 0.82409 0.0
C1254 C 0.09967 0.98498 0.83273 0.0
C1255 C 0.0923 0.98333 0.81626 0.0
C1256 C 0.02756 0.98897 0.82567 0.0
C1257 C 0.04723 0.98672 0.81703 0.0
C1258 C 0.05447 0.98831 0.8335 0.0
C1259 C 0.28216 0.98587 0.8441 0.0
O1260 O 0.35034 0.97292 0.82821 0.0
O1261 O 0.28433 0.96251 0.82247 0.0
O1262 O 0.39443 0.0192 0.82605 0.0
O1263 O 0.39021 0.00169 0.83811 0.0
O1264 O 0.32577 0.01622 0.81468 0.0
O1265 O 0.29835 0.9905 0.81721 0.0
O1266 O 0.22887 0.01596 0.82768 0.0
O1267 O 0.29481 0.02759 0.83288 0.0
O1268 O 0.18613 0.97079 0.83033 0.0
O1269 O 0.19017 0.98675 0.81772 0.0
O1270 O 0.2586 0.97255 0.8409 0.0
O1271 O 0.28277 -0.00115 0.83846 0.0
H1272 H 0.46132 0.00614 0.81724 0.0
H1273 H 0.47422 0.00782 0.84663 0.0
H1274 H 0.55318 0.00265 0.84524 0.0
H1275 H 0.54036 0.00075 0.81581 0.0
H1276 H 0.11933 0.98424 0.83889 0.0
H1277 H 0.10625 0.9811 0.80953 0.0
H1278 H 0.02753 0.98692 0.81086 0.0
H1279 H 0.04052 0.99023 0.84025 0.0
C1280 C 0.93417 0.43436 0.0828 0.0
C1281 C 0.98012 0.43477 0.08195 0.0
C1282 C 0.91219 0.41784 0.08387 0.0
C1283 C 0.92771 0.36888 0.08939 0.0
H1284 H 0.82099 0.36347 0.0751 0.0
C1285 C 0.8506 0.29948 0.08038 0.0
C1286 C 0.80468 0.29782 0.08098 0.0
C1287 C 0.8708 0.31636 0.08164 0.0
C1288 C 0.85035 0.36488 0.07924 0.0
H1289 H 0.0393 0.41833 0.08182 0.0
H1290 H 1.00066 0.38922 0.08343 0.0
H1291 H 0.85949 0.39257 0.07513 0.0
H1292 H 0.74395 0.31248 0.08351 0.0
H1293 H 0.77948 0.34216 0.08562 0.0
H1294 H 0.91905 0.34086 0.09321 0.0
C1295 C 0.98172 0.40175 0.08343 0.0
C1296 C 0.87244 0.38154 0.07927 0.0
C1297 C 1.00385 0.41837 0.08246 0.0
C1298 C 0.77938 0.31336 0.08298 0.0
C1299 C 0.79964 0.33032 0.08417 0.0
C1300 C 0.90574 0.35214 0.08929 0.0
C1301 C 0.93556 0.40131 0.084 0.0
C1302 C 0.91151 0.38372 0.0843 0.0
C1303 C 0.84552 0.33195 0.08347 0.0
C1304 C 0.86705 0.34997 0.08416 0.0
H1305 H 0.915 0.44683 0.08259 0.0
H1306 H 0.87675 0.41804 0.08453 0.0
H1307 H 0.95734 0.3702 0.09344 0.0
H1308 H 0.87111 0.28776 0.07889 0.0
H1309 H 0.90617 0.31728 0.08096 0.0
C1310 C 0.4356 0.934 0.08305 0.0
C1311 C 0.48153 0.93444 0.08218 0.0
C1312 C 0.41361 0.91746 0.08399 0.0
C1313 C 0.42908 0.86827 0.08899 0.0
H1314 H 0.32189 0.86355 0.0748 0.0
C1315 C 0.3506 0.79931 0.0796 0.0
C1316 C 0.30471 0.79774 0.08035 0.0
C1317 C 0.37114 0.8161 0.0809 0.0
C1318 C 0.3514 0.86476 0.0789 0.0
H1319 H 0.54069 0.918 0.08186 0.0
H1320 H 0.50203 0.88884 0.08321 0.0
H1321 H 0.36068 0.89258 0.07503 0.0
H1322 H 0.24437 0.8125 0.08313 0.0
H1323 H 0.28048 0.84205 0.08528 0.0
H1324 H 0.42026 0.84012 0.09257 0.0
C1325 C 0.4831 0.90136 0.08335 0.0
C1326 C 0.37365 0.88138 0.07905 0.0
C1327 C 0.50526 0.91802 0.08253 0.0
C1328 C 0.27977 0.8133 0.08249 0.0
C1329 C 0.30036 0.83019 0.0837 0.0
C1330 C 0.40696 0.85157 0.08877 0.0
C1331 C 0.43694 0.90091 0.08394 0.0
C1332 C 0.41285 0.88332 0.08407 0.0
C1333 C 0.34622 0.83172 0.08289 0.0
C1334 C 0.36808 0.84965 0.08367 0.0
H1335 H 0.41645 0.94648 0.08297 0.0
H1336 H 0.37818 0.91764 0.08466 0.0
H1337 H 0.45882 0.86939 0.09302 0.0
H1338 H 0.37084 0.78756 0.078 0.0
H1339 H 0.40647 0.81696 0.08012 0.0
C1340 C 0.78879 0.91804 0.19179 0.0
C1341 C 0.81239 0.93446 0.19234 0.0
C1342 C 0.81106 0.90144 0.19078 0.0
C1343 C 0.92057 0.88129 0.19483 0.0
H1344 H 0.8742 0.84079 0.18074 0.0
C1345 C 1.01426 0.81328 0.19075 0.0
C1346 C 0.98911 0.79768 0.1927 0.0
C1347 C 0.99383 0.83025 0.18966 0.0
C1348 C 0.88745 0.85202 0.1847 0.0
H1349 H 0.87743 0.94659 0.19174 0.0
H1350 H 0.9159 0.91786 0.18973 0.0
H1351 H 0.83561 0.87006 0.18066 0.0
H1352 H 0.92278 0.78751 0.1948 0.0
H1353 H 0.88747 0.81703 0.19289 0.0
H1354 H 0.97228 0.86323 0.19889 0.0
C1355 C 0.88046 0.91762 0.19038 0.0
C1356 C 0.8653 0.86872 0.18469 0.0
C1357 C 0.85834 0.9341 0.1915 0.0
C1358 C 0.94318 0.79929 0.19335 0.0
C1359 C 0.92283 0.81616 0.19217 0.0
C1360 C 0.94285 0.86466 0.19478 0.0
C1361 C 0.85723 0.90106 0.1902 0.0
C1362 C 0.88142 0.8835 0.18984 0.0
C1363 C 0.94795 0.83181 0.1904 0.0
C1364 C 0.92624 0.84982 0.1898 0.0
H1365 H 0.75334 0.91795 0.19242 0.0
H1366 H 0.79221 0.8889 0.19075 0.0
H1367 H 0.93347 0.89227 0.19901 0.0
H1368 H 0.04968 0.81245 0.1902 0.0
H1369 H 1.01388 0.84214 0.18825 0.0
C1370 C 0.28944 0.41819 0.19145 0.0
C1371 C 0.31309 0.43461 0.19199 0.0
C1372 C 0.31167 0.40157 0.19053 0.0
C1373 C 0.42091 0.38136 0.19484 0.0
H1374 H 0.37466 0.34069 0.18084 0.0
C1375 C 0.51427 0.31319 0.19106 0.0
C1376 C 0.48901 0.29763 0.19304 0.0
C1377 C 0.49396 0.33016 0.18991 0.0
C1378 C 0.38788 0.35196 0.18477 0.0
H1379 H 0.37821 0.44667 0.19148 0.0
H1380 H 0.41663 0.41788 0.18963 0.0
H1381 H 0.33634 0.37002 0.18059 0.0
H1382 H 0.42261 0.28754 0.19512 0.0
H1383 H 0.38747 0.31708 0.1931 0.0
H1384 H 0.47234 0.36329 0.19903 0.0
C1385 C 0.38116 0.41768 0.19021 0.0
C1386 C 0.36588 0.3687 0.18467 0.0
C1387 C 0.35908 0.4342 0.19124 0.0
C1388 C 0.44309 0.29928 0.19365 0.0
C1389 C 0.42284 0.31616 0.19242 0.0
C1390 C 0.44305 0.36469 0.19488 0.0
C1391 C 0.35785 0.40114 0.19004 0.0
C1392 C 0.38194 0.38354 0.18977 0.0
C1393 C 0.44807 0.33178 0.19061 0.0
C1394 C 0.42648 0.34979 0.18993 0.0
H1395 H 0.25396 0.41814 0.19202 0.0
H1396 H 0.29275 0.38904 0.19051 0.0
H1397 H 0.43376 0.39238 0.19899 0.0
H1398 H 0.54969 0.31232 0.19053 0.0
H1399 H 0.51409 0.34202 0.18848 0.0
C1400 C 0.03067 0.56242 0.94089 0.0
C1401 C 0.0558 0.54691 0.94303 0.0
C1402 C 0.05106 0.57936 0.93971 0.0
C1403 C 0.15732 0.60105 0.93474 0.0
H1404 H 0.11053 0.64175 0.94862 0.0
C1405 C 0.25486 0.66755 0.94124 0.0
C1406 C 0.23101 0.68394 0.94165 0.0
C1407 C 0.23286 0.65088 0.94036 0.0
C1408 C 0.12363 0.63064 0.94456 0.0
H1409 H 0.12203 0.53684 0.94538 0.0
H1410 H 0.15732 0.56634 0.94331 0.0
H1411 H 0.07212 0.61263 0.94875 0.0
H1412 H 0.16581 0.6959 0.94092 0.0
H1413 H 0.12778 0.66702 0.93912 0.0
H1414 H 0.20893 0.61905 0.93056 0.0
C1415 C 0.122 0.56541 0.94252 0.0
C1416 C 0.1016 0.61397 0.94465 0.0
C1417 C 0.10167 0.54856 0.94378 0.0
C1418 C 0.18507 0.68345 0.94079 0.0
C1419 C 0.16322 0.66688 0.93979 0.0
C1420 C 0.17921 0.6178 0.93458 0.0
C1421 C 0.09688 0.58098 0.94055 0.0
C1422 C 0.11848 0.59897 0.93983 0.0
C1423 C 0.18671 0.65037 0.93977 0.0
C1424 C 0.1628 0.63274 0.93956 0.0
H1425 H 0.99529 0.56155 0.94025 0.0
H1426 H 0.03103 0.59119 0.93815 0.0
H1427 H 0.17077 0.58969 0.9309 0.0
H1428 H 0.29031 0.66757 0.9419 0.0
H1429 H 0.2519 0.63838 0.94045 0.0
C1430 C 0.69134 0.18098 0.94329 0.0
C1431 C 0.73727 0.1826 0.94272 0.0
C1432 C 0.67112 0.16407 0.94214 0.0
C1433 C 0.69151 0.11573 0.94513 0.0
H1434 H 0.58521 0.1096 0.93079 0.0
C1435 C 0.60869 0.04593 0.94208 0.0
C1436 C 0.56268 0.04542 0.94275 0.0
C1437 C 0.63052 0.06247 0.94095 0.0
C1438 C 0.61463 0.11114 0.93488 0.0
H1439 H 0.79802 0.16784 0.94036 0.0
H1440 H 0.76247 0.1381 0.93846 0.0
H1441 H 0.62326 0.13899 0.93074 0.0
H1442 H 0.50326 0.06172 0.94253 0.0
H1443 H 0.54161 0.09087 0.94085 0.0
H1444 H 0.68238 0.08823 0.94955 0.0
C1445 C 0.7423 0.15001 0.93979 0.0
C1446 C 0.63647 0.12792 0.93482 0.0
C1447 C 0.76257 0.167 0.94085 0.0
C1448 C 0.53877 0.06175 0.94203 0.0
C1449 C 0.56074 0.0784 0.94102 0.0
C1450 C 0.66953 0.09904 0.94526 0.0
C1451 C 0.69642 0.14841 0.94048 0.0
C1452 C 0.67494 0.13036 0.93999 0.0
C1453 C 0.60693 0.07893 0.94059 0.0
C1454 C 0.63073 0.09657 0.94017 0.0
H1455 H 0.67085 0.19276 0.94467 0.0
H1456 H 0.63574 0.16317 0.94281 0.0
H1457 H 0.72069 0.11736 0.94929 0.0
H1458 H 0.62803 0.03352 0.94245 0.0
H1459 H 0.66601 0.06234 0.94042 0.0
C1460 C 0.02888 0.16841 0.83272 0.0
C1461 C 0.05392 0.18394 0.83058 0.0
C1462 C 0.04938 0.1515 0.83395 0.0
C1463 C 0.15593 0.13005 0.83904 0.0
H1464 H 0.10958 0.08902 0.82534 0.0
C1465 C 0.2543 0.06362 0.83275 0.0
C1466 C 0.23062 0.04719 0.83241 0.0
C1467 C 0.23211 0.08027 0.83358 0.0
C1468 C 0.12257 0.10022 0.82935 0.0
H1469 H 0.12013 0.19403 0.82825 0.0
H1470 H 0.15558 0.16461 0.83039 0.0
H1471 H 0.07079 0.11806 0.82509 0.0
H1472 H 0.16559 0.03513 0.83324 0.0
H1473 H 0.12725 0.06396 0.83497 0.0
H1474 H 0.20783 0.11222 0.84328 0.0
C1475 C 0.12025 0.1655 0.83116 0.0
C1476 C 0.10031 0.11686 0.82919 0.0
C1477 C 0.09981 0.18231 0.82985 0.0
C1478 C 0.1847 0.04761 0.83331 0.0
C1479 C 0.16267 0.06415 0.83427 0.0
C1480 C 0.17806 0.11334 0.83926 0.0
C1481 C 0.09524 0.14992 0.83315 0.0
C1482 C 0.11703 0.13196 0.83395 0.0
C1483 C 0.18596 0.0807 0.8342 0.0
C1484 C 0.16181 0.09829 0.83435 0.0
H1485 H 0.99349 0.16925 0.83335 0.0
H1486 H 0.02943 0.13966 0.83552 0.0
H1487 H 0.16926 0.14149 0.84283 0.0
H1488 H 0.28973 0.06365 0.83205 0.0
H1489 H 0.25099 0.0928 0.83344 0.0
C1490 C 0.53052 0.66858 0.83267 0.0
C1491 C 0.55561 0.68412 0.83057 0.0
C1492 C 0.55097 0.65166 0.83389 0.0
C1493 C 0.65742 0.63007 0.83896 0.0
H1494 H 0.61113 0.58933 0.82504 0.0
C1495 C 0.75582 0.56379 0.83234 0.0
C1496 C 0.73216 0.54736 0.83192 0.0
C1497 C 0.73361 0.58042 0.83326 0.0
C1498 C 0.62409 0.60045 0.82911 0.0
H1499 H 0.62189 0.69423 0.82834 0.0
H1500 H 0.65727 0.66478 0.83047 0.0
H1501 H 0.57238 0.61838 0.82493 0.0
H1502 H 0.66713 0.53527 0.83268 0.0
H1503 H 0.62876 0.56407 0.83454 0.0
H1504 H 0.70927 0.61215 0.84313 0.0
C1505 C 0.62192 0.66567 0.83121 0.0
C1506 C 0.60186 0.61709 0.82903 0.0
C1507 C 0.60153 0.6825 0.8299 0.0
C1508 C 0.68624 0.54776 0.83281 0.0
C1509 C 0.66418 0.56428 0.83385 0.0
C1510 C 0.67953 0.61336 0.83911 0.0
C1511 C 0.59684 0.65008 0.83313 0.0
C1512 C 0.61857 0.6321 0.83387 0.0
C1513 C 0.68746 0.58083 0.83388 0.0
C1514 C 0.6633 0.59841 0.83411 0.0
H1515 H 0.4951 0.66942 0.83325 0.0
H1516 H 0.53097 0.63981 0.83542 0.0
H1517 H 0.67074 0.64144 0.84282 0.0
H1518 H 0.79125 0.56384 0.83166 0.0
H1519 H 0.75248 0.59295 0.83318 0.0
C1520 C 1.00573 0.91822 0.58276 0.0
C1521 C 0.98177 0.93457 0.58233 0.0
C1522 C 0.98383 0.90152 0.58361 0.0
C1523 C 0.87483 0.88113 0.57932 0.0
H1524 H 0.92199 0.84025 0.59303 0.0
C1525 C 0.78205 0.8129 0.58291 0.0
C1526 C 0.80721 0.79739 0.58079 0.0
C1527 C 0.8024 0.82983 0.58413 0.0
C1528 C 0.90853 0.85159 0.58918 0.0
H1529 H 0.91647 0.94645 0.58299 0.0
H1530 H 0.87862 0.91752 0.58474 0.0
H1531 H 0.95997 0.86965 0.59339 0.0
H1532 H 0.8735 0.78733 0.57853 0.0
H1533 H 0.90875 0.81682 0.58066 0.0
H1534 H 0.82349 0.86307 0.5751 0.0
C1535 C 0.91406 0.91743 0.58411 0.0
C1536 C 0.93033 0.86837 0.58935 0.0
C1537 C 0.93582 0.93403 0.58314 0.0
C1538 C 0.85311 0.79904 0.58011 0.0
C1539 C 0.87341 0.81589 0.5814 0.0
C1540 C 0.8529 0.86444 0.57922 0.0
C1541 C 0.93768 0.90095 0.58416 0.0
C1542 C 0.9139 0.88328 0.58435 0.0
C1543 C 0.84824 0.83146 0.58334 0.0
C1544 C 0.86978 0.84947 0.58406 0.0
H1545 H 0.04119 0.91828 0.58214 0.0
H1546 H 1.00297 0.88905 0.58354 0.0
H1547 H 0.86172 0.89222 0.57524 0.0
H1548 H 0.74664 0.81203 0.5835 0.0
H1549 H 0.78232 0.84166 0.58566 0.0
C1550 C 0.28791 0.3128 0.58221 0.0
C1551 C 0.31161 0.29639 0.58172 0.0
C1552 C 0.31008 0.32943 0.58316 0.0
C1553 C 0.41945 0.34957 0.57901 0.0
H1554 H 0.37307 0.39028 0.59296 0.0
C1555 C 0.51321 0.41756 0.58289 0.0
C1556 C 0.48812 0.43316 0.58089 0.0
C1557 C 0.49273 0.40063 0.58403 0.0
C1558 C 0.38632 0.379 0.58904 0.0
H1559 H 0.37672 0.28433 0.58238 0.0
H1560 H 0.41502 0.31311 0.58429 0.0
H1561 H 0.33454 0.361 0.59314 0.0
H1562 H 0.42184 0.44337 0.57875 0.0
H1563 H 0.38641 0.4139 0.58074 0.0
H1564 H 0.4711 0.36757 0.57489 0.0
C1565 C 0.37958 0.31331 0.58363 0.0
C1566 C 0.3642 0.36229 0.58911 0.0
C1567 C 0.35757 0.2968 0.58257 0.0
C1568 C 0.44219 0.43159 0.58024 0.0
C1569 C 0.42178 0.41475 0.58146 0.0
C1570 C 0.44169 0.3662 0.579 0.0
C1571 C 0.35624 0.32985 0.58374 0.0
C1572 C 0.38034 0.34744 0.58402 0.0
C1573 C 0.44684 0.3991 0.58328 0.0
C1574 C 0.42509 0.38111 0.58393 0.0
H1575 H 0.25245 0.31285 0.58157 0.0
H1576 H 0.29115 0.34196 0.58314 0.0
H1577 H 0.43234 0.33854 0.57487 0.0
H1578 H 0.54864 0.41837 0.58345 0.0
H1579 H 0.51273 0.38874 0.58548 0.0
C1580 C 1.00401 0.31382 0.6915 0.0
C1581 C 0.9805 0.29736 0.69187 0.0
C1582 C 0.98167 0.33042 0.69058 0.0
C1583 C 0.87188 0.35026 0.69464 0.0
H1584 H 0.91852 0.39141 0.68107 0.0
C1585 C 0.77806 0.41839 0.69111 0.0
C1586 C 0.8031 0.43393 0.69324 0.0
C1587 C 0.79857 0.40147 0.6899 0.0
C1588 C 0.90519 0.38 0.68489 0.0
H1589 H 0.91559 0.28517 0.69101 0.0
H1590 H 0.87701 0.31392 0.68916 0.0
H1591 H 0.95727 0.36218 0.68074 0.0
H1592 H 0.86932 0.44404 0.69556 0.0
H1593 H 0.90477 0.41461 0.69345 0.0
H1594 H 0.81995 0.3681 0.69881 0.0
C1595 C 0.91241 0.31418 0.68989 0.0
C1596 C 0.92743 0.36332 0.68473 0.0
C1597 C 0.93459 0.29769 0.69092 0.0
C1598 C 0.849 0.43231 0.69397 0.0
C1599 C 0.86943 0.41549 0.69268 0.0
C1600 C 0.84952 0.36687 0.69473 0.0
C1601 C 0.93553 0.33077 0.68992 0.0
C1602 C 0.91122 0.34831 0.68969 0.0
C1603 C 0.84443 0.3999 0.69071 0.0
C1604 C 0.86623 0.38194 0.68995 0.0
H1605 H 0.03943 0.31392 0.69223 0.0
H1606 H 1.00043 0.34298 0.69071 0.0
H1607 H 0.85891 0.33909 0.69868 0.0
H1608 H 0.74266 0.41923 0.69049 0.0
H1609 H 0.77861 0.38963 0.68834 0.0
C1610 C 0.50421 0.8136 0.69116 0.0
C1611 C 0.48046 0.7972 0.6916 0.0
C1612 C 0.4821 0.83026 0.69032 0.0
C1613 C 0.37302 0.85045 0.69476 0.0
H1614 H 0.41951 0.89148 0.68106 0.0
C1615 C 0.2801 0.91881 0.69147 0.0
C1616 C 0.30543 0.93429 0.69355 0.0
C1617 C 0.30032 0.90185 0.69021 0.0
C1618 C 0.40623 0.8801 0.68491 0.0
H1619 H 0.41529 0.78521 0.69098 0.0
H1620 H 0.37705 0.81407 0.68927 0.0
H1621 H 0.45761 0.86211 0.68059 0.0
H1622 H 0.37187 0.94426 0.69572 0.0
H1623 H 0.40687 0.91475 0.69352 0.0
H1624 H 0.32175 0.86846 0.69909 0.0
C1625 C 0.41251 0.81423 0.68987 0.0
C1626 C 0.4281 0.86334 0.68468 0.0
C1627 C 0.43449 0.79766 0.69082 0.0
C1628 C 0.35134 0.93258 0.69417 0.0
C1629 C 0.3715 0.91571 0.69283 0.0
C1630 C 0.35102 0.86714 0.69492 0.0
C1631 C 0.43592 0.83075 0.68982 0.0
C1632 C 0.41194 0.84837 0.68967 0.0
C1633 C 0.34619 0.90018 0.69091 0.0
C1634 C 0.36768 0.88216 0.69009 0.0
H1635 H 0.53968 0.8136 0.69175 0.0
H1636 H 0.50109 0.84277 0.69039 0.0
H1637 H 0.36011 0.83932 0.69883 0.0
H1638 H 0.24468 0.91972 0.69093 0.0
H1639 H 0.28013 0.89005 0.68869 0.0
C1640 C 0.10016 0.04985 0.44429 0.0
C1641 C 0.05423 0.04827 0.44366 0.0
C1642 C 0.12054 0.06668 0.44302 0.0
C1643 C 0.10068 0.11523 0.44537 0.0
H1644 H 0.20741 0.12033 0.43108 0.0
C1645 C 0.1846 0.18462 0.44155 0.0
C1646 C 0.23058 0.18504 0.44231 0.0
C1647 C 0.16257 0.16809 0.44056 0.0
C1648 C 0.17787 0.11907 0.43516 0.0
H1649 H 0.99368 0.06302 0.44107 0.0
H1650 H 0.02954 0.09264 0.43896 0.0
H1651 H 0.16894 0.09104 0.43139 0.0
H1652 H 0.28977 0.1686 0.4424 0.0
H1653 H 0.25106 0.13947 0.44096 0.0
H1654 H 0.1101 0.14293 0.44943 0.0
C1655 C 0.04956 0.08076 0.44043 0.0
C1656 C 0.15578 0.10236 0.4353 0.0
C1657 C 0.02911 0.06384 0.44162 0.0
C1658 C 0.25429 0.16863 0.44182 0.0
C1659 C 0.23211 0.15199 0.44095 0.0
C1660 C 0.1229 0.13186 0.4453 0.0
C1661 C 0.09544 0.08231 0.44116 0.0
C1662 C 0.11716 0.10028 0.44045 0.0
C1663 C 0.18593 0.15156 0.44045 0.0
C1664 C 0.16186 0.13396 0.44023 0.0
H1665 H 0.12053 0.0381 0.44581 0.0
H1666 H 0.15591 0.06755 0.44373 0.0
H1667 H 0.07138 0.11389 0.44952 0.0
H1668 H 0.16544 0.19709 0.44174 0.0
H1669 H 0.12711 0.16828 0.43996 0.0
C1670 C 0.69029 0.68218 0.44295 0.0
C1671 C 0.73619 0.68384 0.4423 0.0
C1672 C 0.67009 0.66528 0.44177 0.0
C1673 C 0.69074 0.61688 0.4445 0.0
H1674 H 0.58384 0.611 0.43033 0.0
C1675 C 0.60766 0.54716 0.44137 0.0
C1676 C 0.56169 0.54667 0.44214 0.0
C1677 C 0.62948 0.5637 0.44023 0.0
C1678 C 0.61344 0.61247 0.43437 0.0
H1679 H 0.7969 0.66916 0.43977 0.0
H1680 H 0.76139 0.63943 0.43783 0.0
H1681 H 0.62187 0.64039 0.43034 0.0
H1682 H 0.50232 0.563 0.4421 0.0
H1683 H 0.54066 0.59214 0.44041 0.0
H1684 H 0.68181 0.58931 0.44882 0.0
C1685 C 0.74123 0.6513 0.43924 0.0
C1686 C 0.63526 0.62925 0.43434 0.0
C1687 C 0.76148 0.66828 0.44033 0.0
C1688 C 0.53779 0.56301 0.44152 0.0
C1689 C 0.55976 0.57966 0.4405 0.0
C1690 C 0.66878 0.60019 0.44459 0.0
C1691 C 0.69538 0.64966 0.44 0.0
C1692 C 0.67394 0.63161 0.43945 0.0
C1693 C 0.60592 0.58018 0.43997 0.0
C1694 C 0.62976 0.59781 0.43957 0.0
H1695 H 0.6698 0.69393 0.44441 0.0
H1696 H 0.63475 0.66434 0.4425 0.0
H1697 H 0.72009 0.61845 0.44862 0.0
H1698 H 0.62697 0.53473 0.44166 0.0
H1699 H 0.66494 0.56356 0.43962 0.0
C1700 C 0.19117 0.54839 0.33033 0.0
C1701 C 0.23708 0.54675 0.33097 0.0
C1702 C 0.17091 0.56529 0.33149 0.0
C1703 C 0.19122 0.61373 0.32879 0.0
H1704 H 0.08454 0.61947 0.34304 0.0
C1705 C 0.10776 0.6834 0.33209 0.0
C1706 C 0.06177 0.68386 0.33136 0.0
C1707 C 0.12972 0.66687 0.33317 0.0
C1708 C 0.11407 0.61803 0.33897 0.0
H1709 H 0.29774 0.56147 0.33348 0.0
H1710 H 0.26212 0.5912 0.3354 0.0
H1711 H 0.12271 0.5901 0.34295 0.0
H1712 H 1.0025 0.66748 0.33143 0.0
H1713 H 0.04107 0.63836 0.33304 0.0
H1714 H 0.18207 0.64133 0.32452 0.0
C1715 C 0.242 0.57932 0.334 0.0
C1716 C 0.13598 0.60128 0.33896 0.0
C1717 C 0.26232 0.56233 0.33292 0.0
C1718 C 0.03799 0.66749 0.33198 0.0
C1719 C 0.06009 0.65085 0.33295 0.0
C1720 C 0.16917 0.63041 0.32873 0.0
C1721 C 0.19614 0.58093 0.33325 0.0
C1722 C 0.17458 0.59896 0.33382 0.0
C1723 C 0.10627 0.65037 0.33343 0.0
C1724 C 0.13022 0.63274 0.33378 0.0
H1725 H 0.17072 0.53663 0.32888 0.0
H1726 H 0.13555 0.5662 0.33077 0.0
H1727 H 0.22051 0.61221 0.32465 0.0
H1728 H 0.12699 0.69584 0.33179 0.0
H1729 H 0.16519 0.66704 0.33374 0.0
C1730 C 0.69212 0.04848 0.3306 0.0
C1731 C 0.73801 0.04686 0.33133 0.0
C1732 C 0.67174 0.06535 0.33179 0.0
C1733 C 0.692 0.11387 0.32935 0.0
H1734 H 0.58458 0.11924 0.34339 0.0
C1735 C 0.60817 0.1834 0.33279 0.0
C1736 C 0.56223 0.18384 0.33193 0.0
C1737 C 0.6301 0.16686 0.33388 0.0
C1738 C 0.61432 0.11791 0.33938 0.0
H1739 H 0.79851 0.06159 0.33399 0.0
H1740 H 0.76269 0.09126 0.33595 0.0
H1741 H 0.62289 0.0899 0.34324 0.0
H1742 H 0.50301 0.16744 0.33176 0.0
H1743 H 0.54155 0.13831 0.33337 0.0
H1744 H 0.68296 0.14154 0.32521 0.0
C1745 C 0.74267 0.07939 0.33447 0.0
C1746 C 0.63631 0.10116 0.33934 0.0
C1747 C 0.7631 0.06243 0.33337 0.0
C1748 C 0.53846 0.16746 0.33242 0.0
C1749 C 0.56054 0.15081 0.33339 0.0
C1750 C 0.66989 0.13053 0.32934 0.0
C1751 C 0.69683 0.08097 0.33365 0.0
C1752 C 0.67517 0.09898 0.33427 0.0
C1753 C 0.60669 0.15034 0.33399 0.0
C1754 C 0.63068 0.13273 0.33431 0.0
H1755 H 0.67177 0.03673 0.32908 0.0
H1756 H 0.63641 0.06624 0.33101 0.0
H1757 H 0.7215 0.11245 0.32527 0.0
H1758 H 0.62738 0.19585 0.33261 0.0
H1759 H 0.66553 0.16703 0.33456 0.0
C1760 C 0.06086 0.51246 0.10727 0.0
C1761 C 0.05522 0.49615 0.10236 0.0
C1762 C 0.08325 0.51252 0.11565 0.0
C1763 C 0.15809 0.48384 0.1302 0.0
H1764 H 0.1239 0.51826 0.14907 0.0
C1765 C 0.21988 0.47966 0.16779 0.0
C1766 C 0.2361 0.496 0.17154 0.0
C1767 C 0.19809 0.47969 0.15934 0.0
C1768 C 0.13397 0.50864 0.14384 0.0
H1769 H 0.06818 0.46707 0.1024 0.0
H1770 H 0.10546 0.46694 0.11715 0.0
H1771 H 0.08494 0.51808 0.1345 0.0
H1772 H 0.24162 0.52521 0.16947 0.0
H1773 H 0.20265 0.52532 0.1548 0.0
H1774 H 0.2062 0.47407 0.13976 0.0
C1775 C 0.09395 0.47987 0.11447 0.0
C1776 C 0.1118 0.50858 0.13544 0.0
C1777 C 0.07218 0.47987 0.10602 0.0
C1778 C 0.22962 0.5124 0.16673 0.0
C1779 C 0.20713 0.51248 0.15836 0.0
C1780 C 0.17971 0.48371 0.13867 0.0
C1781 C 0.10002 0.49621 0.11942 0.0
C1782 C 0.12358 0.49622 0.12845 0.0
C1783 C 0.19134 0.49611 0.15454 0.0
C1784 C 0.16803 0.49615 0.14557 0.0
H1785 H 0.04848 0.52524 0.10457 0.0
H1786 H 0.08787 0.52547 0.1191 0.0
H1787 H 0.16899 0.47436 0.12499 0.0
H1788 H 0.22431 0.46682 0.17136 0.0
H1789 H 0.18599 0.46689 0.15661 0.0
C1790 C 0.2183 0.75303 0.10535 0.0
C1791 C 0.23531 0.73675 0.10171 0.0
C1792 C 0.19713 0.75311 0.11386 0.0
C1793 C 0.18085 0.72448 0.13494 0.0
H1794 H 0.08681 0.75903 0.13951 0.0
C1795 C 0.06356 0.72043 0.16628 0.0
C1796 C 0.05844 0.73668 0.17128 0.0
C1797 C 0.08559 0.72046 0.15787 0.0
C1798 C 0.11319 0.74937 0.13834 0.0
H1799 H 0.24269 0.70771 0.10401 0.0
H1800 H 0.20422 0.70758 0.11863 0.0
H1801 H 0.12318 0.75876 0.12465 0.0
H1802 H 0.07211 0.76573 0.17139 0.0
H1803 H 0.10951 0.76587 0.15653 0.0
H1804 H 0.16933 0.71471 0.14858 0.0
C1805 C 0.20844 0.7205 0.11513 0.0
C1806 C 0.13435 0.74926 0.12983 0.0
C1807 C 0.23029 0.7205 0.1067 0.0
C1808 C 0.07549 0.753 0.16767 0.0
C1809 C 0.09676 0.75309 0.15916 0.0
C1810 C 0.15908 0.72437 0.14338 0.0
C1811 C 0.19168 0.73682 0.11889 0.0
C1812 C 0.16871 0.73686 0.12799 0.0
C1813 C 0.10222 0.73681 0.15419 0.0
C1814 C 0.12515 0.73686 0.14519 0.0
H1815 H 0.22182 0.76578 0.10166 0.0
H1816 H 0.18562 0.76604 0.11652 0.0
H1817 H 0.20764 0.71497 0.13394 0.0
H1818 H 0.05091 0.70764 0.16893 0.0
H1819 H 0.08913 0.70772 0.15416 0.0
C1820 C 0.82379 0.50233 0.8561 0.0
C1821 C 0.80772 0.48597 0.85235 0.0
C1822 C 0.84541 0.50233 0.86457 0.0
C1823 C 0.9097 0.4736 0.88008 0.0
H1824 H 0.87303 0.50739 0.89901 0.0
C1825 C 0.9817 0.46953 0.91673 0.0
C1826 C 0.98644 0.48575 0.92175 0.0
C1827 C 0.9597 0.46952 0.9083 0.0
C1828 C 0.8844 0.49806 0.89378 0.0
H1829 H 0.80232 0.45676 0.85441 0.0
H1830 H 0.84108 0.4567 0.86912 0.0
H1831 H 0.83626 0.50771 0.8842 0.0
H1832 H 0.97233 0.51473 0.92187 0.0
H1833 H 0.93578 0.51498 0.90704 0.0
H1834 H 0.95879 0.4643 0.88945 0.0
C1835 C 0.83655 0.46953 0.86555 0.0
C1836 C 0.86302 0.49819 0.88529 0.0
C1837 C 0.81421 0.46958 0.85716 0.0
C1838 C 0.96902 0.502 0.91816 0.0
C1839 C 0.94766 0.50207 0.90966 0.0
C1840 C 0.93164 0.47366 0.88851 0.0
C1841 C 0.85216 0.48592 0.86938 0.0
C1842 C 0.87528 0.48591 0.87836 0.0
C1843 C 0.94246 0.48581 0.9046 0.0
C1844 C 0.91924 0.48584 0.89553 0.0
H1845 H 0.81934 0.51517 0.85253 0.0
H1846 H 0.85737 0.51515 0.86731 0.0
H1847 H 0.9202 0.4641 0.87483 0.0
H1848 H 0.99444 0.45676 0.91938 0.0
H1849 H 0.95572 0.45663 0.90478 0.0
C1850 C 0.96759 0.22842 0.85561 0.0
C1851 C 0.9846 0.24477 0.85202 0.0
C1852 C 0.94639 0.22824 0.86412 0.0
C1853 C 0.88437 0.25689 0.88001 0.0
H1854 H 0.91981 0.2221 0.89859 0.0
C1855 C 0.81337 0.26038 0.91672 0.0
C1856 C 0.80797 0.24407 0.92164 0.0
C1857 C 0.83528 0.26046 0.90829 0.0
C1858 C 0.90877 0.23172 0.89346 0.0
H1859 H 0.99214 0.27378 0.85445 0.0
H1860 H 0.95407 0.27356 0.86922 0.0
H1861 H 0.95611 0.22198 0.88373 0.0
H1862 H 0.82088 0.21499 0.92156 0.0
H1863 H 0.8572 0.21487 0.9067 0.0
H1864 H 0.83603 0.26628 0.88951 0.0
C1865 C 0.95757 0.26086 0.86549 0.0
C1866 C 0.92989 0.23169 0.88494 0.0
C1867 C 0.97952 0.26097 0.85706 0.0
C1868 C 0.82469 0.22779 0.91793 0.0
C1869 C 0.84593 0.22779 0.90942 0.0
C1870 C 0.86266 0.25672 0.88846 0.0
C1871 C 0.94097 0.24448 0.86914 0.0
C1872 C 0.91809 0.24434 0.87814 0.0
C1873 C 0.85171 0.24415 0.90446 0.0
C1874 C 0.87464 0.24419 0.89536 0.0
H1875 H 0.97094 0.21572 0.85186 0.0
H1876 H 0.93366 0.21544 0.86672 0.0
H1877 H 0.87424 0.26667 0.87486 0.0
H1878 H 0.8012 0.27317 0.91946 0.0
H1879 H 0.83976 0.27342 0.90485 0.0
C1880 C 0.07428 0.97939 0.60679 0.0
C1881 C 0.05794 -0.00428 0.60308 0.0
C1882 C 0.09607 0.97936 0.61524 0.0
C1883 C 0.11485 0.00839 0.63608 0.0
H1884 H 0.20729 0.97314 0.64074 0.0
C1885 C 0.23216 0.01196 0.66746 0.0
C1886 C 0.23683 -0.00431 0.67246 0.0
C1887 C 0.21021 0.01201 0.65902 0.0
C1888 C 0.18137 0.983 0.63955 0.0
H1889 H 0.05246 0.02489 0.60517 0.0
H1890 H 0.09195 0.02508 0.61968 0.0
H1891 H 0.17044 0.97338 0.62592 0.0
H1892 H 0.2225 0.9667 0.67256 0.0
H1893 H 0.1852 0.9667 0.65769 0.0
H1894 H 0.12719 0.01834 0.64966 0.0
C1895 C 0.08676 0.01211 0.61629 0.0
C1896 C 0.15994 0.9831 0.63106 0.0
C1897 C 0.06432 0.01206 0.60792 0.0
C1898 C 0.21947 0.97944 0.66883 0.0
C1899 C 0.19826 0.97943 0.66032 0.0
C1900 C 0.13686 0.00849 0.6445 0.0
C1901 C 0.10277 -0.00427 0.62014 0.0
C1902 C 0.12613 -0.00426 0.62919 0.0
C1903 C 0.19322 -0.00427 0.65534 0.0
C1904 C 0.17021 -0.00425 0.64635 0.0
H1905 H 0.06971 0.96656 0.60322 0.0
H1906 H 0.10701 0.9664 0.61798 0.0
H1907 H 0.08849 0.0181 0.63506 0.0
H1908 H 0.24506 0.0247 0.67011 0.0
H1909 H 0.20701 0.02476 0.65532 0.0
C1910 C 0.23115 0.21891 0.60718 0.0
C1911 C 0.23694 0.23519 0.60226 0.0
C1912 C 0.20878 0.21892 0.61557 0.0
C1913 C 0.13433 0.24784 0.63009 0.0
H1914 H 0.16785 0.21333 0.64897 0.0
C1915 C 0.07272 0.25223 0.66768 0.0
C1916 C 0.05604 0.23595 0.67141 0.0
C1917 C 0.09451 0.25213 0.65924 0.0
C1918 C 0.15798 0.22298 0.64374 0.0
H1919 H 0.22429 0.26429 0.60227 0.0
H1920 H 0.18709 0.26454 0.61702 0.0
H1921 H 0.20685 0.21337 0.63441 0.0
H1922 H 0.0497 0.20679 0.66932 0.0
H1923 H 0.0887 0.20654 0.65465 0.0
H1924 H 0.0864 0.25778 0.63964 0.0
C1925 C 0.19843 0.25159 0.61435 0.0
C1926 C 0.18016 0.22296 0.63534 0.0
C1927 C 0.22017 0.25151 0.6059 0.0
C1928 C 0.06206 0.21955 0.66659 0.0
C1929 C 0.08456 0.21939 0.65822 0.0
C1930 C 0.1127 0.24805 0.63855 0.0
C1931 C 0.19219 0.23528 0.61932 0.0
C1932 C 0.16861 0.23535 0.62835 0.0
C1933 C 0.10081 0.2357 0.65442 0.0
C1934 C 0.12415 0.23558 0.64546 0.0
H1935 H 0.24339 0.20609 0.60449 0.0
H1936 H 0.20403 0.20599 0.61902 0.0
H1937 H 0.12359 0.25734 0.62488 0.0
H1938 H 0.06865 0.26508 0.67127 0.0
H1939 H 0.10697 0.26489 0.65652 0.0
C1940 C 0.96802 0.00331 0.41876 0.0
C1941 C 0.98501 0.98703 0.42243 0.0
C1942 C 0.94688 0.00331 0.41024 0.0
C1943 C 0.88503 0.97432 0.39447 0.0
H1944 H 0.92067 0.00867 0.37571 0.0
C1945 C 0.81479 0.96986 0.35773 0.0
C1946 C 0.80933 0.98604 0.35271 0.0
C1947 C 0.83654 0.97001 0.36618 0.0
C1948 C 0.90958 -0.00083 0.38089 0.0
H1949 H 0.9926 0.95796 0.42016 0.0
H1950 H 0.95465 0.95789 0.40537 0.0
H1951 H 0.95677 0.00915 0.3906 0.0
H1952 H 0.82201 0.01513 0.35261 0.0
H1953 H 0.85809 0.01567 0.3675 0.0
H1954 H 0.83685 0.9647 0.385 0.0
C1955 C 0.9581 0.97066 0.40904 0.0
C1956 C 0.93058 -0.00059 0.38942 0.0
C1957 C 0.97999 0.97072 0.41748 0.0
C1958 C 0.82587 0.00243 0.35632 0.0
C1959 C 0.84696 0.00266 0.36485 0.0
C1960 C 0.86345 0.97429 0.386 0.0
C1961 C 0.94152 0.98697 0.4053 0.0
C1962 C 0.91872 0.98692 0.39629 0.0
C1963 C 0.85278 0.98644 0.36992 0.0
C1964 C 0.87552 0.98665 0.37904 0.0
H1965 H 0.97134 0.01608 0.42245 0.0
H1966 H 0.93416 0.01606 0.40756 0.0
H1967 H 0.87485 0.96467 0.39967 0.0
H1968 H 0.80275 0.95699 0.35506 0.0
H1969 H 0.84107 0.95715 0.3697 0.0
C1970 C 0.97828 0.76157 0.35664 0.0
C1971 C 0.98511 0.74517 0.35185 0.0
C1972 C 0.95585 0.76159 0.36501 0.0
C1973 C 0.92963 0.73291 0.38476 0.0
H1974 H 0.83362 0.7667 0.38888 0.0
C1975 C 0.82342 0.729 0.41758 0.0
C1976 C 0.80596 0.74523 0.42117 0.0
C1977 C 0.84483 0.72895 0.40909 0.0
C1978 C 0.86083 0.75736 0.38795 0.0
H1979 H 0.97398 0.71595 0.35205 0.0
H1980 H 0.93579 0.71592 0.36682 0.0
H1981 H 0.87224 0.76691 0.37427 0.0
H1982 H 0.79792 0.77423 0.41881 0.0
H1983 H 0.83671 0.7744 0.40422 0.0
H1984 H 0.91962 0.72372 0.39848 0.0
C1985 C 0.94756 0.72876 0.36407 0.0
C1986 C 0.88279 0.75744 0.37953 0.0
C1987 C 0.96927 0.72878 0.35561 0.0
C1988 C 0.8107 0.76147 0.41616 0.0
C1989 C 0.83274 0.7615 0.40774 0.0
C1990 C 0.90821 0.73303 0.39325 0.0
C1991 C 0.94048 0.74517 0.36885 0.0
C1992 C 0.9173 0.74516 0.37782 0.0
C1993 C 0.85003 0.74522 0.40404 0.0
C1994 C 0.87328 0.74521 0.39498 0.0
H1995 H 0.98997 0.77441 0.35388 0.0
H1996 H 0.95108 0.77443 0.36856 0.0
H1997 H 0.95646 0.72343 0.38368 0.0
H1998 H 0.82011 0.71625 0.42128 0.0
H1999 H 0.85675 0.71605 0.40646 0.0
C2000 C 0.5624 0.51059 0.60717 0.0
C2001 C 0.55749 0.49432 0.60219 0.0
C2002 C 0.58425 0.51064 0.61561 0.0
C2003 C 0.65846 0.48201 0.63035 0.0
H2004 H 0.62322 0.5166 0.64906 0.0
C2005 C 0.71706 0.47847 0.66822 0.0
C2006 C 0.73405 0.4948 0.67182 0.0
C2007 C 0.69586 0.47833 0.65971 0.0
C2008 C 0.63354 0.50693 0.64388 0.0
H2009 H 0.57116 0.4653 0.60216 0.0
H2010 H 0.60735 0.46513 0.61704 0.0
H2011 H 0.58495 0.51624 0.63441 0.0
H2012 H 0.74155 0.52384 0.66944 0.0
H2013 H 0.70344 0.52368 0.65466 0.0
H2014 H 0.70601 0.47233 0.64006 0.0
C2015 C 0.59576 0.47804 0.61436 0.0
C2016 C 0.6118 0.50676 0.63542 0.0
C2017 C 0.57461 0.47807 0.60584 0.0
C2018 C 0.72895 0.51103 0.66681 0.0
C2019 C 0.70698 0.51096 0.65838 0.0
C2020 C 0.67959 0.48196 0.63887 0.0
C2021 C 0.60111 0.49435 0.61939 0.0
C2022 C 0.62404 0.49437 0.62849 0.0
C2023 C 0.69041 0.49459 0.65471 0.0
C2024 C 0.66753 0.49448 0.64571 0.0
H2025 H 0.54992 0.52336 0.60447 0.0
H2026 H 0.58838 0.52357 0.61909 0.0
H2027 H 0.6697 0.47249 0.62519 0.0
H2028 H 0.72043 0.46576 0.67196 0.0
H2029 H 0.68315 0.46554 0.65708 0.0
C2030 C 0.73229 0.7197 0.60673 0.0
C2031 C 0.73705 0.73595 0.60174 0.0
C2032 C 0.7103 0.71964 0.61516 0.0
C2033 C 0.63494 0.74809 0.62968 0.0
H2034 H 0.67089 0.71416 0.64863 0.0
C2035 C 0.57392 0.75229 0.66732 0.0
C2036 C 0.55806 0.7359 0.67107 0.0
C2037 C 0.59565 0.75232 0.65887 0.0
C2038 C 0.66035 0.72365 0.64338 0.0
H2039 H 0.72297 0.76494 0.60166 0.0
H2040 H 0.68642 0.7651 0.61649 0.0
H2041 H 0.70946 0.71439 0.63402 0.0
H2042 H 0.55317 0.70666 0.66903 0.0
H2043 H 0.59209 0.70666 0.65435 0.0
H2044 H 0.58674 0.7577 0.63926 0.0
C2045 C 0.6983 0.7522 0.61384 0.0
C2046 C 0.68228 0.72373 0.63496 0.0
C2047 C 0.71966 0.75218 0.60535 0.0
C2048 C 0.56489 0.71951 0.66628 0.0
C2049 C 0.58734 0.71949 0.65791 0.0
C2050 C 0.61355 0.74821 0.63817 0.0
C2051 C 0.69307 0.73592 0.61888 0.0
C2052 C 0.66983 0.73591 0.62794 0.0
C2053 C 0.60272 0.73592 0.65408 0.0
C2054 C 0.62587 0.73594 0.6451 0.0
H2055 H 0.74502 0.70695 0.60406 0.0
H2056 H 0.70631 0.70673 0.61867 0.0
H2057 H 0.62353 0.75743 0.62445 0.0
H2058 H 0.56921 0.76512 0.67088 0.0
H2059 H 0.60743 0.76516 0.65612 0.0
C2060 C 0.32444 0.50177 0.35586 0.0
C2061 C 0.30729 0.48548 0.35223 0.0
C2062 C 0.34585 0.5018 0.36436 0.0
C2063 C 0.40786 0.47277 0.38013 0.0
H2064 H 0.37396 0.50772 0.39875 0.0
C2065 C 0.48011 0.46907 0.41675 0.0
C2066 C 0.48633 0.48541 0.42161 0.0
C2067 C 0.45781 0.46904 0.40836 0.0
C2068 C 0.38456 0.49804 0.39361 0.0
H2069 H 0.29971 0.45643 0.35455 0.0
H2070 H 0.33808 0.4564 0.3693 0.0
H2071 H 0.33715 0.508 0.38394 0.0
H2072 H 0.47445 0.51456 0.42148 0.0
H2073 H 0.43737 0.51474 0.4067 0.0
H2074 H 0.45625 0.46315 0.38957 0.0
C2075 C 0.33457 0.46916 0.36562 0.0
C2076 C 0.36315 0.49816 0.38512 0.0
C2077 C 0.31244 0.46919 0.35721 0.0
C2078 C 0.47 0.50174 0.41789 0.0
C2079 C 0.44834 0.50178 0.40943 0.0
C2080 C 0.42984 0.47284 0.38856 0.0
C2081 C 0.35132 0.48548 0.36931 0.0
C2082 C 0.37442 0.48548 0.3783 0.0
C2083 C 0.44176 0.48542 0.40452 0.0
C2084 C 0.41844 0.48543 0.39546 0.0
H2085 H 0.32105 0.51452 0.35217 0.0
H2086 H 0.35871 0.51455 0.367 0.0
H2087 H 0.4176 0.46295 0.37496 0.0
H2088 H 0.49199 0.45624 0.4195 0.0
H2089 H 0.45273 0.45608 0.40496 0.0
C2090 C 0.31245 0.26227 0.41661 0.0
C2091 C 0.30618 0.24597 0.42151 0.0
C2092 C 0.33489 0.2622 0.40824 0.0
C2093 C 0.36262 0.2331 0.3887 0.0
H2094 H 0.45706 0.26754 0.38439 0.0
C2095 C 0.47005 0.22904 0.35603 0.0
C2096 C 0.48684 0.2453 0.35234 0.0
C2097 C 0.44828 0.22908 0.36448 0.0
C2098 C 0.43029 0.25801 0.38537 0.0
H2099 H 0.31829 0.2168 0.42149 0.0
H2100 H 0.35653 0.21661 0.40673 0.0
H2101 H 0.41813 0.26789 0.39896 0.0
H2102 H 0.49324 0.27443 0.35447 0.0
H2103 H 0.45385 0.27474 0.36899 0.0
H2104 H 0.37341 0.22355 0.37506 0.0
C2105 C 0.3443 0.22945 0.4094 0.0
C2106 C 0.40814 0.25817 0.39377 0.0
C2107 C 0.32255 0.22957 0.41785 0.0
C2108 C 0.481 0.26165 0.3572 0.0
C2109 C 0.45862 0.26176 0.36558 0.0
C2110 C 0.38423 0.23313 0.38023 0.0
C2111 C 0.35085 0.24578 0.40451 0.0
C2112 C 0.37419 0.24567 0.39555 0.0
C2113 C 0.44207 0.24546 0.3694 0.0
C2114 C 0.41859 0.24554 0.37843 0.0
H2115 H 0.30033 0.27512 0.41929 0.0
H2116 H 0.33923 0.27497 0.40461 0.0
H2117 H 0.33623 0.22344 0.38983 0.0
H2118 H 0.4742 0.21621 0.35244 0.0
H2119 H 0.43691 0.21617 0.3672 0.0
C2120 C 0.73083 0.01219 0.16712 0.0
C2121 C 0.73681 -0.00415 0.17198 0.0
C2122 C 0.70833 0.01228 0.15875 0.0
C2123 C 0.63393 0.98351 0.14415 0.0
H2124 H 0.66718 0.01827 0.12537 0.0
C2125 C 0.57257 0.97947 0.10653 0.0
C2126 C 0.55577 -0.00424 0.10284 0.0
C2127 C 0.59425 0.97951 0.11499 0.0
C2128 C 0.65738 0.00855 0.13058 0.0
H2129 H 0.72439 0.96674 0.17188 0.0
H2130 H 0.68696 0.96665 0.15714 0.0
H2131 H 0.70626 0.01807 0.13994 0.0
H2132 H 0.54908 0.0249 0.10501 0.0
H2133 H 0.5879 0.02504 0.11971 0.0
H2134 H 0.58601 0.97365 0.13458 0.0
C2135 C 0.69824 0.97958 0.15985 0.0
C2136 C 0.67961 0.00848 0.13898 0.0
C2137 C 0.72011 0.97957 0.16829 0.0
C2138 C 0.56154 0.01213 0.10771 0.0
C2139 C 0.58393 0.01222 0.1161 0.0
C2140 C 0.61226 0.98339 0.13569 0.0
C2141 C 0.69182 -0.00404 0.15495 0.0
C2142 C 0.66817 -0.004 0.14593 0.0
C2143 C 0.60032 -0.0041 0.11986 0.0
C2144 C 0.62362 -0.00405 0.12882 0.0
H2145 H 0.74301 0.02499 0.16985 0.0
H2146 H 0.70343 0.02525 0.15534 0.0
H2147 H 0.62329 0.97393 0.14934 0.0
H2148 H 0.5687 0.96666 0.10291 0.0
H2149 H 0.60682 0.96675 0.11768 0.0
C2150 C 0.71833 0.2528 0.1058 0.0
C2151 C 0.73548 0.23654 0.10217 0.0
C2152 C 0.69711 0.25286 0.11431 0.0
C2153 C 0.68088 0.22422 0.13539 0.0
H2154 H 0.58673 0.25873 0.13995 0.0
C2155 C 0.56365 0.22023 0.16676 0.0
C2156 C 0.55849 0.2365 0.17174 0.0
C2157 C 0.58568 0.22023 0.15834 0.0
C2158 C 0.61314 0.24908 0.13878 0.0
H2159 H 0.74307 0.20751 0.10448 0.0
H2160 H 0.7045 0.20734 0.11909 0.0
H2161 H 0.6231 0.25845 0.12509 0.0
H2162 H 0.57208 0.26555 0.17181 0.0
H2163 H 0.60945 0.26564 0.15695 0.0
H2164 H 0.66939 0.21448 0.14904 0.0
C2165 C 0.70864 0.22026 0.11559 0.0
C2166 C 0.63431 0.24896 0.13027 0.0
C2167 C 0.73055 0.22029 0.10716 0.0
C2168 C 0.57549 0.25281 0.16811 0.0
C2169 C 0.59675 0.25288 0.1596 0.0
C2170 C 0.65911 0.22412 0.14384 0.0
C2171 C 0.69173 0.23657 0.11935 0.0
C2172 C 0.66871 0.23658 0.12843 0.0
C2173 C 0.60224 0.23657 0.15464 0.0
C2174 C 0.62515 0.2366 0.14564 0.0
H2175 H 0.72179 0.26556 0.10211 0.0
H2176 H 0.68549 0.26578 0.11697 0.0
H2177 H 0.70771 0.21473 0.1344 0.0
H2178 H 0.55105 0.20745 0.16942 0.0
H2179 H 0.58925 0.20748 0.15465 0.0
C2180 C 0.32234 0.00201 0.85671 0.0
C2181 C 0.30548 0.98575 0.85299 0.0
C2182 C 0.34423 0.0019 0.86514 0.0
C2183 C 0.40755 0.97264 0.88062 0.0
H2184 H 0.37381 0.00707 0.8995 0.0
C2185 C 0.48068 0.96825 0.91715 0.0
C2186 C 0.48694 0.98449 0.92208 0.0
C2187 C 0.45823 0.96836 0.90878 0.0
C2188 C 0.38436 -0.00246 0.89428 0.0
H2189 H 0.29888 0.9566 0.85511 0.0
H2190 H 0.33801 0.95633 0.86976 0.0
H2191 H 0.33648 0.00761 0.88474 0.0
H2192 H 0.47499 0.01365 0.92209 0.0
H2193 H 0.43761 0.01407 0.90734 0.0
H2194 H 0.45634 0.9629 0.88994 0.0
C2195 C 0.33396 0.96918 0.86618 0.0
C2196 C 0.36266 -0.00219 0.88582 0.0
C2197 C 0.31138 0.96935 0.85783 0.0
C2198 C 0.47051 0.00089 0.91845 0.0
C2199 C 0.44868 0.00107 0.91001 0.0
C2200 C 0.42979 0.97256 0.88902 0.0
C2201 C 0.35042 0.98547 0.86996 0.0
C2202 C 0.37387 0.98531 0.87891 0.0
C2203 C 0.44203 0.98479 0.90503 0.0
C2204 C 0.41845 0.98496 0.89601 0.0
H2205 H 0.31836 0.01486 0.85311 0.0
H2206 H 0.35684 0.01464 0.86785 0.0
H2207 H 0.41724 0.96297 0.87538 0.0
H2208 H 0.49264 0.95537 0.91984 0.0
H2209 H 0.45313 0.95546 0.90532 0.0
C2210 C 0.46877 0.72913 0.8553 0.0
C2211 C 0.48599 0.74541 0.85168 0.0
C2212 C 0.44752 0.72907 0.86381 0.0
C2213 C 0.38601 0.7581 0.87965 0.0
H2214 H 0.4196 0.7229 0.89819 0.0
C2215 C 0.31391 0.76162 0.91627 0.0
C2216 C 0.30743 0.74526 0.92108 0.0
C2217 C 0.33626 0.76167 0.90788 0.0
C2218 C 0.4091 0.73265 0.89307 0.0
H2219 H 0.49393 0.77443 0.85405 0.0
H2220 H 0.45583 0.77442 0.86882 0.0
H2221 H 0.45634 0.72269 0.88337 0.0
H2222 H 0.31897 0.71608 0.9209 0.0
H2223 H 0.35614 0.71594 0.90613 0.0
H2224 H 0.33778 0.76772 0.88912 0.0
C2225 C 0.45915 0.76168 0.86512 0.0
C2226 C 0.43046 0.73257 0.88458 0.0
C2227 C 0.48112 0.76167 0.85669 0.0
C2228 C 0.32361 0.72892 0.91735 0.0
C2229 C 0.34532 0.72891 0.90889 0.0
C2230 C 0.36408 0.75799 0.88808 0.0
C2231 C 0.4423 0.74536 0.86879 0.0
C2232 C 0.4193 0.74534 0.87779 0.0
C2233 C 0.3521 0.7453 0.90402 0.0
C2234 C 0.37538 0.74531 0.89496 0.0
H2235 H 0.47196 0.7164 0.85158 0.0
H2236 H 0.43458 0.71632 0.86643 0.0
H2237 H 0.37635 0.76798 0.87451 0.0
H2238 H 0.30217 0.77445 0.91903 0.0
H2239 H 0.34151 0.77465 0.90451 0.0
C2240 C 0.22886 0.67588 0.07388 0.0
C2241 C 0.19786 0.69011 0.07405 0.0
C2242 C 0.21533 0.65776 0.07386 0.0
C2243 C 0.12779 0.62795 0.06699 0.0
H2244 H 0.17706 0.59411 0.08469 0.0
C2245 C 0.06259 0.55514 0.07103 0.0
C2246 C 0.09189 0.54098 0.07327 0.0
C2247 C 0.07667 0.57317 0.07081 0.0
C2248 C 0.16362 0.6033 0.0796 0.0
H2249 H 0.12841 0.69661 0.07432 0.0
H2250 H 0.10449 0.66453 0.07405 0.0
H2251 H 0.19753 0.62632 0.08524 0.0
H2252 H 0.15932 0.53459 0.07681 0.0
H2253 H 0.18451 0.56631 0.07616 0.0
H2254 H 0.09491 0.605 0.06114 0.0
C2255 C 0.13929 0.66762 0.074 0.0
C2256 C 0.17498 0.62173 0.07998 0.0
C2257 C 0.1529 0.68588 0.07418 0.0
C2258 C 0.136 0.54522 0.07508 0.0
C2259 C 0.15028 0.56338 0.07477 0.0
C2260 C 0.11689 0.60948 0.06652 0.0
C2261 C 0.17053 0.65347 0.0739 0.0
C2262 C 0.15698 0.63418 0.07371 0.0
C2263 C 0.12057 0.57756 0.07272 0.0
C2264 C 0.13442 0.59696 0.07286 0.0
H2265 H 0.2638 0.67869 0.07387 0.0
H2266 H 0.23994 0.64706 0.07371 0.0
H2267 H 0.11417 0.6373 0.06199 0.0
H2268 H 0.02823 0.55242 0.06966 0.0
H2269 H 0.05267 0.58373 0.06939 0.0
C2270 C 0.13978 0.68552 0.19915 0.0
C2271 C 0.09486 0.68983 0.19901 0.0
C2272 C 0.15321 0.66724 0.19943 0.0
C2273 C 0.11802 0.62132 0.19338 0.0
H2274 H 0.19503 0.60472 0.2128 0.0
C2275 C 0.15601 0.54483 0.19865 0.0
C2276 C 0.19987 0.54059 0.20072 0.0
C2277 C 0.14164 0.56299 0.19889 0.0
C2278 C 0.17391 0.60916 0.20726 0.0
H2279 H 0.02883 0.67853 0.19881 0.0
H2280 H 0.05238 0.64685 0.19915 0.0
H2281 H 0.17621 0.63704 0.2117 0.0
H2282 H 0.2629 0.55202 0.20477 0.0
H2283 H 0.23838 0.58331 0.20491 0.0
H2284 H 0.11642 0.59364 0.18876 0.0
C2285 C 0.0771 0.6575 0.19912 0.0
C2286 C 0.16327 0.62764 0.20665 0.0
C2287 C 0.06373 0.67564 0.199 0.0
C2288 C 0.22876 0.55473 0.20318 0.0
C2289 C 0.21461 0.57277 0.20333 0.0
C2290 C 0.12915 0.60287 0.1939 0.0
C2291 C 0.12184 0.65314 0.19937 0.0
C2292 C 0.13519 0.63383 0.19972 0.0
C2293 C 0.17103 0.57716 0.20113 0.0
C2294 C 0.15726 0.59658 0.20085 0.0
H2295 H 0.16436 0.69622 0.19915 0.0
H2296 H 0.18798 0.66409 0.1996 0.0
H2297 H 0.09633 0.62587 0.18795 0.0
H2298 H 0.13299 0.53421 0.19674 0.0
H2299 H 0.10764 0.56592 0.19728 0.0
C2300 C 0.88875 0.29434 0.94879 0.0
C2301 C 0.84433 0.29 0.95015 0.0
C2302 C 0.90251 0.31257 0.94903 0.0
C2303 C 0.86599 0.35876 0.95646 0.0
H2304 H 0.95246 0.37531 0.93885 0.0
C2305 C 0.90445 0.43502 0.94899 0.0
C2306 C 0.94932 0.43927 0.9496 0.0
C2307 C 0.8908 0.41677 0.94913 0.0
C2308 C 0.92828 0.37081 0.9438 0.0
H2309 H 0.77945 0.30131 0.95273 0.0
H2310 H 0.80306 0.33276 0.95286 0.0
H2311 H 0.93187 0.34311 0.93925 0.0
H2312 H 1.01508 0.42785 0.95068 0.0
H2313 H 0.99117 0.39625 0.9508 0.0
H2314 H 0.86185 0.38665 0.96084 0.0
C2315 C 0.82764 0.32224 0.9519 0.0
C2316 C 0.91681 0.35238 0.9441 0.0
C2317 C 0.81407 0.30413 0.95177 0.0
C2318 C 0.98019 0.42505 0.95027 0.0
C2319 C 0.96665 0.40693 0.95027 0.0
C2320 C 0.87704 0.37722 0.95608 0.0
C2321 C 0.87195 0.32671 0.95053 0.0
C2322 C 0.88554 0.34614 0.95044 0.0
C2323 C 0.92195 0.40264 0.94969 0.0
C2324 C 0.90836 0.38335 0.94977 0.0
H2325 H 0.91277 0.28371 0.94755 0.0
H2326 H 0.93702 0.31557 0.94805 0.0
H2327 H 0.84235 0.35436 0.96154 0.0
H2328 H 0.88003 0.44573 0.94845 0.0
H2329 H 0.85607 0.41367 0.94866 0.0
C2330 C 0.81482 0.42705 0.82087 0.0
C2331 C 0.84403 0.44116 0.82323 0.0
C2332 C 0.82879 0.409 0.82068 0.0
C2333 C 0.9148 0.37874 0.82976 0.0
H2334 H 0.86623 0.34477 0.81204 0.0
C2335 C 0.97951 0.30597 0.82429 0.0
C2336 C 0.94832 0.29181 0.82435 0.0
C2337 C 0.96622 0.32412 0.82424 0.0
C2338 C 0.8796 0.35411 0.81707 0.0
H2339 H 0.91125 0.44744 0.82698 0.0
H2340 H 0.93627 0.41569 0.82638 0.0
H2341 H 0.84745 0.37712 0.81109 0.0
H2342 H 0.87878 0.28548 0.82442 0.0
H2343 H 0.85529 0.31762 0.8241 0.0
H2344 H 0.94799 0.35566 0.83554 0.0
C2345 C 0.90218 0.41867 0.82488 0.0
C2346 C 0.86897 0.37261 0.81654 0.0
C2347 C 0.88799 0.43685 0.82516 0.0
C2348 C 0.90341 0.29616 0.82436 0.0
C2349 C 0.89005 0.31445 0.82415 0.0
C2350 C 0.9259 0.36028 0.8302 0.0
C2351 C 0.87251 0.40454 0.82273 0.0
C2352 C 0.88618 0.38511 0.82293 0.0
C2353 C 0.92148 0.32852 0.82414 0.0
C2354 C 0.9082 0.34784 0.82389 0.0
H2355 H 0.78058 0.42982 0.8194 0.0
H2356 H 0.80482 0.39848 0.81918 0.0
H2357 H 0.92797 0.38791 0.83489 0.0
H2358 H 1.01441 0.30306 0.82437 0.0
H2359 H 0.99098 0.33476 0.82416 0.0
C2360 C 0.06219 0.05554 0.574 0.0
C2361 C 0.09264 0.04114 0.57459 0.0
C2362 C 0.07632 0.07356 0.57383 0.0
C2363 C 0.16554 0.10285 0.56742 0.0
H2364 H 0.11403 0.13717 0.58459 0.0
C2365 C 0.23011 0.17584 0.57133 0.0
C2366 C 0.20044 0.19003 0.57329 0.0
C2367 C 0.21618 0.15778 0.57117 0.0
C2368 C 0.12814 0.12785 0.57965 0.0
H2369 H 0.16182 0.03429 0.5754 0.0
H2370 H 0.18683 0.06622 0.57488 0.0
H2371 H 0.09319 0.10503 0.5852 0.0
H2372 H 0.13256 0.19645 0.5764 0.0
H2373 H 0.10765 0.16468 0.57584 0.0
H2374 H 0.19947 0.12562 0.56165 0.0
C2375 C 0.15196 0.06331 0.57461 0.0
C2376 C 0.11656 0.10945 0.58006 0.0
C2377 C 0.13772 0.04513 0.57493 0.0
C2378 C 0.15615 0.18579 0.5749 0.0
C2379 C 0.14203 0.1676 0.57463 0.0
C2380 C 0.17669 0.1213 0.56691 0.0
C2381 C 0.1212 0.07761 0.57415 0.0
C2382 C 0.13527 0.09683 0.57397 0.0
C2383 C 0.17208 0.1534 0.57285 0.0
C2384 C 0.15829 0.13399 0.57306 0.0
H2385 H 0.02716 0.05295 0.5738 0.0
H2386 H 0.05209 0.08438 0.57339 0.0
H2387 H 0.17977 0.09336 0.56257 0.0
H2388 H 0.26461 0.17857 0.57014 0.0
H2389 H 0.24042 0.14722 0.56997 0.0
C2390 C 0.13736 0.18707 0.69905 0.0
C2391 C 0.09249 0.19108 0.70005 0.0
C2392 C 0.1518 0.16892 0.69928 0.0
C2393 C 0.11442 0.12271 0.69465 0.0
H2394 H 0.20527 0.10682 0.71144 0.0
C2395 C 0.15537 0.04642 0.6997 0.0
C2396 C 0.19999 0.04204 0.7007 0.0
C2397 C 0.14183 0.06469 0.6999 0.0
C2398 C 0.18025 0.11106 0.70662 0.0
H2399 H 0.02764 0.17925 0.70209 0.0
H2400 H 0.05289 0.14787 0.70237 0.0
H2401 H 0.18504 0.13905 0.71082 0.0
H2402 H 0.26548 0.0533 0.70252 0.0
H2403 H 0.2422 0.08483 0.70257 0.0
H2404 H 0.11007 0.09493 0.69027 0.0
C2405 C 0.07679 0.15868 0.70143 0.0
C2406 C 0.16878 0.12949 0.70628 0.0
C2407 C 0.0625 0.17669 0.70133 0.0
C2408 C 0.23071 0.05618 0.70187 0.0
C2409 C 0.21734 0.07432 0.70195 0.0
C2410 C 0.12628 0.10433 0.69489 0.0
C2411 C 0.12142 0.15463 0.70036 0.0
C2412 C 0.13562 0.13541 0.70034 0.0
C2413 C 0.1728 0.07883 0.70098 0.0
C2414 C 0.15926 0.09827 0.7009 0.0
H2415 H 0.16114 0.1979 0.69805 0.0
H2416 H 0.18646 0.16602 0.69844 0.0
H2417 H 0.08885 0.12705 0.68997 0.0
H2418 H 0.13101 0.03579 0.69881 0.0
H2419 H 0.10715 0.06771 0.69925 0.0
C2420 C 0.88749 0.79566 0.44851 0.0
C2421 C 0.84289 0.79135 0.44958 0.0
C2422 C 0.90128 0.81389 0.44886 0.0
C2423 C 0.86382 0.85993 0.45629 0.0
H2424 H 0.95329 0.87684 0.43943 0.0
C2425 C 0.90335 0.93632 0.44943 0.0
C2426 C 0.9481 0.94061 0.45031 0.0
C2427 C 0.88978 0.91806 0.44946 0.0
C2428 C 0.92829 0.87223 0.44418 0.0
H2429 H 0.77766 0.80269 0.4517 0.0
H2430 H 0.80136 0.83413 0.45203 0.0
H2431 H 0.9325 0.84465 0.43948 0.0
H2432 H 1.01373 0.92924 0.4518 0.0
H2433 H 0.98998 0.89761 0.45172 0.0
H2434 H 0.85907 0.88771 0.46081 0.0
C2435 C 0.82604 0.82359 0.45122 0.0
C2436 C 0.91667 0.85381 0.44427 0.0
C2437 C 0.81242 0.8055 0.45097 0.0
C2438 C 0.97893 0.92641 0.45118 0.0
C2439 C 0.96549 0.90828 0.45106 0.0
C2440 C 0.87503 0.87839 0.45611 0.0
C2441 C 0.87058 0.82804 0.4502 0.0
C2442 C 0.88429 0.84745 0.45033 0.0
C2443 C 0.92092 0.90395 0.45018 0.0
C2444 C 0.90742 0.88464 0.45007 0.0
H2445 H 0.91166 0.78502 0.44743 0.0
H2446 H 0.93595 0.81687 0.44814 0.0
H2447 H 0.83931 0.85543 0.46117 0.0
H2448 H 0.87895 0.947 0.44874 0.0
H2449 H 0.85516 0.91493 0.44876 0.0
C2450 C 0.97814 0.80408 0.32027 0.0
C2451 C 0.94915 0.78997 0.32273 0.0
C2452 C 0.96418 0.82214 0.32016 0.0
C2453 C 0.87918 0.85231 0.32971 0.0
H2454 H 0.92616 0.88656 0.31194 0.0
C2455 C 0.81366 0.92505 0.32467 0.0
C2456 C 0.84471 0.93926 0.3247 0.0
C2457 C 0.82712 0.90692 0.32453 0.0
C2458 C 0.91326 0.87713 0.31699 0.0
H2459 H 0.88228 0.78368 0.32673 0.0
H2460 H 0.85725 0.81544 0.32627 0.0
H2461 H 0.9448 0.85422 0.31078 0.0
H2462 H 0.91419 0.94571 0.32461 0.0
H2463 H 0.93797 0.9136 0.32411 0.0
H2464 H 0.84654 0.8753 0.3357 0.0
C2465 C 0.8912 0.81246 0.32463 0.0
C2466 C 0.92379 0.85864 0.31634 0.0
C2467 C 0.90537 0.79428 0.32483 0.0
C2468 C 0.88966 0.93499 0.32458 0.0
C2469 C 0.90319 0.91672 0.32427 0.0
C2470 C 0.86816 0.87076 0.33027 0.0
C2471 C 0.92069 0.8266 0.3224 0.0
C2472 C 0.90713 0.84603 0.32273 0.0
C2473 C 0.87188 0.9026 0.3243 0.0
C2474 C 0.88528 0.8833 0.32394 0.0
H2475 H 1.01223 0.80132 0.31866 0.0
H2476 H 0.98803 0.83266 0.31859 0.0
H2477 H 0.86646 0.84305 0.33484 0.0
H2478 H 0.77874 0.92789 0.32486 0.0
H2479 H 0.80245 0.89625 0.32448 0.0
C2480 C 0.63962 0.54501 0.57475 0.0
C2481 C 0.59466 0.54081 0.57439 0.0
C2482 C 0.65338 0.56325 0.57457 0.0
C2483 C 0.61701 0.60926 0.58016 0.0
H2484 H 0.70017 0.62564 0.56184 0.0
C2485 C 0.65561 0.6857 0.57487 0.0
C2486 C 0.6998 0.69008 0.57324 0.0
C2487 C 0.64187 0.66747 0.57471 0.0
C2488 C 0.67733 0.62126 0.56708 0.0
H2489 H 0.52885 0.5523 0.57376 0.0
H2490 H 0.55294 0.5839 0.57359 0.0
H2491 H 0.68074 0.59336 0.5627 0.0
H2492 H 0.76426 0.6788 0.5702 0.0
H2493 H 0.74072 0.64733 0.5702 0.0
H2494 H 0.61415 0.63697 0.58471 0.0
C2495 C 0.57745 0.57318 0.57394 0.0
C2496 C 0.66632 0.6028 0.56755 0.0
C2497 C 0.5638 0.55508 0.57396 0.0
C2498 C 0.72981 0.67596 0.57139 0.0
C2499 C 0.71627 0.65784 0.57134 0.0
C2500 C 0.62846 0.62768 0.57977 0.0
C2501 C 0.62226 0.57742 0.57423 0.0
C2502 C 0.63597 0.5967 0.57407 0.0
C2503 C 0.67222 0.65334 0.57301 0.0
C2504 C 0.65871 0.6339 0.57322 0.0
H2505 H 0.66403 0.53426 0.5751 0.0
H2506 H 0.68818 0.5663 0.57482 0.0
H2507 H 0.5936 0.60478 0.58527 0.0
H2508 H 0.63176 0.69631 0.5763 0.0
H2509 H 0.60754 0.66445 0.57592 0.0
C2510 C 0.72897 0.55595 0.69955 0.0
C2511 C 0.6977 0.54182 0.69947 0.0
C2512 C 0.71578 0.57411 0.69958 0.0
C2513 C 0.62927 0.6042 0.70667 0.0
H2514 H 0.67782 0.63791 0.68884 0.0
C2515 C 0.56416 0.67701 0.70268 0.0
C2516 C 0.59327 0.69115 0.70032 0.0
C2517 C 0.5783 0.65898 0.70293 0.0
C2518 C 0.66461 0.62876 0.69397 0.0
H2519 H 0.62812 0.53556 0.69936 0.0
H2520 H 0.60482 0.56773 0.69964 0.0
H2521 H 0.69783 0.60565 0.68824 0.0
H2522 H 0.66047 0.69752 0.6966 0.0
H2523 H 0.68579 0.6658 0.69729 0.0
H2524 H 0.59708 0.62724 0.71261 0.0
C2525 C 0.63956 0.56451 0.69962 0.0
C2526 C 0.6757 0.61029 0.69356 0.0
C2527 C 0.65281 0.54621 0.69943 0.0
C2528 C 0.6373 0.6869 0.69843 0.0
C2529 C 0.65165 0.66874 0.69876 0.0
C2530 C 0.61866 0.6227 0.70717 0.0
C2531 C 0.67107 0.57855 0.69964 0.0
C2532 C 0.6579 0.59789 0.69987 0.0
C2533 C 0.62209 0.65458 0.70092 0.0
C2534 C 0.6359 0.63517 0.70078 0.0
H2535 H 0.76385 0.55301 0.69949 0.0
H2536 H 0.7406 0.58472 0.69967 0.0
H2537 H 0.61583 0.59489 0.71171 0.0
H2538 H 0.52988 0.67973 0.70413 0.0
H2539 H 0.55441 0.64845 0.70443 0.0
C2540 C 0.40578 0.43619 0.4493 0.0
C2541 C 0.45038 0.44033 0.45055 0.0
C2542 C 0.39148 0.41804 0.44966 0.0
C2543 C 0.42713 0.37171 0.45714 0.0
H2544 H 0.33989 0.35546 0.43961 0.0
C2545 C 0.3868 0.29559 0.44936 0.0
C2546 C 0.34183 0.29153 0.45003 0.0
C2547 C 0.40097 0.31377 0.44963 0.0
C2548 C 0.36429 0.35988 0.44454 0.0
H2549 H 0.51501 0.42871 0.45311 0.0
H2550 H 0.49047 0.39742 0.45344 0.0
H2551 H 0.36101 0.38759 0.44 0.0
H2552 H 0.27648 0.30326 0.4514 0.0
H2553 H 0.30128 0.3347 0.45173 0.0
H2554 H 0.43097 0.34378 0.46147 0.0
C2555 C 0.46615 0.40804 0.45247 0.0
C2556 C 0.37605 0.37827 0.44483 0.0
C2557 C 0.48026 0.42607 0.45221 0.0
C2558 C 0.31143 0.30588 0.45093 0.0
C2559 C 0.32547 0.32392 0.45106 0.0
C2560 C 0.41579 0.35327 0.45674 0.0
C2561 C 0.42168 0.40377 0.45118 0.0
C2562 C 0.40761 0.3844 0.45114 0.0
C2563 C 0.37023 0.32802 0.45038 0.0
C2564 C 0.3842 0.34726 0.45046 0.0
H2565 H 0.38204 0.44692 0.44802 0.0
H2566 H 0.35685 0.4152 0.44875 0.0
H2567 H 0.451 0.37602 0.46219 0.0
H2568 H 0.41087 0.28478 0.44865 0.0
H2569 H 0.43574 0.31673 0.44909 0.0
C2570 C 0.47984 0.30429 0.32117 0.0
C2571 C 0.45045 0.29008 0.32324 0.0
C2572 C 0.46562 0.32231 0.32092 0.0
C2573 C 0.37751 0.35223 0.32938 0.0
H2574 H 0.42848 0.3865 0.31211 0.0
C2575 C 0.31256 0.42488 0.32377 0.0
C2576 C 0.3435 0.4391 0.32419 0.0
C2577 C 0.32612 0.40676 0.32364 0.0
C2578 C 0.41441 0.37707 0.31702 0.0
H2579 H 0.38274 0.28357 0.32647 0.0
H2580 H 0.35733 0.31526 0.32577 0.0
H2581 H 0.44807 0.35422 0.31125 0.0
H2582 H 0.41293 0.44558 0.32478 0.0
H2583 H 0.43691 0.41352 0.32434 0.0
H2584 H 0.34287 0.37514 0.33494 0.0
C2585 C 0.39172 0.31239 0.32453 0.0
C2586 C 0.4255 0.35861 0.31654 0.0
C2587 C 0.40614 0.29425 0.32487 0.0
C2588 C 0.38846 0.43486 0.32444 0.0
C2589 C 0.40212 0.41661 0.32416 0.0
C2590 C 0.36596 0.37064 0.32977 0.0
C2591 C 0.42149 0.32662 0.32264 0.0
C2592 C 0.40744 0.346 0.32276 0.0
C2593 C 0.37091 0.40247 0.32383 0.0
C2594 C 0.3845 0.38318 0.32362 0.0
H2595 H 0.51435 0.30162 0.31995 0.0
H2596 H 0.48965 0.33291 0.31963 0.0
H2597 H 0.36363 0.34297 0.33438 0.0
H2598 H 0.27762 0.42768 0.32364 0.0
H2599 H 0.30155 0.39607 0.32331 0.0
C2600 C 0.5624 0.05525 0.07282 0.0
C2601 C 0.59249 0.04094 0.07423 0.0
C2602 C 0.57642 0.0733 0.07276 0.0
C2603 C 0.66856 0.10266 0.06831 0.0
H2604 H 0.60786 0.13717 0.08402 0.0
C2605 C 0.72992 0.1759 0.07305 0.0
C2606 C 0.69909 0.19006 0.07403 0.0
C2607 C 0.71652 0.15777 0.07293 0.0
C2608 C 0.62464 0.12778 0.07948 0.0
H2609 H 0.66104 0.0343 0.07654 0.0
H2610 H 0.68589 0.06623 0.07623 0.0
H2611 H 0.58679 0.10502 0.08421 0.0
H2612 H 0.62994 0.19638 0.07555 0.0
H2613 H 0.60606 0.16446 0.07504 0.0
H2614 H 0.70551 0.12536 0.06334 0.0
C2615 C 0.65136 0.06324 0.07524 0.0
C2616 C 0.61285 0.10939 0.07966 0.0
C2617 C 0.63719 0.04506 0.07543 0.0
C2618 C 0.65437 0.18572 0.07481 0.0
C2619 C 0.64081 0.16746 0.07457 0.0
C2620 C 0.67997 0.12109 0.06803 0.0
C2621 C 0.62087 0.07746 0.07402 0.0
C2622 C 0.63479 0.09671 0.07409 0.0
C2623 C 0.67186 0.1533 0.07366 0.0
C2624 C 0.65829 0.13386 0.07366 0.0
H2625 H 0.52767 0.05259 0.07191 0.0
H2626 H 0.55245 0.08404 0.07171 0.0
H2627 H 0.6854 0.09311 0.06386 0.0
H2628 H 0.76476 0.17875 0.07257 0.0
H2629 H 0.74142 0.14725 0.07245 0.0
C2630 C 0.5635 0.17562 0.19987 0.0
C2631 C 0.59461 0.1898 0.19966 0.0
C2632 C 0.57689 0.15748 0.19999 0.0
C2633 C 0.66409 0.12765 0.20706 0.0
H2634 H 0.61502 0.0936 0.18945 0.0
C2635 C 0.72928 0.05475 0.20329 0.0
C2636 C 0.70005 0.04058 0.20104 0.0
C2637 C 0.71517 0.07279 0.20347 0.0
C2638 C 0.62839 0.10284 0.19452 0.0
H2639 H 0.66412 0.19618 0.19942 0.0
H2640 H 0.68778 0.16407 0.19986 0.0
H2641 H 0.59468 0.12581 0.18876 0.0
H2642 H 0.63271 0.03417 0.19745 0.0
H2643 H 0.60746 0.0659 0.19803 0.0
H2644 H 0.69679 0.10476 0.21302 0.0
C2645 C 0.65301 0.16721 0.19987 0.0
C2646 C 0.6171 0.12128 0.19406 0.0
C2647 C 0.63954 0.18549 0.19959 0.0
C2648 C 0.65597 0.04482 0.19919 0.0
C2649 C 0.64166 0.06298 0.19946 0.0
C2650 C 0.67491 0.10917 0.20761 0.0
C2651 C 0.62165 0.15312 0.20001 0.0
C2652 C 0.63505 0.13381 0.20029 0.0
C2653 C 0.67131 0.07717 0.20151 0.0
C2654 C 0.65746 0.09658 0.2013 0.0
H2655 H 0.52859 0.17849 0.19984 0.0
H2656 H 0.55219 0.14683 0.20017 0.0
H2657 H 0.67768 0.13706 0.21203 0.0
H2658 H 0.76361 0.05204 0.2047 0.0
H2659 H 0.73913 0.08335 0.20489 0.0
C2660 C 0.38736 0.79426 0.94937 0.0
C2661 C 0.34244 0.79025 0.95013 0.0
C2662 C 0.40183 0.81238 0.94989 0.0
C2663 C 0.3649 0.85871 0.95709 0.0
H2664 H 0.45688 0.87501 0.94067 0.0
C2665 C 0.40699 0.93482 0.94972 0.0
C2666 C 0.45173 0.93896 0.95079 0.0
C2667 C 0.39291 0.91662 0.94994 0.0
C2668 C 0.43118 0.87057 0.94529 0.0
H2669 H 0.27742 0.80204 0.95191 0.0
H2670 H 0.30231 0.83327 0.95252 0.0
H2671 H 0.43545 0.8429 0.94073 0.0
H2672 H 0.51676 0.92735 0.95292 0.0
H2673 H 0.49214 0.89588 0.95317 0.0
H2674 H 0.36006 0.8866 0.96144 0.0
C2675 C 0.32668 0.82258 0.95183 0.0
C2676 C 0.4192 0.8522 0.9454 0.0
C2677 C 0.31239 0.8046 0.95141 0.0
C2678 C 0.48198 0.92467 0.95211 0.0
C2679 C 0.46805 0.90661 0.9522 0.0
C2680 C 0.37648 0.87714 0.95688 0.0
C2681 C 0.37151 0.82673 0.95109 0.0
C2682 C 0.38587 0.84606 0.95129 0.0
C2683 C 0.42355 0.90243 0.95106 0.0
C2684 C 0.40974 0.88317 0.951 0.0
H2685 H 0.41122 0.78346 0.94838 0.0
H2686 H 0.43669 0.81513 0.94939 0.0
H2687 H 0.33964 0.85438 0.96183 0.0
H2688 H 0.38302 0.94556 0.94868 0.0
H2689 H 0.35834 0.9136 0.94904 0.0
C2690 C 0.40468 0.79605 0.82451 0.0
C2691 C 0.44924 0.79171 0.82338 0.0
C2692 C 0.39103 0.8143 0.82433 0.0
C2693 C 0.42868 0.86071 0.81748 0.0
H2694 H 0.33892 0.87664 0.83451 0.0
C2695 C 0.38673 0.93669 0.82528 0.0
C2696 C 0.3418 0.94072 0.82443 0.0
C2697 C 0.40108 0.91853 0.825 0.0
C2698 C 0.36403 0.87231 0.82972 0.0
H2699 H 0.51451 0.80301 0.8213 0.0
H2700 H 0.49105 0.83451 0.82127 0.0
H2701 H 0.36007 0.84451 0.83409 0.0
H2702 H 0.27674 0.92895 0.82265 0.0
H2703 H 0.30183 0.89753 0.82229 0.0
H2704 H 0.4331 0.88871 0.8133 0.0
C2705 C 0.4663 0.82399 0.822 0.0
C2706 C 0.37584 0.85392 0.82941 0.0
C2707 C 0.47978 0.80586 0.82207 0.0
C2708 C 0.31164 0.92635 0.82328 0.0
C2709 C 0.32585 0.90833 0.82314 0.0
C2710 C 0.41726 0.87914 0.81788 0.0
C2711 C 0.42183 0.82846 0.82313 0.0
C2712 C 0.40823 0.8479 0.82327 0.0
C2713 C 0.37055 0.90426 0.82404 0.0
C2714 C 0.3847 0.88503 0.82397 0.0
H2715 H 0.38045 0.78541 0.82552 0.0
H2716 H 0.35639 0.8173 0.8251 0.0
H2717 H 0.45323 0.85648 0.81255 0.0
H2718 H 0.41064 0.9475 0.82617 0.0
H2719 H 0.4358 0.9156 0.82571 0.0
C2720 C 0.70469 0.50087 0.08259 0.0
C2721 C 0.72866 0.4908 0.07609 0.0
C2722 C 0.65886 0.49951 0.08303 0.0
C2723 C 0.56214 0.48608 0.06913 0.0
H2724 H 0.50205 0.48633 0.09251 0.0
C2725 C 0.37542 0.47211 0.07247 0.0
C2726 C 0.35162 0.48241 0.07891 0.0
C2727 C 0.42129 0.47324 0.07205 0.0
C2728 C 0.51824 0.48647 0.08592 0.0
H2729 H 0.72309 0.47095 0.06513 0.0
H2730 H 0.64327 0.4685 0.06593 0.0
H2731 H 0.58203 0.48762 0.09207 0.0
H2732 H 0.35762 0.50241 0.08978 0.0
H2733 H 0.43751 0.50443 0.08904 0.0
H2734 H 0.49834 0.48491 0.06298 0.0
C2735 C 0.65982 0.47773 0.07058 0.0
C2736 C 0.56418 0.48719 0.08567 0.0
C2737 C 0.70565 0.47911 0.07014 0.0
C2738 C 0.37489 0.49407 0.08483 0.0
C2739 C 0.42075 0.4952 0.08441 0.0
C2740 C 0.51619 0.48534 0.06938 0.0
C2741 C 0.63576 0.48803 0.07698 0.0
C2742 C 0.58678 0.48702 0.07727 0.0
C2743 C 0.44461 0.48471 0.07806 0.0
C2744 C 0.4936 0.48555 0.07778 0.0
H2745 H 0.72121 0.51022 0.08718 0.0
H2746 H 0.64145 0.50785 0.08796 0.0
H2747 H 0.57831 0.48623 0.06253 0.0
H2748 H 0.3587 0.46277 0.06789 0.0
H2749 H 0.43855 0.46476 0.06716 0.0
C2750 C 0.58587 0.73262 0.067 0.0
C2751 C 0.55893 0.74156 0.07342 0.0
C2752 C 0.63163 0.73398 0.06751 0.0
C2753 C 0.72146 0.76195 0.07737 0.0
H2754 H 0.7917 0.71869 0.07282 0.0
C2755 C 0.90792 0.75967 0.0848 0.0
C2756 C 0.93512 0.75057 0.07849 0.0
C2757 C 0.86218 0.75865 0.08409 0.0
C2758 C 0.77265 0.73096 0.074 0.0
H2759 H 0.55934 0.75918 0.08535 0.0
H2760 H 0.63922 0.76128 0.08634 0.0
H2761 H 0.71192 0.71691 0.07178 0.0
H2762 H 0.93517 0.73313 0.0665 0.0
H2763 H 0.85532 0.73159 0.06516 0.0
H2764 H 0.78222 0.77598 0.07962 0.0
C2765 C 0.62486 0.75336 0.08085 0.0
C2766 C 0.72683 0.72994 0.07341 0.0
C2767 C 0.57903 0.75199 0.08034 0.0
C2768 C 0.91529 0.74042 0.07144 0.0
C2769 C 0.86947 0.73938 0.07073 0.0
C2770 C 0.76729 0.76296 0.07797 0.0
C2771 C 0.65177 0.74429 0.07446 0.0
C2772 C 0.70061 0.74542 0.07509 0.0
C2773 C 0.84231 0.74851 0.07704 0.0
C2774 C 0.79349 0.74747 0.07631 0.0
H2775 H 0.57165 0.72426 0.06165 0.0
H2776 H 0.65123 0.72699 0.06242 0.0
H2777 H 0.70239 0.77421 0.07857 0.0
H2778 H 0.92197 0.76782 0.09025 0.0
H2779 H 0.84236 0.76569 0.08913 0.0
C2780 C 0.71102 0.73236 0.19163 0.0
C2781 C 0.73459 0.74183 0.19841 0.0
C2782 C 0.66517 0.73345 0.19122 0.0
C2783 C 0.57014 0.76127 0.19879 0.0
H2784 H 0.50433 0.71688 0.19413 0.0
C2785 C 0.38072 0.75848 0.20199 0.0
C2786 C 0.35771 0.74871 0.19522 0.0
C2787 C 0.42657 0.75747 0.20255 0.0
C2788 C 0.52217 0.72944 0.19534 0.0
H2789 H 0.72827 0.76027 0.20995 0.0
H2790 H 0.64826 0.76204 0.20929 0.0
H2791 H 0.58434 0.71585 0.19458 0.0
H2792 H 0.36505 0.72984 0.18389 0.0
H2793 H 0.44492 0.7283 0.18477 0.0
H2794 H 0.50796 0.77488 0.19953 0.0
C2795 C 0.66528 0.75382 0.20425 0.0
C2796 C 0.56811 0.72886 0.19559 0.0
C2797 C 0.71115 0.75268 0.20468 0.0
C2798 C 0.3817 0.73768 0.18913 0.0
C2799 C 0.42753 0.73665 0.18969 0.0
C2800 C 0.52418 0.76186 0.19853 0.0
C2801 C 0.64166 0.74408 0.19757 0.0
C2802 C 0.59271 0.74476 0.1973 0.0
C2803 C 0.45062 0.74664 0.19637 0.0
C2804 C 0.49958 0.74596 0.19679 0.0
H2805 H 0.72793 0.72373 0.18675 0.0
H2806 H 0.64812 0.72596 0.18591 0.0
H2807 H 0.58802 0.77382 0.2 0.0
H2808 H 0.3634 0.76726 0.20673 0.0
H2809 H 0.44319 0.76518 0.20784 0.0
C2810 C 0.91485 0.47799 0.18699 0.0
C2811 C 0.94071 0.48177 0.19474 0.0
C2812 C 0.86902 0.4792 0.18739 0.0
C2813 C 0.77611 0.47869 0.20372 0.0
H2814 H 0.711 0.49933 0.18339 0.0
C2815 C 0.5901 0.49438 0.20589 0.0
C2816 C 0.56411 0.49089 0.19812 0.0
C2817 C 0.63588 0.49294 0.20548 0.0
C2818 C 0.7286 0.49331 0.18908 0.0
H2819 H 0.93833 0.49014 0.20897 0.0
H2820 H 0.8584 0.49224 0.20967 0.0
H2821 H 0.79094 0.49784 0.18269 0.0
H2822 H 0.56614 0.48274 0.18386 0.0
H2823 H 0.646 0.48017 0.18314 0.0
H2824 H 0.71379 0.47416 0.21012 0.0
C2825 C 0.87361 0.48808 0.2033 0.0
C2826 C 0.7745 0.49248 0.18868 0.0
C2827 C 0.91948 0.48689 0.2029 0.0
C2828 C 0.58513 0.48576 0.18994 0.0
C2829 C 0.63096 0.48432 0.18953 0.0
C2830 C 0.73021 0.47952 0.20412 0.0
C2831 C 0.84777 0.48419 0.19555 0.0
C2832 C 0.79887 0.48517 0.196 0.0
C2833 C 0.65695 0.48797 0.19728 0.0
C2834 C 0.70584 0.48685 0.19681 0.0
H2835 H 0.92994 0.47367 0.18064 0.0
H2836 H 0.85019 0.47582 0.18133 0.0
H2837 H 0.79373 0.4727 0.20942 0.0
H2838 H 0.57516 0.49869 0.21226 0.0
H2839 H 0.65482 0.49614 0.21154 0.0
C2840 C 0.65928 0.50906 0.93869 0.0
C2841 C 0.6866 0.49964 0.94487 0.0
C2842 C 0.61354 0.50804 0.93944 0.0
C2843 C 0.52417 0.47993 0.94927 0.0
H2844 H 0.45393 0.5234 0.94525 0.0
C2845 C 0.33747 0.48133 0.95636 0.0
C2846 C 0.31046 0.49059 0.95007 0.0
C2847 C 0.38322 0.48268 0.95585 0.0
C2848 C 0.47299 0.51108 0.94629 0.0
H2849 H 0.68688 0.48165 0.95666 0.0
H2850 H 0.60705 0.48011 0.95805 0.0
H2851 H 0.53374 0.5252 0.94418 0.0
H2852 H 0.31077 0.50877 0.93835 0.0
H2853 H 0.39064 0.51087 0.93735 0.0
H2854 H 0.46344 0.4658 0.95135 0.0
C2855 C 0.62109 0.48815 0.95256 0.0
C2856 C 0.51881 0.51211 0.94568 0.0
C2857 C 0.6669 0.48919 0.95182 0.0
C2858 C 0.3305 0.50133 0.94327 0.0
C2859 C 0.37633 0.50269 0.94275 0.0
C2860 C 0.47835 0.4789 0.94987 0.0
C2861 C 0.59381 0.49759 0.94638 0.0
C2862 C 0.54501 0.49654 0.94715 0.0
C2863 C 0.4033 0.49331 0.94901 0.0
C2864 C 0.45214 0.49446 0.94839 0.0
H2865 H 0.67322 0.51745 0.93333 0.0
H2866 H 0.59363 0.51533 0.9345 0.0
H2867 H 0.54321 0.4676 0.95029 0.0
H2868 H 0.32329 0.47273 0.96162 0.0
H2869 H 0.40287 0.47545 0.96085 0.0
C2870 C 0.46247 0.23048 0.94139 0.0
C2871 C 0.48288 0.23819 0.94912 0.0
C2872 C 0.41666 0.22908 0.94091 0.0
C2873 C 0.31606 0.22944 0.95524 0.0
H2874 H 0.25791 0.24123 0.93238 0.0
C2875 C 0.12725 0.23756 0.95254 0.0
C2876 C 0.10666 0.23015 0.94476 0.0
C2877 C 0.17312 0.23848 0.9531 0.0
C2878 C 0.27362 0.2377 0.93879 0.0
H2879 H 0.47079 0.2506 0.96237 0.0
H2880 H 0.39116 0.24808 0.96154 0.0
H2881 H 0.3378 0.24249 0.93331 0.0
H2882 H 0.11849 0.21759 0.93154 0.0
H2883 H 0.19821 0.21928 0.9325 0.0
H2884 H 0.25184 0.22468 0.96072 0.0
C2885 C 0.41056 0.24286 0.9559 0.0
C2886 C 0.31948 0.2384 0.93932 0.0
C2887 C 0.45631 0.24428 0.95638 0.0
C2888 C 0.13312 0.22372 0.93756 0.0
C2889 C 0.17892 0.22466 0.93811 0.0
C2890 C 0.27019 0.22874 0.95471 0.0
C2891 C 0.39011 0.23533 0.94814 0.0
C2892 C 0.3413 0.23429 0.94755 0.0
C2893 C 0.19953 0.23203 0.94589 0.0
C2894 C 0.24837 0.23287 0.94648 0.0
H2895 H 0.48191 0.22542 0.93573 0.0
H2896 H 0.40205 0.22295 0.93489 0.0
H2897 H 0.33179 0.22594 0.96165 0.0
H2898 H 0.10791 0.24283 0.95817 0.0
H2899 H 0.18787 0.24447 0.95914 0.0
C2900 C 0.66098 0.24293 0.83492 0.0
C2901 C 0.68532 0.23298 0.82843 0.0
C2902 C 0.61515 0.24394 0.83434 0.0
C2903 C 0.51909 0.22006 0.82435 0.0
H2904 H 0.45813 0.2651 0.83015 0.0
C2905 C 0.33229 0.22988 0.81823 0.0
C2906 C 0.30838 0.23963 0.82487 0.0
C2907 C 0.37814 0.22873 0.81872 0.0
C2908 C 0.47459 0.25234 0.82861 0.0
H2909 H 0.68021 0.21636 0.81619 0.0
H2910 H 0.60043 0.21844 0.81506 0.0
H2911 H 0.53813 0.26417 0.83068 0.0
H2912 H 0.31422 0.25573 0.83727 0.0
H2913 H 0.39401 0.25347 0.83821 0.0
H2914 H 0.45547 0.20825 0.82226 0.0
C2915 C 0.61678 0.22529 0.82068 0.0
C2916 C 0.52052 0.25182 0.82891 0.0
C2917 C 0.66263 0.2243 0.82126 0.0
C2918 C 0.33148 0.24795 0.83209 0.0
C2919 C 0.37733 0.24686 0.83256 0.0
C2920 C 0.47313 0.22059 0.82404 0.0
C2921 C 0.59238 0.23502 0.82725 0.0
C2922 C 0.54341 0.23566 0.82679 0.0
C2923 C 0.4013 0.23736 0.82584 0.0
C2924 C 0.45026 0.23673 0.82619 0.0
H2925 H 0.67736 0.24994 0.84049 0.0
H2926 H 0.59751 0.25143 0.83957 0.0
H2927 H 0.53552 0.20729 0.82282 0.0
H2928 H 0.31554 0.22316 0.81262 0.0
H2929 H 0.39551 0.22141 0.8134 0.0
C2930 C 0.12758 0.51023 0.8226 0.0
C2931 C 0.10374 0.49977 0.82897 0.0
C2932 C 0.17346 0.50912 0.8222 0.0
C2933 C 0.27031 0.49555 0.83601 0.0
H2934 H 0.33056 0.49633 0.81265 0.0
C2935 C 0.45676 0.48117 0.83265 0.0
C2936 C 0.4808 0.49138 0.82622 0.0
C2937 C 0.41094 0.48254 0.83309 0.0
C2938 C 0.31433 0.49634 0.81924 0.0
H2939 H 0.10968 0.4795 0.83972 0.0
H2940 H 0.18958 0.47751 0.83899 0.0
H2941 H 0.25058 0.49765 0.81308 0.0
H2942 H 0.47532 0.51149 0.81538 0.0
H2943 H 0.3955 0.51397 0.81618 0.0
H2944 H 0.33406 0.49423 0.84218 0.0
C2945 C 0.17285 0.48685 0.83442 0.0
C2946 C 0.26839 0.49707 0.81949 0.0
C2947 C 0.12698 0.48797 0.83483 0.0
C2948 C 0.45784 0.50322 0.82033 0.0
C2949 C 0.41201 0.50461 0.82077 0.0
C2950 C 0.31626 0.49482 0.83577 0.0
C2951 C 0.19675 0.4975 0.82814 0.0
C2952 C 0.24574 0.49666 0.82787 0.0
C2953 C 0.38789 0.49417 0.82711 0.0
C2954 C 0.33891 0.49519 0.82738 0.0
H2955 H 0.11089 0.51968 0.81808 0.0
H2956 H 0.19075 0.51771 0.81736 0.0
H2957 H 0.25407 0.49553 0.8426 0.0
H2958 H 0.47325 0.47169 0.83719 0.0
H2959 H 0.39349 0.47409 0.83796 0.0
C2960 C 0.37893 0.97952 0.58721 0.0
C2961 C 0.35333 0.98185 0.57928 0.0
C2962 C 0.42477 0.98057 0.58681 0.0
C2963 C 0.51647 -0.00216 0.57255 0.0
H2964 H 0.58575 0.96336 0.58662 0.0
C2965 C 0.70473 -0.00796 0.56833 0.0
C2966 C 0.7299 0.99018 0.57635 0.0
C2967 C 0.65892 -0.00937 0.56861 0.0
C2968 C 0.56692 0.97321 0.58272 0.0
H2969 H 0.35614 0.98744 0.56471 0.0
H2970 H 0.43611 0.98896 0.56399 0.0
H2971 H 0.50579 0.96198 0.58726 0.0
H2972 H 0.72648 0.98495 0.59093 0.0
H2973 H 0.64654 0.98272 0.59145 0.0
H2974 H 0.57762 0.00907 0.56801 0.0
C2975 C 0.42068 0.98648 0.57054 0.0
C2976 C 0.52102 0.97243 0.5831 0.0
C2977 C 0.3748 0.98542 0.57094 0.0
C2978 C 0.70811 0.98661 0.58464 0.0
C2979 C 0.66228 0.98516 0.58492 0.0
C2980 C 0.56236 -0.00139 0.57217 0.0
C2981 C 0.44628 0.98397 0.57847 0.0
C2982 C 0.49518 0.98476 0.57803 0.0
C2983 C 0.63707 0.98729 0.57692 0.0
C2984 C 0.58819 0.98632 0.57726 0.0
H2985 H 0.36361 0.97653 0.59373 0.0
H2986 H 0.44335 0.97879 0.59307 0.0
H2987 H 0.49766 0.00772 0.56867 0.0
H2988 H 0.72033 -0.00499 0.56184 0.0
H2989 H 0.64061 -0.00787 0.5623 0.0
C2990 C 0.58731 0.22953 0.58235 0.0
C2991 C 0.56331 0.24001 0.57601 0.0
C2992 C 0.63316 0.23077 0.58277 0.0
C2993 C 0.72719 0.26029 0.57626 0.0
H2994 H 0.79469 0.21572 0.5791 0.0
C2995 C 0.91637 0.25903 0.57238 0.0
C2996 C 0.94031 0.24843 0.57867 0.0
C2997 C 0.8705 0.25787 0.57196 0.0
C2998 C 0.77637 0.22833 0.5784 0.0
H2999 H 0.56889 0.26038 0.5653 0.0
H3000 H 0.64882 0.26239 0.56596 0.0
H3001 H 0.71469 0.21429 0.57875 0.0
H3002 H 0.93456 0.22793 0.58932 0.0
H3003 H 0.85463 0.22608 0.58868 0.0
H3004 H 0.78887 0.27433 0.57592 0.0
C3005 C 0.63217 0.25327 0.57064 0.0
C3006 C 0.73043 0.22751 0.57821 0.0
C3007 C 0.58633 0.25199 0.57021 0.0
C3008 C 0.91719 0.23643 0.58445 0.0
C3009 C 0.87134 0.23523 0.58402 0.0
C3010 C 0.77313 0.26111 0.57646 0.0
C3011 C 0.65624 0.24256 0.57688 0.0
C3012 C 0.70521 0.24348 0.57714 0.0
C3013 C 0.84733 0.24604 0.57781 0.0
C3014 C 0.79836 0.24514 0.57753 0.0
H3015 H 0.57076 0.22002 0.58685 0.0
H3016 H 0.65054 0.22249 0.58773 0.0
H3017 H 0.70886 0.2729 0.57556 0.0
H3018 H 0.93299 0.26856 0.56789 0.0
H3019 H 0.85319 0.26623 0.56702 0.0
C3020 C 0.70557 0.23182 0.69109 0.0
C3021 C 0.72932 0.24135 0.69783 0.0
C3022 C 0.65973 0.23309 0.69066 0.0
C3023 C 0.56525 0.2615 0.69809 0.0
H3024 H 0.49824 0.21737 0.69358 0.0
C3025 C 0.37587 0.25952 0.70161 0.0
C3026 C 0.35224 0.24974 0.69494 0.0
C3027 C 0.42174 0.25837 0.70206 0.0
C3028 C 0.51641 0.22987 0.69475 0.0
H3029 H 0.72328 0.26013 0.70924 0.0
H3030 H 0.64336 0.26219 0.70855 0.0
H3031 H 0.57822 0.21599 0.69398 0.0
H3032 H 0.3586 0.23071 0.68365 0.0
H3033 H 0.4385 0.22891 0.68434 0.0
H3034 H 0.50343 0.27539 0.69885 0.0
C3035 C 0.66021 0.25378 0.70356 0.0
C3036 C 0.56235 0.22908 0.69497 0.0
C3037 C 0.70605 0.25246 0.70402 0.0
C3038 C 0.3757 0.23857 0.68882 0.0
C3039 C 0.42155 0.23739 0.68928 0.0
C3040 C 0.5193 0.2623 0.69786 0.0
C3041 C 0.63639 0.24398 0.69693 0.0
C3042 C 0.58741 0.24489 0.69664 0.0
C3043 C 0.44524 0.24738 0.69586 0.0
C3044 C 0.49423 0.24649 0.69619 0.0
H3045 H 0.72231 0.223 0.68628 0.0
H3046 H 0.64255 0.22554 0.68538 0.0
H3047 H 0.58345 0.27399 0.69927 0.0
H3048 H 0.359 0.26841 0.70638 0.0
H3049 H 0.43879 0.26608 0.70729 0.0
C3050 C 0.91292 -0.00623 0.68951 0.0
C3051 C 0.93722 0.98367 0.69595 0.0
C3052 C 0.86709 -0.00523 0.69008 0.0
C3053 C 0.77103 0.97063 0.69988 0.0
H3054 H 0.70999 0.0158 0.69437 0.0
C3055 C 0.58431 0.9802 0.70608 0.0
C3056 C 0.56031 0.99014 0.69953 0.0
C3057 C 0.63015 0.97909 0.70557 0.0
C3058 C 0.72647 0.00301 0.69582 0.0
H3059 H 0.93204 0.9668 0.7081 0.0
H3060 H 0.85226 0.96886 0.70921 0.0
H3061 H 0.79 0.01491 0.69385 0.0
H3062 H 0.56598 0.00662 0.68725 0.0
H3063 H 0.64577 0.00441 0.68627 0.0
H3064 H 0.70745 0.95874 0.70188 0.0
C3065 C 0.86864 0.97583 0.70364 0.0
C3066 C 0.77241 0.0025 0.69553 0.0
C3067 C 0.91449 0.97485 0.70307 0.0
C3068 C 0.58331 -0.00131 0.69237 0.0
C3069 C 0.62916 -0.00237 0.69187 0.0
C3070 C 0.72507 0.97114 0.70019 0.0
C3071 C 0.84429 0.98569 0.69711 0.0
C3072 C 0.79532 0.9863 0.69755 0.0
C3073 C 0.65322 0.98794 0.6985 0.0
C3074 C 0.70218 0.98733 0.69814 0.0
H3075 H 0.92933 0.00089 0.68399 0.0
H3076 H 0.84947 0.00237 0.68489 0.0
H3077 H 0.78749 0.95783 0.70133 0.0
H3078 H 0.56765 0.97331 0.71164 0.0
H3079 H 0.64759 0.97162 0.71084 0.0
C3080 C 0.66125 0.98923 0.43942 0.0
C3081 C 0.68552 -0.00062 0.44584 0.0
C3082 C 0.61542 0.98821 0.43999 0.0
C3083 C 0.51916 0.01229 0.44979 0.0
H3084 H 0.45851 0.96702 0.44433 0.0
C3085 C 0.3325 0.00247 0.45604 0.0
C3086 C 0.30857 -0.00752 0.44949 0.0
C3087 C 0.37834 0.00365 0.45552 0.0
C3088 C 0.47487 0.97984 0.44577 0.0
H3089 H 0.68026 0.01635 0.45796 0.0
H3090 H 0.60049 0.01426 0.45908 0.0
H3091 H 0.5385 0.96802 0.44378 0.0
H3092 H 0.31437 0.97598 0.43722 0.0
H3093 H 0.39414 0.97828 0.43623 0.0
H3094 H 0.45547 0.02409 0.4518 0.0
C3095 C 0.61689 0.00725 0.45351 0.0
C3096 C 0.52081 0.98041 0.44546 0.0
C3097 C 0.66274 0.00826 0.45294 0.0
C3098 C 0.33164 0.98394 0.44233 0.0
C3099 C 0.37748 0.98507 0.44183 0.0
C3100 C 0.4732 0.01171 0.45011 0.0
C3101 C 0.59257 -0.00268 0.44701 0.0
C3102 C 0.54359 -0.00336 0.44746 0.0
C3103 C 0.40148 -0.00519 0.44846 0.0
C3104 C 0.45044 -0.00451 0.44809 0.0
H3105 H 0.67769 0.98207 0.43391 0.0
H3106 H 0.59783 0.98056 0.43482 0.0
H3107 H 0.5355 0.02511 0.45123 0.0
H3108 H 0.31578 0.00936 0.46159 0.0
H3109 H 0.39572 0.01116 0.46077 0.0
C3110 C 0.45462 0.74842 0.45589 0.0
C3111 C 0.48144 0.73992 0.44931 0.0
C3112 C 0.40886 0.74707 0.4554 0.0
C3113 C 0.31892 0.7197 0.4452 0.0
H3114 H 0.24872 0.76267 0.45041 0.0
C3115 C 0.13246 0.72241 0.43786 0.0
C3116 C 0.10531 0.73114 0.44431 0.0
C3117 C 0.1782 0.72339 0.43858 0.0
C3118 C 0.26777 0.75048 0.44904 0.0
H3119 H 0.48083 0.72307 0.4371 0.0
H3120 H 0.40094 0.72097 0.43615 0.0
H3121 H 0.32852 0.76439 0.45144 0.0
H3122 H 0.10532 0.74787 0.45656 0.0
H3123 H 0.18518 0.74932 0.4579 0.0
H3124 H 0.25814 0.70579 0.44278 0.0
C3125 C 0.4154 0.72855 0.44176 0.0
C3126 C 0.31359 0.75146 0.44963 0.0
C3127 C 0.46123 0.72992 0.44225 0.0
C3128 C 0.12518 0.74088 0.45151 0.0
C3129 C 0.171 0.74187 0.45222 0.0
C3130 C 0.27309 0.71871 0.44461 0.0
C3131 C 0.38861 0.73719 0.44831 0.0
C3132 C 0.33978 0.73609 0.44771 0.0
C3133 C 0.19811 0.73311 0.44577 0.0
C3134 C 0.24691 0.7341 0.44651 0.0
H3135 H 0.46893 0.75644 0.46136 0.0
H3136 H 0.38934 0.75372 0.46063 0.0
H3137 H 0.33798 0.70751 0.44381 0.0
H3138 H 0.11838 0.71458 0.4323 0.0
H3139 H 0.19799 0.71665 0.43343 0.0
C3140 C 0.33897 0.74381 0.31743 0.0
C3141 C 0.31308 0.74005 0.32518 0.0
C3142 C 0.38476 0.74243 0.31783 0.0
C3143 C 0.47571 0.72192 0.33119 0.0
H3144 H 0.54592 0.75918 0.31929 0.0
C3145 C 0.66364 0.72684 0.33638 0.0
C3146 C 0.68963 0.73095 0.32869 0.0
C3147 C 0.61782 0.728 0.33594 0.0
C3148 C 0.52686 0.74854 0.32256 0.0
H3149 H 0.31529 0.73155 0.33939 0.0
H3150 H 0.39524 0.72939 0.34011 0.0
H3151 H 0.46603 0.76082 0.31852 0.0
H3152 H 0.68746 0.73977 0.31453 0.0
H3153 H 0.60752 0.74147 0.31372 0.0
H3154 H 0.53654 0.70963 0.33522 0.0
C3155 C 0.38004 0.73328 0.3337 0.0
C3156 C 0.48099 0.74948 0.32212 0.0
C3157 C 0.3342 0.73469 0.33331 0.0
C3158 C 0.66852 0.73635 0.32056 0.0
C3159 C 0.62265 0.73752 0.32012 0.0
C3160 C 0.52159 0.72097 0.33162 0.0
C3161 C 0.40593 0.73724 0.32598 0.0
C3162 C 0.45481 0.73618 0.32643 0.0
C3163 C 0.59668 0.73328 0.3278 0.0
C3164 C 0.54779 0.73428 0.32732 0.0
H3165 H 0.32392 0.74819 0.31109 0.0
H3166 H 0.40358 0.74537 0.31172 0.0
H3167 H 0.45662 0.7113 0.33448 0.0
H3168 H 0.67865 0.7224 0.34272 0.0
H3169 H 0.59895 0.72484 0.34202 0.0
C3170 C 0.13323 0.00124 0.33683 0.0
C3171 C 0.10756 -0.00105 0.32891 0.0
C3172 C 0.17906 0.00032 0.3364 0.0
C3173 C 0.27212 0.00459 0.32028 0.0
H3174 H 0.33716 0.97998 0.33948 0.0
C3175 C 0.45864 0.98997 0.3177 0.0
C3176 C 0.48404 -0.00824 0.32569 0.0
C3177 C 0.41284 -0.00865 0.31805 0.0
C3178 C 0.31957 0.98712 0.33412 0.0
H3179 H 0.11023 -0.00644 0.31432 0.0
H3180 H 0.19024 -0.00807 0.31357 0.0
H3181 H 0.25721 0.98095 0.34014 0.0
H3182 H 0.48109 -0.00301 0.34028 0.0
H3183 H 0.40122 -0.00053 0.34089 0.0
H3184 H 0.33452 0.01076 0.31426 0.0
C3185 C 0.17485 -0.00529 0.32011 0.0
C3186 C 0.27368 0.98765 0.33449 0.0
C3187 C 0.12896 -0.00439 0.32054 0.0
C3188 C 0.46251 -0.00473 0.33402 0.0
C3189 C 0.4167 -0.00334 0.33437 0.0
C3190 C 0.31804 0.00407 0.31991 0.0
C3191 C 0.20048 -0.0029 0.32803 0.0
C3192 C 0.24935 -0.0036 0.32758 0.0
C3193 C 0.39124 -0.00544 0.3264 0.0
C3194 C 0.34236 -0.00467 0.32683 0.0
H3195 H 0.11796 0.00419 0.34336 0.0
H3196 H 0.19775 0.00252 0.34261 0.0
H3197 H 0.25447 0.0117 0.31492 0.0
H3198 H 0.47404 0.98696 0.31119 0.0
H3199 H 0.39428 0.98941 0.3118 0.0
C3200 C 0.21084 0.49724 0.58218 0.0
C3201 C 0.23394 0.48891 0.57496 0.0
C3202 C 0.16499 0.49611 0.58266 0.0
C3203 C 0.06927 0.46975 0.57415 0.0
H3204 H 1.00403 0.51326 0.58082 0.0
C3205 C 0.87969 0.4733 0.57141 0.0
C3206 C 0.85699 0.48196 0.57859 0.0
C3207 C 0.92554 0.47432 0.57083 0.0
C3208 C 0.0217 0.50092 0.57904 0.0
H3209 H 0.22678 0.47242 0.56272 0.0
H3210 H 0.14682 0.47062 0.56351 0.0
H3211 H 0.08402 0.51426 0.58028 0.0
H3212 H 0.86495 0.49892 0.59064 0.0
H3213 H 0.94479 0.50046 0.58971 0.0
H3214 H 1.00695 0.4564 0.57294 0.0
C3215 C 0.16419 0.47796 0.56883 0.0
C3216 C 0.06764 0.50149 0.57874 0.0
C3217 C 0.21004 0.47914 0.56833 0.0
C3218 C 0.88132 0.49193 0.58508 0.0
C3219 C 0.92715 0.49297 0.58449 0.0
C3220 C 0.02331 0.46918 0.57447 0.0
C3221 C 0.14102 0.48659 0.57595 0.0
C3222 C 0.09205 0.48591 0.5763 0.0
C3223 C 0.94992 0.48407 0.57739 0.0
C3224 C 0.9989 0.48475 0.57693 0.0
H3225 H 0.22809 0.50503 0.58735 0.0
H3226 H 0.14831 0.50273 0.5883 0.0
H3227 H 0.08699 0.45743 0.57237 0.0
H3228 H 0.86212 0.46535 0.56634 0.0
H3229 H 0.94188 0.46748 0.56521 0.0
C3230 C 0.41738 0.74229 0.57074 0.0
C3231 C 0.43773 0.74978 0.57853 0.0
C3232 C 0.37153 0.74131 0.57013 0.0
C3233 C 0.26987 0.76146 0.57982 0.0
H3234 H 0.21437 0.71843 0.56955 0.0
C3235 C 0.08208 0.74912 0.58177 0.0
C3236 C 0.06149 0.74147 0.57405 0.0
C3237 C 0.12791 0.75046 0.58222 0.0
C3238 C 0.22932 0.73065 0.57234 0.0
H3239 H 0.42549 0.76228 0.59175 0.0
H3240 H 0.34583 0.76018 0.59078 0.0
H3241 H 0.29421 0.71997 0.57051 0.0
H3242 H 0.07328 0.72917 0.56076 0.0
H3243 H 0.15291 0.73188 0.56147 0.0
H3244 H 0.20494 0.77212 0.58167 0.0
C3245 C 0.36526 0.75523 0.58509 0.0
C3246 C 0.27516 0.73153 0.57289 0.0
C3247 C 0.41104 0.75621 0.5857 0.0
C3248 C 0.0879 0.73534 0.56677 0.0
C3249 C 0.13367 0.73667 0.56722 0.0
C3250 C 0.22402 0.76058 0.57927 0.0
C3251 C 0.34488 0.74783 0.57729 0.0
C3252 C 0.29604 0.74694 0.57664 0.0
C3253 C 0.15431 0.74415 0.57498 0.0
C3254 C 0.20315 0.74516 0.57553 0.0
H3255 H 0.43688 0.73708 0.56512 0.0
H3256 H 0.35697 0.73568 0.56399 0.0
H3257 H 0.28483 0.77367 0.58261 0.0
H3258 H 0.06277 0.75412 0.58746 0.0
H3259 H 0.14268 0.75615 0.58833 0.0
C3260 C 0.87471 0.74819 0.70324 0.0
C3261 C 0.85265 0.75001 0.69483 0.0
C3262 C 0.92059 0.74702 0.70356 0.0
C3263 C 1.02024 0.75785 0.69002 0.0
H3264 H 0.07737 0.72469 0.70694 0.0
C3265 C 0.20715 0.74297 0.68888 0.0
C3266 C 0.22939 0.74126 0.69727 0.0
C3267 C 0.16132 0.74446 0.68861 0.0
C3268 C 0.06197 0.73419 0.70225 0.0
H3269 H 0.86189 0.75206 0.68015 0.0
H3270 H 0.94166 0.74962 0.68068 0.0
H3271 H 0.9974 0.72608 0.7064 0.0
H3272 H 0.2206 0.73981 0.71199 0.0
H3273 H 0.14085 0.74271 0.71153 0.0
H3274 H 0.08485 0.76591 0.68586 0.0
C3275 C 0.92352 0.7493 0.68706 0.0
C3276 C 1.01606 0.73498 0.70194 0.0
C3277 C 0.87767 0.75045 0.68674 0.0
C3278 C 0.20464 0.7413 0.7054 0.0
C3279 C 0.15883 0.74273 0.70514 0.0
C3280 C 0.06615 0.75704 0.69033 0.0
C3281 C 0.94563 0.74767 0.69547 0.0
C3282 C 0.99457 0.74681 0.69581 0.0
C3283 C 0.13653 0.74421 0.69674 0.0
C3284 C 0.08762 0.7452 0.69645 0.0
H3285 H 0.85651 0.74765 0.7096 0.0
H3286 H 0.93648 0.74594 0.71017 0.0
H3287 H 1.00486 0.76735 0.68533 0.0
H3288 H 0.2252 0.74315 0.68249 0.0
H3289 H 0.14524 0.74543 0.68202 0.0
C3290 C 0.08117 0.47896 0.70521 0.0
C3291 C 0.05761 0.48972 0.69891 0.0
C3292 C 0.12703 0.47782 0.70475 0.0
C3293 C 0.22402 0.50267 0.69595 0.0
H3294 H 0.2843 0.45674 0.70005 0.0
C3295 C 0.41045 0.49383 0.68952 0.0
C3296 C 0.43448 0.4829 0.69566 0.0
C3297 C 0.36462 0.49484 0.69007 0.0
C3298 C 0.26804 0.46973 0.699 0.0
H3299 H 0.06404 0.50764 0.68717 0.0
H3300 H 0.14384 0.5054 0.68629 0.0
H3301 H 0.20424 0.45777 0.70054 0.0
H3302 H 0.42885 0.46453 0.70724 0.0
H3303 H 0.34906 0.46659 0.70833 0.0
H3304 H 0.28776 0.51465 0.69442 0.0
C3305 C 0.12689 0.49798 0.69164 0.0
C3306 C 0.22209 0.47031 0.69927 0.0
C3307 C 0.08104 0.49908 0.69207 0.0
C3308 C 0.4115 0.47323 0.70246 0.0
C3309 C 0.36564 0.47422 0.70301 0.0
C3310 C 0.26996 0.5021 0.69569 0.0
C3311 C 0.15052 0.48746 0.69802 0.0
C3312 C 0.19947 0.48679 0.69773 0.0
C3313 C 0.34156 0.48494 0.69678 0.0
C3314 C 0.2926 0.48561 0.6972 0.0
H3315 H 0.06415 0.47145 0.71051 0.0
H3316 H 0.14414 0.46968 0.70981 0.0
H3317 H 0.20775 0.51566 0.69488 0.0
H3318 H 0.42707 0.5016 0.68425 0.0
H3319 H 0.34719 0.50311 0.68512 0.0
C3320 C 0.84012 0.48432 0.45603 0.0
C3321 C 0.81366 0.49048 0.44875 0.0
C3322 C 0.88588 0.4857 0.45558 0.0
C3323 C 0.97609 0.50987 0.44363 0.0
H3324 H 0.04671 0.46941 0.45242 0.0
C3325 C 0.16346 0.50614 0.43748 0.0
C3326 C 0.19004 0.49972 0.44468 0.0
C3327 C 0.11767 0.50501 0.43801 0.0
C3328 C 0.02754 0.48093 0.45003 0.0
H3329 H 0.81491 0.50321 0.43536 0.0
H3330 H 0.89482 0.50534 0.43452 0.0
H3331 H 0.96687 0.46765 0.45328 0.0
H3332 H 0.18894 0.48688 0.45805 0.0
H3333 H 0.10902 0.48521 0.45904 0.0
H3334 H 0.03676 0.52315 0.44038 0.0
C3335 C 0.88007 0.49958 0.44061 0.0
C3336 C 0.9817 0.47992 0.45052 0.0
C3337 C 0.83424 0.49818 0.44105 0.0
C3338 C 0.16954 0.49209 0.45241 0.0
C3339 C 0.12369 0.49096 0.45294 0.0
C3340 C 0.02194 0.51088 0.44314 0.0
C3341 C 0.9065 0.49326 0.44785 0.0
C3342 C 0.95536 0.49438 0.44733 0.0
C3343 C 0.09714 0.49746 0.44575 0.0
C3344 C 0.04828 0.49642 0.44632 0.0
H3345 H 0.82552 0.47809 0.46202 0.0
H3346 H 0.90513 0.48089 0.46133 0.0
H3347 H 0.95689 0.52138 0.44123 0.0
H3348 H 0.178 0.51232 0.43147 0.0
H3349 H 0.09834 0.50996 0.4323 0.0
C3350 C 0.9578 0.2353 0.4405 0.0
C3351 C 0.97895 0.24104 0.44857 0.0
C3352 C 0.91197 0.23388 0.44014 0.0
C3353 C 0.81104 0.25066 0.45153 0.0
H3354 H 0.75547 0.21034 0.43881 0.0
C3355 C 0.6233 0.23791 0.453 0.0
C3356 C 0.60242 0.23221 0.4449 0.0
C3357 C 0.66917 0.23901 0.45349 0.0
C3358 C 0.77043 0.22181 0.4423 0.0
H3359 H 0.96815 0.24983 0.46257 0.0
H3360 H 0.88848 0.247 0.46198 0.0
H3361 H 0.83538 0.21194 0.4396 0.0
H3362 H 0.61379 0.22307 0.43098 0.0
H3363 H 0.69348 0.2254 0.43177 0.0
H3364 H 0.74611 0.26056 0.45421 0.0
C3365 C 0.90729 0.24377 0.4559 0.0
C3366 C 0.8163 0.22272 0.44276 0.0
C3367 C 0.95309 0.24516 0.45627 0.0
C3368 C 0.62863 0.22774 0.43729 0.0
C3369 C 0.67444 0.22883 0.43779 0.0
C3370 C 0.76517 0.24976 0.45107 0.0
C3371 C 0.8861 0.23822 0.44782 0.0
C3372 C 0.83722 0.23716 0.44737 0.0
C3373 C 0.69535 0.23441 0.4459 0.0
C3374 C 0.74424 0.23533 0.44644 0.0
H3375 H 0.97669 0.23187 0.43447 0.0
H3376 H 0.89676 0.22971 0.43377 0.0
H3377 H 0.82601 0.26214 0.45501 0.0
H3378 H 0.60419 0.2416 0.45897 0.0
H3379 H 0.68413 0.2432 0.45988 0.0
C3380 C 0.167 0.2211 0.32253 0.0
C3381 C 0.19081 0.23149 0.32893 0.0
C3382 C 0.12113 0.22221 0.32211 0.0
C3383 C 0.02424 0.23557 0.33595 0.0
H3384 H 0.964 0.23508 0.31258 0.0
C3385 C 0.83778 0.24995 0.33262 0.0
C3386 C 0.81376 0.23982 0.32614 0.0
C3387 C 0.88361 0.24859 0.33305 0.0
C3388 C 0.98023 0.23499 0.31917 0.0
H3389 H 0.18482 0.25162 0.33975 0.0
H3390 H 0.10493 0.25361 0.339 0.0
H3391 H 0.04399 0.23377 0.31301 0.0
H3392 H 0.81925 0.21986 0.31524 0.0
H3393 H 0.89907 0.21739 0.31604 0.0
H3394 H 0.9605 0.23679 0.34212 0.0
C3395 C 0.12168 0.24433 0.33441 0.0
C3396 C 0.02618 0.23427 0.31942 0.0
C3397 C 0.16755 0.24321 0.33482 0.0
C3398 C 0.83673 0.22806 0.32022 0.0
C3399 C 0.88255 0.22668 0.32066 0.0
C3400 C 0.9783 0.23629 0.33571 0.0
C3401 C 0.09781 0.23375 0.32809 0.0
C3402 C 0.04882 0.23457 0.32781 0.0
C3403 C 0.90667 0.23704 0.32703 0.0
C3404 C 0.95565 0.23603 0.32731 0.0
H3405 H 0.18372 0.2117 0.31799 0.0
H3406 H 0.10386 0.21367 0.31725 0.0
H3407 H 0.04048 0.23552 0.34255 0.0
H3408 H 0.82129 0.25936 0.33719 0.0
H3409 H 0.90106 0.25698 0.33796 0.0
C3410 C 0.95608 0.48422 0.31708 0.0
C3411 C 0.98248 0.49101 0.32422 0.0
C3412 C 0.9103 0.48556 0.31751 0.0
C3413 C 0.81983 0.51041 0.32904 0.0
H3414 H 0.74987 0.46899 0.3212 0.0
C3415 C 0.63316 0.50618 0.33582 0.0
C3416 C 0.60625 0.4991 0.32883 0.0
C3417 C 0.67892 0.50527 0.33515 0.0
C3418 C 0.76886 0.48077 0.32331 0.0
H3419 H 0.98113 0.50485 0.33734 0.0
H3420 H 0.90122 0.50689 0.33816 0.0
H3421 H 0.82972 0.46748 0.32022 0.0
H3422 H 0.60671 0.48534 0.31569 0.0
H3423 H 0.68661 0.48404 0.31445 0.0
H3424 H 0.75896 0.52367 0.33215 0.0
C3425 C 0.91601 0.50067 0.33218 0.0
C3426 C 0.8147 0.47991 0.32275 0.0
C3427 C 0.96185 0.49933 0.33176 0.0
C3428 C 0.62638 0.49105 0.32117 0.0
C3429 C 0.67222 0.49013 0.3205 0.0
C3430 C 0.77399 0.51127 0.3296 0.0
C3431 C 0.88964 0.4937 0.32508 0.0
C3432 C 0.84079 0.49471 0.32562 0.0
C3433 C 0.69908 0.49728 0.32747 0.0
C3434 C 0.7479 0.49644 0.32676 0.0
H3435 H 0.97073 0.47752 0.31123 0.0
H3436 H 0.89109 0.48024 0.31187 0.0
H3437 H 0.83883 0.52217 0.33117 0.0
H3438 H 0.61888 0.51271 0.34176 0.0
H3439 H 0.69852 0.51072 0.3407 0.0
C3440 C 0.87667 0.97141 0.07297 0.0
C3441 C 0.85274 0.98234 0.07912 0.0
C3442 C 0.92253 0.97258 0.07253 0.0
C3443 C 1.01658 0.00255 0.07854 0.0
H3444 H 0.08431 0.9579 0.0763 0.0
C3445 C 0.20559 0.00168 0.08258 0.0
C3446 C 0.22972 -0.00911 0.0764 0.0
C3447 C 0.15974 0.00044 0.08298 0.0
C3448 C 0.06592 0.97052 0.07683 0.0
H3449 H 0.8585 0.00341 0.08948 0.0
H3450 H 0.93841 0.00528 0.0888 0.0
H3451 H 1.0043 0.95641 0.07668 0.0
H3452 H 0.22436 0.96998 0.06596 0.0
H3453 H 0.14441 0.96796 0.06658 0.0
H3454 H 0.07819 0.01665 0.0787 0.0
C3455 C 0.92171 -0.00413 0.08427 0.0
C3456 C 1.01997 0.96967 0.07704 0.0
C3457 C 0.87586 -0.00533 0.08472 0.0
C3458 C 0.20682 0.97861 0.07074 0.0
C3459 C 0.16097 0.97733 0.07116 0.0
C3460 C 0.06251 0.00339 0.07834 0.0
C3461 C 0.9457 0.98475 0.07821 0.0
C3462 C 0.99467 0.98567 0.0779 0.0
C3463 C 0.13678 0.98834 0.07723 0.0
C3464 C 0.08781 0.98739 0.07748 0.0
H3465 H 0.86006 0.96163 0.06862 0.0
H3466 H 0.93983 0.96396 0.0677 0.0
H3467 H 0.9982 0.01517 0.07907 0.0
H3468 H 0.22204 0.01143 0.08698 0.0
H3469 H 0.14227 0.00897 0.08782 0.0
C3470 C 0.08241 0.23402 0.08237 0.0
C3471 C 0.05937 0.24226 0.07512 0.0
C3472 C 0.12826 0.23512 0.08286 0.0
C3473 C 0.22412 0.26124 0.07427 0.0
H3474 H 0.28903 0.21768 0.08101 0.0
C3475 C 0.41355 0.25733 0.07142 0.0
C3476 C 0.43627 0.24874 0.07862 0.0
C3477 C 0.36769 0.25636 0.07086 0.0
C3478 C 0.27144 0.23003 0.07921 0.0
H3479 H 0.0666 0.25859 0.06283 0.0
H3480 H 0.14655 0.26034 0.06362 0.0
H3481 H 0.20902 0.21682 0.08051 0.0
H3482 H 0.42836 0.23196 0.09074 0.0
H3483 H 0.3485 0.23052 0.08985 0.0
H3484 H 0.28654 0.27447 0.07299 0.0
C3485 C 0.12915 0.25309 0.06897 0.0
C3486 C 0.2255 0.22954 0.07893 0.0
C3487 C 0.08331 0.25194 0.06846 0.0
C3488 C 0.41196 0.2389 0.08515 0.0
C3489 C 0.36613 0.23791 0.08459 0.0
C3490 C 0.27008 0.26174 0.07456 0.0
C3491 C 0.15227 0.24453 0.07612 0.0
C3492 C 0.20122 0.24514 0.07647 0.0
C3493 C 0.34333 0.24675 0.07748 0.0
C3494 C 0.29436 0.24615 0.07705 0.0
H3495 H 0.06512 0.2263 0.08756 0.0
H3496 H 0.14491 0.22857 0.08853 0.0
H3497 H 0.20649 0.27357 0.07246 0.0
H3498 H 0.43111 0.26518 0.06632 0.0
H3499 H 0.35132 0.26314 0.06523 0.0
C3500 C 0.8809 0.23625 0.19048 0.0
C3501 C 0.85747 0.24874 0.19593 0.0
C3502 C 0.92673 0.23521 0.191 0.0
C3503 C 0.02425 0.26204 0.19798 0.0
H3504 H 0.08342 0.21519 0.19683 0.0
C3505 C 0.21138 0.25386 0.20421 0.0
C3506 C 0.23425 0.24148 0.19859 0.0
C3507 C 0.16551 0.25501 0.20384 0.0
C3508 C 0.06746 0.2284 0.19705 0.0
H3509 H 0.86415 0.2699 0.20623 0.0
H3510 H 0.94396 0.26784 0.20725 0.0
H3511 H 1.00341 0.21637 0.19649 0.0
H3512 H 0.22658 0.22063 0.18817 0.0
H3513 H 0.14676 0.22285 0.18742 0.0
H3514 H 0.08836 0.27405 0.19854 0.0
C3515 C 0.9269 0.25897 0.2025 0.0
C3516 C 0.02153 0.22908 0.19686 0.0
C3517 C 0.88105 0.25999 0.202 0.0
C3518 C 0.21011 0.23046 0.19252 0.0
C3519 C 0.16426 0.23156 0.19218 0.0
C3520 C 0.0702 0.26135 0.19817 0.0
C3521 C 0.95037 0.24665 0.19696 0.0
C3522 C 0.99931 0.24591 0.19731 0.0
C3523 C 0.14133 0.24376 0.19788 0.0
C3524 C 0.0924 0.24453 0.19769 0.0
H3525 H 0.86378 0.22727 0.18579 0.0
H3526 H 0.9437 0.22567 0.18657 0.0
H3527 H 1.0083 0.27525 0.19818 0.0
H3528 H 0.22896 0.26266 0.20891 0.0
H3529 H 0.14892 0.26447 0.20837 0.0
C3530 C 0.41675 0.97183 0.20184 0.0
C3531 C 0.44059 0.98208 0.19538 0.0
C3532 C 0.37087 0.973 0.20225 0.0
C3533 C 0.27657 0.00215 0.19541 0.0
H3534 H 0.20916 0.95779 0.199 0.0
C3535 C 0.08739 0.00075 0.19166 0.0
C3536 C 0.06355 -0.00932 0.19818 0.0
C3537 C 0.13323 -0.00054 0.19121 0.0
C3538 C 0.22746 0.97034 0.19808 0.0
H3539 H 0.43463 0.00196 0.18445 0.0
H3540 H 0.35471 0.0038 0.18508 0.0
H3541 H 0.28917 0.95632 0.1986 0.0
H3542 H 0.06942 0.97096 0.20919 0.0
H3543 H 0.14933 0.96888 0.20848 0.0
H3544 H 0.21486 0.01616 0.19489 0.0
C3545 C 0.37149 -0.00507 0.18987 0.0
C3546 C 0.27341 0.9695 0.19787 0.0
C3547 C 0.41735 -0.00627 0.18945 0.0
C3548 C 0.08673 0.97905 0.20414 0.0
C3549 C 0.13256 0.97772 0.20367 0.0
C3550 C 0.23063 0.00298 0.19562 0.0
C3551 C 0.34759 0.98448 0.19624 0.0
C3552 C 0.2986 0.9854 0.19653 0.0
C3553 C 0.15647 0.98803 0.19725 0.0
C3554 C 0.20544 0.98709 0.19696 0.0
H3555 H 0.43344 0.96257 0.20645 0.0
H3556 H 0.35365 0.96492 0.20731 0.0
H3557 H 0.29485 0.01471 0.19451 0.0
H3558 H 0.07072 0.00999 0.18702 0.0
H3559 H 0.15047 0.00743 0.18611 0.0
C3560 C 0.83602 -0.00657 0.94049 0.0
C3561 C 0.81447 0.98954 0.94878 0.0
C3562 C 0.88185 -0.00515 0.94016 0.0
C3563 C 0.98217 0.98085 0.95264 0.0
H3564 H 0.03831 0.01816 0.9379 0.0
C3565 C 0.16972 -0.00592 0.95386 0.0
C3566 C 0.19104 -0.00196 0.94556 0.0
C3567 C 0.12385 -0.00702 0.95428 0.0
C3568 C 0.02319 0.00751 0.94196 0.0
H3569 H 0.82451 0.98408 0.96322 0.0
H3570 H 0.90422 0.98689 0.96267 0.0
H3571 H 0.95836 0.01669 0.93859 0.0
H3572 H 0.18046 0.00405 0.93118 0.0
H3573 H 0.10074 0.00172 0.93188 0.0
H3574 H 0.04697 0.97163 0.95599 0.0
C3575 C 0.88571 0.98867 0.9564 0.0
C3576 C 0.97731 0.00669 0.94237 0.0
C3577 C 0.83991 0.9873 0.95674 0.0
C3578 C 0.16528 0.00074 0.93767 0.0
C3579 C 0.11945 -0.00035 0.9381 0.0
C3580 C 0.02805 0.98167 0.95223 0.0
C3581 C 0.90731 -0.00765 0.9481 0.0
C3582 C 0.95619 -0.00666 0.94771 0.0
C3583 C 0.09809 -0.00415 0.94641 0.0
C3584 C 0.04919 -0.005 0.94688 0.0
H3585 H 0.81744 -0.00461 0.93425 0.0
H3586 H 0.89739 -0.00245 0.93363 0.0
H3587 H 0.96704 0.97021 0.95671 0.0
H3588 H 0.18849 -0.00823 0.96005 0.0
H3589 H 0.10854 0.99019 0.96082 0.0
C3590 C 0.95789 0.73437 0.93978 0.0
C3591 C 0.97921 0.73967 0.9479 0.0
C3592 C 0.91205 0.73294 0.93944 0.0
C3593 C 0.81145 0.7491 0.95114 0.0
H3594 H 0.75554 0.70942 0.93799 0.0
C3595 C 0.6238 0.7363 0.95266 0.0
C3596 C 0.60271 0.73101 0.94452 0.0
C3597 C 0.66967 0.73738 0.95311 0.0
C3598 C 0.77059 0.72072 0.9416 0.0
H3599 H 0.96874 0.74767 0.96203 0.0
H3600 H 0.88906 0.74482 0.96148 0.0
H3601 H 0.83547 0.71097 0.93872 0.0
H3602 H 0.61369 0.72256 0.93047 0.0
H3603 H 0.6934 0.72485 0.9312 0.0
H3604 H 0.74661 0.75889 0.954 0.0
C3605 C 0.90774 0.74194 0.95535 0.0
C3606 C 0.81647 0.72159 0.94202 0.0
C3607 C 0.95353 0.74333 0.95569 0.0
C3608 C 0.6287 0.72692 0.93682 0.0
C3609 C 0.67452 0.72798 0.93728 0.0
C3610 C 0.76557 0.74824 0.95071 0.0
C3611 C 0.88637 0.73683 0.94721 0.0
C3612 C 0.8375 0.7358 0.94679 0.0
C3613 C 0.69564 0.73315 0.94544 0.0
C3614 C 0.74453 0.73404 0.94593 0.0
H3615 H 0.97664 0.7313 0.93368 0.0
H3616 H 0.8967 0.72911 0.93304 0.0
H3617 H 0.82652 0.76041 0.95475 0.0
H3618 H 0.60484 0.7397 0.9587 0.0
H3619 H 0.6848 0.74124 0.95954 0.0
C3620 C 0.16413 0.72412 0.8211 0.0
C3621 C 0.18695 0.73321 0.82813 0.0
C3622 C 0.11827 0.72514 0.82053 0.0
C3623 C 0.02229 0.75228 0.82837 0.0
H3624 H 0.9569 0.70837 0.82248 0.0
C3625 C 0.83324 0.74882 0.8317 0.0
C3626 C 0.81001 0.74001 0.82464 0.0
C3627 C 0.87909 0.74773 0.83217 0.0
C3628 C 0.97465 0.7208 0.82404 0.0
H3629 H 0.17925 0.75092 0.83992 0.0
H3630 H 0.09939 0.75246 0.83901 0.0
H3631 H 0.03695 0.70736 0.82301 0.0
H3632 H 0.81695 0.72271 0.81269 0.0
H3633 H 0.89692 0.72096 0.81344 0.0
H3634 H 0.95999 0.7657 0.82942 0.0
C3635 C 0.11693 0.74463 0.83389 0.0
C3636 C 1.02061 0.72024 0.82433 0.0
C3637 C 0.16276 0.74359 0.83447 0.0
C3638 C 0.83379 0.7298 0.81816 0.0
C3639 C 0.87965 0.72866 0.81865 0.0
C3640 C 0.97635 0.75283 0.82809 0.0
C3641 C 0.09402 0.7353 0.82695 0.0
C3642 C 0.04506 0.73597 0.82651 0.0
C3643 C 0.90294 0.73776 0.8256 0.0
C3644 C 0.95191 0.7371 0.82593 0.0
H3645 H 0.1816 0.71585 0.81615 0.0
H3646 H 0.10182 0.71796 0.81503 0.0
H3647 H 0.04 0.76472 0.82993 0.0
H3648 H 0.81608 0.75695 0.83675 0.0
H3649 H 0.89588 0.75471 0.83768 0.0
C3650 C 0.6256 0.98833 0.83574 0.0
C3651 C 0.60193 -0.00064 0.82958 0.0
C3652 C 0.67144 0.98717 0.83524 0.0
C3653 C 0.76886 0.01197 0.82643 0.0
H3654 H 0.82809 0.96581 0.83055 0.0
C3655 C 0.95557 0.00214 0.82023 0.0
C3656 C 0.97898 -0.00879 0.82647 0.0
C3657 C 0.90973 0.00343 0.8207 0.0
C3658 C 0.81213 0.97886 0.82949 0.0
H3659 H 0.6083 0.01778 0.81804 0.0
H3660 H 0.68808 0.01548 0.81705 0.0
H3661 H 0.7481 0.96713 0.83099 0.0
H3662 H 0.97223 0.97314 0.83815 0.0
H3663 H 0.89247 0.97563 0.83906 0.0
H3664 H 0.83293 0.02369 0.82491 0.0
C3665 C 0.6712 0.00787 0.82235 0.0
C3666 C 0.76619 0.97962 0.82973 0.0
C3667 C 0.62534 0.009 0.82283 0.0
C3668 C 0.95538 0.98183 0.83328 0.0
C3669 C 0.90953 0.98307 0.83373 0.0
C3670 C 0.81481 0.01121 0.82617 0.0
C3671 C 0.69492 -0.00297 0.82858 0.0
C3672 C 0.74391 -0.00382 0.82822 0.0
C3673 C 0.88605 -0.00622 0.8274 0.0
C3674 C 0.83708 -0.00535 0.82771 0.0
H3675 H 0.60867 0.98057 0.84097 0.0
H3676 H 0.68855 0.97881 0.84021 0.0
H3677 H 0.75291 0.02503 0.82538 0.0
H3678 H 0.9727 0.00969 0.81495 0.0
H3679 H 0.89277 0.0117 0.81567 0.0
C3680 C 0.0504 0.46625 0.04478 0.0
C3681 C 0.03956 0.48031 0.05092 0.0
C3682 C 0.04382 0.46846 0.03536 0.0
C3683 C 0.03075 0.50432 0.01766 0.0
H3684 H 0.99202 0.46391 1.00252 0.0
C3685 C 0.98356 0.51339 0.97954 0.0
C3686 C 0.99512 0.49949 0.97336 0.0
C3687 C 0.98991 0.51111 0.98895 0.0
C3688 C 1.00342 0.47528 1.00662 0.0
H3689 H 1.01208 0.50751 0.05205 0.0
H3690 H 0.99999 0.51132 0.03561 0.0
H3691 H 0.99897 0.45976 0.01901 0.0
H3692 H 0.02342 0.47244 0.97219 0.0
H3693 H 0.03494 0.46847 0.98865 0.0
H3694 H 0.03514 0.51984 1.00527 0.0
C3695 C 1.01433 0.49869 0.03804 0.0
C3696 C 1.00733 0.47291 0.0161 0.0
C3697 C 1.02093 0.49647 0.04748 0.0
C3698 C 1.01405 0.48337 0.97679 0.0
C3699 C 1.02033 0.48106 0.98623 0.0
C3700 C 0.0268 0.50669 1.00818 0.0
C3701 C 0.02614 0.48478 0.03185 0.0
C3702 C 1.02106 0.4874 0.02175 0.0
C3703 C 1.00799 0.49485 0.99244 0.0
C3704 C 1.01307 0.49221 1.00253 0.0
H3705 H 0.06486 0.45365 0.04723 0.0
H3706 H 0.05375 0.45753 0.03082 0.0
H3707 H 0.04219 0.51569 0.02175 0.0
H3708 H 0.96886 0.52597 0.97711 0.0
H3709 H 0.97956 0.52194 0.99352 0.0
C3710 C 0.30039 0.71567 0.97874 0.0
C3711 C 0.28977 0.72972 0.97258 0.0
C3712 C 0.29381 0.71792 0.98815 0.0
C3713 C 0.23404 0.74589 1.00532 0.0
H3714 H 0.3247 0.72842 0.0218 0.0
C3715 C 0.23289 0.76384 0.04382 0.0
C3716 C 0.24414 0.74998 0.05004 0.0
C3717 C 0.2391 0.76138 0.03441 0.0
C3718 C 0.29881 0.7332 0.01731 0.0
H3719 H 0.26282 0.75701 0.97142 0.0
H3720 H 0.25143 0.76104 0.98787 0.0
H3721 H 0.33282 0.72397 1.00535 0.0
H3722 H 0.27167 0.72281 0.05131 0.0
H3723 H 0.28229 0.71841 0.03487 0.0
H3724 H 0.20001 0.75512 0.01727 0.0
C3725 C 0.26464 0.74819 0.98543 0.0
C3726 C 0.30345 0.73064 1.00786 0.0
C3727 C 0.2713 0.74593 0.97601 0.0
C3728 C 0.26272 0.73374 0.04668 0.0
C3729 C 0.26894 0.73127 0.03725 0.0
C3730 C 0.22939 0.74845 0.01477 0.0
C3731 C 0.27634 0.7343 0.99165 0.0
C3732 C 0.27114 0.73695 1.00173 0.0
C3733 C 0.25674 0.74499 0.03098 0.0
C3734 C 0.26174 0.74217 0.0209 0.0
H3735 H 0.31446 0.70297 0.97631 0.0
H3736 H 0.30244 0.7068 0.9927 0.0
H3737 H 0.20819 0.75069 1.00083 0.0
H3738 H 0.21874 0.77655 0.04621 0.0
H3739 H 0.23011 0.77238 0.02983 0.0
C3740 C 0.99159 0.71533 0.29424 0.0
C3741 C 1.00226 0.72939 0.3004 0.0
C3742 C 0.99823 0.71756 0.28483 0.0
C3743 C 0.05826 0.74544 0.26768 0.0
H3744 H 0.96761 0.72809 0.25117 0.0
C3745 C 0.05967 0.76352 0.2292 0.0
C3746 C 0.04849 0.74968 0.22296 0.0
C3747 C 0.05336 0.76103 0.23861 0.0
C3748 C 0.9935 0.73284 0.25566 0.0
H3749 H 0.02933 0.75666 0.30154 0.0
H3750 H 0.0408 0.76063 0.2851 0.0
H3751 H 0.95937 0.72362 0.26761 0.0
H3752 H 1.02092 0.72253 0.22166 0.0
H3753 H 1.01011 0.71808 0.23809 0.0
H3754 H 0.09239 0.75466 0.25574 0.0
C3755 C 0.02752 0.7478 0.28754 0.0
C3756 C 0.9888 0.73026 0.26511 0.0
C3757 C 1.02081 0.74557 0.29696 0.0
C3758 C 0.02983 0.73345 0.2263 0.0
C3759 C 0.0235 0.73094 0.23573 0.0
C3760 C 0.06297 0.748 0.25823 0.0
C3761 C 1.0158 0.73391 0.28133 0.0
C3762 C 1.02109 0.73654 0.27125 0.0
C3763 C 0.03568 0.74463 0.24202 0.0
C3764 C 0.03062 0.74178 0.25209 0.0
H3765 H 0.97745 0.70266 0.29668 0.0
H3766 H 0.98956 0.70644 0.28029 0.0
H3767 H 0.08411 0.75021 0.27217 0.0
H3768 H 0.07387 0.77623 0.22683 0.0
H3769 H 0.06233 0.77201 0.24321 0.0
C3770 C 0.24344 0.46591 0.22914 0.0
C3771 C 0.25382 0.48004 0.223 0.0
C3772 C 0.24987 0.46814 0.23856 0.0
C3773 C 0.26155 0.50406 0.25628 0.0
H3774 H 0.30139 0.46385 0.27143 0.0
C3775 C 0.30821 0.51332 0.29442 0.0
C3776 C 0.29701 0.49936 0.30058 0.0
C3777 C 0.30196 0.51103 0.285 0.0
C3778 C 0.28968 0.47516 0.26732 0.0
H3779 H 0.28034 0.5074 0.22189 0.0
H3780 H 0.29218 0.51126 0.23834 0.0
H3781 H 0.29477 0.45968 0.25493 0.0
H3782 H 0.26942 0.47218 0.30174 0.0
H3783 H 0.25809 0.46819 0.28528 0.0
H3784 H 0.25655 0.51955 0.26867 0.0
C3785 C 0.2783 0.49854 0.2359 0.0
C3786 C 0.28595 0.47278 0.25784 0.0
C3787 C 0.27186 0.4963 0.22646 0.0
C3788 C 0.27851 0.48317 0.29715 0.0
C3789 C 0.27234 0.48084 0.28771 0.0
C3790 C 0.26532 0.50645 0.26576 0.0
C3791 C 0.26693 0.48456 0.24209 0.0
C3792 C 0.27182 0.4872 0.25218 0.0
C3793 C 0.28436 0.49469 0.2815 0.0
C3794 C 0.27945 0.49203 0.27141 0.0
H3795 H 0.22944 0.45322 0.22668 0.0
H3796 H 0.24027 0.45715 0.24309 0.0
H3797 H 0.24979 0.51538 0.25218 0.0
H3798 H 0.32257 0.52596 0.29686 0.0
H3799 H 0.31205 0.52191 0.28044 0.0
C3800 C 0.80786 0.21588 0.97946 0.0
C3801 C 0.79615 0.22966 0.97323 0.0
C3802 C 0.80098 0.21821 0.98886 0.0
C3803 C 0.73858 0.24568 1.00583 0.0
H3804 H 0.82965 0.22944 0.02252 0.0
C3805 C 0.73461 0.26393 0.0443 0.0
C3806 C 0.74625 0.2502 0.05056 0.0
C3807 C 0.74145 0.2615 0.03491 0.0
C3808 C 0.80365 0.23388 0.01798 0.0
H3809 H 0.7671 0.25655 0.97194 0.0
H3810 H 0.75528 0.26073 0.98836 0.0
H3811 H 0.83879 0.22491 1.00611 0.0
H3812 H 0.77517 0.2233 0.05192 0.0
H3813 H 0.78695 0.21895 0.0355 0.0
H3814 H 0.70345 0.25465 0.0177 0.0
C3815 C 0.76952 0.24802 0.98599 0.0
C3816 C 0.80887 0.23127 1.00854 0.0
C3817 C 0.77644 0.24568 0.97658 0.0
C3818 C 0.76588 0.23413 0.04725 0.0
C3819 C 0.77277 0.23169 0.03784 0.0
C3820 C 0.73336 0.24829 0.01526 0.0
C3821 C 0.78216 0.2344 0.99227 0.0
C3822 C 0.77641 0.23713 1.00233 0.0
C3823 C 0.76017 0.24527 0.03153 0.0
C3824 C 0.76585 0.24245 0.02147 0.0
H3825 H 0.8229 0.20333 0.97708 0.0
H3826 H 0.81039 0.20728 0.99345 0.0
H3827 H 0.71258 0.25012 1.00129 0.0
H3828 H 0.71963 0.27652 0.04664 0.0
H3829 H 0.73209 0.27239 0.03029 0.0
C3830 C 0.98246 0.21799 0.79412 0.0
C3831 C 0.99386 0.23185 0.80033 0.0
C3832 C 0.98874 0.2204 0.78471 0.0
C3833 C 0.04883 0.24838 0.76759 0.0
H3834 H 0.95824 0.23092 0.7511 0.0
C3835 C 0.05073 0.26574 0.729 0.0
C3836 C 0.04011 0.25166 0.72285 0.0
C3837 C 0.04409 0.26352 0.73841 0.0
C3838 C 0.98409 0.23571 0.75559 0.0
H3839 H 0.02173 0.25895 0.80158 0.0
H3840 H 0.03245 0.26327 0.78513 0.0
H3841 H 0.94989 0.22661 0.76755 0.0
H3842 H 1.0131 0.22439 0.72171 0.0
H3843 H 1.00159 0.22044 0.73816 0.0
H3844 H 0.083 0.2575 0.75562 0.0
C3845 C 1.01894 0.25045 0.78752 0.0
C3846 C 0.97934 0.23322 0.76504 0.0
C3847 C 1.01266 0.24802 0.79695 0.0
C3848 C 0.02158 0.23548 0.72628 0.0
C3849 C 1.01486 0.23326 0.73571 0.0
C3850 C 0.05357 0.25088 0.75813 0.0
C3851 C 1.00659 0.23674 0.78126 0.0
C3852 C 1.01168 0.23949 0.77118 0.0
C3853 C 0.02655 0.24717 0.74191 0.0
C3854 C 0.02127 0.24458 0.752 0.0
H3855 H 0.96815 0.20532 0.79651 0.0
H3856 H 0.97963 0.2094 0.78013 0.0
H3857 H 0.07473 0.25315 0.77207 0.0
H3858 H 0.06484 0.27841 0.72655 0.0
H3859 H 0.05272 0.27466 0.74294 0.0
C3860 C 0.7727 0.4858 0.79751 0.0
C3861 C 0.79169 0.5019 0.80094 0.0
C3862 C 0.76578 0.48362 0.78808 0.0
C3863 C 0.80444 0.50111 0.76564 0.0
H3864 H 0.70018 0.47709 0.75632 0.0
C3865 C 0.76263 0.49812 0.72686 0.0
C3866 C 0.74369 0.48194 0.72352 0.0
C3867 C 0.76913 0.50061 0.73628 0.0
C3868 C 0.72978 0.48364 0.7588 0.0
H3869 H 0.81706 0.52854 0.79723 0.0
H3870 H 0.80456 0.52486 0.78084 0.0
H3871 H 0.70888 0.48146 0.77276 0.0
H3872 H 0.71794 0.45546 0.7274 0.0
H3873 H 0.72976 0.45964 0.74377 0.0
H3874 H 0.82538 0.50325 0.75169 0.0
C3875 C 0.79572 0.51376 0.78538 0.0
C3876 C 0.73473 0.48616 0.76825 0.0
C3877 C 0.80258 0.51593 0.79479 0.0
C3878 C 0.73236 0.46813 0.72977 0.0
C3879 C 0.73884 0.4706 0.73916 0.0
C3880 C 0.79949 0.49858 0.75619 0.0
C3881 C 0.7777 0.49749 0.78188 0.0
C3882 C 0.77215 0.49492 0.7718 0.0
C3883 C 0.75684 0.48695 0.74257 0.0
C3884 C 0.76213 0.48977 0.75264 0.0
H3885 H 0.764 0.47474 0.80208 0.0
H3886 H 0.75216 0.47086 0.78564 0.0
H3887 H 0.83404 0.50764 0.76812 0.0
H3888 H 0.77166 0.50901 0.7222 0.0
H3889 H 0.78277 0.51343 0.73864 0.0
C3890 C 0.05003 0.96692 0.54531 0.0
C3891 C 0.0397 0.98093 0.55152 0.0
C3892 C 0.04323 0.96927 0.53591 0.0
C3893 C 0.03035 0.00537 0.51832 0.0
H3894 H 0.99065 0.96519 0.50314 0.0
C3895 C 0.98271 0.01475 0.48023 0.0
C3896 C 0.99408 0.00085 0.47404 0.0
C3897 C 0.98914 0.01243 0.48964 0.0
C3898 C 1.0023 0.9765 0.50726 0.0
H3899 H 1.01294 0.00824 0.55277 0.0
H3900 H 1.00045 0.01231 0.53635 0.0
H3901 H 0.9978 0.9609 0.51961 0.0
H3902 H 0.02216 0.97376 0.47283 0.0
H3903 H 0.03379 0.96972 0.48928 0.0
H3904 H 0.03475 0.02098 0.50596 0.0
C3905 C 1.01456 -0.00042 0.53873 0.0
C3906 C 1.00634 0.97405 0.51672 0.0
C3907 C 0.02138 -0.00279 0.54815 0.0
C3908 C 1.01293 0.9847 0.47744 0.0
C3909 C 1.01928 0.98235 0.48687 0.0
C3910 C 0.02625 0.00783 0.50885 0.0
C3911 C 0.02583 0.9857 0.53247 0.0
C3912 C 1.02047 0.98844 0.52239 0.0
C3913 C 1.00709 -0.00387 0.49311 0.0
C3914 C 1.0122 -0.00658 0.50319 0.0
H3915 H 0.06425 0.95421 0.5477 0.0
H3916 H 0.05278 0.95835 0.53133 0.0
H3917 H 0.04208 0.01668 0.52243 0.0
H3918 H 0.96808 0.02735 0.47781 0.0
H3919 H 0.97893 0.02326 0.49422 0.0
C3920 C 0.27379 0.2475 0.47659 0.0
C3921 C 0.29134 0.23117 0.4731 0.0
C3922 C 0.26801 0.24981 0.48604 0.0
C3923 C 0.30779 0.23182 0.50833 0.0
H3924 H 0.20625 0.25705 0.51813 0.0
C3925 C 0.26898 0.23435 0.54724 0.0
C3926 C 0.25136 0.25064 0.55074 0.0
C3927 C 0.27484 0.2321 0.53778 0.0
C3928 C 0.23512 0.25017 0.51551 0.0
H3929 H 0.31521 0.20425 0.47674 0.0
H3930 H 0.30464 0.20813 0.49316 0.0
H3931 H 0.21307 0.25278 0.50165 0.0
H3932 H 0.22742 0.27758 0.54714 0.0
H3933 H 0.23813 0.2738 0.53071 0.0
H3934 H 0.32984 0.22921 0.52219 0.0
C3935 C 0.29613 0.21933 0.48865 0.0
C3936 C 0.239 0.2477 0.50604 0.0
C3937 C 0.30187 0.21704 0.47922 0.0
C3938 C 0.24083 0.26481 0.54464 0.0
C3939 C 0.24665 0.26258 0.53521 0.0
C3940 C 0.30391 0.23429 0.5178 0.0
C3941 C 0.27964 0.23582 0.49221 0.0
C3942 C 0.27537 0.23848 0.50231 0.0
C3943 C 0.26321 0.24611 0.53163 0.0
C3944 C 0.26753 0.2435 0.52153 0.0
H3945 H 0.26541 0.25865 0.47203 0.0
H3946 H 0.25553 0.26274 0.48852 0.0
H3947 H 0.33666 0.22493 0.50571 0.0
H3948 H 0.27736 0.22318 0.55177 0.0
H3949 H 0.28737 0.21918 0.53529 0.0
C3950 C 0.30216 0.01532 0.79543 0.0
C3951 C 0.29102 0.00132 0.80158 0.0
C3952 C 0.29573 0.01309 0.78602 0.0
C3953 C 0.23562 0.98543 0.76879 0.0
H3954 H 0.32703 0.00253 0.75241 0.0
C3955 C 0.23456 0.96776 0.73025 0.0
C3956 C 0.24614 0.98164 0.72407 0.0
C3957 C 0.24077 0.97009 0.73967 0.0
C3958 C 0.30093 -0.00215 0.75687 0.0
H3959 H 0.26335 0.97415 0.80271 0.0
H3960 H 0.25226 0.97018 0.78625 0.0
H3961 H 0.33497 0.00688 0.76887 0.0
H3962 H 0.2743 0.00871 0.72288 0.0
H3963 H 0.28493 0.01289 0.73934 0.0
H3964 H 0.20156 0.97641 0.75679 0.0
C3965 C 0.26574 0.98296 0.7887 0.0
C3966 C 0.30547 0.00036 0.76632 0.0
C3967 C 0.27223 0.9852 0.79814 0.0
C3968 C 0.26509 -0.00224 0.72749 0.0
C3969 C 0.27131 0.00011 0.73692 0.0
C3970 C 0.23107 0.98293 0.75933 0.0
C3971 C 0.27793 -0.0032 0.7825 0.0
C3972 C 0.27288 -0.00582 0.77242 0.0
C3973 C 0.25875 0.98638 0.74315 0.0
C3974 C 0.26369 0.98909 0.75324 0.0
H3975 H 0.31648 0.02795 0.79789 0.0
H3976 H 0.30474 0.02418 0.78148 0.0
H3977 H 0.20956 0.98074 0.77325 0.0
H3978 H 0.22012 0.95514 0.72782 0.0
H3979 H 0.23148 0.95909 0.74422 0.0
C3980 C 0.77631 0.74691 0.47612 0.0
C3981 C 0.79593 0.73091 0.47273 0.0
C3982 C 0.76965 0.74919 0.48555 0.0
C3983 C 0.80961 0.73223 0.50802 0.0
H3984 H 0.70447 0.75553 0.51736 0.0
C3985 C 0.76739 0.73449 0.54676 0.0
C3986 C 0.74794 0.75053 0.55016 0.0
C3987 C 0.77408 0.7322 0.53734 0.0
C3988 C 0.7343 0.74919 0.51487 0.0
H3989 H 0.82275 0.70455 0.47651 0.0
H3990 H 0.81066 0.70839 0.49289 0.0
H3991 H 0.71318 0.7512 0.50092 0.0
H3992 H 0.72148 0.77695 0.54638 0.0
H3993 H 0.73357 0.77309 0.52999 0.0
H3994 H 0.83072 0.73021 0.52197 0.0
C3995 C 0.80116 0.71935 0.48833 0.0
C3996 C 0.73928 0.74669 0.50543 0.0
C3997 C 0.80778 0.71708 0.47892 0.0
C3998 C 0.7363 0.76439 0.54397 0.0
C3999 C 0.74294 0.76211 0.53456 0.0
C4000 C 0.80463 0.73472 0.51747 0.0
C4001 C 0.78245 0.73552 0.49179 0.0
C4002 C 0.77699 0.73817 0.50187 0.0
C4003 C 0.76147 0.74591 0.5311 0.0
C4004 C 0.76692 0.74325 0.52103 0.0
H4005 H 0.76687 0.75782 0.47151 0.0
H4006 H 0.75549 0.76188 0.48795 0.0
H4007 H 0.83946 0.72589 0.50553 0.0
H4008 H 0.77667 0.72356 0.55137 0.0
H4009 H 0.78812 0.71949 0.53493 0.0
C4010 C 0.77093 -0.00389 0.22685 0.0
C4011 C 0.75265 0.9799 0.22339 0.0
C4012 C 0.77744 -0.00167 0.23628 0.0
C4013 C 0.78504 0.97258 0.25821 0.0
H4014 H 0.75572 0.01935 0.26905 0.0
C4015 C 0.77855 0.98305 0.29753 0.0
C4016 C 0.7969 -0.00071 0.30093 0.0
C4017 C 0.77217 0.98068 0.2881 0.0
C4018 C 0.76448 0.00625 0.26614 0.0
H4019 H 0.72791 0.95314 0.22707 0.0
H4020 H 0.73891 0.95702 0.24348 0.0
H4021 H 0.74879 0.01517 0.25257 0.0
H4022 H 0.82202 0.02594 0.29716 0.0
H4023 H 0.8112 0.02181 0.28076 0.0
H4024 H 0.8007 0.96366 0.27179 0.0
C4025 C 0.74861 0.96799 0.23894 0.0
C4026 C 0.7606 0.00386 0.25666 0.0
C4027 C 0.7421 0.96579 0.22953 0.0
C4028 C 0.80777 0.01326 0.29474 0.0
C4029 C 0.80135 0.01092 0.28534 0.0
C4030 C 0.78891 0.97497 0.26769 0.0
C4031 C 0.7659 0.98437 0.24247 0.0
C4032 C 0.77085 0.987 0.25256 0.0
C4033 C 0.78386 -0.00547 0.28187 0.0
C4034 C 0.77873 -0.00816 0.27179 0.0
H4035 H 0.77956 0.0072 0.22228 0.0
H4036 H 0.79149 0.01102 0.23873 0.0
H4037 H 0.79381 0.95948 0.2553 0.0
H4038 H 0.76972 0.97206 0.30214 0.0
H4039 H 0.75802 0.96798 0.28569 0.0
C4040 C 0.55891 0.46698 0.54434 0.0
C4041 C 0.54766 0.48083 0.55056 0.0
C4042 C 0.55233 0.46938 0.53494 0.0
C4043 C 0.53851 0.50545 0.51739 0.0
H4044 H 0.4995 0.46521 0.50217 0.0
C4045 C 0.49103 0.51482 0.47927 0.0
C4046 C 0.50201 0.50084 0.47309 0.0
C4047 C 0.49765 0.51254 0.48868 0.0
C4048 C 0.51099 0.47654 0.50629 0.0
H4049 H 0.51961 0.5079 0.55185 0.0
H4050 H 0.50763 0.51208 0.53542 0.0
H4051 H 0.50681 0.46088 0.51864 0.0
H4052 H 0.52976 0.4737 0.4719 0.0
H4053 H 0.54186 0.46975 0.48833 0.0
H4054 H 0.54271 0.52111 0.50504 0.0
C4055 C 0.52221 0.49944 0.53779 0.0
C4056 C 0.51509 0.47406 0.51576 0.0
C4057 C 0.52876 0.49701 0.54721 0.0
C4058 C 0.52079 0.48469 0.4765 0.0
C4059 C 0.5274 0.48239 0.48592 0.0
C4060 C 0.53441 0.50793 0.50792 0.0
C4061 C 0.53428 0.48571 0.53151 0.0
C4062 C 0.52895 0.48848 0.52144 0.0
C4063 C 0.51547 0.49621 0.49215 0.0
C4064 C 0.52062 0.4935 0.50224 0.0
H4065 H 0.57359 0.45436 0.54671 0.0
H4066 H 0.56248 0.45859 0.53033 0.0
H4067 H 0.54998 0.51678 0.52151 0.0
H4068 H 0.47645 0.52743 0.47685 0.0
H4069 H 0.48763 0.52341 0.49325 0.0
C4070 C 0.484 0.71743 0.79391 0.0
C4071 C 0.49541 0.73136 0.80008 0.0
C4072 C 0.49003 0.71978 0.78449 0.0
C4073 C 0.54925 0.74787 0.76726 0.0
H4074 H 0.45829 0.73024 0.75091 0.0
C4075 C 0.54903 0.76563 0.72874 0.0
C4076 C 0.53873 0.75153 0.72258 0.0
C4077 C 0.54274 0.7633 0.73815 0.0
C4078 C 0.48422 0.73508 0.75536 0.0
H4079 H 0.52308 0.75852 0.80125 0.0
H4080 H 0.53333 0.76273 0.78479 0.0
H4081 H 0.45066 0.72581 0.76737 0.0
H4082 H 0.51259 0.72411 0.72142 0.0
H4083 H 0.50164 0.71998 0.73787 0.0
H4084 H 0.58274 0.75719 0.75526 0.0
C4085 C 0.52003 0.7499 0.78722 0.0
C4086 C 0.4799 0.73252 0.76482 0.0
C4087 C 0.51401 0.74753 0.79666 0.0
C4088 C 0.52081 0.73523 0.726 0.0
C4089 C 0.51441 0.7329 0.73543 0.0
C4090 C 0.55353 0.75046 0.75781 0.0
C4091 C 0.50764 0.73613 0.78099 0.0
C4092 C 0.51237 0.73886 0.7709 0.0
C4093 C 0.52587 0.74682 0.74165 0.0
C4094 C 0.52108 0.7441 0.75173 0.0
H4095 H 0.46983 0.70476 0.79635 0.0
H4096 H 0.4809 0.70874 0.77994 0.0
H4097 H 0.57524 0.7527 0.77171 0.0
H4098 H 0.56268 0.7784 0.7263 0.0
H4099 H 0.55116 0.77444 0.7427 0.0
C4100 C 0.5213 0.24556 0.29748 0.0
C4101 C 0.50249 0.22943 0.30092 0.0
C4102 C 0.52793 0.24779 0.28806 0.0
C4103 C 0.48868 0.23036 0.26563 0.0
H4104 H 0.59243 0.25458 0.25622 0.0
C4105 C 0.52935 0.23351 0.22681 0.0
C4106 C 0.5481 0.24972 0.22346 0.0
C4107 C 0.5231 0.23101 0.23623 0.0
C4108 C 0.56297 0.24798 0.25872 0.0
H4109 H 0.47716 0.20278 0.29721 0.0
H4110 H 0.48916 0.20655 0.28081 0.0
H4111 H 0.58429 0.25012 0.27266 0.0
H4112 H 0.57375 0.27623 0.22732 0.0
H4113 H 0.56236 0.27201 0.2437 0.0
H4114 H 0.46732 0.22825 0.2517 0.0
C4115 C 0.49807 0.21764 0.28535 0.0
C4116 C 0.55833 0.24541 0.26817 0.0
C4117 C 0.49149 0.21541 0.29476 0.0
C4118 C 0.55947 0.26354 0.2297 0.0
C4119 C 0.55325 0.26105 0.2391 0.0
C4120 C 0.49331 0.23294 0.25618 0.0
C4121 C 0.51589 0.23394 0.28185 0.0
C4122 C 0.52111 0.23657 0.27176 0.0
C4123 C 0.53546 0.24467 0.24252 0.0
C4124 C 0.53048 0.24182 0.25259 0.0
H4125 H 0.53007 0.25661 0.30206 0.0
H4126 H 0.54141 0.26058 0.28562 0.0
H4127 H 0.45921 0.22378 0.26815 0.0
H4128 H 0.5203 0.22261 0.22216 0.0
H4129 H 0.50963 0.21817 0.2386 0.0
C4130 C 0.55253 0.96625 0.04522 0.0
C4131 C 0.542 0.9804 0.05133 0.0
C4132 C 0.54658 0.96848 0.03579 0.0
C4133 C 0.53661 0.00432 0.01802 0.0
H4134 H 0.49605 0.96426 1.00286 0.0
C4135 C 0.49217 0.01362 0.97977 0.0
C4136 C 0.50266 -0.00054 0.97366 0.0
C4137 C 0.49809 0.01138 0.9892 0.0
C4138 C 0.50799 0.97553 1.00697 0.0
H4139 H 0.51576 0.00783 0.05238 0.0
H4140 H 0.50485 0.0117 0.0359 0.0
H4141 H 0.50177 0.96016 0.01937 0.0
H4142 H 0.5288 0.97202 0.97261 0.0
H4143 H 0.53968 0.96813 0.98909 0.0
H4144 H 0.54283 0.01969 1.00562 0.0
C4145 C 0.51841 -0.00105 0.03838 0.0
C4146 C 0.51118 0.97319 0.01646 0.0
C4147 C 0.52433 -0.0033 0.04783 0.0
C4148 C 0.52026 0.98315 0.97716 0.0
C4149 C 0.52616 0.98089 0.98661 0.0
C4150 C 0.53342 0.00666 1.00853 0.0
C4151 C 0.5299 0.98493 0.03222 0.0
C4152 C 0.52554 0.98755 0.02212 0.0
C4153 C 0.51471 -0.00508 0.99277 0.0
C4154 C 0.51906 -0.0077 1.00287 0.0
H4155 H 0.56625 0.95352 0.04771 0.0
H4156 H 0.55623 0.95745 0.03128 0.0
H4157 H 0.54855 0.01559 0.02213 0.0
H4158 H 0.4785 0.02635 0.97728 0.0
H4159 H 0.48846 0.02241 0.99371 0.0
loop_
_geom_bond_atom_site_label_1
_geom_bond_atom_site_label_2
_geom_bond_distance
_geom_bond_site_symmetry_2
_ccdc_geom_bond_type
Gd0 C3 2.818 . S
Gd0 O20 2.377 . S
Gd0 O22 2.448 . S
Gd0 O23 2.506 . S
Gd0 O24 2.435 . S
Gd0 O25 2.717 1_655 S
Gd0 O27 2.395 1_655 S
Gd0 O31 2.327 1_655 S
Gd1 C12 2.818 . S
Gd1 O21 2.395 . S
Gd1 O25 2.327 . S
Gd1 O26 2.377 . S
Gd1 O28 2.448 . S
Gd1 O29 2.506 . S
Gd1 O30 2.435 . S
Gd1 O31 2.717 . S
C2 O20 1.240 . S
C2 O21 1.240 1_655 S
C3 Gd0 2.818 . S
C3 C4 1.510 . S
C3 O22 1.249 . S
C3 O23 1.252 . S
C4 C3 1.510 . S
C4 C5 1.404 . S
C4 C6 1.352 . S
C5 C4 1.404 . S
C5 C9 1.389 . S
C5 H32 0.930 . S
C6 C4 1.352 . S
C6 C8 1.374 . S
C6 H33 0.931 . S
C7 C8 1.359 . S
C7 C9 1.364 . S
C8 C6 1.374 . S
C8 C7 1.359 . S
C8 H34 0.931 . S
C9 C5 1.389 . S
C9 C7 1.364 . S
C9 H35 0.931 . S
C10 O24 1.256 1_455 S
C10 O25 1.257 . S
C11 O26 1.240 . S
C11 O27 1.240 . S
C12 Gd1 2.818 . S
C12 C13 1.510 . S
C12 O28 1.249 . S
C12 O29 1.252 . S
C13 C12 1.510 . S
C13 C14 1.404 . S
C13 C15 1.352 . S
C14 C13 1.404 . S
C14 C18 1.389 . S
C14 H36 0.930 . S
C15 C13 1.352 . S
C15 C17 1.374 . S
C15 H37 0.931 . S
C16 C17 1.359 . S
C16 C18 1.364 . S
C17 C15 1.374 . S
C17 C16 1.359 . S
C17 H38 0.931 . S
C18 C14 1.389 . S
C18 C16 1.364 . S
C18 H39 0.931 . S
C19 O30 1.256 . S
C19 O31 1.257 . S
O20 Gd0 2.377 . S
O20 C2 1.240 . S
O21 Gd1 2.395 . S
O21 C2 1.240 1_455 S
O22 Gd0 2.448 . S
O22 C3 1.249 . S
O23 Gd0 2.506 . S
O23 C3 1.252 . S
O24 Gd0 2.435 . S
O24 C10 1.256 1_655 S
O25 Gd0 2.717 1_455 S
O25 Gd1 2.327 . S
O25 C10 1.257 . S
O26 Gd1 2.377 . S
O26 C11 1.240 . S
O27 Gd0 2.395 1_455 S
O27 C11 1.240 . S
O28 Gd1 2.448 . S
O28 C12 1.249 . S
O29 Gd1 2.506 . S
O29 C12 1.252 . S
O30 Gd1 2.435 . S
O30 C19 1.256 . S
O31 Gd0 2.327 1_455 S
O31 Gd1 2.717 . S
O31 C19 1.257 . S
H32 C5 0.930 . S
H33 C6 0.931 . S
H34 C8 0.931 . S
H35 C9 0.931 . S
H36 C14 0.930 . S
H37 C15 0.931 . S
H38 C17 0.931 . S
H39 C18 0.931 . S
Gd40 C43 2.818 . S
Gd40 O60 2.377 . S
Gd40 O62 2.448 . S
Gd40 O63 2.506 . S
Gd40 O64 2.435 . S
Gd40 O65 2.717 . S
Gd40 O67 2.395 . S
Gd40 O71 2.327 . S
Gd41 C52 2.818 . S
Gd41 O61 2.395 . S
Gd41 O65 2.327 . S
Gd41 O66 2.377 . S
Gd41 O68 2.448 . S
Gd41 O69 2.506 . S
Gd41 O70 2.435 . S
Gd41 O71 2.717 . S
C42 O60 1.240 . S
C42 O61 1.240 . S
C43 Gd40 2.818 . S
C43 C44 1.510 . S
C43 O62 1.249 . S
C43 O63 1.252 . S
C44 C43 1.510 . S
C44 C45 1.404 . S
C44 C46 1.352 . S
C45 C44 1.404 . S
C45 C49 1.389 . S
C45 H72 0.930 . S
C46 C44 1.352 . S
C46 C48 1.374 . S
C46 H73 0.931 . S
C47 C48 1.359 . S
C47 C49 1.364 . S
C48 C46 1.374 . S
C48 C47 1.359 . S
C48 H74 0.931 . S
C49 C45 1.389 . S
C49 C47 1.364 . S
C49 H75 0.931 . S
C50 O64 1.256 . S
C50 O65 1.257 . S
C51 O66 1.240 . S
C51 O67 1.240 . S
C52 Gd41 2.818 . S
C52 C53 1.510 . S
C52 O68 1.249 . S
C52 O69 1.252 . S
C53 C52 1.510 . S
C53 C54 1.404 . S
C53 C55 1.352 . S
C54 C53 1.404 . S
C54 C58 1.389 1_455 S
C54 H76 0.930 . S
C55 C53 1.352 . S
C55 C57 1.374 1_455 S
C55 H77 0.931 . S
C56 C57 1.359 . S
C56 C58 1.364 . S
C57 C55 1.374 1_655 S
C57 C56 1.359 . S
C57 H78 0.931 . S
C58 C54 1.389 1_655 S
C58 C56 1.364 . S
C58 H79 0.931 . S
C59 O70 1.256 . S
C59 O71 1.257 . S
O60 Gd40 2.377 . S
O60 C42 1.240 . S
O61 Gd41 2.395 . S
O61 C42 1.240 . S
O62 Gd40 2.448 . S
O62 C43 1.249 . S
O63 Gd40 2.506 . S
O63 C43 1.252 . S
O64 Gd40 2.435 . S
O64 C50 1.256 . S
O65 Gd40 2.717 . S
O65 Gd41 2.327 . S
O65 C50 1.257 . S
O66 Gd41 2.377 . S
O66 C51 1.240 . S
O67 Gd40 2.395 . S
O67 C51 1.240 . S
O68 Gd41 2.448 . S
O68 C52 1.249 . S
O69 Gd41 2.506 . S
O69 C52 1.252 . S
O70 Gd41 2.435 . S
O70 C59 1.256 . S
O71 Gd40 2.327 . S
O71 Gd41 2.717 . S
O71 C59 1.257 . S
H72 C45 0.930 . S
H73 C46 0.931 . S
H74 C48 0.931 . S
H75 C49 0.931 . S
H76 C54 0.930 . S
H77 C55 0.931 . S
H78 C57 0.931 . S
H79 C58 0.931 . S
Gd80 C83 2.818 . S
Gd80 O100 2.377 . S
Gd80 O102 2.448 . S
Gd80 O103 2.506 . S
Gd80 O104 2.435 . S
Gd80 O105 2.717 1_655 S
Gd80 O107 2.395 1_655 S
Gd80 O111 2.327 1_655 S
Gd81 C92 2.818 . S
Gd81 O101 2.395 . S
Gd81 O105 2.327 . S
Gd81 O106 2.377 . S
Gd81 O108 2.448 . S
Gd81 O109 2.506 . S
Gd81 O110 2.435 . S
Gd81 O111 2.717 . S
C82 O100 1.240 . S
C82 O101 1.240 1_655 S
C83 Gd80 2.818 . S
C83 C84 1.510 . S
C83 O102 1.249 . S
C83 O103 1.252 . S
C84 C83 1.510 . S
C84 C85 1.404 . S
C84 C86 1.352 . S
C85 C84 1.404 . S
C85 C89 1.389 . S
C85 H112 0.930 . S
C86 C84 1.352 . S
C86 C88 1.374 . S
C86 H113 0.931 . S
C87 C88 1.359 . S
C87 C89 1.364 . S
C88 C86 1.374 . S
C88 C87 1.359 . S
C88 H114 0.931 . S
C89 C85 1.389 . S
C89 C87 1.364 . S
C89 H115 0.931 . S
C90 O104 1.256 1_455 S
C90 O105 1.257 . S
C91 O106 1.240 . S
C91 O107 1.240 . S
C92 Gd81 2.818 . S
C92 C93 1.510 . S
C92 O108 1.249 . S
C92 O109 1.252 . S
C93 C92 1.510 . S
C93 C94 1.404 . S
C93 C95 1.352 . S
C94 C93 1.404 . S
C94 C98 1.389 . S
C94 H116 0.930 . S
C95 C93 1.352 . S
C95 C97 1.374 . S
C95 H117 0.931 . S
C96 C97 1.359 . S
C96 C98 1.364 . S
C97 C95 1.374 . S
C97 C96 1.359 . S
C97 H118 0.931 . S
C98 C94 1.389 . S
C98 C96 1.364 . S
C98 H119 0.931 . S
C99 O110 1.256 . S
C99 O111 1.257 . S
O100 Gd80 2.377 . S
O100 C82 1.240 . S
O101 Gd81 2.395 . S
O101 C82 1.240 1_455 S
O102 Gd80 2.448 . S
O102 C83 1.249 . S
O103 Gd80 2.506 . S
O103 C83 1.252 . S
O104 Gd80 2.435 . S
O104 C90 1.256 1_655 S
O105 Gd80 2.717 1_455 S
O105 Gd81 2.327 . S
O105 C90 1.257 . S
O106 Gd81 2.377 . S
O106 C91 1.240 . S
O107 Gd80 2.395 1_455 S
O107 C91 1.240 . S
O108 Gd81 2.448 . S
O108 C92 1.249 . S
O109 Gd81 2.506 . S
O109 C92 1.252 . S
O110 Gd81 2.435 . S
O110 C99 1.256 . S
O111 Gd80 2.327 1_455 S
O111 Gd81 2.717 . S
O111 C99 1.257 . S
H112 C85 0.930 . S
H113 C86 0.931 . S
H114 C88 0.931 . S
H115 C89 0.931 . S
H116 C94 0.930 . S
H117 C95 0.931 . S
H118 C97 0.931 . S
H119 C98 0.931 . S
Gd120 C123 2.818 . S
Gd120 O140 2.377 . S
Gd120 O142 2.448 . S
Gd120 O143 2.506 . S
Gd120 O144 2.435 . S
Gd120 O145 2.717 . S
Gd120 O147 2.395 . S
Gd120 O151 2.327 . S
Gd121 C132 2.818 . S
Gd121 O141 2.395 . S
Gd121 O145 2.327 . S
Gd121 O146 2.377 . S
Gd121 O148 2.448 . S
Gd121 O149 2.506 . S
Gd121 O150 2.435 . S
Gd121 O151 2.717 . S
C122 O140 1.240 . S
C122 O141 1.240 . S
C123 Gd120 2.818 . S
C123 C124 1.510 . S
C123 O142 1.249 . S
C123 O143 1.252 . S
C124 C123 1.510 . S
C124 C125 1.404 . S
C124 C126 1.352 . S
C125 C124 1.404 . S
C125 C129 1.389 . S
C125 H152 0.930 . S
C126 C124 1.352 . S
C126 C128 1.374 . S
C126 H153 0.931 . S
C127 C128 1.359 . S
C127 C129 1.364 . S
C128 C126 1.374 . S
C128 C127 1.359 . S
C128 H154 0.931 . S
C129 C125 1.389 . S
C129 C127 1.364 . S
C129 H155 0.931 . S
C130 O144 1.256 . S
C130 O145 1.257 . S
C131 O146 1.240 . S
C131 O147 1.240 . S
C132 Gd121 2.818 . S
C132 C133 1.510 . S
C132 O148 1.249 . S
C132 O149 1.252 . S
C133 C132 1.510 . S
C133 C134 1.404 . S
C133 C135 1.352 . S
C134 C133 1.404 . S
C134 C138 1.389 1_455 S
C134 H156 0.930 . S
C135 C133 1.352 . S
C135 C137 1.374 1_455 S
C135 H157 0.931 . S
C136 C137 1.359 . S
C136 C138 1.364 . S
C137 C135 1.374 1_655 S
C137 C136 1.359 . S
C137 H158 0.931 . S
C138 C134 1.389 1_655 S
C138 C136 1.364 . S
C138 H159 0.931 . S
C139 O150 1.256 . S
C139 O151 1.257 . S
O140 Gd120 2.377 . S
O140 C122 1.240 . S
O141 Gd121 2.395 . S
O141 C122 1.240 . S
O142 Gd120 2.448 . S
O142 C123 1.249 . S
O143 Gd120 2.506 . S
O143 C123 1.252 . S
O144 Gd120 2.435 . S
O144 C130 1.256 . S
O145 Gd120 2.717 . S
O145 Gd121 2.327 . S
O145 C130 1.257 . S
O146 Gd121 2.377 . S
O146 C131 1.240 . S
O147 Gd120 2.395 . S
O147 C131 1.240 . S
O148 Gd121 2.448 . S
O148 C132 1.249 . S
O149 Gd121 2.506 . S
O149 C132 1.252 . S
O150 Gd121 2.435 . S
O150 C139 1.256 . S
O151 Gd120 2.327 . S
O151 Gd121 2.717 . S
O151 C139 1.257 . S
H152 C125 0.930 . S
H153 C126 0.931 . S
H154 C128 0.931 . S
H155 C129 0.931 . S
H156 C134 0.930 . S
H157 C135 0.931 . S
H158 C137 0.931 . S
H159 C138 0.931 . S
Gd160 C163 2.818 . S
Gd160 O180 2.377 . S
Gd160 O182 2.448 . S
Gd160 O183 2.506 . S
Gd160 O184 2.435 . S
Gd160 O185 2.717 . S
Gd160 O187 2.395 . S
Gd160 O191 2.327 . S
Gd161 C172 2.818 . S
Gd161 O181 2.395 1_455 S
Gd161 O185 2.327 1_455 S
Gd161 O186 2.377 . S
Gd161 O188 2.448 . S
Gd161 O189 2.506 . S
Gd161 O190 2.435 . S
Gd161 O191 2.717 1_455 S
C162 O180 1.240 . S
C162 O181 1.240 . S
C163 Gd160 2.818 . S
C163 C164 1.510 . S
C163 O182 1.249 . S
C163 O183 1.252 . S
C164 C163 1.510 . S
C164 C165 1.404 . S
C164 C166 1.352 . S
C165 C164 1.404 . S
C165 C169 1.389 . S
C165 H192 0.930 . S
C166 C164 1.352 . S
C166 C168 1.374 . S
C166 H193 0.931 . S
C167 C168 1.359 . S
C167 C169 1.364 . S
C168 C166 1.374 . S
C168 C167 1.359 . S
C168 H194 0.931 . S
C169 C165 1.389 . S
C169 C167 1.364 . S
C169 H195 0.931 . S
C170 O184 1.256 . S
C170 O185 1.257 . S
C171 O186 1.240 . S
C171 O187 1.240 1_455 S
C172 Gd161 2.818 . S
C172 C173 1.510 . S
C172 O188 1.249 . S
C172 O189 1.252 . S
C173 C172 1.510 . S
C173 C174 1.404 . S
C173 C175 1.352 . S
C174 C173 1.404 . S
C174 C178 1.389 . S
C174 H196 0.930 . S
C175 C173 1.352 . S
C175 C177 1.374 . S
C175 H197 0.931 . S
C176 C177 1.359 . S
C176 C178 1.364 . S
C177 C175 1.374 . S
C177 C176 1.359 . S
C177 H198 0.931 . S
C178 C174 1.389 . S
C178 C176 1.364 . S
C178 H199 0.931 . S
C179 O190 1.256 1_655 S
C179 O191 1.257 . S
O180 Gd160 2.377 . S
O180 C162 1.240 . S
O181 Gd161 2.395 1_655 S
O181 C162 1.240 . S
O182 Gd160 2.448 . S
O182 C163 1.249 . S
O183 Gd160 2.506 . S
O183 C163 1.252 . S
O184 Gd160 2.435 . S
O184 C170 1.256 . S
O185 Gd160 2.717 . S
O185 Gd161 2.327 1_655 S
O185 C170 1.257 . S
O186 Gd161 2.377 . S
O186 C171 1.240 . S
O187 Gd160 2.395 . S
O187 C171 1.240 1_655 S
O188 Gd161 2.448 . S
O188 C172 1.249 . S
O189 Gd161 2.506 . S
O189 C172 1.252 . S
O190 Gd161 2.435 . S
O190 C179 1.256 1_455 S
O191 Gd160 2.327 . S
O191 Gd161 2.717 1_655 S
O191 C179 1.257 . S
H192 C165 0.930 . S
H193 C166 0.931 . S
H194 C168 0.931 . S
H195 C169 0.931 . S
H196 C174 0.930 . S
H197 C175 0.931 . S
H198 C177 0.931 . S
H199 C178 0.931 . S
Gd200 C203 2.818 . S
Gd200 O220 2.377 . S
Gd200 O222 2.448 . S
Gd200 O223 2.506 . S
Gd200 O224 2.435 . S
Gd200 O225 2.717 . S
Gd200 O227 2.395 . S
Gd200 O231 2.327 . S
Gd201 C212 2.818 . S
Gd201 O221 2.395 . S
Gd201 O225 2.327 . S
Gd201 O226 2.377 . S
Gd201 O228 2.448 . S
Gd201 O229 2.506 . S
Gd201 O230 2.435 . S
Gd201 O231 2.717 . S
C202 O220 1.240 . S
C202 O221 1.240 . S
C203 Gd200 2.818 . S
C203 C204 1.510 . S
C203 O222 1.249 . S
C203 O223 1.252 . S
C204 C203 1.510 . S
C204 C205 1.404 . S
C204 C206 1.352 . S
C205 C204 1.404 . S
C205 C209 1.389 1_655 S
C205 H232 0.930 . S
C206 C204 1.352 . S
C206 C208 1.374 1_655 S
C206 H233 0.931 . S
C207 C208 1.359 . S
C207 C209 1.364 . S
C208 C206 1.374 1_455 S
C208 C207 1.359 . S
C208 H234 0.931 . S
C209 C205 1.389 1_455 S
C209 C207 1.364 . S
C209 H235 0.931 . S
C210 O224 1.256 . S
C210 O225 1.257 . S
C211 O226 1.240 . S
C211 O227 1.240 . S
C212 Gd201 2.818 . S
C212 C213 1.510 . S
C212 O228 1.249 . S
C212 O229 1.252 . S
C213 C212 1.510 . S
C213 C214 1.404 . S
C213 C215 1.352 . S
C214 C213 1.404 . S
C214 C218 1.389 . S
C214 H236 0.930 . S
C215 C213 1.352 . S
C215 C217 1.374 . S
C215 H237 0.931 . S
C216 C217 1.359 . S
C216 C218 1.364 . S
C217 C215 1.374 . S
C217 C216 1.359 . S
C217 H238 0.931 . S
C218 C214 1.389 . S
C218 C216 1.364 . S
C218 H239 0.931 . S
C219 O230 1.256 . S
C219 O231 1.257 . S
O220 Gd200 2.377 . S
O220 C202 1.240 . S
O221 Gd201 2.395 . S
O221 C202 1.240 . S
O222 Gd200 2.448 . S
O222 C203 1.249 . S
O223 Gd200 2.506 . S
O223 C203 1.252 . S
O224 Gd200 2.435 . S
O224 C210 1.256 . S
O225 Gd200 2.717 . S
O225 Gd201 2.327 . S
O225 C210 1.257 . S
O226 Gd201 2.377 . S
O226 C211 1.240 . S
O227 Gd200 2.395 . S
O227 C211 1.240 . S
O228 Gd201 2.448 . S
O228 C212 1.249 . S
O229 Gd201 2.506 . S
O229 C212 1.252 . S
O230 Gd201 2.435 . S
O230 C219 1.256 . S
O231 Gd200 2.327 . S
O231 Gd201 2.717 . S
O231 C219 1.257 . S
H232 C205 0.930 . S
H233 C206 0.931 . S
H234 C208 0.931 . S
H235 C209 0.931 . S
H236 C214 0.930 . S
H237 C215 0.931 . S
H238 C217 0.931 . S
H239 C218 0.931 . S
Gd240 C243 2.818 . S
Gd240 O260 2.377 . S
Gd240 O262 2.448 . S
Gd240 O263 2.506 . S
Gd240 O264 2.435 . S
Gd240 O265 2.717 . S
Gd240 O267 2.395 . S
Gd240 O271 2.327 . S
Gd241 C252 2.818 . S
Gd241 O261 2.395 1_455 S
Gd241 O265 2.327 1_455 S
Gd241 O266 2.377 . S
Gd241 O268 2.448 . S
Gd241 O269 2.506 . S
Gd241 O270 2.435 . S
Gd241 O271 2.717 1_455 S
C242 O260 1.240 . S
C242 O261 1.240 . S
C243 Gd240 2.818 . S
C243 C244 1.510 . S
C243 O262 1.249 . S
C243 O263 1.252 . S
C244 C243 1.510 . S
C244 C245 1.404 . S
C244 C246 1.352 . S
C245 C244 1.404 . S
C245 C249 1.389 . S
C245 H272 0.930 . S
C246 C244 1.352 . S
C246 C248 1.374 . S
C246 H273 0.931 . S
C247 C248 1.359 . S
C247 C249 1.364 . S
C248 C246 1.374 . S
C248 C247 1.359 . S
C248 H274 0.931 . S
C249 C245 1.389 . S
C249 C247 1.364 . S
C249 H275 0.931 . S
C250 O264 1.256 . S
C250 O265 1.257 . S
C251 O266 1.240 . S
C251 O267 1.240 1_455 S
C252 Gd241 2.818 . S
C252 C253 1.510 . S
C252 O268 1.249 . S
C252 O269 1.252 . S
C253 C252 1.510 . S
C253 C254 1.404 . S
C253 C255 1.352 . S
C254 C253 1.404 . S
C254 C258 1.389 . S
C254 H276 0.930 . S
C255 C253 1.352 . S
C255 C257 1.374 . S
C255 H277 0.931 . S
C256 C257 1.359 . S
C256 C258 1.364 . S
C257 C255 1.374 . S
C257 C256 1.359 . S
C257 H278 0.931 . S
C258 C254 1.389 . S
C258 C256 1.364 . S
C258 H279 0.931 . S
C259 O270 1.256 1_655 S
C259 O271 1.257 . S
O260 Gd240 2.377 . S
O260 C242 1.240 . S
O261 Gd241 2.395 1_655 S
O261 C242 1.240 . S
O262 Gd240 2.448 . S
O262 C243 1.249 . S
O263 Gd240 2.506 . S
O263 C243 1.252 . S
O264 Gd240 2.435 . S
O264 C250 1.256 . S
O265 Gd240 2.717 . S
O265 Gd241 2.327 1_655 S
O265 C250 1.257 . S
O266 Gd241 2.377 . S
O266 C251 1.240 . S
O267 Gd240 2.395 . S
O267 C251 1.240 1_655 S
O268 Gd241 2.448 . S
O268 C252 1.249 . S
O269 Gd241 2.506 . S
O269 C252 1.252 . S
O270 Gd241 2.435 . S
O270 C259 1.256 1_455 S
O271 Gd240 2.327 . S
O271 Gd241 2.717 1_655 S
O271 C259 1.257 . S
H272 C245 0.930 . S
H273 C246 0.931 . S
H274 C248 0.931 . S
H275 C249 0.931 . S
H276 C254 0.930 . S
H277 C255 0.931 . S
H278 C257 0.931 . S
H279 C258 0.931 . S
Gd280 C283 2.818 . S
Gd280 O300 2.377 . S
Gd280 O302 2.448 . S
Gd280 O303 2.506 . S
Gd280 O304 2.435 . S
Gd280 O305 2.717 . S
Gd280 O307 2.395 . S
Gd280 O311 2.327 . S
Gd281 C292 2.818 . S
Gd281 O301 2.395 . S
Gd281 O305 2.327 . S
Gd281 O306 2.377 . S
Gd281 O308 2.448 . S
Gd281 O309 2.506 . S
Gd281 O310 2.435 . S
Gd281 O311 2.717 . S
C282 O300 1.240 . S
C282 O301 1.240 . S
C283 Gd280 2.818 . S
C283 C284 1.510 . S
C283 O302 1.249 . S
C283 O303 1.252 . S
C284 C283 1.510 . S
C284 C285 1.404 . S
C284 C286 1.352 . S
C285 C284 1.404 . S
C285 C289 1.389 1_655 S
C285 H312 0.930 . S
C286 C284 1.352 . S
C286 C288 1.374 1_655 S
C286 H313 0.931 . S
C287 C288 1.359 . S
C287 C289 1.364 . S
C288 C286 1.374 1_455 S
C288 C287 1.359 . S
C288 H314 0.931 . S
C289 C285 1.389 1_455 S
C289 C287 1.364 . S
C289 H315 0.931 . S
C290 O304 1.256 . S
C290 O305 1.257 . S
C291 O306 1.240 . S
C291 O307 1.240 . S
C292 Gd281 2.818 . S
C292 C293 1.510 . S
C292 O308 1.249 . S
C292 O309 1.252 . S
C293 C292 1.510 . S
C293 C294 1.404 . S
C293 C295 1.352 . S
C294 C293 1.404 . S
C294 C298 1.389 . S
C294 H316 0.930 . S
C295 C293 1.352 . S
C295 C297 1.374 . S
C295 H317 0.931 . S
C296 C297 1.359 . S
C296 C298 1.364 . S
C297 C295 1.374 . S
C297 C296 1.359 . S
C297 H318 0.931 . S
C298 C294 1.389 . S
C298 C296 1.364 . S
C298 H319 0.931 . S
C299 O310 1.256 . S
C299 O311 1.257 . S
O300 Gd280 2.377 . S
O300 C282 1.240 . S
O301 Gd281 2.395 . S
O301 C282 1.240 . S
O302 Gd280 2.448 . S
O302 C283 1.249 . S
O303 Gd280 2.506 . S
O303 C283 1.252 . S
O304 Gd280 2.435 . S
O304 C290 1.256 . S
O305 Gd280 2.717 . S
O305 Gd281 2.327 . S
O305 C290 1.257 . S
O306 Gd281 2.377 . S
O306 C291 1.240 . S
O307 Gd280 2.395 . S
O307 C291 1.240 . S
O308 Gd281 2.448 . S
O308 C292 1.249 . S
O309 Gd281 2.506 . S
O309 C292 1.252 . S
O310 Gd281 2.435 . S
O310 C299 1.256 . S
O311 Gd280 2.327 . S
O311 Gd281 2.717 . S
O311 C299 1.257 . S
H312 C285 0.930 . S
H313 C286 0.931 . S
H314 C288 0.931 . S
H315 C289 0.931 . S
H316 C294 0.930 . S
H317 C295 0.931 . S
H318 C297 0.931 . S
H319 C298 0.931 . S
Gd320 C323 2.814 1_545 S
Gd320 O340 2.377 1_545 S
Gd320 O342 2.448 . S
Gd320 O343 2.506 1_545 S
Gd320 O344 2.435 . S
Gd320 O345 2.717 1_645 S
Gd320 O347 2.395 1_655 S
Gd320 O351 2.327 1_645 S
Gd321 C332 2.818 . S
Gd321 O341 2.395 . S
Gd321 O345 2.327 . S
Gd321 O346 2.377 1_565 S
Gd321 O348 2.448 . S
Gd321 O349 2.506 . S
Gd321 O350 2.435 . S
Gd321 O351 2.717 . S
C322 O340 1.240 . S
C322 O341 1.240 1_655 S
C323 Gd320 2.814 1_565 S
C323 C324 1.515 . S
C323 O342 1.244 1_565 S
C323 O343 1.252 . S
C324 C323 1.515 . S
C324 C325 1.404 . S
C324 C326 1.352 . S
C325 C324 1.404 . S
C325 C329 1.389 . S
C325 H352 0.930 1_565 S
C326 C324 1.352 . S
C326 C328 1.374 . S
C326 H353 0.931 . S
C327 C328 1.359 . S
C327 C329 1.364 . S
C328 C326 1.374 . S
C328 C327 1.359 . S
C328 H354 0.931 . S
C329 C325 1.389 . S
C329 C327 1.364 . S
C329 H355 0.931 . S
C330 O344 1.256 1_465 S
C330 O345 1.257 . S
C331 O346 1.240 . S
C331 O347 1.240 . S
C332 Gd321 2.818 . S
C332 C333 1.523 . S
C332 O348 1.249 . S
C332 O349 1.252 . S
C333 C332 1.523 . S
C333 C334 1.412 . S
C333 C335 1.335 1_565 S
C334 C333 1.412 . S
C334 C338 1.389 1_565 S
C334 H356 0.930 . S
C335 C333 1.335 1_545 S
C335 C337 1.374 . S
C335 H357 0.931 . S
C336 C337 1.359 . S
C336 C338 1.364 . S
C337 C335 1.374 . S
C337 C336 1.359 . S
C337 H358 0.931 . S
C338 C334 1.389 1_545 S
C338 C336 1.364 . S
C338 H359 0.926 1_545 S
C339 O350 1.256 . S
C339 O351 1.257 . S
O340 Gd320 2.377 1_565 S
O340 C322 1.240 . S
O341 Gd321 2.395 . S
O341 C322 1.240 1_455 S
O342 Gd320 2.448 . S
O342 C323 1.244 1_545 S
O343 Gd320 2.506 1_565 S
O343 C323 1.252 . S
O344 Gd320 2.435 . S
O344 C330 1.256 1_645 S
O345 Gd320 2.717 1_465 S
O345 Gd321 2.327 . S
O345 C330 1.257 . S
O346 Gd321 2.377 1_545 S
O346 C331 1.240 . S
O347 Gd320 2.395 1_455 S
O347 C331 1.240 . S
O348 Gd321 2.448 . S
O348 C332 1.249 . S
O349 Gd321 2.506 . S
O349 C332 1.252 . S
O350 Gd321 2.435 . S
O350 C339 1.256 . S
O351 Gd320 2.327 1_465 S
O351 Gd321 2.717 . S
O351 C339 1.257 . S
H352 C325 0.930 1_545 S
H353 C326 0.931 . S
H354 C328 0.931 . S
H355 C329 0.931 . S
H356 C334 0.930 . S
H357 C335 0.931 . S
H358 C337 0.931 . S
H359 C338 0.926 1_565 S
Gd360 C363 2.818 . S
Gd360 O380 2.377 . S
Gd360 O382 2.448 . S
Gd360 O383 2.506 . S
Gd360 O384 2.435 . S
Gd360 O385 2.717 . S
Gd360 O387 2.395 . S
Gd360 O391 2.327 . S
Gd361 C372 2.818 . S
Gd361 O381 2.395 . S
Gd361 O385 2.327 . S
Gd361 O386 2.377 . S
Gd361 O388 2.448 . S
Gd361 O389 2.506 . S
Gd361 O390 2.435 . S
Gd361 O391 2.717 . S
C362 O380 1.240 . S
C362 O381 1.240 . S
C363 Gd360 2.818 . S
C363 C364 1.510 . S
C363 O382 1.249 . S
C363 O383 1.252 . S
C364 C363 1.510 . S
C364 C365 1.404 . S
C364 C366 1.352 . S
C365 C364 1.404 . S
C365 C369 1.389 . S
C365 H392 0.930 . S
C366 C364 1.352 . S
C366 C368 1.374 . S
C366 H393 0.931 . S
C367 C368 1.359 . S
C367 C369 1.364 . S
C368 C366 1.374 . S
C368 C367 1.359 . S
C368 H394 0.931 . S
C369 C365 1.389 . S
C369 C367 1.364 . S
C369 H395 0.931 . S
C370 O384 1.256 . S
C370 O385 1.257 . S
C371 O386 1.240 . S
C371 O387 1.240 . S
C372 Gd361 2.818 . S
C372 C373 1.510 . S
C372 O388 1.249 . S
C372 O389 1.252 . S
C373 C372 1.510 . S
C373 C374 1.404 . S
C373 C375 1.352 . S
C374 C373 1.404 . S
C374 C378 1.389 1_455 S
C374 H396 0.930 . S
C375 C373 1.352 . S
C375 C377 1.374 1_455 S
C375 H397 0.931 . S
C376 C377 1.359 . S
C376 C378 1.364 . S
C377 C375 1.374 1_655 S
C377 C376 1.359 . S
C377 H398 0.931 . S
C378 C374 1.389 1_655 S
C378 C376 1.364 . S
C378 H399 0.931 . S
C379 O390 1.256 . S
C379 O391 1.257 . S
O380 Gd360 2.377 . S
O380 C362 1.240 . S
O381 Gd361 2.395 . S
O381 C362 1.240 . S
O382 Gd360 2.448 . S
O382 C363 1.249 . S
O383 Gd360 2.506 . S
O383 C363 1.252 . S
O384 Gd360 2.435 . S
O384 C370 1.256 . S
O385 Gd360 2.717 . S
O385 Gd361 2.327 . S
O385 C370 1.257 . S
O386 Gd361 2.377 . S
O386 C371 1.240 . S
O387 Gd360 2.395 . S
O387 C371 1.240 . S
O388 Gd361 2.448 . S
O388 C372 1.249 . S
O389 Gd361 2.506 . S
O389 C372 1.252 . S
O390 Gd361 2.435 . S
O390 C379 1.256 . S
O391 Gd360 2.327 . S
O391 Gd361 2.717 . S
O391 C379 1.257 . S
H392 C365 0.930 . S
H393 C366 0.931 . S
H394 C368 0.931 . S
H395 C369 0.931 . S
H396 C374 0.930 . S
H397 C375 0.931 . S
H398 C377 0.931 . S
H399 C378 0.931 . S
Gd400 C403 2.818 . S
Gd400 O420 2.377 . S
Gd400 O422 2.448 . S
Gd400 O423 2.506 . S
Gd400 O424 2.435 . S
Gd400 O425 2.717 1_655 S
Gd400 O427 2.395 1_655 S
Gd400 O431 2.327 1_655 S
Gd401 C412 2.818 . S
Gd401 O421 2.395 . S
Gd401 O425 2.327 . S
Gd401 O426 2.377 . S
Gd401 O428 2.448 . S
Gd401 O429 2.506 . S
Gd401 O430 2.435 . S
Gd401 O431 2.717 . S
C402 O420 1.240 . S
C402 O421 1.240 1_655 S
C403 Gd400 2.818 . S
C403 C404 1.510 . S
C403 O422 1.249 . S
C403 O423 1.252 . S
C404 C403 1.510 . S
C404 C405 1.404 . S
C404 C406 1.352 . S
C405 C404 1.404 . S
C405 C409 1.389 . S
C405 H432 0.930 . S
C406 C404 1.352 . S
C406 C408 1.374 . S
C406 H433 0.931 . S
C407 C408 1.359 . S
C407 C409 1.364 . S
C408 C406 1.374 . S
C408 C407 1.359 . S
C408 H434 0.931 . S
C409 C405 1.389 . S
C409 C407 1.364 . S
C409 H435 0.931 . S
C410 O424 1.256 1_455 S
C410 O425 1.257 . S
C411 O426 1.240 . S
C411 O427 1.240 . S
C412 Gd401 2.818 . S
C412 C413 1.510 . S
C412 O428 1.249 . S
C412 O429 1.252 . S
C413 C412 1.510 . S
C413 C414 1.404 . S
C413 C415 1.352 . S
C414 C413 1.404 . S
C414 C418 1.389 . S
C414 H436 0.930 . S
C415 C413 1.352 . S
C415 C417 1.374 . S
C415 H437 0.931 . S
C416 C417 1.359 . S
C416 C418 1.364 . S
C417 C415 1.374 . S
C417 C416 1.359 . S
C417 H438 0.931 . S
C418 C414 1.389 . S
C418 C416 1.364 . S
C418 H439 0.931 . S
C419 O430 1.256 . S
C419 O431 1.257 . S
O420 Gd400 2.377 . S
O420 C402 1.240 . S
O421 Gd401 2.395 . S
O421 C402 1.240 1_455 S
O422 Gd400 2.448 . S
O422 C403 1.249 . S
O423 Gd400 2.506 . S
O423 C403 1.252 . S
O424 Gd400 2.435 . S
O424 C410 1.256 1_655 S
O425 Gd400 2.717 1_455 S
O425 Gd401 2.327 . S
O425 C410 1.257 . S
O426 Gd401 2.377 . S
O426 C411 1.240 . S
O427 Gd400 2.395 1_455 S
O427 C411 1.240 . S
O428 Gd401 2.448 . S
O428 C412 1.249 . S
O429 Gd401 2.506 . S
O429 C412 1.252 . S
O430 Gd401 2.435 . S
O430 C419 1.256 . S
O431 Gd400 2.327 1_455 S
O431 Gd401 2.717 . S
O431 C419 1.257 . S
H432 C405 0.930 . S
H433 C406 0.931 . S
H434 C408 0.931 . S
H435 C409 0.931 . S
H436 C414 0.930 . S
H437 C415 0.931 . S
H438 C417 0.931 . S
H439 C418 0.931 . S
Gd440 C443 2.814 1_545 S
Gd440 O460 2.377 1_545 S
Gd440 O462 2.448 . S
Gd440 O463 2.506 1_545 S
Gd440 O464 2.435 . S
Gd440 O465 2.717 1_545 S
Gd440 O467 2.395 . S
Gd440 O471 2.327 1_545 S
Gd441 C452 2.818 . S
Gd441 O461 2.395 . S
Gd441 O465 2.327 . S
Gd441 O466 2.377 1_565 S
Gd441 O468 2.448 . S
Gd441 O469 2.506 . S
Gd441 O470 2.435 . S
Gd441 O471 2.717 . S
C442 O460 1.240 . S
C442 O461 1.240 . S
C443 Gd440 2.814 1_565 S
C443 C444 1.515 . S
C443 O462 1.244 1_565 S
C443 O463 1.252 . S
C444 C443 1.515 . S
C444 C445 1.404 . S
C444 C446 1.352 . S
C445 C444 1.404 . S
C445 C449 1.389 . S
C445 H472 0.930 1_565 S
C446 C444 1.352 . S
C446 C448 1.374 . S
C446 H473 0.931 . S
C447 C448 1.359 . S
C447 C449 1.364 . S
C448 C446 1.374 . S
C448 C447 1.359 . S
C448 H474 0.931 . S
C449 C445 1.389 . S
C449 C447 1.364 . S
C449 H475 0.931 . S
C450 O464 1.256 1_565 S
C450 O465 1.257 . S
C451 O466 1.240 . S
C451 O467 1.240 . S
C452 Gd441 2.818 . S
C452 C453 1.523 . S
C452 O468 1.249 . S
C452 O469 1.252 . S
C453 C452 1.523 . S
C453 C454 1.412 . S
C453 C455 1.335 1_565 S
C454 C453 1.412 . S
C454 C458 1.389 1_465 S
C454 H476 0.930 . S
C455 C453 1.335 1_545 S
C455 C457 1.374 1_455 S
C455 H477 0.931 . S
C456 C457 1.359 . S
C456 C458 1.364 . S
C457 C455 1.374 1_655 S
C457 C456 1.359 . S
C457 H478 0.931 . S
C458 C454 1.389 1_645 S
C458 C456 1.364 . S
C458 H479 0.926 1_545 S
C459 O470 1.256 . S
C459 O471 1.257 . S
O460 Gd440 2.377 1_565 S
O460 C442 1.240 . S
O461 Gd441 2.395 . S
O461 C442 1.240 . S
O462 Gd440 2.448 . S
O462 C443 1.244 1_545 S
O463 Gd440 2.506 1_565 S
O463 C443 1.252 . S
O464 Gd440 2.435 . S
O464 C450 1.256 1_545 S
O465 Gd440 2.717 1_565 S
O465 Gd441 2.327 . S
O465 C450 1.257 . S
O466 Gd441 2.377 1_545 S
O466 C451 1.240 . S
O467 Gd440 2.395 . S
O467 C451 1.240 . S
O468 Gd441 2.448 . S
O468 C452 1.249 . S
O469 Gd441 2.506 . S
O469 C452 1.252 . S
O470 Gd441 2.435 . S
O470 C459 1.256 . S
O471 Gd440 2.327 1_565 S
O471 Gd441 2.717 . S
O471 C459 1.257 . S
H472 C445 0.930 1_545 S
H473 C446 0.931 . S
H474 C448 0.931 . S
H475 C449 0.931 . S
H476 C454 0.930 . S
H477 C455 0.931 . S
H478 C457 0.931 . S
H479 C458 0.926 1_565 S
Gd480 C483 2.818 . S
Gd480 O500 2.377 1_545 S
Gd480 O502 2.448 . S
Gd480 O503 2.506 . S
Gd480 O504 2.435 . S
Gd480 O505 2.717 . S
Gd480 O507 2.395 . S
Gd480 O511 2.327 . S
Gd481 C492 2.814 1_565 S
Gd481 O501 2.395 1_455 S
Gd481 O505 2.327 1_465 S
Gd481 O506 2.377 1_565 S
Gd481 O508 2.448 . S
Gd481 O509 2.506 1_565 S
Gd481 O510 2.435 . S
Gd481 O511 2.717 1_465 S
C482 O500 1.240 . S
C482 O501 1.240 . S
C483 Gd480 2.818 . S
C483 C484 1.523 . S
C483 O502 1.249 . S
C483 O503 1.252 . S
C484 C483 1.523 . S
C484 C485 1.412 . S
C484 C486 1.335 1_545 S
C485 C484 1.412 . S
C485 C489 1.389 1_545 S
C485 H512 0.930 . S
C486 C484 1.335 1_565 S
C486 C488 1.374 . S
C486 H513 0.931 . S
C487 C488 1.359 . S
C487 C489 1.364 . S
C488 C486 1.374 . S
C488 C487 1.359 . S
C488 H514 0.931 . S
C489 C485 1.389 1_565 S
C489 C487 1.364 . S
C489 H515 0.926 1_565 S
C490 O504 1.256 . S
C490 O505 1.257 . S
C491 O506 1.240 . S
C491 O507 1.240 1_455 S
C492 Gd481 2.814 1_545 S
C492 C493 1.515 . S
C492 O508 1.244 1_545 S
C492 O509 1.252 . S
C493 C492 1.515 . S
C493 C494 1.404 . S
C493 C495 1.352 . S
C494 C493 1.404 . S
C494 C498 1.389 . S
C494 H516 0.930 1_545 S
C495 C493 1.352 . S
C495 C497 1.374 . S
C495 H517 0.931 . S
C496 C497 1.359 . S
C496 C498 1.364 . S
C497 C495 1.374 . S
C497 C496 1.359 . S
C497 H518 0.931 . S
C498 C494 1.389 . S
C498 C496 1.364 . S
C498 H519 0.931 . S
C499 O510 1.256 1_645 S
C499 O511 1.257 . S
O500 Gd480 2.377 1_565 S
O500 C482 1.240 . S
O501 Gd481 2.395 1_655 S
O501 C482 1.240 . S
O502 Gd480 2.448 . S
O502 C483 1.249 . S
O503 Gd480 2.506 . S
O503 C483 1.252 . S
O504 Gd480 2.435 . S
O504 C490 1.256 . S
O505 Gd480 2.717 . S
O505 Gd481 2.327 1_645 S
O505 C490 1.257 . S
O506 Gd481 2.377 1_545 S
O506 C491 1.240 . S
O507 Gd480 2.395 . S
O507 C491 1.240 1_655 S
O508 Gd481 2.448 . S
O508 C492 1.244 1_565 S
O509 Gd481 2.506 1_545 S
O509 C492 1.252 . S
O510 Gd481 2.435 . S
O510 C499 1.256 1_465 S
O511 Gd480 2.327 . S
O511 Gd481 2.717 1_645 S
O511 C499 1.257 . S
H512 C485 0.930 . S
H513 C486 0.931 . S
H514 C488 0.931 . S
H515 C489 0.926 1_545 S
H516 C494 0.930 1_565 S
H517 C495 0.931 . S
H518 C497 0.931 . S
H519 C498 0.931 . S
Gd520 C523 2.818 . S
Gd520 O540 2.377 . S
Gd520 O542 2.448 . S
Gd520 O543 2.506 . S
Gd520 O544 2.435 . S
Gd520 O545 2.717 . S
Gd520 O547 2.395 . S
Gd520 O551 2.327 . S
Gd521 C532 2.818 . S
Gd521 O541 2.395 . S
Gd521 O545 2.327 . S
Gd521 O546 2.377 . S
Gd521 O548 2.448 . S
Gd521 O549 2.506 . S
Gd521 O550 2.435 . S
Gd521 O551 2.717 . S
C522 O540 1.240 . S
C522 O541 1.240 . S
C523 Gd520 2.818 . S
C523 C524 1.510 . S
C523 O542 1.249 . S
C523 O543 1.252 . S
C524 C523 1.510 . S
C524 C525 1.404 . S
C524 C526 1.352 . S
C525 C524 1.404 . S
C525 C529 1.389 1_655 S
C525 H552 0.930 . S
C526 C524 1.352 . S
C526 C528 1.374 1_655 S
C526 H553 0.931 . S
C527 C528 1.359 . S
C527 C529 1.364 . S
C528 C526 1.374 1_455 S
C528 C527 1.359 . S
C528 H554 0.931 . S
C529 C525 1.389 1_455 S
C529 C527 1.364 . S
C529 H555 0.931 . S
C530 O544 1.256 . S
C530 O545 1.257 . S
C531 O546 1.240 . S
C531 O547 1.240 . S
C532 Gd521 2.818 . S
C532 C533 1.510 . S
C532 O548 1.249 . S
C532 O549 1.252 . S
C533 C532 1.510 . S
C533 C534 1.404 . S
C533 C535 1.352 . S
C534 C533 1.404 . S
C534 C538 1.389 . S
C534 H556 0.930 . S
C535 C533 1.352 . S
C535 C537 1.374 . S
C535 H557 0.931 . S
C536 C537 1.359 . S
C536 C538 1.364 . S
C537 C535 1.374 . S
C537 C536 1.359 . S
C537 H558 0.931 . S
C538 C534 1.389 . S
C538 C536 1.364 . S
C538 H559 0.931 . S
C539 O550 1.256 . S
C539 O551 1.257 . S
O540 Gd520 2.377 . S
O540 C522 1.240 . S
O541 Gd521 2.395 . S
O541 C522 1.240 . S
O542 Gd520 2.448 . S
O542 C523 1.249 . S
O543 Gd520 2.506 . S
O543 C523 1.252 . S
O544 Gd520 2.435 . S
O544 C530 1.256 . S
O545 Gd520 2.717 . S
O545 Gd521 2.327 . S
O545 C530 1.257 . S
O546 Gd521 2.377 . S
O546 C531 1.240 . S
O547 Gd520 2.395 . S
O547 C531 1.240 . S
O548 Gd521 2.448 . S
O548 C532 1.249 . S
O549 Gd521 2.506 . S
O549 C532 1.252 . S
O550 Gd521 2.435 . S
O550 C539 1.256 . S
O551 Gd520 2.327 . S
O551 Gd521 2.717 . S
O551 C539 1.257 . S
H552 C525 0.930 . S
H553 C526 0.931 . S
H554 C528 0.931 . S
H555 C529 0.931 . S
H556 C534 0.930 . S
H557 C535 0.931 . S
H558 C537 0.931 . S
H559 C538 0.931 . S
Gd560 C563 2.818 . S
Gd560 O580 2.377 . S
Gd560 O582 2.448 . S
Gd560 O583 2.506 . S
Gd560 O584 2.435 . S
Gd560 O585 2.717 . S
Gd560 O587 2.395 . S
Gd560 O591 2.327 . S
Gd561 C572 2.818 . S
Gd561 O581 2.395 1_455 S
Gd561 O585 2.327 1_455 S
Gd561 O586 2.377 . S
Gd561 O588 2.448 . S
Gd561 O589 2.506 . S
Gd561 O590 2.435 . S
Gd561 O591 2.717 1_455 S
C562 O580 1.240 . S
C562 O581 1.240 . S
C563 Gd560 2.818 . S
C563 C564 1.510 . S
C563 O582 1.249 . S
C563 O583 1.252 . S
C564 C563 1.510 . S
C564 C565 1.404 . S
C564 C566 1.352 . S
C565 C564 1.404 . S
C565 C569 1.389 . S
C565 H592 0.930 . S
C566 C564 1.352 . S
C566 C568 1.374 . S
C566 H593 0.931 . S
C567 C568 1.359 . S
C567 C569 1.364 . S
C568 C566 1.374 . S
C568 C567 1.359 . S
C568 H594 0.931 . S
C569 C565 1.389 . S
C569 C567 1.364 . S
C569 H595 0.931 . S
C570 O584 1.256 . S
C570 O585 1.257 . S
C571 O586 1.240 . S
C571 O587 1.240 1_455 S
C572 Gd561 2.818 . S
C572 C573 1.510 . S
C572 O588 1.249 . S
C572 O589 1.252 . S
C573 C572 1.510 . S
C573 C574 1.404 . S
C573 C575 1.352 . S
C574 C573 1.404 . S
C574 C578 1.389 . S
C574 H596 0.930 . S
C575 C573 1.352 . S
C575 C577 1.374 . S
C575 H597 0.931 . S
C576 C577 1.359 . S
C576 C578 1.364 . S
C577 C575 1.374 . S
C577 C576 1.359 . S
C577 H598 0.931 . S
C578 C574 1.389 . S
C578 C576 1.364 . S
C578 H599 0.931 . S
C579 O590 1.256 1_655 S
C579 O591 1.257 . S
O580 Gd560 2.377 . S
O580 C562 1.240 . S
O581 Gd561 2.395 1_655 S
O581 C562 1.240 . S
O582 Gd560 2.448 . S
O582 C563 1.249 . S
O583 Gd560 2.506 . S
O583 C563 1.252 . S
O584 Gd560 2.435 . S
O584 C570 1.256 . S
O585 Gd560 2.717 . S
O585 Gd561 2.327 1_655 S
O585 C570 1.257 . S
O586 Gd561 2.377 . S
O586 C571 1.240 . S
O587 Gd560 2.395 . S
O587 C571 1.240 1_655 S
O588 Gd561 2.448 . S
O588 C572 1.249 . S
O589 Gd561 2.506 . S
O589 C572 1.252 . S
O590 Gd561 2.435 . S
O590 C579 1.256 1_455 S
O591 Gd560 2.327 . S
O591 Gd561 2.717 1_655 S
O591 C579 1.257 . S
H592 C565 0.930 . S
H593 C566 0.931 . S
H594 C568 0.931 . S
H595 C569 0.931 . S
H596 C574 0.930 . S
H597 C575 0.931 . S
H598 C577 0.931 . S
H599 C578 0.931 . S
Gd600 C603 2.818 . S
Gd600 O620 2.377 1_545 S
Gd600 O622 2.448 . S
Gd600 O623 2.506 . S
Gd600 O624 2.435 . S
Gd600 O625 2.717 . S
Gd600 O627 2.395 . S
Gd600 O631 2.327 . S
Gd601 C612 2.814 1_565 S
Gd601 O621 2.395 . S
Gd601 O625 2.327 1_565 S
Gd601 O626 2.377 1_565 S
Gd601 O628 2.448 . S
Gd601 O629 2.506 1_565 S
Gd601 O630 2.435 . S
Gd601 O631 2.717 1_565 S
C602 O620 1.240 . S
C602 O621 1.240 . S
C603 Gd600 2.818 . S
C603 C604 1.523 . S
C603 O622 1.249 . S
C603 O623 1.252 . S
C604 C603 1.523 . S
C604 C605 1.412 . S
C604 C606 1.335 1_545 S
C605 C604 1.412 . S
C605 C609 1.389 1_645 S
C605 H632 0.930 . S
C606 C604 1.335 1_565 S
C606 C608 1.374 1_655 S
C606 H633 0.931 . S
C607 C608 1.359 . S
C607 C609 1.364 . S
C608 C606 1.374 1_455 S
C608 C607 1.359 . S
C608 H634 0.931 . S
C609 C605 1.389 1_465 S
C609 C607 1.364 . S
C609 H635 0.926 1_565 S
C610 O624 1.256 . S
C610 O625 1.257 . S
C611 O626 1.240 . S
C611 O627 1.240 . S
C612 Gd601 2.814 1_545 S
C612 C613 1.515 . S
C612 O628 1.244 1_545 S
C612 O629 1.252 . S
C613 C612 1.515 . S
C613 C614 1.404 . S
C613 C615 1.352 . S
C614 C613 1.404 . S
C614 C618 1.389 . S
C614 H636 0.930 1_545 S
C615 C613 1.352 . S
C615 C617 1.374 . S
C615 H637 0.931 . S
C616 C617 1.359 . S
C616 C618 1.364 . S
C617 C615 1.374 . S
C617 C616 1.359 . S
C617 H638 0.931 . S
C618 C614 1.389 . S
C618 C616 1.364 . S
C618 H639 0.931 . S
C619 O630 1.256 1_545 S
C619 O631 1.257 . S
O620 Gd600 2.377 1_565 S
O620 C602 1.240 . S
O621 Gd601 2.395 . S
O621 C602 1.240 . S
O622 Gd600 2.448 . S
O622 C603 1.249 . S
O623 Gd600 2.506 . S
O623 C603 1.252 . S
O624 Gd600 2.435 . S
O624 C610 1.256 . S
O625 Gd600 2.717 . S
O625 Gd601 2.327 1_545 S
O625 C610 1.257 . S
O626 Gd601 2.377 1_545 S
O626 C611 1.240 . S
O627 Gd600 2.395 . S
O627 C611 1.240 . S
O628 Gd601 2.448 . S
O628 C612 1.244 1_565 S
O629 Gd601 2.506 1_545 S
O629 C612 1.252 . S
O630 Gd601 2.435 . S
O630 C619 1.256 1_565 S
O631 Gd600 2.327 . S
O631 Gd601 2.717 1_545 S
O631 C619 1.257 . S
H632 C605 0.930 . S
H633 C606 0.931 . S
H634 C608 0.931 . S
H635 C609 0.926 1_545 S
H636 C614 0.930 1_565 S
H637 C615 0.931 . S
H638 C617 0.931 . S
H639 C618 0.931 . S
Gd640 C643 2.818 . S
Gd640 O660 2.377 . S
Gd640 O662 2.448 . S
Gd640 O663 2.506 . S
Gd640 O664 2.435 . S
Gd640 O665 2.717 . S
Gd640 O667 2.395 . S
Gd640 O671 2.327 . S
Gd641 C652 2.818 . S
Gd641 O661 2.395 . S
Gd641 O665 2.327 . S
Gd641 O666 2.377 . S
Gd641 O668 2.448 . S
Gd641 O669 2.506 . S
Gd641 O670 2.435 . S
Gd641 O671 2.717 . S
C642 O660 1.240 . S
C642 O661 1.240 . S
C643 Gd640 2.818 . S
C643 C644 1.510 . S
C643 O662 1.249 . S
C643 O663 1.252 . S
C644 C643 1.510 . S
C644 C645 1.404 . S
C644 C646 1.352 . S
C645 C644 1.404 . S
C645 C649 1.389 . S
C645 H672 0.930 . S
C646 C644 1.352 . S
C646 C648 1.374 . S
C646 H673 0.931 . S
C647 C648 1.359 . S
C647 C649 1.364 . S
C648 C646 1.374 . S
C648 C647 1.359 . S
C648 H674 0.931 . S
C649 C645 1.389 . S
C649 C647 1.364 . S
C649 H675 0.931 . S
C650 O664 1.256 . S
C650 O665 1.257 . S
C651 O666 1.240 . S
C651 O667 1.240 . S
C652 Gd641 2.818 . S
C652 C653 1.510 . S
C652 O668 1.249 . S
C652 O669 1.252 . S
C653 C652 1.510 . S
C653 C654 1.404 . S
C653 C655 1.352 . S
C654 C653 1.404 . S
C654 C658 1.389 . S
C654 H676 0.930 . S
C655 C653 1.352 . S
C655 C657 1.374 . S
C655 H677 0.931 . S
C656 C657 1.359 . S
C656 C658 1.364 . S
C657 C655 1.374 . S
C657 C656 1.359 . S
C657 H678 0.931 . S
C658 C654 1.389 . S
C658 C656 1.364 . S
C658 H679 0.931 . S
C659 O670 1.256 . S
C659 O671 1.257 . S
O660 Gd640 2.377 . S
O660 C642 1.240 . S
O661 Gd641 2.395 . S
O661 C642 1.240 . S
O662 Gd640 2.448 . S
O662 C643 1.249 . S
O663 Gd640 2.506 . S
O663 C643 1.252 . S
O664 Gd640 2.435 . S
O664 C650 1.256 . S
O665 Gd640 2.717 . S
O665 Gd641 2.327 . S
O665 C650 1.257 . S
O666 Gd641 2.377 . S
O666 C651 1.240 . S
O667 Gd640 2.395 . S
O667 C651 1.240 . S
O668 Gd641 2.448 . S
O668 C652 1.249 . S
O669 Gd641 2.506 . S
O669 C652 1.252 . S
O670 Gd641 2.435 . S
O670 C659 1.256 . S
O671 Gd640 2.327 . S
O671 Gd641 2.717 . S
O671 C659 1.257 . S
H672 C645 0.930 . S
H673 C646 0.931 . S
H674 C648 0.931 . S
H675 C649 0.931 . S
H676 C654 0.930 . S
H677 C655 0.931 . S
H678 C657 0.931 . S
H679 C658 0.931 . S
Gd680 C683 2.818 . S
Gd680 O700 2.377 . S
Gd680 O702 2.448 . S
Gd680 O703 2.506 . S
Gd680 O704 2.435 . S
Gd680 O705 2.717 . S
Gd680 O707 2.395 . S
Gd680 O711 2.327 . S
Gd681 C692 2.818 . S
Gd681 O701 2.395 . S
Gd681 O705 2.327 . S
Gd681 O706 2.377 . S
Gd681 O708 2.448 . S
Gd681 O709 2.506 . S
Gd681 O710 2.435 . S
Gd681 O711 2.717 . S
C682 O700 1.240 . S
C682 O701 1.240 . S
C683 Gd680 2.818 . S
C683 C684 1.510 . S
C683 O702 1.249 . S
C683 O703 1.252 . S
C684 C683 1.510 . S
C684 C685 1.404 . S
C684 C686 1.352 . S
C685 C684 1.404 . S
C685 C689 1.389 . S
C685 H712 0.930 . S
C686 C684 1.352 . S
C686 C688 1.374 . S
C686 H713 0.931 . S
C687 C688 1.359 . S
C687 C689 1.364 . S
C688 C686 1.374 . S
C688 C687 1.359 . S
C688 H714 0.931 . S
C689 C685 1.389 . S
C689 C687 1.364 . S
C689 H715 0.931 . S
C690 O704 1.256 . S
C690 O705 1.257 . S
C691 O706 1.240 . S
C691 O707 1.240 . S
C692 Gd681 2.818 . S
C692 C693 1.510 . S
C692 O708 1.249 . S
C692 O709 1.252 . S
C693 C692 1.510 . S
C693 C694 1.404 . S
C693 C695 1.352 . S
C694 C693 1.404 . S
C694 C698 1.389 . S
C694 H716 0.930 . S
C695 C693 1.352 . S
C695 C697 1.374 . S
C695 H717 0.931 . S
C696 C697 1.359 . S
C696 C698 1.364 . S
C697 C695 1.374 . S
C697 C696 1.359 . S
C697 H718 0.931 . S
C698 C694 1.389 . S
C698 C696 1.364 . S
C698 H719 0.931 . S
C699 O710 1.256 . S
C699 O711 1.257 . S
O700 Gd680 2.377 . S
O700 C682 1.240 . S
O701 Gd681 2.395 . S
O701 C682 1.240 . S
O702 Gd680 2.448 . S
O702 C683 1.249 . S
O703 Gd680 2.506 . S
O703 C683 1.252 . S
O704 Gd680 2.435 . S
O704 C690 1.256 . S
O705 Gd680 2.717 . S
O705 Gd681 2.327 . S
O705 C690 1.257 . S
O706 Gd681 2.377 . S
O706 C691 1.240 . S
O707 Gd680 2.395 . S
O707 C691 1.240 . S
O708 Gd681 2.448 . S
O708 C692 1.249 . S
O709 Gd681 2.506 . S
O709 C692 1.252 . S
O710 Gd681 2.435 . S
O710 C699 1.256 . S
O711 Gd680 2.327 . S
O711 Gd681 2.717 . S
O711 C699 1.257 . S
H712 C685 0.930 . S
H713 C686 0.931 . S
H714 C688 0.931 . S
H715 C689 0.931 . S
H716 C694 0.930 . S
H717 C695 0.931 . S
H718 C697 0.931 . S
H719 C698 0.931 . S
Gd720 C723 2.818 . S
Gd720 O740 2.377 . S
Gd720 O742 2.448 . S
Gd720 O743 2.506 . S
Gd720 O744 2.435 . S
Gd720 O745 2.717 . S
Gd720 O747 2.395 . S
Gd720 O751 2.327 . S
Gd721 C732 2.818 . S
Gd721 O741 2.395 . S
Gd721 O745 2.327 . S
Gd721 O746 2.377 . S
Gd721 O748 2.448 . S
Gd721 O749 2.506 . S
Gd721 O750 2.435 . S
Gd721 O751 2.717 . S
C722 O740 1.240 . S
C722 O741 1.240 . S
C723 Gd720 2.818 . S
C723 C724 1.510 . S
C723 O742 1.249 . S
C723 O743 1.252 . S
C724 C723 1.510 . S
C724 C725 1.404 . S
C724 C726 1.352 . S
C725 C724 1.404 . S
C725 C729 1.389 . S
C725 H752 0.930 . S
C726 C724 1.352 . S
C726 C728 1.374 . S
C726 H753 0.931 . S
C727 C728 1.359 . S
C727 C729 1.364 . S
C728 C726 1.374 . S
C728 C727 1.359 . S
C728 H754 0.931 . S
C729 C725 1.389 . S
C729 C727 1.364 . S
C729 H755 0.931 . S
C730 O744 1.256 . S
C730 O745 1.257 . S
C731 O746 1.240 . S
C731 O747 1.240 . S
C732 Gd721 2.818 . S
C732 C733 1.510 . S
C732 O748 1.249 . S
C732 O749 1.252 . S
C733 C732 1.510 . S
C733 C734 1.404 . S
C733 C735 1.352 . S
C734 C733 1.404 . S
C734 C738 1.389 . S
C734 H756 0.930 . S
C735 C733 1.352 . S
C735 C737 1.374 . S
C735 H757 0.931 . S
C736 C737 1.359 . S
C736 C738 1.364 . S
C737 C735 1.374 . S
C737 C736 1.359 . S
C737 H758 0.931 . S
C738 C734 1.389 . S
C738 C736 1.364 . S
C738 H759 0.931 . S
C739 O750 1.256 . S
C739 O751 1.257 . S
O740 Gd720 2.377 . S
O740 C722 1.240 . S
O741 Gd721 2.395 . S
O741 C722 1.240 . S
O742 Gd720 2.448 . S
O742 C723 1.249 . S
O743 Gd720 2.506 . S
O743 C723 1.252 . S
O744 Gd720 2.435 . S
O744 C730 1.256 . S
O745 Gd720 2.717 . S
O745 Gd721 2.327 . S
O745 C730 1.257 . S
O746 Gd721 2.377 . S
O746 C731 1.240 . S
O747 Gd720 2.395 . S
O747 C731 1.240 . S
O748 Gd721 2.448 . S
O748 C732 1.249 . S
O749 Gd721 2.506 . S
O749 C732 1.252 . S
O750 Gd721 2.435 . S
O750 C739 1.256 . S
O751 Gd720 2.327 . S
O751 Gd721 2.717 . S
O751 C739 1.257 . S
H752 C725 0.930 . S
H753 C726 0.931 . S
H754 C728 0.931 . S
H755 C729 0.931 . S
H756 C734 0.930 . S
H757 C735 0.931 . S
H758 C737 0.931 . S
H759 C738 0.931 . S
Gd760 C763 2.818 . S
Gd760 O780 2.377 . S
Gd760 O782 2.448 . S
Gd760 O783 2.506 . S
Gd760 O784 2.435 . S
Gd760 O785 2.717 . S
Gd760 O787 2.395 . S
Gd760 O791 2.327 . S
Gd761 C772 2.818 . S
Gd761 O781 2.395 . S
Gd761 O785 2.327 . S
Gd761 O786 2.377 . S
Gd761 O788 2.448 . S
Gd761 O789 2.506 . S
Gd761 O790 2.435 . S
Gd761 O791 2.717 . S
C762 O780 1.240 . S
C762 O781 1.240 . S
C763 Gd760 2.818 . S
C763 C764 1.510 . S
C763 O782 1.249 . S
C763 O783 1.252 . S
C764 C763 1.510 . S
C764 C765 1.404 . S
C764 C766 1.352 . S
C765 C764 1.404 . S
C765 C769 1.389 . S
C765 H792 0.930 . S
C766 C764 1.352 . S
C766 C768 1.374 . S
C766 H793 0.931 . S
C767 C768 1.359 . S
C767 C769 1.364 . S
C768 C766 1.374 . S
C768 C767 1.359 . S
C768 H794 0.931 . S
C769 C765 1.389 . S
C769 C767 1.364 . S
C769 H795 0.931 . S
C770 O784 1.256 . S
C770 O785 1.257 . S
C771 O786 1.240 . S
C771 O787 1.240 . S
C772 Gd761 2.818 . S
C772 C773 1.510 . S
C772 O788 1.249 . S
C772 O789 1.252 . S
C773 C772 1.510 . S
C773 C774 1.404 . S
C773 C775 1.352 . S
C774 C773 1.404 . S
C774 C778 1.389 . S
C774 H796 0.930 . S
C775 C773 1.352 . S
C775 C777 1.374 . S
C775 H797 0.931 . S
C776 C777 1.359 . S
C776 C778 1.364 . S
C777 C775 1.374 . S
C777 C776 1.359 . S
C777 H798 0.931 . S
C778 C774 1.389 . S
C778 C776 1.364 . S
C778 H799 0.931 . S
C779 O790 1.256 . S
C779 O791 1.257 . S
O780 Gd760 2.377 . S
O780 C762 1.240 . S
O781 Gd761 2.395 . S
O781 C762 1.240 . S
O782 Gd760 2.448 . S
O782 C763 1.249 . S
O783 Gd760 2.506 . S
O783 C763 1.252 . S
O784 Gd760 2.435 . S
O784 C770 1.256 . S
O785 Gd760 2.717 . S
O785 Gd761 2.327 . S
O785 C770 1.257 . S
O786 Gd761 2.377 . S
O786 C771 1.240 . S
O787 Gd760 2.395 . S
O787 C771 1.240 . S
O788 Gd761 2.448 . S
O788 C772 1.249 . S
O789 Gd761 2.506 . S
O789 C772 1.252 . S
O790 Gd761 2.435 . S
O790 C779 1.256 . S
O791 Gd760 2.327 . S
O791 Gd761 2.717 . S
O791 C779 1.257 . S
H792 C765 0.930 . S
H793 C766 0.931 . S
H794 C768 0.931 . S
H795 C769 0.931 . S
H796 C774 0.930 . S
H797 C775 0.931 . S
H798 C777 0.931 . S
H799 C778 0.931 . S
Gd800 C803 2.818 . S
Gd800 O820 2.377 . S
Gd800 O822 2.448 . S
Gd800 O823 2.506 . S
Gd800 O824 2.435 . S
Gd800 O825 2.717 . S
Gd800 O827 2.395 . S
Gd800 O831 2.327 . S
Gd801 C812 2.818 . S
Gd801 O821 2.395 . S
Gd801 O825 2.327 . S
Gd801 O826 2.377 . S
Gd801 O828 2.448 . S
Gd801 O829 2.506 . S
Gd801 O830 2.435 . S
Gd801 O831 2.717 . S
C802 O820 1.240 . S
C802 O821 1.240 . S
C803 Gd800 2.818 . S
C803 C804 1.510 . S
C803 O822 1.249 . S
C803 O823 1.252 . S
C804 C803 1.510 . S
C804 C805 1.404 . S
C804 C806 1.352 . S
C805 C804 1.404 . S
C805 C809 1.389 . S
C805 H832 0.930 . S
C806 C804 1.352 . S
C806 C808 1.374 . S
C806 H833 0.931 . S
C807 C808 1.359 . S
C807 C809 1.364 . S
C808 C806 1.374 . S
C808 C807 1.359 . S
C808 H834 0.931 . S
C809 C805 1.389 . S
C809 C807 1.364 . S
C809 H835 0.931 . S
C810 O824 1.256 . S
C810 O825 1.257 . S
C811 O826 1.240 . S
C811 O827 1.240 . S
C812 Gd801 2.818 . S
C812 C813 1.510 . S
C812 O828 1.249 . S
C812 O829 1.252 . S
C813 C812 1.510 . S
C813 C814 1.404 . S
C813 C815 1.352 . S
C814 C813 1.404 . S
C814 C818 1.389 . S
C814 H836 0.930 . S
C815 C813 1.352 . S
C815 C817 1.374 . S
C815 H837 0.931 . S
C816 C817 1.359 . S
C816 C818 1.364 . S
C817 C815 1.374 . S
C817 C816 1.359 . S
C817 H838 0.931 . S
C818 C814 1.389 . S
C818 C816 1.364 . S
C818 H839 0.931 . S
C819 O830 1.256 . S
C819 O831 1.257 . S
O820 Gd800 2.377 . S
O820 C802 1.240 . S
O821 Gd801 2.395 . S
O821 C802 1.240 . S
O822 Gd800 2.448 . S
O822 C803 1.249 . S
O823 Gd800 2.506 . S
O823 C803 1.252 . S
O824 Gd800 2.435 . S
O824 C810 1.256 . S
O825 Gd800 2.717 . S
O825 Gd801 2.327 . S
O825 C810 1.257 . S
O826 Gd801 2.377 . S
O826 C811 1.240 . S
O827 Gd800 2.395 . S
O827 C811 1.240 . S
O828 Gd801 2.448 . S
O828 C812 1.249 . S
O829 Gd801 2.506 . S
O829 C812 1.252 . S
O830 Gd801 2.435 . S
O830 C819 1.256 . S
O831 Gd800 2.327 . S
O831 Gd801 2.717 . S
O831 C819 1.257 . S
H832 C805 0.930 . S
H833 C806 0.931 . S
H834 C808 0.931 . S
H835 C809 0.931 . S
H836 C814 0.930 . S
H837 C815 0.931 . S
H838 C817 0.931 . S
H839 C818 0.931 . S
Gd840 C843 2.818 . S
Gd840 O860 2.377 . S
Gd840 O862 2.448 . S
Gd840 O863 2.506 . S
Gd840 O864 2.435 . S
Gd840 O865 2.717 . S
Gd840 O867 2.395 . S
Gd840 O871 2.327 . S
Gd841 C852 2.818 . S
Gd841 O861 2.395 . S
Gd841 O865 2.327 . S
Gd841 O866 2.377 . S
Gd841 O868 2.448 . S
Gd841 O869 2.506 . S
Gd841 O870 2.435 . S
Gd841 O871 2.717 . S
C842 O860 1.240 . S
C842 O861 1.240 . S
C843 Gd840 2.818 . S
C843 C844 1.510 . S
C843 O862 1.249 . S
C843 O863 1.252 . S
C844 C843 1.510 . S
C844 C845 1.404 . S
C844 C846 1.352 . S
C845 C844 1.404 . S
C845 C849 1.389 . S
C845 H872 0.930 . S
C846 C844 1.352 . S
C846 C848 1.374 . S
C846 H873 0.931 . S
C847 C848 1.359 . S
C847 C849 1.364 . S
C848 C846 1.374 . S
C848 C847 1.359 . S
C848 H874 0.931 . S
C849 C845 1.389 . S
C849 C847 1.364 . S
C849 H875 0.931 . S
C850 O864 1.256 . S
C850 O865 1.257 . S
C851 O866 1.240 . S
C851 O867 1.240 . S
C852 Gd841 2.818 . S
C852 C853 1.510 . S
C852 O868 1.249 . S
C852 O869 1.252 . S
C853 C852 1.510 . S
C853 C854 1.404 . S
C853 C855 1.352 . S
C854 C853 1.404 . S
C854 C858 1.389 . S
C854 H876 0.930 . S
C855 C853 1.352 . S
C855 C857 1.374 . S
C855 H877 0.931 . S
C856 C857 1.359 . S
C856 C858 1.364 . S
C857 C855 1.374 . S
C857 C856 1.359 . S
C857 H878 0.931 . S
C858 C854 1.389 . S
C858 C856 1.364 . S
C858 H879 0.931 . S
C859 O870 1.256 . S
C859 O871 1.257 . S
O860 Gd840 2.377 . S
O860 C842 1.240 . S
O861 Gd841 2.395 . S
O861 C842 1.240 . S
O862 Gd840 2.448 . S
O862 C843 1.249 . S
O863 Gd840 2.506 . S
O863 C843 1.252 . S
O864 Gd840 2.435 . S
O864 C850 1.256 . S
O865 Gd840 2.717 . S
O865 Gd841 2.327 . S
O865 C850 1.257 . S
O866 Gd841 2.377 . S
O866 C851 1.240 . S
O867 Gd840 2.395 . S
O867 C851 1.240 . S
O868 Gd841 2.448 . S
O868 C852 1.249 . S
O869 Gd841 2.506 . S
O869 C852 1.252 . S
O870 Gd841 2.435 . S
O870 C859 1.256 . S
O871 Gd840 2.327 . S
O871 Gd841 2.717 . S
O871 C859 1.257 . S
H872 C845 0.930 . S
H873 C846 0.931 . S
H874 C848 0.931 . S
H875 C849 0.931 . S
H876 C854 0.930 . S
H877 C855 0.931 . S
H878 C857 0.931 . S
H879 C858 0.931 . S
Gd880 C883 2.818 . S
Gd880 O900 2.377 . S
Gd880 O902 2.448 . S
Gd880 O903 2.506 . S
Gd880 O904 2.435 . S
Gd880 O905 2.717 . S
Gd880 O907 2.395 . S
Gd880 O911 2.327 . S
Gd881 C892 2.818 . S
Gd881 O901 2.395 . S
Gd881 O905 2.327 . S
Gd881 O906 2.377 . S
Gd881 O908 2.448 . S
Gd881 O909 2.506 . S
Gd881 O910 2.435 . S
Gd881 O911 2.717 . S
C882 O900 1.240 . S
C882 O901 1.240 . S
C883 Gd880 2.818 . S
C883 C884 1.510 . S
C883 O902 1.249 . S
C883 O903 1.252 . S
C884 C883 1.510 . S
C884 C885 1.404 . S
C884 C886 1.352 . S
C885 C884 1.404 . S
C885 C889 1.389 . S
C885 H912 0.930 . S
C886 C884 1.352 . S
C886 C888 1.374 . S
C886 H913 0.931 . S
C887 C888 1.359 . S
C887 C889 1.364 . S
C888 C886 1.374 . S
C888 C887 1.359 . S
C888 H914 0.931 . S
C889 C885 1.389 . S
C889 C887 1.364 . S
C889 H915 0.931 . S
C890 O904 1.256 . S
C890 O905 1.257 . S
C891 O906 1.240 . S
C891 O907 1.240 . S
C892 Gd881 2.818 . S
C892 C893 1.510 . S
C892 O908 1.249 . S
C892 O909 1.252 . S
C893 C892 1.510 . S
C893 C894 1.404 . S
C893 C895 1.352 . S
C894 C893 1.404 . S
C894 C898 1.389 . S
C894 H916 0.930 . S
C895 C893 1.352 . S
C895 C897 1.374 . S
C895 H917 0.931 . S
C896 C897 1.359 . S
C896 C898 1.364 . S
C897 C895 1.374 . S
C897 C896 1.359 . S
C897 H918 0.931 . S
C898 C894 1.389 . S
C898 C896 1.364 . S
C898 H919 0.931 . S
C899 O910 1.256 . S
C899 O911 1.257 . S
O900 Gd880 2.377 . S
O900 C882 1.240 . S
O901 Gd881 2.395 . S
O901 C882 1.240 . S
O902 Gd880 2.448 . S
O902 C883 1.249 . S
O903 Gd880 2.506 . S
O903 C883 1.252 . S
O904 Gd880 2.435 . S
O904 C890 1.256 . S
O905 Gd880 2.717 . S
O905 Gd881 2.327 . S
O905 C890 1.257 . S
O906 Gd881 2.377 . S
O906 C891 1.240 . S
O907 Gd880 2.395 . S
O907 C891 1.240 . S
O908 Gd881 2.448 . S
O908 C892 1.249 . S
O909 Gd881 2.506 . S
O909 C892 1.252 . S
O910 Gd881 2.435 . S
O910 C899 1.256 . S
O911 Gd880 2.327 . S
O911 Gd881 2.717 . S
O911 C899 1.257 . S
H912 C885 0.930 . S
H913 C886 0.931 . S
H914 C888 0.931 . S
H915 C889 0.931 . S
H916 C894 0.930 . S
H917 C895 0.931 . S
H918 C897 0.931 . S
H919 C898 0.931 . S
Gd920 C923 2.818 . S
Gd920 O940 2.377 . S
Gd920 O942 2.448 . S
Gd920 O943 2.506 . S
Gd920 O944 2.435 . S
Gd920 O945 2.717 . S
Gd920 O947 2.395 . S
Gd920 O951 2.327 . S
Gd921 C932 2.818 . S
Gd921 O941 2.395 . S
Gd921 O945 2.327 . S
Gd921 O946 2.377 . S
Gd921 O948 2.448 . S
Gd921 O949 2.506 . S
Gd921 O950 2.435 . S
Gd921 O951 2.717 . S
C922 O940 1.240 . S
C922 O941 1.240 . S
C923 Gd920 2.818 . S
C923 C924 1.510 . S
C923 O942 1.249 . S
C923 O943 1.252 . S
C924 C923 1.510 . S
C924 C925 1.404 . S
C924 C926 1.352 . S
C925 C924 1.404 . S
C925 C929 1.389 . S
C925 H952 0.930 . S
C926 C924 1.352 . S
C926 C928 1.374 . S
C926 H953 0.931 . S
C927 C928 1.359 . S
C927 C929 1.364 . S
C928 C926 1.374 . S
C928 C927 1.359 . S
C928 H954 0.931 . S
C929 C925 1.389 . S
C929 C927 1.364 . S
C929 H955 0.931 . S
C930 O944 1.256 . S
C930 O945 1.257 . S
C931 O946 1.240 . S
C931 O947 1.240 . S
C932 Gd921 2.818 . S
C932 C933 1.510 . S
C932 O948 1.249 . S
C932 O949 1.252 . S
C933 C932 1.510 . S
C933 C934 1.404 . S
C933 C935 1.352 . S
C934 C933 1.404 . S
C934 C938 1.389 . S
C934 H956 0.930 . S
C935 C933 1.352 . S
C935 C937 1.374 . S
C935 H957 0.931 . S
C936 C937 1.359 . S
C936 C938 1.364 . S
C937 C935 1.374 . S
C937 C936 1.359 . S
C937 H958 0.931 . S
C938 C934 1.389 . S
C938 C936 1.364 . S
C938 H959 0.931 . S
C939 O950 1.256 . S
C939 O951 1.257 . S
O940 Gd920 2.377 . S
O940 C922 1.240 . S
O941 Gd921 2.395 . S
O941 C922 1.240 . S
O942 Gd920 2.448 . S
O942 C923 1.249 . S
O943 Gd920 2.506 . S
O943 C923 1.252 . S
O944 Gd920 2.435 . S
O944 C930 1.256 . S
O945 Gd920 2.717 . S
O945 Gd921 2.327 . S
O945 C930 1.257 . S
O946 Gd921 2.377 . S
O946 C931 1.240 . S
O947 Gd920 2.395 . S
O947 C931 1.240 . S
O948 Gd921 2.448 . S
O948 C932 1.249 . S
O949 Gd921 2.506 . S
O949 C932 1.252 . S
O950 Gd921 2.435 . S
O950 C939 1.256 . S
O951 Gd920 2.327 . S
O951 Gd921 2.717 . S
O951 C939 1.257 . S
H952 C925 0.930 . S
H953 C926 0.931 . S
H954 C928 0.931 . S
H955 C929 0.931 . S
H956 C934 0.930 . S
H957 C935 0.931 . S
H958 C937 0.931 . S
H959 C938 0.931 . S
Gd960 C963 2.814 1_545 S
Gd960 O980 2.377 1_545 S
Gd960 O982 2.448 . S
Gd960 O983 2.506 1_545 S
Gd960 O984 2.435 . S
Gd960 O985 2.717 1_545 S
Gd960 O987 2.395 . S
Gd960 O991 2.327 1_545 S
Gd961 C972 2.818 . S
Gd961 O981 2.395 . S
Gd961 O985 2.327 . S
Gd961 O986 2.377 1_565 S
Gd961 O988 2.448 . S
Gd961 O989 2.506 . S
Gd961 O990 2.435 . S
Gd961 O991 2.717 . S
C962 O980 1.240 . S
C962 O981 1.240 . S
C963 Gd960 2.814 1_565 S
C963 C964 1.515 . S
C963 O982 1.244 1_565 S
C963 O983 1.252 . S
C964 C963 1.515 . S
C964 C965 1.404 . S
C964 C966 1.352 . S
C965 C964 1.404 . S
C965 C969 1.389 . S
C965 H992 0.930 1_565 S
C966 C964 1.352 . S
C966 C968 1.374 . S
C966 H993 0.931 . S
C967 C968 1.359 . S
C967 C969 1.364 . S
C968 C966 1.374 . S
C968 C967 1.359 . S
C968 H994 0.931 . S
C969 C965 1.389 . S
C969 C967 1.364 . S
C969 H995 0.931 . S
C970 O984 1.256 1_565 S
C970 O985 1.257 . S
C971 O986 1.240 . S
C971 O987 1.240 . S
C972 Gd961 2.818 . S
C972 C973 1.523 . S
C972 O988 1.249 . S
C972 O989 1.252 . S
C973 C972 1.523 . S
C973 C974 1.412 . S
C973 C975 1.335 1_565 S
C974 C973 1.412 . S
C974 C978 1.389 1_565 S
C974 H996 0.930 . S
C975 C973 1.335 1_545 S
C975 C977 1.374 . S
C975 H997 0.931 . S
C976 C977 1.359 . S
C976 C978 1.364 . S
C977 C975 1.374 . S
C977 C976 1.359 . S
C977 H998 0.931 . S
C978 C974 1.389 1_545 S
C978 C976 1.364 . S
C978 H999 0.926 1_545 S
C979 O990 1.256 . S
C979 O991 1.257 . S
O980 Gd960 2.377 1_565 S
O980 C962 1.240 . S
O981 Gd961 2.395 . S
O981 C962 1.240 . S
O982 Gd960 2.448 . S
O982 C963 1.244 1_545 S
O983 Gd960 2.506 1_565 S
O983 C963 1.252 . S
O984 Gd960 2.435 . S
O984 C970 1.256 1_545 S
O985 Gd960 2.717 1_565 S
O985 Gd961 2.327 . S
O985 C970 1.257 . S
O986 Gd961 2.377 1_545 S
O986 C971 1.240 . S
O987 Gd960 2.395 . S
O987 C971 1.240 . S
O988 Gd961 2.448 . S
O988 C972 1.249 . S
O989 Gd961 2.506 . S
O989 C972 1.252 . S
O990 Gd961 2.435 . S
O990 C979 1.256 . S
O991 Gd960 2.327 1_565 S
O991 Gd961 2.717 . S
O991 C979 1.257 . S
H992 C965 0.930 1_545 S
H993 C966 0.931 . S
H994 C968 0.931 . S
H995 C969 0.931 . S
H996 C974 0.930 . S
H997 C975 0.931 . S
H998 C977 0.931 . S
H999 C978 0.926 1_565 S
Gd1000 C1003 2.818 . S
Gd1000 O1020 2.377 . S
Gd1000 O1022 2.448 . S
Gd1000 O1023 2.506 . S
Gd1000 O1024 2.435 . S
Gd1000 O1025 2.717 . S
Gd1000 O1027 2.395 . S
Gd1000 O1031 2.327 . S
Gd1001 C1012 2.818 . S
Gd1001 O1021 2.395 . S
Gd1001 O1025 2.327 . S
Gd1001 O1026 2.377 . S
Gd1001 O1028 2.448 . S
Gd1001 O1029 2.506 . S
Gd1001 O1030 2.435 . S
Gd1001 O1031 2.717 . S
C1002 O1020 1.240 . S
C1002 O1021 1.240 . S
C1003 Gd1000 2.818 . S
C1003 C1004 1.510 . S
C1003 O1022 1.249 . S
C1003 O1023 1.252 . S
C1004 C1003 1.510 . S
C1004 C1005 1.404 . S
C1004 C1006 1.352 . S
C1005 C1004 1.404 . S
C1005 C1009 1.389 . S
C1005 H1032 0.930 . S
C1006 C1004 1.352 . S
C1006 C1008 1.374 . S
C1006 H1033 0.931 . S
C1007 C1008 1.359 . S
C1007 C1009 1.364 . S
C1008 C1006 1.374 . S
C1008 C1007 1.359 . S
C1008 H1034 0.931 . S
C1009 C1005 1.389 . S
C1009 C1007 1.364 . S
C1009 H1035 0.931 . S
C1010 O1024 1.256 . S
C1010 O1025 1.257 . S
C1011 O1026 1.240 . S
C1011 O1027 1.240 . S
C1012 Gd1001 2.818 . S
C1012 C1013 1.510 . S
C1012 O1028 1.249 . S
C1012 O1029 1.252 . S
C1013 C1012 1.510 . S
C1013 C1014 1.404 . S
C1013 C1015 1.352 . S
C1014 C1013 1.404 . S
C1014 C1018 1.389 . S
C1014 H1036 0.930 . S
C1015 C1013 1.352 . S
C1015 C1017 1.374 . S
C1015 H1037 0.931 . S
C1016 C1017 1.359 . S
C1016 C1018 1.364 . S
C1017 C1015 1.374 . S
C1017 C1016 1.359 . S
C1017 H1038 0.931 . S
C1018 C1014 1.389 . S
C1018 C1016 1.364 . S
C1018 H1039 0.931 . S
C1019 O1030 1.256 . S
C1019 O1031 1.257 . S
O1020 Gd1000 2.377 . S
O1020 C1002 1.240 . S
O1021 Gd1001 2.395 . S
O1021 C1002 1.240 . S
O1022 Gd1000 2.448 . S
O1022 C1003 1.249 . S
O1023 Gd1000 2.506 . S
O1023 C1003 1.252 . S
O1024 Gd1000 2.435 . S
O1024 C1010 1.256 . S
O1025 Gd1000 2.717 . S
O1025 Gd1001 2.327 . S
O1025 C1010 1.257 . S
O1026 Gd1001 2.377 . S
O1026 C1011 1.240 . S
O1027 Gd1000 2.395 . S
O1027 C1011 1.240 . S
O1028 Gd1001 2.448 . S
O1028 C1012 1.249 . S
O1029 Gd1001 2.506 . S
O1029 C1012 1.252 . S
O1030 Gd1001 2.435 . S
O1030 C1019 1.256 . S
O1031 Gd1000 2.327 . S
O1031 Gd1001 2.717 . S
O1031 C1019 1.257 . S
H1032 C1005 0.930 . S
H1033 C1006 0.931 . S
H1034 C1008 0.931 . S
H1035 C1009 0.931 . S
H1036 C1014 0.930 . S
H1037 C1015 0.931 . S
H1038 C1017 0.931 . S
H1039 C1018 0.931 . S
Gd1040 C1043 2.818 . S
Gd1040 O1060 2.377 . S
Gd1040 O1062 2.448 . S
Gd1040 O1063 2.506 . S
Gd1040 O1064 2.435 . S
Gd1040 O1065 2.717 . S
Gd1040 O1067 2.395 . S
Gd1040 O1071 2.327 . S
Gd1041 C1052 2.818 . S
Gd1041 O1061 2.395 . S
Gd1041 O1065 2.327 . S
Gd1041 O1066 2.377 . S
Gd1041 O1068 2.448 . S
Gd1041 O1069 2.506 . S
Gd1041 O1070 2.435 . S
Gd1041 O1071 2.717 . S
C1042 O1060 1.240 . S
C1042 O1061 1.240 . S
C1043 Gd1040 2.818 . S
C1043 C1044 1.510 . S
C1043 O1062 1.249 . S
C1043 O1063 1.252 . S
C1044 C1043 1.510 . S
C1044 C1045 1.404 . S
C1044 C1046 1.352 . S
C1045 C1044 1.404 . S
C1045 C1049 1.389 . S
C1045 H1072 0.930 . S
C1046 C1044 1.352 . S
C1046 C1048 1.374 . S
C1046 H1073 0.931 . S
C1047 C1048 1.359 . S
C1047 C1049 1.364 . S
C1048 C1046 1.374 . S
C1048 C1047 1.359 . S
C1048 H1074 0.931 . S
C1049 C1045 1.389 . S
C1049 C1047 1.364 . S
C1049 H1075 0.931 . S
C1050 O1064 1.256 . S
C1050 O1065 1.257 . S
C1051 O1066 1.240 . S
C1051 O1067 1.240 . S
C1052 Gd1041 2.818 . S
C1052 C1053 1.510 . S
C1052 O1068 1.249 . S
C1052 O1069 1.252 . S
C1053 C1052 1.510 . S
C1053 C1054 1.404 . S
C1053 C1055 1.352 . S
C1054 C1053 1.404 . S
C1054 C1058 1.389 . S
C1054 H1076 0.930 . S
C1055 C1053 1.352 . S
C1055 C1057 1.374 . S
C1055 H1077 0.931 . S
C1056 C1057 1.359 . S
C1056 C1058 1.364 . S
C1057 C1055 1.374 . S
C1057 C1056 1.359 . S
C1057 H1078 0.931 . S
C1058 C1054 1.389 . S
C1058 C1056 1.364 . S
C1058 H1079 0.931 . S
C1059 O1070 1.256 . S
C1059 O1071 1.257 . S
O1060 Gd1040 2.377 . S
O1060 C1042 1.240 . S
O1061 Gd1041 2.395 . S
O1061 C1042 1.240 . S
O1062 Gd1040 2.448 . S
O1062 C1043 1.249 . S
O1063 Gd1040 2.506 . S
O1063 C1043 1.252 . S
O1064 Gd1040 2.435 . S
O1064 C1050 1.256 . S
O1065 Gd1040 2.717 . S
O1065 Gd1041 2.327 . S
O1065 C1050 1.257 . S
O1066 Gd1041 2.377 . S
O1066 C1051 1.240 . S
O1067 Gd1040 2.395 . S
O1067 C1051 1.240 . S
O1068 Gd1041 2.448 . S
O1068 C1052 1.249 . S
O1069 Gd1041 2.506 . S
O1069 C1052 1.252 . S
O1070 Gd1041 2.435 . S
O1070 C1059 1.256 . S
O1071 Gd1040 2.327 . S
O1071 Gd1041 2.717 . S
O1071 C1059 1.257 . S
H1072 C1045 0.930 . S
H1073 C1046 0.931 . S
H1074 C1048 0.931 . S
H1075 C1049 0.931 . S
H1076 C1054 0.930 . S
H1077 C1055 0.931 . S
H1078 C1057 0.931 . S
H1079 C1058 0.931 . S
Gd1080 C1083 2.814 1_545 S
Gd1080 O1100 2.377 1_545 S
Gd1080 O1102 2.448 . S
Gd1080 O1103 2.506 1_545 S
Gd1080 O1104 2.435 . S
Gd1080 O1105 2.717 1_545 S
Gd1080 O1107 2.395 . S
Gd1080 O1111 2.327 1_545 S
Gd1081 C1092 2.818 . S
Gd1081 O1101 2.395 . S
Gd1081 O1105 2.327 . S
Gd1081 O1106 2.377 1_565 S
Gd1081 O1108 2.448 . S
Gd1081 O1109 2.506 . S
Gd1081 O1110 2.435 . S
Gd1081 O1111 2.717 . S
C1082 O1100 1.240 . S
C1082 O1101 1.240 . S
C1083 Gd1080 2.814 1_565 S
C1083 C1084 1.515 . S
C1083 O1102 1.244 1_565 S
C1083 O1103 1.252 . S
C1084 C1083 1.515 . S
C1084 C1085 1.404 . S
C1084 C1086 1.352 . S
C1085 C1084 1.404 . S
C1085 C1089 1.389 . S
C1085 H1112 0.930 1_565 S
C1086 C1084 1.352 . S
C1086 C1088 1.374 . S
C1086 H1113 0.931 . S
C1087 C1088 1.359 . S
C1087 C1089 1.364 . S
C1088 C1086 1.374 . S
C1088 C1087 1.359 . S
C1088 H1114 0.931 . S
C1089 C1085 1.389 . S
C1089 C1087 1.364 . S
C1089 H1115 0.931 . S
C1090 O1104 1.256 1_565 S
C1090 O1105 1.257 . S
C1091 O1106 1.240 . S
C1091 O1107 1.240 . S
C1092 Gd1081 2.818 . S
C1092 C1093 1.523 . S
C1092 O1108 1.249 . S
C1092 O1109 1.252 . S
C1093 C1092 1.523 . S
C1093 C1094 1.412 . S
C1093 C1095 1.335 1_565 S
C1094 C1093 1.412 . S
C1094 C1098 1.389 1_565 S
C1094 H1116 0.930 . S
C1095 C1093 1.335 1_545 S
C1095 C1097 1.374 . S
C1095 H1117 0.931 . S
C1096 C1097 1.359 . S
C1096 C1098 1.364 . S
C1097 C1095 1.374 . S
C1097 C1096 1.359 . S
C1097 H1118 0.931 . S
C1098 C1094 1.389 1_545 S
C1098 C1096 1.364 . S
C1098 H1119 0.926 1_545 S
C1099 O1110 1.256 . S
C1099 O1111 1.257 . S
O1100 Gd1080 2.377 1_565 S
O1100 C1082 1.240 . S
O1101 Gd1081 2.395 . S
O1101 C1082 1.240 . S
O1102 Gd1080 2.448 . S
O1102 C1083 1.244 1_545 S
O1103 Gd1080 2.506 1_565 S
O1103 C1083 1.252 . S
O1104 Gd1080 2.435 . S
O1104 C1090 1.256 1_545 S
O1105 Gd1080 2.717 1_565 S
O1105 Gd1081 2.327 . S
O1105 C1090 1.257 . S
O1106 Gd1081 2.377 1_545 S
O1106 C1091 1.240 . S
O1107 Gd1080 2.395 . S
O1107 C1091 1.240 . S
O1108 Gd1081 2.448 . S
O1108 C1092 1.249 . S
O1109 Gd1081 2.506 . S
O1109 C1092 1.252 . S
O1110 Gd1081 2.435 . S
O1110 C1099 1.256 . S
O1111 Gd1080 2.327 1_565 S
O1111 Gd1081 2.717 . S
O1111 C1099 1.257 . S
H1112 C1085 0.930 1_545 S
H1113 C1086 0.931 . S
H1114 C1088 0.931 . S
H1115 C1089 0.931 . S
H1116 C1094 0.930 . S
H1117 C1095 0.931 . S
H1118 C1097 0.931 . S
H1119 C1098 0.926 1_565 S
Gd1120 C1123 2.818 . S
Gd1120 O1140 2.377 1_545 S
Gd1120 O1142 2.448 . S
Gd1120 O1143 2.506 . S
Gd1120 O1144 2.435 . S
Gd1120 O1145 2.717 . S
Gd1120 O1147 2.395 . S
Gd1120 O1151 2.327 . S
Gd1121 C1132 2.814 1_565 S
Gd1121 O1141 2.395 . S
Gd1121 O1145 2.327 1_565 S
Gd1121 O1146 2.377 1_565 S
Gd1121 O1148 2.448 . S
Gd1121 O1149 2.506 1_565 S
Gd1121 O1150 2.435 . S
Gd1121 O1151 2.717 1_565 S
C1122 O1140 1.240 . S
C1122 O1141 1.240 . S
C1123 Gd1120 2.818 . S
C1123 C1124 1.523 . S
C1123 O1142 1.249 . S
C1123 O1143 1.252 . S
C1124 C1123 1.523 . S
C1124 C1125 1.412 . S
C1124 C1126 1.335 1_545 S
C1125 C1124 1.412 . S
C1125 C1129 1.389 1_545 S
C1125 H1152 0.930 . S
C1126 C1124 1.335 1_565 S
C1126 C1128 1.374 . S
C1126 H1153 0.931 . S
C1127 C1128 1.359 . S
C1127 C1129 1.364 . S
C1128 C1126 1.374 . S
C1128 C1127 1.359 . S
C1128 H1154 0.931 . S
C1129 C1125 1.389 1_565 S
C1129 C1127 1.364 . S
C1129 H1155 0.926 1_565 S
C1130 O1144 1.256 . S
C1130 O1145 1.257 . S
C1131 O1146 1.240 . S
C1131 O1147 1.240 . S
C1132 Gd1121 2.814 1_545 S
C1132 C1133 1.515 . S
C1132 O1148 1.244 1_545 S
C1132 O1149 1.252 . S
C1133 C1132 1.515 . S
C1133 C1134 1.404 . S
C1133 C1135 1.352 . S
C1134 C1133 1.404 . S
C1134 C1138 1.389 . S
C1134 H1156 0.930 1_545 S
C1135 C1133 1.352 . S
C1135 C1137 1.374 . S
C1135 H1157 0.931 . S
C1136 C1137 1.359 . S
C1136 C1138 1.364 . S
C1137 C1135 1.374 . S
C1137 C1136 1.359 . S
C1137 H1158 0.931 . S
C1138 C1134 1.389 . S
C1138 C1136 1.364 . S
C1138 H1159 0.931 . S
C1139 O1150 1.256 1_545 S
C1139 O1151 1.257 . S
O1140 Gd1120 2.377 1_565 S
O1140 C1122 1.240 . S
O1141 Gd1121 2.395 . S
O1141 C1122 1.240 . S
O1142 Gd1120 2.448 . S
O1142 C1123 1.249 . S
O1143 Gd1120 2.506 . S
O1143 C1123 1.252 . S
O1144 Gd1120 2.435 . S
O1144 C1130 1.256 . S
O1145 Gd1120 2.717 . S
O1145 Gd1121 2.327 1_545 S
O1145 C1130 1.257 . S
O1146 Gd1121 2.377 1_545 S
O1146 C1131 1.240 . S
O1147 Gd1120 2.395 . S
O1147 C1131 1.240 . S
O1148 Gd1121 2.448 . S
O1148 C1132 1.244 1_565 S
O1149 Gd1121 2.506 1_545 S
O1149 C1132 1.252 . S
O1150 Gd1121 2.435 . S
O1150 C1139 1.256 1_565 S
O1151 Gd1120 2.327 . S
O1151 Gd1121 2.717 1_545 S
O1151 C1139 1.257 . S
H1152 C1125 0.930 . S
H1153 C1126 0.931 . S
H1154 C1128 0.931 . S
H1155 C1129 0.926 1_545 S
H1156 C1134 0.930 1_565 S
H1157 C1135 0.931 . S
H1158 C1137 0.931 . S
H1159 C1138 0.931 . S
Gd1160 C1163 2.818 . S
Gd1160 O1180 2.377 . S
Gd1160 O1182 2.448 . S
Gd1160 O1183 2.506 . S
Gd1160 O1184 2.435 . S
Gd1160 O1185 2.717 . S
Gd1160 O1187 2.395 . S
Gd1160 O1191 2.327 . S
Gd1161 C1172 2.818 . S
Gd1161 O1181 2.395 . S
Gd1161 O1185 2.327 . S
Gd1161 O1186 2.377 . S
Gd1161 O1188 2.448 . S
Gd1161 O1189 2.506 . S
Gd1161 O1190 2.435 . S
Gd1161 O1191 2.717 . S
C1162 O1180 1.240 . S
C1162 O1181 1.240 . S
C1163 Gd1160 2.818 . S
C1163 C1164 1.510 . S
C1163 O1182 1.249 . S
C1163 O1183 1.252 . S
C1164 C1163 1.510 . S
C1164 C1165 1.404 . S
C1164 C1166 1.352 . S
C1165 C1164 1.404 . S
C1165 C1169 1.389 . S
C1165 H1192 0.930 . S
C1166 C1164 1.352 . S
C1166 C1168 1.374 . S
C1166 H1193 0.931 . S
C1167 C1168 1.359 . S
C1167 C1169 1.364 . S
C1168 C1166 1.374 . S
C1168 C1167 1.359 . S
C1168 H1194 0.931 . S
C1169 C1165 1.389 . S
C1169 C1167 1.364 . S
C1169 H1195 0.931 . S
C1170 O1184 1.256 . S
C1170 O1185 1.257 . S
C1171 O1186 1.240 . S
C1171 O1187 1.240 . S
C1172 Gd1161 2.818 . S
C1172 C1173 1.510 . S
C1172 O1188 1.249 . S
C1172 O1189 1.252 . S
C1173 C1172 1.510 . S
C1173 C1174 1.404 . S
C1173 C1175 1.352 . S
C1174 C1173 1.404 . S
C1174 C1178 1.389 . S
C1174 H1196 0.930 . S
C1175 C1173 1.352 . S
C1175 C1177 1.374 . S
C1175 H1197 0.931 . S
C1176 C1177 1.359 . S
C1176 C1178 1.364 . S
C1177 C1175 1.374 . S
C1177 C1176 1.359 . S
C1177 H1198 0.931 . S
C1178 C1174 1.389 . S
C1178 C1176 1.364 . S
C1178 H1199 0.931 . S
C1179 O1190 1.256 . S
C1179 O1191 1.257 . S
O1180 Gd1160 2.377 . S
O1180 C1162 1.240 . S
O1181 Gd1161 2.395 . S
O1181 C1162 1.240 . S
O1182 Gd1160 2.448 . S
O1182 C1163 1.249 . S
O1183 Gd1160 2.506 . S
O1183 C1163 1.252 . S
O1184 Gd1160 2.435 . S
O1184 C1170 1.256 . S
O1185 Gd1160 2.717 . S
O1185 Gd1161 2.327 . S
O1185 C1170 1.257 . S
O1186 Gd1161 2.377 . S
O1186 C1171 1.240 . S
O1187 Gd1160 2.395 . S
O1187 C1171 1.240 . S
O1188 Gd1161 2.448 . S
O1188 C1172 1.249 . S
O1189 Gd1161 2.506 . S
O1189 C1172 1.252 . S
O1190 Gd1161 2.435 . S
O1190 C1179 1.256 . S
O1191 Gd1160 2.327 . S
O1191 Gd1161 2.717 . S
O1191 C1179 1.257 . S
H1192 C1165 0.930 . S
H1193 C1166 0.931 . S
H1194 C1168 0.931 . S
H1195 C1169 0.931 . S
H1196 C1174 0.930 . S
H1197 C1175 0.931 . S
H1198 C1177 0.931 . S
H1199 C1178 0.931 . S
Gd1200 C1203 2.818 . S
Gd1200 O1220 2.377 . S
Gd1200 O1222 2.448 . S
Gd1200 O1223 2.506 . S
Gd1200 O1224 2.435 . S
Gd1200 O1225 2.717 . S
Gd1200 O1227 2.395 . S
Gd1200 O1231 2.327 . S
Gd1201 C1212 2.818 . S
Gd1201 O1221 2.395 . S
Gd1201 O1225 2.327 . S
Gd1201 O1226 2.377 . S
Gd1201 O1228 2.448 . S
Gd1201 O1229 2.506 . S
Gd1201 O1230 2.435 . S
Gd1201 O1231 2.717 . S
C1202 O1220 1.240 . S
C1202 O1221 1.240 . S
C1203 Gd1200 2.818 . S
C1203 C1204 1.510 . S
C1203 O1222 1.249 . S
C1203 O1223 1.252 . S
C1204 C1203 1.510 . S
C1204 C1205 1.404 . S
C1204 C1206 1.352 . S
C1205 C1204 1.404 . S
C1205 C1209 1.389 . S
C1205 H1232 0.930 . S
C1206 C1204 1.352 . S
C1206 C1208 1.374 . S
C1206 H1233 0.931 . S
C1207 C1208 1.359 . S
C1207 C1209 1.364 . S
C1208 C1206 1.374 . S
C1208 C1207 1.359 . S
C1208 H1234 0.931 . S
C1209 C1205 1.389 . S
C1209 C1207 1.364 . S
C1209 H1235 0.931 . S
C1210 O1224 1.256 . S
C1210 O1225 1.257 . S
C1211 O1226 1.240 . S
C1211 O1227 1.240 . S
C1212 Gd1201 2.818 . S
C1212 C1213 1.510 . S
C1212 O1228 1.249 . S
C1212 O1229 1.252 . S
C1213 C1212 1.510 . S
C1213 C1214 1.404 . S
C1213 C1215 1.352 . S
C1214 C1213 1.404 . S
C1214 C1218 1.389 . S
C1214 H1236 0.930 . S
C1215 C1213 1.352 . S
C1215 C1217 1.374 . S
C1215 H1237 0.931 . S
C1216 C1217 1.359 . S
C1216 C1218 1.364 . S
C1217 C1215 1.374 . S
C1217 C1216 1.359 . S
C1217 H1238 0.931 . S
C1218 C1214 1.389 . S
C1218 C1216 1.364 . S
C1218 H1239 0.931 . S
C1219 O1230 1.256 . S
C1219 O1231 1.257 . S
O1220 Gd1200 2.377 . S
O1220 C1202 1.240 . S
O1221 Gd1201 2.395 . S
O1221 C1202 1.240 . S
O1222 Gd1200 2.448 . S
O1222 C1203 1.249 . S
O1223 Gd1200 2.506 . S
O1223 C1203 1.252 . S
O1224 Gd1200 2.435 . S
O1224 C1210 1.256 . S
O1225 Gd1200 2.717 . S
O1225 Gd1201 2.327 . S
O1225 C1210 1.257 . S
O1226 Gd1201 2.377 . S
O1226 C1211 1.240 . S
O1227 Gd1200 2.395 . S
O1227 C1211 1.240 . S
O1228 Gd1201 2.448 . S
O1228 C1212 1.249 . S
O1229 Gd1201 2.506 . S
O1229 C1212 1.252 . S
O1230 Gd1201 2.435 . S
O1230 C1219 1.256 . S
O1231 Gd1200 2.327 . S
O1231 Gd1201 2.717 . S
O1231 C1219 1.257 . S
H1232 C1205 0.930 . S
H1233 C1206 0.931 . S
H1234 C1208 0.931 . S
H1235 C1209 0.931 . S
H1236 C1214 0.930 . S
H1237 C1215 0.931 . S
H1238 C1217 0.931 . S
H1239 C1218 0.931 . S
Gd1240 C1243 2.818 . S
Gd1240 O1260 2.377 1_545 S
Gd1240 O1262 2.448 . S
Gd1240 O1263 2.506 . S
Gd1240 O1264 2.435 . S
Gd1240 O1265 2.717 . S
Gd1240 O1267 2.395 . S
Gd1240 O1271 2.327 . S
Gd1241 C1252 2.814 1_565 S
Gd1241 O1261 2.395 . S
Gd1241 O1265 2.327 1_565 S
Gd1241 O1266 2.377 1_565 S
Gd1241 O1268 2.448 . S
Gd1241 O1269 2.506 1_565 S
Gd1241 O1270 2.435 . S
Gd1241 O1271 2.717 1_565 S
C1242 O1260 1.240 . S
C1242 O1261 1.240 . S
C1243 Gd1240 2.818 . S
C1243 C1244 1.523 . S
C1243 O1262 1.249 . S
C1243 O1263 1.252 . S
C1244 C1243 1.523 . S
C1244 C1245 1.412 . S
C1244 C1246 1.335 1_545 S
C1245 C1244 1.412 . S
C1245 C1249 1.389 1_545 S
C1245 H1272 0.930 . S
C1246 C1244 1.335 1_565 S
C1246 C1248 1.374 . S
C1246 H1273 0.931 . S
C1247 C1248 1.359 . S
C1247 C1249 1.364 . S
C1248 C1246 1.374 . S
C1248 C1247 1.359 . S
C1248 H1274 0.931 . S
C1249 C1245 1.389 1_565 S
C1249 C1247 1.364 . S
C1249 H1275 0.926 1_565 S
C1250 O1264 1.256 . S
C1250 O1265 1.257 . S
C1251 O1266 1.240 . S
C1251 O1267 1.240 . S
C1252 Gd1241 2.814 1_545 S
C1252 C1253 1.515 . S
C1252 O1268 1.244 1_545 S
C1252 O1269 1.252 . S
C1253 C1252 1.515 . S
C1253 C1254 1.404 . S
C1253 C1255 1.352 . S
C1254 C1253 1.404 . S
C1254 C1258 1.389 . S
C1254 H1276 0.930 1_545 S
C1255 C1253 1.352 . S
C1255 C1257 1.374 . S
C1255 H1277 0.931 . S
C1256 C1257 1.359 . S
C1256 C1258 1.364 . S
C1257 C1255 1.374 . S
C1257 C1256 1.359 . S
C1257 H1278 0.931 . S
C1258 C1254 1.389 . S
C1258 C1256 1.364 . S
C1258 H1279 0.931 . S
C1259 O1270 1.256 1_545 S
C1259 O1271 1.257 . S
O1260 Gd1240 2.377 1_565 S
O1260 C1242 1.240 . S
O1261 Gd1241 2.395 . S
O1261 C1242 1.240 . S
O1262 Gd1240 2.448 . S
O1262 C1243 1.249 . S
O1263 Gd1240 2.506 . S
O1263 C1243 1.252 . S
O1264 Gd1240 2.435 . S
O1264 C1250 1.256 . S
O1265 Gd1240 2.717 . S
O1265 Gd1241 2.327 1_545 S
O1265 C1250 1.257 . S
O1266 Gd1241 2.377 1_545 S
O1266 C1251 1.240 . S
O1267 Gd1240 2.395 . S
O1267 C1251 1.240 . S
O1268 Gd1241 2.448 . S
O1268 C1252 1.244 1_565 S
O1269 Gd1241 2.506 1_545 S
O1269 C1252 1.252 . S
O1270 Gd1241 2.435 . S
O1270 C1259 1.256 1_565 S
O1271 Gd1240 2.327 . S
O1271 Gd1241 2.717 1_545 S
O1271 C1259 1.257 . S
H1272 C1245 0.930 . S
H1273 C1246 0.931 . S
H1274 C1248 0.931 . S
H1275 C1249 0.926 1_545 S
H1276 C1254 0.930 1_565 S
H1277 C1255 0.931 . S
H1278 C1257 0.931 . S
H1279 C1258 0.931 . S
C1280 C1281 1.349 . S
C1280 C1282 1.327 . S
C1280 H1305 0.950 . S
C1281 C1280 1.349 . S
C1281 C1297 1.349 . S
C1282 C1280 1.327 . S
C1282 C1301 1.429 . S
C1282 H1306 0.950 . S
C1283 C1300 1.574 . S
C1283 C1302 1.368 . S
C1283 H1307 0.949 . S
H1284 C1288 0.949 . S
C1285 C1286 1.349 . S
C1285 C1287 1.327 . S
C1285 H1308 0.950 . S
C1286 C1285 1.349 . S
C1286 C1298 1.349 . S
C1287 C1285 1.327 . S
C1287 C1303 1.429 . S
C1287 H1309 0.950 . S
C1288 H1284 0.949 . S
C1288 C1296 1.574 . S
C1288 C1304 1.368 . S
H1289 C1297 0.950 . S
H1290 C1295 0.950 . S
H1291 C1296 0.949 . S
H1292 C1298 0.950 . S
H1293 C1299 0.950 . S
H1294 C1300 0.949 . S
C1295 H1290 0.950 . S
C1295 C1297 1.327 . S
C1295 C1301 1.429 . S
C1296 C1288 1.574 . S
C1296 H1291 0.949 . S
C1296 C1302 1.368 . S
C1297 C1281 1.349 . S
C1297 H1289 0.950 . S
C1297 C1295 1.327 . S
C1298 C1286 1.349 . S
C1298 H1292 0.950 . S
C1298 C1299 1.327 . S
C1299 H1293 0.950 . S
C1299 C1298 1.327 . S
C1299 C1303 1.429 . S
C1300 C1283 1.574 . S
C1300 H1294 0.949 . S
C1300 C1304 1.368 . S
C1301 C1282 1.429 . S
C1301 C1295 1.429 . S
C1301 C1302 1.523 . S
C1302 C1283 1.368 . S
C1302 C1296 1.368 . S
C1302 C1301 1.523 . S
C1303 C1287 1.429 . S
C1303 C1299 1.429 . S
C1303 C1304 1.523 . S
C1304 C1288 1.368 . S
C1304 C1300 1.368 . S
C1304 C1303 1.523 . S
H1305 C1280 0.950 . S
H1306 C1282 0.950 . S
H1307 C1283 0.949 . S
H1308 C1285 0.950 . S
H1309 C1287 0.950 . S
C1310 C1311 1.349 . S
C1310 C1312 1.327 . S
C1310 H1335 0.950 . S
C1311 C1310 1.349 . S
C1311 C1327 1.349 . S
C1312 C1310 1.327 . S
C1312 C1331 1.429 . S
C1312 H1336 0.950 . S
C1313 C1330 1.574 . S
C1313 C1332 1.368 . S
C1313 H1337 0.949 . S
H1314 C1318 0.949 . S
C1315 C1316 1.349 . S
C1315 C1317 1.327 . S
C1315 H1338 0.950 . S
C1316 C1315 1.349 . S
C1316 C1328 1.349 . S
C1317 C1315 1.327 . S
C1317 C1333 1.429 . S
C1317 H1339 0.950 . S
C1318 H1314 0.949 . S
C1318 C1326 1.574 . S
C1318 C1334 1.368 . S
H1319 C1327 0.950 . S
H1320 C1325 0.950 . S
H1321 C1326 0.949 . S
H1322 C1328 0.950 . S
H1323 C1329 0.950 . S
H1324 C1330 0.949 . S
C1325 H1320 0.950 . S
C1325 C1327 1.327 . S
C1325 C1331 1.429 . S
C1326 C1318 1.574 . S
C1326 H1321 0.949 . S
C1326 C1332 1.368 . S
C1327 C1311 1.349 . S
C1327 H1319 0.950 . S
C1327 C1325 1.327 . S
C1328 C1316 1.349 . S
C1328 H1322 0.950 . S
C1328 C1329 1.327 . S
C1329 H1323 0.950 . S
C1329 C1328 1.327 . S
C1329 C1333 1.429 . S
C1330 C1313 1.574 . S
C1330 H1324 0.949 . S
C1330 C1334 1.368 . S
C1331 C1312 1.429 . S
C1331 C1325 1.429 . S
C1331 C1332 1.523 . S
C1332 C1313 1.368 . S
C1332 C1326 1.368 . S
C1332 C1331 1.523 . S
C1333 C1317 1.429 . S
C1333 C1329 1.429 . S
C1333 C1334 1.523 . S
C1334 C1318 1.368 . S
C1334 C1330 1.368 . S
C1334 C1333 1.523 . S
H1335 C1310 0.950 . S
H1336 C1312 0.950 . S
H1337 C1313 0.949 . S
H1338 C1315 0.950 . S
H1339 C1317 0.950 . S
C1340 C1341 1.349 . S
C1340 C1342 1.327 . S
C1340 H1365 0.950 . S
C1341 C1340 1.349 . S
C1341 C1357 1.349 . S
C1342 C1340 1.327 . S
C1342 C1361 1.429 . S
C1342 H1366 0.950 . S
C1343 C1360 1.574 . S
C1343 C1362 1.368 . S
C1343 H1367 0.949 . S
H1344 C1348 0.949 . S
C1345 C1346 1.349 . S
C1345 C1347 1.327 . S
C1345 H1368 0.950 . S
C1346 C1345 1.349 . S
C1346 C1358 1.349 . S
C1347 C1345 1.327 . S
C1347 C1363 1.429 . S
C1347 H1369 0.950 . S
C1348 H1344 0.949 . S
C1348 C1356 1.574 . S
C1348 C1364 1.368 . S
H1349 C1357 0.950 . S
H1350 C1355 0.950 . S
H1351 C1356 0.949 . S
H1352 C1358 0.950 . S
H1353 C1359 0.950 . S
H1354 C1360 0.949 . S
C1355 H1350 0.950 . S
C1355 C1357 1.327 . S
C1355 C1361 1.429 . S
C1356 C1348 1.574 . S
C1356 H1351 0.949 . S
C1356 C1362 1.368 . S
C1357 C1341 1.349 . S
C1357 H1349 0.950 . S
C1357 C1355 1.327 . S
C1358 C1346 1.349 . S
C1358 H1352 0.950 . S
C1358 C1359 1.327 . S
C1359 H1353 0.950 . S
C1359 C1358 1.327 . S
C1359 C1363 1.429 . S
C1360 C1343 1.574 . S
C1360 H1354 0.949 . S
C1360 C1364 1.368 . S
C1361 C1342 1.429 . S
C1361 C1355 1.429 . S
C1361 C1362 1.523 . S
C1362 C1343 1.368 . S
C1362 C1356 1.368 . S
C1362 C1361 1.523 . S
C1363 C1347 1.429 . S
C1363 C1359 1.429 . S
C1363 C1364 1.523 . S
C1364 C1348 1.368 . S
C1364 C1360 1.368 . S
C1364 C1363 1.523 . S
H1365 C1340 0.950 . S
H1366 C1342 0.950 . S
H1367 C1343 0.949 . S
H1368 C1345 0.950 . S
H1369 C1347 0.950 . S
C1370 C1371 1.349 . S
C1370 C1372 1.327 . S
C1370 H1395 0.950 . S
C1371 C1370 1.349 . S
C1371 C1387 1.349 . S
C1372 C1370 1.327 . S
C1372 C1391 1.429 . S
C1372 H1396 0.950 . S
C1373 C1390 1.574 . S
C1373 C1392 1.368 . S
C1373 H1397 0.949 . S
H1374 C1378 0.949 . S
C1375 C1376 1.349 . S
C1375 C1377 1.327 . S
C1375 H1398 0.950 . S
C1376 C1375 1.349 . S
C1376 C1388 1.349 . S
C1377 C1375 1.327 . S
C1377 C1393 1.429 . S
C1377 H1399 0.950 . S
C1378 H1374 0.949 . S
C1378 C1386 1.574 . S
C1378 C1394 1.368 . S
H1379 C1387 0.950 . S
H1380 C1385 0.950 . S
H1381 C1386 0.949 . S
H1382 C1388 0.950 . S
H1383 C1389 0.950 . S
H1384 C1390 0.949 . S
C1385 H1380 0.950 . S
C1385 C1387 1.327 . S
C1385 C1391 1.429 . S
C1386 C1378 1.574 . S
C1386 H1381 0.949 . S
C1386 C1392 1.368 . S
C1387 C1371 1.349 . S
C1387 H1379 0.950 . S
C1387 C1385 1.327 . S
C1388 C1376 1.349 . S
C1388 H1382 0.950 . S
C1388 C1389 1.327 . S
C1389 H1383 0.950 . S
C1389 C1388 1.327 . S
C1389 C1393 1.429 . S
C1390 C1373 1.574 . S
C1390 H1384 0.949 . S
C1390 C1394 1.368 . S
C1391 C1372 1.429 . S
C1391 C1385 1.429 . S
C1391 C1392 1.523 . S
C1392 C1373 1.368 . S
C1392 C1386 1.368 . S
C1392 C1391 1.523 . S
C1393 C1377 1.429 . S
C1393 C1389 1.429 . S
C1393 C1394 1.523 . S
C1394 C1378 1.368 . S
C1394 C1390 1.368 . S
C1394 C1393 1.523 . S
H1395 C1370 0.950 . S
H1396 C1372 0.950 . S
H1397 C1373 0.949 . S
H1398 C1375 0.950 . S
H1399 C1377 0.950 . S
C1400 C1401 1.349 . S
C1400 C1402 1.327 . S
C1400 H1425 0.950 . S
C1401 C1400 1.349 . S
C1401 C1417 1.349 . S
C1402 C1400 1.327 . S
C1402 C1421 1.429 . S
C1402 H1426 0.950 . S
C1403 C1420 1.574 . S
C1403 C1422 1.368 . S
C1403 H1427 0.949 . S
H1404 C1408 0.949 . S
C1405 C1406 1.349 . S
C1405 C1407 1.327 . S
C1405 H1428 0.950 . S
C1406 C1405 1.349 . S
C1406 C1418 1.349 . S
C1407 C1405 1.327 . S
C1407 C1423 1.429 . S
C1407 H1429 0.950 . S
C1408 H1404 0.949 . S
C1408 C1416 1.574 . S
C1408 C1424 1.368 . S
H1409 C1417 0.950 . S
H1410 C1415 0.950 . S
H1411 C1416 0.949 . S
H1412 C1418 0.950 . S
H1413 C1419 0.950 . S
H1414 C1420 0.949 . S
C1415 H1410 0.950 . S
C1415 C1417 1.327 . S
C1415 C1421 1.429 . S
C1416 C1408 1.574 . S
C1416 H1411 0.949 . S
C1416 C1422 1.368 . S
C1417 C1401 1.349 . S
C1417 H1409 0.950 . S
C1417 C1415 1.327 . S
C1418 C1406 1.349 . S
C1418 H1412 0.950 . S
C1418 C1419 1.327 . S
C1419 H1413 0.950 . S
C1419 C1418 1.327 . S
C1419 C1423 1.429 . S
C1420 C1403 1.574 . S
C1420 H1414 0.949 . S
C1420 C1424 1.368 . S
C1421 C1402 1.429 . S
C1421 C1415 1.429 . S
C1421 C1422 1.523 . S
C1422 C1403 1.368 . S
C1422 C1416 1.368 . S
C1422 C1421 1.523 . S
C1423 C1407 1.429 . S
C1423 C1419 1.429 . S
C1423 C1424 1.523 . S
C1424 C1408 1.368 . S
C1424 C1420 1.368 . S
C1424 C1423 1.523 . S
H1425 C1400 0.950 . S
H1426 C1402 0.950 . S
H1427 C1403 0.949 . S
H1428 C1405 0.950 . S
H1429 C1407 0.950 . S
C1430 C1431 1.349 . S
C1430 C1432 1.327 . S
C1430 H1455 0.950 . S
C1431 C1430 1.349 . S
C1431 C1447 1.349 . S
C1432 C1430 1.327 . S
C1432 C1451 1.429 . S
C1432 H1456 0.950 . S
C1433 C1450 1.574 . S
C1433 C1452 1.368 . S
C1433 H1457 0.949 . S
H1434 C1438 0.949 . S
C1435 C1436 1.349 . S
C1435 C1437 1.327 . S
C1435 H1458 0.950 . S
C1436 C1435 1.349 . S
C1436 C1448 1.349 . S
C1437 C1435 1.327 . S
C1437 C1453 1.429 . S
C1437 H1459 0.950 . S
C1438 H1434 0.949 . S
C1438 C1446 1.574 . S
C1438 C1454 1.368 . S
H1439 C1447 0.950 . S
H1440 C1445 0.950 . S
H1441 C1446 0.949 . S
H1442 C1448 0.950 . S
H1443 C1449 0.950 . S
H1444 C1450 0.949 . S
C1445 H1440 0.950 . S
C1445 C1447 1.327 . S
C1445 C1451 1.429 . S
C1446 C1438 1.574 . S
C1446 H1441 0.949 . S
C1446 C1452 1.368 . S
C1447 C1431 1.349 . S
C1447 H1439 0.950 . S
C1447 C1445 1.327 . S
C1448 C1436 1.349 . S
C1448 H1442 0.950 . S
C1448 C1449 1.327 . S
C1449 H1443 0.950 . S
C1449 C1448 1.327 . S
C1449 C1453 1.429 . S
C1450 C1433 1.574 . S
C1450 H1444 0.949 . S
C1450 C1454 1.368 . S
C1451 C1432 1.429 . S
C1451 C1445 1.429 . S
C1451 C1452 1.523 . S
C1452 C1433 1.368 . S
C1452 C1446 1.368 . S
C1452 C1451 1.523 . S
C1453 C1437 1.429 . S
C1453 C1449 1.429 . S
C1453 C1454 1.523 . S
C1454 C1438 1.368 . S
C1454 C1450 1.368 . S
C1454 C1453 1.523 . S
H1455 C1430 0.950 . S
H1456 C1432 0.950 . S
H1457 C1433 0.949 . S
H1458 C1435 0.950 . S
H1459 C1437 0.950 . S
C1460 C1461 1.349 . S
C1460 C1462 1.327 . S
C1460 H1485 0.950 . S
C1461 C1460 1.349 . S
C1461 C1477 1.349 . S
C1462 C1460 1.327 . S
C1462 C1481 1.429 . S
C1462 H1486 0.950 . S
C1463 C1480 1.574 . S
C1463 C1482 1.368 . S
C1463 H1487 0.949 . S
H1464 C1468 0.949 . S
C1465 C1466 1.349 . S
C1465 C1467 1.327 . S
C1465 H1488 0.950 . S
C1466 C1465 1.349 . S
C1466 C1478 1.349 . S
C1467 C1465 1.327 . S
C1467 C1483 1.429 . S
C1467 H1489 0.950 . S
C1468 H1464 0.949 . S
C1468 C1476 1.574 . S
C1468 C1484 1.368 . S
H1469 C1477 0.950 . S
H1470 C1475 0.950 . S
H1471 C1476 0.949 . S
H1472 C1478 0.950 . S
H1473 C1479 0.950 . S
H1474 C1480 0.949 . S
C1475 H1470 0.950 . S
C1475 C1477 1.327 . S
C1475 C1481 1.429 . S
C1476 C1468 1.574 . S
C1476 H1471 0.949 . S
C1476 C1482 1.368 . S
C1477 C1461 1.349 . S
C1477 H1469 0.950 . S
C1477 C1475 1.327 . S
C1478 C1466 1.349 . S
C1478 H1472 0.950 . S
C1478 C1479 1.327 . S
C1479 H1473 0.950 . S
C1479 C1478 1.327 . S
C1479 C1483 1.429 . S
C1480 C1463 1.574 . S
C1480 H1474 0.949 . S
C1480 C1484 1.368 . S
C1481 C1462 1.429 . S
C1481 C1475 1.429 . S
C1481 C1482 1.523 . S
C1482 C1463 1.368 . S
C1482 C1476 1.368 . S
C1482 C1481 1.523 . S
C1483 C1467 1.429 . S
C1483 C1479 1.429 . S
C1483 C1484 1.523 . S
C1484 C1468 1.368 . S
C1484 C1480 1.368 . S
C1484 C1483 1.523 . S
H1485 C1460 0.950 . S
H1486 C1462 0.950 . S
H1487 C1463 0.949 . S
H1488 C1465 0.950 . S
H1489 C1467 0.950 . S
C1490 C1491 1.349 . S
C1490 C1492 1.327 . S
C1490 H1515 0.950 . S
C1491 C1490 1.349 . S
C1491 C1507 1.349 . S
C1492 C1490 1.327 . S
C1492 C1511 1.429 . S
C1492 H1516 0.950 . S
C1493 C1510 1.574 . S
C1493 C1512 1.368 . S
C1493 H1517 0.949 . S
H1494 C1498 0.949 . S
C1495 C1496 1.349 . S
C1495 C1497 1.327 . S
C1495 H1518 0.950 . S
C1496 C1495 1.349 . S
C1496 C1508 1.349 . S
C1497 C1495 1.327 . S
C1497 C1513 1.429 . S
C1497 H1519 0.950 . S
C1498 H1494 0.949 . S
C1498 C1506 1.574 . S
C1498 C1514 1.368 . S
H1499 C1507 0.950 . S
H1500 C1505 0.950 . S
H1501 C1506 0.949 . S
H1502 C1508 0.950 . S
H1503 C1509 0.950 . S
H1504 C1510 0.949 . S
C1505 H1500 0.950 . S
C1505 C1507 1.327 . S
C1505 C1511 1.429 . S
C1506 C1498 1.574 . S
C1506 H1501 0.949 . S
C1506 C1512 1.368 . S
C1507 C1491 1.349 . S
C1507 H1499 0.950 . S
C1507 C1505 1.327 . S
C1508 C1496 1.349 . S
C1508 H1502 0.950 . S
C1508 C1509 1.327 . S
C1509 H1503 0.950 . S
C1509 C1508 1.327 . S
C1509 C1513 1.429 . S
C1510 C1493 1.574 . S
C1510 H1504 0.949 . S
C1510 C1514 1.368 . S
C1511 C1492 1.429 . S
C1511 C1505 1.429 . S
C1511 C1512 1.523 . S
C1512 C1493 1.368 . S
C1512 C1506 1.368 . S
C1512 C1511 1.523 . S
C1513 C1497 1.429 . S
C1513 C1509 1.429 . S
C1513 C1514 1.523 . S
C1514 C1498 1.368 . S
C1514 C1510 1.368 . S
C1514 C1513 1.523 . S
H1515 C1490 0.950 . S
H1516 C1492 0.950 . S
H1517 C1493 0.949 . S
H1518 C1495 0.950 . S
H1519 C1497 0.950 . S
C1520 C1521 1.349 . S
C1520 C1522 1.327 . S
C1520 H1545 0.950 . S
C1521 C1520 1.349 . S
C1521 C1537 1.349 . S
C1522 C1520 1.327 . S
C1522 C1541 1.429 . S
C1522 H1546 0.950 . S
C1523 C1540 1.574 . S
C1523 C1542 1.368 . S
C1523 H1547 0.949 . S
H1524 C1528 0.949 . S
C1525 C1526 1.349 . S
C1525 C1527 1.327 . S
C1525 H1548 0.950 . S
C1526 C1525 1.349 . S
C1526 C1538 1.349 . S
C1527 C1525 1.327 . S
C1527 C1543 1.429 . S
C1527 H1549 0.950 . S
C1528 H1524 0.949 . S
C1528 C1536 1.574 . S
C1528 C1544 1.368 . S
H1529 C1537 0.950 . S
H1530 C1535 0.950 . S
H1531 C1536 0.949 . S
H1532 C1538 0.950 . S
H1533 C1539 0.950 . S
H1534 C1540 0.949 . S
C1535 H1530 0.950 . S
C1535 C1537 1.327 . S
C1535 C1541 1.429 . S
C1536 C1528 1.574 . S
C1536 H1531 0.949 . S
C1536 C1542 1.368 . S
C1537 C1521 1.349 . S
C1537 H1529 0.950 . S
C1537 C1535 1.327 . S
C1538 C1526 1.349 . S
C1538 H1532 0.950 . S
C1538 C1539 1.327 . S
C1539 H1533 0.950 . S
C1539 C1538 1.327 . S
C1539 C1543 1.429 . S
C1540 C1523 1.574 . S
C1540 H1534 0.949 . S
C1540 C1544 1.368 . S
C1541 C1522 1.429 . S
C1541 C1535 1.429 . S
C1541 C1542 1.523 . S
C1542 C1523 1.368 . S
C1542 C1536 1.368 . S
C1542 C1541 1.523 . S
C1543 C1527 1.429 . S
C1543 C1539 1.429 . S
C1543 C1544 1.523 . S
C1544 C1528 1.368 . S
C1544 C1540 1.368 . S
C1544 C1543 1.523 . S
H1545 C1520 0.950 . S
H1546 C1522 0.950 . S
H1547 C1523 0.949 . S
H1548 C1525 0.950 . S
H1549 C1527 0.950 . S
C1550 C1551 1.349 . S
C1550 C1552 1.327 . S
C1550 H1575 0.950 . S
C1551 C1550 1.349 . S
C1551 C1567 1.349 . S
C1552 C1550 1.327 . S
C1552 C1571 1.429 . S
C1552 H1576 0.950 . S
C1553 C1570 1.574 . S
C1553 C1572 1.368 . S
C1553 H1577 0.949 . S
H1554 C1558 0.949 . S
C1555 C1556 1.349 . S
C1555 C1557 1.327 . S
C1555 H1578 0.950 . S
C1556 C1555 1.349 . S
C1556 C1568 1.349 . S
C1557 C1555 1.327 . S
C1557 C1573 1.429 . S
C1557 H1579 0.950 . S
C1558 H1554 0.949 . S
C1558 C1566 1.574 . S
C1558 C1574 1.368 . S
H1559 C1567 0.950 . S
H1560 C1565 0.950 . S
H1561 C1566 0.949 . S
H1562 C1568 0.950 . S
H1563 C1569 0.950 . S
H1564 C1570 0.949 . S
C1565 H1560 0.950 . S
C1565 C1567 1.327 . S
C1565 C1571 1.429 . S
C1566 C1558 1.574 . S
C1566 H1561 0.949 . S
C1566 C1572 1.368 . S
C1567 C1551 1.349 . S
C1567 H1559 0.950 . S
C1567 C1565 1.327 . S
C1568 C1556 1.349 . S
C1568 H1562 0.950 . S
C1568 C1569 1.327 . S
C1569 H1563 0.950 . S
C1569 C1568 1.327 . S
C1569 C1573 1.429 . S
C1570 C1553 1.574 . S
C1570 H1564 0.949 . S
C1570 C1574 1.368 . S
C1571 C1552 1.429 . S
C1571 C1565 1.429 . S
C1571 C1572 1.523 . S
C1572 C1553 1.368 . S
C1572 C1566 1.368 . S
C1572 C1571 1.523 . S
C1573 C1557 1.429 . S
C1573 C1569 1.429 . S
C1573 C1574 1.523 . S
C1574 C1558 1.368 . S
C1574 C1570 1.368 . S
C1574 C1573 1.523 . S
H1575 C1550 0.950 . S
H1576 C1552 0.950 . S
H1577 C1553 0.949 . S
H1578 C1555 0.950 . S
H1579 C1557 0.950 . S
C1580 C1581 1.349 . S
C1580 C1582 1.327 . S
C1580 H1605 0.950 . S
C1581 C1580 1.349 . S
C1581 C1597 1.349 . S
C1582 C1580 1.327 . S
C1582 C1601 1.429 . S
C1582 H1606 0.950 . S
C1583 C1600 1.574 . S
C1583 C1602 1.368 . S
C1583 H1607 0.949 . S
H1584 C1588 0.949 . S
C1585 C1586 1.349 . S
C1585 C1587 1.327 . S
C1585 H1608 0.950 . S
C1586 C1585 1.349 . S
C1586 C1598 1.349 . S
C1587 C1585 1.327 . S
C1587 C1603 1.429 . S
C1587 H1609 0.950 . S
C1588 H1584 0.949 . S
C1588 C1596 1.574 . S
C1588 C1604 1.368 . S
H1589 C1597 0.950 . S
H1590 C1595 0.950 . S
H1591 C1596 0.949 . S
H1592 C1598 0.950 . S
H1593 C1599 0.950 . S
H1594 C1600 0.949 . S
C1595 H1590 0.950 . S
C1595 C1597 1.327 . S
C1595 C1601 1.429 . S
C1596 C1588 1.574 . S
C1596 H1591 0.949 . S
C1596 C1602 1.368 . S
C1597 C1581 1.349 . S
C1597 H1589 0.950 . S
C1597 C1595 1.327 . S
C1598 C1586 1.349 . S
C1598 H1592 0.950 . S
C1598 C1599 1.327 . S
C1599 H1593 0.950 . S
C1599 C1598 1.327 . S
C1599 C1603 1.429 . S
C1600 C1583 1.574 . S
C1600 H1594 0.949 . S
C1600 C1604 1.368 . S
C1601 C1582 1.429 . S
C1601 C1595 1.429 . S
C1601 C1602 1.523 . S
C1602 C1583 1.368 . S
C1602 C1596 1.368 . S
C1602 C1601 1.523 . S
C1603 C1587 1.429 . S
C1603 C1599 1.429 . S
C1603 C1604 1.523 . S
C1604 C1588 1.368 . S
C1604 C1600 1.368 . S
C1604 C1603 1.523 . S
H1605 C1580 0.950 . S
H1606 C1582 0.950 . S
H1607 C1583 0.949 . S
H1608 C1585 0.950 . S
H1609 C1587 0.950 . S
C1610 C1611 1.349 . S
C1610 C1612 1.327 . S
C1610 H1635 0.950 . S
C1611 C1610 1.349 . S
C1611 C1627 1.349 . S
C1612 C1610 1.327 . S
C1612 C1631 1.429 . S
C1612 H1636 0.950 . S
C1613 C1630 1.574 . S
C1613 C1632 1.368 . S
C1613 H1637 0.949 . S
H1614 C1618 0.949 . S
C1615 C1616 1.349 . S
C1615 C1617 1.327 . S
C1615 H1638 0.950 . S
C1616 C1615 1.349 . S
C1616 C1628 1.349 . S
C1617 C1615 1.327 . S
C1617 C1633 1.429 . S
C1617 H1639 0.950 . S
C1618 H1614 0.949 . S
C1618 C1626 1.574 . S
C1618 C1634 1.368 . S
H1619 C1627 0.950 . S
H1620 C1625 0.950 . S
H1621 C1626 0.949 . S
H1622 C1628 0.950 . S
H1623 C1629 0.950 . S
H1624 C1630 0.949 . S
C1625 H1620 0.950 . S
C1625 C1627 1.327 . S
C1625 C1631 1.429 . S
C1626 C1618 1.574 . S
C1626 H1621 0.949 . S
C1626 C1632 1.368 . S
C1627 C1611 1.349 . S
C1627 H1619 0.950 . S
C1627 C1625 1.327 . S
C1628 C1616 1.349 . S
C1628 H1622 0.950 . S
C1628 C1629 1.327 . S
C1629 H1623 0.950 . S
C1629 C1628 1.327 . S
C1629 C1633 1.429 . S
C1630 C1613 1.574 . S
C1630 H1624 0.949 . S
C1630 C1634 1.368 . S
C1631 C1612 1.429 . S
C1631 C1625 1.429 . S
C1631 C1632 1.523 . S
C1632 C1613 1.368 . S
C1632 C1626 1.368 . S
C1632 C1631 1.523 . S
C1633 C1617 1.429 . S
C1633 C1629 1.429 . S
C1633 C1634 1.523 . S
C1634 C1618 1.368 . S
C1634 C1630 1.368 . S
C1634 C1633 1.523 . S
H1635 C1610 0.950 . S
H1636 C1612 0.950 . S
H1637 C1613 0.949 . S
H1638 C1615 0.950 . S
H1639 C1617 0.950 . S
C1640 C1641 1.349 . S
C1640 C1642 1.327 . S
C1640 H1665 0.950 . S
C1641 C1640 1.349 . S
C1641 C1657 1.349 . S
C1642 C1640 1.327 . S
C1642 C1661 1.429 . S
C1642 H1666 0.950 . S
C1643 C1660 1.574 . S
C1643 C1662 1.368 . S
C1643 H1667 0.949 . S
H1644 C1648 0.949 . S
C1645 C1646 1.349 . S
C1645 C1647 1.327 . S
C1645 H1668 0.950 . S
C1646 C1645 1.349 . S
C1646 C1658 1.349 . S
C1647 C1645 1.327 . S
C1647 C1663 1.429 . S
C1647 H1669 0.950 . S
C1648 H1644 0.949 . S
C1648 C1656 1.574 . S
C1648 C1664 1.368 . S
H1649 C1657 0.950 . S
H1650 C1655 0.950 . S
H1651 C1656 0.949 . S
H1652 C1658 0.950 . S
H1653 C1659 0.950 . S
H1654 C1660 0.949 . S
C1655 H1650 0.950 . S
C1655 C1657 1.327 . S
C1655 C1661 1.429 . S
C1656 C1648 1.574 . S
C1656 H1651 0.949 . S
C1656 C1662 1.368 . S
C1657 C1641 1.349 . S
C1657 H1649 0.950 . S
C1657 C1655 1.327 . S
C1658 C1646 1.349 . S
C1658 H1652 0.950 . S
C1658 C1659 1.327 . S
C1659 H1653 0.950 . S
C1659 C1658 1.327 . S
C1659 C1663 1.429 . S
C1660 C1643 1.574 . S
C1660 H1654 0.949 . S
C1660 C1664 1.368 . S
C1661 C1642 1.429 . S
C1661 C1655 1.429 . S
C1661 C1662 1.523 . S
C1662 C1643 1.368 . S
C1662 C1656 1.368 . S
C1662 C1661 1.523 . S
C1663 C1647 1.429 . S
C1663 C1659 1.429 . S
C1663 C1664 1.523 . S
C1664 C1648 1.368 . S
C1664 C1660 1.368 . S
C1664 C1663 1.523 . S
H1665 C1640 0.950 . S
H1666 C1642 0.950 . S
H1667 C1643 0.949 . S
H1668 C1645 0.950 . S
H1669 C1647 0.950 . S
C1670 C1671 1.349 . S
C1670 C1672 1.327 . S
C1670 H1695 0.950 . S
C1671 C1670 1.349 . S
C1671 C1687 1.349 . S
C1672 C1670 1.327 . S
C1672 C1691 1.429 . S
C1672 H1696 0.950 . S
C1673 C1690 1.574 . S
C1673 C1692 1.368 . S
C1673 H1697 0.949 . S
H1674 C1678 0.949 . S
C1675 C1676 1.349 . S
C1675 C1677 1.327 . S
C1675 H1698 0.950 . S
C1676 C1675 1.349 . S
C1676 C1688 1.349 . S
C1677 C1675 1.327 . S
C1677 C1693 1.429 . S
C1677 H1699 0.950 . S
C1678 H1674 0.949 . S
C1678 C1686 1.574 . S
C1678 C1694 1.368 . S
H1679 C1687 0.950 . S
H1680 C1685 0.950 . S
H1681 C1686 0.949 . S
H1682 C1688 0.950 . S
H1683 C1689 0.950 . S
H1684 C1690 0.949 . S
C1685 H1680 0.950 . S
C1685 C1687 1.327 . S
C1685 C1691 1.429 . S
C1686 C1678 1.574 . S
C1686 H1681 0.949 . S
C1686 C1692 1.368 . S
C1687 C1671 1.349 . S
C1687 H1679 0.950 . S
C1687 C1685 1.327 . S
C1688 C1676 1.349 . S
C1688 H1682 0.950 . S
C1688 C1689 1.327 . S
C1689 H1683 0.950 . S
C1689 C1688 1.327 . S
C1689 C1693 1.429 . S
C1690 C1673 1.574 . S
C1690 H1684 0.949 . S
C1690 C1694 1.368 . S
C1691 C1672 1.429 . S
C1691 C1685 1.429 . S
C1691 C1692 1.523 . S
C1692 C1673 1.368 . S
C1692 C1686 1.368 . S
C1692 C1691 1.523 . S
C1693 C1677 1.429 . S
C1693 C1689 1.429 . S
C1693 C1694 1.523 . S
C1694 C1678 1.368 . S
C1694 C1690 1.368 . S
C1694 C1693 1.523 . S
H1695 C1670 0.950 . S
H1696 C1672 0.950 . S
H1697 C1673 0.949 . S
H1698 C1675 0.950 . S
H1699 C1677 0.950 . S
C1700 C1701 1.349 . S
C1700 C1702 1.327 . S
C1700 H1725 0.950 . S
C1701 C1700 1.349 . S
C1701 C1717 1.349 . S
C1702 C1700 1.327 . S
C1702 C1721 1.429 . S
C1702 H1726 0.950 . S
C1703 C1720 1.574 . S
C1703 C1722 1.368 . S
C1703 H1727 0.949 . S
H1704 C1708 0.949 . S
C1705 C1706 1.349 . S
C1705 C1707 1.327 . S
C1705 H1728 0.950 . S
C1706 C1705 1.349 . S
C1706 C1718 1.349 . S
C1707 C1705 1.327 . S
C1707 C1723 1.429 . S
C1707 H1729 0.950 . S
C1708 H1704 0.949 . S
C1708 C1716 1.574 . S
C1708 C1724 1.368 . S
H1709 C1717 0.950 . S
H1710 C1715 0.950 . S
H1711 C1716 0.949 . S
H1712 C1718 0.950 . S
H1713 C1719 0.950 . S
H1714 C1720 0.949 . S
C1715 H1710 0.950 . S
C1715 C1717 1.327 . S
C1715 C1721 1.429 . S
C1716 C1708 1.574 . S
C1716 H1711 0.949 . S
C1716 C1722 1.368 . S
C1717 C1701 1.349 . S
C1717 H1709 0.950 . S
C1717 C1715 1.327 . S
C1718 C1706 1.349 . S
C1718 H1712 0.950 . S
C1718 C1719 1.327 . S
C1719 H1713 0.950 . S
C1719 C1718 1.327 . S
C1719 C1723 1.429 . S
C1720 C1703 1.574 . S
C1720 H1714 0.949 . S
C1720 C1724 1.368 . S
C1721 C1702 1.429 . S
C1721 C1715 1.429 . S
C1721 C1722 1.523 . S
C1722 C1703 1.368 . S
C1722 C1716 1.368 . S
C1722 C1721 1.523 . S
C1723 C1707 1.429 . S
C1723 C1719 1.429 . S
C1723 C1724 1.523 . S
C1724 C1708 1.368 . S
C1724 C1720 1.368 . S
C1724 C1723 1.523 . S
H1725 C1700 0.950 . S
H1726 C1702 0.950 . S
H1727 C1703 0.949 . S
H1728 C1705 0.950 . S
H1729 C1707 0.950 . S
C1730 C1731 1.349 . S
C1730 C1732 1.327 . S
C1730 H1755 0.950 . S
C1731 C1730 1.349 . S
C1731 C1747 1.349 . S
C1732 C1730 1.327 . S
C1732 C1751 1.429 . S
C1732 H1756 0.950 . S
C1733 C1750 1.574 . S
C1733 C1752 1.368 . S
C1733 H1757 0.949 . S
H1734 C1738 0.949 . S
C1735 C1736 1.349 . S
C1735 C1737 1.327 . S
C1735 H1758 0.950 . S
C1736 C1735 1.349 . S
C1736 C1748 1.349 . S
C1737 C1735 1.327 . S
C1737 C1753 1.429 . S
C1737 H1759 0.950 . S
C1738 H1734 0.949 . S
C1738 C1746 1.574 . S
C1738 C1754 1.368 . S
H1739 C1747 0.950 . S
H1740 C1745 0.950 . S
H1741 C1746 0.949 . S
H1742 C1748 0.950 . S
H1743 C1749 0.950 . S
H1744 C1750 0.949 . S
C1745 H1740 0.950 . S
C1745 C1747 1.327 . S
C1745 C1751 1.429 . S
C1746 C1738 1.574 . S
C1746 H1741 0.949 . S
C1746 C1752 1.368 . S
C1747 C1731 1.349 . S
C1747 H1739 0.950 . S
C1747 C1745 1.327 . S
C1748 C1736 1.349 . S
C1748 H1742 0.950 . S
C1748 C1749 1.327 . S
C1749 H1743 0.950 . S
C1749 C1748 1.327 . S
C1749 C1753 1.429 . S
C1750 C1733 1.574 . S
C1750 H1744 0.949 . S
C1750 C1754 1.368 . S
C1751 C1732 1.429 . S
C1751 C1745 1.429 . S
C1751 C1752 1.523 . S
C1752 C1733 1.368 . S
C1752 C1746 1.368 . S
C1752 C1751 1.523 . S
C1753 C1737 1.429 . S
C1753 C1749 1.429 . S
C1753 C1754 1.523 . S
C1754 C1738 1.368 . S
C1754 C1750 1.368 . S
C1754 C1753 1.523 . S
H1755 C1730 0.950 . S
H1756 C1732 0.950 . S
H1757 C1733 0.949 . S
H1758 C1735 0.950 . S
H1759 C1737 0.950 . S
C1760 C1761 1.349 . S
C1760 C1762 1.327 . S
C1760 H1785 0.950 . S
C1761 C1760 1.349 . S
C1761 C1777 1.349 . S
C1762 C1760 1.327 . S
C1762 C1781 1.429 . S
C1762 H1786 0.950 . S
C1763 C1780 1.574 . S
C1763 C1782 1.368 . S
C1763 H1787 0.949 . S
H1764 C1768 0.949 . S
C1765 C1766 1.349 . S
C1765 C1767 1.327 . S
C1765 H1788 0.950 . S
C1766 C1765 1.349 . S
C1766 C1778 1.349 . S
C1767 C1765 1.327 . S
C1767 C1783 1.429 . S
C1767 H1789 0.950 . S
C1768 H1764 0.949 . S
C1768 C1776 1.574 . S
C1768 C1784 1.368 . S
H1769 C1777 0.950 . S
H1770 C1775 0.950 . S
H1771 C1776 0.949 . S
H1772 C1778 0.950 . S
H1773 C1779 0.950 . S
H1774 C1780 0.949 . S
C1775 H1770 0.950 . S
C1775 C1777 1.327 . S
C1775 C1781 1.429 . S
C1776 C1768 1.574 . S
C1776 H1771 0.949 . S
C1776 C1782 1.368 . S
C1777 C1761 1.349 . S
C1777 H1769 0.950 . S
C1777 C1775 1.327 . S
C1778 C1766 1.349 . S
C1778 H1772 0.950 . S
C1778 C1779 1.327 . S
C1779 H1773 0.950 . S
C1779 C1778 1.327 . S
C1779 C1783 1.429 . S
C1780 C1763 1.574 . S
C1780 H1774 0.949 . S
C1780 C1784 1.368 . S
C1781 C1762 1.429 . S
C1781 C1775 1.429 . S
C1781 C1782 1.523 . S
C1782 C1763 1.368 . S
C1782 C1776 1.368 . S
C1782 C1781 1.523 . S
C1783 C1767 1.429 . S
C1783 C1779 1.429 . S
C1783 C1784 1.523 . S
C1784 C1768 1.368 . S
C1784 C1780 1.368 . S
C1784 C1783 1.523 . S
H1785 C1760 0.950 . S
H1786 C1762 0.950 . S
H1787 C1763 0.949 . S
H1788 C1765 0.950 . S
H1789 C1767 0.950 . S
C1790 C1791 1.349 . S
C1790 C1792 1.327 . S
C1790 H1815 0.950 . S
C1791 C1790 1.349 . S
C1791 C1807 1.349 . S
C1792 C1790 1.327 . S
C1792 C1811 1.429 . S
C1792 H1816 0.950 . S
C1793 C1810 1.574 . S
C1793 C1812 1.368 . S
C1793 H1817 0.949 . S
H1794 C1798 0.949 . S
C1795 C1796 1.349 . S
C1795 C1797 1.327 . S
C1795 H1818 0.950 . S
C1796 C1795 1.349 . S
C1796 C1808 1.349 . S
C1797 C1795 1.327 . S
C1797 C1813 1.429 . S
C1797 H1819 0.950 . S
C1798 H1794 0.949 . S
C1798 C1806 1.574 . S
C1798 C1814 1.368 . S
H1799 C1807 0.950 . S
H1800 C1805 0.950 . S
H1801 C1806 0.949 . S
H1802 C1808 0.950 . S
H1803 C1809 0.950 . S
H1804 C1810 0.949 . S
C1805 H1800 0.950 . S
C1805 C1807 1.327 . S
C1805 C1811 1.429 . S
C1806 C1798 1.574 . S
C1806 H1801 0.949 . S
C1806 C1812 1.368 . S
C1807 C1791 1.349 . S
C1807 H1799 0.950 . S
C1807 C1805 1.327 . S
C1808 C1796 1.349 . S
C1808 H1802 0.950 . S
C1808 C1809 1.327 . S
C1809 H1803 0.950 . S
C1809 C1808 1.327 . S
C1809 C1813 1.429 . S
C1810 C1793 1.574 . S
C1810 H1804 0.949 . S
C1810 C1814 1.368 . S
C1811 C1792 1.429 . S
C1811 C1805 1.429 . S
C1811 C1812 1.523 . S
C1812 C1793 1.368 . S
C1812 C1806 1.368 . S
C1812 C1811 1.523 . S
C1813 C1797 1.429 . S
C1813 C1809 1.429 . S
C1813 C1814 1.523 . S
C1814 C1798 1.368 . S
C1814 C1810 1.368 . S
C1814 C1813 1.523 . S
H1815 C1790 0.950 . S
H1816 C1792 0.950 . S
H1817 C1793 0.949 . S
H1818 C1795 0.950 . S
H1819 C1797 0.950 . S
C1820 C1821 1.349 . S
C1820 C1822 1.327 . S
C1820 H1845 0.950 . S
C1821 C1820 1.349 . S
C1821 C1837 1.349 . S
C1822 C1820 1.327 . S
C1822 C1841 1.429 . S
C1822 H1846 0.950 . S
C1823 C1840 1.574 . S
C1823 C1842 1.368 . S
C1823 H1847 0.949 . S
H1824 C1828 0.949 . S
C1825 C1826 1.349 . S
C1825 C1827 1.327 . S
C1825 H1848 0.950 . S
C1826 C1825 1.349 . S
C1826 C1838 1.349 . S
C1827 C1825 1.327 . S
C1827 C1843 1.429 . S
C1827 H1849 0.950 . S
C1828 H1824 0.949 . S
C1828 C1836 1.574 . S
C1828 C1844 1.368 . S
H1829 C1837 0.950 . S
H1830 C1835 0.950 . S
H1831 C1836 0.949 . S
H1832 C1838 0.950 . S
H1833 C1839 0.950 . S
H1834 C1840 0.949 . S
C1835 H1830 0.950 . S
C1835 C1837 1.327 . S
C1835 C1841 1.429 . S
C1836 C1828 1.574 . S
C1836 H1831 0.949 . S
C1836 C1842 1.368 . S
C1837 C1821 1.349 . S
C1837 H1829 0.950 . S
C1837 C1835 1.327 . S
C1838 C1826 1.349 . S
C1838 H1832 0.950 . S
C1838 C1839 1.327 . S
C1839 H1833 0.950 . S
C1839 C1838 1.327 . S
C1839 C1843 1.429 . S
C1840 C1823 1.574 . S
C1840 H1834 0.949 . S
C1840 C1844 1.368 . S
C1841 C1822 1.429 . S
C1841 C1835 1.429 . S
C1841 C1842 1.523 . S
C1842 C1823 1.368 . S
C1842 C1836 1.368 . S
C1842 C1841 1.523 . S
C1843 C1827 1.429 . S
C1843 C1839 1.429 . S
C1843 C1844 1.523 . S
C1844 C1828 1.368 . S
C1844 C1840 1.368 . S
C1844 C1843 1.523 . S
H1845 C1820 0.950 . S
H1846 C1822 0.950 . S
H1847 C1823 0.949 . S
H1848 C1825 0.950 . S
H1849 C1827 0.950 . S
C1850 C1851 1.349 . S
C1850 C1852 1.327 . S
C1850 H1875 0.950 . S
C1851 C1850 1.349 . S
C1851 C1867 1.349 . S
C1852 C1850 1.327 . S
C1852 C1871 1.429 . S
C1852 H1876 0.950 . S
C1853 C1870 1.574 . S
C1853 C1872 1.368 . S
C1853 H1877 0.949 . S
H1854 C1858 0.949 . S
C1855 C1856 1.349 . S
C1855 C1857 1.327 . S
C1855 H1878 0.950 . S
C1856 C1855 1.349 . S
C1856 C1868 1.349 . S
C1857 C1855 1.327 . S
C1857 C1873 1.429 . S
C1857 H1879 0.950 . S
C1858 H1854 0.949 . S
C1858 C1866 1.574 . S
C1858 C1874 1.368 . S
H1859 C1867 0.950 . S
H1860 C1865 0.950 . S
H1861 C1866 0.949 . S
H1862 C1868 0.950 . S
H1863 C1869 0.950 . S
H1864 C1870 0.949 . S
C1865 H1860 0.950 . S
C1865 C1867 1.327 . S
C1865 C1871 1.429 . S
C1866 C1858 1.574 . S
C1866 H1861 0.949 . S
C1866 C1872 1.368 . S
C1867 C1851 1.349 . S
C1867 H1859 0.950 . S
C1867 C1865 1.327 . S
C1868 C1856 1.349 . S
C1868 H1862 0.950 . S
C1868 C1869 1.327 . S
C1869 H1863 0.950 . S
C1869 C1868 1.327 . S
C1869 C1873 1.429 . S
C1870 C1853 1.574 . S
C1870 H1864 0.949 . S
C1870 C1874 1.368 . S
C1871 C1852 1.429 . S
C1871 C1865 1.429 . S
C1871 C1872 1.523 . S
C1872 C1853 1.368 . S
C1872 C1866 1.368 . S
C1872 C1871 1.523 . S
C1873 C1857 1.429 . S
C1873 C1869 1.429 . S
C1873 C1874 1.523 . S
C1874 C1858 1.368 . S
C1874 C1870 1.368 . S
C1874 C1873 1.523 . S
H1875 C1850 0.950 . S
H1876 C1852 0.950 . S
H1877 C1853 0.949 . S
H1878 C1855 0.950 . S
H1879 C1857 0.950 . S
C1880 C1881 1.349 . S
C1880 C1882 1.327 . S
C1880 H1905 0.950 . S
C1881 C1880 1.349 . S
C1881 C1897 1.349 1_565 S
C1882 C1880 1.327 . S
C1882 C1901 1.429 . S
C1882 H1906 0.950 . S
C1883 C1900 1.574 . S
C1883 C1902 1.368 1_545 S
C1883 H1907 0.949 . S
H1884 C1888 0.949 . S
C1885 C1886 1.349 1_545 S
C1885 C1887 1.327 . S
C1885 H1908 0.950 . S
C1886 C1885 1.349 1_565 S
C1886 C1898 1.349 . S
C1887 C1885 1.327 . S
C1887 C1903 1.429 1_545 S
C1887 H1909 0.950 . S
C1888 H1884 0.949 . S
C1888 C1896 1.574 . S
C1888 C1904 1.368 . S
H1889 C1897 0.950 . S
H1890 C1895 0.950 . S
H1891 C1896 0.949 . S
H1892 C1898 0.950 . S
H1893 C1899 0.950 . S
H1894 C1900 0.949 . S
C1895 H1890 0.950 . S
C1895 C1897 1.327 . S
C1895 C1901 1.429 1_545 S
C1896 C1888 1.574 . S
C1896 H1891 0.949 . S
C1896 C1902 1.368 . S
C1897 C1881 1.349 1_545 S
C1897 H1889 0.950 . S
C1897 C1895 1.327 . S
C1898 C1886 1.349 . S
C1898 H1892 0.950 . S
C1898 C1899 1.327 . S
C1899 H1893 0.950 . S
C1899 C1898 1.327 . S
C1899 C1903 1.429 . S
C1900 C1883 1.574 . S
C1900 H1894 0.949 . S
C1900 C1904 1.368 1_545 S
C1901 C1882 1.429 . S
C1901 C1895 1.429 1_565 S
C1901 C1902 1.523 . S
C1902 C1883 1.368 1_565 S
C1902 C1896 1.368 . S
C1902 C1901 1.523 . S
C1903 C1887 1.429 1_565 S
C1903 C1899 1.429 . S
C1903 C1904 1.523 . S
C1904 C1888 1.368 . S
C1904 C1900 1.368 1_565 S
C1904 C1903 1.523 . S
H1905 C1880 0.950 . S
H1906 C1882 0.950 . S
H1907 C1883 0.949 . S
H1908 C1885 0.950 . S
H1909 C1887 0.950 . S
C1910 C1911 1.349 . S
C1910 C1912 1.327 . S
C1910 H1935 0.950 . S
C1911 C1910 1.349 . S
C1911 C1927 1.349 . S
C1912 C1910 1.327 . S
C1912 C1931 1.429 . S
C1912 H1936 0.950 . S
C1913 C1930 1.574 . S
C1913 C1932 1.368 . S
C1913 H1937 0.949 . S
H1914 C1918 0.949 . S
C1915 C1916 1.349 . S
C1915 C1917 1.327 . S
C1915 H1938 0.950 . S
C1916 C1915 1.349 . S
C1916 C1928 1.349 . S
C1917 C1915 1.327 . S
C1917 C1933 1.429 . S
C1917 H1939 0.950 . S
C1918 H1914 0.949 . S
C1918 C1926 1.574 . S
C1918 C1934 1.368 . S
H1919 C1927 0.950 . S
H1920 C1925 0.950 . S
H1921 C1926 0.949 . S
H1922 C1928 0.950 . S
H1923 C1929 0.950 . S
H1924 C1930 0.949 . S
C1925 H1920 0.950 . S
C1925 C1927 1.327 . S
C1925 C1931 1.429 . S
C1926 C1918 1.574 . S
C1926 H1921 0.949 . S
C1926 C1932 1.368 . S
C1927 C1911 1.349 . S
C1927 H1919 0.950 . S
C1927 C1925 1.327 . S
C1928 C1916 1.349 . S
C1928 H1922 0.950 . S
C1928 C1929 1.327 . S
C1929 H1923 0.950 . S
C1929 C1928 1.327 . S
C1929 C1933 1.429 . S
C1930 C1913 1.574 . S
C1930 H1924 0.949 . S
C1930 C1934 1.368 . S
C1931 C1912 1.429 . S
C1931 C1925 1.429 . S
C1931 C1932 1.523 . S
C1932 C1913 1.368 . S
C1932 C1926 1.368 . S
C1932 C1931 1.523 . S
C1933 C1917 1.429 . S
C1933 C1929 1.429 . S
C1933 C1934 1.523 . S
C1934 C1918 1.368 . S
C1934 C1930 1.368 . S
C1934 C1933 1.523 . S
H1935 C1910 0.950 . S
H1936 C1912 0.950 . S
H1937 C1913 0.949 . S
H1938 C1915 0.950 . S
H1939 C1917 0.950 . S
C1940 C1941 1.349 . S
C1940 C1942 1.327 . S
C1940 H1965 0.950 . S
C1941 C1940 1.349 . S
C1941 C1957 1.349 1_545 S
C1942 C1940 1.327 . S
C1942 C1961 1.429 . S
C1942 H1966 0.950 . S
C1943 C1960 1.574 . S
C1943 C1962 1.368 1_565 S
C1943 H1967 0.949 . S
H1944 C1948 0.949 . S
C1945 C1946 1.349 1_565 S
C1945 C1947 1.327 . S
C1945 H1968 0.950 . S
C1946 C1945 1.349 1_545 S
C1946 C1958 1.349 . S
C1947 C1945 1.327 . S
C1947 C1963 1.429 1_565 S
C1947 H1969 0.950 . S
C1948 H1944 0.949 . S
C1948 C1956 1.574 . S
C1948 C1964 1.368 . S
H1949 C1957 0.950 . S
H1950 C1955 0.950 . S
H1951 C1956 0.949 . S
H1952 C1958 0.950 . S
H1953 C1959 0.950 . S
H1954 C1960 0.949 . S
C1955 H1950 0.950 . S
C1955 C1957 1.327 . S
C1955 C1961 1.429 1_565 S
C1956 C1948 1.574 . S
C1956 H1951 0.949 . S
C1956 C1962 1.368 . S
C1957 C1941 1.349 1_565 S
C1957 H1949 0.950 . S
C1957 C1955 1.327 . S
C1958 C1946 1.349 . S
C1958 H1952 0.950 . S
C1958 C1959 1.327 . S
C1959 H1953 0.950 . S
C1959 C1958 1.327 . S
C1959 C1963 1.429 . S
C1960 C1943 1.574 . S
C1960 H1954 0.949 . S
C1960 C1964 1.368 1_565 S
C1961 C1942 1.429 . S
C1961 C1955 1.429 1_545 S
C1961 C1962 1.523 . S
C1962 C1943 1.368 1_545 S
C1962 C1956 1.368 . S
C1962 C1961 1.523 . S
C1963 C1947 1.429 1_545 S
C1963 C1959 1.429 . S
C1963 C1964 1.523 . S
C1964 C1948 1.368 . S
C1964 C1960 1.368 1_545 S
C1964 C1963 1.523 . S
H1965 C1940 0.950 . S
H1966 C1942 0.950 . S
H1967 C1943 0.949 . S
H1968 C1945 0.950 . S
H1969 C1947 0.950 . S
C1970 C1971 1.349 . S
C1970 C1972 1.327 . S
C1970 H1995 0.950 . S
C1971 C1970 1.349 . S
C1971 C1987 1.349 . S
C1972 C1970 1.327 . S
C1972 C1991 1.429 . S
C1972 H1996 0.950 . S
C1973 C1990 1.574 . S
C1973 C1992 1.368 . S
C1973 H1997 0.949 . S
H1974 C1978 0.949 . S
C1975 C1976 1.349 . S
C1975 C1977 1.327 . S
C1975 H1998 0.950 . S
C1976 C1975 1.349 . S
C1976 C1988 1.349 . S
C1977 C1975 1.327 . S
C1977 C1993 1.429 . S
C1977 H1999 0.950 . S
C1978 H1974 0.949 . S
C1978 C1986 1.574 . S
C1978 C1994 1.368 . S
H1979 C1987 0.950 . S
H1980 C1985 0.950 . S
H1981 C1986 0.949 . S
H1982 C1988 0.950 . S
H1983 C1989 0.950 . S
H1984 C1990 0.949 . S
C1985 H1980 0.950 . S
C1985 C1987 1.327 . S
C1985 C1991 1.429 . S
C1986 C1978 1.574 . S
C1986 H1981 0.949 . S
C1986 C1992 1.368 . S
C1987 C1971 1.349 . S
C1987 H1979 0.950 . S
C1987 C1985 1.327 . S
C1988 C1976 1.349 . S
C1988 H1982 0.950 . S
C1988 C1989 1.327 . S
C1989 H1983 0.950 . S
C1989 C1988 1.327 . S
C1989 C1993 1.429 . S
C1990 C1973 1.574 . S
C1990 H1984 0.949 . S
C1990 C1994 1.368 . S
C1991 C1972 1.429 . S
C1991 C1985 1.429 . S
C1991 C1992 1.523 . S
C1992 C1973 1.368 . S
C1992 C1986 1.368 . S
C1992 C1991 1.523 . S
C1993 C1977 1.429 . S
C1993 C1989 1.429 . S
C1993 C1994 1.523 . S
C1994 C1978 1.368 . S
C1994 C1990 1.368 . S
C1994 C1993 1.523 . S
H1995 C1970 0.950 . S
H1996 C1972 0.950 . S
H1997 C1973 0.949 . S
H1998 C1975 0.950 . S
H1999 C1977 0.950 . S
C2000 C2001 1.349 . S
C2000 C2002 1.327 . S
C2000 H2025 0.950 . S
C2001 C2000 1.349 . S
C2001 C2017 1.349 . S
C2002 C2000 1.327 . S
C2002 C2021 1.429 . S
C2002 H2026 0.950 . S
C2003 C2020 1.574 . S
C2003 C2022 1.368 . S
C2003 H2027 0.949 . S
H2004 C2008 0.949 . S
C2005 C2006 1.349 . S
C2005 C2007 1.327 . S
C2005 H2028 0.950 . S
C2006 C2005 1.349 . S
C2006 C2018 1.349 . S
C2007 C2005 1.327 . S
C2007 C2023 1.429 . S
C2007 H2029 0.950 . S
C2008 H2004 0.949 . S
C2008 C2016 1.574 . S
C2008 C2024 1.368 . S
H2009 C2017 0.950 . S
H2010 C2015 0.950 . S
H2011 C2016 0.949 . S
H2012 C2018 0.950 . S
H2013 C2019 0.950 . S
H2014 C2020 0.949 . S
C2015 H2010 0.950 . S
C2015 C2017 1.327 . S
C2015 C2021 1.429 . S
C2016 C2008 1.574 . S
C2016 H2011 0.949 . S
C2016 C2022 1.368 . S
C2017 C2001 1.349 . S
C2017 H2009 0.950 . S
C2017 C2015 1.327 . S
C2018 C2006 1.349 . S
C2018 H2012 0.950 . S
C2018 C2019 1.327 . S
C2019 H2013 0.950 . S
C2019 C2018 1.327 . S
C2019 C2023 1.429 . S
C2020 C2003 1.574 . S
C2020 H2014 0.949 . S
C2020 C2024 1.368 . S
C2021 C2002 1.429 . S
C2021 C2015 1.429 . S
C2021 C2022 1.523 . S
C2022 C2003 1.368 . S
C2022 C2016 1.368 . S
C2022 C2021 1.523 . S
C2023 C2007 1.429 . S
C2023 C2019 1.429 . S
C2023 C2024 1.523 . S
C2024 C2008 1.368 . S
C2024 C2020 1.368 . S
C2024 C2023 1.523 . S
H2025 C2000 0.950 . S
H2026 C2002 0.950 . S
H2027 C2003 0.949 . S
H2028 C2005 0.950 . S
H2029 C2007 0.950 . S
C2030 C2031 1.349 . S
C2030 C2032 1.327 . S
C2030 H2055 0.950 . S
C2031 C2030 1.349 . S
C2031 C2047 1.349 . S
C2032 C2030 1.327 . S
C2032 C2051 1.429 . S
C2032 H2056 0.950 . S
C2033 C2050 1.574 . S
C2033 C2052 1.368 . S
C2033 H2057 0.949 . S
H2034 C2038 0.949 . S
C2035 C2036 1.349 . S
C2035 C2037 1.327 . S
C2035 H2058 0.950 . S
C2036 C2035 1.349 . S
C2036 C2048 1.349 . S
C2037 C2035 1.327 . S
C2037 C2053 1.429 . S
C2037 H2059 0.950 . S
C2038 H2034 0.949 . S
C2038 C2046 1.574 . S
C2038 C2054 1.368 . S
H2039 C2047 0.950 . S
H2040 C2045 0.950 . S
H2041 C2046 0.949 . S
H2042 C2048 0.950 . S
H2043 C2049 0.950 . S
H2044 C2050 0.949 . S
C2045 H2040 0.950 . S
C2045 C2047 1.327 . S
C2045 C2051 1.429 . S
C2046 C2038 1.574 . S
C2046 H2041 0.949 . S
C2046 C2052 1.368 . S
C2047 C2031 1.349 . S
C2047 H2039 0.950 . S
C2047 C2045 1.327 . S
C2048 C2036 1.349 . S
C2048 H2042 0.950 . S
C2048 C2049 1.327 . S
C2049 H2043 0.950 . S
C2049 C2048 1.327 . S
C2049 C2053 1.429 . S
C2050 C2033 1.574 . S
C2050 H2044 0.949 . S
C2050 C2054 1.368 . S
C2051 C2032 1.429 . S
C2051 C2045 1.429 . S
C2051 C2052 1.523 . S
C2052 C2033 1.368 . S
C2052 C2046 1.368 . S
C2052 C2051 1.523 . S
C2053 C2037 1.429 . S
C2053 C2049 1.429 . S
C2053 C2054 1.523 . S
C2054 C2038 1.368 . S
C2054 C2050 1.368 . S
C2054 C2053 1.523 . S
H2055 C2030 0.950 . S
H2056 C2032 0.950 . S
H2057 C2033 0.949 . S
H2058 C2035 0.950 . S
H2059 C2037 0.950 . S
C2060 C2061 1.349 . S
C2060 C2062 1.327 . S
C2060 H2085 0.950 . S
C2061 C2060 1.349 . S
C2061 C2077 1.349 . S
C2062 C2060 1.327 . S
C2062 C2081 1.429 . S
C2062 H2086 0.950 . S
C2063 C2080 1.574 . S
C2063 C2082 1.368 . S
C2063 H2087 0.949 . S
H2064 C2068 0.949 . S
C2065 C2066 1.349 . S
C2065 C2067 1.327 . S
C2065 H2088 0.950 . S
C2066 C2065 1.349 . S
C2066 C2078 1.349 . S
C2067 C2065 1.327 . S
C2067 C2083 1.429 . S
C2067 H2089 0.950 . S
C2068 H2064 0.949 . S
C2068 C2076 1.574 . S
C2068 C2084 1.368 . S
H2069 C2077 0.950 . S
H2070 C2075 0.950 . S
H2071 C2076 0.949 . S
H2072 C2078 0.950 . S
H2073 C2079 0.950 . S
H2074 C2080 0.949 . S
C2075 H2070 0.950 . S
C2075 C2077 1.327 . S
C2075 C2081 1.429 . S
C2076 C2068 1.574 . S
C2076 H2071 0.949 . S
C2076 C2082 1.368 . S
C2077 C2061 1.349 . S
C2077 H2069 0.950 . S
C2077 C2075 1.327 . S
C2078 C2066 1.349 . S
C2078 H2072 0.950 . S
C2078 C2079 1.327 . S
C2079 H2073 0.950 . S
C2079 C2078 1.327 . S
C2079 C2083 1.429 . S
C2080 C2063 1.574 . S
C2080 H2074 0.949 . S
C2080 C2084 1.368 . S
C2081 C2062 1.429 . S
C2081 C2075 1.429 . S
C2081 C2082 1.523 . S
C2082 C2063 1.368 . S
C2082 C2076 1.368 . S
C2082 C2081 1.523 . S
C2083 C2067 1.429 . S
C2083 C2079 1.429 . S
C2083 C2084 1.523 . S
C2084 C2068 1.368 . S
C2084 C2080 1.368 . S
C2084 C2083 1.523 . S
H2085 C2060 0.950 . S
H2086 C2062 0.950 . S
H2087 C2063 0.949 . S
H2088 C2065 0.950 . S
H2089 C2067 0.950 . S
C2090 C2091 1.349 . S
C2090 C2092 1.327 . S
C2090 H2115 0.950 . S
C2091 C2090 1.349 . S
C2091 C2107 1.349 . S
C2092 C2090 1.327 . S
C2092 C2111 1.429 . S
C2092 H2116 0.950 . S
C2093 C2110 1.574 . S
C2093 C2112 1.368 . S
C2093 H2117 0.949 . S
H2094 C2098 0.949 . S
C2095 C2096 1.349 . S
C2095 C2097 1.327 . S
C2095 H2118 0.950 . S
C2096 C2095 1.349 . S
C2096 C2108 1.349 . S
C2097 C2095 1.327 . S
C2097 C2113 1.429 . S
C2097 H2119 0.950 . S
C2098 H2094 0.949 . S
C2098 C2106 1.574 . S
C2098 C2114 1.368 . S
H2099 C2107 0.950 . S
H2100 C2105 0.950 . S
H2101 C2106 0.949 . S
H2102 C2108 0.950 . S
H2103 C2109 0.950 . S
H2104 C2110 0.949 . S
C2105 H2100 0.950 . S
C2105 C2107 1.327 . S
C2105 C2111 1.429 . S
C2106 C2098 1.574 . S
C2106 H2101 0.949 . S
C2106 C2112 1.368 . S
C2107 C2091 1.349 . S
C2107 H2099 0.950 . S
C2107 C2105 1.327 . S
C2108 C2096 1.349 . S
C2108 H2102 0.950 . S
C2108 C2109 1.327 . S
C2109 H2103 0.950 . S
C2109 C2108 1.327 . S
C2109 C2113 1.429 . S
C2110 C2093 1.574 . S
C2110 H2104 0.949 . S
C2110 C2114 1.368 . S
C2111 C2092 1.429 . S
C2111 C2105 1.429 . S
C2111 C2112 1.523 . S
C2112 C2093 1.368 . S
C2112 C2106 1.368 . S
C2112 C2111 1.523 . S
C2113 C2097 1.429 . S
C2113 C2109 1.429 . S
C2113 C2114 1.523 . S
C2114 C2098 1.368 . S
C2114 C2110 1.368 . S
C2114 C2113 1.523 . S
H2115 C2090 0.950 . S
H2116 C2092 0.950 . S
H2117 C2093 0.949 . S
H2118 C2095 0.950 . S
H2119 C2097 0.950 . S
C2120 C2121 1.349 1_545 S
C2120 C2122 1.327 . S
C2120 H2145 0.950 . S
C2121 C2120 1.349 1_565 S
C2121 C2137 1.349 . S
C2122 C2120 1.327 . S
C2122 C2141 1.429 1_545 S
C2122 H2146 0.950 . S
C2123 C2140 1.574 . S
C2123 C2142 1.368 . S
C2123 H2147 0.949 . S
H2124 C2128 0.949 . S
C2125 C2126 1.349 . S
C2125 C2127 1.327 . S
C2125 H2148 0.950 . S
C2126 C2125 1.349 . S
C2126 C2138 1.349 1_565 S
C2127 C2125 1.327 . S
C2127 C2143 1.429 . S
C2127 H2149 0.950 . S
C2128 H2124 0.949 . S
C2128 C2136 1.574 . S
C2128 C2144 1.368 1_545 S
H2129 C2137 0.950 . S
H2130 C2135 0.950 . S
H2131 C2136 0.949 . S
H2132 C2138 0.950 . S
H2133 C2139 0.950 . S
H2134 C2140 0.949 . S
C2135 H2130 0.950 . S
C2135 C2137 1.327 . S
C2135 C2141 1.429 . S
C2136 C2128 1.574 . S
C2136 H2131 0.949 . S
C2136 C2142 1.368 1_545 S
C2137 C2121 1.349 . S
C2137 H2129 0.950 . S
C2137 C2135 1.327 . S
C2138 C2126 1.349 1_545 S
C2138 H2132 0.950 . S
C2138 C2139 1.327 . S
C2139 H2133 0.950 . S
C2139 C2138 1.327 . S
C2139 C2143 1.429 1_545 S
C2140 C2123 1.574 . S
C2140 H2134 0.949 . S
C2140 C2144 1.368 . S
C2141 C2122 1.429 1_565 S
C2141 C2135 1.429 . S
C2141 C2142 1.523 . S
C2142 C2123 1.368 . S
C2142 C2136 1.368 1_565 S
C2142 C2141 1.523 . S
C2143 C2127 1.429 . S
C2143 C2139 1.429 1_565 S
C2143 C2144 1.523 . S
C2144 C2128 1.368 1_565 S
C2144 C2140 1.368 . S
C2144 C2143 1.523 . S
H2145 C2120 0.950 . S
H2146 C2122 0.950 . S
H2147 C2123 0.949 . S
H2148 C2125 0.950 . S
H2149 C2127 0.950 . S
C2150 C2151 1.349 . S
C2150 C2152 1.327 . S
C2150 H2175 0.950 . S
C2151 C2150 1.349 . S
C2151 C2167 1.349 . S
C2152 C2150 1.327 . S
C2152 C2171 1.429 . S
C2152 H2176 0.950 . S
C2153 C2170 1.574 . S
C2153 C2172 1.368 . S
C2153 H2177 0.949 . S
H2154 C2158 0.949 . S
C2155 C2156 1.349 . S
C2155 C2157 1.327 . S
C2155 H2178 0.950 . S
C2156 C2155 1.349 . S
C2156 C2168 1.349 . S
C2157 C2155 1.327 . S
C2157 C2173 1.429 . S
C2157 H2179 0.950 . S
C2158 H2154 0.949 . S
C2158 C2166 1.574 . S
C2158 C2174 1.368 . S
H2159 C2167 0.950 . S
H2160 C2165 0.950 . S
H2161 C2166 0.949 . S
H2162 C2168 0.950 . S
H2163 C2169 0.950 . S
H2164 C2170 0.949 . S
C2165 H2160 0.950 . S
C2165 C2167 1.327 . S
C2165 C2171 1.429 . S
C2166 C2158 1.574 . S
C2166 H2161 0.949 . S
C2166 C2172 1.368 . S
C2167 C2151 1.349 . S
C2167 H2159 0.950 . S
C2167 C2165 1.327 . S
C2168 C2156 1.349 . S
C2168 H2162 0.950 . S
C2168 C2169 1.327 . S
C2169 H2163 0.950 . S
C2169 C2168 1.327 . S
C2169 C2173 1.429 . S
C2170 C2153 1.574 . S
C2170 H2164 0.949 . S
C2170 C2174 1.368 . S
C2171 C2152 1.429 . S
C2171 C2165 1.429 . S
C2171 C2172 1.523 . S
C2172 C2153 1.368 . S
C2172 C2166 1.368 . S
C2172 C2171 1.523 . S
C2173 C2157 1.429 . S
C2173 C2169 1.429 . S
C2173 C2174 1.523 . S
C2174 C2158 1.368 . S
C2174 C2170 1.368 . S
C2174 C2173 1.523 . S
H2175 C2150 0.950 . S
H2176 C2152 0.950 . S
H2177 C2153 0.949 . S
H2178 C2155 0.950 . S
H2179 C2157 0.950 . S
C2180 C2181 1.349 . S
C2180 C2182 1.327 . S
C2180 H2205 0.950 . S
C2181 C2180 1.349 . S
C2181 C2197 1.349 1_545 S
C2182 C2180 1.327 . S
C2182 C2201 1.429 . S
C2182 H2206 0.950 . S
C2183 C2200 1.574 . S
C2183 C2202 1.368 1_565 S
C2183 H2207 0.949 . S
H2184 C2188 0.949 . S
C2185 C2186 1.349 1_565 S
C2185 C2187 1.327 . S
C2185 H2208 0.950 . S
C2186 C2185 1.349 1_545 S
C2186 C2198 1.349 . S
C2187 C2185 1.327 . S
C2187 C2203 1.429 1_565 S
C2187 H2209 0.950 . S
C2188 H2184 0.949 . S
C2188 C2196 1.574 . S
C2188 C2204 1.368 . S
H2189 C2197 0.950 . S
H2190 C2195 0.950 . S
H2191 C2196 0.949 . S
H2192 C2198 0.950 . S
H2193 C2199 0.950 . S
H2194 C2200 0.949 . S
C2195 H2190 0.950 . S
C2195 C2197 1.327 . S
C2195 C2201 1.429 1_565 S
C2196 C2188 1.574 . S
C2196 H2191 0.949 . S
C2196 C2202 1.368 . S
C2197 C2181 1.349 1_565 S
C2197 H2189 0.950 . S
C2197 C2195 1.327 . S
C2198 C2186 1.349 . S
C2198 H2192 0.950 . S
C2198 C2199 1.327 . S
C2199 H2193 0.950 . S
C2199 C2198 1.327 . S
C2199 C2203 1.429 . S
C2200 C2183 1.574 . S
C2200 H2194 0.949 . S
C2200 C2204 1.368 1_565 S
C2201 C2182 1.429 . S
C2201 C2195 1.429 1_545 S
C2201 C2202 1.523 . S
C2202 C2183 1.368 1_545 S
C2202 C2196 1.368 . S
C2202 C2201 1.523 . S
C2203 C2187 1.429 1_545 S
C2203 C2199 1.429 . S
C2203 C2204 1.523 . S
C2204 C2188 1.368 . S
C2204 C2200 1.368 1_545 S
C2204 C2203 1.523 . S
H2205 C2180 0.950 . S
H2206 C2182 0.950 . S
H2207 C2183 0.949 . S
H2208 C2185 0.950 . S
H2209 C2187 0.950 . S
C2210 C2211 1.349 . S
C2210 C2212 1.327 . S
C2210 H2235 0.950 . S
C2211 C2210 1.349 . S
C2211 C2227 1.349 . S
C2212 C2210 1.327 . S
C2212 C2231 1.429 . S
C2212 H2236 0.950 . S
C2213 C2230 1.574 . S
C2213 C2232 1.368 . S
C2213 H2237 0.949 . S
H2214 C2218 0.949 . S
C2215 C2216 1.349 . S
C2215 C2217 1.327 . S
C2215 H2238 0.950 . S
C2216 C2215 1.349 . S
C2216 C2228 1.349 . S
C2217 C2215 1.327 . S
C2217 C2233 1.429 . S
C2217 H2239 0.950 . S
C2218 H2214 0.949 . S
C2218 C2226 1.574 . S
C2218 C2234 1.368 . S
H2219 C2227 0.950 . S
H2220 C2225 0.950 . S
H2221 C2226 0.949 . S
H2222 C2228 0.950 . S
H2223 C2229 0.950 . S
H2224 C2230 0.949 . S
C2225 H2220 0.950 . S
C2225 C2227 1.327 . S
C2225 C2231 1.429 . S
C2226 C2218 1.574 . S
C2226 H2221 0.949 . S
C2226 C2232 1.368 . S
C2227 C2211 1.349 . S
C2227 H2219 0.950 . S
C2227 C2225 1.327 . S
C2228 C2216 1.349 . S
C2228 H2222 0.950 . S
C2228 C2229 1.327 . S
C2229 H2223 0.950 . S
C2229 C2228 1.327 . S
C2229 C2233 1.429 . S
C2230 C2213 1.574 . S
C2230 H2224 0.949 . S
C2230 C2234 1.368 . S
C2231 C2212 1.429 . S
C2231 C2225 1.429 . S
C2231 C2232 1.523 . S
C2232 C2213 1.368 . S
C2232 C2226 1.368 . S
C2232 C2231 1.523 . S
C2233 C2217 1.429 . S
C2233 C2229 1.429 . S
C2233 C2234 1.523 . S
C2234 C2218 1.368 . S
C2234 C2230 1.368 . S
C2234 C2233 1.523 . S
H2235 C2210 0.950 . S
H2236 C2212 0.950 . S
H2237 C2213 0.949 . S
H2238 C2215 0.950 . S
H2239 C2217 0.950 . S
C2240 C2241 1.349 . S
C2240 C2242 1.327 . S
C2240 H2265 0.950 . S
C2241 C2240 1.349 . S
C2241 C2257 1.349 . S
C2242 C2240 1.327 . S
C2242 C2261 1.429 . S
C2242 H2266 0.950 . S
C2243 C2260 1.574 . S
C2243 C2262 1.368 . S
C2243 H2267 0.949 . S
H2244 C2248 0.949 . S
C2245 C2246 1.349 . S
C2245 C2247 1.327 . S
C2245 H2268 0.950 . S
C2246 C2245 1.349 . S
C2246 C2258 1.349 . S
C2247 C2245 1.327 . S
C2247 C2263 1.429 . S
C2247 H2269 0.950 . S
C2248 H2244 0.949 . S
C2248 C2256 1.574 . S
C2248 C2264 1.368 . S
H2249 C2257 0.950 . S
H2250 C2255 0.950 . S
H2251 C2256 0.949 . S
H2252 C2258 0.950 . S
H2253 C2259 0.950 . S
H2254 C2260 0.949 . S
C2255 H2250 0.950 . S
C2255 C2257 1.327 . S
C2255 C2261 1.429 . S
C2256 C2248 1.574 . S
C2256 H2251 0.949 . S
C2256 C2262 1.368 . S
C2257 C2241 1.349 . S
C2257 H2249 0.950 . S
C2257 C2255 1.327 . S
C2258 C2246 1.349 . S
C2258 H2252 0.950 . S
C2258 C2259 1.327 . S
C2259 H2253 0.950 . S
C2259 C2258 1.327 . S
C2259 C2263 1.429 . S
C2260 C2243 1.574 . S
C2260 H2254 0.949 . S
C2260 C2264 1.368 . S
C2261 C2242 1.429 . S
C2261 C2255 1.429 . S
C2261 C2262 1.523 . S
C2262 C2243 1.368 . S
C2262 C2256 1.368 . S
C2262 C2261 1.523 . S
C2263 C2247 1.429 . S
C2263 C2259 1.429 . S
C2263 C2264 1.523 . S
C2264 C2248 1.368 . S
C2264 C2260 1.368 . S
C2264 C2263 1.523 . S
H2265 C2240 0.950 . S
H2266 C2242 0.950 . S
H2267 C2243 0.949 . S
H2268 C2245 0.950 . S
H2269 C2247 0.950 . S
C2270 C2271 1.349 . S
C2270 C2272 1.327 . S
C2270 H2295 0.950 . S
C2271 C2270 1.349 . S
C2271 C2287 1.349 . S
C2272 C2270 1.327 . S
C2272 C2291 1.429 . S
C2272 H2296 0.950 . S
C2273 C2290 1.574 . S
C2273 C2292 1.368 . S
C2273 H2297 0.949 . S
H2274 C2278 0.949 . S
C2275 C2276 1.349 . S
C2275 C2277 1.327 . S
C2275 H2298 0.950 . S
C2276 C2275 1.349 . S
C2276 C2288 1.349 . S
C2277 C2275 1.327 . S
C2277 C2293 1.429 . S
C2277 H2299 0.950 . S
C2278 H2274 0.949 . S
C2278 C2286 1.574 . S
C2278 C2294 1.368 . S
H2279 C2287 0.950 . S
H2280 C2285 0.950 . S
H2281 C2286 0.949 . S
H2282 C2288 0.950 . S
H2283 C2289 0.950 . S
H2284 C2290 0.949 . S
C2285 H2280 0.950 . S
C2285 C2287 1.327 . S
C2285 C2291 1.429 . S
C2286 C2278 1.574 . S
C2286 H2281 0.949 . S
C2286 C2292 1.368 . S
C2287 C2271 1.349 . S
C2287 H2279 0.950 . S
C2287 C2285 1.327 . S
C2288 C2276 1.349 . S
C2288 H2282 0.950 . S
C2288 C2289 1.327 . S
C2289 H2283 0.950 . S
C2289 C2288 1.327 . S
C2289 C2293 1.429 . S
C2290 C2273 1.574 . S
C2290 H2284 0.949 . S
C2290 C2294 1.368 . S
C2291 C2272 1.429 . S
C2291 C2285 1.429 . S
C2291 C2292 1.523 . S
C2292 C2273 1.368 . S
C2292 C2286 1.368 . S
C2292 C2291 1.523 . S
C2293 C2277 1.429 . S
C2293 C2289 1.429 . S
C2293 C2294 1.523 . S
C2294 C2278 1.368 . S
C2294 C2290 1.368 . S
C2294 C2293 1.523 . S
H2295 C2270 0.950 . S
H2296 C2272 0.950 . S
H2297 C2273 0.949 . S
H2298 C2275 0.950 . S
H2299 C2277 0.950 . S
C2300 C2301 1.349 . S
C2300 C2302 1.327 . S
C2300 H2325 0.950 . S
C2301 C2300 1.349 . S
C2301 C2317 1.349 . S
C2302 C2300 1.327 . S
C2302 C2321 1.429 . S
C2302 H2326 0.950 . S
C2303 C2320 1.574 . S
C2303 C2322 1.368 . S
C2303 H2327 0.949 . S
H2304 C2308 0.949 . S
C2305 C2306 1.349 . S
C2305 C2307 1.327 . S
C2305 H2328 0.950 . S
C2306 C2305 1.349 . S
C2306 C2318 1.349 . S
C2307 C2305 1.327 . S
C2307 C2323 1.429 . S
C2307 H2329 0.950 . S
C2308 H2304 0.949 . S
C2308 C2316 1.574 . S
C2308 C2324 1.368 . S
H2309 C2317 0.950 . S
H2310 C2315 0.950 . S
H2311 C2316 0.949 . S
H2312 C2318 0.950 . S
H2313 C2319 0.950 . S
H2314 C2320 0.949 . S
C2315 H2310 0.950 . S
C2315 C2317 1.327 . S
C2315 C2321 1.429 . S
C2316 C2308 1.574 . S
C2316 H2311 0.949 . S
C2316 C2322 1.368 . S
C2317 C2301 1.349 . S
C2317 H2309 0.950 . S
C2317 C2315 1.327 . S
C2318 C2306 1.349 . S
C2318 H2312 0.950 . S
C2318 C2319 1.327 . S
C2319 H2313 0.950 . S
C2319 C2318 1.327 . S
C2319 C2323 1.429 . S
C2320 C2303 1.574 . S
C2320 H2314 0.949 . S
C2320 C2324 1.368 . S
C2321 C2302 1.429 . S
C2321 C2315 1.429 . S
C2321 C2322 1.523 . S
C2322 C2303 1.368 . S
C2322 C2316 1.368 . S
C2322 C2321 1.523 . S
C2323 C2307 1.429 . S
C2323 C2319 1.429 . S
C2323 C2324 1.523 . S
C2324 C2308 1.368 . S
C2324 C2320 1.368 . S
C2324 C2323 1.523 . S
H2325 C2300 0.950 . S
H2326 C2302 0.950 . S
H2327 C2303 0.949 . S
H2328 C2305 0.950 . S
H2329 C2307 0.950 . S
C2330 C2331 1.349 . S
C2330 C2332 1.327 . S
C2330 H2355 0.950 . S
C2331 C2330 1.349 . S
C2331 C2347 1.349 . S
C2332 C2330 1.327 . S
C2332 C2351 1.429 . S
C2332 H2356 0.950 . S
C2333 C2350 1.574 . S
C2333 C2352 1.368 . S
C2333 H2357 0.949 . S
H2334 C2338 0.949 . S
C2335 C2336 1.349 . S
C2335 C2337 1.327 . S
C2335 H2358 0.950 . S
C2336 C2335 1.349 . S
C2336 C2348 1.349 . S
C2337 C2335 1.327 . S
C2337 C2353 1.429 . S
C2337 H2359 0.950 . S
C2338 H2334 0.949 . S
C2338 C2346 1.574 . S
C2338 C2354 1.368 . S
H2339 C2347 0.950 . S
H2340 C2345 0.950 . S
H2341 C2346 0.949 . S
H2342 C2348 0.950 . S
H2343 C2349 0.950 . S
H2344 C2350 0.949 . S
C2345 H2340 0.950 . S
C2345 C2347 1.327 . S
C2345 C2351 1.429 . S
C2346 C2338 1.574 . S
C2346 H2341 0.949 . S
C2346 C2352 1.368 . S
C2347 C2331 1.349 . S
C2347 H2339 0.950 . S
C2347 C2345 1.327 . S
C2348 C2336 1.349 . S
C2348 H2342 0.950 . S
C2348 C2349 1.327 . S
C2349 H2343 0.950 . S
C2349 C2348 1.327 . S
C2349 C2353 1.429 . S
C2350 C2333 1.574 . S
C2350 H2344 0.949 . S
C2350 C2354 1.368 . S
C2351 C2332 1.429 . S
C2351 C2345 1.429 . S
C2351 C2352 1.523 . S
C2352 C2333 1.368 . S
C2352 C2346 1.368 . S
C2352 C2351 1.523 . S
C2353 C2337 1.429 . S
C2353 C2349 1.429 . S
C2353 C2354 1.523 . S
C2354 C2338 1.368 . S
C2354 C2350 1.368 . S
C2354 C2353 1.523 . S
H2355 C2330 0.950 . S
H2356 C2332 0.950 . S
H2357 C2333 0.949 . S
H2358 C2335 0.950 . S
H2359 C2337 0.950 . S
C2360 C2361 1.349 . S
C2360 C2362 1.327 . S
C2360 H2385 0.950 . S
C2361 C2360 1.349 . S
C2361 C2377 1.349 . S
C2362 C2360 1.327 . S
C2362 C2381 1.429 . S
C2362 H2386 0.950 . S
C2363 C2380 1.574 . S
C2363 C2382 1.368 . S
C2363 H2387 0.949 . S
H2364 C2368 0.949 . S
C2365 C2366 1.349 . S
C2365 C2367 1.327 . S
C2365 H2388 0.950 . S
C2366 C2365 1.349 . S
C2366 C2378 1.349 . S
C2367 C2365 1.327 . S
C2367 C2383 1.429 . S
C2367 H2389 0.950 . S
C2368 H2364 0.949 . S
C2368 C2376 1.574 . S
C2368 C2384 1.368 . S
H2369 C2377 0.950 . S
H2370 C2375 0.950 . S
H2371 C2376 0.949 . S
H2372 C2378 0.950 . S
H2373 C2379 0.950 . S
H2374 C2380 0.949 . S
C2375 H2370 0.950 . S
C2375 C2377 1.327 . S
C2375 C2381 1.429 . S
C2376 C2368 1.574 . S
C2376 H2371 0.949 . S
C2376 C2382 1.368 . S
C2377 C2361 1.349 . S
C2377 H2369 0.950 . S
C2377 C2375 1.327 . S
C2378 C2366 1.349 . S
C2378 H2372 0.950 . S
C2378 C2379 1.327 . S
C2379 H2373 0.950 . S
C2379 C2378 1.327 . S
C2379 C2383 1.429 . S
C2380 C2363 1.574 . S
C2380 H2374 0.949 . S
C2380 C2384 1.368 . S
C2381 C2362 1.429 . S
C2381 C2375 1.429 . S
C2381 C2382 1.523 . S
C2382 C2363 1.368 . S
C2382 C2376 1.368 . S
C2382 C2381 1.523 . S
C2383 C2367 1.429 . S
C2383 C2379 1.429 . S
C2383 C2384 1.523 . S
C2384 C2368 1.368 . S
C2384 C2380 1.368 . S
C2384 C2383 1.523 . S
H2385 C2360 0.950 . S
H2386 C2362 0.950 . S
H2387 C2363 0.949 . S
H2388 C2365 0.950 . S
H2389 C2367 0.950 . S
C2390 C2391 1.349 . S
C2390 C2392 1.327 . S
C2390 H2415 0.950 . S
C2391 C2390 1.349 . S
C2391 C2407 1.349 . S
C2392 C2390 1.327 . S
C2392 C2411 1.429 . S
C2392 H2416 0.950 . S
C2393 C2410 1.574 . S
C2393 C2412 1.368 . S
C2393 H2417 0.949 . S
H2394 C2398 0.949 . S
C2395 C2396 1.349 . S
C2395 C2397 1.327 . S
C2395 H2418 0.950 . S
C2396 C2395 1.349 . S
C2396 C2408 1.349 . S
C2397 C2395 1.327 . S
C2397 C2413 1.429 . S
C2397 H2419 0.950 . S
C2398 H2394 0.949 . S
C2398 C2406 1.574 . S
C2398 C2414 1.368 . S
H2399 C2407 0.950 . S
H2400 C2405 0.950 . S
H2401 C2406 0.949 . S
H2402 C2408 0.950 . S
H2403 C2409 0.950 . S
H2404 C2410 0.949 . S
C2405 H2400 0.950 . S
C2405 C2407 1.327 . S
C2405 C2411 1.429 . S
C2406 C2398 1.574 . S
C2406 H2401 0.949 . S
C2406 C2412 1.368 . S
C2407 C2391 1.349 . S
C2407 H2399 0.950 . S
C2407 C2405 1.327 . S
C2408 C2396 1.349 . S
C2408 H2402 0.950 . S
C2408 C2409 1.327 . S
C2409 H2403 0.950 . S
C2409 C2408 1.327 . S
C2409 C2413 1.429 . S
C2410 C2393 1.574 . S
C2410 H2404 0.949 . S
C2410 C2414 1.368 . S
C2411 C2392 1.429 . S
C2411 C2405 1.429 . S
C2411 C2412 1.523 . S
C2412 C2393 1.368 . S
C2412 C2406 1.368 . S
C2412 C2411 1.523 . S
C2413 C2397 1.429 . S
C2413 C2409 1.429 . S
C2413 C2414 1.523 . S
C2414 C2398 1.368 . S
C2414 C2410 1.368 . S
C2414 C2413 1.523 . S
H2415 C2390 0.950 . S
H2416 C2392 0.950 . S
H2417 C2393 0.949 . S
H2418 C2395 0.950 . S
H2419 C2397 0.950 . S
C2420 C2421 1.349 . S
C2420 C2422 1.327 . S
C2420 H2445 0.950 . S
C2421 C2420 1.349 . S
C2421 C2437 1.349 . S
C2422 C2420 1.327 . S
C2422 C2441 1.429 . S
C2422 H2446 0.950 . S
C2423 C2440 1.574 . S
C2423 C2442 1.368 . S
C2423 H2447 0.949 . S
H2424 C2428 0.949 . S
C2425 C2426 1.349 . S
C2425 C2427 1.327 . S
C2425 H2448 0.950 . S
C2426 C2425 1.349 . S
C2426 C2438 1.349 . S
C2427 C2425 1.327 . S
C2427 C2443 1.429 . S
C2427 H2449 0.950 . S
C2428 H2424 0.949 . S
C2428 C2436 1.574 . S
C2428 C2444 1.368 . S
H2429 C2437 0.950 . S
H2430 C2435 0.950 . S
H2431 C2436 0.949 . S
H2432 C2438 0.950 . S
H2433 C2439 0.950 . S
H2434 C2440 0.949 . S
C2435 H2430 0.950 . S
C2435 C2437 1.327 . S
C2435 C2441 1.429 . S
C2436 C2428 1.574 . S
C2436 H2431 0.949 . S
C2436 C2442 1.368 . S
C2437 C2421 1.349 . S
C2437 H2429 0.950 . S
C2437 C2435 1.327 . S
C2438 C2426 1.349 . S
C2438 H2432 0.950 . S
C2438 C2439 1.327 . S
C2439 H2433 0.950 . S
C2439 C2438 1.327 . S
C2439 C2443 1.429 . S
C2440 C2423 1.574 . S
C2440 H2434 0.949 . S
C2440 C2444 1.368 . S
C2441 C2422 1.429 . S
C2441 C2435 1.429 . S
C2441 C2442 1.523 . S
C2442 C2423 1.368 . S
C2442 C2436 1.368 . S
C2442 C2441 1.523 . S
C2443 C2427 1.429 . S
C2443 C2439 1.429 . S
C2443 C2444 1.523 . S
C2444 C2428 1.368 . S
C2444 C2440 1.368 . S
C2444 C2443 1.523 . S
H2445 C2420 0.950 . S
H2446 C2422 0.950 . S
H2447 C2423 0.949 . S
H2448 C2425 0.950 . S
H2449 C2427 0.950 . S
C2450 C2451 1.349 . S
C2450 C2452 1.327 . S
C2450 H2475 0.950 . S
C2451 C2450 1.349 . S
C2451 C2467 1.349 . S
C2452 C2450 1.327 . S
C2452 C2471 1.429 . S
C2452 H2476 0.950 . S
C2453 C2470 1.574 . S
C2453 C2472 1.368 . S
C2453 H2477 0.949 . S
H2454 C2458 0.949 . S
C2455 C2456 1.349 . S
C2455 C2457 1.327 . S
C2455 H2478 0.950 . S
C2456 C2455 1.349 . S
C2456 C2468 1.349 . S
C2457 C2455 1.327 . S
C2457 C2473 1.429 . S
C2457 H2479 0.950 . S
C2458 H2454 0.949 . S
C2458 C2466 1.574 . S
C2458 C2474 1.368 . S
H2459 C2467 0.950 . S
H2460 C2465 0.950 . S
H2461 C2466 0.949 . S
H2462 C2468 0.950 . S
H2463 C2469 0.950 . S
H2464 C2470 0.949 . S
C2465 H2460 0.950 . S
C2465 C2467 1.327 . S
C2465 C2471 1.429 . S
C2466 C2458 1.574 . S
C2466 H2461 0.949 . S
C2466 C2472 1.368 . S
C2467 C2451 1.349 . S
C2467 H2459 0.950 . S
C2467 C2465 1.327 . S
C2468 C2456 1.349 . S
C2468 H2462 0.950 . S
C2468 C2469 1.327 . S
C2469 H2463 0.950 . S
C2469 C2468 1.327 . S
C2469 C2473 1.429 . S
C2470 C2453 1.574 . S
C2470 H2464 0.949 . S
C2470 C2474 1.368 . S
C2471 C2452 1.429 . S
C2471 C2465 1.429 . S
C2471 C2472 1.523 . S
C2472 C2453 1.368 . S
C2472 C2466 1.368 . S
C2472 C2471 1.523 . S
C2473 C2457 1.429 . S
C2473 C2469 1.429 . S
C2473 C2474 1.523 . S
C2474 C2458 1.368 . S
C2474 C2470 1.368 . S
C2474 C2473 1.523 . S
H2475 C2450 0.950 . S
H2476 C2452 0.950 . S
H2477 C2453 0.949 . S
H2478 C2455 0.950 . S
H2479 C2457 0.950 . S
C2480 C2481 1.349 . S
C2480 C2482 1.327 . S
C2480 H2505 0.950 . S
C2481 C2480 1.349 . S
C2481 C2497 1.349 . S
C2482 C2480 1.327 . S
C2482 C2501 1.429 . S
C2482 H2506 0.950 . S
C2483 C2500 1.574 . S
C2483 C2502 1.368 . S
C2483 H2507 0.949 . S
H2484 C2488 0.949 . S
C2485 C2486 1.349 . S
C2485 C2487 1.327 . S
C2485 H2508 0.950 . S
C2486 C2485 1.349 . S
C2486 C2498 1.349 . S
C2487 C2485 1.327 . S
C2487 C2503 1.429 . S
C2487 H2509 0.950 . S
C2488 H2484 0.949 . S
C2488 C2496 1.574 . S
C2488 C2504 1.368 . S
H2489 C2497 0.950 . S
H2490 C2495 0.950 . S
H2491 C2496 0.949 . S
H2492 C2498 0.950 . S
H2493 C2499 0.950 . S
H2494 C2500 0.949 . S
C2495 H2490 0.950 . S
C2495 C2497 1.327 . S
C2495 C2501 1.429 . S
C2496 C2488 1.574 . S
C2496 H2491 0.949 . S
C2496 C2502 1.368 . S
C2497 C2481 1.349 . S
C2497 H2489 0.950 . S
C2497 C2495 1.327 . S
C2498 C2486 1.349 . S
C2498 H2492 0.950 . S
C2498 C2499 1.327 . S
C2499 H2493 0.950 . S
C2499 C2498 1.327 . S
C2499 C2503 1.429 . S
C2500 C2483 1.574 . S
C2500 H2494 0.949 . S
C2500 C2504 1.368 . S
C2501 C2482 1.429 . S
C2501 C2495 1.429 . S
C2501 C2502 1.523 . S
C2502 C2483 1.368 . S
C2502 C2496 1.368 . S
C2502 C2501 1.523 . S
C2503 C2487 1.429 . S
C2503 C2499 1.429 . S
C2503 C2504 1.523 . S
C2504 C2488 1.368 . S
C2504 C2500 1.368 . S
C2504 C2503 1.523 . S
H2505 C2480 0.950 . S
H2506 C2482 0.950 . S
H2507 C2483 0.949 . S
H2508 C2485 0.950 . S
H2509 C2487 0.950 . S
C2510 C2511 1.349 . S
C2510 C2512 1.327 . S
C2510 H2535 0.950 . S
C2511 C2510 1.349 . S
C2511 C2527 1.349 . S
C2512 C2510 1.327 . S
C2512 C2531 1.429 . S
C2512 H2536 0.950 . S
C2513 C2530 1.574 . S
C2513 C2532 1.368 . S
C2513 H2537 0.949 . S
H2514 C2518 0.949 . S
C2515 C2516 1.349 . S
C2515 C2517 1.327 . S
C2515 H2538 0.950 . S
C2516 C2515 1.349 . S
C2516 C2528 1.349 . S
C2517 C2515 1.327 . S
C2517 C2533 1.429 . S
C2517 H2539 0.950 . S
C2518 H2514 0.949 . S
C2518 C2526 1.574 . S
C2518 C2534 1.368 . S
H2519 C2527 0.950 . S
H2520 C2525 0.950 . S
H2521 C2526 0.949 . S
H2522 C2528 0.950 . S
H2523 C2529 0.950 . S
H2524 C2530 0.949 . S
C2525 H2520 0.950 . S
C2525 C2527 1.327 . S
C2525 C2531 1.429 . S
C2526 C2518 1.574 . S
C2526 H2521 0.949 . S
C2526 C2532 1.368 . S
C2527 C2511 1.349 . S
C2527 H2519 0.950 . S
C2527 C2525 1.327 . S
C2528 C2516 1.349 . S
C2528 H2522 0.950 . S
C2528 C2529 1.327 . S
C2529 H2523 0.950 . S
C2529 C2528 1.327 . S
C2529 C2533 1.429 . S
C2530 C2513 1.574 . S
C2530 H2524 0.949 . S
C2530 C2534 1.368 . S
C2531 C2512 1.429 . S
C2531 C2525 1.429 . S
C2531 C2532 1.523 . S
C2532 C2513 1.368 . S
C2532 C2526 1.368 . S
C2532 C2531 1.523 . S
C2533 C2517 1.429 . S
C2533 C2529 1.429 . S
C2533 C2534 1.523 . S
C2534 C2518 1.368 . S
C2534 C2530 1.368 . S
C2534 C2533 1.523 . S
H2535 C2510 0.950 . S
H2536 C2512 0.950 . S
H2537 C2513 0.949 . S
H2538 C2515 0.950 . S
H2539 C2517 0.950 . S
C2540 C2541 1.349 . S
C2540 C2542 1.327 . S
C2540 H2565 0.950 . S
C2541 C2540 1.349 . S
C2541 C2557 1.349 . S
C2542 C2540 1.327 . S
C2542 C2561 1.429 . S
C2542 H2566 0.950 . S
C2543 C2560 1.574 . S
C2543 C2562 1.368 . S
C2543 H2567 0.949 . S
H2544 C2548 0.949 . S
C2545 C2546 1.349 . S
C2545 C2547 1.327 . S
C2545 H2568 0.950 . S
C2546 C2545 1.349 . S
C2546 C2558 1.349 . S
C2547 C2545 1.327 . S
C2547 C2563 1.429 . S
C2547 H2569 0.950 . S
C2548 H2544 0.949 . S
C2548 C2556 1.574 . S
C2548 C2564 1.368 . S
H2549 C2557 0.950 . S
H2550 C2555 0.950 . S
H2551 C2556 0.949 . S
H2552 C2558 0.950 . S
H2553 C2559 0.950 . S
H2554 C2560 0.949 . S
C2555 H2550 0.950 . S
C2555 C2557 1.327 . S
C2555 C2561 1.429 . S
C2556 C2548 1.574 . S
C2556 H2551 0.949 . S
C2556 C2562 1.368 . S
C2557 C2541 1.349 . S
C2557 H2549 0.950 . S
C2557 C2555 1.327 . S
C2558 C2546 1.349 . S
C2558 H2552 0.950 . S
C2558 C2559 1.327 . S
C2559 H2553 0.950 . S
C2559 C2558 1.327 . S
C2559 C2563 1.429 . S
C2560 C2543 1.574 . S
C2560 H2554 0.949 . S
C2560 C2564 1.368 . S
C2561 C2542 1.429 . S
C2561 C2555 1.429 . S
C2561 C2562 1.523 . S
C2562 C2543 1.368 . S
C2562 C2556 1.368 . S
C2562 C2561 1.523 . S
C2563 C2547 1.429 . S
C2563 C2559 1.429 . S
C2563 C2564 1.523 . S
C2564 C2548 1.368 . S
C2564 C2560 1.368 . S
C2564 C2563 1.523 . S
H2565 C2540 0.950 . S
H2566 C2542 0.950 . S
H2567 C2543 0.949 . S
H2568 C2545 0.950 . S
H2569 C2547 0.950 . S
C2570 C2571 1.349 . S
C2570 C2572 1.327 . S
C2570 H2595 0.950 . S
C2571 C2570 1.349 . S
C2571 C2587 1.349 . S
C2572 C2570 1.327 . S
C2572 C2591 1.429 . S
C2572 H2596 0.950 . S
C2573 C2590 1.574 . S
C2573 C2592 1.368 . S
C2573 H2597 0.949 . S
H2574 C2578 0.949 . S
C2575 C2576 1.349 . S
C2575 C2577 1.327 . S
C2575 H2598 0.950 . S
C2576 C2575 1.349 . S
C2576 C2588 1.349 . S
C2577 C2575 1.327 . S
C2577 C2593 1.429 . S
C2577 H2599 0.950 . S
C2578 H2574 0.949 . S
C2578 C2586 1.574 . S
C2578 C2594 1.368 . S
H2579 C2587 0.950 . S
H2580 C2585 0.950 . S
H2581 C2586 0.949 . S
H2582 C2588 0.950 . S
H2583 C2589 0.950 . S
H2584 C2590 0.949 . S
C2585 H2580 0.950 . S
C2585 C2587 1.327 . S
C2585 C2591 1.429 . S
C2586 C2578 1.574 . S
C2586 H2581 0.949 . S
C2586 C2592 1.368 . S
C2587 C2571 1.349 . S
C2587 H2579 0.950 . S
C2587 C2585 1.327 . S
C2588 C2576 1.349 . S
C2588 H2582 0.950 . S
C2588 C2589 1.327 . S
C2589 H2583 0.950 . S
C2589 C2588 1.327 . S
C2589 C2593 1.429 . S
C2590 C2573 1.574 . S
C2590 H2584 0.949 . S
C2590 C2594 1.368 . S
C2591 C2572 1.429 . S
C2591 C2585 1.429 . S
C2591 C2592 1.523 . S
C2592 C2573 1.368 . S
C2592 C2586 1.368 . S
C2592 C2591 1.523 . S
C2593 C2577 1.429 . S
C2593 C2589 1.429 . S
C2593 C2594 1.523 . S
C2594 C2578 1.368 . S
C2594 C2590 1.368 . S
C2594 C2593 1.523 . S
H2595 C2570 0.950 . S
H2596 C2572 0.950 . S
H2597 C2573 0.949 . S
H2598 C2575 0.950 . S
H2599 C2577 0.950 . S
C2600 C2601 1.349 . S
C2600 C2602 1.327 . S
C2600 H2625 0.950 . S
C2601 C2600 1.349 . S
C2601 C2617 1.349 . S
C2602 C2600 1.327 . S
C2602 C2621 1.429 . S
C2602 H2626 0.950 . S
C2603 C2620 1.574 . S
C2603 C2622 1.368 . S
C2603 H2627 0.949 . S
H2604 C2608 0.949 . S
C2605 C2606 1.349 . S
C2605 C2607 1.327 . S
C2605 H2628 0.950 . S
C2606 C2605 1.349 . S
C2606 C2618 1.349 . S
C2607 C2605 1.327 . S
C2607 C2623 1.429 . S
C2607 H2629 0.950 . S
C2608 H2604 0.949 . S
C2608 C2616 1.574 . S
C2608 C2624 1.368 . S
H2609 C2617 0.950 . S
H2610 C2615 0.950 . S
H2611 C2616 0.949 . S
H2612 C2618 0.950 . S
H2613 C2619 0.950 . S
H2614 C2620 0.949 . S
C2615 H2610 0.950 . S
C2615 C2617 1.327 . S
C2615 C2621 1.429 . S
C2616 C2608 1.574 . S
C2616 H2611 0.949 . S
C2616 C2622 1.368 . S
C2617 C2601 1.349 . S
C2617 H2609 0.950 . S
C2617 C2615 1.327 . S
C2618 C2606 1.349 . S
C2618 H2612 0.950 . S
C2618 C2619 1.327 . S
C2619 H2613 0.950 . S
C2619 C2618 1.327 . S
C2619 C2623 1.429 . S
C2620 C2603 1.574 . S
C2620 H2614 0.949 . S
C2620 C2624 1.368 . S
C2621 C2602 1.429 . S
C2621 C2615 1.429 . S
C2621 C2622 1.523 . S
C2622 C2603 1.368 . S
C2622 C2616 1.368 . S
C2622 C2621 1.523 . S
C2623 C2607 1.429 . S
C2623 C2619 1.429 . S
C2623 C2624 1.523 . S
C2624 C2608 1.368 . S
C2624 C2620 1.368 . S
C2624 C2623 1.523 . S
H2625 C2600 0.950 . S
H2626 C2602 0.950 . S
H2627 C2603 0.949 . S
H2628 C2605 0.950 . S
H2629 C2607 0.950 . S
C2630 C2631 1.349 . S
C2630 C2632 1.327 . S
C2630 H2655 0.950 . S
C2631 C2630 1.349 . S
C2631 C2647 1.349 . S
C2632 C2630 1.327 . S
C2632 C2651 1.429 . S
C2632 H2656 0.950 . S
C2633 C2650 1.574 . S
C2633 C2652 1.368 . S
C2633 H2657 0.949 . S
H2634 C2638 0.949 . S
C2635 C2636 1.349 . S
C2635 C2637 1.327 . S
C2635 H2658 0.950 . S
C2636 C2635 1.349 . S
C2636 C2648 1.349 . S
C2637 C2635 1.327 . S
C2637 C2653 1.429 . S
C2637 H2659 0.950 . S
C2638 H2634 0.949 . S
C2638 C2646 1.574 . S
C2638 C2654 1.368 . S
H2639 C2647 0.950 . S
H2640 C2645 0.950 . S
H2641 C2646 0.949 . S
H2642 C2648 0.950 . S
H2643 C2649 0.950 . S
H2644 C2650 0.949 . S
C2645 H2640 0.950 . S
C2645 C2647 1.327 . S
C2645 C2651 1.429 . S
C2646 C2638 1.574 . S
C2646 H2641 0.949 . S
C2646 C2652 1.368 . S
C2647 C2631 1.349 . S
C2647 H2639 0.950 . S
C2647 C2645 1.327 . S
C2648 C2636 1.349 . S
C2648 H2642 0.950 . S
C2648 C2649 1.327 . S
C2649 H2643 0.950 . S
C2649 C2648 1.327 . S
C2649 C2653 1.429 . S
C2650 C2633 1.574 . S
C2650 H2644 0.949 . S
C2650 C2654 1.368 . S
C2651 C2632 1.429 . S
C2651 C2645 1.429 . S
C2651 C2652 1.523 . S
C2652 C2633 1.368 . S
C2652 C2646 1.368 . S
C2652 C2651 1.523 . S
C2653 C2637 1.429 . S
C2653 C2649 1.429 . S
C2653 C2654 1.523 . S
C2654 C2638 1.368 . S
C2654 C2650 1.368 . S
C2654 C2653 1.523 . S
H2655 C2630 0.950 . S
H2656 C2632 0.950 . S
H2657 C2633 0.949 . S
H2658 C2635 0.950 . S
H2659 C2637 0.950 . S
C2660 C2661 1.349 . S
C2660 C2662 1.327 . S
C2660 H2685 0.950 . S
C2661 C2660 1.349 . S
C2661 C2677 1.349 . S
C2662 C2660 1.327 . S
C2662 C2681 1.429 . S
C2662 H2686 0.950 . S
C2663 C2680 1.574 . S
C2663 C2682 1.368 . S
C2663 H2687 0.949 . S
H2664 C2668 0.949 . S
C2665 C2666 1.349 . S
C2665 C2667 1.327 . S
C2665 H2688 0.950 . S
C2666 C2665 1.349 . S
C2666 C2678 1.349 . S
C2667 C2665 1.327 . S
C2667 C2683 1.429 . S
C2667 H2689 0.950 . S
C2668 H2664 0.949 . S
C2668 C2676 1.574 . S
C2668 C2684 1.368 . S
H2669 C2677 0.950 . S
H2670 C2675 0.950 . S
H2671 C2676 0.949 . S
H2672 C2678 0.950 . S
H2673 C2679 0.950 . S
H2674 C2680 0.949 . S
C2675 H2670 0.950 . S
C2675 C2677 1.327 . S
C2675 C2681 1.429 . S
C2676 C2668 1.574 . S
C2676 H2671 0.949 . S
C2676 C2682 1.368 . S
C2677 C2661 1.349 . S
C2677 H2669 0.950 . S
C2677 C2675 1.327 . S
C2678 C2666 1.349 . S
C2678 H2672 0.950 . S
C2678 C2679 1.327 . S
C2679 H2673 0.950 . S
C2679 C2678 1.327 . S
C2679 C2683 1.429 . S
C2680 C2663 1.574 . S
C2680 H2674 0.949 . S
C2680 C2684 1.368 . S
C2681 C2662 1.429 . S
C2681 C2675 1.429 . S
C2681 C2682 1.523 . S
C2682 C2663 1.368 . S
C2682 C2676 1.368 . S
C2682 C2681 1.523 . S
C2683 C2667 1.429 . S
C2683 C2679 1.429 . S
C2683 C2684 1.523 . S
C2684 C2668 1.368 . S
C2684 C2680 1.368 . S
C2684 C2683 1.523 . S
H2685 C2660 0.950 . S
H2686 C2662 0.950 . S
H2687 C2663 0.949 . S
H2688 C2665 0.950 . S
H2689 C2667 0.950 . S
C2690 C2691 1.349 . S
C2690 C2692 1.327 . S
C2690 H2715 0.950 . S
C2691 C2690 1.349 . S
C2691 C2707 1.349 . S
C2692 C2690 1.327 . S
C2692 C2711 1.429 . S
C2692 H2716 0.950 . S
C2693 C2710 1.574 . S
C2693 C2712 1.368 . S
C2693 H2717 0.949 . S
H2694 C2698 0.949 . S
C2695 C2696 1.349 . S
C2695 C2697 1.327 . S
C2695 H2718 0.950 . S
C2696 C2695 1.349 . S
C2696 C2708 1.349 . S
C2697 C2695 1.327 . S
C2697 C2713 1.429 . S
C2697 H2719 0.950 . S
C2698 H2694 0.949 . S
C2698 C2706 1.574 . S
C2698 C2714 1.368 . S
H2699 C2707 0.950 . S
H2700 C2705 0.950 . S
H2701 C2706 0.949 . S
H2702 C2708 0.950 . S
H2703 C2709 0.950 . S
H2704 C2710 0.949 . S
C2705 H2700 0.950 . S
C2705 C2707 1.327 . S
C2705 C2711 1.429 . S
C2706 C2698 1.574 . S
C2706 H2701 0.949 . S
C2706 C2712 1.368 . S
C2707 C2691 1.349 . S
C2707 H2699 0.950 . S
C2707 C2705 1.327 . S
C2708 C2696 1.349 . S
C2708 H2702 0.950 . S
C2708 C2709 1.327 . S
C2709 H2703 0.950 . S
C2709 C2708 1.327 . S
C2709 C2713 1.429 . S
C2710 C2693 1.574 . S
C2710 H2704 0.949 . S
C2710 C2714 1.368 . S
C2711 C2692 1.429 . S
C2711 C2705 1.429 . S
C2711 C2712 1.523 . S
C2712 C2693 1.368 . S
C2712 C2706 1.368 . S
C2712 C2711 1.523 . S
C2713 C2697 1.429 . S
C2713 C2709 1.429 . S
C2713 C2714 1.523 . S
C2714 C2698 1.368 . S
C2714 C2710 1.368 . S
C2714 C2713 1.523 . S
H2715 C2690 0.950 . S
H2716 C2692 0.950 . S
H2717 C2693 0.949 . S
H2718 C2695 0.950 . S
H2719 C2697 0.950 . S
C2720 C2721 1.349 . S
C2720 C2722 1.327 . S
C2720 H2745 0.950 . S
C2721 C2720 1.349 . S
C2721 C2737 1.349 . S
C2722 C2720 1.327 . S
C2722 C2741 1.429 . S
C2722 H2746 0.950 . S
C2723 C2740 1.574 . S
C2723 C2742 1.368 . S
C2723 H2747 0.949 . S
H2724 C2728 0.949 . S
C2725 C2726 1.349 . S
C2725 C2727 1.327 . S
C2725 H2748 0.950 . S
C2726 C2725 1.349 . S
C2726 C2738 1.349 . S
C2727 C2725 1.327 . S
C2727 C2743 1.429 . S
C2727 H2749 0.950 . S
C2728 H2724 0.949 . S
C2728 C2736 1.574 . S
C2728 C2744 1.368 . S
H2729 C2737 0.950 . S
H2730 C2735 0.950 . S
H2731 C2736 0.949 . S
H2732 C2738 0.950 . S
H2733 C2739 0.950 . S
H2734 C2740 0.949 . S
C2735 H2730 0.950 . S
C2735 C2737 1.327 . S
C2735 C2741 1.429 . S
C2736 C2728 1.574 . S
C2736 H2731 0.949 . S
C2736 C2742 1.368 . S
C2737 C2721 1.349 . S
C2737 H2729 0.950 . S
C2737 C2735 1.327 . S
C2738 C2726 1.349 . S
C2738 H2732 0.950 . S
C2738 C2739 1.327 . S
C2739 H2733 0.950 . S
C2739 C2738 1.327 . S
C2739 C2743 1.429 . S
C2740 C2723 1.574 . S
C2740 H2734 0.949 . S
C2740 C2744 1.368 . S
C2741 C2722 1.429 . S
C2741 C2735 1.429 . S
C2741 C2742 1.523 . S
C2742 C2723 1.368 . S
C2742 C2736 1.368 . S
C2742 C2741 1.523 . S
C2743 C2727 1.429 . S
C2743 C2739 1.429 . S
C2743 C2744 1.523 . S
C2744 C2728 1.368 . S
C2744 C2740 1.368 . S
C2744 C2743 1.523 . S
H2745 C2720 0.950 . S
H2746 C2722 0.950 . S
H2747 C2723 0.949 . S
H2748 C2725 0.950 . S
H2749 C2727 0.950 . S
C2750 C2751 1.349 . S
C2750 C2752 1.327 . S
C2750 H2775 0.950 . S
C2751 C2750 1.349 . S
C2751 C2767 1.349 . S
C2752 C2750 1.327 . S
C2752 C2771 1.429 . S
C2752 H2776 0.950 . S
C2753 C2770 1.574 . S
C2753 C2772 1.368 . S
C2753 H2777 0.949 . S
H2754 C2758 0.949 . S
C2755 C2756 1.349 . S
C2755 C2757 1.327 . S
C2755 H2778 0.950 . S
C2756 C2755 1.349 . S
C2756 C2768 1.349 . S
C2757 C2755 1.327 . S
C2757 C2773 1.429 . S
C2757 H2779 0.950 . S
C2758 H2754 0.949 . S
C2758 C2766 1.574 . S
C2758 C2774 1.368 . S
H2759 C2767 0.950 . S
H2760 C2765 0.950 . S
H2761 C2766 0.949 . S
H2762 C2768 0.950 . S
H2763 C2769 0.950 . S
H2764 C2770 0.949 . S
C2765 H2760 0.950 . S
C2765 C2767 1.327 . S
C2765 C2771 1.429 . S
C2766 C2758 1.574 . S
C2766 H2761 0.949 . S
C2766 C2772 1.368 . S
C2767 C2751 1.349 . S
C2767 H2759 0.950 . S
C2767 C2765 1.327 . S
C2768 C2756 1.349 . S
C2768 H2762 0.950 . S
C2768 C2769 1.327 . S
C2769 H2763 0.950 . S
C2769 C2768 1.327 . S
C2769 C2773 1.429 . S
C2770 C2753 1.574 . S
C2770 H2764 0.949 . S
C2770 C2774 1.368 . S
C2771 C2752 1.429 . S
C2771 C2765 1.429 . S
C2771 C2772 1.523 . S
C2772 C2753 1.368 . S
C2772 C2766 1.368 . S
C2772 C2771 1.523 . S
C2773 C2757 1.429 . S
C2773 C2769 1.429 . S
C2773 C2774 1.523 . S
C2774 C2758 1.368 . S
C2774 C2770 1.368 . S
C2774 C2773 1.523 . S
H2775 C2750 0.950 . S
H2776 C2752 0.950 . S
H2777 C2753 0.949 . S
H2778 C2755 0.950 . S
H2779 C2757 0.950 . S
C2780 C2781 1.349 . S
C2780 C2782 1.327 . S
C2780 H2805 0.950 . S
C2781 C2780 1.349 . S
C2781 C2797 1.349 . S
C2782 C2780 1.327 . S
C2782 C2801 1.429 . S
C2782 H2806 0.950 . S
C2783 C2800 1.574 . S
C2783 C2802 1.368 . S
C2783 H2807 0.949 . S
H2784 C2788 0.949 . S
C2785 C2786 1.349 . S
C2785 C2787 1.327 . S
C2785 H2808 0.950 . S
C2786 C2785 1.349 . S
C2786 C2798 1.349 . S
C2787 C2785 1.327 . S
C2787 C2803 1.429 . S
C2787 H2809 0.950 . S
C2788 H2784 0.949 . S
C2788 C2796 1.574 . S
C2788 C2804 1.368 . S
H2789 C2797 0.950 . S
H2790 C2795 0.950 . S
H2791 C2796 0.949 . S
H2792 C2798 0.950 . S
H2793 C2799 0.950 . S
H2794 C2800 0.949 . S
C2795 H2790 0.950 . S
C2795 C2797 1.327 . S
C2795 C2801 1.429 . S
C2796 C2788 1.574 . S
C2796 H2791 0.949 . S
C2796 C2802 1.368 . S
C2797 C2781 1.349 . S
C2797 H2789 0.950 . S
C2797 C2795 1.327 . S
C2798 C2786 1.349 . S
C2798 H2792 0.950 . S
C2798 C2799 1.327 . S
C2799 H2793 0.950 . S
C2799 C2798 1.327 . S
C2799 C2803 1.429 . S
C2800 C2783 1.574 . S
C2800 H2794 0.949 . S
C2800 C2804 1.368 . S
C2801 C2782 1.429 . S
C2801 C2795 1.429 . S
C2801 C2802 1.523 . S
C2802 C2783 1.368 . S
C2802 C2796 1.368 . S
C2802 C2801 1.523 . S
C2803 C2787 1.429 . S
C2803 C2799 1.429 . S
C2803 C2804 1.523 . S
C2804 C2788 1.368 . S
C2804 C2800 1.368 . S
C2804 C2803 1.523 . S
H2805 C2780 0.950 . S
H2806 C2782 0.950 . S
H2807 C2783 0.949 . S
H2808 C2785 0.950 . S
H2809 C2787 0.950 . S
C2810 C2811 1.349 . S
C2810 C2812 1.327 . S
C2810 H2835 0.950 . S
C2811 C2810 1.349 . S
C2811 C2827 1.349 . S
C2812 C2810 1.327 . S
C2812 C2831 1.429 . S
C2812 H2836 0.950 . S
C2813 C2830 1.574 . S
C2813 C2832 1.368 . S
C2813 H2837 0.949 . S
H2814 C2818 0.949 . S
C2815 C2816 1.349 . S
C2815 C2817 1.327 . S
C2815 H2838 0.950 . S
C2816 C2815 1.349 . S
C2816 C2828 1.349 . S
C2817 C2815 1.327 . S
C2817 C2833 1.429 . S
C2817 H2839 0.950 . S
C2818 H2814 0.949 . S
C2818 C2826 1.574 . S
C2818 C2834 1.368 . S
H2819 C2827 0.950 . S
H2820 C2825 0.950 . S
H2821 C2826 0.949 . S
H2822 C2828 0.950 . S
H2823 C2829 0.950 . S
H2824 C2830 0.949 . S
C2825 H2820 0.950 . S
C2825 C2827 1.327 . S
C2825 C2831 1.429 . S
C2826 C2818 1.574 . S
C2826 H2821 0.949 . S
C2826 C2832 1.368 . S
C2827 C2811 1.349 . S
C2827 H2819 0.950 . S
C2827 C2825 1.327 . S
C2828 C2816 1.349 . S
C2828 H2822 0.950 . S
C2828 C2829 1.327 . S
C2829 H2823 0.950 . S
C2829 C2828 1.327 . S
C2829 C2833 1.429 . S
C2830 C2813 1.574 . S
C2830 H2824 0.949 . S
C2830 C2834 1.368 . S
C2831 C2812 1.429 . S
C2831 C2825 1.429 . S
C2831 C2832 1.523 . S
C2832 C2813 1.368 . S
C2832 C2826 1.368 . S
C2832 C2831 1.523 . S
C2833 C2817 1.429 . S
C2833 C2829 1.429 . S
C2833 C2834 1.523 . S
C2834 C2818 1.368 . S
C2834 C2830 1.368 . S
C2834 C2833 1.523 . S
H2835 C2810 0.950 . S
H2836 C2812 0.950 . S
H2837 C2813 0.949 . S
H2838 C2815 0.950 . S
H2839 C2817 0.950 . S
C2840 C2841 1.349 . S
C2840 C2842 1.327 . S
C2840 H2865 0.950 . S
C2841 C2840 1.349 . S
C2841 C2857 1.349 . S
C2842 C2840 1.327 . S
C2842 C2861 1.429 . S
C2842 H2866 0.950 . S
C2843 C2860 1.574 . S
C2843 C2862 1.368 . S
C2843 H2867 0.949 . S
H2844 C2848 0.949 . S
C2845 C2846 1.349 . S
C2845 C2847 1.327 . S
C2845 H2868 0.950 . S
C2846 C2845 1.349 . S
C2846 C2858 1.349 . S
C2847 C2845 1.327 . S
C2847 C2863 1.429 . S
C2847 H2869 0.950 . S
C2848 H2844 0.949 . S
C2848 C2856 1.574 . S
C2848 C2864 1.368 . S
H2849 C2857 0.950 . S
H2850 C2855 0.950 . S
H2851 C2856 0.949 . S
H2852 C2858 0.950 . S
H2853 C2859 0.950 . S
H2854 C2860 0.949 . S
C2855 H2850 0.950 . S
C2855 C2857 1.327 . S
C2855 C2861 1.429 . S
C2856 C2848 1.574 . S
C2856 H2851 0.949 . S
C2856 C2862 1.368 . S
C2857 C2841 1.349 . S
C2857 H2849 0.950 . S
C2857 C2855 1.327 . S
C2858 C2846 1.349 . S
C2858 H2852 0.950 . S
C2858 C2859 1.327 . S
C2859 H2853 0.950 . S
C2859 C2858 1.327 . S
C2859 C2863 1.429 . S
C2860 C2843 1.574 . S
C2860 H2854 0.949 . S
C2860 C2864 1.368 . S
C2861 C2842 1.429 . S
C2861 C2855 1.429 . S
C2861 C2862 1.523 . S
C2862 C2843 1.368 . S
C2862 C2856 1.368 . S
C2862 C2861 1.523 . S
C2863 C2847 1.429 . S
C2863 C2859 1.429 . S
C2863 C2864 1.523 . S
C2864 C2848 1.368 . S
C2864 C2860 1.368 . S
C2864 C2863 1.523 . S
H2865 C2840 0.950 . S
H2866 C2842 0.950 . S
H2867 C2843 0.949 . S
H2868 C2845 0.950 . S
H2869 C2847 0.950 . S
C2870 C2871 1.349 . S
C2870 C2872 1.327 . S
C2870 H2895 0.950 . S
C2871 C2870 1.349 . S
C2871 C2887 1.349 . S
C2872 C2870 1.327 . S
C2872 C2891 1.429 . S
C2872 H2896 0.950 . S
C2873 C2890 1.574 . S
C2873 C2892 1.368 . S
C2873 H2897 0.949 . S
H2874 C2878 0.949 . S
C2875 C2876 1.349 . S
C2875 C2877 1.327 . S
C2875 H2898 0.950 . S
C2876 C2875 1.349 . S
C2876 C2888 1.349 . S
C2877 C2875 1.327 . S
C2877 C2893 1.429 . S
C2877 H2899 0.950 . S
C2878 H2874 0.949 . S
C2878 C2886 1.574 . S
C2878 C2894 1.368 . S
H2879 C2887 0.950 . S
H2880 C2885 0.950 . S
H2881 C2886 0.949 . S
H2882 C2888 0.950 . S
H2883 C2889 0.950 . S
H2884 C2890 0.949 . S
C2885 H2880 0.950 . S
C2885 C2887 1.327 . S
C2885 C2891 1.429 . S
C2886 C2878 1.574 . S
C2886 H2881 0.949 . S
C2886 C2892 1.368 . S
C2887 C2871 1.349 . S
C2887 H2879 0.950 . S
C2887 C2885 1.327 . S
C2888 C2876 1.349 . S
C2888 H2882 0.950 . S
C2888 C2889 1.327 . S
C2889 H2883 0.950 . S
C2889 C2888 1.327 . S
C2889 C2893 1.429 . S
C2890 C2873 1.574 . S
C2890 H2884 0.949 . S
C2890 C2894 1.368 . S
C2891 C2872 1.429 . S
C2891 C2885 1.429 . S
C2891 C2892 1.523 . S
C2892 C2873 1.368 . S
C2892 C2886 1.368 . S
C2892 C2891 1.523 . S
C2893 C2877 1.429 . S
C2893 C2889 1.429 . S
C2893 C2894 1.523 . S
C2894 C2878 1.368 . S
C2894 C2890 1.368 . S
C2894 C2893 1.523 . S
H2895 C2870 0.950 . S
H2896 C2872 0.950 . S
H2897 C2873 0.949 . S
H2898 C2875 0.950 . S
H2899 C2877 0.950 . S
C2900 C2901 1.349 . S
C2900 C2902 1.327 . S
C2900 H2925 0.950 . S
C2901 C2900 1.349 . S
C2901 C2917 1.349 . S
C2902 C2900 1.327 . S
C2902 C2921 1.429 . S
C2902 H2926 0.950 . S
C2903 C2920 1.574 . S
C2903 C2922 1.368 . S
C2903 H2927 0.949 . S
H2904 C2908 0.949 . S
C2905 C2906 1.349 . S
C2905 C2907 1.327 . S
C2905 H2928 0.950 . S
C2906 C2905 1.349 . S
C2906 C2918 1.349 . S
C2907 C2905 1.327 . S
C2907 C2923 1.429 . S
C2907 H2929 0.950 . S
C2908 H2904 0.949 . S
C2908 C2916 1.574 . S
C2908 C2924 1.368 . S
H2909 C2917 0.950 . S
H2910 C2915 0.950 . S
H2911 C2916 0.949 . S
H2912 C2918 0.950 . S
H2913 C2919 0.950 . S
H2914 C2920 0.949 . S
C2915 H2910 0.950 . S
C2915 C2917 1.327 . S
C2915 C2921 1.429 . S
C2916 C2908 1.574 . S
C2916 H2911 0.949 . S
C2916 C2922 1.368 . S
C2917 C2901 1.349 . S
C2917 H2909 0.950 . S
C2917 C2915 1.327 . S
C2918 C2906 1.349 . S
C2918 H2912 0.950 . S
C2918 C2919 1.327 . S
C2919 H2913 0.950 . S
C2919 C2918 1.327 . S
C2919 C2923 1.429 . S
C2920 C2903 1.574 . S
C2920 H2914 0.949 . S
C2920 C2924 1.368 . S
C2921 C2902 1.429 . S
C2921 C2915 1.429 . S
C2921 C2922 1.523 . S
C2922 C2903 1.368 . S
C2922 C2916 1.368 . S
C2922 C2921 1.523 . S
C2923 C2907 1.429 . S
C2923 C2919 1.429 . S
C2923 C2924 1.523 . S
C2924 C2908 1.368 . S
C2924 C2920 1.368 . S
C2924 C2923 1.523 . S
H2925 C2900 0.950 . S
H2926 C2902 0.950 . S
H2927 C2903 0.949 . S
H2928 C2905 0.950 . S
H2929 C2907 0.950 . S
C2930 C2931 1.349 . S
C2930 C2932 1.327 . S
C2930 H2955 0.950 . S
C2931 C2930 1.349 . S
C2931 C2947 1.349 . S
C2932 C2930 1.327 . S
C2932 C2951 1.429 . S
C2932 H2956 0.950 . S
C2933 C2950 1.574 . S
C2933 C2952 1.368 . S
C2933 H2957 0.949 . S
H2934 C2938 0.949 . S
C2935 C2936 1.349 . S
C2935 C2937 1.327 . S
C2935 H2958 0.950 . S
C2936 C2935 1.349 . S
C2936 C2948 1.349 . S
C2937 C2935 1.327 . S
C2937 C2953 1.429 . S
C2937 H2959 0.950 . S
C2938 H2934 0.949 . S
C2938 C2946 1.574 . S
C2938 C2954 1.368 . S
H2939 C2947 0.950 . S
H2940 C2945 0.950 . S
H2941 C2946 0.949 . S
H2942 C2948 0.950 . S
H2943 C2949 0.950 . S
H2944 C2950 0.949 . S
C2945 H2940 0.950 . S
C2945 C2947 1.327 . S
C2945 C2951 1.429 . S
C2946 C2938 1.574 . S
C2946 H2941 0.949 . S
C2946 C2952 1.368 . S
C2947 C2931 1.349 . S
C2947 H2939 0.950 . S
C2947 C2945 1.327 . S
C2948 C2936 1.349 . S
C2948 H2942 0.950 . S
C2948 C2949 1.327 . S
C2949 H2943 0.950 . S
C2949 C2948 1.327 . S
C2949 C2953 1.429 . S
C2950 C2933 1.574 . S
C2950 H2944 0.949 . S
C2950 C2954 1.368 . S
C2951 C2932 1.429 . S
C2951 C2945 1.429 . S
C2951 C2952 1.523 . S
C2952 C2933 1.368 . S
C2952 C2946 1.368 . S
C2952 C2951 1.523 . S
C2953 C2937 1.429 . S
C2953 C2949 1.429 . S
C2953 C2954 1.523 . S
C2954 C2938 1.368 . S
C2954 C2950 1.368 . S
C2954 C2953 1.523 . S
H2955 C2930 0.950 . S
H2956 C2932 0.950 . S
H2957 C2933 0.949 . S
H2958 C2935 0.950 . S
H2959 C2937 0.950 . S
C2960 C2961 1.349 1_565 S
C2960 C2962 1.327 . S
C2960 H2985 0.950 . S
C2961 C2960 1.349 1_545 S
C2961 C2977 1.349 . S
C2962 C2960 1.327 . S
C2962 C2981 1.429 1_565 S
C2962 H2986 0.950 . S
C2963 C2980 1.574 . S
C2963 C2982 1.351 1_545 S
C2963 H2987 0.949 . S
H2964 C2968 0.949 . S
C2965 C2966 1.349 . S
C2965 C2967 1.327 . S
C2965 H2988 0.950 . S
C2966 C2965 1.349 . S
C2966 C2978 1.349 . S
C2967 C2965 1.327 . S
C2967 C2983 1.429 . S
C2967 H2989 0.950 1_565 S
C2968 H2964 0.949 . S
C2968 C2976 1.574 . S
C2968 C2984 1.368 . S
H2969 C2977 0.950 . S
H2970 C2975 0.950 . S
H2971 C2976 0.949 . S
H2972 C2978 0.950 . S
H2973 C2979 0.950 . S
H2974 C2980 0.949 . S
C2975 H2970 0.950 . S
C2975 C2977 1.327 . S
C2975 C2981 1.429 . S
C2976 C2968 1.574 . S
C2976 H2971 0.949 . S
C2976 C2982 1.392 . S
C2977 C2961 1.349 . S
C2977 H2969 0.950 . S
C2977 C2975 1.327 . S
C2978 C2966 1.349 . S
C2978 H2972 0.950 . S
C2978 C2979 1.327 . S
C2979 H2973 0.950 . S
C2979 C2978 1.327 . S
C2979 C2983 1.429 . S
C2980 C2963 1.574 . S
C2980 H2974 0.949 . S
C2980 C2984 1.368 1_545 S
C2981 C2962 1.429 1_545 S
C2981 C2975 1.429 . S
C2981 C2982 1.517 1_545 S
C2982 C2963 1.351 1_565 S
C2982 C2976 1.392 . S
C2982 C2981 1.517 1_565 S
C2983 C2967 1.429 . S
C2983 C2979 1.429 . S
C2983 C2984 1.523 . S
C2984 C2968 1.368 . S
C2984 C2980 1.368 1_565 S
C2984 C2983 1.523 . S
H2985 C2960 0.950 . S
H2986 C2962 0.950 . S
H2987 C2963 0.949 . S
H2988 C2965 0.950 . S
H2989 C2967 0.950 1_545 S
C2990 C2991 1.349 . S
C2990 C2992 1.327 . S
C2990 H3015 0.950 . S
C2991 C2990 1.349 . S
C2991 C3007 1.349 . S
C2992 C2990 1.327 . S
C2992 C3011 1.429 . S
C2992 H3016 0.950 . S
C2993 C3010 1.574 . S
C2993 C3012 1.368 . S
C2993 H3017 0.949 . S
H2994 C2998 0.949 . S
C2995 C2996 1.349 . S
C2995 C2997 1.327 . S
C2995 H3018 0.950 . S
C2996 C2995 1.349 . S
C2996 C3008 1.349 . S
C2997 C2995 1.327 . S
C2997 C3013 1.429 . S
C2997 H3019 0.950 . S
C2998 H2994 0.949 . S
C2998 C3006 1.574 . S
C2998 C3014 1.368 . S
H2999 C3007 0.950 . S
H3000 C3005 0.950 . S
H3001 C3006 0.949 . S
H3002 C3008 0.950 . S
H3003 C3009 0.950 . S
H3004 C3010 0.949 . S
C3005 H3000 0.950 . S
C3005 C3007 1.327 . S
C3005 C3011 1.429 . S
C3006 C2998 1.574 . S
C3006 H3001 0.949 . S
C3006 C3012 1.368 . S
C3007 C2991 1.349 . S
C3007 H2999 0.950 . S
C3007 C3005 1.327 . S
C3008 C2996 1.349 . S
C3008 H3002 0.950 . S
C3008 C3009 1.327 . S
C3009 H3003 0.950 . S
C3009 C3008 1.327 . S
C3009 C3013 1.429 . S
C3010 C2993 1.574 . S
C3010 H3004 0.949 . S
C3010 C3014 1.368 . S
C3011 C2992 1.429 . S
C3011 C3005 1.429 . S
C3011 C3012 1.523 . S
C3012 C2993 1.368 . S
C3012 C3006 1.368 . S
C3012 C3011 1.523 . S
C3013 C2997 1.429 . S
C3013 C3009 1.429 . S
C3013 C3014 1.523 . S
C3014 C2998 1.368 . S
C3014 C3010 1.368 . S
C3014 C3013 1.523 . S
H3015 C2990 0.950 . S
H3016 C2992 0.950 . S
H3017 C2993 0.949 . S
H3018 C2995 0.950 . S
H3019 C2997 0.950 . S
C3020 C3021 1.349 . S
C3020 C3022 1.327 . S
C3020 H3045 0.950 . S
C3021 C3020 1.349 . S
C3021 C3037 1.349 . S
C3022 C3020 1.327 . S
C3022 C3041 1.429 . S
C3022 H3046 0.950 . S
C3023 C3040 1.574 . S
C3023 C3042 1.368 . S
C3023 H3047 0.949 . S
H3024 C3028 0.949 . S
C3025 C3026 1.349 . S
C3025 C3027 1.327 . S
C3025 H3048 0.950 . S
C3026 C3025 1.349 . S
C3026 C3038 1.349 . S
C3027 C3025 1.327 . S
C3027 C3043 1.429 . S
C3027 H3049 0.950 . S
C3028 H3024 0.949 . S
C3028 C3036 1.574 . S
C3028 C3044 1.368 . S
H3029 C3037 0.950 . S
H3030 C3035 0.950 . S
H3031 C3036 0.949 . S
H3032 C3038 0.950 . S
H3033 C3039 0.950 . S
H3034 C3040 0.949 . S
C3035 H3030 0.950 . S
C3035 C3037 1.327 . S
C3035 C3041 1.429 . S
C3036 C3028 1.574 . S
C3036 H3031 0.949 . S
C3036 C3042 1.368 . S
C3037 C3021 1.349 . S
C3037 H3029 0.950 . S
C3037 C3035 1.327 . S
C3038 C3026 1.349 . S
C3038 H3032 0.950 . S
C3038 C3039 1.327 . S
C3039 H3033 0.950 . S
C3039 C3038 1.327 . S
C3039 C3043 1.429 . S
C3040 C3023 1.574 . S
C3040 H3034 0.949 . S
C3040 C3044 1.368 . S
C3041 C3022 1.429 . S
C3041 C3035 1.429 . S
C3041 C3042 1.523 . S
C3042 C3023 1.368 . S
C3042 C3036 1.368 . S
C3042 C3041 1.523 . S
C3043 C3027 1.429 . S
C3043 C3039 1.429 . S
C3043 C3044 1.523 . S
C3044 C3028 1.368 . S
C3044 C3040 1.368 . S
C3044 C3043 1.523 . S
H3045 C3020 0.950 . S
H3046 C3022 0.950 . S
H3047 C3023 0.949 . S
H3048 C3025 0.950 . S
H3049 C3027 0.950 . S
C3050 C3051 1.349 . S
C3050 C3052 1.327 . S
C3050 H3075 0.950 . S
C3051 C3050 1.349 . S
C3051 C3067 1.349 1_545 S
C3052 C3050 1.327 . S
C3052 C3071 1.429 . S
C3052 H3076 0.950 . S
C3053 C3070 1.574 . S
C3053 C3072 1.404 . S
C3053 H3077 0.949 . S
H3054 C3058 0.949 . S
C3055 C3056 1.349 . S
C3055 C3057 1.327 . S
C3055 H3078 0.950 . S
C3056 C3055 1.349 . S
C3056 C3068 1.349 . S
C3057 C3055 1.327 . S
C3057 C3073 1.429 . S
C3057 H3079 0.950 . S
C3058 H3054 0.949 . S
C3058 C3066 1.574 . S
C3058 C3074 1.368 1_545 S
H3059 C3067 0.950 . S
H3060 C3065 0.950 . S
H3061 C3066 0.949 . S
H3062 C3068 0.950 1_545 S
H3063 C3069 0.950 . S
H3064 C3070 0.949 . S
C3065 H3060 0.950 . S
C3065 C3067 1.327 . S
C3065 C3071 1.429 1_565 S
C3066 C3058 1.574 . S
C3066 H3061 0.949 . S
C3066 C3072 1.339 1_545 S
C3067 C3051 1.349 1_565 S
C3067 H3059 0.950 . S
C3067 C3065 1.327 . S
C3068 C3056 1.349 . S
C3068 H3062 0.950 1_565 S
C3068 C3069 1.327 1_565 S
C3069 H3063 0.950 . S
C3069 C3068 1.327 1_545 S
C3069 C3073 1.429 1_545 S
C3070 C3053 1.574 . S
C3070 H3064 0.949 . S
C3070 C3074 1.368 . S
C3071 C3052 1.429 . S
C3071 C3065 1.429 1_545 S
C3071 C3072 1.517 1_545 S
C3072 C3053 1.404 . S
C3072 C3066 1.339 1_565 S
C3072 C3071 1.517 1_565 S
C3073 C3057 1.429 . S
C3073 C3069 1.429 1_565 S
C3073 C3074 1.523 . S
C3074 C3058 1.368 1_565 S
C3074 C3070 1.368 . S
C3074 C3073 1.523 . S
H3075 C3050 0.950 . S
H3076 C3052 0.950 . S
H3077 C3053 0.949 . S
H3078 C3055 0.950 . S
H3079 C3057 0.950 . S
C3080 C3081 1.349 . S
C3080 C3082 1.327 . S
C3080 H3105 0.950 . S
C3081 C3080 1.349 . S
C3081 C3097 1.349 1_565 S
C3082 C3080 1.327 . S
C3082 C3101 1.429 . S
C3082 H3106 0.950 . S
C3083 C3100 1.574 . S
C3083 C3102 1.402 . S
C3083 H3107 0.949 . S
H3084 C3088 0.949 . S
C3085 C3086 1.349 . S
C3085 C3087 1.327 . S
C3085 H3108 0.950 . S
C3086 C3085 1.349 . S
C3086 C3098 1.349 . S
C3087 C3085 1.327 . S
C3087 C3103 1.429 . S
C3087 H3109 0.950 . S
C3088 H3084 0.949 . S
C3088 C3096 1.574 . S
C3088 C3104 1.368 1_565 S
H3089 C3097 0.950 . S
H3090 C3095 0.950 . S
H3091 C3096 0.949 . S
H3092 C3098 0.950 1_565 S
H3093 C3099 0.950 . S
H3094 C3100 0.949 . S
C3095 H3090 0.950 . S
C3095 C3097 1.327 . S
C3095 C3101 1.429 1_545 S
C3096 C3088 1.574 . S
C3096 H3091 0.949 . S
C3096 C3102 1.341 1_565 S
C3097 C3081 1.349 1_545 S
C3097 H3089 0.950 . S
C3097 C3095 1.327 . S
C3098 C3086 1.349 . S
C3098 H3092 0.950 1_545 S
C3098 C3099 1.327 1_545 S
C3099 H3093 0.950 . S
C3099 C3098 1.327 1_565 S
C3099 C3103 1.429 1_565 S
C3100 C3083 1.574 . S
C3100 H3094 0.949 . S
C3100 C3104 1.368 . S
C3101 C3082 1.429 . S
C3101 C3095 1.429 1_565 S
C3101 C3102 1.517 1_565 S
C3102 C3083 1.402 . S
C3102 C3096 1.341 1_545 S
C3102 C3101 1.517 1_545 S
C3103 C3087 1.429 . S
C3103 C3099 1.429 1_545 S
C3103 C3104 1.523 . S
C3104 C3088 1.368 1_545 S
C3104 C3100 1.368 . S
C3104 C3103 1.523 . S
H3105 C3080 0.950 . S
H3106 C3082 0.950 . S
H3107 C3083 0.949 . S
H3108 C3085 0.950 . S
H3109 C3087 0.950 . S
C3110 C3111 1.349 . S
C3110 C3112 1.327 . S
C3110 H3135 0.950 . S
C3111 C3110 1.349 . S
C3111 C3127 1.349 . S
C3112 C3110 1.327 . S
C3112 C3131 1.429 . S
C3112 H3136 0.950 . S
C3113 C3130 1.574 . S
C3113 C3132 1.368 . S
C3113 H3137 0.949 . S
H3114 C3118 0.949 . S
C3115 C3116 1.349 . S
C3115 C3117 1.327 . S
C3115 H3138 0.950 . S
C3116 C3115 1.349 . S
C3116 C3128 1.349 . S
C3117 C3115 1.327 . S
C3117 C3133 1.429 . S
C3117 H3139 0.950 . S
C3118 H3114 0.949 . S
C3118 C3126 1.574 . S
C3118 C3134 1.368 . S
H3119 C3127 0.950 . S
H3120 C3125 0.950 . S
H3121 C3126 0.949 . S
H3122 C3128 0.950 . S
H3123 C3129 0.950 . S
H3124 C3130 0.949 . S
C3125 H3120 0.950 . S
C3125 C3127 1.327 . S
C3125 C3131 1.429 . S
C3126 C3118 1.574 . S
C3126 H3121 0.949 . S
C3126 C3132 1.368 . S
C3127 C3111 1.349 . S
C3127 H3119 0.950 . S
C3127 C3125 1.327 . S
C3128 C3116 1.349 . S
C3128 H3122 0.950 . S
C3128 C3129 1.327 . S
C3129 H3123 0.950 . S
C3129 C3128 1.327 . S
C3129 C3133 1.429 . S
C3130 C3113 1.574 . S
C3130 H3124 0.949 . S
C3130 C3134 1.368 . S
C3131 C3112 1.429 . S
C3131 C3125 1.429 . S
C3131 C3132 1.523 . S
C3132 C3113 1.368 . S
C3132 C3126 1.368 . S
C3132 C3131 1.523 . S
C3133 C3117 1.429 . S
C3133 C3129 1.429 . S
C3133 C3134 1.523 . S
C3134 C3118 1.368 . S
C3134 C3130 1.368 . S
C3134 C3133 1.523 . S
H3135 C3110 0.950 . S
H3136 C3112 0.950 . S
H3137 C3113 0.949 . S
H3138 C3115 0.950 . S
H3139 C3117 0.950 . S
C3140 C3141 1.349 . S
C3140 C3142 1.327 . S
C3140 H3165 0.950 . S
C3141 C3140 1.349 . S
C3141 C3157 1.349 . S
C3142 C3140 1.327 . S
C3142 C3161 1.429 . S
C3142 H3166 0.950 . S
C3143 C3160 1.574 . S
C3143 C3162 1.368 . S
C3143 H3167 0.949 . S
H3144 C3148 0.949 . S
C3145 C3146 1.349 . S
C3145 C3147 1.327 . S
C3145 H3168 0.950 . S
C3146 C3145 1.349 . S
C3146 C3158 1.349 . S
C3147 C3145 1.327 . S
C3147 C3163 1.429 . S
C3147 H3169 0.950 . S
C3148 H3144 0.949 . S
C3148 C3156 1.574 . S
C3148 C3164 1.368 . S
H3149 C3157 0.950 . S
H3150 C3155 0.950 . S
H3151 C3156 0.949 . S
H3152 C3158 0.950 . S
H3153 C3159 0.950 . S
H3154 C3160 0.949 . S
C3155 H3150 0.950 . S
C3155 C3157 1.327 . S
C3155 C3161 1.429 . S
C3156 C3148 1.574 . S
C3156 H3151 0.949 . S
C3156 C3162 1.368 . S
C3157 C3141 1.349 . S
C3157 H3149 0.950 . S
C3157 C3155 1.327 . S
C3158 C3146 1.349 . S
C3158 H3152 0.950 . S
C3158 C3159 1.327 . S
C3159 H3153 0.950 . S
C3159 C3158 1.327 . S
C3159 C3163 1.429 . S
C3160 C3143 1.574 . S
C3160 H3154 0.949 . S
C3160 C3164 1.368 . S
C3161 C3142 1.429 . S
C3161 C3155 1.429 . S
C3161 C3162 1.523 . S
C3162 C3143 1.368 . S
C3162 C3156 1.368 . S
C3162 C3161 1.523 . S
C3163 C3147 1.429 . S
C3163 C3159 1.429 . S
C3163 C3164 1.523 . S
C3164 C3148 1.368 . S
C3164 C3160 1.368 . S
C3164 C3163 1.523 . S
H3165 C3140 0.950 . S
H3166 C3142 0.950 . S
H3167 C3143 0.949 . S
H3168 C3145 0.950 . S
H3169 C3147 0.950 . S
C3170 C3171 1.349 . S
C3170 C3172 1.327 . S
C3170 H3195 0.950 . S
C3171 C3170 1.349 . S
C3171 C3187 1.349 . S
C3172 C3170 1.327 . S
C3172 C3191 1.429 . S
C3172 H3196 0.950 . S
C3173 C3190 1.574 . S
C3173 C3192 1.383 . S
C3173 H3197 0.949 . S
H3174 C3178 0.947 1_565 S
C3175 C3176 1.349 . S
C3175 C3177 1.327 . S
C3175 H3198 0.950 . S
C3176 C3175 1.349 . S
C3176 C3188 1.349 . S
C3177 C3175 1.327 . S
C3177 C3193 1.429 . S
C3177 H3199 0.950 . S
C3178 H3174 0.947 1_545 S
C3178 C3186 1.571 1_545 S
C3178 C3194 1.373 . S
H3179 C3187 0.953 . S
H3180 C3185 0.958 . S
H3181 C3186 0.949 . S
H3182 C3188 0.950 . S
H3183 C3189 0.950 . S
H3184 C3190 0.949 . S
C3185 H3180 0.958 . S
C3185 C3187 1.323 1_545 S
C3185 C3191 1.425 1_545 S
C3186 C3178 1.571 1_565 S
C3186 H3181 0.949 . S
C3186 C3192 1.360 1_565 S
C3187 C3171 1.349 . S
C3187 H3179 0.953 . S
C3187 C3185 1.323 1_565 S
C3188 C3176 1.349 . S
C3188 H3182 0.950 . S
C3188 C3189 1.327 . S
C3189 H3183 0.950 . S
C3189 C3188 1.327 . S
C3189 C3193 1.429 . S
C3190 C3173 1.574 . S
C3190 H3184 0.949 . S
C3190 C3194 1.368 . S
C3191 C3172 1.429 . S
C3191 C3185 1.425 1_565 S
C3191 C3192 1.517 1_565 S
C3192 C3173 1.383 . S
C3192 C3186 1.360 1_545 S
C3192 C3191 1.517 1_545 S
C3193 C3177 1.429 . S
C3193 C3189 1.429 . S
C3193 C3194 1.523 . S
C3194 C3178 1.373 . S
C3194 C3190 1.368 . S
C3194 C3193 1.523 . S
H3195 C3170 0.950 . S
H3196 C3172 0.950 . S
H3197 C3173 0.949 . S
H3198 C3175 0.950 . S
H3199 C3177 0.950 . S
C3200 C3201 1.349 . S
C3200 C3202 1.327 . S
C3200 H3225 0.950 . S
C3201 C3200 1.349 . S
C3201 C3217 1.349 . S
C3202 C3200 1.327 . S
C3202 C3221 1.429 . S
C3202 H3226 0.950 . S
C3203 C3220 1.574 . S
C3203 C3222 1.368 . S
C3203 H3227 0.949 . S
H3204 C3208 0.949 1_655 S
C3205 C3206 1.349 . S
C3205 C3207 1.327 . S
C3205 H3228 0.950 . S
C3206 C3205 1.349 . S
C3206 C3218 1.349 . S
C3207 C3205 1.327 . S
C3207 C3223 1.429 . S
C3207 H3229 0.950 . S
C3208 H3204 0.949 1_455 S
C3208 C3216 1.574 . S
C3208 C3224 1.368 1_455 S
H3209 C3217 0.950 . S
H3210 C3215 0.950 . S
H3211 C3216 0.949 . S
H3212 C3218 0.950 . S
H3213 C3219 0.950 . S
H3214 C3220 0.949 1_655 S
C3215 H3210 0.950 . S
C3215 C3217 1.327 . S
C3215 C3221 1.429 . S
C3216 C3208 1.574 . S
C3216 H3211 0.949 . S
C3216 C3222 1.368 . S
C3217 C3201 1.349 . S
C3217 H3209 0.950 . S
C3217 C3215 1.327 . S
C3218 C3206 1.349 . S
C3218 H3212 0.950 . S
C3218 C3219 1.327 . S
C3219 H3213 0.950 . S
C3219 C3218 1.327 . S
C3219 C3223 1.429 . S
C3220 C3203 1.574 . S
C3220 H3214 0.949 1_455 S
C3220 C3224 1.368 1_455 S
C3221 C3202 1.429 . S
C3221 C3215 1.429 . S
C3221 C3222 1.523 . S
C3222 C3203 1.368 . S
C3222 C3216 1.368 . S
C3222 C3221 1.523 . S
C3223 C3207 1.429 . S
C3223 C3219 1.429 . S
C3223 C3224 1.523 . S
C3224 C3208 1.368 1_655 S
C3224 C3220 1.368 1_655 S
C3224 C3223 1.523 . S
H3225 C3200 0.950 . S
H3226 C3202 0.950 . S
H3227 C3203 0.949 . S
H3228 C3205 0.950 . S
H3229 C3207 0.950 . S
C3230 C3231 1.349 . S
C3230 C3232 1.327 . S
C3230 H3255 0.950 . S
C3231 C3230 1.349 . S
C3231 C3247 1.349 . S
C3232 C3230 1.327 . S
C3232 C3251 1.429 . S
C3232 H3256 0.950 . S
C3233 C3250 1.574 . S
C3233 C3252 1.368 . S
C3233 H3257 0.949 . S
H3234 C3238 0.949 . S
C3235 C3236 1.349 . S
C3235 C3237 1.327 . S
C3235 H3258 0.950 . S
C3236 C3235 1.349 . S
C3236 C3248 1.349 . S
C3237 C3235 1.327 . S
C3237 C3253 1.429 . S
C3237 H3259 0.950 . S
C3238 H3234 0.949 . S
C3238 C3246 1.574 . S
C3238 C3254 1.368 . S
H3239 C3247 0.950 . S
H3240 C3245 0.950 . S
H3241 C3246 0.949 . S
H3242 C3248 0.950 . S
H3243 C3249 0.950 . S
H3244 C3250 0.949 . S
C3245 H3240 0.950 . S
C3245 C3247 1.327 . S
C3245 C3251 1.429 . S
C3246 C3238 1.574 . S
C3246 H3241 0.949 . S
C3246 C3252 1.368 . S
C3247 C3231 1.349 . S
C3247 H3239 0.950 . S
C3247 C3245 1.327 . S
C3248 C3236 1.349 . S
C3248 H3242 0.950 . S
C3248 C3249 1.327 . S
C3249 H3243 0.950 . S
C3249 C3248 1.327 . S
C3249 C3253 1.429 . S
C3250 C3233 1.574 . S
C3250 H3244 0.949 . S
C3250 C3254 1.368 . S
C3251 C3232 1.429 . S
C3251 C3245 1.429 . S
C3251 C3252 1.523 . S
C3252 C3233 1.368 . S
C3252 C3246 1.368 . S
C3252 C3251 1.523 . S
C3253 C3237 1.429 . S
C3253 C3249 1.429 . S
C3253 C3254 1.523 . S
C3254 C3238 1.368 . S
C3254 C3250 1.368 . S
C3254 C3253 1.523 . S
H3255 C3230 0.950 . S
H3256 C3232 0.950 . S
H3257 C3233 0.949 . S
H3258 C3235 0.950 . S
H3259 C3237 0.950 . S
C3260 C3261 1.349 . S
C3260 C3262 1.327 . S
C3260 H3285 0.950 . S
C3261 C3260 1.349 . S
C3261 C3277 1.349 . S
C3262 C3260 1.327 . S
C3262 C3281 1.429 . S
C3262 H3286 0.950 . S
C3263 C3280 1.574 . S
C3263 C3282 1.368 1_455 S
C3263 H3287 0.949 1_455 S
H3264 C3268 0.949 . S
C3265 C3266 1.349 . S
C3265 C3267 1.327 . S
C3265 H3288 0.950 . S
C3266 C3265 1.349 . S
C3266 C3278 1.349 . S
C3267 C3265 1.327 . S
C3267 C3283 1.429 . S
C3267 H3289 0.950 . S
C3268 H3264 0.949 . S
C3268 C3276 1.574 . S
C3268 C3284 1.368 . S
H3269 C3277 0.950 . S
H3270 C3275 0.950 . S
H3271 C3276 0.949 1_655 S
H3272 C3278 0.950 . S
H3273 C3279 0.950 . S
H3274 C3280 0.949 . S
C3275 H3270 0.950 . S
C3275 C3277 1.327 . S
C3275 C3281 1.429 . S
C3276 C3268 1.574 . S
C3276 H3271 0.949 1_455 S
C3276 C3282 1.368 1_455 S
C3277 C3261 1.349 . S
C3277 H3269 0.950 . S
C3277 C3275 1.327 . S
C3278 C3266 1.349 . S
C3278 H3272 0.950 . S
C3278 C3279 1.327 . S
C3279 H3273 0.950 . S
C3279 C3278 1.327 . S
C3279 C3283 1.429 . S
C3280 C3263 1.574 . S
C3280 H3274 0.949 . S
C3280 C3284 1.368 . S
C3281 C3262 1.429 . S
C3281 C3275 1.429 . S
C3281 C3282 1.523 . S
C3282 C3263 1.368 1_655 S
C3282 C3276 1.368 1_655 S
C3282 C3281 1.523 . S
C3283 C3267 1.429 . S
C3283 C3279 1.429 . S
C3283 C3284 1.523 . S
C3284 C3268 1.368 . S
C3284 C3280 1.368 . S
C3284 C3283 1.523 . S
H3285 C3260 0.950 . S
H3286 C3262 0.950 . S
H3287 C3263 0.949 1_655 S
H3288 C3265 0.950 . S
H3289 C3267 0.950 . S
C3290 C3291 1.349 . S
C3290 C3292 1.327 . S
C3290 H3315 0.950 . S
C3291 C3290 1.349 . S
C3291 C3307 1.349 . S
C3292 C3290 1.327 . S
C3292 C3311 1.429 . S
C3292 H3316 0.950 . S
C3293 C3310 1.574 . S
C3293 C3312 1.368 . S
C3293 H3317 0.949 . S
H3294 C3298 0.949 . S
C3295 C3296 1.349 . S
C3295 C3297 1.327 . S
C3295 H3318 0.950 . S
C3296 C3295 1.349 . S
C3296 C3308 1.349 . S
C3297 C3295 1.327 . S
C3297 C3313 1.429 . S
C3297 H3319 0.950 . S
C3298 H3294 0.949 . S
C3298 C3306 1.574 . S
C3298 C3314 1.368 . S
H3299 C3307 0.950 . S
H3300 C3305 0.950 . S
H3301 C3306 0.949 . S
H3302 C3308 0.950 . S
H3303 C3309 0.950 . S
H3304 C3310 0.949 . S
C3305 H3300 0.950 . S
C3305 C3307 1.327 . S
C3305 C3311 1.429 . S
C3306 C3298 1.574 . S
C3306 H3301 0.949 . S
C3306 C3312 1.368 . S
C3307 C3291 1.349 . S
C3307 H3299 0.950 . S
C3307 C3305 1.327 . S
C3308 C3296 1.349 . S
C3308 H3302 0.950 . S
C3308 C3309 1.327 . S
C3309 H3303 0.950 . S
C3309 C3308 1.327 . S
C3309 C3313 1.429 . S
C3310 C3293 1.574 . S
C3310 H3304 0.949 . S
C3310 C3314 1.368 . S
C3311 C3292 1.429 . S
C3311 C3305 1.429 . S
C3311 C3312 1.523 . S
C3312 C3293 1.368 . S
C3312 C3306 1.368 . S
C3312 C3311 1.523 . S
C3313 C3297 1.429 . S
C3313 C3309 1.429 . S
C3313 C3314 1.523 . S
C3314 C3298 1.368 . S
C3314 C3310 1.368 . S
C3314 C3313 1.523 . S
H3315 C3290 0.950 . S
H3316 C3292 0.950 . S
H3317 C3293 0.949 . S
H3318 C3295 0.950 . S
H3319 C3297 0.950 . S
C3320 C3321 1.349 . S
C3320 C3322 1.327 . S
C3320 H3345 0.950 . S
C3321 C3320 1.349 . S
C3321 C3337 1.349 . S
C3322 C3320 1.327 . S
C3322 C3341 1.429 . S
C3322 H3346 0.950 . S
C3323 C3340 1.596 . S
C3323 C3342 1.368 . S
C3323 H3347 0.949 . S
H3324 C3328 0.957 . S
C3325 C3326 1.349 . S
C3325 C3327 1.327 . S
C3325 H3348 0.950 . S
C3326 C3325 1.349 . S
C3326 C3338 1.349 . S
C3327 C3325 1.327 . S
C3327 C3343 1.429 . S
C3327 H3349 0.950 . S
C3328 H3324 0.957 . S
C3328 C3336 1.574 . S
C3328 C3344 1.368 1_655 S
H3329 C3337 0.950 . S
H3330 C3335 0.950 . S
H3331 C3336 0.949 . S
H3332 C3338 0.950 . S
H3333 C3339 0.950 . S
H3334 C3340 0.934 1_455 S
C3335 H3330 0.950 . S
C3335 C3337 1.327 . S
C3335 C3341 1.429 . S
C3336 C3328 1.574 . S
C3336 H3331 0.949 . S
C3336 C3342 1.368 . S
C3337 C3321 1.349 . S
C3337 H3329 0.950 . S
C3337 C3335 1.327 . S
C3338 C3326 1.349 . S
C3338 H3332 0.950 . S
C3338 C3339 1.327 . S
C3339 H3333 0.950 . S
C3339 C3338 1.327 . S
C3339 C3343 1.429 . S
C3340 C3323 1.596 . S
C3340 H3334 0.934 1_655 S
C3340 C3344 1.363 1_655 S
C3341 C3322 1.429 . S
C3341 C3335 1.429 . S
C3341 C3342 1.523 . S
C3342 C3323 1.368 . S
C3342 C3336 1.368 . S
C3342 C3341 1.523 . S
C3343 C3327 1.429 . S
C3343 C3339 1.429 . S
C3343 C3344 1.523 . S
C3344 C3328 1.368 1_455 S
C3344 C3340 1.363 1_455 S
C3344 C3343 1.523 . S
H3345 C3320 0.950 . S
H3346 C3322 0.950 . S
H3347 C3323 0.949 . S
H3348 C3325 0.950 . S
H3349 C3327 0.950 . S
C3350 C3351 1.349 . S
C3350 C3352 1.327 . S
C3350 H3375 0.950 . S
C3351 C3350 1.349 . S
C3351 C3367 1.349 . S
C3352 C3350 1.327 . S
C3352 C3371 1.429 . S
C3352 H3376 0.950 . S
C3353 C3370 1.574 . S
C3353 C3372 1.368 . S
C3353 H3377 0.949 . S
H3354 C3358 0.949 . S
C3355 C3356 1.349 . S
C3355 C3357 1.327 . S
C3355 H3378 0.950 . S
C3356 C3355 1.349 . S
C3356 C3368 1.349 . S
C3357 C3355 1.327 . S
C3357 C3373 1.429 . S
C3357 H3379 0.950 . S
C3358 H3354 0.949 . S
C3358 C3366 1.574 . S
C3358 C3374 1.368 . S
H3359 C3367 0.950 . S
H3360 C3365 0.950 . S
H3361 C3366 0.949 . S
H3362 C3368 0.950 . S
H3363 C3369 0.950 . S
H3364 C3370 0.949 . S
C3365 H3360 0.950 . S
C3365 C3367 1.327 . S
C3365 C3371 1.429 . S
C3366 C3358 1.574 . S
C3366 H3361 0.949 . S
C3366 C3372 1.368 . S
C3367 C3351 1.349 . S
C3367 H3359 0.950 . S
C3367 C3365 1.327 . S
C3368 C3356 1.349 . S
C3368 H3362 0.950 . S
C3368 C3369 1.327 . S
C3369 H3363 0.950 . S
C3369 C3368 1.327 . S
C3369 C3373 1.429 . S
C3370 C3353 1.574 . S
C3370 H3364 0.949 . S
C3370 C3374 1.368 . S
C3371 C3352 1.429 . S
C3371 C3365 1.429 . S
C3371 C3372 1.523 . S
C3372 C3353 1.368 . S
C3372 C3366 1.368 . S
C3372 C3371 1.523 . S
C3373 C3357 1.429 . S
C3373 C3369 1.429 . S
C3373 C3374 1.523 . S
C3374 C3358 1.368 . S
C3374 C3370 1.368 . S
C3374 C3373 1.523 . S
H3375 C3350 0.950 . S
H3376 C3352 0.950 . S
H3377 C3353 0.949 . S
H3378 C3355 0.950 . S
H3379 C3357 0.950 . S
C3380 C3381 1.349 . S
C3380 C3382 1.327 . S
C3380 H3405 0.950 . S
C3381 C3380 1.349 . S
C3381 C3397 1.349 . S
C3382 C3380 1.327 . S
C3382 C3401 1.429 . S
C3382 H3406 0.950 . S
C3383 C3400 1.574 . S
C3383 C3402 1.368 1_655 S
C3383 H3407 0.949 1_655 S
H3384 C3388 0.949 . S
C3385 C3386 1.349 . S
C3385 C3387 1.327 . S
C3385 H3408 0.950 . S
C3386 C3385 1.349 . S
C3386 C3398 1.349 . S
C3387 C3385 1.327 . S
C3387 C3403 1.429 . S
C3387 H3409 0.950 . S
C3388 H3384 0.949 . S
C3388 C3396 1.574 . S
C3388 C3404 1.368 . S
H3389 C3397 0.950 . S
H3390 C3395 0.950 . S
H3391 C3396 0.949 1_455 S
H3392 C3398 0.950 . S
H3393 C3399 0.950 . S
H3394 C3400 0.949 . S
C3395 H3390 0.950 . S
C3395 C3397 1.327 . S
C3395 C3401 1.429 . S
C3396 C3388 1.574 . S
C3396 H3391 0.949 1_655 S
C3396 C3402 1.368 1_655 S
C3397 C3381 1.349 . S
C3397 H3389 0.950 . S
C3397 C3395 1.327 . S
C3398 C3386 1.349 . S
C3398 H3392 0.950 . S
C3398 C3399 1.327 . S
C3399 H3393 0.950 . S
C3399 C3398 1.327 . S
C3399 C3403 1.429 . S
C3400 C3383 1.574 . S
C3400 H3394 0.949 . S
C3400 C3404 1.368 . S
C3401 C3382 1.429 . S
C3401 C3395 1.429 . S
C3401 C3402 1.523 . S
C3402 C3383 1.368 1_455 S
C3402 C3396 1.368 1_455 S
C3402 C3401 1.523 . S
C3403 C3387 1.429 . S
C3403 C3399 1.429 . S
C3403 C3404 1.523 . S
C3404 C3388 1.368 . S
C3404 C3400 1.368 . S
C3404 C3403 1.523 . S
H3405 C3380 0.950 . S
H3406 C3382 0.950 . S
H3407 C3383 0.949 1_455 S
H3408 C3385 0.950 . S
H3409 C3387 0.950 . S
C3410 C3411 1.349 . S
C3410 C3412 1.327 . S
C3410 H3435 0.950 . S
C3411 C3410 1.349 . S
C3411 C3427 1.349 . S
C3412 C3410 1.327 . S
C3412 C3431 1.429 . S
C3412 H3436 0.950 . S
C3413 C3430 1.574 . S
C3413 C3432 1.368 . S
C3413 H3437 0.949 . S
H3414 C3418 0.949 . S
C3415 C3416 1.349 . S
C3415 C3417 1.327 . S
C3415 H3438 0.950 . S
C3416 C3415 1.349 . S
C3416 C3428 1.349 . S
C3417 C3415 1.327 . S
C3417 C3433 1.429 . S
C3417 H3439 0.950 . S
C3418 H3414 0.949 . S
C3418 C3426 1.574 . S
C3418 C3434 1.368 . S
H3419 C3427 0.950 . S
H3420 C3425 0.950 . S
H3421 C3426 0.949 . S
H3422 C3428 0.950 . S
H3423 C3429 0.950 . S
H3424 C3430 0.949 . S
C3425 H3420 0.950 . S
C3425 C3427 1.327 . S
C3425 C3431 1.429 . S
C3426 C3418 1.574 . S
C3426 H3421 0.949 . S
C3426 C3432 1.368 . S
C3427 C3411 1.349 . S
C3427 H3419 0.950 . S
C3427 C3425 1.327 . S
C3428 C3416 1.349 . S
C3428 H3422 0.950 . S
C3428 C3429 1.327 . S
C3429 H3423 0.950 . S
C3429 C3428 1.327 . S
C3429 C3433 1.429 . S
C3430 C3413 1.574 . S
C3430 H3424 0.949 . S
C3430 C3434 1.368 . S
C3431 C3412 1.429 . S
C3431 C3425 1.429 . S
C3431 C3432 1.523 . S
C3432 C3413 1.368 . S
C3432 C3426 1.368 . S
C3432 C3431 1.523 . S
C3433 C3417 1.429 . S
C3433 C3429 1.429 . S
C3433 C3434 1.523 . S
C3434 C3418 1.368 . S
C3434 C3430 1.368 . S
C3434 C3433 1.523 . S
H3435 C3410 0.950 . S
H3436 C3412 0.950 . S
H3437 C3413 0.949 . S
H3438 C3415 0.950 . S
H3439 C3417 0.950 . S
C3440 C3441 1.349 1_565 S
C3440 C3442 1.327 . S
C3440 H3465 0.950 . S
C3441 C3440 1.349 1_545 S
C3441 C3457 1.349 . S
C3442 C3440 1.327 . S
C3442 C3461 1.429 1_565 S
C3442 H3466 0.950 . S
C3443 C3460 1.574 . S
C3443 C3462 1.331 1_445 S
C3443 H3467 0.950 . S
H3444 C3448 0.949 . S
C3445 C3446 1.349 1_545 S
C3445 C3447 1.327 . S
C3445 H3468 0.950 . S
C3446 C3445 1.349 1_565 S
C3446 C3458 1.349 . S
C3447 C3445 1.327 . S
C3447 C3463 1.429 1_545 S
C3447 H3469 0.950 . S
C3448 H3444 0.949 . S
C3448 C3456 1.574 . S
C3448 C3464 1.368 . S
H3449 C3457 0.950 . S
H3450 C3455 0.950 . S
H3451 C3456 0.949 1_655 S
H3452 C3458 0.950 . S
H3453 C3459 0.950 . S
H3454 C3460 0.949 . S
C3455 H3450 0.950 . S
C3455 C3457 1.327 . S
C3455 C3461 1.429 . S
C3456 C3448 1.574 . S
C3456 H3451 0.949 1_455 S
C3456 C3462 1.411 1_455 S
C3457 C3441 1.349 . S
C3457 H3449 0.950 . S
C3457 C3455 1.327 . S
C3458 C3446 1.349 . S
C3458 H3452 0.950 . S
C3458 C3459 1.327 . S
C3459 H3453 0.950 . S
C3459 C3458 1.327 . S
C3459 C3463 1.429 . S
C3460 C3443 1.574 . S
C3460 H3454 0.949 . S
C3460 C3464 1.368 1_545 S
C3461 C3442 1.429 1_545 S
C3461 C3455 1.429 . S
C3461 C3462 1.517 1_545 S
C3462 C3443 1.331 1_665 S
C3462 C3456 1.411 1_655 S
C3462 C3461 1.517 1_565 S
C3463 C3447 1.429 1_565 S
C3463 C3459 1.429 . S
C3463 C3464 1.523 . S
C3464 C3448 1.368 . S
C3464 C3460 1.368 1_565 S
C3464 C3463 1.523 . S
H3465 C3440 0.950 . S
H3466 C3442 0.950 . S
H3467 C3443 0.950 . S
H3468 C3445 0.950 . S
H3469 C3447 0.950 . S
C3470 C3471 1.349 . S
C3470 C3472 1.327 . S
C3470 H3495 0.950 . S
C3471 C3470 1.349 . S
C3471 C3487 1.349 . S
C3472 C3470 1.327 . S
C3472 C3491 1.429 . S
C3472 H3496 0.950 . S
C3473 C3490 1.574 . S
C3473 C3492 1.368 . S
C3473 H3497 0.949 . S
H3474 C3478 0.949 . S
C3475 C3476 1.349 . S
C3475 C3477 1.327 . S
C3475 H3498 0.950 . S
C3476 C3475 1.349 . S
C3476 C3488 1.349 . S
C3477 C3475 1.327 . S
C3477 C3493 1.429 . S
C3477 H3499 0.950 . S
C3478 H3474 0.949 . S
C3478 C3486 1.574 . S
C3478 C3494 1.368 . S
H3479 C3487 0.950 . S
H3480 C3485 0.950 . S
H3481 C3486 0.949 . S
H3482 C3488 0.950 . S
H3483 C3489 0.950 . S
H3484 C3490 0.949 . S
C3485 H3480 0.950 . S
C3485 C3487 1.327 . S
C3485 C3491 1.429 . S
C3486 C3478 1.574 . S
C3486 H3481 0.949 . S
C3486 C3492 1.368 . S
C3487 C3471 1.349 . S
C3487 H3479 0.950 . S
C3487 C3485 1.327 . S
C3488 C3476 1.349 . S
C3488 H3482 0.950 . S
C3488 C3489 1.327 . S
C3489 H3483 0.950 . S
C3489 C3488 1.327 . S
C3489 C3493 1.429 . S
C3490 C3473 1.574 . S
C3490 H3484 0.949 . S
C3490 C3494 1.368 . S
C3491 C3472 1.429 . S
C3491 C3485 1.429 . S
C3491 C3492 1.523 . S
C3492 C3473 1.368 . S
C3492 C3486 1.368 . S
C3492 C3491 1.523 . S
C3493 C3477 1.429 . S
C3493 C3489 1.429 . S
C3493 C3494 1.523 . S
C3494 C3478 1.368 . S
C3494 C3490 1.368 . S
C3494 C3493 1.523 . S
H3495 C3470 0.950 . S
H3496 C3472 0.950 . S
H3497 C3473 0.949 . S
H3498 C3475 0.950 . S
H3499 C3477 0.950 . S
C3500 C3501 1.349 . S
C3500 C3502 1.327 . S
C3500 H3525 0.950 . S
C3501 C3500 1.349 . S
C3501 C3517 1.349 . S
C3502 C3500 1.327 . S
C3502 C3521 1.429 . S
C3502 H3526 0.950 . S
C3503 C3520 1.591 . S
C3503 C3522 1.364 1_455 S
C3503 H3527 0.937 1_455 S
H3504 C3508 0.949 . S
C3505 C3506 1.349 . S
C3505 C3507 1.327 . S
C3505 H3528 0.950 . S
C3506 C3505 1.349 . S
C3506 C3518 1.349 . S
C3507 C3505 1.327 . S
C3507 C3523 1.429 . S
C3507 H3529 0.950 . S
C3508 H3504 0.949 . S
C3508 C3516 1.574 . S
C3508 C3524 1.368 . S
H3509 C3517 0.950 . S
H3510 C3515 0.950 . S
H3511 C3516 0.960 . S
H3512 C3518 0.950 . S
H3513 C3519 0.950 . S
H3514 C3520 0.949 . S
C3515 H3510 0.950 . S
C3515 C3517 1.327 . S
C3515 C3521 1.429 . S
C3516 C3508 1.574 . S
C3516 H3511 0.960 . S
C3516 C3522 1.368 1_455 S
C3517 C3501 1.349 . S
C3517 H3509 0.950 . S
C3517 C3515 1.327 . S
C3518 C3506 1.349 . S
C3518 H3512 0.950 . S
C3518 C3519 1.327 . S
C3519 H3513 0.950 . S
C3519 C3518 1.327 . S
C3519 C3523 1.429 . S
C3520 C3503 1.591 . S
C3520 H3514 0.949 . S
C3520 C3524 1.368 . S
C3521 C3502 1.429 . S
C3521 C3515 1.429 . S
C3521 C3522 1.523 . S
C3522 C3503 1.364 1_655 S
C3522 C3516 1.368 1_655 S
C3522 C3521 1.523 . S
C3523 C3507 1.429 . S
C3523 C3519 1.429 . S
C3523 C3524 1.523 . S
C3524 C3508 1.368 . S
C3524 C3520 1.368 . S
C3524 C3523 1.523 . S
H3525 C3500 0.950 . S
H3526 C3502 0.950 . S
H3527 C3503 0.937 1_655 S
H3528 C3505 0.950 . S
H3529 C3507 0.950 . S
C3530 C3531 1.349 1_565 S
C3530 C3532 1.327 . S
C3530 H3555 0.950 . S
C3531 C3530 1.349 1_545 S
C3531 C3547 1.349 . S
C3532 C3530 1.327 . S
C3532 C3551 1.429 1_565 S
C3532 H3556 0.950 . S
C3533 C3550 1.574 . S
C3533 C3552 1.333 1_545 S
C3533 H3557 0.949 . S
H3534 C3538 0.949 . S
C3535 C3536 1.349 1_545 S
C3535 C3537 1.327 . S
C3535 H3558 0.950 . S
C3536 C3535 1.349 1_565 S
C3536 C3548 1.349 . S
C3537 C3535 1.327 . S
C3537 C3553 1.429 1_545 S
C3537 H3559 0.950 . S
C3538 H3534 0.949 . S
C3538 C3546 1.574 . S
C3538 C3554 1.368 . S
H3539 C3547 0.950 . S
H3540 C3545 0.950 . S
H3541 C3546 0.949 . S
H3542 C3548 0.950 . S
H3543 C3549 0.950 . S
H3544 C3550 0.949 . S
C3545 H3540 0.950 . S
C3545 C3547 1.327 . S
C3545 C3551 1.429 . S
C3546 C3538 1.574 . S
C3546 H3541 0.949 . S
C3546 C3552 1.409 . S
C3547 C3531 1.349 . S
C3547 H3539 0.950 . S
C3547 C3545 1.327 . S
C3548 C3536 1.349 . S
C3548 H3542 0.950 . S
C3548 C3549 1.327 . S
C3549 H3543 0.950 . S
C3549 C3548 1.327 . S
C3549 C3553 1.429 . S
C3550 C3533 1.574 . S
C3550 H3544 0.949 . S
C3550 C3554 1.368 1_545 S
C3551 C3532 1.429 1_545 S
C3551 C3545 1.429 . S
C3551 C3552 1.517 1_545 S
C3552 C3533 1.333 1_565 S
C3552 C3546 1.409 . S
C3552 C3551 1.517 1_565 S
C3553 C3537 1.429 1_565 S
C3553 C3549 1.429 . S
C3553 C3554 1.523 . S
C3554 C3538 1.368 . S
C3554 C3550 1.368 1_565 S
C3554 C3553 1.523 . S
H3555 C3530 0.950 . S
H3556 C3532 0.950 . S
H3557 C3533 0.949 . S
H3558 C3535 0.950 . S
H3559 C3537 0.950 . S
C3560 C3561 1.349 . S
C3560 C3562 1.327 . S
C3560 H3585 0.950 . S
C3561 C3560 1.349 . S
C3561 C3577 1.349 . S
C3562 C3560 1.327 . S
C3562 C3581 1.429 . S
C3562 H3586 0.950 . S
C3563 C3580 1.574 . S
C3563 C3582 1.368 1_565 S
C3563 H3587 0.949 . S
H3564 C3568 0.949 1_455 S
C3565 C3566 1.349 . S
C3565 C3567 1.327 . S
C3565 H3588 0.950 . S
C3566 C3565 1.349 . S
C3566 C3578 1.331 1_565 S
C3567 C3565 1.327 . S
C3567 C3583 1.429 . S
C3567 H3589 0.950 . S
C3568 H3564 0.949 1_655 S
C3568 C3576 1.574 . S
C3568 C3584 1.391 1_655 S
H3569 C3577 0.950 . S
H3570 C3575 0.950 1_565 S
H3571 C3576 0.949 . S
H3572 C3578 0.963 . S
H3573 C3579 0.950 . S
H3574 C3580 0.949 1_455 S
C3575 H3570 0.950 1_545 S
C3575 C3577 1.327 . S
C3575 C3581 1.429 . S
C3576 C3568 1.574 . S
C3576 H3571 0.949 . S
C3576 C3582 1.368 . S
C3577 C3561 1.349 . S
C3577 H3569 0.950 . S
C3577 C3575 1.327 . S
C3578 C3566 1.331 1_545 S
C3578 H3572 0.963 . S
C3578 C3579 1.334 . S
C3579 H3573 0.950 . S
C3579 C3578 1.334 . S
C3579 C3583 1.429 1_545 S
C3580 C3563 1.574 . S
C3580 H3574 0.949 1_655 S
C3580 C3584 1.352 1_665 S
C3581 C3562 1.429 . S
C3581 C3575 1.429 . S
C3581 C3582 1.523 . S
C3582 C3563 1.368 1_545 S
C3582 C3576 1.368 . S
C3582 C3581 1.523 . S
C3583 C3567 1.429 . S
C3583 C3579 1.429 1_565 S
C3583 C3584 1.517 1_565 S
C3584 C3568 1.391 1_455 S
C3584 C3580 1.352 1_445 S
C3584 C3583 1.517 1_545 S
H3585 C3560 0.950 . S
H3586 C3562 0.950 . S
H3587 C3563 0.949 . S
H3588 C3565 0.950 . S
H3589 C3567 0.950 . S
C3590 C3591 1.349 . S
C3590 C3592 1.327 . S
C3590 H3615 0.950 . S
C3591 C3590 1.349 . S
C3591 C3607 1.349 . S
C3592 C3590 1.327 . S
C3592 C3611 1.429 . S
C3592 H3616 0.950 . S
C3593 C3610 1.574 . S
C3593 C3612 1.368 . S
C3593 H3617 0.949 . S
H3594 C3598 0.949 . S
C3595 C3596 1.349 . S
C3595 C3597 1.327 . S
C3595 H3618 0.950 . S
C3596 C3595 1.349 . S
C3596 C3608 1.349 . S
C3597 C3595 1.327 . S
C3597 C3613 1.429 . S
C3597 H3619 0.950 . S
C3598 H3594 0.949 . S
C3598 C3606 1.574 . S
C3598 C3614 1.368 . S
H3599 C3607 0.950 . S
H3600 C3605 0.950 . S
H3601 C3606 0.949 . S
H3602 C3608 0.950 . S
H3603 C3609 0.950 . S
H3604 C3610 0.949 . S
C3605 H3600 0.950 . S
C3605 C3607 1.327 . S
C3605 C3611 1.429 . S
C3606 C3598 1.574 . S
C3606 H3601 0.949 . S
C3606 C3612 1.368 . S
C3607 C3591 1.349 . S
C3607 H3599 0.950 . S
C3607 C3605 1.327 . S
C3608 C3596 1.349 . S
C3608 H3602 0.950 . S
C3608 C3609 1.327 . S
C3609 H3603 0.950 . S
C3609 C3608 1.327 . S
C3609 C3613 1.429 . S
C3610 C3593 1.574 . S
C3610 H3604 0.949 . S
C3610 C3614 1.368 . S
C3611 C3592 1.429 . S
C3611 C3605 1.429 . S
C3611 C3612 1.523 . S
C3612 C3593 1.368 . S
C3612 C3606 1.368 . S
C3612 C3611 1.523 . S
C3613 C3597 1.429 . S
C3613 C3609 1.429 . S
C3613 C3614 1.523 . S
C3614 C3598 1.368 . S
C3614 C3610 1.368 . S
C3614 C3613 1.523 . S
H3615 C3590 0.950 . S
H3616 C3592 0.950 . S
H3617 C3593 0.949 . S
H3618 C3595 0.950 . S
H3619 C3597 0.950 . S
C3620 C3621 1.349 . S
C3620 C3622 1.327 . S
C3620 H3645 0.950 . S
C3621 C3620 1.349 . S
C3621 C3637 1.349 . S
C3622 C3620 1.327 . S
C3622 C3641 1.429 . S
C3622 H3646 0.950 . S
C3623 C3640 1.574 . S
C3623 C3642 1.368 1_655 S
C3623 H3647 0.949 1_655 S
H3624 C3628 0.949 . S
C3625 C3626 1.349 . S
C3625 C3627 1.327 . S
C3625 H3648 0.950 . S
C3626 C3625 1.349 . S
C3626 C3638 1.349 . S
C3627 C3625 1.327 . S
C3627 C3643 1.429 . S
C3627 H3649 0.950 . S
C3628 H3624 0.949 . S
C3628 C3636 1.574 . S
C3628 C3644 1.368 . S
H3629 C3637 0.950 . S
H3630 C3635 0.950 . S
H3631 C3636 0.949 1_455 S
H3632 C3638 0.950 . S
H3633 C3639 0.950 . S
H3634 C3640 0.949 . S
C3635 H3630 0.950 . S
C3635 C3637 1.327 . S
C3635 C3641 1.429 . S
C3636 C3628 1.574 . S
C3636 H3631 0.949 1_655 S
C3636 C3642 1.368 1_655 S
C3637 C3621 1.349 . S
C3637 H3629 0.950 . S
C3637 C3635 1.327 . S
C3638 C3626 1.349 . S
C3638 H3632 0.950 . S
C3638 C3639 1.327 . S
C3639 H3633 0.950 . S
C3639 C3638 1.327 . S
C3639 C3643 1.429 . S
C3640 C3623 1.574 . S
C3640 H3634 0.949 . S
C3640 C3644 1.368 . S
C3641 C3622 1.429 . S
C3641 C3635 1.429 . S
C3641 C3642 1.523 . S
C3642 C3623 1.368 1_455 S
C3642 C3636 1.368 1_455 S
C3642 C3641 1.523 . S
C3643 C3627 1.429 . S
C3643 C3639 1.429 . S
C3643 C3644 1.523 . S
C3644 C3628 1.368 . S
C3644 C3640 1.368 . S
C3644 C3643 1.523 . S
H3645 C3620 0.950 . S
H3646 C3622 0.950 . S
H3647 C3623 0.949 1_455 S
H3648 C3625 0.950 . S
H3649 C3627 0.950 . S
C3650 C3651 1.349 . S
C3650 C3652 1.327 . S
C3650 H3675 0.950 . S
C3651 C3650 1.349 . S
C3651 C3667 1.349 1_565 S
C3652 C3650 1.327 . S
C3652 C3671 1.429 . S
C3652 H3676 0.950 . S
C3653 C3670 1.574 . S
C3653 C3672 1.403 . S
C3653 H3677 0.949 . S
H3654 C3658 0.949 . S
C3655 C3656 1.349 . S
C3655 C3657 1.327 . S
C3655 H3678 0.950 . S
C3656 C3655 1.349 . S
C3656 C3668 1.349 . S
C3657 C3655 1.327 . S
C3657 C3673 1.429 . S
C3657 H3679 0.950 . S
C3658 H3654 0.949 . S
C3658 C3666 1.574 . S
C3658 C3674 1.368 1_565 S
H3659 C3667 0.950 . S
H3660 C3665 0.950 . S
H3661 C3666 0.949 . S
H3662 C3668 0.950 1_565 S
H3663 C3669 0.950 . S
H3664 C3670 0.949 . S
C3665 H3660 0.950 . S
C3665 C3667 1.327 . S
C3665 C3671 1.429 1_545 S
C3666 C3658 1.574 . S
C3666 H3661 0.949 . S
C3666 C3672 1.339 1_565 S
C3667 C3651 1.349 1_545 S
C3667 H3659 0.950 . S
C3667 C3665 1.327 . S
C3668 C3656 1.349 . S
C3668 H3662 0.950 1_545 S
C3668 C3669 1.327 1_545 S
C3669 H3663 0.950 . S
C3669 C3668 1.327 1_565 S
C3669 C3673 1.429 1_565 S
C3670 C3653 1.574 . S
C3670 H3664 0.949 . S
C3670 C3674 1.368 . S
C3671 C3652 1.429 . S
C3671 C3665 1.429 1_565 S
C3671 C3672 1.517 1_565 S
C3672 C3653 1.403 . S
C3672 C3666 1.339 1_545 S
C3672 C3671 1.517 1_545 S
C3673 C3657 1.429 . S
C3673 C3669 1.429 1_545 S
C3673 C3674 1.523 . S
C3674 C3658 1.368 1_545 S
C3674 C3670 1.368 . S
C3674 C3673 1.523 . S
H3675 C3650 0.950 . S
H3676 C3652 0.950 . S
H3677 C3653 0.949 . S
H3678 C3655 0.950 . S
H3679 C3657 0.950 . S
C3680 C3681 1.349 1_655 S
C3680 C3682 1.327 . S
C3680 H3705 0.950 . S
C3681 C3680 1.349 1_455 S
C3681 C3697 1.349 . S
C3682 C3680 1.327 . S
C3682 C3701 1.429 1_655 S
C3682 H3706 0.950 . S
C3683 C3700 1.574 1_554 S
C3683 C3702 1.368 . S
C3683 H3707 0.949 . S
H3684 C3688 0.949 . S
C3685 C3686 1.349 1_455 S
C3685 C3687 1.327 . S
C3685 H3708 0.950 . S
C3686 C3685 1.349 1_655 S
C3686 C3698 1.349 . S
C3687 C3685 1.327 . S
C3687 C3703 1.429 1_455 S
C3687 H3709 0.950 . S
C3688 H3684 0.949 . S
C3688 C3696 1.574 1_556 S
C3688 C3704 1.368 . S
H3689 C3697 0.950 . S
H3690 C3695 0.950 . S
H3691 C3696 0.949 . S
H3692 C3698 0.950 . S
H3693 C3699 0.950 . S
H3694 C3700 0.949 . S
C3695 H3690 0.950 . S
C3695 C3697 1.327 . S
C3695 C3701 1.429 . S
C3696 C3688 1.574 1_554 S
C3696 H3691 0.949 . S
C3696 C3702 1.368 1_655 S
C3697 C3681 1.349 . S
C3697 H3689 0.950 . S
C3697 C3695 1.327 . S
C3698 C3686 1.349 . S
C3698 H3692 0.950 . S
C3698 C3699 1.327 . S
C3699 H3693 0.950 . S
C3699 C3698 1.327 . S
C3699 C3703 1.429 . S
C3700 C3683 1.574 1_556 S
C3700 H3694 0.949 . S
C3700 C3704 1.368 1_455 S
C3701 C3682 1.429 1_455 S
C3701 C3695 1.429 . S
C3701 C3702 1.523 . S
C3702 C3683 1.368 . S
C3702 C3696 1.368 1_455 S
C3702 C3701 1.523 . S
C3703 C3687 1.429 1_655 S
C3703 C3699 1.429 . S
C3703 C3704 1.523 . S
C3704 C3688 1.368 . S
C3704 C3700 1.368 1_655 S
C3704 C3703 1.523 . S
H3705 C3680 0.950 . S
H3706 C3682 0.950 . S
H3707 C3683 0.949 . S
H3708 C3685 0.950 . S
H3709 C3687 0.950 . S
C3710 C3711 1.349 . S
C3710 C3712 1.327 . S
C3710 H3735 0.950 . S
C3711 C3710 1.349 . S
C3711 C3727 1.349 . S
C3712 C3710 1.327 . S
C3712 C3731 1.429 . S
C3712 H3736 0.950 . S
C3713 C3730 1.574 1_556 S
C3713 C3732 1.368 . S
C3713 H3737 0.949 . S
H3714 C3718 0.949 . S
C3715 C3716 1.349 . S
C3715 C3717 1.327 . S
C3715 H3738 0.950 . S
C3716 C3715 1.349 . S
C3716 C3728 1.349 . S
C3717 C3715 1.327 . S
C3717 C3733 1.429 . S
C3717 H3739 0.950 . S
C3718 H3714 0.949 . S
C3718 C3726 1.574 1_554 S
C3718 C3734 1.368 . S
H3719 C3727 0.950 . S
H3720 C3725 0.950 . S
H3721 C3726 0.949 . S
H3722 C3728 0.950 . S
H3723 C3729 0.950 . S
H3724 C3730 0.949 . S
C3725 H3720 0.950 . S
C3725 C3727 1.327 . S
C3725 C3731 1.429 . S
C3726 C3718 1.574 1_556 S
C3726 H3721 0.949 . S
C3726 C3732 1.368 . S
C3727 C3711 1.349 . S
C3727 H3719 0.950 . S
C3727 C3725 1.327 . S
C3728 C3716 1.349 . S
C3728 H3722 0.950 . S
C3728 C3729 1.327 . S
C3729 H3723 0.950 . S
C3729 C3728 1.327 . S
C3729 C3733 1.429 . S
C3730 C3713 1.574 1_554 S
C3730 H3724 0.949 . S
C3730 C3734 1.368 . S
C3731 C3712 1.429 . S
C3731 C3725 1.429 . S
C3731 C3732 1.523 . S
C3732 C3713 1.368 . S
C3732 C3726 1.368 . S
C3732 C3731 1.523 . S
C3733 C3717 1.429 . S
C3733 C3729 1.429 . S
C3733 C3734 1.523 . S
C3734 C3718 1.368 . S
C3734 C3730 1.368 . S
C3734 C3733 1.523 . S
H3735 C3710 0.950 . S
H3736 C3712 0.950 . S
H3737 C3713 0.949 . S
H3738 C3715 0.950 . S
H3739 C3717 0.950 . S
C3740 C3741 1.349 . S
C3740 C3742 1.327 . S
C3740 H3765 0.950 . S
C3741 C3740 1.349 . S
C3741 C3757 1.349 1_655 S
C3742 C3740 1.327 . S
C3742 C3761 1.429 . S
C3742 H3766 0.950 . S
C3743 C3760 1.574 . S
C3743 C3762 1.368 1_455 S
C3743 H3767 0.949 . S
H3744 C3748 0.949 . S
C3745 C3746 1.349 . S
C3745 C3747 1.327 . S
C3745 H3768 0.950 . S
C3746 C3745 1.349 . S
C3746 C3758 1.349 1_455 S
C3747 C3745 1.327 . S
C3747 C3763 1.429 . S
C3747 H3769 0.950 . S
C3748 H3744 0.949 . S
C3748 C3756 1.574 . S
C3748 C3764 1.368 1_655 S
H3749 C3757 0.950 . S
H3750 C3755 0.950 . S
H3751 C3756 0.949 . S
H3752 C3758 0.950 . S
H3753 C3759 0.950 . S
H3754 C3760 0.949 . S
C3755 H3750 0.950 . S
C3755 C3757 1.327 . S
C3755 C3761 1.429 1_455 S
C3756 C3748 1.574 . S
C3756 H3751 0.949 . S
C3756 C3762 1.368 . S
C3757 C3741 1.349 1_455 S
C3757 H3749 0.950 . S
C3757 C3755 1.327 . S
C3758 C3746 1.349 1_655 S
C3758 H3752 0.950 . S
C3758 C3759 1.327 . S
C3759 H3753 0.950 . S
C3759 C3758 1.327 . S
C3759 C3763 1.429 1_655 S
C3760 C3743 1.574 . S
C3760 H3754 0.949 . S
C3760 C3764 1.368 . S
C3761 C3742 1.429 . S
C3761 C3755 1.429 1_655 S
C3761 C3762 1.523 . S
C3762 C3743 1.368 1_655 S
C3762 C3756 1.368 . S
C3762 C3761 1.523 . S
C3763 C3747 1.429 . S
C3763 C3759 1.429 1_455 S
C3763 C3764 1.523 . S
C3764 C3748 1.368 1_455 S
C3764 C3760 1.368 . S
C3764 C3763 1.523 . S
H3765 C3740 0.950 . S
H3766 C3742 0.950 . S
H3767 C3743 0.949 . S
H3768 C3745 0.950 . S
H3769 C3747 0.950 . S
C3770 C3771 1.349 . S
C3770 C3772 1.327 . S
C3770 H3795 0.950 . S
C3771 C3770 1.349 . S
C3771 C3787 1.349 . S
C3772 C3770 1.327 . S
C3772 C3791 1.429 . S
C3772 H3796 0.950 . S
C3773 C3790 1.574 . S
C3773 C3792 1.368 . S
C3773 H3797 0.949 . S
H3774 C3778 0.949 . S
C3775 C3776 1.349 . S
C3775 C3777 1.327 . S
C3775 H3798 0.950 . S
C3776 C3775 1.349 . S
C3776 C3788 1.349 . S
C3777 C3775 1.327 . S
C3777 C3793 1.429 . S
C3777 H3799 0.950 . S
C3778 H3774 0.949 . S
C3778 C3786 1.574 . S
C3778 C3794 1.368 . S
H3779 C3787 0.950 . S
H3780 C3785 0.950 . S
H3781 C3786 0.949 . S
H3782 C3788 0.950 . S
H3783 C3789 0.950 . S
H3784 C3790 0.949 . S
C3785 H3780 0.950 . S
C3785 C3787 1.327 . S
C3785 C3791 1.429 . S
C3786 C3778 1.574 . S
C3786 H3781 0.949 . S
C3786 C3792 1.368 . S
C3787 C3771 1.349 . S
C3787 H3779 0.950 . S
C3787 C3785 1.327 . S
C3788 C3776 1.349 . S
C3788 H3782 0.950 . S
C3788 C3789 1.327 . S
C3789 H3783 0.950 . S
C3789 C3788 1.327 . S
C3789 C3793 1.429 . S
C3790 C3773 1.574 . S
C3790 H3784 0.949 . S
C3790 C3794 1.368 . S
C3791 C3772 1.429 . S
C3791 C3785 1.429 . S
C3791 C3792 1.523 . S
C3792 C3773 1.368 . S
C3792 C3786 1.368 . S
C3792 C3791 1.523 . S
C3793 C3777 1.429 . S
C3793 C3789 1.429 . S
C3793 C3794 1.523 . S
C3794 C3778 1.368 . S
C3794 C3790 1.368 . S
C3794 C3793 1.523 . S
H3795 C3770 0.950 . S
H3796 C3772 0.950 . S
H3797 C3773 0.949 . S
H3798 C3775 0.950 . S
H3799 C3777 0.950 . S
C3800 C3801 1.349 . S
C3800 C3802 1.327 . S
C3800 H3825 0.950 . S
C3801 C3800 1.349 . S
C3801 C3817 1.349 . S
C3802 C3800 1.327 . S
C3802 C3821 1.429 . S
C3802 H3826 0.950 . S
C3803 C3820 1.574 1_556 S
C3803 C3822 1.368 . S
C3803 H3827 0.949 . S
H3804 C3808 0.949 . S
C3805 C3806 1.349 . S
C3805 C3807 1.327 . S
C3805 H3828 0.950 . S
C3806 C3805 1.349 . S
C3806 C3818 1.349 . S
C3807 C3805 1.327 . S
C3807 C3823 1.429 . S
C3807 H3829 0.950 . S
C3808 H3804 0.949 . S
C3808 C3816 1.574 1_554 S
C3808 C3824 1.368 . S
H3809 C3817 0.950 . S
H3810 C3815 0.950 . S
H3811 C3816 0.949 . S
H3812 C3818 0.950 . S
H3813 C3819 0.950 . S
H3814 C3820 0.949 . S
C3815 H3810 0.950 . S
C3815 C3817 1.327 . S
C3815 C3821 1.429 . S
C3816 C3808 1.574 1_556 S
C3816 H3811 0.949 . S
C3816 C3822 1.368 . S
C3817 C3801 1.349 . S
C3817 H3809 0.950 . S
C3817 C3815 1.327 . S
C3818 C3806 1.349 . S
C3818 H3812 0.950 . S
C3818 C3819 1.327 . S
C3819 H3813 0.950 . S
C3819 C3818 1.327 . S
C3819 C3823 1.429 . S
C3820 C3803 1.574 1_554 S
C3820 H3814 0.949 . S
C3820 C3824 1.368 . S
C3821 C3802 1.429 . S
C3821 C3815 1.429 . S
C3821 C3822 1.523 . S
C3822 C3803 1.368 . S
C3822 C3816 1.368 . S
C3822 C3821 1.523 . S
C3823 C3807 1.429 . S
C3823 C3819 1.429 . S
C3823 C3824 1.523 . S
C3824 C3808 1.368 . S
C3824 C3820 1.368 . S
C3824 C3823 1.523 . S
H3825 C3800 0.950 . S
H3826 C3802 0.950 . S
H3827 C3803 0.949 . S
H3828 C3805 0.950 . S
H3829 C3807 0.950 . S
C3830 C3831 1.349 . S
C3830 C3832 1.327 . S
C3830 H3855 0.950 . S
C3831 C3830 1.349 . S
C3831 C3847 1.349 1_655 S
C3832 C3830 1.327 . S
C3832 C3851 1.429 . S
C3832 H3856 0.950 . S
C3833 C3850 1.574 . S
C3833 C3852 1.368 1_455 S
C3833 H3857 0.949 . S
H3834 C3838 0.949 . S
C3835 C3836 1.349 . S
C3835 C3837 1.327 . S
C3835 H3858 0.950 . S
C3836 C3835 1.349 . S
C3836 C3848 1.349 1_455 S
C3837 C3835 1.327 . S
C3837 C3853 1.429 . S
C3837 H3859 0.950 . S
C3838 H3834 0.949 . S
C3838 C3846 1.574 . S
C3838 C3854 1.368 1_655 S
H3839 C3847 0.950 . S
H3840 C3845 0.950 . S
H3841 C3846 0.949 . S
H3842 C3848 0.950 . S
H3843 C3849 0.950 . S
H3844 C3850 0.949 . S
C3845 H3840 0.950 . S
C3845 C3847 1.327 . S
C3845 C3851 1.429 1_455 S
C3846 C3838 1.574 . S
C3846 H3841 0.949 . S
C3846 C3852 1.368 . S
C3847 C3831 1.349 1_455 S
C3847 H3839 0.950 . S
C3847 C3845 1.327 . S
C3848 C3836 1.349 1_655 S
C3848 H3842 0.950 . S
C3848 C3849 1.327 . S
C3849 H3843 0.950 . S
C3849 C3848 1.327 . S
C3849 C3853 1.429 1_655 S
C3850 C3833 1.574 . S
C3850 H3844 0.949 . S
C3850 C3854 1.368 . S
C3851 C3832 1.429 . S
C3851 C3845 1.429 1_655 S
C3851 C3852 1.523 . S
C3852 C3833 1.368 1_655 S
C3852 C3846 1.368 . S
C3852 C3851 1.523 . S
C3853 C3837 1.429 . S
C3853 C3849 1.429 1_455 S
C3853 C3854 1.523 . S
C3854 C3838 1.368 1_455 S
C3854 C3850 1.368 . S
C3854 C3853 1.523 . S
H3855 C3830 0.950 . S
H3856 C3832 0.950 . S
H3857 C3833 0.949 . S
H3858 C3835 0.950 . S
H3859 C3837 0.950 . S
C3860 C3861 1.349 . S
C3860 C3862 1.327 . S
C3860 H3885 0.950 . S
C3861 C3860 1.349 . S
C3861 C3877 1.349 . S
C3862 C3860 1.327 . S
C3862 C3881 1.429 . S
C3862 H3886 0.950 . S
C3863 C3880 1.574 . S
C3863 C3882 1.368 . S
C3863 H3887 0.949 . S
H3864 C3868 0.949 . S
C3865 C3866 1.349 . S
C3865 C3867 1.327 . S
C3865 H3888 0.950 . S
C3866 C3865 1.349 . S
C3866 C3878 1.349 . S
C3867 C3865 1.327 . S
C3867 C3883 1.429 . S
C3867 H3889 0.950 . S
C3868 H3864 0.949 . S
C3868 C3876 1.574 . S
C3868 C3884 1.368 . S
H3869 C3877 0.950 . S
H3870 C3875 0.950 . S
H3871 C3876 0.949 . S
H3872 C3878 0.950 . S
H3873 C3879 0.950 . S
H3874 C3880 0.949 . S
C3875 H3870 0.950 . S
C3875 C3877 1.327 . S
C3875 C3881 1.429 . S
C3876 C3868 1.574 . S
C3876 H3871 0.949 . S
C3876 C3882 1.368 . S
C3877 C3861 1.349 . S
C3877 H3869 0.950 . S
C3877 C3875 1.327 . S
C3878 C3866 1.349 . S
C3878 H3872 0.950 . S
C3878 C3879 1.327 . S
C3879 H3873 0.950 . S
C3879 C3878 1.327 . S
C3879 C3883 1.429 . S
C3880 C3863 1.574 . S
C3880 H3874 0.949 . S
C3880 C3884 1.368 . S
C3881 C3862 1.429 . S
C3881 C3875 1.429 . S
C3881 C3882 1.523 . S
C3882 C3863 1.368 . S
C3882 C3876 1.368 . S
C3882 C3881 1.523 . S
C3883 C3867 1.429 . S
C3883 C3879 1.429 . S
C3883 C3884 1.523 . S
C3884 C3868 1.368 . S
C3884 C3880 1.368 . S
C3884 C3883 1.523 . S
H3885 C3860 0.950 . S
H3886 C3862 0.950 . S
H3887 C3863 0.949 . S
H3888 C3865 0.950 . S
H3889 C3867 0.950 . S
C3890 C3891 1.349 1_655 S
C3890 C3892 1.327 . S
C3890 H3915 0.950 . S
C3891 C3890 1.349 1_455 S
C3891 C3907 1.349 1_565 S
C3892 C3890 1.327 . S
C3892 C3911 1.429 1_655 S
C3892 H3916 0.950 . S
C3893 C3910 1.574 . S
C3893 C3912 1.336 1_545 S
C3893 H3917 0.949 . S
H3894 C3898 0.949 . S
C3895 C3896 1.349 1_455 S
C3895 C3897 1.327 . S
C3895 H3918 0.950 . S
C3896 C3895 1.349 1_655 S
C3896 C3908 1.349 1_545 S
C3897 C3895 1.327 . S
C3897 C3913 1.429 1_455 S
C3897 H3919 0.950 . S
C3898 H3894 0.949 . S
C3898 C3906 1.574 . S
C3898 C3914 1.336 1_565 S
H3899 C3907 0.950 . S
H3900 C3905 0.950 . S
H3901 C3906 0.949 . S
H3902 C3908 0.950 . S
H3903 C3909 0.950 . S
H3904 C3910 0.949 . S
C3905 H3900 0.950 . S
C3905 C3907 1.327 . S
C3905 C3911 1.429 1_545 S
C3906 C3898 1.574 . S
C3906 H3901 0.949 . S
C3906 C3912 1.400 1_655 S
C3907 C3891 1.349 1_545 S
C3907 H3899 0.950 . S
C3907 C3905 1.327 . S
C3908 C3896 1.349 1_565 S
C3908 H3902 0.950 . S
C3908 C3909 1.327 . S
C3909 H3903 0.950 . S
C3909 C3908 1.327 . S
C3909 C3913 1.429 1_565 S
C3910 C3893 1.574 . S
C3910 H3904 0.949 . S
C3910 C3914 1.400 1_455 S
C3911 C3892 1.429 1_455 S
C3911 C3905 1.429 1_565 S
C3911 C3912 1.525 . S
C3912 C3893 1.336 1_565 S
C3912 C3906 1.400 1_455 S
C3912 C3911 1.525 . S
C3913 C3897 1.429 1_655 S
C3913 C3909 1.429 1_545 S
C3913 C3914 1.525 . S
C3914 C3898 1.336 1_545 S
C3914 C3910 1.400 1_655 S
C3914 C3913 1.525 . S
H3915 C3890 0.950 . S
H3916 C3892 0.950 . S
H3917 C3893 0.949 . S
H3918 C3895 0.950 . S
H3919 C3897 0.950 . S
C3920 C3921 1.349 . S
C3920 C3922 1.327 . S
C3920 H3945 0.950 . S
C3921 C3920 1.349 . S
C3921 C3937 1.349 . S
C3922 C3920 1.327 . S
C3922 C3941 1.429 . S
C3922 H3946 0.950 . S
C3923 C3940 1.574 . S
C3923 C3942 1.368 . S
C3923 H3947 0.949 . S
H3924 C3928 0.949 . S
C3925 C3926 1.349 . S
C3925 C3927 1.327 . S
C3925 H3948 0.950 . S
C3926 C3925 1.349 . S
C3926 C3938 1.349 . S
C3927 C3925 1.327 . S
C3927 C3943 1.429 . S
C3927 H3949 0.950 . S
C3928 H3924 0.949 . S
C3928 C3936 1.574 . S
C3928 C3944 1.368 . S
H3929 C3937 0.950 . S
H3930 C3935 0.950 . S
H3931 C3936 0.949 . S
H3932 C3938 0.950 . S
H3933 C3939 0.950 . S
H3934 C3940 0.949 . S
C3935 H3930 0.950 . S
C3935 C3937 1.327 . S
C3935 C3941 1.429 . S
C3936 C3928 1.574 . S
C3936 H3931 0.949 . S
C3936 C3942 1.368 . S
C3937 C3921 1.349 . S
C3937 H3929 0.950 . S
C3937 C3935 1.327 . S
C3938 C3926 1.349 . S
C3938 H3932 0.950 . S
C3938 C3939 1.327 . S
C3939 H3933 0.950 . S
C3939 C3938 1.327 . S
C3939 C3943 1.429 . S
C3940 C3923 1.574 . S
C3940 H3934 0.949 . S
C3940 C3944 1.368 . S
C3941 C3922 1.429 . S
C3941 C3935 1.429 . S
C3941 C3942 1.523 . S
C3942 C3923 1.368 . S
C3942 C3936 1.368 . S
C3942 C3941 1.523 . S
C3943 C3927 1.429 . S
C3943 C3939 1.429 . S
C3943 C3944 1.523 . S
C3944 C3928 1.368 . S
C3944 C3940 1.368 . S
C3944 C3943 1.523 . S
H3945 C3920 0.950 . S
H3946 C3922 0.950 . S
H3947 C3923 0.949 . S
H3948 C3925 0.950 . S
H3949 C3927 0.950 . S
C3950 C3951 1.349 . S
C3950 C3952 1.327 . S
C3950 H3975 0.950 . S
C3951 C3950 1.349 . S
C3951 C3967 1.349 1_545 S
C3952 C3950 1.327 . S
C3952 C3971 1.429 . S
C3952 H3976 0.950 . S
C3953 C3970 1.574 . S
C3953 C3972 1.337 1_565 S
C3953 H3977 0.949 . S
H3954 C3958 0.949 . S
C3955 C3956 1.349 . S
C3955 C3957 1.327 . S
C3955 H3978 0.950 . S
C3956 C3955 1.349 . S
C3956 C3968 1.349 1_565 S
C3957 C3955 1.327 . S
C3957 C3973 1.429 . S
C3957 H3979 0.950 . S
C3958 H3954 0.949 . S
C3958 C3966 1.574 . S
C3958 C3974 1.337 1_545 S
H3959 C3967 0.950 . S
H3960 C3965 0.950 . S
H3961 C3966 0.949 . S
H3962 C3968 0.950 . S
H3963 C3969 0.950 . S
H3964 C3970 0.949 . S
C3965 H3960 0.950 . S
C3965 C3967 1.327 . S
C3965 C3971 1.429 1_565 S
C3966 C3958 1.574 . S
C3966 H3961 0.949 . S
C3966 C3972 1.399 . S
C3967 C3951 1.349 1_565 S
C3967 H3959 0.950 . S
C3967 C3965 1.327 . S
C3968 C3956 1.349 1_545 S
C3968 H3962 0.950 . S
C3968 C3969 1.327 . S
C3969 H3963 0.950 . S
C3969 C3968 1.327 . S
C3969 C3973 1.429 1_545 S
C3970 C3953 1.574 . S
C3970 H3964 0.949 . S
C3970 C3974 1.399 . S
C3971 C3952 1.429 . S
C3971 C3965 1.429 1_545 S
C3971 C3972 1.525 . S
C3972 C3953 1.337 1_545 S
C3972 C3966 1.399 . S
C3972 C3971 1.525 . S
C3973 C3957 1.429 . S
C3973 C3969 1.429 1_565 S
C3973 C3974 1.525 . S
C3974 C3958 1.337 1_565 S
C3974 C3970 1.399 . S
C3974 C3973 1.525 . S
H3975 C3950 0.950 . S
H3976 C3952 0.950 . S
H3977 C3953 0.949 . S
H3978 C3955 0.950 . S
H3979 C3957 0.950 . S
C3980 C3981 1.349 . S
C3980 C3982 1.327 . S
C3980 H4005 0.950 . S
C3981 C3980 1.349 . S
C3981 C3997 1.349 . S
C3982 C3980 1.327 . S
C3982 C4001 1.429 . S
C3982 H4006 0.950 . S
C3983 C4000 1.574 . S
C3983 C4002 1.368 . S
C3983 H4007 0.949 . S
H3984 C3988 0.949 . S
C3985 C3986 1.349 . S
C3985 C3987 1.327 . S
C3985 H4008 0.950 . S
C3986 C3985 1.349 . S
C3986 C3998 1.349 . S
C3987 C3985 1.327 . S
C3987 C4003 1.429 . S
C3987 H4009 0.950 . S
C3988 H3984 0.949 . S
C3988 C3996 1.574 . S
C3988 C4004 1.368 . S
H3989 C3997 0.950 . S
H3990 C3995 0.950 . S
H3991 C3996 0.949 . S
H3992 C3998 0.950 . S
H3993 C3999 0.950 . S
H3994 C4000 0.949 . S
C3995 H3990 0.950 . S
C3995 C3997 1.327 . S
C3995 C4001 1.429 . S
C3996 C3988 1.574 . S
C3996 H3991 0.949 . S
C3996 C4002 1.368 . S
C3997 C3981 1.349 . S
C3997 H3989 0.950 . S
C3997 C3995 1.327 . S
C3998 C3986 1.349 . S
C3998 H3992 0.950 . S
C3998 C3999 1.327 . S
C3999 H3993 0.950 . S
C3999 C3998 1.327 . S
C3999 C4003 1.429 . S
C4000 C3983 1.574 . S
C4000 H3994 0.949 . S
C4000 C4004 1.368 . S
C4001 C3982 1.429 . S
C4001 C3995 1.429 . S
C4001 C4002 1.523 . S
C4002 C3983 1.368 . S
C4002 C3996 1.368 . S
C4002 C4001 1.523 . S
C4003 C3987 1.429 . S
C4003 C3999 1.429 . S
C4003 C4004 1.523 . S
C4004 C3988 1.368 . S
C4004 C4000 1.368 . S
C4004 C4003 1.523 . S
H4005 C3980 0.950 . S
H4006 C3982 0.950 . S
H4007 C3983 0.949 . S
H4008 C3985 0.950 . S
H4009 C3987 0.950 . S
C4010 C4011 1.349 1_545 S
C4010 C4012 1.327 . S
C4010 H4035 0.950 . S
C4011 C4010 1.349 1_565 S
C4011 C4027 1.349 . S
C4012 C4010 1.327 . S
C4012 C4031 1.429 1_545 S
C4012 H4036 0.950 . S
C4013 C4030 1.574 . S
C4013 C4032 1.397 . S
C4013 H4037 0.949 . S
H4014 C4018 0.949 . S
C4015 C4016 1.349 1_565 S
C4015 C4017 1.327 . S
C4015 H4038 0.950 . S
C4016 C4015 1.349 1_545 S
C4016 C4028 1.349 . S
C4017 C4015 1.327 . S
C4017 C4033 1.429 1_565 S
C4017 H4039 0.950 . S
C4018 H4014 0.949 . S
C4018 C4026 1.574 . S
C4018 C4034 1.397 . S
H4019 C4027 0.950 . S
H4020 C4025 0.950 . S
H4021 C4026 0.949 . S
H4022 C4028 0.950 . S
H4023 C4029 0.950 . S
H4024 C4030 0.949 . S
C4025 H4020 0.950 . S
C4025 C4027 1.327 . S
C4025 C4031 1.429 . S
C4026 C4018 1.574 . S
C4026 H4021 0.949 . S
C4026 C4032 1.339 1_545 S
C4027 C4011 1.349 . S
C4027 H4019 0.950 . S
C4027 C4025 1.327 . S
C4028 C4016 1.349 . S
C4028 H4022 0.950 . S
C4028 C4029 1.327 . S
C4029 H4023 0.950 . S
C4029 C4028 1.327 . S
C4029 C4033 1.429 . S
C4030 C4013 1.574 . S
C4030 H4024 0.949 . S
C4030 C4034 1.339 1_565 S
C4031 C4012 1.429 1_565 S
C4031 C4025 1.429 . S
C4031 C4032 1.525 . S
C4032 C4013 1.397 . S
C4032 C4026 1.339 1_565 S
C4032 C4031 1.525 . S
C4033 C4017 1.429 1_545 S
C4033 C4029 1.429 . S
C4033 C4034 1.525 . S
C4034 C4018 1.397 . S
C4034 C4030 1.339 1_545 S
C4034 C4033 1.525 . S
H4035 C4010 0.950 . S
H4036 C4012 0.950 . S
H4037 C4013 0.949 . S
H4038 C4015 0.950 . S
H4039 C4017 0.950 . S
C4040 C4041 1.349 . S
C4040 C4042 1.327 . S
C4040 H4065 0.950 . S
C4041 C4040 1.349 . S
C4041 C4057 1.349 . S
C4042 C4040 1.327 . S
C4042 C4061 1.429 . S
C4042 H4066 0.950 . S
C4043 C4060 1.574 . S
C4043 C4062 1.368 . S
C4043 H4067 0.949 . S
H4044 C4048 0.949 . S
C4045 C4046 1.349 . S
C4045 C4047 1.327 . S
C4045 H4068 0.950 . S
C4046 C4045 1.349 . S
C4046 C4058 1.349 . S
C4047 C4045 1.327 . S
C4047 C4063 1.429 . S
C4047 H4069 0.950 . S
C4048 H4044 0.949 . S
C4048 C4056 1.574 . S
C4048 C4064 1.368 . S
H4049 C4057 0.950 . S
H4050 C4055 0.950 . S
H4051 C4056 0.949 . S
H4052 C4058 0.950 . S
H4053 C4059 0.950 . S
H4054 C4060 0.949 . S
C4055 H4050 0.950 . S
C4055 C4057 1.327 . S
C4055 C4061 1.429 . S
C4056 C4048 1.574 . S
C4056 H4051 0.949 . S
C4056 C4062 1.368 . S
C4057 C4041 1.349 . S
C4057 H4049 0.950 . S
C4057 C4055 1.327 . S
C4058 C4046 1.349 . S
C4058 H4052 0.950 . S
C4058 C4059 1.327 . S
C4059 H4053 0.950 . S
C4059 C4058 1.327 . S
C4059 C4063 1.429 . S
C4060 C4043 1.574 . S
C4060 H4054 0.949 . S
C4060 C4064 1.368 . S
C4061 C4042 1.429 . S
C4061 C4055 1.429 . S
C4061 C4062 1.523 . S
C4062 C4043 1.368 . S
C4062 C4056 1.368 . S
C4062 C4061 1.523 . S
C4063 C4047 1.429 . S
C4063 C4059 1.429 . S
C4063 C4064 1.523 . S
C4064 C4048 1.368 . S
C4064 C4060 1.368 . S
C4064 C4063 1.523 . S
H4065 C4040 0.950 . S
H4066 C4042 0.950 . S
H4067 C4043 0.949 . S
H4068 C4045 0.950 . S
H4069 C4047 0.950 . S
C4070 C4071 1.349 . S
C4070 C4072 1.327 . S
C4070 H4095 0.950 . S
C4071 C4070 1.349 . S
C4071 C4087 1.349 . S
C4072 C4070 1.327 . S
C4072 C4091 1.429 . S
C4072 H4096 0.950 . S
C4073 C4090 1.574 . S
C4073 C4092 1.368 . S
C4073 H4097 0.949 . S
H4074 C4078 0.949 . S
C4075 C4076 1.349 . S
C4075 C4077 1.327 . S
C4075 H4098 0.950 . S
C4076 C4075 1.349 . S
C4076 C4088 1.349 . S
C4077 C4075 1.327 . S
C4077 C4093 1.429 . S
C4077 H4099 0.950 . S
C4078 H4074 0.949 . S
C4078 C4086 1.574 . S
C4078 C4094 1.368 . S
H4079 C4087 0.950 . S
H4080 C4085 0.950 . S
H4081 C4086 0.949 . S
H4082 C4088 0.950 . S
H4083 C4089 0.950 . S
H4084 C4090 0.949 . S
C4085 H4080 0.950 . S
C4085 C4087 1.327 . S
C4085 C4091 1.429 . S
C4086 C4078 1.574 . S
C4086 H4081 0.949 . S
C4086 C4092 1.368 . S
C4087 C4071 1.349 . S
C4087 H4079 0.950 . S
C4087 C4085 1.327 . S
C4088 C4076 1.349 . S
C4088 H4082 0.950 . S
C4088 C4089 1.327 . S
C4089 H4083 0.950 . S
C4089 C4088 1.327 . S
C4089 C4093 1.429 . S
C4090 C4073 1.574 . S
C4090 H4084 0.949 . S
C4090 C4094 1.368 . S
C4091 C4072 1.429 . S
C4091 C4085 1.429 . S
C4091 C4092 1.523 . S
C4092 C4073 1.368 . S
C4092 C4086 1.368 . S
C4092 C4091 1.523 . S
C4093 C4077 1.429 . S
C4093 C4089 1.429 . S
C4093 C4094 1.523 . S
C4094 C4078 1.368 . S
C4094 C4090 1.368 . S
C4094 C4093 1.523 . S
H4095 C4070 0.950 . S
H4096 C4072 0.950 . S
H4097 C4073 0.949 . S
H4098 C4075 0.950 . S
H4099 C4077 0.950 . S
C4100 C4101 1.349 . S
C4100 C4102 1.327 . S
C4100 H4125 0.950 . S
C4101 C4100 1.349 . S
C4101 C4117 1.349 . S
C4102 C4100 1.327 . S
C4102 C4121 1.429 . S
C4102 H4126 0.950 . S
C4103 C4120 1.574 . S
C4103 C4122 1.368 . S
C4103 H4127 0.949 . S
H4104 C4108 0.949 . S
C4105 C4106 1.349 . S
C4105 C4107 1.327 . S
C4105 H4128 0.950 . S
C4106 C4105 1.349 . S
C4106 C4118 1.349 . S
C4107 C4105 1.327 . S
C4107 C4123 1.429 . S
C4107 H4129 0.950 . S
C4108 H4104 0.949 . S
C4108 C4116 1.574 . S
C4108 C4124 1.368 . S
H4109 C4117 0.950 . S
H4110 C4115 0.950 . S
H4111 C4116 0.949 . S
H4112 C4118 0.950 . S
H4113 C4119 0.950 . S
H4114 C4120 0.949 . S
C4115 H4110 0.950 . S
C4115 C4117 1.327 . S
C4115 C4121 1.429 . S
C4116 C4108 1.574 . S
C4116 H4111 0.949 . S
C4116 C4122 1.368 . S
C4117 C4101 1.349 . S
C4117 H4109 0.950 . S
C4117 C4115 1.327 . S
C4118 C4106 1.349 . S
C4118 H4112 0.950 . S
C4118 C4119 1.327 . S
C4119 H4113 0.950 . S
C4119 C4118 1.327 . S
C4119 C4123 1.429 . S
C4120 C4103 1.574 . S
C4120 H4114 0.949 . S
C4120 C4124 1.368 . S
C4121 C4102 1.429 . S
C4121 C4115 1.429 . S
C4121 C4122 1.523 . S
C4122 C4103 1.368 . S
C4122 C4116 1.368 . S
C4122 C4121 1.523 . S
C4123 C4107 1.429 . S
C4123 C4119 1.429 . S
C4123 C4124 1.523 . S
C4124 C4108 1.368 . S
C4124 C4120 1.368 . S
C4124 C4123 1.523 . S
H4125 C4100 0.950 . S
H4126 C4102 0.950 . S
H4127 C4103 0.949 . S
H4128 C4105 0.950 . S
H4129 C4107 0.950 . S
C4130 C4131 1.349 . S
C4130 C4132 1.327 . S
C4130 H4155 0.950 . S
C4131 C4130 1.349 . S
C4131 C4147 1.349 1_565 S
C4132 C4130 1.327 . S
C4132 C4151 1.429 . S
C4132 H4156 0.950 . S
C4133 C4150 1.574 1_554 S
C4133 C4152 1.337 1_545 S
C4133 H4157 0.949 . S
H4134 C4138 0.949 . S
C4135 C4136 1.349 . S
C4135 C4137 1.327 . S
C4135 H4158 0.950 . S
C4136 C4135 1.349 . S
C4136 C4148 1.349 1_545 S
C4137 C4135 1.327 . S
C4137 C4153 1.429 . S
C4137 H4159 0.950 . S
C4138 H4134 0.949 . S
C4138 C4146 1.574 1_556 S
C4138 C4154 1.337 1_565 S
H4139 C4147 0.950 . S
H4140 C4145 0.950 . S
H4141 C4146 0.949 . S
H4142 C4148 0.950 . S
H4143 C4149 0.950 . S
H4144 C4150 0.949 . S
C4145 H4140 0.950 . S
C4145 C4147 1.327 . S
C4145 C4151 1.429 1_545 S
C4146 C4138 1.574 1_554 S
C4146 H4141 0.949 . S
C4146 C4152 1.399 . S
C4147 C4131 1.349 1_545 S
C4147 H4139 0.950 . S
C4147 C4145 1.327 . S
C4148 C4136 1.349 1_565 S
C4148 H4142 0.950 . S
C4148 C4149 1.327 . S
C4149 H4143 0.950 . S
C4149 C4148 1.327 . S
C4149 C4153 1.429 1_565 S
C4150 C4133 1.574 1_556 S
C4150 H4144 0.949 . S
C4150 C4154 1.399 . S
C4151 C4132 1.429 . S
C4151 C4145 1.429 1_565 S
C4151 C4152 1.525 . S
C4152 C4133 1.337 1_565 S
C4152 C4146 1.399 . S
C4152 C4151 1.525 . S
C4153 C4137 1.429 . S
C4153 C4149 1.429 1_545 S
C4153 C4154 1.525 . S
C4154 C4138 1.337 1_545 S
C4154 C4150 1.399 . S
C4154 C4153 1.525 . S
H4155 C4130 0.950 . S
H4156 C4132 0.950 . S
H4157 C4133 0.949 . S
H4158 C4135 0.950 . S
H4159 C4137 0.950 . S
C1281 C2 1.699 . S
C1286 C1002 1.699 . S
C1311 C962 1.699 . S
C1316 C42 1.699 . S
C1341 C1082 1.699 . S
C1346 C82 1.699 . S
C1371 C122 1.699 . S
C1376 C1042 1.699 . S
C1401 C171 1.699 . S
C1406 C1171 1.699 . S
C1431 C211 1.699 . S
C1436 C1131 1.699 . S
C1461 C251 1.699 . S
C1466 C1251 1.699 . S
C1491 C1211 1.699 . S
C1496 C291 1.699 . S
C1521 C322 1.699 . S
C1526 C682 1.699 . S
C1551 C362 1.699 . S
C1556 C642 1.699 . S
C1581 C402 1.699 . S
C1586 C762 1.699 . S
C1611 C722 1.699 . S
C1616 C442 1.699 . S
C1641 C491 1.699 . S
C1646 C851 1.699 . S
C1671 C531 1.699 . S
C1676 C811 1.699 . S
C1701 C931 1.699 . S
C1706 C571 1.699 . S
C1731 C611 1.699 . S
C1736 C891 1.699 . S
C1761 C10 1.570 . S
C1766 C130 1.570 . S
C1791 C50 1.570 . S
C1796 C90 1.570 . S
C1821 C299 1.570 . S
C1826 C179 1.570 . S
C1851 C259 1.570 . S
C1856 C219 1.570 . S
C1881 C330 1.570 . S
C1886 C450 1.570 . S
C1911 C370 1.570 . S
C1916 C410 1.570 . S
C1941 C499 1.570 . S
C1946 C619 1.570 . S
C1971 C579 1.570 . S
C1976 C539 1.570 . S
C2001 C650 1.570 . S
C2006 C770 1.570 . S
C2031 C690 1.570 . S
C2036 C730 1.570 . S
C2061 C939 1.570 . S
C2066 C819 1.570 . S
C2091 C859 1.570 . S
C2096 C899 1.570 . S
C2121 C1090 1.570 . S
C2126 C970 1.570 . S
C2151 C1010 1.570 . S
C2156 C1050 1.570 . S
C2181 C1259 1.570 . S
C2186 C1139 1.570 . S
C2211 C1219 1.570 . S
C2216 C1179 1.570 . S
C2241 C51 1.449 . S
C2246 C11 1.449 . S
C2271 C91 1.449 . S
C2276 C131 1.449 . S
C2301 C202 1.449 . S
C2306 C162 1.449 . S
C2331 C282 1.449 . S
C2336 C242 1.449 . S
C2361 C331 1.449 . S
C2366 C371 1.449 . S
C2391 C411 1.449 . S
C2396 C451 1.449 . S
C2421 C522 1.449 . S
C2426 C482 1.449 . S
C2451 C562 1.449 . S
C2456 C602 1.449 . S
C2481 C651 1.449 . S
C2486 C691 1.449 . S
C2511 C771 1.449 . S
C2516 C731 1.449 . S
C2541 C802 1.449 . S
C2546 C842 1.449 . S
C2571 C882 1.449 . S
C2576 C922 1.449 . S
C2601 C971 1.449 . S
C2606 C1011 1.449 . S
C2631 C1051 1.449 . S
C2636 C1091 1.449 . S
C2661 C1162 1.449 . S
C2666 C1122 1.449 . S
C2691 C1202 1.449 . S
C2696 C1242 1.449 . S
C2721 C7 1.776 . S
C2726 C16 1.776 . S
C2751 C47 1.776 . S
C2756 C56 1.776 . S
C2781 C87 1.776 . S
C2786 C96 1.776 . S
C2811 C136 1.776 . S
C2816 C127 1.776 . S
C2841 C167 1.776 . S
C2846 C176 1.776 . S
C2871 C216 1.776 . S
C2876 C207 1.776 . S
C2901 C247 1.776 . S
C2906 C256 1.776 . S
C2931 C287 1.776 . S
C2936 C296 1.776 . S
C2961 C336 1.776 . S
C2966 C327 1.776 . S
C2991 C367 1.776 . S
C2996 C376 1.776 . S
C3021 C407 1.776 . S
C3026 C416 1.776 . S
C3051 C456 1.776 . S
C3056 C447 1.776 . S
C3081 C487 1.776 . S
C3086 C496 1.776 . S
C3111 C536 1.776 . S
C3116 C527 1.776 . S
C3141 C576 1.776 . S
C3146 C567 1.776 . S
C3171 C607 1.776 . S
C3176 C616 1.776 . S
C3201 C647 1.776 . S
C3206 C656 1.776 . S
C3231 C696 1.776 . S
C3236 C687 1.776 1_455 S
C3261 C736 1.776 . S
C3266 C727 1.776 . S
C3291 C767 1.776 1_455 S
C3296 C776 1.776 . S
C3321 C816 1.776 . S
C3326 C807 1.776 . S
C3351 C856 1.776 1_655 S
C3356 C847 1.776 . S
C3381 C887 1.776 . S
C3386 C896 1.776 . S
C3411 C936 1.776 1_655 S
C3416 C927 1.776 . S
C3441 C976 1.776 . S
C3446 C967 1.776 . S
C3471 C1007 1.776 1_455 S
C3476 C1016 1.776 . S
C3501 C1056 1.776 . S
C3506 C1047 1.776 . S
C3531 C1096 1.776 . S
C3536 C1087 1.776 1_455 S
C3561 C1136 1.776 . S
C3566 C1127 1.776 . S
C3591 C1176 1.776 1_655 S
C3596 C1167 1.776 . S
C3621 C1207 1.776 . S
C3626 C1216 1.776 . S
C3651 C1247 1.776 . S
C3656 C1256 1.776 1_655 S
C3681 C19 1.487 . S
C3686 C170 1.487 . S
C3711 C1170 1.487 . S
C3716 C59 1.487 . S
C3741 C570 1.487 . S
C3746 C99 1.487 . S
C3771 C139 1.487 . S
C3776 C930 1.487 . S
C3801 C210 1.487 . S
C3806 C1019 1.487 . S
C3831 C250 1.487 . S
C3836 C419 1.487 . S
C3861 C290 1.487 . S
C3866 C779 1.487 . S
C3891 C339 1.487 . S
C3896 C490 1.487 . S
C3921 C850 1.487 . S
C3926 C379 1.487 . S
C3951 C1250 1.487 . S
C3956 C459 1.487 . S
C3981 C530 1.487 . S
C3986 C699 1.487 . S
C4011 C1099 1.487 . S
C4016 C610 1.487 . S
C4041 C659 1.487 . S
C4046 C810 1.487 . S
C4071 C1210 1.487 . S
C4076 C739 1.487 . S
C4101 C890 1.487 . S
C4106 C1059 1.487 . S
C4131 C979 1.487 . S
C4136 C1130 1.487 . S
