# Generated by pormake.
# Topology bcu-j, (5)-cn, num edge types: 1
# Building blocks:
#     Node 0, Type 0, BuildingBlock: XOMCOT_clean_sbu_0, # of connection points: 5
#     Node 1, Type 0, BuildingBlock: XOMCOT_clean_sbu_0, # of connection points: 5
#     Node 2, Type 0, BuildingBlock: XOMCOT_clean_sbu_0, # of connection points: 5
#     Node 3, Type 0, BuildingBlock: XOMCOT_clean_sbu_0, # of connection points: 5
#     Node 4, Type 0, BuildingBlock: XOMCOT_clean_sbu_0, # of connection points: 5
#     Node 5, Type 0, BuildingBlock: XOMCOT_clean_sbu_0, # of connection points: 5
#     Node 6, Type 0, BuildingBlock: XOMCOT_clean_sbu_0, # of connection points: 5
#     Node 7, Type 0, BuildingBlock: XOMCOT_clean_sbu_0, # of connection points: 5
#     Node 8, Type 0, BuildingBlock: XOMCOT_clean_sbu_0, # of connection points: 5
#     Node 9, Type 0, BuildingBlock: XOMCOT_clean_sbu_0, # of connection points: 5
#     Node 10, Type 0, BuildingBlock: XOMCOT_clean_sbu_0, # of connection points: 5
#     Node 11, Type 0, BuildingBlock: XOMCOT_clean_sbu_0, # of connection points: 5
#     Node 12, Type 0, BuildingBlock: XOMCOT_clean_sbu_0, # of connection points: 5
#     Node 13, Type 0, BuildingBlock: XOMCOT_clean_sbu_0, # of connection points: 5
#     Node 14, Type 0, BuildingBlock: XOMCOT_clean_sbu_0, # of connection points: 5
#     Node 15, Type 0, BuildingBlock: XOMCOT_clean_sbu_0, # of connection points: 5
#     Edge 16, Type (0, 0), None
#     Edge 17, Type (0, 0), None
#     Edge 18, Type (0, 0), None
#     Edge 19, Type (0, 0), None
#     Edge 20, Type (0, 0), None
#     Edge 21, Type (0, 0), None
#     Edge 22, Type (0, 0), None
#     Edge 23, Type (0, 0), None
#     Edge 24, Type (0, 0), None
#     Edge 25, Type (0, 0), None
#     Edge 26, Type (0, 0), None
#     Edge 27, Type (0, 0), None
#     Edge 28, Type (0, 0), None
#     Edge 29, Type (0, 0), None
#     Edge 30, Type (0, 0), None
#     Edge 31, Type (0, 0), None
#     Edge 32, Type (0, 0), None
#     Edge 33, Type (0, 0), None
#     Edge 34, Type (0, 0), None
#     Edge 35, Type (0, 0), None
#     Edge 36, Type (0, 0), None
#     Edge 37, Type (0, 0), None
#     Edge 38, Type (0, 0), None
#     Edge 39, Type (0, 0), None
#     Edge 40, Type (0, 0), None
#     Edge 41, Type (0, 0), None
#     Edge 42, Type (0, 0), None
#     Edge 43, Type (0, 0), None
#     Edge 44, Type (0, 0), None
#     Edge 45, Type (0, 0), None
#     Edge 46, Type (0, 0), None
#     Edge 47, Type (0, 0), None
#     Edge 48, Type (0, 0), None
#     Edge 49, Type (0, 0), None
#     Edge 50, Type (0, 0), None
#     Edge 51, Type (0, 0), None
#     Edge 52, Type (0, 0), None
#     Edge 53, Type (0, 0), None
#     Edge 54, Type (0, 0), None
#     Edge 55, Type (0, 0), None
# Relax obj value: 0.640
# Max RMSD: 0.331
# Mean RMSD: 0.330
data_MOF--net-bcu-j--node1-XOMCOT_clean_sbu_0--edge1-none
_symmetry_space_group_name_H-M    P1
_symmetry_Int_Tables_number       1
_symmetry_cell_setting            triclinic
loop_
_symmetry_equiv_pos_as_xyz
'x, y, z'
_cell_length_a     21.297096
_cell_length_b     21.295758
_cell_length_c     27.599891
_cell_angle_alpha  89.910776
_cell_angle_beta   90.09917
_cell_angle_gamma 90.104534
loop_
_atom_site_label
_atom_site_type_symbol
_atom_site_fract_x
_atom_site_fract_y
_atom_site_fract_z
_atom_type_partial_charge
Co0 Co 0.99497 0.13789 0.65558 0.0
C1 C 0.10004 0.06204 0.61764 0.0
C2 C 0.0771 0.13679 0.5692 0.0
C3 C 0.13361 0.11174 0.55499 0.0
N4 N 0.0565 0.10648 0.60938 0.0
N5 N 0.14895 0.06701 0.58726 0.0
H6 H 0.10003 0.03037 0.64813 0.0
H7 H 0.0566 0.17876 0.55397 0.0
C8 C 0.98786 0.27845 0.63442 0.0
O9 O 0.93043 0.28503 0.65086 0.0
N10 N 0.93518 0.17154 0.70196 0.0
C11 C 0.87583 0.15426 0.71298 0.0
C12 C 0.8548 0.19099 0.75138 0.0
C13 C 0.94954 0.2173 0.73382 0.0
N14 N 0.90122 0.23124 0.76341 0.0
C15 C 0.91487 0.05731 0.60565 0.0
C16 C 0.93888 0.12159 0.52106 0.0
C17 C 0.94041 0.05535 0.51987 0.0
C18 C 0.92076 0.02398 0.56225 0.0
C19 C 0.9313 0.15274 0.56532 0.0
N20 N 0.93071 0.11931 0.60752 0.0
H21 H 0.9079 0.03105 0.63872 0.0
H22 H 0.93734 0.20298 0.56564 0.0
H23 H 0.85012 0.11694 0.69525 0.0
H24 H 0.99497 0.23999 0.73504 0.0
O25 O 0.9959 0.05844 0.6911 0.0
O26 O 0.05922 0.13882 0.70529 0.0
O27 O 0.01254 0.22426 0.62956 0.0
C28 C 0.04256 0.0817 0.71574 0.0
H29 H 0.16476 0.13126 0.52786 0.0
H30 H 0.80974 0.18782 0.76929 0.0
H31 H 0.94913 0.15008 0.48971 0.0
H32 H 0.91385 0.97371 0.5632 0.0
Co33 Co 0.34268 0.05373 0.59224 0.0
C34 C 0.40721 0.17341 0.56739 0.0
C35 C 0.30739 0.18399 0.57505 0.0
C36 C 0.33329 0.2424 0.56942 0.0
N37 N 0.35356 0.14076 0.57419 0.0
N38 N 0.39599 0.23584 0.56534 0.0
H39 H 0.45353 0.15262 0.5691 0.0
H40 H 0.2587 0.17468 0.58321 0.0
C41 C 0.20772 0.04861 0.59882 0.0
O42 O 0.21924 0.02998 0.64311 0.0
N43 N 0.32807 0.96597 0.61142 0.0
C44 C 0.29267 0.92577 0.58508 0.0
C45 C 0.25823 0.88789 0.61607 0.0
C46 C 0.31805 0.94782 0.65794 0.0
N47 N 0.27275 0.90363 0.66198 0.0
C48 C 0.42428 -0.00103 0.52322 0.0
C49 C 0.37306 0.06112 0.44421 0.0
C50 C 0.43313 0.03515 0.44024 0.0
C51 C 0.45751 0.0013 0.4797 0.0
C52 C 0.34162 0.05819 0.48853 0.0
N53 N 0.3687 0.02985 0.52783 0.0
H54 H 0.44546 0.97664 0.55441 0.0
H55 H 0.29835 0.08405 0.4922 0.0
H56 H 0.28322 0.93141 0.54681 0.0
H57 H 0.3341 0.97408 0.68897 0.0
O58 O 0.42386 0.05288 0.62381 0.0
O59 O 0.33489 0.08179 0.65895 0.0
O60 O 0.25326 0.05969 0.57049 0.0
C61 C 0.3954 0.074 0.66195 0.0
H62 H 0.30845 0.28661 0.57224 0.0
H63 H 0.21838 0.85928 0.6057 0.0
H64 H 0.35248 0.08729 0.4145 0.0
H65 H 0.50309 0.97898 0.47757 0.0
Co66 Co 0.45535 0.40493 0.62819 0.0
C67 C 0.34278 0.48107 0.64767 0.0
C68 C 0.34209 0.44578 0.57529 0.0
C69 C 0.28296 0.46852 0.58569 0.0
N70 N 0.37896 0.45177 0.61501 0.0
N71 N 0.28365 0.48795 0.63205 0.0
H72 H 0.3567 0.49248 0.68408 0.0
H73 H 0.35506 0.42087 0.54271 0.0
C74 C 0.43846 0.28262 0.57149 0.0
O75 O 0.49876 0.27038 0.56853 0.0
N76 N 0.52986 0.35508 0.64162 0.0
C77 C 0.59176 0.36817 0.63815 0.0
C78 C 0.62563 0.317 0.65584 0.0
C79 C 0.527 0.29747 0.6619 0.0
N80 N 0.5842 0.27247 0.66966 0.0
C81 C 0.48772 0.51227 0.57582 0.0
C82 C 0.48284 0.45509 0.48655 0.0
C83 C 0.46491 0.51878 0.48961 0.0
C84 C 0.47205 0.54793 0.53505 0.0
C85 C 0.49591 0.42075 0.52871 0.0
N86 N 0.49201 0.44846 0.57306 0.0
H87 H 0.48559 0.53489 0.61076 0.0
H88 H 0.50397 0.37119 0.52551 0.0
H89 H 0.61091 0.41192 0.62471 0.0
H90 H 0.48324 0.27408 0.67019 0.0
O91 O 0.47862 0.46269 0.68061 0.0
O92 O 0.42038 0.3773 0.68914 0.0
O93 O 0.41868 0.33554 0.58713 0.0
C94 C 0.44549 0.42663 0.70895 0.0
H95 H 0.24143 0.46348 0.56332 0.0
H96 H 0.67615 0.31311 0.6587 0.0
H97 H 0.48433 0.43052 0.45236 0.0
H98 H 0.46148 0.59686 0.54077 0.0
Co99 Co 0.10477 0.48684 0.69085 0.0
C100 C 0.02238 0.38369 0.65438 0.0
C101 C 0.11579 0.38009 0.62521 0.0
C102 C 0.08439 0.32722 0.61095 0.0
N103 N 0.07747 0.41533 0.65292 0.0
N104 N 0.02606 0.32903 0.62968 0.0
H105 H 0.98335 0.39667 0.67734 0.0
H106 H 0.16498 0.38887 0.61877 0.0
C107 C 0.23434 0.4932 0.66241 0.0
O108 O 0.24386 0.48658 0.70895 0.0
N109 N 0.13588 0.55902 0.72858 0.0
C110 C 0.15896 0.61223 0.70849 0.0
C111 C 0.20786 0.63486 0.73665 0.0
C112 C 0.16865 0.55333 0.77064 0.0
N113 N 0.21513 0.59633 0.77493 0.0
C114 C 0.98979 0.53544 0.65572 0.0
C115 C 0.03662 0.56129 0.56467 0.0
C116 C 0.97293 0.54616 0.56953 0.0
C117 C 0.94865 0.53781 0.6162 0.0
C118 C 0.07595 0.55868 0.60505 0.0
N119 N 0.05326 0.53956 0.64901 0.0
H120 H 0.97085 0.52221 0.69048 0.0
H121 H 0.12532 0.5667 0.59925 0.0
H122 H 0.14886 0.62776 0.67205 0.0
H123 H 0.16694 0.51223 0.79348 0.0
O124 O 0.04418 0.46776 0.7412 0.0
O125 O 0.1399 0.42782 0.7374 0.0
O126 O 0.17857 0.49514 0.64648 0.0
C127 C 0.0861 0.43033 0.75934 0.0
H128 H 0.10466 0.28795 0.5916 0.0
H129 H 0.24136 0.67041 0.7257 0.0
H130 H 0.05661 0.57152 0.52946 0.0
H131 H 0.89931 0.52774 0.62172 0.0
Co132 Co 0.05339 0.34263 0.87354 0.0
C133 C 0.17311 0.40658 0.89913 0.0
C134 C 0.18338 0.30675 0.89121 0.0
C135 C 0.24184 0.33241 0.89716 0.0
N136 N 0.14031 0.35308 0.89203 0.0
N137 N 0.23549 0.39511 0.9014 0.0
H138 H 0.15251 0.45299 0.89747 0.0
H139 H 0.17395 0.25813 0.88286 0.0
C140 C 0.04784 0.20776 0.86637 0.0
O141 O 0.02958 0.21976 0.82206 0.0
N142 N 0.96571 0.32847 0.85391 0.0
C143 C 0.92519 0.29304 0.87993 0.0
C144 C 0.88741 0.25892 0.84864 0.0
C145 C 0.94787 0.31883 0.80726 0.0
N146 N 0.90361 0.27367 0.80288 0.0
C147 C -0.00173 0.42408 0.94245 0.0
C148 C 0.06027 0.37293 0.02155 0.0
C149 C 0.03445 0.43308 0.02544 0.0
C150 C 0.00061 0.4574 -0.01406 0.0
C151 C 0.0573 0.34138 0.97727 0.0
N152 N 0.0291 0.36847 0.93791 0.0
H153 H 0.97603 0.44525 0.91122 0.0
H154 H 0.08307 0.29803 0.97364 0.0
H155 H 0.9305 0.28332 0.91819 0.0
H156 H 0.97439 0.33501 0.77642 0.0
O157 O 0.05307 0.42399 0.84226 0.0
O158 O 0.08191 0.33512 0.80693 0.0
O159 O 0.05885 0.25304 0.895 0.0
C160 C 0.07438 0.39567 0.80412 0.0
H161 H 0.28598 0.30742 0.89444 0.0
H162 H 0.85854 0.21912 0.85871 0.0
H163 H 0.0864 0.35237 0.0513 0.0
H164 H 0.97835 0.50302 -0.01201 0.0
Co165 Co 0.1363 0.99484 0.80899 0.0
C166 C 0.06087 0.10016 0.84703 0.0
C167 C 0.13499 0.0763 0.89578 0.0
C168 C 0.11025 0.13291 0.91012 0.0
N169 N 0.1049 0.05622 0.85534 0.0
N170 N 0.06597 0.14882 0.87765 0.0
H171 H 0.02946 0.10062 0.81638 0.0
H172 H 0.17667 0.05536 0.91114 0.0
C173 C 0.27668 0.98694 0.83068 0.0
O174 O 0.28312 0.92962 0.81396 0.0
N175 N 0.16996 0.9352 0.7625 0.0
C176 C 0.15256 0.87594 0.75126 0.0
C177 C 0.18946 0.85496 0.71295 0.0
C178 C 0.21596 0.94955 0.73086 0.0
N179 N 0.22988 0.90133 0.70117 0.0
C180 C 0.05498 0.9149 0.85831 0.0
C181 C 0.11911 0.93769 0.94316 0.0
C182 C 0.05286 0.93984 0.94421 0.0
C183 C 0.02153 0.92072 0.90166 0.0
C184 C 0.15036 0.93027 0.89894 0.0
N185 N 0.11709 0.93032 0.85667 0.0
H186 H 0.0288 0.90836 0.82515 0.0
H187 H 0.20065 0.93587 0.89877 0.0
H188 H 0.1151 0.85025 0.76881 0.0
H189 H 0.23888 0.99488 0.72991 0.0
O190 O 0.0571 -0.0036 0.77316 0.0
O191 O 0.13787 0.05944 0.75956 0.0
O192 O 0.22256 0.01181 0.83545 0.0
C193 C 0.08074 0.04311 0.74881 0.0
H194 H 0.12972 0.16371 0.93752 0.0
H195 H 0.18632 0.80995 0.69495 0.0
H196 H 0.14761 0.94727 0.97463 0.0
H197 H 0.97123 0.91415 0.9005 0.0
Co198 Co 0.4859 0.10346 0.77572 0.0
C199 C 0.38218 0.02119 0.81133 0.0
C200 C 0.37881 0.11432 0.84105 0.0
C201 C 0.32572 0.08303 0.85492 0.0
N202 N 0.41405 0.07612 0.81323 0.0
N203 N 0.32739 0.02487 0.83585 0.0
H204 H 0.39513 0.98232 0.78819 0.0
H205 H 0.38777 0.16341 0.84782 0.0
C206 C 0.49233 0.23286 0.80459 0.0
O207 O 0.48594 0.2426 0.75806 0.0
N208 N 0.55842 0.13459 0.73841 0.0
C209 C 0.61158 0.15739 0.75881 0.0
C210 C 0.63454 0.20644 0.73096 0.0
C211 C 0.55309 0.16769 0.69648 0.0
N212 N 0.59621 0.21411 0.69262 0.0
C213 C 0.53379 0.98813 0.81077 0.0
C214 C 0.55956 0.03457 0.90195 0.0
C215 C 0.54421 0.97095 0.89693 0.0
C216 C 0.53589 0.94685 0.8502 0.0
C217 C 0.55722 0.07404 0.86166 0.0
N218 N 0.53817 0.05156 0.81761 0.0
H219 H 0.52057 0.96936 0.77595 0.0
H220 H 0.5654 0.12337 0.86758 0.0
H221 H 0.62688 0.14695 0.79525 0.0
H222 H 0.51215 0.16623 0.67344 0.0
O223 O 0.46702 0.04321 0.72505 0.0
O224 O 0.4273 0.13901 0.72904 0.0
O225 O 0.49408 0.17701 0.82036 0.0
C226 C 0.42983 0.08534 0.7069 0.0
H227 H 0.28643 0.10328 0.87425 0.0
H228 H 0.67014 0.23974 0.74218 0.0
H229 H 0.56977 0.05441 0.93723 0.0
H230 H 0.52565 0.89756 0.84457 0.0
Co231 Co 0.4051 0.45422 0.83933 0.0
C232 C 0.4806 0.3413 0.8196 0.0
C233 C 0.44535 0.34054 0.89198 0.0
C234 C 0.4677 0.28129 0.88143 0.0
N235 N 0.45157 0.37755 0.85235 0.0
N236 N 0.48706 0.28206 0.83506 0.0
H237 H 0.49212 0.35529 0.78323 0.0
H238 H 0.42053 0.35354 0.92459 0.0
C239 C 0.28246 0.43745 0.89556 0.0
O240 O 0.27042 0.49778 0.89868 0.0
N241 N 0.3556 0.52901 0.82604 0.0
C242 C 0.36886 0.59084 0.82993 0.0
C243 C 0.31792 0.62503 0.81221 0.0
C244 C 0.29813 0.52652 0.80549 0.0
N245 N 0.27339 0.58387 0.79792 0.0
C246 C 0.51231 0.486 0.89209 0.0
C247 C 0.45484 0.481 0.98124 0.0
C248 C 0.51856 0.4631 0.9783 0.0
C249 C 0.54783 0.47029 0.93293 0.0
C250 C 0.42064 0.49413 0.93902 0.0
N251 N 0.4485 0.49037 0.89472 0.0
H252 H 0.53505 0.48394 0.8572 0.0
H253 H 0.37107 0.50217 0.94213 0.0
H254 H 0.41254 0.60972 0.84371 0.0
H255 H 0.27462 0.48291 0.79692 0.0
O256 O 0.46319 0.47759 0.78717 0.0
O257 O 0.37762 0.41974 0.77816 0.0
O258 O 0.33539 0.41755 0.88005 0.0
C259 C 0.42714 0.44478 0.7586 0.0
H260 H 0.46246 0.2397 0.9037 0.0
H261 H 0.31418 0.6756 0.80968 0.0
H262 H 0.43014 0.48245 0.01537 0.0
H263 H 0.59679 0.45979 0.92728 0.0
Co264 Co 0.95305 0.90448 0.33806 0.0
C265 C 0.84015 0.97997 0.31796 0.0
C266 C 0.83991 0.94538 0.39062 0.0
C267 C 0.78061 0.96766 0.38 0.0
N268 N 0.87661 0.95122 0.35088 0.0
N269 N 0.78104 0.98664 0.33349 0.0
H270 H 0.85386 0.99107 0.28146 0.0
H271 H 0.85312 0.92079 0.42338 0.0
C272 C 0.9364 0.78212 0.39486 0.0
O273 O -0.00326 0.77016 0.39821 0.0
N274 N 0.02762 0.85467 0.32498 0.0
C275 C 0.08951 0.86773 0.32878 0.0
C276 C 0.12344 0.8166 0.3113 0.0
C277 C 0.02484 0.79712 0.30472 0.0
N278 N 0.08206 0.77212 0.29728 0.0
C279 C 0.98563 0.01206 0.39002 0.0
C280 C 0.9811 0.95557 0.47969 0.0
C281 C 0.96391 0.01947 0.47631 0.0
C282 C 0.97073 0.04816 0.43062 0.0
C283 C 0.99342 0.92078 0.43771 0.0
N284 N 0.9896 0.94824 0.39317 0.0
H285 H 0.98337 0.03447 0.35494 0.0
H286 H 0.0009 0.87115 0.44122 0.0
H287 H 0.10862 0.91142 0.34232 0.0
H288 H 0.98111 0.77374 0.29623 0.0
O289 O 0.97622 0.96216 0.28544 0.0
O290 O 0.91814 0.87667 0.27709 0.0
O291 O 0.91648 0.83509 0.37924 0.0
C292 C 0.94319 0.92596 0.25714 0.0
H293 H 0.73918 0.96256 0.40237 0.0
H294 H 0.17397 0.81269 0.30873 0.0
H295 H 0.98262 0.93121 0.51404 0.0
H296 H 0.96052 0.09714 0.42461 0.0
Co297 Co 0.60201 0.98478 0.27453 0.0
C298 C 0.51983 0.8815 0.31097 0.0
C299 C 0.613 0.87841 0.34087 0.0
C300 C 0.58174 0.8254 0.35504 0.0
N301 N 0.57474 0.91342 0.31273 0.0
N302 N 0.52353 0.82692 0.33589 0.0
H303 H 0.48096 0.8942 0.28761 0.0
H304 H 0.6621 0.88741 0.34763 0.0
C305 C 0.73162 0.99134 0.30305 0.0
O306 O 0.74102 0.98435 0.25657 0.0
N307 N 0.63306 0.0568 0.23646 0.0
C308 C 0.65585 0.11032 0.2562 0.0
C309 C 0.70459 0.133 0.22797 0.0
C310 C 0.66588 0.05093 0.19453 0.0
N311 N 0.71207 0.09419 0.19001 0.0
C312 C 0.48714 0.03278 0.30998 0.0
C313 C 0.53527 0.0607 0.40033 0.0
C314 C 0.47163 0.04499 0.39614 0.0
C315 C 0.44665 0.03554 0.34977 0.0
C316 C 0.57393 0.05771 0.3597 0.0
N317 N 0.55068 0.03765 0.31615 0.0
H318 H 0.46777 0.01865 0.27555 0.0
H319 H 0.62333 0.06624 0.36504 0.0
H320 H 0.64559 0.12622 0.29244 0.0
H321 H 0.66438 0.00963 0.17198 0.0
O322 O 0.54131 0.96553 0.22415 0.0
O323 O 0.63704 0.92557 0.22833 0.0
O324 O 0.6759 0.99324 0.31892 0.0
C325 C 0.58321 0.92801 0.20628 0.0
H326 H 0.60205 0.78623 0.37462 0.0
H327 H 0.73784 0.16891 0.2387 0.0
H328 H 0.55576 0.07173 0.43526 0.0
H329 H 0.3973 0.02494 0.34476 0.0
Co330 Co 0.49348 0.63554 0.30998 0.0
C331 C 0.59885 0.56015 0.34851 0.0
C332 C 0.57579 0.63507 0.3965 0.0
C333 C 0.63241 0.61026 0.41093 0.0
N334 N 0.5552 0.60452 0.35646 0.0
N335 N 0.64781 0.56539 0.37894 0.0
H336 H 0.59886 0.52831 0.3182 0.0
H337 H 0.55517 0.67704 0.41149 0.0
C338 C 0.48575 0.7761 0.33078 0.0
O339 O 0.42831 0.78243 0.31412 0.0
N340 N 0.43351 0.66878 0.26335 0.0
C341 C 0.37432 0.65101 0.25215 0.0
C342 C 0.35306 0.68759 0.21359 0.0
C343 C 0.44755 0.71466 0.23145 0.0
N344 N 0.39917 0.72822 0.20166 0.0
C345 C 0.41401 0.5549 0.36027 0.0
C346 C 0.4379 0.62018 0.44433 0.0
C347 C 0.44036 0.55398 0.44596 0.0
C348 C 0.42064 0.52201 0.40389 0.0
C349 C 0.42965 0.65084 0.39986 0.0
N350 N 0.42929 0.61701 0.35793 0.0
H351 H 0.40708 0.52829 0.32741 0.0
H352 H 0.435 0.70114 0.39917 0.0
H353 H 0.3489 0.61346 0.26984 0.0
H354 H 0.49282 0.73769 0.23034 0.0
O355 O 0.49466 0.55596 0.27483 0.0
O356 O 0.55768 0.63652 0.26042 0.0
O357 O 0.51078 0.72205 0.33564 0.0
C358 C 0.54123 0.57929 0.25021 0.0
H359 H 0.66355 0.62999 0.43801 0.0
H360 H 0.30806 0.68404 0.19551 0.0
H361 H 0.44798 0.64906 0.47546 0.0
H362 H 0.41431 0.47166 0.40332 0.0
Co363 Co 0.8416 0.55258 0.37423 0.0
C364 C 0.90563 0.67268 0.39877 0.0
C365 C 0.80581 0.68282 0.3904 0.0
C366 C 0.83141 0.74136 0.39605 0.0
N367 N 0.85216 0.63979 0.39172 0.0
N368 N 0.89411 0.73507 0.40055 0.0
H369 H 0.95205 0.65207 0.39753 0.0
H370 H 0.7572 0.67328 0.38201 0.0
C371 C 0.7066 0.547 0.36761 0.0
O372 O 0.71808 0.52804 0.32347 0.0
N373 N 0.82727 0.46464 0.35561 0.0
C374 C 0.7919 0.42457 0.3821 0.0
C375 C 0.75755 0.38644 0.35124 0.0
C376 C 0.81735 0.44613 0.30919 0.0
N377 N 0.7721 0.40188 0.30528 0.0
C378 C 0.92346 0.49811 0.44342 0.0
C379 C 0.87358 0.56171 0.52196 0.0
C380 C 0.93366 0.53565 0.52587 0.0
C381 C 0.95731 0.501 0.4867 0.0
C382 C 0.84147 0.55813 0.47788 0.0
N383 N 0.86797 0.52918 0.43875 0.0
H384 H 0.94414 0.47526 0.41237 0.0
H385 H 0.7982 0.58404 0.47412 0.0
H386 H 0.78237 0.43048 0.4203 0.0
H387 H 0.83342 0.47219 0.27805 0.0
O388 O 0.92271 0.55182 0.34279 0.0
O389 O 0.83357 0.58016 0.30733 0.0
O390 O 0.75221 0.55839 0.39592 0.0
C391 C 0.89411 0.57258 0.30448 0.0
H392 H 0.80638 0.78545 0.39301 0.0
H393 H 0.71769 0.35788 0.36166 0.0
H394 H 0.85352 0.58843 0.55147 0.0
H395 H 0.00283 0.47853 0.48882 0.0
Co396 Co 0.98465 0.60257 0.19099 0.0
C397 C 0.88135 0.51976 0.15545 0.0
C398 C 0.87778 0.61262 0.12502 0.0
C399 C 0.82475 0.58107 0.11126 0.0
N400 N 0.9131 0.57474 0.15323 0.0
N401 N 0.82658 0.52306 0.13075 0.0
H402 H 0.89433 0.48116 0.17898 0.0
H403 H 0.8866 0.66168 0.11791 0.0
C404 C 0.99037 0.73201 0.16197 0.0
O405 O 0.98361 0.74163 0.20845 0.0
N406 N 0.05685 0.63419 0.2286 0.0
C407 C 0.11014 0.65706 0.20853 0.0
C408 C 0.13281 0.70616 0.23641 0.0
C409 C 0.05113 0.66734 0.27039 0.0
N410 N 0.09418 0.7138 0.27444 0.0
C411 C 0.03262 0.48762 0.15562 0.0
C412 C 0.06003 0.53543 0.06509 0.0
C413 C 0.04443 0.47177 0.06945 0.0
C414 C 0.03523 0.44697 0.1159 0.0
C415 C 0.05716 0.57425 0.10564 0.0
N416 N 0.03737 0.55114 0.14931 0.0
H417 H 0.01867 0.46836 0.19012 0.0
H418 H 0.06556 0.62365 0.10017 0.0
H419 H 0.12585 0.64653 0.17229 0.0
H420 H 0.01003 0.66584 0.29315 0.0
O421 O 0.96606 0.54214 0.24171 0.0
O422 O 0.92568 0.63767 0.23732 0.0
O423 O 0.99246 0.6762 0.14627 0.0
C424 C 0.92852 0.58402 0.25959 0.0
H425 H 0.78538 0.60108 0.09173 0.0
H426 H 0.16852 0.73945 0.22539 0.0
H427 H 0.07088 0.55581 0.03009 0.0
H428 H 0.02472 0.39763 0.12105 0.0
Co429 Co 0.90281 0.95308 0.12644 0.0
C430 C 0.97857 0.84044 0.14676 0.0
C431 C 0.94385 0.83977 0.07414 0.0
C432 C 0.96622 0.78054 0.08491 0.0
N433 N 0.94972 0.8767 0.11377 0.0
N434 N 0.98524 0.78125 0.13141 0.0
H435 H 0.98975 0.85435 0.18321 0.0
H436 H 0.91916 0.85277 0.04137 0.0
C437 C 0.78015 0.93557 0.07019 0.0
O438 O 0.76796 0.99585 0.06665 0.0
N439 N 0.85286 0.02759 0.13938 0.0
C440 C 0.86565 0.08949 0.13512 0.0
C441 C 0.81452 0.12341 0.15262 0.0
C442 C 0.79548 0.0248 0.15992 0.0
N443 N 0.77035 0.08201 0.16714 0.0
C444 C 0.00991 0.98584 0.07399 0.0
C445 C 0.95299 0.98021 -0.01548 0.0
C446 C 0.01701 0.96343 -0.01222 0.0
C447 C 0.04589 0.97088 0.03335 0.0
C448 C 0.91835 0.99266 0.02655 0.0
N449 N 0.94606 0.98938 0.07102 0.0
H450 H 0.03252 0.98406 0.10901 0.0
H451 H 0.86865 -0.00018 0.02315 0.0
H452 H 0.90912 0.10862 0.12122 0.0
H453 H 0.77231 0.98107 0.16871 0.0
O454 O 0.96075 0.97683 0.17874 0.0
O455 O 0.87552 0.91853 0.18767 0.0
O456 O 0.83329 0.91595 0.08569 0.0
C457 C 0.92486 0.94389 0.20732 0.0
H458 H 0.96119 0.73898 0.06266 0.0
H459 H 0.81041 0.17396 0.15483 0.0
H460 H 0.92839 0.98134 0.95027 0.0
H461 H 0.09498 0.96121 0.0393 0.0
Co462 Co 0.55116 0.84013 0.09217 0.0
C463 C 0.67082 0.90438 0.06683 0.0
C464 C 0.68138 0.80465 0.07554 0.0
C465 C 0.73978 0.83042 0.06956 0.0
N466 N 0.63818 0.85084 0.07423 0.0
N467 N 0.73323 0.89307 0.06484 0.0
H468 H 0.65006 0.95074 0.06798 0.0
H469 H 0.67207 0.75606 0.08416 0.0
C470 C 0.54608 0.70519 0.09945 0.0
O471 O 0.52742 0.71702 0.14361 0.0
N472 N 0.46341 0.82568 0.11124 0.0
C473 C 0.42325 0.78995 0.0851 0.0
C474 C 0.38549 0.75568 0.11629 0.0
C475 C 0.44532 0.81608 0.1578 0.0
N476 N 0.40133 0.77064 0.16209 0.0
C477 C 0.49599 0.92141 0.02295 0.0
C478 C 0.55953 0.87148 0.94441 0.0
C479 C 0.53351 0.93157 0.94051 0.0
C480 C 0.49882 0.95522 0.97966 0.0
C481 C 0.55601 0.8394 -0.01149 0.0
N482 N 0.52717 0.86599 0.02765 0.0
H483 H 0.4732 0.94214 0.05401 0.0
H484 H 0.58195 0.79615 -0.00771 0.0
H485 H 0.42888 0.78015 0.04692 0.0
H486 H 0.47154 0.83252 0.18875 0.0
O487 O 0.5504 0.92147 0.12326 0.0
O488 O 0.57929 0.83268 0.15897 0.0
O489 O 0.55707 0.75058 0.07084 0.0
C490 C 0.57156 0.89322 0.16159 0.0
H491 H 0.78398 0.80557 0.07251 0.0
H492 H 0.35697 0.71565 0.10619 0.0
H493 H 0.58625 0.85142 0.9149 0.0
H494 H 0.47637 0.00075 0.97753 0.0
Co495 Co 0.63551 0.49266 0.15767 0.0
C496 C 0.55966 0.59763 0.11906 0.0
C497 C 0.63412 0.57422 0.07074 0.0
C498 C 0.60914 0.63072 0.05618 0.0
N499 N 0.60396 0.55394 0.11105 0.0
N500 N 0.56463 0.64636 0.08839 0.0
H501 H 0.52809 0.59786 0.14952 0.0
H502 H 0.67594 0.55349 0.05561 0.0
C503 C 0.77592 0.48518 0.1363 0.0
O504 O 0.78255 0.42792 0.15326 0.0
N505 N 0.66926 0.43313 0.20441 0.0
C506 C 0.65186 0.37391 0.21585 0.0
C507 C 0.68879 0.35303 0.25433 0.0
C508 C 0.71528 0.44757 0.23609 0.0
N509 N 0.72922 0.39943 0.266 0.0
C510 C 0.55461 0.41295 0.10785 0.0
C511 C 0.61988 0.43586 0.02365 0.0
C512 C 0.55369 0.43864 0.02203 0.0
C513 C 0.5217 0.41937 0.06421 0.0
C514 C 0.65055 0.42789 0.06815 0.0
N515 N 0.61676 0.42805 0.11009 0.0
H516 H 0.52802 0.40638 0.14075 0.0
H517 H 0.70087 0.433 0.06879 0.0
H518 H 0.61436 0.34819 0.19833 0.0
H519 H 0.73817 0.49292 0.23691 0.0
O520 O 0.55621 0.49391 0.19318 0.0
O521 O 0.63672 0.55725 0.20694 0.0
O522 O 0.72176 0.50999 0.13152 0.0
C523 C 0.57962 0.54073 0.21748 0.0
H524 H 0.62855 0.66165 0.02882 0.0
H525 H 0.68564 0.30808 0.27252 0.0
H526 H 0.64879 0.44547 -0.00754 0.0
H527 H 0.47133 0.41322 0.06485 0.0
loop_
_geom_bond_atom_site_label_1
_geom_bond_atom_site_label_2
_geom_bond_distance
_geom_bond_site_symmetry_2
_ccdc_geom_bond_type
Co0 N4 2.148 . S
Co0 N10 2.128 1_455 S
Co0 N20 2.194 1_455 S
Co0 O25 2.351 1_455 S
Co0 O26 2.155 . S
Co0 O27 2.096 . S
C1 N4 1.301 . S
C1 N5 1.328 . S
C1 H6 0.930 1_545 S
C2 C3 1.333 . S
C2 N4 1.317 . S
C2 H7 0.930 . S
C3 C2 1.333 . S
C3 N5 1.350 . S
C3 H29 0.931 . S
N4 Co0 2.148 . S
N4 C1 1.301 . S
N4 C2 1.317 . S
N5 C1 1.328 . S
N5 C3 1.350 . S
H6 C1 0.930 1_565 S
H7 C2 0.930 . S
C8 O9 1.224 . S
C8 O27 1.247 . S
O9 C8 1.224 . S
N10 Co0 2.128 1_655 S
N10 C11 1.355 . S
N10 C13 1.311 . S
C11 N10 1.355 . S
C11 C12 1.363 . S
C11 H23 0.929 . S
C12 C11 1.363 . S
C12 N14 1.375 . S
C12 H30 0.931 . S
C13 N10 1.311 . S
C13 N14 1.347 . S
C13 H24 0.929 . S
N14 C12 1.375 . S
N14 C13 1.347 . S
C15 C18 1.365 1_545 S
C15 N20 1.328 . S
C15 H21 0.929 1_545 S
C16 C17 1.362 . S
C16 C19 1.378 . S
C16 H31 0.929 . S
C17 C16 1.362 . S
C17 C18 1.366 1_545 S
C18 C15 1.365 1_565 S
C18 C17 1.366 1_565 S
C18 H32 0.930 . S
C19 C16 1.378 . S
C19 N20 1.315 . S
C19 H22 0.930 . S
N20 Co0 2.194 1_655 S
N20 C15 1.328 . S
N20 C19 1.315 . S
H21 C15 0.929 1_565 S
H22 C19 0.930 . S
H23 C11 0.929 . S
H24 C13 0.929 . S
O25 Co0 2.351 1_655 S
O25 C28 1.244 1_655 S
O26 Co0 2.155 . S
O26 C28 1.240 . S
O27 Co0 2.096 . S
O27 C8 1.247 . S
C28 O25 1.244 1_455 S
C28 O26 1.240 . S
H29 C3 0.931 . S
H30 C12 0.931 . S
H31 C16 0.929 . S
H32 C18 0.930 . S
Co33 N37 2.148 . S
Co33 N43 2.128 1_545 S
Co33 N53 2.194 1_545 S
Co33 O58 2.351 1_545 S
Co33 O59 2.155 . S
Co33 O60 2.096 . S
C34 N37 1.301 . S
C34 N38 1.328 . S
C34 H39 0.930 . S
C35 C36 1.333 . S
C35 N37 1.317 . S
C35 H40 0.930 . S
C36 C35 1.333 . S
C36 N38 1.350 . S
C36 H62 0.931 . S
N37 Co33 2.148 . S
N37 C34 1.301 . S
N37 C35 1.317 . S
N38 C34 1.328 . S
N38 C36 1.350 . S
H39 C34 0.930 . S
H40 C35 0.930 . S
C41 O42 1.224 . S
C41 O60 1.247 . S
O42 C41 1.224 . S
N43 Co33 2.128 1_565 S
N43 C44 1.355 . S
N43 C46 1.311 . S
C44 N43 1.355 . S
C44 C45 1.363 . S
C44 H56 0.929 . S
C45 C44 1.363 . S
C45 N47 1.375 . S
C45 H63 0.931 . S
C46 N43 1.311 . S
C46 N47 1.347 . S
C46 H57 0.929 . S
N47 C45 1.375 . S
N47 C46 1.347 . S
C48 C51 1.365 . S
C48 N53 1.328 . S
C48 H54 0.929 . S
C49 C50 1.362 . S
C49 C52 1.378 . S
C49 H64 0.929 . S
C50 C49 1.362 . S
C50 C51 1.366 . S
C51 C48 1.365 . S
C51 C50 1.366 . S
C51 H65 0.930 . S
C52 C49 1.378 . S
C52 N53 1.315 . S
C52 H55 0.930 . S
N53 Co33 2.194 1_565 S
N53 C48 1.328 . S
N53 C52 1.315 . S
H54 C48 0.929 . S
H55 C52 0.930 . S
H56 C44 0.929 . S
H57 C46 0.929 . S
O58 Co33 2.351 1_565 S
O58 C61 1.244 1_565 S
O59 Co33 2.155 . S
O59 C61 1.240 . S
O60 Co33 2.096 . S
O60 C41 1.247 . S
C61 O58 1.244 1_545 S
C61 O59 1.240 . S
H62 C36 0.931 . S
H63 C45 0.931 . S
H64 C49 0.929 . S
H65 C51 0.930 . S
Co66 N70 2.148 . S
Co66 N76 2.128 . S
Co66 N86 2.194 . S
Co66 O91 2.351 . S
Co66 O92 2.155 . S
Co66 O93 2.096 . S
C67 N70 1.301 . S
C67 N71 1.328 . S
C67 H72 0.930 . S
C68 C69 1.333 . S
C68 N70 1.317 . S
C68 H73 0.930 . S
C69 C68 1.333 . S
C69 N71 1.350 . S
C69 H95 0.931 . S
N70 Co66 2.148 . S
N70 C67 1.301 . S
N70 C68 1.317 . S
N71 C67 1.328 . S
N71 C69 1.350 . S
H72 C67 0.930 . S
H73 C68 0.930 . S
C74 O75 1.224 . S
C74 O93 1.247 . S
O75 C74 1.224 . S
N76 Co66 2.128 . S
N76 C77 1.355 . S
N76 C79 1.311 . S
C77 N76 1.355 . S
C77 C78 1.363 . S
C77 H89 0.929 . S
C78 C77 1.363 . S
C78 N80 1.375 . S
C78 H96 0.931 . S
C79 N76 1.311 . S
C79 N80 1.347 . S
C79 H90 0.929 . S
N80 C78 1.375 . S
N80 C79 1.347 . S
C81 C84 1.365 . S
C81 N86 1.328 . S
C81 H87 0.929 . S
C82 C83 1.362 . S
C82 C85 1.378 . S
C82 H97 0.929 . S
C83 C82 1.362 . S
C83 C84 1.366 . S
C84 C81 1.365 . S
C84 C83 1.366 . S
C84 H98 0.930 . S
C85 C82 1.378 . S
C85 N86 1.315 . S
C85 H88 0.930 . S
N86 Co66 2.194 . S
N86 C81 1.328 . S
N86 C85 1.315 . S
H87 C81 0.929 . S
H88 C85 0.930 . S
H89 C77 0.929 . S
H90 C79 0.929 . S
O91 Co66 2.351 . S
O91 C94 1.244 . S
O92 Co66 2.155 . S
O92 C94 1.240 . S
O93 Co66 2.096 . S
O93 C74 1.247 . S
C94 O91 1.244 . S
C94 O92 1.240 . S
H95 C69 0.931 . S
H96 C78 0.931 . S
H97 C82 0.929 . S
H98 C84 0.930 . S
Co99 N103 2.148 . S
Co99 N109 2.128 . S
Co99 N119 2.194 . S
Co99 O124 2.351 . S
Co99 O125 2.155 . S
Co99 O126 2.096 . S
C100 N103 1.301 . S
C100 N104 1.328 . S
C100 H105 0.930 1_455 S
C101 C102 1.333 . S
C101 N103 1.317 . S
C101 H106 0.930 . S
C102 C101 1.333 . S
C102 N104 1.350 . S
C102 H128 0.931 . S
N103 Co99 2.148 . S
N103 C100 1.301 . S
N103 C101 1.317 . S
N104 C100 1.328 . S
N104 C102 1.350 . S
H105 C100 0.930 1_655 S
H106 C101 0.930 . S
C107 O108 1.224 . S
C107 O126 1.247 . S
O108 C107 1.224 . S
N109 Co99 2.128 . S
N109 C110 1.355 . S
N109 C112 1.311 . S
C110 N109 1.355 . S
C110 C111 1.363 . S
C110 H122 0.929 . S
C111 C110 1.363 . S
C111 N113 1.375 . S
C111 H129 0.931 . S
C112 N109 1.311 . S
C112 N113 1.347 . S
C112 H123 0.929 . S
N113 C111 1.375 . S
N113 C112 1.347 . S
C114 C117 1.365 1_455 S
C114 N119 1.328 . S
C114 H120 0.929 1_455 S
C115 C116 1.362 . S
C115 C118 1.378 . S
C115 H130 0.929 . S
C116 C115 1.362 . S
C116 C117 1.366 1_455 S
C117 C114 1.365 1_655 S
C117 C116 1.366 1_655 S
C117 H131 0.930 . S
C118 C115 1.378 . S
C118 N119 1.315 . S
C118 H121 0.930 . S
N119 Co99 2.194 . S
N119 C114 1.328 . S
N119 C118 1.315 . S
H120 C114 0.929 1_655 S
H121 C118 0.930 . S
H122 C110 0.929 . S
H123 C112 0.929 . S
O124 Co99 2.351 . S
O124 C127 1.244 . S
O125 Co99 2.155 . S
O125 C127 1.240 . S
O126 Co99 2.096 . S
O126 C107 1.247 . S
C127 O124 1.244 . S
C127 O125 1.240 . S
H128 C102 0.931 . S
H129 C111 0.931 . S
H130 C115 0.929 . S
H131 C117 0.930 . S
Co132 N136 2.148 . S
Co132 N142 2.128 1_455 S
Co132 N152 2.194 1_455 S
Co132 O157 2.351 1_455 S
Co132 O158 2.155 . S
Co132 O159 2.096 . S
C133 N136 1.301 . S
C133 N137 1.328 . S
C133 H138 0.930 . S
C134 C135 1.333 . S
C134 N136 1.317 . S
C134 H139 0.930 . S
C135 C134 1.333 . S
C135 N137 1.350 . S
C135 H161 0.931 . S
N136 Co132 2.148 . S
N136 C133 1.301 . S
N136 C134 1.317 . S
N137 C133 1.328 . S
N137 C135 1.350 . S
H138 C133 0.930 . S
H139 C134 0.930 . S
C140 O141 1.224 . S
C140 O159 1.247 . S
O141 C140 1.224 . S
N142 Co132 2.128 1_655 S
N142 C143 1.355 . S
N142 C145 1.311 . S
C143 N142 1.355 . S
C143 C144 1.363 . S
C143 H155 0.929 . S
C144 C143 1.363 . S
C144 N146 1.375 . S
C144 H162 0.931 . S
C145 N142 1.311 . S
C145 N146 1.347 . S
C145 H156 0.929 . S
N146 C144 1.375 . S
N146 C145 1.347 . S
C147 C150 1.365 . S
C147 N152 1.328 . S
C147 H153 0.929 . S
C148 C149 1.362 . S
C148 C151 1.378 . S
C148 H163 0.929 . S
C149 C148 1.362 . S
C149 C150 1.366 . S
C150 C147 1.365 . S
C150 C149 1.366 . S
C150 H164 0.930 . S
C151 C148 1.378 . S
C151 N152 1.315 . S
C151 H154 0.930 . S
N152 Co132 2.194 1_655 S
N152 C147 1.328 . S
N152 C151 1.315 . S
H153 C147 0.929 . S
H154 C151 0.930 . S
H155 C143 0.929 . S
H156 C145 0.929 . S
O157 Co132 2.351 1_655 S
O157 C160 1.244 1_655 S
O158 Co132 2.155 . S
O158 C160 1.240 . S
O159 Co132 2.096 . S
O159 C140 1.247 . S
C160 O157 1.244 1_455 S
C160 O158 1.240 . S
H161 C135 0.931 . S
H162 C144 0.931 . S
H163 C148 0.929 . S
H164 C150 0.930 . S
Co165 N169 2.148 . S
Co165 N175 2.128 1_545 S
Co165 N185 2.194 1_545 S
Co165 O190 2.351 1_545 S
Co165 O191 2.155 . S
Co165 O192 2.096 . S
C166 N169 1.301 . S
C166 N170 1.328 . S
C166 H171 0.930 1_455 S
C167 C168 1.333 . S
C167 N169 1.317 . S
C167 H172 0.930 . S
C168 C167 1.333 . S
C168 N170 1.350 . S
C168 H194 0.931 . S
N169 Co165 2.148 . S
N169 C166 1.301 . S
N169 C167 1.317 . S
N170 C166 1.328 . S
N170 C168 1.350 . S
H171 C166 0.930 1_655 S
H172 C167 0.930 . S
C173 O174 1.224 . S
C173 O192 1.247 . S
O174 C173 1.224 . S
N175 Co165 2.128 1_565 S
N175 C176 1.355 . S
N175 C178 1.311 . S
C176 N175 1.355 . S
C176 C177 1.363 . S
C176 H188 0.929 . S
C177 C176 1.363 . S
C177 N179 1.375 . S
C177 H195 0.931 . S
C178 N175 1.311 . S
C178 N179 1.347 . S
C178 H189 0.929 . S
N179 C177 1.375 . S
N179 C178 1.347 . S
C180 C183 1.365 1_455 S
C180 N185 1.328 . S
C180 H186 0.929 1_455 S
C181 C182 1.362 . S
C181 C184 1.378 . S
C181 H196 0.929 . S
C182 C181 1.362 . S
C182 C183 1.366 1_455 S
C183 C180 1.365 1_655 S
C183 C182 1.366 1_655 S
C183 H197 0.930 . S
C184 C181 1.378 . S
C184 N185 1.315 . S
C184 H187 0.930 . S
N185 Co165 2.194 1_565 S
N185 C180 1.328 . S
N185 C184 1.315 . S
H186 C180 0.929 1_655 S
H187 C184 0.930 . S
H188 C176 0.929 . S
H189 C178 0.929 . S
O190 Co165 2.351 1_565 S
O190 C193 1.244 1_565 S
O191 Co165 2.155 . S
O191 C193 1.240 . S
O192 Co165 2.096 . S
O192 C173 1.247 . S
C193 O190 1.244 1_545 S
C193 O191 1.240 . S
H194 C168 0.931 . S
H195 C177 0.931 . S
H196 C181 0.929 . S
H197 C183 0.930 . S
Co198 N202 2.148 . S
Co198 N208 2.128 . S
Co198 N218 2.194 . S
Co198 O223 2.351 . S
Co198 O224 2.155 . S
Co198 O225 2.096 . S
C199 N202 1.301 . S
C199 N203 1.328 . S
C199 H204 0.930 1_545 S
C200 C201 1.333 . S
C200 N202 1.317 . S
C200 H205 0.930 . S
C201 C200 1.333 . S
C201 N203 1.350 . S
C201 H227 0.931 . S
N202 Co198 2.148 . S
N202 C199 1.301 . S
N202 C200 1.317 . S
N203 C199 1.328 . S
N203 C201 1.350 . S
H204 C199 0.930 1_565 S
H205 C200 0.930 . S
C206 O207 1.224 . S
C206 O225 1.247 . S
O207 C206 1.224 . S
N208 Co198 2.128 . S
N208 C209 1.355 . S
N208 C211 1.311 . S
C209 N208 1.355 . S
C209 C210 1.363 . S
C209 H221 0.929 . S
C210 C209 1.363 . S
C210 N212 1.375 . S
C210 H228 0.931 . S
C211 N208 1.311 . S
C211 N212 1.347 . S
C211 H222 0.929 . S
N212 C210 1.375 . S
N212 C211 1.347 . S
C213 C216 1.365 1_545 S
C213 N218 1.328 . S
C213 H219 0.929 1_545 S
C214 C215 1.362 . S
C214 C217 1.378 . S
C214 H229 0.929 1_556 S
C215 C214 1.362 . S
C215 C216 1.366 1_545 S
C216 C213 1.365 1_565 S
C216 C215 1.366 1_565 S
C216 H230 0.930 . S
C217 C214 1.378 . S
C217 N218 1.315 . S
C217 H220 0.930 . S
N218 Co198 2.194 . S
N218 C213 1.328 . S
N218 C217 1.315 . S
H219 C213 0.929 1_565 S
H220 C217 0.930 . S
H221 C209 0.929 . S
H222 C211 0.929 . S
O223 Co198 2.351 . S
O223 C226 1.244 . S
O224 Co198 2.155 . S
O224 C226 1.240 . S
O225 Co198 2.096 . S
O225 C206 1.247 . S
C226 O223 1.244 . S
C226 O224 1.240 . S
H227 C201 0.931 . S
H228 C210 0.931 . S
H229 C214 0.929 1_554 S
H230 C216 0.930 . S
Co231 N235 2.148 . S
Co231 N241 2.128 . S
Co231 N251 2.194 . S
Co231 O256 2.351 . S
Co231 O257 2.155 . S
Co231 O258 2.096 . S
C232 N235 1.301 . S
C232 N236 1.328 . S
C232 H237 0.930 . S
C233 C234 1.333 . S
C233 N235 1.317 . S
C233 H238 0.930 . S
C234 C233 1.333 . S
C234 N236 1.350 . S
C234 H260 0.931 . S
N235 Co231 2.148 . S
N235 C232 1.301 . S
N235 C233 1.317 . S
N236 C232 1.328 . S
N236 C234 1.350 . S
H237 C232 0.930 . S
H238 C233 0.930 . S
C239 O240 1.224 . S
C239 O258 1.247 . S
O240 C239 1.224 . S
N241 Co231 2.128 . S
N241 C242 1.355 . S
N241 C244 1.311 . S
C242 N241 1.355 . S
C242 C243 1.363 . S
C242 H254 0.929 . S
C243 C242 1.363 . S
C243 N245 1.375 . S
C243 H261 0.931 . S
C244 N241 1.311 . S
C244 N245 1.347 . S
C244 H255 0.929 . S
N245 C243 1.375 . S
N245 C244 1.347 . S
C246 C249 1.365 . S
C246 N251 1.328 . S
C246 H252 0.929 . S
C247 C248 1.362 . S
C247 C250 1.378 . S
C247 H262 0.929 . S
C248 C247 1.362 . S
C248 C249 1.366 . S
C249 C246 1.365 . S
C249 C248 1.366 . S
C249 H263 0.930 . S
C250 C247 1.378 . S
C250 N251 1.315 . S
C250 H253 0.930 . S
N251 Co231 2.194 . S
N251 C246 1.328 . S
N251 C250 1.315 . S
H252 C246 0.929 . S
H253 C250 0.930 . S
H254 C242 0.929 . S
H255 C244 0.929 . S
O256 Co231 2.351 . S
O256 C259 1.244 . S
O257 Co231 2.155 . S
O257 C259 1.240 . S
O258 Co231 2.096 . S
O258 C239 1.247 . S
C259 O256 1.244 . S
C259 O257 1.240 . S
H260 C234 0.931 . S
H261 C243 0.931 . S
H262 C247 0.929 . S
H263 C249 0.930 . S
Co264 N268 2.148 . S
Co264 N274 2.128 1_655 S
Co264 N284 2.194 1_655 S
Co264 O289 2.351 1_655 S
Co264 O290 2.155 . S
Co264 O291 2.096 . S
C265 N268 1.301 . S
C265 N269 1.328 . S
C265 H270 0.930 1_565 S
C266 C267 1.333 . S
C266 N268 1.317 . S
C266 H271 0.930 . S
C267 C266 1.333 . S
C267 N269 1.350 . S
C267 H293 0.931 . S
N268 Co264 2.148 . S
N268 C265 1.301 . S
N268 C266 1.317 . S
N269 C265 1.328 . S
N269 C267 1.350 . S
H270 C265 0.930 1_545 S
H271 C266 0.930 . S
C272 O273 1.224 . S
C272 O291 1.247 . S
O273 C272 1.224 . S
N274 Co264 2.128 1_455 S
N274 C275 1.355 . S
N274 C277 1.311 . S
C275 N274 1.355 . S
C275 C276 1.363 . S
C275 H287 0.929 . S
C276 C275 1.363 . S
C276 N278 1.375 . S
C276 H294 0.931 . S
C277 N274 1.311 . S
C277 N278 1.347 . S
C277 H288 0.929 . S
N278 C276 1.375 . S
N278 C277 1.347 . S
C279 C282 1.365 1_565 S
C279 N284 1.328 . S
C279 H285 0.929 1_565 S
C280 C281 1.362 . S
C280 C283 1.378 . S
C280 H295 0.929 . S
C281 C280 1.362 . S
C281 C282 1.366 1_565 S
C282 C279 1.365 1_545 S
C282 C281 1.366 1_545 S
C282 H296 0.930 . S
C283 C280 1.378 . S
C283 N284 1.315 . S
C283 H286 0.930 . S
N284 Co264 2.194 1_455 S
N284 C279 1.328 . S
N284 C283 1.315 . S
H285 C279 0.929 1_545 S
H286 C283 0.930 . S
H287 C275 0.929 . S
H288 C277 0.929 . S
O289 Co264 2.351 1_455 S
O289 C292 1.244 1_455 S
O290 Co264 2.155 . S
O290 C292 1.240 . S
O291 Co264 2.096 . S
O291 C272 1.247 . S
C292 O289 1.244 1_655 S
C292 O290 1.240 . S
H293 C267 0.931 . S
H294 C276 0.931 . S
H295 C280 0.929 . S
H296 C282 0.930 . S
Co297 N301 2.148 . S
Co297 N307 2.128 1_565 S
Co297 N317 2.194 1_565 S
Co297 O322 2.351 1_565 S
Co297 O323 2.155 . S
Co297 O324 2.096 . S
C298 N301 1.301 . S
C298 N302 1.328 . S
C298 H303 0.930 . S
C299 C300 1.333 . S
C299 N301 1.317 . S
C299 H304 0.930 . S
C300 C299 1.333 . S
C300 N302 1.350 . S
C300 H326 0.931 . S
N301 Co297 2.148 . S
N301 C298 1.301 . S
N301 C299 1.317 . S
N302 C298 1.328 . S
N302 C300 1.350 . S
H303 C298 0.930 . S
H304 C299 0.930 . S
C305 O306 1.224 . S
C305 O324 1.247 . S
O306 C305 1.224 . S
N307 Co297 2.128 1_545 S
N307 C308 1.355 . S
N307 C310 1.311 . S
C308 N307 1.355 . S
C308 C309 1.363 . S
C308 H320 0.929 . S
C309 C308 1.363 . S
C309 N311 1.375 . S
C309 H327 0.931 . S
C310 N307 1.311 . S
C310 N311 1.347 . S
C310 H321 0.929 . S
N311 C309 1.375 . S
N311 C310 1.347 . S
C312 C315 1.365 . S
C312 N317 1.328 . S
C312 H318 0.929 . S
C313 C314 1.362 . S
C313 C316 1.378 . S
C313 H328 0.929 . S
C314 C313 1.362 . S
C314 C315 1.366 . S
C315 C312 1.365 . S
C315 C314 1.366 . S
C315 H329 0.930 . S
C316 C313 1.378 . S
C316 N317 1.315 . S
C316 H319 0.930 . S
N317 Co297 2.194 1_545 S
N317 C312 1.328 . S
N317 C316 1.315 . S
H318 C312 0.929 . S
H319 C316 0.930 . S
H320 C308 0.929 . S
H321 C310 0.929 . S
O322 Co297 2.351 1_545 S
O322 C325 1.244 1_545 S
O323 Co297 2.155 . S
O323 C325 1.240 . S
O324 Co297 2.096 . S
O324 C305 1.247 . S
C325 O322 1.244 1_565 S
C325 O323 1.240 . S
H326 C300 0.931 . S
H327 C309 0.931 . S
H328 C313 0.929 . S
H329 C315 0.930 . S
Co330 N334 2.148 . S
Co330 N340 2.128 . S
Co330 N350 2.194 . S
Co330 O355 2.351 . S
Co330 O356 2.155 . S
Co330 O357 2.096 . S
C331 N334 1.301 . S
C331 N335 1.328 . S
C331 H336 0.930 . S
C332 C333 1.333 . S
C332 N334 1.317 . S
C332 H337 0.930 . S
C333 C332 1.333 . S
C333 N335 1.350 . S
C333 H359 0.931 . S
N334 Co330 2.148 . S
N334 C331 1.301 . S
N334 C332 1.317 . S
N335 C331 1.328 . S
N335 C333 1.350 . S
H336 C331 0.930 . S
H337 C332 0.930 . S
C338 O339 1.224 . S
C338 O357 1.247 . S
O339 C338 1.224 . S
N340 Co330 2.128 . S
N340 C341 1.355 . S
N340 C343 1.311 . S
C341 N340 1.355 . S
C341 C342 1.363 . S
C341 H353 0.929 . S
C342 C341 1.363 . S
C342 N344 1.375 . S
C342 H360 0.931 . S
C343 N340 1.311 . S
C343 N344 1.347 . S
C343 H354 0.929 . S
N344 C342 1.375 . S
N344 C343 1.347 . S
C345 C348 1.365 . S
C345 N350 1.328 . S
C345 H351 0.929 . S
C346 C347 1.362 . S
C346 C349 1.378 . S
C346 H361 0.929 . S
C347 C346 1.362 . S
C347 C348 1.366 . S
C348 C345 1.365 . S
C348 C347 1.366 . S
C348 H362 0.930 . S
C349 C346 1.378 . S
C349 N350 1.315 . S
C349 H352 0.930 . S
N350 Co330 2.194 . S
N350 C345 1.328 . S
N350 C349 1.315 . S
H351 C345 0.929 . S
H352 C349 0.930 . S
H353 C341 0.929 . S
H354 C343 0.929 . S
O355 Co330 2.351 . S
O355 C358 1.244 . S
O356 Co330 2.155 . S
O356 C358 1.240 . S
O357 Co330 2.096 . S
O357 C338 1.247 . S
C358 O355 1.244 . S
C358 O356 1.240 . S
H359 C333 0.931 . S
H360 C342 0.931 . S
H361 C346 0.929 . S
H362 C348 0.930 . S
Co363 N367 2.148 . S
Co363 N373 2.128 . S
Co363 N383 2.194 . S
Co363 O388 2.351 . S
Co363 O389 2.155 . S
Co363 O390 2.096 . S
C364 N367 1.301 . S
C364 N368 1.328 . S
C364 H369 0.930 1_655 S
C365 C366 1.333 . S
C365 N367 1.317 . S
C365 H370 0.930 . S
C366 C365 1.333 . S
C366 N368 1.350 . S
C366 H392 0.931 . S
N367 Co363 2.148 . S
N367 C364 1.301 . S
N367 C365 1.317 . S
N368 C364 1.328 . S
N368 C366 1.350 . S
H369 C364 0.930 1_455 S
H370 C365 0.930 . S
C371 O372 1.224 . S
C371 O390 1.247 . S
O372 C371 1.224 . S
N373 Co363 2.128 . S
N373 C374 1.355 . S
N373 C376 1.311 . S
C374 N373 1.355 . S
C374 C375 1.363 . S
C374 H386 0.929 . S
C375 C374 1.363 . S
C375 N377 1.375 . S
C375 H393 0.931 . S
C376 N373 1.311 . S
C376 N377 1.347 . S
C376 H387 0.929 . S
N377 C375 1.375 . S
N377 C376 1.347 . S
C378 C381 1.365 1_655 S
C378 N383 1.328 . S
C378 H384 0.929 1_655 S
C379 C380 1.362 . S
C379 C382 1.378 . S
C379 H394 0.929 . S
C380 C379 1.362 . S
C380 C381 1.366 1_655 S
C381 C378 1.365 1_455 S
C381 C380 1.366 1_455 S
C381 H395 0.930 . S
C382 C379 1.378 . S
C382 N383 1.315 . S
C382 H385 0.930 . S
N383 Co363 2.194 . S
N383 C378 1.328 . S
N383 C382 1.315 . S
H384 C378 0.929 1_455 S
H385 C382 0.930 . S
H386 C374 0.929 . S
H387 C376 0.929 . S
O388 Co363 2.351 . S
O388 C391 1.244 . S
O389 Co363 2.155 . S
O389 C391 1.240 . S
O390 Co363 2.096 . S
O390 C371 1.247 . S
C391 O388 1.244 . S
C391 O389 1.240 . S
H392 C366 0.931 . S
H393 C375 0.931 . S
H394 C379 0.929 . S
H395 C381 0.930 . S
Co396 N400 2.148 . S
Co396 N406 2.128 1_655 S
Co396 N416 2.194 1_655 S
Co396 O421 2.351 1_655 S
Co396 O422 2.155 . S
Co396 O423 2.096 . S
C397 N400 1.301 . S
C397 N401 1.328 . S
C397 H402 0.930 . S
C398 C399 1.333 . S
C398 N400 1.317 . S
C398 H403 0.930 . S
C399 C398 1.333 . S
C399 N401 1.350 . S
C399 H425 0.931 . S
N400 Co396 2.148 . S
N400 C397 1.301 . S
N400 C398 1.317 . S
N401 C397 1.328 . S
N401 C399 1.350 . S
H402 C397 0.930 . S
H403 C398 0.930 . S
C404 O405 1.224 . S
C404 O423 1.247 . S
O405 C404 1.224 . S
N406 Co396 2.128 1_455 S
N406 C407 1.355 . S
N406 C409 1.311 . S
C407 N406 1.355 . S
C407 C408 1.363 . S
C407 H419 0.929 . S
C408 C407 1.363 . S
C408 N410 1.375 . S
C408 H426 0.931 . S
C409 N406 1.311 . S
C409 N410 1.347 . S
C409 H420 0.929 . S
N410 C408 1.375 . S
N410 C409 1.347 . S
C411 C414 1.365 . S
C411 N416 1.328 . S
C411 H417 0.929 . S
C412 C413 1.362 . S
C412 C415 1.378 . S
C412 H427 0.929 . S
C413 C412 1.362 . S
C413 C414 1.366 . S
C414 C411 1.365 . S
C414 C413 1.366 . S
C414 H428 0.930 . S
C415 C412 1.378 . S
C415 N416 1.315 . S
C415 H418 0.930 . S
N416 Co396 2.194 1_455 S
N416 C411 1.328 . S
N416 C415 1.315 . S
H417 C411 0.929 . S
H418 C415 0.930 . S
H419 C407 0.929 . S
H420 C409 0.929 . S
O421 Co396 2.351 1_455 S
O421 C424 1.244 1_455 S
O422 Co396 2.155 . S
O422 C424 1.240 . S
O423 Co396 2.096 . S
O423 C404 1.247 . S
C424 O421 1.244 1_655 S
C424 O422 1.240 . S
H425 C399 0.931 . S
H426 C408 0.931 . S
H427 C412 0.929 . S
H428 C414 0.930 . S
Co429 N433 2.148 . S
Co429 N439 2.128 1_565 S
Co429 N449 2.194 1_565 S
Co429 O454 2.351 1_565 S
Co429 O455 2.155 . S
Co429 O456 2.096 . S
C430 N433 1.301 . S
C430 N434 1.328 . S
C430 H435 0.930 1_655 S
C431 C432 1.333 . S
C431 N433 1.317 . S
C431 H436 0.930 . S
C432 C431 1.333 . S
C432 N434 1.350 . S
C432 H458 0.931 . S
N433 Co429 2.148 . S
N433 C430 1.301 . S
N433 C431 1.317 . S
N434 C430 1.328 . S
N434 C432 1.350 . S
H435 C430 0.930 1_455 S
H436 C431 0.930 . S
C437 O438 1.224 . S
C437 O456 1.247 . S
O438 C437 1.224 . S
N439 Co429 2.128 1_545 S
N439 C440 1.355 . S
N439 C442 1.311 . S
C440 N439 1.355 . S
C440 C441 1.363 . S
C440 H452 0.929 . S
C441 C440 1.363 . S
C441 N443 1.375 . S
C441 H459 0.931 . S
C442 N439 1.311 . S
C442 N443 1.347 . S
C442 H453 0.929 . S
N443 C441 1.375 . S
N443 C442 1.347 . S
C444 C447 1.365 1_655 S
C444 N449 1.328 . S
C444 H450 0.929 1_655 S
C445 C446 1.362 . S
C445 C448 1.378 . S
C445 H460 0.929 . S
C446 C445 1.362 . S
C446 C447 1.366 1_655 S
C447 C444 1.365 1_455 S
C447 C446 1.366 1_455 S
C447 H461 0.930 . S
C448 C445 1.378 . S
C448 N449 1.315 . S
C448 H451 0.930 . S
N449 Co429 2.194 1_545 S
N449 C444 1.328 . S
N449 C448 1.315 . S
H450 C444 0.929 1_455 S
H451 C448 0.930 . S
H452 C440 0.929 . S
H453 C442 0.929 . S
O454 Co429 2.351 1_545 S
O454 C457 1.244 1_545 S
O455 Co429 2.155 . S
O455 C457 1.240 . S
O456 Co429 2.096 . S
O456 C437 1.247 . S
C457 O454 1.244 1_565 S
C457 O455 1.240 . S
H458 C432 0.931 . S
H459 C441 0.931 . S
H460 C445 0.929 . S
H461 C447 0.930 . S
Co462 N466 2.148 . S
Co462 N472 2.128 . S
Co462 N482 2.194 . S
Co462 O487 2.351 . S
Co462 O488 2.155 . S
Co462 O489 2.096 . S
C463 N466 1.301 . S
C463 N467 1.328 . S
C463 H468 0.930 1_565 S
C464 C465 1.333 . S
C464 N466 1.317 . S
C464 H469 0.930 . S
C465 C464 1.333 . S
C465 N467 1.350 . S
C465 H491 0.931 . S
N466 Co462 2.148 . S
N466 C463 1.301 . S
N466 C464 1.317 . S
N467 C463 1.328 . S
N467 C465 1.350 . S
H468 C463 0.930 1_545 S
H469 C464 0.930 . S
C470 O471 1.224 . S
C470 O489 1.247 . S
O471 C470 1.224 . S
N472 Co462 2.128 . S
N472 C473 1.355 . S
N472 C475 1.311 . S
C473 N472 1.355 . S
C473 C474 1.363 . S
C473 H485 0.929 . S
C474 C473 1.363 . S
C474 N476 1.375 . S
C474 H492 0.931 . S
C475 N472 1.311 . S
C475 N476 1.347 . S
C475 H486 0.929 . S
N476 C474 1.375 . S
N476 C475 1.347 . S
C477 C480 1.365 1_565 S
C477 N482 1.328 . S
C477 H483 0.929 1_565 S
C478 C479 1.362 . S
C478 C481 1.378 . S
C478 H493 0.929 1_554 S
C479 C478 1.362 . S
C479 C480 1.366 1_565 S
C480 C477 1.365 1_545 S
C480 C479 1.366 1_545 S
C480 H494 0.930 . S
C481 C478 1.378 . S
C481 N482 1.315 . S
C481 H484 0.930 . S
N482 Co462 2.194 . S
N482 C477 1.328 . S
N482 C481 1.315 . S
H483 C477 0.929 1_545 S
H484 C481 0.930 . S
H485 C473 0.929 . S
H486 C475 0.929 . S
O487 Co462 2.351 . S
O487 C490 1.244 . S
O488 Co462 2.155 . S
O488 C490 1.240 . S
O489 Co462 2.096 . S
O489 C470 1.247 . S
C490 O487 1.244 . S
C490 O488 1.240 . S
H491 C465 0.931 . S
H492 C474 0.931 . S
H493 C478 0.929 1_556 S
H494 C480 0.930 . S
Co495 N499 2.148 . S
Co495 N505 2.128 . S
Co495 N515 2.194 . S
Co495 O520 2.351 . S
Co495 O521 2.155 . S
Co495 O522 2.096 . S
C496 N499 1.301 . S
C496 N500 1.328 . S
C496 H501 0.930 . S
C497 C498 1.333 . S
C497 N499 1.317 . S
C497 H502 0.930 . S
C498 C497 1.333 . S
C498 N500 1.350 . S
C498 H524 0.931 . S
N499 Co495 2.148 . S
N499 C496 1.301 . S
N499 C497 1.317 . S
N500 C496 1.328 . S
N500 C498 1.350 . S
H501 C496 0.930 . S
H502 C497 0.930 . S
C503 O504 1.224 . S
C503 O522 1.247 . S
O504 C503 1.224 . S
N505 Co495 2.128 . S
N505 C506 1.355 . S
N505 C508 1.311 . S
C506 N505 1.355 . S
C506 C507 1.363 . S
C506 H518 0.929 . S
C507 C506 1.363 . S
C507 N509 1.375 . S
C507 H525 0.931 . S
C508 N505 1.311 . S
C508 N509 1.347 . S
C508 H519 0.929 . S
N509 C507 1.375 . S
N509 C508 1.347 . S
C510 C513 1.365 . S
C510 N515 1.328 . S
C510 H516 0.929 . S
C511 C512 1.362 . S
C511 C514 1.378 . S
C511 H526 0.929 . S
C512 C511 1.362 . S
C512 C513 1.366 . S
C513 C510 1.365 . S
C513 C512 1.366 . S
C513 H527 0.930 . S
C514 C511 1.378 . S
C514 N515 1.315 . S
C514 H517 0.930 . S
N515 Co495 2.194 . S
N515 C510 1.328 . S
N515 C514 1.315 . S
H516 C510 0.929 . S
H517 C514 0.930 . S
H518 C506 0.929 . S
H519 C508 0.929 . S
O520 Co495 2.351 . S
O520 C523 1.244 . S
O521 Co495 2.155 . S
O521 C523 1.240 . S
O522 Co495 2.096 . S
O522 C503 1.247 . S
C523 O520 1.244 . S
C523 O521 1.240 . S
H524 C498 0.931 . S
H525 C507 0.931 . S
H526 C511 0.929 . S
H527 C513 0.930 . S
C28 C193 0.535 . S
C61 C226 0.554 . S
C259 C94 0.584 . S
C160 C127 0.554 . S
C292 C457 0.535 . S
C325 C490 0.554 . S
C358 C523 0.584 . S
C391 C424 0.554 . S
C281 C17 3.935 1_465 S
C314 C50 3.923 1_545 S
C83 C347 4.082 . S
C380 C116 4.073 1_655 S
C149 C413 3.923 1_656 S
C182 C446 3.935 1_466 S
C215 C479 4.073 1_546 S
C248 C512 4.082 1_556 S
N14 N146 2.913 . S
N47 N179 2.913 . S
N212 N80 2.980 . S
N113 N245 2.980 . S
N410 N278 2.913 . S
N443 N311 2.913 . S
N344 N476 2.980 . S
N509 N377 2.980 . S
C41 N5 1.843 . S
N38 C74 1.835 . S
N71 C107 1.835 . S
N104 C8 1.838 . S
C239 N137 1.835 . S
N170 C140 1.843 . S
N203 C173 1.838 . S
N236 C206 1.835 . S
N269 C305 1.843 . S
N302 C338 1.835 . S
C371 N335 1.835 . S
N368 C272 1.838 . S
N401 C503 1.835 . S
C404 N434 1.843 . S
C437 N467 1.838 . S
N500 C470 1.835 . S
