# Generated by pormake.
# Topology zfv, (5)-cn, num edge types: 1
# Building blocks:
#     Node 0, Type 0, BuildingBlock: XOMCOT_clean_sbu_1, # of connection points: 5
#     Node 1, Type 0, BuildingBlock: XOMCOT_clean_sbu_1, # of connection points: 5
#     Node 2, Type 0, BuildingBlock: XOMCOT_clean_sbu_1, # of connection points: 5
#     Node 3, Type 0, BuildingBlock: XOMCOT_clean_sbu_1, # of connection points: 5
#     Node 4, Type 0, BuildingBlock: XOMCOT_clean_sbu_1, # of connection points: 5
#     Node 5, Type 0, BuildingBlock: XOMCOT_clean_sbu_1, # of connection points: 5
#     Node 6, Type 0, BuildingBlock: XOMCOT_clean_sbu_1, # of connection points: 5
#     Node 7, Type 0, BuildingBlock: XOMCOT_clean_sbu_1, # of connection points: 5
#     Node 8, Type 0, BuildingBlock: XOMCOT_clean_sbu_1, # of connection points: 5
#     Node 9, Type 0, BuildingBlock: XOMCOT_clean_sbu_1, # of connection points: 5
#     Node 10, Type 0, BuildingBlock: XOMCOT_clean_sbu_1, # of connection points: 5
#     Node 11, Type 0, BuildingBlock: XOMCOT_clean_sbu_1, # of connection points: 5
#     Node 12, Type 0, BuildingBlock: XOMCOT_clean_sbu_1, # of connection points: 5
#     Node 13, Type 0, BuildingBlock: XOMCOT_clean_sbu_1, # of connection points: 5
#     Node 14, Type 0, BuildingBlock: XOMCOT_clean_sbu_1, # of connection points: 5
#     Node 15, Type 0, BuildingBlock: XOMCOT_clean_sbu_1, # of connection points: 5
#     Edge 16, Type (0, 0), BuildingBlock: XIVTED_clean_linker_0, # of connection points: 2
#     Edge 17, Type (0, 0), BuildingBlock: XIVTED_clean_linker_0, # of connection points: 2
#     Edge 18, Type (0, 0), BuildingBlock: XIVTED_clean_linker_0, # of connection points: 2
#     Edge 19, Type (0, 0), BuildingBlock: XIVTED_clean_linker_0, # of connection points: 2
#     Edge 20, Type (0, 0), BuildingBlock: XIVTED_clean_linker_0, # of connection points: 2
#     Edge 21, Type (0, 0), BuildingBlock: XIVTED_clean_linker_0, # of connection points: 2
#     Edge 22, Type (0, 0), BuildingBlock: XIVTED_clean_linker_0, # of connection points: 2
#     Edge 23, Type (0, 0), BuildingBlock: XIVTED_clean_linker_0, # of connection points: 2
#     Edge 24, Type (0, 0), BuildingBlock: XIVTED_clean_linker_0, # of connection points: 2
#     Edge 25, Type (0, 0), BuildingBlock: XIVTED_clean_linker_0, # of connection points: 2
#     Edge 26, Type (0, 0), BuildingBlock: XIVTED_clean_linker_0, # of connection points: 2
#     Edge 27, Type (0, 0), BuildingBlock: XIVTED_clean_linker_0, # of connection points: 2
#     Edge 28, Type (0, 0), BuildingBlock: XIVTED_clean_linker_0, # of connection points: 2
#     Edge 29, Type (0, 0), BuildingBlock: XIVTED_clean_linker_0, # of connection points: 2
#     Edge 30, Type (0, 0), BuildingBlock: XIVTED_clean_linker_0, # of connection points: 2
#     Edge 31, Type (0, 0), BuildingBlock: XIVTED_clean_linker_0, # of connection points: 2
#     Edge 32, Type (0, 0), BuildingBlock: XIVTED_clean_linker_0, # of connection points: 2
#     Edge 33, Type (0, 0), BuildingBlock: XIVTED_clean_linker_0, # of connection points: 2
#     Edge 34, Type (0, 0), BuildingBlock: XIVTED_clean_linker_0, # of connection points: 2
#     Edge 35, Type (0, 0), BuildingBlock: XIVTED_clean_linker_0, # of connection points: 2
#     Edge 36, Type (0, 0), BuildingBlock: XIVTED_clean_linker_0, # of connection points: 2
#     Edge 37, Type (0, 0), BuildingBlock: XIVTED_clean_linker_0, # of connection points: 2
#     Edge 38, Type (0, 0), BuildingBlock: XIVTED_clean_linker_0, # of connection points: 2
#     Edge 39, Type (0, 0), BuildingBlock: XIVTED_clean_linker_0, # of connection points: 2
#     Edge 40, Type (0, 0), BuildingBlock: XIVTED_clean_linker_0, # of connection points: 2
#     Edge 41, Type (0, 0), BuildingBlock: XIVTED_clean_linker_0, # of connection points: 2
#     Edge 42, Type (0, 0), BuildingBlock: XIVTED_clean_linker_0, # of connection points: 2
#     Edge 43, Type (0, 0), BuildingBlock: XIVTED_clean_linker_0, # of connection points: 2
#     Edge 44, Type (0, 0), BuildingBlock: XIVTED_clean_linker_0, # of connection points: 2
#     Edge 45, Type (0, 0), BuildingBlock: XIVTED_clean_linker_0, # of connection points: 2
#     Edge 46, Type (0, 0), BuildingBlock: XIVTED_clean_linker_0, # of connection points: 2
#     Edge 47, Type (0, 0), BuildingBlock: XIVTED_clean_linker_0, # of connection points: 2
#     Edge 48, Type (0, 0), BuildingBlock: XIVTED_clean_linker_0, # of connection points: 2
#     Edge 49, Type (0, 0), BuildingBlock: XIVTED_clean_linker_0, # of connection points: 2
#     Edge 50, Type (0, 0), BuildingBlock: XIVTED_clean_linker_0, # of connection points: 2
#     Edge 51, Type (0, 0), BuildingBlock: XIVTED_clean_linker_0, # of connection points: 2
#     Edge 52, Type (0, 0), BuildingBlock: XIVTED_clean_linker_0, # of connection points: 2
#     Edge 53, Type (0, 0), BuildingBlock: XIVTED_clean_linker_0, # of connection points: 2
#     Edge 54, Type (0, 0), BuildingBlock: XIVTED_clean_linker_0, # of connection points: 2
#     Edge 55, Type (0, 0), BuildingBlock: XIVTED_clean_linker_0, # of connection points: 2
# Relax obj value: 0.103
# Max RMSD: 0.112
# Mean RMSD: 0.112
data_MOF--net-zfv--node1-XOMCOT_clean_sbu_1--edge1-XIVTED_clean_linker_0
_symmetry_space_group_name_H-M    P1
_symmetry_Int_Tables_number       1
_symmetry_cell_setting            triclinic
loop_
_symmetry_equiv_pos_as_xyz
'x, y, z'
_cell_length_a     77.172288
_cell_length_b     77.082042
_cell_length_c     17.697528
_cell_angle_alpha  89.970233
_cell_angle_beta   90.000109
_cell_angle_gamma 90.018323
loop_
_atom_site_label
_atom_site_type_symbol
_atom_site_fract_x
_atom_site_fract_y
_atom_site_fract_z
_atom_type_partial_charge
C0 C 0.05522 0.59075 0.22934 0.0
C1 C 0.05367 0.587 0.3049 0.0
N2 N 0.06935 0.58239 0.33147 0.0
N3 N 0.07188 0.58889 0.20773 0.0
C4 C 0.08004 0.5831 0.27076 0.0
H5 H 0.04483 0.595 0.1928 0.0
Co6 Co 0.07955 0.59338 0.1083 0.0
C7 C 0.10947 0.61074 0.19834 0.0
O8 O 0.10237 0.61108 0.26571 0.0
N9 N 0.08667 0.59762 1.00774 0.0
C10 C 0.09751 0.61116 0.90716 0.0
C11 C 0.09522 0.61191 0.98406 0.0
C12 C 0.08356 0.58856 0.94343 0.0
N13 N 0.09016 0.59647 0.88137 0.0
O14 O 0.09109 0.57152 0.10778 0.0
H15 H 0.099 0.62259 0.02002 0.0
H16 H 0.07638 0.57654 0.9417 0.0
O17 O 0.10112 0.60456 0.14201 0.0
C18 C 0.08176 0.559 0.08471 0.0
O19 O 0.06576 0.56208 0.06325 0.0
N20 N 0.06723 0.61444 0.10753 0.0
C21 C 0.04378 0.64202 0.11029 0.0
C22 C 0.05863 0.64222 0.15597 0.0
C23 C 0.07014 0.62825 0.15412 0.0
C24 C 0.05318 0.61429 0.06083 0.0
C25 C 0.0413 0.62795 0.06121 0.0
H26 H 0.08082 0.62834 0.19281 0.0
H27 H 0.05084 0.60315 0.02513 0.0
H28 H 0.09365 0.57974 0.2725 0.0
H29 H 0.04202 0.5884 0.33843 0.0
H30 H 0.10349 0.62107 0.87251 0.0
H31 H 0.06091 0.65267 0.19561 0.0
H32 H 0.03008 0.62731 0.02452 0.0
C33 C 0.72441 0.74449 0.37667 0.0
C34 C 0.72662 0.74329 0.45367 0.0
N35 N 0.71913 0.75721 0.48632 0.0
N36 N 0.71564 0.75911 0.36043 0.0
C37 C 0.71265 0.76662 0.42826 0.0
H38 H 0.72841 0.735 0.33525 0.0
Co39 Co 0.70807 0.76502 0.26381 0.0
C40 C 0.70115 0.80222 0.27406 0.0
O41 O 0.71065 0.80461 0.21329 0.0
N42 N 0.7003 0.77056 0.16565 0.0
C43 C 0.68327 0.77881 0.0708 0.0
C44 C 0.68468 0.77732 0.14793 0.0
C45 C 0.70805 0.76787 0.09803 0.0
N46 N 0.698 0.77286 0.03918 0.0
O47 O 0.73009 0.77558 0.2448 0.0
H48 H 0.6748 0.78073 0.18863 0.0
H49 H 0.72078 0.76231 0.09178 0.0
O50 O 0.69913 0.78698 0.30077 0.0
C51 C 0.74193 0.76607 0.21679 0.0
O52 O 0.73836 0.74989 0.1994 0.0
N53 N 0.68712 0.75371 0.28311 0.0
C54 C 0.65851 0.73264 0.31262 0.0
C55 C 0.66071 0.74844 0.35092 0.0
C56 C 0.67514 0.75882 0.33538 0.0
C57 C 0.68516 0.7385 0.24503 0.0
C58 C 0.67089 0.72782 0.25846 0.0
H59 H 0.67685 0.77068 0.36692 0.0
H60 H 0.69497 0.73449 0.20502 0.0
H61 H 0.70552 0.77857 0.43513 0.0
H62 H 0.73263 0.73258 0.48326 0.0
H63 H 0.67203 0.78349 0.04054 0.0
H64 H 0.65144 0.75268 0.39296 0.0
H65 H 0.66989 0.71561 0.22854 0.0
C66 C 0.56135 0.41348 0.65652 0.0
C67 C 0.56254 0.4158 0.73344 0.0
N68 N 0.54829 0.40896 0.76604 0.0
N69 N 0.54642 0.40525 0.64036 0.0
C70 C 0.5387 0.40273 0.70808 0.0
H71 H 0.57096 0.41713 0.615 0.0
Co72 Co 0.54013 0.39826 0.54359 0.0
C73 C 0.50334 0.38984 0.55696 0.0
O74 O 0.50025 0.39994 0.49866 0.0
N75 N 0.53418 0.39111 0.44509 0.0
C76 C 0.52592 0.37435 0.34937 0.0
C77 C 0.52766 0.37543 0.42643 0.0
C78 C 0.53651 0.39924 0.37801 0.0
N79 N 0.5315 0.38935 0.31869 0.0
O80 O 0.52874 0.42011 0.5299 0.0
H81 H 0.52467 0.36524 0.46638 0.0
H82 H 0.54192 0.41208 0.37249 0.0
O83 O 0.51877 0.38815 0.58173 0.0
C84 C 0.53766 0.43257 0.50313 0.0
O85 O 0.55372 0.42968 0.48197 0.0
N86 N 0.55224 0.37752 0.55798 0.0
C87 C 0.5737 0.34872 0.57686 0.0
C88 C 0.55864 0.35065 0.62056 0.0
C89 C 0.54806 0.36519 0.61035 0.0
C90 C 0.56685 0.37595 0.51544 0.0
C91 C 0.5777 0.36159 0.52349 0.0
H92 H 0.53673 0.36664 0.64565 0.0
H93 H 0.57018 0.38606 0.47556 0.0
H94 H 0.52639 0.39623 0.7149 0.0
H95 H 0.5734 0.42151 0.76303 0.0
H96 H 0.52143 0.36312 0.31839 0.0
H97 H 0.55506 0.34102 0.66233 0.0
H98 H 0.58936 0.36083 0.48961 0.0
C99 C 0.88925 0.2433 0.90004 0.0
C100 C 0.88749 0.24387 0.97737 0.0
N101 N 0.89868 0.23246 1.00792 0.0
N102 N 0.90135 0.23142 0.88156 0.0
C103 C 0.9069 0.2251 0.94867 0.0
H104 H 0.88249 0.2515 0.86031 0.0
Co105 Co 0.90976 0.22667 0.78459 0.0
C106 C 0.917 0.18938 0.79081 0.0
O107 O 0.90814 0.18714 0.72818 0.0
N108 N 0.9185 0.22214 0.68694 0.0
C109 C 0.93599 0.21396 0.59346 0.0
C110 C 0.93409 0.21513 0.67054 0.0
C111 C 0.91133 0.22537 0.61859 0.0
N112 N 0.92161 0.2204 0.56063 0.0
O113 O 0.8878 0.21647 0.75855 0.0
H114 H 0.9435 0.211 0.71211 0.0
H115 H 0.89893 0.23154 0.61098 0.0
O116 O 0.91846 0.20449 0.81938 0.0
C117 C 0.87762 0.22776 0.73045 0.0
O118 O 0.88337 0.2437 0.72186 0.0
N119 N 0.9303 0.23799 0.80917 0.0
C120 C 0.95701 0.26053 0.84902 0.0
C121 C 0.95727 0.24314 0.87286 0.0
C122 C 0.94369 0.23201 0.85246 0.0
C123 C 0.93017 0.25461 0.78343 0.0
C124 C 0.9434 0.26608 0.80238 0.0
H125 H 0.94375 0.21885 0.87342 0.0
H126 H 0.9194 0.25907 0.74944 0.0
H127 H 0.91703 0.2155 0.95423 0.0
H128 H 0.87913 0.25256 1.00871 0.0
H129 H 0.94705 0.20856 0.56423 0.0
H130 H 0.96749 0.23836 0.90928 0.0
H131 H 0.94282 0.27928 0.78154 0.0
C132 C 0.05818 0.41435 0.92635 0.0
C133 C 0.05685 0.41651 0.84933 0.0
N134 N 0.07098 0.40951 0.81647 0.0
N135 N 0.0731 0.40608 0.94239 0.0
C136 C 0.08065 0.40338 0.87442 0.0
H137 H 0.04862 0.41806 0.96797 0.0
Co138 Co 0.07946 0.3988 0.03899 0.0
C139 C 0.11645 0.39116 0.02381 0.0
O140 O 0.11959 0.40076 0.08358 0.0
N141 N 0.08547 0.39134 0.13709 0.0
C142 C 0.09394 0.3745 0.23231 0.0
C143 C 0.09237 0.37579 0.15516 0.0
C144 C 0.08275 0.39916 0.20453 0.0
N145 N 0.08786 0.38923 0.2636 0.0
O146 O 0.09044 0.42074 0.05503 0.0
H147 H 0.09573 0.36582 0.11475 0.0
H148 H 0.07699 0.41183 0.21052 0.0
O149 O 0.10095 0.38934 1.00001 0.0
C150 C 0.08106 0.43268 0.08302 0.0
O151 O 0.06496 0.42919 0.10177 0.0
N152 N 0.06774 0.37796 0.0228 0.0
C153 C 0.04567 0.34993 0.99684 0.0
C154 C 0.06128 0.35157 0.95667 0.0
C155 C 0.07215 0.36576 0.97027 0.0
C156 C 0.05285 0.37641 0.06344 0.0
C157 C 0.0417 0.36243 0.05185 0.0
H158 H 0.08372 0.36721 0.93655 0.0
H159 H 0.04946 0.38633 0.10401 0.0
H160 H 0.09284 0.39673 0.86735 0.0
H161 H 0.04594 0.42217 0.81989 0.0
H162 H 0.09867 0.3633 0.26286 0.0
H163 H 0.06474 0.3424 0.91288 0.0
H164 H 0.02992 0.3616 0.08493 0.0
C165 C 0.89981 0.74362 0.06298 0.0
C166 C 0.89604 0.74209 0.98744 0.0
N167 N 0.89147 0.75781 0.96091 0.0
N168 N 0.89799 0.7603 0.0846 0.0
C169 C 0.89223 0.76851 0.02161 0.0
H170 H 0.90402 0.73321 0.09954 0.0
Co171 Co 0.90245 0.76791 0.18411 0.0
C172 C 0.91984 0.79804 0.09504 0.0
O173 O 0.91998 0.79125 0.02708 0.0
N174 N 0.90664 0.77497 0.28475 0.0
C175 C 0.92017 0.78571 0.38547 0.0
C176 C 0.92097 0.78338 0.30863 0.0
C177 C 0.89748 0.77197 0.3489 0.0
N178 N 0.90539 0.77851 0.41105 0.0
O179 O 0.8806 0.77944 0.1847 0.0
H180 H 0.93172 0.78704 0.27282 0.0
H181 H 0.88538 0.76492 0.35044 0.0
O182 O 0.91368 0.7895 0.15089 0.0
C183 C 0.86814 0.7699 0.20684 0.0
O184 O 0.87133 0.75385 0.22748 0.0
N185 N 0.92349 0.75558 0.18471 0.0
C186 C 0.95113 0.73222 0.18163 0.0
C187 C 0.95108 0.74691 0.13484 0.0
C188 C 0.93708 0.75838 0.13686 0.0
C189 C 0.92355 0.74167 0.23227 0.0
C190 C 0.93726 0.72984 0.23181 0.0
H191 H 0.93694 0.7689 0.09722 0.0
H192 H 0.91255 0.73939 0.26884 0.0
H193 H 0.88887 0.78213 0.01993 0.0
H194 H 0.89739 0.73043 0.95392 0.0
H195 H 0.93009 0.7916 0.42026 0.0
H196 H 0.96136 0.7491 0.09424 0.0
H197 H 0.93681 0.71875 0.26934 0.0
C198 C 0.55755 0.57771 0.37614 0.0
C199 C 0.55875 0.57543 0.29919 0.0
N200 N 0.54454 0.58235 0.26661 0.0
N201 N 0.54266 0.58599 0.39236 0.0
C202 C 0.53497 0.58859 0.32462 0.0
H203 H 0.56718 0.57405 0.41759 0.0
Co204 Co 0.53649 0.5932 0.48907 0.0
C205 C 0.49946 0.60109 0.47668 0.0
O206 O 0.49645 0.59139 0.53633 0.0
N207 N 0.53068 0.60058 0.58742 0.0
C208 C 0.52237 0.61743 0.68278 0.0
C209 C 0.52403 0.61623 0.60569 0.0
C210 C 0.53314 0.59259 0.65473 0.0
N211 N 0.52811 0.60254 0.71385 0.0
O212 O 0.52563 0.57115 0.50495 0.0
H213 H 0.52087 0.6263 0.56543 0.0
H214 H 0.53861 0.57979 0.66057 0.0
O215 O 0.51486 0.60266 0.45142 0.0
C216 C 0.53499 0.55904 0.53184 0.0
O217 O 0.55102 0.56247 0.55194 0.0
N218 N 0.54807 0.61417 0.47228 0.0
C219 C 0.56921 0.64288 0.44516 0.0
C220 C 0.55366 0.64064 0.40519 0.0
C221 C 0.54327 0.62616 0.41941 0.0
C222 C 0.56301 0.61618 0.51223 0.0
C223 C 0.57373 0.63051 0.49998 0.0
H224 H 0.53167 0.62441 0.3862 0.0
H225 H 0.56681 0.60637 0.5527 0.0
H226 H 0.52273 0.59519 0.31779 0.0
H227 H 0.56961 0.56973 0.26957 0.0
H228 H 0.51778 0.62866 0.71346 0.0
H229 H 0.54963 0.6499 0.36265 0.0
H230 H 0.58575 0.63155 0.53125 0.0
C231 C 0.71516 0.2498 0.53862 0.0
C232 C 0.71911 0.25173 0.46349 0.0
N233 N 0.72617 0.23684 0.43848 0.0
N234 N 0.71931 0.23362 0.56161 0.0
C235 C 0.72667 0.22627 0.49973 0.0
H236 H 0.70935 0.25961 0.5741 0.0
Co237 Co 0.71588 0.22605 0.6627 0.0
C238 C 0.70215 0.19373 0.57662 0.0
O239 O 0.70299 0.19985 0.50758 0.0
N240 N 0.71272 0.21921 0.76394 0.0
C241 C 0.70045 0.20813 0.86687 0.0
C242 C 0.69888 0.21037 0.79026 0.0
C243 C 0.72237 0.22257 0.82633 0.0
N244 N 0.71521 0.2158 0.88983 0.0
O245 O 0.73896 0.21694 0.66435 0.0
H246 H 0.68795 0.20639 0.75627 0.0
H247 H 0.73428 0.22997 0.82533 0.0
O248 O 0.70667 0.20321 0.63264 0.0
C249 C 0.75007 0.22909 0.66897 0.0
O250 O 0.7445 0.24517 0.67349 0.0
N251 N 0.69362 0.23606 0.66268 0.0
C252 C 0.66372 0.25644 0.65616 0.0
C253 C 0.66561 0.24186 0.60938 0.0
C254 C 0.68069 0.23187 0.61327 0.0
C255 C 0.69179 0.24984 0.71028 0.0
C256 C 0.67691 0.26014 0.7083 0.0
H257 H 0.68224 0.22143 0.57367 0.0
H258 H 0.7023 0.25332 0.74774 0.0
H259 H 0.73218 0.21337 0.49929 0.0
H260 H 0.71629 0.263 0.42915 0.0
H261 H 0.69104 0.20195 0.90344 0.0
H262 H 0.65573 0.23846 0.56854 0.0
H263 H 0.67617 0.27142 0.74465 0.0
C264 C 0.38533 0.25056 0.64056 0.0
C265 C 0.383 0.24965 0.56359 0.0
N266 N 0.39209 0.26259 0.531 0.0
N267 N 0.39577 0.26404 0.6568 0.0
C268 C 0.39967 0.27114 0.58903 0.0
H269 H 0.38014 0.24165 0.68202 0.0
Co270 Co 0.40357 0.26926 0.75354 0.0
C271 C 0.41466 0.3054 0.74367 0.0
O272 O 0.40516 0.30879 0.80349 0.0
N273 N 0.41159 0.27411 0.85199 0.0
C274 C 0.42938 0.28047 0.94696 0.0
C275 C 0.42789 0.27898 0.86992 0.0
C276 C 0.40348 0.27255 0.91948 0.0
N277 N 0.41399 0.27642 0.97835 0.0
O278 O 0.38273 0.28211 0.77007 0.0
H279 H 0.43818 0.28107 0.82944 0.0
H280 H 0.39015 0.2686 0.92567 0.0
O281 O 0.41505 0.29006 0.71666 0.0
C282 C 0.37003 0.27365 0.79745 0.0
O283 O 0.37231 0.2574 0.8175 0.0
N284 N 0.42312 0.25565 0.73632 0.0
C285 C 0.44915 0.23123 0.71118 0.0
C286 C 0.44952 0.24741 0.67455 0.0
C287 C 0.43631 0.25945 0.6876 0.0
C288 C 0.42254 0.24008 0.77251 0.0
C289 C 0.43543 0.22771 0.761 0.0
H290 H 0.43655 0.27161 0.65731 0.0
H291 H 0.41176 0.23717 0.80948 0.0
H292 H 0.40813 0.2822 0.58223 0.0
H293 H 0.3757 0.23978 0.53401 0.0
H294 H 0.44108 0.28379 0.97735 0.0
H295 H 0.45989 0.25073 0.63594 0.0
H296 H 0.43437 0.2153 0.78933 0.0
C297 C 0.21929 0.75318 0.05826 0.0
C298 C 0.22311 0.75455 0.98271 0.0
N299 N 0.22806 0.73885 0.95733 0.0
N300 N 0.22145 0.73661 0.08098 0.0
C301 C 0.22749 0.72834 0.01872 0.0
H302 H 0.21481 0.76362 0.09401 0.0
Co303 Co 0.21708 0.72907 0.18059 0.0
C304 C 0.19974 0.69899 0.0916 0.0
O305 O 0.19969 0.70591 0.02383 0.0
N306 N 0.213 0.72209 0.28124 0.0
C307 C 0.19973 0.71153 0.38297 0.0
C308 C 0.19875 0.71368 0.30603 0.0
C309 C 0.22229 0.72526 0.3448 0.0
N310 N 0.21454 0.71884 0.40756 0.0
O311 O 0.23892 0.7175 0.18103 0.0
H312 H 0.18794 0.70993 0.27081 0.0
H313 H 0.23436 0.73236 0.34545 0.0
O314 O 0.20582 0.70745 0.14785 0.0
C315 C 0.25152 0.72694 0.20226 0.0
O316 O 0.24857 0.74309 0.22208 0.0
N317 N 0.19601 0.74139 0.18143 0.0
C318 C 0.1682 0.76456 0.17926 0.0
C319 C 0.16819 0.74979 0.13305 0.0
C320 C 0.18227 0.73842 0.13459 0.0
C321 C 0.19602 0.7554 0.2284 0.0
C322 C 0.18224 0.76714 0.22834 0.0
H323 H 0.18233 0.72781 0.09546 0.0
H324 H 0.20712 0.75781 0.26424 0.0
H325 H 0.23109 0.71477 0.018 0.0
H326 H 0.22151 0.76606 0.94838 0.0
H327 H 0.18989 0.70571 0.41846 0.0
H328 H 0.15778 0.74745 0.09328 0.0
H329 H 0.18274 0.77831 0.2654 0.0
C330 C 0.22549 0.24986 0.90737 0.0
C331 C 0.22763 0.24872 0.98446 0.0
N332 N 0.22113 0.26322 0.01631 0.0
N333 N 0.21772 0.265 0.89046 0.0
C334 C 0.21534 0.27291 0.95781 0.0
H335 H 0.22882 0.24002 0.86635 0.0
Co336 Co 0.2105 0.27123 0.79393 0.0
C337 C 0.20239 0.30827 0.80764 0.0
O338 O 0.2118 0.31154 0.74742 0.0
N339 N 0.20315 0.27707 0.69584 0.0
C340 C 0.18654 0.28521 0.59946 0.0
C341 C 0.18759 0.28377 0.67672 0.0
C342 C 0.21121 0.27434 0.62905 0.0
N343 N 0.20143 0.27924 0.5693 0.0
O344 O 0.23235 0.28236 0.77838 0.0
H345 H 0.17747 0.28708 0.71649 0.0
H346 H 0.22395 0.2687 0.62406 0.0
O347 O 0.20094 0.29277 0.83198 0.0
C348 C 0.24468 0.2732 0.75229 0.0
O349 O 0.24167 0.25702 0.73307 0.0
N350 N 0.18963 0.2595 0.81045 0.0
C351 C 0.16118 0.23811 0.83839 0.0
C352 C 0.16341 0.25363 0.87864 0.0
C353 C 0.17776 0.26414 0.86401 0.0
C354 C 0.18759 0.24461 0.77005 0.0
C355 C 0.17337 0.23377 0.78269 0.0
H356 H 0.17954 0.2757 0.89759 0.0
H357 H 0.19731 0.24093 0.72904 0.0
H358 H 0.20914 0.28537 0.96408 0.0
H359 H 0.23287 0.2377 1.01468 0.0
H360 H 0.17541 0.28977 0.56806 0.0
H361 H 0.15427 0.25752 0.92186 0.0
H362 H 0.17232 0.22178 0.75113 0.0
C363 C 0.3955 0.74816 0.38015 0.0
C364 C 0.3934 0.74917 0.45724 0.0
N365 N 0.4007 0.73503 0.48893 0.0
N366 N 0.404 0.73344 0.36301 0.0
C367 C 0.40693 0.72567 0.43031 0.0
H368 H 0.39168 0.75788 0.33935 0.0
Co369 Co 0.41159 0.72776 0.26647 0.0
C370 C 0.41825 0.69047 0.27427 0.0
O371 O 0.40876 0.68838 0.21332 0.0
N372 N 0.41938 0.72247 0.16841 0.0
C373 C 0.43628 0.71444 0.07286 0.0
C374 C 0.43498 0.71576 0.15009 0.0
C375 C 0.41153 0.72529 0.10118 0.0
N376 N 0.4215 0.72046 0.04194 0.0
O377 O 0.38944 0.71751 0.24649 0.0
H378 H 0.4449 0.71224 0.19043 0.0
H379 H 0.39878 0.73083 0.09548 0.0
O380 O 0.42032 0.70559 0.30218 0.0
C381 C 0.37781 0.72741 0.21941 0.0
O382 O 0.38171 0.74361 0.20365 0.0
N383 N 0.43262 0.73881 0.28681 0.0
C384 C 0.46122 0.75966 0.31899 0.0
C385 C 0.45895 0.74366 0.3557 0.0
C386 C 0.44452 0.7334 0.33885 0.0
C387 C 0.43467 0.75419 0.25012 0.0
C388 C 0.44894 0.76478 0.26492 0.0
H389 H 0.44274 0.72139 0.36931 0.0
H390 H 0.42491 0.75844 0.2103 0.0
H391 H 0.4139 0.71361 0.43641 0.0
H392 H 0.38768 0.75992 0.48756 0.0
H393 H 0.44748 0.70983 0.04206 0.0
H394 H 0.46815 0.73919 0.39759 0.0
H395 H 0.45 0.77714 0.23618 0.0
C396 C 0.55642 0.07619 0.68194 0.0
C397 C 0.55616 0.0731 0.7585 0.0
N398 N 0.57122 0.07876 0.78842 0.0
N399 N 0.57151 0.08385 0.66334 0.0
C400 C 0.58042 0.08491 0.72904 0.0
H401 H 0.54596 0.07375 0.64267 0.0
Co402 Co 0.57648 0.0921 0.56644 0.0
C403 C 0.60249 0.1191 0.62293 0.0
O404 O 0.59153 0.13207 0.62461 0.0
N405 N 0.58161 0.09987 0.46729 0.0
C406 C 0.58923 0.11619 0.36889 0.0
C407 C 0.58746 0.11566 0.44607 0.0
C408 C 0.5798 0.09111 0.40136 0.0
N409 N 0.58443 0.10071 0.34053 0.0
O410 O 0.59013 0.07175 0.55042 0.0
H411 H 0.58977 0.12641 0.48356 0.0
H412 H 0.57513 0.07795 0.39772 0.0
O413 O 0.59766 0.10397 0.60183 0.0
C414 C 0.58177 0.05862 0.52651 0.0
O415 O 0.56522 0.06026 0.51064 0.0
N416 N 0.56151 0.11151 0.58312 0.0
C417 C 0.53646 0.13733 0.60657 0.0
C418 C 0.54787 0.13249 0.66439 0.0
C419 C 0.55996 0.11937 0.65211 0.0
C420 C 0.54992 0.1155 0.52731 0.0
C421 C 0.53754 0.12856 0.5373 0.0
H422 H 0.56842 0.11594 0.69823 0.0
H423 H 0.54992 0.10832 0.47491 0.0
H424 H 0.59309 0.0908 0.73373 0.0
H425 H 0.54529 0.06799 0.79006 0.0
H426 H 0.59323 0.12736 0.33618 0.0
H427 H 0.5476 0.13886 0.7189 0.0
H428 H 0.52858 0.13139 0.49185 0.0
C429 C 0.06429 0.90695 0.2294 0.0
C430 C 0.06559 0.91073 0.305 0.0
N431 N 0.04979 0.91522 0.33063 0.0
N432 N 0.04768 0.90869 0.2069 0.0
C433 C 0.03928 0.91442 0.26936 0.0
H434 H 0.07482 0.90278 0.19344 0.0
Co435 Co 0.04024 0.90419 0.10741 0.0
C436 C 0.01029 0.88646 0.19599 0.0
O437 O 0.01717 0.88612 0.2638 0.0
N438 N 0.03332 0.89996 1.00688 0.0
C439 C 0.02284 0.88653 0.90545 0.0
C440 C 0.025 0.88562 0.98239 0.0
C441 C 0.03641 0.90924 0.94315 0.0
N442 N 0.03004 0.90138 0.88056 0.0
O443 O 0.02848 0.92595 0.10661 0.0
H444 H 0.02129 0.87482 0.01784 0.0
H445 H 0.04341 0.92137 0.94225 0.0
O446 O 0.01875 0.89279 0.14027 0.0
C447 C 0.03784 0.93859 0.08501 0.0
O448 O 0.05398 0.9357 0.0652 0.0
N449 N 0.05278 0.88326 0.1069 0.0
C450 C 0.07656 0.85596 0.11029 0.0
C451 C 0.06172 0.85563 0.15599 0.0
C452 C 0.05003 0.86946 0.15381 0.0
C453 C 0.06683 0.88353 0.06024 0.0
C454 C 0.07887 0.87001 0.06088 0.0
H455 H 0.03935 0.8693 0.19255 0.0
H456 H 0.06905 0.89467 0.02434 0.0
H457 H 0.02564 0.91765 0.27026 0.0
H458 H 0.07714 0.90942 0.33918 0.0
H459 H 0.01707 0.87662 0.87017 0.0
H460 H 0.05956 0.84519 0.19589 0.0
H461 H 0.09006 0.87075 0.02411 0.0
C462 C 0.56267 0.91452 0.38372 0.0
C463 C 0.56163 0.91667 0.30664 0.0
N464 N 0.57588 0.90964 0.27489 0.0
N465 N 0.57752 0.90623 0.40075 0.0
C466 C 0.58533 0.90352 0.33345 0.0
H467 H 0.55294 0.9182 0.42466 0.0
Co468 Co 0.58343 0.89884 0.49733 0.0
C469 C 0.62048 0.89076 0.48624 0.0
O470 O 0.62347 0.90015 0.54679 0.0
N471 N 0.58896 0.89128 0.59548 0.0
C472 C 0.59685 0.87445 0.69159 0.0
C473 C 0.59544 0.8756 0.61436 0.0
C474 C 0.58635 0.89933 0.6624 0.0
N475 N 0.59111 0.88941 0.72197 0.0
O476 O 0.59438 0.92078 0.51448 0.0
H477 H 0.59868 0.86549 0.57442 0.0
H478 H 0.58096 0.91217 0.66763 0.0
O479 O 0.60511 0.88939 0.46042 0.0
C480 C 0.58501 0.93293 0.54086 0.0
O481 O 0.56883 0.92964 0.55905 0.0
N482 N 0.57183 0.87793 0.4793 0.0
C483 C 0.55067 0.84938 0.44962 0.0
C484 C 0.56644 0.85157 0.41127 0.0
C485 C 0.57683 0.86597 0.42671 0.0
C486 C 0.55669 0.87595 0.51783 0.0
C487 C 0.54595 0.8617 0.50427 0.0
H488 H 0.5886 0.86767 0.39461 0.0
H489 H 0.55275 0.88574 0.55811 0.0
H490 H 0.59753 0.89683 0.32727 0.0
H491 H 0.55081 0.92227 0.27636 0.0
H492 H 0.60128 0.86322 0.7228 0.0
H493 H 0.57064 0.84233 0.36896 0.0
H494 H 0.53377 0.86069 0.53435 0.0
C495 C 0.05727 0.07856 0.90158 0.0
C496 C 0.05834 0.0765 0.82442 0.0
N497 N 0.04674 0.08719 0.7917 0.0
N498 N 0.04495 0.09038 0.91772 0.0
C499 C 0.03879 0.09542 0.84956 0.0
H500 H 0.06529 0.07215 0.94313 0.0
Co501 Co 0.03946 0.09839 1.01438 0.0
C502 C 0.00219 0.10529 1.00371 0.0
O503 O -0.00033 0.09597 0.06493 0.0
N504 N 0.03425 0.10666 0.1122 0.0
C505 C 0.02564 0.12391 0.2057 0.0
C506 C 0.02669 0.12199 0.12865 0.0
C507 C 0.03795 0.09967 0.18055 0.0
N508 N 0.03276 0.10985 0.23863 0.0
O509 O 0.02888 0.07644 0.03608 0.0
H510 H 0.0223 0.1313 0.08713 0.0
H511 H 0.04476 0.08758 0.1879 0.0
O512 O 0.01746 0.10718 0.97739 0.0
C513 C 0.03826 0.06482 0.06672 0.0
O514 O 0.05439 0.06848 0.08429 0.0
N515 N 0.05079 0.11923 0.99304 0.0
C516 C 0.072 0.14766 0.96243 0.0
C517 C 0.05543 0.14641 0.93013 0.0
C518 C 0.04497 0.13207 0.9463 0.0
C519 C 0.06676 0.12028 0.02536 0.0
C520 C 0.07755 0.13443 1.01122 0.0
H521 H 0.03238 0.13125 0.91994 0.0
H522 H 0.07122 0.10986 0.06142 0.0
H523 H 0.02879 0.10507 0.84225 0.0
H524 H 0.06739 0.06823 0.79472 0.0
H525 H 0.01998 0.13486 0.23483 0.0
H526 H 0.05062 0.1564 0.89256 0.0
H527 H 0.09032 0.13474 0.0365 0.0
H528 H 0.11279 0.60343 0.76813 0.0
H529 H 0.04887 0.57005 0.44416 0.0
H530 H 0.06426 0.57787 0.81476 0.0
H531 H 0.09994 0.59035 0.40005 0.0
H532 H 0.05497 0.57095 0.57974 0.0
H533 H 0.10902 0.59716 0.63385 0.0
C534 C 0.10135 0.59644 0.75015 0.0
C535 C 0.08874 0.59133 0.80297 0.0
C536 C 0.06493 0.57503 0.54047 0.0
C537 C 0.08432 0.58405 0.6485 0.0
C538 C 0.06144 0.57455 0.46293 0.0
C539 C 0.07384 0.58029 0.41036 0.0
C540 C 0.08091 0.58146 0.56616 0.0
C541 C 0.09 0.58574 0.43817 0.0
C542 C 0.09924 0.59278 0.67335 0.0
C543 C 0.07433 0.58201 0.7763 0.0
N544 N 0.09298 0.5864 0.51403 0.0
N545 N 0.07243 0.57884 0.70094 0.0
H546 H 0.68313 0.79104 0.92417 0.0
H547 H 0.73869 0.74417 0.60129 0.0
H548 H 0.72172 0.75187 0.97007 0.0
H549 H 0.69504 0.77764 0.55602 0.0
H550 H 0.73422 0.74853 0.73646 0.0
H551 H 0.68887 0.78794 0.78948 0.0
C552 C 0.69277 0.78172 0.90624 0.0
C553 C 0.70183 0.77161 0.95927 0.0
C554 C 0.72565 0.75495 0.69688 0.0
C555 C 0.70866 0.76818 0.80406 0.0
C556 C 0.72815 0.75241 0.61945 0.0
C557 C 0.71719 0.76045 0.56647 0.0
C558 C 0.71211 0.76566 0.72202 0.0
C559 C 0.70396 0.77127 0.59408 0.0
C560 C 0.6961 0.78004 0.82903 0.0
C561 C 0.71446 0.76006 0.93191 0.0
N562 N 0.70178 0.7735 0.66974 0.0
N563 N 0.71746 0.75864 0.85635 0.0
H564 H 0.51281 0.37508 0.2042 0.0
H565 H 0.56174 0.42854 0.88006 0.0
H566 H 0.55275 0.41288 0.24983 0.0
H567 H 0.52683 0.38591 0.83645 0.0
H568 H 0.5569 0.42473 1.01538 0.0
H569 H 0.51605 0.38068 0.06946 0.0
C570 C 0.52231 0.38453 0.18611 0.0
C571 C 0.53264 0.39337 0.23899 0.0
C572 C 0.55026 0.41625 0.97612 0.0
C573 C 0.53626 0.40003 0.08382 0.0
C574 C 0.55308 0.41836 0.89864 0.0
C575 C 0.54479 0.40748 0.84612 0.0
C576 C 0.53903 0.40318 1.00171 0.0
C577 C 0.53342 0.39475 0.87416 0.0
C578 C 0.52409 0.38779 0.10892 0.0
C579 C 0.54442 0.40579 0.21162 0.0
N580 N 0.53094 0.39293 0.94984 0.0
N581 N 0.54596 0.40869 0.13602 0.0
H582 H 0.89006 0.22398 0.49266 0.0
H583 H 0.92898 0.22253 0.07339 0.0
H584 H 0.94475 0.2197 0.44414 0.0
H585 H 0.87606 0.23625 0.12413 0.0
H586 H 0.93453 0.21894 0.20851 0.0
H587 H 0.88433 0.22643 0.35768 0.0
C588 C 0.90091 0.22366 0.45403 0.0
C589 C 0.91797 0.22171 0.48061 0.0
C590 C 0.92169 0.22271 0.19008 0.0
C591 C 0.91137 0.22421 0.32499 0.0
C592 C 0.91848 0.22464 0.11284 0.0
C593 C 0.90202 0.22972 0.08728 0.0
C594 C 0.90833 0.22577 0.24232 0.0
C595 C 0.88898 0.23252 0.1413 0.0
C596 C 0.89759 0.22496 0.37665 0.0
C597 C 0.93139 0.221 0.42687 0.0
N598 N 0.89241 0.23049 0.21615 0.0
N599 N 0.9278 0.22225 0.35183 0.0
H600 H 0.10626 0.37481 0.37887 0.0
H601 H 0.05723 0.42863 0.7015 0.0
H602 H 0.06627 0.41248 0.33226 0.0
H603 H 0.0923 0.38623 0.74667 0.0
H604 H 0.06189 0.42443 0.56629 0.0
H605 H 0.10282 0.38039 0.51354 0.0
C606 C 0.0967 0.38422 0.39667 0.0
C607 C 0.08645 0.39306 0.34346 0.0
C608 C 0.0686 0.41608 0.60587 0.0
C609 C 0.0826 0.3997 0.49866 0.0
C610 C 0.06589 0.41842 0.68332 0.0
C611 C 0.0743 0.40773 0.7363 0.0
C612 C 0.07984 0.40298 0.58071 0.0
C613 C 0.08563 0.39493 0.70865 0.0
C614 C 0.09481 0.38746 0.47386 0.0
C615 C 0.07457 0.40541 0.37061 0.0
N616 N 0.08801 0.39291 0.633 0.0
N617 N 0.07294 0.4083 0.44617 0.0
H618 H 0.91235 0.80121 0.524 0.0
H619 H 0.87899 0.73734 0.8485 0.0
H620 H 0.88665 0.7527 0.47775 0.0
H621 H 0.89942 0.78842 0.89217 0.0
H622 H 0.87978 0.74345 0.7129 0.0
H623 H 0.90607 0.7975 0.65832 0.0
C624 C 0.90532 0.78979 0.54209 0.0
C625 C 0.90018 0.77716 0.48938 0.0
C626 C 0.88391 0.75341 0.75208 0.0
C627 C 0.8929 0.7728 0.64388 0.0
C628 C 0.88349 0.74992 0.82962 0.0
C629 C 0.88931 0.76231 0.88206 0.0
C630 C 0.89036 0.7694 0.72625 0.0
C631 C 0.89476 0.77848 0.85414 0.0
C632 C 0.90166 0.78771 0.6189 0.0
C633 C 0.89082 0.76278 0.51615 0.0
N634 N 0.89535 0.78147 0.77827 0.0
N635 N 0.88765 0.7609 0.59153 0.0
H636 H 0.50959 0.61699 0.82853 0.0
H637 H 0.55795 0.56288 0.15222 0.0
H638 H 0.5493 0.57898 0.78285 0.0
H639 H 0.52332 0.60567 0.19653 0.0
H640 H 0.55326 0.56694 0.01695 0.0
H641 H 0.51277 0.61133 0.96326 0.0
C642 C 0.51903 0.60749 0.84657 0.0
C643 C 0.5293 0.59859 0.79365 0.0
C644 C 0.54665 0.5754 0.05634 0.0
C645 C 0.53286 0.59185 0.94885 0.0
C646 C 0.54938 0.57314 0.1338 0.0
C647 C 0.54112 0.584 0.18651 0.0
C648 C 0.53554 0.58859 0.03093 0.0
C649 C 0.52987 0.59685 0.15866 0.0
C650 C 0.52078 0.60419 0.92378 0.0
C651 C 0.54101 0.58611 0.82103 0.0
N652 N 0.52748 0.59881 0.08298 0.0
N653 N 0.54251 0.58317 0.89662 0.0
H654 H 0.7368 0.25871 0.32748 0.0
H655 H 0.71116 0.19215 1.00137 0.0
H656 H 0.72263 0.20548 0.36953 0.0
H657 H 0.73202 0.24295 0.95598 0.0
H658 H 0.71736 0.19612 0.13561 0.0
H659 H 0.73741 0.25264 0.1918 0.0
C660 C 0.73401 0.24568 0.30821 0.0
C661 C 0.72949 0.23263 0.36014 0.0
C662 C 0.72077 0.20636 0.09644 0.0
C663 C 0.73002 0.22559 0.20429 0.0
C664 C 0.71717 0.20412 0.01971 0.0
C665 C 0.72091 0.2173 0.96738 0.0
C666 C 0.72801 0.22203 0.12176 0.0
C667 C 0.72896 0.23244 0.99425 0.0
C668 C 0.73439 0.24221 0.23064 0.0
C669 C 0.72623 0.21593 0.33184 0.0
N670 N 0.73202 0.23448 0.06965 0.0
N671 N 0.72633 0.21296 0.25592 0.0
H672 H 0.37084 0.25221 0.4167 0.0
H673 H 0.43073 0.293 0.09288 0.0
H674 H 0.41825 0.28019 0.46091 0.0
H675 H 0.3881 0.25823 0.04765 0.0
H676 H 0.42482 0.29049 0.22765 0.0
H677 H 0.37547 0.25633 0.28149 0.0
C678 C 0.38224 0.25919 0.39828 0.0
C679 C 0.39422 0.26574 0.45093 0.0
C680 C 0.41673 0.28343 0.18823 0.0
C681 C 0.39947 0.27071 0.29544 0.0
C682 C 0.42016 0.28478 0.111 0.0
C683 C 0.41002 0.27569 0.05819 0.0
C684 C 0.40301 0.27296 0.2134 0.0
C685 C 0.39622 0.26558 0.0857 0.0
C686 C 0.38483 0.2616 0.32085 0.0
C687 C 0.40856 0.27501 0.42307 0.0
N688 N 0.39317 0.26445 0.16129 0.0
N689 N 0.41079 0.27716 0.34741 0.0
H690 H 0.23366 0.74475 0.47107 0.0
H691 H 0.22106 0.7077 0.89154 0.0
H692 H 0.20766 0.69667 0.52283 0.0
H693 H 0.23973 0.75923 0.84281 0.0
H694 H 0.22055 0.70151 0.75595 0.0
H695 H 0.24022 0.74839 0.60572 0.0
C696 C 0.22953 0.73485 0.51051 0.0
C697 C 0.21993 0.72047 0.48553 0.0
C698 C 0.22493 0.71413 0.77493 0.0
C699 C 0.22732 0.72458 0.64 0.0
C700 C 0.22536 0.71762 0.85254 0.0
C701 C 0.23027 0.73409 0.87884 0.0
C702 C 0.22952 0.72716 0.72298 0.0
C703 C 0.23557 0.74646 0.82516 0.0
C704 C 0.23318 0.73697 0.5875 0.0
C705 C 0.21481 0.70811 0.53958 0.0
N706 N 0.23494 0.7428 0.74998 0.0
N707 N 0.21849 0.71048 0.61404 0.0
H708 H 0.22496 0.25758 0.50327 0.0
H709 H 0.19815 0.28522 0.0836 0.0
H710 H 0.18735 0.29737 0.45247 0.0
H711 H 0.23961 0.24933 0.13278 0.0
H712 H 0.19437 0.29007 0.21845 0.0
H713 H 0.23084 0.25461 0.36839 0.0
C714 C 0.21802 0.26581 0.46411 0.0
C715 C 0.20554 0.27771 0.48984 0.0
C716 C 0.20436 0.28118 0.19978 0.0
C717 C 0.2121 0.27417 0.33458 0.0
C718 C 0.20662 0.27847 0.12241 0.0
C719 C 0.21924 0.26679 0.09612 0.0
C720 C 0.21472 0.27213 0.25177 0.0
C721 C 0.22955 0.25825 0.15004 0.0
C722 C 0.22134 0.26403 0.38684 0.0
C723 C 0.19684 0.28782 0.43567 0.0
N724 N 0.22703 0.26104 0.22514 0.0
N725 N 0.20024 0.28578 0.36084 0.0
H726 H 0.42489 0.7143 0.55603 0.0
H727 H 0.39763 0.74163 0.97511 0.0
H728 H 0.38169 0.74803 0.60553 0.0
H729 H 0.43612 0.70259 0.92552 0.0
H730 H 0.39161 0.7442 0.84034 0.0
H731 H 0.42913 0.70985 0.69098 0.0
C732 C 0.41615 0.72065 0.59493 0.0
C733 C 0.4029 0.73162 0.56872 0.0
C734 C 0.40134 0.73503 0.85903 0.0
C735 C 0.40794 0.72676 0.72433 0.0
C736 C 0.40475 0.73348 0.93627 0.0
C737 C 0.41748 0.72189 0.96236 0.0
C738 C 0.41075 0.72499 0.80709 0.0
C739 C 0.42641 0.7119 0.90847 0.0
C740 C 0.41867 0.71817 0.67231 0.0
C741 C 0.39223 0.73968 0.6227 0.0
N742 N 0.42291 0.71373 0.8336 0.0
N743 N 0.39503 0.73715 0.69777 0.0
H744 H 0.59348 0.10155 0.85539 0.0
H745 H 0.56464 0.0755 0.27491 0.0
H746 H 0.55803 0.05971 0.90462 0.0
H747 H 0.6028 0.1148 0.22448 0.0
H748 H 0.56294 0.06861 0.14035 0.0
H749 H 0.59808 0.10556 0.99049 0.0
C750 C 0.58682 0.09302 0.8943 0.0
C751 C 0.57525 0.0803 0.868 0.0
C752 C 0.57174 0.0787 0.15882 0.0
C753 C 0.58026 0.08509 0.02382 0.0
C754 C 0.57278 0.0826 0.2359 0.0
C755 C 0.58379 0.09588 0.26156 0.0
C756 C 0.58175 0.08814 0.10669 0.0
C757 C 0.59388 0.10471 0.20763 0.0
C758 C 0.58937 0.09542 0.97178 0.0
C759 C 0.56684 0.06986 0.92195 0.0
N760 N 0.59256 0.10074 0.13301 0.0
N761 N 0.56943 0.07255 0.9971 0.0
H762 H 0.05569 0.9208 0.81677 0.0
H763 H 0.01885 0.9075 0.3966 0.0
H764 H 0.00798 0.89417 0.76543 0.0
H765 H 0.06992 0.92731 0.44506 0.0
H766 H 0.0127 0.90687 0.5322 0.0
H767 H 0.05921 0.92739 0.68209 0.0
C768 C 0.04584 0.91653 0.77742 0.0
C769 C 0.0316 0.90675 0.80253 0.0
C770 C 0.0252 0.91151 0.51315 0.0
C771 C 0.03559 0.91417 0.64802 0.0
C772 C 0.02867 0.91202 0.43554 0.0
C773 C 0.04501 0.91729 0.40916 0.0
C774 C 0.03813 0.9164 0.56503 0.0
C775 C 0.05726 0.92286 0.46277 0.0
C776 C 0.04791 0.9202 0.7004 0.0
C777 C 0.01932 0.90145 0.74859 0.0
N778 N 0.05362 0.92215 0.53796 0.0
N779 N 0.02163 0.90515 0.6741 0.0
H780 H 0.59705 0.88588 0.20766 0.0
H781 H 0.57 0.91339 0.7883 0.0
H782 H 0.56266 0.9286 0.15844 0.0
H783 H 0.60897 0.87489 0.83858 0.0
H784 H 0.56727 0.91936 0.92314 0.0
H785 H 0.60173 0.88191 0.07277 0.0
C786 C 0.5906 0.89458 0.16883 0.0
C787 C 0.57938 0.90761 0.1951 0.0
C788 C 0.57646 0.90964 0.90459 0.0
C789 C 0.58452 0.90288 0.03949 0.0
C790 C 0.5781 0.90627 0.82733 0.0
C791 C 0.58969 0.89352 0.80146 0.0
C792 C 0.58643 0.90019 0.95671 0.0
C793 C 0.59964 0.8846 0.85549 0.0
C794 C 0.59321 0.89221 0.09146 0.0
C795 C 0.5712 0.91823 0.14119 0.0
N796 N 0.59774 0.88806 0.93034 0.0
N797 N 0.57388 0.91559 0.0661 0.0
H798 H 0.03134 0.13344 0.35339 0.0
H799 H 0.05202 0.06415 0.67784 0.0
H800 H 0.03862 0.07882 0.30908 0.0
H801 H 0.03578 0.1167 0.72224 0.0
H802 H 0.04856 0.06947 0.54232 0.0
H803 H 0.03416 0.12772 0.48801 0.0
C804 C 0.03342 0.12021 0.37155 0.0
C805 C 0.03467 0.10661 0.31888 0.0
C806 C 0.0457 0.07982 0.58173 0.0
C807 C 0.03819 0.10001 0.47434 0.0
C808 C 0.04776 0.07681 0.65915 0.0
C809 C 0.0442 0.08999 0.71172 0.0
C810 C 0.04018 0.09618 0.55638 0.0
C811 C 0.03849 0.10609 0.68407 0.0
C812 C 0.03511 0.11697 0.44884 0.0
C813 C 0.03774 0.0898 0.34687 0.0
N814 N 0.03674 0.10875 0.60844 0.0
N815 N 0.03941 0.08699 0.4225 0.0
H816 H 0.09489 0.5407 0.20333 0.0
H817 H 0.09978 0.45095 0.97914 0.0
H818 H 0.08218 0.53662 0.96693 0.0
H819 H 0.07596 0.45522 0.19866 0.0
H820 H 0.10514 0.48247 0.98038 0.0
H821 H 0.09976 0.50908 0.20702 0.0
C822 C 0.09367 0.53319 0.15185 0.0
C823 C 0.08814 0.54107 0.08473 0.0
C824 C 0.09913 0.47636 0.02889 0.0
C825 C 0.09386 0.50539 0.08826 0.0
C826 C 0.09616 0.45846 0.02841 0.0
C827 C 0.08735 0.45065 0.08874 0.0
C828 C 0.09365 0.48627 0.091 0.0
C829 C 0.08269 0.46088 0.15094 0.0
C830 C 0.09634 0.51525 0.15407 0.0
C831 C 0.08642 0.53089 0.01965 0.0
N832 N 0.08588 0.47822 0.1505 0.0
N833 N 0.08926 0.51351 0.02295 0.0
H834 H 0.84906 0.77963 0.08488 0.0
H835 H 0.76011 0.78675 0.31382 0.0
H836 H 0.84643 0.7729 0.32626 0.0
H837 H 0.76439 0.7593 0.10246 0.0
H838 H 0.79143 0.79284 0.30893 0.0
H839 H 0.81735 0.78347 0.08195 0.0
C840 C 0.84183 0.77955 0.13737 0.0
C841 C 0.85016 0.77603 0.20595 0.0
C842 C 0.78536 0.78583 0.26298 0.0
C843 C 0.81433 0.78047 0.20315 0.0
C844 C 0.76757 0.78243 0.26553 0.0
C845 C 0.75982 0.77242 0.20868 0.0
C846 C 0.79523 0.77956 0.20218 0.0
C847 C 0.77 0.76694 0.14762 0.0
C848 C 0.82383 0.78161 0.13563 0.0
C849 C 0.84033 0.77566 0.27245 0.0
N850 N 0.78723 0.77056 0.14595 0.0
N851 N 0.82287 0.77783 0.26949 0.0
H852 H 0.51886 0.54176 0.41745 0.0
H853 H 0.52093 0.44912 0.61797 0.0
H854 H 0.53863 0.53508 0.64337 0.0
H855 H 0.54042 0.45678 0.39217 0.0
H856 H 0.51542 0.48055 0.62726 0.0
H857 H 0.51474 0.51012 0.40844 0.0
C858 C 0.5218 0.53367 0.46589 0.0
C859 C 0.52909 0.54089 0.53124 0.0
C860 C 0.5205 0.4752 0.57517 0.0
C861 C 0.5242 0.50509 0.52171 0.0
C862 C 0.52353 0.45736 0.56965 0.0
C863 C 0.53114 0.4505 0.50423 0.0
C864 C 0.52466 0.48604 0.51404 0.0
C865 C 0.53457 0.46167 0.44354 0.0
C866 C 0.51955 0.51571 0.46052 0.0
C867 C 0.533 0.52991 0.59206 0.0
N868 N 0.53131 0.47894 0.44984 0.0
N869 N 0.53051 0.51251 0.58589 0.0
H870 H 0.85587 0.2019 0.78336 0.0
H871 H 0.77415 0.25003 0.60732 0.0
H872 H 0.85831 0.24487 0.62752 0.0
H873 H 0.76871 0.20101 0.72231 0.0
H874 H 0.8054 0.24679 0.61043 0.0
H875 H 0.82452 0.19941 0.75787 0.0
C876 C 0.84988 0.21056 0.74286 0.0
C877 C 0.85959 0.22379 0.70841 0.0
C878 C 0.79749 0.23659 0.63459 0.0
C879 C 0.82402 0.22112 0.67946 0.0
C880 C 0.7796 0.23849 0.633 0.0
C881 C 0.76888 0.22584 0.66515 0.0
C882 C 0.8049 0.22207 0.67004 0.0
C883 C 0.77661 0.21104 0.6969 0.0
C884 C 0.83203 0.20918 0.72852 0.0
C885 C 0.85126 0.23469 0.65648 0.0
N886 N 0.79424 0.20966 0.69966 0.0
N887 N 0.83401 0.2332 0.64422 0.0
H888 H 0.26899 0.2688 0.64308 0.0
H889 H 0.34612 0.27285 0.90976 0.0
H890 H 0.26113 0.29141 0.86312 0.0
H891 H 0.35366 0.2891 0.6791 0.0
H892 H 0.31497 0.27859 0.89673 0.0
H893 H 0.3001 0.27496 0.65366 0.0
C894 C 0.27382 0.27539 0.6929 0.0
C895 C 0.26261 0.27966 0.75228 0.0
C896 C 0.32352 0.28134 0.84967 0.0
C897 C 0.29802 0.28618 0.76574 0.0
C898 C 0.34122 0.27806 0.85706 0.0
C899 C 0.35234 0.28064 0.79554 0.0
C900 C 0.31689 0.28653 0.77937 0.0
C901 C 0.34544 0.28717 0.72799 0.0
C902 C 0.2915 0.27894 0.6988 0.0
C903 C 0.26942 0.28806 0.81597 0.0
N904 N 0.32803 0.28947 0.72096 0.0
N905 N 0.28681 0.29066 0.82197 0.0
H906 H 0.27077 0.71694 0.08123 0.0
H907 H 0.35878 0.70721 0.31539 0.0
H908 H 0.27283 0.72342 0.32282 0.0
H909 H 0.35595 0.73471 0.10358 0.0
H910 H 0.32731 0.70204 0.30873 0.0
H911 H 0.30237 0.71225 0.0801 0.0
C912 C 0.27784 0.71681 0.13413 0.0
C913 C 0.26939 0.72049 0.20225 0.0
C914 C 0.33372 0.70886 0.26306 0.0
C915 C 0.3051 0.71507 0.20151 0.0
C916 C 0.3516 0.71172 0.2666 0.0
C917 C 0.35981 0.72148 0.21013 0.0
C918 C 0.32422 0.7154 0.20167 0.0
C919 C 0.34998 0.72724 0.14844 0.0
C920 C 0.29578 0.71426 0.13343 0.0
C921 C 0.27902 0.72055 0.26933 0.0
N922 N 0.33266 0.72414 0.14581 0.0
N923 N 0.29643 0.71791 0.26737 0.0
H924 H 0.59779 0.04194 0.64255 0.0
H925 H 0.60256 0.95056 0.43135 0.0
H926 H 0.58206 0.03561 0.4106 0.0
H927 H 0.58081 0.95626 0.65426 0.0
H928 H 0.60735 0.98215 0.42664 0.0
H929 H 0.604 0.01061 0.64912 0.0
C930 C 0.59628 0.03404 0.59234 0.0
C931 C 0.58948 0.0412 0.52586 0.0
C932 C 0.60196 0.97635 0.47721 0.0
C933 C 0.59663 0.00578 0.53276 0.0
C934 C 0.59932 0.95841 0.48012 0.0
C935 C 0.59125 0.95095 0.54322 0.0
C936 C 0.59691 0.98668 0.53866 0.0
C937 C 0.58701 0.96163 0.60458 0.0
C938 C 0.59968 0.01624 0.59629 0.0
C939 C 0.58733 0.03046 0.46271 0.0
N940 N 0.58987 0.979 0.6008 0.0
N941 N 0.59086 0.01322 0.46767 0.0
H942 H 0.02661 0.95774 0.20448 0.0
H943 H 0.01884 0.04577 0.968 0.0
H944 H 0.03524 0.95996 0.96417 0.0
H945 H 0.04414 0.04314 0.18486 0.0
H946 H 0.01352 0.0143 0.97449 0.0
H947 H 0.02169 0.98935 0.20494 0.0
C948 C 0.0269 0.96484 0.15163 0.0
C949 C 0.03127 0.95644 0.08414 0.0
C950 C 0.01987 0.02075 0.02128 0.0
C951 C 0.02557 0.99215 0.08411 0.0
C952 C 0.02281 0.03864 0.01783 0.0
C953 C 0.03201 0.0469 0.07583 0.0
C954 C 0.0258 0.0113 0.08399 0.0
C955 C 0.0371 0.03713 0.13884 0.0
C956 C 0.02422 0.98278 0.15197 0.0
C957 C 0.03185 0.96611 0.01718 0.0
N958 N 0.03396 0.01979 0.14127 0.0
N959 N 0.02906 0.98351 0.01876 0.0
H960 H 0.1817 0.67949 0.9887 0.0
H961 H 0.12899 0.62874 0.30128 0.0
H962 H 0.19543 0.68121 0.22506 0.0
H963 H 0.12765 0.61435 0.06562 0.0
H964 H 0.15378 0.64749 0.27523 0.0
H965 H 0.16238 0.65515 1.01506 0.0
C966 C 0.18078 0.67469 0.0461 0.0
C967 C 0.18989 0.68276 0.10512 0.0
C968 C 0.14815 0.64011 0.22933 0.0
C969 C 0.16763 0.65494 0.13571 0.0
C970 C 0.13396 0.6294 0.24411 0.0
C971 C 0.12588 0.62027 0.18516 0.0
C972 C 0.15422 0.64187 0.15492 0.0
C973 C 0.13309 0.62151 0.11245 0.0
C974 C 0.16974 0.66076 0.06106 0.0
C975 C 0.1883 0.67578 0.17814 0.0
N976 N 0.14667 0.63233 0.09916 0.0
N977 N 0.17717 0.66246 0.19158 0.0
H978 H 0.64813 0.87666 0.56028 0.0
H979 H 0.68973 0.83119 0.20083 0.0
H980 H 0.62391 0.87934 0.34086 0.0
H981 H 0.68956 0.80624 0.41916 0.0
H982 H 0.67127 0.85425 0.25227 0.0
H983 H 0.66931 0.85596 0.50924 0.0
C984 C 0.64745 0.87312 0.50113 0.0
C985 C 0.63428 0.87969 0.4546 0.0
C986 C 0.67543 0.84377 0.28884 0.0
C987 C 0.65845 0.85631 0.39622 0.0
C988 C 0.68601 0.83069 0.25982 0.0
C989 C 0.69113 0.81679 0.30589 0.0
C990 C 0.67033 0.84315 0.36484 0.0
C991 C 0.68582 0.81669 0.38173 0.0
C992 C 0.65943 0.86125 0.47236 0.0
C993 C 0.63384 0.87453 0.37861 0.0
N994 N 0.67576 0.82974 0.40906 0.0
N995 N 0.64582 0.86319 0.35158 0.0
H996 H 0.50032 0.37627 0.69929 0.0
H997 H 0.42742 0.30858 0.60002 0.0
H998 H 0.47505 0.37751 0.48185 0.0
H999 H 0.4294 0.33222 0.82079 0.0
H1000 H 0.44837 0.33019 0.55442 0.0
H1001 H 0.47774 0.3564 0.74514 0.0
C1002 C 0.48999 0.37242 0.6614 0.0
C1003 C 0.48944 0.37861 0.5869 0.0
C1004 C 0.44409 0.33066 0.61268 0.0
C1005 C 0.46401 0.35566 0.63818 0.0
C1006 C 0.43222 0.31835 0.63871 0.0
C1007 C 0.42661 0.31872 0.71408 0.0
C1008 C 0.45076 0.34304 0.663 0.0
C1009 C 0.43326 0.33161 0.76205 0.0
C1010 C 0.47713 0.36115 0.68759 0.0
C1011 C 0.47583 0.37317 0.53995 0.0
N1012 N 0.44517 0.34314 0.73596 0.0
N1013 N 0.46374 0.36181 0.56606 0.0
H1014 H 0.97341 0.11736 0.07628 0.0
H1015 H 0.93073 0.16171 0.71536 0.0
H1016 H -0.00149 0.11685 0.85846 0.0
H1017 H 0.92723 0.18463 0.93719 0.0
H1018 H 0.95036 0.13955 0.76648 0.0
H1019 H 0.951 0.13658 0.02452 0.0
C1020 C 0.97406 0.12108 0.01731 0.0
C1021 C 0.98784 0.11556 0.97152 0.0
C1022 C 0.94513 0.14936 0.80387 0.0
C1023 C 0.96224 0.13728 0.9122 0.0
C1024 C 0.93387 0.16191 0.77501 0.0
C1025 C 0.9274 0.17501 0.82221 0.0
C1026 C 0.94958 0.14972 0.88071 0.0
C1027 C 0.93202 0.17479 0.8989 0.0
C1028 C 0.96136 0.1321 0.9881 0.0
C1029 C 0.98815 0.1209 0.8957 0.0
N1030 N 0.94279 0.16229 0.92593 0.0
N1031 N 0.97549 0.13142 0.86822 0.0
H1032 H 0.19148 0.31097 0.95401 0.0
H1033 H 0.11887 0.37955 0.87819 0.0
H1034 H 0.18849 0.33661 0.73766 0.0
H1035 H 0.14569 0.37889 0.09209 0.0
H1036 H 0.14147 0.36083 0.82496 0.0
H1037 H 0.17186 0.33284 1.00671 0.0
C1038 C 0.1868 0.32127 0.9178 0.0
C1039 C 0.19166 0.32206 0.84151 0.0
C1040 C 0.14244 0.36495 0.88331 0.0
C1041 C 0.16897 0.34674 0.90081 0.0
C1042 C 0.12956 0.37556 0.91376 0.0
C1043 C 0.13047 0.38081 0.98954 0.0
C1044 C 0.15601 0.35917 0.92965 0.0
C1045 C 0.14459 0.37523 0.03324 0.0
C1046 C 0.17567 0.33374 0.94792 0.0
C1047 C 0.18517 0.33565 0.79695 0.0
N1048 N 0.15669 0.36447 1.00297 0.0
N1049 N 0.17391 0.34733 0.82697 0.0
H1050 H 0.99242 0.8832 0.06236 0.0
H1051 H 0.92344 0.81587 0.22868 0.0
H1052 H 0.99056 0.8681 0.29718 0.0
H1053 H 0.93847 0.81749 0.9938 0.0
H1054 H 0.94317 0.83997 0.25425 0.0
H1055 H 0.96784 0.8641 0.03691 0.0
C1056 C 0.98686 0.87593 0.10865 0.0
C1057 C 0.99394 0.8769 0.18165 0.0
C1058 C 0.94204 0.8351 0.19707 0.0
C1059 C 0.9655 0.85533 0.15306 0.0
C1060 C 0.93083 0.82128 0.18241 0.0
C1061 C 0.92966 0.81425 0.10937 0.0
C1062 C 0.95195 0.84214 0.13806 0.0
C1063 C 0.93913 0.82227 0.05123 0.0
C1064 C 0.97277 0.86508 0.09405 0.0
C1065 C 0.98574 0.86758 0.23979 0.0
N1066 N 0.94997 0.8357 0.06693 0.0
N1067 N 0.97204 0.85708 0.22414 0.0
H1068 H 0.47165 0.61452 0.55177 0.0
H1069 H 0.42991 0.66206 0.19779 0.0
H1070 H 0.49618 0.61355 0.33273 0.0
H1071 H 0.42988 0.68563 0.4189 0.0
H1072 H 0.4486 0.63886 0.24652 0.0
H1073 H 0.45042 0.63545 0.50298 0.0
C1074 C 0.47239 0.61849 0.49313 0.0
C1075 C 0.48566 0.61232 0.44608 0.0
C1076 C 0.44435 0.64906 0.28429 0.0
C1077 C 0.46142 0.63597 0.39022 0.0
C1078 C 0.43363 0.66222 0.25681 0.0
C1079 C 0.42837 0.67577 0.30448 0.0
C1080 C 0.44945 0.64925 0.36032 0.0
C1081 C 0.43371 0.67545 0.38028 0.0
C1082 C 0.46038 0.63049 0.46565 0.0
C1083 C 0.48616 0.61803 0.37082 0.0
N1084 N 0.44389 0.66232 0.40608 0.0
N1085 N 0.47414 0.62949 0.345 0.0
H1086 H 0.69409 0.17831 0.71262 0.0
H1087 H 0.62866 0.11027 0.52689 0.0
H1088 H 0.68836 0.17145 0.47189 0.0
H1089 H 0.61787 0.13845 0.73177 0.0
H1090 H 0.65735 0.12414 0.52127 0.0
H1091 H 0.67289 0.1552 0.73321 0.0
C1092 C 0.68851 0.17191 0.66408 0.0
C1093 C 0.69246 0.1774 0.59038 0.0
C1094 C 0.64887 0.12686 0.56855 0.0
C1095 C 0.66876 0.15047 0.61377 0.0
C1096 C 0.63262 0.11886 0.57216 0.0
C1097 C 0.621 0.1233 0.62987 0.0
C1098 C 0.65351 0.13909 0.62379 0.0
C1099 C 0.62653 0.13476 0.68639 0.0
C1100 C 0.67652 0.15862 0.67599 0.0
C1101 C 0.68539 0.16799 0.52974 0.0
N1102 N 0.64237 0.14236 0.68174 0.0
N1103 N 0.67371 0.15511 0.54275 0.0
H1104 H 0.05213 0.31562 0.96227 0.0
H1105 H 0.95176 0.29375 0.89677 0.0
H1106 H 0.01038 0.35241 0.98822 0.0
H1107 H 0.99237 0.25611 0.86184 0.0
H1108 H 0.9734 0.31494 0.93485 0.0
H1109 H 0.03084 0.29327 0.92896 0.0
C1110 C 0.03852 0.31901 0.96099 0.0
C1111 C 0.03306 0.33594 0.97851 0.0
C1112 C 0.97765 0.30207 0.91891 0.0
C1113 C 0.00866 0.31041 0.94089 0.0
C1114 C 0.96528 0.28996 0.89668 0.0
C1115 C 0.97026 0.27317 0.87509 0.0
C1116 C 0.99525 0.29745 0.91976 0.0
C1117 C 0.98795 0.2689 0.87814 0.0
C1118 C 0.02637 0.30622 0.9423 0.0
C1119 C 0.01522 0.33951 0.97659 0.0
N1120 N -0.00016 0.281 0.89967 0.0
N1121 N 0.00372 0.32689 0.95806 0.0
H1122 H 0.52537 0.16257 0.50769 0.0
H1123 H 0.4642 0.20884 0.81223 0.0
H1124 H 0.51755 0.14369 0.73491 0.0
H1125 H 0.46487 0.22306 0.57623 0.0
H1126 H 0.48516 0.18599 0.78586 0.0
H1127 H 0.50435 0.18567 0.53212 0.0
C1128 C 0.51918 0.16319 0.56252 0.0
C1129 C 0.52335 0.15118 0.61943 0.0
C1130 C 0.48074 0.1941 0.73978 0.0
C1131 C 0.49946 0.17776 0.64807 0.0
C1132 C 0.4687 0.20714 0.75476 0.0
C1133 C 0.46264 0.21787 0.69633 0.0
C1134 C 0.48689 0.19175 0.66581 0.0
C1135 C 0.46928 0.21524 0.62325 0.0
C1136 C 0.50725 0.17645 0.57655 0.0
C1137 C 0.51504 0.15282 0.68972 0.0
N1138 N 0.48102 0.20243 0.61005 0.0
N1139 N 0.50356 0.16585 0.70202 0.0
H1140 H 0.63824 0.71388 0.2151 0.0
H1141 H 0.58784 0.66321 0.54343 0.0
H1142 H 0.64556 0.72439 0.45244 0.0
H1143 H 0.57781 0.65576 0.30574 0.0
H1144 H 0.60853 0.68613 0.51161 0.0
H1145 H 0.61552 0.69306 0.24737 0.0
C1146 C 0.63504 0.71182 0.27402 0.0
C1147 C 0.64387 0.72085 0.33114 0.0
C1148 C 0.60173 0.67955 0.46643 0.0
C1149 C 0.61782 0.69702 0.36861 0.0
C1150 C 0.58997 0.66641 0.48456 0.0
C1151 C 0.58109 0.65751 0.42719 0.0
C1152 C 0.60474 0.68378 0.3903 0.0
C1153 C 0.58421 0.66238 0.35191 0.0
C1154 C 0.62202 0.69998 0.29243 0.0
C1155 C 0.639 0.71784 0.4065 0.0
N1156 N 0.59583 0.67509 0.33568 0.0
N1157 N 0.62639 0.70611 0.42306 0.0
H1158 H 0.11175 0.86026 0.1135 0.0
H1159 H 0.13312 0.75925 0.16487 0.0
H1160 H 0.07224 0.82071 0.12601 0.0
H1161 H 0.17149 0.79991 0.17659 0.0
H1162 H 0.11064 0.78128 0.1467 0.0
H1163 H 0.13385 0.83801 0.13108 0.0
C1164 C 0.10772 0.84686 0.11913 0.0
C1165 C 0.09009 0.84235 0.11791 0.0
C1166 C 0.12397 0.78538 0.15359 0.0
C1167 C 0.1154 0.81676 0.13932 0.0
C1168 C 0.13681 0.77281 0.16373 0.0
C1169 C 0.15422 0.77773 0.17246 0.0
C1170 C 0.12857 0.80301 0.15158 0.0
C1171 C 0.15823 0.7955 0.1712 0.0
C1172 C 0.12035 0.83416 0.12988 0.0
C1173 C 0.08566 0.82479 0.12714 0.0
N1174 N 0.14553 0.80746 0.16064 0.0
N1175 N 0.09823 0.81264 0.13733 0.0
H1176 H 0.94747 0.69692 0.18068 0.0
H1177 H 0.04855 0.67722 0.12446 0.0
H1178 H 0.98621 0.73714 0.16423 0.0
H1179 H 0.00856 0.63813 0.11477 0.0
H1180 H 0.02622 0.69935 0.14365 0.0
H1181 H 0.97003 0.67516 0.16286 0.0
C1182 C 0.96076 0.70118 0.17415 0.0
C1183 C 0.96495 0.7189 0.17426 0.0
C1184 C 0.02234 0.68594 0.13699 0.0
C1185 C 0.99089 0.69399 0.15258 0.0
C1186 C 0.03508 0.6733 0.12626 0.0
C1187 C 0.03042 0.65579 0.11775 0.0
C1188 C 0.00481 0.68103 0.13985 0.0
C1189 C 0.01275 0.65148 0.11993 0.0
C1190 C 0.97363 0.68874 0.16327 0.0
C1191 C 0.98237 0.72363 0.16396 0.0
N1192 N 0.00062 0.66399 0.13104 0.0
N1193 N 0.9947 0.71126 0.15363 0.0
H1194 H 0.14922 0.22905 0.97859 0.0
H1195 H 0.07803 0.16231 0.82365 0.0
H1196 H 0.14045 0.21956 0.74133 0.0
H1197 H 0.09278 0.16632 0.05818 0.0
H1198 H 0.09862 0.18542 0.79299 0.0
H1199 H 0.12638 0.20828 1.0091 0.0
C1200 C 0.14236 0.22274 0.93283 0.0
C1201 C 0.14677 0.22607 0.85723 0.0
C1202 C 0.0973 0.18128 0.85119 0.0
C1203 C 0.12069 0.20207 0.89189 0.0
C1204 C 0.08547 0.16818 0.86881 0.0
C1205 C 0.08372 0.16233 0.94359 0.0
C1206 C 0.1074 0.18869 0.90881 0.0
C1207 C 0.09386 0.17026 0.99966 0.0
C1208 C 0.12939 0.21078 0.95033 0.0
C1209 C 0.13761 0.21726 0.80038 0.0
N1210 N 0.10526 0.18301 0.98112 0.0
N1211 N 0.12501 0.20567 0.81887 0.0
H1212 H 0.64492 0.27328 0.76608 0.0
H1213 H 0.59029 0.32941 0.46887 0.0
H1214 H 0.64871 0.26734 0.52414 0.0
H1215 H 0.58412 0.33385 0.71044 0.0
H1216 H 0.61099 0.30588 0.48855 0.0
H1217 H 0.6219 0.2947 0.74757 0.0
C1218 C 0.64088 0.27642 0.7091 0.0
C1219 C 0.6488 0.26847 0.6466 0.0
C1220 C 0.60506 0.31193 0.53732 0.0
C1221 C 0.62243 0.293 0.62498 0.0
C1222 C 0.59329 0.32543 0.52611 0.0
C1223 C 0.58552 0.33369 0.58809 0.0
C1224 C 0.60921 0.30666 0.61115 0.0
C1225 C 0.58969 0.32777 0.66095 0.0
C1226 C 0.62769 0.28861 0.69858 0.0
C1227 C 0.64287 0.27293 0.57409 0.0
N1228 N 0.60133 0.3147 0.67048 0.0
N1229 N 0.63014 0.28494 0.56532 0.0
H1230 H 0.54282 0.83674 0.30905 0.0
H1231 H 0.47394 0.7671 0.46003 0.0
H1232 H 0.53132 0.82902 0.54537 0.0
H1233 H 0.48165 0.77902 0.22411 0.0
H1234 H 0.49683 0.78774 0.4925 0.0
H1235 H 0.52238 0.8137 0.27728 0.0
C1236 C 0.53614 0.83007 0.35439 0.0
C1237 C 0.53881 0.83485 0.43007 0.0
C1238 C 0.49357 0.78578 0.4336 0.0
C1239 C 0.51516 0.80854 0.39389 0.0
C1240 C 0.48058 0.77391 0.41497 0.0
C1241 C 0.47582 0.77135 0.33919 0.0
C1242 C 0.50193 0.79515 0.37608 0.0
C1243 C 0.48473 0.78073 0.28331 0.0
C1244 C 0.52436 0.81699 0.33613 0.0
C1245 C 0.52953 0.82592 0.48624 0.0
N1246 N 0.49731 0.79223 0.30288 0.0
N1247 N 0.51812 0.81322 0.46702 0.0
loop_
_geom_bond_atom_site_label_1
_geom_bond_atom_site_label_2
_geom_bond_distance
_geom_bond_site_symmetry_2
_ccdc_geom_bond_type
C0 C1 1.351 . S
C0 N3 1.368 . S
C0 H5 0.931 . S
C1 C0 1.351 . S
C1 N2 1.373 . S
C1 H29 0.930 . S
N2 C1 1.373 . S
N2 C4 1.340 . S
N3 C0 1.368 . S
N3 C4 1.321 . S
N3 Co6 2.135 . S
C4 N2 1.340 . S
C4 N3 1.321 . S
C4 H28 0.930 . S
H5 C0 0.931 . S
Co6 N3 2.135 . S
Co6 N9 2.121 1_554 S
Co6 O14 2.055 . S
Co6 O17 2.039 . S
Co6 N20 2.140 . S
C7 O8 1.227 . S
C7 O17 1.265 . S
O8 C7 1.227 . S
N9 Co6 2.121 1_556 S
N9 C11 1.375 . S
N9 C12 1.313 . S
C10 C11 1.338 . S
C10 N13 1.377 . S
C10 H30 0.930 . S
C11 N9 1.375 . S
C11 C10 1.338 . S
C11 H15 0.931 . S
C12 N9 1.313 . S
C12 N13 1.344 . S
C12 H16 0.930 . S
N13 C10 1.377 . S
N13 C12 1.344 . S
O14 Co6 2.055 . S
O14 C18 1.253 . S
H15 C11 0.931 . S
H16 C12 0.930 . S
O17 Co6 2.039 . S
O17 C7 1.265 . S
C18 O14 1.253 . S
C18 O19 1.227 . S
O19 C18 1.227 . S
N20 Co6 2.140 . S
N20 C23 1.346 . S
N20 C24 1.345 . S
C21 C22 1.387 . S
C21 C25 1.391 . S
C22 C21 1.387 . S
C22 C23 1.369 . S
C22 H31 0.929 . S
C23 N20 1.346 . S
C23 C22 1.369 . S
C23 H26 0.928 . S
C24 N20 1.345 . S
C24 C25 1.371 . S
C24 H27 0.931 . S
C25 C21 1.391 . S
C25 C24 1.371 . S
C25 H32 0.930 . S
H26 C23 0.928 . S
H27 C24 0.931 . S
H28 C4 0.930 . S
H29 C1 0.930 . S
H30 C10 0.930 . S
H31 C22 0.929 . S
H32 C25 0.930 . S
C33 C34 1.351 . S
C33 N36 1.368 . S
C33 H38 0.931 . S
C34 C33 1.351 . S
C34 N35 1.373 . S
C34 H62 0.930 . S
N35 C34 1.373 . S
N35 C37 1.340 . S
N36 C33 1.368 . S
N36 C37 1.321 . S
N36 Co39 2.135 . S
C37 N35 1.340 . S
C37 N36 1.321 . S
C37 H61 0.930 . S
H38 C33 0.931 . S
Co39 N36 2.135 . S
Co39 N42 2.121 . S
Co39 O47 2.055 . S
Co39 O50 2.039 . S
Co39 N53 2.140 . S
C40 O41 1.227 . S
C40 O50 1.265 . S
O41 C40 1.227 . S
N42 Co39 2.121 . S
N42 C44 1.375 . S
N42 C45 1.313 . S
C43 C44 1.338 . S
C43 N46 1.377 . S
C43 H63 0.930 . S
C44 N42 1.375 . S
C44 C43 1.338 . S
C44 H48 0.931 . S
C45 N42 1.313 . S
C45 N46 1.344 . S
C45 H49 0.930 . S
N46 C43 1.377 . S
N46 C45 1.344 . S
O47 Co39 2.055 . S
O47 C51 1.253 . S
H48 C44 0.931 . S
H49 C45 0.930 . S
O50 Co39 2.039 . S
O50 C40 1.265 . S
C51 O47 1.253 . S
C51 O52 1.227 . S
O52 C51 1.227 . S
N53 Co39 2.140 . S
N53 C56 1.346 . S
N53 C57 1.345 . S
C54 C55 1.387 . S
C54 C58 1.391 . S
C55 C54 1.387 . S
C55 C56 1.369 . S
C55 H64 0.929 . S
C56 N53 1.346 . S
C56 C55 1.369 . S
C56 H59 0.928 . S
C57 N53 1.345 . S
C57 C58 1.371 . S
C57 H60 0.931 . S
C58 C54 1.391 . S
C58 C57 1.371 . S
C58 H65 0.930 . S
H59 C56 0.928 . S
H60 C57 0.931 . S
H61 C37 0.930 . S
H62 C34 0.930 . S
H63 C43 0.930 . S
H64 C55 0.929 . S
H65 C58 0.930 . S
C66 C67 1.351 . S
C66 N69 1.368 . S
C66 H71 0.931 . S
C67 C66 1.351 . S
C67 N68 1.373 . S
C67 H95 0.930 . S
N68 C67 1.373 . S
N68 C70 1.340 . S
N69 C66 1.368 . S
N69 C70 1.321 . S
N69 Co72 2.135 . S
C70 N68 1.340 . S
C70 N69 1.321 . S
C70 H94 0.930 . S
H71 C66 0.931 . S
Co72 N69 2.135 . S
Co72 N75 2.121 . S
Co72 O80 2.055 . S
Co72 O83 2.039 . S
Co72 N86 2.140 . S
C73 O74 1.227 . S
C73 O83 1.265 . S
O74 C73 1.227 . S
N75 Co72 2.121 . S
N75 C77 1.375 . S
N75 C78 1.313 . S
C76 C77 1.338 . S
C76 N79 1.377 . S
C76 H96 0.930 . S
C77 N75 1.375 . S
C77 C76 1.338 . S
C77 H81 0.931 . S
C78 N75 1.313 . S
C78 N79 1.344 . S
C78 H82 0.930 . S
N79 C76 1.377 . S
N79 C78 1.344 . S
O80 Co72 2.055 . S
O80 C84 1.253 . S
H81 C77 0.931 . S
H82 C78 0.930 . S
O83 Co72 2.039 . S
O83 C73 1.265 . S
C84 O80 1.253 . S
C84 O85 1.227 . S
O85 C84 1.227 . S
N86 Co72 2.140 . S
N86 C89 1.346 . S
N86 C90 1.345 . S
C87 C88 1.387 . S
C87 C91 1.391 . S
C88 C87 1.387 . S
C88 C89 1.369 . S
C88 H97 0.929 . S
C89 N86 1.346 . S
C89 C88 1.369 . S
C89 H92 0.928 . S
C90 N86 1.345 . S
C90 C91 1.371 . S
C90 H93 0.931 . S
C91 C87 1.391 . S
C91 C90 1.371 . S
C91 H98 0.930 . S
H92 C89 0.928 . S
H93 C90 0.931 . S
H94 C70 0.930 . S
H95 C67 0.930 . S
H96 C76 0.930 . S
H97 C88 0.929 . S
H98 C91 0.930 . S
C99 C100 1.351 1_556 S
C99 N102 1.368 . S
C99 H104 0.931 . S
C100 C99 1.351 1_554 S
C100 N101 1.373 . S
C100 H128 0.930 . S
N101 C100 1.373 . S
N101 C103 1.340 . S
N102 C99 1.368 . S
N102 C103 1.321 1_556 S
N102 Co105 2.135 . S
C103 N101 1.340 . S
C103 N102 1.321 1_554 S
C103 H127 0.930 . S
H104 C99 0.931 . S
Co105 N102 2.135 . S
Co105 N108 2.121 . S
Co105 O113 2.055 . S
Co105 O116 2.039 . S
Co105 N119 2.140 . S
C106 O107 1.227 . S
C106 O116 1.265 . S
O107 C106 1.227 . S
N108 Co105 2.121 . S
N108 C110 1.375 . S
N108 C111 1.313 . S
C109 C110 1.338 . S
C109 N112 1.377 . S
C109 H129 0.930 . S
C110 N108 1.375 . S
C110 C109 1.338 . S
C110 H114 0.931 . S
C111 N108 1.313 . S
C111 N112 1.344 . S
C111 H115 0.930 . S
N112 C109 1.377 . S
N112 C111 1.344 . S
O113 Co105 2.055 . S
O113 C117 1.253 . S
H114 C110 0.931 . S
H115 C111 0.930 . S
O116 Co105 2.039 . S
O116 C106 1.265 . S
C117 O113 1.253 . S
C117 O118 1.227 . S
O118 C117 1.227 . S
N119 Co105 2.140 . S
N119 C122 1.346 . S
N119 C123 1.345 . S
C120 C121 1.387 . S
C120 C124 1.391 . S
C121 C120 1.387 . S
C121 C122 1.369 . S
C121 H130 0.929 . S
C122 N119 1.346 . S
C122 C121 1.369 . S
C122 H125 0.928 . S
C123 N119 1.345 . S
C123 C124 1.371 . S
C123 H126 0.931 . S
C124 C120 1.391 . S
C124 C123 1.371 . S
C124 H131 0.930 . S
H125 C122 0.928 . S
H126 C123 0.931 . S
H127 C103 0.930 . S
H128 C100 0.930 . S
H129 C109 0.930 . S
H130 C121 0.929 . S
H131 C124 0.930 . S
C132 C133 1.351 . S
C132 N135 1.368 . S
C132 H137 0.931 . S
C133 C132 1.351 . S
C133 N134 1.373 . S
C133 H161 0.930 . S
N134 C133 1.373 . S
N134 C136 1.340 . S
N135 C132 1.368 . S
N135 C136 1.321 . S
N135 Co138 2.135 . S
C136 N134 1.340 . S
C136 N135 1.321 . S
C136 H160 0.930 . S
H137 C132 0.931 . S
Co138 N135 2.135 . S
Co138 N141 2.121 1_556 S
Co138 O146 2.055 . S
Co138 O149 2.039 . S
Co138 N152 2.140 . S
C139 O140 1.227 . S
C139 O149 1.265 . S
O140 C139 1.227 . S
N141 Co138 2.121 1_554 S
N141 C143 1.375 . S
N141 C144 1.313 . S
C142 C143 1.338 . S
C142 N145 1.377 . S
C142 H162 0.930 . S
C143 N141 1.375 . S
C143 C142 1.338 . S
C143 H147 0.931 . S
C144 N141 1.313 . S
C144 N145 1.344 . S
C144 H148 0.930 . S
N145 C142 1.377 . S
N145 C144 1.344 . S
O146 Co138 2.055 . S
O146 C150 1.253 . S
H147 C143 0.931 . S
H148 C144 0.930 . S
O149 Co138 2.039 . S
O149 C139 1.265 . S
C150 O146 1.253 . S
C150 O151 1.227 . S
O151 C150 1.227 . S
N152 Co138 2.140 . S
N152 C155 1.346 . S
N152 C156 1.345 . S
C153 C154 1.387 . S
C153 C157 1.391 . S
C154 C153 1.387 . S
C154 C155 1.369 . S
C154 H163 0.929 . S
C155 N152 1.346 . S
C155 C154 1.369 . S
C155 H158 0.928 . S
C156 N152 1.345 . S
C156 C157 1.371 . S
C156 H159 0.931 . S
C157 C153 1.391 . S
C157 C156 1.371 . S
C157 H164 0.930 . S
H158 C155 0.928 . S
H159 C156 0.931 . S
H160 C136 0.930 . S
H161 C133 0.930 . S
H162 C142 0.930 . S
H163 C154 0.929 . S
H164 C157 0.930 . S
C165 C166 1.351 1_554 S
C165 N168 1.368 . S
C165 H170 0.931 . S
C166 C165 1.351 1_556 S
C166 N167 1.373 . S
C166 H194 0.930 . S
N167 C166 1.373 . S
N167 C169 1.340 . S
N168 C165 1.368 . S
N168 C169 1.321 1_554 S
N168 Co171 2.135 . S
C169 N167 1.340 . S
C169 N168 1.321 1_556 S
C169 H193 0.930 . S
H170 C165 0.931 . S
Co171 N168 2.135 . S
Co171 N174 2.121 . S
Co171 O179 2.055 . S
Co171 O182 2.039 . S
Co171 N185 2.140 . S
C172 O173 1.227 . S
C172 O182 1.265 . S
O173 C172 1.227 . S
N174 Co171 2.121 . S
N174 C176 1.375 . S
N174 C177 1.313 . S
C175 C176 1.338 . S
C175 N178 1.377 . S
C175 H195 0.930 . S
C176 N174 1.375 . S
C176 C175 1.338 . S
C176 H180 0.931 . S
C177 N174 1.313 . S
C177 N178 1.344 . S
C177 H181 0.930 . S
N178 C175 1.377 . S
N178 C177 1.344 . S
O179 Co171 2.055 . S
O179 C183 1.253 . S
H180 C176 0.931 . S
H181 C177 0.930 . S
O182 Co171 2.039 . S
O182 C172 1.265 . S
C183 O179 1.253 . S
C183 O184 1.227 . S
O184 C183 1.227 . S
N185 Co171 2.140 . S
N185 C188 1.346 . S
N185 C189 1.345 . S
C186 C187 1.387 . S
C186 C190 1.391 . S
C187 C186 1.387 . S
C187 C188 1.369 . S
C187 H196 0.929 . S
C188 N185 1.346 . S
C188 C187 1.369 . S
C188 H191 0.928 . S
C189 N185 1.345 . S
C189 C190 1.371 . S
C189 H192 0.931 . S
C190 C186 1.391 . S
C190 C189 1.371 . S
C190 H197 0.930 . S
H191 C188 0.928 . S
H192 C189 0.931 . S
H193 C169 0.930 . S
H194 C166 0.930 . S
H195 C175 0.930 . S
H196 C187 0.929 . S
H197 C190 0.930 . S
C198 C199 1.351 . S
C198 N201 1.368 . S
C198 H203 0.931 . S
C199 C198 1.351 . S
C199 N200 1.373 . S
C199 H227 0.930 . S
N200 C199 1.373 . S
N200 C202 1.340 . S
N201 C198 1.368 . S
N201 C202 1.321 . S
N201 Co204 2.135 . S
C202 N200 1.340 . S
C202 N201 1.321 . S
C202 H226 0.930 . S
H203 C198 0.931 . S
Co204 N201 2.135 . S
Co204 N207 2.121 . S
Co204 O212 2.055 . S
Co204 O215 2.039 . S
Co204 N218 2.140 . S
C205 O206 1.227 . S
C205 O215 1.265 . S
O206 C205 1.227 . S
N207 Co204 2.121 . S
N207 C209 1.375 . S
N207 C210 1.313 . S
C208 C209 1.338 . S
C208 N211 1.377 . S
C208 H228 0.930 . S
C209 N207 1.375 . S
C209 C208 1.338 . S
C209 H213 0.931 . S
C210 N207 1.313 . S
C210 N211 1.344 . S
C210 H214 0.930 . S
N211 C208 1.377 . S
N211 C210 1.344 . S
O212 Co204 2.055 . S
O212 C216 1.253 . S
H213 C209 0.931 . S
H214 C210 0.930 . S
O215 Co204 2.039 . S
O215 C205 1.265 . S
C216 O212 1.253 . S
C216 O217 1.227 . S
O217 C216 1.227 . S
N218 Co204 2.140 . S
N218 C221 1.346 . S
N218 C222 1.345 . S
C219 C220 1.387 . S
C219 C223 1.391 . S
C220 C219 1.387 . S
C220 C221 1.369 . S
C220 H229 0.929 . S
C221 N218 1.346 . S
C221 C220 1.369 . S
C221 H224 0.928 . S
C222 N218 1.345 . S
C222 C223 1.371 . S
C222 H225 0.931 . S
C223 C219 1.391 . S
C223 C222 1.371 . S
C223 H230 0.930 . S
H224 C221 0.928 . S
H225 C222 0.931 . S
H226 C202 0.930 . S
H227 C199 0.930 . S
H228 C208 0.930 . S
H229 C220 0.929 . S
H230 C223 0.930 . S
C231 C232 1.351 . S
C231 N234 1.368 . S
C231 H236 0.931 . S
C232 C231 1.351 . S
C232 N233 1.373 . S
C232 H260 0.930 . S
N233 C232 1.373 . S
N233 C235 1.340 . S
N234 C231 1.368 . S
N234 C235 1.321 . S
N234 Co237 2.135 . S
C235 N233 1.340 . S
C235 N234 1.321 . S
C235 H259 0.930 . S
H236 C231 0.931 . S
Co237 N234 2.135 . S
Co237 N240 2.121 . S
Co237 O245 2.055 . S
Co237 O248 2.039 . S
Co237 N251 2.140 . S
C238 O239 1.227 . S
C238 O248 1.265 . S
O239 C238 1.227 . S
N240 Co237 2.121 . S
N240 C242 1.375 . S
N240 C243 1.313 . S
C241 C242 1.338 . S
C241 N244 1.377 . S
C241 H261 0.930 . S
C242 N240 1.375 . S
C242 C241 1.338 . S
C242 H246 0.931 . S
C243 N240 1.313 . S
C243 N244 1.344 . S
C243 H247 0.930 . S
N244 C241 1.377 . S
N244 C243 1.344 . S
O245 Co237 2.055 . S
O245 C249 1.253 . S
H246 C242 0.931 . S
H247 C243 0.930 . S
O248 Co237 2.039 . S
O248 C238 1.265 . S
C249 O245 1.253 . S
C249 O250 1.227 . S
O250 C249 1.227 . S
N251 Co237 2.140 . S
N251 C254 1.346 . S
N251 C255 1.345 . S
C252 C253 1.387 . S
C252 C256 1.391 . S
C253 C252 1.387 . S
C253 C254 1.369 . S
C253 H262 0.929 . S
C254 N251 1.346 . S
C254 C253 1.369 . S
C254 H257 0.928 . S
C255 N251 1.345 . S
C255 C256 1.371 . S
C255 H258 0.931 . S
C256 C252 1.391 . S
C256 C255 1.371 . S
C256 H263 0.930 . S
H257 C254 0.928 . S
H258 C255 0.931 . S
H259 C235 0.930 . S
H260 C232 0.930 . S
H261 C241 0.930 . S
H262 C253 0.929 . S
H263 C256 0.930 . S
C264 C265 1.351 . S
C264 N267 1.368 . S
C264 H269 0.931 . S
C265 C264 1.351 . S
C265 N266 1.373 . S
C265 H293 0.930 . S
N266 C265 1.373 . S
N266 C268 1.340 . S
N267 C264 1.368 . S
N267 C268 1.321 . S
N267 Co270 2.135 . S
C268 N266 1.340 . S
C268 N267 1.321 . S
C268 H292 0.930 . S
H269 C264 0.931 . S
Co270 N267 2.135 . S
Co270 N273 2.121 . S
Co270 O278 2.055 . S
Co270 O281 2.039 . S
Co270 N284 2.140 . S
C271 O272 1.227 . S
C271 O281 1.265 . S
O272 C271 1.227 . S
N273 Co270 2.121 . S
N273 C275 1.375 . S
N273 C276 1.313 . S
C274 C275 1.338 . S
C274 N277 1.377 . S
C274 H294 0.930 . S
C275 N273 1.375 . S
C275 C274 1.338 . S
C275 H279 0.931 . S
C276 N273 1.313 . S
C276 N277 1.344 . S
C276 H280 0.930 . S
N277 C274 1.377 . S
N277 C276 1.344 . S
O278 Co270 2.055 . S
O278 C282 1.253 . S
H279 C275 0.931 . S
H280 C276 0.930 . S
O281 Co270 2.039 . S
O281 C271 1.265 . S
C282 O278 1.253 . S
C282 O283 1.227 . S
O283 C282 1.227 . S
N284 Co270 2.140 . S
N284 C287 1.346 . S
N284 C288 1.345 . S
C285 C286 1.387 . S
C285 C289 1.391 . S
C286 C285 1.387 . S
C286 C287 1.369 . S
C286 H295 0.929 . S
C287 N284 1.346 . S
C287 C286 1.369 . S
C287 H290 0.928 . S
C288 N284 1.345 . S
C288 C289 1.371 . S
C288 H291 0.931 . S
C289 C285 1.391 . S
C289 C288 1.371 . S
C289 H296 0.930 . S
H290 C287 0.928 . S
H291 C288 0.931 . S
H292 C268 0.930 . S
H293 C265 0.930 . S
H294 C274 0.930 . S
H295 C286 0.929 . S
H296 C289 0.930 . S
C297 C298 1.351 1_554 S
C297 N300 1.368 . S
C297 H302 0.931 . S
C298 C297 1.351 1_556 S
C298 N299 1.373 . S
C298 H326 0.930 . S
N299 C298 1.373 . S
N299 C301 1.340 . S
N300 C297 1.368 . S
N300 C301 1.321 1_554 S
N300 Co303 2.135 . S
C301 N299 1.340 . S
C301 N300 1.321 1_556 S
C301 H325 0.930 . S
H302 C297 0.931 . S
Co303 N300 2.135 . S
Co303 N306 2.121 . S
Co303 O311 2.055 . S
Co303 O314 2.039 . S
Co303 N317 2.140 . S
C304 O305 1.227 . S
C304 O314 1.265 . S
O305 C304 1.227 . S
N306 Co303 2.121 . S
N306 C308 1.375 . S
N306 C309 1.313 . S
C307 C308 1.338 . S
C307 N310 1.377 . S
C307 H327 0.930 . S
C308 N306 1.375 . S
C308 C307 1.338 . S
C308 H312 0.931 . S
C309 N306 1.313 . S
C309 N310 1.344 . S
C309 H313 0.930 . S
N310 C307 1.377 . S
N310 C309 1.344 . S
O311 Co303 2.055 . S
O311 C315 1.253 . S
H312 C308 0.931 . S
H313 C309 0.930 . S
O314 Co303 2.039 . S
O314 C304 1.265 . S
C315 O311 1.253 . S
C315 O316 1.227 . S
O316 C315 1.227 . S
N317 Co303 2.140 . S
N317 C320 1.346 . S
N317 C321 1.345 . S
C318 C319 1.387 . S
C318 C322 1.391 . S
C319 C318 1.387 . S
C319 C320 1.369 . S
C319 H328 0.929 . S
C320 N317 1.346 . S
C320 C319 1.369 . S
C320 H323 0.928 . S
C321 N317 1.345 . S
C321 C322 1.371 . S
C321 H324 0.931 . S
C322 C318 1.391 . S
C322 C321 1.371 . S
C322 H329 0.930 . S
H323 C320 0.928 . S
H324 C321 0.931 . S
H325 C301 0.930 . S
H326 C298 0.930 . S
H327 C307 0.930 . S
H328 C319 0.929 . S
H329 C322 0.930 . S
C330 C331 1.351 1_556 S
C330 N333 1.368 . S
C330 H335 0.931 . S
C331 C330 1.351 1_554 S
C331 N332 1.373 . S
C331 H359 0.930 . S
N332 C331 1.373 . S
N332 C334 1.340 . S
N333 C330 1.368 . S
N333 C334 1.321 1_556 S
N333 Co336 2.135 . S
C334 N332 1.340 . S
C334 N333 1.321 1_554 S
C334 H358 0.930 . S
H335 C330 0.931 . S
Co336 N333 2.135 . S
Co336 N339 2.121 . S
Co336 O344 2.055 . S
Co336 O347 2.039 . S
Co336 N350 2.140 . S
C337 O338 1.227 . S
C337 O347 1.265 . S
O338 C337 1.227 . S
N339 Co336 2.121 . S
N339 C341 1.375 . S
N339 C342 1.313 . S
C340 C341 1.338 . S
C340 N343 1.377 . S
C340 H360 0.930 . S
C341 N339 1.375 . S
C341 C340 1.338 . S
C341 H345 0.931 . S
C342 N339 1.313 . S
C342 N343 1.344 . S
C342 H346 0.930 . S
N343 C340 1.377 . S
N343 C342 1.344 . S
O344 Co336 2.055 . S
O344 C348 1.253 . S
H345 C341 0.931 . S
H346 C342 0.930 . S
O347 Co336 2.039 . S
O347 C337 1.265 . S
C348 O344 1.253 . S
C348 O349 1.227 . S
O349 C348 1.227 . S
N350 Co336 2.140 . S
N350 C353 1.346 . S
N350 C354 1.345 . S
C351 C352 1.387 . S
C351 C355 1.391 . S
C352 C351 1.387 . S
C352 C353 1.369 . S
C352 H361 0.929 . S
C353 N350 1.346 . S
C353 C352 1.369 . S
C353 H356 0.928 . S
C354 N350 1.345 . S
C354 C355 1.371 . S
C354 H357 0.931 . S
C355 C351 1.391 . S
C355 C354 1.371 . S
C355 H362 0.930 . S
H356 C353 0.928 . S
H357 C354 0.931 . S
H358 C334 0.930 . S
H359 C331 0.930 . S
H360 C340 0.930 . S
H361 C352 0.929 . S
H362 C355 0.930 . S
C363 C364 1.351 . S
C363 N366 1.368 . S
C363 H368 0.931 . S
C364 C363 1.351 . S
C364 N365 1.373 . S
C364 H392 0.930 . S
N365 C364 1.373 . S
N365 C367 1.340 . S
N366 C363 1.368 . S
N366 C367 1.321 . S
N366 Co369 2.135 . S
C367 N365 1.340 . S
C367 N366 1.321 . S
C367 H391 0.930 . S
H368 C363 0.931 . S
Co369 N366 2.135 . S
Co369 N372 2.121 . S
Co369 O377 2.055 . S
Co369 O380 2.039 . S
Co369 N383 2.140 . S
C370 O371 1.227 . S
C370 O380 1.265 . S
O371 C370 1.227 . S
N372 Co369 2.121 . S
N372 C374 1.375 . S
N372 C375 1.313 . S
C373 C374 1.338 . S
C373 N376 1.377 . S
C373 H393 0.930 . S
C374 N372 1.375 . S
C374 C373 1.338 . S
C374 H378 0.931 . S
C375 N372 1.313 . S
C375 N376 1.344 . S
C375 H379 0.930 . S
N376 C373 1.377 . S
N376 C375 1.344 . S
O377 Co369 2.055 . S
O377 C381 1.253 . S
H378 C374 0.931 . S
H379 C375 0.930 . S
O380 Co369 2.039 . S
O380 C370 1.265 . S
C381 O377 1.253 . S
C381 O382 1.227 . S
O382 C381 1.227 . S
N383 Co369 2.140 . S
N383 C386 1.346 . S
N383 C387 1.345 . S
C384 C385 1.387 . S
C384 C388 1.391 . S
C385 C384 1.387 . S
C385 C386 1.369 . S
C385 H394 0.929 . S
C386 N383 1.346 . S
C386 C385 1.369 . S
C386 H389 0.928 . S
C387 N383 1.345 . S
C387 C388 1.371 . S
C387 H390 0.931 . S
C388 C384 1.391 . S
C388 C387 1.371 . S
C388 H395 0.930 . S
H389 C386 0.928 . S
H390 C387 0.931 . S
H391 C367 0.930 . S
H392 C364 0.930 . S
H393 C373 0.930 . S
H394 C385 0.929 . S
H395 C388 0.930 . S
C396 C397 1.351 . S
C396 N399 1.368 . S
C396 H401 0.931 . S
C397 C396 1.351 . S
C397 N398 1.373 . S
C397 H425 0.930 . S
N398 C397 1.373 . S
N398 C400 1.340 . S
N399 C396 1.368 . S
N399 C400 1.321 . S
N399 Co402 2.135 . S
C400 N398 1.340 . S
C400 N399 1.321 . S
C400 H424 0.930 . S
H401 C396 0.931 . S
Co402 N399 2.135 . S
Co402 N405 2.121 . S
Co402 O410 2.055 . S
Co402 O413 2.039 . S
Co402 N416 2.140 . S
C403 O404 1.227 . S
C403 O413 1.265 . S
O404 C403 1.227 . S
N405 Co402 2.121 . S
N405 C407 1.375 . S
N405 C408 1.313 . S
C406 C407 1.338 . S
C406 N409 1.377 . S
C406 H426 0.930 . S
C407 N405 1.375 . S
C407 C406 1.338 . S
C407 H411 0.931 . S
C408 N405 1.313 . S
C408 N409 1.344 . S
C408 H412 0.930 . S
N409 C406 1.377 . S
N409 C408 1.344 . S
O410 Co402 2.055 . S
O410 C414 1.253 . S
H411 C407 0.931 . S
H412 C408 0.930 . S
O413 Co402 2.039 . S
O413 C403 1.265 . S
C414 O410 1.253 . S
C414 O415 1.227 . S
O415 C414 1.227 . S
N416 Co402 2.140 . S
N416 C419 1.346 . S
N416 C420 1.345 . S
C417 C418 1.387 . S
C417 C421 1.391 . S
C418 C417 1.387 . S
C418 C419 1.369 . S
C418 H427 0.929 . S
C419 N416 1.346 . S
C419 C418 1.369 . S
C419 H422 0.928 . S
C420 N416 1.345 . S
C420 C421 1.371 . S
C420 H423 0.931 . S
C421 C417 1.391 . S
C421 C420 1.371 . S
C421 H428 0.930 . S
H422 C419 0.928 . S
H423 C420 0.931 . S
H424 C400 0.930 . S
H425 C397 0.930 . S
H426 C406 0.930 . S
H427 C418 0.929 . S
H428 C421 0.930 . S
C429 C430 1.351 . S
C429 N432 1.368 . S
C429 H434 0.931 . S
C430 C429 1.351 . S
C430 N431 1.373 . S
C430 H458 0.930 . S
N431 C430 1.373 . S
N431 C433 1.340 . S
N432 C429 1.368 . S
N432 C433 1.321 . S
N432 Co435 2.135 . S
C433 N431 1.340 . S
C433 N432 1.321 . S
C433 H457 0.930 . S
H434 C429 0.931 . S
Co435 N432 2.135 . S
Co435 N438 2.121 1_554 S
Co435 O443 2.055 . S
Co435 O446 2.039 . S
Co435 N449 2.140 . S
C436 O437 1.227 . S
C436 O446 1.265 . S
O437 C436 1.227 . S
N438 Co435 2.121 1_556 S
N438 C440 1.375 . S
N438 C441 1.313 . S
C439 C440 1.338 . S
C439 N442 1.377 . S
C439 H459 0.930 . S
C440 N438 1.375 . S
C440 C439 1.338 . S
C440 H444 0.931 . S
C441 N438 1.313 . S
C441 N442 1.344 . S
C441 H445 0.930 . S
N442 C439 1.377 . S
N442 C441 1.344 . S
O443 Co435 2.055 . S
O443 C447 1.253 . S
H444 C440 0.931 . S
H445 C441 0.930 . S
O446 Co435 2.039 . S
O446 C436 1.265 . S
C447 O443 1.253 . S
C447 O448 1.227 . S
O448 C447 1.227 . S
N449 Co435 2.140 . S
N449 C452 1.346 . S
N449 C453 1.345 . S
C450 C451 1.387 . S
C450 C454 1.391 . S
C451 C450 1.387 . S
C451 C452 1.369 . S
C451 H460 0.929 . S
C452 N449 1.346 . S
C452 C451 1.369 . S
C452 H455 0.928 . S
C453 N449 1.345 . S
C453 C454 1.371 . S
C453 H456 0.931 . S
C454 C450 1.391 . S
C454 C453 1.371 . S
C454 H461 0.930 . S
H455 C452 0.928 . S
H456 C453 0.931 . S
H457 C433 0.930 . S
H458 C430 0.930 . S
H459 C439 0.930 . S
H460 C451 0.929 . S
H461 C454 0.930 . S
C462 C463 1.351 . S
C462 N465 1.368 . S
C462 H467 0.931 . S
C463 C462 1.351 . S
C463 N464 1.373 . S
C463 H491 0.930 . S
N464 C463 1.373 . S
N464 C466 1.340 . S
N465 C462 1.368 . S
N465 C466 1.321 . S
N465 Co468 2.135 . S
C466 N464 1.340 . S
C466 N465 1.321 . S
C466 H490 0.930 . S
H467 C462 0.931 . S
Co468 N465 2.135 . S
Co468 N471 2.121 . S
Co468 O476 2.055 . S
Co468 O479 2.039 . S
Co468 N482 2.140 . S
C469 O470 1.227 . S
C469 O479 1.265 . S
O470 C469 1.227 . S
N471 Co468 2.121 . S
N471 C473 1.375 . S
N471 C474 1.313 . S
C472 C473 1.338 . S
C472 N475 1.377 . S
C472 H492 0.930 . S
C473 N471 1.375 . S
C473 C472 1.338 . S
C473 H477 0.931 . S
C474 N471 1.313 . S
C474 N475 1.344 . S
C474 H478 0.930 . S
N475 C472 1.377 . S
N475 C474 1.344 . S
O476 Co468 2.055 . S
O476 C480 1.253 . S
H477 C473 0.931 . S
H478 C474 0.930 . S
O479 Co468 2.039 . S
O479 C469 1.265 . S
C480 O476 1.253 . S
C480 O481 1.227 . S
O481 C480 1.227 . S
N482 Co468 2.140 . S
N482 C485 1.346 . S
N482 C486 1.345 . S
C483 C484 1.387 . S
C483 C487 1.391 . S
C484 C483 1.387 . S
C484 C485 1.369 . S
C484 H493 0.929 . S
C485 N482 1.346 . S
C485 C484 1.369 . S
C485 H488 0.928 . S
C486 N482 1.345 . S
C486 C487 1.371 . S
C486 H489 0.931 . S
C487 C483 1.391 . S
C487 C486 1.371 . S
C487 H494 0.930 . S
H488 C485 0.928 . S
H489 C486 0.931 . S
H490 C466 0.930 . S
H491 C463 0.930 . S
H492 C472 0.930 . S
H493 C484 0.929 . S
H494 C487 0.930 . S
C495 C496 1.351 . S
C495 N498 1.368 . S
C495 H500 0.931 . S
C496 C495 1.351 . S
C496 N497 1.373 . S
C496 H524 0.930 . S
N497 C496 1.373 . S
N497 C499 1.340 . S
N498 C495 1.368 . S
N498 C499 1.321 . S
N498 Co501 2.135 . S
C499 N497 1.340 . S
C499 N498 1.321 . S
C499 H523 0.930 . S
H500 C495 0.931 . S
Co501 N498 2.135 . S
Co501 N504 2.121 1_556 S
Co501 O509 2.055 . S
Co501 O512 2.039 . S
Co501 N515 2.140 . S
C502 O503 1.227 . S
C502 O512 1.265 . S
O503 C502 1.227 . S
N504 Co501 2.121 1_554 S
N504 C506 1.375 . S
N504 C507 1.313 . S
C505 C506 1.338 . S
C505 N508 1.377 . S
C505 H525 0.930 . S
C506 N504 1.375 . S
C506 C505 1.338 . S
C506 H510 0.931 . S
C507 N504 1.313 . S
C507 N508 1.344 . S
C507 H511 0.930 . S
N508 C505 1.377 . S
N508 C507 1.344 . S
O509 Co501 2.055 . S
O509 C513 1.253 . S
H510 C506 0.931 . S
H511 C507 0.930 . S
O512 Co501 2.039 . S
O512 C502 1.265 . S
C513 O509 1.253 . S
C513 O514 1.227 . S
O514 C513 1.227 . S
N515 Co501 2.140 . S
N515 C518 1.346 . S
N515 C519 1.345 . S
C516 C517 1.387 . S
C516 C520 1.391 . S
C517 C516 1.387 . S
C517 C518 1.369 . S
C517 H526 0.929 . S
C518 N515 1.346 . S
C518 C517 1.369 . S
C518 H521 0.928 . S
C519 N515 1.345 . S
C519 C520 1.371 . S
C519 H522 0.931 . S
C520 C516 1.391 . S
C520 C519 1.371 . S
C520 H527 0.930 . S
H521 C518 0.928 . S
H522 C519 0.931 . S
H523 C499 0.930 . S
H524 C496 0.930 . S
H525 C505 0.930 . S
H526 C517 0.929 . S
H527 C520 0.930 . S
H528 C534 0.930 . S
H529 C538 0.930 . S
H530 C543 0.929 . S
H531 C541 0.929 . S
H532 C536 0.929 . S
H533 C542 0.929 . S
C534 H528 0.930 . S
C534 C535 1.367 . S
C534 C542 1.378 . S
C535 C534 1.367 . S
C535 C543 1.433 . S
C536 H532 0.929 . S
C536 C538 1.378 . S
C536 C540 1.350 . S
C537 C540 1.463 . S
C537 C542 1.350 . S
C537 N545 1.427 . S
C538 H529 0.930 . S
C538 C536 1.378 . S
C538 C539 1.367 . S
C539 C538 1.367 . S
C539 C541 1.433 . S
C540 C536 1.350 . S
C540 C537 1.463 . S
C540 N544 1.427 . S
C541 H531 0.929 . S
C541 C539 1.433 . S
C541 N544 1.384 . S
C542 H533 0.929 . S
C542 C534 1.378 . S
C542 C537 1.350 . S
C543 H530 0.929 . S
C543 C535 1.433 . S
C543 N545 1.384 . S
N544 C540 1.427 . S
N544 C541 1.384 . S
N545 C537 1.427 . S
N545 C543 1.384 . S
H546 C552 0.930 1_554 S
H547 C556 0.930 . S
H548 C561 0.929 1_554 S
H549 C559 0.929 . S
H550 C554 0.929 . S
H551 C560 0.929 . S
C552 H546 0.930 1_556 S
C552 C553 1.367 1_556 S
C552 C560 1.378 . S
C553 C552 1.367 1_554 S
C553 C561 1.433 1_554 S
C554 H550 0.929 . S
C554 C556 1.378 . S
C554 C558 1.350 . S
C555 C558 1.463 . S
C555 C560 1.350 . S
C555 N563 1.427 . S
C556 H547 0.930 . S
C556 C554 1.378 . S
C556 C557 1.367 . S
C557 C556 1.367 . S
C557 C559 1.433 . S
C558 C554 1.350 . S
C558 C555 1.463 . S
C558 N562 1.427 . S
C559 H549 0.929 . S
C559 C557 1.433 . S
C559 N562 1.384 . S
C560 H551 0.929 . S
C560 C552 1.378 . S
C560 C555 1.350 . S
C561 H548 0.929 1_556 S
C561 C553 1.433 1_556 S
C561 N563 1.384 . S
N562 C558 1.427 . S
N562 C559 1.384 . S
N563 C555 1.427 . S
N563 C561 1.384 . S
H564 C570 0.930 . S
H565 C574 0.930 . S
H566 C579 0.929 . S
H567 C577 0.929 . S
H568 C572 0.929 . S
H569 C578 0.929 . S
C570 H564 0.930 . S
C570 C571 1.367 . S
C570 C578 1.378 . S
C571 C570 1.367 . S
C571 C579 1.433 . S
C572 H568 0.929 . S
C572 C574 1.378 1_554 S
C572 C576 1.350 . S
C573 C576 1.463 . S
C573 C578 1.350 . S
C573 N581 1.427 . S
C574 H565 0.930 . S
C574 C572 1.378 1_556 S
C574 C575 1.367 . S
C575 C574 1.367 . S
C575 C577 1.433 . S
C576 C572 1.350 . S
C576 C573 1.463 . S
C576 N580 1.427 . S
C577 H567 0.929 . S
C577 C575 1.433 . S
C577 N580 1.384 1_556 S
C578 H569 0.929 . S
C578 C570 1.378 . S
C578 C573 1.350 . S
C579 H566 0.929 . S
C579 C571 1.433 . S
C579 N581 1.384 . S
N580 C576 1.427 . S
N580 C577 1.384 1_554 S
N581 C573 1.427 . S
N581 C579 1.384 . S
H582 C588 0.930 . S
H583 C592 0.930 . S
H584 C597 0.929 . S
H585 C595 0.929 . S
H586 C590 0.929 . S
H587 C596 0.929 . S
C588 H582 0.930 . S
C588 C589 1.367 . S
C588 C596 1.378 . S
C589 C588 1.367 . S
C589 C597 1.433 . S
C590 H586 0.929 . S
C590 C592 1.378 . S
C590 C594 1.350 . S
C591 C594 1.463 . S
C591 C596 1.350 . S
C591 N599 1.427 . S
C592 H583 0.930 . S
C592 C590 1.378 . S
C592 C593 1.367 . S
C593 C592 1.367 . S
C593 C595 1.433 . S
C594 C590 1.350 . S
C594 C591 1.463 . S
C594 N598 1.427 . S
C595 H585 0.929 . S
C595 C593 1.433 . S
C595 N598 1.384 . S
C596 H587 0.929 . S
C596 C588 1.378 . S
C596 C591 1.350 . S
C597 H584 0.929 . S
C597 C589 1.433 . S
C597 N599 1.384 . S
N598 C594 1.427 . S
N598 C595 1.384 . S
N599 C591 1.427 . S
N599 C597 1.384 . S
H600 C606 0.930 . S
H601 C610 0.930 . S
H602 C615 0.929 . S
H603 C613 0.929 . S
H604 C608 0.929 . S
H605 C614 0.929 . S
C606 H600 0.930 . S
C606 C607 1.367 . S
C606 C614 1.378 . S
C607 C606 1.367 . S
C607 C615 1.433 . S
C608 H604 0.929 . S
C608 C610 1.378 . S
C608 C612 1.350 . S
C609 C612 1.463 . S
C609 C614 1.350 . S
C609 N617 1.427 . S
C610 H601 0.930 . S
C610 C608 1.378 . S
C610 C611 1.367 . S
C611 C610 1.367 . S
C611 C613 1.433 . S
C612 C608 1.350 . S
C612 C609 1.463 . S
C612 N616 1.427 . S
C613 H603 0.929 . S
C613 C611 1.433 . S
C613 N616 1.384 . S
C614 H605 0.929 . S
C614 C606 1.378 . S
C614 C609 1.350 . S
C615 H602 0.929 . S
C615 C607 1.433 . S
C615 N617 1.384 . S
N616 C612 1.427 . S
N616 C613 1.384 . S
N617 C609 1.427 . S
N617 C615 1.384 . S
H618 C624 0.930 . S
H619 C628 0.930 . S
H620 C633 0.929 . S
H621 C631 0.929 . S
H622 C626 0.929 . S
H623 C632 0.929 . S
C624 H618 0.930 . S
C624 C625 1.367 . S
C624 C632 1.378 . S
C625 C624 1.367 . S
C625 C633 1.433 . S
C626 H622 0.929 . S
C626 C628 1.378 . S
C626 C630 1.350 . S
C627 C630 1.463 . S
C627 C632 1.350 . S
C627 N635 1.427 . S
C628 H619 0.930 . S
C628 C626 1.378 . S
C628 C629 1.367 . S
C629 C628 1.367 . S
C629 C631 1.433 . S
C630 C626 1.350 . S
C630 C627 1.463 . S
C630 N634 1.427 . S
C631 H621 0.929 . S
C631 C629 1.433 . S
C631 N634 1.384 . S
C632 H623 0.929 . S
C632 C624 1.378 . S
C632 C627 1.350 . S
C633 H620 0.929 . S
C633 C625 1.433 . S
C633 N635 1.384 . S
N634 C630 1.427 . S
N634 C631 1.384 . S
N635 C627 1.427 . S
N635 C633 1.384 . S
H636 C642 0.930 . S
H637 C646 0.930 . S
H638 C651 0.929 . S
H639 C649 0.929 . S
H640 C644 0.929 . S
H641 C650 0.929 . S
C642 H636 0.930 . S
C642 C643 1.367 . S
C642 C650 1.378 . S
C643 C642 1.367 . S
C643 C651 1.433 . S
C644 H640 0.929 . S
C644 C646 1.378 1_556 S
C644 C648 1.350 . S
C645 C648 1.463 . S
C645 C650 1.350 . S
C645 N653 1.427 . S
C646 H637 0.930 . S
C646 C644 1.378 1_554 S
C646 C647 1.367 . S
C647 C646 1.367 . S
C647 C649 1.433 . S
C648 C644 1.350 . S
C648 C645 1.463 . S
C648 N652 1.427 . S
C649 H639 0.929 . S
C649 C647 1.433 . S
C649 N652 1.384 1_554 S
C650 H641 0.929 . S
C650 C642 1.378 . S
C650 C645 1.350 . S
C651 H638 0.929 . S
C651 C643 1.433 . S
C651 N653 1.384 . S
N652 C648 1.427 . S
N652 C649 1.384 1_556 S
N653 C645 1.427 . S
N653 C651 1.384 . S
H654 C660 0.930 . S
H655 C664 0.930 1_556 S
H656 C669 0.929 . S
H657 C667 0.929 1_556 S
H658 C662 0.929 . S
H659 C668 0.929 . S
C660 H654 0.930 . S
C660 C661 1.367 . S
C660 C668 1.378 . S
C661 C660 1.367 . S
C661 C669 1.433 . S
C662 H658 0.929 . S
C662 C664 1.378 . S
C662 C666 1.350 . S
C663 C666 1.463 . S
C663 C668 1.350 . S
C663 N671 1.427 . S
C664 H655 0.930 1_554 S
C664 C662 1.378 . S
C664 C665 1.367 1_554 S
C665 C664 1.367 1_556 S
C665 C667 1.433 1_556 S
C666 C662 1.350 . S
C666 C663 1.463 . S
C666 N670 1.427 . S
C667 H657 0.929 1_554 S
C667 C665 1.433 1_554 S
C667 N670 1.384 . S
C668 H659 0.929 . S
C668 C660 1.378 . S
C668 C663 1.350 . S
C669 H656 0.929 . S
C669 C661 1.433 . S
C669 N671 1.384 . S
N670 C666 1.427 . S
N670 C667 1.384 . S
N671 C663 1.427 . S
N671 C669 1.384 . S
H672 C678 0.930 . S
H673 C682 0.930 1_556 S
H674 C687 0.929 . S
H675 C685 0.929 1_556 S
H676 C680 0.929 . S
H677 C686 0.929 . S
C678 H672 0.930 . S
C678 C679 1.367 . S
C678 C686 1.378 . S
C679 C678 1.367 . S
C679 C687 1.433 . S
C680 H676 0.929 . S
C680 C682 1.378 . S
C680 C684 1.350 . S
C681 C684 1.463 . S
C681 C686 1.350 . S
C681 N689 1.427 . S
C682 H673 0.930 1_554 S
C682 C680 1.378 . S
C682 C683 1.367 1_554 S
C683 C682 1.367 1_556 S
C683 C685 1.433 1_556 S
C684 C680 1.350 . S
C684 C681 1.463 . S
C684 N688 1.427 . S
C685 H675 0.929 1_554 S
C685 C683 1.433 1_554 S
C685 N688 1.384 . S
C686 H677 0.929 . S
C686 C678 1.378 . S
C686 C681 1.350 . S
C687 H674 0.929 . S
C687 C679 1.433 . S
C687 N689 1.384 . S
N688 C684 1.427 . S
N688 C685 1.384 . S
N689 C681 1.427 . S
N689 C687 1.384 . S
H690 C696 0.930 . S
H691 C700 0.930 . S
H692 C705 0.929 . S
H693 C703 0.929 . S
H694 C698 0.929 . S
H695 C704 0.929 . S
C696 H690 0.930 . S
C696 C697 1.367 . S
C696 C704 1.378 . S
C697 C696 1.367 . S
C697 C705 1.433 . S
C698 H694 0.929 . S
C698 C700 1.378 . S
C698 C702 1.350 . S
C699 C702 1.463 . S
C699 C704 1.350 . S
C699 N707 1.427 . S
C700 H691 0.930 . S
C700 C698 1.378 . S
C700 C701 1.367 . S
C701 C700 1.367 . S
C701 C703 1.433 . S
C702 C698 1.350 . S
C702 C699 1.463 . S
C702 N706 1.427 . S
C703 H693 0.929 . S
C703 C701 1.433 . S
C703 N706 1.384 . S
C704 H695 0.929 . S
C704 C696 1.378 . S
C704 C699 1.350 . S
C705 H692 0.929 . S
C705 C697 1.433 . S
C705 N707 1.384 . S
N706 C702 1.427 . S
N706 C703 1.384 . S
N707 C699 1.427 . S
N707 C705 1.384 . S
H708 C714 0.930 . S
H709 C718 0.930 . S
H710 C723 0.929 . S
H711 C721 0.929 . S
H712 C716 0.929 . S
H713 C722 0.929 . S
C714 H708 0.930 . S
C714 C715 1.367 . S
C714 C722 1.378 . S
C715 C714 1.367 . S
C715 C723 1.433 . S
C716 H712 0.929 . S
C716 C718 1.378 . S
C716 C720 1.350 . S
C717 C720 1.463 . S
C717 C722 1.350 . S
C717 N725 1.427 . S
C718 H709 0.930 . S
C718 C716 1.378 . S
C718 C719 1.367 . S
C719 C718 1.367 . S
C719 C721 1.433 . S
C720 C716 1.350 . S
C720 C717 1.463 . S
C720 N724 1.427 . S
C721 H711 0.929 . S
C721 C719 1.433 . S
C721 N724 1.384 . S
C722 H713 0.929 . S
C722 C714 1.378 . S
C722 C717 1.350 . S
C723 H710 0.929 . S
C723 C715 1.433 . S
C723 N725 1.384 . S
N724 C720 1.427 . S
N724 C721 1.384 . S
N725 C717 1.427 . S
N725 C723 1.384 . S
H726 C732 0.930 . S
H727 C736 0.930 1_554 S
H728 C741 0.929 . S
H729 C739 0.929 1_554 S
H730 C734 0.929 . S
H731 C740 0.929 . S
C732 H726 0.930 . S
C732 C733 1.367 . S
C732 C740 1.378 . S
C733 C732 1.367 . S
C733 C741 1.433 . S
C734 H730 0.929 . S
C734 C736 1.378 . S
C734 C738 1.350 . S
C735 C738 1.463 . S
C735 C740 1.350 . S
C735 N743 1.427 . S
C736 H727 0.930 1_556 S
C736 C734 1.378 . S
C736 C737 1.367 1_556 S
C737 C736 1.367 1_554 S
C737 C739 1.433 1_554 S
C738 C734 1.350 . S
C738 C735 1.463 . S
C738 N742 1.427 . S
C739 H729 0.929 1_556 S
C739 C737 1.433 1_556 S
C739 N742 1.384 . S
C740 H731 0.929 . S
C740 C732 1.378 . S
C740 C735 1.350 . S
C741 H728 0.929 . S
C741 C733 1.433 . S
C741 N743 1.384 . S
N742 C738 1.427 . S
N742 C739 1.384 . S
N743 C735 1.427 . S
N743 C741 1.384 . S
H744 C750 0.930 . S
H745 C754 0.930 . S
H746 C759 0.929 . S
H747 C757 0.929 . S
H748 C752 0.929 . S
H749 C758 0.929 . S
C750 H744 0.930 . S
C750 C751 1.367 . S
C750 C758 1.378 1_556 S
C751 C750 1.367 . S
C751 C759 1.433 . S
C752 H748 0.929 . S
C752 C754 1.378 . S
C752 C756 1.350 . S
C753 C756 1.463 . S
C753 C758 1.350 . S
C753 N761 1.427 . S
C754 H745 0.930 . S
C754 C752 1.378 . S
C754 C755 1.367 . S
C755 C754 1.367 . S
C755 C757 1.433 . S
C756 C752 1.350 . S
C756 C753 1.463 . S
C756 N760 1.427 . S
C757 H747 0.929 . S
C757 C755 1.433 . S
C757 N760 1.384 . S
C758 H749 0.929 . S
C758 C750 1.378 1_554 S
C758 C753 1.350 . S
C759 H746 0.929 . S
C759 C751 1.433 . S
C759 N761 1.384 1_556 S
N760 C756 1.427 . S
N760 C757 1.384 . S
N761 C753 1.427 . S
N761 C759 1.384 1_554 S
H762 C768 0.930 . S
H763 C772 0.930 . S
H764 C777 0.929 . S
H765 C775 0.929 . S
H766 C770 0.929 . S
H767 C776 0.929 . S
C768 H762 0.930 . S
C768 C769 1.367 . S
C768 C776 1.378 . S
C769 C768 1.367 . S
C769 C777 1.433 . S
C770 H766 0.929 . S
C770 C772 1.378 . S
C770 C774 1.350 . S
C771 C774 1.463 . S
C771 C776 1.350 . S
C771 N779 1.427 . S
C772 H763 0.930 . S
C772 C770 1.378 . S
C772 C773 1.367 . S
C773 C772 1.367 . S
C773 C775 1.433 . S
C774 C770 1.350 . S
C774 C771 1.463 . S
C774 N778 1.427 . S
C775 H765 0.929 . S
C775 C773 1.433 . S
C775 N778 1.384 . S
C776 H767 0.929 . S
C776 C768 1.378 . S
C776 C771 1.350 . S
C777 H764 0.929 . S
C777 C769 1.433 . S
C777 N779 1.384 . S
N778 C774 1.427 . S
N778 C775 1.384 . S
N779 C771 1.427 . S
N779 C777 1.384 . S
H780 C786 0.930 . S
H781 C790 0.930 . S
H782 C795 0.929 . S
H783 C793 0.929 . S
H784 C788 0.929 . S
H785 C794 0.929 . S
C786 H780 0.930 . S
C786 C787 1.367 . S
C786 C794 1.378 1_554 S
C787 C786 1.367 . S
C787 C795 1.433 . S
C788 H784 0.929 . S
C788 C790 1.378 . S
C788 C792 1.350 . S
C789 C792 1.463 . S
C789 C794 1.350 . S
C789 N797 1.427 . S
C790 H781 0.930 . S
C790 C788 1.378 . S
C790 C791 1.367 . S
C791 C790 1.367 . S
C791 C793 1.433 . S
C792 C788 1.350 . S
C792 C789 1.463 . S
C792 N796 1.427 . S
C793 H783 0.929 . S
C793 C791 1.433 . S
C793 N796 1.384 . S
C794 H785 0.929 . S
C794 C786 1.378 1_556 S
C794 C789 1.350 . S
C795 H782 0.929 . S
C795 C787 1.433 . S
C795 N797 1.384 1_554 S
N796 C792 1.427 . S
N796 C793 1.384 . S
N797 C789 1.427 . S
N797 C795 1.384 1_556 S
H798 C804 0.930 . S
H799 C808 0.930 . S
H800 C813 0.929 . S
H801 C811 0.929 . S
H802 C806 0.929 . S
H803 C812 0.929 . S
C804 H798 0.930 . S
C804 C805 1.367 . S
C804 C812 1.378 . S
C805 C804 1.367 . S
C805 C813 1.433 . S
C806 H802 0.929 . S
C806 C808 1.378 . S
C806 C810 1.350 . S
C807 C810 1.463 . S
C807 C812 1.350 . S
C807 N815 1.427 . S
C808 H799 0.930 . S
C808 C806 1.378 . S
C808 C809 1.367 . S
C809 C808 1.367 . S
C809 C811 1.433 . S
C810 C806 1.350 . S
C810 C807 1.463 . S
C810 N814 1.427 . S
C811 H801 0.929 . S
C811 C809 1.433 . S
C811 N814 1.384 . S
C812 H803 0.929 . S
C812 C804 1.378 . S
C812 C807 1.350 . S
C813 H800 0.929 . S
C813 C805 1.433 . S
C813 N815 1.384 . S
N814 C810 1.427 . S
N814 C811 1.384 . S
N815 C807 1.427 . S
N815 C813 1.384 . S
H816 C822 0.930 . S
H817 C826 0.930 . S
H818 C831 0.929 . S
H819 C829 0.929 . S
H820 C824 0.929 . S
H821 C830 0.929 . S
C822 H816 0.930 . S
C822 C823 1.367 . S
C822 C830 1.378 . S
C823 C822 1.367 . S
C823 C831 1.433 . S
C824 H820 0.929 . S
C824 C826 1.378 . S
C824 C828 1.350 . S
C825 C828 1.463 1_554 S
C825 C830 1.350 . S
C825 N833 1.427 . S
C826 H817 0.930 . S
C826 C824 1.378 . S
C826 C827 1.367 . S
C827 C826 1.367 . S
C827 C829 1.433 . S
C828 C824 1.350 . S
C828 C825 1.463 1_556 S
C828 N832 1.427 . S
C829 H819 0.929 . S
C829 C827 1.433 . S
C829 N832 1.384 . S
C830 H821 0.929 . S
C830 C822 1.378 . S
C830 C825 1.350 . S
C831 H818 0.929 . S
C831 C823 1.433 . S
C831 N833 1.384 . S
N832 C828 1.427 . S
N832 C829 1.384 . S
N833 C825 1.427 . S
N833 C831 1.384 . S
H834 C840 0.930 . S
H835 C844 0.930 . S
H836 C849 0.929 . S
H837 C847 0.929 . S
H838 C842 0.929 . S
H839 C848 0.929 . S
C840 H834 0.930 . S
C840 C841 1.367 . S
C840 C848 1.378 . S
C841 C840 1.367 . S
C841 C849 1.433 . S
C842 H838 0.929 . S
C842 C844 1.378 . S
C842 C846 1.350 . S
C843 C846 1.463 . S
C843 C848 1.350 . S
C843 N851 1.427 . S
C844 H835 0.930 . S
C844 C842 1.378 . S
C844 C845 1.367 . S
C845 C844 1.367 . S
C845 C847 1.433 . S
C846 C842 1.350 . S
C846 C843 1.463 . S
C846 N850 1.427 . S
C847 H837 0.929 . S
C847 C845 1.433 . S
C847 N850 1.384 . S
C848 H839 0.929 . S
C848 C840 1.378 . S
C848 C843 1.350 . S
C849 H836 0.929 . S
C849 C841 1.433 . S
C849 N851 1.384 . S
N850 C846 1.427 . S
N850 C847 1.384 . S
N851 C843 1.427 . S
N851 C849 1.384 . S
H852 C858 0.930 . S
H853 C862 0.930 . S
H854 C867 0.929 . S
H855 C865 0.929 . S
H856 C860 0.929 . S
H857 C866 0.929 . S
C858 H852 0.930 . S
C858 C859 1.367 . S
C858 C866 1.378 . S
C859 C858 1.367 . S
C859 C867 1.433 . S
C860 H856 0.929 . S
C860 C862 1.378 . S
C860 C864 1.350 . S
C861 C864 1.463 . S
C861 C866 1.350 . S
C861 N869 1.427 . S
C862 H853 0.930 . S
C862 C860 1.378 . S
C862 C863 1.367 . S
C863 C862 1.367 . S
C863 C865 1.433 . S
C864 C860 1.350 . S
C864 C861 1.463 . S
C864 N868 1.427 . S
C865 H855 0.929 . S
C865 C863 1.433 . S
C865 N868 1.384 . S
C866 H857 0.929 . S
C866 C858 1.378 . S
C866 C861 1.350 . S
C867 H854 0.929 . S
C867 C859 1.433 . S
C867 N869 1.384 . S
N868 C864 1.427 . S
N868 C865 1.384 . S
N869 C861 1.427 . S
N869 C867 1.384 . S
H870 C876 0.930 . S
H871 C880 0.930 . S
H872 C885 0.929 . S
H873 C883 0.929 . S
H874 C878 0.929 . S
H875 C884 0.929 . S
C876 H870 0.930 . S
C876 C877 1.367 . S
C876 C884 1.378 . S
C877 C876 1.367 . S
C877 C885 1.433 . S
C878 H874 0.929 . S
C878 C880 1.378 . S
C878 C882 1.350 . S
C879 C882 1.463 . S
C879 C884 1.350 . S
C879 N887 1.427 . S
C880 H871 0.930 . S
C880 C878 1.378 . S
C880 C881 1.367 . S
C881 C880 1.367 . S
C881 C883 1.433 . S
C882 C878 1.350 . S
C882 C879 1.463 . S
C882 N886 1.427 . S
C883 H873 0.929 . S
C883 C881 1.433 . S
C883 N886 1.384 . S
C884 H875 0.929 . S
C884 C876 1.378 . S
C884 C879 1.350 . S
C885 H872 0.929 . S
C885 C877 1.433 . S
C885 N887 1.384 . S
N886 C882 1.427 . S
N886 C883 1.384 . S
N887 C879 1.427 . S
N887 C885 1.384 . S
H888 C894 0.930 . S
H889 C898 0.930 . S
H890 C903 0.929 . S
H891 C901 0.929 . S
H892 C896 0.929 . S
H893 C902 0.929 . S
C894 H888 0.930 . S
C894 C895 1.367 . S
C894 C902 1.378 . S
C895 C894 1.367 . S
C895 C903 1.433 . S
C896 H892 0.929 . S
C896 C898 1.378 . S
C896 C900 1.350 . S
C897 C900 1.463 . S
C897 C902 1.350 . S
C897 N905 1.427 . S
C898 H889 0.930 . S
C898 C896 1.378 . S
C898 C899 1.367 . S
C899 C898 1.367 . S
C899 C901 1.433 . S
C900 C896 1.350 . S
C900 C897 1.463 . S
C900 N904 1.427 . S
C901 H891 0.929 . S
C901 C899 1.433 . S
C901 N904 1.384 . S
C902 H893 0.929 . S
C902 C894 1.378 . S
C902 C897 1.350 . S
C903 H890 0.929 . S
C903 C895 1.433 . S
C903 N905 1.384 . S
N904 C900 1.427 . S
N904 C901 1.384 . S
N905 C897 1.427 . S
N905 C903 1.384 . S
H906 C912 0.930 . S
H907 C916 0.930 . S
H908 C921 0.929 . S
H909 C919 0.929 . S
H910 C914 0.929 . S
H911 C920 0.929 . S
C912 H906 0.930 . S
C912 C913 1.367 . S
C912 C920 1.378 . S
C913 C912 1.367 . S
C913 C921 1.433 . S
C914 H910 0.929 . S
C914 C916 1.378 . S
C914 C918 1.350 . S
C915 C918 1.463 . S
C915 C920 1.350 . S
C915 N923 1.427 . S
C916 H907 0.930 . S
C916 C914 1.378 . S
C916 C917 1.367 . S
C917 C916 1.367 . S
C917 C919 1.433 . S
C918 C914 1.350 . S
C918 C915 1.463 . S
C918 N922 1.427 . S
C919 H909 0.929 . S
C919 C917 1.433 . S
C919 N922 1.384 . S
C920 H911 0.929 . S
C920 C912 1.378 . S
C920 C915 1.350 . S
C921 H908 0.929 . S
C921 C913 1.433 . S
C921 N923 1.384 . S
N922 C918 1.427 . S
N922 C919 1.384 . S
N923 C915 1.427 . S
N923 C921 1.384 . S
H924 C930 0.930 . S
H925 C934 0.930 . S
H926 C939 0.929 . S
H927 C937 0.929 . S
H928 C932 0.929 . S
H929 C938 0.929 . S
C930 H924 0.930 . S
C930 C931 1.367 . S
C930 C938 1.378 . S
C931 C930 1.367 . S
C931 C939 1.433 . S
C932 H928 0.929 . S
C932 C934 1.378 . S
C932 C936 1.350 . S
C933 C936 1.463 1_545 S
C933 C938 1.350 . S
C933 N941 1.427 . S
C934 H925 0.930 . S
C934 C932 1.378 . S
C934 C935 1.367 . S
C935 C934 1.367 . S
C935 C937 1.433 . S
C936 C932 1.350 . S
C936 C933 1.463 1_565 S
C936 N940 1.427 . S
C937 H927 0.929 . S
C937 C935 1.433 . S
C937 N940 1.384 . S
C938 H929 0.929 . S
C938 C930 1.378 . S
C938 C933 1.350 . S
C939 H926 0.929 . S
C939 C931 1.433 . S
C939 N941 1.384 . S
N940 C936 1.427 . S
N940 C937 1.384 . S
N941 C933 1.427 . S
N941 C939 1.384 . S
H942 C948 0.930 . S
H943 C952 0.930 . S
H944 C957 0.929 . S
H945 C955 0.929 . S
H946 C950 0.929 . S
H947 C956 0.929 . S
C948 H942 0.930 . S
C948 C949 1.367 . S
C948 C956 1.378 . S
C949 C948 1.367 . S
C949 C957 1.433 1_554 S
C950 H946 0.929 . S
C950 C952 1.378 . S
C950 C954 1.350 . S
C951 C954 1.463 1_564 S
C951 C956 1.350 . S
C951 N959 1.427 1_554 S
C952 H943 0.930 . S
C952 C950 1.378 . S
C952 C953 1.367 . S
C953 C952 1.367 . S
C953 C955 1.433 1_556 S
C954 C950 1.350 . S
C954 C951 1.463 1_546 S
C954 N958 1.427 1_556 S
C955 H945 0.929 . S
C955 C953 1.433 1_554 S
C955 N958 1.384 . S
C956 H947 0.929 . S
C956 C948 1.378 . S
C956 C951 1.350 . S
C957 H944 0.929 . S
C957 C949 1.433 1_556 S
C957 N959 1.384 . S
N958 C954 1.427 1_554 S
N958 C955 1.384 . S
N959 C951 1.427 1_556 S
N959 C957 1.384 . S
H960 C966 0.930 . S
H961 C970 0.930 . S
H962 C975 0.929 . S
H963 C973 0.929 . S
H964 C968 0.929 . S
H965 C974 0.929 . S
C966 H960 0.930 . S
C966 C967 1.367 . S
C966 C974 1.378 . S
C967 C966 1.367 . S
C967 C975 1.433 . S
C968 H964 0.929 . S
C968 C970 1.378 . S
C968 C972 1.350 . S
C969 C972 1.463 . S
C969 C974 1.350 . S
C969 N977 1.427 . S
C970 H961 0.930 . S
C970 C968 1.378 . S
C970 C971 1.367 . S
C971 C970 1.367 . S
C971 C973 1.433 . S
C972 C968 1.350 . S
C972 C969 1.463 . S
C972 N976 1.427 . S
C973 H963 0.929 . S
C973 C971 1.433 . S
C973 N976 1.384 . S
C974 H965 0.929 . S
C974 C966 1.378 . S
C974 C969 1.350 . S
C975 H962 0.929 . S
C975 C967 1.433 . S
C975 N977 1.384 . S
N976 C972 1.427 . S
N976 C973 1.384 . S
N977 C969 1.427 . S
N977 C975 1.384 . S
H978 C984 0.930 . S
H979 C988 0.930 . S
H980 C993 0.929 . S
H981 C991 0.929 . S
H982 C986 0.929 . S
H983 C992 0.929 . S
C984 H978 0.930 . S
C984 C985 1.367 . S
C984 C992 1.378 . S
C985 C984 1.367 . S
C985 C993 1.433 . S
C986 H982 0.929 . S
C986 C988 1.378 . S
C986 C990 1.350 . S
C987 C990 1.463 . S
C987 C992 1.350 . S
C987 N995 1.427 . S
C988 H979 0.930 . S
C988 C986 1.378 . S
C988 C989 1.367 . S
C989 C988 1.367 . S
C989 C991 1.433 . S
C990 C986 1.350 . S
C990 C987 1.463 . S
C990 N994 1.427 . S
C991 H981 0.929 . S
C991 C989 1.433 . S
C991 N994 1.384 . S
C992 H983 0.929 . S
C992 C984 1.378 . S
C992 C987 1.350 . S
C993 H980 0.929 . S
C993 C985 1.433 . S
C993 N995 1.384 . S
N994 C990 1.427 . S
N994 C991 1.384 . S
N995 C987 1.427 . S
N995 C993 1.384 . S
H996 C1002 0.930 . S
H997 C1006 0.930 . S
H998 C1011 0.929 . S
H999 C1009 0.929 . S
H1000 C1004 0.929 . S
H1001 C1010 0.929 . S
C1002 H996 0.930 . S
C1002 C1003 1.367 . S
C1002 C1010 1.378 . S
C1003 C1002 1.367 . S
C1003 C1011 1.433 . S
C1004 H1000 0.929 . S
C1004 C1006 1.378 . S
C1004 C1008 1.350 . S
C1005 C1008 1.463 . S
C1005 C1010 1.350 . S
C1005 N1013 1.427 . S
C1006 H997 0.930 . S
C1006 C1004 1.378 . S
C1006 C1007 1.367 . S
C1007 C1006 1.367 . S
C1007 C1009 1.433 . S
C1008 C1004 1.350 . S
C1008 C1005 1.463 . S
C1008 N1012 1.427 . S
C1009 H999 0.929 . S
C1009 C1007 1.433 . S
C1009 N1012 1.384 . S
C1010 H1001 0.929 . S
C1010 C1002 1.378 . S
C1010 C1005 1.350 . S
C1011 H998 0.929 . S
C1011 C1003 1.433 . S
C1011 N1013 1.384 . S
N1012 C1008 1.427 . S
N1012 C1009 1.384 . S
N1013 C1005 1.427 . S
N1013 C1011 1.384 . S
H1014 C1020 0.930 . S
H1015 C1024 0.930 . S
H1016 C1029 0.929 . S
H1017 C1027 0.929 . S
H1018 C1022 0.929 . S
H1019 C1028 0.929 . S
C1020 H1014 0.930 . S
C1020 C1021 1.367 . S
C1020 C1028 1.378 1_455 S
C1021 C1020 1.367 . S
C1021 C1029 1.433 1_455 S
C1022 H1018 0.929 . S
C1022 C1024 1.378 . S
C1022 C1026 1.350 . S
C1023 C1026 1.463 . S
C1023 C1028 1.350 . S
C1023 N1031 1.427 . S
C1024 H1015 0.930 . S
C1024 C1022 1.378 . S
C1024 C1025 1.367 . S
C1025 C1024 1.367 . S
C1025 C1027 1.433 . S
C1026 C1022 1.350 . S
C1026 C1023 1.463 . S
C1026 N1030 1.427 . S
C1027 H1017 0.929 . S
C1027 C1025 1.433 . S
C1027 N1030 1.384 . S
C1028 H1019 0.929 . S
C1028 C1020 1.378 1_655 S
C1028 C1023 1.350 . S
C1029 H1016 0.929 . S
C1029 C1021 1.433 1_655 S
C1029 N1031 1.384 . S
N1030 C1026 1.427 . S
N1030 C1027 1.384 . S
N1031 C1023 1.427 . S
N1031 C1029 1.384 . S
H1032 C1038 0.930 . S
H1033 C1042 0.930 . S
H1034 C1047 0.929 . S
H1035 C1045 0.929 . S
H1036 C1040 0.929 . S
H1037 C1046 0.929 . S
C1038 H1032 0.930 . S
C1038 C1039 1.367 . S
C1038 C1046 1.378 . S
C1039 C1038 1.367 . S
C1039 C1047 1.433 . S
C1040 H1036 0.929 . S
C1040 C1042 1.378 . S
C1040 C1044 1.350 . S
C1041 C1044 1.463 . S
C1041 C1046 1.350 . S
C1041 N1049 1.427 . S
C1042 H1033 0.930 . S
C1042 C1040 1.378 . S
C1042 C1043 1.367 . S
C1043 C1042 1.367 . S
C1043 C1045 1.433 . S
C1044 C1040 1.350 . S
C1044 C1041 1.463 . S
C1044 N1048 1.427 . S
C1045 H1035 0.929 . S
C1045 C1043 1.433 . S
C1045 N1048 1.384 . S
C1046 H1037 0.929 . S
C1046 C1038 1.378 . S
C1046 C1041 1.350 . S
C1047 H1034 0.929 . S
C1047 C1039 1.433 . S
C1047 N1049 1.384 . S
N1048 C1044 1.427 . S
N1048 C1045 1.384 . S
N1049 C1041 1.427 . S
N1049 C1047 1.384 . S
H1050 C1056 0.930 . S
H1051 C1060 0.930 . S
H1052 C1065 0.929 . S
H1053 C1063 0.929 . S
H1054 C1058 0.929 . S
H1055 C1064 0.929 . S
C1056 H1050 0.930 . S
C1056 C1057 1.367 1_655 S
C1056 C1064 1.378 . S
C1057 C1056 1.367 1_455 S
C1057 C1065 1.433 . S
C1058 H1054 0.929 . S
C1058 C1060 1.378 . S
C1058 C1062 1.350 . S
C1059 C1062 1.463 . S
C1059 C1064 1.350 . S
C1059 N1067 1.427 . S
C1060 H1051 0.930 . S
C1060 C1058 1.378 . S
C1060 C1061 1.367 . S
C1061 C1060 1.367 . S
C1061 C1063 1.433 . S
C1062 C1058 1.350 . S
C1062 C1059 1.463 . S
C1062 N1066 1.427 . S
C1063 H1053 0.929 . S
C1063 C1061 1.433 . S
C1063 N1066 1.384 . S
C1064 H1055 0.929 . S
C1064 C1056 1.378 . S
C1064 C1059 1.350 . S
C1065 H1052 0.929 . S
C1065 C1057 1.433 . S
C1065 N1067 1.384 1_455 S
N1066 C1062 1.427 . S
N1066 C1063 1.384 . S
N1067 C1059 1.427 . S
N1067 C1065 1.384 1_655 S
H1068 C1074 0.930 . S
H1069 C1078 0.930 . S
H1070 C1083 0.929 . S
H1071 C1081 0.929 . S
H1072 C1076 0.929 . S
H1073 C1082 0.929 . S
C1074 H1068 0.930 . S
C1074 C1075 1.367 . S
C1074 C1082 1.378 . S
C1075 C1074 1.367 . S
C1075 C1083 1.433 . S
C1076 H1072 0.929 . S
C1076 C1078 1.378 . S
C1076 C1080 1.350 . S
C1077 C1080 1.463 . S
C1077 C1082 1.350 . S
C1077 N1085 1.427 . S
C1078 H1069 0.930 . S
C1078 C1076 1.378 . S
C1078 C1079 1.367 . S
C1079 C1078 1.367 . S
C1079 C1081 1.433 . S
C1080 C1076 1.350 . S
C1080 C1077 1.463 . S
C1080 N1084 1.427 . S
C1081 H1071 0.929 . S
C1081 C1079 1.433 . S
C1081 N1084 1.384 . S
C1082 H1073 0.929 . S
C1082 C1074 1.378 . S
C1082 C1077 1.350 . S
C1083 H1070 0.929 . S
C1083 C1075 1.433 . S
C1083 N1085 1.384 . S
N1084 C1080 1.427 . S
N1084 C1081 1.384 . S
N1085 C1077 1.427 . S
N1085 C1083 1.384 . S
H1086 C1092 0.930 . S
H1087 C1096 0.930 . S
H1088 C1101 0.929 . S
H1089 C1099 0.929 . S
H1090 C1094 0.929 . S
H1091 C1100 0.929 . S
C1092 H1086 0.930 . S
C1092 C1093 1.367 . S
C1092 C1100 1.378 . S
C1093 C1092 1.367 . S
C1093 C1101 1.433 . S
C1094 H1090 0.929 . S
C1094 C1096 1.378 . S
C1094 C1098 1.350 . S
C1095 C1098 1.463 . S
C1095 C1100 1.350 . S
C1095 N1103 1.427 . S
C1096 H1087 0.930 . S
C1096 C1094 1.378 . S
C1096 C1097 1.367 . S
C1097 C1096 1.367 . S
C1097 C1099 1.433 . S
C1098 C1094 1.350 . S
C1098 C1095 1.463 . S
C1098 N1102 1.427 . S
C1099 H1089 0.929 . S
C1099 C1097 1.433 . S
C1099 N1102 1.384 . S
C1100 H1091 0.929 . S
C1100 C1092 1.378 . S
C1100 C1095 1.350 . S
C1101 H1088 0.929 . S
C1101 C1093 1.433 . S
C1101 N1103 1.384 . S
N1102 C1098 1.427 . S
N1102 C1099 1.384 . S
N1103 C1095 1.427 . S
N1103 C1101 1.384 . S
H1104 C1110 0.930 . S
H1105 C1114 0.930 . S
H1106 C1119 0.929 . S
H1107 C1117 0.929 . S
H1108 C1112 0.929 . S
H1109 C1118 0.929 . S
C1110 H1104 0.930 . S
C1110 C1111 1.367 . S
C1110 C1118 1.378 . S
C1111 C1110 1.367 . S
C1111 C1119 1.433 1_455 S
C1112 H1108 0.929 . S
C1112 C1114 1.378 . S
C1112 C1116 1.350 . S
C1113 C1116 1.463 . S
C1113 C1118 1.350 1_655 S
C1113 N1121 1.427 . S
C1114 H1105 0.930 . S
C1114 C1112 1.378 . S
C1114 C1115 1.367 . S
C1115 C1114 1.367 . S
C1115 C1117 1.433 . S
C1116 C1112 1.350 . S
C1116 C1113 1.463 . S
C1116 N1120 1.427 . S
C1117 H1107 0.929 . S
C1117 C1115 1.433 . S
C1117 N1120 1.384 . S
C1118 H1109 0.929 . S
C1118 C1110 1.378 . S
C1118 C1113 1.350 1_455 S
C1119 H1106 0.929 . S
C1119 C1111 1.433 1_655 S
C1119 N1121 1.384 . S
N1120 C1116 1.427 . S
N1120 C1117 1.384 . S
N1121 C1113 1.427 . S
N1121 C1119 1.384 . S
H1122 C1128 0.930 . S
H1123 C1132 0.930 . S
H1124 C1137 0.929 . S
H1125 C1135 0.929 . S
H1126 C1130 0.929 . S
H1127 C1136 0.929 . S
C1128 H1122 0.930 . S
C1128 C1129 1.367 . S
C1128 C1136 1.378 . S
C1129 C1128 1.367 . S
C1129 C1137 1.433 . S
C1130 H1126 0.929 . S
C1130 C1132 1.378 . S
C1130 C1134 1.350 . S
C1131 C1134 1.463 . S
C1131 C1136 1.350 . S
C1131 N1139 1.427 . S
C1132 H1123 0.930 . S
C1132 C1130 1.378 . S
C1132 C1133 1.367 . S
C1133 C1132 1.367 . S
C1133 C1135 1.433 . S
C1134 C1130 1.350 . S
C1134 C1131 1.463 . S
C1134 N1138 1.427 . S
C1135 H1125 0.929 . S
C1135 C1133 1.433 . S
C1135 N1138 1.384 . S
C1136 H1127 0.929 . S
C1136 C1128 1.378 . S
C1136 C1131 1.350 . S
C1137 H1124 0.929 . S
C1137 C1129 1.433 . S
C1137 N1139 1.384 . S
N1138 C1134 1.427 . S
N1138 C1135 1.384 . S
N1139 C1131 1.427 . S
N1139 C1137 1.384 . S
H1140 C1146 0.930 . S
H1141 C1150 0.930 . S
H1142 C1155 0.929 . S
H1143 C1153 0.929 . S
H1144 C1148 0.929 . S
H1145 C1154 0.929 . S
C1146 H1140 0.930 . S
C1146 C1147 1.367 . S
C1146 C1154 1.378 . S
C1147 C1146 1.367 . S
C1147 C1155 1.433 . S
C1148 H1144 0.929 . S
C1148 C1150 1.378 . S
C1148 C1152 1.350 . S
C1149 C1152 1.463 . S
C1149 C1154 1.350 . S
C1149 N1157 1.427 . S
C1150 H1141 0.930 . S
C1150 C1148 1.378 . S
C1150 C1151 1.367 . S
C1151 C1150 1.367 . S
C1151 C1153 1.433 . S
C1152 C1148 1.350 . S
C1152 C1149 1.463 . S
C1152 N1156 1.427 . S
C1153 H1143 0.929 . S
C1153 C1151 1.433 . S
C1153 N1156 1.384 . S
C1154 H1145 0.929 . S
C1154 C1146 1.378 . S
C1154 C1149 1.350 . S
C1155 H1142 0.929 . S
C1155 C1147 1.433 . S
C1155 N1157 1.384 . S
N1156 C1152 1.427 . S
N1156 C1153 1.384 . S
N1157 C1149 1.427 . S
N1157 C1155 1.384 . S
H1158 C1164 0.930 . S
H1159 C1168 0.930 . S
H1160 C1173 0.929 . S
H1161 C1171 0.929 . S
H1162 C1166 0.929 . S
H1163 C1172 0.929 . S
C1164 H1158 0.930 . S
C1164 C1165 1.367 . S
C1164 C1172 1.378 . S
C1165 C1164 1.367 . S
C1165 C1173 1.433 . S
C1166 H1162 0.929 . S
C1166 C1168 1.378 . S
C1166 C1170 1.350 . S
C1167 C1170 1.463 . S
C1167 C1172 1.350 . S
C1167 N1175 1.427 . S
C1168 H1159 0.930 . S
C1168 C1166 1.378 . S
C1168 C1169 1.367 . S
C1169 C1168 1.367 . S
C1169 C1171 1.433 . S
C1170 C1166 1.350 . S
C1170 C1167 1.463 . S
C1170 N1174 1.427 . S
C1171 H1161 0.929 . S
C1171 C1169 1.433 . S
C1171 N1174 1.384 . S
C1172 H1163 0.929 . S
C1172 C1164 1.378 . S
C1172 C1167 1.350 . S
C1173 H1160 0.929 . S
C1173 C1165 1.433 . S
C1173 N1175 1.384 . S
N1174 C1170 1.427 . S
N1174 C1171 1.384 . S
N1175 C1167 1.427 . S
N1175 C1173 1.384 . S
H1176 C1182 0.930 . S
H1177 C1186 0.930 . S
H1178 C1191 0.929 . S
H1179 C1189 0.933 . S
H1180 C1184 0.929 . S
H1181 C1190 0.929 . S
C1182 H1176 0.930 . S
C1182 C1183 1.367 . S
C1182 C1190 1.378 . S
C1183 C1182 1.367 . S
C1183 C1191 1.433 . S
C1184 H1180 0.929 . S
C1184 C1186 1.378 . S
C1184 C1188 1.350 1_455 S
C1185 C1188 1.463 . S
C1185 C1190 1.350 . S
C1185 N1193 1.427 . S
C1186 H1177 0.930 . S
C1186 C1184 1.378 . S
C1186 C1187 1.367 . S
C1187 C1186 1.367 . S
C1187 C1189 1.395 1_455 S
C1188 C1184 1.350 1_655 S
C1188 C1185 1.463 . S
C1188 N1192 1.427 . S
C1189 H1179 0.933 . S
C1189 C1187 1.395 1_655 S
C1189 N1192 1.420 . S
C1190 H1181 0.929 . S
C1190 C1182 1.378 . S
C1190 C1185 1.350 . S
C1191 H1178 0.929 . S
C1191 C1183 1.433 . S
C1191 N1193 1.384 . S
N1192 C1188 1.427 . S
N1192 C1189 1.420 . S
N1193 C1185 1.427 . S
N1193 C1191 1.384 . S
H1194 C1200 0.930 . S
H1195 C1204 0.930 . S
H1196 C1209 0.929 . S
H1197 C1207 0.929 . S
H1198 C1202 0.929 . S
H1199 C1208 0.929 . S
C1200 H1194 0.930 . S
C1200 C1201 1.367 . S
C1200 C1208 1.378 . S
C1201 C1200 1.367 . S
C1201 C1209 1.433 . S
C1202 H1198 0.929 . S
C1202 C1204 1.378 . S
C1202 C1206 1.350 . S
C1203 C1206 1.463 . S
C1203 C1208 1.350 . S
C1203 N1211 1.427 . S
C1204 H1195 0.930 . S
C1204 C1202 1.378 . S
C1204 C1205 1.367 . S
C1205 C1204 1.367 . S
C1205 C1207 1.433 . S
C1206 C1202 1.350 . S
C1206 C1203 1.463 . S
C1206 N1210 1.427 . S
C1207 H1197 0.929 . S
C1207 C1205 1.433 . S
C1207 N1210 1.384 . S
C1208 H1199 0.929 . S
C1208 C1200 1.378 . S
C1208 C1203 1.350 . S
C1209 H1196 0.929 . S
C1209 C1201 1.433 . S
C1209 N1211 1.384 . S
N1210 C1206 1.427 . S
N1210 C1207 1.384 . S
N1211 C1203 1.427 . S
N1211 C1209 1.384 . S
H1212 C1218 0.930 . S
H1213 C1222 0.930 . S
H1214 C1227 0.929 . S
H1215 C1225 0.929 . S
H1216 C1220 0.929 . S
H1217 C1226 0.929 . S
C1218 H1212 0.930 . S
C1218 C1219 1.367 . S
C1218 C1226 1.378 . S
C1219 C1218 1.367 . S
C1219 C1227 1.433 . S
C1220 H1216 0.929 . S
C1220 C1222 1.378 . S
C1220 C1224 1.350 . S
C1221 C1224 1.463 . S
C1221 C1226 1.350 . S
C1221 N1229 1.427 . S
C1222 H1213 0.930 . S
C1222 C1220 1.378 . S
C1222 C1223 1.367 . S
C1223 C1222 1.367 . S
C1223 C1225 1.433 . S
C1224 C1220 1.350 . S
C1224 C1221 1.463 . S
C1224 N1228 1.427 . S
C1225 H1215 0.929 . S
C1225 C1223 1.433 . S
C1225 N1228 1.384 . S
C1226 H1217 0.929 . S
C1226 C1218 1.378 . S
C1226 C1221 1.350 . S
C1227 H1214 0.929 . S
C1227 C1219 1.433 . S
C1227 N1229 1.384 . S
N1228 C1224 1.427 . S
N1228 C1225 1.384 . S
N1229 C1221 1.427 . S
N1229 C1227 1.384 . S
H1230 C1236 0.930 . S
H1231 C1240 0.930 . S
H1232 C1245 0.929 . S
H1233 C1243 0.929 . S
H1234 C1238 0.929 . S
H1235 C1244 0.929 . S
C1236 H1230 0.930 . S
C1236 C1237 1.367 . S
C1236 C1244 1.378 . S
C1237 C1236 1.367 . S
C1237 C1245 1.433 . S
C1238 H1234 0.929 . S
C1238 C1240 1.378 . S
C1238 C1242 1.350 . S
C1239 C1242 1.463 . S
C1239 C1244 1.350 . S
C1239 N1247 1.427 . S
C1240 H1231 0.930 . S
C1240 C1238 1.378 . S
C1240 C1241 1.367 . S
C1241 C1240 1.367 . S
C1241 C1243 1.433 . S
C1242 C1238 1.350 . S
C1242 C1239 1.463 . S
C1242 N1246 1.427 . S
C1243 H1233 0.929 . S
C1243 C1241 1.433 . S
C1243 N1246 1.384 . S
C1244 H1235 0.929 . S
C1244 C1236 1.378 . S
C1244 C1239 1.350 . S
C1245 H1232 0.929 . S
C1245 C1237 1.433 . S
C1245 N1247 1.384 . S
N1246 C1242 1.427 . S
N1246 C1243 1.384 . S
N1247 C1239 1.427 . S
N1247 C1245 1.384 . S
C535 N13 1.434 . S
C539 N2 1.432 . S
C553 N46 1.439 . S
C557 N35 1.436 . S
C571 N79 1.436 . S
C575 N68 1.434 . S
C589 N112 1.444 . S
C593 N101 1.442 . S
C607 N145 1.438 . S
C611 N134 1.435 . S
C625 N178 1.435 . S
C629 N167 1.432 . S
C643 N211 1.436 . S
C647 N200 1.433 . S
C661 N233 1.432 . S
C665 N244 1.435 . S
C679 N266 1.435 . S
C683 N277 1.438 . S
C697 N310 1.440 . S
C701 N299 1.438 . S
C715 N343 1.442 . S
C719 N332 1.440 . S
C733 N365 1.441 . S
C737 N376 1.444 . S
C751 N398 1.440 . S
C755 N409 1.443 . S
C769 N442 1.447 . S
C773 N431 1.444 . S
C787 N464 1.442 . S
C791 N475 1.444 . S
C805 N508 1.434 . S
C809 N497 1.432 . S
C823 C18 1.076 . S
C827 C150 1.076 . S
C841 C183 1.077 . S
C845 C51 1.078 . S
C859 C216 1.078 . S
C863 C84 1.078 . S
C877 C117 1.077 . S
C881 C249 1.078 . S
C895 C348 1.075 . S
C899 C282 1.075 . S
C913 C315 1.079 . S
C917 C381 1.079 . S
C931 C414 1.078 . S
C935 C480 1.078 . S
C949 C447 1.078 . S
C953 C513 1.077 . S
C967 C304 1.437 . S
C971 C7 1.432 . S
C985 C469 1.436 . S
C989 C40 1.437 . S
C1003 C73 1.432 . S
C1007 C271 1.437 . S
C1021 C502 1.435 . S
C1025 C106 1.438 . S
C1039 C337 1.436 . S
C1043 C139 1.433 . S
C1057 C436 1.438 . S
C1061 C172 1.435 . S
C1075 C205 1.436 . S
C1079 C370 1.437 . S
C1093 C238 1.431 . S
C1097 C403 1.440 . S
C1111 C153 1.454 . S
C1115 C120 1.461 . S
C1129 C417 1.458 . S
C1133 C285 1.458 . S
C1147 C54 1.459 . S
C1151 C219 1.457 . S
C1165 C450 1.460 . S
C1169 C318 1.455 . S
C1183 C186 1.459 . S
C1187 C21 1.455 . S
C1201 C351 1.456 . S
C1205 C516 1.458 . S
C1219 C252 1.459 . S
C1223 C87 1.457 . S
C1237 C483 1.458 . S
C1241 C384 1.456 . S
