# Generated by pormake.
# Topology smu, (6)-cn, num edge types: 1
# Building blocks:
#     Node 0, Type 0, BuildingBlock: CIFDUS_clean_sbu_1, # of connection points: 6
#     Node 1, Type 0, BuildingBlock: CIFDUS_clean_sbu_1, # of connection points: 6
#     Node 2, Type 0, BuildingBlock: CIFDUS_clean_sbu_1, # of connection points: 6
#     Node 3, Type 0, BuildingBlock: CIFDUS_clean_sbu_1, # of connection points: 6
#     Node 4, Type 0, BuildingBlock: CIFDUS_clean_sbu_1, # of connection points: 6
#     Node 5, Type 0, BuildingBlock: CIFDUS_clean_sbu_1, # of connection points: 6
#     Edge 6, Type (0, 0), BuildingBlock: XUDNAN_clean_linker_2, # of connection points: 2
#     Edge 7, Type (0, 0), BuildingBlock: XUDNAN_clean_linker_2, # of connection points: 2
#     Edge 8, Type (0, 0), BuildingBlock: XUDNAN_clean_linker_2, # of connection points: 2
#     Edge 9, Type (0, 0), BuildingBlock: XUDNAN_clean_linker_2, # of connection points: 2
#     Edge 10, Type (0, 0), BuildingBlock: XUDNAN_clean_linker_2, # of connection points: 2
#     Edge 11, Type (0, 0), BuildingBlock: XUDNAN_clean_linker_2, # of connection points: 2
#     Edge 12, Type (0, 0), BuildingBlock: XUDNAN_clean_linker_2, # of connection points: 2
#     Edge 13, Type (0, 0), BuildingBlock: XUDNAN_clean_linker_2, # of connection points: 2
#     Edge 14, Type (0, 0), BuildingBlock: XUDNAN_clean_linker_2, # of connection points: 2
#     Edge 15, Type (0, 0), BuildingBlock: XUDNAN_clean_linker_2, # of connection points: 2
#     Edge 16, Type (0, 0), BuildingBlock: XUDNAN_clean_linker_2, # of connection points: 2
#     Edge 17, Type (0, 0), BuildingBlock: XUDNAN_clean_linker_2, # of connection points: 2
#     Edge 18, Type (0, 0), BuildingBlock: XUDNAN_clean_linker_2, # of connection points: 2
#     Edge 19, Type (0, 0), BuildingBlock: XUDNAN_clean_linker_2, # of connection points: 2
#     Edge 20, Type (0, 0), BuildingBlock: XUDNAN_clean_linker_2, # of connection points: 2
#     Edge 21, Type (0, 0), BuildingBlock: XUDNAN_clean_linker_2, # of connection points: 2
#     Edge 22, Type (0, 0), BuildingBlock: XUDNAN_clean_linker_2, # of connection points: 2
#     Edge 23, Type (0, 0), BuildingBlock: XUDNAN_clean_linker_2, # of connection points: 2
# Relax obj value: 0.259
# Max RMSD: 0.251
# Mean RMSD: 0.251
data_MOF--net-smu--node1-CIFDUS_clean_sbu_1--edge1-XUDNAN_clean_linker_2
_symmetry_space_group_name_H-M    P1
_symmetry_Int_Tables_number       1
_symmetry_cell_setting            triclinic
loop_
_symmetry_equiv_pos_as_xyz
'x, y, z'
_cell_length_a     29.300095
_cell_length_b     29.242029
_cell_length_c     29.920984
_cell_angle_alpha  89.884675
_cell_angle_beta   90.074248
_cell_angle_gamma 119.85586
loop_
_atom_site_label
_atom_site_type_symbol
_atom_site_fract_x
_atom_site_fract_y
_atom_site_fract_z
_atom_type_partial_charge
O0 O 0.26278 -0.00029 0.26777 0.0
Mn1 Mn 0.31855 0.07811 0.26037 0.0
O2 O 0.20055 0.00131 0.22487 0.0
Mn3 Mn 0.24506 0.06268 0.19296 0.0
O4 O 0.37195 0.15818 0.25063 0.0
O5 O 0.3251 0.08212 0.33065 0.0
Mn6 Mn 0.39455 0.11206 0.33292 0.0
O7 O 0.38031 0.06186 0.24772 0.0
O8 O 0.42831 0.17868 0.30725 0.0
O9 O 0.26218 0.10074 0.2748 0.0
O10 O 0.24963 0.12532 0.2095 0.0
O11 O 0.3784 0.10942 0.3904 0.0
O12 O 0.41079 0.0621 0.31488 0.0
C13 C 0.29693 0.06153 0.14742 0.0
C14 C 0.21567 0.97834 0.25272 0.0
C15 C 0.4124 0.19164 0.27249 0.0
C16 C 0.33086 0.08554 0.37466 0.0
C17 C 0.41251 0.05658 0.2733 0.0
C18 C 0.25269 0.13129 0.25108 0.0
O19 O 0.30838 0.06785 0.19055 0.0
O20 O 0.25245 0.05657 0.13462 0.0
O21 O 0.71475 0.7171 0.2812 0.0
Mn22 Mn 0.74643 0.66864 0.26626 0.0
O23 O 0.78388 0.78823 0.25775 0.0
Mn24 Mn 0.78988 0.75188 0.20968 0.0
O25 O 0.77809 0.61898 0.25342 0.0
O26 O 0.7482 0.66064 0.33557 0.0
Mn27 Mn 0.71255 0.59139 0.33849 0.0
O28 O 0.6688 0.60378 0.25574 0.0
O29 O 0.74746 0.56198 0.31042 0.0
O30 O 0.82653 0.72736 0.27562 0.0
O31 O 0.85486 0.75846 0.20782 0.0
O32 O 0.72817 0.60817 0.39572 0.0
O33 O 0.64481 0.56904 0.32308 0.0
C34 C 0.73093 0.70115 0.16463 0.0
C35 C 0.74339 0.76694 0.2816 0.0
C36 C 0.77521 0.57979 0.27536 0.0
C37 C 0.74926 0.65546 0.37934 0.0
C38 C 0.63391 0.56993 0.28248 0.0
C39 C 0.86356 0.74653 0.24629 0.0
O40 O 0.74771 0.68206 0.19682 0.0
O41 O 0.74793 0.75123 0.16599 0.0
O42 O 0.9862 0.26099 0.28899 0.0
Mn43 Mn 0.90794 0.23484 0.27358 0.0
O44 O 0.98375 0.19169 0.25818 0.0
Mn45 Mn 0.93224 0.18405 0.21754 0.0
O46 O 0.82818 0.20766 0.25735 0.0
O47 O 0.89722 0.23466 0.34044 0.0
Mn48 Mn 0.84788 0.25009 0.35005 0.0
O49 O 0.92234 0.31286 0.2684 0.0
O50 O 0.78895 0.19705 0.32359 0.0
O51 O 0.8835 0.1543 0.2863 0.0
O52 O 0.86891 0.1227 0.21947 0.0
O53 O 0.86823 0.2412 0.40589 0.0
O54 O 0.87315 0.31638 0.32517 0.0
C55 C 0.94594 0.23391 0.16638 0.0
C56 C 0.0062 0.23154 0.28333 0.0
C57 C 0.78657 0.19025 0.28157 0.0
C58 C 0.90082 0.23241 0.38352 0.0
C59 C 0.90317 0.33693 0.29126 0.0
C60 C 0.85647 0.11603 0.25982 0.0
O61 O 0.92441 0.24025 0.20331 0.0
O62 O 0.9603 0.1986 0.1646 0.0
O63 O 0.07481 0.396 0.76493 0.0
Mn64 Mn 0.08378 0.32829 0.7526 0.0
O65 O 0.07117 0.41706 0.69697 0.0
Mn66 Mn 0.12745 0.40689 0.68611 0.0
O67 O 0.10574 0.27058 0.7366 0.0
O68 O 0.06272 0.31484 0.82354 0.0
Mn69 Mn 0.06004 0.25525 0.80346 0.0
O70 O 0.00553 0.28082 0.73505 0.0
O71 O 0.12364 0.25859 0.80334 0.0
O72 O 0.16237 0.37443 0.77081 0.0
O73 O 0.19012 0.43651 0.71865 0.0
O74 O 0.03268 0.23393 0.85547 0.0
O75 O 0.00719 0.21242 0.76326 0.0
C76 C 0.10993 0.35054 0.63991 0.0
C77 C 0.07192 0.4281 0.73728 0.0
C78 C 0.13457 0.26166 0.76303 0.0
C79 C 0.04028 0.28137 0.85761 0.0
C80 C 0.98444 0.23119 0.73983 0.0
C81 C 0.19868 0.41632 0.75283 0.0
O82 O 0.09733 0.33781 0.6825 0.0
O83 O 0.13787 0.39998 0.62944 0.0
O84 O 0.32861 0.94096 0.76834 0.0
Mn85 Mn 0.24747 0.91604 0.75752 0.0
O86 O 0.36219 0.94222 0.7014 0.0
Mn87 Mn 0.29687 0.89593 0.67953 0.0
O88 O 0.16607 0.88617 0.74387 0.0
O89 O 0.24537 0.92003 0.8281 0.0
Mn90 Mn 0.18693 0.92496 0.82844 0.0
O91 O 0.26237 0.99294 0.75444 0.0
O92 O 0.12779 0.86578 0.8093 0.0
O93 O 0.23097 0.83734 0.76179 0.0
O94 O 0.26807 0.82798 0.69972 0.0
O95 O 0.19868 0.92364 0.88637 0.0
O96 O 0.20271 0.98955 0.80338 0.0
C97 C 0.2543 0.92159 0.64345 0.0
C98 C 0.36796 0.95059 0.74296 0.0
C99 C 0.12452 0.86034 0.76766 0.0
C100 C 0.23952 0.92204 0.87191 0.0
C101 C 0.2382 0.01368 0.77389 0.0
C102 C 0.24265 0.80971 0.73589 0.0
O103 O 0.25224 0.91907 0.6876 0.0
O104 O 0.28315 0.90582 0.62334 0.0
O105 O 0.60627 0.68211 0.76338 0.0
Mn106 Mn 0.66764 0.75985 0.7498 0.0
O107 O 0.54634 0.66778 0.7096 0.0
Mn108 Mn 0.58182 0.73171 0.68061 0.0
O109 O 0.71977 0.83961 0.72798 0.0
O110 O 0.6855 0.7616 0.82209 0.0
Mn111 Mn 0.74089 0.81448 0.79232 0.0
O112 O 0.71952 0.73178 0.73425 0.0
O113 O 0.73871 0.87526 0.79265 0.0
O114 O 0.61738 0.79089 0.76574 0.0
O115 O 0.57356 0.78564 0.70285 0.0
O116 O 0.77109 0.81225 0.84081 0.0
O117 O 0.78512 0.80835 0.75147 0.0
C118 C 0.64591 0.74752 0.63883 0.0
C119 C 0.56141 0.65298 0.74395 0.0
C120 C 0.73308 0.88036 0.75215 0.0
C121 C 0.72414 0.77734 0.85228 0.0
C122 C 0.76883 0.76424 0.73362 0.0
C123 C 0.58847 0.80343 0.74194 0.0
O124 O 0.64926 0.75109 0.68253 0.0
O125 O 0.60003 0.73406 0.62235 0.0
H126 H 0.23182 0.87428 0.95072 0.0
H127 H 0.33697 0.00981 0.87152 0.0
H128 H 0.38122 0.05816 0.94048 0.0
H129 H 0.20456 0.93758 0.02535 0.0
H130 H 0.20044 0.89923 0.074 0.0
H131 H 0.18957 0.87011 0.01964 0.0
H132 H 0.26311 0.84708 0.03293 0.0
H133 H 0.27387 0.87562 0.08801 0.0
H134 H 0.32791 0.89811 0.04925 0.0
H135 H 0.39451 0.09954 0.01773 0.0
H136 H 0.3789 0.12574 0.09238 0.0
H137 H 0.26757 0.96293 0.12225 0.0
C138 C 0.26691 0.9126 0.94779 0.0
C139 C 0.28198 0.9375 0.90551 0.0
C140 C 0.32607 0.989 0.90317 0.0
C141 C 0.35088 0.01713 0.94249 0.0
C142 C 0.33194 0.9929 0.98403 0.0
C143 C 0.29171 0.94103 0.98674 0.0
C144 C 0.27266 0.92617 0.03458 0.0
C145 C 0.21337 0.90724 0.03857 0.0
C146 C 0.28515 0.88426 0.05224 0.0
C147 C 0.30587 0.97851 0.05808 0.0
C148 C 0.34058 0.0165 0.02868 0.0
C149 C 0.36921 0.06958 0.0414 0.0
C150 C 0.36067 0.08424 0.0842 0.0
C151 C 0.32409 0.04607 0.11406 0.0
C152 C 0.29811 0.99245 0.10116 0.0
H153 H 0.65913 0.78465 0.55448 0.0
H154 H 0.7212 0.71788 0.64928 0.0
H155 H 0.77706 0.71259 0.58991 0.0
H156 H 0.63685 0.69642 0.47439 0.0
H157 H 0.6512 0.73992 0.42715 0.0
H158 H 0.63023 0.75434 0.47888 0.0
H159 H 0.71438 0.84667 0.48019 0.0
H160 H 0.73533 0.83183 0.42822 0.0
H161 H 0.77809 0.8517 0.47628 0.0
H162 H 0.81644 0.7033 0.51869 0.0
H163 H 0.81882 0.67047 0.44369 0.0
H164 H 0.7209 0.73102 0.3929 0.0
C165 C 0.68652 0.77137 0.56324 0.0
C166 C 0.68821 0.75465 0.6074 0.0
C167 C 0.72201 0.73444 0.61683 0.0
C168 C 0.75343 0.73078 0.58292 0.0
C169 C 0.75026 0.74707 0.53956 0.0
C170 C 0.71693 0.76631 0.52958 0.0
C171 C 0.71195 0.77063 0.47934 0.0
C172 C 0.65416 0.73836 0.46408 0.0
C173 C 0.73639 0.82866 0.46518 0.0
C174 C 0.74469 0.74727 0.46232 0.0
C175 C 0.76882 0.7368 0.49764 0.0
C176 C 0.79832 0.71203 0.49091 0.0
C177 C 0.8 0.69407 0.44789 0.0
C178 C 0.77063 0.69881 0.41229 0.0
C179 C 0.74519 0.72851 0.41901 0.0
H180 H 0.9108 0.18222 0.0907 0.0
H181 H 0.99004 0.34087 0.14326 0.0
H182 H 0.01605 0.37607 0.06558 0.0
H183 H 0.01851 0.211 0.02347 0.0
H184 H 0.97936 0.16265 0.98201 0.0
H185 H 0.95796 0.15312 0.03923 0.0
H186 H 0.86891 0.1449 0.01538 0.0
H187 H 0.88963 0.15329 0.95797 0.0
H188 H 0.86871 0.19632 0.98211 0.0
H189 H 0.04469 0.39003 0.97762 0.0
H190 H 0.0691 0.37933 0.89963 0.0
H191 H 0.97127 0.20987 0.9143 0.0
C192 C 0.93158 0.22461 0.08588 0.0
C193 C 0.94722 0.25877 0.12281 0.0
C194 C 0.97628 0.31394 0.11523 0.0
C195 C 0.99183 0.33409 0.07119 0.0
C196 C 0.97873 0.2984 0.03562 0.0
C197 C 0.94911 0.24464 0.04335 0.0
C198 C 0.94712 0.21284 1.00333 0.0
C199 C 0.9775 0.18319 0.01257 0.0
C200 C 0.8902 0.17465 0.98883 0.0
C201 C 0.97601 0.25639 0.97003 0.0
C202 C 0.99576 0.30591 0.98851 0.0
C203 C 0.02863 0.35114 0.96317 0.0
C204 C 0.04215 0.34489 0.91875 0.0
C205 C 0.02256 0.29378 0.90046 0.0
C206 C 0.98765 0.24984 0.92655 0.0
H207 H 0.33164 0.12226 0.45688 0.0
H208 H 0.23758 0.98915 0.3708 0.0
H209 H 0.18764 0.93712 0.43716 0.0
H210 H 0.3551 0.05366 0.53244 0.0
H211 H 0.35621 0.09095 0.58076 0.0
H212 H 0.37106 0.12143 0.52673 0.0
H213 H 0.29728 0.14506 0.53632 0.0
H214 H 0.28217 0.11437 0.59075 0.0
H215 H 0.23122 0.09384 0.54908 0.0
H216 H 0.16262 0.89452 0.51464 0.0
H217 H 0.17098 0.86466 0.58981 0.0
H218 H 0.28669 0.0242 0.62508 0.0
C219 C 0.29867 0.08297 0.45162 0.0
C220 C 0.2879 0.06019 0.4084 0.0
C221 C 0.2456 0.0081 0.40319 0.0
C222 C 0.21737 0.97816 0.44099 0.0
C223 C 0.23181 0.00094 0.48367 0.0
C224 C 0.27148 0.05256 0.48886 0.0
C225 C 0.28694 0.06562 0.53764 0.0
C226 C 0.34574 0.08391 0.54477 0.0
C227 C 0.27359 0.10719 0.55444 0.0
C228 C 0.25178 0.01258 0.55941 0.0
C229 C 0.2189 0.97617 0.52802 0.0
C230 C 0.18714 0.92317 0.53946 0.0
C231 C 0.19147 0.90658 0.58271 0.0
C232 C 0.22809 0.94236 0.61408 0.0
C233 C 0.2564 0.99645 0.60282 0.0
H234 H 0.64306 0.6911 0.90707 0.0
H235 H 0.79346 0.83764 0.91446 0.0
H236 H 0.8121 0.81168 0.98506 0.0
H237 H 0.62238 0.71468 0.02797 0.0
H238 H 0.58467 0.64589 0.04291 0.0
H239 H 0.58266 0.66644 0.98648 0.0
H240 H 0.61069 0.60079 0.9578 0.0
H241 H 0.61445 0.58128 0.01436 0.0
H242 H 0.67083 0.60548 0.97809 0.0
H243 H 0.82718 0.75966 0.04162 0.0
H244 H 0.8171 0.72838 0.11863 0.0
H245 H 0.6471 0.64476 0.10259 0.0
C246 C 0.67969 0.71767 0.92363 0.0
C247 C 0.71963 0.76369 0.90145 0.0
C248 C 0.76445 0.79925 0.92706 0.0
C249 C 0.77603 0.78508 0.96775 0.0
C250 C 0.74001 0.73724 0.9859 0.0
C251 C 0.69026 0.70703 0.96809 0.0
C252 C 0.65535 0.66661 1.00366 0.0
C253 C 0.60849 0.67388 0.016 0.0
C254 C 0.63667 0.61018 0.98748 0.0
C255 C 0.69417 0.68058 0.04292 0.0
C256 C 0.74361 0.71754 0.02886 0.0
C257 C 0.78838 0.73235 0.0544 0.0
C258 C 0.78216 0.7133 0.09793 0.0
C259 C 0.73146 0.68557 0.11748 0.0
C260 C 0.68645 0.66631 0.08891 0.0
H261 H 0.00033 0.30923 0.39708 0.0
H262 H 0.88812 0.14806 0.43133 0.0
H263 H 0.93965 0.1547 0.49905 0.0
H264 H 0.12343 0.31783 0.44773 0.0
H265 H 0.144 0.38342 0.46771 0.0
H266 H 0.10704 0.36052 0.41649 0.0
H267 H 0.03842 0.38323 0.44824 0.0
H268 H 0.07424 0.40489 0.49976 0.0
H269 H 0.00606 0.35404 0.50034 0.0
H270 H 0.99147 0.18756 0.57315 0.0
H271 H 0.04257 0.24083 0.63909 0.0
H272 H 0.12028 0.37809 0.5529 0.0
C273 C 0.98902 0.27422 0.41702 0.0
C274 C 0.94163 0.22748 0.4081 0.0
C275 C 0.9256 0.18352 0.43675 0.0
C276 C 0.95431 0.18725 0.47566 0.0
C277 C -0.00097 0.23534 0.48547 0.0
C278 C 0.01683 0.27775 0.45623 0.0
C279 C 0.0602 0.32743 0.47711 0.0
C280 C 0.11173 0.3485 0.45068 0.0
C281 C 0.04372 0.36982 0.48161 0.0
C282 C 0.06409 0.3066 0.52238 0.0
C283 C 0.02841 0.25367 0.52735 0.0
C284 C 0.02062 0.22876 0.56909 0.0
C285 C 0.04954 0.25914 0.60646 0.0
C286 C 0.0856 0.31363 0.6016 0.0
C287 C 0.09381 0.33643 0.55842 0.0
H288 H 0.50048 0.13483 0.30643 0.0
H289 H 0.44566 0.01534 0.20317 0.0
H290 H 0.53943 0.04262 0.18549 0.0
H291 H 0.61809 0.23509 0.25635 0.0
H292 H 0.65262 0.25162 0.309 0.0
H293 H 0.5826 0.22578 0.30787 0.0
H294 H 0.5694 0.1507 0.36218 0.0
H295 H 0.63925 0.17635 0.36357 0.0
H296 H 0.59595 0.1088 0.34764 0.0
H297 H 0.64441 0.08141 0.18714 0.0
H298 H 0.73944 0.12297 0.20835 0.0
H299 H 0.71449 0.21257 0.31085 0.0
C300 C 0.50764 0.11414 0.27977 0.0
C301 C 0.46587 0.07226 0.25674 0.0
C302 C 0.4773 0.0473 0.22151 0.0
C303 C 0.53035 0.06263 0.21139 0.0
C304 C 0.57067 0.10305 0.23662 0.0
C305 C 0.559 0.12821 0.26999 0.0
C306 C 0.60656 0.1668 0.29585 0.0
C307 C 0.61548 0.22315 0.29197 0.0
C308 C 0.60253 0.14962 0.34517 0.0
C309 C 0.64802 0.16097 0.27155 0.0
C310 C 0.62769 0.12409 0.23757 0.0
C311 C 0.66029 0.11054 0.21349 0.0
C312 C 0.71413 0.13427 0.22558 0.0
C313 C 0.73391 0.17031 0.26165 0.0
C314 C 0.70051 0.18475 0.28337 0.0
H315 H 0.56373 0.49139 0.33481 0.0
H316 H 0.60018 0.53366 0.19501 0.0
H317 H 0.53839 0.44004 0.17444 0.0
H318 H 0.58463 0.38531 0.31945 0.0
H319 H 0.54099 0.34737 0.3642 0.0
H320 H 0.5748 0.4182 0.36619 0.0
H321 H 0.48581 0.4166 0.3743 0.0
H322 H 0.45166 0.3457 0.37312 0.0
H323 H 0.4344 0.38144 0.33379 0.0
H324 H 0.47391 0.33526 0.17253 0.0
H325 H 0.42686 0.23872 0.18882 0.0
H326 H 0.45647 0.27267 0.33011 0.0
C327 C 0.55807 0.48217 0.29949 0.0
C328 C 0.58682 0.52067 0.26655 0.0
C329 C 0.57804 0.5054 0.22097 0.0
C330 C 0.54343 0.45207 0.20911 0.0
C331 C 0.5196 0.41458 0.24328 0.0
C332 C 0.52786 0.42963 0.28758 0.0
C333 C 0.50857 0.38327 0.31891 0.0
C334 C 0.55498 0.38359 0.34362 0.0
C335 C 0.46764 0.38167 0.35194 0.0
C336 C 0.48439 0.33885 0.28587 0.0
C337 C 0.49034 0.35682 0.24226 0.0
C338 C 0.46979 0.32128 0.20661 0.0
C339 C 0.44315 0.2666 0.21609 0.0
C340 C 0.43884 0.24834 0.26068 0.0
C341 C 0.45978 0.28527 0.2956 0.0
H342 H 0.90091 0.40922 0.34498 0.0
H343 H 0.91442 0.37837 0.20554 0.0
H344 H 0.89478 0.44902 0.18389 0.0
H345 H 0.7875 0.41143 0.32818 0.0
H346 H 0.79882 0.4585 0.37162 0.0
H347 H 0.82781 0.41714 0.37574 0.0
H348 H 0.92089 0.4994 0.3829 0.0
H349 H 0.89198 0.54113 0.37978 0.0
H350 H 0.94331 0.55078 0.34126 0.0
H351 H 0.85813 0.51544 0.17908 0.0
H352 H 0.81025 0.56496 0.19228 0.0
H353 H 0.81593 0.54167 0.33481 0.0
C354 C 0.90201 0.41864 0.30981 0.0
C355 C 0.90978 0.3886 0.277 0.0
C356 C 0.90971 0.4016 0.23135 0.0
C357 C 0.89798 0.44135 0.21882 0.0
C358 C 0.88635 0.46737 0.25234 0.0
C359 C 0.88873 0.4563 0.29701 0.0
C360 C 0.86641 0.4817 0.32696 0.0
C361 C 0.81727 0.43971 0.35206 0.0
C362 C 0.90817 0.52059 0.35963 0.0
C363 C 0.85179 0.50983 0.29262 0.0
C364 C 0.86342 0.50185 0.2496 0.0
C365 C 0.84948 0.52214 0.21279 0.0
C366 C 0.82238 0.55025 0.22047 0.0
C367 C 0.80887 0.55666 0.26452 0.0
C368 C 0.82516 0.53714 0.30061 0.0
H369 H 0.05997 0.5002 0.79368 0.0
H370 H 0.15878 0.49103 0.69003 0.0
H371 H 0.22072 0.58218 0.69754 0.0
H372 H 0.06883 0.61319 0.74528 0.0
H373 H 0.07059 0.6477 0.79572 0.0
H374 H 0.03949 0.57689 0.79598 0.0
H375 H 0.09969 0.58147 0.86126 0.0
H376 H 0.13123 0.65253 0.86102 0.0
H377 H 0.17009 0.62073 0.85524 0.0
H378 H 0.27156 0.67186 0.71004 0.0
H379 H 0.29725 0.76428 0.70853 0.0
H380 H 0.16027 0.73179 0.78862 0.0
C381 C 0.09582 0.5174 0.77418 0.0
C382 C 0.10691 0.48579 0.74504 0.0
C383 C 0.15181 0.51126 0.71687 0.0
C384 C 0.18748 0.5643 0.72012 0.0
C385 C 0.1768 0.59391 0.74953 0.0
C386 C 0.13123 0.5727 0.77469 0.0
C387 C 0.12561 0.61756 0.79523 0.0
C388 C 0.07299 0.61359 0.78223 0.0
C389 C 0.13199 0.61809 0.84623 0.0
C390 C 0.17259 0.66583 0.77419 0.0
C391 C 0.20283 0.65013 0.75069 0.0
C392 C 0.24816 0.68502 0.72798 0.0
C393 C 0.26216 0.73766 0.72711 0.0
C394 C 0.22999 0.75533 0.74725 0.0
C395 C 0.18543 0.71933 0.77274 0.0
H396 H 0.37715 0.88461 0.80172 0.0
H397 H 0.46775 0.02127 0.71802 0.0
H398 H 0.54311 0.00581 0.72137 0.0
H399 H 0.49691 0.89526 0.86782 0.0
H400 H 0.46678 0.82446 0.86887 0.0
H401 H 0.42633 0.85497 0.87105 0.0
H402 H 0.37414 0.80009 0.80231 0.0
H403 H 0.41477 0.77025 0.79926 0.0
H404 H 0.4089 0.80449 0.75135 0.0
H405 H 0.60047 0.96529 0.71976 0.0
H406 H 0.63547 0.90419 0.71452 0.0
H407 H 0.50769 0.79094 0.797 0.0
C408 C 0.41421 0.91341 0.78694 0.0
C409 C 0.41729 0.95554 0.76117 0.0
C410 C 0.46526 0.9902 0.73947 0.0
C411 C 0.50814 0.98128 0.74082 0.0
C412 C 0.5028 0.93757 0.76425 0.0
C413 C 0.45732 0.9046 0.78762 0.0
C414 C 0.45899 0.85647 0.80496 0.0
C415 C 0.46244 0.85785 0.85622 0.0
C416 C 0.41141 0.80482 0.78843 0.0
C417 C 0.51025 0.86525 0.78456 0.0
C418 C 0.53576 0.91324 0.76253 0.0
C419 C 0.58171 0.92851 0.73815 0.0
C420 C 0.60156 0.89368 0.73556 0.0
C421 C 0.57551 0.84385 0.75687 0.0
C422 C 0.52966 0.8298 0.7822 0.0
H423 H 0.27965 0.43391 0.7003 0.0
H424 H 0.24167 0.45104 0.83665 0.0
H425 H 0.33725 0.50056 0.85511 0.0
H426 H 0.39812 0.42156 0.72608 0.0
H427 H 0.43124 0.45815 0.67649 0.0
H428 H 0.36054 0.41765 0.67706 0.0
H429 H 0.35113 0.49806 0.6539 0.0
H430 H 0.4214 0.53833 0.65249 0.0
H431 H 0.38321 0.55745 0.68685 0.0
H432 H 0.43749 0.5627 0.85324 0.0
H433 H 0.52782 0.63041 0.83107 0.0
H434 H 0.49884 0.56485 0.69778 0.0
C435 C 0.29155 0.44687 0.73439 0.0
C436 C 0.25383 0.43872 0.76719 0.0
C437 C 0.27032 0.45651 0.8113 0.0
C438 C 0.32443 0.48455 0.82195 0.0
C439 C 0.36103 0.49299 0.78832 0.0
C440 C 0.34486 0.47382 0.74555 0.0
C441 C 0.39087 0.4917 0.71404 0.0
C442 C 0.39548 0.44445 0.69746 0.0
C443 C 0.38638 0.52327 0.67456 0.0
C444 C 0.4358 0.52636 0.74497 0.0
C445 C 0.41825 0.52636 0.78791 0.0
C446 C 0.4519 0.56168 0.82019 0.0
C447 C 0.50353 0.59969 0.80755 0.0
C448 C 0.52066 0.60214 0.76298 0.0
C449 C 0.48728 0.5628 0.73244 0.0
H450 H 0.17771 0.10744 0.31487 0.0
H451 H 0.28719 0.23267 0.22826 0.0
H452 H 0.24724 0.28672 0.24868 0.0
H453 H 0.07223 0.10907 0.2813 0.0
H454 H 0.03805 0.09578 0.33398 0.0
H455 H 0.08581 0.07549 0.32551 0.0
H456 H 0.13643 0.12813 0.39586 0.0
H457 H 0.08866 0.14918 0.40408 0.0
H458 H 0.15757 0.19738 0.39973 0.0
H459 H 0.1846 0.31794 0.26354 0.0
H460 H 0.10006 0.31743 0.26307 0.0
H461 H 0.02755 0.17101 0.33708 0.0
C462 C 0.19475 0.14736 0.30225 0.0
C463 C 0.23604 0.16664 0.27091 0.0
C464 C 0.25602 0.21784 0.25297 0.0
C465 C 0.23381 0.24892 0.26466 0.0
C466 C 0.19139 0.22812 0.29422 0.0
C467 C 0.17204 0.17839 0.31289 0.0
C468 C 0.11995 0.16076 0.33611 0.0
C469 C 0.0765 0.10719 0.31808 0.0
C470 C 0.12603 0.15874 0.38697 0.0
C471 C 0.11042 0.20556 0.3235 0.0
C472 C 0.15341 0.24549 0.30157 0.0
C473 C 0.15134 0.2878 0.28185 0.0
C474 C 0.1033 0.28756 0.28204 0.0
C475 C 0.05804 0.24472 0.30092 0.0
C476 C 0.06238 0.20494 0.32389 0.0
H477 H 0.92623 0.81277 0.31171 0.0
H478 H 0.92169 0.71211 0.20408 0.0
H479 H 0.01682 0.74558 0.21283 0.0
H480 H 0.02993 0.91944 0.27786 0.0
H481 H 0.0604 0.94649 0.33104 0.0
H482 H 0.99104 0.90174 0.32826 0.0
H483 H 0.00065 0.84115 0.38637 0.0
H484 H 0.07071 0.88592 0.38884 0.0
H485 H 0.04577 0.81736 0.37587 0.0
H486 H 0.11131 0.80383 0.21832 0.0
H487 H 0.1964 0.88673 0.21509 0.0
H488 H 0.14348 0.95377 0.31731 0.0
C489 C 0.94524 0.79619 0.29174 0.0
C490 C 0.91725 0.75948 0.25783 0.0
C491 C 0.94293 0.73989 0.2306 0.0
C492 C 0.99676 0.75832 0.23568 0.0
C493 C 0.02436 0.79656 0.26804 0.0
C494 C -0.00055 0.81524 0.29586 0.0
C495 C 0.03925 0.86377 0.32107 0.0
C496 C 0.02959 0.91057 0.31405 0.0
C497 C 0.03907 0.85129 0.371 0.0
C498 C 0.08973 0.87301 0.2991 0.0
C499 C 0.0806 0.83208 0.27055 0.0
C500 C 0.11946 0.83516 0.24172 0.0
C501 C 0.16777 0.88223 0.24015 0.0
C502 C 0.17632 0.92539 0.26695 0.0
C503 C 0.138 0.92006 0.29806 0.0
H504 H 0.87134 0.05854 0.32426 0.0
H505 H 0.7587 0.05268 0.22765 0.0
H506 H 0.69999 0.95835 0.2441 0.0
H507 H 0.86699 0.94874 0.28907 0.0
H508 H 0.87517 0.92521 0.34257 0.0
H509 H 0.89896 0.99413 0.3345 0.0
H510 H 0.84259 0.9937 0.40184 0.0
H511 H 0.81939 0.9244 0.40966 0.0
H512 H 0.77293 0.94728 0.40268 0.0
H513 H 0.66315 0.86337 0.25801 0.0
H514 H 0.65981 0.77742 0.2579 0.0
H515 H 0.79713 0.84145 0.34293 0.0
C516 C 0.83308 0.03766 0.30841 0.0
C517 C 0.81851 0.06278 0.27578 0.0
C518 C 0.76969 0.03411 0.25358 0.0
C519 C 0.73601 0.98059 0.26294 0.0
C520 C 0.75197 0.95603 0.2943 0.0
C521 C 0.79966 0.98364 0.31653 0.0
C522 C 0.81293 0.94638 0.34105 0.0
C523 C 0.86661 0.95405 0.32583 0.0
C524 C 0.81186 0.95336 0.39183 0.0
C525 C 0.76751 0.89356 0.32634 0.0
C526 C 0.73141 0.89994 0.30116 0.0
C527 C 0.69014 0.85761 0.27878 0.0
C528 C 0.68796 0.80853 0.27936 0.0
C529 C 0.72745 0.80275 0.30134 0.0
C530 C 0.7654 0.84467 0.32745 0.0
H531 H 0.127 0.19041 0.69981 0.0
H532 H 0.22989 0.3005 0.79958 0.0
H533 H 0.28466 0.25865 0.7988 0.0
H534 H 0.1153 0.08453 0.74096 0.0
H535 H 0.11841 0.05107 0.69148 0.0
H536 H 0.09859 0.09978 0.687 0.0
H537 H 0.17289 0.15222 0.62947 0.0
H538 H 0.19255 0.10284 0.63344 0.0
H539 H 0.23988 0.17117 0.64336 0.0
H540 H 0.3089 0.19048 0.80628 0.0
H541 H 0.30591 0.10494 0.81519 0.0
H542 H 0.19178 0.03908 0.7084 0.0
C543 C 0.16312 0.20761 0.71899 0.0
C544 C 0.17489 0.24883 0.74925 0.0
C545 C 0.22091 0.26925 0.77574 0.0
C546 C 0.25233 0.24578 0.77546 0.0
C547 C 0.2378 0.20251 0.74778 0.0
C548 C 0.19522 0.18448 0.71887 0.0
C549 C 0.18341 0.13255 0.69791 0.0
C550 C 0.12554 0.0895 0.70484 0.0
C551 C 0.19805 0.14016 0.64808 0.0
C552 C 0.22091 0.12104 0.72398 0.0
C553 C 0.25345 0.16287 0.7513 0.0
C554 C 0.28559 0.15845 0.78354 0.0
C555 C 0.28366 0.10986 0.78851 0.0
C556 C 0.24992 0.06671 0.76138 0.0
C557 C 0.21936 0.07264 0.72805 0.0
H558 H 0.03225 0.79425 0.81027 0.0
H559 H 0.095 0.86316 0.6805 0.0
H560 H 0.00416 0.82614 0.65162 0.0
H561 H 0.9113 0.67282 0.76936 0.0
H562 H 0.87237 0.67555 0.81479 0.0
H563 H 0.94153 0.69889 0.82279 0.0
H564 H 0.95591 0.78969 0.84868 0.0
H565 H 0.88695 0.76627 0.84147 0.0
H566 H 0.93459 0.8253 0.81307 0.0
H567 H 0.90907 0.80004 0.64272 0.0
H568 H 0.82038 0.78702 0.6545 0.0
H569 H 0.81616 0.72609 0.78676 0.0
C570 C 0.02703 0.80032 0.77535 0.0
C571 C 0.07095 0.83154 0.74757 0.0
C572 C 0.06217 0.83902 0.70231 0.0
C573 C 0.0106 0.81803 0.68564 0.0
C574 C 0.96819 0.78876 0.71437 0.0
C575 C 0.97599 0.77941 0.75821 0.0
C576 C 0.92444 0.75198 0.78376 0.0
C577 C 0.91166 0.6965 0.79853 0.0
C578 C 0.92557 0.78531 0.82407 0.0
C579 C 0.88643 0.74938 0.74805 0.0
C580 C 0.91235 0.77033 0.70808 0.0
C581 C 0.88767 0.78089 0.67289 0.0
C582 C 0.83642 0.77208 0.67934 0.0
C583 C 0.80936 0.75116 0.72 0.0
C584 C 0.83433 0.73817 0.75413 0.0
H585 H 0.90115 0.17968 0.79236 0.0
H586 H 0.95103 0.19511 0.65482 0.0
H587 H 0.87432 0.10786 0.63783 0.0
H588 H 0.88084 0.06127 0.80394 0.0
H589 H 0.82537 0.03544 0.84141 0.0
H590 H 0.87044 0.10493 0.83954 0.0
H591 H 0.7949 0.12369 0.82124 0.0
H592 H 0.74882 0.05395 0.82461 0.0
H593 H 0.75127 0.09032 0.77509 0.0
H594 H 0.80891 0.01041 0.64166 0.0
H595 H 0.75987 0.91652 0.66521 0.0
H596 H 0.75326 0.9659 0.8004 0.0
C597 C 0.89359 0.1661 0.75804 0.0
C598 C 0.93091 0.19419 0.72462 0.0
C599 C 0.922 0.17457 0.68051 0.0
C600 C 0.87855 0.12486 0.67072 0.0
C601 C 0.8445 0.09584 0.70547 0.0
C602 C 0.85104 0.11648 0.74821 0.0
C603 C 0.81685 0.07472 0.78175 0.0
C604 C 0.85037 0.06876 0.81876 0.0
C605 C 0.77548 0.08638 0.80182 0.0
C606 C 0.79172 0.02694 0.75177 0.0
C607 C 0.80731 0.03955 0.70777 0.0
C608 C 0.79504 0.00029 0.6757 0.0
C609 C 0.7673 0.94709 0.68927 0.0
C610 C 0.75282 0.9341 0.73451 0.0
C611 C 0.76342 0.9746 0.76541 0.0
loop_
_geom_bond_atom_site_label_1
_geom_bond_atom_site_label_2
_geom_bond_distance
_geom_bond_site_symmetry_2
_ccdc_geom_bond_type
O0 Mn1 2.163 . S
O0 C14 1.244 1_545 S
Mn1 O0 2.163 . S
Mn1 O4 2.160 . S
Mn1 O5 2.221 . S
Mn1 O7 2.163 . S
Mn1 O9 2.160 . S
Mn1 O19 2.221 . S
O2 Mn3 2.087 1_565 S
O2 C14 1.256 . S
Mn3 O2 2.087 1_545 S
Mn3 O10 2.089 . S
Mn3 O19 2.290 . S
Mn3 O20 2.251 . S
O4 Mn1 2.160 . S
O4 C15 1.239 . S
O5 Mn1 2.221 . S
O5 Mn6 2.290 . S
O5 C16 1.278 . S
Mn6 O5 2.290 . S
Mn6 O8 2.089 . S
Mn6 O11 2.251 . S
Mn6 O12 2.087 . S
O7 Mn1 2.163 . S
O7 C17 1.244 . S
O8 Mn6 2.089 . S
O8 C15 1.256 . S
O9 Mn1 2.160 . S
O9 C18 1.239 . S
O10 Mn3 2.089 . S
O10 C18 1.256 . S
O11 Mn6 2.251 . S
O11 C16 1.241 . S
O12 Mn6 2.087 . S
O12 C17 1.256 . S
C13 O19 1.278 . S
C13 O20 1.241 . S
C14 O0 1.244 1_565 S
C14 O2 1.256 . S
C15 O4 1.239 . S
C15 O8 1.256 . S
C16 O5 1.278 . S
C16 O11 1.241 . S
C17 O7 1.244 . S
C17 O12 1.256 . S
C18 O9 1.239 . S
C18 O10 1.256 . S
O19 Mn1 2.221 . S
O19 Mn3 2.290 . S
O19 C13 1.278 . S
O20 Mn3 2.251 . S
O20 C13 1.241 . S
O21 Mn22 2.163 . S
O21 C35 1.244 . S
Mn22 O21 2.163 . S
Mn22 O25 2.160 . S
Mn22 O26 2.221 . S
Mn22 O28 2.163 . S
Mn22 O30 2.160 . S
Mn22 O40 2.221 . S
O23 Mn24 2.087 . S
O23 C35 1.256 . S
Mn24 O23 2.087 . S
Mn24 O31 2.089 . S
Mn24 O40 2.290 . S
Mn24 O41 2.251 . S
O25 Mn22 2.160 . S
O25 C36 1.239 . S
O26 Mn22 2.221 . S
O26 Mn27 2.290 . S
O26 C37 1.278 . S
Mn27 O26 2.290 . S
Mn27 O29 2.089 . S
Mn27 O32 2.251 . S
Mn27 O33 2.087 . S
O28 Mn22 2.163 . S
O28 C38 1.244 . S
O29 Mn27 2.089 . S
O29 C36 1.256 . S
O30 Mn22 2.160 . S
O30 C39 1.239 . S
O31 Mn24 2.089 . S
O31 C39 1.256 . S
O32 Mn27 2.251 . S
O32 C37 1.241 . S
O33 Mn27 2.087 . S
O33 C38 1.256 . S
C34 O40 1.278 . S
C34 O41 1.241 . S
C35 O21 1.244 . S
C35 O23 1.256 . S
C36 O25 1.239 . S
C36 O29 1.256 . S
C37 O26 1.278 . S
C37 O32 1.241 . S
C38 O28 1.244 . S
C38 O33 1.256 . S
C39 O30 1.239 . S
C39 O31 1.256 . S
O40 Mn22 2.221 . S
O40 Mn24 2.290 . S
O40 C34 1.278 . S
O41 Mn24 2.251 . S
O41 C34 1.241 . S
O42 Mn43 2.163 . S
O42 C56 1.244 1_655 S
Mn43 O42 2.163 . S
Mn43 O46 2.160 . S
Mn43 O47 2.221 . S
Mn43 O49 2.163 . S
Mn43 O51 2.160 . S
Mn43 O61 2.221 . S
O44 Mn45 2.087 1_455 S
O44 C56 1.256 . S
Mn45 O44 2.087 1_655 S
Mn45 O52 2.089 . S
Mn45 O61 2.290 . S
Mn45 O62 2.251 . S
O46 Mn43 2.160 . S
O46 C57 1.239 . S
O47 Mn43 2.221 . S
O47 Mn48 2.290 . S
O47 C58 1.278 . S
Mn48 O47 2.290 . S
Mn48 O50 2.089 . S
Mn48 O53 2.251 . S
Mn48 O54 2.087 . S
O49 Mn43 2.163 . S
O49 C59 1.244 . S
O50 Mn48 2.089 . S
O50 C57 1.256 . S
O51 Mn43 2.160 . S
O51 C60 1.239 . S
O52 Mn45 2.089 . S
O52 C60 1.256 . S
O53 Mn48 2.251 . S
O53 C58 1.241 . S
O54 Mn48 2.087 . S
O54 C59 1.256 . S
C55 O61 1.278 . S
C55 O62 1.241 . S
C56 O42 1.244 1_455 S
C56 O44 1.256 . S
C57 O46 1.239 . S
C57 O50 1.256 . S
C58 O47 1.278 . S
C58 O53 1.241 . S
C59 O49 1.244 . S
C59 O54 1.256 . S
C60 O51 1.239 . S
C60 O52 1.256 . S
O61 Mn43 2.221 . S
O61 Mn45 2.290 . S
O61 C55 1.278 . S
O62 Mn45 2.251 . S
O62 C55 1.241 . S
O63 Mn64 2.163 . S
O63 C77 1.244 . S
Mn64 O63 2.163 . S
Mn64 O67 2.160 . S
Mn64 O68 2.221 . S
Mn64 O70 2.163 . S
Mn64 O72 2.160 . S
Mn64 O82 2.221 . S
O65 Mn66 2.087 . S
O65 C77 1.256 . S
Mn66 O65 2.087 . S
Mn66 O73 2.089 . S
Mn66 O82 2.290 . S
Mn66 O83 2.251 . S
O67 Mn64 2.160 . S
O67 C78 1.239 . S
O68 Mn64 2.221 . S
O68 Mn69 2.290 . S
O68 C79 1.278 . S
Mn69 O68 2.290 . S
Mn69 O71 2.089 . S
Mn69 O74 2.251 . S
Mn69 O75 2.087 1_455 S
O70 Mn64 2.163 . S
O70 C80 1.244 1_455 S
O71 Mn69 2.089 . S
O71 C78 1.256 . S
O72 Mn64 2.160 . S
O72 C81 1.239 . S
O73 Mn66 2.089 . S
O73 C81 1.256 . S
O74 Mn69 2.251 . S
O74 C79 1.241 . S
O75 Mn69 2.087 1_655 S
O75 C80 1.256 . S
C76 O82 1.278 . S
C76 O83 1.241 . S
C77 O63 1.244 . S
C77 O65 1.256 . S
C78 O67 1.239 . S
C78 O71 1.256 . S
C79 O68 1.278 . S
C79 O74 1.241 . S
C80 O70 1.244 1_655 S
C80 O75 1.256 . S
C81 O72 1.239 . S
C81 O73 1.256 . S
O82 Mn64 2.221 . S
O82 Mn66 2.290 . S
O82 C76 1.278 . S
O83 Mn66 2.251 . S
O83 C76 1.241 . S
O84 Mn85 2.163 . S
O84 C98 1.244 . S
Mn85 O84 2.163 . S
Mn85 O88 2.160 . S
Mn85 O89 2.221 . S
Mn85 O91 2.163 . S
Mn85 O93 2.160 . S
Mn85 O103 2.221 . S
O86 Mn87 2.087 . S
O86 C98 1.256 . S
Mn87 O86 2.087 . S
Mn87 O94 2.089 . S
Mn87 O103 2.290 . S
Mn87 O104 2.251 . S
O88 Mn85 2.160 . S
O88 C99 1.239 . S
O89 Mn85 2.221 . S
O89 Mn90 2.290 . S
O89 C100 1.278 . S
Mn90 O89 2.290 . S
Mn90 O92 2.089 . S
Mn90 O95 2.251 . S
Mn90 O96 2.087 1_565 S
O91 Mn85 2.163 . S
O91 C101 1.244 1_565 S
O92 Mn90 2.089 . S
O92 C99 1.256 . S
O93 Mn85 2.160 . S
O93 C102 1.239 . S
O94 Mn87 2.089 . S
O94 C102 1.256 . S
O95 Mn90 2.251 . S
O95 C100 1.241 . S
O96 Mn90 2.087 1_545 S
O96 C101 1.256 . S
C97 O103 1.278 . S
C97 O104 1.241 . S
C98 O84 1.244 . S
C98 O86 1.256 . S
C99 O88 1.239 . S
C99 O92 1.256 . S
C100 O89 1.278 . S
C100 O95 1.241 . S
C101 O91 1.244 1_545 S
C101 O96 1.256 . S
C102 O93 1.239 . S
C102 O94 1.256 . S
O103 Mn85 2.221 . S
O103 Mn87 2.290 . S
O103 C97 1.278 . S
O104 Mn87 2.251 . S
O104 C97 1.241 . S
O105 Mn106 2.163 . S
O105 C119 1.244 . S
Mn106 O105 2.163 . S
Mn106 O109 2.160 . S
Mn106 O110 2.221 . S
Mn106 O112 2.163 . S
Mn106 O114 2.160 . S
Mn106 O124 2.221 . S
O107 Mn108 2.087 . S
O107 C119 1.256 . S
Mn108 O107 2.087 . S
Mn108 O115 2.089 . S
Mn108 O124 2.290 . S
Mn108 O125 2.251 . S
O109 Mn106 2.160 . S
O109 C120 1.239 . S
O110 Mn106 2.221 . S
O110 Mn111 2.290 . S
O110 C121 1.278 . S
Mn111 O110 2.290 . S
Mn111 O113 2.089 . S
Mn111 O116 2.251 . S
Mn111 O117 2.087 . S
O112 Mn106 2.163 . S
O112 C122 1.244 . S
O113 Mn111 2.089 . S
O113 C120 1.256 . S
O114 Mn106 2.160 . S
O114 C123 1.239 . S
O115 Mn108 2.089 . S
O115 C123 1.256 . S
O116 Mn111 2.251 . S
O116 C121 1.241 . S
O117 Mn111 2.087 . S
O117 C122 1.256 . S
C118 O124 1.278 . S
C118 O125 1.241 . S
C119 O105 1.244 . S
C119 O107 1.256 . S
C120 O109 1.239 . S
C120 O113 1.256 . S
C121 O110 1.278 . S
C121 O116 1.241 . S
C122 O112 1.244 . S
C122 O117 1.256 . S
C123 O114 1.239 . S
C123 O115 1.256 . S
O124 Mn106 2.221 . S
O124 Mn108 2.290 . S
O124 C118 1.278 . S
O125 Mn108 2.251 . S
O125 C118 1.241 . S
H126 C138 0.930 . S
H127 C140 0.930 . S
H128 C141 0.930 . S
H129 C145 0.959 . S
H130 C145 0.959 . S
H131 C145 0.961 . S
H132 C146 0.960 . S
H133 C146 0.961 . S
H134 C146 0.959 . S
H135 C149 0.929 1_556 S
H136 C150 0.931 . S
H137 C152 0.928 1_565 S
C138 H126 0.930 . S
C138 C139 1.399 . S
C138 C143 1.399 . S
C139 C138 1.399 . S
C139 C140 1.376 . S
C140 H127 0.930 . S
C140 C139 1.376 . S
C140 C141 1.388 1_565 S
C141 H128 0.930 . S
C141 C140 1.388 1_545 S
C141 C142 1.390 . S
C142 C141 1.390 . S
C142 C143 1.394 1_545 S
C142 C148 1.465 1_556 S
C143 C138 1.399 . S
C143 C142 1.394 1_565 S
C143 C144 1.516 1_556 S
C144 C143 1.516 1_554 S
C144 C145 1.502 . S
C144 C146 1.561 . S
C144 C147 1.526 1_565 S
C145 H129 0.959 . S
C145 H130 0.959 . S
C145 H131 0.961 . S
C145 C144 1.502 . S
C146 H132 0.960 . S
C146 H133 0.961 . S
C146 H134 0.959 . S
C146 C144 1.561 . S
C147 C144 1.526 1_545 S
C147 C148 1.396 . S
C147 C152 1.390 . S
C148 C142 1.465 1_554 S
C148 C147 1.396 . S
C148 C149 1.399 . S
C149 H135 0.929 1_554 S
C149 C148 1.399 . S
C149 C150 1.385 . S
C150 H136 0.931 . S
C150 C149 1.385 . S
C150 C151 1.389 . S
C151 C150 1.389 . S
C151 C152 1.387 . S
C152 H137 0.928 1_545 S
C152 C147 1.390 . S
C152 C151 1.387 . S
H153 C165 0.930 . S
H154 C167 0.930 . S
H155 C168 0.930 . S
H156 C172 0.959 . S
H157 C172 0.959 . S
H158 C172 0.961 . S
H159 C173 0.960 . S
H160 C173 0.961 . S
H161 C173 0.959 . S
H162 C176 0.929 . S
H163 C177 0.931 . S
H164 C179 0.930 . S
C165 H153 0.930 . S
C165 C166 1.399 . S
C165 C170 1.399 . S
C166 C165 1.399 . S
C166 C167 1.376 . S
C167 H154 0.930 . S
C167 C166 1.376 . S
C167 C168 1.388 . S
C168 H155 0.930 . S
C168 C167 1.388 . S
C168 C169 1.390 . S
C169 C168 1.390 . S
C169 C170 1.394 . S
C169 C175 1.465 . S
C170 C165 1.399 . S
C170 C169 1.394 . S
C170 C171 1.516 . S
C171 C170 1.516 . S
C171 C172 1.502 . S
C171 C173 1.561 . S
C171 C174 1.526 . S
C172 H156 0.959 . S
C172 H157 0.959 . S
C172 H158 0.961 . S
C172 C171 1.502 . S
C173 H159 0.960 . S
C173 H160 0.961 . S
C173 H161 0.959 . S
C173 C171 1.561 . S
C174 C171 1.526 . S
C174 C175 1.396 . S
C174 C179 1.390 . S
C175 C169 1.465 . S
C175 C174 1.396 . S
C175 C176 1.399 . S
C176 H162 0.929 . S
C176 C175 1.399 . S
C176 C177 1.385 . S
C177 H163 0.931 . S
C177 C176 1.385 . S
C177 C178 1.389 . S
C178 C177 1.389 . S
C178 C179 1.387 . S
C179 H164 0.930 . S
C179 C174 1.390 . S
C179 C178 1.387 . S
H180 C192 0.930 . S
H181 C194 0.930 . S
H182 C195 0.930 . S
H183 C199 0.959 . S
H184 C199 0.959 1_556 S
H185 C199 0.961 1_655 S
H186 C200 0.960 . S
H187 C200 0.961 . S
H188 C200 0.959 . S
H189 C203 0.929 . S
H190 C204 0.931 . S
H191 C206 0.930 . S
C192 H180 0.930 . S
C192 C193 1.399 . S
C192 C197 1.399 . S
C193 C192 1.399 . S
C193 C194 1.376 . S
C194 H181 0.930 . S
C194 C193 1.376 . S
C194 C195 1.388 . S
C195 H182 0.930 . S
C195 C194 1.388 . S
C195 C196 1.390 . S
C196 C195 1.390 . S
C196 C197 1.394 . S
C196 C202 1.465 1_654 S
C197 C192 1.399 . S
C197 C196 1.394 . S
C197 C198 1.516 1_554 S
C198 C197 1.516 1_556 S
C198 C199 1.502 1_656 S
C198 C200 1.561 . S
C198 C201 1.526 1_655 S
C199 H183 0.959 . S
C199 H184 0.959 1_554 S
C199 H185 0.961 1_455 S
C199 C198 1.502 1_454 S
C200 H186 0.960 . S
C200 H187 0.961 . S
C200 H188 0.959 . S
C200 C198 1.561 . S
C201 C198 1.526 1_455 S
C201 C202 1.396 . S
C201 C206 1.390 . S
C202 C196 1.465 1_456 S
C202 C201 1.396 . S
C202 C203 1.399 . S
C203 H189 0.929 . S
C203 C202 1.399 . S
C203 C204 1.385 . S
C204 H190 0.931 . S
C204 C203 1.385 . S
C204 C205 1.389 . S
C205 C204 1.389 . S
C205 C206 1.387 . S
C206 H191 0.930 . S
C206 C201 1.390 . S
C206 C205 1.387 . S
H207 C219 0.930 . S
H208 C221 0.930 1_565 S
H209 C222 0.930 . S
H210 C226 0.959 . S
H211 C226 0.959 . S
H212 C226 0.961 . S
H213 C227 0.960 . S
H214 C227 0.961 . S
H215 C227 0.959 . S
H216 C230 0.929 . S
H217 C231 0.931 . S
H218 C233 0.930 1_545 S
C219 H207 0.930 . S
C219 C220 1.399 . S
C219 C224 1.399 . S
C220 C219 1.399 . S
C220 C221 1.376 . S
C221 H208 0.930 1_545 S
C221 C220 1.376 . S
C221 C222 1.388 1_545 S
C222 H209 0.930 . S
C222 C221 1.388 1_565 S
C222 C223 1.390 . S
C223 C222 1.390 . S
C223 C224 1.394 1_565 S
C223 C229 1.465 . S
C224 C219 1.399 . S
C224 C223 1.394 1_545 S
C224 C225 1.516 . S
C225 C224 1.516 . S
C225 C226 1.502 . S
C225 C227 1.561 . S
C225 C228 1.526 . S
C226 H210 0.959 . S
C226 H211 0.959 . S
C226 H212 0.961 . S
C226 C225 1.502 . S
C227 H213 0.960 . S
C227 H214 0.961 . S
C227 H215 0.959 . S
C227 C225 1.561 . S
C228 C225 1.526 . S
C228 C229 1.396 1_545 S
C228 C233 1.390 1_545 S
C229 C223 1.465 . S
C229 C228 1.396 1_565 S
C229 C230 1.399 . S
C230 H216 0.929 . S
C230 C229 1.399 . S
C230 C231 1.385 . S
C231 H217 0.931 . S
C231 C230 1.385 . S
C231 C232 1.389 . S
C232 C231 1.389 . S
C232 C233 1.387 . S
C233 H218 0.930 1_565 S
C233 C228 1.390 1_565 S
C233 C232 1.387 . S
H234 C246 0.930 . S
H235 C248 0.930 . S
H236 C249 0.930 . S
H237 C253 0.959 . S
H238 C253 0.959 . S
H239 C253 0.961 . S
H240 C254 0.960 . S
H241 C254 0.961 1_554 S
H242 C254 0.959 . S
H243 C257 0.929 . S
H244 C258 0.931 . S
H245 C260 0.930 . S
C246 H234 0.930 . S
C246 C247 1.399 . S
C246 C251 1.399 . S
C247 C246 1.399 . S
C247 C248 1.376 . S
C248 H235 0.930 . S
C248 C247 1.376 . S
C248 C249 1.388 . S
C249 H236 0.930 . S
C249 C248 1.388 . S
C249 C250 1.390 . S
C250 C249 1.390 . S
C250 C251 1.394 . S
C250 C256 1.465 1_556 S
C251 C246 1.399 . S
C251 C250 1.394 . S
C251 C252 1.516 1_556 S
C252 C251 1.516 1_554 S
C252 C253 1.502 . S
C252 C254 1.561 1_554 S
C252 C255 1.526 . S
C253 H237 0.959 . S
C253 H238 0.959 . S
C253 H239 0.961 . S
C253 C252 1.502 . S
C254 H240 0.960 . S
C254 H241 0.961 1_556 S
C254 H242 0.959 . S
C254 C252 1.561 1_556 S
C255 C252 1.526 . S
C255 C256 1.396 . S
C255 C260 1.390 . S
C256 C250 1.465 1_554 S
C256 C255 1.396 . S
C256 C257 1.399 . S
C257 H243 0.929 . S
C257 C256 1.399 . S
C257 C258 1.385 . S
C258 H244 0.931 . S
C258 C257 1.385 . S
C258 C259 1.389 . S
C259 C258 1.389 . S
C259 C260 1.387 . S
C260 H245 0.930 . S
C260 C255 1.390 . S
C260 C259 1.387 . S
H261 C273 0.930 . S
H262 C275 0.930 . S
H263 C276 0.930 . S
H264 C280 0.959 . S
H265 C280 0.959 . S
H266 C280 0.961 . S
H267 C281 0.960 . S
H268 C281 0.961 1_455 S
H269 C281 0.959 . S
H270 C284 0.929 1_655 S
H271 C285 0.931 . S
H272 C287 0.930 . S
C273 H261 0.930 . S
C273 C274 1.399 . S
C273 C278 1.399 . S
C274 C273 1.399 . S
C274 C275 1.376 . S
C275 H262 0.930 . S
C275 C274 1.376 . S
C275 C276 1.388 . S
C276 H263 0.930 . S
C276 C275 1.388 . S
C276 C277 1.390 . S
C277 C276 1.390 . S
C277 C278 1.394 . S
C277 C283 1.475 . S
C278 C273 1.399 . S
C278 C277 1.394 . S
C278 C279 1.516 1_655 S
C279 C278 1.516 1_455 S
C279 C280 1.502 . S
C279 C281 1.561 1_455 S
C279 C282 1.526 . S
C280 H264 0.959 . S
C280 H265 0.959 . S
C280 H266 0.961 . S
C280 C279 1.502 . S
C281 H267 0.960 . S
C281 H268 0.961 1_655 S
C281 H269 0.959 . S
C281 C279 1.561 1_655 S
C282 C279 1.526 . S
C282 C283 1.396 1_455 S
C282 C287 1.390 . S
C283 C277 1.475 . S
C283 C282 1.396 1_655 S
C283 C284 1.386 1_655 S
C284 H270 0.929 1_455 S
C284 C283 1.386 1_455 S
C284 C285 1.390 . S
C285 H271 0.931 . S
C285 C284 1.390 . S
C285 C286 1.389 . S
C286 C285 1.389 . S
C286 C287 1.387 . S
C287 H272 0.930 . S
C287 C282 1.390 . S
C287 C286 1.387 . S
H288 C300 0.930 . S
H289 C302 0.930 . S
H290 C303 0.930 . S
H291 C307 0.959 . S
H292 C307 0.959 . S
H293 C307 0.961 . S
H294 C308 0.960 . S
H295 C308 0.961 . S
H296 C308 0.959 . S
H297 C311 0.929 . S
H298 C312 0.931 . S
H299 C314 0.930 . S
C300 H288 0.930 . S
C300 C301 1.399 . S
C300 C305 1.399 . S
C301 C300 1.399 . S
C301 C302 1.376 . S
C302 H289 0.930 . S
C302 C301 1.376 . S
C302 C303 1.388 . S
C303 H290 0.930 . S
C303 C302 1.388 . S
C303 C304 1.390 . S
C304 C303 1.390 . S
C304 C305 1.394 . S
C304 C310 1.465 . S
C305 C300 1.399 . S
C305 C304 1.394 . S
C305 C306 1.516 . S
C306 C305 1.516 . S
C306 C307 1.502 . S
C306 C308 1.561 . S
C306 C309 1.526 . S
C307 H291 0.959 . S
C307 H292 0.959 . S
C307 H293 0.961 . S
C307 C306 1.502 . S
C308 H294 0.960 . S
C308 H295 0.961 . S
C308 H296 0.959 . S
C308 C306 1.561 . S
C309 C306 1.526 . S
C309 C310 1.396 . S
C309 C314 1.390 . S
C310 C304 1.465 . S
C310 C309 1.396 . S
C310 C311 1.399 . S
C311 H297 0.929 . S
C311 C310 1.399 . S
C311 C312 1.385 . S
C312 H298 0.931 . S
C312 C311 1.385 . S
C312 C313 1.389 . S
C313 C312 1.389 . S
C313 C314 1.387 . S
C314 H299 0.930 . S
C314 C309 1.390 . S
C314 C313 1.387 . S
H315 C327 0.930 . S
H316 C329 0.930 . S
H317 C330 0.930 . S
H318 C334 0.959 . S
H319 C334 0.959 . S
H320 C334 0.961 . S
H321 C335 0.960 . S
H322 C335 0.961 . S
H323 C335 0.959 . S
H324 C338 0.929 . S
H325 C339 0.931 . S
H326 C341 0.930 . S
C327 H315 0.930 . S
C327 C328 1.399 . S
C327 C332 1.399 . S
C328 C327 1.399 . S
C328 C329 1.376 . S
C329 H316 0.930 . S
C329 C328 1.376 . S
C329 C330 1.388 . S
C330 H317 0.930 . S
C330 C329 1.388 . S
C330 C331 1.390 . S
C331 C330 1.390 . S
C331 C332 1.394 . S
C331 C337 1.465 . S
C332 C327 1.399 . S
C332 C331 1.394 . S
C332 C333 1.516 . S
C333 C332 1.516 . S
C333 C334 1.502 . S
C333 C335 1.561 . S
C333 C336 1.526 . S
C334 H318 0.959 . S
C334 H319 0.959 . S
C334 H320 0.961 . S
C334 C333 1.502 . S
C335 H321 0.960 . S
C335 H322 0.961 . S
C335 H323 0.959 . S
C335 C333 1.561 . S
C336 C333 1.526 . S
C336 C337 1.396 . S
C336 C341 1.390 . S
C337 C331 1.465 . S
C337 C336 1.396 . S
C337 C338 1.399 . S
C338 H324 0.929 . S
C338 C337 1.399 . S
C338 C339 1.385 . S
C339 H325 0.931 . S
C339 C338 1.385 . S
C339 C340 1.389 . S
C340 C339 1.389 . S
C340 C341 1.387 . S
C341 H326 0.930 . S
C341 C336 1.390 . S
C341 C340 1.387 . S
H342 C354 0.930 . S
H343 C356 0.930 . S
H344 C357 0.930 . S
H345 C361 0.959 . S
H346 C361 0.959 . S
H347 C361 0.961 . S
H348 C362 0.960 . S
H349 C362 0.961 . S
H350 C362 0.959 . S
H351 C365 0.929 . S
H352 C366 0.931 . S
H353 C368 0.930 . S
C354 H342 0.930 . S
C354 C355 1.399 . S
C354 C359 1.399 . S
C355 C354 1.399 . S
C355 C356 1.376 . S
C356 H343 0.930 . S
C356 C355 1.376 . S
C356 C357 1.388 . S
C357 H344 0.930 . S
C357 C356 1.388 . S
C357 C358 1.390 . S
C358 C357 1.390 . S
C358 C359 1.394 . S
C358 C364 1.465 . S
C359 C354 1.399 . S
C359 C358 1.394 . S
C359 C360 1.516 . S
C360 C359 1.516 . S
C360 C361 1.502 . S
C360 C362 1.561 . S
C360 C363 1.526 . S
C361 H345 0.959 . S
C361 H346 0.959 . S
C361 H347 0.961 . S
C361 C360 1.502 . S
C362 H348 0.960 . S
C362 H349 0.961 . S
C362 H350 0.959 . S
C362 C360 1.561 . S
C363 C360 1.526 . S
C363 C364 1.396 . S
C363 C368 1.390 . S
C364 C358 1.465 . S
C364 C363 1.396 . S
C364 C365 1.399 . S
C365 H351 0.929 . S
C365 C364 1.399 . S
C365 C366 1.385 . S
C366 H352 0.931 . S
C366 C365 1.385 . S
C366 C367 1.389 . S
C367 C366 1.389 . S
C367 C368 1.387 . S
C368 H353 0.930 . S
C368 C363 1.390 . S
C368 C367 1.387 . S
H369 C381 0.930 . S
H370 C383 0.930 . S
H371 C384 0.930 . S
H372 C388 0.959 . S
H373 C388 0.959 . S
H374 C388 0.961 . S
H375 C389 0.960 . S
H376 C389 0.961 . S
H377 C389 0.959 . S
H378 C392 0.929 . S
H379 C393 0.931 . S
H380 C395 0.930 . S
C381 H369 0.930 . S
C381 C382 1.399 . S
C381 C386 1.399 . S
C382 C381 1.399 . S
C382 C383 1.376 . S
C383 H370 0.930 . S
C383 C382 1.376 . S
C383 C384 1.388 . S
C384 H371 0.930 . S
C384 C383 1.388 . S
C384 C385 1.390 . S
C385 C384 1.390 . S
C385 C386 1.394 . S
C385 C391 1.465 . S
C386 C381 1.399 . S
C386 C385 1.394 . S
C386 C387 1.516 . S
C387 C386 1.516 . S
C387 C388 1.502 . S
C387 C389 1.561 . S
C387 C390 1.526 . S
C388 H372 0.959 . S
C388 H373 0.959 . S
C388 H374 0.961 . S
C388 C387 1.502 . S
C389 H375 0.960 . S
C389 H376 0.961 . S
C389 H377 0.959 . S
C389 C387 1.561 . S
C390 C387 1.526 . S
C390 C391 1.396 . S
C390 C395 1.390 . S
C391 C385 1.465 . S
C391 C390 1.396 . S
C391 C392 1.399 . S
C392 H378 0.929 . S
C392 C391 1.399 . S
C392 C393 1.385 . S
C393 H379 0.931 . S
C393 C392 1.385 . S
C393 C394 1.389 . S
C394 C393 1.389 . S
C394 C395 1.387 . S
C395 H380 0.930 . S
C395 C390 1.390 . S
C395 C394 1.387 . S
H396 C408 0.930 . S
H397 C410 0.930 . S
H398 C411 0.930 . S
H399 C415 0.959 . S
H400 C415 0.959 . S
H401 C415 0.961 . S
H402 C416 0.960 . S
H403 C416 0.961 . S
H404 C416 0.959 . S
H405 C419 0.929 . S
H406 C420 0.931 . S
H407 C422 0.930 . S
C408 H396 0.930 . S
C408 C409 1.399 . S
C408 C413 1.399 . S
C409 C408 1.399 . S
C409 C410 1.376 . S
C410 H397 0.930 . S
C410 C409 1.376 . S
C410 C411 1.388 . S
C411 H398 0.930 . S
C411 C410 1.388 . S
C411 C412 1.390 . S
C412 C411 1.390 . S
C412 C413 1.394 . S
C412 C418 1.465 . S
C413 C408 1.399 . S
C413 C412 1.394 . S
C413 C414 1.516 . S
C414 C413 1.516 . S
C414 C415 1.502 . S
C414 C416 1.561 . S
C414 C417 1.526 . S
C415 H399 0.959 . S
C415 H400 0.959 . S
C415 H401 0.961 . S
C415 C414 1.502 . S
C416 H402 0.960 . S
C416 H403 0.961 . S
C416 H404 0.959 . S
C416 C414 1.561 . S
C417 C414 1.526 . S
C417 C418 1.396 . S
C417 C422 1.390 . S
C418 C412 1.465 . S
C418 C417 1.396 . S
C418 C419 1.399 . S
C419 H405 0.929 . S
C419 C418 1.399 . S
C419 C420 1.385 . S
C420 H406 0.931 . S
C420 C419 1.385 . S
C420 C421 1.389 . S
C421 C420 1.389 . S
C421 C422 1.387 . S
C422 H407 0.930 . S
C422 C417 1.390 . S
C422 C421 1.387 . S
H423 C435 0.930 . S
H424 C437 0.930 . S
H425 C438 0.930 . S
H426 C442 0.959 . S
H427 C442 0.959 . S
H428 C442 0.961 . S
H429 C443 0.960 . S
H430 C443 0.961 . S
H431 C443 0.959 . S
H432 C446 0.929 . S
H433 C447 0.931 . S
H434 C449 0.930 . S
C435 H423 0.930 . S
C435 C436 1.399 . S
C435 C440 1.399 . S
C436 C435 1.399 . S
C436 C437 1.376 . S
C437 H424 0.930 . S
C437 C436 1.376 . S
C437 C438 1.388 . S
C438 H425 0.930 . S
C438 C437 1.388 . S
C438 C439 1.390 . S
C439 C438 1.390 . S
C439 C440 1.394 . S
C439 C445 1.465 . S
C440 C435 1.399 . S
C440 C439 1.394 . S
C440 C441 1.516 . S
C441 C440 1.516 . S
C441 C442 1.502 . S
C441 C443 1.561 . S
C441 C444 1.526 . S
C442 H426 0.959 . S
C442 H427 0.959 . S
C442 H428 0.961 . S
C442 C441 1.502 . S
C443 H429 0.960 . S
C443 H430 0.961 . S
C443 H431 0.959 . S
C443 C441 1.561 . S
C444 C441 1.526 . S
C444 C445 1.396 . S
C444 C449 1.390 . S
C445 C439 1.465 . S
C445 C444 1.396 . S
C445 C446 1.399 . S
C446 H432 0.929 . S
C446 C445 1.399 . S
C446 C447 1.385 . S
C447 H433 0.931 . S
C447 C446 1.385 . S
C447 C448 1.389 . S
C448 C447 1.389 . S
C448 C449 1.387 . S
C449 H434 0.930 . S
C449 C444 1.390 . S
C449 C448 1.387 . S
H450 C462 0.930 . S
H451 C464 0.930 . S
H452 C465 0.930 . S
H453 C469 0.959 . S
H454 C469 0.959 . S
H455 C469 0.961 . S
H456 C470 0.960 . S
H457 C470 0.961 . S
H458 C470 0.959 . S
H459 C473 0.929 . S
H460 C474 0.931 . S
H461 C476 0.930 . S
C462 H450 0.930 . S
C462 C463 1.399 . S
C462 C467 1.399 . S
C463 C462 1.399 . S
C463 C464 1.376 . S
C464 H451 0.930 . S
C464 C463 1.376 . S
C464 C465 1.388 . S
C465 H452 0.930 . S
C465 C464 1.388 . S
C465 C466 1.390 . S
C466 C465 1.390 . S
C466 C467 1.394 . S
C466 C472 1.465 . S
C467 C462 1.399 . S
C467 C466 1.394 . S
C467 C468 1.516 . S
C468 C467 1.516 . S
C468 C469 1.502 . S
C468 C470 1.561 . S
C468 C471 1.526 . S
C469 H453 0.959 . S
C469 H454 0.959 . S
C469 H455 0.961 . S
C469 C468 1.502 . S
C470 H456 0.960 . S
C470 H457 0.961 . S
C470 H458 0.959 . S
C470 C468 1.561 . S
C471 C468 1.526 . S
C471 C472 1.396 . S
C471 C476 1.390 . S
C472 C466 1.465 . S
C472 C471 1.396 . S
C472 C473 1.399 . S
C473 H459 0.929 . S
C473 C472 1.399 . S
C473 C474 1.385 . S
C474 H460 0.931 . S
C474 C473 1.385 . S
C474 C475 1.389 . S
C475 C474 1.389 . S
C475 C476 1.387 . S
C476 H461 0.930 . S
C476 C471 1.390 . S
C476 C475 1.387 . S
H477 C489 0.930 . S
H478 C491 0.930 . S
H479 C492 0.930 . S
H480 C496 0.959 . S
H481 C496 0.959 . S
H482 C496 0.961 . S
H483 C497 0.960 . S
H484 C497 0.961 . S
H485 C497 0.959 . S
H486 C500 0.929 . S
H487 C501 0.931 . S
H488 C503 0.930 . S
C489 H477 0.930 . S
C489 C490 1.399 . S
C489 C494 1.399 1_655 S
C490 C489 1.399 . S
C490 C491 1.376 . S
C491 H478 0.930 . S
C491 C490 1.376 . S
C491 C492 1.388 1_655 S
C492 H479 0.930 . S
C492 C491 1.388 1_455 S
C492 C493 1.390 . S
C493 C492 1.390 . S
C493 C494 1.394 . S
C493 C499 1.465 . S
C494 C489 1.399 1_455 S
C494 C493 1.394 . S
C494 C495 1.516 . S
C495 C494 1.516 . S
C495 C496 1.502 . S
C495 C497 1.561 . S
C495 C498 1.526 . S
C496 H480 0.959 . S
C496 H481 0.959 . S
C496 H482 0.961 . S
C496 C495 1.502 . S
C497 H483 0.960 . S
C497 H484 0.961 . S
C497 H485 0.959 . S
C497 C495 1.561 . S
C498 C495 1.526 . S
C498 C499 1.396 . S
C498 C503 1.390 . S
C499 C493 1.465 . S
C499 C498 1.396 . S
C499 C500 1.399 . S
C500 H486 0.929 . S
C500 C499 1.399 . S
C500 C501 1.385 . S
C501 H487 0.931 . S
C501 C500 1.385 . S
C501 C502 1.389 . S
C502 C501 1.389 . S
C502 C503 1.387 . S
C503 H488 0.930 . S
C503 C498 1.390 . S
C503 C502 1.387 . S
H504 C516 0.930 . S
H505 C518 0.930 . S
H506 C519 0.930 . S
H507 C523 0.959 . S
H508 C523 0.959 . S
H509 C523 0.961 . S
H510 C524 0.960 . S
H511 C524 0.961 . S
H512 C524 0.959 . S
H513 C527 0.929 . S
H514 C528 0.931 . S
H515 C530 0.930 . S
C516 H504 0.930 . S
C516 C517 1.399 . S
C516 C521 1.399 1_545 S
C517 C516 1.399 . S
C517 C518 1.376 . S
C518 H505 0.930 . S
C518 C517 1.376 . S
C518 C519 1.388 1_545 S
C519 H506 0.930 . S
C519 C518 1.388 1_565 S
C519 C520 1.390 . S
C520 C519 1.390 . S
C520 C521 1.394 . S
C520 C526 1.465 . S
C521 C516 1.399 1_565 S
C521 C520 1.394 . S
C521 C522 1.516 . S
C522 C521 1.516 . S
C522 C523 1.502 . S
C522 C524 1.561 . S
C522 C525 1.526 . S
C523 H507 0.959 . S
C523 H508 0.959 . S
C523 H509 0.961 . S
C523 C522 1.502 . S
C524 H510 0.960 . S
C524 H511 0.961 . S
C524 H512 0.959 . S
C524 C522 1.561 . S
C525 C522 1.526 . S
C525 C526 1.396 . S
C525 C530 1.390 . S
C526 C520 1.465 . S
C526 C525 1.396 . S
C526 C527 1.399 . S
C527 H513 0.929 . S
C527 C526 1.399 . S
C527 C528 1.385 . S
C528 H514 0.931 . S
C528 C527 1.385 . S
C528 C529 1.389 . S
C529 C528 1.389 . S
C529 C530 1.387 . S
C530 H515 0.930 . S
C530 C525 1.390 . S
C530 C529 1.387 . S
H531 C543 0.930 . S
H532 C545 0.930 . S
H533 C546 0.930 . S
H534 C550 0.959 . S
H535 C550 0.959 . S
H536 C550 0.961 . S
H537 C551 0.960 . S
H538 C551 0.961 . S
H539 C551 0.959 . S
H540 C554 0.929 . S
H541 C555 0.931 . S
H542 C557 0.930 . S
C543 H531 0.930 . S
C543 C544 1.399 . S
C543 C548 1.399 . S
C544 C543 1.399 . S
C544 C545 1.376 . S
C545 H532 0.930 . S
C545 C544 1.376 . S
C545 C546 1.388 . S
C546 H533 0.930 . S
C546 C545 1.388 . S
C546 C547 1.390 . S
C547 C546 1.390 . S
C547 C548 1.394 . S
C547 C553 1.465 . S
C548 C543 1.399 . S
C548 C547 1.394 . S
C548 C549 1.516 . S
C549 C548 1.516 . S
C549 C550 1.502 . S
C549 C551 1.561 . S
C549 C552 1.526 . S
C550 H534 0.959 . S
C550 H535 0.959 . S
C550 H536 0.961 . S
C550 C549 1.502 . S
C551 H537 0.960 . S
C551 H538 0.961 . S
C551 H539 0.959 . S
C551 C549 1.561 . S
C552 C549 1.526 . S
C552 C553 1.396 . S
C552 C557 1.390 . S
C553 C547 1.465 . S
C553 C552 1.396 . S
C553 C554 1.399 . S
C554 H540 0.929 . S
C554 C553 1.399 . S
C554 C555 1.385 . S
C555 H541 0.931 . S
C555 C554 1.385 . S
C555 C556 1.389 . S
C556 C555 1.389 . S
C556 C557 1.387 . S
C557 H542 0.930 . S
C557 C552 1.390 . S
C557 C556 1.387 . S
H558 C570 0.930 . S
H559 C572 0.930 . S
H560 C573 0.930 1_655 S
H561 C577 0.959 . S
H562 C577 0.959 . S
H563 C577 0.961 . S
H564 C578 0.960 . S
H565 C578 0.961 . S
H566 C578 0.959 . S
H567 C581 0.929 . S
H568 C582 0.931 . S
H569 C584 0.930 . S
C570 H558 0.930 . S
C570 C571 1.399 . S
C570 C575 1.399 1_455 S
C571 C570 1.399 . S
C571 C572 1.376 . S
C572 H559 0.930 . S
C572 C571 1.376 . S
C572 C573 1.388 . S
C573 H560 0.930 1_455 S
C573 C572 1.388 . S
C573 C574 1.390 1_455 S
C574 C573 1.390 1_655 S
C574 C575 1.394 . S
C574 C580 1.465 . S
C575 C570 1.399 1_655 S
C575 C574 1.394 . S
C575 C576 1.516 . S
C576 C575 1.516 . S
C576 C577 1.502 . S
C576 C578 1.561 . S
C576 C579 1.526 . S
C577 H561 0.959 . S
C577 H562 0.959 . S
C577 H563 0.961 . S
C577 C576 1.502 . S
C578 H564 0.960 . S
C578 H565 0.961 . S
C578 H566 0.959 . S
C578 C576 1.561 . S
C579 C576 1.526 . S
C579 C580 1.396 . S
C579 C584 1.390 . S
C580 C574 1.465 . S
C580 C579 1.396 . S
C580 C581 1.399 . S
C581 H567 0.929 . S
C581 C580 1.399 . S
C581 C582 1.385 . S
C582 H568 0.931 . S
C582 C581 1.385 . S
C582 C583 1.389 . S
C583 C582 1.389 . S
C583 C584 1.387 . S
C584 H569 0.930 . S
C584 C579 1.390 . S
C584 C583 1.387 . S
H585 C597 0.930 . S
H586 C599 0.930 . S
H587 C600 0.930 . S
H588 C604 0.959 . S
H589 C604 0.959 . S
H590 C604 0.961 . S
H591 C605 0.960 . S
H592 C605 0.961 . S
H593 C605 0.959 . S
H594 C608 0.929 . S
H595 C609 0.931 . S
H596 C611 0.930 . S
C597 H585 0.930 . S
C597 C598 1.399 . S
C597 C602 1.399 . S
C598 C597 1.399 . S
C598 C599 1.376 . S
C599 H586 0.930 . S
C599 C598 1.376 . S
C599 C600 1.388 . S
C600 H587 0.930 . S
C600 C599 1.388 . S
C600 C601 1.390 . S
C601 C600 1.390 . S
C601 C602 1.394 . S
C601 C607 1.465 . S
C602 C597 1.399 . S
C602 C601 1.394 . S
C602 C603 1.516 . S
C603 C602 1.516 . S
C603 C604 1.502 . S
C603 C605 1.561 . S
C603 C606 1.526 . S
C604 H588 0.959 . S
C604 H589 0.959 . S
C604 H590 0.961 . S
C604 C603 1.502 . S
C605 H591 0.960 . S
C605 H592 0.961 . S
C605 H593 0.959 . S
C605 C603 1.561 . S
C606 C603 1.526 . S
C606 C607 1.396 . S
C606 C611 1.390 1_545 S
C607 C601 1.465 . S
C607 C606 1.396 . S
C607 C608 1.399 . S
C608 H594 0.929 . S
C608 C607 1.399 . S
C608 C609 1.385 1_545 S
C609 H595 0.931 . S
C609 C608 1.385 1_565 S
C609 C610 1.389 . S
C610 C609 1.389 . S
C610 C611 1.387 . S
C611 H596 0.930 . S
C611 C606 1.390 1_565 S
C611 C610 1.387 . S
C139 C100 1.605 . S
C151 C13 1.658 . S
C166 C118 1.681 . S
C178 C37 1.637 . S
C193 C55 1.666 . S
C205 C79 1.661 . S
C220 C16 1.707 . S
C232 C97 1.672 . S
C247 C121 1.535 . S
C259 C34 1.564 . S
C274 C58 1.683 . S
C286 C76 1.711 . S
C301 C17 1.308 . S
C313 C57 1.364 . S
C328 C38 1.308 . S
C340 C15 1.366 . S
C355 C59 1.308 . S
C367 C36 1.365 . S
C382 C77 1.173 . S
C394 C102 1.296 . S
C409 C98 1.175 . S
C421 C123 1.294 . S
C436 C81 1.353 . S
C448 C119 1.267 . S
C463 C18 0.842 . S
C475 C56 0.829 . S
C490 C39 0.830 . S
C502 C14 0.808 . S
C517 C60 0.841 . S
C529 C35 0.828 . S
C544 C78 0.817 . S
C556 C101 0.783 . S
C571 C99 0.895 . S
C583 C122 0.876 . S
C598 C80 0.926 . S
C610 C120 0.916 . S
