# Generated by pormake.
# Topology dia, (4)-cn, num edge types: 1
# Building blocks:
#     Node 0, Type 0, BuildingBlock: ICAMEG_clean_sbu_1, # of connection points: 4
#     Node 1, Type 0, BuildingBlock: ICAMEG_clean_sbu_1, # of connection points: 4
#     Node 2, Type 0, BuildingBlock: ICAMEG_clean_sbu_1, # of connection points: 4
#     Node 3, Type 0, BuildingBlock: ICAMEG_clean_sbu_1, # of connection points: 4
#     Node 4, Type 0, BuildingBlock: ICAMEG_clean_sbu_1, # of connection points: 4
#     Node 5, Type 0, BuildingBlock: ICAMEG_clean_sbu_1, # of connection points: 4
#     Node 6, Type 0, BuildingBlock: ICAMEG_clean_sbu_1, # of connection points: 4
#     Node 7, Type 0, BuildingBlock: ICAMEG_clean_sbu_1, # of connection points: 4
#     Edge 8, Type (0, 0), BuildingBlock: AJUNOK_clean_linker_0, # of connection points: 2
#     Edge 9, Type (0, 0), BuildingBlock: AJUNOK_clean_linker_0, # of connection points: 2
#     Edge 10, Type (0, 0), BuildingBlock: AJUNOK_clean_linker_0, # of connection points: 2
#     Edge 11, Type (0, 0), BuildingBlock: AJUNOK_clean_linker_0, # of connection points: 2
#     Edge 12, Type (0, 0), BuildingBlock: AJUNOK_clean_linker_0, # of connection points: 2
#     Edge 13, Type (0, 0), BuildingBlock: AJUNOK_clean_linker_0, # of connection points: 2
#     Edge 14, Type (0, 0), BuildingBlock: AJUNOK_clean_linker_0, # of connection points: 2
#     Edge 15, Type (0, 0), BuildingBlock: AJUNOK_clean_linker_0, # of connection points: 2
#     Edge 16, Type (0, 0), BuildingBlock: AJUNOK_clean_linker_0, # of connection points: 2
#     Edge 17, Type (0, 0), BuildingBlock: AJUNOK_clean_linker_0, # of connection points: 2
#     Edge 18, Type (0, 0), BuildingBlock: AJUNOK_clean_linker_0, # of connection points: 2
#     Edge 19, Type (0, 0), BuildingBlock: AJUNOK_clean_linker_0, # of connection points: 2
#     Edge 20, Type (0, 0), BuildingBlock: AJUNOK_clean_linker_0, # of connection points: 2
#     Edge 21, Type (0, 0), BuildingBlock: AJUNOK_clean_linker_0, # of connection points: 2
#     Edge 22, Type (0, 0), BuildingBlock: AJUNOK_clean_linker_0, # of connection points: 2
#     Edge 23, Type (0, 0), BuildingBlock: AJUNOK_clean_linker_0, # of connection points: 2
# Relax obj value: 0.179
# Max RMSD: 0.228
# Mean RMSD: 0.228
data_MOF--net-dia--node1-ICAMEG_clean_sbu_1--edge1-AJUNOK_clean_linker_0
_symmetry_space_group_name_H-M    P1
_symmetry_Int_Tables_number       1
_symmetry_cell_setting            triclinic
loop_
_symmetry_equiv_pos_as_xyz
'x, y, z'
_cell_length_a     24.720876
_cell_length_b     24.752839
_cell_length_c     31.20501
_cell_angle_alpha  89.776462
_cell_angle_beta   90.123693
_cell_angle_gamma 103.83793
loop_
_atom_site_label
_atom_site_type_symbol
_atom_site_fract_x
_atom_site_fract_y
_atom_site_fract_z
_atom_type_partial_charge
Co0 Co 0.20824 0.10919 0.62973 0.0
Co1 Co 0.08285 0.15163 0.62818 0.0
O2 O 0.14552 0.13125 0.65907 0.0
C3 C 0.17341 0.02139 0.69929 0.0
O4 O 0.12652 0.03598 0.70605 0.0
C5 C 0.11732 0.24381 0.69409 0.0
O6 O 0.16536 0.23145 0.70086 0.0
O7 O 0.13525 0.20314 0.58896 0.0
O8 O 0.21318 0.17129 0.58813 0.0
H9 H 0.97522 0.17697 0.49587 0.0
H10 H 0.21348 0.13126 0.7234 0.0
O11 O 0.20746 0.04614 0.6709 0.0
H12 H 0.38017 0.25908 0.66299 0.0
H13 H 0.38799 0.04716 0.62061 0.0
H14 H 0.2386 0.10152 0.53858 0.0
H15 H 0.31376 0.19583 0.61599 0.0
H16 H 0.31002 0.07277 0.65795 0.0
O17 O 0.0828 0.21623 0.6672 0.0
H18 H 0.05384 0.1565 0.53633 0.0
H19 H 0.97987 0.18727 0.6537 0.0
H20 H 0.3164 0.07723 0.49998 0.0
H21 H 0.27892 0.19356 0.77157 0.0
H22 H 0.39185 0.04984 0.54107 0.0
H23 H 0.36298 0.25819 0.74141 0.0
O24 O 0.15614 0.05615 0.59134 0.0
H25 H 1.01085 0.07379 0.77178 0.0
H26 H 0.97876 0.06265 0.61572 0.0
H27 H 0.91317 0.99996 0.66376 0.0
H28 H 0.92884 1.00547 0.74245 0.0
H29 H 0.07597 0.13493 0.72249 0.0
H30 H 0.90115 0.20927 0.61444 0.0
H31 H 0.8981 0.20349 0.53497 0.0
O32 O 0.07845 0.08808 0.58859 0.0
C33 C 0.18446 0.20487 0.57592 0.0
C34 C 0.976 0.1795 0.5305 0.0
C35 C 0.93445 0.19766 0.59704 0.0
N36 N 0.02136 0.17031 0.59735 0.0
C37 C 0.02034 0.16781 0.5536 0.0
C38 C 0.97933 0.18544 0.61909 0.0
C39 C 0.93277 0.19442 0.55245 0.0
C40 C 0.2501 0.15889 0.71002 0.0
N41 N 0.25979 0.15963 0.66691 0.0
C42 C 0.28693 0.19428 0.73746 0.0
C43 C 0.33405 0.23058 0.72052 0.0
C44 C 0.34368 0.23114 0.67653 0.0
C45 C 0.30583 0.19529 0.65006 0.0
C46 C 0.35539 0.05908 0.60235 0.0
C47 C 0.27135 0.08983 0.5567 0.0
C48 C 0.31093 0.07334 0.62332 0.0
N49 N 0.26974 0.08876 0.60047 0.0
C50 C 0.31525 0.076 0.53466 0.0
C51 C 0.35754 0.06059 0.55772 0.0
C52 C 0.10705 0.05399 0.57769 0.0
C53 C 1.00351 0.07104 0.73756 0.0
C54 C 0.98627 0.06491 0.64988 0.0
C55 C 0.94878 0.02949 0.67695 0.0
C56 C 0.95756 0.03266 0.72108 0.0
N57 N 0.03126 0.10246 0.66625 0.0
C58 C 0.04012 0.10578 0.70949 0.0
Co59 Co 0.93527 0.3211 0.89178 0.0
Co60 Co 0.87856 0.43405 0.90819 0.0
O61 O 0.90637 0.38339 0.86982 0.0
C62 C 1.00898 0.36137 0.81372 0.0
O63 O 0.98558 0.40262 0.80553 0.0
C64 C 0.78814 0.40352 0.84195 0.0
O65 O 0.7897 0.35112 0.84602 0.0
O66 O 0.82632 0.37007 0.93746 0.0
O67 O 0.87829 0.30749 0.93869 0.0
H68 H 0.82803 0.50244 0.0506 0.0
H69 H 0.89629 0.32662 0.80166 0.0
O70 O 0.99415 0.32993 0.84609 0.0
H71 H 0.79201 0.14449 0.85584 0.0
H72 H 1.01104 0.14957 0.88146 0.0
H73 H 0.96085 0.28615 0.97885 0.0
H74 H 0.8601 0.20704 0.90166 0.0
H75 H 0.97318 0.22592 0.85284 0.0
O76 O 0.81951 0.44035 0.86519 0.0
H77 H 0.85964 0.43808 1.00185 0.0
H78 H 0.83887 0.53787 0.89485 0.0
H79 H 0.9981 0.21013 1.00885 0.0
H80 H 0.82983 0.26495 0.75431 0.0
H81 H 0.02338 0.14106 0.96002 0.0
H82 H 0.77665 0.17312 0.7813 0.0
O83 O 0.98919 0.37335 0.92916 0.0
H84 H 0.97013 0.54546 0.7817 0.0
H85 H 0.96105 0.53499 0.93944 0.0
H86 H 0.02676 0.61352 0.90474 0.0
H87 H 0.03152 0.61923 0.82528 0.0
H88 H 0.90542 0.46724 0.81776 0.0
H89 H 0.80632 0.60287 0.94241 0.0
H90 H 0.80119 0.58558 1.02093 0.0
O91 O 0.93761 0.4313 0.9516 0.0
C92 C 0.83654 0.32497 0.95151 0.0
C93 C 0.83014 0.51045 1.01644 0.0
C94 C 0.81789 0.56677 0.95572 0.0
N95 N 0.85132 0.48427 0.94554 0.0
C96 C 0.84808 0.47419 0.98867 0.0
C97 C 0.83608 0.52964 0.92891 0.0
C98 C 0.81506 0.55707 0.99977 0.0
C99 C 0.87434 0.28658 0.8137 0.0
N100 N 0.88267 0.27072 0.85474 0.0
C101 C 0.83626 0.25186 0.78668 0.0
C102 C 0.80634 0.20044 0.80185 0.0
C103 C 0.81485 0.18443 0.84367 0.0
C104 C 0.85326 0.22031 0.86973 0.0
C105 C 1.00001 0.17929 0.90308 0.0
C106 C 0.97157 0.25618 0.9574 0.0
C107 C 0.97866 0.22273 0.88707 0.0
N108 N 0.96415 0.26018 0.91421 0.0
C109 C 0.99274 0.21326 0.97457 0.0
C110 C 1.00693 0.17455 0.94716 0.0
C111 C 0.98074 0.41166 0.95361 0.0
C112 C 0.96843 0.54346 0.81634 0.0
C113 C 0.96311 0.53689 0.90485 0.0
C114 C 1.00027 0.58163 0.88538 0.0
C115 C 1.00289 0.58482 0.84081 0.0
N116 N 0.92949 0.49641 0.88065 0.0
C117 C 0.93177 0.49933 0.83694 0.0
Co118 Co 0.69254 0.09123 0.14438 0.0
Co119 Co 0.59681 0.17122 0.14033 0.0
O120 O 0.64484 0.13302 0.17349 0.0
C121 C 0.6572 0.02691 0.22725 0.0
O122 O 0.62337 0.05835 0.23743 0.0
C123 C 0.63522 0.24428 0.21775 0.0
O124 O 0.67549 0.21938 0.22523 0.0
O125 O 0.6633 0.21491 0.10836 0.0
O126 O 0.70509 0.14588 0.09538 0.0
H127 H 0.52864 0.24375 1.00499 0.0
H128 H 0.71898 0.13032 0.23435 0.0
O129 O 0.68385 0.03442 0.19197 0.0
H130 H 0.88894 0.21001 0.15172 0.0
H131 H 0.83985 0.98177 0.13501 0.0
H132 H 0.69943 0.0534 0.05495 0.0
H133 H 0.80681 0.15108 0.11653 0.0
H134 H 0.78335 0.03728 0.17151 0.0
O135 O 0.60464 0.23208 0.18457 0.0
H136 H 0.58709 0.19608 0.04799 0.0
H137 H 0.50653 0.22836 0.16191 0.0
H138 H 0.75516 0.9982 1.01717 0.0
H139 H 0.80048 0.18766 0.27113 0.0
H140 H 0.82613 0.96209 0.05722 0.0
H141 H 0.88637 0.22843 0.22978 0.0
O142 O 0.62586 0.04469 0.11485 0.0
H143 H 0.49021 0.08765 0.27158 0.0
H144 H 0.48304 0.10728 0.11465 0.0
H145 H 0.4014 0.05148 0.15275 0.0
H146 H 0.40446 0.04161 0.23191 0.0
H147 H 0.57118 0.142 0.23209 0.0
H148 H 0.44762 0.27682 0.12014 0.0
H149 H 0.45825 0.28451 0.04106 0.0
O150 O 0.58453 0.11194 0.09513 0.0
C151 C 0.6983 0.19459 0.0876 0.0
C152 C 0.52352 0.24057 0.03941 0.0
C153 C 0.47811 0.25919 0.10404 0.0
N154 N 0.55013 0.20914 0.10741 0.0
C155 C 0.55645 0.21353 0.06395 0.0
C156 C 0.51177 0.23186 0.12755 0.0
C157 C 0.48408 0.26347 0.05968 0.0
C158 C 0.75611 0.14694 0.21606 0.0
N159 N 0.75766 0.13695 0.1731 0.0
C160 C 0.80223 0.17986 0.23712 0.0
C161 C 0.85034 0.20281 0.21391 0.0
C162 C 0.85176 0.19258 0.17013 0.0
C163 C 0.80484 0.15942 0.15022 0.0
C164 C 0.80926 0.9975 0.11715 0.0
C165 C 0.73033 0.03801 0.07259 0.0
C166 C 0.7771 0.02897 0.13764 0.0
N167 N 0.73854 0.04924 0.11527 0.0
C168 C 0.76173 1.0067 0.05103 0.0
C169 C 0.80151 0.98643 0.07352 0.0
C170 C 0.59086 0.06239 0.09196 0.0
C171 C 0.48828 0.0917 0.2371 0.0
C172 C 0.48509 0.10271 0.14895 0.0
C173 C 0.43852 0.07128 0.17043 0.0
C174 C 0.44023 0.06582 0.21482 0.0
N175 N 0.53214 0.12809 0.17097 0.0
C176 C 0.53406 0.12274 0.21451 0.0
Co177 Co 0.91033 0.82768 0.398 0.0
Co178 Co 0.8602 0.94214 0.41804 0.0
O179 O 0.88228 0.89085 0.37744 0.0
C180 C 1.01054 0.83259 0.34411 0.0
O181 O 0.0392 0.83689 0.37996 0.0
C182 C 0.76783 0.91905 0.35382 0.0
O183 O 0.76871 0.86629 0.35485 0.0
O184 O 0.80644 0.87882 0.44583 0.0
O185 O 0.86116 0.81885 0.45019 0.0
H186 H 0.81898 1.00707 0.56416 0.0
H187 H 0.86416 0.82667 0.31033 0.0
O188 O 0.95907 0.83355 0.34539 0.0
H189 H 0.7506 0.65897 0.38059 0.0
H190 H 0.9686 0.64657 0.38377 0.0
H191 H 0.94881 0.79596 0.48224 0.0
H192 H 0.82713 0.72169 0.41959 0.0
H193 H 0.93263 0.72541 0.35762 0.0
O194 O 0.80083 0.95401 0.37741 0.0
H195 H 0.8446 0.94253 0.51234 0.0
H196 H 0.82741 0.05025 0.40954 0.0
H197 H 0.98469 0.71772 0.50977 0.0
H198 H 0.78885 0.76438 0.26972 0.0
H199 H 0.99482 0.64232 0.46038 0.0
H200 H 0.73125 0.67992 0.30496 0.0
O201 O 0.97096 0.88041 0.42988 0.0
H202 H 0.9548 0.05429 0.29298 0.0
H203 H 0.94881 0.03748 0.45051 0.0
H204 H 0.01809 0.11393 0.41668 0.0
H205 H 0.02128 0.12285 0.33734 0.0
H206 H 0.88657 0.97792 0.32817 0.0
H207 H 0.80119 0.11575 0.46027 0.0
H208 H 0.79736 0.09458 0.53823 0.0
O209 O 0.91922 0.93323 0.45973 0.0
C210 C 0.8181 0.83533 0.46163 0.0
C211 C 0.82067 0.01685 0.53028 0.0
C212 C 0.8106 0.0778 0.47197 0.0
N213 N 0.83783 0.99271 0.45796 0.0
C214 C 0.83522 0.98048 0.50076 0.0
C215 C 0.82526 0.04042 0.44337 0.0
C216 C 0.80847 0.0659 0.51571 0.0
C217 C 0.83994 0.7895 0.32562 0.0
N218 N 0.85056 0.77756 0.36712 0.0
C219 C 0.79705 0.7546 0.30258 0.0
C220 C 0.76468 0.70731 0.3224 0.0
C221 C 0.77547 0.69556 0.36484 0.0
C222 C 0.81875 0.7314 0.38684 0.0
C223 C 0.96439 0.67917 0.40561 0.0
C224 C 0.9531 0.76333 0.46054 0.0
C225 C 0.9441 0.72396 0.39098 0.0
N226 N 0.93867 0.76535 0.41838 0.0
C227 C 0.97343 0.71911 0.47632 0.0
C228 C 0.97909 0.67682 0.44859 0.0
C229 C 0.96384 0.91613 0.45733 0.0
C230 C 0.95372 0.05092 0.32758 0.0
C231 C 0.95003 0.04088 0.41596 0.0
C232 C 0.9893 0.08437 0.39699 0.0
C233 C 0.99105 0.08935 0.35248 0.0
N234 N 0.91346 1.00339 0.39131 0.0
C235 C 0.91506 1.00789 0.34767 0.0
Co236 Co 0.20344 0.61139 0.1323 0.0
Co237 Co 0.07465 0.63962 0.13371 0.0
O238 O 0.13967 0.62556 0.16409 0.0
C239 C 0.18237 0.52045 0.19774 0.0
O240 O 0.12932 0.50943 0.18751 0.0
C241 C 0.09738 0.72937 0.20018 0.0
O242 O 0.15084 0.73796 0.19204 0.0
O243 O 0.12374 0.70331 0.1027 0.0
O244 O 0.1932 0.66344 0.08509 0.0
H245 H 0.96938 0.67702 1.00333 0.0
H246 H 0.21826 0.64684 0.22301 0.0
O247 O 0.21683 0.55973 0.17878 0.0
H248 H 0.35279 0.78954 0.14168 0.0
H249 H 0.39731 0.58219 0.11689 0.0
H250 H 0.22474 0.59168 0.04085 0.0
H251 H 0.29252 0.7096 0.10465 0.0
H252 H 0.31697 0.59944 0.15662 0.0
O253 O 0.06248 0.69138 0.18037 0.0
H254 H 0.05065 0.66104 0.0429 0.0
H255 H 0.9611 0.64897 0.15994 0.0
H256 H 0.30437 0.57518 0.99982 0.0
H257 H 0.27816 0.72598 0.26142 0.0
H258 H 0.39137 0.57018 0.03789 0.0
H259 H 0.34588 0.79813 0.22066 0.0
O260 O 0.15335 0.54796 0.10196 0.0
H261 H 1.00688 0.52378 0.26411 0.0
H262 H 0.98459 0.54118 0.10796 0.0
H263 H 0.92674 0.4606 0.14622 0.0
H264 H 0.93775 0.45144 0.22487 0.0
H265 H 0.06404 0.60373 0.22451 0.0
H266 H 0.87921 0.66585 0.12174 0.0
H267 H 0.88289 0.67953 0.04279 0.0
O268 O 0.08315 0.58775 0.08613 0.0
C269 C 0.16701 0.70176 0.08109 0.0
C270 C 0.96727 0.67113 0.03773 0.0
C271 C 0.91668 0.66489 0.10418 0.0
N272 N 1.01064 0.65404 0.1037 0.0
C273 C 1.01314 0.66199 0.06031 0.0
C274 C 0.96329 0.65567 0.12568 0.0
C275 C 0.91875 0.67253 0.05989 0.0
C276 C 0.24799 0.67782 0.20513 0.0
N277 N 0.25195 0.67349 0.16169 0.0
C278 C 0.28165 0.72264 0.22702 0.0
C279 C 0.31959 0.76314 0.20412 0.0
C280 C 0.32348 0.75837 0.15982 0.0
C281 C 0.2891 0.71305 0.13901 0.0
C282 C 0.35959 0.5842 0.09995 0.0
C283 C 0.26253 0.5898 0.05765 0.0
C284 C 0.31386 0.59371 0.12231 0.0
N285 N 0.26624 0.59676 0.10108 0.0
C286 C 0.30745 0.58033 0.03424 0.0
C287 C 0.35626 0.57754 0.05562 0.0
C288 C 0.10939 0.54967 0.08119 0.0
C289 C 1.00158 0.52739 0.22987 0.0
C290 C 0.98964 0.53758 0.14219 0.0
C291 C 0.95667 0.49187 0.1637 0.0
C292 C 0.96285 0.48678 0.20782 0.0
N293 N 0.02754 0.57727 0.16404 0.0
C294 C 0.03369 0.57265 0.20731 0.0
Co295 Co 0.43256 0.31855 0.41304 0.0
Co296 Co 0.37648 0.43012 0.39386 0.0
O297 O 0.40786 0.36946 0.37292 0.0
C298 C 0.52297 0.34596 0.34657 0.0
O299 O 0.51588 0.39669 0.34376 0.0
C300 C 0.27423 0.41997 0.34141 0.0
O301 O 0.24646 0.4136 0.37764 0.0
O302 O 0.31829 0.37496 0.42573 0.0
O303 O 0.37167 0.32258 0.45446 0.0
H304 H 0.29758 0.5334 0.50678 0.0
H305 H 0.40893 0.28518 0.32244 0.0
O306 O 0.49395 0.31119 0.37274 0.0
H307 H 0.28282 0.14032 0.40806 0.0
H308 H 0.50259 0.14995 0.4532 0.0
H309 H 0.44686 0.31548 0.50743 0.0
H310 H 0.34772 0.21863 0.44346 0.0
H311 H 0.47169 0.21403 0.4033 0.0
O312 O 0.32652 0.42253 0.34181 0.0
H313 H 0.33724 0.45833 0.47857 0.0
H314 H 0.3483 0.53053 0.3542 0.0
H315 H 0.47683 0.25213 0.55846 0.0
H316 H 0.34514 0.2071 0.28571 0.0
H317 H 0.50485 0.16856 0.53143 0.0
H318 H 0.28141 0.13404 0.3286 0.0
O319 O 0.48343 0.38268 0.44234 0.0
H320 H 0.4908 0.50305 0.26386 0.0
H321 H 0.4572 0.53731 0.41586 0.0
H322 H 0.5304 0.6039 0.37651 0.0
H323 H 0.54742 0.58716 0.29983 0.0
H324 H 0.41878 0.43684 0.30475 0.0
H325 H 0.30849 0.60623 0.38105 0.0
H326 H 0.28293 0.60805 0.45788 0.0
O327 O 0.42619 0.44027 0.44577 0.0
C328 C 0.32647 0.33874 0.45246 0.0
C329 C 0.30854 0.53306 0.47324 0.0
C330 C 0.31468 0.57394 0.40268 0.0
N331 N 0.34508 0.48996 0.41479 0.0
C332 C 0.33101 0.49064 0.45707 0.0
C333 C 0.33716 0.53093 0.38766 0.0
C334 C 0.30034 0.57494 0.44579 0.0
C335 C 0.38164 0.25332 0.34132 0.0
N336 N 0.38236 0.25632 0.38502 0.0
C337 C 0.34548 0.2093 0.32035 0.0
C338 C 0.30969 0.16835 0.34443 0.0
C339 C 0.31044 0.17185 0.389 0.0
C340 C 0.34721 0.2164 0.40886 0.0
C341 C 0.49042 0.18618 0.46538 0.0
C342 C 0.45885 0.27917 0.49538 0.0
C343 C 0.47312 0.22278 0.43725 0.0
N344 N 0.45733 0.26843 0.45241 0.0
C345 C 0.47589 0.24348 0.52445 0.0
C346 C 0.49166 0.19664 0.50927 0.0
C347 C 0.46956 0.4249 0.45818 0.0
C348 C 0.48373 0.51086 0.29724 0.0
C349 C 0.46481 0.52924 0.38273 0.0
C350 C 0.5061 0.56734 0.36049 0.0
C351 C 0.51555 0.55798 0.31745 0.0
N352 N 0.43376 0.48307 0.36271 0.0
C353 C 0.4428 0.47366 0.32051 0.0
Co354 Co 0.40394 0.82276 0.91451 0.0
Co355 Co 0.35182 0.93995 0.90253 0.0
O356 O 0.37964 0.87822 0.87789 0.0
C357 C 0.49176 0.85092 0.84534 0.0
O358 O 0.48234 0.90049 0.84046 0.0
C359 C 0.27896 0.90545 0.82353 0.0
O360 O 0.29941 0.86202 0.81657 0.0
O361 O 0.29508 0.88605 0.93653 0.0
O362 O 0.34311 0.82366 0.95658 0.0
H363 H 0.29179 0.04495 0.02389 0.0
H364 H 0.38036 0.79793 0.82244 0.0
O365 O 0.46529 0.81749 0.87347 0.0
H366 H 0.25308 0.64628 0.90099 0.0
H367 H 0.47058 0.64904 0.94457 0.0
H368 H 0.4177 0.81103 1.00822 0.0
H369 H 0.31832 0.72075 0.94005 0.0
H370 H 0.44122 0.71809 0.89855 0.0
O371 O 0.29512 0.93694 0.85555 0.0
H372 H 0.32649 0.96941 0.99091 0.0
H373 H 0.31816 0.03991 0.86748 0.0
H374 H 0.44612 0.74257 0.0554 0.0
H375 H 0.31625 0.72389 0.78206 0.0
H376 H 0.47297 0.66096 0.0236 0.0
H377 H 0.25184 0.64743 0.82138 0.0
O378 O 0.45643 0.88303 0.94662 0.0
H379 H 0.45801 0.01236 0.76838 0.0
H380 H 0.43371 0.04703 0.92167 0.0
H381 H 0.50407 0.11376 0.88006 0.0
H382 H 0.51638 0.09687 0.80267 0.0
H383 H 0.38922 0.94616 0.81146 0.0
H384 H 0.28285 0.1159 0.89907 0.0
H385 H 0.26969 0.11893 0.97785 0.0
O386 O 0.40673 0.94743 0.95066 0.0
C387 C 0.30102 0.84481 0.95904 0.0
C388 C 0.29741 0.04415 0.98953 0.0
C389 C 0.29234 0.08392 0.91948 0.0
N390 N 0.32453 1.00023 0.92736 0.0
C391 C 0.31712 1.00149 0.97069 0.0
C392 C 0.31216 0.04063 0.90176 0.0
C393 C 0.28499 0.08561 0.96368 0.0
C394 C 0.35276 0.76464 0.83978 0.0
N395 N 0.35309 0.76381 0.88355 0.0
C396 C 0.31641 0.72289 0.81674 0.0
C397 C 0.28025 0.68004 0.83882 0.0
C398 C 0.28089 0.67938 0.88347 0.0
C399 C 0.3178 0.72183 0.90542 0.0
C400 C 0.45903 0.68448 0.9588 0.0
C401 C 0.42904 0.77548 0.99411 0.0
C402 C 0.44258 0.72386 0.93288 0.0
N403 N 0.42754 0.76852 0.95066 0.0
C404 C 0.44523 0.73692 1.02101 0.0
C405 C 0.4603 0.69114 1.00314 0.0
C406 C 0.44761 0.92765 0.9623 0.0
C407 C 0.45289 0.02036 0.80203 0.0
C408 C 0.43916 0.03893 0.88823 0.0
C409 C 0.4789 0.07711 0.86471 0.0
C410 C 0.48572 0.06767 0.8213 0.0
N411 N 0.40694 0.99263 0.86914 0.0
C412 C 0.41356 0.98313 0.82658 0.0
Co413 Co 0.68912 0.59989 0.65314 0.0
Co414 Co 0.58196 0.66549 0.64684 0.0
O415 O 0.63329 0.63297 0.68077 0.0
C416 C 0.68004 0.49332 0.70095 0.0
O417 O 0.67207 0.46762 0.6639 0.0
C418 C 0.60792 0.73887 0.72606 0.0
O419 O 0.64639 0.71391 0.73871 0.0
O420 O 0.64638 0.71538 0.61692 0.0
O421 O 0.69826 0.65439 0.60432 0.0
H422 H 0.51176 0.73244 0.51008 0.0
H423 H 0.70586 0.63352 0.74433 0.0
O424 O 0.68244 0.54544 0.70243 0.0
H425 H 0.87067 0.7439 0.66868 0.0
H426 H 0.85914 0.52058 0.64936 0.0
H427 H 0.70773 0.56653 0.56433 0.0
H428 H 0.79761 0.67742 0.62932 0.0
H429 H 0.78958 0.56277 0.68377 0.0
O430 O 0.58196 0.7251 0.69093 0.0
H431 H 0.57338 0.68998 0.55431 0.0
H432 H 0.48329 0.71157 0.66621 0.0
H433 H 0.77639 0.52436 0.52867 0.0
H434 H 0.77853 0.69875 0.78513 0.0
H435 H 0.8528 0.50106 0.57125 0.0
H436 H 0.86159 0.75474 0.74725 0.0
O437 O 0.62878 0.54761 0.62037 0.0
H438 H 0.47829 0.56672 0.77445 0.0
H439 H 0.47323 0.59362 0.61809 0.0
H440 H 0.3944 0.52962 0.65371 0.0
H441 H 0.39638 0.51607 0.73255 0.0
H442 H 0.55657 0.62948 0.73744 0.0
H443 H 0.42114 0.75484 0.62323 0.0
H444 H 0.435 0.76528 0.54453 0.0
O445 O 0.57794 0.60761 0.60151 0.0
C446 C 0.68553 0.70066 0.59696 0.0
C447 C 0.50519 0.72798 0.54432 0.0
C448 C 0.45439 0.74062 0.60782 0.0
N449 N 0.53189 0.69804 0.61279 0.0
C450 C 0.53988 0.70384 0.56954 0.0
C451 C 0.48987 0.71624 0.63202 0.0
C452 C 0.46218 0.74645 0.56368 0.0
C453 C 0.74205 0.65735 0.72763 0.0
N454 N 0.74723 0.65167 0.68441 0.0
C455 C 0.78299 0.69441 0.7509 0.0
C456 C 0.82954 0.72585 0.72963 0.0
C457 C 0.83461 0.71986 0.68555 0.0
C458 C 0.79285 0.68238 0.66335 0.0
C459 C 0.82602 0.5305 0.63046 0.0
C460 C 0.74075 0.55642 0.58313 0.0
C461 C 0.78647 0.55439 0.64977 0.0
N462 N 0.74437 0.5669 0.62614 0.0
C463 C 0.77957 0.5326 0.56274 0.0
C464 C 0.82243 0.51955 0.58664 0.0
C465 C 0.5915 0.56129 0.5971 0.0
C466 C 0.47675 0.57255 0.74011 0.0
C467 C 0.47462 0.58791 0.65233 0.0
C468 C 0.42973 0.55164 0.67237 0.0
C469 C 0.43086 0.54406 0.71659 0.0
N470 N 0.51935 0.61616 0.67563 0.0
C471 C 0.52092 0.60843 0.71895 0.0
C472 C 0.23301 0.27901 0.47181 0.0
C473 C 0.28346 0.31524 0.48439 0.0
C474 C 0.1978 0.24607 0.50229 0.0
C475 C 0.21211 0.24903 0.54602 0.0
H476 H 0.22271 0.27324 0.43811 0.0
H477 H 0.16133 0.2156 0.49134 0.0
S478 S 0.33574 0.34299 0.59533 0.0
N479 N 0.34328 0.35581 0.54343 0.0
N480 N 0.27661 0.29534 0.60063 0.0
C481 C 0.2603 0.2881 0.55902 0.0
C482 C 0.29619 0.32091 0.52817 0.0
C483 C 0.71858 0.49758 0.77577 0.0
C484 C 0.69925 0.46586 0.739 0.0
C485 C 0.74524 0.47624 0.80932 0.0
C486 C 0.75359 0.42191 0.80805 0.0
H487 H 0.71511 0.54025 0.77816 0.0
H488 H 0.76068 0.50332 0.83609 0.0
S489 S 0.70658 0.31935 0.72108 0.0
N490 N 0.68712 0.37542 0.70487 0.0
N491 N 0.73691 0.33538 0.76805 0.0
C492 C 0.73195 0.38855 0.7726 0.0
C493 C 0.70494 0.41045 0.73814 0.0
C494 C 0.5136 0.04453 0.03826 0.0
C495 C 0.55596 0.02554 0.05938 0.0
C496 C 0.47914 0.01223 1.0078 0.0
C497 C 0.48587 0.95955 0.99553 0.0
H498 H 0.50639 0.08503 0.04518 0.0
H499 H 0.44683 0.02941 0.99379 0.0
S500 S 0.59106 0.88978 0.0403 0.0
N501 N 0.60262 0.94969 0.06597 0.0
N502 N 0.53879 0.8895 1.00717 0.0
C503 C 0.5284 0.93976 1.01595 0.0
C504 C 0.56315 0.97255 0.04803 0.0
C505 C 0.08958 0.8075 0.30416 0.0
C506 C 0.0344 0.8141 0.30426 0.0
C507 C 0.11053 0.78218 0.26968 0.0
C508 C 0.07697 0.76176 0.23406 0.0
H509 H 0.11646 0.82032 0.33158 0.0
H510 H 0.15256 0.77649 0.27182 0.0
S511 S 0.93219 0.7747 0.21544 0.0
N512 N 0.94868 0.80268 0.26303 0.0
N513 N 0.98775 0.75479 0.19897 0.0
C514 C 0.02281 0.77056 0.23268 0.0
C515 C 1.00166 0.79684 0.26749 0.0
C516 C 0.20559 0.95523 0.80325 0.0
C517 C 0.24468 0.92526 0.79058 0.0
C518 C 0.17946 0.98298 0.77314 0.0
C519 C 0.19252 0.98301 0.7293 0.0
H520 H 0.19657 0.9589 0.83693 0.0
H521 H 0.15145 1.00732 0.78465 0.0
S522 S 0.28962 0.9084 0.67912 0.0
N523 N 0.29256 0.89468 0.7308 0.0
N524 N 0.24463 0.9478 0.67439 0.0
C525 C 0.22976 0.9513 0.71601 0.0
C526 C 0.2555 0.92214 0.74658 0.0
C527 C 0.06077 0.48871 0.97353 0.0
C528 C 0.02369 0.43818 0.98468 0.0
C529 C 0.09201 0.52305 1.00495 0.0
C530 C 0.08774 0.50746 0.04838 0.0
H531 H 0.06297 0.50344 0.94069 0.0
H532 H 0.11737 0.56338 0.99554 0.0
S533 S 0.99846 0.37827 0.09379 0.0
N534 N 0.98551 0.37355 0.04177 0.0
N535 N 0.04569 0.43733 0.10077 0.0
C536 C 0.05319 0.45569 0.05963 0.0
C537 C 0.02073 0.42114 0.02772 0.0
C538 C 0.56224 0.34404 0.27267 0.0
C539 C 0.55938 0.32601 0.31562 0.0
C540 C 0.5892 0.31914 0.2414 0.0
C541 C 0.61574 0.27648 0.25212 0.0
H542 H 0.5409 0.37544 0.26266 0.0
H543 H 0.58783 0.33224 0.20833 0.0
S544 S 0.62369 0.21729 0.36079 0.0
N545 N 0.58761 0.26477 0.36763 0.0
N546 N 0.63954 0.21925 0.30934 0.0
C547 C 0.61571 0.26024 0.2954 0.0
C548 C 0.58717 0.28465 0.327 0.0
C549 C 0.79437 0.75324 0.511 0.0
C550 C 0.78228 0.80276 0.49591 0.0
C551 C 0.76282 0.72121 0.54325 0.0
C552 C 0.71767 0.73709 0.56277 0.0
H553 H 0.82874 0.73856 0.49787 0.0
H554 H 0.77443 0.68344 0.55285 0.0
S555 S 0.66792 0.86331 0.53547 0.0
N556 N 0.72124 0.86621 0.50303 0.0
N557 N 0.66224 0.80619 0.56436 0.0
C558 C 0.70487 0.78664 0.54824 0.0
C559 C 0.73699 0.81932 0.51479 0.0
C560 C 0.2607 0.49184 0.23546 0.0
C561 C 0.2032 0.48888 0.23229 0.0
C562 C 0.28275 0.46661 0.26944 0.0
C563 C 0.24841 0.43776 0.3022 0.0
H564 H 0.28937 0.51479 0.21187 0.0
H565 H 0.32751 0.47196 0.27087 0.0
S566 S 0.09435 0.41401 0.30743 0.0
N567 N 0.11181 0.45159 0.26356 0.0
N568 N 0.15321 0.40464 0.3277 0.0
C569 C 0.19051 0.43251 0.29857 0.0
C570 C 0.16794 0.45787 0.26361 0.0
C571 C 0.75878 0.31162 1.00691 0.0
C572 C 0.79988 0.29122 0.98524 0.0
C573 C 0.72597 0.28057 0.03983 0.0
C574 C 0.73228 0.22742 0.05212 0.0
H575 H 0.7524 0.35226 0.99891 0.0
H576 H 0.69553 0.29848 0.05575 0.0
S577 S 0.83268 0.15382 1.00449 0.0
N578 N 0.84468 0.21404 0.9794 0.0
N579 N 0.78162 0.15521 0.03784 0.0
C580 C 0.77233 0.20625 0.02984 0.0
C581 C 0.80641 0.23819 0.99744 0.0
C582 C 0.70941 0.98501 0.33372 0.0
C583 C 0.73212 0.93993 0.32269 0.0
C584 C 0.68127 0.01028 0.30335 0.0
C585 C 0.67607 0.99235 0.26046 0.0
H586 H 0.71467 1.00184 0.36588 0.0
H587 H 0.66645 0.0462 0.31299 0.0
S588 S 0.7265 0.87472 0.21548 0.0
N589 N 0.74517 0.8767 0.26642 0.0
N590 N 0.69396 0.92522 0.20899 0.0
C591 C 0.69704 0.94615 0.24937 0.0
C592 C 0.72459 0.91965 0.28055 0.0
C593 C 0.99114 0.94243 0.53206 0.0
C594 C 1.00738 0.93907 0.48922 0.0
C595 C 0.0263 0.97621 0.56152 0.0
C596 C 0.07887 1.00834 0.54924 0.0
H597 H 0.9496 0.92117 0.54229 0.0
H598 H 1.01097 0.97951 0.59364 0.0
S599 S 0.14256 0.01164 0.44165 0.0
N600 N 0.0809 0.96784 0.43651 0.0
N601 N 0.14711 0.03213 0.49217 0.0
C602 C 0.09728 1.00264 0.50732 0.0
C603 C 0.06141 0.96776 0.47717 0.0
C604 C 0.08564 0.31535 0.79516 0.0
C605 C 0.04462 0.3426 0.78146 0.0
C606 C 0.11227 0.28691 0.76615 0.0
C607 C 0.09787 0.28344 0.72246 0.0
H608 H 0.09557 0.31402 0.82893 0.0
H609 H 0.14166 0.26453 0.77856 0.0
S610 S 0.99597 0.35054 0.66962 0.0
N611 N 0.99375 0.36728 0.72066 0.0
N612 N 0.04275 0.31298 0.66637 0.0
C613 C 0.05892 0.31273 0.70801 0.0
C614 C 0.03261 0.34257 0.73742 0.0
C615 C 0.58688 0.76489 0.80069 0.0
C616 C 0.5859 0.77478 0.75627 0.0
C617 C 0.55801 0.79138 0.82943 0.0
C618 C 0.52822 0.82991 0.81507 0.0
H619 H 0.60756 0.73421 0.81322 0.0
H620 H 0.55784 0.78052 0.86311 0.0
S621 S 0.51582 0.87351 0.70234 0.0
N622 N 0.55461 0.82779 0.69955 0.0
N623 N 0.50173 0.87857 0.75368 0.0
C624 C 0.52931 0.84239 0.77104 0.0
C625 C 0.55774 0.81455 0.74164 0.0
C626 C 0.18788 0.73088 1.00568 0.0
C627 C 0.18898 0.74532 0.04921 0.0
C628 C 0.2207 0.7664 0.97563 0.0
C629 C 0.25635 0.81697 0.98831 0.0
H630 H 0.1639 0.6905 0.99525 0.0
H631 H 0.22082 0.75262 0.94273 0.0
S632 S 0.27331 0.87414 0.09832 0.0
N633 N 0.22641 0.81442 0.10329 0.0
N634 N 0.28964 0.88047 0.04691 0.0
C635 C 0.25598 0.83297 0.03137 0.0
C636 C 0.22184 0.79721 0.06188 0.0
C637 C 0.48928 0.50672 0.50726 0.0
C638 C 0.50313 0.45767 0.49345 0.0
C639 C 0.51821 0.53901 0.54033 0.0
C640 C 0.56229 0.5239 0.5623 0.0
H641 H 0.45551 0.52094 0.49246 0.0
H642 H 0.50534 0.5765 0.54852 0.0
S643 S 0.61564 0.39886 0.53947 0.0
N644 N 0.56463 0.39528 0.50451 0.0
N645 N 0.61855 0.45581 0.5677 0.0
C646 C 0.57678 0.47471 0.54923 0.0
C647 C 0.54741 0.44177 0.51473 0.0
loop_
_geom_bond_atom_site_label_1
_geom_bond_atom_site_label_2
_geom_bond_distance
_geom_bond_site_symmetry_2
_ccdc_geom_bond_type
Co0 O2 2.143 . S
Co0 O8 2.074 . S
Co0 O11 2.093 . S
Co0 O24 2.097 . S
Co0 N41 2.151 . S
Co0 N49 2.214 . S
Co1 O2 2.160 . S
Co1 O7 2.058 . S
Co1 O17 2.057 . S
Co1 O32 2.037 . S
Co1 N36 2.145 1_455 S
Co1 N57 2.257 . S
O2 Co0 2.143 . S
O2 Co1 2.160 . S
C3 O4 1.278 . S
C3 O11 1.224 . S
O4 C3 1.278 . S
C5 O6 1.245 . S
C5 O17 1.232 . S
O6 C5 1.245 . S
O7 Co1 2.058 . S
O7 C33 1.269 . S
O8 Co0 2.074 . S
O8 C33 1.257 . S
H9 C34 0.930 . S
H10 C40 0.930 . S
O11 Co0 2.093 . S
O11 C3 1.224 . S
H12 C44 0.929 . S
H13 C46 0.930 . S
H14 C47 0.930 . S
H15 C45 0.929 . S
H16 C48 0.928 . S
O17 Co1 2.057 . S
O17 C5 1.232 . S
H18 C37 0.929 1_455 S
H19 C38 0.929 . S
H20 C50 0.931 . S
H21 C42 0.929 . S
H22 C51 0.930 . S
H23 C43 0.931 . S
O24 Co0 2.097 . S
O24 C52 1.214 . S
H25 C53 0.929 . S
H26 C54 0.929 . S
H27 C55 0.924 1_565 S
H28 C56 0.929 . S
H29 C58 0.930 . S
H30 C35 0.930 . S
H31 C39 0.930 . S
O32 Co1 2.037 . S
O32 C52 1.234 . S
C33 O7 1.269 . S
C33 O8 1.257 . S
C34 H9 0.930 . S
C34 C37 1.388 . S
C34 C39 1.418 . S
C35 H30 0.930 . S
C35 C38 1.404 . S
C35 C39 1.353 . S
N36 Co1 2.145 1_655 S
N36 C37 1.397 . S
N36 C38 1.334 . S
C37 H18 0.929 1_655 S
C37 C34 1.388 . S
C37 N36 1.397 . S
C38 H19 0.929 . S
C38 C35 1.404 . S
C38 N36 1.334 . S
C39 H31 0.930 . S
C39 C34 1.418 . S
C39 C35 1.353 . S
C40 H10 0.930 . S
C40 N41 1.330 . S
C40 C42 1.446 . S
N41 Co0 2.151 . S
N41 C40 1.330 . S
N41 C45 1.418 . S
C42 H21 0.929 . S
C42 C40 1.446 . S
C42 C43 1.332 . S
C43 H23 0.931 . S
C43 C42 1.332 . S
C43 C44 1.267 . S
C44 H12 0.929 . S
C44 C43 1.267 . S
C44 C45 1.251 . S
C45 H15 0.929 . S
C45 N41 1.418 . S
C45 C44 1.251 . S
C46 H13 0.930 . S
C46 C48 1.406 . S
C46 C51 1.261 . S
C47 H14 0.930 . S
C47 N49 1.325 . S
C47 C50 1.357 . S
C48 H16 0.928 . S
C48 C46 1.406 . S
C48 N49 1.261 . S
N49 Co0 2.214 . S
N49 C47 1.325 . S
N49 C48 1.261 . S
C50 H20 0.931 . S
C50 C47 1.357 . S
C50 C51 1.312 . S
C51 H22 0.930 . S
C51 C46 1.261 . S
C51 C50 1.312 . S
C52 O24 1.214 . S
C52 O32 1.234 . S
C53 H25 0.929 . S
C53 C56 1.391 1_545 S
C53 C58 1.391 1_655 S
C54 H26 0.929 . S
C54 C55 1.398 . S
C54 N57 1.391 1_655 S
C55 H27 0.924 1_545 S
C55 C54 1.398 . S
C55 C56 1.391 1_545 S
C56 H28 0.929 . S
C56 C53 1.391 1_565 S
C56 C55 1.391 1_565 S
N57 Co1 2.257 . S
N57 C54 1.391 1_455 S
N57 C58 1.388 . S
C58 H29 0.930 . S
C58 C53 1.391 1_455 S
C58 N57 1.388 . S
Co59 O61 2.143 . S
Co59 O67 2.074 . S
Co59 O70 2.093 . S
Co59 O83 2.097 . S
Co59 N100 2.151 . S
Co59 N108 2.214 . S
Co60 O61 2.160 . S
Co60 O66 2.058 . S
Co60 O76 2.057 . S
Co60 O91 2.037 . S
Co60 N95 2.145 . S
Co60 N116 2.257 . S
O61 Co59 2.143 . S
O61 Co60 2.160 . S
C62 O63 1.278 . S
C62 O70 1.224 . S
O63 C62 1.278 . S
C64 O65 1.245 . S
C64 O76 1.232 . S
O65 C64 1.245 . S
O66 Co60 2.058 . S
O66 C92 1.269 . S
O67 Co59 2.074 . S
O67 C92 1.257 . S
H68 C93 0.930 1_554 S
H69 C99 0.930 . S
O70 Co59 2.093 . S
O70 C62 1.224 . S
H71 C103 0.929 . S
H72 C105 0.930 . S
H73 C106 0.930 . S
H74 C104 0.929 . S
H75 C107 0.928 . S
O76 Co60 2.057 . S
O76 C64 1.232 . S
H77 C96 0.929 . S
H78 C97 0.929 . S
H79 C109 0.931 1_554 S
H80 C101 0.929 . S
H81 C110 0.919 1_554 S
H82 C102 0.931 . S
O83 Co59 2.097 . S
O83 C111 1.214 . S
H84 C112 0.929 . S
H85 C113 0.929 . S
H86 C114 0.924 1_455 S
H87 C115 0.929 . S
H88 C117 0.930 . S
H89 C94 0.930 . S
H90 C98 0.930 . S
O91 Co60 2.037 . S
O91 C111 1.234 . S
C92 O66 1.269 . S
C92 O67 1.257 . S
C93 H68 0.930 1_556 S
C93 C96 1.388 . S
C93 C98 1.418 . S
C94 H89 0.930 . S
C94 C97 1.404 . S
C94 C98 1.353 . S
N95 Co60 2.145 . S
N95 C96 1.397 . S
N95 C97 1.334 . S
C96 H77 0.929 . S
C96 C93 1.388 . S
C96 N95 1.397 . S
C97 H78 0.929 . S
C97 C94 1.404 . S
C97 N95 1.334 . S
C98 H90 0.930 . S
C98 C93 1.418 . S
C98 C94 1.353 . S
C99 H69 0.930 . S
C99 N100 1.330 . S
C99 C101 1.446 . S
N100 Co59 2.151 . S
N100 C99 1.330 . S
N100 C104 1.418 . S
C101 H80 0.929 . S
C101 C99 1.446 . S
C101 C102 1.332 . S
C102 H82 0.931 . S
C102 C101 1.332 . S
C102 C103 1.267 . S
C103 H71 0.929 . S
C103 C102 1.267 . S
C103 C104 1.251 . S
C104 H74 0.929 . S
C104 N100 1.418 . S
C104 C103 1.251 . S
C105 H72 0.930 . S
C105 C107 1.406 . S
C105 C110 1.261 . S
C106 H73 0.930 . S
C106 N108 1.325 . S
C106 C109 1.357 . S
C107 H75 0.928 . S
C107 C105 1.406 . S
C107 N108 1.261 . S
N108 Co59 2.214 . S
N108 C106 1.325 . S
N108 C107 1.261 . S
C109 H79 0.931 1_556 S
C109 C106 1.357 . S
C109 C110 1.312 . S
C110 H81 0.919 1_556 S
C110 C105 1.261 . S
C110 C109 1.312 . S
C111 O83 1.214 . S
C111 O91 1.234 . S
C112 H84 0.929 . S
C112 C115 1.391 1_655 S
C112 C117 1.391 . S
C113 H85 0.929 . S
C113 C114 1.398 . S
C113 N116 1.391 . S
C114 H86 0.924 1_655 S
C114 C113 1.398 . S
C114 C115 1.391 1_655 S
C115 H87 0.929 . S
C115 C112 1.391 1_455 S
C115 C114 1.391 1_455 S
N116 Co60 2.257 . S
N116 C113 1.391 . S
N116 C117 1.388 . S
C117 H88 0.930 . S
C117 C112 1.391 . S
C117 N116 1.388 . S
Co118 O120 2.143 . S
Co118 O126 2.074 . S
Co118 O129 2.093 . S
Co118 O142 2.097 . S
Co118 N159 2.151 . S
Co118 N167 2.214 . S
Co119 O120 2.160 . S
Co119 O125 2.058 . S
Co119 O135 2.057 . S
Co119 O150 2.037 . S
Co119 N154 2.145 . S
Co119 N175 2.257 . S
O120 Co118 2.143 . S
O120 Co119 2.160 . S
C121 O122 1.278 . S
C121 O129 1.224 . S
O122 C121 1.278 . S
C123 O124 1.245 . S
C123 O135 1.232 . S
O124 C123 1.245 . S
O125 Co119 2.058 . S
O125 C151 1.269 . S
O126 Co118 2.074 . S
O126 C151 1.257 . S
H127 C152 0.930 1_556 S
H128 C158 0.930 . S
O129 Co118 2.093 . S
O129 C121 1.224 . S
H130 C162 0.929 . S
H131 C164 0.930 . S
H132 C165 0.930 . S
H133 C163 0.929 . S
H134 C166 0.928 . S
O135 Co119 2.057 . S
O135 C123 1.232 . S
H136 C155 0.929 . S
H137 C156 0.929 . S
H138 C168 0.931 1_556 S
H139 C160 0.929 . S
H140 C169 0.919 1_556 S
H141 C161 0.931 . S
O142 Co118 2.097 . S
O142 C170 1.214 . S
H143 C171 0.929 . S
H144 C172 0.929 . S
H145 C173 0.924 1_565 S
H146 C174 0.929 . S
H147 C176 0.930 . S
H148 C153 0.930 . S
H149 C157 0.930 . S
O150 Co119 2.037 . S
O150 C170 1.234 . S
C151 O125 1.269 . S
C151 O126 1.257 . S
C152 H127 0.930 1_554 S
C152 C155 1.388 . S
C152 C157 1.418 . S
C153 H148 0.930 . S
C153 C156 1.404 . S
C153 C157 1.353 . S
N154 Co119 2.145 . S
N154 C155 1.397 . S
N154 C156 1.334 . S
C155 H136 0.929 . S
C155 C152 1.388 . S
C155 N154 1.397 . S
C156 H137 0.929 . S
C156 C153 1.404 . S
C156 N154 1.334 . S
C157 H149 0.930 . S
C157 C152 1.418 . S
C157 C153 1.353 . S
C158 H128 0.930 . S
C158 N159 1.330 . S
C158 C160 1.446 . S
N159 Co118 2.151 . S
N159 C158 1.330 . S
N159 C163 1.418 . S
C160 H139 0.929 . S
C160 C158 1.446 . S
C160 C161 1.332 . S
C161 H141 0.931 . S
C161 C160 1.332 . S
C161 C162 1.267 . S
C162 H130 0.929 . S
C162 C161 1.267 . S
C162 C163 1.251 . S
C163 H133 0.929 . S
C163 N159 1.418 . S
C163 C162 1.251 . S
C164 H131 0.930 . S
C164 C166 1.406 . S
C164 C169 1.261 . S
C165 H132 0.930 . S
C165 N167 1.325 . S
C165 C168 1.357 . S
C166 H134 0.928 . S
C166 C164 1.406 . S
C166 N167 1.261 . S
N167 Co118 2.214 . S
N167 C165 1.325 . S
N167 C166 1.261 . S
C168 H138 0.931 1_554 S
C168 C165 1.357 . S
C168 C169 1.312 . S
C169 H140 0.919 1_554 S
C169 C164 1.261 . S
C169 C168 1.312 . S
C170 O142 1.214 . S
C170 O150 1.234 . S
C171 H143 0.929 . S
C171 C174 1.391 1_545 S
C171 C176 1.391 . S
C172 H144 0.929 . S
C172 C173 1.398 . S
C172 N175 1.391 . S
C173 H145 0.924 1_545 S
C173 C172 1.398 . S
C173 C174 1.391 1_545 S
C174 H146 0.929 . S
C174 C171 1.391 1_565 S
C174 C173 1.391 1_565 S
N175 Co119 2.257 . S
N175 C172 1.391 . S
N175 C176 1.388 . S
C176 H147 0.930 . S
C176 C171 1.391 . S
C176 N175 1.388 . S
Co177 O179 2.143 . S
Co177 O185 2.074 . S
Co177 O188 2.093 . S
Co177 O201 2.097 . S
Co177 N218 2.151 . S
Co177 N226 2.214 . S
Co178 O179 2.160 . S
Co178 O184 2.058 . S
Co178 O194 2.057 . S
Co178 O209 2.037 . S
Co178 N213 2.145 1_565 S
Co178 N234 2.257 . S
O179 Co177 2.143 . S
O179 Co178 2.160 . S
C180 O181 1.278 . S
C180 O188 1.224 . S
O181 C180 1.278 . S
C182 O183 1.245 . S
C182 O194 1.232 . S
O183 C182 1.245 . S
O184 Co178 2.058 . S
O184 C210 1.269 . S
O185 Co177 2.074 . S
O185 C210 1.257 . S
H186 C211 0.930 . S
H187 C217 0.930 . S
O188 Co177 2.093 . S
O188 C180 1.224 . S
H189 C221 0.929 . S
H190 C223 0.930 . S
H191 C224 0.930 . S
H192 C222 0.929 . S
H193 C225 0.928 . S
O194 Co178 2.057 . S
O194 C182 1.232 . S
H195 C214 0.929 1_565 S
H196 C215 0.929 . S
H197 C227 0.931 . S
H198 C219 0.929 . S
H199 C228 0.930 . S
H200 C220 0.931 . S
O201 Co177 2.097 . S
O201 C229 1.214 . S
H202 C230 0.929 . S
H203 C231 0.929 . S
H204 C232 0.924 1_455 S
H205 C233 0.929 . S
H206 C235 0.930 . S
H207 C212 0.930 . S
H208 C216 0.930 . S
O209 Co178 2.037 . S
O209 C229 1.234 . S
C210 O184 1.269 . S
C210 O185 1.257 . S
C211 H186 0.930 . S
C211 C214 1.388 . S
C211 C216 1.418 . S
C212 H207 0.930 . S
C212 C215 1.404 . S
C212 C216 1.353 . S
N213 Co178 2.145 1_545 S
N213 C214 1.397 . S
N213 C215 1.334 . S
C214 H195 0.929 1_545 S
C214 C211 1.388 . S
C214 N213 1.397 . S
C215 H196 0.929 . S
C215 C212 1.404 . S
C215 N213 1.334 . S
C216 H208 0.930 . S
C216 C211 1.418 . S
C216 C212 1.353 . S
C217 H187 0.930 . S
C217 N218 1.330 . S
C217 C219 1.446 . S
N218 Co177 2.151 . S
N218 C217 1.330 . S
N218 C222 1.418 . S
C219 H198 0.929 . S
C219 C217 1.446 . S
C219 C220 1.332 . S
C220 H200 0.931 . S
C220 C219 1.332 . S
C220 C221 1.267 . S
C221 H189 0.929 . S
C221 C220 1.267 . S
C221 C222 1.251 . S
C222 H192 0.929 . S
C222 N218 1.418 . S
C222 C221 1.251 . S
C223 H190 0.930 . S
C223 C225 1.406 . S
C223 C228 1.261 . S
C224 H191 0.930 . S
C224 N226 1.325 . S
C224 C227 1.357 . S
C225 H193 0.928 . S
C225 C223 1.406 . S
C225 N226 1.261 . S
N226 Co177 2.214 . S
N226 C224 1.325 . S
N226 C225 1.261 . S
C227 H197 0.931 . S
C227 C224 1.357 . S
C227 C228 1.312 . S
C228 H199 0.930 . S
C228 C223 1.261 . S
C228 C227 1.312 . S
C229 O201 1.214 . S
C229 O209 1.234 . S
C230 H202 0.929 . S
C230 C233 1.391 1_655 S
C230 C235 1.391 1_545 S
C231 H203 0.929 . S
C231 C232 1.398 . S
C231 N234 1.391 1_545 S
C232 H204 0.924 1_655 S
C232 C231 1.398 . S
C232 C233 1.391 1_655 S
C233 H205 0.929 . S
C233 C230 1.391 1_455 S
C233 C232 1.391 1_455 S
N234 Co178 2.257 . S
N234 C231 1.391 1_565 S
N234 C235 1.388 . S
C235 H206 0.930 . S
C235 C230 1.391 1_565 S
C235 N234 1.388 . S
Co236 O238 2.143 . S
Co236 O244 2.074 . S
Co236 O247 2.093 . S
Co236 O260 2.097 . S
Co236 N277 2.151 . S
Co236 N285 2.214 . S
Co237 O238 2.160 . S
Co237 O243 2.058 . S
Co237 O253 2.057 . S
Co237 O268 2.037 . S
Co237 N272 2.145 1_455 S
Co237 N293 2.257 . S
O238 Co236 2.143 . S
O238 Co237 2.160 . S
C239 O240 1.278 . S
C239 O247 1.224 . S
O240 C239 1.278 . S
C241 O242 1.245 . S
C241 O253 1.232 . S
O242 C241 1.245 . S
O243 Co237 2.058 . S
O243 C269 1.269 . S
O244 Co236 2.074 . S
O244 C269 1.257 . S
H245 C270 0.930 1_556 S
H246 C276 0.930 . S
O247 Co236 2.093 . S
O247 C239 1.224 . S
H248 C280 0.929 . S
H249 C282 0.930 . S
H250 C283 0.930 . S
H251 C281 0.929 . S
H252 C284 0.928 . S
O253 Co237 2.057 . S
O253 C241 1.232 . S
H254 C273 0.929 1_455 S
H255 C274 0.929 . S
H256 C286 0.931 1_556 S
H257 C278 0.929 . S
H258 C287 0.919 1_556 S
H259 C279 0.931 . S
O260 Co236 2.097 . S
O260 C288 1.214 . S
H261 C289 0.929 . S
H262 C290 0.929 . S
H263 C291 0.930 . S
H264 C292 0.929 . S
H265 C294 0.930 . S
H266 C271 0.930 . S
H267 C275 0.930 . S
O268 Co237 2.037 . S
O268 C288 1.234 . S
C269 O243 1.269 . S
C269 O244 1.257 . S
C270 H245 0.930 1_554 S
C270 C273 1.388 . S
C270 C275 1.418 . S
C271 H266 0.930 . S
C271 C274 1.404 . S
C271 C275 1.353 . S
N272 Co237 2.145 1_655 S
N272 C273 1.397 . S
N272 C274 1.334 . S
C273 H254 0.929 1_655 S
C273 C270 1.388 . S
C273 N272 1.397 . S
C274 H255 0.929 . S
C274 C271 1.404 . S
C274 N272 1.334 . S
C275 H267 0.930 . S
C275 C270 1.418 . S
C275 C271 1.353 . S
C276 H246 0.930 . S
C276 N277 1.330 . S
C276 C278 1.446 . S
N277 Co236 2.151 . S
N277 C276 1.330 . S
N277 C281 1.418 . S
C278 H257 0.929 . S
C278 C276 1.446 . S
C278 C279 1.332 . S
C279 H259 0.931 . S
C279 C278 1.332 . S
C279 C280 1.267 . S
C280 H248 0.929 . S
C280 C279 1.267 . S
C280 C281 1.251 . S
C281 H251 0.929 . S
C281 N277 1.418 . S
C281 C280 1.251 . S
C282 H249 0.930 . S
C282 C284 1.406 . S
C282 C287 1.261 . S
C283 H250 0.930 . S
C283 N285 1.325 . S
C283 C286 1.357 . S
C284 H252 0.928 . S
C284 C282 1.406 . S
C284 N285 1.261 . S
N285 Co236 2.214 . S
N285 C283 1.325 . S
N285 C284 1.261 . S
C286 H256 0.931 1_554 S
C286 C283 1.357 . S
C286 C287 1.312 . S
C287 H258 0.919 1_554 S
C287 C282 1.261 . S
C287 C286 1.312 . S
C288 O260 1.214 . S
C288 O268 1.234 . S
C289 H261 0.929 . S
C289 C292 1.391 . S
C289 C294 1.391 1_655 S
C290 H262 0.929 . S
C290 C291 1.390 . S
C290 N293 1.391 1_655 S
C291 H263 0.930 . S
C291 C290 1.390 . S
C291 C292 1.392 . S
C292 H264 0.929 . S
C292 C289 1.391 . S
C292 C291 1.392 . S
N293 Co237 2.257 . S
N293 C290 1.391 1_455 S
N293 C294 1.388 . S
C294 H265 0.930 . S
C294 C289 1.391 1_455 S
C294 N293 1.388 . S
Co295 O297 2.143 . S
Co295 O303 2.074 . S
Co295 O306 2.093 . S
Co295 O319 2.097 . S
Co295 N336 2.151 . S
Co295 N344 2.214 . S
Co296 O297 2.160 . S
Co296 O302 2.058 . S
Co296 O312 2.057 . S
Co296 O327 2.037 . S
Co296 N331 2.145 . S
Co296 N352 2.257 . S
O297 Co295 2.143 . S
O297 Co296 2.160 . S
C298 O299 1.278 . S
C298 O306 1.224 . S
O299 C298 1.278 . S
C300 O301 1.245 . S
C300 O312 1.232 . S
O301 C300 1.245 . S
O302 Co296 2.058 . S
O302 C328 1.269 . S
O303 Co295 2.074 . S
O303 C328 1.257 . S
H304 C329 0.930 . S
H305 C335 0.930 . S
O306 Co295 2.093 . S
O306 C298 1.224 . S
H307 C339 0.929 . S
H308 C341 0.930 . S
H309 C342 0.930 . S
H310 C340 0.929 . S
H311 C343 0.928 . S
O312 Co296 2.057 . S
O312 C300 1.232 . S
H313 C332 0.929 . S
H314 C333 0.929 . S
H315 C345 0.931 . S
H316 C337 0.929 . S
H317 C346 0.930 . S
H318 C338 0.931 . S
O319 Co295 2.097 . S
O319 C347 1.214 . S
H320 C348 0.929 . S
H321 C349 0.929 . S
H322 C350 0.930 . S
H323 C351 0.929 . S
H324 C353 0.930 . S
H325 C330 0.930 . S
H326 C334 0.930 . S
O327 Co296 2.037 . S
O327 C347 1.234 . S
C328 O302 1.269 . S
C328 O303 1.257 . S
C329 H304 0.930 . S
C329 C332 1.388 . S
C329 C334 1.418 . S
C330 H325 0.930 . S
C330 C333 1.404 . S
C330 C334 1.353 . S
N331 Co296 2.145 . S
N331 C332 1.397 . S
N331 C333 1.334 . S
C332 H313 0.929 . S
C332 C329 1.388 . S
C332 N331 1.397 . S
C333 H314 0.929 . S
C333 C330 1.404 . S
C333 N331 1.334 . S
C334 H326 0.930 . S
C334 C329 1.418 . S
C334 C330 1.353 . S
C335 H305 0.930 . S
C335 N336 1.330 . S
C335 C337 1.446 . S
N336 Co295 2.151 . S
N336 C335 1.330 . S
N336 C340 1.418 . S
C337 H316 0.929 . S
C337 C335 1.446 . S
C337 C338 1.332 . S
C338 H318 0.931 . S
C338 C337 1.332 . S
C338 C339 1.267 . S
C339 H307 0.929 . S
C339 C338 1.267 . S
C339 C340 1.251 . S
C340 H310 0.929 . S
C340 N336 1.418 . S
C340 C339 1.251 . S
C341 H308 0.930 . S
C341 C343 1.406 . S
C341 C346 1.261 . S
C342 H309 0.930 . S
C342 N344 1.325 . S
C342 C345 1.357 . S
C343 H311 0.928 . S
C343 C341 1.406 . S
C343 N344 1.261 . S
N344 Co295 2.214 . S
N344 C342 1.325 . S
N344 C343 1.261 . S
C345 H315 0.931 . S
C345 C342 1.357 . S
C345 C346 1.312 . S
C346 H317 0.930 . S
C346 C341 1.261 . S
C346 C345 1.312 . S
C347 O319 1.214 . S
C347 O327 1.234 . S
C348 H320 0.929 . S
C348 C351 1.391 . S
C348 C353 1.391 . S
C349 H321 0.929 . S
C349 C350 1.390 . S
C349 N352 1.391 . S
C350 H322 0.930 . S
C350 C349 1.390 . S
C350 C351 1.392 . S
C351 H323 0.929 . S
C351 C348 1.391 . S
C351 C350 1.392 . S
N352 Co296 2.257 . S
N352 C349 1.391 . S
N352 C353 1.388 . S
C353 H324 0.930 . S
C353 C348 1.391 . S
C353 N352 1.388 . S
Co354 O356 2.143 . S
Co354 O362 2.074 . S
Co354 O365 2.093 . S
Co354 O378 2.097 . S
Co354 N395 2.151 . S
Co354 N403 2.214 . S
Co355 O356 2.160 . S
Co355 O361 2.058 . S
Co355 O371 2.057 . S
Co355 O386 2.037 . S
Co355 N390 2.145 1_565 S
Co355 N411 2.257 . S
O356 Co354 2.143 . S
O356 Co355 2.160 . S
C357 O358 1.278 . S
C357 O365 1.224 . S
O358 C357 1.278 . S
C359 O360 1.245 . S
C359 O371 1.232 . S
O360 C359 1.245 . S
O361 Co355 2.058 . S
O361 C387 1.269 . S
O362 Co354 2.074 . S
O362 C387 1.257 . S
H363 C388 0.930 1_554 S
H364 C394 0.930 . S
O365 Co354 2.093 . S
O365 C357 1.224 . S
H366 C398 0.929 . S
H367 C400 0.930 . S
H368 C401 0.930 . S
H369 C399 0.929 . S
H370 C402 0.928 . S
O371 Co355 2.057 . S
O371 C359 1.232 . S
H372 C391 0.929 1_565 S
H373 C392 0.929 . S
H374 C404 0.931 1_554 S
H375 C396 0.929 . S
H376 C405 0.919 1_554 S
H377 C397 0.931 . S
O378 Co354 2.097 . S
O378 C406 1.214 . S
H379 C407 0.929 . S
H380 C408 0.929 . S
H381 C409 0.930 . S
H382 C410 0.929 . S
H383 C412 0.930 . S
H384 C389 0.930 . S
H385 C393 0.930 . S
O386 Co355 2.037 . S
O386 C406 1.234 . S
C387 O361 1.269 . S
C387 O362 1.257 . S
C388 H363 0.930 1_556 S
C388 C391 1.388 . S
C388 C393 1.418 . S
C389 H384 0.930 . S
C389 C392 1.404 . S
C389 C393 1.353 . S
N390 Co355 2.145 1_545 S
N390 C391 1.397 . S
N390 C392 1.334 . S
C391 H372 0.929 1_545 S
C391 C388 1.388 . S
C391 N390 1.397 . S
C392 H373 0.929 . S
C392 C389 1.404 . S
C392 N390 1.334 . S
C393 H385 0.930 . S
C393 C388 1.418 . S
C393 C389 1.353 . S
C394 H364 0.930 . S
C394 N395 1.330 . S
C394 C396 1.446 . S
N395 Co354 2.151 . S
N395 C394 1.330 . S
N395 C399 1.418 . S
C396 H375 0.929 . S
C396 C394 1.446 . S
C396 C397 1.332 . S
C397 H377 0.931 . S
C397 C396 1.332 . S
C397 C398 1.267 . S
C398 H366 0.929 . S
C398 C397 1.267 . S
C398 C399 1.251 . S
C399 H369 0.929 . S
C399 N395 1.418 . S
C399 C398 1.251 . S
C400 H367 0.930 . S
C400 C402 1.406 . S
C400 C405 1.261 . S
C401 H368 0.930 . S
C401 N403 1.325 . S
C401 C404 1.357 . S
C402 H370 0.928 . S
C402 C400 1.406 . S
C402 N403 1.261 . S
N403 Co354 2.214 . S
N403 C401 1.325 . S
N403 C402 1.261 . S
C404 H374 0.931 1_556 S
C404 C401 1.357 . S
C404 C405 1.312 . S
C405 H376 0.919 1_556 S
C405 C400 1.261 . S
C405 C404 1.312 . S
C406 O378 1.214 . S
C406 O386 1.234 . S
C407 H379 0.929 . S
C407 C410 1.391 . S
C407 C412 1.391 1_545 S
C408 H380 0.929 . S
C408 C409 1.390 . S
C408 N411 1.391 1_545 S
C409 H381 0.930 . S
C409 C408 1.390 . S
C409 C410 1.392 . S
C410 H382 0.929 . S
C410 C407 1.391 . S
C410 C409 1.392 . S
N411 Co355 2.257 . S
N411 C408 1.391 1_565 S
N411 C412 1.388 . S
C412 H383 0.930 . S
C412 C407 1.391 1_565 S
C412 N411 1.388 . S
Co413 O415 2.143 . S
Co413 O421 2.074 . S
Co413 O424 2.093 . S
Co413 O437 2.097 . S
Co413 N454 2.151 . S
Co413 N462 2.214 . S
Co414 O415 2.160 . S
Co414 O420 2.058 . S
Co414 O430 2.057 . S
Co414 O445 2.037 . S
Co414 N449 2.145 . S
Co414 N470 2.257 . S
O415 Co413 2.143 . S
O415 Co414 2.160 . S
C416 O417 1.278 . S
C416 O424 1.224 . S
O417 C416 1.278 . S
C418 O419 1.245 . S
C418 O430 1.232 . S
O419 C418 1.245 . S
O420 Co414 2.058 . S
O420 C446 1.269 . S
O421 Co413 2.074 . S
O421 C446 1.257 . S
H422 C447 0.930 . S
H423 C453 0.930 . S
O424 Co413 2.093 . S
O424 C416 1.224 . S
H425 C457 0.929 . S
H426 C459 0.930 . S
H427 C460 0.930 . S
H428 C458 0.929 . S
H429 C461 0.928 . S
O430 Co414 2.057 . S
O430 C418 1.232 . S
H431 C450 0.929 . S
H432 C451 0.929 . S
H433 C463 0.931 . S
H434 C455 0.929 . S
H435 C464 0.930 . S
H436 C456 0.931 . S
O437 Co413 2.097 . S
O437 C465 1.214 . S
H438 C466 0.929 . S
H439 C467 0.929 . S
H440 C468 0.930 . S
H441 C469 0.929 . S
H442 C471 0.930 . S
H443 C448 0.930 . S
H444 C452 0.930 . S
O445 Co414 2.037 . S
O445 C465 1.234 . S
C446 O420 1.269 . S
C446 O421 1.257 . S
C447 H422 0.930 . S
C447 C450 1.388 . S
C447 C452 1.418 . S
C448 H443 0.930 . S
C448 C451 1.404 . S
C448 C452 1.353 . S
N449 Co414 2.145 . S
N449 C450 1.397 . S
N449 C451 1.334 . S
C450 H431 0.929 . S
C450 C447 1.388 . S
C450 N449 1.397 . S
C451 H432 0.929 . S
C451 C448 1.404 . S
C451 N449 1.334 . S
C452 H444 0.930 . S
C452 C447 1.418 . S
C452 C448 1.353 . S
C453 H423 0.930 . S
C453 N454 1.330 . S
C453 C455 1.446 . S
N454 Co413 2.151 . S
N454 C453 1.330 . S
N454 C458 1.418 . S
C455 H434 0.929 . S
C455 C453 1.446 . S
C455 C456 1.332 . S
C456 H436 0.931 . S
C456 C455 1.332 . S
C456 C457 1.267 . S
C457 H425 0.929 . S
C457 C456 1.267 . S
C457 C458 1.251 . S
C458 H428 0.929 . S
C458 N454 1.418 . S
C458 C457 1.251 . S
C459 H426 0.930 . S
C459 C461 1.406 . S
C459 C464 1.261 . S
C460 H427 0.930 . S
C460 N462 1.325 . S
C460 C463 1.357 . S
C461 H429 0.928 . S
C461 C459 1.406 . S
C461 N462 1.261 . S
N462 Co413 2.214 . S
N462 C460 1.325 . S
N462 C461 1.261 . S
C463 H433 0.931 . S
C463 C460 1.357 . S
C463 C464 1.312 . S
C464 H435 0.930 . S
C464 C459 1.261 . S
C464 C463 1.312 . S
C465 O437 1.214 . S
C465 O445 1.234 . S
C466 H438 0.929 . S
C466 C469 1.391 . S
C466 C471 1.391 . S
C467 H439 0.929 . S
C467 C468 1.390 . S
C467 N470 1.391 . S
C468 H440 0.930 . S
C468 C467 1.390 . S
C468 C469 1.392 . S
C469 H441 0.929 . S
C469 C466 1.391 . S
C469 C468 1.392 . S
N470 Co414 2.257 . S
N470 C467 1.391 . S
N470 C471 1.388 . S
C471 H442 0.930 . S
C471 C466 1.391 . S
C471 N470 1.388 . S
C472 C473 1.369 . S
C472 C474 1.419 . S
C472 H476 0.930 . S
C473 C472 1.369 . S
C473 C482 1.429 . S
C474 C472 1.419 . S
C474 C475 1.363 . S
C474 H477 0.929 . S
C475 C474 1.363 . S
C475 C481 1.428 . S
H476 C472 0.930 . S
H477 C474 0.929 . S
S478 N479 1.613 . S
S478 N480 1.610 . S
N479 S478 1.613 . S
N479 C482 1.350 . S
N480 S478 1.610 . S
N480 C481 1.351 . S
C481 C475 1.428 . S
C481 N480 1.351 . S
C481 C482 1.434 . S
C482 C473 1.429 . S
C482 N479 1.350 . S
C482 C481 1.434 . S
C483 C484 1.369 . S
C483 C485 1.419 . S
C483 H487 0.930 . S
C484 C483 1.369 . S
C484 C493 1.429 . S
C485 C483 1.419 . S
C485 C486 1.363 . S
C485 H488 0.929 . S
C486 C485 1.363 . S
C486 C492 1.428 . S
H487 C483 0.930 . S
H488 C485 0.929 . S
S489 N490 1.613 . S
S489 N491 1.610 . S
N490 S489 1.613 . S
N490 C493 1.350 . S
N491 S489 1.610 . S
N491 C492 1.351 . S
C492 C486 1.428 . S
C492 N491 1.351 . S
C492 C493 1.434 . S
C493 C484 1.429 . S
C493 N490 1.350 . S
C493 C492 1.434 . S
C494 C495 1.369 . S
C494 C496 1.419 1_544 S
C494 H498 0.930 . S
C495 C494 1.369 . S
C495 C504 1.429 1_545 S
C496 C494 1.419 1_566 S
C496 C497 1.363 . S
C496 H499 0.929 1_565 S
C497 C496 1.363 . S
C497 C503 1.428 . S
H498 C494 0.930 . S
H499 C496 0.929 1_545 S
S500 N501 1.613 . S
S500 N502 1.610 1_554 S
N501 S500 1.613 . S
N501 C504 1.350 . S
N502 S500 1.610 1_556 S
N502 C503 1.351 . S
C503 C497 1.428 . S
C503 N502 1.351 . S
C503 C504 1.434 1_556 S
C504 C495 1.429 1_565 S
C504 N501 1.350 . S
C504 C503 1.434 1_554 S
C505 C506 1.369 1_455 S
C505 C507 1.419 . S
C505 H509 0.930 . S
C506 C505 1.369 1_655 S
C506 C515 1.429 . S
C507 C505 1.419 . S
C507 C508 1.363 . S
C507 H510 0.929 . S
C508 C507 1.363 . S
C508 C514 1.409 1_455 S
H509 C505 0.930 . S
H510 C507 0.929 . S
S511 N512 1.613 . S
S511 N513 1.610 . S
N512 S511 1.613 . S
N512 C515 1.350 . S
N513 S511 1.610 . S
N513 C514 1.360 . S
C514 C508 1.409 1_655 S
C514 N513 1.360 . S
C514 C515 1.447 . S
C515 C506 1.429 . S
C515 N512 1.350 . S
C515 C514 1.447 . S
C516 C517 1.369 . S
C516 C518 1.419 . S
C516 H520 0.930 . S
C517 C516 1.369 . S
C517 C526 1.429 . S
C518 C516 1.419 . S
C518 C519 1.363 1_565 S
C518 H521 0.918 1_565 S
C519 C518 1.363 1_545 S
C519 C525 1.428 1_545 S
H520 C516 0.930 . S
H521 C518 0.918 1_545 S
S522 N523 1.613 . S
S522 N524 1.610 . S
N523 S522 1.613 . S
N523 C526 1.350 . S
N524 S522 1.610 . S
N524 C525 1.351 . S
C525 C519 1.428 1_565 S
C525 N524 1.351 . S
C525 C526 1.434 . S
C526 C517 1.429 . S
C526 N523 1.350 . S
C526 C525 1.434 . S
C527 C528 1.369 1_455 S
C527 C529 1.419 . S
C527 H531 0.930 . S
C528 C527 1.369 1_655 S
C528 C537 1.429 1_556 S
C529 C527 1.419 . S
C529 C530 1.363 1_556 S
C529 H532 0.929 . S
C530 C529 1.363 1_554 S
C530 C536 1.428 1_455 S
H531 C527 0.930 . S
H532 C529 0.929 . S
S533 N534 1.613 . S
S533 N535 1.610 . S
N534 S533 1.613 . S
N534 C537 1.350 . S
N535 S533 1.610 . S
N535 C536 1.351 . S
C536 C530 1.428 1_655 S
C536 N535 1.351 . S
C536 C537 1.434 . S
C537 C528 1.429 1_554 S
C537 N534 1.350 . S
C537 C536 1.434 . S
C538 C539 1.369 . S
C538 C540 1.419 . S
C538 H542 0.930 . S
C539 C538 1.369 . S
C539 C548 1.429 . S
C540 C538 1.419 . S
C540 C541 1.363 . S
C540 H543 0.929 . S
C541 C540 1.363 . S
C541 C547 1.428 . S
H542 C538 0.930 . S
H543 C540 0.929 . S
S544 N545 1.613 . S
S544 N546 1.610 . S
N545 S544 1.613 . S
N545 C548 1.350 . S
N546 S544 1.610 . S
N546 C547 1.351 . S
C547 C541 1.428 . S
C547 N546 1.351 . S
C547 C548 1.434 . S
C548 C539 1.429 . S
C548 N545 1.350 . S
C548 C547 1.434 . S
C549 C550 1.369 . S
C549 C551 1.419 . S
C549 H553 0.930 . S
C550 C549 1.369 . S
C550 C559 1.429 . S
C551 C549 1.419 . S
C551 C552 1.363 . S
C551 H554 0.929 . S
C552 C551 1.363 . S
C552 C558 1.428 . S
H553 C549 0.930 . S
H554 C551 0.929 . S
S555 N556 1.613 . S
S555 N557 1.610 . S
N556 S555 1.613 . S
N556 C559 1.350 . S
N557 S555 1.610 . S
N557 C558 1.351 . S
C558 C552 1.428 . S
C558 N557 1.351 . S
C558 C559 1.434 . S
C559 C550 1.429 . S
C559 N556 1.350 . S
C559 C558 1.434 . S
C560 C561 1.369 . S
C560 C562 1.419 . S
C560 H564 0.930 . S
C561 C560 1.369 . S
C561 C570 1.429 . S
C562 C560 1.419 . S
C562 C563 1.363 . S
C562 H565 0.929 . S
C563 C562 1.363 . S
C563 C569 1.428 . S
H564 C560 0.930 . S
H565 C562 0.929 . S
S566 N567 1.613 . S
S566 N568 1.610 . S
N567 S566 1.613 . S
N567 C570 1.350 . S
N568 S566 1.610 . S
N568 C569 1.351 . S
C569 C563 1.428 . S
C569 N568 1.351 . S
C569 C570 1.434 . S
C570 C561 1.429 . S
C570 N567 1.350 . S
C570 C569 1.434 . S
C571 C572 1.369 . S
C571 C573 1.419 1_556 S
C571 H575 0.930 . S
C572 C571 1.369 . S
C572 C581 1.429 . S
C573 C571 1.419 1_554 S
C573 C574 1.363 . S
C573 H576 0.929 . S
C574 C573 1.363 . S
C574 C580 1.428 . S
H575 C571 0.930 . S
H576 C573 0.929 . S
S577 N578 1.613 . S
S577 N579 1.610 1_556 S
N578 S577 1.613 . S
N578 C581 1.350 . S
N579 S577 1.610 1_554 S
N579 C580 1.351 . S
C580 C574 1.428 . S
C580 N579 1.351 . S
C580 C581 1.434 1_554 S
C581 C572 1.429 . S
C581 N578 1.350 . S
C581 C580 1.434 1_556 S
C582 C583 1.369 . S
C582 C584 1.426 . S
C582 H586 0.930 . S
C583 C582 1.369 . S
C583 C592 1.429 . S
C584 C582 1.426 . S
C584 C585 1.363 1_565 S
C584 H587 0.921 1_565 S
C585 C584 1.363 1_545 S
C585 C591 1.415 1_545 S
H586 C582 0.930 . S
H587 C584 0.921 1_545 S
S588 N589 1.613 . S
S588 N590 1.610 . S
N589 S588 1.613 . S
N589 C592 1.350 . S
N590 S588 1.610 . S
N590 C591 1.351 . S
C591 C585 1.415 1_565 S
C591 N590 1.351 . S
C591 C592 1.434 . S
C592 C583 1.429 . S
C592 N589 1.350 . S
C592 C591 1.434 . S
C593 C594 1.369 . S
C593 C595 1.419 1_655 S
C593 H597 0.930 . S
C594 C593 1.369 . S
C594 C603 1.429 1_655 S
C595 C593 1.419 1_455 S
C595 C596 1.363 1_565 S
C595 H598 0.929 . S
C596 C595 1.363 1_545 S
C596 C602 1.428 . S
H597 C593 0.930 . S
H598 C595 0.929 . S
S599 N600 1.613 . S
S599 N601 1.610 . S
N600 S599 1.613 . S
N600 C603 1.350 1_545 S
N601 S599 1.610 . S
N601 C602 1.351 . S
C602 C596 1.428 . S
C602 N601 1.351 . S
C602 C603 1.434 1_545 S
C603 C594 1.429 1_455 S
C603 N600 1.350 1_565 S
C603 C602 1.434 1_565 S
C604 C605 1.364 . S
C604 C606 1.419 1_655 S
C604 H608 0.930 . S
C605 C604 1.364 . S
C605 C614 1.420 1_655 S
C606 C604 1.419 1_455 S
C606 C607 1.363 . S
C606 H609 0.929 . S
C607 C606 1.363 . S
C607 C613 1.428 . S
H608 C604 0.930 . S
H609 C606 0.929 . S
S610 N611 1.613 . S
S610 N612 1.610 . S
N611 S610 1.613 . S
N611 C614 1.350 . S
N612 S610 1.610 . S
N612 C613 1.351 . S
C613 C607 1.428 . S
C613 N612 1.351 . S
C613 C614 1.434 . S
C614 C605 1.420 1_455 S
C614 N611 1.350 . S
C614 C613 1.434 . S
C615 C616 1.369 . S
C615 C617 1.419 . S
C615 H619 0.930 . S
C616 C615 1.369 . S
C616 C625 1.429 . S
C617 C615 1.419 . S
C617 C618 1.363 . S
C617 H620 0.929 . S
C618 C617 1.363 . S
C618 C624 1.428 . S
H619 C615 0.930 . S
H620 C617 0.929 . S
S621 N622 1.613 . S
S621 N623 1.610 . S
N622 S621 1.613 . S
N622 C625 1.350 . S
N623 S621 1.610 . S
N623 C624 1.351 . S
C624 C618 1.428 . S
C624 N623 1.351 . S
C624 C625 1.434 . S
C625 C616 1.429 . S
C625 N622 1.350 . S
C625 C624 1.434 . S
C626 C627 1.369 1_556 S
C626 C628 1.419 . S
C626 H630 0.930 . S
C627 C626 1.369 1_554 S
C627 C636 1.429 . S
C628 C626 1.419 . S
C628 C629 1.363 . S
C628 H631 0.929 . S
C629 C628 1.363 . S
C629 C635 1.428 1_556 S
H630 C626 0.930 . S
H631 C628 0.929 . S
S632 N633 1.613 . S
S632 N634 1.610 . S
N633 S632 1.613 . S
N633 C636 1.350 . S
N634 S632 1.610 . S
N634 C635 1.351 . S
C635 C629 1.428 1_554 S
C635 N634 1.351 . S
C635 C636 1.434 . S
C636 C627 1.429 . S
C636 N633 1.350 . S
C636 C635 1.434 . S
C637 C638 1.369 . S
C637 C639 1.419 . S
C637 H641 0.930 . S
C638 C637 1.369 . S
C638 C647 1.429 . S
C639 C637 1.419 . S
C639 C640 1.363 . S
C639 H642 0.929 . S
C640 C639 1.363 . S
C640 C646 1.428 . S
H641 C637 0.930 . S
H642 C639 0.929 . S
S643 N644 1.613 . S
S643 N645 1.610 . S
N644 S643 1.613 . S
N644 C647 1.350 . S
N645 S643 1.610 . S
N645 C646 1.351 . S
C646 C640 1.428 . S
C646 N645 1.351 . S
C646 C647 1.434 . S
C647 C638 1.429 . S
C647 N644 1.350 . S
C647 C646 1.434 . S
C473 C328 1.593 . S
C475 C33 1.593 . S
C484 C416 1.583 . S
C486 C64 1.590 . S
C495 C170 1.596 . S
C497 C406 1.596 . S
C506 C180 1.581 . S
C508 C241 1.588 . S
C517 C359 1.589 . S
C519 C3 1.580 . S
C528 C111 1.594 . S
C530 C288 1.593 . S
C539 C298 1.580 . S
C541 C123 1.589 . S
C550 C210 1.595 . S
C552 C446 1.595 . S
C561 C239 1.583 . S
C563 C300 1.590 . S
C572 C92 1.593 . S
C574 C151 1.594 . S
C583 C182 1.589 . S
C585 C121 1.592 . S
C594 C229 1.594 . S
C596 C52 1.596 . S
C605 C62 1.596 . S
C607 C5 1.589 . S
C616 C418 1.589 . S
C618 C357 1.583 . S
C627 C269 1.595 . S
C629 C387 1.595 . S
C638 C347 1.597 . S
C640 C465 1.596 . S
