# Generated by pormake.
# Topology fne, (5)-cn, num edge types: 1
# Building blocks:
#     Node 0, Type 0, BuildingBlock: XOMCOT_clean_sbu_0, # of connection points: 5
#     Node 1, Type 0, BuildingBlock: XOMCOT_clean_sbu_0, # of connection points: 5
#     Node 2, Type 0, BuildingBlock: XOMCOT_clean_sbu_0, # of connection points: 5
#     Node 3, Type 0, BuildingBlock: XOMCOT_clean_sbu_0, # of connection points: 5
#     Node 4, Type 0, BuildingBlock: XOMCOT_clean_sbu_0, # of connection points: 5
#     Node 5, Type 0, BuildingBlock: XOMCOT_clean_sbu_0, # of connection points: 5
#     Edge 6, Type (0, 0), BuildingBlock: MIFKUJ_clean_linker_0, # of connection points: 2
#     Edge 7, Type (0, 0), BuildingBlock: MIFKUJ_clean_linker_0, # of connection points: 2
#     Edge 8, Type (0, 0), BuildingBlock: MIFKUJ_clean_linker_0, # of connection points: 2
#     Edge 9, Type (0, 0), BuildingBlock: MIFKUJ_clean_linker_0, # of connection points: 2
#     Edge 10, Type (0, 0), BuildingBlock: MIFKUJ_clean_linker_0, # of connection points: 2
#     Edge 11, Type (0, 0), BuildingBlock: MIFKUJ_clean_linker_0, # of connection points: 2
#     Edge 12, Type (0, 0), BuildingBlock: MIFKUJ_clean_linker_0, # of connection points: 2
#     Edge 13, Type (0, 0), BuildingBlock: MIFKUJ_clean_linker_0, # of connection points: 2
#     Edge 14, Type (0, 0), BuildingBlock: MIFKUJ_clean_linker_0, # of connection points: 2
#     Edge 15, Type (0, 0), BuildingBlock: MIFKUJ_clean_linker_0, # of connection points: 2
#     Edge 16, Type (0, 0), BuildingBlock: MIFKUJ_clean_linker_0, # of connection points: 2
#     Edge 17, Type (0, 0), BuildingBlock: MIFKUJ_clean_linker_0, # of connection points: 2
#     Edge 18, Type (0, 0), BuildingBlock: MIFKUJ_clean_linker_0, # of connection points: 2
#     Edge 19, Type (0, 0), BuildingBlock: MIFKUJ_clean_linker_0, # of connection points: 2
#     Edge 20, Type (0, 0), BuildingBlock: MIFKUJ_clean_linker_0, # of connection points: 2
# Relax obj value: 0.060
# Max RMSD: 0.096
# Mean RMSD: 0.096
data_MOF--net-fne--node1-XOMCOT_clean_sbu_0--edge1-MIFKUJ_clean_linker_0
_symmetry_space_group_name_H-M    P1
_symmetry_Int_Tables_number       1
_symmetry_cell_setting            triclinic
loop_
_symmetry_equiv_pos_as_xyz
'x, y, z'
_cell_length_a     59.451143
_cell_length_b     59.525073
_cell_length_c     21.969443
_cell_angle_alpha  90.068999
_cell_angle_beta   90.028002
_cell_angle_gamma 119.67127
loop_
_atom_site_label
_atom_site_type_symbol
_atom_site_fract_x
_atom_site_fract_y
_atom_site_fract_z
_atom_type_partial_charge
Co0 Co 0.34926 0.05123 0.08839 0.0
C1 C 0.34508 0.04386 0.22314 0.0
C2 C 0.3112 0.01507 0.17757 0.0
C3 C 0.30741 0.01116 0.23925 0.0
N4 N 0.33528 0.03498 0.16698 0.0
N5 N 0.3287 0.02935 0.26765 0.0
H6 H 0.36318 0.06129 0.23187 0.0
H7 H 0.29653 1.00493 0.14343 0.0
C8 C 0.31848 0.99513 0.05131 0.0
O9 O 0.33117 0.98956 0.09203 0.0
N10 N 0.3624 0.06751 0.01038 0.0
C11 C 0.38547 0.08865 0.99901 0.0
C12 C 0.38799 0.09273 0.93699 0.0
C13 C 0.35127 0.05901 0.9554 0.0
N14 N 0.36655 0.07392 0.90992 0.0
C15 C 0.39359 0.04986 0.13563 0.0
C16 C 0.40091 0.02494 0.03792 0.0
C17 C 0.41898 0.03352 0.08573 0.0
C18 C 0.41495 0.04607 0.13506 0.0
C19 C 0.37972 0.02915 0.04034 0.0
N20 N 0.37588 0.041 0.08951 0.0
H21 H 0.39225 0.06126 0.17184 0.0
H22 H 0.36678 0.02346 0.00174 0.0
H23 H 0.3998 0.09985 0.03318 0.0
H24 H 0.33256 0.04204 0.9483 0.0
O25 O 0.36869 0.0844 0.12801 0.0
O26 O 0.32853 0.06813 0.094 0.0
O27 O 0.32338 0.01847 0.04482 0.0
C28 C 0.34844 0.08708 0.12102 0.0
H29 H 0.28981 0.99706 0.26159 0.0
H30 H 0.4047 0.10766 0.91345 0.0
H31 H 0.40325 0.01535 0.99853 0.0
H32 H 0.42884 0.05403 0.1719 0.0
Co33 Co 0.32599 0.34297 0.41139 0.0
C34 C 0.33102 0.33908 0.54575 0.0
C35 C 0.31709 0.30275 0.50038 0.0
C36 C 0.3167 0.29868 0.56203 0.0
N37 N 0.3267 0.32821 0.48982 0.0
N38 N 0.32537 0.32155 0.59055 0.0
H39 H 0.33677 0.35902 0.55413 0.0
H40 H 0.30947 0.28784 0.46582 0.0
C41 C 0.35036 0.31046 0.38329 0.0
O42 O 0.36644 0.32187 0.42876 0.0
N43 N 0.3245 0.35697 0.33344 0.0
C44 C 0.33065 0.38155 0.32177 0.0
C45 C 0.32989 0.38444 0.25977 0.0
C46 C 0.31993 0.34519 0.27881 0.0
N47 N 0.32327 0.36159 0.23275 0.0
C48 C 0.36984 0.38902 0.45729 0.0
C49 C 0.40486 0.39278 0.3697 0.0
C50 C 0.41252 0.41278 0.41241 0.0
C51 C 0.39465 0.41056 0.45681 0.0
C52 C 0.37967 0.37159 0.37151 0.0
N53 N 0.36262 0.36941 0.41612 0.0
H54 H 0.356 0.38915 0.4885 0.0
H55 H 0.37359 0.35766 0.33494 0.0
H56 H 0.33631 0.39655 0.35578 0.0
H57 H 0.31472 0.32515 0.27292 0.0
O58 O 0.31123 0.362 0.4495 0.0
O59 O 0.28848 0.32232 0.41257 0.0
O60 O 0.3336 0.31713 0.36937 0.0
C61 C 0.28867 0.34182 0.44007 0.0
H62 H 0.30912 0.28009 0.58416 0.0
H63 H 0.33498 0.40233 0.23643 0.0
H64 H 0.41775 0.39412 0.3333 0.0
H65 H 0.39955 0.42575 0.49007 0.0
Co66 Co 1.00911 0.31502 0.73353 0.0
C67 C 0.01734 0.31966 0.86799 0.0
C68 C 0.04173 0.30785 0.82312 0.0
C69 C 0.04532 0.30753 0.88486 0.0
N70 N 0.02476 0.31625 0.81218 0.0
N71 N 0.02986 0.31484 0.91297 0.0
H72 H 1.00206 0.32404 0.87617 0.0
H73 H 0.04986 0.30092 0.78885 0.0
C74 C 0.06576 0.33952 0.70417 0.0
O75 O 0.07041 0.35582 0.7492 0.0
N76 N 0.99338 0.31298 0.6555 0.0
C77 C 0.97406 0.31799 0.64382 0.0
C78 C 0.97006 0.31671 0.58186 0.0
C79 C 1.00086 0.30867 0.6009 0.0
N80 N 0.98704 0.311 0.55499 0.0
C81 C 1.00734 0.35942 0.77898 0.0
C82 C 0.03765 0.39363 0.68957 0.0
C83 C 0.02625 0.40197 0.73341 0.0
C84 C 1.01097 0.38447 0.77857 0.0
C85 C 0.03329 0.36825 0.69131 0.0
N86 N 0.01897 0.35164 0.7369 0.0
H87 H 0.99386 0.34595 0.81125 0.0
H88 H 0.04056 0.36173 0.65431 0.0
H89 H 0.96422 0.32312 0.67778 0.0
H90 H 1.01634 0.30431 0.59476 0.0
O91 O 0.9755 0.30056 0.77166 0.0
O92 O 0.99269 0.27758 0.73634 0.0
O93 O 0.04244 0.32248 0.69136 0.0
C94 C 0.97336 0.27796 0.76329 0.0
H95 H 0.05712 0.30084 0.90737 0.0
H96 H 0.95649 0.32079 0.55831 0.0
H97 H 0.04885 0.40621 0.65258 0.0
H98 H 1.00139 0.38989 0.81272 0.0
Co99 Co 0.72548 1.0049 0.08581 0.0
C100 C 0.7311 0.01437 0.2205 0.0
C101 C 0.76744 0.03178 0.17382 0.0
C102 C 0.7722 0.0355 0.23524 0.0
N103 N 0.74164 0.01907 0.16418 0.0
N104 N 0.74933 0.02443 0.26477 0.0
H105 H 0.71076 1.00236 0.22958 0.0
H106 H 0.78189 0.03722 0.13854 0.0
C107 C 0.76119 0.06124 0.06207 0.0
O108 O 0.75337 0.06655 0.11324 0.0
N109 N 0.7101 0.9906 0.00785 0.0
C110 C 0.68506 0.97346 0.99677 0.0
C111 C 0.68151 0.97027 0.93472 0.0
C112 C 0.72151 0.99747 0.95278 0.0
N113 N 0.70444 0.98547 0.90715 0.0
C114 C 0.68053 1.0045 0.13482 0.0
C115 C 0.6789 0.03887 0.05309 0.0
C116 C 0.65839 0.02627 0.09444 0.0
C117 C 0.65962 1.00904 0.13598 0.0
C118 C 0.69943 0.03365 0.05323 0.0
N119 N 0.70047 0.01704 0.09471 0.0
H120 H 0.67959 0.98946 0.16365 0.0
H121 H 0.71361 0.04192 0.01743 0.0
H122 H 0.67028 0.96449 0.03131 0.0
H123 H 0.74166 0.01172 0.94613 0.0
O124 O 0.70566 0.97124 0.12287 0.0
O125 O 0.74464 0.98629 0.08281 0.0
O126 O 0.75168 0.03788 0.04385 0.0
C127 C 0.72506 0.96764 0.11115 0.0
H128 H 0.79113 0.0451 0.25634 0.0
H129 H 0.66338 0.95793 0.91175 0.0
H130 H 0.67882 0.05215 0.01959 0.0
H131 H 0.64385 0.99794 0.16712 0.0
Co132 Co 0.74923 0.714 0.40829 0.0
C133 C 0.74377 0.71791 0.5424 0.0
C134 C 0.75986 0.7546 0.49782 0.0
C135 C 0.76004 0.75857 0.55952 0.0
N136 N 0.74909 0.72902 0.48678 0.0
N137 N 0.75001 0.73548 0.58751 0.0
H138 H 0.73673 0.69769 0.55042 0.0
H139 H 0.76825 0.76953 0.46353 0.0
C140 C 0.72585 0.74754 0.38196 0.0
O141 O 0.71058 0.73704 0.4291 0.0
N142 N 0.75013 0.69967 0.33028 0.0
C143 C 0.74344 0.67495 0.3184 0.0
C144 C 0.74389 0.67196 0.25633 0.0
C145 C 0.75474 0.71144 0.27574 0.0
N146 N 0.75088 0.6949 0.22952 0.0
C147 C 0.70553 0.66783 0.45373 0.0
C148 C 0.66975 0.66532 0.36977 0.0
C149 C 0.66232 0.64495 0.41115 0.0
C150 C 0.68058 0.64649 0.45362 0.0
C151 C 0.6951 0.68624 0.37094 0.0
N152 N 0.71253 0.68782 0.41391 0.0
H153 H 0.71959 0.66728 0.48356 0.0
H154 H 0.70094 0.70037 0.33503 0.0
H155 H 0.73762 0.65993 0.35232 0.0
H156 H 0.76035 0.73158 0.27006 0.0
O157 O 0.76396 0.69489 0.44614 0.0
O158 O 0.78678 0.73437 0.40846 0.0
O159 O 0.74173 0.73993 0.36647 0.0
C160 C 0.78654 0.71492 0.4362 0.0
H161 H 0.76833 0.77715 0.58213 0.0
H162 H 0.73834 0.65397 0.23282 0.0
H163 H 0.65651 0.66445 0.33474 0.0
H164 H 0.67584 0.63095 0.48564 0.0
Co165 Co 0.06751 0.74248 0.72503 0.0
C166 C 0.05873 0.73732 0.85927 0.0
C167 C 0.03704 0.75244 0.81472 0.0
C168 C 0.03363 0.75298 0.87647 0.0
N169 N 0.05227 0.742 0.80362 0.0
N170 N 0.04741 0.74359 0.90444 0.0
H171 H 0.0725 0.73089 0.86721 0.0
H172 H 0.03005 0.76051 0.78045 0.0
C173 C 1.01081 0.71892 0.69853 0.0
O174 O 1.00645 0.7036 0.74542 0.0
N175 N 0.08288 0.74383 0.64701 0.0
C176 C 0.10111 0.73733 0.6349 0.0
C177 C 0.10527 0.73892 0.57302 0.0
C178 C 0.07627 0.74944 0.59281 0.0
N179 N 0.08955 0.74644 0.54655 0.0
C180 C 0.07005 0.69852 0.77 0.0
C181 C 0.0373 0.66311 0.68514 0.0
C182 C 0.04986 0.65539 0.72721 0.0
C183 C 0.06638 0.67347 0.77 0.0
C184 C 0.04184 0.68858 0.68612 0.0
N185 N 0.05736 0.7058 0.72964 0.0
H186 H 0.08439 0.7124 0.80036 0.0
H187 H 0.03377 0.69463 0.64992 0.0
H188 H 0.11012 0.73104 0.66851 0.0
H189 H 0.06182 0.75528 0.58737 0.0
O190 O 0.10116 0.7569 0.76297 0.0
O191 O 0.08433 0.78002 0.72671 0.0
O192 O 0.0341 0.73506 0.68315 0.0
C193 C 0.10351 0.77955 0.75427 0.0
H194 H 0.02321 0.76122 0.89906 0.0
H195 H 0.1181 0.73388 0.54928 0.0
H196 H 0.02508 0.64998 0.64992 0.0
H197 H 0.07691 0.66848 0.80248 0.0
H198 H 0.44962 0.03906 0.98667 0.0
H199 H 0.49014 0.03784 0.98485 0.0
H200 H 0.48314 0.02173 0.17733 0.0
H201 H 0.44241 0.02243 0.17942 0.0
H202 H 0.53131 0.06076 0.14727 0.0
H203 H 0.47185 0.97481 0.0748 0.0
H204 H 0.43821 0.94278 0.00681 0.0
H205 H 0.48857 0.97612 0.85317 0.0
H206 H 0.5224 1.00859 0.92018 0.0
H207 H 0.62857 0.02687 0.18937 0.0
H208 H 0.58838 0.02836 0.18422 0.0
H209 H 0.59519 0.03542 0.98882 0.0
H210 H 0.6346 0.03234 0.99321 0.0
H211 H 0.54766 1.00248 0.01615 0.0
H212 H 0.60737 0.08766 0.08525 0.0
H213 H 0.6414 0.12092 0.15031 0.0
H214 H 0.5915 0.09126 0.30587 0.0
H215 H 0.55728 0.05758 0.24188 0.0
C216 C 0.4564 0.03475 0.02843 0.0
C217 C 0.44268 0.0309 0.08325 0.0
C218 C 0.47967 0.03419 0.02735 0.0
C219 C 0.48971 0.02967 0.08097 0.0
C220 C 0.47588 0.02542 0.13547 0.0
C221 C 0.4526 0.02589 0.13657 0.0
C222 C 0.51498 0.03013 0.0809 0.0
C223 C 0.5348 0.0478 0.11916 0.0
C224 C 0.51985 0.01385 0.04269 0.0
C225 C 0.49955 0.99429 0.00242 0.0
C226 C 0.47567 0.97544 0.02645 0.0
C227 C 0.45659 0.95718 0.9881 0.0
C228 C 0.46123 0.95746 0.92568 0.0
C229 C 0.48499 0.97596 0.90151 0.0
C230 C 0.50413 0.99428 0.93966 0.0
C231 C 0.62152 0.02861 0.14517 0.0
C232 C 0.635 0.02948 0.09173 0.0
C233 C 0.59862 0.02979 0.14236 0.0
C234 C 0.58881 0.03236 0.08617 0.0
C235 C 0.60234 0.03353 0.03278 0.0
C236 C 0.62513 0.03209 0.03548 0.0
C237 C 0.56404 0.03298 0.08306 0.0
C238 C 0.54429 0.01555 0.04415 0.0
C239 C 0.55932 0.04969 0.12021 0.0
C240 C 0.57984 0.06995 0.15884 0.0
C241 C 0.60372 0.0881 0.13342 0.0
C242 C 0.62303 0.10705 0.17009 0.0
C243 C 0.61864 0.10816 0.23221 0.0
C244 C 0.59489 0.09036 0.25776 0.0
C245 C 0.57551 0.07135 0.22129 0.0
H246 H 0.63361 0.12285 0.26052 0.0
H247 H 0.44643 0.94331 0.89607 0.0
H248 H 0.65104 0.5946 0.41151 0.0
H249 H 0.60837 0.55567 0.40751 0.0
H250 H 0.57217 0.60297 0.39895 0.0
H251 H 0.61498 0.64213 0.40264 0.0
H252 H 0.54988 0.56209 0.4861 0.0
H253 H 0.57402 0.57464 0.27498 0.0
H254 H 0.60277 0.5816 0.18764 0.0
H255 H 0.60063 0.5098 0.22529 0.0
H256 H 0.57216 0.50259 0.31348 0.0
H257 H 0.4231 0.46284 0.42019 0.0
H258 H 0.46522 0.50217 0.41635 0.0
H259 H 0.50245 0.4563 0.39215 0.0
H260 H 0.46006 0.41674 0.39468 0.0
H261 H 0.5245 0.49699 0.32095 0.0
H262 H 0.50213 0.48416 0.53188 0.0
H263 H 0.47459 0.47658 0.62203 0.0
H264 H 0.47495 0.54785 0.58925 0.0
H265 H 0.50221 0.55569 0.49834 0.0
C266 C 0.63399 0.59672 0.40895 0.0
C267 C 0.63633 0.62142 0.40767 0.0
C268 C 0.60964 0.57446 0.40628 0.0
C269 C 0.58711 0.57642 0.4027 0.0
C270 C 0.58933 0.60104 0.40164 0.0
C271 C 0.61376 0.62336 0.40346 0.0
C272 C 0.56126 0.55269 0.40114 0.0
C273 C 0.54413 0.54803 0.44954 0.0
C274 C 0.55415 0.53398 0.35442 0.0
C275 C 0.57115 0.5382 0.30121 0.0
C276 C 0.57986 0.56044 0.26497 0.0
C277 C 0.59607 0.56441 0.21524 0.0
C278 C 0.60358 0.54619 0.20102 0.0
C279 C 0.59482 0.52391 0.23641 0.0
C280 C 0.57863 0.51986 0.28624 0.0
C281 C 0.44026 0.4611 0.41442 0.0
C282 C 0.43828 0.43665 0.40856 0.0
C283 C 0.46438 0.48363 0.41225 0.0
C284 C 0.48716 0.48228 0.40524 0.0
C285 C 0.4852 0.45789 0.39786 0.0
C286 C 0.46098 0.43529 0.39934 0.0
C287 C 0.51295 0.5063 0.40597 0.0
C288 C 0.53014 0.51103 0.35752 0.0
C289 C 0.52027 0.52496 0.4531 0.0
C290 C 0.50401 0.52039 0.50796 0.0
C291 C 0.49619 0.49813 0.54364 0.0
C292 C 0.48065 0.4938 0.59491 0.0
C293 C 0.47297 0.51169 0.61126 0.0
C294 C 0.48088 0.53399 0.57647 0.0
C295 C 0.4964 0.5384 0.5251 0.0
H296 H 0.46094 0.50829 0.65097 0.0
H297 H 0.61613 0.5493 0.1625 0.0
H298 H 0.98824 0.4148 0.74565 0.0
H299 H 0.99258 0.45784 0.74156 0.0
H300 H 0.07453 0.4915 0.70945 0.0
H301 H 0.07033 0.44836 0.71373 0.0
H302 H 0.06216 0.5174 0.79947 0.0
H303 H 0.03683 0.48642 0.59446 0.0
H304 H 1.00917 0.45522 0.51614 0.0
H305 H 0.94421 0.46192 0.57784 0.0
H306 H 0.97141 0.49289 0.65714 0.0
H307 H 0.08849 0.64333 0.72587 0.0
H308 H 0.08449 0.60048 0.72358 0.0
H309 H 1.00123 0.56541 0.72131 0.0
H310 H 1.00529 0.6085 0.7212 0.0
H311 H 1.01425 0.53975 0.6486 0.0
H312 H 0.03723 0.56898 0.85391 0.0
H313 H 0.06297 0.59892 0.93626 0.0
H314 H 0.12964 0.59405 0.88045 0.0
H315 H 0.10437 0.56433 0.79721 0.0
C316 C 1.00722 0.43137 0.73803 0.0
C317 C 0.02898 0.42819 0.73023 0.0
C318 C 1.00963 0.45594 0.73526 0.0
C319 C 0.03385 0.47787 0.72485 0.0
C320 C 0.05565 0.47482 0.71742 0.0
C321 C 0.05321 0.45018 0.71955 0.0
C322 C 0.03639 0.504 0.72251 0.0
C323 C 0.05201 0.52246 0.76595 0.0
C324 C 0.02245 0.51027 0.68004 0.0
C325 C 1.00611 0.49179 0.6321 0.0
C326 C 1.0166 0.48108 0.59164 0.0
C327 C 1.00101 0.46347 0.54701 0.0
C328 C 0.97493 0.45654 0.54211 0.0
C329 C 0.9644 0.46728 0.58173 0.0
C330 C 0.97991 0.48488 0.62649 0.0
C331 C 0.06933 0.62646 0.72503 0.0
C332 C 0.04718 0.62923 0.72439 0.0
C333 C 0.06704 0.60194 0.72395 0.0
C334 C 0.04254 0.57955 0.72375 0.0
C335 C 0.02036 0.58231 0.72175 0.0
C336 C 0.02267 0.60691 0.72175 0.0
C337 C 0.04012 0.55337 0.72564 0.0
C338 C 0.02447 0.53482 0.68219 0.0
C339 C 0.05374 0.54687 0.76875 0.0
C340 C 0.06896 0.56462 0.81897 0.0
C341 C 0.05742 0.57443 0.85894 0.0
C342 C 0.07192 0.59134 0.90581 0.0
C343 C 0.09794 0.59843 0.91349 0.0
C344 C 0.10949 0.58856 0.8744 0.0
C345 C 0.09508 0.57167 0.8274 0.0
H346 H 0.10914 0.61153 0.9498 0.0
H347 H 0.96289 0.4429 0.50753 0.0
H348 H 0.34961 0.0752 0.32626 0.0
H349 H 0.35474 0.08223 0.43637 0.0
H350 H 0.32147 1.00015 0.46464 0.0
H351 H 0.3151 0.99304 0.35451 0.0
H352 H 0.30374 0.01789 0.54641 0.0
H353 H 0.38976 0.04537 0.4735 0.0
H354 H 0.42781 0.07005 0.40767 0.0
H355 H 0.43569 0.14132 0.47535 0.0
H356 H 0.39757 0.11705 0.54124 0.0
H357 H 0.34507 0.02766 0.85336 0.0
H358 H 0.33833 0.01949 0.74398 0.0
H359 H 0.37028 0.10128 0.71215 0.0
H360 H 0.37819 0.10947 0.82166 0.0
H361 H 0.38848 0.08301 0.6323 0.0
H362 H 0.30137 0.05376 0.70689 0.0
H363 H 0.26384 0.0277 0.77325 0.0
H364 H 0.25886 0.95797 0.70334 0.0
H365 H 0.29636 0.98361 0.63675 0.0
C366 C 0.34355 0.05874 0.35611 0.0
C367 C 0.33219 0.03361 0.33218 0.0
C368 C 0.34655 0.06275 0.41894 0.0
C369 C 0.33907 0.04183 0.45893 0.0
C370 C 0.32748 0.01665 0.43489 0.0
C371 C 0.3239 0.01258 0.37211 0.0
C372 C 0.34325 0.04619 0.52571 0.0
C373 C 0.32237 0.03191 0.56519 0.0
C374 C 0.36741 0.06477 0.55047 0.0
C375 C 0.39072 0.07939 0.51198 0.0
C376 C 0.39958 0.06631 0.47421 0.0
C377 C 0.42116 0.08022 0.43691 0.0
C378 C 0.43414 0.10724 0.43727 0.0
C379 C 0.42564 0.1204 0.47515 0.0
C380 C 0.40409 0.10657 0.5126 0.0
C381 C 0.35044 0.04382 0.82291 0.0
C382 C 0.36196 0.06918 0.84573 0.0
C383 C 0.34649 0.03916 0.76042 0.0
C384 C 0.35323 0.0597 0.71965 0.0
C385 C 0.36482 0.08508 0.74257 0.0
C386 C 0.36932 0.08978 0.805 0.0
C387 C 0.34893 0.05488 0.65303 0.0
C388 C 0.36982 0.06904 0.61354 0.0
C389 C 0.32484 0.03602 0.62839 0.0
C390 C 0.30178 0.02062 0.66714 0.0
C391 C 0.29227 0.03288 0.70574 0.0
C392 C 0.27099 0.01817 0.74336 0.0
C393 C 0.25897 0.99119 0.74254 0.0
C394 C 0.26811 0.97885 0.70384 0.0
C395 C 0.28935 0.99346 0.66605 0.0
H396 H 0.24257 0.97984 0.77188 0.0
H397 H 0.45081 0.11797 0.40826 0.0
H398 H 0.32077 0.35931 0.64928 0.0
H399 H 0.32103 0.36577 0.75897 0.0
H400 H 0.33098 0.29964 0.78932 0.0
H401 H 0.33101 0.29318 0.67937 0.0
H402 H 0.29398 0.29881 0.86263 0.0
H403 H 0.38131 0.36001 0.80821 0.0
H404 H 0.41571 0.39604 0.75009 0.0
H405 H 0.38806 0.4465 0.81169 0.0
H406 H 0.35324 0.41065 0.86953 0.0
H407 H 0.32897 0.32391 0.17652 0.0
H408 H 0.32875 0.3165 0.06728 0.0
H409 H 0.31601 0.38058 0.03236 0.0
H410 H 0.31567 0.3879 0.14164 0.0
H411 H 0.35488 0.38209 0.9617 0.0
H412 H 0.26813 0.32099 0.01827 0.0
H413 H 0.23347 0.28484 0.07537 0.0
H414 H 0.2593 0.23372 0.00808 0.0
H415 H 0.29468 0.26975 0.95203 0.0
C416 C 0.32341 0.34634 0.67907 0.0
C417 C 0.32601 0.32577 0.65536 0.0
C418 C 0.32346 0.35002 0.74189 0.0
C419 C 0.32626 0.33332 0.78231 0.0
C420 C 0.32875 0.31272 0.75892 0.0
C421 C 0.3287 0.30903 0.69608 0.0
C422 C 0.32617 0.33714 0.84903 0.0
C423 C 0.30755 0.31686 0.88452 0.0
C424 C 0.34351 0.36092 0.87721 0.0
C425 C 0.36451 0.38257 0.84274 0.0
C426 C 0.38244 0.37873 0.80899 0.0
C427 C 0.40203 0.39913 0.77616 0.0
C428 C 0.40403 0.42353 0.77707 0.0
C429 C 0.38647 0.42758 0.81097 0.0
C430 C 0.36682 0.40724 0.84383 0.0
C431 C 0.32569 0.33621 0.1459 0.0
C432 C 0.32227 0.35652 0.16822 0.0
C433 C 0.32569 0.33198 0.08332 0.0
C434 C 0.32224 0.3479 0.04177 0.0
C435 C 0.3188 0.36813 0.06371 0.0
C436 C 0.31868 0.37232 0.12626 0.0
C437 C 0.32266 0.34376 0.97533 0.0
C438 C 0.34136 0.36399 0.93989 0.0
C439 C 0.30542 0.3199 0.94728 0.0
C440 C 0.28435 0.29822 0.98165 0.0
C441 C 0.2667 0.30215 0.01637 0.0
C442 C 0.2469 0.28166 0.04853 0.0
C443 C 0.24431 0.25704 0.04573 0.0
C444 C 0.26148 0.25285 0.01062 0.0
C445 C 0.28143 0.27331 0.97869 0.0
H446 H 0.22892 0.24118 0.0705 0.0
H447 H 0.41921 0.4393 0.75161 0.0
H448 H 0.98525 0.30405 0.97037 0.0
H449 H 0.97827 0.30326 0.08 0.0
H450 H 0.05805 0.32481 0.11197 0.0
H451 H 0.06506 0.32532 0.00208 0.0
H452 H 0.02814 0.28781 0.18711 0.0
H453 H 0.03541 0.3688 0.12811 0.0
H454 H 0.02503 0.39737 0.06759 0.0
H455 H 0.94607 0.35531 0.12792 0.0
H456 H 0.95591 0.32629 0.18824 0.0
H457 H 0.03202 0.32254 0.49837 0.0
H458 H 0.03917 0.32246 0.389 0.0
H459 H 0.95864 0.29749 0.35575 0.0
H460 H 0.95137 0.2976 0.46531 0.0
H461 H 0.98914 0.33627 0.28158 0.0
H462 H 0.9826 0.25557 0.34201 0.0
H463 H 0.99368 0.22763 0.40297 0.0
H464 H 0.0723 0.27004 0.34046 0.0
H465 H 0.06176 0.29845 0.27969 0.0
C466 C 1.0014 0.30894 0.00066 0.0
C467 C 0.02578 0.31491 0.97757 0.0
C468 C 0.99736 0.30843 0.06338 0.0
C469 C 0.0177 0.31429 0.10429 0.0
C470 C 0.04205 0.32019 0.08133 0.0
C471 C 0.04604 0.32047 0.01859 0.0
C472 C 1.01347 0.31392 0.171 0.0
C473 C 0.01995 0.2987 0.20786 0.0
C474 C 1.00226 0.32767 0.19802 0.0
C475 C 0.99636 0.34527 0.16232 0.0
C476 C 1.0158 0.36556 0.1282 0.0
C477 C 1.01002 0.38185 0.09397 0.0
C478 C 0.9849 0.37813 0.09382 0.0
C479 C 0.96552 0.35816 0.12805 0.0
C480 C 0.97119 0.34182 0.16234 0.0
C481 C 1.01573 0.31665 0.46791 0.0
C482 C 0.99107 0.30996 0.4906 0.0
C483 C 0.01986 0.31667 0.40532 0.0
C484 C 0.99938 0.30972 0.36418 0.0
C485 C 0.97473 0.30296 0.38667 0.0
C486 C 0.97061 0.30306 0.44926 0.0
C487 C 1.00378 0.31014 0.2976 0.0
C488 C 0.99733 0.32538 0.26079 0.0
C489 C 1.01513 0.29651 0.27072 0.0
C490 C 0.02144 0.27927 0.30673 0.0
C491 C 1.00229 0.25904 0.34158 0.0
C492 C 1.00847 0.2431 0.37604 0.0
C493 C 0.03369 0.2471 0.37571 0.0
C494 C 0.05278 0.26698 0.34072 0.0
C495 C 0.0467 0.28299 0.3062 0.0
H496 H 0.03844 0.23475 0.40245 0.0
H497 H 0.98046 0.39075 0.06726 0.0
H498 H 0.67025 0.98043 0.81918 0.0
H499 H 0.67854 0.98775 0.7103 0.0
H500 H 0.75798 1.00732 0.73919 0.0
H501 H 0.74981 1.00017 0.84851 0.0
H502 H 0.75588 0.04021 0.66243 0.0
H503 H 0.71266 0.94812 0.6789 0.0
H504 H 0.67813 0.90483 0.70973 0.0
H505 H 0.62273 0.91496 0.6053 0.0
H506 H 0.65688 0.95847 0.57448 0.0
H507 H 0.78357 0.02803 0.35199 0.0
H508 H 0.77646 0.02313 0.46147 0.0
H509 H 0.69878 1.00954 0.43634 0.0
H510 H 0.70585 0.01494 0.3265 0.0
H511 H 0.70043 0.97377 0.51109 0.0
H512 H 0.74556 0.06619 0.49207 0.0
H513 H 0.78102 0.10913 0.46235 0.0
H514 H 0.83426 0.09779 0.57246 0.0
H515 H 0.79923 0.05456 0.60194 0.0
C516 C 0.6894 0.98598 0.8024 0.0
C517 C 0.7093 0.98948 0.84263 0.0
C518 C 0.69414 0.9902 0.74003 0.0
C519 C 0.71878 0.99769 0.71629 0.0
C520 C 0.73879 1.0015 0.75637 0.0
C521 C 0.7341 0.99743 0.8189 0.0
C522 C 0.72369 1.00177 0.64976 0.0
C523 C 0.744 0.02554 0.62935 0.0
C524 C 0.70787 0.98283 0.60649 0.0
C525 C 0.68728 0.95666 0.62487 0.0
C526 C 0.69307 0.9412 0.66289 0.0
C527 C 0.67358 0.91661 0.6803 0.0
C528 C 0.64824 0.90718 0.65962 0.0
C529 C 0.64236 0.9223 0.62135 0.0
C530 C 0.66178 0.94692 0.60386 0.0
C531 C 0.76507 0.02441 0.36945 0.0
C532 C 0.74529 0.02193 0.32991 0.0
C533 C 0.76104 0.02155 0.4323 0.0
C534 C 0.73716 0.01617 0.45718 0.0
C535 C 0.71736 0.01366 0.41809 0.0
C536 C 0.72141 0.01664 0.35518 0.0
C537 C 0.73255 0.01223 0.52375 0.0
C538 C 0.71231 0.98845 0.54417 0.0
C539 C 0.74862 0.03107 0.56696 0.0
C540 C 0.7698 0.05695 0.54856 0.0
C541 C 0.76489 0.0727 0.50935 0.0
C542 C 0.78491 0.09713 0.49265 0.0
C543 C 0.8099 0.10614 0.51529 0.0
C544 C 0.81492 0.09075 0.55476 0.0
C545 C 0.79498 0.06627 0.57146 0.0
H546 H 0.82537 0.12509 0.50241 0.0
H547 H 0.63318 0.88813 0.67314 0.0
H548 H 0.74475 0.76412 0.67626 0.0
H549 H 0.74448 0.75754 0.78616 0.0
H550 H 0.75234 0.69016 0.75564 0.0
H551 H 0.75273 0.69667 0.64588 0.0
H552 H 0.71706 0.68133 0.84279 0.0
H553 H 0.80417 0.74748 0.79777 0.0
H554 H 0.83787 0.78905 0.75595 0.0
H555 H 0.81222 0.82986 0.87251 0.0
H556 H 0.77812 0.78848 0.91445 0.0
H557 H 0.75741 0.66814 0.1376 0.0
H558 H 0.75642 0.67536 0.02851 0.0
H559 H 0.74551 0.7405 0.06524 0.0
H560 H 0.74595 0.73318 0.17433 0.0
H561 H 0.7816 0.75089 0.97574 0.0
H562 H 0.69513 0.68495 0.0223 0.0
H563 H 0.66149 0.64346 0.0646 0.0
H564 H 0.68586 0.60235 0.94545 0.0
H565 H 0.71992 0.64364 0.90305 0.0
C566 C 0.74653 0.74797 0.69296 0.0
C567 C 0.74883 0.73098 0.65221 0.0
C568 C 0.74635 0.74422 0.75576 0.0
C569 C 0.7487 0.72353 0.77911 0.0
C570 C 0.75046 0.70623 0.7386 0.0
C571 C 0.75058 0.70993 0.67579 0.0
C572 C 0.74958 0.72004 0.84576 0.0
C573 C 0.73137 0.69642 0.87174 0.0
C574 C 0.76787 0.73997 0.88376 0.0
C575 C 0.78843 0.76487 0.85879 0.0
C576 C 0.80559 0.76531 0.81414 0.0
C577 C 0.82478 0.78884 0.79048 0.0
C578 C 0.82714 0.81208 0.81144 0.0
C579 C 0.81034 0.81184 0.85625 0.0
C580 C 0.79109 0.78836 0.88002 0.0
C581 C 0.75463 0.6839 0.12266 0.0
C582 C 0.75164 0.69997 0.16507 0.0
C583 C 0.75414 0.68804 0.06021 0.0
C584 C 0.75062 0.70829 0.03884 0.0
C585 C 0.74827 0.72476 0.08084 0.0
C586 C 0.74865 0.72059 0.14332 0.0
C587 C 0.7492 0.71215 0.9726 0.0
C588 C 0.76727 0.73583 0.94675 0.0
C589 C 0.73079 0.69229 0.93474 0.0
C590 C 0.71025 0.66741 0.95993 0.0
C591 C 0.69346 0.66708 0.00547 0.0
C592 C 0.67429 0.64359 0.02941 0.0
C593 C 0.67158 0.62029 0.00785 0.0
C594 C 0.688 0.62042 0.96217 0.0
C595 C 0.70723 0.64386 0.93814 0.0
H596 H 0.65673 0.60213 0.02643 0.0
H597 H 0.84201 0.83028 0.79307 0.0
H598 H 0.12418 0.75524 0.4564 0.0
H599 H 0.1172 0.75579 0.34708 0.0
H600 H 0.04051 0.74372 0.38063 0.0
H601 H 0.0469 0.74205 0.48977 0.0
H602 H 0.03909 0.71221 0.29464 0.0
H603 H 0.0913 0.80275 0.33564 0.0
H604 H 0.12899 0.84286 0.37256 0.0
H605 H 0.17862 0.83106 0.25058 0.0
H606 H 0.14132 0.79058 0.21379 0.0
H607 H 1.01411 0.73859 0.99425 0.0
H608 H 0.02159 0.73982 0.10394 0.0
H609 H 0.09706 0.74859 0.07117 0.0
H610 H 0.09004 0.74819 0.96154 0.0
H611 H 0.09902 0.78212 0.15637 0.0
H612 H 0.04703 0.69105 0.11776 0.0
H613 H 1.00918 0.65148 0.07906 0.0
H614 H 0.95914 0.66506 0.19555 0.0
H615 H 0.99666 0.70493 0.23436 0.0
C616 C 0.10579 0.75263 0.44064 0.0
C617 C 0.08611 0.74855 0.48215 0.0
C618 C 0.10194 0.75324 0.37804 0.0
C619 C 0.07841 0.75005 0.35561 0.0
C620 C 0.05885 0.7463 0.39689 0.0
C621 C 0.06265 0.74559 0.45946 0.0
C622 C 0.07373 0.74941 0.28906 0.0
C623 C 0.05201 0.7277 0.26457 0.0
C624 C 0.09095 0.7693 0.24953 0.0
C625 C 0.11352 0.79343 0.27247 0.0
C626 C 0.11029 0.80852 0.31721 0.0
C627 C 0.13159 0.83136 0.33804 0.0
C628 C 0.1562 0.83946 0.31409 0.0
C629 C 0.15956 0.82473 0.26923 0.0
C630 C 0.13835 0.80182 0.2484 0.0
C631 C 0.03232 0.74086 0.0104 0.0
C632 C 0.05142 0.7432 0.96907 0.0
C633 C 0.03649 0.74134 0.07309 0.0
C634 C 0.05979 0.74405 0.09572 0.0
C635 C 0.0789 0.7464 0.05465 0.0
C636 C 0.07474 0.74589 0.99195 0.0
C637 C 0.06445 0.74496 0.16223 0.0
C638 C 0.08615 0.76668 0.18662 0.0
C639 C 0.04723 0.72512 0.2017 0.0
C640 C 0.02464 0.70112 0.17851 0.0
C641 C 0.02793 0.68572 0.13476 0.0
C642 C 1.00654 0.66321 0.11287 0.0
C643 C 0.98176 0.6558 0.13471 0.0
C644 C 0.97834 0.67084 0.17861 0.0
C645 C 0.99966 0.69338 0.20061 0.0
H646 H 0.96523 0.63836 0.11772 0.0
H647 H 0.17264 0.85719 0.33016 0.0
H648 H 0.38802 0.12916 0.17587 0.0
H649 H 0.38794 0.16732 0.21617 0.0
H650 H 0.30848 0.13616 0.15988 0.0
H651 H 0.30855 0.09789 0.11831 0.0
H652 H 0.33727 0.18757 0.134 0.0
H653 H 0.3243 0.13363 0.30985 0.0
H654 H 0.33486 0.108 0.38046 0.0
H655 H 0.40867 0.17465 0.41821 0.0
H656 H 0.39864 0.20065 0.34743 0.0
H657 H 0.31296 0.27436 0.30872 0.0
H658 H 0.31237 0.23704 0.2606 0.0
H659 H 0.38833 0.26079 0.33364 0.0
H660 H 0.3885 0.29749 0.38392 0.0
H661 H 0.36038 0.21241 0.35016 0.0
H662 H 0.3751 0.26697 0.17801 0.0
H663 H 0.36701 0.29383 0.10566 0.0
H664 H 0.29402 0.22829 0.05678 0.0
H665 H 0.30133 0.20119 0.1299 0.0
C666 C 0.3705 0.13038 0.17189 0.0
C667 C 0.34823 0.1104 0.14409 0.0
C668 C 0.37046 0.15221 0.19525 0.0
C669 C 0.34809 0.15449 0.19197 0.0
C670 C 0.32594 0.1348 0.16316 0.0
C671 C 0.32598 0.11292 0.13955 0.0
C672 C 0.34788 0.17736 0.21893 0.0
C673 C 0.34195 0.19283 0.18149 0.0
C674 C 0.35479 0.18471 0.28043 0.0
C675 C 0.36078 0.16903 0.323 0.0
C676 C 0.34285 0.14278 0.33289 0.0
C677 C 0.34874 0.12819 0.37301 0.0
C678 C 0.37246 0.1397 0.40369 0.0
C679 C 0.39032 0.16579 0.39439 0.0
C680 C 0.38452 0.18046 0.35437 0.0
C681 C 0.32963 0.27174 0.31414 0.0
C682 C 0.35077 0.2889 0.35027 0.0
C683 C 0.32933 0.25042 0.28629 0.0
C684 C 0.35043 0.24611 0.29274 0.0
C685 C 0.37175 0.26355 0.32797 0.0
C686 C 0.37187 0.28461 0.35661 0.0
C687 C 0.34993 0.2229 0.2652 0.0
C688 C 0.35568 0.20727 0.30261 0.0
C689 C 0.34324 0.21568 0.20344 0.0
C690 C 0.33865 0.23209 0.15998 0.0
C691 C 0.35718 0.25835 0.15237 0.0
C692 C 0.35273 0.27363 0.11118 0.0
C693 C 0.32998 0.2628 0.07678 0.0
C694 C 0.31159 0.2367 0.08361 0.0
C695 C 0.31586 0.22137 0.12495 0.0
H696 H 0.32667 0.27459 0.04459 0.0
H697 H 0.37701 0.12848 0.43489 0.0
H698 H 0.23832 0.30401 0.42047 0.0
H699 H 0.19891 0.30309 0.45724 0.0
H700 H 0.24554 0.37646 0.5468 0.0
H701 H 0.28473 0.37776 0.50911 0.0
H702 H 0.18079 0.30178 0.56771 0.0
H703 H 0.21567 0.41161 0.55024 0.0
H704 H 0.24426 0.44879 0.48566 0.0
H705 H 0.2333 0.39746 0.33694 0.0
H706 H 0.20437 0.36001 0.4003 0.0
H707 H 0.11735 0.37488 0.71408 0.0
H708 H 0.15357 0.3745 0.6624 0.0
H709 H 0.10022 0.30516 0.56599 0.0
H710 H 0.06381 0.30536 0.61752 0.0
H711 H 0.16619 0.37635 0.54099 0.0
H712 H 0.12907 0.26697 0.55406 0.0
H713 H 0.10012 0.22941 0.61731 0.0
H714 H 0.11501 0.27934 0.77137 0.0
H715 H 0.1443 0.31711 0.7093 0.0
C716 C 0.24012 0.32001 0.44766 0.0
C717 C 0.26465 0.34105 0.46144 0.0
C718 C 0.21759 0.31943 0.46881 0.0
C719 C 0.21916 0.33989 0.50408 0.0
C720 C 0.2437 0.36072 0.51852 0.0
C721 C 0.26615 0.36138 0.4971 0.0
C722 C 0.19529 0.33936 0.52702 0.0
C723 C 0.17739 0.3179 0.56085 0.0
C724 C 0.19095 0.36054 0.51907 0.0
C725 C 0.20802 0.38299 0.48026 0.0
C726 C 0.21926 0.40827 0.50367 0.0
C727 C 0.23555 0.42939 0.46729 0.0
C728 C 0.24065 0.42548 0.4073 0.0
C729 C 0.2294 0.40045 0.38348 0.0
C730 C 0.21308 0.37927 0.41964 0.0
C731 C 0.11326 0.35959 0.6817 0.0
C732 C 0.08764 0.34006 0.67028 0.0
C733 C 0.13401 0.35946 0.65203 0.0
C734 C 0.12965 0.33967 0.61077 0.0
C735 C 0.10408 0.32045 0.5982 0.0
C736 C 0.08328 0.32066 0.62759 0.0
C737 C 0.15195 0.33893 0.58207 0.0
C738 C 0.16953 0.36015 0.54725 0.0
C739 C 0.15591 0.31748 0.58876 0.0
C740 C 0.13862 0.29488 0.62679 0.0
C741 C 0.12621 0.26991 0.60148 0.0
C742 C 0.10974 0.24859 0.63712 0.0
C743 C 0.10565 0.252 0.69825 0.0
C744 C 0.1181 0.27673 0.72395 0.0
C745 C 0.13461 0.29811 0.68853 0.0
H746 H 0.09288 0.23548 0.72575 0.0
H747 H 0.25329 0.44186 0.37924 0.0
H748 H 0.76113 0.07358 0.94262 0.0
H749 H 0.79604 0.10961 0.88673 0.0
H750 H 0.84435 0.13047 0.04733 0.0
H751 H 0.80855 0.09608 0.10412 0.0
H752 H 0.85249 0.1711 0.00304 0.0
H753 H 0.84866 0.09603 0.90728 0.0
H754 H 0.82717 0.05423 0.85295 0.0
H755 H 0.80948 0.08947 0.70381 0.0
H756 H 0.83061 0.1314 0.75754 0.0
H757 H 0.96679 0.22907 0.77207 0.0
H758 H 0.93016 0.19089 0.81773 0.0
H759 H 0.89149 0.23491 0.84981 0.0
H760 H 0.92818 0.27313 0.80599 0.0
H761 H 0.87971 0.16149 0.79579 0.0
H762 H 0.86017 0.21888 0.98115 0.0
H763 H 0.88415 0.25919 0.04049 0.0
H764 H 0.95421 0.25577 0.01959 0.0
H765 H 0.93065 0.21546 0.96042 0.0
C766 C 0.77925 0.08603 0.96565 0.0
C767 C 0.78229 0.08228 0.02748 0.0
C768 C 0.79935 0.10646 0.9336 0.0
C769 C 0.82329 0.12269 0.96207 0.0
C770 C 0.8262 0.1185 0.02395 0.0
C771 C 0.80579 0.09878 0.05649 0.0
C772 C 0.84511 0.14455 0.92876 0.0
C773 C 0.85836 0.16877 0.9578 0.0
C774 C 0.85319 0.14189 0.86961 0.0
C775 C 0.84103 0.1168 0.8367 0.0
C776 C 0.84012 0.09483 0.86299 0.0
C777 C 0.828 0.07112 0.83229 0.0
C778 C 0.81691 0.06918 0.77503 0.0
C779 C 0.81806 0.09099 0.74818 0.0
C780 C 0.83013 0.11474 0.7787 0.0
C781 C 0.95039 0.23053 0.78853 0.0
C782 C 0.95049 0.25418 0.78597 0.0
C783 C 0.92943 0.20867 0.81447 0.0
C784 C 0.90819 0.21008 0.83818 0.0
C785 C 0.90784 0.23343 0.83308 0.0
C786 C 0.92883 0.25528 0.80779 0.0
C787 C 0.88692 0.18761 0.87059 0.0
C788 C 0.87377 0.1635 0.8412 0.0
C789 C 0.87936 0.19006 0.93019 0.0
C790 C 0.89368 0.2143 0.96589 0.0
C791 C 0.88069 0.22673 0.98933 0.0
C792 C 0.89422 0.24961 0.02283 0.0
C793 C 0.92072 0.26012 0.03355 0.0
C794 C 0.93374 0.24775 0.01092 0.0
C795 C 0.92031 0.22491 0.97729 0.0
H796 H 0.93111 0.27781 0.05957 0.0
H797 H 0.80748 0.0508 0.75141 0.0
H798 H 0.76018 0.95172 0.08476 0.0
H799 H 0.76105 0.91371 0.12534 0.0
H800 H 0.69163 0.89297 0.22779 0.0
H801 H 0.69052 0.93059 0.18729 0.0
H802 H 0.73042 0.89259 0.2974 0.0
H803 H 0.68821 0.85973 0.10403 0.0
H804 H 0.68437 0.85962 0.99226 0.0
H805 H 0.75333 0.85403 0.97356 0.0
H806 H 0.7578 0.85451 0.08531 0.0
H807 H 0.69351 0.76735 0.39995 0.0
H808 H 0.69432 0.80413 0.34893 0.0
H809 H 0.75828 0.81366 0.23791 0.0
H810 H 0.75723 0.77642 0.28793 0.0
H811 H 0.72536 0.82113 0.17089 0.0
H812 H 0.76782 0.85285 0.36138 0.0
H813 H 0.77346 0.85401 0.47273 0.0
H814 H 0.70702 0.86359 0.49687 0.0
H815 H 0.70072 0.86207 0.38562 0.0
C816 C 0.74502 0.93893 0.11557 0.0
C817 C 0.72526 0.94414 0.13269 0.0
C818 C 0.74551 0.91721 0.13862 0.0
C819 C 0.72636 0.90046 0.17952 0.0
C820 C 0.70661 0.90562 0.19637 0.0
C821 C 0.70595 0.9271 0.17293 0.0
C822 C 0.72713 0.87791 0.20633 0.0
C823 C 0.72902 0.87682 0.2698 0.0
C824 C 0.72619 0.85777 0.17018 0.0
C825 C 0.72351 0.85747 0.10302 0.0
C826 C 0.7027 0.85873 0.07609 0.0
C827 C 0.70038 0.85855 0.01274 0.0
C828 C 0.71864 0.8569 0.97583 0.0
C829 C 0.73923 0.85536 0.00221 0.0
C830 C 0.74166 0.85557 0.06555 0.0
C831 C 0.70769 0.77714 0.36449 0.0
C832 C 0.72544 0.76901 0.34846 0.0
C833 C 0.70821 0.7983 0.33549 0.0
C834 C 0.72669 0.81205 0.29029 0.0
C835 C 0.74392 0.80348 0.27281 0.0
C836 C 0.74333 0.7822 0.30161 0.0
C837 C 0.72821 0.83556 0.26222 0.0
C838 C 0.72685 0.83692 0.19856 0.0
C839 C 0.72994 0.85615 0.29816 0.0
C840 C 0.73365 0.85709 0.36514 0.0
C841 C 0.75428 0.85499 0.39043 0.0
C842 C 0.75761 0.85574 0.45354 0.0
C843 C 0.74057 0.85881 0.49186 0.0
C844 C 0.72018 0.86118 0.46713 0.0
C845 C 0.71673 0.86038 0.40404 0.0
H846 H 0.74319 0.8594 0.5407 0.0
H847 H 0.71681 0.85675 0.92679 0.0
H848 H 1.01226 0.74876 0.60168 0.0
H849 H 0.97557 0.74844 0.55011 0.0
H850 H 0.92269 0.68716 0.66822 0.0
H851 H 0.95913 0.68717 0.71955 0.0
H852 H 0.90594 0.67823 0.55156 0.0
H853 H 0.93814 0.74991 0.69281 0.0
H854 H 0.97152 0.79096 0.73792 0.0
H855 H 0.9827 0.82875 0.56521 0.0
H856 H 0.94962 0.7878 0.51888 0.0
H857 H 0.79053 0.68249 0.51712 0.0
H858 H 0.82974 0.68387 0.55495 0.0
H859 H 0.87616 0.75003 0.44133 0.0
H860 H 0.83677 0.74931 0.40501 0.0
H861 H 0.89815 0.75743 0.54723 0.0
H862 H 0.86446 0.68696 0.4064 0.0
H863 H 0.83139 0.64611 0.35991 0.0
H864 H 0.82366 0.60618 0.52798 0.0
H865 H 0.85645 0.64687 0.57575 0.0
C866 C 0.99282 0.73513 0.61655 0.0
C867 C 0.98868 0.71808 0.66504 0.0
C868 C 0.97185 0.73504 0.58713 0.0
C869 C 0.94634 0.71797 0.60572 0.0
C870 C 0.94217 0.70053 0.65309 0.0
C871 C 0.96308 0.70062 0.68253 0.0
C872 C 0.92391 0.7184 0.57667 0.0
C873 C 0.90412 0.69549 0.55106 0.0
C874 C 0.92186 0.7411 0.57434 0.0
C875 C 0.94161 0.76574 0.60226 0.0
C876 C 0.94786 0.76693 0.66436 0.0
C877 C 0.9667 0.79018 0.69016 0.0
C878 C 0.97928 0.81243 0.65442 0.0
C879 C 0.97298 0.81149 0.59283 0.0
C880 C 0.95417 0.78827 0.56678 0.0
C881 C 0.80907 0.69727 0.49989 0.0
C882 C 0.81054 0.71567 0.45767 0.0
C883 C 0.83153 0.69797 0.52137 0.0
C884 C 0.85602 0.7167 0.50011 0.0
C885 C 0.85754 0.73528 0.45826 0.0
C886 C 0.83502 0.73482 0.43738 0.0
C887 C 0.87992 0.71712 0.52266 0.0
C888 C 0.90001 0.7402 0.54709 0.0
C889 C 0.88234 0.69459 0.52353 0.0
C890 C 0.86279 0.67002 0.49476 0.0
C891 C 0.8556 0.6695 0.43355 0.0
C892 C 0.83692 0.64637 0.40695 0.0
C893 C 0.8254 0.62357 0.441 0.0
C894 C 0.83259 0.62385 0.50167 0.0
C895 C 0.85125 0.64694 0.5285 0.0
H896 H 0.81092 0.60569 0.42034 0.0
H897 H 0.99386 0.83042 0.67447 0.0
H898 H 0.11405 0.82995 0.74602 0.0
H899 H 0.15058 0.86833 0.79184 0.0
H900 H 0.18062 0.82084 0.86256 0.0
H901 H 0.14432 0.78261 0.81747 0.0
H902 H 0.17886 0.8522 0.94916 0.0
H903 H 0.20868 0.86116 0.74053 0.0
H904 H 0.20583 0.86555 0.62958 0.0
H905 H 0.20112 0.93456 0.6568 0.0
H906 H 0.20355 0.93035 0.76797 0.0
H907 H 0.3034 0.94357 0.05071 0.0
H908 H 0.26686 0.90873 0.99667 0.0
H909 H 0.24777 0.96387 0.91973 0.0
H910 H 0.28472 0.99893 0.97249 0.0
H911 H 0.24186 0.93039 0.83646 0.0
H912 H 0.21365 0.92395 0.04123 0.0
H913 H 0.21407 0.92029 0.15293 0.0
H914 H 0.21249 0.84767 0.13559 0.0
H915 H 0.21257 0.85112 0.0237 0.0
C916 C 0.12858 0.82776 0.77087 0.0
C917 C 0.12627 0.80323 0.77806 0.0
C918 C 0.14949 0.84972 0.7969 0.0
C919 C 0.16844 0.8475 0.8305 0.0
C920 C 0.16625 0.82305 0.83697 0.0
C921 C 0.14549 0.8012 0.81093 0.0
C922 C 0.19004 0.87028 0.86124 0.0
C923 C 0.19285 0.86917 0.92443 0.0
C924 C 0.20766 0.89289 0.82938 0.0
C925 C 0.20601 0.89528 0.76258 0.0
C926 C 0.20678 0.87713 0.72288 0.0
C927 C 0.20529 0.87961 0.65994 0.0
C928 C 0.2032 0.90027 0.63616 0.0
C929 C 0.20264 0.91851 0.67527 0.0
C930 C 0.20409 0.9161 0.73823 0.0
C931 C 0.2915 0.94834 0.02219 0.0
C932 C 0.29692 0.97407 0.01641 0.0
C933 C 0.27047 0.92834 0.99154 0.0
C934 C 0.25414 0.93352 0.95502 0.0
C935 C 0.25993 0.95929 0.94787 0.0
C936 C 0.28107 0.97934 0.97822 0.0
C937 C 0.2311 0.91206 0.92442 0.0
C938 C 0.22791 0.91346 0.86137 0.0
C939 C 0.21285 0.88982 0.95658 0.0
C940 C 0.2134 0.88795 0.02396 0.0
C941 C 0.2137 0.90734 0.06118 0.0
C942 C 0.2138 0.90528 0.12456 0.0
C943 C 0.21337 0.88379 0.15134 0.0
C944 C 0.21288 0.86433 0.11478 0.0
C945 C 0.21286 0.86634 0.05137 0.0
H946 H 0.21334 0.88218 0.20042 0.0
H947 H 0.20209 0.90218 0.58742 0.0
loop_
_geom_bond_atom_site_label_1
_geom_bond_atom_site_label_2
_geom_bond_distance
_geom_bond_site_symmetry_2
_ccdc_geom_bond_type
Co0 N4 2.148 . S
Co0 N10 2.128 1_554 S
Co0 N20 2.194 . S
Co0 O25 2.351 . S
Co0 O26 2.155 . S
Co0 O27 2.096 1_545 S
C1 N4 1.301 . S
C1 N5 1.328 . S
C1 H6 0.930 . S
C2 C3 1.333 . S
C2 N4 1.317 1_565 S
C2 H7 0.930 . S
C3 C2 1.333 . S
C3 N5 1.350 1_565 S
C3 H29 0.931 . S
N4 Co0 2.148 . S
N4 C1 1.301 . S
N4 C2 1.317 1_545 S
N5 C1 1.328 . S
N5 C3 1.350 1_545 S
H6 C1 0.930 . S
H7 C2 0.930 . S
C8 O9 1.224 . S
C8 O27 1.247 . S
O9 C8 1.224 . S
N10 Co0 2.128 1_556 S
N10 C11 1.355 . S
N10 C13 1.311 . S
C11 N10 1.355 . S
C11 C12 1.363 . S
C11 H23 0.929 . S
C12 C11 1.363 . S
C12 N14 1.375 . S
C12 H30 0.931 . S
C13 N10 1.311 . S
C13 N14 1.347 . S
C13 H24 0.929 . S
N14 C12 1.375 . S
N14 C13 1.347 . S
C15 C18 1.365 . S
C15 N20 1.328 . S
C15 H21 0.929 . S
C16 C17 1.364 1_565 S
C16 C19 1.379 1_565 S
C16 H31 0.926 . S
C17 C16 1.364 1_545 S
C17 C18 1.366 . S
C18 C15 1.365 . S
C18 C17 1.366 . S
C18 H32 0.930 . S
C19 C16 1.379 1_545 S
C19 N20 1.315 . S
C19 H22 0.930 1_545 S
N20 Co0 2.194 . S
N20 C15 1.328 . S
N20 C19 1.315 . S
H21 C15 0.929 . S
H22 C19 0.930 1_565 S
H23 C11 0.929 . S
H24 C13 0.929 . S
O25 Co0 2.351 . S
O25 C28 1.244 . S
O26 Co0 2.155 . S
O26 C28 1.240 . S
O27 Co0 2.096 1_565 S
O27 C8 1.247 . S
C28 O25 1.244 . S
C28 O26 1.240 . S
H29 C3 0.931 . S
H30 C12 0.931 . S
H31 C16 0.926 . S
H32 C18 0.930 . S
Co33 N37 2.148 . S
Co33 N43 2.128 . S
Co33 N53 2.194 . S
Co33 O58 2.351 . S
Co33 O59 2.155 . S
Co33 O60 2.096 . S
C34 N37 1.301 . S
C34 N38 1.328 . S
C34 H39 0.930 . S
C35 C36 1.333 . S
C35 N37 1.317 . S
C35 H40 0.930 . S
C36 C35 1.333 . S
C36 N38 1.350 . S
C36 H62 0.931 . S
N37 Co33 2.148 . S
N37 C34 1.301 . S
N37 C35 1.317 . S
N38 C34 1.328 . S
N38 C36 1.350 . S
H39 C34 0.930 . S
H40 C35 0.930 . S
C41 O42 1.224 . S
C41 O60 1.247 . S
O42 C41 1.224 . S
N43 Co33 2.128 . S
N43 C44 1.355 . S
N43 C46 1.311 . S
C44 N43 1.355 . S
C44 C45 1.363 . S
C44 H56 0.929 . S
C45 C44 1.363 . S
C45 N47 1.375 . S
C45 H63 0.931 . S
C46 N43 1.311 . S
C46 N47 1.347 . S
C46 H57 0.929 . S
N47 C45 1.375 . S
N47 C46 1.347 . S
C48 C51 1.365 . S
C48 N53 1.328 . S
C48 H54 0.929 . S
C49 C50 1.362 . S
C49 C52 1.378 . S
C49 H64 0.929 . S
C50 C49 1.362 . S
C50 C51 1.366 . S
C51 C48 1.365 . S
C51 C50 1.366 . S
C51 H65 0.930 . S
C52 C49 1.378 . S
C52 N53 1.315 . S
C52 H55 0.930 . S
N53 Co33 2.194 . S
N53 C48 1.328 . S
N53 C52 1.315 . S
H54 C48 0.929 . S
H55 C52 0.930 . S
H56 C44 0.929 . S
H57 C46 0.929 . S
O58 Co33 2.351 . S
O58 C61 1.244 . S
O59 Co33 2.155 . S
O59 C61 1.240 . S
O60 Co33 2.096 . S
O60 C41 1.247 . S
C61 O58 1.244 . S
C61 O59 1.240 . S
H62 C36 0.931 . S
H63 C45 0.931 . S
H64 C49 0.929 . S
H65 C51 0.930 . S
Co66 N70 2.148 . S
Co66 N76 2.128 . S
Co66 N86 2.194 . S
Co66 O91 2.351 1_455 S
Co66 O92 2.155 1_455 S
Co66 O93 2.096 . S
C67 N70 1.301 . S
C67 N71 1.328 . S
C67 H72 0.930 . S
C68 C69 1.333 . S
C68 N70 1.317 . S
C68 H73 0.930 . S
C69 C68 1.333 . S
C69 N71 1.350 . S
C69 H95 0.931 . S
N70 Co66 2.148 . S
N70 C67 1.301 . S
N70 C68 1.317 . S
N71 C67 1.328 . S
N71 C69 1.350 . S
H72 C67 0.930 . S
H73 C68 0.930 . S
C74 O75 1.224 . S
C74 O93 1.247 . S
O75 C74 1.224 . S
N76 Co66 2.128 . S
N76 C77 1.355 1_455 S
N76 C79 1.311 . S
C77 N76 1.355 1_655 S
C77 C78 1.363 . S
C77 H89 0.929 . S
C78 C77 1.363 . S
C78 N80 1.375 1_655 S
C78 H96 0.931 . S
C79 N76 1.311 . S
C79 N80 1.347 . S
C79 H90 0.929 . S
N80 C78 1.375 1_455 S
N80 C79 1.347 . S
C81 C84 1.365 . S
C81 N86 1.303 1_655 S
C81 H87 0.942 . S
C82 C83 1.362 . S
C82 C85 1.378 . S
C82 H97 0.929 . S
C83 C82 1.362 . S
C83 C84 1.354 1_455 S
C84 C81 1.365 . S
C84 C83 1.354 1_655 S
C84 H98 0.956 . S
C85 C82 1.378 . S
C85 N86 1.315 . S
C85 H88 0.930 . S
N86 Co66 2.194 . S
N86 C81 1.303 1_455 S
N86 C85 1.315 . S
H87 C81 0.942 . S
H88 C85 0.930 . S
H89 C77 0.929 . S
H90 C79 0.929 . S
O91 Co66 2.351 1_655 S
O91 C94 1.244 . S
O92 Co66 2.155 1_655 S
O92 C94 1.240 . S
O93 Co66 2.096 . S
O93 C74 1.247 . S
C94 O91 1.244 . S
C94 O92 1.240 . S
H95 C69 0.931 . S
H96 C78 0.931 . S
H97 C82 0.929 . S
H98 C84 0.956 . S
Co99 N103 2.148 . S
Co99 N109 2.128 1_554 S
Co99 N119 2.194 . S
Co99 O124 2.351 1_545 S
Co99 O125 2.155 1_545 S
Co99 O126 2.096 . S
C100 N103 1.301 . S
C100 N104 1.328 . S
C100 H105 0.933 . S
C101 C102 1.333 . S
C101 N103 1.317 . S
C101 H106 0.930 . S
C102 C101 1.333 . S
C102 N104 1.350 . S
C102 H128 0.931 . S
N103 Co99 2.148 . S
N103 C100 1.301 . S
N103 C101 1.317 . S
N104 C100 1.328 . S
N104 C102 1.350 . S
H105 C100 0.933 . S
H106 C101 0.930 . S
C107 O108 1.224 . S
C107 O126 1.247 . S
O108 C107 1.224 . S
N109 Co99 2.128 1_556 S
N109 C110 1.355 1_545 S
N109 C112 1.311 . S
C110 N109 1.355 1_565 S
C110 C111 1.363 . S
C110 H122 0.929 . S
C111 C110 1.363 . S
C111 N113 1.375 1_565 S
C111 H129 0.931 . S
C112 N109 1.311 . S
C112 N113 1.347 . S
C112 H123 0.929 . S
N113 C111 1.375 1_545 S
N113 C112 1.347 . S
C114 C117 1.365 . S
C114 N119 1.328 1_565 S
C114 H120 0.929 . S
C115 C116 1.362 . S
C115 C118 1.378 . S
C115 H130 0.929 . S
C116 C115 1.362 . S
C116 C117 1.366 1_545 S
C117 C114 1.365 . S
C117 C116 1.366 1_565 S
C117 H131 0.930 . S
C118 C115 1.378 . S
C118 N119 1.315 . S
C118 H121 0.930 . S
N119 Co99 2.194 . S
N119 C114 1.328 1_545 S
N119 C118 1.315 . S
H120 C114 0.929 . S
H121 C118 0.930 . S
H122 C110 0.929 . S
H123 C112 0.929 . S
O124 Co99 2.351 1_565 S
O124 C127 1.244 . S
O125 Co99 2.155 1_565 S
O125 C127 1.240 . S
O126 Co99 2.096 . S
O126 C107 1.247 . S
C127 O124 1.244 . S
C127 O125 1.240 . S
H128 C102 0.931 . S
H129 C111 0.931 . S
H130 C115 0.929 . S
H131 C117 0.930 . S
Co132 N136 2.148 . S
Co132 N142 2.128 . S
Co132 N152 2.194 . S
Co132 O157 2.351 . S
Co132 O158 2.155 . S
Co132 O159 2.096 . S
C133 N136 1.301 . S
C133 N137 1.328 . S
C133 H138 0.930 . S
C134 C135 1.333 . S
C134 N136 1.317 . S
C134 H139 0.930 . S
C135 C134 1.333 . S
C135 N137 1.350 . S
C135 H161 0.931 . S
N136 Co132 2.148 . S
N136 C133 1.301 . S
N136 C134 1.317 . S
N137 C133 1.328 . S
N137 C135 1.350 . S
H138 C133 0.930 . S
H139 C134 0.930 . S
C140 O141 1.224 . S
C140 O159 1.247 . S
O141 C140 1.224 . S
N142 Co132 2.128 . S
N142 C143 1.355 . S
N142 C145 1.311 . S
C143 N142 1.355 . S
C143 C144 1.363 . S
C143 H155 0.929 . S
C144 C143 1.363 . S
C144 N146 1.375 . S
C144 H162 0.931 . S
C145 N142 1.311 . S
C145 N146 1.347 . S
C145 H156 0.929 . S
N146 C144 1.375 . S
N146 C145 1.347 . S
C147 C150 1.365 . S
C147 N152 1.328 . S
C147 H153 0.929 . S
C148 C149 1.362 . S
C148 C151 1.378 . S
C148 H163 0.929 . S
C149 C148 1.362 . S
C149 C150 1.366 . S
C150 C147 1.365 . S
C150 C149 1.366 . S
C150 H164 0.930 . S
C151 C148 1.378 . S
C151 N152 1.315 . S
C151 H154 0.930 . S
N152 Co132 2.194 . S
N152 C147 1.328 . S
N152 C151 1.315 . S
H153 C147 0.929 . S
H154 C151 0.930 . S
H155 C143 0.929 . S
H156 C145 0.929 . S
O157 Co132 2.351 . S
O157 C160 1.244 . S
O158 Co132 2.155 . S
O158 C160 1.240 . S
O159 Co132 2.096 . S
O159 C140 1.247 . S
C160 O157 1.244 . S
C160 O158 1.240 . S
H161 C135 0.931 . S
H162 C144 0.931 . S
H163 C148 0.929 . S
H164 C150 0.930 . S
Co165 N169 2.148 . S
Co165 N175 2.128 . S
Co165 N185 2.194 . S
Co165 O190 2.351 . S
Co165 O191 2.155 . S
Co165 O192 2.096 1_455 S
C166 N169 1.301 . S
C166 N170 1.328 . S
C166 H171 0.930 . S
C167 C168 1.333 . S
C167 N169 1.317 1_655 S
C167 H172 0.930 . S
C168 C167 1.333 . S
C168 N170 1.350 1_655 S
C168 H194 0.931 . S
N169 Co165 2.148 . S
N169 C166 1.301 . S
N169 C167 1.317 1_455 S
N170 C166 1.328 . S
N170 C168 1.350 1_455 S
H171 C166 0.930 . S
H172 C167 0.930 . S
C173 O174 1.224 . S
C173 O192 1.247 . S
O174 C173 1.224 . S
N175 Co165 2.128 . S
N175 C176 1.355 . S
N175 C178 1.311 . S
C176 N175 1.355 . S
C176 C177 1.363 . S
C176 H188 0.929 . S
C177 C176 1.363 . S
C177 N179 1.375 . S
C177 H195 0.931 . S
C178 N175 1.311 . S
C178 N179 1.347 . S
C178 H189 0.929 . S
N179 C177 1.375 . S
N179 C178 1.347 . S
C180 C183 1.365 . S
C180 N185 1.328 . S
C180 H186 0.929 . S
C181 C182 1.362 . S
C181 C184 1.378 . S
C181 H196 0.929 1_455 S
C182 C181 1.362 . S
C182 C183 1.366 . S
C183 C180 1.365 . S
C183 C182 1.366 . S
C183 H197 0.930 . S
C184 C181 1.378 . S
C184 N185 1.315 . S
C184 H187 0.930 1_455 S
N185 Co165 2.194 . S
N185 C180 1.328 . S
N185 C184 1.315 . S
H186 C180 0.929 . S
H187 C184 0.930 1_655 S
H188 C176 0.929 . S
H189 C178 0.929 . S
O190 Co165 2.351 . S
O190 C193 1.244 . S
O191 Co165 2.155 . S
O191 C193 1.240 . S
O192 Co165 2.096 1_655 S
O192 C173 1.247 . S
C193 O190 1.244 . S
C193 O191 1.240 . S
H194 C168 0.931 . S
H195 C177 0.931 . S
H196 C181 0.929 1_655 S
H197 C183 0.930 . S
H198 C216 0.951 . S
H199 C218 0.951 . S
H200 C220 0.950 1_565 S
H201 C221 0.950 1_565 S
H202 C223 0.950 . S
H203 C226 0.950 . S
H204 C227 0.950 . S
H205 C229 0.950 . S
H206 C230 0.950 . S
H207 C231 0.951 1_565 S
H208 C233 0.951 1_565 S
H209 C235 0.950 . S
H210 C236 0.950 . S
H211 C238 0.950 1_556 S
H212 C241 0.950 . S
H213 C242 0.950 . S
H214 C244 0.950 . S
H215 C245 0.950 1_565 S
C216 H198 0.951 . S
C216 C217 1.366 . S
C216 C218 1.388 . S
C217 C216 1.366 . S
C217 C221 1.385 . S
C218 H199 0.951 . S
C218 C216 1.388 . S
C218 C219 1.366 . S
C219 C218 1.366 . S
C219 C220 1.414 . S
C219 C222 1.499 . S
C220 H200 0.950 1_545 S
C220 C219 1.414 . S
C220 C221 1.374 . S
C221 H201 0.950 1_545 S
C221 C217 1.385 . S
C221 C220 1.374 . S
C222 C219 1.499 . S
C222 C223 1.373 . S
C222 C224 1.389 . S
C223 H202 0.950 . S
C223 C222 1.373 . S
C223 C239 1.377 . S
C224 C222 1.389 . S
C224 C225 1.524 1_554 S
C224 C238 1.377 . S
C225 C224 1.524 1_556 S
C225 C226 1.397 1_545 S
C225 C230 1.363 . S
C226 H203 0.950 . S
C226 C225 1.397 1_565 S
C226 C227 1.334 . S
C227 H204 0.950 . S
C227 C226 1.334 . S
C227 C228 1.281 1_565 S
C228 C227 1.281 1_545 S
C228 C229 1.531 . S
C228 H247 0.914 1_545 S
C229 H205 0.950 . S
C229 C228 1.531 . S
C229 C230 1.415 . S
C230 H206 0.950 . S
C230 C225 1.363 . S
C230 C229 1.415 . S
C231 H207 0.951 1_545 S
C231 C232 1.366 . S
C231 C233 1.388 . S
C232 C231 1.366 . S
C232 C236 1.385 . S
C233 H208 0.951 1_545 S
C233 C231 1.388 . S
C233 C234 1.366 . S
C234 C233 1.366 . S
C234 C235 1.414 . S
C234 C237 1.499 . S
C235 H209 0.950 . S
C235 C234 1.414 . S
C235 C236 1.374 . S
C236 H210 0.950 . S
C236 C232 1.385 . S
C236 C235 1.374 . S
C237 C234 1.499 . S
C237 C238 1.373 . S
C237 C239 1.389 . S
C238 H211 0.950 1_554 S
C238 C224 1.377 . S
C238 C237 1.373 . S
C239 C223 1.377 . S
C239 C237 1.389 . S
C239 C240 1.524 . S
C240 C239 1.524 . S
C240 C241 1.397 . S
C240 C245 1.363 . S
C241 H212 0.950 . S
C241 C240 1.397 . S
C241 C242 1.334 . S
C242 H213 0.950 . S
C242 C241 1.334 . S
C242 C243 1.287 . S
C243 C242 1.287 . S
C243 C244 1.524 . S
C243 H246 0.999 . S
C244 H214 0.950 . S
C244 C243 1.524 . S
C244 C245 1.415 . S
C245 H215 0.950 1_545 S
C245 C240 1.363 . S
C245 C244 1.415 . S
H246 C243 0.999 . S
H247 C228 0.914 1_565 S
H248 C266 0.951 . S
H249 C268 0.951 . S
H250 C270 0.950 . S
H251 C271 0.950 . S
H252 C273 0.950 . S
H253 C276 0.950 . S
H254 C277 0.950 . S
H255 C279 0.950 . S
H256 C280 0.950 . S
H257 C281 0.951 . S
H258 C283 0.951 . S
H259 C285 0.950 . S
H260 C286 0.950 . S
H261 C288 0.950 . S
H262 C291 0.950 . S
H263 C292 0.950 . S
H264 C294 0.950 . S
H265 C295 0.950 . S
C266 H248 0.951 . S
C266 C267 1.366 . S
C266 C268 1.388 . S
C267 C266 1.366 . S
C267 C271 1.385 . S
C268 H249 0.951 . S
C268 C266 1.388 . S
C268 C269 1.366 . S
C269 C268 1.366 . S
C269 C270 1.414 . S
C269 C272 1.499 . S
C270 H250 0.950 . S
C270 C269 1.414 . S
C270 C271 1.374 . S
C271 H251 0.950 . S
C271 C267 1.385 . S
C271 C270 1.374 . S
C272 C269 1.499 . S
C272 C273 1.373 . S
C272 C274 1.389 . S
C273 H252 0.950 . S
C273 C272 1.373 . S
C273 C289 1.377 . S
C274 C272 1.389 . S
C274 C275 1.524 . S
C274 C288 1.377 . S
C275 C274 1.524 . S
C275 C276 1.397 . S
C275 C280 1.363 . S
C276 H253 0.950 . S
C276 C275 1.397 . S
C276 C277 1.334 . S
C277 H254 0.950 . S
C277 C276 1.334 . S
C277 C278 1.287 . S
C278 C277 1.287 . S
C278 C279 1.524 . S
C278 H297 0.913 . S
C279 H255 0.950 . S
C279 C278 1.524 . S
C279 C280 1.415 . S
C280 H256 0.950 . S
C280 C275 1.363 . S
C280 C279 1.415 . S
C281 H257 0.951 . S
C281 C282 1.366 . S
C281 C283 1.388 . S
C282 C281 1.366 . S
C282 C286 1.385 . S
C283 H258 0.951 . S
C283 C281 1.388 . S
C283 C284 1.366 . S
C284 C283 1.366 . S
C284 C285 1.414 . S
C284 C287 1.499 . S
C285 H259 0.950 . S
C285 C284 1.414 . S
C285 C286 1.374 . S
C286 H260 0.950 . S
C286 C282 1.385 . S
C286 C285 1.374 . S
C287 C284 1.499 . S
C287 C288 1.373 . S
C287 C289 1.389 . S
C288 H261 0.950 . S
C288 C274 1.377 . S
C288 C287 1.373 . S
C289 C273 1.377 . S
C289 C287 1.389 . S
C289 C290 1.524 . S
C290 C289 1.524 . S
C290 C291 1.397 . S
C290 C295 1.363 . S
C291 H262 0.950 . S
C291 C290 1.397 . S
C291 C292 1.334 . S
C292 H263 0.950 . S
C292 C291 1.334 . S
C292 C293 1.287 . S
C293 C292 1.287 . S
C293 C294 1.524 . S
C293 H296 0.999 . S
C294 H264 0.950 . S
C294 C293 1.524 . S
C294 C295 1.415 . S
C295 H265 0.950 . S
C295 C290 1.363 . S
C295 C294 1.415 . S
H296 C293 0.999 . S
H297 C278 0.913 . S
H298 C316 0.951 1_655 S
H299 C318 0.951 1_655 S
H300 C320 0.950 . S
H301 C321 0.950 . S
H302 C323 0.950 . S
H303 C326 0.950 . S
H304 C327 0.950 . S
H305 C329 0.950 . S
H306 C330 0.950 . S
H307 C331 0.951 . S
H308 C333 0.951 . S
H309 C335 0.950 1_655 S
H310 C336 0.950 1_655 S
H311 C338 0.998 . S
H312 C341 0.950 . S
H313 C342 0.950 . S
H314 C344 0.950 . S
H315 C345 0.950 . S
C316 H298 0.951 1_455 S
C316 C317 1.366 . S
C316 C318 1.388 . S
C317 C316 1.366 . S
C317 C321 1.385 . S
C318 H299 0.951 1_455 S
C318 C316 1.388 . S
C318 C319 1.366 . S
C319 C318 1.366 . S
C319 C320 1.414 . S
C319 C322 1.499 . S
C320 H300 0.950 . S
C320 C319 1.414 . S
C320 C321 1.374 . S
C321 H301 0.950 . S
C321 C317 1.385 . S
C321 C320 1.374 . S
C322 C319 1.499 . S
C322 C323 1.373 . S
C322 C324 1.389 1_455 S
C323 H302 0.950 . S
C323 C322 1.373 . S
C323 C339 1.377 . S
C324 C322 1.389 1_655 S
C324 C325 1.524 . S
C324 C338 1.354 . S
C325 C324 1.524 . S
C325 C326 1.397 . S
C325 C330 1.363 . S
C326 H303 0.950 . S
C326 C325 1.397 . S
C326 C327 1.334 . S
C327 H304 0.950 . S
C327 C326 1.334 . S
C327 C328 1.287 . S
C328 C327 1.287 . S
C328 C329 1.524 . S
C328 H347 0.913 . S
C329 H305 0.950 . S
C329 C328 1.524 . S
C329 C330 1.415 . S
C330 H306 0.950 . S
C330 C325 1.363 . S
C330 C329 1.415 . S
C331 H307 0.951 . S
C331 C332 1.366 . S
C331 C333 1.388 . S
C332 C331 1.366 . S
C332 C336 1.385 . S
C333 H308 0.951 . S
C333 C331 1.388 . S
C333 C334 1.366 . S
C334 C333 1.366 . S
C334 C335 1.414 . S
C334 C337 1.499 . S
C335 H309 0.950 1_455 S
C335 C334 1.414 . S
C335 C336 1.374 . S
C336 H310 0.950 1_455 S
C336 C332 1.385 . S
C336 C335 1.374 . S
C337 C334 1.499 . S
C337 C338 1.350 1_455 S
C337 C339 1.389 . S
C338 H311 0.998 . S
C338 C324 1.354 . S
C338 C337 1.350 1_655 S
C339 C323 1.377 . S
C339 C337 1.389 . S
C339 C340 1.524 . S
C340 C339 1.524 . S
C340 C341 1.397 . S
C340 C345 1.363 . S
C341 H312 0.950 . S
C341 C340 1.397 . S
C341 C342 1.334 . S
C342 H313 0.950 . S
C342 C341 1.334 . S
C342 C343 1.287 . S
C343 C342 1.287 . S
C343 C344 1.524 . S
C343 H346 0.999 . S
C344 H314 0.950 . S
C344 C343 1.524 . S
C344 C345 1.415 . S
C345 H315 0.950 . S
C345 C340 1.363 . S
C345 C344 1.415 . S
H346 C343 0.999 . S
H347 C328 0.913 . S
H348 C366 0.951 . S
H349 C368 0.951 . S
H350 C370 0.950 . S
H351 C371 0.950 . S
H352 C373 0.950 1_565 S
H353 C376 0.950 . S
H354 C377 0.950 . S
H355 C379 0.950 . S
H356 C380 0.950 . S
H357 C381 0.951 1_565 S
H358 C383 0.951 1_565 S
H359 C385 0.950 . S
H360 C386 0.950 . S
H361 C388 0.950 . S
H362 C391 0.950 . S
H363 C392 0.950 . S
H364 C394 0.950 . S
H365 C395 0.950 . S
C366 H348 0.951 . S
C366 C367 1.366 . S
C366 C368 1.388 . S
C367 C366 1.366 . S
C367 C371 1.385 1_545 S
C368 H349 0.951 . S
C368 C366 1.388 . S
C368 C369 1.366 . S
C369 C368 1.366 . S
C369 C370 1.414 1_545 S
C369 C372 1.499 . S
C370 H350 0.950 . S
C370 C369 1.414 1_565 S
C370 C371 1.374 . S
C371 H351 0.950 . S
C371 C367 1.385 1_565 S
C371 C370 1.374 . S
C372 C369 1.499 . S
C372 C373 1.373 . S
C372 C374 1.389 . S
C373 H352 0.950 1_545 S
C373 C372 1.373 . S
C373 C389 1.377 . S
C374 C372 1.389 . S
C374 C375 1.524 . S
C374 C388 1.377 . S
C375 C374 1.524 . S
C375 C376 1.397 . S
C375 C380 1.363 . S
C376 H353 0.950 . S
C376 C375 1.397 . S
C376 C377 1.334 . S
C377 H354 0.950 . S
C377 C376 1.334 . S
C377 C378 1.287 . S
C378 C377 1.287 . S
C378 C379 1.524 . S
C378 H397 0.913 . S
C379 H355 0.950 . S
C379 C378 1.524 . S
C379 C380 1.415 . S
C380 H356 0.950 . S
C380 C375 1.363 . S
C380 C379 1.415 . S
C381 H357 0.951 1_545 S
C381 C382 1.366 . S
C381 C383 1.388 . S
C382 C381 1.366 . S
C382 C386 1.385 . S
C383 H358 0.951 1_545 S
C383 C381 1.388 . S
C383 C384 1.366 . S
C384 C383 1.366 . S
C384 C385 1.414 . S
C384 C387 1.499 . S
C385 H359 0.950 . S
C385 C384 1.414 . S
C385 C386 1.374 . S
C386 H360 0.950 . S
C386 C382 1.385 . S
C386 C385 1.374 . S
C387 C384 1.499 . S
C387 C388 1.373 . S
C387 C389 1.389 . S
C388 H361 0.950 . S
C388 C374 1.377 . S
C388 C387 1.373 . S
C389 C373 1.377 . S
C389 C387 1.389 . S
C389 C390 1.524 1_545 S
C390 C389 1.524 1_565 S
C390 C391 1.397 1_565 S
C390 C395 1.363 . S
C391 H362 0.950 . S
C391 C390 1.397 1_545 S
C391 C392 1.334 . S
C392 H363 0.950 . S
C392 C391 1.334 . S
C392 C393 1.287 1_545 S
C393 C392 1.287 1_565 S
C393 C394 1.524 . S
C393 H396 0.999 . S
C394 H364 0.950 . S
C394 C393 1.524 . S
C394 C395 1.415 . S
C395 H365 0.950 . S
C395 C390 1.363 . S
C395 C394 1.415 . S
H396 C393 0.999 . S
H397 C378 0.913 . S
H398 C416 0.951 . S
H399 C418 0.951 . S
H400 C420 0.950 . S
H401 C421 0.950 . S
H402 C423 0.950 . S
H403 C426 0.950 . S
H404 C427 0.950 . S
H405 C429 0.950 . S
H406 C430 0.950 . S
H407 C431 0.951 . S
H408 C433 0.951 . S
H409 C435 0.950 . S
H410 C436 0.950 . S
H411 C438 0.950 . S
H412 C441 0.948 1_554 S
H413 C442 0.950 . S
H414 C444 0.950 . S
H415 C445 0.950 . S
C416 H398 0.951 . S
C416 C417 1.366 . S
C416 C418 1.388 . S
C417 C416 1.366 . S
C417 C421 1.385 . S
C418 H399 0.951 . S
C418 C416 1.388 . S
C418 C419 1.366 . S
C419 C418 1.366 . S
C419 C420 1.414 . S
C419 C422 1.499 . S
C420 H400 0.950 . S
C420 C419 1.414 . S
C420 C421 1.374 . S
C421 H401 0.950 . S
C421 C417 1.385 . S
C421 C420 1.374 . S
C422 C419 1.499 . S
C422 C423 1.373 . S
C422 C424 1.389 . S
C423 H402 0.950 . S
C423 C422 1.373 . S
C423 C439 1.377 . S
C424 C422 1.389 . S
C424 C425 1.524 . S
C424 C438 1.377 . S
C425 C424 1.524 . S
C425 C426 1.397 . S
C425 C430 1.363 . S
C426 H403 0.950 . S
C426 C425 1.397 . S
C426 C427 1.334 . S
C427 H404 0.950 . S
C427 C426 1.334 . S
C427 C428 1.287 . S
C428 C427 1.287 . S
C428 C429 1.524 . S
C428 H447 0.913 . S
C429 H405 0.950 . S
C429 C428 1.524 . S
C429 C430 1.415 . S
C430 H406 0.950 . S
C430 C425 1.363 . S
C430 C429 1.415 . S
C431 H407 0.951 . S
C431 C432 1.366 . S
C431 C433 1.388 . S
C432 C431 1.366 . S
C432 C436 1.385 . S
C433 H408 0.951 . S
C433 C431 1.388 . S
C433 C434 1.366 . S
C434 C433 1.366 . S
C434 C435 1.414 . S
C434 C437 1.499 1_554 S
C435 H409 0.950 . S
C435 C434 1.414 . S
C435 C436 1.374 . S
C436 H410 0.950 . S
C436 C432 1.385 . S
C436 C435 1.374 . S
C437 C434 1.499 1_556 S
C437 C438 1.373 . S
C437 C439 1.389 . S
C438 H411 0.950 . S
C438 C424 1.377 . S
C438 C437 1.373 . S
C439 C423 1.377 . S
C439 C437 1.389 . S
C439 C440 1.524 . S
C440 C439 1.524 . S
C440 C441 1.397 . S
C440 C445 1.363 . S
C441 H412 0.948 1_556 S
C441 C440 1.397 . S
C441 C442 1.334 1_556 S
C442 H413 0.950 . S
C442 C441 1.334 1_554 S
C442 C443 1.287 . S
C443 C442 1.287 . S
C443 C444 1.524 1_554 S
C443 H446 0.999 . S
C444 H414 0.950 . S
C444 C443 1.524 1_556 S
C444 C445 1.415 . S
C445 H415 0.950 . S
C445 C440 1.363 . S
C445 C444 1.415 . S
H446 C443 0.999 . S
H447 C428 0.913 . S
H448 C466 0.951 1_656 S
H449 C468 0.951 1_655 S
H450 C470 0.950 . S
H451 C471 0.950 1_556 S
H452 C473 0.950 . S
H453 C476 0.950 . S
H454 C477 0.950 . S
H455 C479 0.950 . S
H456 C480 0.950 . S
H457 C481 0.951 . S
H458 C483 0.951 . S
H459 C485 0.950 . S
H460 C486 0.950 . S
H461 C488 0.950 . S
H462 C491 0.950 1_655 S
H463 C492 0.950 . S
H464 C494 0.950 . S
H465 C495 0.950 . S
C466 H448 0.951 1_454 S
C466 C467 1.366 1_554 S
C466 C468 1.388 . S
C467 C466 1.366 1_556 S
C467 C471 1.385 1_556 S
C468 H449 0.951 1_455 S
C468 C466 1.388 . S
C468 C469 1.366 . S
C469 C468 1.366 . S
C469 C470 1.414 . S
C469 C472 1.499 . S
C470 H450 0.950 . S
C470 C469 1.414 . S
C470 C471 1.374 . S
C471 H451 0.950 1_554 S
C471 C467 1.385 1_554 S
C471 C470 1.374 . S
C472 C469 1.499 . S
C472 C473 1.373 . S
C472 C474 1.389 . S
C473 H452 0.950 . S
C473 C472 1.373 . S
C473 C489 1.377 . S
C474 C472 1.389 . S
C474 C475 1.524 . S
C474 C488 1.377 . S
C475 C474 1.524 . S
C475 C476 1.397 . S
C475 C480 1.363 1_455 S
C476 H453 0.950 . S
C476 C475 1.397 . S
C476 C477 1.334 . S
C477 H454 0.950 . S
C477 C476 1.334 . S
C477 C478 1.287 . S
C478 C477 1.287 . S
C478 C479 1.524 1_455 S
C478 H497 0.906 1_455 S
C479 H455 0.950 . S
C479 C478 1.524 1_655 S
C479 C480 1.415 . S
C480 H456 0.950 . S
C480 C475 1.363 1_655 S
C480 C479 1.415 . S
C481 H457 0.951 . S
C481 C482 1.366 . S
C481 C483 1.388 . S
C482 C481 1.366 . S
C482 C486 1.385 1_455 S
C483 H458 0.951 . S
C483 C481 1.388 . S
C483 C484 1.366 . S
C484 C483 1.366 . S
C484 C485 1.414 1_455 S
C484 C487 1.499 . S
C485 H459 0.950 . S
C485 C484 1.414 1_655 S
C485 C486 1.374 . S
C486 H460 0.950 . S
C486 C482 1.385 1_655 S
C486 C485 1.374 . S
C487 C484 1.499 . S
C487 C488 1.373 . S
C487 C489 1.389 . S
C488 H461 0.950 . S
C488 C474 1.377 . S
C488 C487 1.373 . S
C489 C473 1.377 . S
C489 C487 1.389 . S
C489 C490 1.524 . S
C490 C489 1.524 . S
C490 C491 1.397 . S
C490 C495 1.363 . S
C491 H462 0.950 1_455 S
C491 C490 1.397 . S
C491 C492 1.334 . S
C492 H463 0.950 . S
C492 C491 1.334 . S
C492 C493 1.287 . S
C493 C492 1.287 . S
C493 C494 1.524 . S
C493 H496 0.999 . S
C494 H464 0.950 . S
C494 C493 1.524 . S
C494 C495 1.415 . S
C495 H465 0.950 . S
C495 C490 1.363 . S
C495 C494 1.415 . S
H496 C493 0.999 . S
H497 C478 0.906 1_655 S
H498 C516 0.951 . S
H499 C518 0.951 . S
H500 C520 0.950 . S
H501 C521 0.950 . S
H502 C523 0.950 . S
H503 C526 0.950 . S
H504 C527 0.950 . S
H505 C529 0.950 . S
H506 C530 0.950 . S
H507 C531 0.951 . S
H508 C533 0.951 . S
H509 C535 0.950 . S
H510 C536 0.950 . S
H511 C538 0.950 . S
H512 C541 0.950 . S
H513 C542 0.950 . S
H514 C544 0.950 . S
H515 C545 0.950 . S
C516 H498 0.951 . S
C516 C517 1.366 . S
C516 C518 1.388 . S
C517 C516 1.366 . S
C517 C521 1.385 . S
C518 H499 0.951 . S
C518 C516 1.388 . S
C518 C519 1.366 . S
C519 C518 1.366 . S
C519 C520 1.414 . S
C519 C522 1.499 . S
C520 H500 0.950 . S
C520 C519 1.414 . S
C520 C521 1.374 . S
C521 H501 0.950 . S
C521 C517 1.385 . S
C521 C520 1.374 . S
C522 C519 1.499 . S
C522 C523 1.373 . S
C522 C524 1.389 1_545 S
C523 H502 0.950 . S
C523 C522 1.373 . S
C523 C539 1.377 . S
C524 C522 1.389 1_565 S
C524 C525 1.524 . S
C524 C538 1.377 . S
C525 C524 1.524 . S
C525 C526 1.397 . S
C525 C530 1.363 . S
C526 H503 0.950 . S
C526 C525 1.397 . S
C526 C527 1.334 . S
C527 H504 0.950 . S
C527 C526 1.334 . S
C527 C528 1.287 . S
C528 C527 1.287 . S
C528 C529 1.524 . S
C528 H547 0.913 . S
C529 H505 0.950 . S
C529 C528 1.524 . S
C529 C530 1.415 . S
C530 H506 0.950 . S
C530 C525 1.363 . S
C530 C529 1.415 . S
C531 H507 0.951 . S
C531 C532 1.366 . S
C531 C533 1.388 . S
C532 C531 1.366 . S
C532 C536 1.385 . S
C533 H508 0.951 . S
C533 C531 1.388 . S
C533 C534 1.366 . S
C534 C533 1.366 . S
C534 C535 1.414 . S
C534 C537 1.499 . S
C535 H509 0.950 . S
C535 C534 1.414 . S
C535 C536 1.374 . S
C536 H510 0.950 . S
C536 C532 1.385 . S
C536 C535 1.374 . S
C537 C534 1.499 . S
C537 C538 1.373 1_545 S
C537 C539 1.389 . S
C538 H511 0.950 . S
C538 C524 1.377 . S
C538 C537 1.373 1_565 S
C539 C523 1.377 . S
C539 C537 1.389 . S
C539 C540 1.524 . S
C540 C539 1.524 . S
C540 C541 1.397 . S
C540 C545 1.363 . S
C541 H512 0.950 . S
C541 C540 1.397 . S
C541 C542 1.334 . S
C542 H513 0.950 . S
C542 C541 1.334 . S
C542 C543 1.287 . S
C543 C542 1.287 . S
C543 C544 1.524 . S
C543 H546 0.999 . S
C544 H514 0.950 . S
C544 C543 1.524 . S
C544 C545 1.415 . S
C545 H515 0.950 . S
C545 C540 1.363 . S
C545 C544 1.415 . S
H546 C543 0.999 . S
H547 C528 0.913 . S
H548 C566 0.951 . S
H549 C568 0.951 . S
H550 C570 0.950 . S
H551 C571 0.950 . S
H552 C573 0.950 . S
H553 C576 0.950 . S
H554 C577 0.950 . S
H555 C579 0.950 . S
H556 C580 0.950 . S
H557 C581 0.951 . S
H558 C583 0.951 . S
H559 C585 0.950 . S
H560 C586 0.950 . S
H561 C588 0.950 . S
H562 C591 0.950 . S
H563 C592 0.950 . S
H564 C594 0.950 . S
H565 C595 0.950 . S
C566 H548 0.951 . S
C566 C567 1.366 . S
C566 C568 1.388 . S
C567 C566 1.366 . S
C567 C571 1.385 . S
C568 H549 0.951 . S
C568 C566 1.388 . S
C568 C569 1.366 . S
C569 C568 1.366 . S
C569 C570 1.414 . S
C569 C572 1.499 . S
C570 H550 0.950 . S
C570 C569 1.414 . S
C570 C571 1.374 . S
C571 H551 0.950 . S
C571 C567 1.385 . S
C571 C570 1.374 . S
C572 C569 1.499 . S
C572 C573 1.373 . S
C572 C574 1.389 . S
C573 H552 0.950 . S
C573 C572 1.373 . S
C573 C589 1.377 . S
C574 C572 1.389 . S
C574 C575 1.524 . S
C574 C588 1.377 . S
C575 C574 1.524 . S
C575 C576 1.397 . S
C575 C580 1.363 . S
C576 H553 0.950 . S
C576 C575 1.397 . S
C576 C577 1.334 . S
C577 H554 0.950 . S
C577 C576 1.334 . S
C577 C578 1.287 . S
C578 C577 1.287 . S
C578 C579 1.524 . S
C578 H597 0.913 . S
C579 H555 0.950 . S
C579 C578 1.524 . S
C579 C580 1.415 . S
C580 H556 0.950 . S
C580 C575 1.363 . S
C580 C579 1.415 . S
C581 H557 0.951 . S
C581 C582 1.366 . S
C581 C583 1.388 . S
C582 C581 1.366 . S
C582 C586 1.385 . S
C583 H558 0.951 . S
C583 C581 1.388 . S
C583 C584 1.366 . S
C584 C583 1.366 . S
C584 C585 1.414 . S
C584 C587 1.499 1_554 S
C585 H559 0.950 . S
C585 C584 1.414 . S
C585 C586 1.374 . S
C586 H560 0.950 . S
C586 C582 1.385 . S
C586 C585 1.374 . S
C587 C584 1.499 1_556 S
C587 C588 1.373 . S
C587 C589 1.389 . S
C588 H561 0.950 . S
C588 C574 1.377 . S
C588 C587 1.373 . S
C589 C573 1.377 . S
C589 C587 1.389 . S
C589 C590 1.524 . S
C590 C589 1.524 . S
C590 C591 1.397 1_556 S
C590 C595 1.363 . S
C591 H562 0.950 . S
C591 C590 1.397 1_554 S
C591 C592 1.334 . S
C592 H563 0.950 . S
C592 C591 1.334 . S
C592 C593 1.287 . S
C593 C592 1.287 . S
C593 C594 1.524 1_554 S
C593 H596 0.999 . S
C594 H564 0.950 . S
C594 C593 1.524 1_556 S
C594 C595 1.415 . S
C595 H565 0.950 . S
C595 C590 1.363 . S
C595 C594 1.415 . S
H596 C593 0.999 . S
H597 C578 0.913 . S
H598 C616 0.951 . S
H599 C618 0.951 . S
H600 C620 0.950 1_655 S
H601 C621 0.950 1_655 S
H602 C623 0.950 1_655 S
H603 C626 0.950 . S
H604 C627 0.950 . S
H605 C629 0.950 . S
H606 C630 0.950 . S
H607 C631 0.951 1_556 S
H608 C633 0.951 . S
H609 C635 0.950 . S
H610 C636 0.950 1_556 S
H611 C638 0.950 . S
H612 C641 0.953 . S
H613 C642 0.950 . S
H614 C644 0.950 . S
H615 C645 0.950 . S
C616 H598 0.951 . S
C616 C617 1.366 . S
C616 C618 1.388 . S
C617 C616 1.366 . S
C617 C621 1.385 . S
C618 H599 0.951 . S
C618 C616 1.388 . S
C618 C619 1.366 . S
C619 C618 1.366 . S
C619 C620 1.414 . S
C619 C622 1.499 . S
C620 H600 0.950 1_455 S
C620 C619 1.414 . S
C620 C621 1.374 . S
C621 H601 0.950 1_455 S
C621 C617 1.385 . S
C621 C620 1.374 . S
C622 C619 1.499 . S
C622 C623 1.373 . S
C622 C624 1.389 . S
C623 H602 0.950 1_455 S
C623 C622 1.373 . S
C623 C639 1.377 . S
C624 C622 1.389 . S
C624 C625 1.524 . S
C624 C638 1.377 . S
C625 C624 1.524 . S
C625 C626 1.397 . S
C625 C630 1.363 . S
C626 H603 0.950 . S
C626 C625 1.397 . S
C626 C627 1.334 . S
C627 H604 0.950 . S
C627 C626 1.334 . S
C627 C628 1.287 . S
C628 C627 1.287 . S
C628 C629 1.524 . S
C628 H647 0.913 . S
C629 H605 0.950 . S
C629 C628 1.524 . S
C629 C630 1.415 . S
C630 H606 0.950 . S
C630 C625 1.363 . S
C630 C629 1.415 . S
C631 H607 0.951 1_554 S
C631 C632 1.366 1_654 S
C631 C633 1.388 . S
C632 C631 1.366 1_456 S
C632 C636 1.385 1_556 S
C633 H608 0.951 . S
C633 C631 1.388 . S
C633 C634 1.366 1_655 S
C634 C633 1.366 1_455 S
C634 C635 1.414 . S
C634 C637 1.499 . S
C635 H609 0.950 . S
C635 C634 1.414 . S
C635 C636 1.374 . S
C636 H610 0.950 1_554 S
C636 C632 1.385 1_554 S
C636 C635 1.374 . S
C637 C634 1.499 . S
C637 C638 1.373 . S
C637 C639 1.389 . S
C638 H611 0.950 . S
C638 C624 1.377 . S
C638 C637 1.373 . S
C639 C623 1.377 . S
C639 C637 1.389 . S
C639 C640 1.524 1_455 S
C640 C639 1.524 1_655 S
C640 C641 1.397 . S
C640 C645 1.363 . S
C641 H612 0.953 . S
C641 C640 1.397 . S
C641 C642 1.334 . S
C642 H613 0.950 . S
C642 C641 1.334 . S
C642 C643 1.287 . S
C643 C642 1.287 . S
C643 C644 1.524 . S
C643 H646 0.999 . S
C644 H614 0.950 . S
C644 C643 1.524 . S
C644 C645 1.415 . S
C645 H615 0.950 . S
C645 C640 1.363 . S
C645 C644 1.415 . S
H646 C643 0.999 . S
H647 C628 0.913 . S
H648 C666 0.951 . S
H649 C668 0.951 . S
H650 C670 0.950 . S
H651 C671 0.950 . S
H652 C673 0.950 . S
H653 C676 0.950 . S
H654 C677 0.950 . S
H655 C679 0.950 . S
H656 C680 0.950 . S
H657 C681 0.951 . S
H658 C683 0.951 . S
H659 C685 0.950 . S
H660 C686 0.950 . S
H661 C688 0.950 . S
H662 C691 0.950 . S
H663 C692 0.950 . S
H664 C694 0.950 . S
H665 C695 0.950 . S
C666 H648 0.951 . S
C666 C667 1.366 . S
C666 C668 1.388 . S
C667 C666 1.366 . S
C667 C671 1.385 . S
C668 H649 0.951 . S
C668 C666 1.388 . S
C668 C669 1.366 . S
C669 C668 1.366 . S
C669 C670 1.414 . S
C669 C672 1.499 . S
C670 H650 0.950 . S
C670 C669 1.414 . S
C670 C671 1.374 . S
C671 H651 0.950 . S
C671 C667 1.385 . S
C671 C670 1.374 . S
C672 C669 1.499 . S
C672 C673 1.373 . S
C672 C674 1.389 . S
C673 H652 0.950 . S
C673 C672 1.373 . S
C673 C689 1.377 . S
C674 C672 1.389 . S
C674 C675 1.524 . S
C674 C688 1.377 . S
C675 C674 1.524 . S
C675 C676 1.397 . S
C675 C680 1.363 . S
C676 H653 0.950 . S
C676 C675 1.397 . S
C676 C677 1.334 . S
C677 H654 0.950 . S
C677 C676 1.334 . S
C677 C678 1.287 . S
C678 C677 1.287 . S
C678 C679 1.524 . S
C678 H697 0.913 . S
C679 H655 0.950 . S
C679 C678 1.524 . S
C679 C680 1.415 . S
C680 H656 0.950 . S
C680 C675 1.363 . S
C680 C679 1.415 . S
C681 H657 0.951 . S
C681 C682 1.366 . S
C681 C683 1.388 . S
C682 C681 1.366 . S
C682 C686 1.385 . S
C683 H658 0.951 . S
C683 C681 1.388 . S
C683 C684 1.366 . S
C684 C683 1.366 . S
C684 C685 1.414 . S
C684 C687 1.499 . S
C685 H659 0.950 . S
C685 C684 1.414 . S
C685 C686 1.374 . S
C686 H660 0.950 . S
C686 C682 1.385 . S
C686 C685 1.374 . S
C687 C684 1.499 . S
C687 C688 1.373 . S
C687 C689 1.389 . S
C688 H661 0.950 . S
C688 C674 1.377 . S
C688 C687 1.373 . S
C689 C673 1.377 . S
C689 C687 1.389 . S
C689 C690 1.524 . S
C690 C689 1.524 . S
C690 C691 1.397 . S
C690 C695 1.363 . S
C691 H662 0.950 . S
C691 C690 1.397 . S
C691 C692 1.334 . S
C692 H663 0.950 . S
C692 C691 1.334 . S
C692 C693 1.287 . S
C693 C692 1.287 . S
C693 C694 1.524 . S
C693 H696 0.999 . S
C694 H664 0.950 . S
C694 C693 1.524 . S
C694 C695 1.415 . S
C695 H665 0.950 . S
C695 C690 1.363 . S
C695 C694 1.415 . S
H696 C693 0.999 . S
H697 C678 0.913 . S
H698 C716 0.951 . S
H699 C718 0.951 . S
H700 C720 0.950 . S
H701 C721 0.950 . S
H702 C723 0.950 . S
H703 C726 0.950 . S
H704 C727 0.950 . S
H705 C729 0.950 . S
H706 C730 0.950 . S
H707 C731 0.951 . S
H708 C733 0.951 . S
H709 C735 0.950 . S
H710 C736 0.950 . S
H711 C738 0.950 . S
H712 C741 0.950 . S
H713 C742 0.950 . S
H714 C744 0.950 . S
H715 C745 0.950 . S
C716 H698 0.951 . S
C716 C717 1.366 . S
C716 C718 1.388 . S
C717 C716 1.366 . S
C717 C721 1.385 . S
C718 H699 0.951 . S
C718 C716 1.388 . S
C718 C719 1.366 . S
C719 C718 1.366 . S
C719 C720 1.414 . S
C719 C722 1.499 . S
C720 H700 0.950 . S
C720 C719 1.414 . S
C720 C721 1.374 . S
C721 H701 0.950 . S
C721 C717 1.385 . S
C721 C720 1.374 . S
C722 C719 1.499 . S
C722 C723 1.373 . S
C722 C724 1.389 . S
C723 H702 0.950 . S
C723 C722 1.373 . S
C723 C739 1.377 . S
C724 C722 1.389 . S
C724 C725 1.524 . S
C724 C738 1.377 . S
C725 C724 1.524 . S
C725 C726 1.397 . S
C725 C730 1.363 . S
C726 H703 0.950 . S
C726 C725 1.397 . S
C726 C727 1.334 . S
C727 H704 0.950 . S
C727 C726 1.334 . S
C727 C728 1.287 . S
C728 C727 1.287 . S
C728 C729 1.524 . S
C728 H747 0.913 . S
C729 H705 0.950 . S
C729 C728 1.524 . S
C729 C730 1.415 . S
C730 H706 0.950 . S
C730 C725 1.363 . S
C730 C729 1.415 . S
C731 H707 0.951 . S
C731 C732 1.366 . S
C731 C733 1.388 . S
C732 C731 1.366 . S
C732 C736 1.385 . S
C733 H708 0.951 . S
C733 C731 1.388 . S
C733 C734 1.366 . S
C734 C733 1.366 . S
C734 C735 1.414 . S
C734 C737 1.499 . S
C735 H709 0.950 . S
C735 C734 1.414 . S
C735 C736 1.374 . S
C736 H710 0.950 . S
C736 C732 1.385 . S
C736 C735 1.374 . S
C737 C734 1.499 . S
C737 C738 1.373 . S
C737 C739 1.389 . S
C738 H711 0.950 . S
C738 C724 1.377 . S
C738 C737 1.373 . S
C739 C723 1.377 . S
C739 C737 1.389 . S
C739 C740 1.524 . S
C740 C739 1.524 . S
C740 C741 1.397 . S
C740 C745 1.363 . S
C741 H712 0.950 . S
C741 C740 1.397 . S
C741 C742 1.334 . S
C742 H713 0.950 . S
C742 C741 1.334 . S
C742 C743 1.287 . S
C743 C742 1.287 . S
C743 C744 1.524 . S
C743 H746 0.999 . S
C744 H714 0.950 . S
C744 C743 1.524 . S
C744 C745 1.415 . S
C745 H715 0.950 . S
C745 C740 1.363 . S
C745 C744 1.415 . S
H746 C743 0.999 . S
H747 C728 0.913 . S
H748 C766 0.951 . S
H749 C768 0.951 . S
H750 C770 0.950 . S
H751 C771 0.950 . S
H752 C773 0.939 1_554 S
H753 C776 0.950 . S
H754 C777 0.950 . S
H755 C779 0.950 . S
H756 C780 0.950 . S
H757 C781 0.951 . S
H758 C783 0.951 . S
H759 C785 0.950 . S
H760 C786 0.950 . S
H761 C788 0.950 . S
H762 C791 0.950 . S
H763 C792 0.950 . S
H764 C794 0.950 . S
H765 C795 0.950 . S
C766 H748 0.951 . S
C766 C767 1.366 1_556 S
C766 C768 1.388 . S
C767 C766 1.366 1_554 S
C767 C771 1.385 . S
C768 H749 0.951 . S
C768 C766 1.388 . S
C768 C769 1.366 . S
C769 C768 1.366 . S
C769 C770 1.414 1_556 S
C769 C772 1.499 . S
C770 H750 0.950 . S
C770 C769 1.414 1_554 S
C770 C771 1.374 . S
C771 H751 0.950 . S
C771 C767 1.385 . S
C771 C770 1.374 . S
C772 C769 1.499 . S
C772 C773 1.373 . S
C772 C774 1.389 . S
C773 H752 0.939 1_556 S
C773 C772 1.373 . S
C773 C789 1.377 . S
C774 C772 1.389 . S
C774 C775 1.524 . S
C774 C788 1.377 . S
C775 C774 1.524 . S
C775 C776 1.397 . S
C775 C780 1.363 . S
C776 H753 0.950 . S
C776 C775 1.397 . S
C776 C777 1.334 . S
C777 H754 0.950 . S
C777 C776 1.334 . S
C777 C778 1.287 . S
C778 C777 1.287 . S
C778 C779 1.524 . S
C778 H797 0.913 . S
C779 H755 0.950 . S
C779 C778 1.524 . S
C779 C780 1.415 . S
C780 H756 0.950 . S
C780 C775 1.363 . S
C780 C779 1.415 . S
C781 H757 0.951 . S
C781 C782 1.366 . S
C781 C783 1.388 . S
C782 C781 1.366 . S
C782 C786 1.385 . S
C783 H758 0.951 . S
C783 C781 1.388 . S
C783 C784 1.366 . S
C784 C783 1.366 . S
C784 C785 1.414 . S
C784 C787 1.499 . S
C785 H759 0.950 . S
C785 C784 1.414 . S
C785 C786 1.374 . S
C786 H760 0.950 . S
C786 C782 1.385 . S
C786 C785 1.374 . S
C787 C784 1.499 . S
C787 C788 1.373 . S
C787 C789 1.389 . S
C788 H761 0.950 . S
C788 C774 1.377 . S
C788 C787 1.373 . S
C789 C773 1.377 . S
C789 C787 1.389 . S
C789 C790 1.524 . S
C790 C789 1.524 . S
C790 C791 1.397 . S
C790 C795 1.363 1_556 S
C791 H762 0.950 . S
C791 C790 1.397 . S
C791 C792 1.334 . S
C792 H763 0.950 . S
C792 C791 1.334 . S
C792 C793 1.287 1_556 S
C793 C792 1.287 1_554 S
C793 C794 1.524 . S
C793 H796 0.999 . S
C794 H764 0.950 . S
C794 C793 1.524 . S
C794 C795 1.415 . S
C795 H765 0.950 . S
C795 C790 1.363 1_554 S
C795 C794 1.415 . S
H796 C793 0.999 . S
H797 C778 0.913 . S
H798 C816 0.951 . S
H799 C818 0.951 . S
H800 C820 0.950 . S
H801 C821 0.950 . S
H802 C823 0.950 . S
H803 C826 0.950 . S
H804 C827 0.950 . S
H805 C829 0.950 . S
H806 C830 0.950 . S
H807 C831 0.951 . S
H808 C833 0.951 . S
H809 C835 0.950 . S
H810 C836 0.950 . S
H811 C838 0.950 . S
H812 C841 0.950 . S
H813 C842 0.950 . S
H814 C844 0.950 . S
H815 C845 0.950 . S
C816 H798 0.951 . S
C816 C817 1.366 . S
C816 C818 1.388 . S
C817 C816 1.366 . S
C817 C821 1.385 . S
C818 H799 0.951 . S
C818 C816 1.388 . S
C818 C819 1.366 . S
C819 C818 1.366 . S
C819 C820 1.414 . S
C819 C822 1.499 . S
C820 H800 0.950 . S
C820 C819 1.414 . S
C820 C821 1.374 . S
C821 H801 0.950 . S
C821 C817 1.385 . S
C821 C820 1.374 . S
C822 C819 1.499 . S
C822 C823 1.373 . S
C822 C824 1.389 . S
C823 H802 0.950 . S
C823 C822 1.373 . S
C823 C839 1.377 . S
C824 C822 1.389 . S
C824 C825 1.524 . S
C824 C838 1.377 . S
C825 C824 1.524 . S
C825 C826 1.397 . S
C825 C830 1.363 . S
C826 H803 0.950 . S
C826 C825 1.397 . S
C826 C827 1.334 . S
C827 H804 0.950 . S
C827 C826 1.334 . S
C827 C828 1.287 . S
C828 C827 1.287 . S
C828 C829 1.524 . S
C828 H847 0.913 . S
C829 H805 0.950 . S
C829 C828 1.524 . S
C829 C830 1.415 . S
C830 H806 0.950 . S
C830 C825 1.363 . S
C830 C829 1.415 . S
C831 H807 0.951 . S
C831 C832 1.366 . S
C831 C833 1.388 . S
C832 C831 1.366 . S
C832 C836 1.385 . S
C833 H808 0.951 . S
C833 C831 1.388 . S
C833 C834 1.366 . S
C834 C833 1.366 . S
C834 C835 1.414 . S
C834 C837 1.499 . S
C835 H809 0.950 . S
C835 C834 1.414 . S
C835 C836 1.374 . S
C836 H810 0.950 . S
C836 C832 1.385 . S
C836 C835 1.374 . S
C837 C834 1.499 . S
C837 C838 1.373 . S
C837 C839 1.389 . S
C838 H811 0.950 . S
C838 C824 1.377 . S
C838 C837 1.373 . S
C839 C823 1.377 . S
C839 C837 1.389 . S
C839 C840 1.524 . S
C840 C839 1.524 . S
C840 C841 1.397 . S
C840 C845 1.363 . S
C841 H812 0.950 . S
C841 C840 1.397 . S
C841 C842 1.334 . S
C842 H813 0.950 . S
C842 C841 1.334 . S
C842 C843 1.287 . S
C843 C842 1.287 . S
C843 C844 1.524 . S
C843 H846 0.999 . S
C844 H814 0.950 . S
C844 C843 1.524 . S
C844 C845 1.415 . S
C845 H815 0.950 . S
C845 C840 1.363 . S
C845 C844 1.415 . S
H846 C843 0.999 . S
H847 C828 0.913 . S
H848 C866 0.951 . S
H849 C868 0.951 . S
H850 C870 0.950 . S
H851 C871 0.950 . S
H852 C873 0.950 . S
H853 C876 0.950 . S
H854 C877 0.950 . S
H855 C879 0.950 . S
H856 C880 0.950 . S
H857 C881 0.951 . S
H858 C883 0.951 . S
H859 C885 0.950 . S
H860 C886 0.950 . S
H861 C888 0.950 . S
H862 C891 0.950 . S
H863 C892 0.950 . S
H864 C894 0.950 . S
H865 C895 0.950 . S
C866 H848 0.951 . S
C866 C867 1.366 . S
C866 C868 1.388 . S
C867 C866 1.366 . S
C867 C871 1.385 . S
C868 H849 0.951 . S
C868 C866 1.388 . S
C868 C869 1.366 . S
C869 C868 1.366 . S
C869 C870 1.414 . S
C869 C872 1.499 . S
C870 H850 0.950 . S
C870 C869 1.414 . S
C870 C871 1.374 . S
C871 H851 0.950 . S
C871 C867 1.385 . S
C871 C870 1.374 . S
C872 C869 1.499 . S
C872 C873 1.373 . S
C872 C874 1.389 . S
C873 H852 0.950 . S
C873 C872 1.373 . S
C873 C889 1.377 . S
C874 C872 1.389 . S
C874 C875 1.524 . S
C874 C888 1.377 . S
C875 C874 1.524 . S
C875 C876 1.397 . S
C875 C880 1.363 . S
C876 H853 0.950 . S
C876 C875 1.397 . S
C876 C877 1.334 . S
C877 H854 0.950 . S
C877 C876 1.334 . S
C877 C878 1.287 . S
C878 C877 1.287 . S
C878 C879 1.524 . S
C878 H897 0.913 . S
C879 H855 0.950 . S
C879 C878 1.524 . S
C879 C880 1.415 . S
C880 H856 0.950 . S
C880 C875 1.363 . S
C880 C879 1.415 . S
C881 H857 0.951 . S
C881 C882 1.366 . S
C881 C883 1.388 . S
C882 C881 1.366 . S
C882 C886 1.385 . S
C883 H858 0.951 . S
C883 C881 1.388 . S
C883 C884 1.366 . S
C884 C883 1.366 . S
C884 C885 1.414 . S
C884 C887 1.499 . S
C885 H859 0.950 . S
C885 C884 1.414 . S
C885 C886 1.374 . S
C886 H860 0.950 . S
C886 C882 1.385 . S
C886 C885 1.374 . S
C887 C884 1.499 . S
C887 C888 1.373 . S
C887 C889 1.389 . S
C888 H861 0.950 . S
C888 C874 1.377 . S
C888 C887 1.373 . S
C889 C873 1.377 . S
C889 C887 1.389 . S
C889 C890 1.524 . S
C890 C889 1.524 . S
C890 C891 1.397 . S
C890 C895 1.363 . S
C891 H862 0.950 . S
C891 C890 1.397 . S
C891 C892 1.334 . S
C892 H863 0.950 . S
C892 C891 1.334 . S
C892 C893 1.287 . S
C893 C892 1.287 . S
C893 C894 1.524 . S
C893 H896 0.999 . S
C894 H864 0.950 . S
C894 C893 1.524 . S
C894 C895 1.415 . S
C895 H865 0.950 . S
C895 C890 1.363 . S
C895 C894 1.415 . S
H896 C893 0.999 . S
H897 C878 0.913 . S
H898 C916 0.951 . S
H899 C918 0.951 . S
H900 C920 0.950 . S
H901 C921 0.950 . S
H902 C923 0.950 . S
H903 C926 0.950 . S
H904 C927 0.950 . S
H905 C929 0.950 . S
H906 C930 0.950 . S
H907 C931 0.951 1_554 S
H908 C933 0.951 . S
H909 C935 0.950 . S
H910 C936 0.950 1_554 S
H911 C938 0.950 . S
H912 C941 0.950 . S
H913 C942 0.950 . S
H914 C944 0.950 . S
H915 C945 0.950 1_556 S
C916 H898 0.951 . S
C916 C917 1.366 . S
C916 C918 1.388 . S
C917 C916 1.366 . S
C917 C921 1.385 . S
C918 H899 0.951 . S
C918 C916 1.388 . S
C918 C919 1.366 . S
C919 C918 1.366 . S
C919 C920 1.414 . S
C919 C922 1.499 . S
C920 H900 0.950 . S
C920 C919 1.414 . S
C920 C921 1.374 . S
C921 H901 0.950 . S
C921 C917 1.385 . S
C921 C920 1.374 . S
C922 C919 1.499 . S
C922 C923 1.373 . S
C922 C924 1.389 . S
C923 H902 0.950 . S
C923 C922 1.373 . S
C923 C939 1.377 . S
C924 C922 1.389 . S
C924 C925 1.524 . S
C924 C938 1.377 . S
C925 C924 1.524 . S
C925 C926 1.397 . S
C925 C930 1.363 . S
C926 H903 0.950 . S
C926 C925 1.397 . S
C926 C927 1.334 . S
C927 H904 0.950 . S
C927 C926 1.334 . S
C927 C928 1.287 . S
C928 C927 1.287 . S
C928 C929 1.524 . S
C928 H947 0.913 . S
C929 H905 0.950 . S
C929 C928 1.524 . S
C929 C930 1.415 . S
C930 H906 0.950 . S
C930 C925 1.363 . S
C930 C929 1.415 . S
C931 H907 0.951 1_556 S
C931 C932 1.366 1_556 S
C931 C933 1.388 . S
C932 C931 1.366 1_554 S
C932 C936 1.385 1_554 S
C933 H908 0.951 . S
C933 C931 1.388 . S
C933 C934 1.366 . S
C934 C933 1.366 . S
C934 C935 1.414 . S
C934 C937 1.499 . S
C935 H909 0.950 . S
C935 C934 1.414 . S
C935 C936 1.374 . S
C936 H910 0.950 1_556 S
C936 C932 1.385 1_556 S
C936 C935 1.374 . S
C937 C934 1.499 . S
C937 C938 1.373 . S
C937 C939 1.389 . S
C938 H911 0.950 . S
C938 C924 1.377 . S
C938 C937 1.373 . S
C939 C923 1.377 . S
C939 C937 1.389 . S
C939 C940 1.524 1_556 S
C940 C939 1.524 1_554 S
C940 C941 1.397 . S
C940 C945 1.363 . S
C941 H912 0.950 . S
C941 C940 1.397 . S
C941 C942 1.334 . S
C942 H913 0.950 . S
C942 C941 1.334 . S
C942 C943 1.287 . S
C943 C942 1.287 . S
C943 C944 1.524 . S
C943 H946 0.999 . S
C944 H914 0.950 . S
C944 C943 1.524 . S
C944 C945 1.415 . S
C945 H915 0.950 1_554 S
C945 C940 1.363 . S
C945 C944 1.415 . S
H946 C943 0.999 . S
H947 C928 0.913 . S
C217 C17 1.617 . S
C232 C116 1.617 . S
C267 C149 1.617 . S
C282 C50 1.617 . S
C317 C83 1.617 . S
C332 C182 1.617 . S
C367 N5 1.128 . S
C382 N14 1.124 . S
C417 N38 1.128 . S
C432 N47 1.124 . S
C467 N71 1.128 . S
C482 N80 1.124 . S
C517 N113 1.125 . S
C532 N104 1.129 . S
C567 N137 1.129 . S
C582 N146 1.125 . S
C617 N179 1.125 . S
C632 N170 1.128 . S
C667 C28 1.492 . S
C682 C41 1.488 . S
C717 C61 1.492 . S
C732 C74 1.488 . S
C767 C107 1.488 . S
C782 C94 1.492 . S
C817 C127 1.492 . S
C832 C140 1.488 . S
C867 C173 1.488 . S
C882 C160 1.492 . S
C917 C193 1.492 . S
C932 C8 1.487 . S
