# Generated by pormake.
# Topology nov, (5)-cn, num edge types: 1
# Building blocks:
#     Node 0, Type 0, BuildingBlock: BEQFEK_clean_sbu_0, # of connection points: 5
#     Node 1, Type 0, BuildingBlock: BEQFEK_clean_sbu_0, # of connection points: 5
#     Node 2, Type 0, BuildingBlock: BEQFEK_clean_sbu_0, # of connection points: 5
#     Node 3, Type 0, BuildingBlock: BEQFEK_clean_sbu_0, # of connection points: 5
#     Node 4, Type 0, BuildingBlock: BEQFEK_clean_sbu_0, # of connection points: 5
#     Node 5, Type 0, BuildingBlock: BEQFEK_clean_sbu_0, # of connection points: 5
#     Node 6, Type 0, BuildingBlock: BEQFEK_clean_sbu_0, # of connection points: 5
#     Node 7, Type 0, BuildingBlock: BEQFEK_clean_sbu_0, # of connection points: 5
#     Edge 8, Type (0, 0), BuildingBlock: KIFKEQ_clean_linker_1, # of connection points: 2
#     Edge 9, Type (0, 0), BuildingBlock: KIFKEQ_clean_linker_1, # of connection points: 2
#     Edge 10, Type (0, 0), BuildingBlock: KIFKEQ_clean_linker_1, # of connection points: 2
#     Edge 11, Type (0, 0), BuildingBlock: KIFKEQ_clean_linker_1, # of connection points: 2
#     Edge 12, Type (0, 0), BuildingBlock: KIFKEQ_clean_linker_1, # of connection points: 2
#     Edge 13, Type (0, 0), BuildingBlock: KIFKEQ_clean_linker_1, # of connection points: 2
#     Edge 14, Type (0, 0), BuildingBlock: KIFKEQ_clean_linker_1, # of connection points: 2
#     Edge 15, Type (0, 0), BuildingBlock: KIFKEQ_clean_linker_1, # of connection points: 2
#     Edge 16, Type (0, 0), BuildingBlock: KIFKEQ_clean_linker_1, # of connection points: 2
#     Edge 17, Type (0, 0), BuildingBlock: KIFKEQ_clean_linker_1, # of connection points: 2
#     Edge 18, Type (0, 0), BuildingBlock: KIFKEQ_clean_linker_1, # of connection points: 2
#     Edge 19, Type (0, 0), BuildingBlock: KIFKEQ_clean_linker_1, # of connection points: 2
#     Edge 20, Type (0, 0), BuildingBlock: KIFKEQ_clean_linker_1, # of connection points: 2
#     Edge 21, Type (0, 0), BuildingBlock: KIFKEQ_clean_linker_1, # of connection points: 2
#     Edge 22, Type (0, 0), BuildingBlock: KIFKEQ_clean_linker_1, # of connection points: 2
#     Edge 23, Type (0, 0), BuildingBlock: KIFKEQ_clean_linker_1, # of connection points: 2
#     Edge 24, Type (0, 0), BuildingBlock: KIFKEQ_clean_linker_1, # of connection points: 2
#     Edge 25, Type (0, 0), BuildingBlock: KIFKEQ_clean_linker_1, # of connection points: 2
#     Edge 26, Type (0, 0), BuildingBlock: KIFKEQ_clean_linker_1, # of connection points: 2
#     Edge 27, Type (0, 0), BuildingBlock: KIFKEQ_clean_linker_1, # of connection points: 2
# Relax obj value: 0.074
# Max RMSD: 0.099
# Mean RMSD: 0.099
data_MOF--net-nov--node1-BEQFEK_clean_sbu_0--edge1-KIFKEQ_clean_linker_1
_symmetry_space_group_name_H-M    P1
_symmetry_Int_Tables_number       1
_symmetry_cell_setting            triclinic
loop_
_symmetry_equiv_pos_as_xyz
'x, y, z'
_cell_length_a     38.717799
_cell_length_b     41.856632
_cell_length_c     26.154305
_cell_angle_alpha  90.055934
_cell_angle_beta   89.965877
_cell_angle_gamma 90.002968
loop_
_atom_site_label
_atom_site_type_symbol
_atom_site_fract_x
_atom_site_fract_y
_atom_site_fract_z
_atom_type_partial_charge
Co0 Co 0.97642 0.13652 0.18197 0.0
Co1 Co 0.05764 0.13234 0.17686 0.0
C2 C 0.01546 0.08164 0.13098 0.0
O3 O 0.98799 0.09649 0.14376 0.0
O4 O 0.04522 0.09218 0.14293 0.0
C5 C 0.91196 0.1169 0.22832 0.0
O6 O 0.93179 0.09782 0.25529 0.0
C7 C 0.13179 0.1162 0.19356 0.0
C8 C 0.15418 0.16471 0.18961 0.0
C9 C 0.16244 0.1331 0.1991 0.0
N10 N 0.10652 0.13714 0.18216 0.0
N11 N 0.12033 0.16592 0.17876 0.0
C12 C 0.1259 0.08152 0.20412 0.0
H13 H 0.09799 0.07663 0.20988 0.0
H14 H 0.14076 0.07398 0.23832 0.0
H15 H 0.13519 0.06733 0.17101 0.0
C16 C 0.99401 0.15205 0.29043 0.0
N17 N 1.00252 0.141 0.24356 0.0
N18 N 0.03619 0.13661 0.24169 0.0
C19 C 0.04986 0.14339 0.28776 0.0
C20 C 0.02377 0.15382 0.32 0.0
C21 C 0.95951 0.16593 0.30372 0.0
H22 H 0.94584 0.17383 0.26873 0.0
H23 H 0.94375 0.14749 0.32331 0.0
H24 H 0.96233 0.18655 0.33011 0.0
O25 O 0.98633 0.17308 0.13647 0.0
O26 O 0.04334 0.16827 0.13255 0.0
H27 H 0.10132 0.16159 0.28147 0.0
H28 H 0.09204 0.1428 0.34203 0.0
C29 C 0.08753 0.14155 0.30018 0.0
H30 H 0.09815 0.11872 0.28582 0.0
H31 H 0.1063 0.18668 0.17128 0.0
O32 O 0.92565 0.13548 0.19562 0.0
C33 C 0.01555 0.1824 0.11981 0.0
Co34 Co 0.58632 0.84731 0.68201 0.0
Co35 Co 0.50533 0.85359 0.67534 0.0
C36 C 0.55003 0.90327 0.63096 0.0
O37 O 0.57703 0.88781 0.64385 0.0
O38 O 0.51998 0.8933 0.64239 0.0
C39 C 0.65113 0.86604 0.72772 0.0
O40 O 0.63185 0.88676 0.75245 0.0
C41 C 0.43215 0.87372 0.68971 0.0
C42 C 0.4056 0.82922 0.66672 0.0
C43 C 0.39976 0.8602 0.68297 0.0
N44 N 0.45611 0.85157 0.6779 0.0
N45 N 0.43995 0.8251 0.66422 0.0
C46 C 0.4401 0.90743 0.70458 0.0
H47 H 0.46842 0.91137 0.70641 0.0
H48 H 0.42848 0.91282 0.74237 0.0
H49 H 0.42842 0.92398 0.67633 0.0
C50 C 0.56711 0.8324 0.7901 0.0
N51 N 0.55932 0.84359 0.7431 0.0
N52 N 0.5257 0.84818 0.74039 0.0
C53 C 0.51127 0.84104 0.78578 0.0
C54 C 0.53689 0.8305 0.81871 0.0
C55 C 0.60148 0.81862 0.80427 0.0
H56 H 0.61502 0.80965 0.76977 0.0
H57 H 0.61746 0.83752 0.8223 0.0
H58 H 0.59858 0.79879 0.83208 0.0
O59 O 0.57552 0.81114 0.63577 0.0
O60 O 0.51871 0.81738 0.63098 0.0
H61 H 0.46002 0.82335 0.77415 0.0
H62 H 0.4676 0.83915 0.83761 0.0
C63 C 0.4733 0.84231 0.79636 0.0
H64 H 0.46307 0.86577 0.78421 0.0
H65 H 0.4524 0.80412 0.653 0.0
O66 O 0.63693 0.84666 0.69668 0.0
C67 C 0.54617 0.8026 0.61851 0.0
Co68 Co 0.97472 0.84757 0.82378 0.0
Co69 Co 0.05595 0.85217 0.82668 0.0
C70 C 0.01403 0.90312 0.87238 0.0
O71 O 0.98649 0.888 0.86079 0.0
O72 O 0.0437 0.89265 0.85977 0.0
C73 C 0.90959 0.86689 0.77949 0.0
O74 O 0.92893 0.88654 0.75278 0.0
C75 C 0.1298 0.86814 0.80669 0.0
C76 C 0.15238 0.8198 0.81293 0.0
C77 C 0.16042 0.85115 0.80102 0.0
N78 N 0.10477 0.84745 0.8203 0.0
N79 N 0.11873 0.8188 0.82505 0.0
C80 C 0.1236 0.90253 0.79432 0.0
H81 H 0.09557 0.90722 0.78944 0.0
H82 H 0.13781 0.90932 0.75908 0.0
H83 H 0.1334 0.91752 0.82618 0.0
C84 C 0.9911 0.83105 0.71535 0.0
N85 N 1.00013 0.84264 0.76166 0.0
N86 N 0.03381 0.84705 0.76254 0.0
C87 C 0.04698 0.83966 0.71637 0.0
C88 C 0.02055 0.82884 0.68514 0.0
C89 C 0.95639 0.8172 0.70332 0.0
H90 H 0.9434 0.8091 0.7388 0.0
H91 H 0.94024 0.83578 0.68483 0.0
H92 H 0.95868 0.79676 0.67649 0.0
O93 O 0.98532 0.81146 0.86979 0.0
O94 O 0.04229 0.81673 0.87243 0.0
H95 H 0.09852 0.82163 0.72256 0.0
H96 H 0.08865 0.83898 0.66111 0.0
C97 C 0.08452 0.84119 0.70295 0.0
H98 H 0.09524 0.86436 0.71562 0.0
H99 H 0.10488 0.79822 0.83433 0.0
O100 O 0.92384 0.84808 0.81131 0.0
C101 C 0.01475 0.80254 0.88614 0.0
Co102 Co 0.58805 0.13567 0.32109 0.0
Co103 Co 0.50687 0.13148 0.32748 0.0
C104 C 0.55151 0.08049 0.37125 0.0
O105 O 0.57894 0.09529 0.35856 0.0
O106 O 0.52179 0.09134 0.35996 0.0
C107 C 0.65427 0.11384 0.28528 0.0
O108 O 0.63638 0.08889 0.27017 0.0
C109 C 0.43463 0.11132 0.30582 0.0
C110 C 0.40618 0.14986 0.34543 0.0
C111 C 0.40165 0.12197 0.31785 0.0
N112 N 0.45759 0.13211 0.32561 0.0
N113 N 0.44031 0.15505 0.34912 0.0
C114 C 0.44423 0.08094 0.27928 0.0
H115 H 0.47245 0.0766 0.28209 0.0
H116 H 0.4369 0.08242 0.23838 0.0
H117 H 0.42978 0.06067 0.29636 0.0
C118 C 0.57021 0.14912 0.21252 0.0
N119 N 0.56126 0.13918 0.25971 0.0
N120 N 0.5273 0.13793 0.26263 0.0
C121 C 0.51361 0.14758 0.21787 0.0
C122 C 0.54034 0.15485 0.18443 0.0
C123 C 0.60668 0.15522 0.19609 0.0
H124 H 0.61916 0.17206 0.22315 0.0
H125 H 0.6212 0.13244 0.19701 0.0
H126 H 0.60822 0.16478 0.15666 0.0
O127 O 0.57693 0.17196 0.36778 0.0
O128 O 0.5199 0.16735 0.37198 0.0
H129 H 0.46632 0.16822 0.24506 0.0
H130 H 0.4717 0.1708 0.17688 0.0
C131 C 0.47617 0.15553 0.21083 0.0
H132 H 0.46132 0.1331 0.2061 0.0
H133 H 0.45179 0.17417 0.36819 0.0
O134 O 0.63871 0.13698 0.30689 0.0
C135 C 0.54774 0.18134 0.38468 0.0
Co136 Co 0.47336 0.63744 0.18027 0.0
Co137 Co 0.5548 0.63437 0.17485 0.0
C138 C 0.51163 0.58407 0.12671 0.0
O139 O 0.48365 0.59713 0.14168 0.0
O140 O 0.54092 0.59589 0.13786 0.0
C141 C 0.40844 0.61785 0.225 0.0
O142 O 0.42784 0.5973 0.24981 0.0
C143 C 0.62763 0.61397 0.19176 0.0
C144 C 0.65498 0.65866 0.17223 0.0
C145 C 0.66028 0.62754 0.18818 0.0
N146 N 0.6041 0.63628 0.17892 0.0
N147 N 0.62075 0.66283 0.16704 0.0
C148 C 0.61907 0.58009 0.20494 0.0
H149 H 0.59211 0.57434 0.19408 0.0
H150 H 0.62192 0.57642 0.24669 0.0
H151 H 0.63728 0.56363 0.18538 0.0
C152 C 0.49116 0.65282 0.28865 0.0
N153 N 0.49971 0.64151 0.24194 0.0
N154 N 0.5335 0.63799 0.23977 0.0
C155 C 0.54729 0.64591 0.28527 0.0
C156 C 0.52106 0.65593 0.31766 0.0
C157 C 0.45632 0.66602 0.30188 0.0
H158 H 0.44317 0.6749 0.26705 0.0
H159 H 0.44041 0.6468 0.31914 0.0
H160 H 0.45837 0.6858 0.32998 0.0
O161 O 0.48401 0.67424 0.13482 0.0
O162 O 0.54127 0.67135 0.13289 0.0
H163 H 0.59764 0.66575 0.2737 0.0
H164 H 0.59054 0.65028 0.33746 0.0
C165 C 0.58522 0.64647 0.29624 0.0
H166 H 0.59671 0.62337 0.28487 0.0
H167 H 0.60871 0.68394 0.1556 0.0
O168 O 0.42258 0.63738 0.19417 0.0
C169 C 0.51318 0.68474 0.11962 0.0
Co170 Co 0.08529 0.34679 0.68248 0.0
Co171 Co 1.0038 0.34938 0.67664 0.0
C172 C 0.04716 0.39965 0.62815 0.0
O173 O 0.07526 0.38683 0.64316 0.0
O174 O 0.01795 0.38769 0.63945 0.0
C175 C 0.15076 0.37034 0.71791 0.0
O176 O 0.13238 0.3959 0.72845 0.0
C177 C 0.931 0.36997 0.69316 0.0
C178 C 0.90359 0.32535 0.67326 0.0
C179 C 0.89831 0.3565 0.68923 0.0
N180 N 0.95451 0.34757 0.68048 0.0
N181 N 0.93783 0.32107 0.6684 0.0
C182 C 0.93966 0.40379 0.70658 0.0
H183 H 0.96612 0.4099 0.69366 0.0
H184 H 0.93845 0.40695 0.74863 0.0
H185 H 0.92061 0.42032 0.68912 0.0
C186 C 0.06769 0.33342 0.79097 0.0
N187 N 0.05876 0.34363 0.74389 0.0
N188 N 0.02489 0.34618 0.74156 0.0
C189 C 0.0113 0.3383 0.7872 0.0
C190 C 0.03784 0.32958 0.81997 0.0
C191 C 0.10328 0.32233 0.80461 0.0
H192 H 0.11463 0.30887 0.77214 0.0
H193 H 0.1198 0.34348 0.81204 0.0
H194 H 0.10325 0.30694 0.83911 0.0
O195 O 0.07471 0.30956 0.63758 0.0
O196 O 0.01745 0.31225 0.63523 0.0
H197 H 0.96193 0.31665 0.7747 0.0
H198 H 0.968 0.33192 0.83889 0.0
C199 C 0.97337 0.33621 0.7978 0.0
H200 H 0.96089 0.35891 0.78674 0.0
H201 H 0.94986 0.29992 0.65701 0.0
O202 O 0.1358 0.34623 0.69823 0.0
C203 C 0.04563 0.29886 0.62232 0.0
Co204 Co 0.47395 0.34706 0.82187 0.0
Co205 Co 0.55537 0.3514 0.82668 0.0
C206 C 0.51151 0.40165 0.8736 0.0
O207 O 0.48363 0.38777 0.86007 0.0
O208 O 0.54093 0.39032 0.8618 0.0
C209 C 0.40812 0.37047 0.78845 0.0
O210 O 0.42614 0.39655 0.78007 0.0
C211 C 0.62807 0.37192 0.80872 0.0
C212 C 0.65568 0.32786 0.83092 0.0
C213 C 0.66081 0.35864 0.81324 0.0
N214 N 0.60467 0.34976 0.82275 0.0
N215 N 0.62147 0.3236 0.8362 0.0
C216 C 0.61929 0.4054 0.79349 0.0
H217 H 0.59243 0.41138 0.80469 0.0
H218 H 0.62162 0.40793 0.75144 0.0
H219 H 0.63767 0.42241 0.81139 0.0
C220 C 0.4915 0.33245 0.71356 0.0
N221 N 0.50038 0.3434 0.76028 0.0
N222 N 0.5342 0.34655 0.76222 0.0
C223 C 0.5478 0.3382 0.71679 0.0
C224 C 0.52134 0.32865 0.6845 0.0
C225 C 0.45599 0.32096 0.70033 0.0
H226 H 0.44529 0.3069 0.7326 0.0
H227 H 0.43896 0.34192 0.69426 0.0
H228 H 0.45594 0.30608 0.66521 0.0
O229 O 0.48502 0.31046 0.86803 0.0
O230 O 0.5421 0.31519 0.87006 0.0
H231 H 0.59759 0.31758 0.72997 0.0
H232 H 0.59106 0.3314 0.66511 0.0
C233 C 0.58573 0.33647 0.70599 0.0
H234 H 0.59781 0.35959 0.71579 0.0
H235 H 0.60955 0.30268 0.84876 0.0
O236 O 0.42344 0.34596 0.80611 0.0
C237 C 0.51451 0.3011 0.88375 0.0
Co238 Co 0.08486 0.63561 0.32345 0.0
Co239 Co 1.00337 0.63217 0.32717 0.0
C240 C 0.04617 0.58159 0.3748 0.0
O241 O 0.0742 0.59505 0.36094 0.0
O242 O 0.01689 0.59328 0.36325 0.0
C243 C 0.15011 0.6165 0.27917 0.0
O244 O 0.1309 0.59618 0.25351 0.0
C245 C 0.93035 0.61243 0.30914 0.0
C246 C 0.90353 0.65746 0.32849 0.0
C247 C 0.89787 0.62639 0.31246 0.0
N248 N 0.95413 0.63448 0.32226 0.0
N249 N 0.93778 0.66123 0.33398 0.0
C250 C 0.93849 0.57846 0.29594 0.0
H251 H 0.96521 0.5723 0.3075 0.0
H252 H 0.93613 0.57494 0.25408 0.0
H253 H 0.91976 0.56222 0.31484 0.0
C254 C 0.06798 0.65167 0.21511 0.0
N255 N 0.05905 0.64004 0.26141 0.0
N256 N 0.02526 0.63632 0.26282 0.0
C257 C 0.01187 0.64442 0.21717 0.0
C258 C 0.03834 0.65476 0.18554 0.0
C259 C 0.10283 0.66519 0.20287 0.0
H260 H 0.11567 0.67377 0.23817 0.0
H261 H 0.11899 0.64625 0.18527 0.0
H262 H 0.10087 0.68525 0.17533 0.0
O263 O 0.0738 0.67211 0.36934 0.0
O264 O 0.01658 0.66874 0.37036 0.0
H265 H 0.96134 0.66409 0.22766 0.0
H266 H 0.96913 0.64857 0.16408 0.0
C267 C 0.97404 0.64482 0.20542 0.0
H268 H 0.96254 0.62169 0.21659 0.0
H269 H 0.95006 0.68222 0.34556 0.0
O270 O 0.13575 0.63568 0.3104 0.0
C271 C 0.04444 0.68227 0.38433 0.0
H272 H 0.95901 0.92272 0.92997 0.0
H273 H 0.06442 0.94712 0.89204 0.0
H274 H 0.95823 0.96459 0.99457 0.0
H275 H 0.06322 0.9898 0.95523 0.0
H276 H 0.06586 0.03808 0.10892 0.0
H277 H 0.06393 -0.00442 0.04546 0.0
H278 H 0.95822 0.02039 0.01001 0.0
H279 H 0.95976 0.06207 0.0749 0.0
C280 C 0.98179 0.93746 0.93466 0.0
C281 C 0.01186 0.93146 0.90606 0.0
C282 C 0.98133 0.96152 0.97175 0.0
C283 C 0.01082 0.98034 0.98069 0.0
C284 C 0.04035 0.97522 0.95039 0.0
C285 C 0.04093 0.95096 0.91372 0.0
C286 C 0.04207 0.0342 0.08801 0.0
C287 C 0.013 0.05351 0.09689 0.0
C288 C 0.04106 0.01005 0.05119 0.0
C289 C 0.01109 0.00485 0.02193 0.0
C290 C 0.98166 0.02352 0.03202 0.0
C291 C 0.98255 0.04747 0.06926 0.0
H292 H 0.60736 0.0602 0.42634 0.0
H293 H 0.5009 0.03717 0.39303 0.0
H294 H 0.60861 0.01858 0.4913 0.0
H295 H 0.50252 -0.0052 0.45656 0.0
H296 H 0.50108 0.94841 0.61107 0.0
H297 H 0.50331 0.99049 0.54715 0.0
H298 H 0.60753 0.96261 0.50788 0.0
H299 H 0.60571 0.92122 0.57328 0.0
C300 C 0.58444 0.0458 0.43212 0.0
C301 C 0.55394 0.05216 0.4048 0.0
C302 C 0.58516 0.02191 0.4694 0.0
C303 C 0.5555 0.00365 0.47982 0.0
C304 C 0.52555 0.009 0.4506 0.0
C305 C 0.52472 0.03308 0.41375 0.0
C306 C 0.52464 0.95153 0.58926 0.0
C307 C 0.55317 0.9314 0.59711 0.0
C308 C 0.5258 0.97544 0.55217 0.0
C309 C 0.55537 0.97957 0.5216 0.0
C310 C 0.5844 0.96023 0.53084 0.0
C311 C 0.58337 0.93648 0.56839 0.0
H312 H 0.45789 0.54255 0.10816 0.0
H313 H 0.56259 0.56446 0.06296 0.0
H314 H 0.45664 0.49872 0.04611 0.0
H315 H 0.56076 0.52248 0.99967 0.0
H316 H 0.5641 0.42514 0.93077 0.0
H317 H 0.56251 0.46762 0.99307 0.0
H318 H 0.45502 0.48493 0.95766 0.0
H319 H 0.4562 0.44059 0.89653 0.0
C320 C 0.48056 0.53803 0.08498 0.0
C321 C 0.51049 0.55665 0.09103 0.0
C322 C 0.47976 0.51316 0.04904 0.0
C323 C 0.50869 0.5068 0.01795 0.0
C324 C 0.5383 0.52592 0.02373 0.0
C325 C 0.53932 0.55019 0.06009 0.0
C326 C 0.5401 0.43808 0.93579 0.0
C327 C 0.51032 0.42958 0.9083 0.0
C328 C 0.53922 0.46268 0.97157 0.0
C329 C 0.50873 0.48009 0.98026 0.0
C330 C 0.47887 0.47182 0.95245 0.0
C331 C 0.4796 0.44665 0.91704 0.0
H332 H 0.99532 0.41996 0.56659 0.0
H333 H 0.10106 0.44065 0.60779 0.0
H334 H 0.99661 0.462 0.50353 0.0
H335 H 0.10182 0.48449 0.54592 0.0
H336 H 0.10092 0.54181 0.396 0.0
H337 H 0.10221 0.49775 0.45739 0.0
H338 H 0.99565 0.51693 0.49653 0.0
H339 H 0.99389 0.55922 0.43388 0.0
C340 C 0.01873 0.43395 0.56288 0.0
C341 C 0.04802 0.4271 0.59259 0.0
C342 C 0.01944 0.45827 0.52667 0.0
C343 C 0.0492 0.47701 0.51977 0.0
C344 C 0.07857 0.47032 0.54971 0.0
C345 C 0.07806 0.44543 0.58553 0.0
C346 C 0.07772 0.53623 0.41738 0.0
C347 C 0.04721 0.55376 0.4096 0.0
C348 C 0.07854 0.51122 0.45296 0.0
C349 C 0.04899 0.50358 0.48192 0.0
C350 C 0.01868 0.52143 0.47416 0.0
C351 C 0.0177 0.54588 0.43818 0.0
H352 H 0.34689 0.11395 0.38022 0.0
H353 H 0.37926 0.10268 0.22337 0.0
H354 H 0.28684 0.10693 0.3546 0.0
H355 H 0.31892 0.09604 0.19741 0.0
H356 H 0.20142 0.08063 0.17228 0.0
H357 H 0.25956 0.06718 0.20408 0.0
H358 H 0.25578 0.14891 0.30494 0.0
H359 H 0.19863 0.16212 0.27343 0.0
C360 C 0.34117 0.10894 0.34046 0.0
C361 C 0.36759 0.10893 0.30374 0.0
C362 C 0.30684 0.10501 0.32577 0.0
C363 C 0.2982 0.10149 0.27392 0.0
C364 C 0.32487 0.0985 0.23769 0.0
C365 C 0.35942 0.10222 0.25253 0.0
C366 C 0.21297 0.09522 0.2019 0.0
C367 C 0.19572 0.12239 0.22048 0.0
C368 C 0.24616 0.08766 0.21984 0.0
C369 C 0.26203 0.10682 0.25731 0.0
C370 C 0.24405 0.13332 0.27676 0.0
C371 C 0.21144 0.1411 0.25837 0.0
H372 H 0.3761 0.88629 0.77206 0.0
H373 H 0.34547 0.86151 0.61857 0.0
H374 H 0.3154 0.89305 0.79593 0.0
H375 H 0.28497 0.86896 0.64177 0.0
H376 H 0.19701 0.819 0.73038 0.0
H377 H 0.25373 0.83139 0.69674 0.0
H378 H 0.25605 0.91837 0.78582 0.0
H379 H 0.19849 0.90556 0.82021 0.0
C380 C 0.35646 0.88385 0.74286 0.0
C381 C 0.36526 0.8734 0.69353 0.0
C382 C 0.3217 0.88763 0.75651 0.0
C383 C 0.29542 0.88099 0.72092 0.0
C384 C 0.30464 0.87368 0.67024 0.0
C385 C 0.33921 0.86958 0.65685 0.0
C386 C 0.20939 0.84097 0.74242 0.0
C387 C 0.19341 0.86131 0.77788 0.0
C388 C 0.24179 0.84829 0.72268 0.0
C389 C 0.25928 0.87605 0.7382 0.0
C390 C 0.24308 0.89687 0.77306 0.0
C391 C 0.21017 0.88967 0.79247 0.0
H392 H 0.87312 0.8878 0.69667 0.0
H393 H 0.86041 0.84439 0.84526 0.0
H394 H 0.81046 0.88668 0.68425 0.0
H395 H 0.79771 0.8439 0.8331 0.0
H396 H 0.68731 0.88918 0.80939 0.0
H397 H 0.74995 0.8886 0.82218 0.0
H398 H 0.76315 0.84133 0.67681 0.0
H399 H 0.70049 0.84128 0.66432 0.0
C400 C 0.85696 0.87813 0.72672 0.0
C401 C 0.87168 0.8662 0.77195 0.0
C402 C 0.82115 0.87736 0.71948 0.0
C403 C 0.79932 0.86523 0.75775 0.0
C404 C 0.81398 0.85352 0.80313 0.0
C405 C 0.84983 0.85368 0.80994 0.0
C406 C 0.70357 0.8786 0.78022 0.0
C407 C 0.68898 0.86529 0.73584 0.0
C408 C 0.73936 0.87815 0.78768 0.0
C409 C 0.76132 0.86498 0.75043 0.0
C410 C 0.74678 0.85179 0.70596 0.0
C411 C 0.71095 0.85164 0.69898 0.0
H412 H 0.70244 0.14761 0.33915 0.0
H413 H 0.69121 0.08312 0.21122 0.0
H414 H 0.76512 0.14858 0.32559 0.0
H415 H 0.75374 0.08494 0.1969 0.0
H416 H 0.86173 0.1344 0.16066 0.0
H417 H 0.79905 0.13393 0.17405 0.0
H418 H 0.81421 0.10059 0.32841 0.0
H419 H 0.87686 0.10012 0.31473 0.0
C420 C 0.71333 0.13386 0.30795 0.0
C421 C 0.69198 0.11523 0.27631 0.0
C422 C 0.74913 0.13434 0.30038 0.0
C423 C 0.76409 0.11685 0.26023 0.0
C424 C 0.74273 0.0987 0.228 0.0
C425 C 0.70704 0.09758 0.23634 0.0
C426 C 0.85167 0.12697 0.19744 0.0
C427 C 0.87415 0.11721 0.23662 0.0
C428 C 0.81588 0.12661 0.20497 0.0
C429 C 0.80197 0.11726 0.25224 0.0
C430 C 0.8244 0.108 0.2917 0.0
C431 C 0.86015 0.10761 0.28377 0.0
H432 H 0.83798 0.63319 0.36449 0.0
H433 H 0.8806 0.59261 0.22648 0.0
H434 H 0.77978 0.62255 0.33331 0.0
H435 H 0.82225 0.58164 0.19526 0.0
H436 H 0.72022 0.63332 0.13592 0.0
H437 H 0.7783 0.6221 0.1671 0.0
H438 H 0.73534 0.58247 0.30565 0.0
H439 H 0.67715 0.59404 0.27445 0.0
C440 C 0.83485 0.62106 0.32816 0.0
C441 C 0.86374 0.6135 0.29809 0.0
C442 C 0.80154 0.61478 0.31041 0.0
C443 C 0.79644 0.60128 0.26178 0.0
C444 C 0.82544 0.59207 0.23288 0.0
C445 C 0.85885 0.59802 0.25099 0.0
C446 C 0.72321 0.62134 0.17236 0.0
C447 C 0.69424 0.6143 0.20257 0.0
C448 C 0.75644 0.61473 0.19011 0.0
C449 C 0.76138 0.60143 0.23888 0.0
C450 C 0.73227 0.59273 0.26792 0.0
C451 C 0.69895 0.59902 0.24982 0.0
H452 H 0.83839 0.34941 0.6374 0.0
H453 H 0.88122 0.39181 0.7738 0.0
H454 H 0.78028 0.36108 0.668 0.0
H455 H 0.82297 0.40388 0.80435 0.0
H456 H 0.72062 0.35395 0.86593 0.0
H457 H 0.77873 0.36448 0.83431 0.0
H458 H 0.73604 0.40162 0.69389 0.0
H459 H 0.67778 0.39072 0.72556 0.0
C460 C 0.83535 0.36214 0.67322 0.0
C461 C 0.86428 0.36988 0.70306 0.0
C462 C 0.80208 0.36903 0.69061 0.0
C463 C 0.79705 0.38336 0.73865 0.0
C464 C 0.8261 0.39279 0.7672 0.0
C465 C 0.85947 0.38619 0.74946 0.0
C466 C 0.72367 0.36526 0.82895 0.0
C467 C 0.69475 0.37173 0.79836 0.0
C468 C 0.75693 0.37148 0.81093 0.0
C469 C 0.76196 0.38383 0.76155 0.0
C470 C 0.73291 0.39207 0.73209 0.0
C471 C 0.69954 0.38616 0.75044 0.0
H472 H 0.36292 0.32057 0.80086 0.0
H473 H 0.36797 0.41892 0.75147 0.0
H474 H 0.30083 0.32015 0.78464 0.0
H475 H 0.30618 0.41829 0.7343 0.0
H476 H 0.18997 0.41735 0.76156 0.0
H477 H 0.25173 0.41674 0.77902 0.0
H478 H 0.25888 0.32158 0.71579 0.0
H479 H 0.19684 0.32192 0.69929 0.0
C480 C 0.35084 0.34206 0.78634 0.0
C481 C 0.37047 0.36981 0.77765 0.0
C482 C 0.31525 0.34176 0.77675 0.0
C483 C 0.2984 0.36922 0.75828 0.0
C484 C 0.31814 0.39687 0.74928 0.0
C485 C 0.35368 0.39716 0.75883 0.0
C486 C 0.20466 0.39625 0.75141 0.0
C487 C 0.18839 0.36971 0.72889 0.0
C488 C 0.24018 0.39598 0.76116 0.0
C489 C 0.26042 0.36917 0.74861 0.0
C490 C 0.24408 0.3425 0.72646 0.0
C491 C 0.20851 0.34277 0.71672 0.0
H492 H 0.18635 0.59503 0.19639 0.0
H493 H 0.19942 0.64005 0.34378 0.0
H494 H 0.24896 0.59631 0.18325 0.0
H495 H 0.2621 0.64066 0.33095 0.0
H496 H 0.37249 0.59502 0.30709 0.0
H497 H 0.30988 0.59561 0.32039 0.0
H498 H 0.2962 0.64197 0.17454 0.0
H499 H 0.35885 0.64204 0.16156 0.0
C500 C 0.20259 0.60509 0.22602 0.0
C501 C 0.18798 0.61742 0.27113 0.0
C502 C 0.23836 0.60596 0.21837 0.0
C503 C 0.26029 0.61855 0.25612 0.0
C504 C 0.24574 0.63068 0.30137 0.0
C505 C 0.20991 0.63045 0.30857 0.0
C506 C 0.35613 0.60539 0.27791 0.0
C507 C 0.37058 0.61846 0.23326 0.0
C508 C 0.32036 0.60585 0.28566 0.0
C509 C 0.29827 0.61879 0.24845 0.0
C510 C 0.31267 0.63171 0.20369 0.0
C511 C 0.34849 0.63186 0.19641 0.0
H512 H 0.06837 0.34056 0.91259 0.0
H513 H 0.99969 0.27609 0.83361 0.0
H514 H 0.0617 0.30881 0.99108 0.0
H515 H 0.99253 0.24492 0.91139 0.0
H516 H 0.96251 0.2109 0.06773 0.0
H517 H 0.96713 0.25026 0.9992 0.0
H518 H 0.07781 0.25297 0.01897 0.0
H519 H 0.07334 0.21389 0.08759 0.0
C520 C 0.05173 0.31976 0.91227 0.0
C521 C 0.03409 0.31098 0.8676 0.0
C522 C 0.04788 0.30167 0.95694 0.0
C523 C 0.02616 0.27471 0.95746 0.0
C524 C 1.00872 0.26602 0.91252 0.0
C525 C 0.01286 0.28382 0.868 0.0
C526 C 0.98777 0.22024 0.05801 0.0
C527 C 0.01758 0.20895 0.08266 0.0
C528 C 0.99041 0.24266 0.01866 0.0
C529 C 0.02287 0.25442 0.00353 0.0
C530 C 0.05246 0.24446 0.03002 0.0
C531 C 0.04987 0.22188 0.06907 0.0
H532 H 0.4876 0.77332 0.58417 0.0
H533 H 0.59873 0.77221 0.56772 0.0
H534 H 0.48243 0.73452 0.5153 0.0
H535 H 0.59341 0.73302 0.49892 0.0
H536 H 0.56261 0.70721 0.33267 0.0
H537 H 0.57032 0.73823 0.41054 0.0
H538 H 0.49553 0.67868 0.48764 0.0
H539 H 0.48819 0.64715 0.40904 0.0
C540 C 0.51099 0.76449 0.56635 0.0
C541 C 0.5436 0.7762 0.58103 0.0
C542 C 0.50798 0.74205 0.52711 0.0
C543 C 0.53748 0.73095 0.50149 0.0
C544 C 0.57019 0.74151 0.51765 0.0
C545 C 0.57324 0.76384 0.55717 0.0
C546 C 0.54834 0.70034 0.36655 0.0
C547 C 0.52533 0.67445 0.36537 0.0
C548 C 0.55277 0.71808 0.41114 0.0
C549 C 0.53391 0.7106 0.45539 0.0
C550 C 0.51047 0.68491 0.45407 0.0
C551 C 0.50624 0.66693 0.40932 0.0
H552 H 0.07335 0.77361 0.92116 0.0
H553 H 0.96213 0.77207 0.93647 0.0
H554 H 0.07833 0.73472 0.98985 0.0
H555 H 0.96727 0.73276 0.00493 0.0
H556 H 0.9967 0.70595 0.1708 0.0
H557 H 0.98963 0.73753 0.09349 0.0
H558 H 0.06538 0.67879 0.01664 0.0
H559 H 0.07212 0.64674 0.09471 0.0
C560 C 0.04991 0.76468 0.93871 0.0
C561 C 0.01732 0.77628 0.92377 0.0
C562 C 0.05281 0.74219 0.97782 0.0
C563 C 0.02322 0.73091 0.00299 0.0
C564 C 0.99055 0.74141 0.9866 0.0
C565 C 0.98761 0.7638 0.94727 0.0
C566 C 0.01133 0.69939 0.13708 0.0
C567 C 0.03443 0.67357 0.13816 0.0
C568 C 1.00726 0.71745 0.09281 0.0
C569 C 0.02657 0.71035 0.0488 0.0
C570 C 0.05011 0.68474 0.05004 0.0
C571 C 0.05399 0.66645 0.09447 0.0
H572 H 0.55925 0.27487 0.6727 0.0
H573 H 0.49208 0.33921 0.59094 0.0
H574 H 0.56777 0.24349 0.59527 0.0
H575 H 0.50035 0.30749 0.5127 0.0
H576 H 0.49025 0.2143 0.41365 0.0
H577 H 0.48485 0.25292 0.48266 0.0
H578 H 0.59477 0.24748 0.50933 0.0
H579 H 0.60023 0.20831 0.44039 0.0
C580 C 0.54663 0.28245 0.6378 0.0
C581 C 0.52541 0.30962 0.63732 0.0
C582 C 0.55162 0.26459 0.59345 0.0
C583 C 0.53515 0.2733 0.54774 0.0
C584 C 0.51342 0.30027 0.54742 0.0
C585 C 0.50863 0.31835 0.59195 0.0
C586 C 0.51338 0.22153 0.43382 0.0
C587 C 0.54563 0.20786 0.422 0.0
C588 C 0.51027 0.24389 0.47311 0.0
C589 C 0.53931 0.253 0.50166 0.0
C590 C 0.57185 0.24054 0.48832 0.0
C591 C 0.57502 0.21826 0.4487 0.0
H592 H 0.49319 0.78105 0.83571 0.0
H593 H 0.56992 0.83977 0.9097 0.0
H594 H 0.48534 0.75069 0.91412 0.0
H595 H 0.56217 0.80923 0.98898 0.0
H596 H 0.57084 0.71574 0.08589 0.0
H597 H 0.57494 0.75475 0.01751 0.0
H598 H 0.46386 0.75428 0.00208 0.0
H599 H 0.45966 0.71458 0.07016 0.0
C600 C 0.50787 0.78783 0.86925 0.0
C601 C 0.53177 0.813 0.86712 0.0
C602 C 0.50333 0.77051 0.9142 0.0
C603 C 0.52284 0.77778 0.95795 0.0
C604 C 0.5468 0.80305 0.95583 0.0
C605 C 0.55125 0.8205 0.91068 0.0
C606 C 0.54718 0.72418 0.06842 0.0
C607 C 0.51491 0.71165 0.08302 0.0
C608 C 0.54957 0.74678 0.02943 0.0
C609 C 0.51976 0.75738 0.00408 0.0
C610 C 0.48733 0.74615 0.02044 0.0
C611 C 0.48492 0.72354 0.0596 0.0
H612 H 0.0994 0.26864 0.57382 0.0
H613 H 0.98811 0.26795 0.58793 0.0
H614 H 0.0955 0.22896 0.50556 0.0
H615 H 0.9843 0.22906 0.51931 0.0
H616 H 0.9893 0.14474 0.40998 0.0
H617 H 0.99656 0.17487 0.48984 0.0
H618 H 0.07502 0.23281 0.41754 0.0
H619 H 0.06769 0.20284 0.33864 0.0
C620 C 0.07418 0.25978 0.56288 0.0
C621 C 0.04408 0.27182 0.58587 0.0
C622 C 0.07193 0.23718 0.5236 0.0
C623 C 0.03955 0.22616 0.50665 0.0
C624 C 1.00963 0.23686 0.53166 0.0
C625 C 0.01186 0.25941 0.5708 0.0
C626 C 1.00819 0.1638 0.41164 0.0
C627 C 0.0283 0.17122 0.36868 0.0
C628 C 0.01238 0.18102 0.45714 0.0
C629 C 0.03668 0.20598 0.46018 0.0
C630 C 0.05676 0.2132 0.41697 0.0
C631 C 0.05251 0.1961 0.37171 0.0
H632 H 0.46237 0.26686 0.93025 0.0
H633 H 0.5736 0.27567 0.92255 0.0
H634 H 0.46859 0.228 0.99983 0.0
H635 H 0.57944 0.23733 0.99141 0.0
H636 H 0.56911 0.21229 0.16278 0.0
H637 H 0.56234 0.24402 0.08533 0.0
H638 H 0.49544 0.17165 0.0217 0.0
H639 H 0.50307 0.13929 0.0994 0.0
C640 C 0.48805 0.26024 0.94277 0.0
C641 C 0.51743 0.27475 0.92127 0.0
C642 C 0.49158 0.23795 0.9824 0.0
C643 C 0.52448 0.23007 1.00124 0.0
C644 C 0.55377 0.24338 0.97805 0.0
C645 C 0.55032 0.26534 0.93849 0.0
C646 C 0.55364 0.20282 0.13176 0.0
C647 C 0.53728 0.17308 0.13632 0.0
C648 C 0.54959 0.22102 0.08763 0.0
C649 C 0.5286 0.21011 0.04746 0.0
C650 C 0.51176 0.18053 0.05219 0.0
C651 C 0.51623 0.16205 0.09629 0.0
H652 H 0.98617 0.71203 0.41875 0.0
H653 H 0.09739 0.71295 0.43387 0.0
H654 H 0.98138 0.7509 0.48737 0.0
H655 H 0.09249 0.7525 0.50215 0.0
H656 H 0.06382 0.77914 0.66825 0.0
H657 H 0.07126 0.74836 0.59015 0.0
H658 H 0.99317 0.80573 0.51603 0.0
H659 H 0.98585 0.83676 0.59508 0.0
C660 C 1.00968 0.72088 0.43615 0.0
C661 C 0.04218 0.70898 0.4213 0.0
C662 C 1.00689 0.7434 0.47527 0.0
C663 C 0.03652 0.75454 0.50049 0.0
C664 C 0.06915 0.74394 0.4839 0.0
C665 C 0.07197 0.7214 0.44464 0.0
C666 C 0.0487 0.78554 0.63497 0.0
C667 C 0.02467 0.81059 0.63718 0.0
C668 C 0.05302 0.76798 0.59019 0.0
C669 C 0.03316 0.77488 0.54668 0.0
C670 C 1.00885 0.79987 0.549 0.0
C671 C 1.00462 0.81758 0.59401 0.0
loop_
_geom_bond_atom_site_label_1
_geom_bond_atom_site_label_2
_geom_bond_distance
_geom_bond_site_symmetry_2
_ccdc_geom_bond_type
Co0 O3 1.970 . S
Co0 N17 1.989 . S
Co0 O25 1.967 . S
Co0 O32 1.920 . S
Co1 O4 1.966 . S
Co1 N10 2.022 . S
Co1 N18 1.993 . S
Co1 O26 1.941 . S
C2 O3 1.258 1_455 S
C2 O4 1.263 . S
O3 Co0 1.970 . S
O3 C2 1.258 1_655 S
O4 Co1 1.966 . S
O4 C2 1.263 . S
C5 O6 1.235 . S
C5 O32 1.289 . S
O6 C5 1.235 . S
C7 C9 1.400 . S
C7 N10 1.351 . S
C7 C12 1.501 . S
C8 C9 1.387 . S
C8 N11 1.341 . S
C9 C7 1.400 . S
C9 C8 1.387 . S
N10 Co1 2.022 . S
N10 C7 1.351 . S
N10 N11 1.365 . S
N11 C8 1.341 . S
N11 N10 1.365 . S
N11 H31 0.862 . S
C12 C7 1.501 . S
C12 H13 0.961 . S
C12 H14 0.961 . S
C12 H15 0.960 . S
H13 C12 0.961 . S
H14 C12 0.961 . S
H15 C12 0.960 . S
C16 N17 1.342 . S
C16 C20 1.401 1_655 S
C16 C21 1.499 . S
N17 Co0 1.989 . S
N17 C16 1.342 . S
N17 N18 1.388 1_655 S
N18 Co1 1.993 . S
N18 N17 1.388 1_455 S
N18 C19 1.346 . S
C19 N18 1.346 . S
C19 C20 1.396 . S
C19 C29 1.510 . S
C20 C16 1.401 1_455 S
C20 C19 1.396 . S
C21 C16 1.499 . S
C21 H22 0.959 . S
C21 H23 0.960 . S
C21 H24 0.961 . S
H22 C21 0.959 . S
H23 C21 0.960 . S
H24 C21 0.961 . S
O25 Co0 1.967 . S
O25 C33 1.258 1_655 S
O26 Co1 1.941 . S
O26 C33 1.266 . S
H27 C29 0.959 . S
H28 C29 0.961 . S
C29 C19 1.510 . S
C29 H27 0.959 . S
C29 H28 0.961 . S
C29 H30 0.960 . S
H30 C29 0.960 . S
H31 N11 0.862 . S
O32 Co0 1.920 . S
O32 C5 1.289 . S
C33 O25 1.258 1_455 S
C33 O26 1.266 . S
Co34 O37 1.970 . S
Co34 N51 1.989 . S
Co34 O59 1.967 . S
Co34 O66 1.920 . S
Co35 O38 1.966 . S
Co35 N44 2.022 . S
Co35 N52 1.993 . S
Co35 O60 1.941 . S
C36 O37 1.258 . S
C36 O38 1.263 . S
O37 Co34 1.970 . S
O37 C36 1.258 . S
O38 Co35 1.966 . S
O38 C36 1.263 . S
C39 O40 1.235 . S
C39 O66 1.289 . S
O40 C39 1.235 . S
C41 C43 1.400 . S
C41 N44 1.351 . S
C41 C46 1.501 . S
C42 C43 1.387 . S
C42 N45 1.341 . S
C43 C41 1.400 . S
C43 C42 1.387 . S
N44 Co35 2.022 . S
N44 C41 1.351 . S
N44 N45 1.365 . S
N45 C42 1.341 . S
N45 N44 1.365 . S
N45 H65 0.862 . S
C46 C41 1.501 . S
C46 H47 0.961 . S
C46 H48 0.961 . S
C46 H49 0.960 . S
H47 C46 0.961 . S
H48 C46 0.961 . S
H49 C46 0.960 . S
C50 N51 1.342 . S
C50 C54 1.401 . S
C50 C55 1.499 . S
N51 Co34 1.989 . S
N51 C50 1.342 . S
N51 N52 1.388 . S
N52 Co35 1.993 . S
N52 N51 1.388 . S
N52 C53 1.346 . S
C53 N52 1.346 . S
C53 C54 1.396 . S
C53 C63 1.510 . S
C54 C50 1.401 . S
C54 C53 1.396 . S
C55 C50 1.499 . S
C55 H56 0.959 . S
C55 H57 0.960 . S
C55 H58 0.961 . S
H56 C55 0.959 . S
H57 C55 0.960 . S
H58 C55 0.961 . S
O59 Co34 1.967 . S
O59 C67 1.258 . S
O60 Co35 1.941 . S
O60 C67 1.266 . S
H61 C63 0.959 . S
H62 C63 0.961 . S
C63 C53 1.510 . S
C63 H61 0.959 . S
C63 H62 0.961 . S
C63 H64 0.960 . S
H64 C63 0.960 . S
H65 N45 0.862 . S
O66 Co34 1.920 . S
O66 C39 1.289 . S
C67 O59 1.258 . S
C67 O60 1.266 . S
Co68 O71 1.970 . S
Co68 N85 1.989 . S
Co68 O93 1.967 . S
Co68 O100 1.920 . S
Co69 O72 1.966 . S
Co69 N78 2.022 . S
Co69 N86 1.993 . S
Co69 O94 1.941 . S
C70 O71 1.258 1_455 S
C70 O72 1.263 . S
O71 Co68 1.970 . S
O71 C70 1.258 1_655 S
O72 Co69 1.966 . S
O72 C70 1.263 . S
C73 O74 1.235 . S
C73 O100 1.289 . S
O74 C73 1.235 . S
C75 C77 1.400 . S
C75 N78 1.351 . S
C75 C80 1.501 . S
C76 C77 1.387 . S
C76 N79 1.341 . S
C77 C75 1.400 . S
C77 C76 1.387 . S
N78 Co69 2.022 . S
N78 C75 1.351 . S
N78 N79 1.365 . S
N79 C76 1.341 . S
N79 N78 1.365 . S
N79 H99 0.862 . S
C80 C75 1.501 . S
C80 H81 0.961 . S
C80 H82 0.961 . S
C80 H83 0.960 . S
H81 C80 0.961 . S
H82 C80 0.961 . S
H83 C80 0.960 . S
C84 N85 1.342 . S
C84 C88 1.401 1_655 S
C84 C89 1.499 . S
N85 Co68 1.989 . S
N85 C84 1.342 . S
N85 N86 1.388 1_655 S
N86 Co69 1.993 . S
N86 N85 1.388 1_455 S
N86 C87 1.346 . S
C87 N86 1.346 . S
C87 C88 1.396 . S
C87 C97 1.510 . S
C88 C84 1.401 1_455 S
C88 C87 1.396 . S
C89 C84 1.499 . S
C89 H90 0.959 . S
C89 H91 0.960 . S
C89 H92 0.961 . S
H90 C89 0.959 . S
H91 C89 0.960 . S
H92 C89 0.961 . S
O93 Co68 1.967 . S
O93 C101 1.258 1_655 S
O94 Co69 1.941 . S
O94 C101 1.266 . S
H95 C97 0.959 . S
H96 C97 0.961 . S
C97 C87 1.510 . S
C97 H95 0.959 . S
C97 H96 0.961 . S
C97 H98 0.960 . S
H98 C97 0.960 . S
H99 N79 0.862 . S
O100 Co68 1.920 . S
O100 C73 1.289 . S
C101 O93 1.258 1_455 S
C101 O94 1.266 . S
Co102 O105 1.970 . S
Co102 N119 1.989 . S
Co102 O127 1.967 . S
Co102 O134 1.920 . S
Co103 O106 1.966 . S
Co103 N112 2.022 . S
Co103 N120 1.993 . S
Co103 O128 1.941 . S
C104 O105 1.258 . S
C104 O106 1.263 . S
O105 Co102 1.970 . S
O105 C104 1.258 . S
O106 Co103 1.966 . S
O106 C104 1.263 . S
C107 O108 1.235 . S
C107 O134 1.289 . S
O108 C107 1.235 . S
C109 C111 1.400 . S
C109 N112 1.351 . S
C109 C114 1.501 . S
C110 C111 1.387 . S
C110 N113 1.341 . S
C111 C109 1.400 . S
C111 C110 1.387 . S
N112 Co103 2.022 . S
N112 C109 1.351 . S
N112 N113 1.365 . S
N113 C110 1.341 . S
N113 N112 1.365 . S
N113 H133 0.862 . S
C114 C109 1.501 . S
C114 H115 0.961 . S
C114 H116 0.961 . S
C114 H117 0.960 . S
H115 C114 0.961 . S
H116 C114 0.961 . S
H117 C114 0.960 . S
C118 N119 1.342 . S
C118 C122 1.401 . S
C118 C123 1.499 . S
N119 Co102 1.989 . S
N119 C118 1.342 . S
N119 N120 1.388 . S
N120 Co103 1.993 . S
N120 N119 1.388 . S
N120 C121 1.346 . S
C121 N120 1.346 . S
C121 C122 1.396 . S
C121 C131 1.510 . S
C122 C118 1.401 . S
C122 C121 1.396 . S
C123 C118 1.499 . S
C123 H124 0.959 . S
C123 H125 0.960 . S
C123 H126 0.961 . S
H124 C123 0.959 . S
H125 C123 0.960 . S
H126 C123 0.961 . S
O127 Co102 1.967 . S
O127 C135 1.258 . S
O128 Co103 1.941 . S
O128 C135 1.266 . S
H129 C131 0.959 . S
H130 C131 0.961 . S
C131 C121 1.510 . S
C131 H129 0.959 . S
C131 H130 0.961 . S
C131 H132 0.960 . S
H132 C131 0.960 . S
H133 N113 0.862 . S
O134 Co102 1.920 . S
O134 C107 1.289 . S
C135 O127 1.258 . S
C135 O128 1.266 . S
Co136 O139 1.970 . S
Co136 N153 1.989 . S
Co136 O161 1.967 . S
Co136 O168 1.920 . S
Co137 O140 1.966 . S
Co137 N146 2.022 . S
Co137 N154 1.993 . S
Co137 O162 1.941 . S
C138 O139 1.258 . S
C138 O140 1.263 . S
O139 Co136 1.970 . S
O139 C138 1.258 . S
O140 Co137 1.966 . S
O140 C138 1.263 . S
C141 O142 1.235 . S
C141 O168 1.289 . S
O142 C141 1.235 . S
C143 C145 1.400 . S
C143 N146 1.351 . S
C143 C148 1.501 . S
C144 C145 1.387 . S
C144 N147 1.341 . S
C145 C143 1.400 . S
C145 C144 1.387 . S
N146 Co137 2.022 . S
N146 C143 1.351 . S
N146 N147 1.365 . S
N147 C144 1.341 . S
N147 N146 1.365 . S
N147 H167 0.862 . S
C148 C143 1.501 . S
C148 H149 0.961 . S
C148 H150 0.961 . S
C148 H151 0.960 . S
H149 C148 0.961 . S
H150 C148 0.961 . S
H151 C148 0.960 . S
C152 N153 1.342 . S
C152 C156 1.401 . S
C152 C157 1.499 . S
N153 Co136 1.989 . S
N153 C152 1.342 . S
N153 N154 1.388 . S
N154 Co137 1.993 . S
N154 N153 1.388 . S
N154 C155 1.346 . S
C155 N154 1.346 . S
C155 C156 1.396 . S
C155 C165 1.510 . S
C156 C152 1.401 . S
C156 C155 1.396 . S
C157 C152 1.499 . S
C157 H158 0.959 . S
C157 H159 0.960 . S
C157 H160 0.961 . S
H158 C157 0.959 . S
H159 C157 0.960 . S
H160 C157 0.961 . S
O161 Co136 1.967 . S
O161 C169 1.258 . S
O162 Co137 1.941 . S
O162 C169 1.266 . S
H163 C165 0.959 . S
H164 C165 0.961 . S
C165 C155 1.510 . S
C165 H163 0.959 . S
C165 H164 0.961 . S
C165 H166 0.960 . S
H166 C165 0.960 . S
H167 N147 0.862 . S
O168 Co136 1.920 . S
O168 C141 1.289 . S
C169 O161 1.258 . S
C169 O162 1.266 . S
Co170 O173 1.970 . S
Co170 N187 1.989 . S
Co170 O195 1.967 . S
Co170 O202 1.920 . S
Co171 O174 1.967 . S
Co171 N180 2.022 . S
Co171 N188 1.993 1_655 S
Co171 O196 1.941 . S
C172 O173 1.258 . S
C172 O174 1.260 1_455 S
O173 Co170 1.970 . S
O173 C172 1.258 . S
O174 Co171 1.967 . S
O174 C172 1.260 1_655 S
C175 O176 1.235 . S
C175 O202 1.289 . S
O176 C175 1.235 . S
C177 C179 1.400 . S
C177 N180 1.351 . S
C177 C182 1.501 . S
C178 C179 1.387 . S
C178 N181 1.341 . S
C179 C177 1.400 . S
C179 C178 1.387 . S
N180 Co171 2.022 . S
N180 C177 1.351 . S
N180 N181 1.365 . S
N181 C178 1.341 . S
N181 N180 1.365 . S
N181 H201 0.862 . S
C182 C177 1.501 . S
C182 H183 0.961 . S
C182 H184 0.961 . S
C182 H185 0.960 . S
H183 C182 0.961 . S
H184 C182 0.961 . S
H185 C182 0.960 . S
C186 N187 1.342 . S
C186 C190 1.401 . S
C186 C191 1.499 . S
N187 Co170 1.989 . S
N187 C186 1.342 . S
N187 N188 1.388 . S
N188 Co171 1.993 1_455 S
N188 N187 1.388 . S
N188 C189 1.346 1_455 S
C189 N188 1.346 1_655 S
C189 C190 1.396 1_655 S
C189 C199 1.510 . S
C190 C186 1.401 . S
C190 C189 1.396 1_455 S
C191 C186 1.499 . S
C191 H192 0.959 . S
C191 H193 0.960 . S
C191 H194 0.961 . S
H192 C191 0.959 . S
H193 C191 0.960 . S
H194 C191 0.961 . S
O195 Co170 1.967 . S
O195 C203 1.258 . S
O196 Co171 1.941 . S
O196 C203 1.266 1_655 S
H197 C199 0.959 . S
H198 C199 0.961 . S
C199 C189 1.510 . S
C199 H197 0.959 . S
C199 H198 0.961 . S
C199 H200 0.960 . S
H200 C199 0.960 . S
H201 N181 0.862 . S
O202 Co170 1.920 . S
O202 C175 1.289 . S
C203 O195 1.258 . S
C203 O196 1.266 1_455 S
Co204 O207 1.970 . S
Co204 N221 1.989 . S
Co204 O229 1.967 . S
Co204 O236 1.920 . S
Co205 O208 1.966 . S
Co205 N214 2.022 . S
Co205 N222 1.993 . S
Co205 O230 1.941 . S
C206 O207 1.258 . S
C206 O208 1.263 . S
O207 Co204 1.970 . S
O207 C206 1.258 . S
O208 Co205 1.966 . S
O208 C206 1.263 . S
C209 O210 1.235 . S
C209 O236 1.289 . S
O210 C209 1.235 . S
C211 C213 1.400 . S
C211 N214 1.351 . S
C211 C216 1.501 . S
C212 C213 1.387 . S
C212 N215 1.341 . S
C213 C211 1.400 . S
C213 C212 1.387 . S
N214 Co205 2.022 . S
N214 C211 1.351 . S
N214 N215 1.365 . S
N215 C212 1.341 . S
N215 N214 1.365 . S
N215 H235 0.862 . S
C216 C211 1.501 . S
C216 H217 0.961 . S
C216 H218 0.961 . S
C216 H219 0.960 . S
H217 C216 0.961 . S
H218 C216 0.961 . S
H219 C216 0.960 . S
C220 N221 1.342 . S
C220 C224 1.401 . S
C220 C225 1.499 . S
N221 Co204 1.989 . S
N221 C220 1.342 . S
N221 N222 1.388 . S
N222 Co205 1.993 . S
N222 N221 1.388 . S
N222 C223 1.346 . S
C223 N222 1.346 . S
C223 C224 1.396 . S
C223 C233 1.510 . S
C224 C220 1.401 . S
C224 C223 1.396 . S
C225 C220 1.499 . S
C225 H226 0.959 . S
C225 H227 0.960 . S
C225 H228 0.961 . S
H226 C225 0.959 . S
H227 C225 0.960 . S
H228 C225 0.961 . S
O229 Co204 1.967 . S
O229 C237 1.258 . S
O230 Co205 1.941 . S
O230 C237 1.266 . S
H231 C233 0.959 . S
H232 C233 0.961 . S
C233 C223 1.510 . S
C233 H231 0.959 . S
C233 H232 0.961 . S
C233 H234 0.960 . S
H234 C233 0.960 . S
H235 N215 0.862 . S
O236 Co204 1.920 . S
O236 C209 1.289 . S
C237 O229 1.258 . S
C237 O230 1.266 . S
Co238 O241 1.970 . S
Co238 N255 1.989 . S
Co238 O263 1.967 . S
Co238 O270 1.920 . S
Co239 O242 1.967 . S
Co239 N248 2.022 . S
Co239 N256 1.993 1_655 S
Co239 O264 1.941 . S
C240 O241 1.258 . S
C240 O242 1.260 1_455 S
O241 Co238 1.970 . S
O241 C240 1.258 . S
O242 Co239 1.967 . S
O242 C240 1.260 1_655 S
C243 O244 1.235 . S
C243 O270 1.289 . S
O244 C243 1.235 . S
C245 C247 1.400 . S
C245 N248 1.351 . S
C245 C250 1.501 . S
C246 C247 1.387 . S
C246 N249 1.341 . S
C247 C245 1.400 . S
C247 C246 1.387 . S
N248 Co239 2.022 . S
N248 C245 1.351 . S
N248 N249 1.365 . S
N249 C246 1.341 . S
N249 N248 1.365 . S
N249 H269 0.862 . S
C250 C245 1.501 . S
C250 H251 0.961 . S
C250 H252 0.961 . S
C250 H253 0.960 . S
H251 C250 0.961 . S
H252 C250 0.961 . S
H253 C250 0.960 . S
C254 N255 1.342 . S
C254 C258 1.401 . S
C254 C259 1.499 . S
N255 Co238 1.989 . S
N255 C254 1.342 . S
N255 N256 1.388 . S
N256 Co239 1.993 1_455 S
N256 N255 1.388 . S
N256 C257 1.346 1_455 S
C257 N256 1.346 1_655 S
C257 C258 1.396 1_655 S
C257 C267 1.510 . S
C258 C254 1.401 . S
C258 C257 1.396 1_455 S
C259 C254 1.499 . S
C259 H260 0.959 . S
C259 H261 0.960 . S
C259 H262 0.961 . S
H260 C259 0.959 . S
H261 C259 0.960 . S
H262 C259 0.961 . S
O263 Co238 1.967 . S
O263 C271 1.258 . S
O264 Co239 1.941 . S
O264 C271 1.266 1_655 S
H265 C267 0.959 . S
H266 C267 0.961 . S
C267 C257 1.510 . S
C267 H265 0.959 . S
C267 H266 0.961 . S
C267 H268 0.960 . S
H268 C267 0.960 . S
H269 N249 0.862 . S
O270 Co238 1.920 . S
O270 C243 1.289 . S
C271 O263 1.258 . S
C271 O264 1.266 1_455 S
H272 C280 0.950 . S
H273 C285 0.950 . S
H274 C282 0.950 1_545 S
H275 C284 0.950 1_554 S
H276 C286 0.950 . S
H277 C288 0.950 1_565 S
H278 C290 0.950 1_556 S
H279 C291 0.950 . S
C280 H272 0.950 . S
C280 C281 1.386 1_655 S
C280 C282 1.391 . S
C281 C280 1.386 1_455 S
C281 C285 1.393 . S
C282 H274 0.950 1_565 S
C282 C280 1.391 . S
C282 C283 1.400 1_655 S
C283 C282 1.400 1_455 S
C283 C284 1.398 . S
C283 C289 1.491 1_566 S
C284 H275 0.950 1_556 S
C284 C283 1.398 . S
C284 C285 1.391 . S
C285 H273 0.950 . S
C285 C281 1.393 . S
C285 C284 1.391 . S
C286 H276 0.950 . S
C286 C287 1.386 . S
C286 C288 1.391 . S
C287 C286 1.386 . S
C287 C291 1.393 1_455 S
C288 H277 0.950 1_545 S
C288 C286 1.391 . S
C288 C289 1.400 . S
C289 C283 1.491 1_544 S
C289 C288 1.400 . S
C289 C290 1.398 1_455 S
C290 H278 0.950 1_554 S
C290 C289 1.398 1_655 S
C290 C291 1.391 . S
C291 H279 0.950 . S
C291 C287 1.393 1_655 S
C291 C290 1.391 . S
H292 C300 0.950 . S
H293 C305 0.950 . S
H294 C302 0.950 . S
H295 C304 0.931 1_565 S
H296 C306 0.950 . S
H297 C308 0.950 . S
H298 C310 0.931 1_545 S
H299 C311 0.950 . S
C300 H292 0.950 . S
C300 C301 1.386 . S
C300 C302 1.391 . S
C301 C300 1.386 . S
C301 C305 1.393 . S
C302 H294 0.950 . S
C302 C300 1.391 . S
C302 C303 1.400 . S
C303 C302 1.400 . S
C303 C304 1.405 . S
C303 C309 1.491 1_545 S
C304 H295 0.931 1_545 S
C304 C303 1.405 . S
C304 C305 1.403 . S
C305 H293 0.950 . S
C305 C301 1.393 . S
C305 C304 1.403 . S
C306 H296 0.950 . S
C306 C307 1.386 . S
C306 C308 1.391 . S
C307 C306 1.386 . S
C307 C311 1.393 . S
C308 H297 0.950 . S
C308 C306 1.391 . S
C308 C309 1.400 . S
C309 C303 1.491 1_565 S
C309 C308 1.400 . S
C309 C310 1.405 . S
C310 H298 0.931 1_565 S
C310 C309 1.405 . S
C310 C311 1.403 . S
C311 H299 0.950 . S
C311 C307 1.393 . S
C311 C310 1.403 . S
H312 C320 0.950 . S
H313 C325 0.950 . S
H314 C322 0.950 . S
H315 C324 0.950 1_556 S
H316 C326 0.950 . S
H317 C328 0.950 . S
H318 C330 0.950 1_554 S
H319 C331 0.950 . S
C320 H312 0.950 . S
C320 C321 1.386 . S
C320 C322 1.391 . S
C321 C320 1.386 . S
C321 C325 1.393 . S
C322 H314 0.950 . S
C322 C320 1.391 . S
C322 C323 1.400 . S
C323 C322 1.400 . S
C323 C324 1.398 . S
C323 C329 1.491 1_554 S
C324 H315 0.950 1_554 S
C324 C323 1.398 . S
C324 C325 1.391 . S
C325 H313 0.950 . S
C325 C321 1.393 . S
C325 C324 1.391 . S
C326 H316 0.950 . S
C326 C327 1.386 . S
C326 C328 1.391 . S
C327 C326 1.386 . S
C327 C331 1.393 . S
C328 H317 0.950 . S
C328 C326 1.391 . S
C328 C329 1.400 . S
C329 C323 1.491 1_556 S
C329 C328 1.400 . S
C329 C330 1.398 . S
C330 H318 0.950 1_556 S
C330 C329 1.398 . S
C330 C331 1.391 . S
C331 H319 0.950 . S
C331 C327 1.393 . S
C331 C330 1.391 . S
H332 C340 0.950 1_655 S
H333 C345 0.950 . S
H334 C342 0.950 1_655 S
H335 C344 0.950 . S
H336 C346 0.950 . S
H337 C348 0.950 . S
H338 C350 0.950 1_655 S
H339 C351 0.950 1_655 S
C340 H332 0.950 1_455 S
C340 C341 1.386 . S
C340 C342 1.391 . S
C341 C340 1.386 . S
C341 C345 1.393 . S
C342 H334 0.950 1_455 S
C342 C340 1.391 . S
C342 C343 1.400 . S
C343 C342 1.400 . S
C343 C344 1.398 . S
C343 C349 1.491 . S
C344 H335 0.950 . S
C344 C343 1.398 . S
C344 C345 1.391 . S
C345 H333 0.950 . S
C345 C341 1.393 . S
C345 C344 1.391 . S
C346 H336 0.950 . S
C346 C347 1.386 . S
C346 C348 1.391 . S
C347 C346 1.386 . S
C347 C351 1.393 . S
C348 H337 0.950 . S
C348 C346 1.391 . S
C348 C349 1.400 . S
C349 C343 1.491 . S
C349 C348 1.400 . S
C349 C350 1.398 . S
C350 H338 0.950 1_455 S
C350 C349 1.398 . S
C350 C351 1.391 . S
C351 H339 0.950 1_455 S
C351 C347 1.393 . S
C351 C350 1.391 . S
H352 C360 0.950 . S
H353 C365 0.950 . S
H354 C362 0.950 . S
H355 C364 0.950 . S
H356 C366 0.950 . S
H357 C368 0.950 . S
H358 C370 0.950 . S
H359 C371 0.950 . S
C360 H352 0.950 . S
C360 C361 1.386 . S
C360 C362 1.391 . S
C361 C360 1.386 . S
C361 C365 1.393 . S
C362 H354 0.950 . S
C362 C360 1.391 . S
C362 C363 1.400 . S
C363 C362 1.400 . S
C363 C364 1.398 . S
C363 C369 1.491 . S
C364 H355 0.950 . S
C364 C363 1.398 . S
C364 C365 1.391 . S
C365 H353 0.950 . S
C365 C361 1.393 . S
C365 C364 1.391 . S
C366 H356 0.950 . S
C366 C367 1.386 . S
C366 C368 1.391 . S
C367 C366 1.386 . S
C367 C371 1.393 . S
C368 H357 0.950 . S
C368 C366 1.391 . S
C368 C369 1.400 . S
C369 C363 1.491 . S
C369 C368 1.400 . S
C369 C370 1.398 . S
C370 H358 0.950 . S
C370 C369 1.398 . S
C370 C371 1.391 . S
C371 H359 0.950 . S
C371 C367 1.393 . S
C371 C370 1.391 . S
H372 C380 0.950 . S
H373 C385 0.950 . S
H374 C382 0.950 . S
H375 C384 0.950 . S
H376 C386 0.950 . S
H377 C388 0.950 . S
H378 C390 0.950 . S
H379 C391 0.950 . S
C380 H372 0.950 . S
C380 C381 1.386 . S
C380 C382 1.391 . S
C381 C380 1.386 . S
C381 C385 1.393 . S
C382 H374 0.950 . S
C382 C380 1.391 . S
C382 C383 1.400 . S
C383 C382 1.400 . S
C383 C384 1.398 . S
C383 C389 1.491 . S
C384 H375 0.950 . S
C384 C383 1.398 . S
C384 C385 1.391 . S
C385 H373 0.950 . S
C385 C381 1.393 . S
C385 C384 1.391 . S
C386 H376 0.950 . S
C386 C387 1.386 . S
C386 C388 1.391 . S
C387 C386 1.386 . S
C387 C391 1.393 . S
C388 H377 0.950 . S
C388 C386 1.391 . S
C388 C389 1.400 . S
C389 C383 1.491 . S
C389 C388 1.400 . S
C389 C390 1.398 . S
C390 H378 0.950 . S
C390 C389 1.398 . S
C390 C391 1.391 . S
C391 H379 0.950 . S
C391 C387 1.393 . S
C391 C390 1.391 . S
H392 C400 0.950 . S
H393 C405 0.950 . S
H394 C402 0.950 . S
H395 C404 0.950 . S
H396 C406 0.950 . S
H397 C408 0.950 . S
H398 C410 0.950 . S
H399 C411 0.950 . S
C400 H392 0.950 . S
C400 C401 1.386 . S
C400 C402 1.391 . S
C401 C400 1.386 . S
C401 C405 1.393 . S
C402 H394 0.950 . S
C402 C400 1.391 . S
C402 C403 1.400 . S
C403 C402 1.400 . S
C403 C404 1.398 . S
C403 C409 1.491 . S
C404 H395 0.950 . S
C404 C403 1.398 . S
C404 C405 1.391 . S
C405 H393 0.950 . S
C405 C401 1.393 . S
C405 C404 1.391 . S
C406 H396 0.950 . S
C406 C407 1.386 . S
C406 C408 1.391 . S
C407 C406 1.386 . S
C407 C411 1.393 . S
C408 H397 0.950 . S
C408 C406 1.391 . S
C408 C409 1.400 . S
C409 C403 1.491 . S
C409 C408 1.400 . S
C409 C410 1.398 . S
C410 H398 0.950 . S
C410 C409 1.398 . S
C410 C411 1.391 . S
C411 H399 0.950 . S
C411 C407 1.393 . S
C411 C410 1.391 . S
H412 C420 0.950 . S
H413 C425 0.950 . S
H414 C422 0.950 . S
H415 C424 0.950 . S
H416 C426 0.950 . S
H417 C428 0.950 . S
H418 C430 0.950 . S
H419 C431 0.950 . S
C420 H412 0.950 . S
C420 C421 1.386 . S
C420 C422 1.391 . S
C421 C420 1.386 . S
C421 C425 1.393 . S
C422 H414 0.950 . S
C422 C420 1.391 . S
C422 C423 1.400 . S
C423 C422 1.400 . S
C423 C424 1.398 . S
C423 C429 1.491 . S
C424 H415 0.950 . S
C424 C423 1.398 . S
C424 C425 1.391 . S
C425 H413 0.950 . S
C425 C421 1.393 . S
C425 C424 1.391 . S
C426 H416 0.950 . S
C426 C427 1.386 . S
C426 C428 1.391 . S
C427 C426 1.386 . S
C427 C431 1.393 . S
C428 H417 0.950 . S
C428 C426 1.391 . S
C428 C429 1.400 . S
C429 C423 1.491 . S
C429 C428 1.400 . S
C429 C430 1.398 . S
C430 H418 0.950 . S
C430 C429 1.398 . S
C430 C431 1.391 . S
C431 H419 0.950 . S
C431 C427 1.393 . S
C431 C430 1.391 . S
H432 C440 0.950 . S
H433 C445 0.950 . S
H434 C442 0.950 . S
H435 C444 0.950 . S
H436 C446 0.950 . S
H437 C448 0.950 . S
H438 C450 0.950 . S
H439 C451 0.950 . S
C440 H432 0.950 . S
C440 C441 1.386 . S
C440 C442 1.391 . S
C441 C440 1.386 . S
C441 C445 1.393 . S
C442 H434 0.950 . S
C442 C440 1.391 . S
C442 C443 1.400 . S
C443 C442 1.400 . S
C443 C444 1.398 . S
C443 C449 1.491 . S
C444 H435 0.950 . S
C444 C443 1.398 . S
C444 C445 1.391 . S
C445 H433 0.950 . S
C445 C441 1.393 . S
C445 C444 1.391 . S
C446 H436 0.950 . S
C446 C447 1.386 . S
C446 C448 1.391 . S
C447 C446 1.386 . S
C447 C451 1.393 . S
C448 H437 0.950 . S
C448 C446 1.391 . S
C448 C449 1.400 . S
C449 C443 1.491 . S
C449 C448 1.400 . S
C449 C450 1.398 . S
C450 H438 0.950 . S
C450 C449 1.398 . S
C450 C451 1.391 . S
C451 H439 0.950 . S
C451 C447 1.393 . S
C451 C450 1.391 . S
H452 C460 0.950 . S
H453 C465 0.950 . S
H454 C462 0.950 . S
H455 C464 0.950 . S
H456 C466 0.950 . S
H457 C468 0.950 . S
H458 C470 0.950 . S
H459 C471 0.950 . S
C460 H452 0.950 . S
C460 C461 1.386 . S
C460 C462 1.391 . S
C461 C460 1.386 . S
C461 C465 1.393 . S
C462 H454 0.950 . S
C462 C460 1.391 . S
C462 C463 1.400 . S
C463 C462 1.400 . S
C463 C464 1.398 . S
C463 C469 1.491 . S
C464 H455 0.950 . S
C464 C463 1.398 . S
C464 C465 1.391 . S
C465 H453 0.950 . S
C465 C461 1.393 . S
C465 C464 1.391 . S
C466 H456 0.950 . S
C466 C467 1.386 . S
C466 C468 1.391 . S
C467 C466 1.386 . S
C467 C471 1.393 . S
C468 H457 0.950 . S
C468 C466 1.391 . S
C468 C469 1.400 . S
C469 C463 1.491 . S
C469 C468 1.400 . S
C469 C470 1.398 . S
C470 H458 0.950 . S
C470 C469 1.398 . S
C470 C471 1.391 . S
C471 H459 0.950 . S
C471 C467 1.393 . S
C471 C470 1.391 . S
H472 C480 0.950 . S
H473 C485 0.950 . S
H474 C482 0.950 . S
H475 C484 0.950 . S
H476 C486 0.950 . S
H477 C488 0.950 . S
H478 C490 0.950 . S
H479 C491 0.950 . S
C480 H472 0.950 . S
C480 C481 1.386 . S
C480 C482 1.391 . S
C481 C480 1.386 . S
C481 C485 1.393 . S
C482 H474 0.950 . S
C482 C480 1.391 . S
C482 C483 1.400 . S
C483 C482 1.400 . S
C483 C484 1.398 . S
C483 C489 1.491 . S
C484 H475 0.950 . S
C484 C483 1.398 . S
C484 C485 1.391 . S
C485 H473 0.950 . S
C485 C481 1.393 . S
C485 C484 1.391 . S
C486 H476 0.950 . S
C486 C487 1.386 . S
C486 C488 1.391 . S
C487 C486 1.386 . S
C487 C491 1.393 . S
C488 H477 0.950 . S
C488 C486 1.391 . S
C488 C489 1.400 . S
C489 C483 1.491 . S
C489 C488 1.400 . S
C489 C490 1.398 . S
C490 H478 0.950 . S
C490 C489 1.398 . S
C490 C491 1.391 . S
C491 H479 0.950 . S
C491 C487 1.393 . S
C491 C490 1.391 . S
H492 C500 0.950 . S
H493 C505 0.950 . S
H494 C502 0.950 . S
H495 C504 0.950 . S
H496 C506 0.950 . S
H497 C508 0.950 . S
H498 C510 0.950 . S
H499 C511 0.950 . S
C500 H492 0.950 . S
C500 C501 1.386 . S
C500 C502 1.391 . S
C501 C500 1.386 . S
C501 C505 1.393 . S
C502 H494 0.950 . S
C502 C500 1.391 . S
C502 C503 1.400 . S
C503 C502 1.400 . S
C503 C504 1.398 . S
C503 C509 1.491 . S
C504 H495 0.950 . S
C504 C503 1.398 . S
C504 C505 1.391 . S
C505 H493 0.950 . S
C505 C501 1.393 . S
C505 C504 1.391 . S
C506 H496 0.950 . S
C506 C507 1.386 . S
C506 C508 1.391 . S
C507 C506 1.386 . S
C507 C511 1.393 . S
C508 H497 0.950 . S
C508 C506 1.391 . S
C508 C509 1.400 . S
C509 C503 1.491 . S
C509 C508 1.400 . S
C509 C510 1.398 . S
C510 H498 0.950 . S
C510 C509 1.398 . S
C510 C511 1.391 . S
C511 H499 0.950 . S
C511 C507 1.393 . S
C511 C510 1.391 . S
H512 C520 0.950 . S
H513 C525 0.950 . S
H514 C522 0.950 . S
H515 C524 0.950 . S
H516 C526 0.950 . S
H517 C528 0.950 . S
H518 C530 0.950 . S
H519 C531 0.950 . S
C520 H512 0.950 . S
C520 C521 1.386 . S
C520 C522 1.391 . S
C521 C520 1.386 . S
C521 C525 1.393 1_455 S
C522 H514 0.950 . S
C522 C520 1.391 . S
C522 C523 1.400 . S
C523 C522 1.400 . S
C523 C524 1.398 1_455 S
C523 C529 1.491 . S
C524 H515 0.950 . S
C524 C523 1.398 1_655 S
C524 C525 1.391 . S
C525 H513 0.950 . S
C525 C521 1.393 1_655 S
C525 C524 1.391 . S
C526 H516 0.950 . S
C526 C527 1.386 1_655 S
C526 C528 1.391 1_554 S
C527 C526 1.386 1_455 S
C527 C531 1.393 . S
C528 H517 0.950 . S
C528 C526 1.391 1_556 S
C528 C529 1.400 1_655 S
C529 C523 1.491 . S
C529 C528 1.400 1_455 S
C529 C530 1.398 1_556 S
C530 H518 0.950 . S
C530 C529 1.398 1_554 S
C530 C531 1.391 . S
C531 H519 0.950 . S
C531 C527 1.393 . S
C531 C530 1.391 . S
H532 C540 0.950 . S
H533 C545 0.950 . S
H534 C542 0.950 . S
H535 C544 0.950 . S
H536 C546 0.950 . S
H537 C548 0.950 . S
H538 C550 0.950 . S
H539 C551 0.950 . S
C540 H532 0.950 . S
C540 C541 1.386 . S
C540 C542 1.391 . S
C541 C540 1.386 . S
C541 C545 1.393 . S
C542 H534 0.950 . S
C542 C540 1.391 . S
C542 C543 1.400 . S
C543 C542 1.400 . S
C543 C544 1.398 . S
C543 C549 1.491 . S
C544 H535 0.950 . S
C544 C543 1.398 . S
C544 C545 1.391 . S
C545 H533 0.950 . S
C545 C541 1.393 . S
C545 C544 1.391 . S
C546 H536 0.950 . S
C546 C547 1.386 . S
C546 C548 1.391 . S
C547 C546 1.386 . S
C547 C551 1.393 . S
C548 H537 0.950 . S
C548 C546 1.391 . S
C548 C549 1.400 . S
C549 C543 1.491 . S
C549 C548 1.400 . S
C549 C550 1.398 . S
C550 H538 0.950 . S
C550 C549 1.398 . S
C550 C551 1.391 . S
C551 H539 0.950 . S
C551 C547 1.393 . S
C551 C550 1.391 . S
H552 C560 0.950 . S
H553 C565 0.950 . S
H554 C562 0.950 . S
H555 C564 0.950 . S
H556 C566 0.950 1_655 S
H557 C568 0.931 1_655 S
H558 C570 0.950 . S
H559 C571 0.950 . S
C560 H552 0.950 . S
C560 C561 1.386 . S
C560 C562 1.391 . S
C561 C560 1.386 . S
C561 C565 1.393 1_455 S
C562 H554 0.950 . S
C562 C560 1.391 . S
C562 C563 1.400 1_556 S
C563 C562 1.400 1_554 S
C563 C564 1.398 1_455 S
C563 C569 1.491 . S
C564 H555 0.950 . S
C564 C563 1.398 1_655 S
C564 C565 1.391 1_554 S
C565 H553 0.950 . S
C565 C561 1.393 1_655 S
C565 C564 1.391 1_556 S
C566 H556 0.950 1_455 S
C566 C567 1.386 . S
C566 C568 1.394 . S
C567 C566 1.386 . S
C567 C571 1.393 . S
C568 H557 0.931 1_455 S
C568 C566 1.394 . S
C568 C569 1.417 . S
C569 C563 1.491 . S
C569 C568 1.417 . S
C569 C570 1.398 . S
C570 H558 0.950 . S
C570 C569 1.398 . S
C570 C571 1.391 . S
C571 H559 0.950 . S
C571 C567 1.393 . S
C571 C570 1.391 . S
H572 C580 0.950 . S
H573 C585 0.950 . S
H574 C582 0.950 . S
H575 C584 0.950 . S
H576 C586 0.950 . S
H577 C588 0.950 . S
H578 C590 0.950 . S
H579 C591 0.950 . S
C580 H572 0.950 . S
C580 C581 1.386 . S
C580 C582 1.391 . S
C581 C580 1.386 . S
C581 C585 1.393 . S
C582 H574 0.950 . S
C582 C580 1.391 . S
C582 C583 1.400 . S
C583 C582 1.400 . S
C583 C584 1.398 . S
C583 C589 1.491 . S
C584 H575 0.950 . S
C584 C583 1.398 . S
C584 C585 1.391 . S
C585 H573 0.950 . S
C585 C581 1.393 . S
C585 C584 1.391 . S
C586 H576 0.950 . S
C586 C587 1.386 . S
C586 C588 1.391 . S
C587 C586 1.386 . S
C587 C591 1.393 . S
C588 H577 0.950 . S
C588 C586 1.391 . S
C588 C589 1.400 . S
C589 C583 1.491 . S
C589 C588 1.400 . S
C589 C590 1.398 . S
C590 H578 0.950 . S
C590 C589 1.398 . S
C590 C591 1.391 . S
C591 H579 0.950 . S
C591 C587 1.393 . S
C591 C590 1.391 . S
H592 C600 0.950 . S
H593 C605 0.950 . S
H594 C602 0.950 . S
H595 C604 0.950 . S
H596 C606 0.950 . S
H597 C608 0.950 . S
H598 C610 0.950 . S
H599 C611 0.950 . S
C600 H592 0.950 . S
C600 C601 1.386 . S
C600 C602 1.391 . S
C601 C600 1.386 . S
C601 C605 1.393 . S
C602 H594 0.950 . S
C602 C600 1.391 . S
C602 C603 1.400 . S
C603 C602 1.400 . S
C603 C604 1.398 . S
C603 C609 1.491 . S
C604 H595 0.950 . S
C604 C603 1.398 . S
C604 C605 1.391 . S
C605 H593 0.950 . S
C605 C601 1.393 . S
C605 C604 1.391 . S
C606 H596 0.950 . S
C606 C607 1.386 . S
C606 C608 1.391 . S
C607 C606 1.386 . S
C607 C611 1.393 . S
C608 H597 0.950 . S
C608 C606 1.391 . S
C608 C609 1.400 1_554 S
C609 C603 1.491 . S
C609 C608 1.400 1_556 S
C609 C610 1.398 . S
C610 H598 0.950 . S
C610 C609 1.398 . S
C610 C611 1.391 1_556 S
C611 H599 0.950 . S
C611 C607 1.393 . S
C611 C610 1.391 1_554 S
H612 C620 0.950 . S
H613 C625 0.950 . S
H614 C622 0.950 . S
H615 C624 0.950 . S
H616 C626 0.950 . S
H617 C628 0.950 . S
H618 C630 0.950 . S
H619 C631 0.950 . S
C620 H612 0.950 . S
C620 C621 1.386 . S
C620 C622 1.391 . S
C621 C620 1.386 . S
C621 C625 1.393 1_455 S
C622 H614 0.950 . S
C622 C620 1.391 . S
C622 C623 1.400 . S
C623 C622 1.400 . S
C623 C624 1.398 1_455 S
C623 C629 1.491 . S
C624 H615 0.950 . S
C624 C623 1.398 1_655 S
C624 C625 1.391 . S
C625 H613 0.950 . S
C625 C621 1.393 1_655 S
C625 C624 1.391 . S
C626 H616 0.950 . S
C626 C627 1.386 1_655 S
C626 C628 1.391 . S
C627 C626 1.386 1_455 S
C627 C631 1.393 . S
C628 H617 0.950 . S
C628 C626 1.391 . S
C628 C629 1.400 1_655 S
C629 C623 1.491 . S
C629 C628 1.400 1_455 S
C629 C630 1.398 . S
C630 H618 0.950 . S
C630 C629 1.398 . S
C630 C631 1.391 . S
C631 H619 0.950 . S
C631 C627 1.393 . S
C631 C630 1.391 . S
H632 C640 0.950 . S
H633 C645 0.950 . S
H634 C642 0.950 . S
H635 C644 0.950 . S
H636 C646 0.950 . S
H637 C648 0.950 . S
H638 C650 0.950 . S
H639 C651 0.950 . S
C640 H632 0.950 . S
C640 C641 1.386 . S
C640 C642 1.391 . S
C641 C640 1.386 . S
C641 C645 1.393 . S
C642 H634 0.950 . S
C642 C640 1.391 . S
C642 C643 1.400 1_556 S
C643 C642 1.400 1_554 S
C643 C644 1.398 . S
C643 C649 1.491 . S
C644 H635 0.950 . S
C644 C643 1.398 . S
C644 C645 1.391 1_554 S
C645 H633 0.950 . S
C645 C641 1.393 . S
C645 C644 1.391 1_556 S
C646 H636 0.950 . S
C646 C647 1.386 . S
C646 C648 1.391 . S
C647 C646 1.386 . S
C647 C651 1.393 . S
C648 H637 0.950 . S
C648 C646 1.391 . S
C648 C649 1.400 . S
C649 C643 1.491 . S
C649 C648 1.400 . S
C649 C650 1.398 . S
C650 H638 0.950 . S
C650 C649 1.398 . S
C650 C651 1.391 . S
C651 H639 0.950 . S
C651 C647 1.393 . S
C651 C650 1.391 . S
H652 C660 0.950 1_655 S
H653 C665 0.950 . S
H654 C662 0.950 1_655 S
H655 C664 0.950 . S
H656 C666 0.950 . S
H657 C668 0.950 . S
H658 C670 0.951 . S
H659 C671 0.950 . S
C660 H652 0.950 1_455 S
C660 C661 1.386 . S
C660 C662 1.391 . S
C661 C660 1.386 . S
C661 C665 1.393 . S
C662 H654 0.950 1_455 S
C662 C660 1.391 . S
C662 C663 1.400 . S
C663 C662 1.400 . S
C663 C664 1.398 . S
C663 C669 1.491 . S
C664 H655 0.950 . S
C664 C663 1.398 . S
C664 C665 1.391 . S
C665 H653 0.950 . S
C665 C661 1.393 . S
C665 C664 1.391 . S
C666 H656 0.950 . S
C666 C667 1.386 . S
C666 C668 1.391 . S
C667 C666 1.386 . S
C667 C671 1.393 1_455 S
C668 H657 0.950 . S
C668 C666 1.391 . S
C668 C669 1.400 . S
C669 C663 1.491 . S
C669 C668 1.400 . S
C669 C670 1.397 1_455 S
C670 H658 0.951 . S
C670 C669 1.397 1_655 S
C670 C671 1.391 . S
C671 H659 0.950 . S
C671 C667 1.393 1_655 S
C671 C670 1.391 . S
C281 C70 1.665 . S
C287 C2 1.667 . S
C301 C104 1.674 . S
C307 C36 1.671 . S
C321 C138 1.670 . S
C327 C206 1.672 . S
C341 C172 1.677 . S
C347 C240 1.679 . S
C361 C111 1.128 . S
C367 C9 1.163 . S
C381 C43 1.160 . S
C387 C77 1.125 . S
C401 C73 1.884 . S
C407 C39 1.878 . S
C421 C107 1.876 . S
C427 C5 1.881 . S
C441 C247 1.137 . S
C447 C145 1.162 . S
C461 C179 1.140 . S
C467 C213 1.160 . S
C481 C209 1.889 . S
C487 C175 1.886 . S
C501 C243 1.889 . S
C507 C141 1.885 . S
C521 C190 1.285 . S
C527 C33 1.277 . S
C541 C67 1.276 . S
C547 C156 1.284 . S
C561 C101 1.276 . S
C567 C258 1.284 . S
C581 C224 1.277 . S
C587 C135 1.281 . S
C601 C54 1.282 . S
C607 C169 1.285 . S
C621 C203 1.278 . S
C627 C20 1.276 . S
C641 C237 1.274 . S
C647 C122 1.279 . S
C661 C271 1.277 . S
C667 C88 1.285 . S
