# Generated by pormake.
# Topology wgp, (5)-cn, num edge types: 1
# Building blocks:
#     Node 0, Type 0, BuildingBlock: XOMCOT_clean_sbu_0, # of connection points: 5
#     Node 1, Type 0, BuildingBlock: XOMCOT_clean_sbu_0, # of connection points: 5
#     Node 2, Type 0, BuildingBlock: XOMCOT_clean_sbu_0, # of connection points: 5
#     Node 3, Type 0, BuildingBlock: XOMCOT_clean_sbu_0, # of connection points: 5
#     Node 4, Type 0, BuildingBlock: XOMCOT_clean_sbu_0, # of connection points: 5
#     Node 5, Type 0, BuildingBlock: XOMCOT_clean_sbu_0, # of connection points: 5
#     Node 6, Type 0, BuildingBlock: XOMCOT_clean_sbu_0, # of connection points: 5
#     Node 7, Type 0, BuildingBlock: XOMCOT_clean_sbu_0, # of connection points: 5
#     Node 8, Type 0, BuildingBlock: XOMCOT_clean_sbu_0, # of connection points: 5
#     Node 9, Type 0, BuildingBlock: XOMCOT_clean_sbu_0, # of connection points: 5
#     Node 10, Type 0, BuildingBlock: XOMCOT_clean_sbu_0, # of connection points: 5
#     Node 11, Type 0, BuildingBlock: XOMCOT_clean_sbu_0, # of connection points: 5
#     Node 12, Type 0, BuildingBlock: XOMCOT_clean_sbu_0, # of connection points: 5
#     Node 13, Type 0, BuildingBlock: XOMCOT_clean_sbu_0, # of connection points: 5
#     Node 14, Type 0, BuildingBlock: XOMCOT_clean_sbu_0, # of connection points: 5
#     Node 15, Type 0, BuildingBlock: XOMCOT_clean_sbu_0, # of connection points: 5
#     Node 16, Type 0, BuildingBlock: XOMCOT_clean_sbu_0, # of connection points: 5
#     Node 17, Type 0, BuildingBlock: XOMCOT_clean_sbu_0, # of connection points: 5
#     Node 18, Type 0, BuildingBlock: XOMCOT_clean_sbu_0, # of connection points: 5
#     Node 19, Type 0, BuildingBlock: XOMCOT_clean_sbu_0, # of connection points: 5
#     Node 20, Type 0, BuildingBlock: XOMCOT_clean_sbu_0, # of connection points: 5
#     Node 21, Type 0, BuildingBlock: XOMCOT_clean_sbu_0, # of connection points: 5
#     Node 22, Type 0, BuildingBlock: XOMCOT_clean_sbu_0, # of connection points: 5
#     Node 23, Type 0, BuildingBlock: XOMCOT_clean_sbu_0, # of connection points: 5
#     Node 24, Type 0, BuildingBlock: XOMCOT_clean_sbu_0, # of connection points: 5
#     Node 25, Type 0, BuildingBlock: XOMCOT_clean_sbu_0, # of connection points: 5
#     Node 26, Type 0, BuildingBlock: XOMCOT_clean_sbu_0, # of connection points: 5
#     Node 27, Type 0, BuildingBlock: XOMCOT_clean_sbu_0, # of connection points: 5
#     Node 28, Type 0, BuildingBlock: XOMCOT_clean_sbu_0, # of connection points: 5
#     Node 29, Type 0, BuildingBlock: XOMCOT_clean_sbu_0, # of connection points: 5
#     Node 30, Type 0, BuildingBlock: XOMCOT_clean_sbu_0, # of connection points: 5
#     Node 31, Type 0, BuildingBlock: XOMCOT_clean_sbu_0, # of connection points: 5
#     Edge 32, Type (0, 0), BuildingBlock: OJICUG_clean_linker_0, # of connection points: 2
#     Edge 33, Type (0, 0), BuildingBlock: OJICUG_clean_linker_0, # of connection points: 2
#     Edge 34, Type (0, 0), BuildingBlock: OJICUG_clean_linker_0, # of connection points: 2
#     Edge 35, Type (0, 0), BuildingBlock: OJICUG_clean_linker_0, # of connection points: 2
#     Edge 36, Type (0, 0), BuildingBlock: OJICUG_clean_linker_0, # of connection points: 2
#     Edge 37, Type (0, 0), BuildingBlock: OJICUG_clean_linker_0, # of connection points: 2
#     Edge 38, Type (0, 0), BuildingBlock: OJICUG_clean_linker_0, # of connection points: 2
#     Edge 39, Type (0, 0), BuildingBlock: OJICUG_clean_linker_0, # of connection points: 2
#     Edge 40, Type (0, 0), BuildingBlock: OJICUG_clean_linker_0, # of connection points: 2
#     Edge 41, Type (0, 0), BuildingBlock: OJICUG_clean_linker_0, # of connection points: 2
#     Edge 42, Type (0, 0), BuildingBlock: OJICUG_clean_linker_0, # of connection points: 2
#     Edge 43, Type (0, 0), BuildingBlock: OJICUG_clean_linker_0, # of connection points: 2
#     Edge 44, Type (0, 0), BuildingBlock: OJICUG_clean_linker_0, # of connection points: 2
#     Edge 45, Type (0, 0), BuildingBlock: OJICUG_clean_linker_0, # of connection points: 2
#     Edge 46, Type (0, 0), BuildingBlock: OJICUG_clean_linker_0, # of connection points: 2
#     Edge 47, Type (0, 0), BuildingBlock: OJICUG_clean_linker_0, # of connection points: 2
#     Edge 48, Type (0, 0), BuildingBlock: OJICUG_clean_linker_0, # of connection points: 2
#     Edge 49, Type (0, 0), BuildingBlock: OJICUG_clean_linker_0, # of connection points: 2
#     Edge 50, Type (0, 0), BuildingBlock: OJICUG_clean_linker_0, # of connection points: 2
#     Edge 51, Type (0, 0), BuildingBlock: OJICUG_clean_linker_0, # of connection points: 2
#     Edge 52, Type (0, 0), BuildingBlock: OJICUG_clean_linker_0, # of connection points: 2
#     Edge 53, Type (0, 0), BuildingBlock: OJICUG_clean_linker_0, # of connection points: 2
#     Edge 54, Type (0, 0), BuildingBlock: OJICUG_clean_linker_0, # of connection points: 2
#     Edge 55, Type (0, 0), BuildingBlock: OJICUG_clean_linker_0, # of connection points: 2
#     Edge 56, Type (0, 0), BuildingBlock: OJICUG_clean_linker_0, # of connection points: 2
#     Edge 57, Type (0, 0), BuildingBlock: OJICUG_clean_linker_0, # of connection points: 2
#     Edge 58, Type (0, 0), BuildingBlock: OJICUG_clean_linker_0, # of connection points: 2
#     Edge 59, Type (0, 0), BuildingBlock: OJICUG_clean_linker_0, # of connection points: 2
#     Edge 60, Type (0, 0), BuildingBlock: OJICUG_clean_linker_0, # of connection points: 2
#     Edge 61, Type (0, 0), BuildingBlock: OJICUG_clean_linker_0, # of connection points: 2
#     Edge 62, Type (0, 0), BuildingBlock: OJICUG_clean_linker_0, # of connection points: 2
#     Edge 63, Type (0, 0), BuildingBlock: OJICUG_clean_linker_0, # of connection points: 2
#     Edge 64, Type (0, 0), BuildingBlock: OJICUG_clean_linker_0, # of connection points: 2
#     Edge 65, Type (0, 0), BuildingBlock: OJICUG_clean_linker_0, # of connection points: 2
#     Edge 66, Type (0, 0), BuildingBlock: OJICUG_clean_linker_0, # of connection points: 2
#     Edge 67, Type (0, 0), BuildingBlock: OJICUG_clean_linker_0, # of connection points: 2
#     Edge 68, Type (0, 0), BuildingBlock: OJICUG_clean_linker_0, # of connection points: 2
#     Edge 69, Type (0, 0), BuildingBlock: OJICUG_clean_linker_0, # of connection points: 2
#     Edge 70, Type (0, 0), BuildingBlock: OJICUG_clean_linker_0, # of connection points: 2
#     Edge 71, Type (0, 0), BuildingBlock: OJICUG_clean_linker_0, # of connection points: 2
#     Edge 72, Type (0, 0), BuildingBlock: OJICUG_clean_linker_0, # of connection points: 2
#     Edge 73, Type (0, 0), BuildingBlock: OJICUG_clean_linker_0, # of connection points: 2
#     Edge 74, Type (0, 0), BuildingBlock: OJICUG_clean_linker_0, # of connection points: 2
#     Edge 75, Type (0, 0), BuildingBlock: OJICUG_clean_linker_0, # of connection points: 2
#     Edge 76, Type (0, 0), BuildingBlock: OJICUG_clean_linker_0, # of connection points: 2
#     Edge 77, Type (0, 0), BuildingBlock: OJICUG_clean_linker_0, # of connection points: 2
#     Edge 78, Type (0, 0), BuildingBlock: OJICUG_clean_linker_0, # of connection points: 2
#     Edge 79, Type (0, 0), BuildingBlock: OJICUG_clean_linker_0, # of connection points: 2
#     Edge 80, Type (0, 0), BuildingBlock: OJICUG_clean_linker_0, # of connection points: 2
#     Edge 81, Type (0, 0), BuildingBlock: OJICUG_clean_linker_0, # of connection points: 2
#     Edge 82, Type (0, 0), BuildingBlock: OJICUG_clean_linker_0, # of connection points: 2
#     Edge 83, Type (0, 0), BuildingBlock: OJICUG_clean_linker_0, # of connection points: 2
#     Edge 84, Type (0, 0), BuildingBlock: OJICUG_clean_linker_0, # of connection points: 2
#     Edge 85, Type (0, 0), BuildingBlock: OJICUG_clean_linker_0, # of connection points: 2
#     Edge 86, Type (0, 0), BuildingBlock: OJICUG_clean_linker_0, # of connection points: 2
#     Edge 87, Type (0, 0), BuildingBlock: OJICUG_clean_linker_0, # of connection points: 2
#     Edge 88, Type (0, 0), BuildingBlock: OJICUG_clean_linker_0, # of connection points: 2
#     Edge 89, Type (0, 0), BuildingBlock: OJICUG_clean_linker_0, # of connection points: 2
#     Edge 90, Type (0, 0), BuildingBlock: OJICUG_clean_linker_0, # of connection points: 2
#     Edge 91, Type (0, 0), BuildingBlock: OJICUG_clean_linker_0, # of connection points: 2
#     Edge 92, Type (0, 0), BuildingBlock: OJICUG_clean_linker_0, # of connection points: 2
#     Edge 93, Type (0, 0), BuildingBlock: OJICUG_clean_linker_0, # of connection points: 2
#     Edge 94, Type (0, 0), BuildingBlock: OJICUG_clean_linker_0, # of connection points: 2
#     Edge 95, Type (0, 0), BuildingBlock: OJICUG_clean_linker_0, # of connection points: 2
#     Edge 96, Type (0, 0), BuildingBlock: OJICUG_clean_linker_0, # of connection points: 2
#     Edge 97, Type (0, 0), BuildingBlock: OJICUG_clean_linker_0, # of connection points: 2
#     Edge 98, Type (0, 0), BuildingBlock: OJICUG_clean_linker_0, # of connection points: 2
#     Edge 99, Type (0, 0), BuildingBlock: OJICUG_clean_linker_0, # of connection points: 2
#     Edge 100, Type (0, 0), BuildingBlock: OJICUG_clean_linker_0, # of connection points: 2
#     Edge 101, Type (0, 0), BuildingBlock: OJICUG_clean_linker_0, # of connection points: 2
#     Edge 102, Type (0, 0), BuildingBlock: OJICUG_clean_linker_0, # of connection points: 2
#     Edge 103, Type (0, 0), BuildingBlock: OJICUG_clean_linker_0, # of connection points: 2
#     Edge 104, Type (0, 0), BuildingBlock: OJICUG_clean_linker_0, # of connection points: 2
#     Edge 105, Type (0, 0), BuildingBlock: OJICUG_clean_linker_0, # of connection points: 2
#     Edge 106, Type (0, 0), BuildingBlock: OJICUG_clean_linker_0, # of connection points: 2
#     Edge 107, Type (0, 0), BuildingBlock: OJICUG_clean_linker_0, # of connection points: 2
#     Edge 108, Type (0, 0), BuildingBlock: OJICUG_clean_linker_0, # of connection points: 2
#     Edge 109, Type (0, 0), BuildingBlock: OJICUG_clean_linker_0, # of connection points: 2
#     Edge 110, Type (0, 0), BuildingBlock: OJICUG_clean_linker_0, # of connection points: 2
#     Edge 111, Type (0, 0), BuildingBlock: OJICUG_clean_linker_0, # of connection points: 2
# Relax obj value: 0.170
# Max RMSD: 0.189
# Mean RMSD: 0.188
data_MOF--net-wgp--node1-XOMCOT_clean_sbu_0--edge1-OJICUG_clean_linker_0
_symmetry_space_group_name_H-M    P1
_symmetry_Int_Tables_number       1
_symmetry_cell_setting            triclinic
loop_
_symmetry_equiv_pos_as_xyz
'x, y, z'
_cell_length_a     25.88309
_cell_length_b     25.851215
_cell_length_c     87.724529
_cell_angle_alpha  89.841149
_cell_angle_beta   89.829081
_cell_angle_gamma 89.944145
loop_
_atom_site_label
_atom_site_type_symbol
_atom_site_fract_x
_atom_site_fract_y
_atom_site_fract_z
_atom_type_partial_charge
Co0 Co 0.29808 0.17445 0.09094 0.0
C1 C 0.31236 0.06262 0.09618 0.0
C2 C 0.38324 0.10339 0.09983 0.0
C3 C 0.391 0.05182 0.10317 0.0
N4 N 0.33388 0.11008 0.09531 0.0
N5 N 0.34619 0.02644 0.10093 0.0
H6 H 0.27262 0.05441 0.09337 0.0
H7 H 0.41176 0.13356 0.10093 0.0
C8 C 0.39114 0.2392 0.09953 0.0
O9 O 0.37112 0.24879 0.113 0.0
N10 N 0.2613 0.23789 0.08677 0.0
C11 C 0.22416 0.24354 0.07616 0.0
C12 C 0.20096 0.29085 0.07804 0.0
C13 C 0.25974 0.28161 0.09513 0.0
N14 N 0.22309 0.31466 0.09002 0.0
C15 C 0.27499 0.12123 0.06338 0.0
C16 C 0.32369 0.18976 0.04388 0.0
C17 C 0.29256 0.15067 0.0377 0.0
C18 C 0.26916 0.11535 0.0477 0.0
C19 C 0.32781 0.19485 0.05966 0.0
N20 N 0.30291 0.16125 0.06922 0.0
H21 H 0.25422 0.0953 0.0708 0.0
H22 H 0.34857 0.22773 0.06404 0.0
H23 H 0.21326 0.21449 0.06794 0.0
H24 H 0.28299 0.28807 0.10515 0.0
O25 O 0.23273 0.14167 0.09466 0.0
O26 O 0.27986 0.17898 0.11251 0.0
O27 O 0.36671 0.21129 0.09 0.0
C28 C 0.23864 0.15248 0.10894 0.0
H29 H 0.42668 0.03455 0.1071 0.0
H30 H 0.16992 0.30636 0.07117 0.0
H31 H 0.34326 0.21752 0.03663 0.0
H32 H 0.24401 0.08506 0.04357 0.0
Co33 Co 0.10716 0.04786 0.3377 0.0
C34 C 0.21611 0.06429 0.34648 0.0
C35 C 0.18115 0.13524 0.33919 0.0
C36 C 0.233 0.14382 0.34175 0.0
N37 N 0.17054 0.08517 0.34215 0.0
N38 N 0.25499 0.09891 0.34623 0.0
H39 H 0.22157 0.0239 0.34909 0.0
H40 H 0.15412 0.16306 0.33461 0.0
C41 C 0.04175 0.1405 0.34613 0.0
O42 O 0.03404 0.12007 0.35966 0.0
N43 N 0.04541 1.00912 0.33304 0.0
C44 C 0.04355 0.97061 0.32273 0.0
C45 C 0.99668 0.94634 0.32381 0.0
C46 C 0.99977 1.00715 0.3405 0.0
N47 N 0.96918 0.96893 0.33505 0.0
C48 C 0.16651 0.02713 0.31123 0.0
C49 C 0.09485 0.06285 0.2904 0.0
C50 C 0.13715 0.03367 0.28518 0.0
C51 C 0.17422 0.01743 0.29579 0.0
C52 C 0.08832 0.07128 0.306 0.0
N53 N 0.12305 0.05179 0.31619 0.0
H54 H 0.19385 1.01161 0.31931 0.0
H55 H 0.05344 0.0901 0.3099 0.0
H56 H 0.07488 0.95971 0.31521 0.0
H57 H 0.99008 0.0316 0.35007 0.0
O58 O 0.14054 0.983 0.34194 0.0
O59 O 0.10025 0.03022 0.35927 0.0
O60 O 0.06871 0.11613 0.33624 0.0
C61 C 0.12724 0.98887 0.35607 0.0
H62 H 0.25338 0.17957 0.33949 0.0
H63 H 0.98401 0.91437 0.31682 0.0
H64 H 0.0658 0.07714 0.28259 0.0
H65 H 0.20729 0.99451 0.29237 0.0
Co66 Co 0.21609 0.85722 0.58735 0.0
C67 C 0.20596 0.96766 0.5953 0.0
C68 C 0.13157 0.9347 0.59101 0.0
C69 C 0.12571 0.98693 0.59384 0.0
N70 N 0.18213 0.92262 0.59193 0.0
N71 N 0.17276 1.00762 0.59648 0.0
H72 H 0.24716 0.97173 0.59644 0.0
H73 H 0.1011 0.9082 0.58793 0.0
C74 C 0.12367 0.79254 0.5961 0.0
O75 O 0.14635 0.78104 0.60904 0.0
N76 N 0.25217 0.79357 0.58254 0.0
C77 C 0.28815 0.78971 0.57144 0.0
C78 C 0.31369 0.74359 0.57291 0.0
C79 C 0.25707 0.74971 0.59085 0.0
N80 N 0.29457 0.71854 0.58516 0.0
C81 C 0.23874 0.91438 0.56053 0.0
C82 C 0.19438 0.84611 0.54024 0.0
C83 C 0.22628 0.88579 0.53461 0.0
C84 C 0.24696 0.92132 0.54497 0.0
C85 C 0.18783 0.84003 0.55593 0.0
N86 N 0.21144 0.87298 0.56584 0.0
H87 H 0.25744 0.9404 0.56837 0.0
H88 H 0.16687 0.80669 0.56005 0.0
H89 H 0.29727 0.81955 0.56322 0.0
H90 H 0.23589 0.74201 0.60124 0.0
O91 O 0.28232 0.88762 0.59118 0.0
O92 O 0.23379 0.8502 0.60883 0.0
O93 O 0.14645 0.82182 0.58645 0.0
C94 C 0.27573 0.87585 0.60541 0.0
H95 H 0.08976 1.00822 0.59326 0.0
H96 H 0.34451 0.72987 0.56559 0.0
H97 H 0.17654 0.81845 0.53266 0.0
H98 H 0.27215 0.95232 0.54126 0.0
Co99 Co 0.42612 0.98556 0.83828 0.0
C100 C 0.314 0.97182 0.84252 0.0
C101 C 0.35467 0.90248 0.84847 0.0
C102 C 0.30303 0.89599 0.85192 0.0
N103 N 0.36148 0.95004 0.84245 0.0
N104 N 0.27761 0.9399 0.84826 0.0
H105 H 0.30621 1.01087 0.83882 0.0
H106 H 0.38503 0.87493 0.8508 0.0
C107 C 0.49132 0.89297 0.84722 0.0
O108 O 0.50131 0.91496 0.86035 0.0
N109 N 0.48937 0.02307 0.83416 0.0
C110 C 0.49374 0.06047 0.82348 0.0
C111 C 0.54015 0.0851 0.82519 0.0
C112 C 0.53315 0.02615 0.84246 0.0
N113 N 0.56485 0.0639 0.83718 0.0
C114 C 0.37561 1.01169 0.81031 0.0
C115 C 0.44614 0.96376 0.79133 0.0
C116 C 0.40931 0.99714 0.78493 0.0
C117 C 0.37269 0.01994 0.79461 0.0
C118 C 0.44807 0.95695 0.8071 0.0
N119 N 0.41378 0.98173 0.81645 0.0
H120 H 0.34946 0.0328 0.81756 0.0
H121 H 0.47965 0.93465 0.81169 0.0
H122 H 0.46431 0.07083 0.81532 0.0
H123 H 0.5406 1.00321 0.85253 0.0
O124 O 0.39311 0.05094 0.84231 0.0
O125 O 0.43056 1.00224 0.85986 0.0
O126 O 0.46293 0.91626 0.83746 0.0
C127 C 0.40397 0.04371 0.85656 0.0
H128 H 0.28597 0.86213 0.85718 0.0
H129 H 0.55441 0.11651 0.81818 0.0
H130 H 0.47467 0.94453 0.78428 0.0
H131 H 0.34391 0.04651 0.79025 0.0
Co132 Co 0.30649 0.86131 0.41917 0.0
C133 C 0.32016 0.97084 0.41032 0.0
C134 C 0.3918 0.93724 0.41742 0.0
C135 C 0.39868 0.98972 0.41545 0.0
N136 N 0.34233 0.92536 0.41426 0.0
N137 N 0.35329 1.01101 0.41114 0.0
H138 H 0.27967 0.97518 0.40786 0.0
H139 H 0.42006 0.91067 0.422 0.0
C140 C 0.4 0.79817 0.40986 0.0
O141 O 0.37928 0.79048 0.39641 0.0
N142 N 0.26897 0.79909 0.42443 0.0
C143 C 0.23081 0.79818 0.43493 0.0
C144 C 0.20627 0.75142 0.43435 0.0
C145 C 0.26673 0.75268 0.41741 0.0
N146 N 0.22842 0.72286 0.4233 0.0
C147 C 0.28677 0.91923 0.44599 0.0
C148 C 0.32762 0.84779 0.46613 0.0
C149 C 0.29664 0.88803 0.47181 0.0
C150 C 0.27796 0.92527 0.46156 0.0
C151 C 0.33468 0.84262 0.45045 0.0
N152 N 0.31261 0.87705 0.44061 0.0
H153 H 0.26938 0.94642 0.43817 0.0
H154 H 0.35443 0.80867 0.44628 0.0
H155 H 0.22012 0.83022 0.44217 0.0
H156 H 0.2909 0.74185 0.40786 0.0
O157 O 0.24078 0.89383 0.41553 0.0
O158 O 0.28678 0.85383 0.39784 0.0
O159 O 0.37533 0.82393 0.41994 0.0
C160 C 0.24535 0.88014 0.4014 0.0
H161 H 0.43347 1.01078 0.41823 0.0
H162 H 0.1743 0.73945 0.44152 0.0
H163 H 0.34409 0.81889 0.47364 0.0
H164 H 0.2537 0.9569 0.46533 0.0
Co165 Co 0.42594 0.04836 0.66684 0.0
C166 C 0.31798 0.07535 0.67196 0.0
C167 C 0.35583 0.13247 0.6581 0.0
C168 C 0.30334 0.14157 0.65778 0.0
N169 N 0.36477 0.09089 0.66699 0.0
N170 N 0.27965 0.10502 0.6663 0.0
H171 H 0.31201 0.04067 0.67866 0.0
H172 H 0.38469 0.15173 0.6512 0.0
C173 C 0.5038 0.1333 0.67475 0.0
O174 O 0.52228 0.1052 0.68599 0.0
N175 N 0.48666 1.00278 0.666 0.0
C176 C 0.48402 0.95048 0.66497 0.0
C177 C 0.53239 0.93017 0.66351 0.0
C178 C 0.53782 1.01318 0.66478 0.0
N179 N 0.56618 0.96939 0.66346 0.0
C180 C 0.42925 1.00057 0.6961 0.0
C181 C 0.41372 0.08877 0.71327 0.0
C182 C 0.4192 0.04091 0.72058 0.0
C183 C 0.42687 0.99656 0.71188 0.0
C184 C 0.41694 0.09119 0.69734 0.0
N185 N 0.42601 0.04746 0.68899 0.0
H186 H 0.43219 0.96547 0.68963 0.0
H187 H 0.41178 0.12807 0.6917 0.0
H188 H 0.44934 0.92738 0.66544 0.0
H189 H 0.55443 0.05137 0.66441 0.0
O190 O 0.38196 0.9892 0.66382 0.0
O191 O 0.41582 0.03655 0.6452 0.0
O192 O 0.46906 0.11468 0.66591 0.0
C193 C 0.38693 0.99748 0.6493 0.0
H194 H 0.28397 0.17009 0.65077 0.0
H195 H 0.5422 0.88947 0.66305 0.0
H196 H 0.40691 0.12367 0.71978 0.0
H197 H 0.42999 0.95886 0.71724 0.0
Co198 Co 0.22701 0.17148 0.92069 0.0
C199 C 0.2115 0.06122 0.91324 0.0
C200 C 0.14078 0.09645 0.92052 0.0
C201 C 0.13327 0.04383 0.91931 0.0
N202 N 0.19007 0.10741 0.91676 0.0
N203 N 0.1781 0.02151 0.91488 0.0
H204 H 0.25174 0.05619 0.91047 0.0
H205 H 0.11317 0.12385 0.92501 0.0
C206 C 0.13394 0.2348 0.91144 0.0
O207 O 0.15419 0.24112 0.89782 0.0
N208 N 0.26579 0.23353 0.92505 0.0
C209 C 0.30564 0.23403 0.93491 0.0
C210 C 0.33004 0.28079 0.93403 0.0
C211 C 0.26674 0.28027 0.91812 0.0
N212 N 0.30601 0.30983 0.92343 0.0
C213 C 0.24804 0.11616 0.94808 0.0
C214 C 0.20689 0.18918 0.96763 0.0
C215 C 0.23679 0.14879 0.9737 0.0
C216 C 0.25599 0.11097 0.96373 0.0
C217 C 0.20072 0.19349 0.95191 0.0
N218 N 0.22244 0.158 0.94235 0.0
H219 H 0.2654 0.08829 0.94047 0.0
H220 H 0.18143 0.22734 0.94747 0.0
H221 H 0.3173 0.20177 0.94198 0.0
H222 H 0.24074 0.29167 0.90908 0.0
O223 O 0.29202 0.13782 0.91666 0.0
O224 O 0.24461 0.17705 0.89914 0.0
O225 O 0.15874 0.20971 0.92163 0.0
C226 C 0.28612 0.15063 0.90247 0.0
H227 H 0.09853 0.02353 0.92267 0.0
H228 H 0.36301 0.29256 0.94074 0.0
H229 H 0.19012 0.2186 0.97488 0.0
H230 H 0.27956 0.07925 0.96781 0.0
Co231 Co 0.11919 0.96178 0.16979 0.0
C232 C 0.23089 0.96171 0.16259 0.0
C233 C 0.19899 0.88627 0.15908 0.0
C234 C 0.25117 0.88495 0.15567 0.0
N235 N 0.18636 0.93448 0.1636 0.0
N236 N 0.27107 0.9326 0.15787 0.0
H237 H 0.23451 1.00194 0.16568 0.0
H238 H 0.17266 0.85397 0.15841 0.0
C239 C 0.06156 0.86538 0.15988 0.0
O240 O 0.04782 0.88897 0.14725 0.0
N241 N 0.05342 0.99161 0.17603 0.0
C242 C 0.0484 0.02338 0.18813 0.0
C243 C 1.00145 0.04757 0.18757 0.0
C244 C 1.00898 0.9977 0.16806 0.0
N245 N 0.97676 0.03199 0.17492 0.0
C246 C 0.17557 0.98358 0.19682 0.0
C247 C 0.11232 0.92874 0.21645 0.0
C248 C 0.14781 0.96414 0.22251 0.0
C249 C 0.18125 0.98993 0.21248 0.0
C250 C 0.10754 0.92383 0.20068 0.0
N251 N 0.13759 0.95278 0.19107 0.0
H252 H 0.19881 1.00725 0.18939 0.0
H253 H 0.07655 0.90025 0.19634 0.0
H254 H 0.07816 0.03149 0.19638 0.0
H255 H 1.00188 0.98042 0.15704 0.0
O256 O 0.14446 0.03105 0.16706 0.0
O257 O 0.10829 0.98464 0.14884 0.0
O258 O 0.08922 0.8892 0.16966 0.0
C259 C 0.13144 0.02737 0.15288 0.0
H260 H 0.2728 0.8513 0.15204 0.0
H261 H 0.9872 0.07594 0.19561 0.0
H262 H 0.08635 0.90718 0.22379 0.0
H263 H 0.20891 0.01805 0.21654 0.0
Co264 Co 0.70265 0.8677 0.92533 0.0
C265 C 0.71823 0.97904 0.93067 0.0
C266 C 0.63769 0.96018 0.93066 0.0
C267 C 0.64271 1.01331 0.93072 0.0
N268 N 0.68522 0.93866 0.93043 0.0
N269 N 0.69344 0.02488 0.93044 0.0
H270 H 0.75975 0.97539 0.92992 0.0
H271 H 0.60175 0.93929 0.92962 0.0
C272 C 0.60615 0.80607 0.9311 0.0
O273 O 0.63509 0.77354 0.93883 0.0
N274 N 0.71893 0.79721 0.91955 0.0
C275 C 0.69647 0.77332 0.90763 0.0
C276 C 0.71297 0.72287 0.90712 0.0
C277 C 0.74985 0.76103 0.92596 0.0
N278 N 0.74646 0.71547 0.91862 0.0
C279 C 0.76347 0.84835 0.95169 0.0
C280 C 0.68653 0.85623 0.97334 0.0
C281 C 0.73783 0.84869 0.97819 0.0
C282 C 0.7763 0.84495 0.96703 0.0
C283 C 0.6753 0.85966 0.9577 0.0
N284 N 0.71343 0.85387 0.94702 0.0
H285 H 0.7947 0.84715 0.94355 0.0
H286 H 0.63627 0.86858 0.95426 0.0
H287 H 0.66859 0.79111 0.90009 0.0
H288 H 0.77295 0.76628 0.936 0.0
O289 O 0.77254 0.88831 0.92054 0.0
O290 O 0.7087 0.88805 0.90391 0.0
O291 O 0.62627 0.84752 0.92563 0.0
C292 C 0.75715 0.89781 0.9068 0.0
H293 H 0.61159 0.04107 0.9296 0.0
H294 H 0.70097 0.69369 0.89904 0.0
H295 H 0.65539 0.86021 0.98152 0.0
H296 H 0.81666 0.84135 0.97008 0.0
Co297 Co 0.92584 0.98603 0.67361 0.0
C298 C 0.81614 0.96113 0.67517 0.0
C299 C 0.85913 0.8955 0.66739 0.0
C300 C 0.80713 0.88554 0.66561 0.0
N301 N 0.86464 0.94316 0.67337 0.0
N302 N 0.7803 0.92731 0.67037 0.0
H303 H 0.80723 1.00035 0.67837 0.0
H304 H 0.89029 0.87111 0.66347 0.0
C305 C 0.99352 0.89425 0.66542 0.0
O306 O 0.99541 0.91006 0.65119 0.0
N307 N 0.98542 0.03092 0.67411 0.0
C308 C 0.98362 0.07886 0.68008 0.0
C309 C 0.03132 0.10119 0.67885 0.0
C310 C 0.03473 0.02441 0.66938 0.0
N311 N 0.06351 0.06719 0.67212 0.0
C312 C 0.88518 0.02149 0.702 0.0
C313 C 0.95759 0.97509 0.72062 0.0
C314 C 0.91961 1.00678 0.72721 0.0
C315 C 0.88319 0.03012 0.71763 0.0
C316 C 0.95877 0.96814 0.70484 0.0
N317 N 0.92232 0.99061 0.69571 0.0
H318 H 0.85775 0.0416 0.69495 0.0
H319 H 0.99014 0.94587 0.70012 0.0
H320 H 0.94979 0.09637 0.68517 0.0
H321 H 0.04923 0.98966 0.66404 0.0
O322 O 0.88394 0.04538 0.66864 0.0
O323 O 0.91922 0.99426 0.65144 0.0
O324 O 0.96944 0.9211 0.67537 0.0
C325 C 0.8887 0.03324 0.65444 0.0
H326 H 0.79075 0.85137 0.66043 0.0
H327 H 0.04185 0.13913 0.683 0.0
H328 H 0.98656 0.95609 0.72753 0.0
H329 H 0.85415 0.05631 0.72205 0.0
Co330 Co 0.82901 0.16515 0.42371 0.0
C331 C 0.81294 0.0543 0.43037 0.0
C332 C 0.89351 0.07293 0.43021 0.0
C333 C 0.8883 0.01981 0.43089 0.0
N334 N 0.8461 0.09461 0.4297 0.0
N335 N 0.83754 1.00827 0.4307 0.0
H336 H 0.77146 0.05801 0.42953 0.0
H337 H 0.92955 0.09358 0.42895 0.0
C338 C 0.92505 0.22761 0.42861 0.0
O339 O 0.89603 0.26076 0.43607 0.0
N340 N 0.81273 0.23521 0.41702 0.0
C341 C 0.82678 0.25413 0.40325 0.0
C342 C 0.80754 0.30332 0.40159 0.0
C343 C 0.78596 0.27411 0.4237 0.0
N344 N 0.78206 0.3157 0.41446 0.0
C345 C 0.76734 0.1884 0.44965 0.0
C346 C 0.84267 0.17766 0.47158 0.0
C347 C 0.79112 0.18536 0.47626 0.0
C348 C 0.75353 0.1911 0.46496 0.0
C349 C 0.85492 0.17508 0.45597 0.0
N350 N 0.8175 0.18152 0.44517 0.0
H351 H 0.73686 0.1911 0.44132 0.0
H352 H 0.89404 0.16578 0.45265 0.0
H353 H 0.84944 0.23341 0.39488 0.0
H354 H 0.76916 0.27287 0.43493 0.0
O355 O 0.75921 0.1439 0.41906 0.0
O356 O 0.82403 0.14202 0.40263 0.0
O357 O 0.90522 0.18536 0.42375 0.0
C358 C 0.77541 0.13287 0.40549 0.0
H359 H 0.91938 0.99188 0.43011 0.0
H360 H 0.81206 0.32824 0.39173 0.0
H361 H 0.87318 0.17256 0.47986 0.0
H362 H 0.71306 0.19539 0.46785 0.0
Co363 Co 0.61762 0.07063 0.17161 0.0
C364 C 0.73126 0.07406 0.16879 0.0
C365 C 0.69944 0.14957 0.16516 0.0
C366 C 0.75247 0.15189 0.16319 0.0
N367 N 0.68618 0.10059 0.1688 0.0
N368 N 0.77214 0.10408 0.16536 0.0
H369 H 0.73463 0.03336 0.17136 0.0
H370 H 0.67279 0.18144 0.16381 0.0
C371 C 0.55887 0.1681 0.16234 0.0
O372 O 0.54524 0.14663 0.14942 0.0
N373 N 0.55054 0.03803 0.17453 0.0
C374 C 0.5419 1.00239 0.18552 0.0
C375 C 0.49559 0.97865 0.183 0.0
C376 C 0.50892 0.03471 0.1652 0.0
N377 N 0.47488 0.99848 0.17021 0.0
C378 C 0.66236 0.04355 0.20014 0.0
C379 C 0.59184 0.09484 0.21836 0.0
C380 C 0.62763 0.06121 0.22519 0.0
C381 C 0.66387 0.03634 0.21584 0.0
C382 C 0.5913 0.10061 0.20251 0.0
N383 N 0.62574 0.07428 0.19358 0.0
H384 H 0.68866 0.02142 0.19322 0.0
H385 H 0.56103 0.12368 0.19747 0.0
H386 H 0.56881 0.99184 0.19439 0.0
H387 H 0.50503 0.05563 0.15458 0.0
O388 O 0.64605 1.00285 0.16854 0.0
O389 O 0.61776 0.0531 0.14992 0.0
O390 O 0.58658 0.14284 0.17184 0.0
C391 C 0.64092 1.01031 0.15404 0.0
H392 H 0.77467 0.18595 0.16024 0.0
H393 H 0.4789 0.94801 0.18986 0.0
H394 H 0.56344 0.11537 0.22512 0.0
H395 H 0.69158 1.00914 0.22046 0.0
Co396 Co 0.69292 0.15852 0.59278 0.0
C397 C 0.70498 0.04925 0.58457 0.0
C398 C 0.6261 0.06671 0.59001 0.0
C399 C 0.63116 1.01383 0.58853 0.0
N400 N 0.67263 0.08876 0.58765 0.0
N401 N 0.68102 1.00302 0.58537 0.0
H402 H 0.74616 0.05379 0.58293 0.0
H403 H 0.59182 0.08686 0.59381 0.0
C404 C 0.59769 0.22375 0.58801 0.0
O405 O 0.62685 0.25609 0.58026 0.0
N406 N 0.71238 0.22827 0.59848 0.0
C407 C 0.69483 0.25188 0.61118 0.0
C408 C 0.71232 0.30203 0.61135 0.0
C409 C 0.74087 0.26448 0.59116 0.0
N410 N 0.74123 0.30967 0.59876 0.0
C411 C 0.75345 0.17526 0.56619 0.0
C412 C 0.6757 0.17261 0.54479 0.0
C413 C 0.72728 0.17664 0.53984 0.0
C414 C 0.76612 0.1782 0.55082 0.0
C415 C 0.66457 0.16927 0.56049 0.0
N416 N 0.70327 0.17231 0.57104 0.0
H417 H 0.78482 0.17579 0.57423 0.0
H418 H 0.62519 0.16251 0.56406 0.0
H419 H 0.6695 0.23423 0.61953 0.0
H420 H 0.759 0.25976 0.58021 0.0
O421 O 0.76226 0.13463 0.59712 0.0
O422 O 0.69958 0.1374 0.61415 0.0
O423 O 0.61718 0.18138 0.59304 0.0
C424 C 0.74747 0.12577 0.61096 0.0
H425 H 0.60166 0.9854 0.59108 0.0
H426 H 0.70385 0.33089 0.61992 0.0
H427 H 0.64456 0.17003 0.53661 0.0
H428 H 0.80641 0.18144 0.54757 0.0
Co429 Co 0.61007 0.98232 0.34268 0.0
C430 C 0.72124 0.96019 0.3434 0.0
C431 C 0.67882 0.88958 0.3457 0.0
C432 C 0.73106 0.87864 0.3467 0.0
N433 N 0.67282 0.94097 0.34355 0.0
N434 N 0.75737 0.92344 0.34538 0.0
H435 H 0.73038 1.00053 0.3418 0.0
H436 H 0.64789 0.86176 0.34668 0.0
C437 C 0.54467 0.89013 0.35115 0.0
O438 O 0.54389 0.90654 0.36531 0.0
N439 N 0.54927 0.02559 0.34165 0.0
C440 C 0.54971 0.07313 0.3353 0.0
C441 C 0.50195 0.09518 0.33699 0.0
C442 C 0.50079 0.01904 0.34707 0.0
N443 N 0.47122 0.06138 0.34439 0.0
C444 C 0.65539 1.01426 0.31464 0.0
C445 C 0.57913 0.97719 0.29564 0.0
C446 C 0.61967 1.00649 0.28935 0.0
C447 C 0.65817 0.02479 0.29913 0.0
C448 C 0.57744 0.96804 0.31136 0.0
N449 N 0.61547 0.98643 0.32065 0.0
H450 H 0.68444 0.0308 0.32189 0.0
H451 H 0.54449 0.94787 0.31604 0.0
H452 H 0.58274 0.09065 0.32976 0.0
H453 H 0.48745 0.98467 0.3529 0.0
O454 O 0.6494 0.04303 0.34749 0.0
O455 O 0.61436 0.99166 0.36481 0.0
O456 O 0.56783 0.91666 0.3409 0.0
C457 C 0.64337 0.03172 0.36174 0.0
H458 H 0.74818 0.84088 0.34844 0.0
H459 H 0.49028 0.13274 0.33273 0.0
H460 H 0.54856 0.96203 0.28854 0.0
H461 H 0.68942 0.04888 0.29498 0.0
Co462 Co 0.8282 0.86322 0.09502 0.0
C463 C 0.81516 0.9722 0.08645 0.0
C464 C 0.89352 0.95629 0.09276 0.0
C465 C 0.88759 1.00906 0.09121 0.0
N466 N 0.84784 0.93331 0.0899 0.0
N467 N 0.83803 0.01891 0.0875 0.0
H468 H 0.77434 0.96682 0.08438 0.0
H469 H 0.92757 0.9368 0.09699 0.0
C470 C 0.92473 0.7999 0.09084 0.0
O471 O 0.89678 0.76682 0.08308 0.0
N472 N 0.80931 0.79304 0.10073 0.0
C473 C 0.8241 0.77017 0.11386 0.0
C474 C 0.80688 0.71987 0.11403 0.0
C475 C 0.78312 0.75607 0.0931 0.0
N476 N 0.78111 0.71126 0.10096 0.0
C477 C 0.76984 0.84568 0.06824 0.0
C478 C 0.84875 0.85262 0.04715 0.0
C479 C 0.79752 0.84825 0.04201 0.0
C480 C 0.75812 0.84426 0.05282 0.0
C481 C 0.85891 0.85431 0.0629 0.0
N482 N 0.81964 0.8495 0.07328 0.0
H483 H 0.73805 0.84351 0.07618 0.0
H484 H 0.89791 0.86158 0.06666 0.0
H485 H 0.84704 0.78852 0.12259 0.0
H486 H 0.76779 0.76008 0.08178 0.0
O487 O 0.75831 0.88614 0.09895 0.0
O488 O 0.8199 0.88433 0.11628 0.0
O489 O 0.90407 0.84186 0.09566 0.0
C490 C 0.77224 0.89565 0.11279 0.0
H491 H 0.91609 0.03804 0.09409 0.0
H492 H 0.81308 0.69177 0.12301 0.0
H493 H 0.88027 0.85692 0.0391 0.0
H494 H 0.71811 0.84055 0.04939 0.0
Co495 Co 0.92211 0.05912 0.84578 0.0
C496 C 0.81048 0.07842 0.84698 0.0
C497 C 0.85122 0.14913 0.85089 0.0
C498 C 0.79871 0.15857 0.8521 0.0
N499 N 0.85844 0.09866 0.84757 0.0
N500 N 0.7735 0.11367 0.84978 0.0
H501 H 0.80225 0.03844 0.84446 0.0
H502 H 0.88151 0.17724 0.85253 0.0
C503 C 0.98702 0.15156 0.85514 0.0
O504 O 0.99095 0.13339 0.86909 0.0
N505 N 0.98386 0.01748 0.84374 0.0
C506 C 0.9843 0.97303 0.83576 0.0
C507 C 0.03202 0.95072 0.83687 0.0
C508 C 0.03189 0.02181 0.84965 0.0
N509 N 0.06201 0.98103 0.84562 0.0
C510 C 0.87812 0.03382 0.81697 0.0
C511 C 0.95487 0.0776 0.79919 0.0
C512 C 0.91576 0.04894 0.79209 0.0
C513 C 0.87676 0.02739 0.80123 0.0
C514 C 0.95526 0.08239 0.81503 0.0
N515 N 0.9171 0.0607 0.82373 0.0
H516 H 0.84906 1.01474 0.82374 0.0
H517 H 0.98771 0.10162 0.82021 0.0
H518 H 0.95177 0.95771 0.82953 0.0
H519 H 0.04435 0.05332 0.85682 0.0
O520 O 0.88408 0.99645 0.84951 0.0
O521 O 0.91822 0.04456 0.86765 0.0
O522 O 0.96255 0.12598 0.84505 0.0
C523 C 0.8899 1.00473 0.86393 0.0
H524 H 0.78062 0.19532 0.85466 0.0
H525 H 0.04406 0.91526 0.83136 0.0
H526 H 0.98564 0.09535 0.79264 0.0
H527 H 0.84649 1.00376 0.79639 0.0
Co528 Co 0.82031 0.65592 0.5894 0.0
C529 C 0.81016 0.54726 0.58062 0.0
C530 C 0.88822 0.56532 0.58665 0.0
C531 C 0.88344 0.51235 0.58563 0.0
N532 N 0.84197 0.58707 0.5837 0.0
N533 N 0.83399 0.50108 0.58216 0.0
H534 H 0.7691 0.55173 0.57878 0.0
H535 H 0.92164 0.58579 0.59085 0.0
C536 C 0.91323 0.7234 0.58396 0.0
O537 O 0.88252 0.75567 0.57676 0.0
N538 N 0.79995 0.72485 0.59584 0.0
C539 C 0.81691 0.74603 0.60894 0.0
C540 C 0.80007 0.79622 0.60982 0.0
C541 C 0.7726 0.76285 0.5889 0.0
N542 N 0.77241 0.80677 0.59721 0.0
C543 C 0.75838 0.67504 0.56294 0.0
C544 C 0.83643 0.67036 0.54149 0.0
C545 C 0.78519 0.67577 0.53636 0.0
C546 C 0.74607 0.67822 0.54744 0.0
C547 C 0.84707 0.6671 0.55717 0.0
N548 N 0.8084 0.67097 0.56776 0.0
H549 H 0.72715 0.67522 0.57112 0.0
H550 H 0.88628 0.65954 0.5607 0.0
H551 H 0.84157 0.72677 0.61711 0.0
H552 H 0.75543 0.76014 0.57777 0.0
O553 O 0.7519 0.62966 0.59451 0.0
O554 O 0.81697 0.6331 0.61065 0.0
O555 O 0.89528 0.68038 0.58898 0.0
C556 C 0.76919 0.61998 0.6081 0.0
H557 H 0.91247 0.48436 0.58895 0.0
H558 H 0.80816 0.82316 0.61893 0.0
H559 H 0.86823 0.66786 0.53348 0.0
H560 H 0.7058 0.68064 0.54422 0.0
Co561 Co 0.62076 0.58504 0.84114 0.0
C562 C 0.72913 0.57252 0.83202 0.0
C563 C 0.71209 0.65135 0.83758 0.0
C564 C 0.7649 0.64578 0.83643 0.0
N565 N 0.68975 0.60514 0.83501 0.0
N566 N 0.77557 0.59586 0.83327 0.0
H567 H 0.72416 0.53136 0.83043 0.0
H568 H 0.69217 0.68545 0.84162 0.0
C569 C 0.55535 0.67974 0.83588 0.0
O570 O 0.52224 0.64959 0.82888 0.0
N571 N 0.55181 0.56632 0.84802 0.0
C572 C 0.53152 0.58374 0.86123 0.0
C573 C 0.48137 0.56711 0.8625 0.0
C574 C 0.51332 0.53905 0.84141 0.0
N575 N 0.47001 0.53913 0.85003 0.0
C576 C 0.59906 0.5227 0.81516 0.0
C577 C 0.605 0.59904 0.79318 0.0
C578 C 0.59886 0.54739 0.78851 0.0
C579 C 0.59544 0.50924 0.79982 0.0
C580 C 0.60869 0.61092 0.80879 0.0
N581 N 0.60436 0.57303 0.81964 0.0
H582 H 0.59793 0.49199 0.82351 0.0
H583 H 0.61721 0.65023 0.81206 0.0
H584 H 0.55148 0.60827 0.86925 0.0
H585 H 0.51522 0.52152 0.83031 0.0
O586 O 0.64551 0.51599 0.84593 0.0
O587 O 0.64485 0.58056 0.86228 0.0
O588 O 0.59793 0.66075 0.84082 0.0
C589 C 0.65658 0.53245 0.85946 0.0
H590 H 0.7932 0.67476 0.83947 0.0
H591 H 0.45512 0.57533 0.87182 0.0
H592 H 0.60922 0.62972 0.78484 0.0
H593 H 0.59057 0.4689 0.79685 0.0
Co594 Co 0.69681 0.36491 0.08947 0.0
C595 C 0.71272 0.47448 0.08199 0.0
C596 C 0.63232 0.45767 0.085 0.0
C597 C 0.63854 0.51061 0.08451 0.0
N598 N 0.67907 0.43503 0.08362 0.0
N599 N 0.6893 0.52097 0.08295 0.0
H600 H 0.75419 0.46959 0.08152 0.0
H601 H 0.59677 0.43776 0.08771 0.0
C602 C 0.60109 0.30215 0.08437 0.0
O603 O 0.6301 0.26839 0.07714 0.0
N604 N 0.7134 0.29507 0.09603 0.0
C605 C 0.69349 0.27373 0.10881 0.0
C606 C 0.71001 0.22344 0.10998 0.0
C607 C 0.74229 0.25723 0.08963 0.0
N608 N 0.74057 0.21315 0.09791 0.0
C609 C 0.75911 0.3438 0.06327 0.0
C610 C 0.68266 0.35129 0.04154 0.0
C611 C 0.73412 0.34467 0.03664 0.0
C612 C 0.77236 0.34075 0.04786 0.0
C613 C 0.67104 0.35439 0.05718 0.0
N614 N 0.70893 0.34925 0.06791 0.0
H615 H 0.78993 0.34266 0.07151 0.0
H616 H 0.63184 0.36296 0.06057 0.0
H617 H 0.66754 0.2932 0.1166 0.0
H618 H 0.76261 0.26036 0.07894 0.0
O619 O 0.76604 0.38697 0.09456 0.0
O620 O 0.70032 0.38754 0.11066 0.0
O621 O 0.62095 0.34447 0.08911 0.0
C622 C 0.74878 0.39803 0.10806 0.0
H623 H 0.60883 0.53906 0.08683 0.0
H624 H 0.70014 0.19643 0.11898 0.0
H625 H 0.65156 0.35501 0.03339 0.0
H626 H 0.81279 0.33746 0.04482 0.0
Co627 Co 0.91085 0.44781 0.33868 0.0
C628 C 0.80235 0.46317 0.33043 0.0
C629 C 0.81756 0.38384 0.33596 0.0
C630 C 0.76482 0.39098 0.33527 0.0
N631 N 0.84102 0.42938 0.3331 0.0
N632 N 0.75541 0.44118 0.33211 0.0
H633 H 0.80826 0.5042 0.32874 0.0
H634 H 0.83684 0.34919 0.33988 0.0
C635 C 0.97469 0.35202 0.33339 0.0
O636 O 1.00794 0.38167 0.32616 0.0
N637 N 0.98052 0.4652 0.34502 0.0
C638 C 1.00202 0.44532 0.35773 0.0
C639 C 0.05221 0.46186 0.35877 0.0
C640 C 0.01818 0.49419 0.3385 0.0
N641 N 0.06238 0.49241 0.34667 0.0
C642 C 0.93118 0.50898 0.31199 0.0
C643 C 0.92599 0.43068 0.29075 0.0
C644 C 0.93232 0.48181 0.28544 0.0
C645 C 0.93478 0.52105 0.29645 0.0
C646 C 0.92184 0.42036 0.30646 0.0
N647 N 0.92619 0.45908 0.31697 0.0
H648 H 0.93151 0.54043 0.32005 0.0
H649 H 0.91338 0.38131 0.31006 0.0
H650 H 0.98275 0.41931 0.36557 0.0
H651 H 1.01473 0.51462 0.32784 0.0
O652 O 0.88766 0.51736 0.34372 0.0
O653 O 0.88825 0.45224 0.35997 0.0
O654 O 0.93231 0.37155 0.33839 0.0
C655 C 0.87687 0.50054 0.35731 0.0
H656 H 0.73586 0.36285 0.33855 0.0
H657 H 0.07925 0.45199 0.36771 0.0
H658 H 0.9235 0.39864 0.28288 0.0
H659 H 0.93762 0.56134 0.29318 0.0
Co660 Co 0.82924 0.36932 0.91942 0.0
C661 C 0.82243 0.47568 0.93036 0.0
C662 C 0.8969 0.46002 0.92066 0.0
C663 C 0.89241 0.51254 0.92294 0.0
N664 N 0.8527 0.43719 0.92517 0.0
N665 N 0.84508 0.52246 0.92878 0.0
H666 H 0.7828 0.46984 0.93389 0.0
H667 H 0.92802 0.44078 0.91468 0.0
C668 C 0.92238 0.30088 0.92402 0.0
O669 O 0.89252 0.26848 0.9315 0.0
N670 N 0.80669 0.30091 0.91306 0.0
C671 C 0.81792 0.28021 0.89933 0.0
C672 C 0.8002 0.23015 0.89889 0.0
C673 C 0.78238 0.26265 0.92082 0.0
N674 N 0.77791 0.21926 0.91241 0.0
C675 C 0.76754 0.35108 0.94582 0.0
C676 C 0.84498 0.35257 0.96736 0.0
C677 C 0.79334 0.34896 0.97231 0.0
C678 C 0.75461 0.34789 0.96123 0.0
C679 C 0.85634 0.35607 0.95168 0.0
N680 N 0.81781 0.35389 0.94105 0.0
H681 H 0.73652 0.35099 0.93762 0.0
H682 H 0.89585 0.36253 0.94817 0.0
H683 H 0.83911 0.29962 0.89035 0.0
H684 H 0.77083 0.26455 0.9326 0.0
O685 O 0.76129 0.39765 0.91507 0.0
O686 O 0.82457 0.39324 0.89824 0.0
O687 O 0.90382 0.34376 0.91914 0.0
C688 C 0.77746 0.40763 0.90139 0.0
H689 H 0.91958 0.54145 0.91899 0.0
H690 H 0.80405 0.20362 0.88943 0.0
H691 H 0.87614 0.35484 0.97554 0.0
H692 H 0.71427 0.34489 0.96442 0.0
Co693 Co 0.92232 0.56213 0.16679 0.0
C694 C 0.81827 0.58387 0.17758 0.0
C695 C 0.84484 0.64264 0.16216 0.0
C696 C 0.79191 0.64681 0.16357 0.0
N697 N 0.86115 0.60266 0.17081 0.0
N698 N 0.77542 0.60944 0.17316 0.0
H699 H 0.81763 0.54803 0.184 0.0
H700 H 0.86866 0.66319 0.15401 0.0
C701 C 0.99731 0.65234 0.17296 0.0
O702 O 0.01636 0.62882 0.18498 0.0
N703 N 0.98317 0.51958 0.16192 0.0
C704 C 0.98116 0.47028 0.15672 0.0
C705 C 0.02995 0.45253 0.15391 0.0
C706 C 0.03438 0.53069 0.16216 0.0
N707 N 0.06351 0.4903 0.15731 0.0
C708 C 0.94361 0.50499 0.19398 0.0
C709 C 0.92722 0.58336 0.2148 0.0
C710 C 0.93644 0.53302 0.22029 0.0
C711 C 0.945 0.49381 0.20958 0.0
C712 C 0.92531 0.59282 0.19899 0.0
N713 N 0.93435 0.55397 0.18875 0.0
H714 H 0.94783 0.47339 0.18608 0.0
H715 H 0.91573 0.63125 0.195 0.0
H716 H 0.94682 0.44723 0.1553 0.0
H717 H 0.05049 0.56715 0.16563 0.0
O718 O 0.8778 0.50258 0.16424 0.0
O719 O 0.90051 0.5563 0.14566 0.0
O720 O 0.9632 0.62971 0.16476 0.0
C721 C 0.87384 0.51605 0.15 0.0
H722 H 0.76716 0.67263 0.15715 0.0
H723 H 0.0401 0.41392 0.1502 0.0
H724 H 0.91957 0.61475 0.22264 0.0
H725 H 0.95209 0.45437 0.21323 0.0
Co726 Co 0.70392 0.6613 0.41802 0.0
C727 C 0.70559 0.55129 0.42668 0.0
C728 C 0.63147 0.57469 0.41819 0.0
C729 C 0.63264 0.52158 0.41904 0.0
N730 N 0.67747 0.59329 0.4228 0.0
N731 N 0.67936 0.50704 0.42427 0.0
H732 H 0.74634 0.55259 0.42938 0.0
H733 H 0.6012 0.59744 0.41298 0.0
C734 C 0.61147 0.73158 0.42264 0.0
O735 O 0.64084 0.76247 0.43071 0.0
N736 N 0.72921 0.73001 0.41254 0.0
C737 C 0.72111 0.7518 0.39875 0.0
C738 C 0.73827 0.80202 0.3989 0.0
C739 C 0.75119 0.768 0.42096 0.0
N740 N 0.75706 0.8122 0.41287 0.0
C741 C 0.76289 0.67575 0.44508 0.0
C742 C 0.68287 0.67284 0.46594 0.0
C743 C 0.73389 0.67579 0.47139 0.0
C744 C 0.77396 0.67755 0.46063 0.0
C745 C 0.67342 0.6708 0.45015 0.0
N746 N 0.7132 0.67365 0.43988 0.0
H747 H 0.79479 0.6764 0.43712 0.0
H748 H 0.6343 0.66512 0.44625 0.0
H749 H 0.70202 0.7332 0.38929 0.0
H750 H 0.75973 0.76532 0.43294 0.0
O751 O 0.77147 0.63125 0.41386 0.0
O752 O 0.71005 0.63997 0.39667 0.0
O753 O 0.63012 0.68924 0.41742 0.0
C754 C 0.75625 0.62346 0.39999 0.0
H755 H 0.6034 0.49553 0.41475 0.0
H756 H 0.7362 0.82928 0.38953 0.0
H757 H 0.65068 0.67008 0.47381 0.0
H758 H 0.81391 0.68013 0.46419 0.0
Co759 Co 0.61875 0.44895 0.67158 0.0
C760 C 0.72564 0.46252 0.68156 0.0
C761 C 0.71235 0.3851 0.67384 0.0
C762 C 0.76474 0.39206 0.67572 0.0
N763 N 0.68802 0.42954 0.67738 0.0
N764 N 0.77315 0.44115 0.68032 0.0
H765 H 0.71853 0.50273 0.68421 0.0
H766 H 0.69406 0.35168 0.66881 0.0
C767 C 0.55228 0.35329 0.6757 0.0
O768 O 0.514 0.38343 0.67989 0.0
N769 N 0.54947 0.46842 0.66519 0.0
C770 C 0.52797 0.45355 0.65191 0.0
C771 C 0.47802 0.4715 0.65129 0.0
C772 C 0.5121 0.49573 0.67242 0.0
N773 N 0.46809 0.49786 0.6642 0.0
C774 C 0.6017 0.51284 0.69766 0.0
C775 C 0.59954 0.43587 0.71949 0.0
C776 C 0.59703 0.48777 0.72429 0.0
C777 C 0.59797 0.52628 0.71302 0.0
C778 C 0.60338 0.42401 0.70389 0.0
N779 N 0.60341 0.46231 0.69311 0.0
H780 H 0.60332 0.54367 0.68936 0.0
H781 H 0.60828 0.38409 0.70063 0.0
H782 H 0.54686 0.42992 0.6434 0.0
H783 H 0.51541 0.51163 0.6837 0.0
O784 O 0.6436 0.51741 0.66603 0.0
O785 O 0.64131 0.45133 0.65022 0.0
O786 O 0.59686 0.37274 0.67278 0.0
C787 C 0.65345 0.49958 0.65255 0.0
H788 H 0.79445 0.3648 0.6724 0.0
H789 H 0.45097 0.46522 0.64209 0.0
H790 H 0.59928 0.40454 0.7277 0.0
H791 H 0.59762 0.56689 0.71601 0.0
Co792 Co 0.22636 0.3618 0.42236 0.0
C793 C 0.20932 0.47392 0.42103 0.0
C794 C 0.13874 0.43413 0.41626 0.0
C795 C 0.13092 0.48663 0.41419 0.0
N796 N 0.18809 0.42629 0.42064 0.0
N797 N 0.17578 0.51122 0.41702 0.0
H798 H 0.24914 0.48153 0.42385 0.0
H799 H 0.11071 0.40411 0.41414 0.0
C800 C 0.13321 0.29729 0.41334 0.0
O801 O 0.15128 0.29257 0.39941 0.0
N802 N 0.26668 0.29915 0.42416 0.0
C803 C 0.31034 0.2965 0.43247 0.0
C804 C 0.3338 0.24981 0.42997 0.0
C805 C 0.26408 0.25368 0.41663 0.0
N806 N 0.30496 0.22298 0.41999 0.0
C807 C 0.25319 0.40555 0.45107 0.0
C808 C 0.20843 0.32993 0.46907 0.0
C809 C 0.23765 0.36891 0.47604 0.0
C810 C 0.25979 0.40726 0.46679 0.0
C811 C 0.20342 0.32919 0.45323 0.0
N812 N 0.22556 0.36685 0.44442 0.0
H813 H 0.2727 0.43412 0.44422 0.0
H814 H 0.18356 0.29694 0.44813 0.0
H815 H 0.32494 0.3272 0.4396 0.0
H816 H 0.23423 0.24381 0.40856 0.0
O817 O 0.2896 0.39849 0.41853 0.0
O818 O 0.24028 0.36566 0.40046 0.0
O819 O 0.15876 0.32251 0.42328 0.0
C820 C 0.28073 0.39315 0.40412 0.0
H821 H 0.09561 0.50501 0.4104 0.0
H822 H 0.3693 0.2364 0.43515 0.0
H823 H 0.1903 0.2996 0.47572 0.0
H824 H 0.28392 0.43734 0.47154 0.0
Co825 Co 0.42636 0.47412 0.17575 0.0
C826 C 0.31502 0.47072 0.16888 0.0
C827 C 0.35184 0.40054 0.16178 0.0
C828 C 0.30053 0.3989 0.15753 0.0
N829 N 0.36083 0.44562 0.16901 0.0
N830 N 0.27759 0.44321 0.16205 0.0
H831 H 0.3094 0.50963 0.17299 0.0
H832 H 0.38049 0.3713 0.15935 0.0
C833 C 0.50282 0.38214 0.1768 0.0
O834 O 0.53623 0.40938 0.18462 0.0
N835 N 0.49054 0.5055 0.18262 0.0
C836 C 0.49612 0.53067 0.19599 0.0
C837 C 0.54472 0.55098 0.19682 0.0
C838 C 0.53567 0.51348 0.17509 0.0
N839 N 0.56972 0.54011 0.18377 0.0
C840 C 0.36986 0.49542 0.2028 0.0
C841 C 0.42976 0.43812 0.22253 0.0
C842 C 0.39829 0.47762 0.22849 0.0
C843 C 0.3658 0.50411 0.21841 0.0
C844 C 0.43287 0.43083 0.20671 0.0
N845 N 0.40591 0.46214 0.19699 0.0
H846 H 0.34767 0.52012 0.19544 0.0
H847 H 0.45992 0.40284 0.20252 0.0
H848 H 0.4666 0.53578 0.20454 0.0
H849 H 0.5437 0.49942 0.16372 0.0
O850 O 0.3987 0.54319 0.1736 0.0
O851 O 0.43734 0.49999 0.15512 0.0
O852 O 0.45877 0.40175 0.17327 0.0
C853 C 0.41165 0.54102 0.15934 0.0
H854 H 0.28174 0.36761 0.15155 0.0
H855 H 0.56017 0.57337 0.20617 0.0
H856 H 0.45399 0.41489 0.2299 0.0
H857 H 0.34058 0.53484 0.22227 0.0
Co858 Co 0.30488 0.67064 0.92602 0.0
C859 C 0.32247 0.55889 0.92351 0.0
C860 C 0.39229 0.59987 0.91848 0.0
C861 C 0.40017 0.54784 0.91567 0.0
N862 N 0.34341 0.60667 0.9235 0.0
N863 N 0.35577 0.5225 0.91867 0.0
H864 H 0.28292 0.55065 0.92657 0.0
H865 H 0.41985 0.6304 0.91636 0.0
C866 C 0.39733 0.73615 0.91722 0.0
O867 O 0.37877 0.74122 0.90338 0.0
N868 N 0.26447 0.73294 0.92853 0.0
C869 C 0.22133 0.73505 0.93716 0.0
C870 C 0.19775 0.78195 0.935 0.0
C871 C 0.26656 0.77883 0.92114 0.0
N872 N 0.22596 0.80938 0.92491 0.0
C873 C 0.2772 0.62269 0.95423 0.0
C874 C 0.32144 0.69539 0.97313 0.0
C875 C 0.29122 0.65592 0.97962 0.0
C876 C 0.26963 0.61889 0.96991 0.0
C877 C 0.32755 0.69818 0.95731 0.0
N878 N 0.30539 0.66212 0.94804 0.0
H879 H 0.25772 0.5953 0.94705 0.0
H880 H 0.34809 0.73085 0.95261 0.0
H881 H 0.20707 0.70385 0.94423 0.0
H882 H 0.29575 0.78905 0.91283 0.0
O883 O 0.24179 0.63433 0.92182 0.0
O884 O 0.29116 0.66997 0.9041 0.0
O885 O 0.37229 0.71021 0.92722 0.0
C886 C 0.25082 0.64176 0.90747 0.0
H887 H 0.43512 0.53039 0.91123 0.0
H888 H 0.16252 0.79498 0.94046 0.0
H889 H 0.33929 0.72472 0.98015 0.0
H890 H 0.24488 0.58847 0.97425 0.0
Co891 Co 0.11745 0.58577 0.67529 0.0
C892 C 0.22842 0.567 0.68054 0.0
C893 C 0.21214 0.64818 0.6795 0.0
C894 C 0.26502 0.64139 0.67969 0.0
N895 N 0.18916 0.60137 0.67987 0.0
N896 N 0.27504 0.59024 0.68008 0.0
H897 H 0.22335 0.52552 0.68039 0.0
H898 H 0.19242 0.6847 0.67804 0.0
C899 C 0.05912 0.68473 0.68092 0.0
O900 O 0.02611 0.65739 0.689 0.0
N901 N 0.04607 0.57113 0.67008 0.0
C902 C 0.02154 0.59417 0.65833 0.0
C903 C 0.97102 0.57798 0.65808 0.0
C904 C 1.01012 0.54022 0.67665 0.0
N905 N 0.96406 0.54412 0.66959 0.0
C906 C 0.09892 0.5259 0.70197 0.0
C907 C 0.10947 0.60313 0.72331 0.0
C908 C 0.10138 0.55199 0.72837 0.0
C909 C 0.09633 0.51337 0.71736 0.0
C910 C 0.11207 0.61405 0.70761 0.0
N911 N 0.10497 0.57579 0.6971 0.0
H912 H 0.09674 0.4945 0.69395 0.0
H913 H 0.12142 0.65289 0.704 0.0
H914 H 0.03907 0.62192 0.65065 0.0
H915 H 0.01608 0.51638 0.68655 0.0
O916 O 0.13616 0.5152 0.67059 0.0
O917 O 0.13599 0.57892 0.65379 0.0
O918 O 0.09946 0.66281 0.67537 0.0
C919 C 0.14509 0.53029 0.65677 0.0
H920 H 0.2937 0.6715 0.67829 0.0
H921 H 0.94163 0.59014 0.65007 0.0
H922 H 0.11449 0.63435 0.73137 0.0
H923 H 0.09232 0.47307 0.72055 0.0
Co924 Co 0.22887 0.67253 0.09733 0.0
C925 C 0.21368 0.5606 0.1018 0.0
C926 C 0.14201 0.60091 0.10471 0.0
C927 C 0.13325 0.5486 0.10655 0.0
N928 N 0.19254 0.60833 0.10155 0.0
N929 N 0.17851 0.52348 0.10471 0.0
H930 H 0.25382 0.55267 0.09935 0.0
H931 H 0.11302 0.63086 0.1054 0.0
C932 C 0.13523 0.73745 0.10604 0.0
O933 O 0.15472 0.74648 0.11957 0.0
N934 N 0.26669 0.73517 0.09301 0.0
C935 C 0.30664 0.73742 0.08315 0.0
C936 C 0.32931 0.78506 0.08413 0.0
C937 C 0.26582 0.78157 0.10004 0.0
N938 N 0.30396 0.81275 0.09479 0.0
C939 C 0.25264 0.62034 0.0695 0.0
C940 C 0.20684 0.69182 0.05034 0.0
C941 C 0.2383 0.65319 0.04399 0.0
C942 C 0.26016 0.61631 0.0538 0.0
C943 C 0.20093 0.69495 0.06612 0.0
N944 N 0.22446 0.65998 0.07554 0.0
H945 H 0.27267 0.59353 0.07681 0.0
H946 H 0.18017 0.72767 0.07067 0.0
H947 H 0.31947 0.7059 0.076 0.0
H948 H 0.23937 0.79165 0.10911 0.0
O949 O 0.29403 0.63904 0.10113 0.0
O950 O 0.24701 0.67718 0.11891 0.0
O951 O 0.16032 0.71015 0.09642 0.0
C952 C 0.28848 0.65088 0.11536 0.0
H953 H 0.09632 0.53046 0.10879 0.0
H954 H 0.36199 0.79836 0.07746 0.0
H955 H 0.18839 0.72071 0.04324 0.0
H956 H 0.28544 0.58624 0.04953 0.0
Co957 Co 0.1184 0.45649 0.84518 0.0
C958 C 0.22829 0.47019 0.83787 0.0
C959 C 0.2111 0.39053 0.84241 0.0
C960 C 0.26396 0.39604 0.84123 0.0
N961 N 0.18886 0.43725 0.84043 0.0
N962 N 0.27456 0.44634 0.83862 0.0
H963 H 0.2236 0.51154 0.83656 0.0
H964 H 0.19099 0.3556 0.8457 0.0
C965 C 0.0553 0.3605 0.84008 0.0
O966 O 0.02297 0.3891 0.83219 0.0
N967 N 0.04793 0.47493 0.85048 0.0
C968 C 0.02337 0.45676 0.86298 0.0
C969 C 0.97301 0.47361 0.86283 0.0
C970 C 1.01207 0.50314 0.84296 0.0
N971 N 0.96617 0.5027 0.85024 0.0
C972 C 0.10351 0.51728 0.81855 0.0
C973 C 0.10875 0.43947 0.79716 0.0
C974 C 0.10478 0.4911 0.7922 0.0
C975 C 0.10197 0.52999 0.80316 0.0
C976 C 0.11075 0.42834 0.81286 0.0
N977 N 0.10643 0.46704 0.82339 0.0
H978 H 0.10197 0.54865 0.8266 0.0
H979 H 0.11753 0.38895 0.81645 0.0
H980 H 0.04055 0.43146 0.8714 0.0
H981 H 0.01768 0.52168 0.83209 0.0
O982 O 0.14075 0.52602 0.84981 0.0
O983 O 0.1374 0.46247 0.86663 0.0
O984 O 0.09696 0.38058 0.84523 0.0
C985 C 0.14876 0.51058 0.86363 0.0
H986 H 0.29243 0.36633 0.84352 0.0
H987 H 0.94351 0.46462 0.8712 0.0
H988 H 0.11228 0.40831 0.789 0.0
H989 H 0.09874 0.5703 0.79988 0.0
Co990 Co 0.29707 0.36187 0.59458 0.0
C991 C 0.31637 0.47327 0.59415 0.0
C992 C 0.3867 0.43327 0.59923 0.0
C993 C 0.3955 0.48605 0.60016 0.0
N994 N 0.33687 0.42547 0.59535 0.0
N995 N 0.35073 0.51071 0.59716 0.0
H996 H 0.27653 0.48107 0.59139 0.0
H997 H 0.41446 0.40316 0.60168 0.0
C998 C 0.38978 0.29585 0.60314 0.0
O999 O 0.37218 0.29176 0.61715 0.0
N1000 N 0.25457 0.30043 0.59353 0.0
C1001 C 0.20716 0.30136 0.58721 0.0
C1002 C 0.18463 0.25389 0.58884 0.0
C1003 C 0.26065 0.25161 0.59883 0.0
N1004 N 0.21799 0.22261 0.59616 0.0
C1005 C 0.26446 0.40336 0.56602 0.0
C1006 C 0.31073 0.32979 0.54772 0.0
C1007 C 0.27958 0.36785 0.54094 0.0
C1008 C 0.25644 0.40497 0.55035 0.0
C1009 C 0.31709 0.32904 0.56352 0.0
N1010 N 0.29451 0.36593 0.57248 0.0
H1011 H 0.24437 0.43115 0.57295 0.0
H1012 H 0.33874 0.29754 0.56845 0.0
H1013 H 0.18988 0.33465 0.58174 0.0
H1014 H 0.29482 0.23763 0.60458 0.0
O1015 O 0.23551 0.40073 0.5991 0.0
O1016 O 0.28644 0.36698 0.61665 0.0
O1017 O 0.36387 0.32091 0.59318 0.0
C1018 C 0.24624 0.39552 0.6134 0.0
H1019 H 0.43141 0.50468 0.60323 0.0
H1020 H 0.14701 0.24273 0.58462 0.0
H1021 H 0.32959 0.30033 0.54094 0.0
H1022 H 0.23071 0.43415 0.54578 0.0
Co1023 Co 0.41319 0.58492 0.34323 0.0
C1024 C 0.30353 0.56866 0.33597 0.0
C1025 C 0.31818 0.64795 0.34158 0.0
C1026 C 0.26554 0.64107 0.34024 0.0
N1027 N 0.34188 0.60235 0.33899 0.0
N1028 N 0.25648 0.59099 0.33693 0.0
H1029 H 0.30962 0.52779 0.33406 0.0
H1030 H 0.33721 0.68289 0.3453 0.0
C1031 C 0.47262 0.68216 0.33704 0.0
O1032 O 0.50335 0.65405 0.32845 0.0
N1033 N 0.48468 0.56852 0.34815 0.0
C1034 C 0.50881 0.58721 0.36059 0.0
C1035 C 0.5593 0.57063 0.3606 0.0
C1036 C 0.52121 0.54056 0.34077 0.0
N1037 N 0.56682 0.54123 0.34814 0.0
C1038 C 0.43146 0.52632 0.31648 0.0
C1039 C 0.4099 0.60257 0.29539 0.0
C1040 C 0.41996 0.55204 0.29036 0.0
C1041 C 0.43133 0.51398 0.30109 0.0
C1042 C 0.41207 0.61376 0.31105 0.0
N1043 N 0.424 0.57591 0.32139 0.0
H1044 H 0.43671 0.49509 0.32449 0.0
H1045 H 0.40167 0.65207 0.31488 0.0
H1046 H 0.49102 0.61214 0.36898 0.0
H1047 H 0.51636 0.52157 0.33 0.0
O1048 O 0.39297 0.51461 0.34761 0.0
O1049 O 0.3952 0.57697 0.36475 0.0
O1050 O 0.43277 0.66133 0.3432 0.0
C1051 C 0.38474 0.52885 0.36152 0.0
H1052 H 0.23615 0.66959 0.34281 0.0
H1053 H 0.5882 0.57945 0.3691 0.0
H1054 H 0.39951 0.63267 0.28735 0.0
H1055 H 0.43762 0.47421 0.29767 0.0
C1056 C 0.16687 0.09191 0.1156 0.0
C1057 C 0.20431 0.12798 0.12038 0.0
H1058 H 0.11424 0.03168 0.12211 0.0
C1059 C 0.21225 0.13511 0.13601 0.0
H1060 H 0.15971 0.08545 0.1036 0.0
C1061 C 0.18553 0.10463 0.14661 0.0
C1062 C 0.15084 0.06598 0.14178 0.0
H1063 H 0.24073 0.16249 0.14004 0.0
H1064 H 0.19433 0.10951 0.15859 0.0
C1065 C 0.14064 0.061 0.12618 0.0
C1066 C 0.18551 0.91589 0.36349 0.0
C1067 C 0.15004 0.95465 0.36785 0.0
H1068 H 0.2436 0.86184 0.37065 0.0
C1069 C 0.14201 0.96396 0.3834 0.0
H1070 H 0.19262 0.90763 0.35157 0.0
C1071 C 0.17099 0.9372 0.39432 0.0
C1072 C 0.20895 0.90097 0.38991 0.0
H1073 H 0.11509 0.99349 0.38711 0.0
H1074 H 0.16535 0.94689 0.40621 0.0
C1075 C 0.21486 0.88954 0.3744 0.0
C1076 C 0.29683 0.89723 0.63258 0.0
C1077 C 0.30886 0.9005 0.61701 0.0
H1078 H 0.31213 0.92568 0.65501 0.0
C1079 C 0.34882 0.93392 0.61227 0.0
H1080 H 0.26599 0.87228 0.63657 0.0
C1081 C 0.3745 0.9652 0.62274 0.0
C1082 C 0.36129 0.96323 0.63822 0.0
H1083 H 0.359 0.93756 0.60033 0.0
H1084 H 0.40418 0.99138 0.61868 0.0
C1085 C 0.32301 0.92815 0.6431 0.0
C1086 C 0.38937 0.06814 0.88388 0.0
C1087 C 0.38004 0.07692 0.86836 0.0
H1088 H 0.36748 0.08529 0.90683 0.0
C1089 C 0.343 0.11429 0.86415 0.0
H1090 H 0.41753 0.03963 0.88749 0.0
C1091 C 0.31387 0.14019 0.87521 0.0
C1092 C 0.32149 0.12957 0.89072 0.0
H1093 H 0.33474 0.12192 0.85225 0.0
H1094 H 0.28415 0.16704 0.8716 0.0
C1095 C 0.36057 0.09437 0.89495 0.0
C1096 C 0.86893 0.97582 0.89067 0.0
C1097 C 0.85848 0.97489 0.87502 0.0
H1098 H 0.84544 0.95114 0.91296 0.0
C1099 C 0.81494 0.94732 0.86984 0.0
H1100 H 0.90186 0.99697 0.895 0.0
C1101 C 0.78192 0.9222 0.8801 0.0
C1102 C 0.79239 0.92299 0.89574 0.0
H1103 H 0.80539 0.94626 0.85783 0.0
H1104 H 0.74825 0.9022 0.87579 0.0
C1105 C 0.83657 0.94951 0.90091 0.0
C1106 C 0.80971 0.08456 0.64812 0.0
C1107 C 0.8541 0.05783 0.64305 0.0
H1108 H 0.74085 0.12602 0.64206 0.0
C1109 C 0.86266 0.05316 0.62733 0.0
H1110 H 0.80142 0.08825 0.66018 0.0
C1111 C 0.82803 0.0756 0.61694 0.0
C1112 C 0.78357 0.10208 0.62207 0.0
H1113 H 0.89607 0.03244 0.62307 0.0
H1114 H 0.83576 0.07164 0.60486 0.0
C1115 C 0.77463 0.10596 0.63777 0.0
C1116 C 0.719 0.08663 0.3683 0.0
C1117 C 0.67504 0.05895 0.3732 0.0
H1118 H 0.78558 0.13077 0.37462 0.0
C1119 C 0.6641 0.05619 0.38884 0.0
H1120 H 0.72893 0.08911 0.35631 0.0
C1121 C 0.69629 0.08121 0.39932 0.0
C1122 C 0.74067 0.1081 0.39436 0.0
H1123 H 0.6308 0.03491 0.39294 0.0
H1124 H 0.68706 0.07854 0.41135 0.0
C1125 C 0.75176 0.11037 0.37876 0.0
C1126 C 0.66281 0.97982 0.12752 0.0
C1127 C 0.67021 0.97701 0.14332 0.0
H1128 H 0.68873 0.95499 0.1055 0.0
C1129 C 0.71018 0.94526 0.14902 0.0
H1130 H 0.63272 1.00412 0.12279 0.0
C1131 C 0.74334 0.91871 0.13917 0.0
C1132 C 0.73631 0.92192 0.12339 0.0
H1133 H 0.71731 0.94237 0.16115 0.0
H1134 H 0.77457 0.89587 0.14389 0.0
C1135 C 0.69505 0.95181 0.11766 0.0
C1136 C 0.74734 0.59617 0.63519 0.0
C1137 C 0.73742 0.59157 0.61953 0.0
H1138 H 0.72612 0.57297 0.65783 0.0
C1139 C 0.69774 0.55798 0.61481 0.0
H1140 H 0.7771 0.62217 0.63921 0.0
C1141 C 0.67095 0.52718 0.62542 0.0
C1142 C 0.68105 0.53176 0.64107 0.0
H1143 H 0.68832 0.55448 0.60284 0.0
H1144 H 0.64182 0.50043 0.62142 0.0
C1145 C 0.71845 0.56768 0.64583 0.0
C1146 C 0.74783 0.42957 0.87484 0.0
C1147 C 0.74508 0.43784 0.89061 0.0
H1148 H 0.71908 0.45066 0.85279 0.0
C1149 C 0.71103 0.47597 0.89616 0.0
H1150 H 0.7731 0.40001 0.87025 0.0
C1151 C 0.68262 0.5073 0.88613 0.0
C1152 C 0.68536 0.49907 0.87035 0.0
H1153 H 0.70709 0.48221 0.90828 0.0
H1154 H 0.65803 0.53743 0.89073 0.0
C1155 C 0.71704 0.45877 0.86487 0.0
C1156 C 0.76709 0.43092 0.13447 0.0
C1157 C 0.78146 0.42636 0.11908 0.0
H1158 H 0.78572 0.46253 0.15639 0.0
C1159 C 0.82658 0.4515 0.11399 0.0
H1160 H 0.73251 0.41213 0.13871 0.0
C1161 C 0.85598 0.48161 0.12395 0.0
C1162 C 0.84188 0.48577 0.13933 0.0
H1163 H 0.83853 0.44911 0.10217 0.0
H1164 H 0.89017 0.501 0.11966 0.0
C1165 C 0.79747 0.45977 0.14455 0.0
C1166 C 0.82094 0.57742 0.36345 0.0
C1167 C 0.8483 0.53339 0.36846 0.0
H1168 H 0.7689 0.63928 0.36932 0.0
C1169 C 0.8458 0.5201 0.38399 0.0
H1170 H 0.8219 0.58875 0.35156 0.0
C1171 C 0.81684 0.55021 0.39423 0.0
C1172 C 0.78832 0.59325 0.3891 0.0
H1173 H 0.86624 0.48645 0.38823 0.0
H1174 H 0.81565 0.53898 0.40614 0.0
C1175 C 0.7904 0.60634 0.37358 0.0
C1176 C 0.33981 0.46693 0.39836 0.0
C1177 C 0.31033 0.42481 0.39305 0.0
H1178 H 0.38552 0.53344 0.39262 0.0
C1179 C 0.30679 0.41656 0.37731 0.0
H1180 H 0.34292 0.47481 0.41045 0.0
C1181 C 0.33221 0.44981 0.36712 0.0
C1182 C 0.3605 0.49265 0.37247 0.0
H1183 H 0.2841 0.38482 0.37288 0.0
H1184 H 0.3285 0.44274 0.35501 0.0
C1185 C 0.36406 0.50084 0.38819 0.0
C1186 C 0.3492 0.6121 0.15304 0.0
C1187 C 0.38769 0.57705 0.14821 0.0
H1188 H 0.28732 0.66291 0.14651 0.0
C1189 C 0.3968 0.5714 0.13254 0.0
H1190 H 0.34096 0.61724 0.16506 0.0
C1191 C 0.36616 0.59779 0.12196 0.0
C1192 C 0.32539 0.63014 0.12677 0.0
H1193 H 0.42591 0.54469 0.12844 0.0
H1194 H 0.37302 0.59085 0.10995 0.0
C1195 C 0.31821 0.63821 0.14243 0.0
C1196 C 0.20126 0.589 0.8699 0.0
C1197 C 0.17275 0.54562 0.87486 0.0
H1198 H 0.24899 0.65342 0.87627 0.0
C1199 C 0.16836 0.53585 0.8905 0.0
H1200 H 0.20556 0.59728 0.85785 0.0
C1201 C 0.19202 0.5687 0.90099 0.0
C1202 C 0.22171 0.61138 0.89607 0.0
H1203 H 0.14666 0.50283 0.89464 0.0
H1204 H 0.18828 0.55955 0.913 0.0
C1205 C 0.22608 0.62123 0.8804 0.0
C1206 C 0.19034 0.47122 0.61963 0.0
C1207 C 0.21832 0.42761 0.62471 0.0
H1208 H 0.14615 0.53834 0.62574 0.0
C1209 C 0.22105 0.41757 0.64038 0.0
H1210 H 0.18789 0.48046 0.60761 0.0
C1211 C 0.19597 0.45036 0.65075 0.0
C1212 C 0.16898 0.49454 0.64565 0.0
H1213 H 0.24254 0.38458 0.64462 0.0
H1214 H 0.19888 0.44181 0.66281 0.0
C1215 C 0.16652 0.50465 0.62999 0.0
C1216 C 0.25725 0.102 0.99821 0.0
C1217 C 0.25122 0.1486 0.9901 0.0
H1218 H 0.27678 0.06582 0.01937 0.0
C1219 C 0.26083 0.19552 0.99764 0.0
H1220 H 0.24998 0.06512 0.99281 0.0
C1221 C 0.27485 0.19599 0.01296 0.0
C1222 C 0.28068 0.1495 0.02112 0.0
H1223 H 0.25794 0.23219 0.99172 0.0
H1224 H 0.28007 0.23308 0.01844 0.0
C1225 C 0.27212 0.10244 0.01352 0.0
C1226 C 0.18829 1.01144 0.26164 0.0
C1227 C 0.14033 1.01629 0.26908 0.0
H1228 H 0.22862 0.98936 0.24136 0.0
C1229 C 0.0953 1.00174 0.26128 0.0
H1230 H 0.22376 0.0225 0.26727 0.0
C1231 C 0.098 0.98365 0.24634 0.0
C1232 C 0.14588 0.97898 0.23886 0.0
H1233 H 0.05778 1.00379 0.26674 0.0
H1234 H 0.06226 0.97449 0.24057 0.0
C1235 C 0.19105 0.99275 0.24673 0.0
C1236 C 0.25104 0.84057 0.51046 0.0
C1237 C 0.24225 0.88705 0.51833 0.0
H1238 H 0.2738 0.80443 0.48972 0.0
C1239 C 0.25216 0.93417 0.51081 0.0
H1240 H 0.245 0.80345 0.51592 0.0
C1241 C 0.27095 0.93469 0.49586 0.0
C1242 C 0.27959 0.88811 0.488 0.0
H1243 H 0.24545 0.97076 0.51646 0.0
H1244 H 0.27892 0.97163 0.49051 0.0
C1245 C 0.26895 0.84111 0.49547 0.0
C1246 C 0.45942 0.0172 0.76111 0.0
C1247 C 0.41141 1.01085 0.76847 0.0
H1248 H 0.49917 0.03228 0.74007 0.0
C1249 C 0.36584 0.01854 0.76003 0.0
H1250 H 0.49529 1.01286 0.76731 0.0
C1251 C 0.36834 0.03098 0.74452 0.0
C1252 C 0.41634 0.03585 0.73724 0.0
H1253 H 0.32827 1.01361 0.76529 0.0
H1254 H 0.33288 0.03509 0.7381 0.0
C1255 C 0.46181 0.02917 0.74561 0.0
C1256 C 0.72753 0.88012 1.0052 0.0
C1257 C 0.7524 0.84763 0.99465 0.0
H1258 H 0.72304 0.90645 0.02828 0.0
C1259 C 0.79329 0.81604 0.99983 0.0
H1260 H 0.69675 0.90579 1.00163 0.0
C1261 C 0.80909 0.81725 0.01508 0.0
C1262 C 0.78386 0.84945 0.02557 0.0
H1263 H 0.81295 0.7899 0.99212 0.0
H1264 H 0.84016 0.79206 0.01875 0.0
C1265 C 0.74297 0.88088 0.02045 0.0
C1266 C 0.96407 0.03192 0.76772 0.0
C1267 C 0.91687 0.03923 0.77541 0.0
H1268 H 1.00214 0.01719 0.74655 0.0
C1269 C 0.87065 0.03541 0.76711 0.0
H1270 H 1.00045 0.03361 0.77375 0.0
C1271 C 0.87156 0.02397 0.75159 0.0
C1272 C 0.91875 0.01707 0.74387 0.0
H1273 H 0.83357 0.04141 0.77258 0.0
H1274 H 0.83508 0.02024 0.74569 0.0
C1275 C 0.96501 0.02139 0.75213 0.0
C1276 C 0.71768 0.21187 0.51324 0.0
C1277 C 0.74188 0.17778 0.52344 0.0
H1278 H 0.71558 0.24279 0.4906 0.0
C1279 C 0.78274 0.14671 0.51809 0.0
H1280 H 0.68665 0.23682 0.51709 0.0
C1281 C 0.79919 0.14972 0.50291 0.0
C1282 C 0.77541 0.18414 0.49267 0.0
H1283 H 0.80188 0.11969 0.52566 0.0
H1284 H 0.82991 0.12425 0.49917 0.0
C1285 C 0.73447 0.21529 0.49807 0.0
C1286 C 0.66894 0.02395 0.26518 0.0
C1287 C 0.62131 0.0199 0.27285 0.0
H1288 H 0.70851 0.04238 0.24451 0.0
C1289 C 0.5757 0.03072 0.26477 0.0
H1290 H 0.70489 1.01526 0.27093 0.0
C1291 C 0.57772 0.0449 0.2494 0.0
C1292 C 0.62544 0.04918 0.24177 0.0
H1293 H 0.53836 0.02883 0.27034 0.0
H1294 H 0.54174 0.0516 0.24344 0.0
C1295 C 0.671 0.03893 0.24992 0.0
C1296 C 0.73021 0.70566 0.51404 0.0
C1297 C 0.77212 0.67634 0.51966 0.0
H1298 H 0.68524 0.7285 0.49459 0.0
C1299 C 0.80054 0.64636 0.5092 0.0
H1300 H 0.70768 0.72984 0.52162 0.0
C1301 C 0.78781 0.646 0.49368 0.0
C1302 C 0.74607 0.67536 0.48808 0.0
H1303 H 0.8322 0.62223 0.51301 0.0
H1304 H 0.81041 0.622 0.48606 0.0
C1305 C 0.71723 0.70497 0.4985 0.0
C1306 C 0.62428 0.47356 0.75165 0.0
C1307 C 0.59606 0.50224 0.74085 0.0
H1308 H 0.64804 0.46567 0.7749 0.0
C1309 C 0.5687 0.54621 0.74594 0.0
H1310 H 0.64677 0.44022 0.74822 0.0
C1311 C 0.56997 0.56125 0.7613 0.0
C1312 C 0.59815 0.53246 0.77205 0.0
H1313 H 0.54584 0.56898 0.73808 0.0
H1314 H 0.54815 0.59498 0.7648 0.0
C1315 C 0.62522 0.48838 0.767 0.0
C1316 C 0.80564 0.31671 0.99927 0.0
C1317 C 0.779 0.34813 0.98883 0.0
H1318 H 0.81143 0.28928 0.02225 0.0
C1319 C 0.73717 0.37791 0.99419 0.0
H1320 H 0.83758 0.2928 0.9955 0.0
C1321 C 0.72235 0.37636 0.00956 0.0
C1322 C 0.74869 0.34472 0.02005 0.0
H1323 H 0.71619 0.40314 0.98651 0.0
H1324 H 0.69083 0.40093 0.01323 0.0
C1325 C 0.79051 0.31477 0.01464 0.0
C1326 C 0.90694 0.46464 0.25794 0.0
C1327 C 0.93407 0.49468 0.26865 0.0
H1328 H 0.88624 0.45318 0.23453 0.0
C1329 C 0.96183 0.53797 0.26315 0.0
H1330 H 0.88402 0.43182 0.26155 0.0
C1331 C 0.96198 0.55094 0.24758 0.0
C1332 C 0.93523 0.52051 0.23697 0.0
H1333 H 0.98413 0.56177 0.27083 0.0
H1334 H 0.98396 0.58424 0.2438 0.0
C1335 C 0.90784 0.47714 0.24237 0.0
C1336 C 0.26304 0.41487 0.51635 0.0
C1337 C 0.26944 0.36795 0.52427 0.0
H1338 H 0.24597 0.45201 0.49521 0.0
C1339 C 0.2646 0.32126 0.51622 0.0
H1340 H 0.26715 0.45164 0.52209 0.0
C1341 C 0.25403 0.32152 0.50063 0.0
C1342 C 0.24726 0.36846 0.49274 0.0
H1343 H 0.2684 0.28433 0.52196 0.0
H1344 H 0.25189 0.28482 0.49475 0.0
C1345 C 0.25158 0.4151 0.50083 0.0
C1346 C 0.36082 0.51722 0.25244 0.0
C1347 C 0.4032 0.49532 0.24463 0.0
H1348 H 0.33349 0.55387 0.27289 0.0
C1349 C 0.4516 0.4945 0.25193 0.0
H1350 H 0.32275 0.51792 0.24738 0.0
C1351 C 0.4573 0.51447 0.26661 0.0
C1352 C 0.4151 0.53675 0.27422 0.0
H1353 H 0.48549 0.47928 0.24623 0.0
H1354 H 0.49475 0.51245 0.27207 0.0
C1355 C 0.36686 0.53812 0.26703 0.0
C1356 C 0.259 0.60716 0.01945 0.0
C1357 C 0.25132 0.6536 0.02745 0.0
H1358 H 0.27935 0.57132 0.99835 0.0
C1359 C 0.25816 0.70074 0.01965 0.0
H1360 H 0.25375 0.57009 0.02501 0.0
C1361 C 0.27157 0.70145 1.00423 0.0
C1362 C 0.27929 0.65504 0.99622 0.0
H1363 H 0.25375 0.73736 0.02547 0.0
H1364 H 0.27504 0.73854 0.99856 0.0
C1365 C 0.27315 0.60787 1.00407 0.0
C1366 C 0.07145 0.48096 0.76552 0.0
C1367 C 0.10473 0.50551 0.77579 0.0
H1368 H 0.0424 0.47788 0.74276 0.0
C1369 C 0.1361 0.54624 0.77049 0.0
H1370 H 0.04623 0.4501 0.76935 0.0
C1371 C 0.13443 0.56196 0.75522 0.0
C1372 C 0.10104 0.53758 0.74488 0.0
H1373 H 0.1624 0.5657 0.77815 0.0
H1374 H 0.16017 0.59248 0.75149 0.0
C1375 C 0.0693 0.49708 0.75029 0.0
C1376 C 0.27603 0.89972 0.10305 0.0
C1377 C 0.31559 0.86518 0.09902 0.0
H1378 H 0.255 0.9786 0.10709 0.0
C1379 C 0.36645 0.88379 0.09771 0.0
H1380 H 0.23659 0.88639 0.10424 0.0
C1381 C 0.37697 0.9364 0.09918 0.0
C1382 C 0.33683 0.97163 0.10198 0.0
H1383 H 0.39797 0.85782 0.095 0.0
H1384 H 0.41609 0.9497 0.09726 0.0
C1385 C 0.28655 0.95254 0.1045 0.0
C1386 C 0.38208 0.028 0.34561 0.0
C1387 C 0.41702 0.06888 0.34733 0.0
H1388 H 0.3034 1.0053 0.34353 0.0
C1389 C 0.39781 0.11875 0.3503 0.0
H1390 H 0.39586 0.98931 0.3432 0.0
C1391 C 0.34469 0.12819 0.35062 0.0
C1392 C 0.30948 0.088 0.34786 0.0
H1393 H 0.42405 0.15083 0.35197 0.0
H1394 H 0.33131 0.16724 0.35264 0.0
C1395 C 0.32888 0.03743 0.34579 0.0
C1396 C 0.24835 0.13226 0.59597 0.0
C1397 C 0.20938 0.16846 0.59893 0.0
H1398 H 0.26744 0.05319 0.59243 0.0
C1399 C 0.15952 0.15074 0.60259 0.0
H1400 H 0.28692 0.145 0.59298 0.0
C1401 C 0.14799 0.09798 0.6024 0.0
C1402 C 0.18601 0.0616 0.5984 0.0
H1403 H 0.12894 0.17804 0.60513 0.0
H1404 H 0.10894 0.08596 0.60502 0.0
C1405 C 0.2368 0.07942 0.59562 0.0
C1406 C 0.18713 0.90995 0.84988 0.0
C1407 C 0.22302 0.95061 0.84976 0.0
H1408 H 0.10771 0.88792 0.84908 0.0
C1409 C 0.20442 1.00191 0.85026 0.0
H1410 H 0.19979 0.87008 0.84957 0.0
C1411 C 0.15127 1.01219 0.84981 0.0
C1412 C 0.11574 0.97139 0.84885 0.0
H1413 H 0.23084 0.03428 0.85063 0.0
H1414 H 0.13817 0.05195 0.84943 0.0
C1415 C 0.13424 0.92023 0.84946 0.0
C1416 C 0.36729 0.1554 0.41268 0.0
C1417 C 0.3159 0.17128 0.4149 0.0
H1418 H 0.41944 0.09253 0.40918 0.0
C1419 C 0.27637 0.13457 0.41387 0.0
H1420 H 0.39844 0.18329 0.41312 0.0
C1421 C 0.28831 0.08223 0.41188 0.0
C1422 C 0.34021 0.06552 0.41074 0.0
H1423 H 0.23648 0.14589 0.41558 0.0
H1424 H 0.25664 0.05509 0.41209 0.0
C1425 C 0.3793 0.10326 0.41051 0.0
C1426 C 0.15318 0.03455 0.67026 0.0
C1427 C 0.11777 0.07556 0.66939 0.0
H1428 H 0.23259 1.01166 0.66993 0.0
C1429 C 0.13644 0.12597 0.66686 0.0
H1430 H 0.13996 0.99538 0.67224 0.0
C1431 C 0.18936 0.1355 0.66575 0.0
C1432 C 0.22496 0.09486 0.66716 0.0
H1433 H 0.11005 0.1583 0.66587 0.0
H1434 H 0.20245 0.17488 0.66412 0.0
C1435 C 0.20628 0.0441 0.66919 0.0
C1436 C 0.16306 0.87742 0.91831 0.0
C1437 C 0.21459 0.86118 0.91989 0.0
H1438 H 0.11101 0.94045 0.91494 0.0
C1439 C 0.25423 0.89745 0.91797 0.0
H1440 H 0.13175 0.84991 0.9194 0.0
C1441 C 0.24247 0.94971 0.91565 0.0
C1442 C 0.19062 0.96683 0.91505 0.0
H1443 H 0.29424 0.8859 0.91916 0.0
H1444 H 0.27439 0.9765 0.9151 0.0
C1445 C 0.15121 0.92948 0.91581 0.0
C1446 C 0.36361 0.91204 0.16124 0.0
C1447 C 0.32476 0.94809 0.15777 0.0
H1448 H 0.44238 0.90012 0.16768 0.0
C1449 C 0.33878 1.0005 0.15591 0.0
H1450 H 0.35448 0.87151 0.16273 0.0
C1451 C 0.38952 0.01694 0.15877 0.0
C1452 C 0.42694 0.9813 0.16362 0.0
H1453 H 0.31004 0.02915 0.15288 0.0
H1454 H 0.39858 0.05779 0.15822 0.0
C1455 C 0.41397 0.9285 0.16417 0.0
C1456 C 0.69493 0.12031 0.93214 0.0
C1457 C 0.71591 0.07405 0.9265 0.0
H1458 H 0.6986 0.20321 0.93209 0.0
C1459 C 0.75772 0.07642 0.91624 0.0
H1460 H 0.6626 0.11943 0.93999 0.0
C1461 C 0.77791 0.12395 0.91164 0.0
C1462 C 0.75708 0.17029 0.91727 0.0
H1463 H 0.77404 0.0415 0.91145 0.0
H1464 H 0.8101 0.12439 0.90374 0.0
C1465 C 0.71564 0.16804 0.92767 0.0
C1466 C 0.69703 0.91236 0.65732 0.0
C1467 C 0.72622 0.93868 0.66832 0.0
H1468 H 0.62291 0.90274 0.64692 0.0
C1469 C 0.70228 0.97821 0.67685 0.0
H1470 H 0.71424 0.88262 0.65029 0.0
C1471 C 0.6504 0.99066 0.67456 0.0
C1472 C 0.62116 0.9632 0.66392 0.0
H1473 H 0.72321 0.99892 0.68556 0.0
H1474 H 0.63245 0.01995 0.68162 0.0
C1475 C 0.64497 0.92436 0.65521 0.0
C1476 C 0.83632 0.91267 0.43307 0.0
C1477 C 0.8151 0.95866 0.42721 0.0
H1478 H 0.83382 0.82953 0.43321 0.0
C1479 C 0.77341 0.95544 0.41701 0.0
H1480 H 0.86849 0.9141 0.44092 0.0
C1481 C 0.75412 0.90751 0.41252 0.0
C1482 C 0.77565 0.86146 0.4182 0.0
H1483 H 0.75674 0.98998 0.41206 0.0
H1484 H 0.72236 0.90648 0.40453 0.0
C1485 C 0.8164 0.86446 0.42872 0.0
C1486 C 0.91471 0.10397 0.17246 0.0
C1487 C 0.9276 0.05179 0.16986 0.0
H1488 H 0.85526 0.1616 0.17298 0.0
C1489 C 0.88987 0.01867 0.16391 0.0
H1490 H 0.94333 0.13058 0.17682 0.0
C1491 C 0.83923 0.03651 0.16173 0.0
C1492 C 0.82557 0.08793 0.16532 0.0
H1493 H 0.89882 0.9784 0.16179 0.0
H1494 H 0.81038 1.00963 0.15767 0.0
C1495 C 0.86438 0.12189 0.17015 0.0
C1496 C 0.70343 0.85948 0.58537 0.0
C1497 C 0.75068 0.85613 0.59316 0.0
H1498 H 0.64383 0.90962 0.57681 0.0
C1499 C 0.77589 0.90183 0.59746 0.0
H1500 H 0.6832 0.82474 0.58199 0.0
C1501 C 0.75384 0.94989 0.5944 0.0
C1502 C 0.70579 0.95347 0.58706 0.0
H1503 H 0.81262 0.9004 0.60332 0.0
H1504 H 0.77362 0.98419 0.59834 0.0
C1505 C 0.6809 0.90782 0.58247 0.0
C1506 C 0.83297 0.98017 0.34923 0.0
C1507 C 0.81239 0.93182 0.34506 0.0
H1508 H 0.89876 0.03013 0.3492 0.0
C1509 C 0.84578 0.89391 0.33927 0.0
H1510 H 0.80854 1.00979 0.35415 0.0
C1511 C 0.89782 0.90536 0.33666 0.0
C1512 C 0.91755 0.95504 0.33975 0.0
H1513 H 0.83123 0.85629 0.33603 0.0
H1514 H 0.9222 0.87558 0.33183 0.0
C1515 C 0.88491 0.99171 0.34656 0.0
C1516 C 0.76279 0.07046 0.09563 0.0
C1517 C 0.81205 0.06793 0.08889 0.0
H1518 H 0.70155 0.1186 0.10375 0.0
C1519 C 0.83678 0.11413 0.08462 0.0
H1520 H 0.74307 0.03573 0.09931 0.0
C1521 C 0.81283 0.16194 0.0872 0.0
C1522 C 0.76419 0.16426 0.09435 0.0
H1523 H 0.87478 0.11317 0.07944 0.0
H1524 H 0.83294 0.19709 0.08406 0.0
C1525 C 0.73927 0.11801 0.09838 0.0
C1526 C 0.68507 0.14186 0.84338 0.0
C1527 C 0.71875 0.10415 0.84914 0.0
H1528 H 0.60914 0.15878 0.83527 0.0
C1529 C 0.69902 0.05485 0.85277 0.0
H1530 H 0.69908 0.18014 0.84055 0.0
C1531 C 0.64769 0.0423 0.84959 0.0
C1532 C 0.61504 0.07881 0.84271 0.0
H1533 H 0.72383 0.02533 0.85758 0.0
H1534 H 0.63445 1.00326 0.85176 0.0
C1535 C 0.63374 0.1293 0.84018 0.0
C1536 C 0.81206 0.35823 0.58635 0.0
C1537 C 0.76382 0.3575 0.59375 0.0
H1538 H 0.87255 0.40523 0.57681 0.0
C1539 C 0.73777 0.40418 0.59629 0.0
H1540 H 0.83282 0.32255 0.58428 0.0
C1541 C 0.75985 0.45086 0.5918 0.0
C1542 C 0.80891 0.4522 0.5849 0.0
H1543 H 0.70023 0.40458 0.60177 0.0
H1544 H 0.73917 0.48603 0.59426 0.0
C1545 C 0.8347 0.40532 0.58209 0.0
C1546 C 0.82544 0.52117 0.8428 0.0
C1547 C 0.8243 0.57041 0.83596 0.0
H1548 H 0.8713 0.46141 0.85285 0.0
C1549 C 0.87126 0.59613 0.83324 0.0
H1550 H 0.79028 0.50042 0.84517 0.0
C1551 C 0.91812 0.57344 0.83761 0.0
C1552 C 0.91861 0.52515 0.84501 0.0
H1553 H 0.87159 0.63405 0.82798 0.0
H1554 H 0.9538 0.59428 0.83565 0.0
C1555 C 0.8719 0.49901 0.84738 0.0
C1556 C 0.71421 0.66323 0.08677 0.0
C1557 C 0.7586 0.66337 0.09599 0.0
H1558 H 0.65716 0.61721 0.07536 0.0
C1559 C 0.78079 0.61604 0.10029 0.0
H1560 H 0.69612 0.69922 0.08339 0.0
C1561 C 0.75892 0.56955 0.09558 0.0
C1562 C 0.71406 0.56919 0.08658 0.0
H1563 H 0.81522 0.61494 0.10726 0.0
H1564 H 0.77631 0.53383 0.09939 0.0
C1565 C 0.69188 0.6165 0.08221 0.0
C1566 C 0.70785 0.51664 0.34212 0.0
C1567 C 0.70756 0.46807 0.33494 0.0
H1568 H 0.66339 0.57772 0.35205 0.0
C1569 C 0.65992 0.44457 0.33176 0.0
H1570 H 0.74375 0.53546 0.34493 0.0
C1571 C 0.6136 0.469 0.33583 0.0
C1572 C 0.6142 0.51692 0.34339 0.0
H1573 H 0.65861 0.40713 0.32628 0.0
H1574 H 0.57738 0.44978 0.33346 0.0
C1575 C 0.66178 0.5406 0.34639 0.0
C1576 C 0.76578 0.5745 0.92546 0.0
C1577 C 0.8191 0.57185 0.92846 0.0
H1578 H 0.70128 0.62239 0.91966 0.0
C1579 C 0.84724 0.61826 0.92948 0.0
H1580 H 0.74252 0.54007 0.92475 0.0
C1581 C 0.823 0.66586 0.92681 0.0
C1582 C 0.77058 0.66759 0.9228 0.0
H1583 H 0.88816 0.61763 0.93197 0.0
H1584 H 0.84556 0.70107 0.92723 0.0
C1585 C 0.74201 0.62171 0.92245 0.0
C1586 C 0.70915 0.57098 0.18975 0.0
C1587 C 0.7232 0.59226 0.17563 0.0
H1588 H 0.64922 0.53709 0.20328 0.0
C1589 C 0.68649 0.59371 0.16382 0.0
H1590 H 0.7368 0.56912 0.19898 0.0
C1591 C 0.6364 0.57461 0.1662 0.0
C1592 C 0.62221 0.5546 0.1805 0.0
H1593 H 0.69672 0.60896 0.15271 0.0
H1594 H 0.60841 0.57677 0.15707 0.0
C1595 C 0.65918 0.55267 0.19218 0.0
C1596 C 0.7243 0.38513 0.40575 0.0
C1597 C 0.75438 0.36286 0.41732 0.0
H1598 H 0.67589 0.44842 0.3991 0.0
C1599 C 0.75787 0.38772 0.4315 0.0
H1600 H 0.72094 0.36648 0.39476 0.0
C1601 C 0.73271 0.43501 0.4339 0.0
C1602 C 0.70254 0.45707 0.42231 0.0
H1603 H 0.78123 0.37128 0.44051 0.0
H1604 H 0.73684 0.45455 0.44473 0.0
C1605 C 0.69821 0.43154 0.40828 0.0
C1606 C 0.86893 0.44195 0.68128 0.0
C1607 C 0.82177 0.46845 0.67956 0.0
H1608 H 0.95168 0.44568 0.67953 0.0
C1609 C 0.82302 0.52126 0.67564 0.0
H1610 H 0.86943 0.40147 0.68447 0.0
C1611 C 0.86971 0.54605 0.6726 0.0
C1612 C 0.9165 0.51908 0.67374 0.0
H1613 H 0.78795 0.54328 0.67431 0.0
H1614 H 0.86925 0.58636 0.6692 0.0
C1615 C 0.91593 0.46719 0.67852 0.0
C1616 C 0.25059 0.63511 0.41432 0.0
C1617 C 0.21355 0.67106 0.41921 0.0
H1618 H 0.26726 0.55579 0.40951 0.0
C1619 C 0.16226 0.65441 0.42145 0.0
H1620 H 0.29025 0.64681 0.41243 0.0
C1621 C 0.14911 0.60229 0.41994 0.0
C1622 C 0.18702 0.56572 0.41619 0.0
H1623 H 0.13251 0.68149 0.42486 0.0
H1624 H 0.10997 0.59028 0.42248 0.0
C1625 C 0.23747 0.58293 0.41284 0.0
C1626 C 0.14284 0.45178 0.14659 0.0
C1627 C 0.11884 0.48464 0.15725 0.0
H1628 H 0.21213 0.41298 0.1397 0.0
C1629 C 0.14883 0.50669 0.16881 0.0
H1630 H 0.12081 0.43498 0.13737 0.0
C1631 C 0.20111 0.49385 0.1702 0.0
C1632 C 0.22454 0.45887 0.15999 0.0
H1633 H 0.13126 0.53166 0.17725 0.0
H1634 H 0.22254 0.50973 0.17966 0.0
C1635 C 0.19505 0.43894 0.14796 0.0
C1636 C 0.2816 0.39837 0.91562 0.0
C1637 C 0.31975 0.36212 0.91946 0.0
H1638 H 0.26345 0.47817 0.91207 0.0
C1639 C 0.37125 0.37891 0.92095 0.0
H1640 H 0.24175 0.38656 0.91431 0.0
C1641 C 0.38367 0.43133 0.91987 0.0
C1642 C 0.34483 0.46809 0.91728 0.0
H1643 H 0.40176 0.35163 0.92353 0.0
H1644 H 0.42311 0.4433 0.92189 0.0
C1645 C 0.29402 0.45088 0.91455 0.0
C1646 C 0.41782 0.56471 0.67798 0.0
C1647 C 0.41948 0.52053 0.66866 0.0
H1648 H 0.3701 0.62172 0.68893 0.0
C1649 C 0.37281 0.49885 0.66365 0.0
H1650 H 0.45319 0.58243 0.68193 0.0
C1651 C 0.32561 0.52102 0.66771 0.0
C1652 C 0.32382 0.56566 0.67682 0.0
H1653 H 0.37272 0.46454 0.65661 0.0
H1654 H 0.29054 0.50391 0.66335 0.0
C1655 C 0.37042 0.5873 0.68192 0.0
C1656 C 0.2475 0.3962 0.10276 0.0
C1657 C 0.20987 0.36498 0.09589 0.0
H1658 H 0.26655 0.47128 0.11129 0.0
C1659 C 0.15978 0.385 0.09389 0.0
H1660 H 0.2863 0.38182 0.10455 0.0
C1661 C 0.14852 0.4362 0.09768 0.0
C1662 C 0.18718 0.46859 0.10349 0.0
H1663 H 0.12955 0.3615 0.08898 0.0
H1664 H 0.11034 0.45113 0.09525 0.0
C1665 C 0.23628 0.44754 0.1065 0.0
C1666 C 0.37499 0.54096 0.85117 0.0
C1667 C 0.42075 0.5167 0.84638 0.0
H1668 H 0.29275 0.53769 0.85242 0.0
C1669 C 0.41762 0.46988 0.83833 0.0
H1670 H 0.37618 0.57731 0.85726 0.0
C1671 C 0.36954 0.44705 0.83552 0.0
C1672 C 0.32386 0.47116 0.84048 0.0
H1673 H 0.45237 0.45027 0.83459 0.0
H1674 H 0.36797 0.41045 0.82957 0.0
C1675 C 0.32713 0.51859 0.84821 0.0
C1676 C 0.37631 0.60015 0.59085 0.0
C1677 C 0.33992 0.56532 0.59674 0.0
H1678 H 0.39049 0.67688 0.58271 0.0
C1679 C 0.2904 0.58369 0.60068 0.0
H1680 H 0.41471 0.58709 0.58779 0.0
C1681 C 0.27626 0.63485 0.59766 0.0
C1682 C 0.31134 0.66866 0.59062 0.0
H1683 H 0.2619 0.55788 0.60558 0.0
H1684 H 0.23706 0.64706 0.60006 0.0
C1685 C 0.36212 0.65132 0.58778 0.0
C1686 C 0.15749 0.49117 0.34716 0.0
C1687 C 0.11128 0.51608 0.34309 0.0
H1688 H 0.23966 0.49531 0.34838 0.0
C1689 C 0.11371 0.56496 0.33608 0.0
H1690 H 0.15686 0.45324 0.35242 0.0
C1691 C 0.16148 0.58924 0.33372 0.0
C1692 C 0.2076 0.56464 0.3381 0.0
H1693 H 0.07864 0.58507 0.3329 0.0
H1694 H 0.16242 0.62744 0.32864 0.0
C1695 C 0.20503 0.51503 0.34465 0.0
C1696 C 0.52072 0.25103 0.07924 0.0
C1697 C 0.54616 0.2892 0.08776 0.0
H1698 H 0.45232 0.20601 0.07611 0.0
C1699 C 0.51961 0.31209 0.10006 0.0
H1700 H 0.53992 0.23256 0.06971 0.0
C1701 C 0.46929 0.29613 0.10396 0.0
C1702 C 0.44406 0.25763 0.09545 0.0
H1703 H 0.53825 0.34131 0.10695 0.0
H1704 H 0.45026 0.31384 0.11364 0.0
C1705 C 0.47032 0.23582 0.08293 0.0
C1706 C 0.96732 0.26854 0.34848 0.0
C1707 C 0.98808 0.29646 0.3361 0.0
H1708 H 0.96835 0.19796 0.36154 0.0
C1709 C 0.02488 0.27176 0.32677 0.0
H1710 H 0.93919 0.28642 0.35597 0.0
C1711 C 0.04099 0.22094 0.32981 0.0
C1712 C 0.02165 0.19346 0.34247 0.0
H1713 H 0.04168 0.29193 0.31712 0.0
H1714 H 0.0697 0.20366 0.32239 0.0
C1715 C 0.98428 0.21786 0.35172 0.0
C1716 C 0.04797 0.733 0.60146 0.0
C1717 C 0.07058 0.77293 0.59274 0.0
H1718 H 0.98116 0.68527 0.60538 0.0
C1719 C 0.04154 0.79465 0.58078 0.0
H1720 H 0.06917 0.71521 0.61072 0.0
C1721 C 0.99101 0.77796 0.57786 0.0
C1722 C 0.96819 0.73837 0.58661 0.0
H1723 H 0.05749 0.82538 0.5738 0.0
H1724 H 0.96969 0.79635 0.56872 0.0
C1725 C 0.99757 0.71562 0.59834 0.0
C1726 C 0.54905 0.81588 0.85281 0.0
C1727 C 0.51004 0.83928 0.84397 0.0
H1728 H 0.59478 0.74777 0.85704 0.0
C1729 C 0.48791 0.81025 0.83212 0.0
H1730 H 0.56709 0.837 0.86201 0.0
C1731 C 0.50326 0.75902 0.82942 0.0
C1732 C 0.54191 0.7354 0.8383 0.0
H1733 H 0.45774 0.82673 0.82508 0.0
H1734 H 0.48451 0.73777 0.82037 0.0
C1735 C 0.56513 0.76475 0.84992 0.0
C1736 C 0.53139 0.78266 0.42898 0.0
C1737 C 0.55655 0.7464 0.41961 0.0
H1738 H 0.46273 0.82643 0.43349 0.0
C1739 C 0.52922 0.7262 0.4071 0.0
H1740 H 0.55104 0.79899 0.43873 0.0
C1741 C 0.47852 0.7428 0.40388 0.0
C1742 C 0.45344 0.77919 0.41329 0.0
H1743 H 0.54742 0.69842 0.39957 0.0
H1744 H 0.45901 0.7271 0.39402 0.0
C1745 C 0.48052 0.79839 0.42597 0.0
C1746 C 0.56753 0.20644 0.67849 0.0
C1747 C 0.51877 0.18901 0.67355 0.0
H1748 H 0.61714 0.27185 0.68263 0.0
C1749 C 0.48266 0.22604 0.6686 0.0
H1750 H 0.59621 0.17896 0.6824 0.0
C1751 C 0.49409 0.27906 0.66917 0.0
C1752 C 0.54249 0.2966 0.67429 0.0
H1753 H 0.44463 0.21422 0.66488 0.0
H1754 H 0.46472 0.30651 0.66569 0.0
C1755 C 0.57958 0.2596 0.6786 0.0
C1756 C 1.00491 0.30674 0.90853 0.0
C1757 C 0.97754 0.28681 0.92115 0.0
H1758 H 0.07519 0.30548 0.89538 0.0
C1759 C 1.00269 0.25106 0.9307 0.0
H1760 H 0.98661 0.33409 0.90088 0.0
C1761 C 0.05363 0.23544 0.92773 0.0
C1762 C 0.08068 0.25414 0.9149 0.0
H1763 H 0.98293 0.23499 0.94053 0.0
H1764 H 0.07143 0.20774 0.93537 0.0
C1765 C 0.05564 0.29016 0.90535 0.0
C1766 C 0.04923 0.73255 0.17882 0.0
C1767 C 1.01478 0.70626 0.16915 0.0
H1768 H 0.09065 0.80238 0.18357 0.0
C1769 C 0.99633 0.73276 0.15619 0.0
H1770 H 0.06433 0.71379 0.18892 0.0
C1771 C 1.01164 0.78404 0.15308 0.0
C1772 C 0.04564 0.81044 0.16288 0.0
H1773 H 0.96973 0.71404 0.14846 0.0
H1774 H 0.99634 0.80316 0.14307 0.0
C1775 C 0.0643 0.78372 0.17576 0.0
C1776 C 0.47458 0.79375 0.91174 0.0
C1777 C 0.44949 0.75716 0.92112 0.0
H1778 H 0.54315 0.83888 0.90766 0.0
C1779 C 0.47552 0.73938 0.93419 0.0
H1780 H 0.45573 0.80844 0.9016 0.0
C1781 C 0.52566 0.75628 0.93753 0.0
C1782 C 0.5511 0.79226 0.92808 0.0
H1783 H 0.45767 0.7112 0.9417 0.0
H1784 H 0.54477 0.74064 0.9475 0.0
C1785 C 0.52459 0.81146 0.91526 0.0
C1786 C 1.01343 0.7679 0.68711 0.0
C1787 C 0.04701 0.7401 0.67752 0.0
H1788 H 0.97125 0.83793 0.69103 0.0
C1789 C 0.06527 0.76458 0.66418 0.0
H1790 H 0.99861 0.75038 0.69747 0.0
C1791 C 0.0487 0.81486 0.6603 0.0
C1792 C 1.01435 0.84226 0.66981 0.0
H1793 H 0.09084 0.74418 0.65647 0.0
H1794 H 0.06234 0.832 0.64975 0.0
C1795 C 0.99779 0.81832 0.68341 0.0
C1796 C 1.00564 0.2778 0.43435 0.0
C1797 C 0.97992 0.24143 0.42522 0.0
H1798 H 0.0737 0.32309 0.43794 0.0
C1799 C 1.00587 0.22188 0.41232 0.0
H1800 H 0.98692 0.29372 0.44436 0.0
C1801 C 0.05568 0.23962 0.40843 0.0
C1802 C 0.0811 0.27652 0.41752 0.0
H1803 H 0.98704 0.19418 0.40496 0.0
H1804 H 0.07413 0.22464 0.39826 0.0
C1805 C 0.05558 0.29467 0.43066 0.0
C1806 C 0.56751 0.24942 0.17795 0.0
C1807 C 0.5434 0.22269 0.16596 0.0
H1808 H 0.57406 0.3198 0.19062 0.0
C1809 C 0.50488 0.24887 0.1576 0.0
H1810 H 0.59737 0.23087 0.18466 0.0
C1811 C 0.49083 0.30016 0.1612 0.0
C1812 C 0.51555 0.32695 0.1731 0.0
H1813 H 0.48538 0.22967 0.14829 0.0
H1814 H 0.46129 0.31911 0.15449 0.0
C1815 C 0.55414 0.30072 0.18137 0.0
C1816 C 0.51665 0.21918 0.60431 0.0
C1817 C 0.54289 0.23838 0.59139 0.0
H1818 H 0.44833 0.22265 0.61834 0.0
C1819 C 0.51738 0.27491 0.58216 0.0
H1820 H 0.53522 0.19133 0.61175 0.0
C1821 C 0.46745 0.29222 0.58579 0.0
C1822 C 0.44171 0.2744 0.59895 0.0
H1823 H 0.53625 0.29058 0.57213 0.0
H1824 H 0.44955 0.32075 0.57843 0.0
C1825 C 0.46691 0.23738 0.60814 0.0
C1826 C 0.48931 0.81181 0.35725 0.0
C1827 C 0.52255 0.83846 0.34719 0.0
H1828 H 0.44649 0.74211 0.36184 0.0
C1829 C 0.53648 0.81417 0.33343 0.0
H1830 H 0.47771 0.82923 0.36794 0.0
C1831 C 0.51925 0.76409 0.33007 0.0
C1832 C 0.48669 0.73709 0.34019 0.0
H1833 H 0.56206 0.83324 0.3254 0.0
H1834 H 0.53196 0.74625 0.31954 0.0
C1835 C 0.47118 0.76192 0.35372 0.0
C1836 C 0.05613 0.79358 0.11067 0.0
C1837 C 0.08217 0.75584 0.10198 0.0
H1838 H 0.98653 0.838 0.11382 0.0
C1839 C 0.05649 0.73464 0.08932 0.0
H1840 H 0.07465 0.81084 0.12047 0.0
C1841 C 1.00598 0.74963 0.08566 0.0
C1842 C 0.97972 0.78702 0.09436 0.0
H1843 H 0.07503 0.70545 0.08235 0.0
H1844 H 0.98737 0.7316 0.076 0.0
C1845 C 1.00568 0.80934 0.10681 0.0
C1846 C 0.06004 0.28029 0.85668 0.0
C1847 C 0.04154 0.30564 0.84354 0.0
H1848 H 0.05686 0.21225 0.87086 0.0
C1849 C 1.00662 0.27916 0.83413 0.0
H1850 H 0.08662 0.29974 0.86425 0.0
C1851 C 0.99025 0.22898 0.83776 0.0
C1852 C 1.00744 0.20396 0.8511 0.0
H1853 H 0.99155 0.29742 0.82394 0.0
H1854 H 0.96298 0.21025 0.83024 0.0
C1855 C 0.04276 0.23022 0.86051 0.0
loop_
_geom_bond_atom_site_label_1
_geom_bond_atom_site_label_2
_geom_bond_distance
_geom_bond_site_symmetry_2
_ccdc_geom_bond_type
Co0 N4 2.148 . S
Co0 N10 2.128 . S
Co0 N20 2.194 . S
Co0 O25 2.351 . S
Co0 O26 2.155 . S
Co0 O27 2.096 . S
C1 N4 1.301 . S
C1 N5 1.328 . S
C1 H6 0.930 . S
C2 C3 1.333 . S
C2 N4 1.317 . S
C2 H7 0.930 . S
C3 C2 1.333 . S
C3 N5 1.350 . S
C3 H29 0.931 . S
N4 Co0 2.148 . S
N4 C1 1.301 . S
N4 C2 1.317 . S
N5 C1 1.328 . S
N5 C3 1.350 . S
H6 C1 0.930 . S
H7 C2 0.930 . S
C8 O9 1.224 . S
C8 O27 1.247 . S
O9 C8 1.224 . S
N10 Co0 2.128 . S
N10 C11 1.355 . S
N10 C13 1.311 . S
C11 N10 1.355 . S
C11 C12 1.363 . S
C11 H23 0.929 . S
C12 C11 1.363 . S
C12 N14 1.375 . S
C12 H30 0.931 . S
C13 N10 1.311 . S
C13 N14 1.347 . S
C13 H24 0.929 . S
N14 C12 1.375 . S
N14 C13 1.347 . S
C15 C18 1.365 . S
C15 N20 1.328 . S
C15 H21 0.929 . S
C16 C17 1.362 . S
C16 C19 1.378 . S
C16 H31 0.929 . S
C17 C16 1.362 . S
C17 C18 1.366 . S
C18 C15 1.365 . S
C18 C17 1.366 . S
C18 H32 0.930 . S
C19 C16 1.378 . S
C19 N20 1.315 . S
C19 H22 0.930 . S
N20 Co0 2.194 . S
N20 C15 1.328 . S
N20 C19 1.315 . S
H21 C15 0.929 . S
H22 C19 0.930 . S
H23 C11 0.929 . S
H24 C13 0.929 . S
O25 Co0 2.351 . S
O25 C28 1.244 . S
O26 Co0 2.155 . S
O26 C28 1.240 . S
O27 Co0 2.096 . S
O27 C8 1.247 . S
C28 O25 1.244 . S
C28 O26 1.240 . S
H29 C3 0.931 . S
H30 C12 0.931 . S
H31 C16 0.929 . S
H32 C18 0.930 . S
Co33 N37 2.148 . S
Co33 N43 2.128 1_455 S
Co33 N53 2.194 . S
Co33 O58 2.351 1_545 S
Co33 O59 2.155 . S
Co33 O60 2.096 . S
C34 N37 1.301 . S
C34 N38 1.328 . S
C34 H39 0.930 1_545 S
C35 C36 1.333 . S
C35 N37 1.317 . S
C35 H40 0.930 . S
C36 C35 1.333 . S
C36 N38 1.350 . S
C36 H62 0.931 . S
N37 Co33 2.148 . S
N37 C34 1.301 . S
N37 C35 1.317 . S
N38 C34 1.328 . S
N38 C36 1.350 . S
H39 C34 0.930 1_565 S
H40 C35 0.930 . S
C41 O42 1.224 . S
C41 O60 1.247 . S
O42 C41 1.224 . S
N43 Co33 2.128 1_655 S
N43 C44 1.355 1_545 S
N43 C46 1.311 . S
C44 N43 1.355 1_565 S
C44 C45 1.363 . S
C44 H56 0.929 . S
C45 C44 1.363 . S
C45 N47 1.375 1_565 S
C45 H63 0.931 . S
C46 N43 1.311 . S
C46 N47 1.347 . S
C46 H57 0.929 . S
N47 C45 1.375 1_545 S
N47 C46 1.347 . S
C48 C51 1.365 . S
C48 N53 1.328 1_565 S
C48 H54 0.929 . S
C49 C50 1.362 1_545 S
C49 C52 1.378 . S
C49 H64 0.929 . S
C50 C49 1.362 1_565 S
C50 C51 1.366 . S
C51 C48 1.365 . S
C51 C50 1.366 . S
C51 H65 0.930 . S
C52 C49 1.378 . S
C52 N53 1.315 . S
C52 H55 0.930 . S
N53 Co33 2.194 . S
N53 C48 1.328 1_545 S
N53 C52 1.315 . S
H54 C48 0.929 . S
H55 C52 0.930 . S
H56 C44 0.929 . S
H57 C46 0.929 . S
O58 Co33 2.351 1_565 S
O58 C61 1.244 . S
O59 Co33 2.155 . S
O59 C61 1.240 1_545 S
O60 Co33 2.096 . S
O60 C41 1.247 . S
C61 O58 1.244 . S
C61 O59 1.240 1_565 S
H62 C36 0.931 . S
H63 C45 0.931 . S
H64 C49 0.929 . S
H65 C51 0.930 . S
Co66 N70 2.148 . S
Co66 N76 2.128 . S
Co66 N86 2.194 . S
Co66 O91 2.351 . S
Co66 O92 2.155 . S
Co66 O93 2.096 . S
C67 N70 1.301 . S
C67 N71 1.328 . S
C67 H72 0.930 . S
C68 C69 1.333 . S
C68 N70 1.317 . S
C68 H73 0.930 . S
C69 C68 1.333 . S
C69 N71 1.350 . S
C69 H95 0.931 . S
N70 Co66 2.148 . S
N70 C67 1.301 . S
N70 C68 1.317 . S
N71 C67 1.328 . S
N71 C69 1.350 . S
H72 C67 0.930 . S
H73 C68 0.930 . S
C74 O75 1.224 . S
C74 O93 1.247 . S
O75 C74 1.224 . S
N76 Co66 2.128 . S
N76 C77 1.355 . S
N76 C79 1.311 . S
C77 N76 1.355 . S
C77 C78 1.363 . S
C77 H89 0.929 . S
C78 C77 1.363 . S
C78 N80 1.375 . S
C78 H96 0.931 . S
C79 N76 1.311 . S
C79 N80 1.347 . S
C79 H90 0.929 . S
N80 C78 1.375 . S
N80 C79 1.347 . S
C81 C84 1.365 . S
C81 N86 1.328 . S
C81 H87 0.929 . S
C82 C83 1.362 . S
C82 C85 1.378 . S
C82 H97 0.929 . S
C83 C82 1.362 . S
C83 C84 1.366 . S
C84 C81 1.365 . S
C84 C83 1.366 . S
C84 H98 0.930 . S
C85 C82 1.378 . S
C85 N86 1.315 . S
C85 H88 0.930 . S
N86 Co66 2.194 . S
N86 C81 1.328 . S
N86 C85 1.315 . S
H87 C81 0.929 . S
H88 C85 0.930 . S
H89 C77 0.929 . S
H90 C79 0.929 . S
O91 Co66 2.351 . S
O91 C94 1.244 . S
O92 Co66 2.155 . S
O92 C94 1.240 . S
O93 Co66 2.096 . S
O93 C74 1.247 . S
C94 O91 1.244 . S
C94 O92 1.240 . S
H95 C69 0.931 . S
H96 C78 0.931 . S
H97 C82 0.929 . S
H98 C84 0.930 . S
Co99 N103 2.148 . S
Co99 N109 2.128 . S
Co99 N119 2.194 . S
Co99 O124 2.351 1_565 S
Co99 O125 2.155 . S
Co99 O126 2.096 . S
C100 N103 1.301 . S
C100 N104 1.328 . S
C100 H105 0.930 1_565 S
C101 C102 1.333 . S
C101 N103 1.317 . S
C101 H106 0.930 . S
C102 C101 1.333 . S
C102 N104 1.350 . S
C102 H128 0.931 . S
N103 Co99 2.148 . S
N103 C100 1.301 . S
N103 C101 1.317 . S
N104 C100 1.328 . S
N104 C102 1.350 . S
H105 C100 0.930 1_545 S
H106 C101 0.930 . S
C107 O108 1.224 . S
C107 O126 1.247 . S
O108 C107 1.224 . S
N109 Co99 2.128 . S
N109 C110 1.355 1_565 S
N109 C112 1.311 . S
C110 N109 1.355 1_545 S
C110 C111 1.363 . S
C110 H122 0.929 . S
C111 C110 1.363 . S
C111 N113 1.375 1_545 S
C111 H129 0.931 . S
C112 N109 1.311 . S
C112 N113 1.347 . S
C112 H123 0.929 . S
N113 C111 1.375 1_565 S
N113 C112 1.347 . S
C114 C117 1.365 . S
C114 N119 1.328 1_545 S
C114 H120 0.929 . S
C115 C116 1.362 1_565 S
C115 C118 1.378 . S
C115 H130 0.929 . S
C116 C115 1.362 1_545 S
C116 C117 1.366 . S
C117 C114 1.365 . S
C117 C116 1.366 . S
C117 H131 0.930 . S
C118 C115 1.378 . S
C118 N119 1.315 . S
C118 H121 0.930 . S
N119 Co99 2.194 . S
N119 C114 1.328 1_565 S
N119 C118 1.315 . S
H120 C114 0.929 . S
H121 C118 0.930 . S
H122 C110 0.929 . S
H123 C112 0.929 . S
O124 Co99 2.351 1_545 S
O124 C127 1.244 . S
O125 Co99 2.155 . S
O125 C127 1.240 1_565 S
O126 Co99 2.096 . S
O126 C107 1.247 . S
C127 O124 1.244 . S
C127 O125 1.240 1_545 S
H128 C102 0.931 . S
H129 C111 0.931 . S
H130 C115 0.929 . S
H131 C117 0.930 . S
Co132 N136 2.148 . S
Co132 N142 2.128 . S
Co132 N152 2.194 . S
Co132 O157 2.351 . S
Co132 O158 2.155 . S
Co132 O159 2.096 . S
C133 N136 1.301 . S
C133 N137 1.328 . S
C133 H138 0.930 . S
C134 C135 1.333 . S
C134 N136 1.317 . S
C134 H139 0.930 . S
C135 C134 1.333 . S
C135 N137 1.350 . S
C135 H161 0.931 . S
N136 Co132 2.148 . S
N136 C133 1.301 . S
N136 C134 1.317 . S
N137 C133 1.328 . S
N137 C135 1.350 . S
H138 C133 0.930 . S
H139 C134 0.930 . S
C140 O141 1.224 . S
C140 O159 1.247 . S
O141 C140 1.224 . S
N142 Co132 2.128 . S
N142 C143 1.355 . S
N142 C145 1.311 . S
C143 N142 1.355 . S
C143 C144 1.363 . S
C143 H155 0.929 . S
C144 C143 1.363 . S
C144 N146 1.375 . S
C144 H162 0.931 . S
C145 N142 1.311 . S
C145 N146 1.347 . S
C145 H156 0.929 . S
N146 C144 1.375 . S
N146 C145 1.347 . S
C147 C150 1.365 . S
C147 N152 1.328 . S
C147 H153 0.929 . S
C148 C149 1.362 . S
C148 C151 1.378 . S
C148 H163 0.929 . S
C149 C148 1.362 . S
C149 C150 1.366 . S
C150 C147 1.365 . S
C150 C149 1.366 . S
C150 H164 0.930 . S
C151 C148 1.378 . S
C151 N152 1.315 . S
C151 H154 0.930 . S
N152 Co132 2.194 . S
N152 C147 1.328 . S
N152 C151 1.315 . S
H153 C147 0.929 . S
H154 C151 0.930 . S
H155 C143 0.929 . S
H156 C145 0.929 . S
O157 Co132 2.351 . S
O157 C160 1.244 . S
O158 Co132 2.155 . S
O158 C160 1.240 . S
O159 Co132 2.096 . S
O159 C140 1.247 . S
C160 O157 1.244 . S
C160 O158 1.240 . S
H161 C135 0.931 . S
H162 C144 0.931 . S
H163 C148 0.929 . S
H164 C150 0.930 . S
Co165 N169 2.148 . S
Co165 N175 2.128 . S
Co165 N185 2.194 . S
Co165 O190 2.351 1_545 S
Co165 O191 2.155 . S
Co165 O192 2.096 . S
C166 N169 1.301 . S
C166 N170 1.328 . S
C166 H171 0.930 1_545 S
C167 C168 1.333 . S
C167 N169 1.317 . S
C167 H172 0.930 . S
C168 C167 1.333 . S
C168 N170 1.350 . S
C168 H194 0.931 . S
N169 Co165 2.148 . S
N169 C166 1.301 . S
N169 C167 1.317 . S
N170 C166 1.328 . S
N170 C168 1.350 . S
H171 C166 0.930 1_565 S
H172 C167 0.930 . S
C173 O174 1.224 . S
C173 O192 1.247 . S
O174 C173 1.224 . S
N175 Co165 2.128 . S
N175 C176 1.355 1_545 S
N175 C178 1.311 . S
C176 N175 1.355 1_565 S
C176 C177 1.363 . S
C176 H188 0.929 . S
C177 C176 1.363 . S
C177 N179 1.375 1_565 S
C177 H195 0.931 . S
C178 N175 1.311 . S
C178 N179 1.347 . S
C178 H189 0.929 . S
N179 C177 1.375 1_545 S
N179 C178 1.347 . S
C180 C183 1.365 . S
C180 N185 1.328 1_565 S
C180 H186 0.929 . S
C181 C182 1.362 1_545 S
C181 C184 1.378 . S
C181 H196 0.929 . S
C182 C181 1.362 1_565 S
C182 C183 1.366 . S
C183 C180 1.365 . S
C183 C182 1.366 . S
C183 H197 0.930 . S
C184 C181 1.378 . S
C184 N185 1.315 . S
C184 H187 0.930 . S
N185 Co165 2.194 . S
N185 C180 1.328 1_545 S
N185 C184 1.315 . S
H186 C180 0.929 . S
H187 C184 0.930 . S
H188 C176 0.929 . S
H189 C178 0.929 . S
O190 Co165 2.351 1_565 S
O190 C193 1.244 . S
O191 Co165 2.155 . S
O191 C193 1.240 1_545 S
O192 Co165 2.096 . S
O192 C173 1.247 . S
C193 O190 1.244 . S
C193 O191 1.240 1_565 S
H194 C168 0.931 . S
H195 C177 0.931 . S
H196 C181 0.929 . S
H197 C183 0.930 . S
Co198 N202 2.148 . S
Co198 N208 2.128 . S
Co198 N218 2.194 . S
Co198 O223 2.351 . S
Co198 O224 2.155 . S
Co198 O225 2.096 . S
C199 N202 1.301 . S
C199 N203 1.328 . S
C199 H204 0.930 . S
C200 C201 1.333 . S
C200 N202 1.317 . S
C200 H205 0.930 . S
C201 C200 1.333 . S
C201 N203 1.350 . S
C201 H227 0.931 . S
N202 Co198 2.148 . S
N202 C199 1.301 . S
N202 C200 1.317 . S
N203 C199 1.328 . S
N203 C201 1.350 . S
H204 C199 0.930 . S
H205 C200 0.930 . S
C206 O207 1.224 . S
C206 O225 1.247 . S
O207 C206 1.224 . S
N208 Co198 2.128 . S
N208 C209 1.355 . S
N208 C211 1.311 . S
C209 N208 1.355 . S
C209 C210 1.363 . S
C209 H221 0.929 . S
C210 C209 1.363 . S
C210 N212 1.375 . S
C210 H228 0.931 . S
C211 N208 1.311 . S
C211 N212 1.347 . S
C211 H222 0.929 . S
N212 C210 1.375 . S
N212 C211 1.347 . S
C213 C216 1.365 . S
C213 N218 1.328 . S
C213 H219 0.929 . S
C214 C215 1.362 . S
C214 C217 1.378 . S
C214 H229 0.929 . S
C215 C214 1.362 . S
C215 C216 1.366 . S
C216 C213 1.365 . S
C216 C215 1.366 . S
C216 H230 0.930 . S
C217 C214 1.378 . S
C217 N218 1.315 . S
C217 H220 0.930 . S
N218 Co198 2.194 . S
N218 C213 1.328 . S
N218 C217 1.315 . S
H219 C213 0.929 . S
H220 C217 0.930 . S
H221 C209 0.929 . S
H222 C211 0.929 . S
O223 Co198 2.351 . S
O223 C226 1.244 . S
O224 Co198 2.155 . S
O224 C226 1.240 . S
O225 Co198 2.096 . S
O225 C206 1.247 . S
C226 O223 1.244 . S
C226 O224 1.240 . S
H227 C201 0.931 . S
H228 C210 0.931 . S
H229 C214 0.929 . S
H230 C216 0.930 . S
Co231 N235 2.148 . S
Co231 N241 2.128 1_455 S
Co231 N251 2.194 . S
Co231 O256 2.351 1_565 S
Co231 O257 2.155 . S
Co231 O258 2.096 . S
C232 N235 1.301 . S
C232 N236 1.328 . S
C232 H237 0.930 1_565 S
C233 C234 1.333 . S
C233 N235 1.317 . S
C233 H238 0.930 . S
C234 C233 1.333 . S
C234 N236 1.350 . S
C234 H260 0.931 . S
N235 Co231 2.148 . S
N235 C232 1.301 . S
N235 C233 1.317 . S
N236 C232 1.328 . S
N236 C234 1.350 . S
H237 C232 0.930 1_545 S
H238 C233 0.930 . S
C239 O240 1.224 . S
C239 O258 1.247 . S
O240 C239 1.224 . S
N241 Co231 2.128 1_655 S
N241 C242 1.355 1_565 S
N241 C244 1.311 . S
C242 N241 1.355 1_545 S
C242 C243 1.363 . S
C242 H254 0.929 . S
C243 C242 1.363 . S
C243 N245 1.375 1_545 S
C243 H261 0.931 . S
C244 N241 1.311 . S
C244 N245 1.347 . S
C244 H255 0.929 . S
N245 C243 1.375 1_565 S
N245 C244 1.347 . S
C246 C249 1.365 . S
C246 N251 1.328 1_545 S
C246 H252 0.929 . S
C247 C248 1.362 1_565 S
C247 C250 1.378 . S
C247 H262 0.929 . S
C248 C247 1.362 1_545 S
C248 C249 1.366 . S
C249 C246 1.365 . S
C249 C248 1.366 . S
C249 H263 0.930 . S
C250 C247 1.378 . S
C250 N251 1.315 . S
C250 H253 0.930 . S
N251 Co231 2.194 . S
N251 C246 1.328 1_565 S
N251 C250 1.315 . S
H252 C246 0.929 . S
H253 C250 0.930 . S
H254 C242 0.929 . S
H255 C244 0.929 . S
O256 Co231 2.351 1_545 S
O256 C259 1.244 . S
O257 Co231 2.155 . S
O257 C259 1.240 1_565 S
O258 Co231 2.096 . S
O258 C239 1.247 . S
C259 O256 1.244 . S
C259 O257 1.240 1_545 S
H260 C234 0.931 . S
H261 C243 0.931 . S
H262 C247 0.929 . S
H263 C249 0.930 . S
Co264 N268 2.148 . S
Co264 N274 2.128 . S
Co264 N284 2.194 . S
Co264 O289 2.351 . S
Co264 O290 2.155 . S
Co264 O291 2.096 . S
C265 N268 1.301 . S
C265 N269 1.328 . S
C265 H270 0.930 . S
C266 C267 1.333 . S
C266 N268 1.317 . S
C266 H271 0.930 . S
C267 C266 1.333 . S
C267 N269 1.350 . S
C267 H293 0.931 . S
N268 Co264 2.148 . S
N268 C265 1.301 . S
N268 C266 1.317 . S
N269 C265 1.328 . S
N269 C267 1.350 . S
H270 C265 0.930 . S
H271 C266 0.930 . S
C272 O273 1.224 . S
C272 O291 1.247 . S
O273 C272 1.224 . S
N274 Co264 2.128 . S
N274 C275 1.355 . S
N274 C277 1.311 . S
C275 N274 1.355 . S
C275 C276 1.363 . S
C275 H287 0.929 . S
C276 C275 1.363 . S
C276 N278 1.375 . S
C276 H294 0.931 . S
C277 N274 1.311 . S
C277 N278 1.347 . S
C277 H288 0.929 . S
N278 C276 1.375 . S
N278 C277 1.347 . S
C279 C282 1.365 . S
C279 N284 1.328 . S
C279 H285 0.929 . S
C280 C281 1.362 . S
C280 C283 1.378 . S
C280 H295 0.929 . S
C281 C280 1.362 . S
C281 C282 1.366 . S
C282 C279 1.365 . S
C282 C281 1.366 . S
C282 H296 0.930 . S
C283 C280 1.378 . S
C283 N284 1.315 . S
C283 H286 0.930 . S
N284 Co264 2.194 . S
N284 C279 1.328 . S
N284 C283 1.315 . S
H285 C279 0.929 . S
H286 C283 0.930 . S
H287 C275 0.929 . S
H288 C277 0.929 . S
O289 Co264 2.351 . S
O289 C292 1.244 . S
O290 Co264 2.155 . S
O290 C292 1.240 . S
O291 Co264 2.096 . S
O291 C272 1.247 . S
C292 O289 1.244 . S
C292 O290 1.240 . S
H293 C267 0.931 . S
H294 C276 0.931 . S
H295 C280 0.929 . S
H296 C282 0.930 . S
Co297 N301 2.148 . S
Co297 N307 2.128 1_655 S
Co297 N317 2.194 . S
Co297 O322 2.351 1_565 S
Co297 O323 2.155 . S
Co297 O324 2.096 . S
C298 N301 1.301 . S
C298 N302 1.328 . S
C298 H303 0.930 1_565 S
C299 C300 1.333 . S
C299 N301 1.317 . S
C299 H304 0.930 . S
C300 C299 1.333 . S
C300 N302 1.350 . S
C300 H326 0.931 . S
N301 Co297 2.148 . S
N301 C298 1.301 . S
N301 C299 1.317 . S
N302 C298 1.328 . S
N302 C300 1.350 . S
H303 C298 0.930 1_545 S
H304 C299 0.930 . S
C305 O306 1.224 . S
C305 O324 1.247 . S
O306 C305 1.224 . S
N307 Co297 2.128 1_455 S
N307 C308 1.355 1_565 S
N307 C310 1.311 . S
C308 N307 1.355 1_545 S
C308 C309 1.363 . S
C308 H320 0.929 . S
C309 C308 1.363 . S
C309 N311 1.375 1_545 S
C309 H327 0.931 . S
C310 N307 1.311 . S
C310 N311 1.347 . S
C310 H321 0.929 . S
N311 C309 1.375 1_565 S
N311 C310 1.347 . S
C312 C315 1.365 . S
C312 N317 1.328 1_545 S
C312 H318 0.929 . S
C313 C314 1.362 1_565 S
C313 C316 1.378 . S
C313 H328 0.929 . S
C314 C313 1.362 1_545 S
C314 C315 1.366 . S
C315 C312 1.365 . S
C315 C314 1.366 . S
C315 H329 0.930 . S
C316 C313 1.378 . S
C316 N317 1.315 . S
C316 H319 0.930 . S
N317 Co297 2.194 . S
N317 C312 1.328 1_565 S
N317 C316 1.315 . S
H318 C312 0.929 . S
H319 C316 0.930 . S
H320 C308 0.929 . S
H321 C310 0.929 . S
O322 Co297 2.351 1_545 S
O322 C325 1.244 . S
O323 Co297 2.155 . S
O323 C325 1.240 1_565 S
O324 Co297 2.096 . S
O324 C305 1.247 . S
C325 O322 1.244 . S
C325 O323 1.240 1_545 S
H326 C300 0.931 . S
H327 C309 0.931 . S
H328 C313 0.929 . S
H329 C315 0.930 . S
Co330 N334 2.148 . S
Co330 N340 2.128 . S
Co330 N350 2.194 . S
Co330 O355 2.351 . S
Co330 O356 2.155 . S
Co330 O357 2.096 . S
C331 N334 1.301 . S
C331 N335 1.328 . S
C331 H336 0.930 . S
C332 C333 1.333 . S
C332 N334 1.317 . S
C332 H337 0.930 . S
C333 C332 1.333 . S
C333 N335 1.350 . S
C333 H359 0.931 . S
N334 Co330 2.148 . S
N334 C331 1.301 . S
N334 C332 1.317 . S
N335 C331 1.328 . S
N335 C333 1.350 . S
H336 C331 0.930 . S
H337 C332 0.930 . S
C338 O339 1.224 . S
C338 O357 1.247 . S
O339 C338 1.224 . S
N340 Co330 2.128 . S
N340 C341 1.355 . S
N340 C343 1.311 . S
C341 N340 1.355 . S
C341 C342 1.363 . S
C341 H353 0.929 . S
C342 C341 1.363 . S
C342 N344 1.375 . S
C342 H360 0.931 . S
C343 N340 1.311 . S
C343 N344 1.347 . S
C343 H354 0.929 . S
N344 C342 1.375 . S
N344 C343 1.347 . S
C345 C348 1.365 . S
C345 N350 1.328 . S
C345 H351 0.929 . S
C346 C347 1.362 . S
C346 C349 1.378 . S
C346 H361 0.929 . S
C347 C346 1.362 . S
C347 C348 1.366 . S
C348 C345 1.365 . S
C348 C347 1.366 . S
C348 H362 0.930 . S
C349 C346 1.378 . S
C349 N350 1.315 . S
C349 H352 0.930 . S
N350 Co330 2.194 . S
N350 C345 1.328 . S
N350 C349 1.315 . S
H351 C345 0.929 . S
H352 C349 0.930 . S
H353 C341 0.929 . S
H354 C343 0.929 . S
O355 Co330 2.351 . S
O355 C358 1.244 . S
O356 Co330 2.155 . S
O356 C358 1.240 . S
O357 Co330 2.096 . S
O357 C338 1.247 . S
C358 O355 1.244 . S
C358 O356 1.240 . S
H359 C333 0.931 . S
H360 C342 0.931 . S
H361 C346 0.929 . S
H362 C348 0.930 . S
Co363 N367 2.148 . S
Co363 N373 2.128 . S
Co363 N383 2.194 . S
Co363 O388 2.351 1_545 S
Co363 O389 2.155 . S
Co363 O390 2.096 . S
C364 N367 1.301 . S
C364 N368 1.328 . S
C364 H369 0.930 1_545 S
C365 C366 1.333 . S
C365 N367 1.317 . S
C365 H370 0.930 . S
C366 C365 1.333 . S
C366 N368 1.350 . S
C366 H392 0.931 . S
N367 Co363 2.148 . S
N367 C364 1.301 . S
N367 C365 1.317 . S
N368 C364 1.328 . S
N368 C366 1.350 . S
H369 C364 0.930 1_565 S
H370 C365 0.930 . S
C371 O372 1.224 . S
C371 O390 1.247 . S
O372 C371 1.224 . S
N373 Co363 2.128 . S
N373 C374 1.355 1_545 S
N373 C376 1.311 . S
C374 N373 1.355 1_565 S
C374 C375 1.363 . S
C374 H386 0.929 . S
C375 C374 1.363 . S
C375 N377 1.375 1_565 S
C375 H393 0.931 . S
C376 N373 1.311 . S
C376 N377 1.347 . S
C376 H387 0.929 . S
N377 C375 1.375 1_545 S
N377 C376 1.347 . S
C378 C381 1.365 . S
C378 N383 1.328 1_565 S
C378 H384 0.929 . S
C379 C380 1.362 1_545 S
C379 C382 1.378 . S
C379 H394 0.929 . S
C380 C379 1.362 1_565 S
C380 C381 1.366 . S
C381 C378 1.365 . S
C381 C380 1.366 . S
C381 H395 0.930 . S
C382 C379 1.378 . S
C382 N383 1.315 . S
C382 H385 0.930 . S
N383 Co363 2.194 . S
N383 C378 1.328 1_545 S
N383 C382 1.315 . S
H384 C378 0.929 . S
H385 C382 0.930 . S
H386 C374 0.929 . S
H387 C376 0.929 . S
O388 Co363 2.351 1_565 S
O388 C391 1.244 . S
O389 Co363 2.155 . S
O389 C391 1.240 1_545 S
O390 Co363 2.096 . S
O390 C371 1.247 . S
C391 O388 1.244 . S
C391 O389 1.240 1_565 S
H392 C366 0.931 . S
H393 C375 0.931 . S
H394 C379 0.929 . S
H395 C381 0.930 . S
Co396 N400 2.148 . S
Co396 N406 2.128 . S
Co396 N416 2.194 . S
Co396 O421 2.351 . S
Co396 O422 2.155 . S
Co396 O423 2.096 . S
C397 N400 1.301 . S
C397 N401 1.328 . S
C397 H402 0.930 . S
C398 C399 1.333 . S
C398 N400 1.317 . S
C398 H403 0.930 . S
C399 C398 1.333 . S
C399 N401 1.350 . S
C399 H425 0.931 . S
N400 Co396 2.148 . S
N400 C397 1.301 . S
N400 C398 1.317 . S
N401 C397 1.328 . S
N401 C399 1.350 . S
H402 C397 0.930 . S
H403 C398 0.930 . S
C404 O405 1.224 . S
C404 O423 1.247 . S
O405 C404 1.224 . S
N406 Co396 2.128 . S
N406 C407 1.355 . S
N406 C409 1.311 . S
C407 N406 1.355 . S
C407 C408 1.363 . S
C407 H419 0.929 . S
C408 C407 1.363 . S
C408 N410 1.375 . S
C408 H426 0.931 . S
C409 N406 1.311 . S
C409 N410 1.347 . S
C409 H420 0.929 . S
N410 C408 1.375 . S
N410 C409 1.347 . S
C411 C414 1.365 . S
C411 N416 1.328 . S
C411 H417 0.929 . S
C412 C413 1.362 . S
C412 C415 1.378 . S
C412 H427 0.929 . S
C413 C412 1.362 . S
C413 C414 1.366 . S
C414 C411 1.365 . S
C414 C413 1.366 . S
C414 H428 0.930 . S
C415 C412 1.378 . S
C415 N416 1.315 . S
C415 H418 0.930 . S
N416 Co396 2.194 . S
N416 C411 1.328 . S
N416 C415 1.315 . S
H417 C411 0.929 . S
H418 C415 0.930 . S
H419 C407 0.929 . S
H420 C409 0.929 . S
O421 Co396 2.351 . S
O421 C424 1.244 . S
O422 Co396 2.155 . S
O422 C424 1.240 . S
O423 Co396 2.096 . S
O423 C404 1.247 . S
C424 O421 1.244 . S
C424 O422 1.240 . S
H425 C399 0.931 . S
H426 C408 0.931 . S
H427 C412 0.929 . S
H428 C414 0.930 . S
Co429 N433 2.148 . S
Co429 N439 2.128 . S
Co429 N449 2.194 . S
Co429 O454 2.351 1_565 S
Co429 O455 2.155 . S
Co429 O456 2.096 . S
C430 N433 1.301 . S
C430 N434 1.328 . S
C430 H435 0.930 1_565 S
C431 C432 1.333 . S
C431 N433 1.317 . S
C431 H436 0.930 . S
C432 C431 1.333 . S
C432 N434 1.350 . S
C432 H458 0.931 . S
N433 Co429 2.148 . S
N433 C430 1.301 . S
N433 C431 1.317 . S
N434 C430 1.328 . S
N434 C432 1.350 . S
H435 C430 0.930 1_545 S
H436 C431 0.930 . S
C437 O438 1.224 . S
C437 O456 1.247 . S
O438 C437 1.224 . S
N439 Co429 2.128 . S
N439 C440 1.355 1_565 S
N439 C442 1.311 . S
C440 N439 1.355 1_545 S
C440 C441 1.363 . S
C440 H452 0.929 . S
C441 C440 1.363 . S
C441 N443 1.375 1_545 S
C441 H459 0.931 . S
C442 N439 1.311 . S
C442 N443 1.347 . S
C442 H453 0.929 . S
N443 C441 1.375 1_565 S
N443 C442 1.347 . S
C444 C447 1.365 . S
C444 N449 1.328 1_545 S
C444 H450 0.929 . S
C445 C446 1.362 1_565 S
C445 C448 1.378 . S
C445 H460 0.929 . S
C446 C445 1.362 1_545 S
C446 C447 1.366 . S
C447 C444 1.365 . S
C447 C446 1.366 . S
C447 H461 0.930 . S
C448 C445 1.378 . S
C448 N449 1.315 . S
C448 H451 0.930 . S
N449 Co429 2.194 . S
N449 C444 1.328 1_565 S
N449 C448 1.315 . S
H450 C444 0.929 . S
H451 C448 0.930 . S
H452 C440 0.929 . S
H453 C442 0.929 . S
O454 Co429 2.351 1_545 S
O454 C457 1.244 . S
O455 Co429 2.155 . S
O455 C457 1.240 1_565 S
O456 Co429 2.096 . S
O456 C437 1.247 . S
C457 O454 1.244 . S
C457 O455 1.240 1_545 S
H458 C432 0.931 . S
H459 C441 0.931 . S
H460 C445 0.929 . S
H461 C447 0.930 . S
Co462 N466 2.148 . S
Co462 N472 2.128 . S
Co462 N482 2.194 . S
Co462 O487 2.351 . S
Co462 O488 2.155 . S
Co462 O489 2.096 . S
C463 N466 1.301 . S
C463 N467 1.328 . S
C463 H468 0.930 . S
C464 C465 1.333 . S
C464 N466 1.317 . S
C464 H469 0.930 . S
C465 C464 1.333 . S
C465 N467 1.350 . S
C465 H491 0.931 . S
N466 Co462 2.148 . S
N466 C463 1.301 . S
N466 C464 1.317 . S
N467 C463 1.328 . S
N467 C465 1.350 . S
H468 C463 0.930 . S
H469 C464 0.930 . S
C470 O471 1.224 . S
C470 O489 1.247 . S
O471 C470 1.224 . S
N472 Co462 2.128 . S
N472 C473 1.355 . S
N472 C475 1.311 . S
C473 N472 1.355 . S
C473 C474 1.363 . S
C473 H485 0.929 . S
C474 C473 1.363 . S
C474 N476 1.375 . S
C474 H492 0.931 . S
C475 N472 1.311 . S
C475 N476 1.347 . S
C475 H486 0.929 . S
N476 C474 1.375 . S
N476 C475 1.347 . S
C477 C480 1.365 . S
C477 N482 1.328 . S
C477 H483 0.929 . S
C478 C479 1.362 . S
C478 C481 1.378 . S
C478 H493 0.929 . S
C479 C478 1.362 . S
C479 C480 1.366 . S
C480 C477 1.365 . S
C480 C479 1.366 . S
C480 H494 0.930 . S
C481 C478 1.378 . S
C481 N482 1.315 . S
C481 H484 0.930 . S
N482 Co462 2.194 . S
N482 C477 1.328 . S
N482 C481 1.315 . S
H483 C477 0.929 . S
H484 C481 0.930 . S
H485 C473 0.929 . S
H486 C475 0.929 . S
O487 Co462 2.351 . S
O487 C490 1.244 . S
O488 Co462 2.155 . S
O488 C490 1.240 . S
O489 Co462 2.096 . S
O489 C470 1.247 . S
C490 O487 1.244 . S
C490 O488 1.240 . S
H491 C465 0.931 . S
H492 C474 0.931 . S
H493 C478 0.929 . S
H494 C480 0.930 . S
Co495 N499 2.148 . S
Co495 N505 2.128 1_655 S
Co495 N515 2.194 . S
Co495 O520 2.351 1_545 S
Co495 O521 2.155 . S
Co495 O522 2.096 . S
C496 N499 1.301 . S
C496 N500 1.328 . S
C496 H501 0.930 1_545 S
C497 C498 1.333 . S
C497 N499 1.317 . S
C497 H502 0.930 . S
C498 C497 1.333 . S
C498 N500 1.350 . S
C498 H524 0.931 . S
N499 Co495 2.148 . S
N499 C496 1.301 . S
N499 C497 1.317 . S
N500 C496 1.328 . S
N500 C498 1.350 . S
H501 C496 0.930 1_565 S
H502 C497 0.930 . S
C503 O504 1.224 . S
C503 O522 1.247 . S
O504 C503 1.224 . S
N505 Co495 2.128 1_455 S
N505 C506 1.355 1_545 S
N505 C508 1.311 . S
C506 N505 1.355 1_565 S
C506 C507 1.363 . S
C506 H518 0.929 . S
C507 C506 1.363 . S
C507 N509 1.375 1_565 S
C507 H525 0.931 . S
C508 N505 1.311 . S
C508 N509 1.347 . S
C508 H519 0.929 . S
N509 C507 1.375 1_545 S
N509 C508 1.347 . S
C510 C513 1.365 . S
C510 N515 1.328 1_565 S
C510 H516 0.929 . S
C511 C512 1.362 1_545 S
C511 C514 1.378 . S
C511 H526 0.929 . S
C512 C511 1.362 1_565 S
C512 C513 1.366 . S
C513 C510 1.365 . S
C513 C512 1.366 . S
C513 H527 0.930 . S
C514 C511 1.378 . S
C514 N515 1.315 . S
C514 H517 0.930 . S
N515 Co495 2.194 . S
N515 C510 1.328 1_545 S
N515 C514 1.315 . S
H516 C510 0.929 . S
H517 C514 0.930 . S
H518 C506 0.929 . S
H519 C508 0.929 . S
O520 Co495 2.351 1_565 S
O520 C523 1.244 . S
O521 Co495 2.155 . S
O521 C523 1.240 1_545 S
O522 Co495 2.096 . S
O522 C503 1.247 . S
C523 O520 1.244 . S
C523 O521 1.240 1_565 S
H524 C498 0.931 . S
H525 C507 0.931 . S
H526 C511 0.929 . S
H527 C513 0.930 . S
Co528 N532 2.148 . S
Co528 N538 2.128 . S
Co528 N548 2.194 . S
Co528 O553 2.351 . S
Co528 O554 2.155 . S
Co528 O555 2.096 . S
C529 N532 1.301 . S
C529 N533 1.328 . S
C529 H534 0.930 . S
C530 C531 1.333 . S
C530 N532 1.317 . S
C530 H535 0.930 . S
C531 C530 1.333 . S
C531 N533 1.350 . S
C531 H557 0.931 . S
N532 Co528 2.148 . S
N532 C529 1.301 . S
N532 C530 1.317 . S
N533 C529 1.328 . S
N533 C531 1.350 . S
H534 C529 0.930 . S
H535 C530 0.930 . S
C536 O537 1.224 . S
C536 O555 1.247 . S
O537 C536 1.224 . S
N538 Co528 2.128 . S
N538 C539 1.355 . S
N538 C541 1.311 . S
C539 N538 1.355 . S
C539 C540 1.363 . S
C539 H551 0.929 . S
C540 C539 1.363 . S
C540 N542 1.375 . S
C540 H558 0.931 . S
C541 N538 1.311 . S
C541 N542 1.347 . S
C541 H552 0.929 . S
N542 C540 1.375 . S
N542 C541 1.347 . S
C543 C546 1.365 . S
C543 N548 1.328 . S
C543 H549 0.929 . S
C544 C545 1.362 . S
C544 C547 1.378 . S
C544 H559 0.929 . S
C545 C544 1.362 . S
C545 C546 1.366 . S
C546 C543 1.365 . S
C546 C545 1.366 . S
C546 H560 0.930 . S
C547 C544 1.378 . S
C547 N548 1.315 . S
C547 H550 0.930 . S
N548 Co528 2.194 . S
N548 C543 1.328 . S
N548 C547 1.315 . S
H549 C543 0.929 . S
H550 C547 0.930 . S
H551 C539 0.929 . S
H552 C541 0.929 . S
O553 Co528 2.351 . S
O553 C556 1.244 . S
O554 Co528 2.155 . S
O554 C556 1.240 . S
O555 Co528 2.096 . S
O555 C536 1.247 . S
C556 O553 1.244 . S
C556 O554 1.240 . S
H557 C531 0.931 . S
H558 C540 0.931 . S
H559 C544 0.929 . S
H560 C546 0.930 . S
Co561 N565 2.148 . S
Co561 N571 2.128 . S
Co561 N581 2.194 . S
Co561 O586 2.351 . S
Co561 O587 2.155 . S
Co561 O588 2.096 . S
C562 N565 1.301 . S
C562 N566 1.328 . S
C562 H567 0.930 . S
C563 C564 1.333 . S
C563 N565 1.317 . S
C563 H568 0.930 . S
C564 C563 1.333 . S
C564 N566 1.350 . S
C564 H590 0.931 . S
N565 Co561 2.148 . S
N565 C562 1.301 . S
N565 C563 1.317 . S
N566 C562 1.328 . S
N566 C564 1.350 . S
H567 C562 0.930 . S
H568 C563 0.930 . S
C569 O570 1.224 . S
C569 O588 1.247 . S
O570 C569 1.224 . S
N571 Co561 2.128 . S
N571 C572 1.355 . S
N571 C574 1.311 . S
C572 N571 1.355 . S
C572 C573 1.363 . S
C572 H584 0.929 . S
C573 C572 1.363 . S
C573 N575 1.375 . S
C573 H591 0.931 . S
C574 N571 1.311 . S
C574 N575 1.347 . S
C574 H585 0.929 . S
N575 C573 1.375 . S
N575 C574 1.347 . S
C576 C579 1.365 . S
C576 N581 1.328 . S
C576 H582 0.929 . S
C577 C578 1.362 . S
C577 C580 1.378 . S
C577 H592 0.929 . S
C578 C577 1.362 . S
C578 C579 1.366 . S
C579 C576 1.365 . S
C579 C578 1.366 . S
C579 H593 0.930 . S
C580 C577 1.378 . S
C580 N581 1.315 . S
C580 H583 0.930 . S
N581 Co561 2.194 . S
N581 C576 1.328 . S
N581 C580 1.315 . S
H582 C576 0.929 . S
H583 C580 0.930 . S
H584 C572 0.929 . S
H585 C574 0.929 . S
O586 Co561 2.351 . S
O586 C589 1.244 . S
O587 Co561 2.155 . S
O587 C589 1.240 . S
O588 Co561 2.096 . S
O588 C569 1.247 . S
C589 O586 1.244 . S
C589 O587 1.240 . S
H590 C564 0.931 . S
H591 C573 0.931 . S
H592 C577 0.929 . S
H593 C579 0.930 . S
Co594 N598 2.148 . S
Co594 N604 2.128 . S
Co594 N614 2.194 . S
Co594 O619 2.351 . S
Co594 O620 2.155 . S
Co594 O621 2.096 . S
C595 N598 1.301 . S
C595 N599 1.328 . S
C595 H600 0.930 . S
C596 C597 1.333 . S
C596 N598 1.317 . S
C596 H601 0.930 . S
C597 C596 1.333 . S
C597 N599 1.350 . S
C597 H623 0.931 . S
N598 Co594 2.148 . S
N598 C595 1.301 . S
N598 C596 1.317 . S
N599 C595 1.328 . S
N599 C597 1.350 . S
H600 C595 0.930 . S
H601 C596 0.930 . S
C602 O603 1.224 . S
C602 O621 1.247 . S
O603 C602 1.224 . S
N604 Co594 2.128 . S
N604 C605 1.355 . S
N604 C607 1.311 . S
C605 N604 1.355 . S
C605 C606 1.363 . S
C605 H617 0.929 . S
C606 C605 1.363 . S
C606 N608 1.375 . S
C606 H624 0.931 . S
C607 N604 1.311 . S
C607 N608 1.347 . S
C607 H618 0.929 . S
N608 C606 1.375 . S
N608 C607 1.347 . S
C609 C612 1.365 . S
C609 N614 1.328 . S
C609 H615 0.929 . S
C610 C611 1.362 . S
C610 C613 1.378 . S
C610 H625 0.929 . S
C611 C610 1.362 . S
C611 C612 1.366 . S
C612 C609 1.365 . S
C612 C611 1.366 . S
C612 H626 0.930 . S
C613 C610 1.378 . S
C613 N614 1.315 . S
C613 H616 0.930 . S
N614 Co594 2.194 . S
N614 C609 1.328 . S
N614 C613 1.315 . S
H615 C609 0.929 . S
H616 C613 0.930 . S
H617 C605 0.929 . S
H618 C607 0.929 . S
O619 Co594 2.351 . S
O619 C622 1.244 . S
O620 Co594 2.155 . S
O620 C622 1.240 . S
O621 Co594 2.096 . S
O621 C602 1.247 . S
C622 O619 1.244 . S
C622 O620 1.240 . S
H623 C597 0.931 . S
H624 C606 0.931 . S
H625 C610 0.929 . S
H626 C612 0.930 . S
Co627 N631 2.148 . S
Co627 N637 2.128 1_655 S
Co627 N647 2.194 . S
Co627 O652 2.351 . S
Co627 O653 2.155 . S
Co627 O654 2.096 . S
C628 N631 1.301 . S
C628 N632 1.328 . S
C628 H633 0.930 . S
C629 C630 1.333 . S
C629 N631 1.317 . S
C629 H634 0.930 . S
C630 C629 1.333 . S
C630 N632 1.350 . S
C630 H656 0.931 . S
N631 Co627 2.148 . S
N631 C628 1.301 . S
N631 C629 1.317 . S
N632 C628 1.328 . S
N632 C630 1.350 . S
H633 C628 0.930 . S
H634 C629 0.930 . S
C635 O636 1.224 . S
C635 O654 1.247 . S
O636 C635 1.224 . S
N637 Co627 2.128 1_455 S
N637 C638 1.355 . S
N637 C640 1.311 . S
C638 N637 1.355 . S
C638 C639 1.363 . S
C638 H650 0.929 . S
C639 C638 1.363 . S
C639 N641 1.375 . S
C639 H657 0.931 . S
C640 N637 1.311 . S
C640 N641 1.347 . S
C640 H651 0.929 . S
N641 C639 1.375 . S
N641 C640 1.347 . S
C642 C645 1.365 . S
C642 N647 1.328 . S
C642 H648 0.929 . S
C643 C644 1.362 . S
C643 C646 1.378 . S
C643 H658 0.929 . S
C644 C643 1.362 . S
C644 C645 1.366 . S
C645 C642 1.365 . S
C645 C644 1.366 . S
C645 H659 0.930 . S
C646 C643 1.378 . S
C646 N647 1.315 . S
C646 H649 0.930 . S
N647 Co627 2.194 . S
N647 C642 1.328 . S
N647 C646 1.315 . S
H648 C642 0.929 . S
H649 C646 0.930 . S
H650 C638 0.929 . S
H651 C640 0.929 . S
O652 Co627 2.351 . S
O652 C655 1.244 . S
O653 Co627 2.155 . S
O653 C655 1.240 . S
O654 Co627 2.096 . S
O654 C635 1.247 . S
C655 O652 1.244 . S
C655 O653 1.240 . S
H656 C630 0.931 . S
H657 C639 0.931 . S
H658 C643 0.929 . S
H659 C645 0.930 . S
Co660 N664 2.148 . S
Co660 N670 2.128 . S
Co660 N680 2.194 . S
Co660 O685 2.351 . S
Co660 O686 2.155 . S
Co660 O687 2.096 . S
C661 N664 1.301 . S
C661 N665 1.328 . S
C661 H666 0.930 . S
C662 C663 1.333 . S
C662 N664 1.317 . S
C662 H667 0.930 . S
C663 C662 1.333 . S
C663 N665 1.350 . S
C663 H689 0.931 . S
N664 Co660 2.148 . S
N664 C661 1.301 . S
N664 C662 1.317 . S
N665 C661 1.328 . S
N665 C663 1.350 . S
H666 C661 0.930 . S
H667 C662 0.930 . S
C668 O669 1.224 . S
C668 O687 1.247 . S
O669 C668 1.224 . S
N670 Co660 2.128 . S
N670 C671 1.355 . S
N670 C673 1.311 . S
C671 N670 1.355 . S
C671 C672 1.363 . S
C671 H683 0.929 . S
C672 C671 1.363 . S
C672 N674 1.375 . S
C672 H690 0.931 . S
C673 N670 1.311 . S
C673 N674 1.347 . S
C673 H684 0.929 . S
N674 C672 1.375 . S
N674 C673 1.347 . S
C675 C678 1.365 . S
C675 N680 1.328 . S
C675 H681 0.929 . S
C676 C677 1.362 . S
C676 C679 1.378 . S
C676 H691 0.929 . S
C677 C676 1.362 . S
C677 C678 1.366 . S
C678 C675 1.365 . S
C678 C677 1.366 . S
C678 H692 0.930 . S
C679 C676 1.378 . S
C679 N680 1.315 . S
C679 H682 0.930 . S
N680 Co660 2.194 . S
N680 C675 1.328 . S
N680 C679 1.315 . S
H681 C675 0.929 . S
H682 C679 0.930 . S
H683 C671 0.929 . S
H684 C673 0.929 . S
O685 Co660 2.351 . S
O685 C688 1.244 . S
O686 Co660 2.155 . S
O686 C688 1.240 . S
O687 Co660 2.096 . S
O687 C668 1.247 . S
C688 O685 1.244 . S
C688 O686 1.240 . S
H689 C663 0.931 . S
H690 C672 0.931 . S
H691 C676 0.929 . S
H692 C678 0.930 . S
Co693 N697 2.148 . S
Co693 N703 2.128 1_655 S
Co693 N713 2.194 . S
Co693 O718 2.351 . S
Co693 O719 2.155 . S
Co693 O720 2.096 . S
C694 N697 1.301 . S
C694 N698 1.328 . S
C694 H699 0.930 . S
C695 C696 1.333 . S
C695 N697 1.317 . S
C695 H700 0.930 . S
C696 C695 1.333 . S
C696 N698 1.350 . S
C696 H722 0.931 . S
N697 Co693 2.148 . S
N697 C694 1.301 . S
N697 C695 1.317 . S
N698 C694 1.328 . S
N698 C696 1.350 . S
H699 C694 0.930 . S
H700 C695 0.930 . S
C701 O702 1.224 . S
C701 O720 1.247 . S
O702 C701 1.224 . S
N703 Co693 2.128 1_455 S
N703 C704 1.355 . S
N703 C706 1.311 . S
C704 N703 1.355 . S
C704 C705 1.363 . S
C704 H716 0.929 . S
C705 C704 1.363 . S
C705 N707 1.375 . S
C705 H723 0.931 . S
C706 N703 1.311 . S
C706 N707 1.347 . S
C706 H717 0.929 . S
N707 C705 1.375 . S
N707 C706 1.347 . S
C708 C711 1.365 . S
C708 N713 1.328 . S
C708 H714 0.929 . S
C709 C710 1.362 . S
C709 C712 1.378 . S
C709 H724 0.929 . S
C710 C709 1.362 . S
C710 C711 1.366 . S
C711 C708 1.365 . S
C711 C710 1.366 . S
C711 H725 0.930 . S
C712 C709 1.378 . S
C712 N713 1.315 . S
C712 H715 0.930 . S
N713 Co693 2.194 . S
N713 C708 1.328 . S
N713 C712 1.315 . S
H714 C708 0.929 . S
H715 C712 0.930 . S
H716 C704 0.929 . S
H717 C706 0.929 . S
O718 Co693 2.351 . S
O718 C721 1.244 . S
O719 Co693 2.155 . S
O719 C721 1.240 . S
O720 Co693 2.096 . S
O720 C701 1.247 . S
C721 O718 1.244 . S
C721 O719 1.240 . S
H722 C696 0.931 . S
H723 C705 0.931 . S
H724 C709 0.929 . S
H725 C711 0.930 . S
Co726 N730 2.148 . S
Co726 N736 2.128 . S
Co726 N746 2.194 . S
Co726 O751 2.351 . S
Co726 O752 2.155 . S
Co726 O753 2.096 . S
C727 N730 1.301 . S
C727 N731 1.328 . S
C727 H732 0.930 . S
C728 C729 1.333 . S
C728 N730 1.317 . S
C728 H733 0.930 . S
C729 C728 1.333 . S
C729 N731 1.350 . S
C729 H755 0.931 . S
N730 Co726 2.148 . S
N730 C727 1.301 . S
N730 C728 1.317 . S
N731 C727 1.328 . S
N731 C729 1.350 . S
H732 C727 0.930 . S
H733 C728 0.930 . S
C734 O735 1.224 . S
C734 O753 1.247 . S
O735 C734 1.224 . S
N736 Co726 2.128 . S
N736 C737 1.355 . S
N736 C739 1.311 . S
C737 N736 1.355 . S
C737 C738 1.363 . S
C737 H749 0.929 . S
C738 C737 1.363 . S
C738 N740 1.375 . S
C738 H756 0.931 . S
C739 N736 1.311 . S
C739 N740 1.347 . S
C739 H750 0.929 . S
N740 C738 1.375 . S
N740 C739 1.347 . S
C741 C744 1.365 . S
C741 N746 1.328 . S
C741 H747 0.929 . S
C742 C743 1.362 . S
C742 C745 1.378 . S
C742 H757 0.929 . S
C743 C742 1.362 . S
C743 C744 1.366 . S
C744 C741 1.365 . S
C744 C743 1.366 . S
C744 H758 0.930 . S
C745 C742 1.378 . S
C745 N746 1.315 . S
C745 H748 0.930 . S
N746 Co726 2.194 . S
N746 C741 1.328 . S
N746 C745 1.315 . S
H747 C741 0.929 . S
H748 C745 0.930 . S
H749 C737 0.929 . S
H750 C739 0.929 . S
O751 Co726 2.351 . S
O751 C754 1.244 . S
O752 Co726 2.155 . S
O752 C754 1.240 . S
O753 Co726 2.096 . S
O753 C734 1.247 . S
C754 O751 1.244 . S
C754 O752 1.240 . S
H755 C729 0.931 . S
H756 C738 0.931 . S
H757 C742 0.929 . S
H758 C744 0.930 . S
Co759 N763 2.148 . S
Co759 N769 2.128 . S
Co759 N779 2.194 . S
Co759 O784 2.351 . S
Co759 O785 2.155 . S
Co759 O786 2.096 . S
C760 N763 1.301 . S
C760 N764 1.328 . S
C760 H765 0.930 . S
C761 C762 1.333 . S
C761 N763 1.317 . S
C761 H766 0.930 . S
C762 C761 1.333 . S
C762 N764 1.350 . S
C762 H788 0.931 . S
N763 Co759 2.148 . S
N763 C760 1.301 . S
N763 C761 1.317 . S
N764 C760 1.328 . S
N764 C762 1.350 . S
H765 C760 0.930 . S
H766 C761 0.930 . S
C767 O768 1.224 . S
C767 O786 1.247 . S
O768 C767 1.224 . S
N769 Co759 2.128 . S
N769 C770 1.355 . S
N769 C772 1.311 . S
C770 N769 1.355 . S
C770 C771 1.363 . S
C770 H782 0.929 . S
C771 C770 1.363 . S
C771 N773 1.375 . S
C771 H789 0.931 . S
C772 N769 1.311 . S
C772 N773 1.347 . S
C772 H783 0.929 . S
N773 C771 1.375 . S
N773 C772 1.347 . S
C774 C777 1.365 . S
C774 N779 1.328 . S
C774 H780 0.929 . S
C775 C776 1.362 . S
C775 C778 1.378 . S
C775 H790 0.929 . S
C776 C775 1.362 . S
C776 C777 1.366 . S
C777 C774 1.365 . S
C777 C776 1.366 . S
C777 H791 0.930 . S
C778 C775 1.378 . S
C778 N779 1.315 . S
C778 H781 0.930 . S
N779 Co759 2.194 . S
N779 C774 1.328 . S
N779 C778 1.315 . S
H780 C774 0.929 . S
H781 C778 0.930 . S
H782 C770 0.929 . S
H783 C772 0.929 . S
O784 Co759 2.351 . S
O784 C787 1.244 . S
O785 Co759 2.155 . S
O785 C787 1.240 . S
O786 Co759 2.096 . S
O786 C767 1.247 . S
C787 O784 1.244 . S
C787 O785 1.240 . S
H788 C762 0.931 . S
H789 C771 0.931 . S
H790 C775 0.929 . S
H791 C777 0.930 . S
Co792 N796 2.148 . S
Co792 N802 2.128 . S
Co792 N812 2.194 . S
Co792 O817 2.351 . S
Co792 O818 2.155 . S
Co792 O819 2.096 . S
C793 N796 1.301 . S
C793 N797 1.328 . S
C793 H798 0.930 . S
C794 C795 1.333 . S
C794 N796 1.317 . S
C794 H799 0.930 . S
C795 C794 1.333 . S
C795 N797 1.350 . S
C795 H821 0.931 . S
N796 Co792 2.148 . S
N796 C793 1.301 . S
N796 C794 1.317 . S
N797 C793 1.328 . S
N797 C795 1.350 . S
H798 C793 0.930 . S
H799 C794 0.930 . S
C800 O801 1.224 . S
C800 O819 1.247 . S
O801 C800 1.224 . S
N802 Co792 2.128 . S
N802 C803 1.355 . S
N802 C805 1.311 . S
C803 N802 1.355 . S
C803 C804 1.363 . S
C803 H815 0.929 . S
C804 C803 1.363 . S
C804 N806 1.375 . S
C804 H822 0.931 . S
C805 N802 1.311 . S
C805 N806 1.347 . S
C805 H816 0.929 . S
N806 C804 1.375 . S
N806 C805 1.347 . S
C807 C810 1.365 . S
C807 N812 1.328 . S
C807 H813 0.929 . S
C808 C809 1.362 . S
C808 C811 1.378 . S
C808 H823 0.929 . S
C809 C808 1.362 . S
C809 C810 1.366 . S
C810 C807 1.365 . S
C810 C809 1.366 . S
C810 H824 0.930 . S
C811 C808 1.378 . S
C811 N812 1.315 . S
C811 H814 0.930 . S
N812 Co792 2.194 . S
N812 C807 1.328 . S
N812 C811 1.315 . S
H813 C807 0.929 . S
H814 C811 0.930 . S
H815 C803 0.929 . S
H816 C805 0.929 . S
O817 Co792 2.351 . S
O817 C820 1.244 . S
O818 Co792 2.155 . S
O818 C820 1.240 . S
O819 Co792 2.096 . S
O819 C800 1.247 . S
C820 O817 1.244 . S
C820 O818 1.240 . S
H821 C795 0.931 . S
H822 C804 0.931 . S
H823 C808 0.929 . S
H824 C810 0.930 . S
Co825 N829 2.148 . S
Co825 N835 2.128 . S
Co825 N845 2.194 . S
Co825 O850 2.351 . S
Co825 O851 2.155 . S
Co825 O852 2.096 . S
C826 N829 1.301 . S
C826 N830 1.328 . S
C826 H831 0.930 . S
C827 C828 1.333 . S
C827 N829 1.317 . S
C827 H832 0.930 . S
C828 C827 1.333 . S
C828 N830 1.350 . S
C828 H854 0.931 . S
N829 Co825 2.148 . S
N829 C826 1.301 . S
N829 C827 1.317 . S
N830 C826 1.328 . S
N830 C828 1.350 . S
H831 C826 0.930 . S
H832 C827 0.930 . S
C833 O834 1.224 . S
C833 O852 1.247 . S
O834 C833 1.224 . S
N835 Co825 2.128 . S
N835 C836 1.355 . S
N835 C838 1.311 . S
C836 N835 1.355 . S
C836 C837 1.363 . S
C836 H848 0.929 . S
C837 C836 1.363 . S
C837 N839 1.375 . S
C837 H855 0.931 . S
C838 N835 1.311 . S
C838 N839 1.347 . S
C838 H849 0.929 . S
N839 C837 1.375 . S
N839 C838 1.347 . S
C840 C843 1.365 . S
C840 N845 1.328 . S
C840 H846 0.929 . S
C841 C842 1.362 . S
C841 C844 1.378 . S
C841 H856 0.929 . S
C842 C841 1.362 . S
C842 C843 1.366 . S
C843 C840 1.365 . S
C843 C842 1.366 . S
C843 H857 0.930 . S
C844 C841 1.378 . S
C844 N845 1.315 . S
C844 H847 0.930 . S
N845 Co825 2.194 . S
N845 C840 1.328 . S
N845 C844 1.315 . S
H846 C840 0.929 . S
H847 C844 0.930 . S
H848 C836 0.929 . S
H849 C838 0.929 . S
O850 Co825 2.351 . S
O850 C853 1.244 . S
O851 Co825 2.155 . S
O851 C853 1.240 . S
O852 Co825 2.096 . S
O852 C833 1.247 . S
C853 O850 1.244 . S
C853 O851 1.240 . S
H854 C828 0.931 . S
H855 C837 0.931 . S
H856 C841 0.929 . S
H857 C843 0.930 . S
Co858 N862 2.148 . S
Co858 N868 2.128 . S
Co858 N878 2.194 . S
Co858 O883 2.351 . S
Co858 O884 2.155 . S
Co858 O885 2.096 . S
C859 N862 1.301 . S
C859 N863 1.328 . S
C859 H864 0.930 . S
C860 C861 1.333 . S
C860 N862 1.317 . S
C860 H865 0.930 . S
C861 C860 1.333 . S
C861 N863 1.350 . S
C861 H887 0.931 . S
N862 Co858 2.148 . S
N862 C859 1.301 . S
N862 C860 1.317 . S
N863 C859 1.328 . S
N863 C861 1.350 . S
H864 C859 0.930 . S
H865 C860 0.930 . S
C866 O867 1.224 . S
C866 O885 1.247 . S
O867 C866 1.224 . S
N868 Co858 2.128 . S
N868 C869 1.355 . S
N868 C871 1.311 . S
C869 N868 1.355 . S
C869 C870 1.363 . S
C869 H881 0.929 . S
C870 C869 1.363 . S
C870 N872 1.375 . S
C870 H888 0.931 . S
C871 N868 1.311 . S
C871 N872 1.347 . S
C871 H882 0.929 . S
N872 C870 1.375 . S
N872 C871 1.347 . S
C873 C876 1.365 . S
C873 N878 1.328 . S
C873 H879 0.929 . S
C874 C875 1.362 . S
C874 C877 1.378 . S
C874 H889 0.929 . S
C875 C874 1.362 . S
C875 C876 1.366 . S
C876 C873 1.365 . S
C876 C875 1.366 . S
C876 H890 0.930 . S
C877 C874 1.378 . S
C877 N878 1.315 . S
C877 H880 0.930 . S
N878 Co858 2.194 . S
N878 C873 1.328 . S
N878 C877 1.315 . S
H879 C873 0.929 . S
H880 C877 0.930 . S
H881 C869 0.929 . S
H882 C871 0.929 . S
O883 Co858 2.351 . S
O883 C886 1.244 . S
O884 Co858 2.155 . S
O884 C886 1.240 . S
O885 Co858 2.096 . S
O885 C866 1.247 . S
C886 O883 1.244 . S
C886 O884 1.240 . S
H887 C861 0.931 . S
H888 C870 0.931 . S
H889 C874 0.929 . S
H890 C876 0.930 . S
Co891 N895 2.148 . S
Co891 N901 2.128 1_455 S
Co891 N911 2.194 . S
Co891 O916 2.351 . S
Co891 O917 2.155 . S
Co891 O918 2.096 . S
C892 N895 1.301 . S
C892 N896 1.328 . S
C892 H897 0.930 . S
C893 C894 1.333 . S
C893 N895 1.317 . S
C893 H898 0.930 . S
C894 C893 1.333 . S
C894 N896 1.350 . S
C894 H920 0.931 . S
N895 Co891 2.148 . S
N895 C892 1.301 . S
N895 C893 1.317 . S
N896 C892 1.328 . S
N896 C894 1.350 . S
H897 C892 0.930 . S
H898 C893 0.930 . S
C899 O900 1.224 . S
C899 O918 1.247 . S
O900 C899 1.224 . S
N901 Co891 2.128 1_655 S
N901 C902 1.355 . S
N901 C904 1.311 . S
C902 N901 1.355 . S
C902 C903 1.363 . S
C902 H914 0.929 . S
C903 C902 1.363 . S
C903 N905 1.375 . S
C903 H921 0.931 . S
C904 N901 1.311 . S
C904 N905 1.347 . S
C904 H915 0.929 . S
N905 C903 1.375 . S
N905 C904 1.347 . S
C906 C909 1.365 . S
C906 N911 1.328 . S
C906 H912 0.929 . S
C907 C908 1.362 . S
C907 C910 1.378 . S
C907 H922 0.929 . S
C908 C907 1.362 . S
C908 C909 1.366 . S
C909 C906 1.365 . S
C909 C908 1.366 . S
C909 H923 0.930 . S
C910 C907 1.378 . S
C910 N911 1.315 . S
C910 H913 0.930 . S
N911 Co891 2.194 . S
N911 C906 1.328 . S
N911 C910 1.315 . S
H912 C906 0.929 . S
H913 C910 0.930 . S
H914 C902 0.929 . S
H915 C904 0.929 . S
O916 Co891 2.351 . S
O916 C919 1.244 . S
O917 Co891 2.155 . S
O917 C919 1.240 . S
O918 Co891 2.096 . S
O918 C899 1.247 . S
C919 O916 1.244 . S
C919 O917 1.240 . S
H920 C894 0.931 . S
H921 C903 0.931 . S
H922 C907 0.929 . S
H923 C909 0.930 . S
Co924 N928 2.148 . S
Co924 N934 2.128 . S
Co924 N944 2.194 . S
Co924 O949 2.351 . S
Co924 O950 2.155 . S
Co924 O951 2.096 . S
C925 N928 1.301 . S
C925 N929 1.328 . S
C925 H930 0.930 . S
C926 C927 1.333 . S
C926 N928 1.317 . S
C926 H931 0.930 . S
C927 C926 1.333 . S
C927 N929 1.350 . S
C927 H953 0.931 . S
N928 Co924 2.148 . S
N928 C925 1.301 . S
N928 C926 1.317 . S
N929 C925 1.328 . S
N929 C927 1.350 . S
H930 C925 0.930 . S
H931 C926 0.930 . S
C932 O933 1.224 . S
C932 O951 1.247 . S
O933 C932 1.224 . S
N934 Co924 2.128 . S
N934 C935 1.355 . S
N934 C937 1.311 . S
C935 N934 1.355 . S
C935 C936 1.363 . S
C935 H947 0.929 . S
C936 C935 1.363 . S
C936 N938 1.375 . S
C936 H954 0.931 . S
C937 N934 1.311 . S
C937 N938 1.347 . S
C937 H948 0.929 . S
N938 C936 1.375 . S
N938 C937 1.347 . S
C939 C942 1.365 . S
C939 N944 1.328 . S
C939 H945 0.929 . S
C940 C941 1.362 . S
C940 C943 1.378 . S
C940 H955 0.929 . S
C941 C940 1.362 . S
C941 C942 1.366 . S
C942 C939 1.365 . S
C942 C941 1.366 . S
C942 H956 0.930 . S
C943 C940 1.378 . S
C943 N944 1.315 . S
C943 H946 0.930 . S
N944 Co924 2.194 . S
N944 C939 1.328 . S
N944 C943 1.315 . S
H945 C939 0.929 . S
H946 C943 0.930 . S
H947 C935 0.929 . S
H948 C937 0.929 . S
O949 Co924 2.351 . S
O949 C952 1.244 . S
O950 Co924 2.155 . S
O950 C952 1.240 . S
O951 Co924 2.096 . S
O951 C932 1.247 . S
C952 O949 1.244 . S
C952 O950 1.240 . S
H953 C927 0.931 . S
H954 C936 0.931 . S
H955 C940 0.929 . S
H956 C942 0.930 . S
Co957 N961 2.148 . S
Co957 N967 2.128 1_455 S
Co957 N977 2.194 . S
Co957 O982 2.351 . S
Co957 O983 2.155 . S
Co957 O984 2.096 . S
C958 N961 1.301 . S
C958 N962 1.328 . S
C958 H963 0.930 . S
C959 C960 1.333 . S
C959 N961 1.317 . S
C959 H964 0.930 . S
C960 C959 1.333 . S
C960 N962 1.350 . S
C960 H986 0.931 . S
N961 Co957 2.148 . S
N961 C958 1.301 . S
N961 C959 1.317 . S
N962 C958 1.328 . S
N962 C960 1.350 . S
H963 C958 0.930 . S
H964 C959 0.930 . S
C965 O966 1.224 . S
C965 O984 1.247 . S
O966 C965 1.224 . S
N967 Co957 2.128 1_655 S
N967 C968 1.355 . S
N967 C970 1.311 . S
C968 N967 1.355 . S
C968 C969 1.363 . S
C968 H980 0.929 . S
C969 C968 1.363 . S
C969 N971 1.375 . S
C969 H987 0.931 . S
C970 N967 1.311 . S
C970 N971 1.347 . S
C970 H981 0.929 . S
N971 C969 1.375 . S
N971 C970 1.347 . S
C972 C975 1.365 . S
C972 N977 1.328 . S
C972 H978 0.929 . S
C973 C974 1.362 . S
C973 C976 1.378 . S
C973 H988 0.929 . S
C974 C973 1.362 . S
C974 C975 1.366 . S
C975 C972 1.365 . S
C975 C974 1.366 . S
C975 H989 0.930 . S
C976 C973 1.378 . S
C976 N977 1.315 . S
C976 H979 0.930 . S
N977 Co957 2.194 . S
N977 C972 1.328 . S
N977 C976 1.315 . S
H978 C972 0.929 . S
H979 C976 0.930 . S
H980 C968 0.929 . S
H981 C970 0.929 . S
O982 Co957 2.351 . S
O982 C985 1.244 . S
O983 Co957 2.155 . S
O983 C985 1.240 . S
O984 Co957 2.096 . S
O984 C965 1.247 . S
C985 O982 1.244 . S
C985 O983 1.240 . S
H986 C960 0.931 . S
H987 C969 0.931 . S
H988 C973 0.929 . S
H989 C975 0.930 . S
Co990 N994 2.148 . S
Co990 N1000 2.128 . S
Co990 N1010 2.194 . S
Co990 O1015 2.351 . S
Co990 O1016 2.155 . S
Co990 O1017 2.096 . S
C991 N994 1.301 . S
C991 N995 1.328 . S
C991 H996 0.930 . S
C992 C993 1.333 . S
C992 N994 1.317 . S
C992 H997 0.930 . S
C993 C992 1.333 . S
C993 N995 1.350 . S
C993 H1019 0.931 . S
N994 Co990 2.148 . S
N994 C991 1.301 . S
N994 C992 1.317 . S
N995 C991 1.328 . S
N995 C993 1.350 . S
H996 C991 0.930 . S
H997 C992 0.930 . S
C998 O999 1.224 . S
C998 O1017 1.247 . S
O999 C998 1.224 . S
N1000 Co990 2.128 . S
N1000 C1001 1.355 . S
N1000 C1003 1.311 . S
C1001 N1000 1.355 . S
C1001 C1002 1.363 . S
C1001 H1013 0.929 . S
C1002 C1001 1.363 . S
C1002 N1004 1.375 . S
C1002 H1020 0.931 . S
C1003 N1000 1.311 . S
C1003 N1004 1.347 . S
C1003 H1014 0.929 . S
N1004 C1002 1.375 . S
N1004 C1003 1.347 . S
C1005 C1008 1.365 . S
C1005 N1010 1.328 . S
C1005 H1011 0.929 . S
C1006 C1007 1.362 . S
C1006 C1009 1.378 . S
C1006 H1021 0.929 . S
C1007 C1006 1.362 . S
C1007 C1008 1.366 . S
C1008 C1005 1.365 . S
C1008 C1007 1.366 . S
C1008 H1022 0.930 . S
C1009 C1006 1.378 . S
C1009 N1010 1.315 . S
C1009 H1012 0.930 . S
N1010 Co990 2.194 . S
N1010 C1005 1.328 . S
N1010 C1009 1.315 . S
H1011 C1005 0.929 . S
H1012 C1009 0.930 . S
H1013 C1001 0.929 . S
H1014 C1003 0.929 . S
O1015 Co990 2.351 . S
O1015 C1018 1.244 . S
O1016 Co990 2.155 . S
O1016 C1018 1.240 . S
O1017 Co990 2.096 . S
O1017 C998 1.247 . S
C1018 O1015 1.244 . S
C1018 O1016 1.240 . S
H1019 C993 0.931 . S
H1020 C1002 0.931 . S
H1021 C1006 0.929 . S
H1022 C1008 0.930 . S
Co1023 N1027 2.148 . S
Co1023 N1033 2.128 . S
Co1023 N1043 2.194 . S
Co1023 O1048 2.351 . S
Co1023 O1049 2.155 . S
Co1023 O1050 2.096 . S
C1024 N1027 1.301 . S
C1024 N1028 1.328 . S
C1024 H1029 0.930 . S
C1025 C1026 1.333 . S
C1025 N1027 1.317 . S
C1025 H1030 0.930 . S
C1026 C1025 1.333 . S
C1026 N1028 1.350 . S
C1026 H1052 0.931 . S
N1027 Co1023 2.148 . S
N1027 C1024 1.301 . S
N1027 C1025 1.317 . S
N1028 C1024 1.328 . S
N1028 C1026 1.350 . S
H1029 C1024 0.930 . S
H1030 C1025 0.930 . S
C1031 O1032 1.224 . S
C1031 O1050 1.247 . S
O1032 C1031 1.224 . S
N1033 Co1023 2.128 . S
N1033 C1034 1.355 . S
N1033 C1036 1.311 . S
C1034 N1033 1.355 . S
C1034 C1035 1.363 . S
C1034 H1046 0.929 . S
C1035 C1034 1.363 . S
C1035 N1037 1.375 . S
C1035 H1053 0.931 . S
C1036 N1033 1.311 . S
C1036 N1037 1.347 . S
C1036 H1047 0.929 . S
N1037 C1035 1.375 . S
N1037 C1036 1.347 . S
C1038 C1041 1.365 . S
C1038 N1043 1.328 . S
C1038 H1044 0.929 . S
C1039 C1040 1.362 . S
C1039 C1042 1.378 . S
C1039 H1054 0.929 . S
C1040 C1039 1.362 . S
C1040 C1041 1.366 . S
C1041 C1038 1.365 . S
C1041 C1040 1.366 . S
C1041 H1055 0.930 . S
C1042 C1039 1.378 . S
C1042 N1043 1.315 . S
C1042 H1045 0.930 . S
N1043 Co1023 2.194 . S
N1043 C1038 1.328 . S
N1043 C1042 1.315 . S
H1044 C1038 0.929 . S
H1045 C1042 0.930 . S
H1046 C1034 0.929 . S
H1047 C1036 0.929 . S
O1048 Co1023 2.351 . S
O1048 C1051 1.244 . S
O1049 Co1023 2.155 . S
O1049 C1051 1.240 . S
O1050 Co1023 2.096 . S
O1050 C1031 1.247 . S
C1051 O1048 1.244 . S
C1051 O1049 1.240 . S
H1052 C1026 0.931 . S
H1053 C1035 0.931 . S
H1054 C1039 0.929 . S
H1055 C1041 0.930 . S
C1056 C1057 1.387 . S
C1056 H1060 0.950 . S
C1056 C1065 1.390 . S
C1057 C1056 1.387 . S
C1057 C1059 1.387 . S
H1058 C1065 0.950 . S
C1059 C1057 1.387 . S
C1059 C1061 1.390 . S
C1059 H1063 0.950 . S
H1060 C1056 0.950 . S
C1061 C1059 1.390 . S
C1061 C1062 1.387 . S
C1061 H1064 0.950 . S
C1062 C1061 1.387 . S
C1062 C1065 1.387 . S
H1063 C1059 0.950 . S
H1064 C1061 0.950 . S
C1065 C1056 1.390 . S
C1065 H1058 0.950 . S
C1065 C1062 1.387 . S
C1066 C1067 1.387 . S
C1066 H1070 0.950 . S
C1066 C1075 1.390 . S
C1067 C1066 1.387 . S
C1067 C1069 1.387 . S
H1068 C1075 0.950 . S
C1069 C1067 1.387 . S
C1069 C1071 1.390 . S
C1069 H1073 0.950 . S
H1070 C1066 0.950 . S
C1071 C1069 1.390 . S
C1071 C1072 1.387 . S
C1071 H1074 0.950 . S
C1072 C1071 1.387 . S
C1072 C1075 1.387 . S
H1073 C1069 0.950 . S
H1074 C1071 0.950 . S
C1075 C1066 1.390 . S
C1075 H1068 0.950 . S
C1075 C1072 1.387 . S
C1076 C1077 1.387 . S
C1076 H1080 0.950 . S
C1076 C1085 1.390 . S
C1077 C1076 1.387 . S
C1077 C1079 1.387 . S
H1078 C1085 0.950 . S
C1079 C1077 1.387 . S
C1079 C1081 1.390 . S
C1079 H1083 0.950 . S
H1080 C1076 0.950 . S
C1081 C1079 1.390 . S
C1081 C1082 1.387 . S
C1081 H1084 0.950 . S
C1082 C1081 1.387 . S
C1082 C1085 1.387 . S
H1083 C1079 0.950 . S
H1084 C1081 0.950 . S
C1085 C1076 1.390 . S
C1085 H1078 0.950 . S
C1085 C1082 1.387 . S
C1086 C1087 1.387 . S
C1086 H1090 0.950 . S
C1086 C1095 1.390 . S
C1087 C1086 1.387 . S
C1087 C1089 1.387 . S
H1088 C1095 0.950 . S
C1089 C1087 1.387 . S
C1089 C1091 1.390 . S
C1089 H1093 0.950 . S
H1090 C1086 0.950 . S
C1091 C1089 1.390 . S
C1091 C1092 1.387 . S
C1091 H1094 0.950 . S
C1092 C1091 1.387 . S
C1092 C1095 1.387 . S
H1093 C1089 0.950 . S
H1094 C1091 0.950 . S
C1095 C1086 1.390 . S
C1095 H1088 0.950 . S
C1095 C1092 1.387 . S
C1096 C1097 1.387 . S
C1096 H1100 0.950 . S
C1096 C1105 1.390 . S
C1097 C1096 1.387 . S
C1097 C1099 1.387 . S
H1098 C1105 0.950 . S
C1099 C1097 1.387 . S
C1099 C1101 1.390 . S
C1099 H1103 0.950 . S
H1100 C1096 0.950 . S
C1101 C1099 1.390 . S
C1101 C1102 1.387 . S
C1101 H1104 0.950 . S
C1102 C1101 1.387 . S
C1102 C1105 1.387 . S
H1103 C1099 0.950 . S
H1104 C1101 0.950 . S
C1105 C1096 1.390 . S
C1105 H1098 0.950 . S
C1105 C1102 1.387 . S
C1106 C1107 1.387 . S
C1106 H1110 0.950 . S
C1106 C1115 1.390 . S
C1107 C1106 1.387 . S
C1107 C1109 1.387 . S
H1108 C1115 0.950 . S
C1109 C1107 1.387 . S
C1109 C1111 1.390 . S
C1109 H1113 0.950 . S
H1110 C1106 0.950 . S
C1111 C1109 1.390 . S
C1111 C1112 1.387 . S
C1111 H1114 0.950 . S
C1112 C1111 1.387 . S
C1112 C1115 1.387 . S
H1113 C1109 0.950 . S
H1114 C1111 0.950 . S
C1115 C1106 1.390 . S
C1115 H1108 0.950 . S
C1115 C1112 1.387 . S
C1116 C1117 1.387 . S
C1116 H1120 0.950 . S
C1116 C1125 1.390 . S
C1117 C1116 1.387 . S
C1117 C1119 1.387 . S
H1118 C1125 0.950 . S
C1119 C1117 1.387 . S
C1119 C1121 1.390 . S
C1119 H1123 0.950 . S
H1120 C1116 0.950 . S
C1121 C1119 1.390 . S
C1121 C1122 1.387 . S
C1121 H1124 0.950 . S
C1122 C1121 1.387 . S
C1122 C1125 1.387 . S
H1123 C1119 0.950 . S
H1124 C1121 0.950 . S
C1125 C1116 1.390 . S
C1125 H1118 0.950 . S
C1125 C1122 1.387 . S
C1126 C1127 1.387 . S
C1126 H1130 0.950 . S
C1126 C1135 1.390 . S
C1127 C1126 1.387 . S
C1127 C1129 1.387 . S
H1128 C1135 0.950 . S
C1129 C1127 1.387 . S
C1129 C1131 1.390 . S
C1129 H1133 0.950 . S
H1130 C1126 0.950 . S
C1131 C1129 1.390 . S
C1131 C1132 1.387 . S
C1131 H1134 0.950 . S
C1132 C1131 1.387 . S
C1132 C1135 1.387 . S
H1133 C1129 0.950 . S
H1134 C1131 0.950 . S
C1135 C1126 1.390 . S
C1135 H1128 0.950 . S
C1135 C1132 1.387 . S
C1136 C1137 1.387 . S
C1136 H1140 0.950 . S
C1136 C1145 1.390 . S
C1137 C1136 1.387 . S
C1137 C1139 1.387 . S
H1138 C1145 0.950 . S
C1139 C1137 1.387 . S
C1139 C1141 1.390 . S
C1139 H1143 0.950 . S
H1140 C1136 0.950 . S
C1141 C1139 1.390 . S
C1141 C1142 1.387 . S
C1141 H1144 0.950 . S
C1142 C1141 1.387 . S
C1142 C1145 1.387 . S
H1143 C1139 0.950 . S
H1144 C1141 0.950 . S
C1145 C1136 1.390 . S
C1145 H1138 0.950 . S
C1145 C1142 1.387 . S
C1146 C1147 1.387 . S
C1146 H1150 0.950 . S
C1146 C1155 1.390 . S
C1147 C1146 1.387 . S
C1147 C1149 1.387 . S
H1148 C1155 0.950 . S
C1149 C1147 1.387 . S
C1149 C1151 1.390 . S
C1149 H1153 0.950 . S
H1150 C1146 0.950 . S
C1151 C1149 1.390 . S
C1151 C1152 1.387 . S
C1151 H1154 0.950 . S
C1152 C1151 1.387 . S
C1152 C1155 1.387 . S
H1153 C1149 0.950 . S
H1154 C1151 0.950 . S
C1155 C1146 1.390 . S
C1155 H1148 0.950 . S
C1155 C1152 1.387 . S
C1156 C1157 1.387 . S
C1156 H1160 0.950 . S
C1156 C1165 1.390 . S
C1157 C1156 1.387 . S
C1157 C1159 1.387 . S
H1158 C1165 0.950 . S
C1159 C1157 1.387 . S
C1159 C1161 1.390 . S
C1159 H1163 0.950 . S
H1160 C1156 0.950 . S
C1161 C1159 1.390 . S
C1161 C1162 1.387 . S
C1161 H1164 0.950 . S
C1162 C1161 1.387 . S
C1162 C1165 1.387 . S
H1163 C1159 0.950 . S
H1164 C1161 0.950 . S
C1165 C1156 1.390 . S
C1165 H1158 0.950 . S
C1165 C1162 1.387 . S
C1166 C1167 1.387 . S
C1166 H1170 0.950 . S
C1166 C1175 1.390 . S
C1167 C1166 1.387 . S
C1167 C1169 1.387 . S
H1168 C1175 0.950 . S
C1169 C1167 1.387 . S
C1169 C1171 1.390 . S
C1169 H1173 0.950 . S
H1170 C1166 0.950 . S
C1171 C1169 1.390 . S
C1171 C1172 1.387 . S
C1171 H1174 0.950 . S
C1172 C1171 1.387 . S
C1172 C1175 1.387 . S
H1173 C1169 0.950 . S
H1174 C1171 0.950 . S
C1175 C1166 1.390 . S
C1175 H1168 0.950 . S
C1175 C1172 1.387 . S
C1176 C1177 1.387 . S
C1176 H1180 0.950 . S
C1176 C1185 1.390 . S
C1177 C1176 1.387 . S
C1177 C1179 1.387 . S
H1178 C1185 0.950 . S
C1179 C1177 1.387 . S
C1179 C1181 1.390 . S
C1179 H1183 0.950 . S
H1180 C1176 0.950 . S
C1181 C1179 1.390 . S
C1181 C1182 1.387 . S
C1181 H1184 0.950 . S
C1182 C1181 1.387 . S
C1182 C1185 1.387 . S
H1183 C1179 0.950 . S
H1184 C1181 0.950 . S
C1185 C1176 1.390 . S
C1185 H1178 0.950 . S
C1185 C1182 1.387 . S
C1186 C1187 1.387 . S
C1186 H1190 0.950 . S
C1186 C1195 1.390 . S
C1187 C1186 1.387 . S
C1187 C1189 1.387 . S
H1188 C1195 0.950 . S
C1189 C1187 1.387 . S
C1189 C1191 1.390 . S
C1189 H1193 0.950 . S
H1190 C1186 0.950 . S
C1191 C1189 1.390 . S
C1191 C1192 1.387 . S
C1191 H1194 0.950 . S
C1192 C1191 1.387 . S
C1192 C1195 1.387 . S
H1193 C1189 0.950 . S
H1194 C1191 0.950 . S
C1195 C1186 1.390 . S
C1195 H1188 0.950 . S
C1195 C1192 1.387 . S
C1196 C1197 1.387 . S
C1196 H1200 0.950 . S
C1196 C1205 1.390 . S
C1197 C1196 1.387 . S
C1197 C1199 1.387 . S
H1198 C1205 0.950 . S
C1199 C1197 1.387 . S
C1199 C1201 1.390 . S
C1199 H1203 0.950 . S
H1200 C1196 0.950 . S
C1201 C1199 1.390 . S
C1201 C1202 1.387 . S
C1201 H1204 0.950 . S
C1202 C1201 1.387 . S
C1202 C1205 1.387 . S
H1203 C1199 0.950 . S
H1204 C1201 0.950 . S
C1205 C1196 1.390 . S
C1205 H1198 0.950 . S
C1205 C1202 1.387 . S
C1206 C1207 1.387 . S
C1206 H1210 0.950 . S
C1206 C1215 1.390 . S
C1207 C1206 1.387 . S
C1207 C1209 1.387 . S
H1208 C1215 0.950 . S
C1209 C1207 1.387 . S
C1209 C1211 1.390 . S
C1209 H1213 0.950 . S
H1210 C1206 0.950 . S
C1211 C1209 1.390 . S
C1211 C1212 1.387 . S
C1211 H1214 0.950 . S
C1212 C1211 1.387 . S
C1212 C1215 1.387 . S
H1213 C1209 0.950 . S
H1214 C1211 0.950 . S
C1215 C1206 1.390 . S
C1215 H1208 0.950 . S
C1215 C1212 1.387 . S
C1216 C1217 1.387 . S
C1216 H1220 0.950 . S
C1216 C1225 1.390 1_556 S
C1217 C1216 1.387 . S
C1217 C1219 1.387 . S
H1218 C1225 0.950 . S
C1219 C1217 1.387 . S
C1219 C1221 1.390 1_556 S
C1219 H1223 0.950 . S
H1220 C1216 0.950 . S
C1221 C1219 1.390 1_554 S
C1221 C1222 1.387 . S
C1221 H1224 0.950 . S
C1222 C1221 1.387 . S
C1222 C1225 1.387 . S
H1223 C1219 0.950 . S
H1224 C1221 0.950 . S
C1225 C1216 1.390 1_554 S
C1225 H1218 0.950 . S
C1225 C1222 1.387 . S
C1226 C1227 1.387 . S
C1226 H1230 0.950 . S
C1226 C1235 1.390 1_565 S
C1227 C1226 1.387 . S
C1227 C1229 1.387 . S
H1228 C1235 0.950 . S
C1229 C1227 1.387 . S
C1229 C1231 1.390 1_565 S
C1229 H1233 0.950 1_455 S
H1230 C1226 0.950 . S
C1231 C1229 1.390 1_545 S
C1231 C1232 1.387 . S
C1231 H1234 0.950 1_455 S
C1232 C1231 1.387 . S
C1232 C1235 1.387 . S
H1233 C1229 0.950 1_655 S
H1234 C1231 0.950 1_655 S
C1235 C1226 1.390 1_545 S
C1235 H1228 0.950 . S
C1235 C1232 1.387 . S
C1236 C1237 1.387 . S
C1236 H1240 0.950 . S
C1236 C1245 1.390 . S
C1237 C1236 1.387 . S
C1237 C1239 1.387 . S
H1238 C1245 0.950 . S
C1239 C1237 1.387 . S
C1239 C1241 1.390 . S
C1239 H1243 0.950 . S
H1240 C1236 0.950 . S
C1241 C1239 1.390 . S
C1241 C1242 1.387 . S
C1241 H1244 0.950 . S
C1242 C1241 1.387 . S
C1242 C1245 1.387 . S
H1243 C1239 0.950 . S
H1244 C1241 0.950 . S
C1245 C1236 1.390 . S
C1245 H1238 0.950 . S
C1245 C1242 1.387 . S
C1246 C1247 1.387 . S
C1246 H1250 0.950 . S
C1246 C1255 1.390 1_545 S
C1247 C1246 1.387 . S
C1247 C1249 1.387 . S
H1248 C1255 0.950 . S
C1249 C1247 1.387 . S
C1249 C1251 1.390 1_545 S
C1249 H1253 0.950 . S
H1250 C1246 0.950 . S
C1251 C1249 1.390 1_565 S
C1251 C1252 1.387 . S
C1251 H1254 0.950 . S
C1252 C1251 1.387 . S
C1252 C1255 1.387 . S
H1253 C1249 0.950 . S
H1254 C1251 0.950 . S
C1255 C1246 1.390 1_565 S
C1255 H1248 0.950 . S
C1255 C1252 1.387 . S
C1256 C1257 1.387 . S
C1256 H1260 0.950 . S
C1256 C1265 1.390 1_556 S
C1257 C1256 1.387 . S
C1257 C1259 1.387 . S
H1258 C1265 0.950 . S
C1259 C1257 1.387 . S
C1259 C1261 1.390 1_556 S
C1259 H1263 0.950 . S
H1260 C1256 0.950 . S
C1261 C1259 1.390 1_554 S
C1261 C1262 1.387 . S
C1261 H1264 0.950 . S
C1262 C1261 1.387 . S
C1262 C1265 1.387 . S
H1263 C1259 0.950 . S
H1264 C1261 0.950 . S
C1265 C1256 1.390 1_554 S
C1265 H1258 0.950 . S
C1265 C1262 1.387 . S
C1266 C1267 1.387 . S
C1266 H1270 0.950 1_655 S
C1266 C1275 1.390 1_565 S
C1267 C1266 1.387 . S
C1267 C1269 1.387 . S
H1268 C1275 0.950 1_455 S
C1269 C1267 1.387 . S
C1269 C1271 1.390 1_565 S
C1269 H1273 0.950 . S
H1270 C1266 0.950 1_455 S
C1271 C1269 1.390 1_545 S
C1271 C1272 1.387 . S
C1271 H1274 0.950 . S
C1272 C1271 1.387 . S
C1272 C1275 1.387 . S
H1273 C1269 0.950 . S
H1274 C1271 0.950 . S
C1275 C1266 1.390 1_545 S
C1275 H1268 0.950 1_655 S
C1275 C1272 1.387 . S
C1276 C1277 1.387 . S
C1276 H1280 0.950 . S
C1276 C1285 1.390 . S
C1277 C1276 1.387 . S
C1277 C1279 1.387 . S
H1278 C1285 0.950 . S
C1279 C1277 1.387 . S
C1279 C1281 1.390 . S
C1279 H1283 0.950 . S
H1280 C1276 0.950 . S
C1281 C1279 1.390 . S
C1281 C1282 1.387 . S
C1281 H1284 0.950 . S
C1282 C1281 1.387 . S
C1282 C1285 1.387 . S
H1283 C1279 0.950 . S
H1284 C1281 0.950 . S
C1285 C1276 1.390 . S
C1285 H1278 0.950 . S
C1285 C1282 1.387 . S
C1286 C1287 1.387 . S
C1286 H1290 0.950 . S
C1286 C1295 1.390 1_545 S
C1287 C1286 1.387 . S
C1287 C1289 1.387 . S
H1288 C1295 0.950 . S
C1289 C1287 1.387 . S
C1289 C1291 1.390 1_545 S
C1289 H1293 0.950 . S
H1290 C1286 0.950 . S
C1291 C1289 1.390 1_565 S
C1291 C1292 1.387 . S
C1291 H1294 0.950 . S
C1292 C1291 1.387 . S
C1292 C1295 1.387 . S
H1293 C1289 0.950 . S
H1294 C1291 0.950 . S
C1295 C1286 1.390 1_565 S
C1295 H1288 0.950 . S
C1295 C1292 1.387 . S
C1296 C1297 1.387 . S
C1296 H1300 0.950 . S
C1296 C1305 1.390 . S
C1297 C1296 1.387 . S
C1297 C1299 1.387 . S
H1298 C1305 0.950 . S
C1299 C1297 1.387 . S
C1299 C1301 1.390 . S
C1299 H1303 0.950 . S
H1300 C1296 0.950 . S
C1301 C1299 1.390 . S
C1301 C1302 1.387 . S
C1301 H1304 0.950 . S
C1302 C1301 1.387 . S
C1302 C1305 1.387 . S
H1303 C1299 0.950 . S
H1304 C1301 0.950 . S
C1305 C1296 1.390 . S
C1305 H1298 0.950 . S
C1305 C1302 1.387 . S
C1306 C1307 1.387 . S
C1306 H1310 0.950 . S
C1306 C1315 1.390 . S
C1307 C1306 1.387 . S
C1307 C1309 1.387 . S
H1308 C1315 0.950 . S
C1309 C1307 1.387 . S
C1309 C1311 1.390 . S
C1309 H1313 0.950 . S
H1310 C1306 0.950 . S
C1311 C1309 1.390 . S
C1311 C1312 1.387 . S
C1311 H1314 0.950 . S
C1312 C1311 1.387 . S
C1312 C1315 1.387 . S
H1313 C1309 0.950 . S
H1314 C1311 0.950 . S
C1315 C1306 1.390 . S
C1315 H1308 0.950 . S
C1315 C1312 1.387 . S
C1316 C1317 1.387 . S
C1316 H1320 0.950 . S
C1316 C1325 1.390 1_556 S
C1317 C1316 1.387 . S
C1317 C1319 1.387 . S
H1318 C1325 0.950 . S
C1319 C1317 1.387 . S
C1319 C1321 1.390 1_556 S
C1319 H1323 0.950 . S
H1320 C1316 0.950 . S
C1321 C1319 1.390 1_554 S
C1321 C1322 1.387 . S
C1321 H1324 0.950 . S
C1322 C1321 1.387 . S
C1322 C1325 1.387 . S
H1323 C1319 0.950 . S
H1324 C1321 0.950 . S
C1325 C1316 1.390 1_554 S
C1325 H1318 0.950 . S
C1325 C1322 1.387 . S
C1326 C1327 1.387 . S
C1326 H1330 0.950 . S
C1326 C1335 1.390 . S
C1327 C1326 1.387 . S
C1327 C1329 1.387 . S
H1328 C1335 0.950 . S
C1329 C1327 1.387 . S
C1329 C1331 1.390 . S
C1329 H1333 0.950 1_655 S
H1330 C1326 0.950 . S
C1331 C1329 1.390 . S
C1331 C1332 1.387 . S
C1331 H1334 0.950 1_655 S
C1332 C1331 1.387 . S
C1332 C1335 1.387 . S
H1333 C1329 0.950 1_455 S
H1334 C1331 0.950 1_455 S
C1335 C1326 1.390 . S
C1335 H1328 0.950 . S
C1335 C1332 1.387 . S
C1336 C1337 1.387 . S
C1336 H1340 0.950 . S
C1336 C1345 1.390 . S
C1337 C1336 1.387 . S
C1337 C1339 1.387 . S
H1338 C1345 0.950 . S
C1339 C1337 1.387 . S
C1339 C1341 1.390 . S
C1339 H1343 0.950 . S
H1340 C1336 0.950 . S
C1341 C1339 1.390 . S
C1341 C1342 1.387 . S
C1341 H1344 0.950 . S
C1342 C1341 1.387 . S
C1342 C1345 1.387 . S
H1343 C1339 0.950 . S
H1344 C1341 0.950 . S
C1345 C1336 1.390 . S
C1345 H1338 0.950 . S
C1345 C1342 1.387 . S
C1346 C1347 1.387 . S
C1346 H1350 0.950 . S
C1346 C1355 1.390 . S
C1347 C1346 1.387 . S
C1347 C1349 1.387 . S
H1348 C1355 0.950 . S
C1349 C1347 1.387 . S
C1349 C1351 1.390 . S
C1349 H1353 0.950 . S
H1350 C1346 0.950 . S
C1351 C1349 1.390 . S
C1351 C1352 1.387 . S
C1351 H1354 0.950 . S
C1352 C1351 1.387 . S
C1352 C1355 1.387 . S
H1353 C1349 0.950 . S
H1354 C1351 0.950 . S
C1355 C1346 1.390 . S
C1355 H1348 0.950 . S
C1355 C1352 1.387 . S
C1356 C1357 1.387 . S
C1356 H1360 0.950 . S
C1356 C1365 1.390 1_554 S
C1357 C1356 1.387 . S
C1357 C1359 1.387 . S
H1358 C1365 0.950 . S
C1359 C1357 1.387 . S
C1359 C1361 1.390 1_554 S
C1359 H1363 0.950 . S
H1360 C1356 0.950 . S
C1361 C1359 1.390 1_556 S
C1361 C1362 1.387 . S
C1361 H1364 0.950 . S
C1362 C1361 1.387 . S
C1362 C1365 1.387 . S
H1363 C1359 0.950 . S
H1364 C1361 0.950 . S
C1365 C1356 1.390 1_556 S
C1365 H1358 0.950 . S
C1365 C1362 1.387 . S
C1366 C1367 1.387 . S
C1366 H1370 0.950 1_455 S
C1366 C1375 1.390 . S
C1367 C1366 1.387 . S
C1367 C1369 1.387 . S
H1368 C1375 0.950 1_655 S
C1369 C1367 1.387 . S
C1369 C1371 1.390 . S
C1369 H1373 0.950 . S
H1370 C1366 0.950 1_655 S
C1371 C1369 1.390 . S
C1371 C1372 1.387 . S
C1371 H1374 0.950 . S
C1372 C1371 1.387 . S
C1372 C1375 1.387 . S
H1373 C1369 0.950 . S
H1374 C1371 0.950 . S
C1375 C1366 1.390 . S
C1375 H1368 0.950 1_455 S
C1375 C1372 1.387 . S
C1376 C1377 1.387 . S
C1376 H1380 0.950 . S
C1376 C1385 1.390 . S
C1377 C1376 1.387 . S
C1377 C1379 1.387 . S
H1378 C1385 0.950 . S
C1379 C1377 1.387 . S
C1379 C1381 1.390 . S
C1379 H1383 0.950 . S
H1380 C1376 0.950 . S
C1381 C1379 1.390 . S
C1381 C1382 1.387 . S
C1381 H1384 0.950 . S
C1382 C1381 1.387 . S
C1382 C1385 1.387 . S
H1383 C1379 0.950 . S
H1384 C1381 0.950 . S
C1385 C1376 1.390 . S
C1385 H1378 0.950 . S
C1385 C1382 1.387 . S
C1386 C1387 1.387 . S
C1386 H1390 0.950 . S
C1386 C1395 1.390 . S
C1387 C1386 1.387 . S
C1387 C1389 1.387 1_565 S
H1388 C1395 0.950 . S
C1389 C1387 1.387 1_545 S
C1389 C1391 1.390 . S
C1389 H1393 0.950 . S
H1390 C1386 0.950 . S
C1391 C1389 1.390 . S
C1391 C1392 1.387 . S
C1391 H1394 0.950 . S
C1392 C1391 1.387 . S
C1392 C1395 1.387 1_545 S
H1393 C1389 0.950 . S
H1394 C1391 0.950 . S
C1395 C1386 1.390 . S
C1395 H1388 0.950 . S
C1395 C1392 1.387 1_565 S
C1396 C1397 1.387 . S
C1396 H1400 0.950 . S
C1396 C1405 1.390 . S
C1397 C1396 1.387 . S
C1397 C1399 1.387 . S
H1398 C1405 0.950 . S
C1399 C1397 1.387 . S
C1399 C1401 1.390 . S
C1399 H1403 0.950 . S
H1400 C1396 0.950 . S
C1401 C1399 1.390 . S
C1401 C1402 1.387 . S
C1401 H1404 0.950 . S
C1402 C1401 1.387 . S
C1402 C1405 1.387 . S
H1403 C1399 0.950 . S
H1404 C1401 0.950 . S
C1405 C1396 1.390 . S
C1405 H1398 0.950 . S
C1405 C1402 1.387 . S
C1406 C1407 1.387 . S
C1406 H1410 0.950 . S
C1406 C1415 1.390 . S
C1407 C1406 1.387 . S
C1407 C1409 1.387 . S
H1408 C1415 0.950 . S
C1409 C1407 1.387 . S
C1409 C1411 1.390 1_565 S
C1409 H1413 0.950 . S
H1410 C1406 0.950 . S
C1411 C1409 1.390 1_545 S
C1411 C1412 1.387 . S
C1411 H1414 0.950 . S
C1412 C1411 1.387 . S
C1412 C1415 1.387 1_545 S
H1413 C1409 0.950 . S
H1414 C1411 0.950 . S
C1415 C1406 1.390 . S
C1415 H1408 0.950 . S
C1415 C1412 1.387 1_565 S
C1416 C1417 1.387 . S
C1416 H1420 0.950 . S
C1416 C1425 1.390 . S
C1417 C1416 1.387 . S
C1417 C1419 1.387 . S
H1418 C1425 0.950 . S
C1419 C1417 1.387 . S
C1419 C1421 1.390 . S
C1419 H1423 0.950 . S
H1420 C1416 0.950 . S
C1421 C1419 1.390 . S
C1421 C1422 1.387 . S
C1421 H1424 0.950 . S
C1422 C1421 1.387 . S
C1422 C1425 1.387 . S
H1423 C1419 0.950 . S
H1424 C1421 0.950 . S
C1425 C1416 1.390 . S
C1425 H1418 0.950 . S
C1425 C1422 1.387 . S
C1426 C1427 1.387 . S
C1426 H1430 0.950 . S
C1426 C1435 1.390 1_565 S
C1427 C1426 1.387 . S
C1427 C1429 1.387 1_565 S
H1428 C1435 0.950 . S
C1429 C1427 1.387 1_545 S
C1429 C1431 1.390 . S
C1429 H1433 0.950 . S
H1430 C1426 0.950 . S
C1431 C1429 1.390 . S
C1431 C1432 1.387 . S
C1431 H1434 0.950 . S
C1432 C1431 1.387 . S
C1432 C1435 1.387 . S
H1433 C1429 0.950 . S
H1434 C1431 0.950 . S
C1435 C1426 1.390 1_545 S
C1435 H1428 0.950 . S
C1435 C1432 1.387 . S
C1436 C1437 1.387 . S
C1436 H1440 0.950 . S
C1436 C1445 1.390 . S
C1437 C1436 1.387 . S
C1437 C1439 1.387 . S
H1438 C1445 0.950 . S
C1439 C1437 1.387 . S
C1439 C1441 1.390 . S
C1439 H1443 0.950 . S
H1440 C1436 0.950 . S
C1441 C1439 1.390 . S
C1441 C1442 1.387 . S
C1441 H1444 0.950 . S
C1442 C1441 1.387 . S
C1442 C1445 1.387 . S
H1443 C1439 0.950 . S
H1444 C1441 0.950 . S
C1445 C1436 1.390 . S
C1445 H1438 0.950 . S
C1445 C1442 1.387 . S
C1446 C1447 1.387 . S
C1446 H1450 0.950 . S
C1446 C1455 1.390 . S
C1447 C1446 1.387 . S
C1447 C1449 1.387 . S
H1448 C1455 0.950 . S
C1449 C1447 1.387 . S
C1449 C1451 1.390 1_565 S
C1449 H1453 0.950 . S
H1450 C1446 0.950 . S
C1451 C1449 1.390 1_545 S
C1451 C1452 1.387 . S
C1451 H1454 0.950 . S
C1452 C1451 1.387 . S
C1452 C1455 1.387 1_545 S
H1453 C1449 0.950 . S
H1454 C1451 0.950 . S
C1455 C1446 1.390 . S
C1455 H1448 0.950 . S
C1455 C1452 1.387 1_565 S
C1456 C1457 1.387 . S
C1456 H1460 0.950 . S
C1456 C1465 1.390 . S
C1457 C1456 1.387 . S
C1457 C1459 1.387 . S
H1458 C1465 0.950 . S
C1459 C1457 1.387 . S
C1459 C1461 1.390 . S
C1459 H1463 0.950 . S
H1460 C1456 0.950 . S
C1461 C1459 1.390 . S
C1461 C1462 1.387 . S
C1461 H1464 0.950 . S
C1462 C1461 1.387 . S
C1462 C1465 1.387 . S
H1463 C1459 0.950 . S
H1464 C1461 0.950 . S
C1465 C1456 1.390 . S
C1465 H1458 0.950 . S
C1465 C1462 1.387 . S
C1466 C1467 1.387 . S
C1466 H1470 0.950 . S
C1466 C1475 1.390 . S
C1467 C1466 1.387 . S
C1467 C1469 1.387 . S
H1468 C1475 0.950 1_545 S
C1469 C1467 1.387 . S
C1469 C1471 1.389 1_565 S
C1469 H1473 0.950 . S
H1470 C1466 0.950 . S
C1471 C1469 1.389 1_545 S
C1471 C1472 1.388 . S
C1471 H1474 0.950 . S
C1472 C1471 1.388 . S
C1472 C1475 1.387 1_545 S
H1473 C1469 0.950 . S
H1474 C1471 0.950 . S
C1475 C1466 1.390 . S
C1475 H1468 0.950 1_565 S
C1475 C1472 1.387 1_565 S
C1476 C1477 1.387 . S
C1476 H1480 0.950 . S
C1476 C1485 1.390 . S
C1477 C1476 1.387 . S
C1477 C1479 1.387 . S
H1478 C1485 0.950 . S
C1479 C1477 1.387 . S
C1479 C1481 1.390 . S
C1479 H1483 0.950 . S
H1480 C1476 0.950 . S
C1481 C1479 1.390 . S
C1481 C1482 1.387 . S
C1481 H1484 0.950 . S
C1482 C1481 1.387 . S
C1482 C1485 1.387 . S
H1483 C1479 0.950 . S
H1484 C1481 0.950 . S
C1485 C1476 1.390 . S
C1485 H1478 0.950 . S
C1485 C1482 1.387 . S
C1486 C1487 1.387 1_545 S
C1486 H1490 0.950 . S
C1486 C1495 1.390 . S
C1487 C1486 1.387 1_565 S
C1487 C1489 1.387 . S
H1488 C1495 0.950 . S
C1489 C1487 1.387 . S
C1489 C1491 1.390 1_565 S
C1489 H1493 0.950 . S
H1490 C1486 0.950 . S
C1491 C1489 1.390 1_545 S
C1491 C1492 1.387 . S
C1491 H1494 0.950 . S
C1492 C1491 1.387 . S
C1492 C1495 1.387 . S
H1493 C1489 0.950 . S
H1494 C1491 0.950 . S
C1495 C1486 1.390 . S
C1495 H1488 0.950 . S
C1495 C1492 1.387 . S
C1496 C1497 1.387 . S
C1496 H1500 0.950 . S
C1496 C1505 1.390 . S
C1497 C1496 1.387 . S
C1497 C1499 1.387 . S
H1498 C1505 0.950 . S
C1499 C1497 1.387 . S
C1499 C1501 1.390 . S
C1499 H1503 0.950 . S
H1500 C1496 0.950 . S
C1501 C1499 1.390 . S
C1501 C1502 1.387 . S
C1501 H1504 0.950 . S
C1502 C1501 1.387 . S
C1502 C1505 1.387 . S
H1503 C1499 0.950 . S
H1504 C1501 0.950 . S
C1505 C1496 1.390 . S
C1505 H1498 0.950 . S
C1505 C1502 1.387 . S
C1506 C1507 1.387 . S
C1506 H1510 0.950 . S
C1506 C1515 1.390 . S
C1507 C1506 1.387 . S
C1507 C1509 1.387 . S
H1508 C1515 0.950 1_545 S
C1509 C1507 1.387 . S
C1509 C1511 1.393 . S
C1509 H1513 0.950 . S
H1510 C1506 0.950 . S
C1511 C1509 1.393 . S
C1511 C1512 1.387 1_565 S
C1511 H1514 0.948 1_565 S
C1512 C1511 1.387 1_545 S
C1512 C1515 1.387 1_545 S
H1513 C1509 0.950 . S
H1514 C1511 0.948 1_545 S
C1515 C1506 1.390 . S
C1515 H1508 0.950 1_565 S
C1515 C1512 1.387 1_565 S
C1516 C1517 1.387 . S
C1516 H1520 0.950 . S
C1516 C1525 1.390 . S
C1517 C1516 1.387 . S
C1517 C1519 1.387 . S
H1518 C1525 0.950 . S
C1519 C1517 1.387 . S
C1519 C1521 1.390 . S
C1519 H1523 0.950 . S
H1520 C1516 0.950 . S
C1521 C1519 1.390 . S
C1521 C1522 1.387 . S
C1521 H1524 0.950 . S
C1522 C1521 1.387 . S
C1522 C1525 1.387 . S
H1523 C1519 0.950 . S
H1524 C1521 0.950 . S
C1525 C1516 1.390 . S
C1525 H1518 0.950 . S
C1525 C1522 1.387 . S
C1526 C1527 1.387 . S
C1526 H1530 0.950 . S
C1526 C1535 1.390 . S
C1527 C1526 1.387 . S
C1527 C1529 1.387 1_545 S
H1528 C1535 0.950 . S
C1529 C1527 1.387 1_565 S
C1529 C1531 1.390 . S
C1529 H1533 0.950 . S
H1530 C1526 0.950 . S
C1531 C1529 1.390 . S
C1531 C1532 1.387 . S
C1531 H1534 0.950 . S
C1532 C1531 1.387 . S
C1532 C1535 1.387 1_565 S
H1533 C1529 0.950 . S
H1534 C1531 0.950 . S
C1535 C1526 1.390 . S
C1535 H1528 0.950 . S
C1535 C1532 1.387 1_545 S
C1536 C1537 1.387 . S
C1536 H1540 0.950 . S
C1536 C1545 1.390 . S
C1537 C1536 1.387 . S
C1537 C1539 1.387 . S
H1538 C1545 0.950 . S
C1539 C1537 1.387 . S
C1539 C1541 1.390 . S
C1539 H1543 0.950 . S
H1540 C1536 0.950 . S
C1541 C1539 1.390 . S
C1541 C1542 1.387 . S
C1541 H1544 0.950 . S
C1542 C1541 1.387 . S
C1542 C1545 1.387 . S
H1543 C1539 0.950 . S
H1544 C1541 0.950 . S
C1545 C1536 1.390 . S
C1545 H1538 0.950 . S
C1545 C1542 1.387 . S
C1546 C1547 1.387 . S
C1546 H1550 0.950 . S
C1546 C1555 1.390 . S
C1547 C1546 1.387 . S
C1547 C1549 1.387 . S
H1548 C1555 0.950 . S
C1549 C1547 1.387 . S
C1549 C1551 1.390 . S
C1549 H1553 0.950 . S
H1550 C1546 0.950 . S
C1551 C1549 1.390 . S
C1551 C1552 1.387 . S
C1551 H1554 0.950 . S
C1552 C1551 1.387 . S
C1552 C1555 1.387 . S
H1553 C1549 0.950 . S
H1554 C1551 0.950 . S
C1555 C1546 1.390 . S
C1555 H1548 0.950 . S
C1555 C1552 1.387 . S
C1556 C1557 1.387 . S
C1556 H1560 0.950 . S
C1556 C1565 1.390 . S
C1557 C1556 1.387 . S
C1557 C1559 1.387 . S
H1558 C1565 0.950 . S
C1559 C1557 1.387 . S
C1559 C1561 1.390 . S
C1559 H1563 0.950 . S
H1560 C1556 0.950 . S
C1561 C1559 1.390 . S
C1561 C1562 1.387 . S
C1561 H1564 0.950 . S
C1562 C1561 1.387 . S
C1562 C1565 1.387 . S
H1563 C1559 0.950 . S
H1564 C1561 0.950 . S
C1565 C1556 1.390 . S
C1565 H1558 0.950 . S
C1565 C1562 1.387 . S
C1566 C1567 1.387 . S
C1566 H1570 0.950 . S
C1566 C1575 1.390 . S
C1567 C1566 1.387 . S
C1567 C1569 1.387 . S
H1568 C1575 0.950 . S
C1569 C1567 1.387 . S
C1569 C1571 1.390 . S
C1569 H1573 0.950 . S
H1570 C1566 0.950 . S
C1571 C1569 1.390 . S
C1571 C1572 1.387 . S
C1571 H1574 0.950 . S
C1572 C1571 1.387 . S
C1572 C1575 1.387 . S
H1573 C1569 0.950 . S
H1574 C1571 0.950 . S
C1575 C1566 1.390 . S
C1575 H1568 0.950 . S
C1575 C1572 1.387 . S
C1576 C1577 1.387 . S
C1576 H1580 0.950 . S
C1576 C1585 1.390 . S
C1577 C1576 1.387 . S
C1577 C1579 1.387 . S
H1578 C1585 0.950 . S
C1579 C1577 1.387 . S
C1579 C1581 1.390 . S
C1579 H1583 0.950 . S
H1580 C1576 0.950 . S
C1581 C1579 1.390 . S
C1581 C1582 1.387 . S
C1581 H1584 0.950 . S
C1582 C1581 1.387 . S
C1582 C1585 1.387 . S
H1583 C1579 0.950 . S
H1584 C1581 0.950 . S
C1585 C1576 1.390 . S
C1585 H1578 0.950 . S
C1585 C1582 1.387 . S
C1586 C1587 1.387 . S
C1586 H1590 0.950 . S
C1586 C1595 1.390 . S
C1587 C1586 1.387 . S
C1587 C1589 1.387 . S
H1588 C1595 0.950 . S
C1589 C1587 1.387 . S
C1589 C1591 1.390 . S
C1589 H1593 0.950 . S
H1590 C1586 0.950 . S
C1591 C1589 1.390 . S
C1591 C1592 1.387 . S
C1591 H1594 0.950 . S
C1592 C1591 1.387 . S
C1592 C1595 1.387 . S
H1593 C1589 0.950 . S
H1594 C1591 0.950 . S
C1595 C1586 1.390 . S
C1595 H1588 0.950 . S
C1595 C1592 1.387 . S
C1596 C1597 1.387 . S
C1596 H1600 0.950 . S
C1596 C1605 1.390 . S
C1597 C1596 1.387 . S
C1597 C1599 1.387 . S
H1598 C1605 0.950 . S
C1599 C1597 1.387 . S
C1599 C1601 1.390 . S
C1599 H1603 0.950 . S
H1600 C1596 0.950 . S
C1601 C1599 1.390 . S
C1601 C1602 1.387 . S
C1601 H1604 0.950 . S
C1602 C1601 1.387 . S
C1602 C1605 1.387 . S
H1603 C1599 0.950 . S
H1604 C1601 0.950 . S
C1605 C1596 1.390 . S
C1605 H1598 0.950 . S
C1605 C1602 1.387 . S
C1606 C1607 1.387 . S
C1606 H1610 0.950 . S
C1606 C1615 1.390 . S
C1607 C1606 1.387 . S
C1607 C1609 1.387 . S
H1608 C1615 0.950 . S
C1609 C1607 1.387 . S
C1609 C1611 1.390 . S
C1609 H1613 0.950 . S
H1610 C1606 0.950 . S
C1611 C1609 1.390 . S
C1611 C1612 1.387 . S
C1611 H1614 0.950 . S
C1612 C1611 1.387 . S
C1612 C1615 1.387 . S
H1613 C1609 0.950 . S
H1614 C1611 0.950 . S
C1615 C1606 1.390 . S
C1615 H1608 0.950 . S
C1615 C1612 1.387 . S
C1616 C1617 1.387 . S
C1616 H1620 0.950 . S
C1616 C1625 1.390 . S
C1617 C1616 1.387 . S
C1617 C1619 1.387 . S
H1618 C1625 0.950 . S
C1619 C1617 1.387 . S
C1619 C1621 1.390 . S
C1619 H1623 0.950 . S
H1620 C1616 0.950 . S
C1621 C1619 1.390 . S
C1621 C1622 1.387 . S
C1621 H1624 0.950 . S
C1622 C1621 1.387 . S
C1622 C1625 1.387 . S
H1623 C1619 0.950 . S
H1624 C1621 0.950 . S
C1625 C1616 1.390 . S
C1625 H1618 0.950 . S
C1625 C1622 1.387 . S
C1626 C1627 1.387 . S
C1626 H1630 0.950 . S
C1626 C1635 1.390 . S
C1627 C1626 1.387 . S
C1627 C1629 1.387 . S
H1628 C1635 0.950 . S
C1629 C1627 1.387 . S
C1629 C1631 1.390 . S
C1629 H1633 0.950 . S
H1630 C1626 0.950 . S
C1631 C1629 1.390 . S
C1631 C1632 1.387 . S
C1631 H1634 0.950 . S
C1632 C1631 1.387 . S
C1632 C1635 1.387 . S
H1633 C1629 0.950 . S
H1634 C1631 0.950 . S
C1635 C1626 1.390 . S
C1635 H1628 0.950 . S
C1635 C1632 1.387 . S
C1636 C1637 1.387 . S
C1636 H1640 0.950 . S
C1636 C1645 1.390 . S
C1637 C1636 1.387 . S
C1637 C1639 1.387 . S
H1638 C1645 0.950 . S
C1639 C1637 1.387 . S
C1639 C1641 1.390 . S
C1639 H1643 0.950 . S
H1640 C1636 0.950 . S
C1641 C1639 1.390 . S
C1641 C1642 1.387 . S
C1641 H1644 0.950 . S
C1642 C1641 1.387 . S
C1642 C1645 1.387 . S
H1643 C1639 0.950 . S
H1644 C1641 0.950 . S
C1645 C1636 1.390 . S
C1645 H1638 0.950 . S
C1645 C1642 1.387 . S
C1646 C1647 1.387 . S
C1646 H1650 0.950 . S
C1646 C1655 1.390 . S
C1647 C1646 1.387 . S
C1647 C1649 1.387 . S
H1648 C1655 0.950 . S
C1649 C1647 1.387 . S
C1649 C1651 1.390 . S
C1649 H1653 0.950 . S
H1650 C1646 0.950 . S
C1651 C1649 1.390 . S
C1651 C1652 1.387 . S
C1651 H1654 0.950 . S
C1652 C1651 1.387 . S
C1652 C1655 1.387 . S
H1653 C1649 0.950 . S
H1654 C1651 0.950 . S
C1655 C1646 1.390 . S
C1655 H1648 0.950 . S
C1655 C1652 1.387 . S
C1656 C1657 1.387 . S
C1656 H1660 0.950 . S
C1656 C1665 1.390 . S
C1657 C1656 1.387 . S
C1657 C1659 1.387 . S
H1658 C1665 0.950 . S
C1659 C1657 1.387 . S
C1659 C1661 1.390 . S
C1659 H1663 0.950 . S
H1660 C1656 0.950 . S
C1661 C1659 1.390 . S
C1661 C1662 1.387 . S
C1661 H1664 0.950 . S
C1662 C1661 1.387 . S
C1662 C1665 1.387 . S
H1663 C1659 0.950 . S
H1664 C1661 0.950 . S
C1665 C1656 1.390 . S
C1665 H1658 0.950 . S
C1665 C1662 1.387 . S
C1666 C1667 1.387 . S
C1666 H1670 0.950 . S
C1666 C1675 1.390 . S
C1667 C1666 1.387 . S
C1667 C1669 1.387 . S
H1668 C1675 0.950 . S
C1669 C1667 1.387 . S
C1669 C1671 1.390 . S
C1669 H1673 0.950 . S
H1670 C1666 0.950 . S
C1671 C1669 1.390 . S
C1671 C1672 1.387 . S
C1671 H1674 0.950 . S
C1672 C1671 1.387 . S
C1672 C1675 1.387 . S
H1673 C1669 0.950 . S
H1674 C1671 0.950 . S
C1675 C1666 1.390 . S
C1675 H1668 0.950 . S
C1675 C1672 1.387 . S
C1676 C1677 1.387 . S
C1676 H1680 0.950 . S
C1676 C1685 1.390 . S
C1677 C1676 1.387 . S
C1677 C1679 1.387 . S
H1678 C1685 0.950 . S
C1679 C1677 1.387 . S
C1679 C1681 1.390 . S
C1679 H1683 0.950 . S
H1680 C1676 0.950 . S
C1681 C1679 1.390 . S
C1681 C1682 1.387 . S
C1681 H1684 0.950 . S
C1682 C1681 1.387 . S
C1682 C1685 1.387 . S
H1683 C1679 0.950 . S
H1684 C1681 0.950 . S
C1685 C1676 1.390 . S
C1685 H1678 0.950 . S
C1685 C1682 1.387 . S
C1686 C1687 1.387 . S
C1686 H1690 0.950 . S
C1686 C1695 1.390 . S
C1687 C1686 1.387 . S
C1687 C1689 1.387 . S
H1688 C1695 0.950 . S
C1689 C1687 1.387 . S
C1689 C1691 1.390 . S
C1689 H1693 0.950 . S
H1690 C1686 0.950 . S
C1691 C1689 1.390 . S
C1691 C1692 1.387 . S
C1691 H1694 0.950 . S
C1692 C1691 1.387 . S
C1692 C1695 1.387 . S
H1693 C1689 0.950 . S
H1694 C1691 0.950 . S
C1695 C1686 1.390 . S
C1695 H1688 0.950 . S
C1695 C1692 1.387 . S
C1696 C1697 1.387 . S
C1696 H1700 0.950 . S
C1696 C1705 1.390 . S
C1697 C1696 1.387 . S
C1697 C1699 1.387 . S
H1698 C1705 0.950 . S
C1699 C1697 1.387 . S
C1699 C1701 1.390 . S
C1699 H1703 0.950 . S
H1700 C1696 0.950 . S
C1701 C1699 1.390 . S
C1701 C1702 1.387 . S
C1701 H1704 0.950 . S
C1702 C1701 1.387 . S
C1702 C1705 1.387 . S
H1703 C1699 0.950 . S
H1704 C1701 0.950 . S
C1705 C1696 1.390 . S
C1705 H1698 0.950 . S
C1705 C1702 1.387 . S
C1706 C1707 1.387 . S
C1706 H1710 0.950 . S
C1706 C1715 1.390 1_655 S
C1707 C1706 1.387 . S
C1707 C1709 1.387 . S
H1708 C1715 0.950 . S
C1709 C1707 1.387 . S
C1709 C1711 1.390 1_655 S
C1709 H1713 0.950 . S
H1710 C1706 0.950 . S
C1711 C1709 1.390 1_455 S
C1711 C1712 1.387 . S
C1711 H1714 0.950 . S
C1712 C1711 1.387 . S
C1712 C1715 1.387 . S
H1713 C1709 0.950 . S
H1714 C1711 0.950 . S
C1715 C1706 1.390 1_455 S
C1715 H1708 0.950 . S
C1715 C1712 1.387 . S
C1716 C1717 1.387 . S
C1716 H1720 0.950 . S
C1716 C1725 1.390 1_455 S
C1717 C1716 1.387 . S
C1717 C1719 1.387 . S
H1718 C1725 0.950 . S
C1719 C1717 1.387 . S
C1719 C1721 1.390 1_455 S
C1719 H1723 0.950 . S
H1720 C1716 0.950 . S
C1721 C1719 1.390 1_655 S
C1721 C1722 1.387 . S
C1721 H1724 0.950 . S
C1722 C1721 1.387 . S
C1722 C1725 1.387 . S
H1723 C1719 0.950 . S
H1724 C1721 0.950 . S
C1725 C1716 1.390 1_655 S
C1725 H1718 0.950 . S
C1725 C1722 1.387 . S
C1726 C1727 1.387 . S
C1726 H1730 0.950 . S
C1726 C1735 1.390 . S
C1727 C1726 1.387 . S
C1727 C1729 1.387 . S
H1728 C1735 0.950 . S
C1729 C1727 1.387 . S
C1729 C1731 1.390 . S
C1729 H1733 0.950 . S
H1730 C1726 0.950 . S
C1731 C1729 1.390 . S
C1731 C1732 1.387 . S
C1731 H1734 0.950 . S
C1732 C1731 1.387 . S
C1732 C1735 1.387 . S
H1733 C1729 0.950 . S
H1734 C1731 0.950 . S
C1735 C1726 1.390 . S
C1735 H1728 0.950 . S
C1735 C1732 1.387 . S
C1736 C1737 1.387 . S
C1736 H1740 0.950 . S
C1736 C1745 1.390 . S
C1737 C1736 1.387 . S
C1737 C1739 1.387 . S
H1738 C1745 0.950 . S
C1739 C1737 1.387 . S
C1739 C1741 1.390 . S
C1739 H1743 0.950 . S
H1740 C1736 0.950 . S
C1741 C1739 1.390 . S
C1741 C1742 1.387 . S
C1741 H1744 0.950 . S
C1742 C1741 1.387 . S
C1742 C1745 1.387 . S
H1743 C1739 0.950 . S
H1744 C1741 0.950 . S
C1745 C1736 1.390 . S
C1745 H1738 0.950 . S
C1745 C1742 1.387 . S
C1746 C1747 1.387 . S
C1746 H1750 0.950 . S
C1746 C1755 1.390 . S
C1747 C1746 1.387 . S
C1747 C1749 1.387 . S
H1748 C1755 0.950 . S
C1749 C1747 1.387 . S
C1749 C1751 1.390 . S
C1749 H1753 0.950 . S
H1750 C1746 0.950 . S
C1751 C1749 1.390 . S
C1751 C1752 1.387 . S
C1751 H1754 0.950 . S
C1752 C1751 1.387 . S
C1752 C1755 1.387 . S
H1753 C1749 0.950 . S
H1754 C1751 0.950 . S
C1755 C1746 1.390 . S
C1755 H1748 0.950 . S
C1755 C1752 1.387 . S
C1756 C1757 1.387 . S
C1756 H1760 0.950 . S
C1756 C1765 1.390 1_655 S
C1757 C1756 1.387 . S
C1757 C1759 1.387 . S
H1758 C1765 0.950 . S
C1759 C1757 1.387 . S
C1759 C1761 1.390 1_655 S
C1759 H1763 0.950 . S
H1760 C1756 0.950 . S
C1761 C1759 1.390 1_455 S
C1761 C1762 1.387 . S
C1761 H1764 0.950 . S
C1762 C1761 1.387 . S
C1762 C1765 1.387 . S
H1763 C1759 0.950 . S
H1764 C1761 0.950 . S
C1765 C1756 1.390 1_455 S
C1765 H1758 0.950 . S
C1765 C1762 1.387 . S
C1766 C1767 1.387 . S
C1766 H1770 0.950 . S
C1766 C1775 1.390 1_655 S
C1767 C1766 1.387 . S
C1767 C1769 1.387 . S
H1768 C1775 0.950 . S
C1769 C1767 1.387 . S
C1769 C1771 1.390 1_655 S
C1769 H1773 0.950 . S
H1770 C1766 0.950 . S
C1771 C1769 1.390 1_455 S
C1771 C1772 1.387 . S
C1771 H1774 0.950 . S
C1772 C1771 1.387 . S
C1772 C1775 1.387 . S
H1773 C1769 0.950 . S
H1774 C1771 0.950 . S
C1775 C1766 1.390 1_455 S
C1775 H1768 0.950 . S
C1775 C1772 1.387 . S
C1776 C1777 1.387 . S
C1776 H1780 0.950 . S
C1776 C1785 1.390 . S
C1777 C1776 1.387 . S
C1777 C1779 1.387 . S
H1778 C1785 0.950 . S
C1779 C1777 1.387 . S
C1779 C1781 1.390 . S
C1779 H1783 0.950 . S
H1780 C1776 0.950 . S
C1781 C1779 1.390 . S
C1781 C1782 1.387 . S
C1781 H1784 0.950 . S
C1782 C1781 1.387 . S
C1782 C1785 1.387 . S
H1783 C1779 0.950 . S
H1784 C1781 0.950 . S
C1785 C1776 1.390 . S
C1785 H1778 0.950 . S
C1785 C1782 1.387 . S
C1786 C1787 1.387 . S
C1786 H1790 0.950 . S
C1786 C1795 1.390 1_455 S
C1787 C1786 1.387 . S
C1787 C1789 1.387 . S
H1788 C1795 0.950 . S
C1789 C1787 1.387 . S
C1789 C1791 1.390 1_455 S
C1789 H1793 0.950 . S
H1790 C1786 0.950 . S
C1791 C1789 1.390 1_655 S
C1791 C1792 1.387 . S
C1791 H1794 0.950 . S
C1792 C1791 1.387 . S
C1792 C1795 1.387 . S
H1793 C1789 0.950 . S
H1794 C1791 0.950 . S
C1795 C1786 1.390 1_655 S
C1795 H1788 0.950 . S
C1795 C1792 1.387 . S
C1796 C1797 1.387 . S
C1796 H1800 0.950 . S
C1796 C1805 1.390 1_655 S
C1797 C1796 1.387 . S
C1797 C1799 1.387 . S
H1798 C1805 0.950 . S
C1799 C1797 1.387 . S
C1799 C1801 1.390 1_655 S
C1799 H1803 0.950 . S
H1800 C1796 0.950 . S
C1801 C1799 1.390 1_455 S
C1801 C1802 1.387 . S
C1801 H1804 0.950 . S
C1802 C1801 1.387 . S
C1802 C1805 1.387 . S
H1803 C1799 0.950 . S
H1804 C1801 0.950 . S
C1805 C1796 1.390 1_455 S
C1805 H1798 0.950 . S
C1805 C1802 1.387 . S
C1806 C1807 1.387 . S
C1806 H1810 0.950 . S
C1806 C1815 1.390 . S
C1807 C1806 1.387 . S
C1807 C1809 1.387 . S
H1808 C1815 0.950 . S
C1809 C1807 1.387 . S
C1809 C1811 1.390 . S
C1809 H1813 0.950 . S
H1810 C1806 0.950 . S
C1811 C1809 1.390 . S
C1811 C1812 1.387 . S
C1811 H1814 0.950 . S
C1812 C1811 1.387 . S
C1812 C1815 1.387 . S
H1813 C1809 0.950 . S
H1814 C1811 0.950 . S
C1815 C1806 1.390 . S
C1815 H1808 0.950 . S
C1815 C1812 1.387 . S
C1816 C1817 1.387 . S
C1816 H1820 0.950 . S
C1816 C1825 1.390 . S
C1817 C1816 1.387 . S
C1817 C1819 1.387 . S
H1818 C1825 0.950 . S
C1819 C1817 1.387 . S
C1819 C1821 1.390 . S
C1819 H1823 0.950 . S
H1820 C1816 0.950 . S
C1821 C1819 1.390 . S
C1821 C1822 1.387 . S
C1821 H1824 0.950 . S
C1822 C1821 1.387 . S
C1822 C1825 1.387 . S
H1823 C1819 0.950 . S
H1824 C1821 0.950 . S
C1825 C1816 1.390 . S
C1825 H1818 0.950 . S
C1825 C1822 1.387 . S
C1826 C1827 1.387 . S
C1826 H1830 0.950 . S
C1826 C1835 1.390 . S
C1827 C1826 1.387 . S
C1827 C1829 1.387 . S
H1828 C1835 0.950 . S
C1829 C1827 1.387 . S
C1829 C1831 1.390 . S
C1829 H1833 0.950 . S
H1830 C1826 0.950 . S
C1831 C1829 1.390 . S
C1831 C1832 1.387 . S
C1831 H1834 0.950 . S
C1832 C1831 1.387 . S
C1832 C1835 1.387 . S
H1833 C1829 0.950 . S
H1834 C1831 0.950 . S
C1835 C1826 1.390 . S
C1835 H1828 0.950 . S
C1835 C1832 1.387 . S
C1836 C1837 1.387 . S
C1836 H1840 0.950 . S
C1836 C1845 1.390 1_455 S
C1837 C1836 1.387 . S
C1837 C1839 1.387 . S
H1838 C1845 0.950 . S
C1839 C1837 1.387 . S
C1839 C1841 1.390 1_455 S
C1839 H1843 0.950 . S
H1840 C1836 0.950 . S
C1841 C1839 1.390 1_655 S
C1841 C1842 1.387 . S
C1841 H1844 0.950 . S
C1842 C1841 1.387 . S
C1842 C1845 1.387 . S
H1843 C1839 0.950 . S
H1844 C1841 0.950 . S
C1845 C1836 1.390 1_655 S
C1845 H1838 0.950 . S
C1845 C1842 1.387 . S
C1846 C1847 1.387 . S
C1846 H1850 0.950 . S
C1846 C1855 1.390 1_455 S
C1847 C1846 1.387 . S
C1847 C1849 1.387 . S
H1848 C1855 0.950 . S
C1849 C1847 1.387 . S
C1849 C1851 1.390 1_455 S
C1849 H1853 0.950 . S
H1850 C1846 0.950 . S
C1851 C1849 1.390 1_655 S
C1851 C1852 1.387 . S
C1851 H1854 0.950 . S
C1852 C1851 1.387 . S
C1852 C1855 1.387 . S
H1853 C1849 0.950 . S
H1854 C1851 0.950 . S
C1855 C1846 1.390 1_655 S
C1855 H1848 0.950 . S
C1855 C1852 1.387 . S
C1057 C28 1.382 . S
C1062 C259 1.381 . S
C1067 C61 1.382 . S
C1072 C160 1.381 . S
C1077 C94 1.381 . S
C1082 C193 1.382 . S
C1087 C127 1.381 . S
C1092 C226 1.382 . S
C1097 C523 1.382 . S
C1102 C292 1.381 . S
C1107 C325 1.381 . S
C1112 C424 1.382 . S
C1117 C457 1.381 . S
C1122 C358 1.383 . S
C1127 C391 1.382 . S
C1132 C490 1.381 . S
C1137 C556 1.380 . S
C1142 C787 1.382 . S
C1147 C688 1.381 . S
C1152 C589 1.382 . S
C1157 C622 1.381 . S
C1162 C721 1.383 . S
C1167 C655 1.382 . S
C1172 C754 1.381 . S
C1177 C820 1.381 . S
C1182 C1051 1.382 . S
C1187 C853 1.381 . S
C1192 C952 1.382 . S
C1197 C985 1.382 . S
C1202 C886 1.382 . S
C1207 C1018 1.381 . S
C1212 C919 1.382 . S
C1217 C215 1.679 . S
C1222 C17 1.679 . S
C1227 C50 1.679 . S
C1232 C248 1.679 . S
C1237 C83 1.683 . S
C1242 C149 1.683 . S
C1247 C116 1.683 . S
C1252 C182 1.683 . S
C1257 C281 1.683 . S
C1262 C479 1.683 . S
C1267 C512 1.679 . S
C1272 C314 1.679 . S
C1277 C413 1.679 . S
C1282 C347 1.679 . S
C1287 C446 1.683 . S
C1292 C380 1.683 . S
C1297 C545 1.683 . S
C1302 C743 1.683 . S
C1307 C776 1.679 . S
C1312 C578 1.679 . S
C1317 C677 1.683 . S
C1322 C611 1.683 . S
C1327 C644 1.679 . S
C1332 C710 1.679 . S
C1337 C1007 1.683 . S
C1342 C809 1.683 . S
C1347 C842 1.683 . S
C1352 C1040 1.683 . S
C1357 C941 1.683 . S
C1362 C875 1.683 . S
C1367 C974 1.679 . S
C1372 C908 1.679 . S
C1377 N938 1.239 . S
C1382 N5 1.356 1_565 S
C1387 N443 1.241 . S
C1392 N38 1.356 . S
C1397 N1004 1.239 . S
C1402 N71 1.356 1_545 S
C1407 N104 1.357 . S
C1412 N509 1.245 . S
C1417 N806 1.245 . S
C1422 N137 1.357 1_545 S
C1427 N311 1.239 . S
C1432 N170 1.356 . S
C1437 N872 1.245 . S
C1442 N203 1.357 1_565 S
C1447 N236 1.357 . S
C1452 N377 1.245 . S
C1457 N269 1.357 1_545 S
C1462 N674 1.245 . S
C1467 N302 1.356 . S
C1472 N179 1.239 . S
C1477 N335 1.357 1_565 S
C1482 N740 1.245 . S
C1487 N245 1.239 . S
C1492 N368 1.356 . S
C1497 N542 1.244 . S
C1502 N401 1.357 1_565 S
C1507 N434 1.357 . S
C1512 N47 1.245 . S
C1517 N467 1.356 1_545 S
C1522 N608 1.240 . S
C1527 N500 1.356 . S
C1532 N113 1.241 . S
C1537 N410 1.239 . S
C1542 N533 1.356 . S
C1547 N566 1.357 . S
C1552 N971 1.245 . S
C1557 N476 1.240 . S
C1562 N599 1.356 . S
C1567 N632 1.357 . S
C1572 N1037 1.245 . S
C1577 N665 1.357 . S
C1582 N278 1.244 . S
C1587 N698 1.356 . S
C1592 N839 1.239 . S
C1597 N344 1.245 . S
C1602 N731 1.357 . S
C1607 N764 1.356 . S
C1612 N905 1.240 . S
C1617 N146 1.245 . S
C1622 N797 1.357 . S
C1627 N707 1.239 . S
C1632 N830 1.356 . S
C1637 N212 1.245 . S
C1642 N863 1.358 . S
C1647 N773 1.245 . S
C1652 N896 1.357 . S
C1657 N14 1.245 . S
C1662 N929 1.357 . S
C1667 N575 1.239 . S
C1672 N962 1.356 . S
C1677 N995 1.356 . S
C1682 N80 1.241 . S
C1687 N641 1.239 . S
C1692 N1028 1.356 . S
C1697 C602 1.938 . S
C1702 C8 1.939 . S
C1707 C635 1.938 . S
C1712 C41 1.938 . S
C1717 C74 1.938 . S
C1722 C536 1.938 . S
C1727 C107 1.938 . S
C1732 C569 1.938 . S
C1737 C734 1.938 . S
C1742 C140 1.938 . S
C1747 C173 1.938 . S
C1752 C767 1.939 . S
C1757 C668 1.938 . S
C1762 C206 1.938 . S
C1767 C701 1.938 . S
C1772 C239 1.939 . S
C1777 C866 1.938 . S
C1782 C272 1.939 . S
C1787 C899 1.938 . S
C1792 C305 1.938 . S
C1797 C338 1.938 . S
C1802 C800 1.938 . S
C1807 C371 1.938 . S
C1812 C833 1.938 . S
C1817 C404 1.938 . S
C1822 C998 1.938 . S
C1827 C437 1.938 . S
C1832 C1031 1.939 . S
C1837 C932 1.938 . S
C1842 C470 1.938 . S
C1847 C965 1.938 . S
C1852 C503 1.939 . S
