# Generated by pormake.
# Topology wlk, (5)-cn, num edge types: 1
# Building blocks:
#     Node 0, Type 0, BuildingBlock: BEQFEK_clean_sbu_0, # of connection points: 5
#     Node 1, Type 0, BuildingBlock: BEQFEK_clean_sbu_0, # of connection points: 5
#     Node 2, Type 0, BuildingBlock: BEQFEK_clean_sbu_0, # of connection points: 5
#     Node 3, Type 0, BuildingBlock: BEQFEK_clean_sbu_0, # of connection points: 5
#     Node 4, Type 0, BuildingBlock: BEQFEK_clean_sbu_0, # of connection points: 5
#     Node 5, Type 0, BuildingBlock: BEQFEK_clean_sbu_0, # of connection points: 5
#     Node 6, Type 0, BuildingBlock: BEQFEK_clean_sbu_0, # of connection points: 5
#     Node 7, Type 0, BuildingBlock: BEQFEK_clean_sbu_0, # of connection points: 5
#     Node 8, Type 0, BuildingBlock: BEQFEK_clean_sbu_0, # of connection points: 5
#     Node 9, Type 0, BuildingBlock: BEQFEK_clean_sbu_0, # of connection points: 5
#     Node 10, Type 0, BuildingBlock: BEQFEK_clean_sbu_0, # of connection points: 5
#     Node 11, Type 0, BuildingBlock: BEQFEK_clean_sbu_0, # of connection points: 5
#     Node 12, Type 0, BuildingBlock: BEQFEK_clean_sbu_0, # of connection points: 5
#     Node 13, Type 0, BuildingBlock: BEQFEK_clean_sbu_0, # of connection points: 5
#     Node 14, Type 0, BuildingBlock: BEQFEK_clean_sbu_0, # of connection points: 5
#     Node 15, Type 0, BuildingBlock: BEQFEK_clean_sbu_0, # of connection points: 5
#     Node 16, Type 0, BuildingBlock: BEQFEK_clean_sbu_0, # of connection points: 5
#     Node 17, Type 0, BuildingBlock: BEQFEK_clean_sbu_0, # of connection points: 5
#     Edge 18, Type (0, 0), BuildingBlock: CIFDUS_clean_linker_0, # of connection points: 2
#     Edge 19, Type (0, 0), BuildingBlock: CIFDUS_clean_linker_0, # of connection points: 2
#     Edge 20, Type (0, 0), BuildingBlock: CIFDUS_clean_linker_0, # of connection points: 2
#     Edge 21, Type (0, 0), BuildingBlock: CIFDUS_clean_linker_0, # of connection points: 2
#     Edge 22, Type (0, 0), BuildingBlock: CIFDUS_clean_linker_0, # of connection points: 2
#     Edge 23, Type (0, 0), BuildingBlock: CIFDUS_clean_linker_0, # of connection points: 2
#     Edge 24, Type (0, 0), BuildingBlock: CIFDUS_clean_linker_0, # of connection points: 2
#     Edge 25, Type (0, 0), BuildingBlock: CIFDUS_clean_linker_0, # of connection points: 2
#     Edge 26, Type (0, 0), BuildingBlock: CIFDUS_clean_linker_0, # of connection points: 2
#     Edge 27, Type (0, 0), BuildingBlock: CIFDUS_clean_linker_0, # of connection points: 2
#     Edge 28, Type (0, 0), BuildingBlock: CIFDUS_clean_linker_0, # of connection points: 2
#     Edge 29, Type (0, 0), BuildingBlock: CIFDUS_clean_linker_0, # of connection points: 2
#     Edge 30, Type (0, 0), BuildingBlock: CIFDUS_clean_linker_0, # of connection points: 2
#     Edge 31, Type (0, 0), BuildingBlock: CIFDUS_clean_linker_0, # of connection points: 2
#     Edge 32, Type (0, 0), BuildingBlock: CIFDUS_clean_linker_0, # of connection points: 2
#     Edge 33, Type (0, 0), BuildingBlock: CIFDUS_clean_linker_0, # of connection points: 2
#     Edge 34, Type (0, 0), BuildingBlock: CIFDUS_clean_linker_0, # of connection points: 2
#     Edge 35, Type (0, 0), BuildingBlock: CIFDUS_clean_linker_0, # of connection points: 2
#     Edge 36, Type (0, 0), BuildingBlock: CIFDUS_clean_linker_0, # of connection points: 2
#     Edge 37, Type (0, 0), BuildingBlock: CIFDUS_clean_linker_0, # of connection points: 2
#     Edge 38, Type (0, 0), BuildingBlock: CIFDUS_clean_linker_0, # of connection points: 2
#     Edge 39, Type (0, 0), BuildingBlock: CIFDUS_clean_linker_0, # of connection points: 2
#     Edge 40, Type (0, 0), BuildingBlock: CIFDUS_clean_linker_0, # of connection points: 2
#     Edge 41, Type (0, 0), BuildingBlock: CIFDUS_clean_linker_0, # of connection points: 2
#     Edge 42, Type (0, 0), BuildingBlock: CIFDUS_clean_linker_0, # of connection points: 2
#     Edge 43, Type (0, 0), BuildingBlock: CIFDUS_clean_linker_0, # of connection points: 2
#     Edge 44, Type (0, 0), BuildingBlock: CIFDUS_clean_linker_0, # of connection points: 2
#     Edge 45, Type (0, 0), BuildingBlock: CIFDUS_clean_linker_0, # of connection points: 2
#     Edge 46, Type (0, 0), BuildingBlock: CIFDUS_clean_linker_0, # of connection points: 2
#     Edge 47, Type (0, 0), BuildingBlock: CIFDUS_clean_linker_0, # of connection points: 2
#     Edge 48, Type (0, 0), BuildingBlock: CIFDUS_clean_linker_0, # of connection points: 2
#     Edge 49, Type (0, 0), BuildingBlock: CIFDUS_clean_linker_0, # of connection points: 2
#     Edge 50, Type (0, 0), BuildingBlock: CIFDUS_clean_linker_0, # of connection points: 2
#     Edge 51, Type (0, 0), BuildingBlock: CIFDUS_clean_linker_0, # of connection points: 2
#     Edge 52, Type (0, 0), BuildingBlock: CIFDUS_clean_linker_0, # of connection points: 2
#     Edge 53, Type (0, 0), BuildingBlock: CIFDUS_clean_linker_0, # of connection points: 2
#     Edge 54, Type (0, 0), BuildingBlock: CIFDUS_clean_linker_0, # of connection points: 2
#     Edge 55, Type (0, 0), BuildingBlock: CIFDUS_clean_linker_0, # of connection points: 2
#     Edge 56, Type (0, 0), BuildingBlock: CIFDUS_clean_linker_0, # of connection points: 2
#     Edge 57, Type (0, 0), BuildingBlock: CIFDUS_clean_linker_0, # of connection points: 2
#     Edge 58, Type (0, 0), BuildingBlock: CIFDUS_clean_linker_0, # of connection points: 2
#     Edge 59, Type (0, 0), BuildingBlock: CIFDUS_clean_linker_0, # of connection points: 2
#     Edge 60, Type (0, 0), BuildingBlock: CIFDUS_clean_linker_0, # of connection points: 2
#     Edge 61, Type (0, 0), BuildingBlock: CIFDUS_clean_linker_0, # of connection points: 2
#     Edge 62, Type (0, 0), BuildingBlock: CIFDUS_clean_linker_0, # of connection points: 2
# Relax obj value: 0.045
# Max RMSD: 0.100
# Mean RMSD: 0.100
data_MOF--net-wlk--node1-BEQFEK_clean_sbu_0--edge1-CIFDUS_clean_linker_0
_symmetry_space_group_name_H-M    P1
_symmetry_Int_Tables_number       1
_symmetry_cell_setting            triclinic
loop_
_symmetry_equiv_pos_as_xyz
'x, y, z'
_cell_length_a     57.967931
_cell_length_b     57.879953
_cell_length_c     27.765192
_cell_angle_alpha  90.039451
_cell_angle_beta   90.026584
_cell_angle_gamma 119.9087
loop_
_atom_site_label
_atom_site_type_symbol
_atom_site_fract_x
_atom_site_fract_y
_atom_site_fract_z
_atom_type_partial_charge
Co0 Co 0.2353 0.28108 0.1778 0.0
Co1 Co 0.18581 0.26612 0.11196 0.0
C2 C 0.20783 0.2299 0.11859 0.0
O3 O 0.22593 0.24655 0.14647 0.0
O4 O 0.18939 0.23392 0.10358 0.0
C5 C 0.26135 0.26735 0.24921 0.0
O6 O 0.24309 0.24315 0.23664 0.0
C7 C 0.13048 0.23961 0.07551 0.0
C8 C 0.1335 0.2687 0.02085 0.0
C9 C 0.11615 0.24399 0.04027 0.0
N10 N 0.15526 0.26084 0.0768 0.0
N11 N 0.15681 0.2782 0.04423 0.0
C12 C 0.12142 0.21497 0.10497 0.0
H13 H 0.11425 0.19742 0.08081 0.0
H14 H 0.13781 0.21664 0.12808 0.0
H15 H 0.1045 0.21184 0.12807 0.0
C16 C 0.20488 0.2949 0.24442 0.0
N17 N 0.20591 0.28232 0.20434 0.0
N18 N 0.1849 0.276 0.17744 0.0
C19 C 0.16961 0.28423 0.19998 0.0
C20 C 0.18181 0.29666 0.24319 0.0
C21 C 0.22805 0.30927 0.27794 0.0
H22 H 0.23023 0.29443 0.29982 0.0
H23 H 0.22577 0.32317 0.3023 0.0
H24 H 0.24657 0.32073 0.2567 0.0
O25 O 0.2519 0.30905 0.12811 0.0
O26 O 0.21703 0.29596 0.07939 0.0
H27 H 0.15059 0.29561 0.14659 0.0
H28 H 0.13425 0.28788 0.20477 0.0
C29 C 0.14506 0.28233 0.17845 0.0
H30 H 0.13162 0.26162 0.16621 0.0
H31 H 0.17402 0.29628 0.0371 0.0
O32 O 0.26179 0.28724 0.22892 0.0
C33 C 0.24154 0.31146 0.0893 0.0
Co34 Co 0.72849 0.95587 0.16945 0.0
Co35 Co 0.7433 0.92179 0.1013 0.0
C36 C 0.78149 0.97894 0.11718 0.0
O37 O 0.76467 0.98004 0.14503 0.0
O38 O 0.77661 0.95713 0.09735 0.0
C39 C 0.7365 0.98124 0.26044 0.0
O40 O 0.75132 0.9703 0.26802 0.0
C41 C 0.76821 0.892 0.05908 0.0
C42 C 0.73682 0.86605 0.00761 0.0
C43 C 0.76212 0.87293 0.02336 0.0
N44 N 0.74741 0.89617 0.0639 0.0
N45 N 0.72871 0.88042 0.03318 0.0
C46 C 0.79381 0.90704 0.08619 0.0
H47 H 0.79556 0.92525 0.10284 0.0
H48 H 0.79433 0.89422 0.11535 0.0
H49 H 0.81094 0.91234 0.06189 0.0
C50 C 0.71018 0.9086 0.23108 0.0
N51 N 0.72395 0.92321 0.19275 0.0
N52 N 0.73113 0.90916 0.16573 0.0
C53 C 0.72268 0.88527 0.18708 0.0
C54 C 0.70917 0.88415 0.22942 0.0
C55 C 0.69384 0.91572 0.26314 0.0
H56 H 0.6888 0.92955 0.2445 0.0
H57 H 0.7053 0.92543 0.29628 0.0
H58 H 0.67508 0.89766 0.27396 0.0
O59 O 0.70289 0.94838 0.11668 0.0
O60 O 0.71537 0.92623 0.06739 0.0
H61 H 0.71231 0.85459 0.13471 0.0
H62 H 0.72197 0.84763 0.19254 0.0
C63 C 0.72607 0.86342 0.16572 0.0
H64 H 0.74669 0.87174 0.15225 0.0
H65 H 0.71057 0.8799 0.0289 0.0
O66 O 0.72388 0.97694 0.22094 0.0
C67 C 0.70087 0.93648 0.07693 0.0
Co68 Co 0.04198 0.78138 0.17761 0.0
Co69 Co 0.08375 0.82544 0.10925 0.0
C70 C 0.02743 0.8141 0.11413 0.0
O71 O 0.02253 0.797 0.14698 0.0
O72 O 0.05043 0.82697 0.09497 0.0
C73 C 0.00951 0.76362 0.26263 0.0
O74 O 0.01807 0.78904 0.27016 0.0
C75 C 0.11684 0.87611 0.05614 0.0
C76 C 0.14997 0.87025 0.03253 0.0
C77 C 0.14017 0.88767 0.02917 0.0
N78 N 0.11317 0.85295 0.07445 0.0
N79 N 0.13317 0.84974 0.06041 0.0
C80 C 0.09683 0.88514 0.06035 0.0
H81 H 0.09021 0.88336 0.09836 0.0
H82 H 0.10481 0.90588 0.04762 0.0
H83 H 0.07913 0.87182 0.03832 0.0
C84 C 0.08584 0.80867 0.24776 0.0
N85 N 0.07464 0.80745 0.20459 0.0
N86 N 0.09206 0.82668 0.17675 0.0
C87 C 0.1149 0.8409 0.20191 0.0
C88 C 0.11157 0.83004 0.24777 0.0
C89 C 0.07388 0.78737 0.28544 0.0
H90 H 0.06119 0.76765 0.26848 0.0
H91 H 0.0616 0.79183 0.31018 0.0
H92 H 0.08952 0.78652 0.30717 0.0
O93 O 0.04825 0.76008 0.12958 0.0
O94 O 0.07871 0.79133 0.08227 0.0
H95 H 0.14934 0.85466 0.15764 0.0
H96 H 0.15435 0.87483 0.21043 0.0
C97 C 0.14005 0.86312 0.18145 0.0
H98 H 0.13554 0.87643 0.15962 0.0
H99 H 0.13495 0.83313 0.06882 0.0
O100 O 0.01768 0.75643 0.2263 0.0
C101 C 0.06381 0.76691 0.09351 0.0
Co102 Co 0.77628 0.73053 0.83283 0.0
Co103 Co 0.82683 0.74541 0.89611 0.0
C104 C 0.80697 0.78347 0.88434 0.0
O105 O 0.78876 0.76688 0.85668 0.0
O106 O 0.82392 0.77828 0.90306 0.0
C107 C 0.75607 0.7373 0.74403 0.0
O108 O 0.7815 0.75243 0.7344 0.0
C109 C 0.88252 0.77197 0.93266 0.0
C110 C 0.87957 0.74195 0.98514 0.0
C111 C 0.89683 0.76713 0.9674 0.0
N112 N 0.85784 0.75058 0.93021 0.0
N113 N 0.85639 0.73266 0.9614 0.0
C114 C 0.89148 0.79716 0.90501 0.0
H115 H 0.87567 0.7952 0.87997 0.0
H116 H 0.90965 0.80193 0.88419 0.0
H117 H 0.89669 0.81385 0.93048 0.0
C118 C 0.80375 0.71171 0.7678 0.0
N119 N 0.80395 0.72607 0.8062 0.0
N120 N 0.82597 0.73375 0.83105 0.0
C121 C 0.84079 0.725 0.80835 0.0
C122 C 0.82719 0.7107 0.7674 0.0
C123 C 0.77949 0.69486 0.73791 0.0
H124 H 0.7612 0.68999 0.75833 0.0
H125 H 0.78021 0.70593 0.70482 0.0
H126 H 0.77859 0.67599 0.72691 0.0
O127 O 0.75979 0.70531 0.88692 0.0
O128 O 0.79602 0.716 0.93042 0.0
H129 H 0.86232 0.71524 0.85908 0.0
H130 H 0.87735 0.72394 0.79989 0.0
C131 C 0.86646 0.72856 0.82761 0.0
H132 H 0.87916 0.74941 0.83989 0.0
H133 H 0.83928 0.71434 0.96751 0.0
O134 O 0.749 0.72502 0.78401 0.0
C135 C 0.77095 0.70198 0.92374 0.0
Co136 Co 0.27693 0.04869 0.84725 0.0
Co137 Co 0.2715 0.08794 0.91906 0.0
C138 C 0.23021 0.03077 0.91595 0.0
O139 O 0.24346 0.02718 0.88324 0.0
O140 O 0.23812 0.05388 0.93336 0.0
C141 C 0.26508 0.0172 0.75812 0.0
O142 O 0.25139 0.02835 0.74339 0.0
C143 C 0.25432 0.12148 0.97474 0.0
C144 C 0.29345 0.15208 1.00274 0.0
C145 C 0.26658 0.14394 0.00435 0.0
N146 N 0.27323 0.1167 0.95689 0.0
N147 N 0.29651 0.13525 0.97367 0.0
C148 C 0.22516 0.10414 0.96566 0.0
H149 H 0.22055 0.0843 0.95221 0.0
H150 H 0.21887 0.11361 0.93781 0.0
H151 H 0.21369 0.1019 0.99904 0.0
C152 C 0.29337 0.09426 0.78207 0.0
N153 N 0.281 0.08094 0.82246 0.0
N154 N 0.27755 0.09698 0.85155 0.0
C155 C 0.28672 0.12076 0.82944 0.0
C156 C 0.29729 0.11996 0.78475 0.0
C157 C 0.30668 0.08478 0.74733 0.0
H158 H 0.3106 0.06983 0.76455 0.0
H159 H 0.29356 0.07563 0.71564 0.0
H160 H 0.32585 0.10156 0.73445 0.0
O161 O 0.30704 0.05802 0.89023 0.0
O162 O 0.30171 0.08377 0.94345 0.0
H163 H 0.30436 0.15387 0.87778 0.0
H164 H 0.28958 0.15934 0.82489 0.0
C165 C 0.28734 0.14445 0.85238 0.0
H166 H 0.26873 0.13807 0.87293 0.0
H167 H 0.31454 0.1361 0.96601 0.0
O168 O 0.27727 0.02394 0.7982 0.0
C169 C 0.31408 0.07214 0.92826 0.0
Co170 Co 0.96618 0.22412 0.83361 0.0
Co171 Co 0.92615 0.18089 0.90625 0.0
C172 C 0.98322 0.19459 0.89992 0.0
O173 O 0.98719 0.21081 0.86598 0.0
O174 O 0.96055 0.18156 0.92007 0.0
C175 C 0.0096 0.24895 0.76753 0.0
O176 O 0.01546 0.23145 0.78512 0.0
C177 C 0.89294 0.12687 0.94704 0.0
C178 C 0.86867 0.13415 0.99959 0.0
C179 C 0.87372 0.11456 0.98267 0.0
N180 N 0.8989 0.15248 0.94338 0.0
N181 N 0.88418 0.15659 0.97473 0.0
C182 C 0.90677 0.1152 0.91922 0.0
H183 H 0.9256 0.13114 0.90353 0.0
H184 H 0.89375 0.10296 0.88923 0.0
H185 H 0.9108 0.10209 0.94271 0.0
C186 C 0.92244 0.19348 0.7663 0.0
N187 N 0.93402 0.19604 0.80944 0.0
N188 N 0.9169 0.17784 0.83915 0.0
C189 C 0.89356 0.16328 0.81566 0.0
C190 C 0.89631 0.17282 0.76868 0.0
C191 C 0.93585 0.21175 0.72467 0.0
H192 H 0.95578 0.21394 0.7191 0.0
H193 H 0.92411 0.20412 0.69101 0.0
H194 H 0.93864 0.23174 0.73306 0.0
O195 O 0.95863 0.2453 0.88032 0.0
O196 O 0.92954 0.21477 0.93063 0.0
H197 H 0.86555 0.15253 0.8733 0.0
H198 H 0.85069 0.13734 0.81621 0.0
C199 C 0.86824 0.14361 0.8399 0.0
H200 H 0.86957 0.12581 0.85025 0.0
H201 H 0.88519 0.17492 0.98 0.0
O202 O 0.98869 0.2488 0.78184 0.0
C203 C 0.94344 0.23893 0.91694 0.0
Co204 Co 0.89736 0.6057 0.49774 0.0
Co205 Co 0.84828 0.59275 0.43104 0.0
C206 C 0.86742 0.55438 0.43915 0.0
O207 O 0.88526 0.5706 0.46786 0.0
O208 O 0.85017 0.55943 0.4212 0.0
C209 C 0.91935 0.59612 0.58403 0.0
O210 O 0.89448 0.58 0.5964 0.0
C211 C 0.79717 0.57369 0.37469 0.0
C212 C 0.8033 0.61307 0.35292 0.0
C213 C 0.78617 0.58599 0.34735 0.0
N214 N 0.81988 0.59283 0.39515 0.0
N215 N 0.82313 0.61622 0.38211 0.0
C216 C 0.78723 0.54445 0.37849 0.0
H217 H 0.80355 0.54066 0.38824 0.0
H218 H 0.77185 0.53597 0.40709 0.0
H219 H 0.77796 0.53427 0.34406 0.0
C220 C 0.86839 0.62169 0.56412 0.0
N221 N 0.8691 0.60879 0.52427 0.0
N222 N 0.84787 0.60227 0.49773 0.0
C223 C 0.83249 0.61015 0.52102 0.0
C224 C 0.84508 0.62297 0.56378 0.0
C225 C 0.89191 0.63702 0.59651 0.0
H226 H 0.91064 0.64239 0.57716 0.0
H227 H 0.89019 0.6245 0.62805 0.0
H228 H 0.89286 0.65556 0.60978 0.0
O229 O 0.91501 0.6336 0.449 0.0
O230 O 0.88062 0.62199 0.39992 0.0
H231 H 0.81144 0.62331 0.47597 0.0
H232 H 0.79425 0.6073 0.53077 0.0
C233 C 0.80698 0.60683 0.50137 0.0
H234 H 0.79609 0.58768 0.48157 0.0
H235 H 0.83938 0.63447 0.39222 0.0
O236 O 0.92448 0.60953 0.54537 0.0
C237 C 0.90513 0.63678 0.4104 0.0
Co238 Co 0.40388 0.29139 0.5083 0.0
Co239 Co 0.41368 0.25245 0.44314 0.0
C240 C 0.45369 0.31002 0.44816 0.0
O241 O 0.43876 0.31314 0.47769 0.0
O242 O 0.44703 0.28718 0.43069 0.0
C243 C 0.42198 0.33228 0.57843 0.0
O244 O 0.44481 0.33381 0.56819 0.0
C245 C 0.43587 0.22316 0.39018 0.0
C246 C 0.3986 0.18775 0.36644 0.0
C247 C 0.42603 0.20008 0.36261 0.0
N248 N 0.41506 0.22431 0.40925 0.0
N249 N 0.39292 0.20293 0.3952 0.0
C250 C 0.46408 0.24528 0.39377 0.0
H251 H 0.46835 0.25307 0.43119 0.0
H252 H 0.47828 0.23867 0.38288 0.0
H253 H 0.46685 0.26179 0.36975 0.0
C254 C 0.38796 0.24777 0.5771 0.0
N255 N 0.40025 0.26 0.53598 0.0
N256 N 0.40522 0.24392 0.51007 0.0
C257 C 0.39648 0.2209 0.53462 0.0
C258 C 0.38499 0.22241 0.57781 0.0
C259 C 0.37513 0.25854 0.61016 0.0
H260 H 0.36557 0.26763 0.58868 0.0
H261 H 0.3907 0.2744 0.63298 0.0
H262 H 0.35991 0.24292 0.63366 0.0
O263 O 0.37619 0.28195 0.45856 0.0
O264 O 0.38351 0.25446 0.4134 0.0
H265 H 0.38021 0.18605 0.49046 0.0
H266 H 0.39558 0.18353 0.54515 0.0
C267 C 0.39717 0.19709 0.51547 0.0
H268 H 0.41594 0.20352 0.49538 0.0
H269 H 0.37385 0.19922 0.40379 0.0
O270 O 0.40088 0.31457 0.55794 0.0
C271 C 0.37062 0.26651 0.42236 0.0
Co272 Co 0.72105 0.11087 0.50617 0.0
Co273 Co 0.75929 0.15684 0.43583 0.0
C274 C 0.70274 0.14264 0.44678 0.0
O275 O 0.69939 0.12478 0.47717 0.0
O276 O 0.7254 0.15765 0.42763 0.0
C277 C 0.67462 0.07278 0.55605 0.0
O278 O 0.66271 0.07541 0.51791 0.0
C279 C 0.78969 0.20715 0.38012 0.0
C280 C 0.82269 0.20197 0.35306 0.0
C281 C 0.81213 0.21876 0.35075 0.0
N282 N 0.78728 0.18455 0.39878 0.0
N283 N 0.80718 0.18175 0.38263 0.0
C284 C 0.76916 0.21538 0.38606 0.0
H285 H 0.76386 0.21438 0.42471 0.0
H286 H 0.77605 0.23569 0.37192 0.0
H287 H 0.75089 0.20111 0.3663 0.0
C288 C 0.76518 0.14062 0.57323 0.0
N289 N 0.75337 0.13853 0.53052 0.0
N290 N 0.76986 0.15782 0.50185 0.0
C291 C 0.79305 0.17274 0.52564 0.0
C292 C 0.79091 0.16213 0.57165 0.0
C293 C 0.75207 0.12177 0.61428 0.0
H294 H 0.73208 0.1193 0.62058 0.0
H295 H 0.76383 0.12907 0.64799 0.0
H296 H 0.74948 0.10198 0.6048 0.0
O297 O 0.72791 0.09054 0.45635 0.0
O298 O 0.75293 0.12316 0.4054 0.0
H299 H 0.83362 0.20583 0.52906 0.0
H300 H 0.81283 0.20813 0.48283 0.0
C301 C 0.81766 0.1944 0.50248 0.0
H302 H 0.82517 0.18536 0.47604 0.0
H303 H 0.8097 0.16553 0.39065 0.0
O304 O 0.69987 0.08596 0.55847 0.0
C305 C 0.74066 0.09859 0.41689 0.0
Co306 Co 0.45012 0.06743 0.1821 0.0
Co307 Co 0.50281 0.07871 0.23334 0.0
C308 C 0.48401 0.11802 0.23813 0.0
O309 O 0.46426 0.10264 0.21199 0.0
O310 O 0.50153 0.11185 0.24963 0.0
C311 C 0.42398 0.07871 0.1077 0.0
O312 O 0.44848 0.09624 0.09548 0.0
C313 C 0.55869 0.10421 0.26647 0.0
C314 C 0.55966 0.06958 0.29759 0.0
C315 C 0.57471 0.09692 0.29171 0.0
N316 N 0.53514 0.08211 0.25797 0.0
N317 N 0.53603 0.06147 0.27613 0.0
C318 C 0.56458 0.13183 0.25492 0.0
H319 H 0.55416 0.13173 0.22129 0.0
H320 H 0.58631 0.14555 0.25117 0.0
H321 H 0.55712 0.13917 0.28467 0.0
C322 C 0.47384 0.05278 0.10202 0.0
N323 N 0.47572 0.06409 0.14536 0.0
N324 N 0.49832 0.06944 0.16601 0.0
C325 C 0.5117 0.06194 0.13585 0.0
C326 C 0.49664 0.05119 0.09419 0.0
C327 C 0.44884 0.03956 0.07256 0.0
H328 H 0.43115 0.03203 0.09619 0.0
H329 H 0.44879 0.05429 0.04708 0.0
H330 H 0.44749 0.02267 0.05137 0.0
O331 O 0.43646 0.04039 0.23313 0.0
O332 O 0.47378 0.04887 0.27044 0.0
H333 H 0.53374 0.04737 0.17423 0.0
H334 H 0.54714 0.06087 0.11554 0.0
C335 C 0.5375 0.06337 0.1481 0.0
H336 H 0.55109 0.08282 0.16524 0.0
H337 H 0.5201 0.04195 0.27554 0.0
O338 O 0.41991 0.06325 0.14305 0.0
C339 C 0.44851 0.03553 0.26649 0.0
Co340 Co 0.93865 0.37841 0.15212 0.0
Co341 Co 0.93345 0.41799 0.22296 0.0
C342 C 0.89442 0.35978 0.22556 0.0
O343 O 0.90723 0.35604 0.19229 0.0
O344 O 0.90159 0.38318 0.2406 0.0
C345 C 0.91752 0.33475 0.087 0.0
O346 O 0.89492 0.33122 0.10441 0.0
C347 C 0.91069 0.44963 0.26311 0.0
C348 C 0.94205 0.47564 0.31453 0.0
C349 C 0.91688 0.469 0.29823 0.0
N350 N 0.93126 0.44508 0.25905 0.0
N351 N 0.94999 0.46087 0.28968 0.0
C352 C 0.88501 0.43432 0.23637 0.0
H353 H 0.88348 0.41622 0.21958 0.0
H354 H 0.88413 0.44705 0.20739 0.0
H355 H 0.86796 0.4288 0.26099 0.0
C356 C 0.94691 0.41947 0.08227 0.0
N357 N 0.93853 0.4084 0.12598 0.0
N358 N 0.93753 0.42579 0.15525 0.0
C359 C 0.94581 0.44882 0.13095 0.0
C360 C 0.95196 0.44557 0.08379 0.0
C361 C 0.95479 0.40692 0.04322 0.0
H362 H 0.97008 0.40247 0.0573 0.0
H363 H 0.93721 0.38775 0.03247 0.0
H364 H 0.96283 0.41992 0.01113 0.0
O365 O 0.97076 0.39089 0.19271 0.0
O366 O 0.96537 0.41666 0.24597 0.0
H367 H 0.96558 0.47949 0.18364 0.0
H368 H 0.95842 0.4909 0.12774 0.0
C369 C 0.95091 0.4743 0.15406 0.0
H370 H 0.93218 0.47149 0.17004 0.0
H371 H 0.96789 0.46099 0.29466 0.0
O372 O 0.93925 0.35467 0.101 0.0
C373 C 0.97826 0.4057 0.23003 0.0
Co374 Co 0.6231 0.56137 0.16803 0.0
Co375 Co 0.5864 0.51241 0.23403 0.0
C376 C 0.64427 0.53171 0.22752 0.0
O377 O 0.64685 0.55008 0.19905 0.0
O378 O 0.62143 0.51438 0.24295 0.0
C379 C 0.66632 0.59182 0.103 0.0
O380 O 0.67597 0.57761 0.12183 0.0
C381 C 0.55622 0.45713 0.27131 0.0
C382 C 0.53028 0.46131 0.32466 0.0
C383 C 0.53731 0.44336 0.3066 0.0
N384 N 0.56022 0.48212 0.26885 0.0
N385 N 0.54444 0.48433 0.30057 0.0
C386 C 0.57156 0.44734 0.24293 0.0
H387 H 0.57958 0.43786 0.26736 0.0
H388 H 0.58797 0.46387 0.22271 0.0
H389 H 0.55805 0.43201 0.21687 0.0
C390 C 0.57889 0.53236 0.10065 0.0
N391 N 0.59181 0.53284 0.14131 0.0
N392 N 0.57623 0.51214 0.16819 0.0
C393 C 0.55279 0.49762 0.14503 0.0
C394 C 0.55357 0.50998 0.1014 0.0
C395 C 0.58897 0.55554 0.0668 0.0
H396 H 0.59592 0.57418 0.08777 0.0
H397 H 0.60628 0.55723 0.04667 0.0
H398 H 0.5736 0.55368 0.04089 0.0
O399 O 0.61284 0.57882 0.21809 0.0
O400 O 0.58918 0.5444 0.26678 0.0
H401 H 0.52164 0.47988 0.19718 0.0
H402 H 0.51331 0.46312 0.13931 0.0
C403 C 0.52938 0.47364 0.16624 0.0
H404 H 0.53575 0.45971 0.17983 0.0
H405 H 0.54393 0.50185 0.30684 0.0
O406 O 0.64385 0.58808 0.11717 0.0
C407 C 0.59961 0.5691 0.25668 0.0
Co408 Co 0.5637 0.93776 0.82935 0.0
Co409 Co 0.51242 0.92736 0.77251 0.0
C410 C 0.52952 0.88688 0.77252 0.0
O411 O 0.54904 0.90231 0.7992 0.0
O412 O 0.51235 0.89326 0.75939 0.0
C413 C 0.58301 0.92513 0.91249 0.0
O414 O 0.55738 0.90923 0.91928 0.0
C415 C 0.45998 0.90677 0.72352 0.0
C416 C 0.4616 0.94483 0.70648 0.0
C417 C 0.44639 0.91755 0.6999 0.0
N418 N 0.48224 0.92689 0.74318 0.0
N419 N 0.48282 0.9495 0.73324 0.0
C420 C 0.45362 0.87837 0.72285 0.0
H421 H 0.45779 0.87283 0.75875 0.0
H422 H 0.43255 0.86476 0.71275 0.0
H423 H 0.46667 0.87618 0.69621 0.0
C424 C 0.53887 0.95459 0.90405 0.0
N425 N 0.53767 0.94273 0.86161 0.0
N426 N 0.51538 0.93706 0.83937 0.0
C427 C 0.5014 0.94464 0.86787 0.0
C428 C 0.51581 0.9559 0.90989 0.0
C429 C 0.56343 0.96862 0.93449 0.0
H430 H 0.58148 0.97478 0.91238 0.0
H431 H 0.56258 0.95501 0.96342 0.0
H432 H 0.56485 0.98656 0.95184 0.0
O433 O 0.58033 0.96471 0.77804 0.0
O434 O 0.5437 0.95602 0.73778 0.0
H435 H 0.47933 0.9599 0.83172 0.0
H436 H 0.46425 0.94237 0.88669 0.0
C437 C 0.47545 0.94249 0.85419 0.0
H438 H 0.46331 0.92406 0.83298 0.0
H439 H 0.49836 0.96827 0.74304 0.0
O440 O 0.59089 0.94002 0.87548 0.0
C441 C 0.56893 0.9691 0.7428 0.0
Co442 Co 0.06478 0.62932 0.84787 0.0
Co443 Co 0.0737 0.59233 0.77684 0.0
C444 C 0.10889 0.65057 0.7732 0.0
O445 O 0.09426 0.65262 0.80492 0.0
O446 O 0.10514 0.62786 0.76023 0.0
C447 C 0.08608 0.67264 0.91283 0.0
O448 O 0.10842 0.67614 0.89414 0.0
C449 C 0.09739 0.5614 0.73697 0.0
C450 C 0.06673 0.53579 0.68413 0.0
C451 C 0.09164 0.54227 0.70161 0.0
N452 N 0.0768 0.56596 0.74012 0.0
N453 N 0.05851 0.55044 0.70859 0.0
C454 C 0.12274 0.57649 0.76476 0.0
H455 H 0.14007 0.58271 0.74051 0.0
H456 H 0.12379 0.59416 0.78255 0.0
H457 H 0.12362 0.56336 0.79289 0.0
C458 C 0.05935 0.58931 0.91727 0.0
N459 N 0.06748 0.60068 0.87372 0.0
N460 N 0.06958 0.58398 0.84432 0.0
C461 C 0.06219 0.56103 0.86835 0.0
C462 C 0.05559 0.56369 0.91552 0.0
C463 C 0.05025 0.60083 0.95624 0.0
H464 H 0.03445 0.60442 0.94184 0.0
H465 H 0.06717 0.62033 0.96759 0.0
H466 H 0.04244 0.58755 0.98803 0.0
O467 O 0.03201 0.61486 0.80926 0.0
O468 O 0.04104 0.59265 0.75369 0.0
H469 H 0.04395 0.53083 0.81431 0.0
H470 H 0.05023 0.51908 0.87067 0.0
C471 C 0.05802 0.53595 0.84489 0.0
H472 H 0.07721 0.53926 0.83027 0.0
H473 H 0.04065 0.55032 0.7029 0.0
O474 O 0.06415 0.65279 0.89937 0.0
C475 C 0.02624 0.6013 0.7705 0.0
Co476 Co 0.37589 0.44302 0.83483 0.0
Co477 Co 0.41558 0.48632 0.76264 0.0
C478 C 0.35912 0.47387 0.76987 0.0
O479 O 0.355 0.45723 0.80326 0.0
O480 O 0.38201 0.48721 0.75064 0.0
C481 C 0.34897 0.42907 0.92623 0.0
O482 O 0.36124 0.45494 0.93351 0.0
C483 C 0.4463 0.53584 0.70537 0.0
C484 C 0.47924 0.53036 0.67912 0.0
C485 C 0.46886 0.54731 0.6763 0.0
N486 N 0.44367 0.51322 0.72439 0.0
N487 N 0.4635 0.5102 0.70864 0.0
C488 C 0.4259 0.54429 0.71101 0.0
H489 H 0.40743 0.52972 0.69215 0.0
H490 H 0.421 0.54398 0.74973 0.0
H491 H 0.43255 0.56428 0.69565 0.0
C492 C 0.42324 0.47012 0.89804 0.0
N493 N 0.40971 0.4696 0.85811 0.0
N494 N 0.42573 0.48902 0.82913 0.0
C495 C 0.44973 0.5031 0.85069 0.0
C496 C 0.44906 0.49152 0.89507 0.0
C497 C 0.41354 0.44754 0.93321 0.0
H498 H 0.39843 0.42867 0.91622 0.0
H499 H 0.40456 0.45191 0.96469 0.0
H500 H 0.43017 0.44492 0.9464 0.0
O501 O 0.38104 0.42059 0.78753 0.0
O502 O 0.41013 0.45157 0.73777 0.0
H503 H 0.48292 0.51838 0.80279 0.0
H504 H 0.48819 0.53874 0.85538 0.0
C505 C 0.47339 0.52607 0.82778 0.0
H506 H 0.46708 0.5383 0.80691 0.0
H507 H 0.46594 0.49399 0.71722 0.0
O508 O 0.35288 0.41994 0.88735 0.0
C509 C 0.39589 0.42724 0.75042 0.0
Co510 Co 0.10778 0.404 0.50408 0.0
Co511 Co 0.15353 0.41218 0.57514 0.0
C512 C 0.13818 0.45389 0.5642 0.0
O513 O 0.12132 0.43957 0.53236 0.0
O514 O 0.15272 0.44617 0.58517 0.0
C515 C 0.08695 0.41337 0.41497 0.0
O516 O 0.11179 0.42823 0.40122 0.0
C517 C 0.20448 0.43283 0.62981 0.0
C518 C 0.19912 0.39505 0.65958 0.0
C519 C 0.21622 0.42235 0.65986 0.0
N520 N 0.18148 0.41251 0.61278 0.0
N521 N 0.17859 0.39004 0.63054 0.0
C522 C 0.21329 0.46154 0.62108 0.0
H523 H 0.21165 0.46473 0.5821 0.0
H524 H 0.23392 0.47486 0.63373 0.0
H525 H 0.19976 0.4667 0.64058 0.0
C526 C 0.13635 0.38554 0.44062 0.0
N527 N 0.13529 0.3985 0.48018 0.0
N528 N 0.15541 0.40347 0.50879 0.0
C529 C 0.17031 0.39442 0.48745 0.0
C530 C 0.15865 0.38253 0.44364 0.0
C531 C 0.11387 0.37188 0.4055 0.0
H532 H 0.11756 0.38519 0.37421 0.0
H533 H 0.11224 0.35306 0.39211 0.0
H534 H 0.09479 0.36733 0.42257 0.0
O535 O 0.08767 0.37711 0.55355 0.0
O536 O 0.12022 0.38242 0.60272 0.0
H537 H 0.18773 0.37907 0.53653 0.0
H538 H 0.20693 0.39334 0.48253 0.0
C539 C 0.19426 0.3955 0.51007 0.0
H540 H 0.20609 0.41471 0.52928 0.0
H541 H 0.16219 0.37127 0.62373 0.0
O542 O 0.08172 0.40107 0.4549 0.0
C543 C 0.09569 0.37061 0.59107 0.0
Co544 Co 0.60512 0.70953 0.50339 0.0
Co545 Co 0.59515 0.74761 0.57024 0.0
C546 C 0.55467 0.69071 0.56311 0.0
O547 O 0.56996 0.68761 0.53425 0.0
O548 O 0.56103 0.71368 0.57953 0.0
C549 C 0.59392 0.68136 0.41397 0.0
O550 O 0.5798 0.69298 0.40559 0.0
C551 C 0.57447 0.77783 0.62523 0.0
C552 C 0.61242 0.81255 0.6485 0.0
C553 C 0.58507 0.80101 0.65277 0.0
N554 N 0.59478 0.77591 0.60575 0.0
N555 N 0.61733 0.79686 0.61961 0.0
C556 C 0.54596 0.75638 0.62168 0.0
H557 H 0.54307 0.73893 0.64302 0.0
H558 H 0.54104 0.74986 0.58363 0.0
H559 H 0.53231 0.76304 0.63559 0.0
C560 C 0.62351 0.75534 0.43756 0.0
N561 N 0.61035 0.74202 0.47744 0.0
N562 N 0.6047 0.75742 0.50391 0.0
C563 C 0.6132 0.78074 0.48047 0.0
C564 C 0.62559 0.78031 0.43766 0.0
C565 C 0.63846 0.74655 0.40539 0.0
H566 H 0.64288 0.7324 0.42448 0.0
H567 H 0.62625 0.73663 0.37305 0.0
H568 H 0.65748 0.76384 0.39322 0.0
O569 O 0.63258 0.71771 0.55256 0.0
O570 O 0.62342 0.74252 0.60165 0.0
H571 H 0.62741 0.81528 0.52506 0.0
H572 H 0.61146 0.81679 0.47035 0.0
C573 C 0.61072 0.80352 0.49989 0.0
H574 H 0.59174 0.79592 0.51986 0.0
H575 H 0.63615 0.80002 0.61048 0.0
O576 O 0.60695 0.68612 0.45307 0.0
C577 C 0.63669 0.731 0.59131 0.0
Co578 Co 0.29335 0.89599 0.49896 0.0
Co579 Co 0.25156 0.85434 0.57069 0.0
C580 C 0.30781 0.8664 0.5721 0.0
O581 O 0.3131 0.88323 0.53844 0.0
O582 O 0.28413 0.85244 0.58802 0.0
C583 C 0.34201 0.93058 0.44958 0.0
O584 O 0.35316 0.92948 0.49005 0.0
C585 C 0.21299 0.803 0.61748 0.0
C586 C 0.18776 0.81569 0.65562 0.0
C587 C 0.19091 0.79372 0.64793 0.0
N588 N 0.22201 0.82899 0.60808 0.0
N589 N 0.20684 0.83636 0.63116 0.0
C590 C 0.22471 0.78762 0.59539 0.0
H591 H 0.23764 0.79873 0.56447 0.0
H592 H 0.20869 0.76778 0.58313 0.0
H593 H 0.23704 0.78471 0.62262 0.0
C594 C 0.25106 0.86534 0.42948 0.0
N595 N 0.26151 0.86792 0.47375 0.0
N596 N 0.24335 0.85051 0.50309 0.0
C597 C 0.22045 0.83636 0.47809 0.0
C598 C 0.22462 0.84524 0.43049 0.0
C599 C 0.26495 0.88494 0.3897 0.0
H600 H 0.27168 0.90538 0.40314 0.0
H601 H 0.28285 0.88397 0.3787 0.0
H602 H 0.25201 0.88118 0.35787 0.0
O603 O 0.28509 0.91928 0.53861 0.0
O604 O 0.25776 0.88985 0.59221 0.0
H605 H 0.18865 0.82653 0.52757 0.0
H606 H 0.17862 0.80671 0.47294 0.0
C607 C 0.19458 0.81644 0.50033 0.0
H608 H 0.19713 0.80096 0.51904 0.0
H609 H 0.20949 0.85555 0.63015 0.0
O610 O 0.31681 0.91773 0.44587 0.0
C611 C 0.27069 0.9136 0.57616 0.0
H612 H 0.27766 0.23245 0.27223 0.0
H613 H 0.29114 0.31103 0.30562 0.0
H614 H 0.32545 0.31731 0.36411 0.0
H615 H 0.35216 0.30062 0.40454 0.0
H616 H 0.3404 0.22317 0.36644 0.0
H617 H 0.3048 0.21624 0.31104 0.0
C618 C 0.288 0.25089 0.29253 0.0
C619 C 0.28184 0.2712 0.2849 0.0
C620 C 0.30802 0.25456 0.32514 0.0
C621 C 0.29563 0.29514 0.31087 0.0
C622 C 0.31519 0.29871 0.34433 0.0
C623 C 0.34166 0.28218 0.38429 0.0
C624 C 0.34879 0.26239 0.38968 0.0
C625 C 0.32162 0.27858 0.35161 0.0
C626 C 0.33531 0.23873 0.36278 0.0
C627 C 0.31494 0.23473 0.33116 0.0
H628 H 0.73646 0.02691 0.24246 0.0
H629 H 0.736 0.97708 0.35811 0.0
H630 H 0.73631 0.00864 0.41748 0.0
H631 H 0.73744 0.05095 0.43608 0.0
H632 H 0.74232 0.10249 0.31956 0.0
H633 H 0.73973 0.06987 0.26086 0.0
C634 C 0.73622 0.02293 0.2807 0.0
C635 C 0.73589 0.9997 0.29615 0.0
C636 C 0.7374 0.04156 0.31434 0.0
C637 C 0.73618 0.9949 0.34563 0.0
C638 C 0.73637 0.01291 0.37946 0.0
C639 C 0.73792 0.05495 0.39782 0.0
C640 C 0.73998 0.07899 0.3821 0.0
C641 C 0.73711 0.03639 0.36421 0.0
C642 C 0.7409 0.08416 0.33249 0.0
C643 C 0.7393 0.06549 0.29891 0.0
H644 H 0.97025 0.71416 0.24128 0.0
H645 H 0.00826 0.76792 0.36019 0.0
H646 H 0.97967 0.7329 0.41715 0.0
H647 H 0.94436 0.68657 0.43272 0.0
H648 H 0.90392 0.63439 0.31294 0.0
H649 H 0.93299 0.6692 0.2564 0.0
C650 C 0.97217 0.71816 0.2797 0.0
C651 C 0.99133 0.74335 0.29681 0.0
C652 C 0.95533 0.69822 0.31186 0.0
C653 C 0.9935 0.74859 0.34644 0.0
C654 C 0.97728 0.72858 0.3789 0.0
C655 C 0.94204 0.68292 0.39421 0.0
C656 C 0.92237 0.65801 0.37677 0.0
C657 C 0.95825 0.70326 0.36199 0.0
C658 C 0.91904 0.65349 0.32694 0.0
C659 C 0.93563 0.67332 0.29471 0.0
H660 H 0.6824 0.73079 0.57126 0.0
H661 H 0.63572 0.73446 0.68884 0.0
H662 H 0.66787 0.73522 0.74675 0.0
H663 H 0.70938 0.73498 0.76394 0.0
H664 H 0.75824 0.73562 0.64643 0.0
H665 H 0.72513 0.7329 0.58835 0.0
C666 C 0.67931 0.73173 0.60958 0.0
C667 C 0.65671 0.73242 0.62586 0.0
C668 C 0.69822 0.73285 0.64257 0.0
C669 C 0.65306 0.73402 0.67551 0.0
C670 C 0.67136 0.73434 0.70861 0.0
C671 C 0.71261 0.73435 0.72559 0.0
C672 C 0.73594 0.7352 0.70927 0.0
C673 C 0.69398 0.73373 0.69256 0.0
C674 C 0.74032 0.73494 0.65961 0.0
C675 C 0.72143 0.73338 0.6265 0.0
H676 H 0.26721 0.01331 0.66072 0.0
H677 H 0.26339 0.97293 0.79347 0.0
H678 H 0.26349 0.93666 0.74869 0.0
H679 H 0.26532 0.9167 0.67206 0.0
H680 H 0.27352 0.95867 0.53926 0.0
H681 H 0.27112 0.99407 0.58352 0.0
C682 C 0.2663 0.99648 0.6796 0.0
C683 C 0.26515 0.99561 0.73014 0.0
C684 C 0.26723 0.97607 0.65364 0.0
C685 C 0.26438 0.97398 0.7545 0.0
C686 C 0.26438 0.95324 0.72896 0.0
C687 C 0.26646 0.93356 0.65284 0.0
C688 C 0.26937 0.93504 0.60257 0.0
C689 C 0.26589 0.95411 0.67858 0.0
C690 C 0.2713 0.95717 0.57806 0.0
C691 C 0.26988 0.97735 0.60331 0.0
H692 H 0.99994 0.28098 0.70932 0.0
H693 H 0.06162 0.26419 0.75259 0.0
H694 H 0.09379 0.30072 0.70265 0.0
H695 H 0.1047 0.33798 0.64795 0.0
H696 H 0.04278 0.35354 0.60104 0.0
H697 H 0.01043 0.31702 0.65125 0.0
C698 C 0.02041 0.28531 0.70768 0.0
C699 C 0.02841 0.27001 0.73479 0.0
C700 C 0.03879 0.30618 0.67846 0.0
C701 C 0.05492 0.27562 0.73195 0.0
C702 C 0.07338 0.29658 0.70358 0.0
C703 C 0.08414 0.33343 0.6489 0.0
C704 C 0.07616 0.34854 0.62126 0.0
C705 C 0.06558 0.31211 0.67698 0.0
C706 C 0.04938 0.34216 0.6221 0.0
C707 C 0.03089 0.32132 0.65079 0.0
H708 H 0.92044 0.58851 0.68051 0.0
H709 H 0.96754 0.60625 0.55124 0.0
H710 H 1.00393 0.60719 0.59709 0.0
H711 H 0.02283 0.60394 0.6741 0.0
H712 H 0.97792 0.59075 0.80486 0.0
H713 H 0.94012 0.5868 0.75848 0.0
C714 C 0.93868 0.59252 0.66253 0.0
C715 C 0.94134 0.59726 0.61266 0.0
C716 C 0.95983 0.59373 0.68936 0.0
C717 C 0.96513 0.60273 0.58971 0.0
C718 C 0.98589 0.60315 0.61583 0.0
C719 C 1.00462 0.5999 0.69227 0.0
C720 C 1.00291 0.59729 0.74257 0.0
C721 C 0.9835 0.59874 0.66564 0.0
C722 C 0.97953 0.59269 0.76602 0.0
C723 C 0.95799 0.59049 0.73956 0.0
H724 H 0.43708 0.43157 0.69759 0.0
H725 H 0.35618 0.37584 0.7383 0.0
H726 H 0.35687 0.34137 0.68826 0.0
H727 H 0.38043 0.32731 0.6319 0.0
H728 H 0.46234 0.3824 0.59602 0.0
H729 H 0.46136 0.41682 0.6453 0.0
C730 C 0.41961 0.41188 0.6954 0.0
C731 C 0.39656 0.40628 0.72118 0.0
C732 C 0.42035 0.39205 0.66751 0.0
C733 C 0.37417 0.38059 0.71874 0.0
C734 C 0.37453 0.36091 0.69008 0.0
C735 C 0.39803 0.34686 0.635 0.0
C736 C 0.42136 0.35239 0.61022 0.0
C737 C 0.39749 0.36644 0.66417 0.0
C738 C 0.44416 0.37765 0.61493 0.0
C739 C 0.4436 0.39738 0.64294 0.0
H740 H 0.62313 0.99882 0.73744 0.0
H741 H 0.55125 0.98407 0.66418 0.0
H742 H 0.57759 0.0149 0.60056 0.0
H743 H 0.62083 0.04516 0.56446 0.0
H744 H 0.69288 0.06024 0.63721 0.0
H745 H 0.6666 0.03015 0.70219 0.0
C746 C 0.6132 1.00243 0.70771 0.0
C747 C 0.5852 0.989 0.70567 0.0
C748 C 0.62847 0.02016 0.67096 0.0
C749 C 0.57274 0.99401 0.66678 0.0
C750 C 0.58779 0.01164 0.63024 0.0
C751 C 0.63083 0.04189 0.59449 0.0
C752 C 0.65878 0.05482 0.59577 0.0
C753 C 0.61564 0.02464 0.63175 0.0
C754 C 0.67138 0.05047 0.63519 0.0
C755 C 0.65637 0.03328 0.67241 0.0
H756 H 0.42081 0.08496 0.01201 0.0
H757 H 0.37655 0.06876 0.14436 0.0
H758 H 0.33898 0.06698 0.10079 0.0
H759 H 0.31856 0.06949 0.02463 0.0
H760 H 0.36098 0.08086 0.89134 0.0
H761 H 0.39954 0.0852 0.93543 0.0
C762 C 0.40293 0.08112 0.03114 0.0
C763 C 0.40134 0.07716 0.08111 0.0
C764 C 0.38117 0.07929 0.00568 0.0
C765 C 0.37804 0.07178 0.10572 0.0
C766 C 0.35664 0.07084 0.08091 0.0
C767 C 0.33636 0.07307 0.00548 0.0
C768 C 0.33722 0.07511 0.95512 0.0
C769 C 0.35797 0.07453 0.03088 0.0
C770 C 0.36005 0.07924 0.93026 0.0
C771 C 0.38204 0.08173 0.95539 0.0
H772 H 0.95717 0.34045 0.02723 0.0
H773 H 0.87815 0.28331 0.07555 0.0
H774 H 0.8792 0.24857 0.0274 0.0
H775 H 0.90306 0.23404 0.97343 0.0
H776 H 0.98119 0.29153 0.92187 0.0
H777 H 0.98 0.32647 0.96935 0.0
C778 C 0.94017 0.32041 0.02703 0.0
C779 C 0.9177 0.31443 0.05509 0.0
C780 C 0.94078 0.30056 0.99884 0.0
C781 C 0.89567 0.28846 0.05413 0.0
C782 C 0.89629 0.26853 0.02677 0.0
C783 C 0.91982 0.25422 0.97263 0.0
C784 C 0.94225 0.26015 0.94453 0.0
C785 C 0.91882 0.2743 0.99935 0.0
C786 C 0.96367 0.28646 0.94323 0.0
C787 C 0.96303 0.30645 0.97043 0.0
H788 H 0.71905 0.61452 0.08557 0.0
H789 H 0.64843 0.6153 0.03896 0.0
H790 H 0.67446 0.64912 0.97841 0.0
H791 H 0.71746 0.67856 0.93896 0.0
H792 H 0.78815 0.67884 0.98898 0.0
H793 H 0.76188 0.6445 0.04794 0.0
C794 C 0.70932 0.62201 0.06205 0.0
C795 C 0.68186 0.61235 0.06654 0.0
C796 C 0.72443 0.64167 0.02798 0.0
C797 C 0.66959 0.62249 0.03624 0.0
C798 C 0.68444 0.64177 1.00158 0.0
C799 C 0.72708 0.67103 0.96268 0.0
C800 C 0.75471 0.68121 0.95944 0.0
C801 C 0.71189 0.65152 0.99713 0.0
C802 C 0.76693 0.67145 0.9908 0.0
C803 C 0.75192 0.65176 0.02449 0.0
H804 H 0.63256 0.93311 0.89733 0.0
H805 H 0.57612 0.9208 0.00939 0.0
H806 H 0.60806 0.92431 0.07071 0.0
H807 H 0.65208 0.93068 0.09232 0.0
H808 H 0.70679 0.93862 0.97977 0.0
H809 H 0.67557 0.93696 0.91869 0.0
C810 C 0.62737 0.93127 0.93522 0.0
C811 C 0.60222 0.9269 0.94905 0.0
C812 C 0.64549 0.93247 0.97007 0.0
C813 C 0.59542 0.92411 0.99807 0.0
C814 C 0.61367 0.92618 0.03308 0.0
C815 C 0.65711 0.93211 0.0544 0.0
C816 C 0.68168 0.93496 0.04043 0.0
C817 C 0.63876 0.93033 0.01949 0.0
C818 C 0.68791 0.93636 0.99125 0.0
C819 C 0.67012 0.93548 0.95637 0.0
H820 H 0.04691 0.66683 0.97398 0.0
H821 H 0.12627 0.72352 0.92644 0.0
H822 H 0.12637 0.75773 0.97796 0.0
H823 H 0.10355 0.77193 0.035 0.0
H824 H 0.02499 0.71483 0.08543 0.0
H825 H 0.02497 0.68044 0.03438 0.0
C826 C 0.06423 0.68666 0.97502 0.0
C827 C 0.08646 0.69268 0.94625 0.0
C828 C 0.06429 0.7062 0.00513 0.0
C829 C 0.1089 0.71836 0.94834 0.0
C830 C 0.10896 0.73798 0.97765 0.0
C831 C 0.08643 0.75196 0.03477 0.0
C832 C 0.06424 0.74599 0.06365 0.0
C833 C 0.0867 0.73218 0.00591 0.0
C834 C 0.04234 0.71993 0.06353 0.0
C835 C 0.04228 0.70026 0.03428 0.0
H836 H 0.28585 0.35949 0.10581 0.0
H837 H 0.2351 0.30844 0.99233 0.0
H838 H 0.26412 0.34023 0.93186 0.0
H839 H 0.30442 0.38198 0.91104 0.0
H840 H 0.35353 0.43496 0.02377 0.0
H841 H 0.32467 0.40305 0.08487 0.0
C842 C 0.28118 0.35542 0.06783 0.0
C843 C 0.25852 0.33162 0.05348 0.0
C844 C 0.29765 0.37408 0.03322 0.0
C845 C 0.25242 0.32669 0.00423 0.0
C846 C 0.26903 0.34478 0.96963 0.0
C847 C 0.30875 0.38649 0.94903 0.0
C848 C 0.33109 0.41054 0.9631 0.0
C849 C 0.29177 0.36843 0.9837 0.0
C850 C 0.33635 0.41649 0.01228 0.0
C851 C 0.31993 0.39825 0.04712 0.0
H852 H 0.98454 0.4084 0.32642 0.0
H853 H 0.02382 0.40958 0.19394 0.0
H854 H 0.06185 0.4134 0.23938 0.0
H855 H 0.08337 0.41526 0.31742 0.0
H856 H 0.04147 0.40947 0.44924 0.0
H857 H 0.00502 0.40854 0.40365 0.0
C858 C 1.00156 0.40974 0.30758 0.0
C859 C 1.00161 0.409 0.25707 0.0
C860 C 0.02278 0.41092 0.33388 0.0
C861 C 0.02346 0.41017 0.23292 0.0
C862 C 0.04515 0.41234 0.25886 0.0
C863 C 0.06625 0.41386 0.33596 0.0
C864 C 0.06506 0.41249 0.38648 0.0
C865 C 0.04495 0.41255 0.30941 0.0
C866 C 0.0427 0.41037 0.41029 0.0
C867 C 0.02191 0.40994 0.38429 0.0
H868 H 0.59522 0.6362 0.43185 0.0
H869 H 0.59393 0.68526 0.31637 0.0
H870 H 0.59595 0.65498 0.25695 0.0
H871 H 0.59851 0.61465 0.23817 0.0
H872 H 0.59582 0.56371 0.35397 0.0
H873 H 0.59473 0.59446 0.41302 0.0
C874 C 0.59545 0.64022 0.39364 0.0
C875 C 0.59472 0.66295 0.37829 0.0
C876 C 0.59579 0.62235 0.35987 0.0
C877 C 0.5945 0.66781 0.32882 0.0
C878 C 0.5957 0.65056 0.29494 0.0
C879 C 0.59764 0.61032 0.27635 0.0
C880 C 0.59743 0.58709 0.29177 0.0
C881 C 0.5964 0.62778 0.31006 0.0
C882 C 0.59592 0.58145 0.34126 0.0
C883 C 0.59541 0.59906 0.37504 0.0
H884 H 0.39607 0.95898 0.44414 0.0
H885 H 0.32477 0.94016 0.36449 0.0
H886 H 0.35157 0.96992 0.29986 0.0
H887 H 0.39491 1.00273 0.26769 0.0
H888 H 0.46642 0.02194 0.34701 0.0
H889 H 0.43978 0.99034 0.40982 0.0
C890 C 0.38639 0.9613 0.41257 0.0
C891 C 0.35845 0.94753 0.4094 0.0
C892 C 0.40192 0.97851 0.37548 0.0
C893 C 0.34623 0.9506 0.36803 0.0
C894 C 0.36154 0.96763 0.33101 0.0
C895 C 0.40476 0.99995 0.29854 0.0
C896 C 0.43264 0.01489 0.30273 0.0
C897 C 0.38936 0.98191 0.33464 0.0
C898 C 0.44499 0.01081 0.34287 0.0
C899 C 0.42977 0.99278 0.3789 0.0
H900 H 0.1614 0.38247 0.34604 0.0
H901 H 0.16792 0.34271 0.47213 0.0
H902 H 0.17503 0.31229 0.42144 0.0
H903 H 0.17867 0.29639 0.3408 0.0
H904 H 0.17257 0.33641 0.21475 0.0
H905 H 0.16521 0.36669 0.26546 0.0
C906 C 0.16447 0.36717 0.36229 0.0
C907 C 0.16456 0.36512 0.41274 0.0
C908 C 0.16813 0.34947 0.33283 0.0
C909 C 0.16846 0.34518 0.43343 0.0
C910 C 0.17221 0.32756 0.40443 0.0
C911 C 0.17561 0.3117 0.3246 0.0
C912 C 0.17576 0.31392 0.27416 0.0
C913 C 0.17198 0.32943 0.35407 0.0
C914 C 0.17193 0.33391 0.25347 0.0
C915 C 0.16801 0.35142 0.28247 0.0
H916 H 0.62687 0.77947 0.3398 0.0
H917 H 0.66283 0.83134 0.4619 0.0
H918 H 0.6924 0.86751 0.40836 0.0
H919 H 0.70863 0.88432 0.3268 0.0
H920 H 0.67289 0.83275 0.20438 0.0
H921 H 0.64349 0.79624 0.25794 0.0
C922 C 0.64118 0.79873 0.35458 0.0
C923 C 0.64232 0.80281 0.40474 0.0
C924 C 0.65857 0.81931 0.32355 0.0
C925 C 0.66096 0.82785 0.42343 0.0
C926 C 0.67816 0.84846 0.39284 0.0
C927 C 0.69446 0.86503 0.31194 0.0
C928 C 0.69315 0.86114 0.26177 0.0
C929 C 0.67722 0.84438 0.34288 0.0
C930 C 0.67473 0.83607 0.24291 0.0
C931 C 0.65768 0.8153 0.27351 0.0
H932 H 0.15623 0.82619 0.2419 0.0
H933 H 0.11065 0.84572 0.33917 0.0
H934 H 0.14097 0.85116 0.40536 0.0
H935 H 0.18043 0.85002 0.43559 0.0
H936 H 0.22505 0.82878 0.33915 0.0
H937 H 0.19514 0.82403 0.27266 0.0
C938 C 0.15331 0.83205 0.27749 0.0
C939 C 0.1317 0.83611 0.28576 0.0
C940 C 0.17039 0.83437 0.31555 0.0
C941 C 0.1275 0.84296 0.33211 0.0
C942 C 0.14467 0.84585 0.36992 0.0
C943 C 0.18325 0.84392 0.40016 0.0
C944 C 0.20467 0.83949 0.39215 0.0
C945 C 0.16607 0.84139 0.36218 0.0
C946 C 0.20851 0.83208 0.346 0.0
C947 C 0.19155 0.82954 0.30801 0.0
H948 H 0.82419 0.70753 0.6701 0.0
H949 H 0.84189 0.67437 0.79416 0.0
H950 H 0.84798 0.64362 0.74232 0.0
H951 H 0.8474 0.62553 0.66152 0.0
H952 H 0.83029 0.65927 0.53754 0.0
H953 H 0.82375 0.68957 0.58945 0.0
C954 C 0.82949 0.69362 0.68566 0.0
C955 C 0.83299 0.6935 0.73576 0.0
C956 C 0.83245 0.67567 0.6557 0.0
C957 C 0.83976 0.67534 0.75559 0.0
C958 C 0.8429 0.65751 0.726 0.0
C959 C 0.84215 0.63948 0.64598 0.0
C960 C 0.83892 0.63982 0.59579 0.0
C961 C 0.83915 0.6574 0.67602 0.0
C962 C 0.83215 0.65801 0.57609 0.0
C963 C 0.82879 0.67565 0.60574 0.0
H964 H 0.29645 0.12108 0.68721 0.0
H965 H 0.33843 0.16901 0.81047 0.0
H966 H 0.36952 0.20467 0.7575 0.0
H967 H 0.38564 0.22189 0.67567 0.0
H968 H 0.34392 0.17361 0.55261 0.0
H969 H 0.3126 0.13813 0.60563 0.0
C970 C 0.31235 0.13941 0.70237 0.0
C971 C 0.31481 0.14256 0.75268 0.0
C972 C 0.33061 0.15955 0.67166 0.0
C973 C 0.33557 0.16635 0.77191 0.0
C974 C 0.35362 0.18662 0.74161 0.0
C975 C 0.36973 0.2035 0.66064 0.0
C976 C 0.36731 0.20021 0.61036 0.0
C977 C 0.35146 0.18337 0.69142 0.0
C978 C 0.3466 0.17638 0.59118 0.0
C979 C 0.32847 0.15622 0.6215 0.0
H980 H 0.80548 0.12861 0.61135 0.0
H981 H 0.82366 0.21044 0.61316 0.0
H982 H 0.85805 0.22103 0.67435 0.0
H983 H 0.88233 0.20665 0.72833 0.0
H984 H 0.86292 0.12447 0.72874 0.0
H985 H 0.82896 0.11402 0.66663 0.0
C986 C 0.81691 0.14873 0.62539 0.0
C987 C 0.81222 0.1688 0.6077 0.0
C988 C 0.83616 0.15444 0.6612 0.0
C989 C 0.82725 0.19481 0.62578 0.0
C990 C 0.84673 0.20078 0.66097 0.0
C991 C 0.87069 0.1865 0.71456 0.0
C992 C 0.87513 0.16633 0.73256 0.0
C993 C 0.85129 0.18074 0.67902 0.0
C994 C 0.85973 0.14022 0.71525 0.0
C995 C 0.84045 0.13431 0.6797 0.0
H996 H 0.50696 0.01034 0.10087 0.0
H997 H 0.49443 0.05879 0.99824 0.0
H998 H 0.4975 0.0326 0.93172 0.0
H999 H 0.50417 0.99595 0.90273 0.0
H1000 H 0.51684 0.94771 0.00564 0.0
H1001 H 0.51323 0.97356 0.07203 0.0
C1002 C 0.50534 0.01537 0.06387 0.0
C1003 C 0.50087 0.03665 0.05427 0.0
C1004 C 0.50682 1.00002 0.02594 0.0
C1005 C 0.49811 0.04259 0.00631 0.0
C1006 C 0.49973 0.02756 0.96835 0.0
C1007 C 0.50564 0.99087 0.93975 0.0
C1008 C 0.51048 0.96983 0.94946 0.0
C1009 C 0.50395 0.00612 0.97771 0.0
C1010 C 0.51298 0.96377 0.99748 0.0
C1011 C 0.51105 0.97862 0.03537 0.0
H1012 H 0.0062 0.5209 0.90478 0.0
H1013 H 0.07049 0.55987 0.00641 0.0
H1014 H 0.04373 0.52736 0.06853 0.0
H1015 H 1.00167 0.48796 0.09402 0.0
H1016 H 0.93732 0.44906 0.99247 0.0
H1017 H 0.9642 0.48139 0.93018 0.0
C1018 C 0.01439 0.52192 0.94037 0.0
C1019 C 0.04034 0.54237 0.95107 0.0
C1020 C 0.99872 0.50342 0.97596 0.0
C1021 C 0.05066 0.544 0.99745 0.0
C1022 C 0.03531 0.52556 0.03294 0.0
C1023 C 0.99351 0.48688 0.05838 0.0
C1024 C 0.96751 0.46652 0.04777 0.0
C1025 C 0.00923 0.5053 0.02273 0.0
C1026 C 0.95722 0.46483 1.00134 0.0
C1027 C 0.97263 0.48318 0.96576 0.0
H1028 H 0.45078 0.49451 0.99268 0.0
H1029 H 0.49769 0.49856 0.86922 0.0
H1030 H 0.53379 0.50389 0.92198 0.0
H1031 H 0.55184 0.5066 0.0037 0.0
H1032 H 0.50504 0.50283 0.12709 0.0
H1033 H 0.46883 0.49728 0.0743 0.0
C1034 C 0.46897 0.49666 0.97744 0.0
C1035 C 0.4717 0.49657 0.9271 0.0
C1036 C 0.48948 0.49924 0.00809 0.0
C1037 C 0.49533 0.49928 0.90776 0.0
C1038 C 0.51587 0.50199 0.93796 0.0
C1039 C 0.53363 0.50445 0.01888 0.0
C1040 C 0.53097 0.50478 0.06919 0.0
C1041 C 0.51313 0.50187 0.9882 0.0
C1042 C 0.50735 0.50207 0.08852 0.0
C1043 C 0.48675 0.4992 0.05832 0.0
H1044 H 0.24235 0.21369 0.14697 0.0
H1045 H 0.1807 0.19694 0.04269 0.0
H1046 H 0.19198 0.16706 0.99952 0.0
H1047 H 0.22301 0.15003 0.98619 0.0
H1048 H 0.28474 0.16758 0.09082 0.0
H1049 H 0.26999 0.19311 0.13843 0.0
C1050 C 0.23103 0.2032 0.11524 0.0
C1051 C 0.21088 0.20785 0.09795 0.0
C1052 C 0.23794 0.18648 0.09009 0.0
C1053 C 0.19634 0.19383 0.05692 0.0
C1054 C 0.20293 0.17686 0.03194 0.0
C1055 C 0.23276 0.15873 0.02003 0.0
C1056 C 0.25495 0.15672 0.03483 0.0
C1057 C 0.22422 0.17362 0.04741 0.0
C1058 C 0.26775 0.16893 0.07826 0.0
C1059 C 0.25929 0.18351 0.10569 0.0
H1060 H 0.86071 0.09926 0.07497 0.0
H1061 H 0.85769 0.06778 0.93288 0.0
H1062 H 0.83257 0.02235 0.96412 0.0
H1063 H 0.80665 0.99168 0.03017 0.0
H1064 H 0.80782 0.0239 0.1709 0.0
H1065 H 0.83873 0.06874 0.14217 0.0
C1066 C 0.85482 0.08244 0.05093 0.0
C1067 C 0.8612 0.08696 1.00171 0.0
C1068 C 0.83995 0.05641 0.069 0.0
C1069 C 0.85355 0.06497 0.97105 0.0
C1070 C 0.83892 0.03892 0.98888 0.0
C1071 C 0.81431 0.00844 0.05484 0.0
C1072 C 0.80491 0.00448 0.1026 0.0
C1073 C 0.83145 0.03439 0.0376 0.0
C1074 C 0.81472 0.02644 0.13398 0.0
C1075 C 0.83226 0.05212 0.11749 0.0
H1076 H 0.01796 0.82061 0.02008 0.0
H1077 H 0.98454 0.80846 0.16282 0.0
H1078 H 0.94109 0.7961 0.12903 0.0
H1079 H 0.91119 0.78104 0.05939 0.0
H1080 H 0.94335 0.79138 0.91624 0.0
H1081 H 0.98863 0.81233 0.94932 0.0
C1082 C 1.00138 0.81621 0.0437 0.0
C1083 C 1.00439 0.81522 0.09388 0.0
C1084 C 0.97608 0.80823 0.02386 0.0
C1085 C 0.98266 0.80921 0.1241 0.0
C1086 C 0.95775 0.80193 0.10479 0.0
C1087 C 0.92822 0.78849 0.03548 0.0
C1088 C 0.92409 0.78468 0.98562 0.0
C1089 C 0.95398 0.80012 0.05481 0.0
C1090 C 0.94616 0.79439 0.95477 0.0
C1091 C 0.972 0.80615 0.97374 0.0
H1092 H 0.76576 0.86213 0.93039 0.0
H1093 H 0.79394 0.8579 0.07196 0.0
H1094 H 0.81489 0.83356 0.03928 0.0
H1095 H 0.81965 0.80806 0.97209 0.0
H1096 H 0.78903 0.81074 0.83181 0.0
H1097 H 0.77507 0.84143 0.86199 0.0
C1098 C 0.77684 0.85622 0.95396 0.0
C1099 C 0.7783 0.86183 0.00348 0.0
C1100 C 0.78835 0.84183 0.93506 0.0
C1101 C 0.79285 0.85423 0.0336 0.0
C1102 C 0.80463 0.84006 0.01494 0.0
C1103 C 0.81068 0.81605 0.94786 0.0
C1104 C 0.80526 0.80704 0.89983 0.0
C1105 C 0.80186 0.83308 0.96593 0.0
C1106 C 0.79331 0.81729 0.86896 0.0
C1107 C 0.78517 0.83471 0.88626 0.0
H1108 H 0.20637 0.97989 0.88315 0.0
H1109 H 0.20358 0.02773 0.99985 0.0
H1110 H 0.17291 0.98726 0.04385 0.0
H1111 H 0.15161 0.9382 0.05346 0.0
H1112 H 0.15643 0.89134 0.93723 0.0
H1113 H 0.18177 0.93148 0.88903 0.0
C1114 C 0.19876 0.98158 0.91788 0.0
C1115 C 0.20759 0.00689 0.93832 0.0
C1116 C 0.18173 0.95831 0.94342 0.0
C1117 C 0.19722 0.00855 0.98319 0.0
C1118 C 0.17981 0.98538 0.00858 0.0
C1119 C 0.15756 0.93679 0.01705 0.0
C1120 C 0.152 0.91185 0.9987 0.0
C1121 C 0.17259 0.96013 0.98971 0.0
C1122 C 0.1605 0.91034 0.95205 0.0
C1123 C 0.17498 0.93327 0.92448 0.0
H1124 H 0.1004 0.22889 0.94931 0.0
H1125 H 0.07052 0.22088 0.09388 0.0
H1126 H 0.02475 0.19951 0.06316 0.0
H1127 H 0.99434 0.19007 0.9938 0.0
H1128 H 0.02541 0.19972 0.84954 0.0
H1129 H 0.06943 0.21279 0.88131 0.0
C1130 C 0.08376 0.22188 0.97406 0.0
C1131 C 0.08863 0.22644 0.02358 0.0
C1132 C 0.05773 0.21001 0.95607 0.0
C1133 C 0.0671 0.21728 0.05557 0.0
C1134 C 0.04099 0.20527 0.03795 0.0
C1135 C 0.01056 0.19412 0.96947 0.0
C1136 C 0.00676 0.19428 0.91942 0.0
C1137 C 0.03614 0.20241 0.98809 0.0
C1138 C 0.02797 0.19977 0.8882 0.0
C1139 C 0.05318 0.20739 0.90633 0.0
H1140 H 0.85727 0.53204 0.34931 0.0
H1141 H 0.88449 0.52627 0.49104 0.0
H1142 H 0.90004 0.49701 0.46011 0.0
H1143 H 0.91154 0.47832 0.39133 0.0
H1144 H 0.88618 0.48498 0.24867 0.0
H1145 H 0.86415 0.50836 0.28118 0.0
C1146 C 0.86582 0.52366 0.37359 0.0
C1147 C 0.86982 0.53139 0.42237 0.0
C1148 C 0.87552 0.50739 0.35519 0.0
C1149 C 0.88128 0.52067 0.45334 0.0
C1150 C 0.89035 0.50409 0.43562 0.0
C1151 C 0.90086 0.48458 0.36746 0.0
C1152 C 0.90051 0.47996 0.31772 0.0
C1153 C 0.88855 0.49822 0.38635 0.0
C1154 C 0.88646 0.48797 0.28718 0.0
C1155 C 0.87402 0.50154 0.30576 0.0
H1156 H 0.53274 0.42863 0.39926 0.0
H1157 H 0.51842 0.39691 0.2551 0.0
H1158 H 0.49495 0.35139 0.28712 0.0
H1159 H 0.47279 0.32113 0.35622 0.0
H1160 H 0.48626 0.35402 0.49967 0.0
H1161 H 0.51624 0.39839 0.46815 0.0
C1162 C 0.52487 0.4117 0.37494 0.0
C1163 C 0.52717 0.41602 0.32502 0.0
C1164 C 0.51119 0.38576 0.3936 0.0
C1165 C 0.51713 0.39404 0.29373 0.0
C1166 C 0.50352 0.36802 0.31206 0.0
C1167 C 0.48304 0.3379 0.38059 0.0
C1168 C 0.47721 0.33439 0.43015 0.0
C1169 C 0.49969 0.36365 0.36194 0.0
C1170 C 0.49034 0.3563 0.46136 0.0
C1171 C 0.50735 0.38171 0.44334 0.0
H1172 H 0.58541 0.10207 0.38626 0.0
H1173 H 0.62219 0.12913 0.24753 0.0
H1174 H 0.66646 0.15062 0.2852 0.0
H1175 H 0.69428 0.15552 0.35645 0.0
H1176 H 0.65649 0.12702 0.4945 0.0
H1177 H 0.6131 0.11305 0.45871 0.0
C1178 C 0.60317 0.11321 0.36456 0.0
C1179 C 0.60081 0.11402 0.31442 0.0
C1180 C 0.62833 0.12522 0.38642 0.0
C1181 C 0.62373 0.12845 0.28633 0.0
C1182 C 0.64897 0.14058 0.30785 0.0
C1183 C 0.67665 0.14711 0.37894 0.0
C1184 C 0.67857 0.14205 0.42798 0.0
C1185 C 0.65153 0.13833 0.35774 0.0
C1186 C 0.65551 0.13093 0.45661 0.0
C1187 C 0.63065 0.12275 0.43611 0.0
H1188 H 0.45734 0.14238 0.20734 0.0
H1189 H 0.50863 0.14432 0.32174 0.0
H1190 H 0.49764 0.17324 0.36926 0.0
H1191 H 0.46766 0.19186 0.38307 0.0
H1192 H 0.41497 0.18722 0.26907 0.0
H1193 H 0.43211 0.16537 0.21681 0.0
C1194 C 0.4666 0.14958 0.24227 0.0
C1195 C 0.48349 0.14089 0.2612 0.0
C1196 C 0.45952 0.16538 0.26985 0.0
C1197 C 0.49555 0.15069 0.30626 0.0
C1198 C 0.48903 0.167 0.33368 0.0
C1199 C 0.46058 0.18674 0.34631 0.0
C1200 C 0.44013 0.19115 0.32979 0.0
C1201 C 0.4702 0.17359 0.31662 0.0
C1202 C 0.43064 0.18391 0.28251 0.0
C1203 C 0.44043 0.17142 0.25263 0.0
H1204 H 0.82272 0.26929 0.37287 0.0
H1205 H 0.82543 0.22089 0.25731 0.0
H1206 H 0.84815 0.26009 0.2059 0.0
H1207 H 0.87118 0.30828 0.19659 0.0
H1208 H 0.87046 0.35778 0.3122 0.0
H1209 H 0.8423 0.31799 0.36013 0.0
C1210 C 0.82762 0.26731 0.33598 0.0
C1211 C 0.82225 0.24224 0.3187 0.0
C1212 C 0.84115 0.29013 0.30671 0.0
C1213 C 0.82938 0.24 0.27133 0.0
C1214 C 0.84237 0.26239 0.24192 0.0
C1215 C 0.86457 0.31046 0.23198 0.0
C1216 C 0.87323 0.33606 0.2509 0.0
C1217 C 0.84897 0.28762 0.25965 0.0
C1218 C 0.86416 0.33836 0.29668 0.0
C1219 C 0.8482 0.31559 0.32429 0.0
H1220 H 0.69547 0.56461 0.20045 0.0
H1221 H 0.6481 0.50291 0.30285 0.0
H1222 H 0.68841 0.51226 0.34695 0.0
H1223 H 0.73668 0.54211 0.36213 0.0
H1224 H 0.78281 0.60462 0.26024 0.0
H1225 H 0.74347 0.59086 0.21054 0.0
C1226 C 0.69387 0.55282 0.23191 0.0
C1227 C 0.66866 0.5333 0.24847 0.0
C1228 C 0.717 0.55873 0.25771 0.0
C1229 C 0.66719 0.51814 0.28921 0.0
C1230 C 0.69026 0.52361 0.31471 0.0
C1231 C 0.73821 0.55223 0.32845 0.0
C1232 C 0.76266 0.57441 0.31498 0.0
C1233 C 0.71523 0.54446 0.30018 0.0
C1234 C 0.76419 0.58764 0.27164 0.0
C1235 C 0.7417 0.57977 0.24311 0.0
H1236 H 0.54362 0.8096 0.63209 0.0
H1237 H 0.59764 0.81625 0.74514 0.0
H1238 H 0.58171 0.83978 0.79585 0.0
H1239 H 0.55685 0.86324 0.80412 0.0
H1240 H 0.50402 0.85898 0.69062 0.0
H1241 H 0.51421 0.82894 0.64491 0.0
C1242 C 0.55125 0.81551 0.66837 0.0
C1243 C 0.57171 0.81112 0.685 0.0
C1244 C 0.54229 0.82957 0.69718 0.0
C1245 C 0.58194 0.81947 0.73159 0.0
C1246 C 0.57284 0.83293 0.7606 0.0
C1247 C 0.5471 0.85534 0.7698 0.0
C1248 C 0.52996 0.86367 0.75061 0.0
C1249 C 0.55366 0.83881 0.7432 0.0
C1250 C 0.5173 0.85294 0.70633 0.0
C1251 C 0.52335 0.83596 0.67992 0.0
H1252 H 0.19989 0.75116 0.66514 0.0
H1253 H 0.14078 0.77558 0.67947 0.0
H1254 H 0.11119 0.7342 0.71986 0.0
H1255 H 0.10188 0.69168 0.75264 0.0
H1256 H 0.15792 0.66404 0.7341 0.0
H1257 H 0.18871 0.70592 0.69273 0.0
C1258 C 0.18037 0.74732 0.67575 0.0
C1259 C 0.17282 0.76683 0.6687 0.0
C1260 C 0.16288 0.72292 0.69856 0.0
C1261 C 0.14748 0.7613 0.68449 0.0
C1262 C 0.13037 0.73752 0.70764 0.0
C1263 C 0.1209 0.69481 0.73975 0.0
C1264 C 0.12787 0.67507 0.74714 0.0
C1265 C 0.13795 0.71837 0.71528 0.0
C1266 C 0.15224 0.67909 0.72911 0.0
C1267 C 0.16979 0.70301 0.70551 0.0
H1268 H 0.26664 0.45995 0.63262 0.0
H1269 H 0.22023 0.41387 0.75406 0.0
H1270 H 0.26063 0.42938 0.80187 0.0
H1271 H 0.309 0.45121 0.80586 0.0
H1272 H 0.35625 0.49586 0.68384 0.0
H1273 H 0.31583 0.48658 0.64031 0.0
C1274 C 0.26541 0.45404 0.67 0.0
C1275 C 0.24051 0.43592 0.68995 0.0
C1276 C 0.2889 0.46265 0.69712 0.0
C1277 C 0.2392 0.42781 0.73801 0.0
C1278 C 0.26228 0.43664 0.76534 0.0
C1279 C 0.31059 0.4594 0.77009 0.0
C1280 C 0.3357 0.47393 0.74804 0.0
C1281 C 0.28726 0.45336 0.74479 0.0
C1282 C 0.33725 0.48457 0.7018 0.0
C1283 C 0.31407 0.47907 0.67666 0.0
H1284 H 0.09986 0.53488 0.60899 0.0
H1285 H 0.11926 0.52365 0.75368 0.0
H1286 H 0.14011 0.49875 0.7229 0.0
H1287 H 0.14699 0.47482 0.65519 0.0
H1288 H 0.12602 0.48557 0.51112 0.0
H1289 H 0.11227 0.51643 0.54102 0.0
C1290 C 0.10907 0.52735 0.63368 0.0
C1291 C 0.10799 0.53101 0.68345 0.0
C1292 C 0.12073 0.51288 0.61574 0.0
C1293 C 0.12012 0.52136 0.71515 0.0
C1294 C 0.13186 0.50692 0.69754 0.0
C1295 C 0.14023 0.48461 0.63024 0.0
C1296 C 0.13733 0.47774 0.58103 0.0
C1297 C 0.13158 0.50188 0.64794 0.0
C1298 C 0.12829 0.49039 0.54917 0.0
C1299 C 0.12024 0.50792 0.56627 0.0
H1300 H 0.47782 0.59721 0.69932 0.0
H1301 H 0.48578 0.55142 0.58458 0.0
H1302 H 0.50972 0.5916 0.5359 0.0
H1303 H 0.53256 0.64006 0.52958 0.0
H1304 H 0.52598 0.68663 0.64457 0.0
H1305 H 0.49633 0.64579 0.68847 0.0
C1306 C 0.48399 0.59593 0.66304 0.0
C1307 C 0.47979 0.57133 0.64536 0.0
C1308 C 0.49805 0.61928 0.6353 0.0
C1309 C 0.48879 0.57014 0.59895 0.0
C1310 C 0.50246 0.59309 0.57107 0.0
C1311 C 0.52424 0.64133 0.56381 0.0
C1312 C 0.53181 0.66645 0.58393 0.0
C1313 C 0.50782 0.61785 0.58939 0.0
C1314 C 0.52056 0.66762 0.62814 0.0
C1315 C 0.50378 0.64423 0.65354 0.0
H1316 H 0.3592 0.89045 0.54292 0.0
H1317 H 0.30769 0.84317 0.65876 0.0
H1318 H 0.3466 0.85207 0.7072 0.0
H1319 H 0.39552 0.87875 0.72067 0.0
H1320 H 0.44582 0.92837 0.60591 0.0
H1321 H 0.40723 0.91319 0.55311 0.0
C1322 C 0.35635 0.8817 0.57849 0.0
C1323 C 0.33049 0.86649 0.59734 0.0
C1324 C 0.37874 0.88765 0.60663 0.0
C1325 C 0.32733 0.85503 0.64328 0.0
C1326 C 0.34961 0.8603 0.6712 0.0
C1327 C 0.39794 0.88565 0.68373 0.0
C1328 C 0.42336 0.90458 0.66696 0.0
C1329 C 0.37544 0.87738 0.65391 0.0
C1330 C 0.42637 0.9138 0.6194 0.0
C1331 C 0.40434 0.90517 0.58928 0.0
loop_
_geom_bond_atom_site_label_1
_geom_bond_atom_site_label_2
_geom_bond_distance
_geom_bond_site_symmetry_2
_ccdc_geom_bond_type
Co0 O3 1.970 . S
Co0 N17 1.989 . S
Co0 O25 1.967 . S
Co0 O32 1.920 . S
Co1 O4 1.966 . S
Co1 N10 2.022 . S
Co1 N18 1.993 . S
Co1 O26 1.941 . S
C2 O3 1.258 . S
C2 O4 1.263 . S
O3 Co0 1.970 . S
O3 C2 1.258 . S
O4 Co1 1.966 . S
O4 C2 1.263 . S
C5 O6 1.235 . S
C5 O32 1.289 . S
O6 C5 1.235 . S
C7 C9 1.400 . S
C7 N10 1.351 . S
C7 C12 1.501 . S
C8 C9 1.387 . S
C8 N11 1.341 . S
C9 C7 1.400 . S
C9 C8 1.387 . S
N10 Co1 2.022 . S
N10 C7 1.351 . S
N10 N11 1.365 . S
N11 C8 1.341 . S
N11 N10 1.365 . S
N11 H31 0.862 . S
C12 C7 1.501 . S
C12 H13 0.961 . S
C12 H14 0.961 . S
C12 H15 0.960 . S
H13 C12 0.961 . S
H14 C12 0.961 . S
H15 C12 0.960 . S
C16 N17 1.342 . S
C16 C20 1.401 . S
C16 C21 1.499 . S
N17 Co0 1.989 . S
N17 C16 1.342 . S
N17 N18 1.388 . S
N18 Co1 1.993 . S
N18 N17 1.388 . S
N18 C19 1.346 . S
C19 N18 1.346 . S
C19 C20 1.396 . S
C19 C29 1.510 . S
C20 C16 1.401 . S
C20 C19 1.396 . S
C21 C16 1.499 . S
C21 H22 0.959 . S
C21 H23 0.960 . S
C21 H24 0.961 . S
H22 C21 0.959 . S
H23 C21 0.960 . S
H24 C21 0.961 . S
O25 Co0 1.967 . S
O25 C33 1.258 . S
O26 Co1 1.941 . S
O26 C33 1.266 . S
H27 C29 0.959 . S
H28 C29 0.961 . S
C29 C19 1.510 . S
C29 H27 0.959 . S
C29 H28 0.961 . S
C29 H30 0.960 . S
H30 C29 0.960 . S
H31 N11 0.862 . S
O32 Co0 1.920 . S
O32 C5 1.289 . S
C33 O25 1.258 . S
C33 O26 1.266 . S
Co34 O37 1.970 . S
Co34 N51 1.989 . S
Co34 O59 1.967 . S
Co34 O66 1.920 . S
Co35 O38 1.966 . S
Co35 N44 2.022 . S
Co35 N52 1.993 . S
Co35 O60 1.941 . S
C36 O37 1.258 . S
C36 O38 1.263 . S
O37 Co34 1.970 . S
O37 C36 1.258 . S
O38 Co35 1.966 . S
O38 C36 1.263 . S
C39 O40 1.235 . S
C39 O66 1.289 . S
O40 C39 1.235 . S
C41 C43 1.400 . S
C41 N44 1.351 . S
C41 C46 1.501 . S
C42 C43 1.387 . S
C42 N45 1.341 . S
C43 C41 1.400 . S
C43 C42 1.387 . S
N44 Co35 2.022 . S
N44 C41 1.351 . S
N44 N45 1.365 . S
N45 C42 1.341 . S
N45 N44 1.365 . S
N45 H65 0.862 . S
C46 C41 1.501 . S
C46 H47 0.961 . S
C46 H48 0.961 . S
C46 H49 0.960 . S
H47 C46 0.961 . S
H48 C46 0.961 . S
H49 C46 0.960 . S
C50 N51 1.342 . S
C50 C54 1.401 . S
C50 C55 1.499 . S
N51 Co34 1.989 . S
N51 C50 1.342 . S
N51 N52 1.388 . S
N52 Co35 1.993 . S
N52 N51 1.388 . S
N52 C53 1.346 . S
C53 N52 1.346 . S
C53 C54 1.396 . S
C53 C63 1.510 . S
C54 C50 1.401 . S
C54 C53 1.396 . S
C55 C50 1.499 . S
C55 H56 0.959 . S
C55 H57 0.960 . S
C55 H58 0.961 . S
H56 C55 0.959 . S
H57 C55 0.960 . S
H58 C55 0.961 . S
O59 Co34 1.967 . S
O59 C67 1.258 . S
O60 Co35 1.941 . S
O60 C67 1.266 . S
H61 C63 0.959 . S
H62 C63 0.961 . S
C63 C53 1.510 . S
C63 H61 0.959 . S
C63 H62 0.961 . S
C63 H64 0.960 . S
H64 C63 0.960 . S
H65 N45 0.862 . S
O66 Co34 1.920 . S
O66 C39 1.289 . S
C67 O59 1.258 . S
C67 O60 1.266 . S
Co68 O71 1.970 . S
Co68 N85 1.989 . S
Co68 O93 1.967 . S
Co68 O100 1.920 . S
Co69 O72 1.966 . S
Co69 N78 2.022 . S
Co69 N86 1.993 . S
Co69 O94 1.941 . S
C70 O71 1.258 . S
C70 O72 1.263 . S
O71 Co68 1.970 . S
O71 C70 1.258 . S
O72 Co69 1.966 . S
O72 C70 1.263 . S
C73 O74 1.235 . S
C73 O100 1.289 . S
O74 C73 1.235 . S
C75 C77 1.400 . S
C75 N78 1.351 . S
C75 C80 1.501 . S
C76 C77 1.387 . S
C76 N79 1.341 . S
C77 C75 1.400 . S
C77 C76 1.387 . S
N78 Co69 2.022 . S
N78 C75 1.351 . S
N78 N79 1.365 . S
N79 C76 1.341 . S
N79 N78 1.365 . S
N79 H99 0.862 . S
C80 C75 1.501 . S
C80 H81 0.961 . S
C80 H82 0.961 . S
C80 H83 0.960 . S
H81 C80 0.961 . S
H82 C80 0.961 . S
H83 C80 0.960 . S
C84 N85 1.342 . S
C84 C88 1.401 . S
C84 C89 1.499 . S
N85 Co68 1.989 . S
N85 C84 1.342 . S
N85 N86 1.388 . S
N86 Co69 1.993 . S
N86 N85 1.388 . S
N86 C87 1.346 . S
C87 N86 1.346 . S
C87 C88 1.396 . S
C87 C97 1.510 . S
C88 C84 1.401 . S
C88 C87 1.396 . S
C89 C84 1.499 . S
C89 H90 0.959 . S
C89 H91 0.960 . S
C89 H92 0.961 . S
H90 C89 0.959 . S
H91 C89 0.960 . S
H92 C89 0.961 . S
O93 Co68 1.967 . S
O93 C101 1.258 . S
O94 Co69 1.941 . S
O94 C101 1.266 . S
H95 C97 0.959 . S
H96 C97 0.961 . S
C97 C87 1.510 . S
C97 H95 0.959 . S
C97 H96 0.961 . S
C97 H98 0.960 . S
H98 C97 0.960 . S
H99 N79 0.862 . S
O100 Co68 1.920 . S
O100 C73 1.289 . S
C101 O93 1.258 . S
C101 O94 1.266 . S
Co102 O105 1.970 . S
Co102 N119 1.989 . S
Co102 O127 1.967 . S
Co102 O134 1.920 . S
Co103 O106 1.966 . S
Co103 N112 2.022 . S
Co103 N120 1.993 . S
Co103 O128 1.941 . S
C104 O105 1.258 . S
C104 O106 1.263 . S
O105 Co102 1.970 . S
O105 C104 1.258 . S
O106 Co103 1.966 . S
O106 C104 1.263 . S
C107 O108 1.235 . S
C107 O134 1.289 . S
O108 C107 1.235 . S
C109 C111 1.400 . S
C109 N112 1.351 . S
C109 C114 1.501 . S
C110 C111 1.387 . S
C110 N113 1.341 . S
C111 C109 1.400 . S
C111 C110 1.387 . S
N112 Co103 2.022 . S
N112 C109 1.351 . S
N112 N113 1.365 . S
N113 C110 1.341 . S
N113 N112 1.365 . S
N113 H133 0.862 . S
C114 C109 1.501 . S
C114 H115 0.961 . S
C114 H116 0.961 . S
C114 H117 0.960 . S
H115 C114 0.961 . S
H116 C114 0.961 . S
H117 C114 0.960 . S
C118 N119 1.342 . S
C118 C122 1.401 . S
C118 C123 1.499 . S
N119 Co102 1.989 . S
N119 C118 1.342 . S
N119 N120 1.388 . S
N120 Co103 1.993 . S
N120 N119 1.388 . S
N120 C121 1.346 . S
C121 N120 1.346 . S
C121 C122 1.396 . S
C121 C131 1.510 . S
C122 C118 1.401 . S
C122 C121 1.396 . S
C123 C118 1.499 . S
C123 H124 0.959 . S
C123 H125 0.960 . S
C123 H126 0.961 . S
H124 C123 0.959 . S
H125 C123 0.960 . S
H126 C123 0.961 . S
O127 Co102 1.967 . S
O127 C135 1.258 . S
O128 Co103 1.941 . S
O128 C135 1.266 . S
H129 C131 0.959 . S
H130 C131 0.961 . S
C131 C121 1.510 . S
C131 H129 0.959 . S
C131 H130 0.961 . S
C131 H132 0.960 . S
H132 C131 0.960 . S
H133 N113 0.862 . S
O134 Co102 1.920 . S
O134 C107 1.289 . S
C135 O127 1.258 . S
C135 O128 1.266 . S
Co136 O139 1.970 . S
Co136 N153 1.989 . S
Co136 O161 1.967 . S
Co136 O168 1.920 . S
Co137 O140 1.966 . S
Co137 N146 2.022 . S
Co137 N154 1.993 . S
Co137 O162 1.941 . S
C138 O139 1.258 . S
C138 O140 1.263 . S
O139 Co136 1.970 . S
O139 C138 1.258 . S
O140 Co137 1.966 . S
O140 C138 1.263 . S
C141 O142 1.235 . S
C141 O168 1.289 . S
O142 C141 1.235 . S
C143 C145 1.400 . S
C143 N146 1.351 . S
C143 C148 1.501 . S
C144 C145 1.387 . S
C144 N147 1.341 . S
C145 C143 1.400 . S
C145 C144 1.387 . S
N146 Co137 2.022 . S
N146 C143 1.351 . S
N146 N147 1.365 . S
N147 C144 1.341 . S
N147 N146 1.365 . S
N147 H167 0.862 . S
C148 C143 1.501 . S
C148 H149 0.961 . S
C148 H150 0.961 . S
C148 H151 0.960 . S
H149 C148 0.961 . S
H150 C148 0.961 . S
H151 C148 0.960 . S
C152 N153 1.342 . S
C152 C156 1.401 . S
C152 C157 1.499 . S
N153 Co136 1.989 . S
N153 C152 1.342 . S
N153 N154 1.388 . S
N154 Co137 1.993 . S
N154 N153 1.388 . S
N154 C155 1.346 . S
C155 N154 1.346 . S
C155 C156 1.396 . S
C155 C165 1.510 . S
C156 C152 1.401 . S
C156 C155 1.396 . S
C157 C152 1.499 . S
C157 H158 0.959 . S
C157 H159 0.960 . S
C157 H160 0.961 . S
H158 C157 0.959 . S
H159 C157 0.960 . S
H160 C157 0.961 . S
O161 Co136 1.967 . S
O161 C169 1.258 . S
O162 Co137 1.941 . S
O162 C169 1.266 . S
H163 C165 0.959 . S
H164 C165 0.961 . S
C165 C155 1.510 . S
C165 H163 0.959 . S
C165 H164 0.961 . S
C165 H166 0.960 . S
H166 C165 0.960 . S
H167 N147 0.862 . S
O168 Co136 1.920 . S
O168 C141 1.289 . S
C169 O161 1.258 . S
C169 O162 1.266 . S
Co170 O173 1.970 . S
Co170 N187 1.989 . S
Co170 O195 1.967 . S
Co170 O202 1.920 . S
Co171 O174 1.966 . S
Co171 N180 2.022 . S
Co171 N188 1.993 . S
Co171 O196 1.941 . S
C172 O173 1.258 . S
C172 O174 1.263 . S
O173 Co170 1.970 . S
O173 C172 1.258 . S
O174 Co171 1.966 . S
O174 C172 1.263 . S
C175 O176 1.235 . S
C175 O202 1.289 . S
O176 C175 1.235 . S
C177 C179 1.400 . S
C177 N180 1.351 . S
C177 C182 1.501 . S
C178 C179 1.387 . S
C178 N181 1.341 . S
C179 C177 1.400 . S
C179 C178 1.387 . S
N180 Co171 2.022 . S
N180 C177 1.351 . S
N180 N181 1.365 . S
N181 C178 1.341 . S
N181 N180 1.365 . S
N181 H201 0.862 . S
C182 C177 1.501 . S
C182 H183 0.961 . S
C182 H184 0.961 . S
C182 H185 0.960 . S
H183 C182 0.961 . S
H184 C182 0.961 . S
H185 C182 0.960 . S
C186 N187 1.342 . S
C186 C190 1.401 . S
C186 C191 1.499 . S
N187 Co170 1.989 . S
N187 C186 1.342 . S
N187 N188 1.388 . S
N188 Co171 1.993 . S
N188 N187 1.388 . S
N188 C189 1.346 . S
C189 N188 1.346 . S
C189 C190 1.396 . S
C189 C199 1.510 . S
C190 C186 1.401 . S
C190 C189 1.396 . S
C191 C186 1.499 . S
C191 H192 0.959 . S
C191 H193 0.960 . S
C191 H194 0.961 . S
H192 C191 0.959 . S
H193 C191 0.960 . S
H194 C191 0.961 . S
O195 Co170 1.967 . S
O195 C203 1.258 . S
O196 Co171 1.941 . S
O196 C203 1.266 . S
H197 C199 0.959 . S
H198 C199 0.961 . S
C199 C189 1.510 . S
C199 H197 0.959 . S
C199 H198 0.961 . S
C199 H200 0.960 . S
H200 C199 0.960 . S
H201 N181 0.862 . S
O202 Co170 1.920 . S
O202 C175 1.289 . S
C203 O195 1.258 . S
C203 O196 1.266 . S
Co204 O207 1.970 . S
Co204 N221 1.989 . S
Co204 O229 1.967 . S
Co204 O236 1.920 . S
Co205 O208 1.966 . S
Co205 N214 2.022 . S
Co205 N222 1.993 . S
Co205 O230 1.941 . S
C206 O207 1.258 . S
C206 O208 1.263 . S
O207 Co204 1.970 . S
O207 C206 1.258 . S
O208 Co205 1.966 . S
O208 C206 1.263 . S
C209 O210 1.235 . S
C209 O236 1.289 . S
O210 C209 1.235 . S
C211 C213 1.400 . S
C211 N214 1.351 . S
C211 C216 1.501 . S
C212 C213 1.387 . S
C212 N215 1.341 . S
C213 C211 1.400 . S
C213 C212 1.387 . S
N214 Co205 2.022 . S
N214 C211 1.351 . S
N214 N215 1.365 . S
N215 C212 1.341 . S
N215 N214 1.365 . S
N215 H235 0.862 . S
C216 C211 1.501 . S
C216 H217 0.961 . S
C216 H218 0.961 . S
C216 H219 0.960 . S
H217 C216 0.961 . S
H218 C216 0.961 . S
H219 C216 0.960 . S
C220 N221 1.342 . S
C220 C224 1.401 . S
C220 C225 1.499 . S
N221 Co204 1.989 . S
N221 C220 1.342 . S
N221 N222 1.388 . S
N222 Co205 1.993 . S
N222 N221 1.388 . S
N222 C223 1.346 . S
C223 N222 1.346 . S
C223 C224 1.396 . S
C223 C233 1.510 . S
C224 C220 1.401 . S
C224 C223 1.396 . S
C225 C220 1.499 . S
C225 H226 0.959 . S
C225 H227 0.960 . S
C225 H228 0.961 . S
H226 C225 0.959 . S
H227 C225 0.960 . S
H228 C225 0.961 . S
O229 Co204 1.967 . S
O229 C237 1.258 . S
O230 Co205 1.941 . S
O230 C237 1.266 . S
H231 C233 0.959 . S
H232 C233 0.961 . S
C233 C223 1.510 . S
C233 H231 0.959 . S
C233 H232 0.961 . S
C233 H234 0.960 . S
H234 C233 0.960 . S
H235 N215 0.862 . S
O236 Co204 1.920 . S
O236 C209 1.289 . S
C237 O229 1.258 . S
C237 O230 1.266 . S
Co238 O241 1.970 . S
Co238 N255 1.989 . S
Co238 O263 1.967 . S
Co238 O270 1.920 . S
Co239 O242 1.966 . S
Co239 N248 2.022 . S
Co239 N256 1.993 . S
Co239 O264 1.941 . S
C240 O241 1.258 . S
C240 O242 1.263 . S
O241 Co238 1.970 . S
O241 C240 1.258 . S
O242 Co239 1.966 . S
O242 C240 1.263 . S
C243 O244 1.235 . S
C243 O270 1.289 . S
O244 C243 1.235 . S
C245 C247 1.400 . S
C245 N248 1.351 . S
C245 C250 1.501 . S
C246 C247 1.387 . S
C246 N249 1.341 . S
C247 C245 1.400 . S
C247 C246 1.387 . S
N248 Co239 2.022 . S
N248 C245 1.351 . S
N248 N249 1.365 . S
N249 C246 1.341 . S
N249 N248 1.365 . S
N249 H269 0.862 . S
C250 C245 1.501 . S
C250 H251 0.961 . S
C250 H252 0.961 . S
C250 H253 0.960 . S
H251 C250 0.961 . S
H252 C250 0.961 . S
H253 C250 0.960 . S
C254 N255 1.342 . S
C254 C258 1.401 . S
C254 C259 1.499 . S
N255 Co238 1.989 . S
N255 C254 1.342 . S
N255 N256 1.388 . S
N256 Co239 1.993 . S
N256 N255 1.388 . S
N256 C257 1.346 . S
C257 N256 1.346 . S
C257 C258 1.396 . S
C257 C267 1.510 . S
C258 C254 1.401 . S
C258 C257 1.396 . S
C259 C254 1.499 . S
C259 H260 0.959 . S
C259 H261 0.960 . S
C259 H262 0.961 . S
H260 C259 0.959 . S
H261 C259 0.960 . S
H262 C259 0.961 . S
O263 Co238 1.967 . S
O263 C271 1.258 . S
O264 Co239 1.941 . S
O264 C271 1.266 . S
H265 C267 0.959 . S
H266 C267 0.961 . S
C267 C257 1.510 . S
C267 H265 0.959 . S
C267 H266 0.961 . S
C267 H268 0.960 . S
H268 C267 0.960 . S
H269 N249 0.862 . S
O270 Co238 1.920 . S
O270 C243 1.289 . S
C271 O263 1.258 . S
C271 O264 1.266 . S
Co272 O275 1.970 . S
Co272 N289 1.989 . S
Co272 O297 1.967 . S
Co272 O304 1.920 . S
Co273 O276 1.966 . S
Co273 N282 2.022 . S
Co273 N290 1.993 . S
Co273 O298 1.941 . S
C274 O275 1.258 . S
C274 O276 1.263 . S
O275 Co272 1.970 . S
O275 C274 1.258 . S
O276 Co273 1.966 . S
O276 C274 1.263 . S
C277 O278 1.235 . S
C277 O304 1.289 . S
O278 C277 1.235 . S
C279 C281 1.400 . S
C279 N282 1.351 . S
C279 C284 1.501 . S
C280 C281 1.387 . S
C280 N283 1.341 . S
C281 C279 1.400 . S
C281 C280 1.387 . S
N282 Co273 2.022 . S
N282 C279 1.351 . S
N282 N283 1.365 . S
N283 C280 1.341 . S
N283 N282 1.365 . S
N283 H303 0.862 . S
C284 C279 1.501 . S
C284 H285 0.961 . S
C284 H286 0.961 . S
C284 H287 0.960 . S
H285 C284 0.961 . S
H286 C284 0.961 . S
H287 C284 0.960 . S
C288 N289 1.342 . S
C288 C292 1.401 . S
C288 C293 1.499 . S
N289 Co272 1.989 . S
N289 C288 1.342 . S
N289 N290 1.388 . S
N290 Co273 1.993 . S
N290 N289 1.388 . S
N290 C291 1.346 . S
C291 N290 1.346 . S
C291 C292 1.396 . S
C291 C301 1.510 . S
C292 C288 1.401 . S
C292 C291 1.396 . S
C293 C288 1.499 . S
C293 H294 0.959 . S
C293 H295 0.960 . S
C293 H296 0.961 . S
H294 C293 0.959 . S
H295 C293 0.960 . S
H296 C293 0.961 . S
O297 Co272 1.967 . S
O297 C305 1.258 . S
O298 Co273 1.941 . S
O298 C305 1.266 . S
H299 C301 0.959 . S
H300 C301 0.961 . S
C301 C291 1.510 . S
C301 H299 0.959 . S
C301 H300 0.961 . S
C301 H302 0.960 . S
H302 C301 0.960 . S
H303 N283 0.862 . S
O304 Co272 1.920 . S
O304 C277 1.289 . S
C305 O297 1.258 . S
C305 O298 1.266 . S
Co306 O309 1.970 . S
Co306 N323 1.989 . S
Co306 O331 1.967 . S
Co306 O338 1.920 . S
Co307 O310 1.966 . S
Co307 N316 2.022 . S
Co307 N324 1.993 . S
Co307 O332 1.941 . S
C308 O309 1.258 . S
C308 O310 1.263 . S
O309 Co306 1.970 . S
O309 C308 1.258 . S
O310 Co307 1.966 . S
O310 C308 1.263 . S
C311 O312 1.235 . S
C311 O338 1.289 . S
O312 C311 1.235 . S
C313 C315 1.400 . S
C313 N316 1.351 . S
C313 C318 1.501 . S
C314 C315 1.387 . S
C314 N317 1.341 . S
C315 C313 1.400 . S
C315 C314 1.387 . S
N316 Co307 2.022 . S
N316 C313 1.351 . S
N316 N317 1.365 . S
N317 C314 1.341 . S
N317 N316 1.365 . S
N317 H337 0.862 . S
C318 C313 1.501 . S
C318 H319 0.961 . S
C318 H320 0.961 . S
C318 H321 0.960 . S
H319 C318 0.961 . S
H320 C318 0.961 . S
H321 C318 0.960 . S
C322 N323 1.342 . S
C322 C326 1.401 . S
C322 C327 1.499 . S
N323 Co306 1.989 . S
N323 C322 1.342 . S
N323 N324 1.388 . S
N324 Co307 1.993 . S
N324 N323 1.388 . S
N324 C325 1.346 . S
C325 N324 1.346 . S
C325 C326 1.396 . S
C325 C335 1.510 . S
C326 C322 1.401 . S
C326 C325 1.396 . S
C327 C322 1.499 . S
C327 H328 0.959 . S
C327 H329 0.960 . S
C327 H330 0.961 . S
H328 C327 0.959 . S
H329 C327 0.960 . S
H330 C327 0.961 . S
O331 Co306 1.967 . S
O331 C339 1.258 . S
O332 Co307 1.941 . S
O332 C339 1.266 . S
H333 C335 0.959 . S
H334 C335 0.961 . S
C335 C325 1.510 . S
C335 H333 0.959 . S
C335 H334 0.961 . S
C335 H336 0.960 . S
H336 C335 0.960 . S
H337 N317 0.862 . S
O338 Co306 1.920 . S
O338 C311 1.289 . S
C339 O331 1.258 . S
C339 O332 1.266 . S
Co340 O343 1.970 . S
Co340 N357 1.989 . S
Co340 O365 1.967 . S
Co340 O372 1.920 . S
Co341 O344 1.966 . S
Co341 N350 2.022 . S
Co341 N358 1.993 . S
Co341 O366 1.941 . S
C342 O343 1.258 . S
C342 O344 1.263 . S
O343 Co340 1.970 . S
O343 C342 1.258 . S
O344 Co341 1.966 . S
O344 C342 1.263 . S
C345 O346 1.235 . S
C345 O372 1.289 . S
O346 C345 1.235 . S
C347 C349 1.400 . S
C347 N350 1.351 . S
C347 C352 1.501 . S
C348 C349 1.387 . S
C348 N351 1.341 . S
C349 C347 1.400 . S
C349 C348 1.387 . S
N350 Co341 2.022 . S
N350 C347 1.351 . S
N350 N351 1.365 . S
N351 C348 1.341 . S
N351 N350 1.365 . S
N351 H371 0.862 . S
C352 C347 1.501 . S
C352 H353 0.961 . S
C352 H354 0.961 . S
C352 H355 0.960 . S
H353 C352 0.961 . S
H354 C352 0.961 . S
H355 C352 0.960 . S
C356 N357 1.342 . S
C356 C360 1.401 . S
C356 C361 1.499 . S
N357 Co340 1.989 . S
N357 C356 1.342 . S
N357 N358 1.388 . S
N358 Co341 1.993 . S
N358 N357 1.388 . S
N358 C359 1.346 . S
C359 N358 1.346 . S
C359 C360 1.396 . S
C359 C369 1.510 . S
C360 C356 1.401 . S
C360 C359 1.396 . S
C361 C356 1.499 . S
C361 H362 0.959 . S
C361 H363 0.960 . S
C361 H364 0.961 . S
H362 C361 0.959 . S
H363 C361 0.960 . S
H364 C361 0.961 . S
O365 Co340 1.967 . S
O365 C373 1.258 . S
O366 Co341 1.941 . S
O366 C373 1.266 . S
H367 C369 0.959 . S
H368 C369 0.961 . S
C369 C359 1.510 . S
C369 H367 0.959 . S
C369 H368 0.961 . S
C369 H370 0.960 . S
H370 C369 0.960 . S
H371 N351 0.862 . S
O372 Co340 1.920 . S
O372 C345 1.289 . S
C373 O365 1.258 . S
C373 O366 1.266 . S
Co374 O377 1.970 . S
Co374 N391 1.989 . S
Co374 O399 1.967 . S
Co374 O406 1.920 . S
Co375 O378 1.966 . S
Co375 N384 2.022 . S
Co375 N392 1.993 . S
Co375 O400 1.941 . S
C376 O377 1.258 . S
C376 O378 1.263 . S
O377 Co374 1.970 . S
O377 C376 1.258 . S
O378 Co375 1.966 . S
O378 C376 1.263 . S
C379 O380 1.235 . S
C379 O406 1.289 . S
O380 C379 1.235 . S
C381 C383 1.400 . S
C381 N384 1.351 . S
C381 C386 1.501 . S
C382 C383 1.387 . S
C382 N385 1.341 . S
C383 C381 1.400 . S
C383 C382 1.387 . S
N384 Co375 2.022 . S
N384 C381 1.351 . S
N384 N385 1.365 . S
N385 C382 1.341 . S
N385 N384 1.365 . S
N385 H405 0.862 . S
C386 C381 1.501 . S
C386 H387 0.961 . S
C386 H388 0.961 . S
C386 H389 0.960 . S
H387 C386 0.961 . S
H388 C386 0.961 . S
H389 C386 0.960 . S
C390 N391 1.342 . S
C390 C394 1.401 . S
C390 C395 1.499 . S
N391 Co374 1.989 . S
N391 C390 1.342 . S
N391 N392 1.388 . S
N392 Co375 1.993 . S
N392 N391 1.388 . S
N392 C393 1.346 . S
C393 N392 1.346 . S
C393 C394 1.396 . S
C393 C403 1.510 . S
C394 C390 1.401 . S
C394 C393 1.396 . S
C395 C390 1.499 . S
C395 H396 0.959 . S
C395 H397 0.960 . S
C395 H398 0.961 . S
H396 C395 0.959 . S
H397 C395 0.960 . S
H398 C395 0.961 . S
O399 Co374 1.967 . S
O399 C407 1.258 . S
O400 Co375 1.941 . S
O400 C407 1.266 . S
H401 C403 0.959 . S
H402 C403 0.961 . S
C403 C393 1.510 . S
C403 H401 0.959 . S
C403 H402 0.961 . S
C403 H404 0.960 . S
H404 C403 0.960 . S
H405 N385 0.862 . S
O406 Co374 1.920 . S
O406 C379 1.289 . S
C407 O399 1.258 . S
C407 O400 1.266 . S
Co408 O411 1.970 . S
Co408 N425 1.989 . S
Co408 O433 1.967 . S
Co408 O440 1.920 . S
Co409 O412 1.966 . S
Co409 N418 2.022 . S
Co409 N426 1.993 . S
Co409 O434 1.941 . S
C410 O411 1.258 . S
C410 O412 1.263 . S
O411 Co408 1.970 . S
O411 C410 1.258 . S
O412 Co409 1.966 . S
O412 C410 1.263 . S
C413 O414 1.235 . S
C413 O440 1.289 . S
O414 C413 1.235 . S
C415 C417 1.400 . S
C415 N418 1.351 . S
C415 C420 1.501 . S
C416 C417 1.387 . S
C416 N419 1.341 . S
C417 C415 1.400 . S
C417 C416 1.387 . S
N418 Co409 2.022 . S
N418 C415 1.351 . S
N418 N419 1.365 . S
N419 C416 1.341 . S
N419 N418 1.365 . S
N419 H439 0.862 . S
C420 C415 1.501 . S
C420 H421 0.961 . S
C420 H422 0.961 . S
C420 H423 0.960 . S
H421 C420 0.961 . S
H422 C420 0.961 . S
H423 C420 0.960 . S
C424 N425 1.342 . S
C424 C428 1.401 . S
C424 C429 1.499 . S
N425 Co408 1.989 . S
N425 C424 1.342 . S
N425 N426 1.388 . S
N426 Co409 1.993 . S
N426 N425 1.388 . S
N426 C427 1.346 . S
C427 N426 1.346 . S
C427 C428 1.396 . S
C427 C437 1.510 . S
C428 C424 1.401 . S
C428 C427 1.396 . S
C429 C424 1.499 . S
C429 H430 0.959 . S
C429 H431 0.960 . S
C429 H432 0.961 . S
H430 C429 0.959 . S
H431 C429 0.960 . S
H432 C429 0.961 . S
O433 Co408 1.967 . S
O433 C441 1.258 . S
O434 Co409 1.941 . S
O434 C441 1.266 . S
H435 C437 0.959 . S
H436 C437 0.961 . S
C437 C427 1.510 . S
C437 H435 0.959 . S
C437 H436 0.961 . S
C437 H438 0.960 . S
H438 C437 0.960 . S
H439 N419 0.862 . S
O440 Co408 1.920 . S
O440 C413 1.289 . S
C441 O433 1.258 . S
C441 O434 1.266 . S
Co442 O445 1.970 . S
Co442 N459 1.989 . S
Co442 O467 1.967 . S
Co442 O474 1.920 . S
Co443 O446 1.966 . S
Co443 N452 2.022 . S
Co443 N460 1.993 . S
Co443 O468 1.941 . S
C444 O445 1.258 . S
C444 O446 1.263 . S
O445 Co442 1.970 . S
O445 C444 1.258 . S
O446 Co443 1.966 . S
O446 C444 1.263 . S
C447 O448 1.235 . S
C447 O474 1.289 . S
O448 C447 1.235 . S
C449 C451 1.400 . S
C449 N452 1.351 . S
C449 C454 1.501 . S
C450 C451 1.387 . S
C450 N453 1.341 . S
C451 C449 1.400 . S
C451 C450 1.387 . S
N452 Co443 2.022 . S
N452 C449 1.351 . S
N452 N453 1.365 . S
N453 C450 1.341 . S
N453 N452 1.365 . S
N453 H473 0.862 . S
C454 C449 1.501 . S
C454 H455 0.961 . S
C454 H456 0.961 . S
C454 H457 0.960 . S
H455 C454 0.961 . S
H456 C454 0.961 . S
H457 C454 0.960 . S
C458 N459 1.342 . S
C458 C462 1.401 . S
C458 C463 1.499 . S
N459 Co442 1.989 . S
N459 C458 1.342 . S
N459 N460 1.388 . S
N460 Co443 1.993 . S
N460 N459 1.388 . S
N460 C461 1.346 . S
C461 N460 1.346 . S
C461 C462 1.396 . S
C461 C471 1.510 . S
C462 C458 1.401 . S
C462 C461 1.396 . S
C463 C458 1.499 . S
C463 H464 0.959 . S
C463 H465 0.960 . S
C463 H466 0.961 . S
H464 C463 0.959 . S
H465 C463 0.960 . S
H466 C463 0.961 . S
O467 Co442 1.967 . S
O467 C475 1.258 . S
O468 Co443 1.941 . S
O468 C475 1.266 . S
H469 C471 0.959 . S
H470 C471 0.961 . S
C471 C461 1.510 . S
C471 H469 0.959 . S
C471 H470 0.961 . S
C471 H472 0.960 . S
H472 C471 0.960 . S
H473 N453 0.862 . S
O474 Co442 1.920 . S
O474 C447 1.289 . S
C475 O467 1.258 . S
C475 O468 1.266 . S
Co476 O479 1.970 . S
Co476 N493 1.989 . S
Co476 O501 1.967 . S
Co476 O508 1.920 . S
Co477 O480 1.966 . S
Co477 N486 2.022 . S
Co477 N494 1.993 . S
Co477 O502 1.941 . S
C478 O479 1.258 . S
C478 O480 1.263 . S
O479 Co476 1.970 . S
O479 C478 1.258 . S
O480 Co477 1.966 . S
O480 C478 1.263 . S
C481 O482 1.235 . S
C481 O508 1.289 . S
O482 C481 1.235 . S
C483 C485 1.400 . S
C483 N486 1.351 . S
C483 C488 1.501 . S
C484 C485 1.387 . S
C484 N487 1.341 . S
C485 C483 1.400 . S
C485 C484 1.387 . S
N486 Co477 2.022 . S
N486 C483 1.351 . S
N486 N487 1.365 . S
N487 C484 1.341 . S
N487 N486 1.365 . S
N487 H507 0.862 . S
C488 C483 1.501 . S
C488 H489 0.961 . S
C488 H490 0.961 . S
C488 H491 0.960 . S
H489 C488 0.961 . S
H490 C488 0.961 . S
H491 C488 0.960 . S
C492 N493 1.342 . S
C492 C496 1.401 . S
C492 C497 1.499 . S
N493 Co476 1.989 . S
N493 C492 1.342 . S
N493 N494 1.388 . S
N494 Co477 1.993 . S
N494 N493 1.388 . S
N494 C495 1.346 . S
C495 N494 1.346 . S
C495 C496 1.396 . S
C495 C505 1.510 . S
C496 C492 1.401 . S
C496 C495 1.396 . S
C497 C492 1.499 . S
C497 H498 0.959 . S
C497 H499 0.960 . S
C497 H500 0.961 . S
H498 C497 0.959 . S
H499 C497 0.960 . S
H500 C497 0.961 . S
O501 Co476 1.967 . S
O501 C509 1.258 . S
O502 Co477 1.941 . S
O502 C509 1.266 . S
H503 C505 0.959 . S
H504 C505 0.961 . S
C505 C495 1.510 . S
C505 H503 0.959 . S
C505 H504 0.961 . S
C505 H506 0.960 . S
H506 C505 0.960 . S
H507 N487 0.862 . S
O508 Co476 1.920 . S
O508 C481 1.289 . S
C509 O501 1.258 . S
C509 O502 1.266 . S
Co510 O513 1.970 . S
Co510 N527 1.989 . S
Co510 O535 1.967 . S
Co510 O542 1.920 . S
Co511 O514 1.966 . S
Co511 N520 2.022 . S
Co511 N528 1.993 . S
Co511 O536 1.941 . S
C512 O513 1.258 . S
C512 O514 1.263 . S
O513 Co510 1.970 . S
O513 C512 1.258 . S
O514 Co511 1.966 . S
O514 C512 1.263 . S
C515 O516 1.235 . S
C515 O542 1.289 . S
O516 C515 1.235 . S
C517 C519 1.400 . S
C517 N520 1.351 . S
C517 C522 1.501 . S
C518 C519 1.387 . S
C518 N521 1.341 . S
C519 C517 1.400 . S
C519 C518 1.387 . S
N520 Co511 2.022 . S
N520 C517 1.351 . S
N520 N521 1.365 . S
N521 C518 1.341 . S
N521 N520 1.365 . S
N521 H541 0.862 . S
C522 C517 1.501 . S
C522 H523 0.961 . S
C522 H524 0.961 . S
C522 H525 0.960 . S
H523 C522 0.961 . S
H524 C522 0.961 . S
H525 C522 0.960 . S
C526 N527 1.342 . S
C526 C530 1.401 . S
C526 C531 1.499 . S
N527 Co510 1.989 . S
N527 C526 1.342 . S
N527 N528 1.388 . S
N528 Co511 1.993 . S
N528 N527 1.388 . S
N528 C529 1.346 . S
C529 N528 1.346 . S
C529 C530 1.396 . S
C529 C539 1.510 . S
C530 C526 1.401 . S
C530 C529 1.396 . S
C531 C526 1.499 . S
C531 H532 0.959 . S
C531 H533 0.960 . S
C531 H534 0.961 . S
H532 C531 0.959 . S
H533 C531 0.960 . S
H534 C531 0.961 . S
O535 Co510 1.967 . S
O535 C543 1.258 . S
O536 Co511 1.941 . S
O536 C543 1.266 . S
H537 C539 0.959 . S
H538 C539 0.961 . S
C539 C529 1.510 . S
C539 H537 0.959 . S
C539 H538 0.961 . S
C539 H540 0.960 . S
H540 C539 0.960 . S
H541 N521 0.862 . S
O542 Co510 1.920 . S
O542 C515 1.289 . S
C543 O535 1.258 . S
C543 O536 1.266 . S
Co544 O547 1.970 . S
Co544 N561 1.989 . S
Co544 O569 1.967 . S
Co544 O576 1.920 . S
Co545 O548 1.966 . S
Co545 N554 2.022 . S
Co545 N562 1.993 . S
Co545 O570 1.941 . S
C546 O547 1.258 . S
C546 O548 1.263 . S
O547 Co544 1.970 . S
O547 C546 1.258 . S
O548 Co545 1.966 . S
O548 C546 1.263 . S
C549 O550 1.235 . S
C549 O576 1.289 . S
O550 C549 1.235 . S
C551 C553 1.400 . S
C551 N554 1.351 . S
C551 C556 1.501 . S
C552 C553 1.387 . S
C552 N555 1.341 . S
C553 C551 1.400 . S
C553 C552 1.387 . S
N554 Co545 2.022 . S
N554 C551 1.351 . S
N554 N555 1.365 . S
N555 C552 1.341 . S
N555 N554 1.365 . S
N555 H575 0.862 . S
C556 C551 1.501 . S
C556 H557 0.961 . S
C556 H558 0.961 . S
C556 H559 0.960 . S
H557 C556 0.961 . S
H558 C556 0.961 . S
H559 C556 0.960 . S
C560 N561 1.342 . S
C560 C564 1.401 . S
C560 C565 1.499 . S
N561 Co544 1.989 . S
N561 C560 1.342 . S
N561 N562 1.388 . S
N562 Co545 1.993 . S
N562 N561 1.388 . S
N562 C563 1.346 . S
C563 N562 1.346 . S
C563 C564 1.396 . S
C563 C573 1.510 . S
C564 C560 1.401 . S
C564 C563 1.396 . S
C565 C560 1.499 . S
C565 H566 0.959 . S
C565 H567 0.960 . S
C565 H568 0.961 . S
H566 C565 0.959 . S
H567 C565 0.960 . S
H568 C565 0.961 . S
O569 Co544 1.967 . S
O569 C577 1.258 . S
O570 Co545 1.941 . S
O570 C577 1.266 . S
H571 C573 0.959 . S
H572 C573 0.961 . S
C573 C563 1.510 . S
C573 H571 0.959 . S
C573 H572 0.961 . S
C573 H574 0.960 . S
H574 C573 0.960 . S
H575 N555 0.862 . S
O576 Co544 1.920 . S
O576 C549 1.289 . S
C577 O569 1.258 . S
C577 O570 1.266 . S
Co578 O581 1.970 . S
Co578 N595 1.989 . S
Co578 O603 1.967 . S
Co578 O610 1.920 . S
Co579 O582 1.966 . S
Co579 N588 2.022 . S
Co579 N596 1.993 . S
Co579 O604 1.941 . S
C580 O581 1.258 . S
C580 O582 1.263 . S
O581 Co578 1.970 . S
O581 C580 1.258 . S
O582 Co579 1.966 . S
O582 C580 1.263 . S
C583 O584 1.235 . S
C583 O610 1.289 . S
O584 C583 1.235 . S
C585 C587 1.400 . S
C585 N588 1.351 . S
C585 C590 1.501 . S
C586 C587 1.387 . S
C586 N589 1.341 . S
C587 C585 1.400 . S
C587 C586 1.387 . S
N588 Co579 2.022 . S
N588 C585 1.351 . S
N588 N589 1.365 . S
N589 C586 1.341 . S
N589 N588 1.365 . S
N589 H609 0.862 . S
C590 C585 1.501 . S
C590 H591 0.961 . S
C590 H592 0.961 . S
C590 H593 0.960 . S
H591 C590 0.961 . S
H592 C590 0.961 . S
H593 C590 0.960 . S
C594 N595 1.342 . S
C594 C598 1.401 . S
C594 C599 1.499 . S
N595 Co578 1.989 . S
N595 C594 1.342 . S
N595 N596 1.388 . S
N596 Co579 1.993 . S
N596 N595 1.388 . S
N596 C597 1.346 . S
C597 N596 1.346 . S
C597 C598 1.396 . S
C597 C607 1.510 . S
C598 C594 1.401 . S
C598 C597 1.396 . S
C599 C594 1.499 . S
C599 H600 0.959 . S
C599 H601 0.960 . S
C599 H602 0.961 . S
H600 C599 0.959 . S
H601 C599 0.960 . S
H602 C599 0.961 . S
O603 Co578 1.967 . S
O603 C611 1.258 . S
O604 Co579 1.941 . S
O604 C611 1.266 . S
H605 C607 0.959 . S
H606 C607 0.961 . S
C607 C597 1.510 . S
C607 H605 0.959 . S
C607 H606 0.961 . S
C607 H608 0.960 . S
H608 C607 0.960 . S
H609 N589 0.862 . S
O610 Co578 1.920 . S
O610 C583 1.289 . S
C611 O603 1.258 . S
C611 O604 1.266 . S
H612 C618 0.930 . S
H613 C621 0.930 . S
H614 C622 0.930 . S
H615 C623 0.930 . S
H616 C626 0.930 . S
H617 C627 0.930 . S
C618 H612 0.930 . S
C618 C619 1.355 . S
C618 C620 1.415 . S
C619 C618 1.355 . S
C619 C621 1.419 . S
C620 C618 1.415 . S
C620 C625 1.425 . S
C620 C627 1.409 . S
C621 H613 0.930 . S
C621 C619 1.419 . S
C621 C622 1.362 . S
C622 H614 0.930 . S
C622 C621 1.362 . S
C622 C625 1.409 . S
C623 H615 0.930 . S
C623 C624 1.355 . S
C623 C625 1.415 . S
C624 C623 1.355 . S
C624 C626 1.419 . S
C625 C620 1.425 . S
C625 C622 1.409 . S
C625 C623 1.415 . S
C626 H616 0.930 . S
C626 C624 1.419 . S
C626 C627 1.362 . S
C627 H617 0.930 . S
C627 C620 1.409 . S
C627 C626 1.362 . S
H628 C634 0.930 . S
H629 C637 0.930 . S
H630 C638 0.930 . S
H631 C639 0.930 . S
H632 C642 0.930 . S
H633 C643 0.930 . S
C634 H628 0.930 . S
C634 C635 1.355 . S
C634 C636 1.415 . S
C635 C634 1.355 . S
C635 C637 1.419 1_545 S
C636 C634 1.415 . S
C636 C641 1.425 . S
C636 C643 1.409 . S
C637 H629 0.930 . S
C637 C635 1.419 1_565 S
C637 C638 1.362 1_565 S
C638 H630 0.930 . S
C638 C637 1.362 1_545 S
C638 C641 1.409 . S
C639 H631 0.930 . S
C639 C640 1.355 . S
C639 C641 1.415 . S
C640 C639 1.355 . S
C640 C642 1.419 . S
C641 C636 1.425 . S
C641 C638 1.409 . S
C641 C639 1.415 . S
C642 H632 0.930 . S
C642 C640 1.419 . S
C642 C643 1.362 . S
C643 H633 0.930 . S
C643 C636 1.409 . S
C643 C642 1.362 . S
H644 C650 0.930 . S
H645 C653 0.930 1_455 S
H646 C654 0.930 . S
H647 C655 0.930 . S
H648 C658 0.930 . S
H649 C659 0.930 . S
C650 H644 0.930 . S
C650 C651 1.355 . S
C650 C652 1.415 . S
C651 C650 1.355 . S
C651 C653 1.419 . S
C652 C650 1.415 . S
C652 C657 1.425 . S
C652 C659 1.409 . S
C653 H645 0.930 1_655 S
C653 C651 1.419 . S
C653 C654 1.362 . S
C654 H646 0.930 . S
C654 C653 1.362 . S
C654 C657 1.409 . S
C655 H647 0.930 . S
C655 C656 1.355 . S
C655 C657 1.415 . S
C656 C655 1.355 . S
C656 C658 1.419 . S
C657 C652 1.425 . S
C657 C654 1.409 . S
C657 C655 1.415 . S
C658 H648 0.930 . S
C658 C656 1.419 . S
C658 C659 1.362 . S
C659 H649 0.930 . S
C659 C652 1.409 . S
C659 C658 1.362 . S
H660 C666 0.930 . S
H661 C669 0.930 . S
H662 C670 0.930 . S
H663 C671 0.930 . S
H664 C674 0.930 . S
H665 C675 0.930 . S
C666 H660 0.930 . S
C666 C667 1.355 . S
C666 C668 1.415 . S
C667 C666 1.355 . S
C667 C669 1.419 . S
C668 C666 1.415 . S
C668 C673 1.425 . S
C668 C675 1.409 . S
C669 H661 0.930 . S
C669 C667 1.419 . S
C669 C670 1.362 . S
C670 H662 0.930 . S
C670 C669 1.362 . S
C670 C673 1.409 . S
C671 H663 0.930 . S
C671 C672 1.355 . S
C671 C673 1.415 . S
C672 C671 1.355 . S
C672 C674 1.419 . S
C673 C668 1.425 . S
C673 C670 1.409 . S
C673 C671 1.415 . S
C674 H664 0.930 . S
C674 C672 1.419 . S
C674 C675 1.362 . S
C675 H665 0.930 . S
C675 C668 1.409 . S
C675 C674 1.362 . S
H676 C682 0.930 . S
H677 C685 0.930 . S
H678 C686 0.930 . S
H679 C687 0.930 . S
H680 C690 0.930 . S
H681 C691 0.930 . S
C682 H676 0.930 . S
C682 C683 1.355 . S
C682 C684 1.415 . S
C683 C682 1.355 . S
C683 C685 1.419 . S
C684 C682 1.415 . S
C684 C689 1.425 . S
C684 C691 1.409 . S
C685 H677 0.930 . S
C685 C683 1.419 . S
C685 C686 1.362 . S
C686 H678 0.930 . S
C686 C685 1.362 . S
C686 C689 1.409 . S
C687 H679 0.930 . S
C687 C688 1.355 . S
C687 C689 1.415 . S
C688 C687 1.355 . S
C688 C690 1.419 . S
C689 C684 1.425 . S
C689 C686 1.409 . S
C689 C687 1.415 . S
C690 H680 0.930 . S
C690 C688 1.419 . S
C690 C691 1.362 . S
C691 H681 0.930 . S
C691 C684 1.409 . S
C691 C690 1.362 . S
H692 C698 0.930 1_655 S
H693 C701 0.930 . S
H694 C702 0.930 . S
H695 C703 0.930 . S
H696 C706 0.930 . S
H697 C707 0.930 . S
C698 H692 0.930 1_455 S
C698 C699 1.355 . S
C698 C700 1.415 . S
C699 C698 1.355 . S
C699 C701 1.419 . S
C700 C698 1.415 . S
C700 C705 1.425 . S
C700 C707 1.409 . S
C701 H693 0.930 . S
C701 C699 1.419 . S
C701 C702 1.362 . S
C702 H694 0.930 . S
C702 C701 1.362 . S
C702 C705 1.409 . S
C703 H695 0.930 . S
C703 C704 1.355 . S
C703 C705 1.415 . S
C704 C703 1.355 . S
C704 C706 1.419 . S
C705 C700 1.425 . S
C705 C702 1.409 . S
C705 C703 1.415 . S
C706 H696 0.930 . S
C706 C704 1.419 . S
C706 C707 1.362 . S
C707 H697 0.930 . S
C707 C700 1.409 . S
C707 C706 1.362 . S
H708 C714 0.930 . S
H709 C717 0.930 . S
H710 C718 0.930 . S
H711 C719 0.930 . S
H712 C722 0.930 . S
H713 C723 0.930 . S
C714 H708 0.930 . S
C714 C715 1.355 . S
C714 C716 1.415 . S
C715 C714 1.355 . S
C715 C717 1.419 . S
C716 C714 1.415 . S
C716 C721 1.425 . S
C716 C723 1.409 . S
C717 H709 0.930 . S
C717 C715 1.419 . S
C717 C718 1.362 . S
C718 H710 0.930 . S
C718 C717 1.362 . S
C718 C721 1.409 . S
C719 H711 0.930 . S
C719 C720 1.355 . S
C719 C721 1.415 1_455 S
C720 C719 1.355 . S
C720 C722 1.419 1_455 S
C721 C716 1.425 . S
C721 C718 1.409 . S
C721 C719 1.415 1_655 S
C722 H712 0.930 . S
C722 C720 1.419 1_655 S
C722 C723 1.362 . S
C723 H713 0.930 . S
C723 C716 1.409 . S
C723 C722 1.362 . S
H724 C730 0.930 . S
H725 C733 0.930 . S
H726 C734 0.930 . S
H727 C735 0.930 . S
H728 C738 0.930 . S
H729 C739 0.930 . S
C730 H724 0.930 . S
C730 C731 1.355 . S
C730 C732 1.415 . S
C731 C730 1.355 . S
C731 C733 1.419 . S
C732 C730 1.415 . S
C732 C737 1.425 . S
C732 C739 1.409 . S
C733 H725 0.930 . S
C733 C731 1.419 . S
C733 C734 1.362 . S
C734 H726 0.930 . S
C734 C733 1.362 . S
C734 C737 1.409 . S
C735 H727 0.930 . S
C735 C736 1.355 . S
C735 C737 1.415 . S
C736 C735 1.355 . S
C736 C738 1.419 . S
C737 C732 1.425 . S
C737 C734 1.409 . S
C737 C735 1.415 . S
C738 H728 0.930 . S
C738 C736 1.419 . S
C738 C739 1.362 . S
C739 H729 0.930 . S
C739 C732 1.409 . S
C739 C738 1.362 . S
H740 C746 0.930 . S
H741 C749 0.930 . S
H742 C750 0.930 . S
H743 C751 0.930 . S
H744 C754 0.930 . S
H745 C755 0.930 . S
C746 H740 0.930 . S
C746 C747 1.355 1_545 S
C746 C748 1.415 . S
C747 C746 1.355 1_565 S
C747 C749 1.419 . S
C748 C746 1.415 . S
C748 C753 1.425 . S
C748 C755 1.409 . S
C749 H741 0.930 . S
C749 C747 1.419 . S
C749 C750 1.362 . S
C750 H742 0.930 . S
C750 C749 1.362 . S
C750 C753 1.409 1_565 S
C751 H743 0.930 . S
C751 C752 1.355 . S
C751 C753 1.415 . S
C752 C751 1.355 . S
C752 C754 1.419 . S
C753 C748 1.425 . S
C753 C750 1.409 1_545 S
C753 C751 1.415 . S
C754 H744 0.930 . S
C754 C752 1.419 . S
C754 C755 1.362 . S
C755 H745 0.930 . S
C755 C748 1.409 . S
C755 C754 1.362 . S
H756 C762 0.930 . S
H757 C765 0.930 . S
H758 C766 0.930 . S
H759 C767 0.930 . S
H760 C770 0.930 . S
H761 C771 0.930 . S
C762 H756 0.930 . S
C762 C763 1.355 . S
C762 C764 1.415 . S
C763 C762 1.355 . S
C763 C765 1.419 . S
C764 C762 1.415 . S
C764 C769 1.425 . S
C764 C771 1.409 1_554 S
C765 H757 0.930 . S
C765 C763 1.419 . S
C765 C766 1.362 . S
C766 H758 0.930 . S
C766 C765 1.362 . S
C766 C769 1.409 . S
C767 H759 0.930 . S
C767 C768 1.355 1_554 S
C767 C769 1.415 . S
C768 C767 1.355 1_556 S
C768 C770 1.419 . S
C769 C764 1.425 . S
C769 C766 1.409 . S
C769 C767 1.415 . S
C770 H760 0.930 . S
C770 C768 1.419 . S
C770 C771 1.362 . S
C771 H761 0.930 . S
C771 C764 1.409 1_556 S
C771 C770 1.362 . S
H772 C778 0.930 . S
H773 C781 0.930 . S
H774 C782 0.930 . S
H775 C783 0.930 1_554 S
H776 C786 0.930 . S
H777 C787 0.930 . S
C778 H772 0.930 . S
C778 C779 1.355 . S
C778 C780 1.415 . S
C779 C778 1.355 . S
C779 C781 1.419 . S
C780 C778 1.415 . S
C780 C785 1.425 . S
C780 C787 1.409 1_554 S
C781 H773 0.930 . S
C781 C779 1.419 . S
C781 C782 1.362 . S
C782 H774 0.930 . S
C782 C781 1.362 . S
C782 C785 1.409 . S
C783 H775 0.930 1_556 S
C783 C784 1.355 . S
C783 C785 1.415 1_556 S
C784 C783 1.355 . S
C784 C786 1.419 . S
C785 C780 1.425 . S
C785 C782 1.409 . S
C785 C783 1.415 1_554 S
C786 H776 0.930 . S
C786 C784 1.419 . S
C786 C787 1.362 . S
C787 H777 0.930 . S
C787 C780 1.409 1_556 S
C787 C786 1.362 . S
H788 C794 0.930 . S
H789 C797 0.930 . S
H790 C798 0.930 . S
H791 C799 0.930 . S
H792 C802 0.930 . S
H793 C803 0.930 . S
C794 H788 0.930 . S
C794 C795 1.355 . S
C794 C796 1.415 . S
C795 C794 1.355 . S
C795 C797 1.419 . S
C796 C794 1.415 . S
C796 C801 1.425 . S
C796 C803 1.409 . S
C797 H789 0.930 . S
C797 C795 1.419 . S
C797 C798 1.362 . S
C798 H790 0.930 . S
C798 C797 1.362 . S
C798 C801 1.409 . S
C799 H791 0.930 . S
C799 C800 1.355 . S
C799 C801 1.415 1_556 S
C800 C799 1.355 . S
C800 C802 1.419 . S
C801 C796 1.425 . S
C801 C798 1.409 . S
C801 C799 1.415 1_554 S
C802 H792 0.930 . S
C802 C800 1.419 . S
C802 C803 1.362 1_556 S
C803 H793 0.930 . S
C803 C796 1.409 . S
C803 C802 1.362 1_554 S
H804 C810 0.930 . S
H805 C813 0.930 . S
H806 C814 0.930 1_554 S
H807 C815 0.930 . S
H808 C818 0.930 . S
H809 C819 0.930 . S
C810 H804 0.930 . S
C810 C811 1.355 . S
C810 C812 1.415 . S
C811 C810 1.355 . S
C811 C813 1.419 . S
C812 C810 1.415 . S
C812 C817 1.425 1_556 S
C812 C819 1.409 . S
C813 H805 0.930 . S
C813 C811 1.419 . S
C813 C814 1.362 . S
C814 H806 0.930 1_556 S
C814 C813 1.362 . S
C814 C817 1.409 1_556 S
C815 H807 0.930 . S
C815 C816 1.355 . S
C815 C817 1.415 . S
C816 C815 1.355 . S
C816 C818 1.419 . S
C817 C812 1.425 1_554 S
C817 C814 1.409 1_554 S
C817 C815 1.415 . S
C818 H808 0.930 . S
C818 C816 1.419 . S
C818 C819 1.362 1_554 S
C819 H809 0.930 . S
C819 C812 1.409 . S
C819 C818 1.362 1_556 S
H820 C826 0.930 . S
H821 C829 0.930 . S
H822 C830 0.930 1_554 S
H823 C831 0.930 . S
H824 C834 0.930 . S
H825 C835 0.930 . S
C826 H820 0.930 . S
C826 C827 1.355 . S
C826 C828 1.415 . S
C827 C826 1.355 . S
C827 C829 1.419 . S
C828 C826 1.415 . S
C828 C833 1.425 . S
C828 C835 1.409 . S
C829 H821 0.930 . S
C829 C827 1.419 . S
C829 C830 1.362 . S
C830 H822 0.930 1_556 S
C830 C829 1.362 . S
C830 C833 1.409 . S
C831 H823 0.930 . S
C831 C832 1.355 . S
C831 C833 1.415 1_554 S
C832 C831 1.355 . S
C832 C834 1.419 . S
C833 C828 1.425 . S
C833 C830 1.409 . S
C833 C831 1.415 1_556 S
C834 H824 0.930 . S
C834 C832 1.419 . S
C834 C835 1.362 1_554 S
C835 H825 0.930 . S
C835 C828 1.409 . S
C835 C834 1.362 1_556 S
H836 C842 0.930 . S
H837 C845 0.930 . S
H838 C846 0.930 . S
H839 C847 0.930 . S
H840 C850 0.930 . S
H841 C851 0.930 . S
C842 H836 0.930 . S
C842 C843 1.355 . S
C842 C844 1.415 . S
C843 C842 1.355 . S
C843 C845 1.419 1_554 S
C844 C842 1.415 . S
C844 C849 1.425 1_554 S
C844 C851 1.409 . S
C845 H837 0.930 . S
C845 C843 1.419 1_556 S
C845 C846 1.362 . S
C846 H838 0.930 . S
C846 C845 1.362 . S
C846 C849 1.409 . S
C847 H839 0.930 . S
C847 C848 1.355 . S
C847 C849 1.415 . S
C848 C847 1.355 . S
C848 C850 1.419 . S
C849 C844 1.425 1_556 S
C849 C846 1.409 . S
C849 C847 1.415 . S
C850 H840 0.930 . S
C850 C848 1.419 . S
C850 C851 1.362 1_556 S
C851 H841 0.930 . S
C851 C844 1.409 . S
C851 C850 1.362 1_554 S
H852 C858 0.930 . S
H853 C861 0.930 . S
H854 C862 0.930 . S
H855 C863 0.930 . S
H856 C866 0.930 . S
H857 C867 0.930 1_655 S
C858 H852 0.930 . S
C858 C859 1.355 . S
C858 C860 1.415 1_655 S
C859 C858 1.355 . S
C859 C861 1.419 1_655 S
C860 C858 1.415 1_455 S
C860 C865 1.425 . S
C860 C867 1.409 . S
C861 H853 0.930 . S
C861 C859 1.419 1_455 S
C861 C862 1.362 . S
C862 H854 0.930 . S
C862 C861 1.362 . S
C862 C865 1.409 . S
C863 H855 0.930 . S
C863 C864 1.355 . S
C863 C865 1.415 . S
C864 C863 1.355 . S
C864 C866 1.419 . S
C865 C860 1.425 . S
C865 C862 1.409 . S
C865 C863 1.415 . S
C866 H856 0.930 . S
C866 C864 1.419 . S
C866 C867 1.362 . S
C867 H857 0.930 1_455 S
C867 C860 1.409 . S
C867 C866 1.362 . S
H868 C874 0.930 . S
H869 C877 0.930 . S
H870 C878 0.930 . S
H871 C879 0.930 . S
H872 C882 0.930 . S
H873 C883 0.930 . S
C874 H868 0.930 . S
C874 C875 1.355 . S
C874 C876 1.415 . S
C875 C874 1.355 . S
C875 C877 1.419 . S
C876 C874 1.415 . S
C876 C881 1.425 . S
C876 C883 1.409 . S
C877 H869 0.930 . S
C877 C875 1.419 . S
C877 C878 1.362 . S
C878 H870 0.930 . S
C878 C877 1.362 . S
C878 C881 1.409 . S
C879 H871 0.930 . S
C879 C880 1.355 . S
C879 C881 1.415 . S
C880 C879 1.355 . S
C880 C882 1.419 . S
C881 C876 1.425 . S
C881 C878 1.409 . S
C881 C879 1.415 . S
C882 H872 0.930 . S
C882 C880 1.419 . S
C882 C883 1.362 . S
C883 H873 0.930 . S
C883 C876 1.409 . S
C883 C882 1.362 . S
H884 C890 0.930 . S
H885 C893 0.930 . S
H886 C894 0.930 1_545 S
H887 C895 0.930 . S
H888 C898 0.930 . S
H889 C899 0.930 . S
C890 H884 0.930 . S
C890 C891 1.355 . S
C890 C892 1.415 . S
C891 C890 1.355 . S
C891 C893 1.419 . S
C892 C890 1.415 . S
C892 C897 1.425 . S
C892 C899 1.409 . S
C893 H885 0.930 . S
C893 C891 1.419 . S
C893 C894 1.362 . S
C894 H886 0.930 1_565 S
C894 C893 1.362 . S
C894 C897 1.409 . S
C895 H887 0.930 . S
C895 C896 1.355 . S
C895 C897 1.415 1_545 S
C896 C895 1.355 . S
C896 C898 1.419 1_545 S
C897 C892 1.425 . S
C897 C894 1.409 . S
C897 C895 1.415 1_565 S
C898 H888 0.930 . S
C898 C896 1.419 1_565 S
C898 C899 1.362 . S
C899 H889 0.930 . S
C899 C892 1.409 . S
C899 C898 1.362 . S
H900 C906 0.930 . S
H901 C909 0.930 . S
H902 C910 0.930 . S
H903 C911 0.930 . S
H904 C914 0.930 . S
H905 C915 0.930 . S
C906 H900 0.930 . S
C906 C907 1.355 . S
C906 C908 1.415 . S
C907 C906 1.355 . S
C907 C909 1.419 . S
C908 C906 1.415 . S
C908 C913 1.425 . S
C908 C915 1.409 . S
C909 H901 0.930 . S
C909 C907 1.419 . S
C909 C910 1.362 . S
C910 H902 0.930 . S
C910 C909 1.362 . S
C910 C913 1.409 . S
C911 H903 0.930 . S
C911 C912 1.355 . S
C911 C913 1.415 . S
C912 C911 1.355 . S
C912 C914 1.419 . S
C913 C908 1.425 . S
C913 C910 1.409 . S
C913 C911 1.415 . S
C914 H904 0.930 . S
C914 C912 1.419 . S
C914 C915 1.362 . S
C915 H905 0.930 . S
C915 C908 1.409 . S
C915 C914 1.362 . S
H916 C922 0.930 . S
H917 C925 0.930 . S
H918 C926 0.930 . S
H919 C927 0.930 . S
H920 C930 0.930 . S
H921 C931 0.930 . S
C922 H916 0.930 . S
C922 C923 1.355 . S
C922 C924 1.415 . S
C923 C922 1.355 . S
C923 C925 1.419 . S
C924 C922 1.415 . S
C924 C929 1.425 . S
C924 C931 1.409 . S
C925 H917 0.930 . S
C925 C923 1.419 . S
C925 C926 1.362 . S
C926 H918 0.930 . S
C926 C925 1.362 . S
C926 C929 1.409 . S
C927 H919 0.930 . S
C927 C928 1.355 . S
C927 C929 1.415 . S
C928 C927 1.355 . S
C928 C930 1.419 . S
C929 C924 1.425 . S
C929 C926 1.409 . S
C929 C927 1.415 . S
C930 H920 0.930 . S
C930 C928 1.419 . S
C930 C931 1.362 . S
C931 H921 0.930 . S
C931 C924 1.409 . S
C931 C930 1.362 . S
H932 C938 0.930 . S
H933 C941 0.930 . S
H934 C942 0.930 . S
H935 C943 0.930 . S
H936 C946 0.930 . S
H937 C947 0.930 . S
C938 H932 0.930 . S
C938 C939 1.355 . S
C938 C940 1.415 . S
C939 C938 1.355 . S
C939 C941 1.419 . S
C940 C938 1.415 . S
C940 C945 1.425 . S
C940 C947 1.409 . S
C941 H933 0.930 . S
C941 C939 1.419 . S
C941 C942 1.362 . S
C942 H934 0.930 . S
C942 C941 1.362 . S
C942 C945 1.409 . S
C943 H935 0.930 . S
C943 C944 1.355 . S
C943 C945 1.415 . S
C944 C943 1.355 . S
C944 C946 1.419 . S
C945 C940 1.425 . S
C945 C942 1.409 . S
C945 C943 1.415 . S
C946 H936 0.930 . S
C946 C944 1.419 . S
C946 C947 1.362 . S
C947 H937 0.930 . S
C947 C940 1.409 . S
C947 C946 1.362 . S
H948 C954 0.930 . S
H949 C957 0.930 . S
H950 C958 0.930 . S
H951 C959 0.930 . S
H952 C962 0.930 . S
H953 C963 0.930 . S
C954 H948 0.930 . S
C954 C955 1.355 . S
C954 C956 1.415 . S
C955 C954 1.355 . S
C955 C957 1.419 . S
C956 C954 1.415 . S
C956 C961 1.425 . S
C956 C963 1.409 . S
C957 H949 0.930 . S
C957 C955 1.419 . S
C957 C958 1.362 . S
C958 H950 0.930 . S
C958 C957 1.362 . S
C958 C961 1.409 . S
C959 H951 0.930 . S
C959 C960 1.355 . S
C959 C961 1.415 . S
C960 C959 1.355 . S
C960 C962 1.419 . S
C961 C956 1.425 . S
C961 C958 1.409 . S
C961 C959 1.415 . S
C962 H952 0.930 . S
C962 C960 1.419 . S
C962 C963 1.362 . S
C963 H953 0.930 . S
C963 C956 1.409 . S
C963 C962 1.362 . S
H964 C970 0.930 . S
H965 C973 0.930 . S
H966 C974 0.930 . S
H967 C975 0.930 . S
H968 C978 0.930 . S
H969 C979 0.930 . S
C970 H964 0.930 . S
C970 C971 1.355 . S
C970 C972 1.415 . S
C971 C970 1.355 . S
C971 C973 1.419 . S
C972 C970 1.415 . S
C972 C977 1.425 . S
C972 C979 1.409 . S
C973 H965 0.930 . S
C973 C971 1.419 . S
C973 C974 1.362 . S
C974 H966 0.930 . S
C974 C973 1.362 . S
C974 C977 1.409 . S
C975 H967 0.930 . S
C975 C976 1.355 . S
C975 C977 1.415 . S
C976 C975 1.355 . S
C976 C978 1.419 . S
C977 C972 1.425 . S
C977 C974 1.409 . S
C977 C975 1.415 . S
C978 H968 0.930 . S
C978 C976 1.419 . S
C978 C979 1.362 . S
C979 H969 0.930 . S
C979 C972 1.409 . S
C979 C978 1.362 . S
H980 C986 0.930 . S
H981 C989 0.930 . S
H982 C990 0.930 . S
H983 C991 0.930 . S
H984 C994 0.930 . S
H985 C995 0.930 . S
C986 H980 0.930 . S
C986 C987 1.355 . S
C986 C988 1.415 . S
C987 C986 1.355 . S
C987 C989 1.419 . S
C988 C986 1.415 . S
C988 C993 1.425 . S
C988 C995 1.409 . S
C989 H981 0.930 . S
C989 C987 1.419 . S
C989 C990 1.362 . S
C990 H982 0.930 . S
C990 C989 1.362 . S
C990 C993 1.409 . S
C991 H983 0.930 . S
C991 C992 1.355 . S
C991 C993 1.415 . S
C992 C991 1.355 . S
C992 C994 1.419 . S
C993 C988 1.425 . S
C993 C990 1.409 . S
C993 C991 1.415 . S
C994 H984 0.930 . S
C994 C992 1.419 . S
C994 C995 1.362 . S
C995 H985 0.930 . S
C995 C988 1.409 . S
C995 C994 1.362 . S
H996 C1002 0.930 . S
H997 C1005 0.930 . S
H998 C1006 0.930 . S
H999 C1007 0.930 . S
H1000 C1010 0.930 . S
H1001 C1011 0.930 . S
C1002 H996 0.930 . S
C1002 C1003 1.355 . S
C1002 C1004 1.415 . S
C1003 C1002 1.355 . S
C1003 C1005 1.419 . S
C1004 C1002 1.415 . S
C1004 C1009 1.425 1_544 S
C1004 C1011 1.409 1_545 S
C1005 H997 0.930 . S
C1005 C1003 1.419 . S
C1005 C1006 1.362 1_554 S
C1006 H998 0.930 . S
C1006 C1005 1.362 1_556 S
C1006 C1009 1.409 1_545 S
C1007 H999 0.930 . S
C1007 C1008 1.355 . S
C1007 C1009 1.415 . S
C1008 C1007 1.355 . S
C1008 C1010 1.419 . S
C1009 C1004 1.425 1_566 S
C1009 C1006 1.409 1_565 S
C1009 C1007 1.415 . S
C1010 H1000 0.930 . S
C1010 C1008 1.419 . S
C1010 C1011 1.362 1_556 S
C1011 H1001 0.930 . S
C1011 C1004 1.409 1_565 S
C1011 C1010 1.362 1_554 S
H1012 C1018 0.930 . S
H1013 C1021 0.930 . S
H1014 C1022 0.930 . S
H1015 C1023 0.930 . S
H1016 C1026 0.930 . S
H1017 C1027 0.930 . S
C1018 H1012 0.930 . S
C1018 C1019 1.355 . S
C1018 C1020 1.415 1_455 S
C1019 C1018 1.355 . S
C1019 C1021 1.419 . S
C1020 C1018 1.415 1_655 S
C1020 C1025 1.425 1_656 S
C1020 C1027 1.409 . S
C1021 H1013 0.930 . S
C1021 C1019 1.419 . S
C1021 C1022 1.362 1_556 S
C1022 H1014 0.930 . S
C1022 C1021 1.362 1_554 S
C1022 C1025 1.409 . S
C1023 H1015 0.930 . S
C1023 C1024 1.355 . S
C1023 C1025 1.415 1_655 S
C1024 C1023 1.355 . S
C1024 C1026 1.419 . S
C1025 C1020 1.425 1_454 S
C1025 C1022 1.409 . S
C1025 C1023 1.415 1_455 S
C1026 H1016 0.930 . S
C1026 C1024 1.419 . S
C1026 C1027 1.362 1_554 S
C1027 H1017 0.930 . S
C1027 C1020 1.409 . S
C1027 C1026 1.362 1_556 S
H1028 C1034 0.930 . S
H1029 C1037 0.930 . S
H1030 C1038 0.930 . S
H1031 C1039 0.930 . S
H1032 C1042 0.930 . S
H1033 C1043 0.930 . S
C1034 H1028 0.930 . S
C1034 C1035 1.355 . S
C1034 C1036 1.415 1_556 S
C1035 C1034 1.355 . S
C1035 C1037 1.419 . S
C1036 C1034 1.415 1_554 S
C1036 C1041 1.425 1_554 S
C1036 C1043 1.409 . S
C1037 H1029 0.930 . S
C1037 C1035 1.419 . S
C1037 C1038 1.362 . S
C1038 H1030 0.930 . S
C1038 C1037 1.362 . S
C1038 C1041 1.409 . S
C1039 H1031 0.930 . S
C1039 C1040 1.355 . S
C1039 C1041 1.415 1_554 S
C1040 C1039 1.355 . S
C1040 C1042 1.419 . S
C1041 C1036 1.425 1_556 S
C1041 C1038 1.409 . S
C1041 C1039 1.415 1_556 S
C1042 H1032 0.930 . S
C1042 C1040 1.419 . S
C1042 C1043 1.362 . S
C1043 H1033 0.930 . S
C1043 C1036 1.409 . S
C1043 C1042 1.362 . S
H1044 C1050 0.930 . S
H1045 C1053 0.930 . S
H1046 C1054 0.930 1_556 S
H1047 C1055 0.930 . S
H1048 C1058 0.930 . S
H1049 C1059 0.930 . S
C1050 H1044 0.930 . S
C1050 C1051 1.355 . S
C1050 C1052 1.415 . S
C1051 C1050 1.355 . S
C1051 C1053 1.419 . S
C1052 C1050 1.415 . S
C1052 C1057 1.425 . S
C1052 C1059 1.409 . S
C1053 H1045 0.930 . S
C1053 C1051 1.419 . S
C1053 C1054 1.362 . S
C1054 H1046 0.930 1_554 S
C1054 C1053 1.362 . S
C1054 C1057 1.409 . S
C1055 H1047 0.930 . S
C1055 C1056 1.355 . S
C1055 C1057 1.415 1_556 S
C1056 C1055 1.355 . S
C1056 C1058 1.419 1_556 S
C1057 C1052 1.425 . S
C1057 C1054 1.409 . S
C1057 C1055 1.415 1_554 S
C1058 H1048 0.930 . S
C1058 C1056 1.419 1_554 S
C1058 C1059 1.362 . S
C1059 H1049 0.930 . S
C1059 C1052 1.409 . S
C1059 C1058 1.362 . S
H1060 C1066 0.930 . S
H1061 C1069 0.930 . S
H1062 C1070 0.930 . S
H1063 C1071 0.930 . S
H1064 C1074 0.930 1_565 S
H1065 C1075 0.930 1_556 S
C1066 H1060 0.930 . S
C1066 C1067 1.355 . S
C1066 C1068 1.415 1_556 S
C1067 C1066 1.355 . S
C1067 C1069 1.419 1_556 S
C1068 C1066 1.415 1_554 S
C1068 C1073 1.425 . S
C1068 C1075 1.409 . S
C1069 H1061 0.930 . S
C1069 C1067 1.419 1_554 S
C1069 C1070 1.362 . S
C1070 H1062 0.930 . S
C1070 C1069 1.362 . S
C1070 C1073 1.409 . S
C1071 H1063 0.930 . S
C1071 C1072 1.355 1_545 S
C1071 C1073 1.415 . S
C1072 C1071 1.355 1_565 S
C1072 C1074 1.419 1_565 S
C1073 C1068 1.425 . S
C1073 C1070 1.409 . S
C1073 C1071 1.415 . S
C1074 H1064 0.930 1_545 S
C1074 C1072 1.419 1_545 S
C1074 C1075 1.362 . S
C1075 H1065 0.930 1_554 S
C1075 C1068 1.409 . S
C1075 C1074 1.362 . S
H1076 C1082 0.930 1_455 S
H1077 C1085 0.930 . S
H1078 C1086 0.930 . S
H1079 C1087 0.930 . S
H1080 C1090 0.930 . S
H1081 C1091 0.930 . S
C1082 H1076 0.930 1_655 S
C1082 C1083 1.355 1_655 S
C1082 C1084 1.415 . S
C1083 C1082 1.355 1_455 S
C1083 C1085 1.419 1_455 S
C1084 C1082 1.415 . S
C1084 C1089 1.425 . S
C1084 C1091 1.409 1_554 S
C1085 H1077 0.930 . S
C1085 C1083 1.419 1_655 S
C1085 C1086 1.362 . S
C1086 H1078 0.930 . S
C1086 C1085 1.362 . S
C1086 C1089 1.409 . S
C1087 H1079 0.930 . S
C1087 C1088 1.355 1_554 S
C1087 C1089 1.415 . S
C1088 C1087 1.355 1_556 S
C1088 C1090 1.419 . S
C1089 C1084 1.425 . S
C1089 C1086 1.409 . S
C1089 C1087 1.415 . S
C1090 H1080 0.930 . S
C1090 C1088 1.419 . S
C1090 C1091 1.362 . S
C1091 H1081 0.930 . S
C1091 C1084 1.409 1_556 S
C1091 C1090 1.362 . S
H1092 C1098 0.930 . S
H1093 C1101 0.930 . S
H1094 C1102 0.930 . S
H1095 C1103 0.930 . S
H1096 C1106 0.930 . S
H1097 C1107 0.930 . S
C1098 H1092 0.930 . S
C1098 C1099 1.355 1_556 S
C1098 C1100 1.415 . S
C1099 C1098 1.355 1_554 S
C1099 C1101 1.419 . S
C1100 C1098 1.415 . S
C1100 C1105 1.425 . S
C1100 C1107 1.409 . S
C1101 H1093 0.930 . S
C1101 C1099 1.419 . S
C1101 C1102 1.362 . S
C1102 H1094 0.930 . S
C1102 C1101 1.362 . S
C1102 C1105 1.409 1_554 S
C1103 H1095 0.930 . S
C1103 C1104 1.355 . S
C1103 C1105 1.415 . S
C1104 C1103 1.355 . S
C1104 C1106 1.419 . S
C1105 C1100 1.425 . S
C1105 C1102 1.409 1_556 S
C1105 C1103 1.415 . S
C1106 H1096 0.930 . S
C1106 C1104 1.419 . S
C1106 C1107 1.362 . S
C1107 H1097 0.930 . S
C1107 C1100 1.409 . S
C1107 C1106 1.362 . S
H1108 C1114 0.930 . S
H1109 C1117 0.930 . S
H1110 C1118 0.930 . S
H1111 C1119 0.930 . S
H1112 C1122 0.930 . S
H1113 C1123 0.930 . S
C1114 H1108 0.930 . S
C1114 C1115 1.355 1_565 S
C1114 C1116 1.415 . S
C1115 C1114 1.355 1_545 S
C1115 C1117 1.419 . S
C1116 C1114 1.415 . S
C1116 C1121 1.429 . S
C1116 C1123 1.409 . S
C1117 H1109 0.930 . S
C1117 C1115 1.419 . S
C1117 C1118 1.362 1_546 S
C1118 H1110 0.930 . S
C1118 C1117 1.362 1_564 S
C1118 C1121 1.408 1_554 S
C1119 H1111 0.930 . S
C1119 C1120 1.355 . S
C1119 C1121 1.412 1_554 S
C1120 C1119 1.355 . S
C1120 C1122 1.419 1_554 S
C1121 C1116 1.429 . S
C1121 C1118 1.408 1_556 S
C1121 C1119 1.412 1_556 S
C1122 H1112 0.930 . S
C1122 C1120 1.419 1_556 S
C1122 C1123 1.362 . S
C1123 H1113 0.930 . S
C1123 C1116 1.409 . S
C1123 C1122 1.362 . S
H1124 C1130 0.930 . S
H1125 C1133 0.930 . S
H1126 C1134 0.930 . S
H1127 C1135 0.930 1_655 S
H1128 C1138 0.930 . S
H1129 C1139 0.930 . S
C1130 H1124 0.930 . S
C1130 C1131 1.355 1_556 S
C1130 C1132 1.415 . S
C1131 C1130 1.355 1_554 S
C1131 C1133 1.419 . S
C1132 C1130 1.415 . S
C1132 C1137 1.425 . S
C1132 C1139 1.409 . S
C1133 H1125 0.930 . S
C1133 C1131 1.419 . S
C1133 C1134 1.362 . S
C1134 H1126 0.930 . S
C1134 C1133 1.362 . S
C1134 C1137 1.409 1_554 S
C1135 H1127 0.930 1_455 S
C1135 C1136 1.355 1_455 S
C1135 C1137 1.415 . S
C1136 C1135 1.355 1_655 S
C1136 C1138 1.419 1_655 S
C1137 C1132 1.425 . S
C1137 C1134 1.409 1_556 S
C1137 C1135 1.415 . S
C1138 H1128 0.930 . S
C1138 C1136 1.419 1_455 S
C1138 C1139 1.362 . S
C1139 H1129 0.930 . S
C1139 C1132 1.409 . S
C1139 C1138 1.362 . S
H1140 C1146 0.930 . S
H1141 C1149 0.930 . S
H1142 C1150 0.930 . S
H1143 C1151 0.930 . S
H1144 C1154 0.930 . S
H1145 C1155 0.930 . S
C1146 H1140 0.930 . S
C1146 C1147 1.355 . S
C1146 C1148 1.415 . S
C1147 C1146 1.355 . S
C1147 C1149 1.419 . S
C1148 C1146 1.415 . S
C1148 C1153 1.425 . S
C1148 C1155 1.409 . S
C1149 H1141 0.930 . S
C1149 C1147 1.419 . S
C1149 C1150 1.362 . S
C1150 H1142 0.930 . S
C1150 C1149 1.362 . S
C1150 C1153 1.409 . S
C1151 H1143 0.930 . S
C1151 C1152 1.355 . S
C1151 C1153 1.415 . S
C1152 C1151 1.355 . S
C1152 C1154 1.419 . S
C1153 C1148 1.425 . S
C1153 C1150 1.409 . S
C1153 C1151 1.415 . S
C1154 H1144 0.930 . S
C1154 C1152 1.419 . S
C1154 C1155 1.362 . S
C1155 H1145 0.930 . S
C1155 C1148 1.409 . S
C1155 C1154 1.362 . S
H1156 C1162 0.930 . S
H1157 C1165 0.930 . S
H1158 C1166 0.930 . S
H1159 C1167 0.930 . S
H1160 C1170 0.930 . S
H1161 C1171 0.930 . S
C1162 H1156 0.930 . S
C1162 C1163 1.355 . S
C1162 C1164 1.415 . S
C1163 C1162 1.355 . S
C1163 C1165 1.419 . S
C1164 C1162 1.415 . S
C1164 C1169 1.425 . S
C1164 C1171 1.409 . S
C1165 H1157 0.930 . S
C1165 C1163 1.419 . S
C1165 C1166 1.362 . S
C1166 H1158 0.930 . S
C1166 C1165 1.362 . S
C1166 C1169 1.409 . S
C1167 H1159 0.930 . S
C1167 C1168 1.355 . S
C1167 C1169 1.415 . S
C1168 C1167 1.355 . S
C1168 C1170 1.419 . S
C1169 C1164 1.425 . S
C1169 C1166 1.409 . S
C1169 C1167 1.415 . S
C1170 H1160 0.930 . S
C1170 C1168 1.419 . S
C1170 C1171 1.362 . S
C1171 H1161 0.930 . S
C1171 C1164 1.409 . S
C1171 C1170 1.362 . S
H1172 C1178 0.930 . S
H1173 C1181 0.930 . S
H1174 C1182 0.930 . S
H1175 C1183 0.930 . S
H1176 C1186 0.930 . S
H1177 C1187 0.930 . S
C1178 H1172 0.930 . S
C1178 C1179 1.355 . S
C1178 C1180 1.415 . S
C1179 C1178 1.355 . S
C1179 C1181 1.419 . S
C1180 C1178 1.415 . S
C1180 C1185 1.425 . S
C1180 C1187 1.409 . S
C1181 H1173 0.930 . S
C1181 C1179 1.419 . S
C1181 C1182 1.362 . S
C1182 H1174 0.930 . S
C1182 C1181 1.362 . S
C1182 C1185 1.409 . S
C1183 H1175 0.930 . S
C1183 C1184 1.355 . S
C1183 C1185 1.415 . S
C1184 C1183 1.355 . S
C1184 C1186 1.419 . S
C1185 C1180 1.425 . S
C1185 C1182 1.409 . S
C1185 C1183 1.415 . S
C1186 H1176 0.930 . S
C1186 C1184 1.419 . S
C1186 C1187 1.362 . S
C1187 H1177 0.930 . S
C1187 C1180 1.409 . S
C1187 C1186 1.362 . S
H1188 C1194 0.930 . S
H1189 C1197 0.930 . S
H1190 C1198 0.930 . S
H1191 C1199 0.930 . S
H1192 C1202 0.930 . S
H1193 C1203 0.930 . S
C1194 H1188 0.930 . S
C1194 C1195 1.355 . S
C1194 C1196 1.415 . S
C1195 C1194 1.355 . S
C1195 C1197 1.419 . S
C1196 C1194 1.415 . S
C1196 C1201 1.425 . S
C1196 C1203 1.409 . S
C1197 H1189 0.930 . S
C1197 C1195 1.419 . S
C1197 C1198 1.362 . S
C1198 H1190 0.930 . S
C1198 C1197 1.362 . S
C1198 C1201 1.409 . S
C1199 H1191 0.930 . S
C1199 C1200 1.355 . S
C1199 C1201 1.415 . S
C1200 C1199 1.355 . S
C1200 C1202 1.419 . S
C1201 C1196 1.425 . S
C1201 C1198 1.409 . S
C1201 C1199 1.415 . S
C1202 H1192 0.930 . S
C1202 C1200 1.419 . S
C1202 C1203 1.362 . S
C1203 H1193 0.930 . S
C1203 C1196 1.409 . S
C1203 C1202 1.362 . S
H1204 C1210 0.930 . S
H1205 C1213 0.930 . S
H1206 C1214 0.930 . S
H1207 C1215 0.930 . S
H1208 C1218 0.930 . S
H1209 C1219 0.930 . S
C1210 H1204 0.930 . S
C1210 C1211 1.355 . S
C1210 C1212 1.415 . S
C1211 C1210 1.355 . S
C1211 C1213 1.419 . S
C1212 C1210 1.415 . S
C1212 C1217 1.425 . S
C1212 C1219 1.409 . S
C1213 H1205 0.930 . S
C1213 C1211 1.419 . S
C1213 C1214 1.362 . S
C1214 H1206 0.930 . S
C1214 C1213 1.362 . S
C1214 C1217 1.409 . S
C1215 H1207 0.930 . S
C1215 C1216 1.355 . S
C1215 C1217 1.415 . S
C1216 C1215 1.355 . S
C1216 C1218 1.419 . S
C1217 C1212 1.425 . S
C1217 C1214 1.409 . S
C1217 C1215 1.415 . S
C1218 H1208 0.930 . S
C1218 C1216 1.419 . S
C1218 C1219 1.362 . S
C1219 H1209 0.930 . S
C1219 C1212 1.409 . S
C1219 C1218 1.362 . S
H1220 C1226 0.930 . S
H1221 C1229 0.930 . S
H1222 C1230 0.930 . S
H1223 C1231 0.930 . S
H1224 C1234 0.930 . S
H1225 C1235 0.930 . S
C1226 H1220 0.930 . S
C1226 C1227 1.355 . S
C1226 C1228 1.415 . S
C1227 C1226 1.355 . S
C1227 C1229 1.419 . S
C1228 C1226 1.415 . S
C1228 C1233 1.425 . S
C1228 C1235 1.409 . S
C1229 H1221 0.930 . S
C1229 C1227 1.419 . S
C1229 C1230 1.362 . S
C1230 H1222 0.930 . S
C1230 C1229 1.362 . S
C1230 C1233 1.409 . S
C1231 H1223 0.930 . S
C1231 C1232 1.355 . S
C1231 C1233 1.415 . S
C1232 C1231 1.355 . S
C1232 C1234 1.419 . S
C1233 C1228 1.425 . S
C1233 C1230 1.409 . S
C1233 C1231 1.415 . S
C1234 H1224 0.930 . S
C1234 C1232 1.419 . S
C1234 C1235 1.362 . S
C1235 H1225 0.930 . S
C1235 C1228 1.409 . S
C1235 C1234 1.362 . S
H1236 C1242 0.930 . S
H1237 C1245 0.930 . S
H1238 C1246 0.930 . S
H1239 C1247 0.930 . S
H1240 C1250 0.930 . S
H1241 C1251 0.930 . S
C1242 H1236 0.930 . S
C1242 C1243 1.355 . S
C1242 C1244 1.415 . S
C1243 C1242 1.355 . S
C1243 C1245 1.419 . S
C1244 C1242 1.415 . S
C1244 C1249 1.425 . S
C1244 C1251 1.409 . S
C1245 H1237 0.930 . S
C1245 C1243 1.419 . S
C1245 C1246 1.362 . S
C1246 H1238 0.930 . S
C1246 C1245 1.362 . S
C1246 C1249 1.409 . S
C1247 H1239 0.930 . S
C1247 C1248 1.355 . S
C1247 C1249 1.415 . S
C1248 C1247 1.355 . S
C1248 C1250 1.419 . S
C1249 C1244 1.425 . S
C1249 C1246 1.409 . S
C1249 C1247 1.415 . S
C1250 H1240 0.930 . S
C1250 C1248 1.419 . S
C1250 C1251 1.362 . S
C1251 H1241 0.930 . S
C1251 C1244 1.409 . S
C1251 C1250 1.362 . S
H1252 C1258 0.930 . S
H1253 C1261 0.930 . S
H1254 C1262 0.930 . S
H1255 C1263 0.930 . S
H1256 C1266 0.930 . S
H1257 C1267 0.930 . S
C1258 H1252 0.930 . S
C1258 C1259 1.355 . S
C1258 C1260 1.415 . S
C1259 C1258 1.355 . S
C1259 C1261 1.419 . S
C1260 C1258 1.415 . S
C1260 C1265 1.425 . S
C1260 C1267 1.409 . S
C1261 H1253 0.930 . S
C1261 C1259 1.419 . S
C1261 C1262 1.362 . S
C1262 H1254 0.930 . S
C1262 C1261 1.362 . S
C1262 C1265 1.409 . S
C1263 H1255 0.930 . S
C1263 C1264 1.355 . S
C1263 C1265 1.415 . S
C1264 C1263 1.355 . S
C1264 C1266 1.419 . S
C1265 C1260 1.425 . S
C1265 C1262 1.409 . S
C1265 C1263 1.415 . S
C1266 H1256 0.930 . S
C1266 C1264 1.419 . S
C1266 C1267 1.362 . S
C1267 H1257 0.930 . S
C1267 C1260 1.409 . S
C1267 C1266 1.362 . S
H1268 C1274 0.930 . S
H1269 C1277 0.930 . S
H1270 C1278 0.930 . S
H1271 C1279 0.930 . S
H1272 C1282 0.930 . S
H1273 C1283 0.930 . S
C1274 H1268 0.930 . S
C1274 C1275 1.355 . S
C1274 C1276 1.415 . S
C1275 C1274 1.355 . S
C1275 C1277 1.419 . S
C1276 C1274 1.415 . S
C1276 C1281 1.425 . S
C1276 C1283 1.409 . S
C1277 H1269 0.930 . S
C1277 C1275 1.419 . S
C1277 C1278 1.362 . S
C1278 H1270 0.930 . S
C1278 C1277 1.362 . S
C1278 C1281 1.409 . S
C1279 H1271 0.930 . S
C1279 C1280 1.355 . S
C1279 C1281 1.415 . S
C1280 C1279 1.355 . S
C1280 C1282 1.419 . S
C1281 C1276 1.425 . S
C1281 C1278 1.409 . S
C1281 C1279 1.415 . S
C1282 H1272 0.930 . S
C1282 C1280 1.419 . S
C1282 C1283 1.362 . S
C1283 H1273 0.930 . S
C1283 C1276 1.409 . S
C1283 C1282 1.362 . S
H1284 C1290 0.930 . S
H1285 C1293 0.930 . S
H1286 C1294 0.930 . S
H1287 C1295 0.930 . S
H1288 C1298 0.930 . S
H1289 C1299 0.930 . S
C1290 H1284 0.930 . S
C1290 C1291 1.355 . S
C1290 C1292 1.415 . S
C1291 C1290 1.355 . S
C1291 C1293 1.419 . S
C1292 C1290 1.415 . S
C1292 C1297 1.425 . S
C1292 C1299 1.409 . S
C1293 H1285 0.930 . S
C1293 C1291 1.419 . S
C1293 C1294 1.362 . S
C1294 H1286 0.930 . S
C1294 C1293 1.362 . S
C1294 C1297 1.409 . S
C1295 H1287 0.930 . S
C1295 C1296 1.355 . S
C1295 C1297 1.415 . S
C1296 C1295 1.355 . S
C1296 C1298 1.419 . S
C1297 C1292 1.425 . S
C1297 C1294 1.409 . S
C1297 C1295 1.415 . S
C1298 H1288 0.930 . S
C1298 C1296 1.419 . S
C1298 C1299 1.362 . S
C1299 H1289 0.930 . S
C1299 C1292 1.409 . S
C1299 C1298 1.362 . S
H1300 C1306 0.930 . S
H1301 C1309 0.930 . S
H1302 C1310 0.930 . S
H1303 C1311 0.930 . S
H1304 C1314 0.930 . S
H1305 C1315 0.930 . S
C1306 H1300 0.930 . S
C1306 C1307 1.355 . S
C1306 C1308 1.415 . S
C1307 C1306 1.355 . S
C1307 C1309 1.419 . S
C1308 C1306 1.415 . S
C1308 C1313 1.425 . S
C1308 C1315 1.409 . S
C1309 H1301 0.930 . S
C1309 C1307 1.419 . S
C1309 C1310 1.362 . S
C1310 H1302 0.930 . S
C1310 C1309 1.362 . S
C1310 C1313 1.409 . S
C1311 H1303 0.930 . S
C1311 C1312 1.355 . S
C1311 C1313 1.415 . S
C1312 C1311 1.355 . S
C1312 C1314 1.419 . S
C1313 C1308 1.425 . S
C1313 C1310 1.409 . S
C1313 C1311 1.415 . S
C1314 H1304 0.930 . S
C1314 C1312 1.419 . S
C1314 C1315 1.362 . S
C1315 H1305 0.930 . S
C1315 C1308 1.409 . S
C1315 C1314 1.362 . S
H1316 C1322 0.930 . S
H1317 C1325 0.930 . S
H1318 C1326 0.930 . S
H1319 C1327 0.930 . S
H1320 C1330 0.930 . S
H1321 C1331 0.930 . S
C1322 H1316 0.930 . S
C1322 C1323 1.355 . S
C1322 C1324 1.415 . S
C1323 C1322 1.355 . S
C1323 C1325 1.419 . S
C1324 C1322 1.415 . S
C1324 C1329 1.425 . S
C1324 C1331 1.409 . S
C1325 H1317 0.930 . S
C1325 C1323 1.419 . S
C1325 C1326 1.362 . S
C1326 H1318 0.930 . S
C1326 C1325 1.362 . S
C1326 C1329 1.409 . S
C1327 H1319 0.930 . S
C1327 C1328 1.355 . S
C1327 C1329 1.415 . S
C1328 C1327 1.355 . S
C1328 C1330 1.419 . S
C1329 C1324 1.425 . S
C1329 C1326 1.409 . S
C1329 C1327 1.415 . S
C1330 H1320 0.930 . S
C1330 C1328 1.419 . S
C1330 C1331 1.362 . S
C1331 H1321 0.930 . S
C1331 C1324 1.409 . S
C1331 C1330 1.362 . S
C619 C5 1.371 . S
C624 C271 1.375 . S
C635 C39 1.351 1_545 S
C640 C305 1.371 . S
C651 C73 1.337 1_655 S
C656 C237 1.372 . S
C667 C577 1.372 . S
C672 C107 1.336 . S
C683 C141 1.371 1_565 S
C688 C611 1.388 . S
C699 C175 1.336 1_455 S
C704 C543 1.376 . S
C715 C209 1.375 . S
C720 C475 1.388 . S
C731 C509 1.373 . S
C736 C243 1.335 . S
C747 C441 1.372 . S
C752 C277 1.361 . S
C763 C311 1.358 . S
C768 C169 1.386 . S
C779 C345 1.345 . S
C784 C203 1.382 . S
C795 C379 1.385 . S
C800 C135 1.382 . S
C811 C413 1.335 . S
C816 C67 1.375 . S
C827 C447 1.336 . S
C832 C101 1.376 . S
C843 C33 1.372 . S
C848 C481 1.358 . S
C859 C373 1.387 . S
C864 C515 1.384 . S
C875 C549 1.349 . S
C880 C407 1.371 . S
C891 C583 1.386 . S
C896 C339 1.386 . S
C907 C530 1.619 . S
C912 C20 1.619 . S
C923 C564 1.612 . S
C928 C54 1.612 . S
C939 C88 1.631 . S
C944 C598 1.631 . S
C955 C122 1.622 . S
C960 C224 1.622 . S
C971 C156 1.614 . S
C976 C258 1.614 . S
C987 C292 1.654 . S
C992 C190 1.654 . S
C1003 C326 1.628 . S
C1008 C428 1.628 . S
C1019 C462 1.633 . S
C1024 C360 1.633 . S
C1035 C496 1.615 . S
C1040 C394 1.615 . S
C1051 C2 1.476 . S
C1056 C145 1.392 . S
C1067 C179 1.438 . S
C1072 C36 1.445 . S
C1083 C70 1.479 . S
C1088 C111 1.419 . S
C1099 C43 1.460 . S
C1104 C104 1.451 . S
C1115 C138 1.463 . S
C1120 C77 1.406 . S
C1131 C9 1.464 . S
C1136 C172 1.445 . S
C1147 C206 1.454 . S
C1152 C349 1.457 . S
C1163 C383 1.457 . S
C1168 C240 1.439 . S
C1179 C315 1.403 . S
C1184 C274 1.484 . S
C1195 C308 1.455 . S
C1200 C247 1.418 . S
C1211 C281 1.459 . S
C1216 C342 1.439 . S
C1227 C376 1.481 . S
C1232 C213 1.390 . S
C1243 C553 1.390 . S
C1248 C410 1.482 . S
C1259 C587 1.401 . S
C1264 C444 1.485 . S
C1275 C519 1.395 . S
C1280 C478 1.473 . S
C1291 C451 1.461 . S
C1296 C512 1.449 . S
C1307 C485 1.392 . S
C1312 C546 1.476 . S
C1323 C580 1.480 . S
C1328 C417 1.390 . S
