# Generated by pormake.
# Topology mmt, (4)-cn, num edge types: 1
# Building blocks:
#     Node 0, Type 0, BuildingBlock: NAHDIM_clean_sbu_0, # of connection points: 4
#     Node 1, Type 0, BuildingBlock: NAHDIM_clean_sbu_0, # of connection points: 4
#     Node 2, Type 0, BuildingBlock: NAHDIM_clean_sbu_0, # of connection points: 4
#     Node 3, Type 0, BuildingBlock: NAHDIM_clean_sbu_0, # of connection points: 4
#     Node 4, Type 0, BuildingBlock: NAHDIM_clean_sbu_0, # of connection points: 4
#     Node 5, Type 0, BuildingBlock: NAHDIM_clean_sbu_0, # of connection points: 4
#     Node 6, Type 0, BuildingBlock: NAHDIM_clean_sbu_0, # of connection points: 4
#     Node 7, Type 0, BuildingBlock: NAHDIM_clean_sbu_0, # of connection points: 4
#     Edge 8, Type (0, 0), BuildingBlock: EZIPEK_clean_linker_0, # of connection points: 2
#     Edge 9, Type (0, 0), BuildingBlock: EZIPEK_clean_linker_0, # of connection points: 2
#     Edge 10, Type (0, 0), BuildingBlock: EZIPEK_clean_linker_0, # of connection points: 2
#     Edge 11, Type (0, 0), BuildingBlock: EZIPEK_clean_linker_0, # of connection points: 2
#     Edge 12, Type (0, 0), BuildingBlock: EZIPEK_clean_linker_0, # of connection points: 2
#     Edge 13, Type (0, 0), BuildingBlock: EZIPEK_clean_linker_0, # of connection points: 2
#     Edge 14, Type (0, 0), BuildingBlock: EZIPEK_clean_linker_0, # of connection points: 2
#     Edge 15, Type (0, 0), BuildingBlock: EZIPEK_clean_linker_0, # of connection points: 2
#     Edge 16, Type (0, 0), BuildingBlock: EZIPEK_clean_linker_0, # of connection points: 2
#     Edge 17, Type (0, 0), BuildingBlock: EZIPEK_clean_linker_0, # of connection points: 2
#     Edge 18, Type (0, 0), BuildingBlock: EZIPEK_clean_linker_0, # of connection points: 2
#     Edge 19, Type (0, 0), BuildingBlock: EZIPEK_clean_linker_0, # of connection points: 2
#     Edge 20, Type (0, 0), BuildingBlock: EZIPEK_clean_linker_0, # of connection points: 2
#     Edge 21, Type (0, 0), BuildingBlock: EZIPEK_clean_linker_0, # of connection points: 2
#     Edge 22, Type (0, 0), BuildingBlock: EZIPEK_clean_linker_0, # of connection points: 2
#     Edge 23, Type (0, 0), BuildingBlock: EZIPEK_clean_linker_0, # of connection points: 2
# Relax obj value: 0.077
# Max RMSD: 0.130
# Mean RMSD: 0.130
data_MOF--net-mmt--node1-NAHDIM_clean_sbu_0--edge1-EZIPEK_clean_linker_0
_symmetry_space_group_name_H-M    P1
_symmetry_Int_Tables_number       1
_symmetry_cell_setting            triclinic
loop_
_symmetry_equiv_pos_as_xyz
'x, y, z'
_cell_length_a     16.139639
_cell_length_b     27.402396
_cell_length_c     32.522416
_cell_angle_alpha  89.995424
_cell_angle_beta   90.071959
_cell_angle_gamma 90.04962
loop_
_atom_site_label
_atom_site_type_symbol
_atom_site_fract_x
_atom_site_fract_y
_atom_site_fract_z
_atom_type_partial_charge
C0 C 0.04654 0.53512 0.41506 0.0
O1 O -0.00071 0.56302 0.39209 0.0
O2 O 0.19056 0.61684 0.3487 0.0
Zn3 Zn 0.15701 0.54607 0.3468 0.0
O4 O 0.06823 0.53626 0.30433 0.0
C5 C 0.32812 0.52365 0.33267 0.0
O6 O 0.33994 0.56297 0.35502 0.0
O7 O 0.11782 0.52265 0.40225 0.0
C8 C 0.08639 0.54323 0.26679 0.0
O9 O 0.16104 0.55806 0.25674 0.0
C10 C 0.14023 0.65219 0.34543 0.0
O11 O 0.06052 0.64375 0.34164 0.0
O12 O 0.25513 0.50779 0.32696 0.0
C13 C 0.42447 0.94718 0.43124 0.0
O14 O 0.45135 0.90494 0.41767 0.0
O15 O 0.30357 0.87103 0.36319 0.0
Zn16 Zn 0.3337 0.94215 0.3566 0.0
O17 O 0.42669 0.95109 0.31628 0.0
C18 C 0.16425 0.97792 0.35023 0.0
O19 O 0.15326 0.95723 0.38624 0.0
O20 O 0.37068 0.97063 0.41065 0.0
C21 C 0.41326 0.95296 0.2778 0.0
O22 O 0.33804 0.94625 0.26351 0.0
C23 C 0.25922 0.85065 0.3358 0.0
O24 O 0.2364 0.87548 0.30319 0.0
O25 O 0.23533 0.97769 0.33364 0.0
C26 C 0.56303 0.45292 0.07696 0.0
O27 O 0.52628 0.41558 0.09453 0.0
O28 O 0.6955 0.37111 0.13993 0.0
Zn29 Zn 0.66549 0.44213 0.14701 0.0
O30 O 0.57293 0.45057 0.18764 0.0
C31 C 0.8353 0.47784 0.15382 0.0
O32 O 0.84676 0.45727 0.1178 0.0
O33 O 0.62764 0.47111 0.09331 0.0
C34 C 0.58688 0.45302 0.22606 0.0
O35 O 0.66246 0.44719 0.24014 0.0
C36 C 0.73923 0.35066 0.16751 0.0
O37 O 0.76114 0.37535 0.20034 0.0
O38 O 0.76395 0.4776 0.17012 0.0
C39 C 0.95227 0.03779 0.08796 0.0
O40 O 0.99435 0.07093 0.10833 0.0
O41 O 0.81074 0.11719 0.15428 0.0
Zn42 Zn 0.8441 0.04641 0.15736 0.0
O43 O 0.9321 0.03727 0.20029 0.0
C44 C 0.67264 0.02427 0.17166 0.0
O45 O 0.66089 0.06357 0.1493 0.0
O46 O 0.88466 0.02155 0.10259 0.0
C47 C 0.91343 0.04425 0.23777 0.0
O48 O 0.83857 0.05888 0.24756 0.0
C49 C 0.86022 0.15272 0.15939 0.0
O50 O 0.93924 0.14459 0.16602 0.0
O51 O 0.74558 0.00837 0.17733 0.0
C52 C 0.92473 0.47099 0.57331 0.0
O53 O 0.97559 0.45022 0.59954 0.0
O54 O 0.77295 0.3841 0.63501 0.0
Zn55 Zn 0.80972 0.45428 0.63853 0.0
O56 O 0.89981 0.46657 0.68058 0.0
C57 C 0.68308 0.47732 0.69188 0.0
O58 O 0.72119 0.44127 0.71054 0.0
O59 O 0.84911 0.47704 0.58297 0.0
C60 C 0.91947 0.43989 0.71101 0.0
O61 O 0.88163 0.39816 0.7173 0.0
C62 C 0.81909 0.34678 0.63227 0.0
O63 O 0.9 0.35193 0.63166 0.0
O64 O 0.70961 0.49177 0.65718 0.0
C65 C 0.56331 0.02493 0.58153 0.0
O66 O 0.51242 0.03978 0.61039 0.0
O67 O 0.71464 0.12075 0.6406 0.0
Zn68 Zn 0.68372 0.04963 0.64283 0.0
O69 O 0.59748 0.03611 0.68609 0.0
C70 C 0.81423 0.02838 0.69478 0.0
O71 O 0.77651 0.06441 0.71364 0.0
O72 O 0.6411 0.02595 0.58783 0.0
C73 C 0.57778 0.06409 0.71562 0.0
O74 O 0.61365 0.10682 0.71981 0.0
C75 C 0.67225 0.15454 0.62421 0.0
O76 O 0.6006 0.1447 0.60696 0.0
O77 O 0.78647 0.01367 0.66036 0.0
C78 C 0.41956 0.53535 0.92949 0.0
O79 O 0.46407 0.56622 0.90792 0.0
O80 O 0.27711 0.61895 0.867 0.0
Zn81 Zn 0.31247 0.54867 0.86139 0.0
O82 O 0.40913 0.54078 0.82294 0.0
C83 C 0.16631 0.53033 0.81372 0.0
O84 O 0.1722 0.57753 0.80744 0.0
O85 O 0.34866 0.52228 0.91638 0.0
C86 C 0.40481 0.54846 0.78449 0.0
O87 O 0.33607 0.56518 0.76818 0.0
C88 C 0.31991 0.65466 0.85405 0.0
O89 O 0.3927 0.64695 0.83732 0.0
O90 O 0.21784 0.50925 0.83742 0.0
C91 C 0.07915 0.96636 0.93306 0.0
O92 O 0.03119 0.93863 0.91025 0.0
O93 O 0.22017 0.88329 0.86827 0.0
Zn94 Zn 0.18492 0.95373 0.86426 0.0
O95 O 0.08786 0.96303 0.82601 0.0
C96 C 0.33164 0.9733 0.81758 0.0
O97 O 0.32627 0.92621 0.8106 0.0
O98 O 0.15087 0.97797 0.9202 0.0
C99 C 0.09211 0.9559 0.78749 0.0
O100 O 0.16068 0.93911 0.77112 0.0
C101 C 0.17693 0.84784 0.85513 0.0
O102 O 0.10369 0.85588 0.83891 0.0
O103 O 0.27951 0.99377 0.84125 0.0
C104 C 0.43038 0.4587 0.3134 0.0
C105 C 0.39549 0.5054 0.30621 0.0
C106 C 0.49132 0.51906 0.24909 0.0
C107 C 0.52132 0.47075 0.25389 0.0
N108 N 0.51434 0.39219 0.28701 0.0
N109 N 0.3812 0.57655 0.2629 0.0
C110 C 0.48968 0.43987 0.28518 0.0
C111 C 0.42278 0.53468 0.27287 0.0
N112 N 0.40826 0.43302 0.34772 0.0
N113 N 0.53044 0.55072 0.22299 0.0
H114 H 0.33051 0.58948 0.27947 0.0
H115 H 0.3922 0.59626 0.23606 0.0
H116 H 0.58168 0.54103 0.20527 0.0
H117 H 0.51712 0.58787 0.2217 0.0
H118 H 0.43755 0.40109 0.35713 0.0
H119 H 0.36426 0.44565 0.36865 0.0
H120 H 0.48735 0.36635 0.30626 0.0
H121 H 0.55806 0.37739 0.26697 0.0
C122 C 0.96647 0.98138 0.28653 0.0
C123 C 0.97186 0.02928 0.27029 0.0
C124 C 0.09215 0.04628 0.31402 0.0
C125 C 0.09307 0.99657 0.32627 0.0
N126 N 0.03724 0.91494 0.32072 0.0
N127 N 0.04017 0.10729 0.26638 0.0
C128 C 0.03126 0.96367 0.31206 0.0
C129 C 0.03464 0.06186 0.28356 0.0
N130 N 0.89931 0.9528 0.27753 0.0
N131 N 0.14499 0.07868 0.33239 0.0
H132 H 0.99673 0.12057 0.2454 0.0
H133 H 0.08993 0.13083 0.27106 0.0
H134 H 0.1871 0.06839 0.35517 0.0
H135 H 0.1425 0.11624 0.32783 0.0
H136 H 0.88708 0.91974 0.29212 0.0
H137 H 0.85189 0.96386 0.25781 0.0
H138 H 0.00026 0.88841 0.30695 0.0
H139 H 0.08343 0.90015 0.33929 0.0
C140 C 0.90697 0.54576 0.19094 0.0
C141 C 0.90621 0.49624 0.17817 0.0
C142 C 0.03285 0.48073 0.21776 0.0
C143 C 0.02743 0.52841 0.23443 0.0
N144 N 0.95853 0.6061 0.23935 0.0
N145 N 0.96188 0.41457 0.18323 0.0
C146 C 0.96439 0.561 0.2216 0.0
C147 C 0.96799 0.46323 0.19215 0.0
N148 N 0.85413 0.57836 0.17289 0.0
N149 N 0.10009 0.45214 0.22643 0.0
H150 H 0.91544 0.39989 0.16473 0.0
H151 H -0.00107 0.38796 0.19679 0.0
H152 H 0.14753 0.463 0.24624 0.0
H153 H 0.11232 0.41932 0.2115 0.0
H154 H 0.85658 0.61585 0.17786 0.0
H155 H 0.81209 0.56836 0.14997 0.0
H156 H 0.90859 0.62953 0.23494 0.0
H157 H 0.00175 0.61912 0.26057 0.0
C158 C 0.57102 0.95885 0.19099 0.0
C159 C 0.6051 0.00584 0.198 0.0
C160 C 0.50799 0.01943 0.25458 0.0
C161 C 0.47888 0.97087 0.25004 0.0
N162 N 0.48774 0.89203 0.21753 0.0
N163 N 0.61758 0.07742 0.24093 0.0
C164 C 0.51156 0.9399 0.2191 0.0
C165 C 0.57675 0.03524 0.23101 0.0
N166 N 0.59401 0.93301 0.15691 0.0
N167 N 0.46782 0.05113 0.28022 0.0
H168 H 0.66853 0.09043 0.22457 0.0
H169 H 0.60574 0.09731 0.26757 0.0
H170 H 0.41634 0.0413 0.29772 0.0
H171 H 0.48053 0.08838 0.28126 0.0
H172 H 0.56532 0.90081 0.14761 0.0
H173 H 0.63809 0.94573 0.13604 0.0
H174 H 0.5155 0.86619 0.19858 0.0
H175 H 0.44393 0.87714 0.23749 0.0
C176 C 0.52834 0.56551 0.74008 0.0
C177 C 0.47259 0.53144 0.75772 0.0
C178 C 0.54396 0.46465 0.72278 0.0
C179 C 0.60693 0.49758 0.71041 0.0
N180 N 0.66513 0.57883 0.71153 0.0
N181 N 0.43343 0.44764 0.77067 0.0
C182 C 0.60049 0.54808 0.71972 0.0
C183 C 0.48205 0.48071 0.75045 0.0
N184 N 0.51277 0.61439 0.74308 0.0
N185 N 0.54186 0.41838 0.70703 0.0
H186 H 0.38683 0.45762 0.79113 0.0
H187 H 0.44408 0.41016 0.7699 0.0
H188 H 0.58457 0.40587 0.6854 0.0
H189 H 0.49286 0.3943 0.71187 0.0
H190 H 0.54656 0.64076 0.72724 0.0
H191 H 0.46184 0.6284 0.75886 0.0
H192 H 0.66761 0.61478 0.72183 0.0
H193 H 0.71966 0.56747 0.69734 0.0
C194 C 0.89615 0.95721 0.72261 0.0
C195 C 0.89036 0.00774 0.71323 0.0
C196 C 0.01553 0.02402 0.75341 0.0
C197 C 0.02434 0.97326 0.76073 0.0
N198 N 0.9832 0.89051 0.7459 0.0
N199 N 0.95667 0.08653 0.70978 0.0
C200 C 0.96816 0.93946 0.74299 0.0
C201 C 0.95386 0.04033 0.72562 0.0
N202 N 0.83103 0.92674 0.71452 0.0
N203 N 0.06451 0.05687 0.77372 0.0
H204 H 0.91412 0.09917 0.68807 0.0
H205 H 0.00607 0.11035 0.71463 0.0
H206 H 0.11073 0.04667 0.79437 0.0
H207 H 0.05444 0.09441 0.77284 0.0
H208 H 0.82818 0.89083 0.7249 0.0
H209 H 0.77651 0.93832 0.70039 0.0
H210 H 0.94907 0.86433 0.72997 0.0
H211 H 0.03407 0.87626 0.76164 0.0
C212 C 0.01763 0.5141 0.79702 0.0
C213 C 0.10226 0.50208 0.79132 0.0
C214 C 0.06352 0.44135 0.73923 0.0
C215 C 0.98072 0.45821 0.74104 0.0
N216 N 0.87806 0.51252 0.76945 0.0
N217 N 0.20771 0.45889 0.75333 0.0
C218 C 0.95739 0.49504 0.76944 0.0
C219 C 0.12582 0.46642 0.76183 0.0
N220 N 0.99474 0.54265 0.82957 0.0
N221 N 0.08271 0.40168 0.7156 0.0
H222 H 0.25513 0.47739 0.7684 0.0
H223 H 0.22867 0.43756 0.72899 0.0
H224 H 0.03902 0.38344 0.69759 0.0
H225 H 0.14015 0.38443 0.71641 0.0
H226 H 0.93339 0.54884 0.83789 0.0
H227 H 0.03731 0.55658 0.85071 0.0
H228 H 0.85971 0.54338 0.78573 0.0
H229 H 0.83117 0.49786 0.75116 0.0
C230 C 0.48035 0.99055 0.80201 0.0
C231 C 0.39567 0.0022 0.79589 0.0
C232 C 0.43439 0.06347 0.74431 0.0
C233 C 0.51726 0.04674 0.7463 0.0
N234 N 0.62045 0.99315 0.77528 0.0
N235 N 0.29022 0.04544 0.7578 0.0
C236 C 0.54076 0.01006 0.77482 0.0
C237 C 0.37209 0.03808 0.76656 0.0
N238 N 0.50303 0.96184 0.83452 0.0
N239 N 0.41508 0.10317 0.72072 0.0
H240 H 0.24279 0.0267 0.77259 0.0
H241 H 0.2693 0.0669 0.7335 0.0
H242 H 0.45874 0.12162 0.7029 0.0
H243 H 0.35752 0.12029 0.72141 0.0
H244 H 0.5643 0.95578 0.84313 0.0
H245 H 0.46025 0.94756 0.85534 0.0
H246 H 0.63913 0.96236 0.79158 0.0
H247 H 0.66749 0.00841 0.75747 0.0
C248 C 0.05196 0.53724 0.49209 0.0
C249 C 0.01632 0.51811 0.45556 0.0
C250 C 0.92471 0.46549 0.49634 0.0
C251 C 0.95578 0.4874 0.53278 0.0
N252 N 0.03946 0.54897 0.56577 0.0
N253 N 0.91345 0.468 0.42201 0.0
C254 C 0.01727 0.5244 0.53082 0.0
C255 C 0.95081 0.48355 0.45744 0.0
N256 N 0.11889 0.56778 0.48977 0.0
N257 N 0.87346 0.42581 0.49897 0.0
H258 H 0.93422 0.47772 0.39278 0.0
H259 H 0.85884 0.44776 0.42148 0.0
H260 H 0.85363 0.41116 0.52689 0.0
H261 H 0.85596 0.40474 0.47379 0.0
H262 H 0.15406 0.57813 0.51517 0.0
H263 H 0.1429 0.58057 0.46203 0.0
H264 H 0.07707 0.57984 0.56591 0.0
H265 H 0.01467 0.54109 0.59462 0.0
C266 C 0.44128 0.9448 0.50771 0.0
C267 C 0.45893 0.9678 0.46966 0.0
C268 C 0.54181 0.03001 0.50518 0.0
C269 C 0.52939 0.00479 0.54278 0.0
N270 N 0.47935 0.93402 0.57926 0.0
N271 N 0.53553 0.02759 0.43068 0.0
C272 C 0.48228 0.96104 0.54392 0.0
C273 C 0.51172 0.00922 0.46795 0.0
N274 N 0.38323 0.90847 0.50942 0.0
N275 N 0.57979 0.07465 0.50525 0.0
H276 H 0.51443 0.01358 0.40274 0.0
H277 H 0.58116 0.05415 0.42723 0.0
H278 H 0.60345 0.09081 0.53182 0.0
H279 H 0.58226 0.09741 0.47964 0.0
H280 H 0.36082 0.89393 0.53682 0.0
H281 H 0.35198 0.89558 0.48349 0.0
H282 H 0.45367 0.89921 0.58085 0.0
H283 H 0.50914 0.94449 0.60634 0.0
C284 C 0.49363 0.52224 0.04015 0.0
C285 C 0.52738 0.47442 0.03911 0.0
C286 C 0.48277 0.46496 0.96738 0.0
C287 C 0.45441 0.514 0.96756 0.0
N288 N 0.44068 0.59157 0.00189 0.0
N289 N 0.56597 0.40272 1.00079 0.0
C290 C 0.46248 0.54337 0.00328 0.0
C291 C 0.52481 0.4463 0.0025 0.0
N292 N 0.4877 0.54651 0.0768 0.0
N293 N 0.46956 0.43621 0.93361 0.0
H294 H 0.5981 0.38812 0.02577 0.0
H295 H 0.57442 0.38283 0.97386 0.0
H296 H 0.44345 0.4492 0.90639 0.0
H297 H 0.47958 0.3987 0.93327 0.0
H298 H 0.45544 0.57908 0.08052 0.0
H299 H 0.50934 0.5322 0.10452 0.0
H300 H 0.45438 0.61639 0.02516 0.0
H301 H 0.41311 0.60769 0.97624 0.0
C302 C 0.03779 0.95195 0.00632 0.0
C303 C 0.04846 0.98483 0.97299 0.0
C304 C 0.98943 0.05134 0.01409 0.0
C305 C 0.98417 0.0193 0.04826 0.0
N306 N 0.01432 0.94149 0.07948 0.0
N307 N 0.04303 0.06663 0.94563 0.0
C308 C 0.01093 0.97013 0.04505 0.0
C309 C 0.02721 0.03486 0.97711 0.0
N310 N 0.05314 0.90329 1.00088 0.0
N311 N 0.95465 0.09678 0.01642 0.0
H312 H 0.06584 0.05561 0.91712 0.0
H313 H 0.03847 0.10437 0.94843 0.0
H314 H 0.92567 0.1099 0.04285 0.0
H315 H 0.94815 0.12009 0.99137 0.0
H316 H 0.0369 0.87659 0.02217 0.0
H317 H 0.07795 0.88897 0.97386 0.0
H318 H 0.04186 0.90717 0.08026 0.0
H319 H 0.99544 0.95351 0.10841 0.0
C320 C 0.22284 0.71734 0.31032 0.0
C321 C 0.17227 0.70271 0.3438 0.0
C322 C 0.17797 0.78549 0.37224 0.0
C323 C 0.23297 0.79919 0.34019 0.0
N324 N 0.32096 0.7763 0.28355 0.0
N325 N 0.11334 0.71959 0.41037 0.0
C326 C 0.25926 0.76454 0.3106 0.0
C327 C 0.15305 0.73588 0.37586 0.0
N328 N 0.23319 0.68692 0.2774 0.0
N329 N 0.14682 0.82015 0.39819 0.0
H330 H 0.09404 0.68351 0.41407 0.0
H331 H 0.10568 0.74067 0.43672 0.0
H332 H 0.16428 0.85675 0.39698 0.0
H333 H 0.099 0.81346 0.4189 0.0
H334 H 0.26195 0.69749 0.25017 0.0
H335 H 0.20657 0.6523 0.27574 0.0
H336 H 0.349 0.75101 0.26415 0.0
H337 H 0.34974 0.81041 0.28315 0.0
C338 C 0.84832 0.23632 0.12872 0.0
C339 C 0.8275 0.20306 0.16048 0.0
C340 C 0.73802 0.26447 0.19243 0.0
C341 C 0.76557 0.29924 0.16319 0.0
N342 N 0.85412 0.32056 0.10618 0.0
N343 N 0.7627 0.18686 0.2259 0.0
C344 C 0.82234 0.28577 0.13185 0.0
C345 C 0.77479 0.21742 0.1932 0.0
N346 N 0.89086 0.22026 0.095 0.0
N347 N 0.67486 0.27603 0.21869 0.0
H348 H 0.78942 0.15232 0.22785 0.0
H349 H 0.73223 0.19721 0.25271 0.0
H350 H 0.64583 0.31004 0.2187 0.0
H351 H 0.646 0.25067 0.23775 0.0
H352 H 0.89992 0.24126 0.0687 0.0
H353 H 0.91158 0.1844 0.09188 0.0
H354 H 0.9031 0.31418 0.08608 0.0
H355 H 0.83569 0.35698 0.10695 0.0
C356 C 0.76678 0.21835 0.59531 0.0
C357 C 0.70534 0.20481 0.62429 0.0
C358 C 0.72342 0.2825 0.66033 0.0
C359 C 0.78071 0.29764 0.62967 0.0
N360 N 0.84352 0.28417 0.56328 0.0
N361 N 0.61371 0.22655 0.67974 0.0
C362 C 0.799 0.26667 0.59587 0.0
C363 C 0.67983 0.23782 0.65526 0.0
N364 N 0.7949 0.18488 0.56745 0.0
N365 N 0.71388 0.30947 0.69538 0.0
H366 H 0.58127 0.19373 0.67734 0.0
H367 H 0.5865 0.25132 0.6999 0.0
H368 H 0.74676 0.34149 0.70107 0.0
H369 H 0.67957 0.29779 0.72063 0.0
H370 H 0.84654 0.19065 0.5489 0.0
H371 H 0.7698 0.14993 0.56468 0.0
H372 H 0.85134 0.26502 0.53591 0.0
H373 H 0.86625 0.31976 0.56188 0.0
C374 C 0.26313 0.72718 0.81671 0.0
C375 C 0.2841 0.70429 0.85446 0.0
C376 C 0.22702 0.77365 0.89272 0.0
C377 C 0.2125 0.79816 0.85496 0.0
N378 N 0.22935 0.80238 0.78133 0.0
N379 N 0.29736 0.70768 0.92824 0.0
C380 C 0.23391 0.77605 0.817 0.0
C381 C 0.26903 0.72802 0.89249 0.0
N382 N 0.268 0.70157 0.7807 0.0
N383 N 0.19827 0.7933 0.92862 0.0
H384 H 0.32829 0.67428 0.9292 0.0
H385 H 0.29632 0.72553 0.95648 0.0
H386 H 0.16746 0.82671 0.92991 0.0
H387 H 0.19886 0.77487 0.95661 0.0
H388 H 0.24465 0.71439 0.75286 0.0
H389 H 0.28888 0.66562 0.77911 0.0
H390 H 0.25312 0.79016 0.75342 0.0
H391 H 0.20822 0.83831 0.78017 0.0
loop_
_geom_bond_atom_site_label_1
_geom_bond_atom_site_label_2
_geom_bond_distance
_geom_bond_site_symmetry_2
_ccdc_geom_bond_type
C0 O1 1.160 . S
C0 O7 1.185 . S
O1 C0 1.160 . S
O2 Zn3 1.899 . S
O2 C10 1.284 . S
Zn3 O2 1.899 . S
Zn3 O4 2.032 . S
Zn3 O7 2.086 . S
Zn3 O12 1.977 . S
O4 Zn3 2.032 . S
O4 C8 1.278 . S
C5 O6 1.203 . S
C5 O12 1.267 . S
O6 C5 1.203 . S
O7 C0 1.185 . S
O7 Zn3 2.086 . S
C8 O4 1.278 . S
C8 O9 1.211 . S
O9 C8 1.211 . S
C10 O2 1.284 . S
C10 O11 1.273 . S
O11 C10 1.273 . S
O12 Zn3 1.977 . S
O12 C5 1.267 . S
C13 O14 1.160 . S
C13 O20 1.185 . S
O14 C13 1.160 . S
O15 Zn16 1.899 . S
O15 C23 1.284 . S
Zn16 O15 1.899 . S
Zn16 O17 2.032 . S
Zn16 O20 2.086 . S
Zn16 O25 1.977 . S
O17 Zn16 2.032 . S
O17 C21 1.278 . S
C18 O19 1.203 . S
C18 O25 1.267 . S
O19 C18 1.203 . S
O20 C13 1.185 . S
O20 Zn16 2.086 . S
C21 O17 1.278 . S
C21 O22 1.211 . S
O22 C21 1.211 . S
C23 O15 1.284 . S
C23 O24 1.273 . S
O24 C23 1.273 . S
O25 Zn16 1.977 . S
O25 C18 1.267 . S
C26 O27 1.160 . S
C26 O33 1.185 . S
O27 C26 1.160 . S
O28 Zn29 1.899 . S
O28 C36 1.284 . S
Zn29 O28 1.899 . S
Zn29 O30 2.032 . S
Zn29 O33 2.086 . S
Zn29 O38 1.977 . S
O30 Zn29 2.032 . S
O30 C34 1.278 . S
C31 O32 1.203 . S
C31 O38 1.267 . S
O32 C31 1.203 . S
O33 C26 1.185 . S
O33 Zn29 2.086 . S
C34 O30 1.278 . S
C34 O35 1.211 . S
O35 C34 1.211 . S
C36 O28 1.284 . S
C36 O37 1.273 . S
O37 C36 1.273 . S
O38 Zn29 1.977 . S
O38 C31 1.267 . S
C39 O40 1.160 . S
C39 O46 1.185 . S
O40 C39 1.160 . S
O41 Zn42 1.899 . S
O41 C49 1.284 . S
Zn42 O41 1.899 . S
Zn42 O43 2.032 . S
Zn42 O46 2.086 . S
Zn42 O51 1.977 . S
O43 Zn42 2.032 . S
O43 C47 1.278 . S
C44 O45 1.203 . S
C44 O51 1.267 . S
O45 C44 1.203 . S
O46 C39 1.185 . S
O46 Zn42 2.086 . S
C47 O43 1.278 . S
C47 O48 1.211 . S
O48 C47 1.211 . S
C49 O41 1.284 . S
C49 O50 1.273 . S
O50 C49 1.273 . S
O51 Zn42 1.977 . S
O51 C44 1.267 . S
C52 O53 1.160 . S
C52 O59 1.185 . S
O53 C52 1.160 . S
O54 Zn55 1.899 . S
O54 C62 1.284 . S
Zn55 O54 1.899 . S
Zn55 O56 2.032 . S
Zn55 O59 2.086 . S
Zn55 O64 1.977 . S
O56 Zn55 2.032 . S
O56 C60 1.278 . S
C57 O58 1.203 . S
C57 O64 1.267 . S
O58 C57 1.203 . S
O59 C52 1.185 . S
O59 Zn55 2.086 . S
C60 O56 1.278 . S
C60 O61 1.211 . S
O61 C60 1.211 . S
C62 O54 1.284 . S
C62 O63 1.273 . S
O63 C62 1.273 . S
O64 Zn55 1.977 . S
O64 C57 1.267 . S
C65 O66 1.160 . S
C65 O72 1.185 . S
O66 C65 1.160 . S
O67 Zn68 1.899 . S
O67 C75 1.284 . S
Zn68 O67 1.899 . S
Zn68 O69 2.032 . S
Zn68 O72 2.086 . S
Zn68 O77 1.977 . S
O69 Zn68 2.032 . S
O69 C73 1.278 . S
C70 O71 1.203 . S
C70 O77 1.267 . S
O71 C70 1.203 . S
O72 C65 1.185 . S
O72 Zn68 2.086 . S
C73 O69 1.278 . S
C73 O74 1.211 . S
O74 C73 1.211 . S
C75 O67 1.284 . S
C75 O76 1.273 . S
O76 C75 1.273 . S
O77 Zn68 1.977 . S
O77 C70 1.267 . S
C78 O79 1.160 . S
C78 O85 1.185 . S
O79 C78 1.160 . S
O80 Zn81 1.899 . S
O80 C88 1.284 . S
Zn81 O80 1.899 . S
Zn81 O82 2.032 . S
Zn81 O85 2.086 . S
Zn81 O90 1.977 . S
O82 Zn81 2.032 . S
O82 C86 1.278 . S
C83 O84 1.203 . S
C83 O90 1.267 . S
O84 C83 1.203 . S
O85 C78 1.185 . S
O85 Zn81 2.086 . S
C86 O82 1.278 . S
C86 O87 1.211 . S
O87 C86 1.211 . S
C88 O80 1.284 . S
C88 O89 1.273 . S
O89 C88 1.273 . S
O90 Zn81 1.977 . S
O90 C83 1.267 . S
C91 O92 1.160 . S
C91 O98 1.185 . S
O92 C91 1.160 . S
O93 Zn94 1.899 . S
O93 C101 1.284 . S
Zn94 O93 1.899 . S
Zn94 O95 2.032 . S
Zn94 O98 2.086 . S
Zn94 O103 1.977 . S
O95 Zn94 2.032 . S
O95 C99 1.278 . S
C96 O97 1.203 . S
C96 O103 1.267 . S
O97 C96 1.203 . S
O98 C91 1.185 . S
O98 Zn94 2.086 . S
C99 O95 1.278 . S
C99 O100 1.211 . S
O100 C99 1.211 . S
C101 O93 1.284 . S
C101 O102 1.273 . S
O102 C101 1.273 . S
O103 Zn94 1.977 . S
O103 C96 1.267 . S
C104 C105 1.363 . S
C104 C110 1.379 . S
C104 N112 1.356 . S
C105 C104 1.363 . S
C105 C111 1.363 . S
C106 C107 1.363 . S
C106 C111 1.379 . S
C106 N113 1.356 . S
C107 C106 1.363 . S
C107 C110 1.363 . S
N108 C110 1.356 . S
N108 H120 0.984 . S
N108 H121 0.985 . S
N109 C111 1.356 . S
N109 H114 0.984 . S
N109 H115 0.985 . S
C110 C104 1.379 . S
C110 C107 1.363 . S
C110 N108 1.356 . S
C111 C105 1.363 . S
C111 C106 1.379 . S
C111 N109 1.356 . S
N112 C104 1.356 . S
N112 H118 0.984 . S
N112 H119 0.984 . S
N113 C106 1.356 . S
N113 H116 0.984 . S
N113 H117 0.985 . S
H114 N109 0.984 . S
H115 N109 0.985 . S
H116 N113 0.984 . S
H117 N113 0.985 . S
H118 N112 0.984 . S
H119 N112 0.984 . S
H120 N108 0.984 . S
H121 N108 0.985 . S
C122 C123 1.363 1_565 S
C122 C128 1.379 . S
C122 N130 1.356 . S
C123 C122 1.363 1_545 S
C123 C129 1.363 . S
C124 C125 1.363 1_545 S
C124 C129 1.379 . S
C124 N131 1.356 . S
C125 C124 1.363 1_565 S
C125 C128 1.363 . S
N126 C128 1.356 . S
N126 H138 0.984 . S
N126 H139 0.985 . S
N127 C129 1.356 . S
N127 H132 0.984 1_455 S
N127 H133 0.985 . S
C128 C122 1.379 . S
C128 C125 1.363 . S
C128 N126 1.356 . S
C129 C123 1.363 . S
C129 C124 1.379 . S
C129 N127 1.356 . S
N130 C122 1.356 . S
N130 H136 0.984 . S
N130 H137 0.984 . S
N131 C124 1.356 . S
N131 H134 0.984 . S
N131 H135 0.985 . S
H132 N127 0.984 1_655 S
H133 N127 0.985 . S
H134 N131 0.984 . S
H135 N131 0.985 . S
H136 N130 0.984 . S
H137 N130 0.984 . S
H138 N126 0.984 . S
H139 N126 0.985 . S
C140 C141 1.363 . S
C140 C146 1.379 . S
C140 N148 1.356 . S
C141 C140 1.363 . S
C141 C147 1.363 . S
C142 C143 1.363 . S
C142 C147 1.379 . S
C142 N149 1.356 . S
C143 C142 1.363 . S
C143 C146 1.363 . S
N144 C146 1.356 . S
N144 H156 0.984 . S
N144 H157 0.985 1_655 S
N145 C147 1.356 . S
N145 H150 0.984 . S
N145 H151 0.985 . S
C146 C140 1.379 . S
C146 C143 1.363 . S
C146 N144 1.356 . S
C147 C141 1.363 . S
C147 C142 1.379 . S
C147 N145 1.356 . S
N148 C140 1.356 . S
N148 H154 0.984 . S
N148 H155 0.984 . S
N149 C142 1.356 . S
N149 H152 0.984 . S
N149 H153 0.985 . S
H150 N145 0.984 . S
H151 N145 0.985 . S
H152 N149 0.984 . S
H153 N149 0.985 . S
H154 N148 0.984 . S
H155 N148 0.984 . S
H156 N144 0.984 . S
H157 N144 0.985 1_455 S
C158 C159 1.363 1_565 S
C158 C164 1.379 . S
C158 N166 1.356 . S
C159 C158 1.363 1_545 S
C159 C165 1.363 . S
C160 C161 1.363 1_545 S
C160 C165 1.379 . S
C160 N167 1.356 . S
C161 C160 1.363 1_565 S
C161 C164 1.363 . S
N162 C164 1.356 . S
N162 H174 0.984 . S
N162 H175 0.985 . S
N163 C165 1.356 . S
N163 H168 0.984 . S
N163 H169 0.985 . S
C164 C158 1.379 . S
C164 C161 1.363 . S
C164 N162 1.356 . S
C165 C159 1.363 . S
C165 C160 1.379 . S
C165 N163 1.356 . S
N166 C158 1.356 . S
N166 H172 0.984 . S
N166 H173 0.984 . S
N167 C160 1.356 . S
N167 H170 0.984 1_545 S
N167 H171 0.985 . S
H168 N163 0.984 . S
H169 N163 0.985 . S
H170 N167 0.984 1_565 S
H171 N167 0.985 . S
H172 N166 0.984 . S
H173 N166 0.984 . S
H174 N162 0.984 . S
H175 N162 0.985 . S
C176 C177 1.363 . S
C176 C182 1.379 . S
C176 N184 1.356 . S
C177 C176 1.363 . S
C177 C183 1.363 . S
C178 C179 1.363 . S
C178 C183 1.379 . S
C178 N185 1.356 . S
C179 C178 1.363 . S
C179 C182 1.363 . S
N180 C182 1.356 . S
N180 H192 0.984 . S
N180 H193 0.985 . S
N181 C183 1.356 . S
N181 H186 0.984 . S
N181 H187 0.985 . S
C182 C176 1.379 . S
C182 C179 1.363 . S
C182 N180 1.356 . S
C183 C177 1.363 . S
C183 C178 1.379 . S
C183 N181 1.356 . S
N184 C176 1.356 . S
N184 H190 0.984 . S
N184 H191 0.984 . S
N185 C178 1.356 . S
N185 H188 0.984 . S
N185 H189 0.985 . S
H186 N181 0.984 . S
H187 N181 0.985 . S
H188 N185 0.984 . S
H189 N185 0.985 . S
H190 N184 0.984 . S
H191 N184 0.984 . S
H192 N180 0.984 . S
H193 N180 0.985 . S
C194 C195 1.363 1_565 S
C194 C200 1.379 . S
C194 N202 1.356 . S
C195 C194 1.363 1_545 S
C195 C201 1.363 . S
C196 C197 1.363 1_545 S
C196 C201 1.379 . S
C196 N203 1.356 1_655 S
C197 C196 1.363 1_565 S
C197 C200 1.363 . S
N198 C200 1.356 . S
N198 H210 0.984 . S
N198 H211 0.985 . S
N199 C201 1.356 . S
N199 H204 0.984 . S
N199 H205 0.985 . S
C200 C194 1.379 . S
C200 C197 1.363 . S
C200 N198 1.356 . S
C201 C195 1.363 . S
C201 C196 1.379 . S
C201 N199 1.356 . S
N202 C194 1.356 . S
N202 H208 0.984 . S
N202 H209 0.984 . S
N203 C196 1.356 1_455 S
N203 H206 0.984 . S
N203 H207 0.985 . S
H204 N199 0.984 . S
H205 N199 0.985 . S
H206 N203 0.984 . S
H207 N203 0.985 . S
H208 N202 0.984 . S
H209 N202 0.984 . S
H210 N198 0.984 . S
H211 N198 0.985 . S
C212 C213 1.363 . S
C212 C218 1.379 . S
C212 N220 1.356 . S
C213 C212 1.363 . S
C213 C219 1.363 . S
C214 C215 1.363 . S
C214 C219 1.379 . S
C214 N221 1.356 . S
C215 C214 1.363 . S
C215 C218 1.363 . S
N216 C218 1.356 1_655 S
N216 H228 0.984 . S
N216 H229 0.985 . S
N217 C219 1.356 . S
N217 H222 0.984 . S
N217 H223 0.985 . S
C218 C212 1.379 . S
C218 C215 1.363 . S
C218 N216 1.356 1_455 S
C219 C213 1.363 . S
C219 C214 1.379 . S
C219 N217 1.356 . S
N220 C212 1.356 . S
N220 H226 0.984 . S
N220 H227 0.984 . S
N221 C214 1.356 . S
N221 H224 0.984 . S
N221 H225 0.985 . S
H222 N217 0.984 . S
H223 N217 0.985 . S
H224 N221 0.984 . S
H225 N221 0.985 . S
H226 N220 0.984 . S
H227 N220 0.984 . S
H228 N216 0.984 . S
H229 N216 0.985 . S
C230 C231 1.363 . S
C230 C236 1.379 . S
C230 N238 1.356 . S
C231 C230 1.363 . S
C231 C237 1.363 1_565 S
C232 C233 1.363 . S
C232 C237 1.379 . S
C232 N239 1.356 . S
C233 C232 1.363 . S
C233 C236 1.363 1_545 S
N234 C236 1.356 . S
N234 H246 0.984 . S
N234 H247 0.985 . S
N235 C237 1.356 . S
N235 H240 0.984 . S
N235 H241 0.985 . S
C236 C230 1.379 . S
C236 C233 1.363 1_565 S
C236 N234 1.356 . S
C237 C231 1.363 1_545 S
C237 C232 1.379 . S
C237 N235 1.356 . S
N238 C230 1.356 . S
N238 H244 0.984 . S
N238 H245 0.984 . S
N239 C232 1.356 . S
N239 H242 0.984 . S
N239 H243 0.985 . S
H240 N235 0.984 . S
H241 N235 0.985 . S
H242 N239 0.984 . S
H243 N239 0.985 . S
H244 N238 0.984 . S
H245 N238 0.984 . S
H246 N234 0.984 . S
H247 N234 0.985 . S
C248 C249 1.363 . S
C248 C254 1.379 . S
C248 N256 1.356 . S
C249 C248 1.363 . S
C249 C255 1.363 1_455 S
C250 C251 1.363 . S
C250 C255 1.379 . S
C250 N257 1.356 . S
C251 C250 1.363 . S
C251 C254 1.363 1_655 S
N252 C254 1.356 . S
N252 H264 0.984 . S
N252 H265 0.985 1_455 S
N253 C255 1.356 . S
N253 H258 0.984 1_655 S
N253 H259 0.985 . S
C254 C248 1.379 . S
C254 C251 1.363 1_455 S
C254 N252 1.356 . S
C255 C249 1.363 1_655 S
C255 C250 1.379 . S
C255 N253 1.356 . S
N256 C248 1.356 . S
N256 H262 0.984 . S
N256 H263 0.984 . S
N257 C250 1.356 . S
N257 H260 0.984 . S
N257 H261 0.985 . S
H258 N253 0.984 1_455 S
H259 N253 0.985 . S
H260 N257 0.984 . S
H261 N257 0.985 . S
H262 N256 0.984 . S
H263 N256 0.984 . S
H264 N252 0.984 . S
H265 N252 0.985 1_655 S
C266 C267 1.363 . S
C266 C272 1.379 . S
C266 N274 1.356 . S
C267 C266 1.363 . S
C267 C273 1.363 1_565 S
C268 C269 1.363 . S
C268 C273 1.379 . S
C268 N275 1.356 . S
C269 C268 1.363 . S
C269 C272 1.363 1_545 S
N270 C272 1.356 . S
N270 H282 0.984 . S
N270 H283 0.985 . S
N271 C273 1.356 . S
N271 H276 0.984 . S
N271 H277 0.985 . S
C272 C266 1.379 . S
C272 C269 1.363 1_565 S
C272 N270 1.356 . S
C273 C267 1.363 1_545 S
C273 C268 1.379 . S
C273 N271 1.356 . S
N274 C266 1.356 . S
N274 H280 0.984 . S
N274 H281 0.984 . S
N275 C268 1.356 . S
N275 H278 0.984 . S
N275 H279 0.985 . S
H276 N271 0.984 . S
H277 N271 0.985 . S
H278 N275 0.984 . S
H279 N275 0.985 . S
H280 N274 0.984 . S
H281 N274 0.984 . S
H282 N270 0.984 . S
H283 N270 0.985 . S
C284 C285 1.363 . S
C284 C290 1.379 . S
C284 N292 1.356 . S
C285 C284 1.363 . S
C285 C291 1.363 1_554 S
C286 C287 1.363 . S
C286 C291 1.379 . S
C286 N293 1.356 . S
C287 C286 1.363 . S
C287 C290 1.363 1_556 S
N288 C290 1.356 1_556 S
N288 H300 0.984 1_556 S
N288 H301 0.985 . S
N289 C291 1.356 1_554 S
N289 H294 0.984 . S
N289 H295 0.985 1_554 S
C290 C284 1.379 . S
C290 C287 1.363 1_554 S
C290 N288 1.356 1_554 S
C291 C285 1.363 1_556 S
C291 C286 1.379 . S
C291 N289 1.356 1_556 S
N292 C284 1.356 . S
N292 H298 0.984 . S
N292 H299 0.984 . S
N293 C286 1.356 . S
N293 H296 0.984 . S
N293 H297 0.985 . S
H294 N289 0.984 . S
H295 N289 0.985 1_556 S
H296 N293 0.984 . S
H297 N293 0.985 . S
H298 N292 0.984 . S
H299 N292 0.984 . S
H300 N288 0.984 1_554 S
H301 N288 0.985 . S
C302 C303 1.378 . S
C302 C308 1.364 1_456 S
C302 N310 1.361 . S
C303 C302 1.378 . S
C303 C309 1.363 1_565 S
C304 C305 1.378 . S
C304 C309 1.364 1_654 S
C304 N311 1.361 . S
C305 C304 1.378 . S
C305 C308 1.363 1_545 S
N306 C308 1.356 . S
N306 H318 0.989 . S
N306 H319 0.985 . S
N307 C309 1.356 . S
N307 H312 0.984 . S
N307 H313 0.989 . S
C308 C302 1.364 1_654 S
C308 C305 1.363 1_565 S
C308 N306 1.356 . S
C309 C303 1.363 1_545 S
C309 C304 1.364 1_456 S
C309 N307 1.356 . S
N310 C302 1.361 . S
N310 H316 0.984 1_556 S
N310 H317 0.984 . S
N311 C304 1.361 . S
N311 H314 0.984 . S
N311 H315 0.985 1_554 S
H312 N307 0.984 . S
H313 N307 0.989 . S
H314 N311 0.984 . S
H315 N311 0.985 1_556 S
H316 N310 0.984 1_554 S
H317 N310 0.984 . S
H318 N306 0.989 . S
H319 N306 0.985 . S
C320 C321 1.363 . S
C320 C326 1.379 . S
C320 N328 1.356 . S
C321 C320 1.363 . S
C321 C327 1.363 . S
C322 C323 1.363 . S
C322 C327 1.379 . S
C322 N329 1.356 . S
C323 C322 1.363 . S
C323 C326 1.363 . S
N324 C326 1.356 . S
N324 H336 0.984 . S
N324 H337 0.985 . S
N325 C327 1.356 . S
N325 H330 0.984 . S
N325 H331 0.985 . S
C326 C320 1.379 . S
C326 C323 1.363 . S
C326 N324 1.356 . S
C327 C321 1.363 . S
C327 C322 1.379 . S
C327 N325 1.356 . S
N328 C320 1.356 . S
N328 H334 0.984 . S
N328 H335 0.984 . S
N329 C322 1.356 . S
N329 H332 0.984 . S
N329 H333 0.985 . S
H330 N325 0.984 . S
H331 N325 0.985 . S
H332 N329 0.984 . S
H333 N329 0.985 . S
H334 N328 0.984 . S
H335 N328 0.984 . S
H336 N324 0.984 . S
H337 N324 0.985 . S
C338 C339 1.363 . S
C338 C344 1.379 . S
C338 N346 1.356 . S
C339 C338 1.363 . S
C339 C345 1.363 . S
C340 C341 1.363 . S
C340 C345 1.379 . S
C340 N347 1.356 . S
C341 C340 1.363 . S
C341 C344 1.363 . S
N342 C344 1.356 . S
N342 H354 0.984 . S
N342 H355 0.985 . S
N343 C345 1.356 . S
N343 H348 0.984 . S
N343 H349 0.985 . S
C344 C338 1.379 . S
C344 C341 1.363 . S
C344 N342 1.356 . S
C345 C339 1.363 . S
C345 C340 1.379 . S
C345 N343 1.356 . S
N346 C338 1.356 . S
N346 H352 0.984 . S
N346 H353 0.984 . S
N347 C340 1.356 . S
N347 H350 0.984 . S
N347 H351 0.985 . S
H348 N343 0.984 . S
H349 N343 0.985 . S
H350 N347 0.984 . S
H351 N347 0.985 . S
H352 N346 0.984 . S
H353 N346 0.984 . S
H354 N342 0.984 . S
H355 N342 0.985 . S
C356 C357 1.363 . S
C356 C362 1.379 . S
C356 N364 1.356 . S
C357 C356 1.363 . S
C357 C363 1.363 . S
C358 C359 1.363 . S
C358 C363 1.379 . S
C358 N365 1.356 . S
C359 C358 1.363 . S
C359 C362 1.363 . S
N360 C362 1.356 . S
N360 H372 0.984 . S
N360 H373 0.985 . S
N361 C363 1.356 . S
N361 H366 0.984 . S
N361 H367 0.985 . S
C362 C356 1.379 . S
C362 C359 1.363 . S
C362 N360 1.356 . S
C363 C357 1.363 . S
C363 C358 1.379 . S
C363 N361 1.356 . S
N364 C356 1.356 . S
N364 H370 0.984 . S
N364 H371 0.984 . S
N365 C358 1.356 . S
N365 H368 0.984 . S
N365 H369 0.985 . S
H366 N361 0.984 . S
H367 N361 0.985 . S
H368 N365 0.984 . S
H369 N365 0.985 . S
H370 N364 0.984 . S
H371 N364 0.984 . S
H372 N360 0.984 . S
H373 N360 0.985 . S
C374 C375 1.363 . S
C374 C380 1.379 . S
C374 N382 1.356 . S
C375 C374 1.363 . S
C375 C381 1.363 . S
C376 C377 1.363 . S
C376 C381 1.379 . S
C376 N383 1.356 . S
C377 C376 1.363 . S
C377 C380 1.363 . S
N378 C380 1.356 . S
N378 H390 0.984 . S
N378 H391 0.985 . S
N379 C381 1.356 . S
N379 H384 0.984 . S
N379 H385 0.985 . S
C380 C374 1.379 . S
C380 C377 1.363 . S
C380 N378 1.356 . S
C381 C375 1.363 . S
C381 C376 1.379 . S
C381 N379 1.356 . S
N382 C374 1.356 . S
N382 H388 0.984 . S
N382 H389 0.984 . S
N383 C376 1.356 . S
N383 H386 0.984 . S
N383 H387 0.985 . S
H384 N379 0.984 . S
H385 N379 0.985 . S
H386 N383 0.984 . S
H387 N383 0.985 . S
H388 N382 0.984 . S
H389 N382 0.984 . S
H390 N378 0.984 . S
H391 N378 0.985 . S
C105 C5 1.242 . S
C107 C34 1.240 . S
C123 C47 1.240 1_455 S
C125 C18 1.242 . S
C141 C31 1.242 . S
C143 C8 1.240 1_655 S
C159 C44 1.242 . S
C161 C21 1.240 . S
C177 C86 1.240 . S
C179 C57 1.242 . S
C195 C70 1.242 . S
C197 C99 1.240 1_655 S
C213 C83 1.242 . S
C215 C60 1.240 1_455 S
C231 C96 1.242 . S
C233 C73 1.240 . S
C249 C0 1.513 . S
C251 C52 1.513 . S
C267 C13 1.513 . S
C269 C65 1.513 . S
C285 C26 1.513 . S
C287 C78 1.513 . S
C303 C91 1.513 . S
C305 C39 1.513 . S
C321 C10 1.537 . S
C323 C23 1.537 . S
C339 C49 1.537 . S
C341 C36 1.537 . S
C357 C75 1.537 . S
C359 C62 1.537 . S
C375 C88 1.537 . S
C377 C101 1.537 . S
