# Generated by pormake.
# Topology yfq, (5)-cn, num edge types: 1
# Building blocks:
#     Node 0, Type 0, BuildingBlock: BEQFEK_clean_sbu_0, # of connection points: 5
#     Node 1, Type 0, BuildingBlock: BEQFEK_clean_sbu_0, # of connection points: 5
#     Node 2, Type 0, BuildingBlock: BEQFEK_clean_sbu_0, # of connection points: 5
#     Node 3, Type 0, BuildingBlock: BEQFEK_clean_sbu_0, # of connection points: 5
#     Node 4, Type 0, BuildingBlock: BEQFEK_clean_sbu_0, # of connection points: 5
#     Node 5, Type 0, BuildingBlock: BEQFEK_clean_sbu_0, # of connection points: 5
#     Node 6, Type 0, BuildingBlock: BEQFEK_clean_sbu_0, # of connection points: 5
#     Node 7, Type 0, BuildingBlock: BEQFEK_clean_sbu_0, # of connection points: 5
#     Node 8, Type 0, BuildingBlock: BEQFEK_clean_sbu_0, # of connection points: 5
#     Node 9, Type 0, BuildingBlock: BEQFEK_clean_sbu_0, # of connection points: 5
#     Node 10, Type 0, BuildingBlock: BEQFEK_clean_sbu_0, # of connection points: 5
#     Node 11, Type 0, BuildingBlock: BEQFEK_clean_sbu_0, # of connection points: 5
#     Node 12, Type 0, BuildingBlock: BEQFEK_clean_sbu_0, # of connection points: 5
#     Node 13, Type 0, BuildingBlock: BEQFEK_clean_sbu_0, # of connection points: 5
#     Node 14, Type 0, BuildingBlock: BEQFEK_clean_sbu_0, # of connection points: 5
#     Node 15, Type 0, BuildingBlock: BEQFEK_clean_sbu_0, # of connection points: 5
#     Node 16, Type 0, BuildingBlock: BEQFEK_clean_sbu_0, # of connection points: 5
#     Node 17, Type 0, BuildingBlock: BEQFEK_clean_sbu_0, # of connection points: 5
#     Node 18, Type 0, BuildingBlock: BEQFEK_clean_sbu_0, # of connection points: 5
#     Node 19, Type 0, BuildingBlock: BEQFEK_clean_sbu_0, # of connection points: 5
#     Node 20, Type 0, BuildingBlock: BEQFEK_clean_sbu_0, # of connection points: 5
#     Node 21, Type 0, BuildingBlock: BEQFEK_clean_sbu_0, # of connection points: 5
#     Node 22, Type 0, BuildingBlock: BEQFEK_clean_sbu_0, # of connection points: 5
#     Node 23, Type 0, BuildingBlock: BEQFEK_clean_sbu_0, # of connection points: 5
#     Node 24, Type 0, BuildingBlock: BEQFEK_clean_sbu_0, # of connection points: 5
#     Node 25, Type 0, BuildingBlock: BEQFEK_clean_sbu_0, # of connection points: 5
#     Node 26, Type 0, BuildingBlock: BEQFEK_clean_sbu_0, # of connection points: 5
#     Node 27, Type 0, BuildingBlock: BEQFEK_clean_sbu_0, # of connection points: 5
#     Node 28, Type 0, BuildingBlock: BEQFEK_clean_sbu_0, # of connection points: 5
#     Node 29, Type 0, BuildingBlock: BEQFEK_clean_sbu_0, # of connection points: 5
#     Node 30, Type 0, BuildingBlock: BEQFEK_clean_sbu_0, # of connection points: 5
#     Node 31, Type 0, BuildingBlock: BEQFEK_clean_sbu_0, # of connection points: 5
#     Edge 32, Type (0, 0), BuildingBlock: AJUNOK_clean_linker_0, # of connection points: 2
#     Edge 33, Type (0, 0), BuildingBlock: AJUNOK_clean_linker_0, # of connection points: 2
#     Edge 34, Type (0, 0), BuildingBlock: AJUNOK_clean_linker_0, # of connection points: 2
#     Edge 35, Type (0, 0), BuildingBlock: AJUNOK_clean_linker_0, # of connection points: 2
#     Edge 36, Type (0, 0), BuildingBlock: AJUNOK_clean_linker_0, # of connection points: 2
#     Edge 37, Type (0, 0), BuildingBlock: AJUNOK_clean_linker_0, # of connection points: 2
#     Edge 38, Type (0, 0), BuildingBlock: AJUNOK_clean_linker_0, # of connection points: 2
#     Edge 39, Type (0, 0), BuildingBlock: AJUNOK_clean_linker_0, # of connection points: 2
#     Edge 40, Type (0, 0), BuildingBlock: AJUNOK_clean_linker_0, # of connection points: 2
#     Edge 41, Type (0, 0), BuildingBlock: AJUNOK_clean_linker_0, # of connection points: 2
#     Edge 42, Type (0, 0), BuildingBlock: AJUNOK_clean_linker_0, # of connection points: 2
#     Edge 43, Type (0, 0), BuildingBlock: AJUNOK_clean_linker_0, # of connection points: 2
#     Edge 44, Type (0, 0), BuildingBlock: AJUNOK_clean_linker_0, # of connection points: 2
#     Edge 45, Type (0, 0), BuildingBlock: AJUNOK_clean_linker_0, # of connection points: 2
#     Edge 46, Type (0, 0), BuildingBlock: AJUNOK_clean_linker_0, # of connection points: 2
#     Edge 47, Type (0, 0), BuildingBlock: AJUNOK_clean_linker_0, # of connection points: 2
#     Edge 48, Type (0, 0), BuildingBlock: AJUNOK_clean_linker_0, # of connection points: 2
#     Edge 49, Type (0, 0), BuildingBlock: AJUNOK_clean_linker_0, # of connection points: 2
#     Edge 50, Type (0, 0), BuildingBlock: AJUNOK_clean_linker_0, # of connection points: 2
#     Edge 51, Type (0, 0), BuildingBlock: AJUNOK_clean_linker_0, # of connection points: 2
#     Edge 52, Type (0, 0), BuildingBlock: AJUNOK_clean_linker_0, # of connection points: 2
#     Edge 53, Type (0, 0), BuildingBlock: AJUNOK_clean_linker_0, # of connection points: 2
#     Edge 54, Type (0, 0), BuildingBlock: AJUNOK_clean_linker_0, # of connection points: 2
#     Edge 55, Type (0, 0), BuildingBlock: AJUNOK_clean_linker_0, # of connection points: 2
#     Edge 56, Type (0, 0), BuildingBlock: AJUNOK_clean_linker_0, # of connection points: 2
#     Edge 57, Type (0, 0), BuildingBlock: AJUNOK_clean_linker_0, # of connection points: 2
#     Edge 58, Type (0, 0), BuildingBlock: AJUNOK_clean_linker_0, # of connection points: 2
#     Edge 59, Type (0, 0), BuildingBlock: AJUNOK_clean_linker_0, # of connection points: 2
#     Edge 60, Type (0, 0), BuildingBlock: AJUNOK_clean_linker_0, # of connection points: 2
#     Edge 61, Type (0, 0), BuildingBlock: AJUNOK_clean_linker_0, # of connection points: 2
#     Edge 62, Type (0, 0), BuildingBlock: AJUNOK_clean_linker_0, # of connection points: 2
#     Edge 63, Type (0, 0), BuildingBlock: AJUNOK_clean_linker_0, # of connection points: 2
#     Edge 64, Type (0, 0), BuildingBlock: AJUNOK_clean_linker_0, # of connection points: 2
#     Edge 65, Type (0, 0), BuildingBlock: AJUNOK_clean_linker_0, # of connection points: 2
#     Edge 66, Type (0, 0), BuildingBlock: AJUNOK_clean_linker_0, # of connection points: 2
#     Edge 67, Type (0, 0), BuildingBlock: AJUNOK_clean_linker_0, # of connection points: 2
#     Edge 68, Type (0, 0), BuildingBlock: AJUNOK_clean_linker_0, # of connection points: 2
#     Edge 69, Type (0, 0), BuildingBlock: AJUNOK_clean_linker_0, # of connection points: 2
#     Edge 70, Type (0, 0), BuildingBlock: AJUNOK_clean_linker_0, # of connection points: 2
#     Edge 71, Type (0, 0), BuildingBlock: AJUNOK_clean_linker_0, # of connection points: 2
#     Edge 72, Type (0, 0), BuildingBlock: AJUNOK_clean_linker_0, # of connection points: 2
#     Edge 73, Type (0, 0), BuildingBlock: AJUNOK_clean_linker_0, # of connection points: 2
#     Edge 74, Type (0, 0), BuildingBlock: AJUNOK_clean_linker_0, # of connection points: 2
#     Edge 75, Type (0, 0), BuildingBlock: AJUNOK_clean_linker_0, # of connection points: 2
#     Edge 76, Type (0, 0), BuildingBlock: AJUNOK_clean_linker_0, # of connection points: 2
#     Edge 77, Type (0, 0), BuildingBlock: AJUNOK_clean_linker_0, # of connection points: 2
#     Edge 78, Type (0, 0), BuildingBlock: AJUNOK_clean_linker_0, # of connection points: 2
#     Edge 79, Type (0, 0), BuildingBlock: AJUNOK_clean_linker_0, # of connection points: 2
#     Edge 80, Type (0, 0), BuildingBlock: AJUNOK_clean_linker_0, # of connection points: 2
#     Edge 81, Type (0, 0), BuildingBlock: AJUNOK_clean_linker_0, # of connection points: 2
#     Edge 82, Type (0, 0), BuildingBlock: AJUNOK_clean_linker_0, # of connection points: 2
#     Edge 83, Type (0, 0), BuildingBlock: AJUNOK_clean_linker_0, # of connection points: 2
#     Edge 84, Type (0, 0), BuildingBlock: AJUNOK_clean_linker_0, # of connection points: 2
#     Edge 85, Type (0, 0), BuildingBlock: AJUNOK_clean_linker_0, # of connection points: 2
#     Edge 86, Type (0, 0), BuildingBlock: AJUNOK_clean_linker_0, # of connection points: 2
#     Edge 87, Type (0, 0), BuildingBlock: AJUNOK_clean_linker_0, # of connection points: 2
#     Edge 88, Type (0, 0), BuildingBlock: AJUNOK_clean_linker_0, # of connection points: 2
#     Edge 89, Type (0, 0), BuildingBlock: AJUNOK_clean_linker_0, # of connection points: 2
#     Edge 90, Type (0, 0), BuildingBlock: AJUNOK_clean_linker_0, # of connection points: 2
#     Edge 91, Type (0, 0), BuildingBlock: AJUNOK_clean_linker_0, # of connection points: 2
#     Edge 92, Type (0, 0), BuildingBlock: AJUNOK_clean_linker_0, # of connection points: 2
#     Edge 93, Type (0, 0), BuildingBlock: AJUNOK_clean_linker_0, # of connection points: 2
#     Edge 94, Type (0, 0), BuildingBlock: AJUNOK_clean_linker_0, # of connection points: 2
#     Edge 95, Type (0, 0), BuildingBlock: AJUNOK_clean_linker_0, # of connection points: 2
#     Edge 96, Type (0, 0), BuildingBlock: AJUNOK_clean_linker_0, # of connection points: 2
#     Edge 97, Type (0, 0), BuildingBlock: AJUNOK_clean_linker_0, # of connection points: 2
#     Edge 98, Type (0, 0), BuildingBlock: AJUNOK_clean_linker_0, # of connection points: 2
#     Edge 99, Type (0, 0), BuildingBlock: AJUNOK_clean_linker_0, # of connection points: 2
#     Edge 100, Type (0, 0), BuildingBlock: AJUNOK_clean_linker_0, # of connection points: 2
#     Edge 101, Type (0, 0), BuildingBlock: AJUNOK_clean_linker_0, # of connection points: 2
#     Edge 102, Type (0, 0), BuildingBlock: AJUNOK_clean_linker_0, # of connection points: 2
#     Edge 103, Type (0, 0), BuildingBlock: AJUNOK_clean_linker_0, # of connection points: 2
#     Edge 104, Type (0, 0), BuildingBlock: AJUNOK_clean_linker_0, # of connection points: 2
#     Edge 105, Type (0, 0), BuildingBlock: AJUNOK_clean_linker_0, # of connection points: 2
#     Edge 106, Type (0, 0), BuildingBlock: AJUNOK_clean_linker_0, # of connection points: 2
#     Edge 107, Type (0, 0), BuildingBlock: AJUNOK_clean_linker_0, # of connection points: 2
#     Edge 108, Type (0, 0), BuildingBlock: AJUNOK_clean_linker_0, # of connection points: 2
#     Edge 109, Type (0, 0), BuildingBlock: AJUNOK_clean_linker_0, # of connection points: 2
#     Edge 110, Type (0, 0), BuildingBlock: AJUNOK_clean_linker_0, # of connection points: 2
#     Edge 111, Type (0, 0), BuildingBlock: AJUNOK_clean_linker_0, # of connection points: 2
# Relax obj value: 0.343
# Max RMSD: 0.207
# Mean RMSD: 0.207
data_MOF--net-yfq--node1-BEQFEK_clean_sbu_0--edge1-AJUNOK_clean_linker_0
_symmetry_space_group_name_H-M    P1
_symmetry_Int_Tables_number       1
_symmetry_cell_setting            triclinic
loop_
_symmetry_equiv_pos_as_xyz
'x, y, z'
_cell_length_a     43.533823
_cell_length_b     43.488621
_cell_length_c     48.86662
_cell_angle_alpha  90.082486
_cell_angle_beta   90.02102
_cell_angle_gamma 89.98157
loop_
_atom_site_label
_atom_site_type_symbol
_atom_site_fract_x
_atom_site_fract_y
_atom_site_fract_z
_atom_type_partial_charge
Co0 Co 0.1112 0.21154 0.32025 0.0
Co1 Co 0.10046 0.17072 0.26762 0.0
C2 C 0.05677 0.22005 0.28278 0.0
O3 O 0.07273 0.22627 0.30386 0.0
O4 O 0.06515 0.19949 0.26582 0.0
C5 C 0.12073 0.26889 0.34576 0.0
O6 O 0.11471 0.2784 0.32081 0.0
C7 C 0.09762 0.15931 0.20839 0.0
C8 C 0.10324 0.10895 0.20561 0.0
C9 C 0.09914 0.13512 0.18985 0.0
N10 N 0.10084 0.14799 0.23387 0.0
N11 N 0.10418 0.11784 0.23204 0.0
C12 C 0.09101 0.19239 0.20228 0.0
H13 H 0.09533 0.20693 0.22053 0.0
H14 H 0.10537 0.20072 0.18513 0.0
H15 H 0.06661 0.19471 0.19603 0.0
C16 C 0.171 0.22061 0.29523 0.0
N17 N 0.14272 0.20836 0.29495 0.0
N18 N 0.13874 0.19217 0.27242 0.0
C19 C 0.16453 0.19452 0.25719 0.0
C20 C 0.18551 0.2126 0.27126 0.0
C21 C 0.18355 0.24047 0.31768 0.0
H22 H 0.17633 0.23143 0.33786 0.0
H23 H 0.17468 0.26419 0.31517 0.0
H24 H 0.20894 0.24164 0.31724 0.0
O25 O 0.10307 0.17157 0.33555 0.0
O26 O 0.09119 0.14241 0.29953 0.0
H27 H 0.19402 0.18024 0.22398 0.0
H28 H 0.15588 0.19195 0.21427 0.0
C29 C 0.16944 0.17957 0.22997 0.0
H30 H 0.1616 0.15535 0.23066 0.0
H31 H 0.10706 0.10334 0.24883 0.0
O32 O 0.12123 0.24016 0.35036 0.0
C33 C 0.09418 0.14621 0.32537 0.0
Co34 Co 0.01951 0.86275 0.57009 0.0
Co35 Co 0.062 0.85455 0.51801 0.0
C36 C 0.01503 0.80807 0.53221 0.0
O37 O 0.00758 0.82348 0.55335 0.0
O38 O 0.03509 0.81781 0.51539 0.0
C39 C 0.96183 0.86925 0.59734 0.0
O40 O 0.95104 0.86224 0.573 0.0
C41 C 0.07604 0.8525 0.45901 0.0
C42 C 0.12547 0.86357 0.45821 0.0
C43 C 0.10069 0.85712 0.44124 0.0
N44 N 0.08588 0.85635 0.48494 0.0
N45 N 0.11553 0.86272 0.48429 0.0
C46 C 0.04318 0.84651 0.45175 0.0
H47 H 0.02786 0.85334 0.46886 0.0
H48 H 0.03671 0.85921 0.43293 0.0
H49 H 0.04003 0.82154 0.448 0.0
C50 C 0.00755 0.92204 0.545 0.0
N51 N 0.02133 0.89445 0.54482 0.0
N52 N 0.03854 0.89167 0.52277 0.0
C53 C 0.03556 0.91764 0.50786 0.0
C54 C 0.01582 0.9374 0.52155 0.0
C55 C 0.98616 0.93314 0.56691 0.0
H56 H -0.00445 0.92732 0.58733 0.0
H57 H 0.96358 0.92177 0.56432 0.0
H58 H 0.9824 0.9583 0.5659 0.0
O59 O 0.05961 0.85668 0.58589 0.0
O60 O 0.08997 0.84646 0.55035 0.0
H61 H 0.07613 0.91686 0.48302 0.0
H62 H 0.05066 0.94884 0.47625 0.0
C63 C 0.05177 0.92403 0.4815 0.0
H64 H 0.04067 0.91077 0.46484 0.0
H65 H 0.12887 0.86694 0.50163 0.0
O66 O 0.9907 0.87132 0.60052 0.0
C67 C 0.08552 0.84897 0.57614 0.0
Co68 Co 0.38254 0.76759 0.81485 0.0
Co69 Co 0.38851 0.81501 0.76588 0.0
C70 C 0.43543 0.7657 0.77659 0.0
O71 O 0.42029 0.75376 0.79615 0.0
O72 O 0.42588 0.78932 0.76383 0.0
C73 C 0.37165 0.71032 0.84321 0.0
O74 O 0.3764 0.69755 0.81918 0.0
C75 C 0.39682 0.8327 0.70788 0.0
C76 C 0.36816 0.87442 0.70498 0.0
C77 C 0.38574 0.85438 0.68938 0.0
N78 N 0.38568 0.8393 0.73296 0.0
N79 N 0.36896 0.86457 0.73109 0.0
C80 C 0.41864 0.80682 0.7023 0.0
H81 H 0.43808 0.80809 0.71689 0.0
H82 H 0.4067 0.78457 0.70551 0.0
H83 H 0.4283 0.8078 0.68135 0.0
C84 C 0.32225 0.75784 0.79055 0.0
N85 N 0.34991 0.77143 0.79065 0.0
N86 N 0.3523 0.78996 0.76945 0.0
C87 C 0.32625 0.78769 0.75456 0.0
C88 C 0.30661 0.76726 0.76756 0.0
C89 C 0.30968 0.73858 0.81333 0.0
H90 H 0.31778 0.74744 0.83334 0.0
H91 H 0.3175 0.71451 0.81068 0.0
H92 H 0.28419 0.7387 0.81334 0.0
O93 O 0.39052 0.80715 0.83151 0.0
O94 O 0.39485 0.84239 0.79875 0.0
H95 H 0.31741 0.82862 0.73181 0.0
H96 H 0.29999 0.79457 0.71744 0.0
C97 C 0.32067 0.80371 0.72795 0.0
H98 H 0.34084 0.80068 0.7144 0.0
H99 H 0.35721 0.87449 0.74748 0.0
O100 O 0.37322 0.73935 0.84538 0.0
C101 C 0.39486 0.83471 0.82397 0.0
Co102 Co 0.469 0.12592 0.06892 0.0
Co103 Co 0.42656 0.13492 0.01701 0.0
C104 C 0.47524 0.1801 0.03052 0.0
O105 O 0.48234 0.16435 0.05151 0.0
O106 O 0.45401 0.17136 0.01431 0.0
C107 C 0.52686 0.11758 0.09479 0.0
O108 O 0.53687 0.12307 0.06991 0.0
C109 C 0.40888 0.14163 0.95887 0.0
C110 C 0.36662 0.11364 0.95683 0.0
C111 C 0.38679 0.13051 0.94093 0.0
N112 N 0.40215 0.13168 0.98427 0.0
N113 N 0.37657 0.11534 0.98291 0.0
C114 C 0.43748 0.15886 0.95169 0.0
H115 H 0.4574 0.14878 0.96266 0.0
H116 H 0.44182 0.1585 0.92931 0.0
H117 H 0.43502 0.18308 0.95852 0.0
C118 C 0.48089 0.06696 0.04318 0.0
N119 N 0.46679 0.09437 0.04365 0.0
N120 N 0.45025 0.09789 0.0213 0.0
C121 C 0.45416 0.07272 1.00544 0.0
C122 C 0.47387 0.05271 0.01883 0.0
C123 C 0.49902 0.05364 0.06636 0.0
H124 H 0.48913 0.06098 0.08622 0.0
H125 H 0.52311 0.06173 0.06504 0.0
H126 H 0.49917 0.02813 0.06543 0.0
O127 O 0.42919 0.13292 0.08489 0.0
O128 O 0.39869 0.14302 0.04946 0.0
H129 H 0.41526 0.06597 0.97952 0.0
H130 H 0.44985 0.04764 0.96732 0.0
C131 C 0.44051 0.06839 0.97762 0.0
H132 H 0.44544 0.08882 0.96485 0.0
H133 H 0.36662 0.10428 0.99963 0.0
O134 O 0.49807 0.11688 0.09894 0.0
C135 C 0.40325 0.14063 0.07522 0.0
Co136 Co 0.10722 0.76679 0.19731 0.0
Co137 Co 0.10254 0.81622 0.2448 0.0
C138 C 0.05522 0.76647 0.23637 0.0
O139 O 0.06984 0.75374 0.21685 0.0
O140 O 0.06526 0.79045 0.24832 0.0
C141 C 0.11394 0.70854 0.16993 0.0
O142 O 0.10628 0.69729 0.19391 0.0
C143 C 0.10111 0.8305 0.30338 0.0
C144 C 0.10957 0.88047 0.30451 0.0
C145 C 0.10433 0.85526 0.32131 0.0
N146 N 0.10443 0.84068 0.27754 0.0
N147 N 0.10931 0.87063 0.27835 0.0
C148 C 0.0968 0.79729 0.31039 0.0
H149 H 0.10483 0.78244 0.29334 0.0
H150 H 0.10945 0.79142 0.3294 0.0
H151 H 0.072 0.79273 0.31363 0.0
C152 C 0.16778 0.75734 0.22111 0.0
N153 N 0.14038 0.77149 0.22084 0.0
N154 N 0.13906 0.79176 0.24089 0.0
C155 C 0.16583 0.79062 0.25485 0.0
C156 C 0.18457 0.76883 0.24263 0.0
C157 C 0.17764 0.73284 0.20143 0.0
H158 H 0.17262 0.74021 0.1802 0.0
H159 H 0.16474 0.71145 0.20581 0.0
H160 H 0.20254 0.72778 0.20321 0.0
O161 O 0.09895 0.806 0.17984 0.0
O162 O 0.09536 0.84259 0.21163 0.0
H163 H 0.19877 0.81002 0.283 0.0
H164 H 0.16197 0.80061 0.29748 0.0
C165 C 0.17363 0.81001 0.27916 0.0
H166 H 0.16562 0.83392 0.2759 0.0
H167 H 0.1127 0.8843 0.26107 0.0
O168 O 0.116 0.7375 0.16724 0.0
C169 C 0.09484 0.8339 0.18665 0.0
Co170 Co 0.46585 0.86239 0.43955 0.0
Co171 Co 0.4269 0.85207 0.49341 0.0
C172 C 0.47462 0.80739 0.47703 0.0
O173 O 0.48009 0.8236 0.45592 0.0
O174 O 0.45488 0.81592 0.49476 0.0
C175 C 0.52243 0.87278 0.41209 0.0
O176 O 0.5333 0.8676 0.43675 0.0
C177 C 0.41177 0.84655 0.5522 0.0
C178 C 0.36763 0.87151 0.55434 0.0
C179 C 0.3895 0.85693 0.57029 0.0
N180 N 0.40356 0.85482 0.52667 0.0
N181 N 0.37688 0.86928 0.5281 0.0
C182 C 0.44168 0.83158 0.55922 0.0
H183 H 0.46015 0.84047 0.54574 0.0
H184 H 0.44783 0.83552 0.581 0.0
H185 H 0.43966 0.80646 0.55563 0.0
C186 C 0.47848 0.92125 0.4657 0.0
N187 N 0.46481 0.8936 0.4654 0.0
N188 N 0.44954 0.8895 0.48838 0.0
C189 C 0.45373 0.91455 0.50433 0.0
C190 C 0.47236 0.93503 0.49041 0.0
C191 C 0.49572 0.9352 0.44229 0.0
H192 H 0.48565 0.92772 0.42255 0.0
H193 H 0.52009 0.92792 0.44329 0.0
H194 H 0.49512 0.9607 0.4434 0.0
O195 O 0.42513 0.8551 0.4252 0.0
O196 O 0.39776 0.84365 0.46224 0.0
H197 H 0.41567 0.91856 0.53169 0.0
H198 H 0.44898 0.94039 0.542 0.0
C199 C 0.44111 0.91854 0.53257 0.0
H200 H 0.4486 0.89909 0.54557 0.0
H201 H 0.36564 0.8788 0.51127 0.0
O202 O 0.49353 0.8721 0.40851 0.0
C203 C 0.40026 0.84634 0.4363 0.0
Co204 Co 0.37788 0.2216 0.69568 0.0
Co205 Co 0.38385 0.1748 0.74519 0.0
C206 C 0.42986 0.22487 0.73514 0.0
O207 O 0.41495 0.2359 0.71502 0.0
O208 O 0.4207 0.20119 0.74801 0.0
C209 C 0.36882 0.27949 0.66908 0.0
O210 O 0.37383 0.29043 0.69376 0.0
C211 C 0.39185 0.15736 0.80326 0.0
C212 C 0.36174 0.11674 0.80674 0.0
C213 C 0.37979 0.1366 0.82206 0.0
N214 N 0.38056 0.15069 0.77824 0.0
N215 N 0.36299 0.12603 0.78046 0.0
C216 C 0.41508 0.18205 0.8085 0.0
H217 H 0.43454 0.17927 0.79408 0.0
H218 H 0.40448 0.20488 0.80477 0.0
H219 H 0.42438 0.18097 0.8296 0.0
C220 C 0.31752 0.23151 0.71958 0.0
N221 N 0.34502 0.21758 0.71952 0.0
N222 N 0.3474 0.19943 0.74099 0.0
C223 C 0.32148 0.20228 0.75598 0.0
C224 C 0.30197 0.22268 0.74278 0.0
C225 C 0.3053 0.25119 0.69693 0.0
H226 H 0.31335 0.24246 0.67687 0.0
H227 H 0.31346 0.27512 0.69981 0.0
H228 H 0.2798 0.25146 0.69691 0.0
O229 O 0.38669 0.18213 0.6791 0.0
O230 O 0.39131 0.14749 0.71238 0.0
H231 H 0.31223 0.16234 0.77993 0.0
H232 H 0.29579 0.19719 0.79362 0.0
C233 C 0.3161 0.18729 0.78308 0.0
H234 H 0.33657 0.19035 0.79628 0.0
H235 H 0.35094 0.11622 0.76419 0.0
O236 O 0.36907 0.25056 0.66553 0.0
C237 C 0.39165 0.15479 0.68705 0.0
Co238 Co 0.02188 0.12668 0.94024 0.0
Co239 Co 0.06202 0.13759 0.99323 0.0
C240 C 0.01358 0.18185 0.97738 0.0
O241 O 0.0077 0.16586 0.95617 0.0
O242 O 0.03335 0.17312 0.99492 0.0
C243 C 0.9651 0.11639 0.91332 0.0
O244 O 0.95451 0.12259 0.93789 0.0
C245 C 0.07396 0.14067 0.05231 0.0
C246 C 0.12352 0.13031 0.05502 0.0
C247 C 0.09782 0.1365 0.0708 0.0
N248 N 0.08494 0.13669 0.02681 0.0
N249 N 0.11465 0.13065 0.02858 0.0
C250 C 0.04166 0.15032 0.05837 0.0
H251 H 0.02551 0.13866 0.04417 0.0
H252 H 0.03518 0.1457 0.07989 0.0
H253 H 0.03974 0.17542 0.05485 0.0
C254 C 0.01212 0.06692 0.96572 0.0
N255 N 0.02431 0.09529 0.9659 0.0
N256 N 0.04047 0.09936 0.98841 0.0
C257 C 0.03826 0.07357 1.00367 0.0
C258 C 0.02025 0.05245 0.9897 0.0
C259 C 0.9924 0.05421 0.94325 0.0
H260 H 0.00177 0.06101 0.92308 0.0
H261 H 0.96881 0.06346 0.94544 0.0
H262 H 0.99084 0.02882 0.944 0.0
O263 O 0.06216 0.13413 0.92521 0.0
O264 O 0.09049 0.14671 0.9615 0.0
H265 H 0.078 0.0757 0.02949 0.0
H266 H 0.05227 0.04426 0.03716 0.0
C267 C 0.05357 0.0687 0.03073 0.0
H268 H 0.04202 0.08304 0.0464 0.0
H269 H 0.12878 0.1264 0.01176 0.0
O270 O -0.00603 0.11639 0.90958 0.0
C271 C 0.08725 0.14335 0.93566 0.0
Co272 Co 0.88032 0.76595 0.69597 0.0
Co273 Co 0.88306 0.81329 0.74567 0.0
C274 C 0.93175 0.76535 0.73595 0.0
O275 O 0.91773 0.75321 0.71578 0.0
O276 O 0.92103 0.78852 0.74869 0.0
C277 C 0.87491 0.70821 0.66778 0.0
O278 O 0.88237 0.69693 0.69181 0.0
C279 C 0.88855 0.83173 0.80405 0.0
C280 C 0.85949 0.87327 0.80549 0.0
C281 C 0.87668 0.85377 0.82191 0.0
N282 N 0.87824 0.83765 0.77855 0.0
N283 N 0.86124 0.86281 0.77958 0.0
C284 C 0.91067 0.80639 0.81056 0.0
H285 H 0.93021 0.80728 0.79608 0.0
H286 H 0.89902 0.78387 0.80798 0.0
H287 H 0.92013 0.80839 0.83153 0.0
C288 C 0.81967 0.75398 0.71879 0.0
N289 N 0.84671 0.76882 0.71927 0.0
N290 N 0.84771 0.78745 0.74056 0.0
C291 C 0.82136 0.78412 0.75481 0.0
C292 C 0.8029 0.76309 0.74124 0.0
C293 C 0.81055 0.73054 0.69782 0.0
H294 H 0.82369 0.70912 0.70143 0.0
H295 H 0.7858 0.72474 0.69895 0.0
H296 H 0.81578 0.73922 0.67703 0.0
O297 O 0.8882 0.80596 0.67986 0.0
O298 O 0.89019 0.8408 0.71328 0.0
H299 H 0.79189 0.79265 0.78971 0.0
H300 H 0.83262 0.7974 0.79577 0.0
C301 C 0.81384 0.80079 0.78075 0.0
H302 H 0.81182 0.82571 0.7764 0.0
H303 H 0.85012 0.87234 0.7627 0.0
O304 O 0.87271 0.73718 0.66513 0.0
C305 C 0.89176 0.83349 0.68799 0.0
Co306 Co 0.96527 0.12932 0.44398 0.0
Co307 Co 0.91908 0.13652 0.49366 0.0
C308 C 0.97039 0.18131 0.4832 0.0
O309 O 0.98106 0.166 0.46313 0.0
O310 O 0.94659 0.17268 0.49616 0.0
C311 C 0.02222 0.11913 0.41618 0.0
O312 O 0.03373 0.12578 0.44033 0.0
C313 C 0.90792 0.13858 0.55255 0.0
C314 C 0.85774 0.13223 0.55588 0.0
C315 C 0.88412 0.13642 0.57132 0.0
N316 N 0.89624 0.13546 0.52721 0.0
N317 N 0.86619 0.13175 0.52932 0.0
C318 C 0.94096 0.14572 0.5582 0.0
H319 H 0.95591 0.13264 0.54394 0.0
H320 H 0.94733 0.14072 0.57969 0.0
H321 H 0.94491 0.17055 0.55439 0.0
C322 C 0.97262 0.06809 0.46727 0.0
N323 N 0.96014 0.09632 0.46767 0.0
N324 N 0.94152 0.09891 0.48881 0.0
C325 C 0.94225 0.07224 0.50291 0.0
C326 C 0.96184 0.05211 0.48956 0.0
C327 C -0.00466 0.05693 0.44649 0.0
H328 H 0.98734 0.06291 0.42564 0.0
H329 H 0.01779 0.06812 0.45032 0.0
H330 H -0.00116 0.03173 0.44759 0.0
O331 O 0.92566 0.13962 0.42809 0.0
O332 O 0.89144 0.14475 0.46169 0.0
H333 H 0.90045 0.07408 0.52603 0.0
H334 H 0.92413 0.04079 0.53304 0.0
C335 C 0.92437 0.06577 0.52838 0.0
H336 H 0.9351 0.07807 0.54581 0.0
H337 H 0.85148 0.1289 0.51265 0.0
O338 O 0.99324 0.11921 0.4132 0.0
C339 C 0.89851 0.14513 0.43633 0.0
Co340 Co 0.60599 0.22128 0.19565 0.0
Co341 Co 0.60233 0.17346 0.24438 0.0
C342 C 0.55413 0.22192 0.23519 0.0
O343 O 0.56839 0.23417 0.21524 0.0
O344 O 0.56463 0.19855 0.24771 0.0
C345 C 0.61537 0.27932 0.1681 0.0
O346 O 0.61082 0.29123 0.1925 0.0
C347 C 0.60151 0.15969 0.30306 0.0
C348 C 0.61244 0.1102 0.3043 0.0
C349 C 0.60619 0.13527 0.32105 0.0
N350 N 0.60509 0.14947 0.27724 0.0
N351 N 0.6114 0.11979 0.27811 0.0
C352 C 0.59571 0.19274 0.30992 0.0
H353 H 0.60266 0.20776 0.29266 0.0
H354 H 0.60843 0.19947 0.32868 0.0
H355 H 0.57078 0.19615 0.31353 0.0
C356 C 0.66698 0.23153 0.2185 0.0
N357 N 0.63945 0.21769 0.21913 0.0
N358 N 0.63831 0.19849 0.23994 0.0
C359 C 0.66522 0.20021 0.25365 0.0
C360 C 0.68382 0.22159 0.24063 0.0
C361 C 0.67841 0.25127 0.19555 0.0
H362 H 0.67014 0.2422 0.17568 0.0
H363 H 0.66987 0.27507 0.19835 0.0
H364 H 0.70389 0.252 0.1951 0.0
O365 O 0.59838 0.18152 0.17887 0.0
O366 O 0.59555 0.14617 0.21172 0.0
H367 H 0.66662 0.15758 0.27557 0.0
H368 H 0.69748 0.18374 0.28415 0.0
C369 C 0.67281 0.18205 0.27875 0.0
H370 H 0.65929 0.19102 0.29621 0.0
H371 H 0.61535 0.10617 0.26087 0.0
O372 O 0.61415 0.25032 0.16523 0.0
C373 C 0.59478 0.15384 0.18651 0.0
Co374 Co 0.51938 0.85491 0.94534 0.0
Co375 Co 0.56664 0.85073 0.99458 0.0
C376 C 0.51758 0.80346 0.9856 0.0
O377 O 0.50598 0.81783 0.96539 0.0
O378 O 0.54109 0.81341 0.99829 0.0
C379 C 0.46133 0.86412 0.91814 0.0
O380 O 0.44988 0.85992 0.94272 0.0
C381 C 0.58333 0.84599 0.05273 0.0
C382 C 0.62681 0.87202 0.05474 0.0
C383 C 0.60553 0.85664 0.07074 0.0
N384 N 0.59101 0.85475 0.02721 0.0
N385 N 0.6173 0.86992 0.02853 0.0
C386 C 0.55368 0.8306 0.0599 0.0
H387 H 0.53474 0.84047 0.0475 0.0
H388 H 0.54831 0.83311 0.08199 0.0
H389 H 0.55545 0.80576 0.0549 0.0
C390 C 0.5097 0.91618 0.96794 0.0
N391 N 0.5233 0.8885 0.96857 0.0
N392 N 0.54174 0.88682 0.98991 0.0
C393 C 0.53943 0.91337 1.00413 0.0
C394 C 0.51906 0.93259 0.99055 0.0
C395 C 0.49013 0.92784 0.94496 0.0
H396 H 0.49878 0.91903 0.92513 0.0
H397 H 0.46615 0.92001 0.94801 0.0
H398 H 0.49013 0.95335 0.94428 0.0
O399 O 0.5589 0.84648 0.9287 0.0
O400 O 0.59377 0.84303 0.96192 0.0
H401 H 0.58024 0.92141 0.02736 0.0
H402 H 0.54679 0.94122 0.04037 0.0
C403 C 0.55514 0.91963 0.0308 0.0
H404 H 0.55082 0.90036 0.04508 0.0
H405 H 0.6281 0.87989 0.01169 0.0
O406 O 0.49027 0.86302 0.91499 0.0
C407 C 0.58635 0.84226 0.93663 0.0
Co408 Co 0.87374 0.2145 0.82111 0.0
Co409 Co 0.88462 0.17482 0.76776 0.0
C410 C 0.92768 0.22475 0.7832 0.0
O411 O 0.9117 0.2303 0.80443 0.0
O412 O 0.91956 0.20412 0.76614 0.0
C413 C 0.86127 0.27096 0.84845 0.0
O414 O 0.86513 0.28203 0.82367 0.0
C415 C 0.88915 0.16233 0.70867 0.0
C416 C 0.87705 0.11309 0.70619 0.0
C417 C 0.88501 0.13823 0.69031 0.0
N418 N 0.88367 0.15192 0.73413 0.0
N419 N 0.87656 0.12242 0.7325 0.0
C420 C 0.9001 0.19424 0.70264 0.0
H421 H 0.92495 0.19567 0.70754 0.0
H422 H 0.88798 0.21101 0.71595 0.0
H423 H 0.89698 0.20043 0.68084 0.0
C424 C 0.81387 0.22383 0.79607 0.0
N425 N 0.84215 0.21162 0.79579 0.0
N426 N 0.84627 0.19594 0.77299 0.0
C427 C 0.82054 0.19848 0.75767 0.0
C428 C 0.79956 0.21647 0.77186 0.0
C429 C 0.79976 0.24051 0.81978 0.0
H430 H 0.80839 0.23101 0.83935 0.0
H431 H 0.80563 0.26526 0.8185 0.0
H432 H 0.77434 0.23846 0.81939 0.0
O433 O 0.88255 0.17422 0.83567 0.0
O434 O 0.89417 0.14601 0.79904 0.0
H435 H 0.8211 0.1599 0.73045 0.0
H436 H 0.79301 0.18897 0.72169 0.0
C437 C 0.8165 0.18497 0.72973 0.0
H438 H 0.8332 0.19562 0.71553 0.0
H439 H 0.87113 0.10873 0.74932 0.0
O440 O 0.86341 0.24211 0.85201 0.0
C441 C 0.89141 0.14913 0.82494 0.0
Co442 Co 0.51654 0.13179 0.56532 0.0
Co443 Co 0.56523 0.13665 0.51732 0.0
C444 C 0.51575 0.18397 0.52634 0.0
O445 O 0.5032 0.1692 0.54583 0.0
O446 O 0.5396 0.17406 0.51416 0.0
C447 C 0.45863 0.12253 0.59345 0.0
O448 O 0.44627 0.12746 0.56931 0.0
C449 C 0.57986 0.13853 0.45881 0.0
C450 C 0.62929 0.12744 0.45794 0.0
C451 C 0.60449 0.13398 0.44101 0.0
N452 N 0.5897 0.13455 0.48469 0.0
N453 N 0.61935 0.12817 0.48404 0.0
C454 C 0.54694 0.1444 0.45167 0.0
H455 H 0.5317 0.13725 0.46872 0.0
H456 H 0.54047 0.13185 0.43274 0.0
H457 H 0.54359 0.16939 0.44825 0.0
C458 C 0.50775 0.07077 0.54189 0.0
N459 N 0.52121 0.09851 0.54175 0.0
N460 N 0.5409 0.1001 0.52131 0.0
C461 C 0.53999 0.07324 0.50742 0.0
C462 C 0.5188 0.05409 0.52004 0.0
C463 C 0.48645 0.05942 0.56371 0.0
H464 H 0.49451 0.06721 0.58407 0.0
H465 H 0.46311 0.06867 0.55993 0.0
H466 H 0.48511 0.03394 0.5638 0.0
O467 O 0.55582 0.14043 0.58241 0.0
O468 O 0.59186 0.14379 0.55024 0.0
H469 H 0.58276 0.0718 0.48578 0.0
H470 H 0.55578 0.04224 0.47553 0.0
C471 C 0.55819 0.0665 0.48213 0.0
H472 H 0.54986 0.08127 0.46526 0.0
H473 H 0.63269 0.12391 0.50137 0.0
O474 O 0.48767 0.12317 0.59577 0.0
C475 C 0.58355 0.14466 0.57528 0.0
Co476 Co 0.60984 0.77425 0.32158 0.0
Co477 Co 0.60124 0.81214 0.26683 0.0
C478 C 0.5539 0.76866 0.28442 0.0
O479 O 0.56921 0.76327 0.30612 0.0
O480 O 0.56422 0.78587 0.26551 0.0
C481 C 0.61847 0.71751 0.34942 0.0
O482 O 0.61272 0.70644 0.32492 0.0
C483 C 0.59555 0.82883 0.20787 0.0
C484 C 0.62353 0.8711 0.20636 0.0
C485 C 0.60709 0.85094 0.18994 0.0
N486 N 0.60531 0.83543 0.23342 0.0
N487 N 0.62167 0.86098 0.23233 0.0
C488 C 0.5747 0.80249 0.20119 0.0
H489 H 0.55643 0.80072 0.21685 0.0
H490 H 0.5881 0.78078 0.2014 0.0
H491 H 0.56358 0.80544 0.18095 0.0
C492 C 0.66868 0.7594 0.29617 0.0
N493 N 0.64106 0.77317 0.29566 0.0
N494 N 0.63745 0.78772 0.27225 0.0
C495 C 0.66244 0.78235 0.25658 0.0
C496 C 0.68284 0.76438 0.27137 0.0
C497 C 0.68138 0.74186 0.32 0.0
H498 H 0.67396 0.75259 0.33948 0.0
H499 H 0.67294 0.71784 0.31909 0.0
H500 H 0.70679 0.74099 0.31963 0.0
O501 O 0.60596 0.81541 0.33569 0.0
O502 O 0.59308 0.84157 0.29828 0.0
H503 H 0.66899 0.82017 0.22941 0.0
H504 H 0.6883 0.7855 0.21883 0.0
C505 C 0.66711 0.79478 0.22837 0.0
H506 H 0.64703 0.78888 0.21544 0.0
H507 H 0.63234 0.87103 0.24924 0.0
O508 O 0.61837 0.74647 0.35279 0.0
C509 C 0.59686 0.83993 0.3242 0.0
Co510 Co 0.97055 0.85712 0.06465 0.0
Co511 Co 0.92166 0.85403 0.01663 0.0
C512 C 0.97042 0.80576 0.02438 0.0
O513 O 0.98305 0.81996 0.04421 0.0
O514 O 0.94661 0.81614 0.0124 0.0
C515 C 0.02895 0.86331 0.09185 0.0
O516 O 0.04016 0.85646 0.06764 0.0
C517 C 0.90431 0.85059 0.95856 0.0
C518 C 0.8597 0.87471 0.95764 0.0
C519 C 0.88134 0.86061 0.94106 0.0
N520 N 0.89671 0.85844 0.98435 0.0
N521 N 0.86979 0.87252 0.98367 0.0
C522 C 0.93426 0.8362 0.95073 0.0
H523 H 0.95299 0.84565 0.96366 0.0
H524 H 0.93956 0.84013 0.92879 0.0
H525 H 0.93294 0.81107 0.95445 0.0
C526 C 0.98059 0.91837 0.04223 0.0
N527 N 0.96646 0.89093 0.04178 0.0
N528 N 0.94703 0.88984 0.02111 0.0
C529 C 0.94905 0.9166 0.00723 0.0
C530 C 0.97016 0.93532 0.02038 0.0
C531 C 0.00406 0.92806 0.06292 0.0
H532 H -0.00397 0.92214 0.08377 0.0
H533 H 0.02588 0.91579 0.05879 0.0
H534 H 0.00871 0.95311 0.06201 0.0
O535 O 0.93129 0.84887 0.08197 0.0
O536 O 0.89518 0.84661 0.04972 0.0
H537 H 0.90614 0.92326 0.98689 0.0
H538 H 0.93662 0.9477 0.9745 0.0
C539 C 0.931 0.92435 0.98213 0.0
H540 H 0.93602 0.90727 0.96587 0.0
H541 H 0.8588 0.88156 1.00086 0.0
O542 O 1e-05 0.86493 0.09476 0.0
C543 C 0.9035 0.84517 0.07476 0.0
Co544 Co 0.60994 0.71567 0.81765 0.0
Co545 Co 0.60313 0.66741 0.76947 0.0
C546 C 0.55867 0.71963 0.77797 0.0
O547 O 0.57379 0.73111 0.79778 0.0
O548 O 0.56727 0.69513 0.76599 0.0
C549 C 0.6184 0.77362 0.84432 0.0
O550 O 0.61144 0.7843 0.81996 0.0
C551 C 0.60196 0.65563 0.71079 0.0
C552 C 0.60675 0.60521 0.70762 0.0
C553 C 0.60369 0.63168 0.69209 0.0
N554 N 0.60425 0.64396 0.73619 0.0
N555 N 0.60704 0.61377 0.73418 0.0
C556 C 0.59596 0.68889 0.705 0.0
H557 H 0.60857 0.70352 0.71987 0.0
H558 H 0.60234 0.69518 0.68379 0.0
H559 H 0.57107 0.69346 0.70768 0.0
C560 C 0.67118 0.72222 0.79448 0.0
N561 N 0.64312 0.70947 0.79444 0.0
N562 N 0.64081 0.68977 0.77402 0.0
C563 C 0.6676 0.6899 0.7601 0.0
C564 C 0.68744 0.7104 0.77273 0.0
C565 C 0.68172 0.74639 0.81422 0.0
H566 H 0.6762 0.73925 0.83542 0.0
H567 H 0.6696 0.76821 0.80971 0.0
H568 H 0.70674 0.7507 0.81274 0.0
O569 O 0.59912 0.67668 0.83452 0.0
O570 O 0.59429 0.64087 0.80213 0.0
H571 H 0.69948 0.66979 0.73134 0.0
H572 H 0.66298 0.68113 0.71732 0.0
C573 C 0.6744 0.67079 0.73537 0.0
H574 H 0.66544 0.64716 0.73823 0.0
H575 H 0.6091 0.59902 0.75091 0.0
O576 O 0.6196 0.74469 0.84774 0.0
C577 C 0.59358 0.64917 0.82722 0.0
Co578 Co 0.51834 0.35866 0.06831 0.0
Co579 Co 0.5637 0.35476 0.01778 0.0
C580 C 0.51776 0.30557 0.02907 0.0
O581 O 0.50771 0.31964 0.0501 0.0
O582 O 0.53919 0.31647 0.01429 0.0
C583 C 0.46051 0.36449 0.09592 0.0
O584 O 0.44915 0.35758 0.07175 0.0
C585 C 0.57999 0.35205 0.95935 0.0
C586 C 0.62417 0.37691 0.95821 0.0
C587 C 0.60249 0.36278 0.94169 0.0
N588 N 0.58788 0.35963 0.98514 0.0
N589 N 0.61455 0.37415 0.98432 0.0
C590 C 0.5501 0.3374 0.95172 0.0
H591 H 0.53168 0.34532 0.96576 0.0
H592 H 0.54375 0.34277 0.93026 0.0
H593 H 0.55229 0.31209 0.95387 0.0
C594 C 0.50515 0.41867 0.04479 0.0
N595 N 0.51978 0.3915 0.0442 0.0
N596 N 0.53779 0.39013 0.02256 0.0
C597 C 0.5342 0.41636 0.00815 0.0
C598 C 0.51361 0.43507 0.02197 0.0
C599 C 0.48324 0.42871 0.06669 0.0
H600 H 0.49258 0.4228 0.08711 0.0
H601 H 0.46101 0.41678 0.0637 0.0
H602 H 0.4787 0.45377 0.06599 0.0
O603 O 0.55823 0.35315 0.08466 0.0
O604 O 0.5915 0.34776 0.05042 0.0
H605 H 0.57568 0.42319 0.98562 0.0
H606 H 0.5441 0.44692 0.97434 0.0
C607 C 0.55054 0.42382 0.98208 0.0
H608 H 0.54476 0.40634 0.96638 0.0
H609 H 0.62564 0.38311 1.00148 0.0
O610 O 0.48943 0.36612 0.09874 0.0
C611 C 0.58526 0.34828 0.07598 0.0
Co612 Co 0.87644 0.27283 0.31838 0.0
Co613 Co 0.88658 0.31319 0.26544 0.0
C614 C 0.93216 0.26668 0.28155 0.0
O615 O 0.91638 0.26056 0.3028 0.0
O616 O 0.9229 0.28584 0.26369 0.0
C617 C 0.86592 0.21566 0.34537 0.0
O618 O 0.87105 0.20437 0.32083 0.0
C619 C 0.89476 0.33061 0.20737 0.0
C620 C 0.86417 0.37094 0.20412 0.0
C621 C 0.88233 0.35131 0.18869 0.0
N622 N 0.88352 0.33709 0.23241 0.0
N623 N 0.8657 0.36159 0.23035 0.0
C624 C 0.91813 0.30608 0.20205 0.0
H625 H 0.9371 0.3083 0.21706 0.0
H626 H 0.90741 0.28315 0.20491 0.0
H627 H 0.92799 0.30787 0.18119 0.0
C628 C 0.81829 0.25948 0.29161 0.0
N629 N 0.84576 0.27346 0.29219 0.0
N630 N 0.84977 0.2893 0.26952 0.0
C631 C 0.82499 0.28491 0.25334 0.0
C632 C 0.80462 0.26581 0.26691 0.0
C633 C 0.80398 0.24267 0.3151 0.0
H634 H 0.81158 0.25274 0.3348 0.0
H635 H 0.81076 0.21812 0.3142 0.0
H636 H 0.77853 0.24377 0.31402 0.0
O637 O 0.88174 0.3132 0.33373 0.0
O638 O 0.89469 0.34151 0.29766 0.0
H639 H 0.81706 0.32298 0.22676 0.0
H640 H 0.80124 0.28723 0.21452 0.0
C641 C 0.82106 0.29787 0.22524 0.0
H642 H 0.84219 0.29386 0.21312 0.0
H643 H 0.85358 0.37117 0.24668 0.0
O644 O 0.86682 0.24458 0.34876 0.0
C645 C 0.89105 0.33831 0.32347 0.0
Co646 Co 0.97165 0.62563 0.56862 0.0
Co647 Co 0.92837 0.63473 0.5171 0.0
C648 C 0.97589 0.68083 0.5316 0.0
O649 O 0.9836 0.66513 0.55246 0.0
O650 O 0.9555 0.67142 0.51489 0.0
C651 C 0.02926 0.61925 0.59586 0.0
O652 O 0.03976 0.62777 0.57184 0.0
C653 C 0.91477 0.63697 0.45822 0.0
C654 C 0.865 0.62732 0.45669 0.0
C655 C 0.89029 0.63313 0.44029 0.0
N656 N 0.9045 0.6332 0.48398 0.0
N657 N 0.87468 0.62754 0.48291 0.0
C658 C 0.94698 0.64618 0.45138 0.0
H659 H 0.96333 0.63542 0.46594 0.0
H660 H 0.95312 0.64009 0.43005 0.0
H661 H 0.94897 0.67148 0.4536 0.0
C662 C 0.98322 0.56681 0.54242 0.0
N663 N 0.96963 0.59449 0.54276 0.0
N664 N 0.95173 0.59749 0.52117 0.0
C665 C 0.95386 0.57149 0.50613 0.0
C666 C 0.97377 0.55148 0.51925 0.0
C667 C 0.00543 0.55561 0.56361 0.0
H668 H -0.00411 0.55965 0.58434 0.0
H669 H 0.02722 0.56854 0.5616 0.0
H670 H 0.01081 0.53086 0.56125 0.0
O671 O 0.93155 0.63145 0.58465 0.0
O672 O 0.90062 0.64238 0.54967 0.0
H673 H 0.91216 0.57218 0.4828 0.0
H674 H 0.93759 0.54057 0.47461 0.0
C675 C 0.9365 0.56527 0.48029 0.0
H676 H 0.94667 0.57895 0.46346 0.0
H677 H 0.86099 0.62365 0.50006 0.0
O678 O 0.00046 0.61618 0.59892 0.0
C679 C 0.90544 0.63919 0.57533 0.0
Co680 Co 0.60552 0.27067 0.69632 0.0
Co681 Co 0.60168 0.3174 0.74619 0.0
C682 C 0.55347 0.26956 0.73586 0.0
O683 O 0.56781 0.25792 0.71564 0.0
O684 O 0.56379 0.29261 0.74901 0.0
C685 C 0.6137 0.21282 0.66865 0.0
O686 O 0.6085 0.20103 0.69297 0.0
C687 C 0.59452 0.33678 0.80415 0.0
C688 C 0.62717 0.37547 0.80674 0.0
C689 C 0.60762 0.35758 0.82249 0.0
N690 N 0.60639 0.34177 0.77904 0.0
N691 N 0.62552 0.36528 0.78073 0.0
C692 C 0.57014 0.3134 0.8099 0.0
H693 H 0.55156 0.31555 0.79452 0.0
H694 H 0.58011 0.28999 0.80815 0.0
H695 H 0.55976 0.31655 0.83041 0.0
C696 C 0.6654 0.25801 0.72 0.0
N697 N 0.63859 0.27323 0.72007 0.0
N698 N 0.63695 0.29109 0.74183 0.0
C699 C 0.66255 0.28659 0.75695 0.0
C700 C 0.68104 0.26535 0.74359 0.0
C701 C 0.67726 0.23906 0.69666 0.0
H702 H 0.66962 0.24894 0.67691 0.0
H703 H 0.6685 0.21524 0.6985 0.0
H704 H 0.70274 0.2381 0.69682 0.0
O705 O 0.59834 0.31042 0.67997 0.0
O706 O 0.59498 0.34501 0.71347 0.0
H707 H 0.67428 0.32569 0.78122 0.0
H708 H 0.68802 0.28973 0.79489 0.0
C709 C 0.66859 0.30107 0.7842 0.0
H710 H 0.64776 0.29948 0.79714 0.0
H711 H 0.63828 0.37368 0.76431 0.0
O712 O 0.61342 0.24183 0.66587 0.0
C713 C 0.59447 0.33787 0.6881 0.0
Co714 Co 0.96099 0.36224 0.93889 0.0
Co715 Co 0.922 0.35328 0.99279 0.0
C716 C 0.96863 0.30751 0.9769 0.0
O717 O 0.9744 0.32302 0.95542 0.0
O718 O 0.94948 0.31695 0.99473 0.0
C719 C 0.01774 0.37219 0.91151 0.0
O720 O 0.02873 0.36743 0.9362 0.0
C721 C 0.90701 0.34732 0.05143 0.0
C722 C 0.86361 0.37341 0.05442 0.0
C723 C 0.88512 0.35767 0.06985 0.0
N724 N 0.8989 0.35655 0.02616 0.0
N725 N 0.87268 0.37179 0.02808 0.0
C726 C 0.93643 0.33119 0.05801 0.0
H727 H 0.95523 0.34016 0.04494 0.0
H728 H 0.94259 0.33397 0.07992 0.0
H729 H 0.93362 0.30632 0.05358 0.0
C730 C 0.97221 0.42247 0.96333 0.0
N731 N 0.95967 0.39427 0.96405 0.0
N732 N 0.94481 0.39049 0.98727 0.0
C733 C 0.94869 0.41604 1.00262 0.0
C734 C 0.96589 0.43697 0.98776 0.0
C735 C 0.99047 0.43513 0.93994 0.0
H736 H 0.98059 0.42734 0.92022 0.0
H737 H 0.0145 0.42694 0.94159 0.0
H738 H 0.99105 0.46059 0.94019 0.0
O739 O 0.92042 0.35523 0.92436 0.0
O740 O 0.89292 0.34425 0.96148 0.0
H741 H 0.91068 0.42112 0.02983 0.0
H742 H 0.9443 0.44235 0.04008 0.0
C743 C 0.9361 0.42054 0.03081 0.0
H744 H 0.94308 0.40101 0.04397 0.0
H745 H 0.86158 0.38207 0.01153 0.0
O746 O 0.98885 0.37132 0.90797 0.0
C747 C 0.89553 0.34659 0.9355 0.0
Co748 Co 0.87863 0.72192 0.19731 0.0
Co749 Co 0.88488 0.67213 0.24426 0.0
C750 C 0.93089 0.72344 0.23569 0.0
O751 O 0.91556 0.73618 0.21667 0.0
O752 O 0.92189 0.69873 0.24706 0.0
C753 C 0.87031 0.77968 0.16907 0.0
O754 O 0.87743 0.79193 0.19284 0.0
C755 C 0.88555 0.65872 0.30322 0.0
C756 C 0.88411 0.60804 0.3044 0.0
C757 C 0.88569 0.63385 0.32106 0.0
N758 N 0.8839 0.64811 0.27733 0.0
N759 N 0.88296 0.61775 0.27822 0.0
C760 C 0.88904 0.692 0.31051 0.0
H761 H 0.89313 0.70613 0.29203 0.0
H762 H 0.86779 0.70042 0.32048 0.0
H763 H 0.90822 0.69492 0.32526 0.0
C764 C 0.81789 0.72936 0.2213 0.0
N765 N 0.84584 0.71638 0.22106 0.0
N766 N 0.8477 0.69559 0.24061 0.0
C767 C 0.82058 0.69496 0.25401 0.0
C768 C 0.80117 0.71636 0.24214 0.0
C769 C 0.80716 0.75352 0.2017 0.0
H770 H 0.812 0.74609 0.18043 0.0
H771 H 0.81977 0.77517 0.20577 0.0
H772 H 0.78219 0.75809 0.20379 0.0
O773 O 0.88777 0.68276 0.17985 0.0
O774 O 0.8919 0.6457 0.21107 0.0
H775 H 0.82278 0.65052 0.27294 0.0
H776 H 0.78745 0.67141 0.27925 0.0
C777 C 0.81273 0.67353 0.27686 0.0
H778 H 0.82234 0.68263 0.29623 0.0
H779 H 0.88193 0.60365 0.26096 0.0
O780 O 0.86898 0.75061 0.16704 0.0
C781 C 0.89222 0.65479 0.18622 0.0
Co782 Co 0.52628 0.62657 0.44203 0.0
Co783 Co 0.56539 0.63619 0.4958 0.0
C784 C 0.51935 0.68186 0.47955 0.0
O785 O 0.51394 0.66643 0.45793 0.0
O786 O 0.53763 0.67218 0.49794 0.0
C787 C 0.46934 0.61724 0.41455 0.0
O788 O 0.4583 0.62241 0.43917 0.0
C789 C 0.57833 0.63927 0.55484 0.0
C790 C 0.62725 0.62603 0.5569 0.0
C791 C 0.60235 0.63415 0.57304 0.0
N792 N 0.58855 0.63417 0.52923 0.0
N793 N 0.61786 0.62639 0.53062 0.0
C794 C 0.5467 0.65082 0.56115 0.0
H795 H 0.5455 0.67558 0.55581 0.0
H796 H 0.52958 0.63864 0.54826 0.0
H797 H 0.54082 0.64831 0.58308 0.0
C798 C 0.51459 0.56695 0.46694 0.0
N799 N 0.52741 0.59501 0.46752 0.0
N800 N 0.54292 0.59865 0.49045 0.0
C801 C 0.53942 0.573 0.50568 0.0
C802 C 0.52139 0.55235 0.49117 0.0
C803 C 0.49573 0.5545 0.44379 0.0
H804 H 0.50539 0.56211 0.42396 0.0
H805 H 0.47185 0.56302 0.44577 0.0
H806 H 0.49487 0.52906 0.44392 0.0
O807 O 0.5668 0.63245 0.42728 0.0
O808 O 0.59387 0.64578 0.46411 0.0
H809 H 0.55047 0.54371 0.54004 0.0
H810 H 0.54245 0.58332 0.54835 0.0
C811 C 0.55349 0.56786 0.53323 0.0
H812 H 0.57834 0.57329 0.53248 0.0
H813 H 0.63136 0.62102 0.51364 0.0
O814 O 0.49824 0.61757 0.41116 0.0
C815 C 0.5914 0.64221 0.43821 0.0
Co816 Co 0.37785 0.26642 0.19637 0.0
Co817 Co 0.38255 0.31385 0.24557 0.0
C818 C 0.42935 0.26385 0.23602 0.0
O819 O 0.41461 0.25213 0.21609 0.0
O820 O 0.4198 0.2877 0.24852 0.0
C821 C 0.36991 0.20919 0.16736 0.0
O822 O 0.37594 0.19682 0.1913 0.0
C823 C 0.38243 0.32741 0.30464 0.0
C824 C 0.37841 0.37799 0.30563 0.0
C825 C 0.38127 0.35242 0.32235 0.0
N826 N 0.38027 0.33771 0.27873 0.0
N827 N 0.37779 0.368 0.2795 0.0
C828 C 0.38792 0.29448 0.31206 0.0
H829 H 0.3881 0.27972 0.29354 0.0
H830 H 0.36969 0.28626 0.32606 0.0
H831 H 0.41018 0.29244 0.32298 0.0
C832 C 0.3166 0.25749 0.21873 0.0
N833 N 0.34437 0.27084 0.21953 0.0
N834 N 0.34586 0.28993 0.24048 0.0
C835 C 0.31887 0.28862 0.25405 0.0
C836 C 0.29977 0.26812 0.24056 0.0
C837 C 0.30647 0.2345 0.19775 0.0
H838 H 0.31815 0.21231 0.20167 0.0
H839 H 0.28134 0.23047 0.1985 0.0
H840 H 0.31266 0.24269 0.17701 0.0
O841 O 0.38704 0.30605 0.18029 0.0
O842 O 0.39026 0.34128 0.21328 0.0
H843 H 0.31927 0.33089 0.27667 0.0
H844 H 0.28595 0.30693 0.28281 0.0
C845 C 0.31109 0.30691 0.27903 0.0
H846 H 0.32269 0.29658 0.29699 0.0
H847 H 0.37608 0.38188 0.26218 0.0
O848 O 0.36934 0.23828 0.16534 0.0
C849 C 0.39133 0.33359 0.18806 0.0
Co850 Co 0.46678 0.62875 0.94761 0.0
Co851 Co 0.41871 0.63589 0.99576 0.0
C852 C 0.4707 0.68058 0.98661 0.0
O853 O 0.48233 0.66509 0.96711 0.0
O854 O 0.44615 0.6722 0.99855 0.0
C855 C 0.52421 0.61933 0.92008 0.0
O856 O 0.53583 0.6261 0.94417 0.0
C857 C 0.40669 0.63664 0.05471 0.0
C858 C 0.35608 0.63583 0.05708 0.0
C859 C 0.38238 0.637 0.07308 0.0
N860 N 0.39534 0.6352 0.0291 0.0
N861 N 0.36504 0.63466 0.03067 0.0
C862 C 0.44014 0.64001 0.06119 0.0
H863 H 0.45418 0.63932 0.04227 0.0
H864 H 0.44779 0.62124 0.07488 0.0
H865 H 0.44399 0.66208 0.0721 0.0
C866 C 0.47331 0.56758 0.97083 0.0
N867 N 0.46082 0.59578 0.97102 0.0
N868 N 0.44118 0.59817 0.99143 0.0
C869 C 0.44108 0.57125 1.00518 0.0
C870 C 0.46138 0.55132 0.99245 0.0
C871 C 0.49694 0.55666 0.95078 0.0
H872 H 0.48951 0.56229 0.92968 0.0
H873 H 0.519 0.56841 0.95504 0.0
H874 H 0.50083 0.53153 0.9522 0.0
O875 O 0.4277 0.63913 0.93084 0.0
O876 O 0.39185 0.64393 0.96311 0.0
H877 H 0.39836 0.57412 0.02692 0.0
H878 H 0.41982 0.53907 0.03289 0.0
C879 C 0.42164 0.56426 0.02961 0.0
H880 H 0.43229 0.57464 0.04803 0.0
H881 H 0.35046 0.63387 0.01372 0.0
O882 O 0.49522 0.61877 0.9173 0.0
C883 C 0.40014 0.64438 0.93803 0.0
Co884 Co 0.10833 0.72124 0.69555 0.0
Co885 Co 0.10405 0.6752 0.74587 0.0
C886 C 0.05652 0.72377 0.73544 0.0
O887 O 0.07091 0.73471 0.71496 0.0
O888 O 0.06651 0.7007 0.74874 0.0
C889 C 0.11756 0.77872 0.66738 0.0
O890 O 0.1134 0.79086 0.69175 0.0
C891 C 0.09734 0.65635 0.80402 0.0
C892 C 0.12882 0.61665 0.80614 0.0
C893 C 0.11009 0.63515 0.82217 0.0
N894 N 0.10865 0.65097 0.77876 0.0
N895 N 0.12706 0.62686 0.78018 0.0
C896 C 0.07375 0.68046 0.8101 0.0
H897 H 0.05505 0.6791 0.79478 0.0
H898 H 0.08447 0.70355 0.80858 0.0
H899 H 0.06335 0.67743 0.83062 0.0
C900 C 0.16879 0.73286 0.71879 0.0
N901 N 0.1415 0.71852 0.71928 0.0
N902 N 0.13976 0.70076 0.74105 0.0
C903 C 0.16585 0.70433 0.75569 0.0
C904 C 0.18473 0.7249 0.74204 0.0
C905 C 0.1808 0.75134 0.69527 0.0
H906 H 0.17247 0.74166 0.67564 0.0
H907 H 0.17282 0.77544 0.69725 0.0
H908 H 0.2063 0.7515 0.69504 0.0
O909 O 0.10072 0.68122 0.67956 0.0
O910 O 0.09701 0.64727 0.71347 0.0
H911 H 0.17704 0.66458 0.77921 0.0
H912 H 0.19235 0.69989 0.79294 0.0
C913 C 0.17224 0.68932 0.78261 0.0
H914 H 0.15189 0.69145 0.79608 0.0
H915 H 0.13926 0.61802 0.76357 0.0
O916 O 0.11635 0.7497 0.66476 0.0
C917 C 0.09661 0.65394 0.68802 0.0
Co918 Co 0.02024 0.35616 0.44328 0.0
Co919 Co 0.06726 0.35078 0.49249 0.0
C920 C 0.01682 0.30466 0.48292 0.0
O921 O 0.00535 0.31934 0.46285 0.0
O922 O 0.04047 0.31424 0.4956 0.0
C923 C 0.96318 0.36587 0.41453 0.0
O924 O 0.95078 0.36003 0.43848 0.0
C925 C 0.0798 0.35032 0.55127 0.0
C926 C 0.12991 0.35747 0.55322 0.0
C927 C 0.10414 0.35343 0.56958 0.0
N928 N 0.09074 0.35263 0.5256 0.0
N929 N 0.12075 0.3567 0.52689 0.0
C930 C 0.04633 0.34716 0.55767 0.0
H931 H 0.03219 0.35502 0.54011 0.0
H932 H 0.04029 0.3606 0.57623 0.0
H933 H 0.04098 0.32258 0.56142 0.0
C934 C 0.01222 0.41782 0.46592 0.0
N935 N 0.02507 0.38975 0.46655 0.0
N936 N 0.04425 0.38795 0.48737 0.0
C937 C 0.04361 0.41498 0.50096 0.0
C938 C 0.02332 0.43447 0.48773 0.0
C939 C 0.98915 0.42834 0.44521 0.0
H940 H -0.00306 0.42199 0.42438 0.0
H941 H 0.96684 0.41707 0.44941 0.0
H942 H 0.98552 0.45355 0.44598 0.0
O943 O 0.05996 0.34633 0.42718 0.0
O944 O 0.09464 0.34235 0.46051 0.0
H945 H 0.08615 0.41369 0.52309 0.0
H946 H 0.06323 0.44775 0.52923 0.0
C947 C 0.06245 0.42254 0.52567 0.0
H948 H 0.05208 0.41152 0.54388 0.0
H949 H 0.13494 0.35924 0.50983 0.0
O950 O 0.99224 0.36541 0.41231 0.0
C951 C 0.0873 0.34153 0.43524 0.0
Co952 Co 0.37375 0.7144 0.32331 0.0
Co953 Co 0.38538 0.67527 0.26985 0.0
C954 C 0.42806 0.72513 0.28586 0.0
O955 O 0.41169 0.73035 0.30688 0.0
O956 O 0.42014 0.7049 0.26835 0.0
C957 C 0.3626 0.771 0.35008 0.0
O958 O 0.36751 0.78148 0.32524 0.0
C959 C 0.38921 0.66322 0.21067 0.0
C960 C 0.37761 0.61387 0.208 0.0
C961 C 0.38458 0.63935 0.19219 0.0
N962 N 0.38467 0.65245 0.23616 0.0
N963 N 0.37794 0.62286 0.23441 0.0
C964 C 0.39963 0.69531 0.20463 0.0
H965 H 0.4234 0.69822 0.21239 0.0
H966 H 0.38495 0.71204 0.21573 0.0
H967 H 0.39954 0.70031 0.1824 0.0
C968 C 0.31348 0.72238 0.29863 0.0
N969 N 0.34212 0.71096 0.2981 0.0
N970 N 0.34657 0.69563 0.27517 0.0
C971 C 0.32074 0.69775 0.25994 0.0
C972 C 0.29918 0.71464 0.27446 0.0
C973 C 0.30045 0.74141 0.32143 0.0
H974 H 0.30864 0.7654 0.3193 0.0
H975 H 0.27502 0.74194 0.32097 0.0
H976 H 0.308 0.73217 0.34145 0.0
O977 O 0.38335 0.67436 0.33796 0.0
O978 O 0.39556 0.64669 0.30116 0.0
H979 H 0.29217 0.68553 0.22538 0.0
H980 H 0.33122 0.69589 0.2173 0.0
C981 C 0.31642 0.68377 0.23224 0.0
H982 H 0.32326 0.65923 0.23271 0.0
H983 H 0.37313 0.60892 0.25122 0.0
O984 O 0.36338 0.74215 0.35401 0.0
C985 C 0.39309 0.64965 0.32711 0.0
Co986 Co 0.01632 0.63 0.06488 0.0
Co987 Co 0.06479 0.63535 0.01679 0.0
C988 C 0.0145 0.68177 0.0249 0.0
O989 O 0.00294 0.66701 0.04488 0.0
O990 O 0.03857 0.67245 0.01263 0.0
C991 C 0.95783 0.62327 0.09134 0.0
O992 O 0.94712 0.63022 0.06698 0.0
C993 C 0.08213 0.63923 0.95879 0.0
C994 C 0.12746 0.61647 0.95799 0.0
C995 C 0.10538 0.62974 0.94134 0.0
N996 N 0.08997 0.63182 0.98461 0.0
N997 N 0.11731 0.61858 0.98401 0.0
C998 C 0.05168 0.65247 0.95088 0.0
H999 H 0.03334 0.64283 0.96411 0.0
H1000 H 0.04632 0.64775 0.92907 0.0
H1001 H 0.05227 0.67773 0.95407 0.0
C1002 C 0.0075 0.56912 0.04133 0.0
N1003 N 0.0212 0.59675 0.04149 0.0
N1004 N 0.04046 0.59874 0.02077 0.0
C1005 C 0.03876 0.57235 0.00624 0.0
C1006 C 0.01803 0.55296 0.01903 0.0
C1007 C 0.98413 0.55859 0.06172 0.0
H1008 H 0.99181 0.5645 0.0827 0.0
H1009 H 0.96202 0.57033 0.05758 0.0
H1010 H 0.98027 0.53341 0.06045 0.0
O1011 O 0.05531 0.63855 0.08244 0.0
O1012 O 0.09106 0.64297 0.05009 0.0
H1013 H 0.08115 0.56764 0.98463 0.0
H1014 H 0.05109 0.54241 0.97258 0.0
C1015 C 0.05619 0.56578 0.98053 0.0
H1016 H 0.04997 0.58297 0.96476 0.0
H1017 H 0.12854 0.60998 1.00124 0.0
O1018 O 0.9867 0.62142 0.09465 0.0
C1019 C 0.08294 0.64314 0.07521 0.0
Co1020 Co 0.10742 0.27426 0.81917 0.0
Co1021 Co 0.09961 0.31515 0.7662 0.0
C1022 C 0.05274 0.26929 0.78124 0.0
O1023 O 0.06754 0.26258 0.80289 0.0
O1024 O 0.063 0.28834 0.76378 0.0
C1025 C 0.11712 0.21691 0.84623 0.0
O1026 O 0.11223 0.20597 0.82154 0.0
C1027 C 0.09774 0.32867 0.70729 0.0
C1028 C 0.11003 0.37787 0.70614 0.0
C1029 C 0.10307 0.35302 0.68938 0.0
N1030 N 0.10174 0.33872 0.73312 0.0
N1031 N 0.1088 0.36823 0.73229 0.0
C1032 C 0.09106 0.29583 0.70028 0.0
H1033 H 0.09754 0.28053 0.71751 0.0
H1034 H 0.10364 0.28885 0.68152 0.0
H1035 H 0.06606 0.29317 0.69656 0.0
C1036 C 0.16678 0.2613 0.79409 0.0
N1037 N 0.13917 0.27504 0.79369 0.0
N1038 N 0.13651 0.29174 0.77133 0.0
C1039 C 0.16253 0.28854 0.75651 0.0
C1040 C 0.18206 0.26875 0.77038 0.0
C1041 C 0.17981 0.24393 0.81788 0.0
H1042 H 0.17181 0.25416 0.83739 0.0
H1043 H 0.17232 0.21961 0.81674 0.0
H1044 H 0.2053 0.24429 0.81755 0.0
O1045 O 0.10174 0.31483 0.83441 0.0
O1046 O 0.09098 0.34354 0.79798 0.0
H1047 H 0.16256 0.32857 0.73099 0.0
H1048 H 0.19294 0.30153 0.72338 0.0
C1049 C 0.16858 0.30385 0.72965 0.0
H1050 H 0.15412 0.29303 0.71368 0.0
H1051 H 0.11331 0.38164 0.74954 0.0
O1052 O 0.11624 0.24582 0.84985 0.0
C1053 C 0.09341 0.34017 0.82387 0.0
Co1054 Co 0.46908 0.36024 0.56768 0.0
Co1055 Co 0.42182 0.35433 0.51849 0.0
C1056 C 0.47221 0.3083 0.5281 0.0
O1057 O 0.48338 0.32316 0.54823 0.0
O1058 O 0.44846 0.31758 0.51538 0.0
C1059 C 0.5269 0.36831 0.59506 0.0
O1060 O 0.53803 0.36145 0.57081 0.0
C1061 C 0.40861 0.35204 0.45969 0.0
C1062 C 0.35901 0.36236 0.45761 0.0
C1063 C 0.38441 0.35592 0.44149 0.0
N1064 N 0.39811 0.35638 0.48531 0.0
N1065 N 0.36839 0.36245 0.48393 0.0
C1066 C 0.44079 0.34221 0.45328 0.0
H1067 H 0.44377 0.31793 0.45969 0.0
H1068 H 0.45731 0.35626 0.46525 0.0
H1069 H 0.44597 0.34381 0.43113 0.0
C1070 C 0.4777 0.42117 0.54431 0.0
N1071 N 0.46448 0.3933 0.54403 0.0
N1072 N 0.4455 0.39124 0.52307 0.0
C1073 C 0.44679 0.41787 0.50895 0.0
C1074 C 0.4671 0.43743 0.52212 0.0
C1075 C 0.50057 0.4319 0.56513 0.0
H1076 H 0.52284 0.42032 0.56134 0.0
H1077 H 0.50437 0.45708 0.56402 0.0
H1078 H 0.49247 0.42598 0.58596 0.0
O1079 O 0.4295 0.35143 0.5842 0.0
O1080 O 0.39462 0.34678 0.55105 0.0
H1081 H 0.43006 0.44957 0.47834 0.0
H1082 H 0.43823 0.41122 0.46634 0.0
C1083 C 0.42879 0.42478 0.48362 0.0
H1084 H 0.40445 0.41813 0.4866 0.0
H1085 H 0.35454 0.36673 0.50092 0.0
O1086 O 0.49794 0.3694 0.5981 0.0
C1087 C 0.40208 0.3467 0.57634 0.0
C1088 C 0.11665 0.15603 0.1159 0.0
C1089 C 0.09679 0.13672 0.10108 0.0
C1090 C 0.11693 0.15581 0.14465 0.0
C1091 C 0.0975 0.13613 0.15955 0.0
H1092 H 0.13216 0.17131 0.10519 0.0
H1093 H 0.13319 0.17046 0.15521 0.0
S1094 S 0.04335 0.07909 0.13026 0.0
N1095 N 0.05881 0.0959 0.10329 0.0
N1096 N 0.05905 0.09574 0.15727 0.0
C1097 C 0.07808 0.11621 0.14491 0.0
C1098 C 0.07773 0.1165 0.11568 0.0
C1099 C 0.08302 0.8366 0.39541 0.0
C1100 C 0.10138 0.85703 0.41067 0.0
C1101 C 0.08389 0.83617 0.36665 0.0
C1102 C 0.10362 0.85572 0.35187 0.0
H1103 H 0.06813 0.82038 0.40562 0.0
H1104 H 0.06858 0.82064 0.35605 0.0
S1105 S 0.15663 0.9135 0.38196 0.0
N1106 N 0.13972 0.89762 0.40865 0.0
N1107 N 0.14204 0.89614 0.35486 0.0
C1108 C 0.12215 0.87622 0.36689 0.0
C1109 C 0.12105 0.87686 0.39614 0.0
C1110 C 0.38749 0.82787 0.64346 0.0
C1111 C 0.38864 0.8552 0.65901 0.0
C1112 C 0.38873 0.82848 0.61473 0.0
C1113 C 0.39013 0.85647 0.60052 0.0
H1114 H 0.38467 0.80584 0.65342 0.0
H1115 H 0.38761 0.80699 0.60352 0.0
S1116 S 0.39342 0.93438 0.63109 0.0
N1117 N 0.39167 0.91102 0.65767 0.0
N1118 N 0.39274 0.91206 0.60372 0.0
C1119 C 0.39098 0.8839 0.61563 0.0
C1120 C 0.39038 0.8833 0.64485 0.0
C1121 C 0.38647 0.10776 0.86594 0.0
C1122 C 0.38276 0.13606 0.85238 0.0
C1123 C 0.38798 0.10619 0.89462 0.0
C1124 C 0.38605 0.13289 0.91076 0.0
H1125 H 0.38819 0.08663 0.85427 0.0
H1126 H 0.39078 0.08394 0.90425 0.0
S1127 S 0.37236 0.21207 0.8859 0.0
N1128 N 0.37379 0.19101 0.85778 0.0
N1129 N 0.37836 0.18808 0.91153 0.0
C1130 C 0.38195 0.16124 0.89763 0.0
C1131 C 0.37982 0.16283 0.86847 0.0
C1132 C 0.88008 0.8307 0.89729 0.0
C1133 C 0.8808 0.85921 0.91081 0.0
C1134 C 0.8787 0.82902 0.86859 0.0
C1135 C 0.8791 0.85579 0.85232 0.0
H1136 H 0.87981 0.80959 0.90903 0.0
H1137 H 0.87655 0.80657 0.85922 0.0
S1138 S 0.88155 0.93605 0.87826 0.0
N1139 N 0.88162 0.9147 0.90619 0.0
N1140 N 0.88039 0.91172 0.85229 0.0
C1141 C 0.87993 0.88443 0.86579 0.0
C1142 C 0.88062 0.88609 0.895 0.0
C1143 C 0.86923 0.16007 0.64496 0.0
C1144 C 0.88651 0.13857 0.66 0.0
C1145 C 0.86874 0.15937 0.61622 0.0
C1146 C 0.88573 0.13735 0.60156 0.0
H1147 H 0.85533 0.17702 0.65549 0.0
H1148 H 0.85492 0.17612 0.60537 0.0
S1149 S 0.93311 0.07491 0.63123 0.0
N1150 N 0.91999 0.09393 0.65808 0.0
N1151 N 0.91904 0.09265 0.60411 0.0
C1152 C 0.9028 0.11555 0.61632 0.0
C1153 C 0.90312 0.11611 0.64554 0.0
C1154 C 0.58624 0.15428 0.36663 0.0
C1155 C 0.60613 0.13507 0.35162 0.0
C1156 C 0.586 0.15413 0.39538 0.0
C1157 C 0.60501 0.13415 0.41045 0.0
H1158 H 0.5703 0.16932 0.35625 0.0
H1159 H 0.57099 0.17016 0.40571 0.0
S1160 S 0.66112 0.07881 0.38113 0.0
N1161 N 0.64564 0.09563 0.35419 0.0
N1162 N 0.64429 0.09446 0.40801 0.0
C1163 C 0.62491 0.11469 0.3957 0.0
C1164 C 0.62547 0.11515 0.36643 0.0
C1165 C 0.60557 0.82706 0.11466 0.0
C1166 C 0.60515 0.85544 0.101 0.0
C1167 C 0.60605 0.82564 0.14339 0.0
C1168 C 0.60515 0.85256 0.15951 0.0
H1169 H 0.6063 0.80584 0.10303 0.0
H1170 H 0.608 0.80328 0.15291 0.0
S1171 S 0.60274 0.93258 0.13313 0.0
N1172 N 0.60368 0.91097 0.10532 0.0
N1173 N 0.60336 0.90849 0.15922 0.0
C1174 C 0.60445 0.88108 0.14587 0.0
C1175 C 0.60461 0.88247 0.11667 0.0
C1176 C 0.57997 0.61834 0.61821 0.0
C1177 C 0.60214 0.63499 0.60339 0.0
C1178 C 0.58056 0.61742 0.64695 0.0
C1179 C 0.60319 0.63332 0.66184 0.0
H1180 H 0.56249 0.6053 0.6075 0.0
H1181 H 0.56321 0.60422 0.65762 0.0
S1182 S 0.66755 0.67849 0.63283 0.0
N1183 N 0.6481 0.66655 0.60579 0.0
N1184 N 0.6492 0.66475 0.65975 0.0
C1185 C 0.62572 0.64963 0.64731 0.0
C1186 C 0.62524 0.6504 0.61809 0.0
C1187 C 0.60087 0.33367 0.89746 0.0
C1188 C 0.60271 0.36187 0.91139 0.0
C1189 C 0.60233 0.33236 0.86875 0.0
C1190 C 0.60467 0.35932 0.85286 0.0
H1191 H 0.59919 0.3124 0.90887 0.0
H1192 H 0.60252 0.30996 0.85908 0.0
S1193 S 0.6093 0.43902 0.87987 0.0
N1194 N 0.60699 0.41731 0.9075 0.0
N1195 N 0.60849 0.41511 0.85358 0.0
C1196 C 0.60629 0.38768 0.86672 0.0
C1197 C 0.60547 0.38891 0.89594 0.0
C1198 C 0.88702 0.38029 0.14476 0.0
C1199 C 0.88466 0.35186 0.15835 0.0
C1200 C 0.88733 0.38197 0.11608 0.0
C1201 C 0.88554 0.35525 0.09998 0.0
H1202 H 0.88849 0.40146 0.15641 0.0
H1203 H 0.88908 0.4043 0.10641 0.0
S1204 S 0.87539 0.27562 0.12498 0.0
N1205 N 0.87723 0.29666 0.1531 0.0
N1206 N 0.87964 0.29985 0.09926 0.0
C1207 C 0.88291 0.32675 0.11313 0.0
C1208 C 0.88197 0.32504 0.14232 0.0
C1209 C 0.86977 0.65428 0.36714 0.0
C1210 C 0.88781 0.63395 0.35146 0.0
C1211 C 0.87089 0.65404 0.39588 0.0
C1212 C 0.89033 0.63369 0.40998 0.0
H1213 H 0.85395 0.66989 0.35724 0.0
H1214 H 0.8564 0.66985 0.40717 0.0
S1215 S 0.94061 0.57445 0.37882 0.0
N1216 N 0.92475 0.59203 0.35241 0.0
N1217 N 0.9266 0.59148 0.40635 0.0
C1218 C 0.90809 0.61293 0.39466 0.0
C1219 C 0.90683 0.61303 0.36543 0.0
C1220 C 0.3646 0.3348 0.39721 0.0
C1221 C 0.38478 0.35459 0.41119 0.0
C1222 C 0.36396 0.33375 0.36846 0.0
C1223 C 0.38321 0.35274 0.35269 0.0
H1224 H 0.34919 0.32005 0.4086 0.0
H1225 H 0.34759 0.31866 0.35858 0.0
S1226 S 0.43855 0.41019 0.37951 0.0
N1227 N 0.42329 0.39472 0.40719 0.0
N1228 N 0.42218 0.39272 0.35324 0.0
C1229 C 0.40304 0.37305 0.36647 0.0
C1230 C 0.40385 0.37394 0.3957 0.0
C1231 C 0.40211 0.61833 0.11839 0.0
C1232 C 0.38346 0.6387 0.10341 0.0
C1233 C 0.4026 0.61895 0.14713 0.0
C1234 C 0.38473 0.64017 0.16189 0.0
H1235 H 0.4157 0.60111 0.10792 0.0
H1236 H 0.417 0.60263 0.1579 0.0
S1237 S 0.33039 0.69689 0.13252 0.0
N1238 N 0.34566 0.67974 0.10557 0.0
N1239 N 0.34646 0.68073 0.15954 0.0
C1240 C 0.36563 0.66031 0.14721 0.0
C1241 C 0.36498 0.65956 0.11798 0.0
C1242 C 0.10448 0.65901 0.89729 0.0
C1243 C 0.10581 0.63073 0.91108 0.0
C1244 C 0.10581 0.66036 0.86859 0.0
C1245 C 0.10744 0.6334 0.85256 0.0
H1246 H 0.10322 0.68027 0.90883 0.0
H1247 H 0.1064 0.68278 0.85903 0.0
S1248 S 0.11063 0.55355 0.87923 0.0
N1249 N 0.10894 0.57525 0.90695 0.0
N1250 N 0.11014 0.57752 0.85304 0.0
C1251 C 0.10859 0.60497 0.8663 0.0
C1252 C 0.10793 0.60369 0.89551 0.0
C1253 C 0.08294 0.33495 0.64363 0.0
C1254 C 0.10352 0.35317 0.65886 0.0
C1255 C 0.08328 0.33496 0.61488 0.0
C1256 C 0.10375 0.35371 0.6001 0.0
H1257 H 0.06608 0.3208 0.65384 0.0
H1258 H 0.06764 0.31973 0.60432 0.0
S1259 S 0.16209 0.40613 0.63011 0.0
N1260 N 0.14512 0.39041 0.65684 0.0
N1261 N 0.14504 0.39121 0.60301 0.0
C1262 C 0.12432 0.37219 0.61508 0.0
C1263 C 0.1242 0.37193 0.64433 0.0
C1264 C 0.9805 0.25268 0.30482 0.0
C1265 C 0.96384 0.25488 0.28029 0.0
C1266 C 0.01086 0.24256 0.30501 0.0
C1267 C 0.02575 0.23363 0.28073 0.0
H1268 H 0.9701 0.25915 0.32414 0.0
H1269 H 0.02242 0.24095 0.3246 0.0
S1270 S 0.99236 0.23569 0.21089 0.0
N1271 N 0.96445 0.24827 0.2309 0.0
N1272 N 0.0217 0.22817 0.23129 0.0
C1273 C 0.00947 0.23588 0.25593 0.0
C1274 C 0.9785 0.24686 0.25569 0.0
C1275 C 0.99154 0.72883 0.55473 0.0
C1276 C 0.98685 0.71287 0.53006 0.0
C1277 C -0.00028 0.75977 0.55489 0.0
C1278 C 0.00419 0.77602 0.53038 0.0
H1279 H 0.98822 0.71753 0.57426 0.0
H1280 H 0.00317 0.77086 0.57453 0.0
S1281 S -0.00456 0.7448 0.46018 0.0
N1282 N 0.98713 0.71549 0.48037 0.0
N1283 N 0.0038 0.77392 0.48066 0.0
C1284 C 3e-05 0.76038 0.50546 0.0
C1285 C 0.99094 0.72877 0.5053 0.0
C1286 C 0.47275 0.72297 0.76997 0.0
C1287 C 0.46679 0.75465 0.77148 0.0
C1288 C 0.50297 0.7119 0.76974 0.0
C1289 C 0.52805 0.73216 0.77198 0.0
H1290 H 0.45394 0.70665 0.76989 0.0
H1291 H 0.50663 0.68725 0.76969 0.0
S1292 S 0.52454 0.81718 0.77522 0.0
N1293 N 0.48825 0.80622 0.77352 0.0
N1294 N 0.54509 0.78525 0.77436 0.0
C1295 C 0.52239 0.7639 0.77248 0.0
C1296 C 0.49169 0.7752 0.77189 0.0
C1297 C 0.47727 0.23219 0.00829 0.0
C1298 C 0.48965 0.21078 0.027 0.0
C1299 C 0.48724 0.26293 0.00799 0.0
C1300 C 0.50988 0.273 0.02632 0.0
H1301 H 0.45881 0.22558 0.99463 0.0
H1302 H 0.47641 0.27908 0.99416 0.0
S1303 S 0.55201 0.22624 0.07727 0.0
N1304 N 0.52795 0.20192 0.06266 0.0
N1305 N 0.54598 0.25961 0.06214 0.0
C1306 C 0.52353 0.25176 0.04405 0.0
C1307 C 0.51366 0.22061 0.04434 0.0
C1308 C 0.98656 0.71412 0.2431 0.0
C1309 C 0.96193 0.73502 0.24163 0.0
C1310 C 0.01703 0.72448 0.24283 0.0
C1311 C 0.02373 0.75605 0.24203 0.0
H1312 H 0.98233 0.68958 0.24255 0.0
H1313 H 0.03544 0.70771 0.24222 0.0
S1314 S 0.96736 0.82 0.2407 0.0
N1315 N 0.9461 0.78855 0.24095 0.0
N1316 N 0.0034 0.80815 0.24164 0.0
C1317 C -0.00071 0.77718 0.24249 0.0
C1318 C 0.96833 0.76662 0.24197 0.0
C1319 C 0.49354 0.72669 0.50241 0.0
C1320 C 0.50947 0.71416 0.48007 0.0
C1321 C 0.48313 0.75731 0.50178 0.0
C1322 C 0.48898 0.77645 0.47905 0.0
H1323 H 0.4883 0.71252 0.52001 0.0
H1324 H 0.4699 0.76579 0.51898 0.0
S1325 S 0.53393 0.7548 0.41709 0.0
N1326 N 0.53313 0.72333 0.43587 0.0
N1327 N 0.51457 0.78075 0.43471 0.0
C1328 C 0.50655 0.76431 0.45728 0.0
C1329 C 0.51652 0.73318 0.45779 0.0
C1330 C 0.48547 0.21665 0.74352 0.0
C1331 C 0.46063 0.23714 0.74088 0.0
C1332 C 0.5158 0.22739 0.7432 0.0
C1333 C 0.52207 0.25896 0.74124 0.0
H1334 H 0.48153 0.19206 0.74396 0.0
H1335 H 0.53445 0.21088 0.74355 0.0
S1336 S 0.46505 0.32203 0.73633 0.0
N1337 N 0.44415 0.29036 0.73761 0.0
N1338 N 0.50121 0.31071 0.73833 0.0
C1339 C 0.49741 0.27978 0.74043 0.0
C1340 C 0.46661 0.26881 0.73991 0.0
C1341 C -0.00511 0.22889 0.95416 0.0
C1342 C 0.00088 0.21335 0.97881 0.0
C1343 C 0.98533 0.25949 0.95402 0.0
C1344 C 0.98077 0.27583 0.97852 0.0
H1345 H -0.00172 0.21756 0.93463 0.0
H1346 H 0.98096 0.27025 0.9344 0.0
S1347 S 0.99252 0.24568 0.04869 0.0
N1348 N 0.00146 0.21651 0.02849 0.0
N1349 N 0.98258 0.27421 0.02822 0.0
C1350 C 0.98622 0.26058 1.00341 0.0
C1351 C -0.00343 0.22935 1.00356 0.0
C1352 C 0.97052 0.72417 0.74363 0.0
C1353 C 0.96342 0.75555 0.74145 0.0
C1354 C 0.00114 0.71422 0.74399 0.0
C1355 C 0.02544 0.7353 0.74115 0.0
H1356 H 0.95231 0.7072 0.74412 0.0
H1357 H 0.00573 0.68974 0.74461 0.0
S1358 S 0.0188 0.81999 0.73596 0.0
N1359 N 0.98295 0.80778 0.7381 0.0
N1360 N 0.04051 0.78888 0.73744 0.0
C1361 C 0.01863 0.76678 0.73994 0.0
C1362 C 0.98754 0.77698 0.74044 0.0
C1363 C 0.97401 0.26752 0.49017 0.0
C1364 C 0.00565 0.27337 0.48835 0.0
C1365 C 0.96289 0.23729 0.49077 0.0
C1366 C 0.98304 0.21208 0.48856 0.0
H1367 H 0.95777 0.28641 0.49025 0.0
H1368 H 0.93826 0.23368 0.49112 0.0
S1369 S 0.0679 0.21531 0.48428 0.0
N1370 N 0.05707 0.25168 0.48584 0.0
N1371 N 0.03597 0.19484 0.48567 0.0
C1372 C 0.01473 0.21765 0.48763 0.0
C1373 C 0.0261 0.24836 0.48786 0.0
C1374 C 0.48498 0.27361 0.24299 0.0
C1375 C 0.46055 0.25249 0.24157 0.0
C1376 C 0.51556 0.26355 0.24218 0.0
C1377 C 0.52255 0.23207 0.2409 0.0
H1378 H 0.48047 0.29812 0.24282 0.0
H1379 H 0.5338 0.28049 0.24163 0.0
S1380 S 0.46682 0.16762 0.2391 0.0
N1381 N 0.44524 0.19885 0.24009 0.0
N1382 N 0.50275 0.17979 0.23987 0.0
C1383 C 0.49833 0.2107 0.24127 0.0
C1384 C 0.46726 0.22096 0.24126 0.0
C1385 C 0.47445 0.76676 0.99249 0.0
C1386 C 0.50618 0.77242 0.99161 0.0
C1387 C 0.46313 0.73662 0.99329 0.0
C1388 C 0.48323 0.71131 0.99226 0.0
H1389 H 0.4583 0.7857 0.99157 0.0
H1390 H 0.43849 0.73314 0.99275 0.0
S1391 S 0.56824 0.71401 0.99122 0.0
N1392 N 0.55756 0.75046 0.99159 0.0
N1393 N 0.53616 0.69374 0.9918 0.0
C1394 C 0.51498 0.71669 0.99248 0.0
C1395 C 0.52651 0.74733 0.9925 0.0
C1396 C 0.97859 0.23072 0.75944 0.0
C1397 C 0.95818 0.23976 0.78044 0.0
C1398 C 0.0092 0.241 0.75905 0.0
C1399 C 0.02034 0.26022 0.77985 0.0
H1400 H 0.97125 0.21478 0.74369 0.0
H1401 H 0.02446 0.233 0.74304 0.0
S1402 S 0.97609 0.29404 0.83721 0.0
N1403 N 0.95115 0.27212 0.82086 0.0
N1404 N 0.00867 0.29045 0.82026 0.0
C1405 C 4e-05 0.27069 0.80006 0.0
C1406 C 0.96893 0.26075 0.8003 0.0
C1407 C 0.4638 0.25283 0.51842 0.0
C1408 C 0.48438 0.27744 0.52217 0.0
C1409 C 0.47421 0.22233 0.51845 0.0
C1410 C 0.50559 0.21565 0.52123 0.0
H1411 H 0.43929 0.25704 0.5173 0.0
H1412 H 0.45756 0.20386 0.51722 0.0
S1413 S 0.56892 0.27195 0.52929 0.0
N1414 N 0.53756 0.29323 0.5274 0.0
N1415 N 0.55734 0.23594 0.52623 0.0
C1416 C 0.52657 0.24011 0.52321 0.0
C1417 C 0.5159 0.27106 0.52399 0.0
C1418 C 0.47799 0.73442 0.26119 0.0
C1419 C 0.4589 0.7397 0.28408 0.0
C1420 C 0.50871 0.7444 0.26092 0.0
C1421 C 0.52146 0.75925 0.28377 0.0
H1422 H 0.46941 0.72189 0.24362 0.0
H1423 H 0.52281 0.73961 0.24315 0.0
S1424 S 0.48103 0.78198 0.34743 0.0
N1425 N 0.45486 0.76372 0.32917 0.0
N1426 N 0.51252 0.78139 0.32868 0.0
C1427 C 0.5025 0.76578 0.30623 0.0
C1428 C 0.47122 0.75631 0.30637 0.0
C1429 C 0.02273 0.73731 0.01544 0.0
C1430 C 0.00225 0.71255 0.01874 0.0
C1431 C 0.01213 0.76775 0.01579 0.0
C1432 C 0.98068 0.77426 0.01845 0.0
H1433 H 0.04727 0.73326 0.01458 0.0
H1434 H 0.0287 0.78632 0.01505 0.0
S1435 S 0.91758 0.71752 0.02507 0.0
N1436 N 0.94907 0.69643 0.02317 0.0
N1437 N 0.929 0.75363 0.02261 0.0
C1438 C 0.95982 0.74966 0.0198 0.0
C1439 C 0.97066 0.71876 0.02025 0.0
C1440 C 0.12571 0.27982 0.39583 0.0
C1441 C 0.12222 0.29091 0.3689 0.0
C1442 C 0.11889 0.29846 0.41845 0.0
C1443 C 0.10828 0.32864 0.41474 0.0
H1444 H 0.13123 0.25589 0.3995 0.0
H1445 H 0.11849 0.28806 0.43859 0.0
S1446 S 0.10295 0.37108 0.34931 0.0
N1447 N 0.1137 0.33606 0.34039 0.0
N1448 N 0.10021 0.37066 0.383 0.0
C1449 C 0.10867 0.34117 0.38832 0.0
C1450 C 0.1158 0.32237 0.3653 0.0
C1451 C 0.89209 0.8536 0.64086 0.0
C1452 C 0.90414 0.85491 0.66752 0.0
C1453 C 0.91015 0.86121 0.61818 0.0
C1454 C 0.94104 0.87003 0.62139 0.0
H1455 H 0.86959 0.8437 0.63733 0.0
H1456 H 0.90054 0.85754 0.59799 0.0
S1457 S 0.98104 0.88358 0.68749 0.0
N1458 N 0.94678 0.87065 0.69629 0.0
N1459 N 0.98096 0.88516 0.65372 0.0
C1460 C 0.95204 0.87516 0.64817 0.0
C1461 C 0.93346 0.86761 0.67128 0.0
C1462 C 0.38149 0.64263 0.89049 0.0
C1463 C 0.38003 0.65652 0.91646 0.0
C1464 C 0.37581 0.65959 0.86671 0.0
C1465 C 0.36883 0.69112 0.86813 0.0
H1466 H 0.39014 0.61937 0.88841 0.0
H1467 H 0.37964 0.6485 0.84714 0.0
S1468 S 0.35534 0.73619 0.93166 0.0
N1469 N 0.3659 0.70184 0.94257 0.0
N1470 N 0.35494 0.73396 0.89792 0.0
C1471 C 0.36342 0.70417 0.89414 0.0
C1472 C 0.36901 0.68673 0.91836 0.0
C1473 C 0.53664 0.11251 0.14506 0.0
C1474 C 0.54825 0.11713 0.11843 0.0
C1475 C 0.55415 0.12004 0.16822 0.0
C1476 C 0.58369 0.13252 0.16538 0.0
H1477 H 0.51304 0.10542 0.1481 0.0
H1478 H 0.54319 0.11941 0.18812 0.0
S1479 S 0.62739 0.14206 0.10095 0.0
N1480 N 0.59343 0.12926 0.09109 0.0
N1481 N 0.62589 0.14393 0.13467 0.0
C1482 C 0.59693 0.13345 0.13922 0.0
C1483 C 0.57927 0.12565 0.11566 0.0
C1484 C 0.11383 0.68495 0.09536 0.0
C1485 C 0.10349 0.65444 0.09682 0.0
C1486 C 0.11987 0.70174 0.11929 0.0
C1487 C 0.1158 0.68847 0.14538 0.0
H1488 H 0.11382 0.69697 0.07594 0.0
H1489 H 0.12529 0.72594 0.11728 0.0
S1490 S 0.09691 0.60673 0.15924 0.0
N1491 N 0.09505 0.6099 0.12561 0.0
N1492 N 0.10699 0.64104 0.17066 0.0
C1493 C 0.10956 0.65676 0.14675 0.0
C1494 C 0.1033 0.63982 0.1224 0.0
C1495 C 0.55034 0.8675 0.33896 0.0
C1496 C 0.58193 0.86221 0.34257 0.0
C1497 C 0.53133 0.87369 0.36147 0.0
C1498 C 0.54339 0.87501 0.38822 0.0
H1499 H 0.53962 0.863 0.31934 0.0
H1500 H 0.50676 0.87472 0.35807 0.0
S1501 S 0.626 0.87179 0.40684 0.0
N1502 N 0.62533 0.86509 0.37357 0.0
N1503 N 0.5899 0.8775 0.41588 0.0
C1504 C 0.57553 0.87433 0.39134 0.0
C1505 C 0.59477 0.86786 0.36844 0.0
C1506 C 0.36376 0.2875 0.61857 0.0
C1507 C 0.36739 0.30016 0.64498 0.0
C1508 C 0.37042 0.30477 0.59511 0.0
C1509 C 0.38101 0.33512 0.59738 0.0
H1510 H 0.35818 0.2634 0.61599 0.0
H1511 H 0.37071 0.29319 0.57545 0.0
S1512 S 0.38676 0.38136 0.66086 0.0
N1513 N 0.37613 0.34691 0.6714 0.0
N1514 N 0.38924 0.37895 0.62721 0.0
C1515 C 0.38076 0.34919 0.62324 0.0
C1516 C 0.37383 0.33177 0.64713 0.0
C1517 C 0.95596 0.11407 0.86278 0.0
C1518 C 0.94398 0.11404 0.88958 0.0
C1519 C 0.93713 0.12048 0.84021 0.0
C1520 C 0.90584 0.1272 0.84384 0.0
H1521 H 0.98044 0.11187 0.85934 0.0
H1522 H 0.94788 0.12393 0.82045 0.0
S1523 S 0.86166 0.12107 0.90834 0.0
N1524 N 0.89755 0.11415 0.9174 0.0
N1525 N 0.86246 0.12687 0.87496 0.0
C1526 C 0.89287 0.12275 0.86982 0.0
C1527 C 0.91192 0.11609 0.89278 0.0
C1528 C 0.87081 0.70105 0.61701 0.0
C1529 C 0.87264 0.68797 0.64336 0.0
C1530 C 0.87641 0.68336 0.59351 0.0
C1531 C 0.88415 0.6521 0.59568 0.0
H1532 H 0.86762 0.7256 0.61454 0.0
H1533 H 0.87838 0.69504 0.57402 0.0
S1534 S 0.88336 0.60512 0.65882 0.0
N1535 N 0.87593 0.64041 0.66946 0.0
N1536 N 0.88707 0.60748 0.62526 0.0
C1537 C 0.88174 0.63796 0.6214 0.0
C1538 C 0.87595 0.65586 0.64531 0.0
C1539 C 0.02972 0.1149 0.36548 0.0
C1540 C 0.04252 0.1154 0.39199 0.0
C1541 C 0.0481 0.11956 0.34227 0.0
C1542 C 0.07975 0.12501 0.34493 0.0
H1543 H 0.00507 0.11362 0.36268 0.0
H1544 H 0.03686 0.12276 0.32269 0.0
S1545 S 0.12562 0.11962 0.40857 0.0
N1546 N 0.08978 0.11466 0.41869 0.0
N1547 N 0.12401 0.12405 0.37505 0.0
C1548 C 0.09331 0.12102 0.37075 0.0
C1549 C 0.07473 0.1162 0.39436 0.0
C1550 C 0.60573 0.34894 0.12294 0.0
C1551 C 0.60672 0.33605 0.09654 0.0
C1552 C 0.61138 0.33099 0.14616 0.0
C1553 C 0.61811 0.29947 0.14373 0.0
H1554 H 0.59711 0.3721 0.12583 0.0
H1555 H 0.60772 0.34131 0.16607 0.0
S1556 S 0.63195 0.25717 0.07879 0.0
N1557 N 0.62116 0.29186 0.069 0.0
N1558 N 0.63218 0.25795 0.11258 0.0
C1559 C 0.62351 0.28751 0.11732 0.0
C1560 C 0.61789 0.30595 0.09367 0.0
C1561 C 0.45418 0.87051 0.8676 0.0
C1562 C 0.44108 0.86647 0.89377 0.0
C1563 C 0.43704 0.86517 0.84376 0.0
C1564 C 0.40635 0.85548 0.84536 0.0
H1565 H 0.47845 0.87544 0.86545 0.0
H1566 H 0.4489 0.86504 0.82426 0.0
S1567 S 0.35925 0.84883 0.90816 0.0
N1568 N 0.39381 0.85815 0.91937 0.0
N1569 N 0.362 0.84752 0.87448 0.0
C1570 C 0.39199 0.85534 0.87107 0.0
C1571 C 0.40929 0.86091 0.89536 0.0
C1572 C 0.87049 0.34323 0.89028 0.0
C1573 C 0.87338 0.3316 0.917 0.0
C1574 C 0.86351 0.32381 0.86828 0.0
C1575 C 0.8593 0.29205 0.87227 0.0
H1576 H 0.877 0.36677 0.88591 0.0
H1577 H 0.86419 0.33338 0.84784 0.0
S1578 S 0.85624 0.25203 0.9393 0.0
N1579 N 0.86538 0.28786 0.94701 0.0
N1580 N 0.85197 0.25121 0.90573 0.0
C1581 C 0.85773 0.28107 0.89936 0.0
C1582 C 0.8647 0.30098 0.92179 0.0
C1583 C 0.40767 0.12818 0.61638 0.0
C1584 C 0.43905 0.12077 0.61828 0.0
C1585 C 0.39042 0.13475 0.63985 0.0
C1586 C 0.40384 0.13385 0.66602 0.0
H1587 H 0.39693 0.13157 0.59662 0.0
H1588 H 0.36734 0.14367 0.63729 0.0
S1589 S 0.48286 0.10847 0.68262 0.0
N1590 N 0.48116 0.10716 0.64887 0.0
N1591 N 0.44853 0.11981 0.6929 0.0
C1592 C 0.43385 0.12247 0.66847 0.0
C1593 C 0.45159 0.11595 0.64456 0.0
C1594 C 0.62095 0.70891 0.40003 0.0
C1595 C 0.62185 0.69674 0.37329 0.0
C1596 C 0.61644 0.68976 0.42274 0.0
C1597 C 0.61248 0.65792 0.41935 0.0
H1598 H 0.62106 0.73354 0.40334 0.0
H1599 H 0.61216 0.7004 0.44244 0.0
S1600 S 0.62154 0.61388 0.35496 0.0
N1601 N 0.62529 0.65019 0.34567 0.0
N1602 N 0.61609 0.61446 0.38839 0.0
C1603 C 0.61771 0.64517 0.39337 0.0
C1604 C 0.62241 0.66456 0.37025 0.0
C1605 C 0.05303 0.86445 0.1663 0.0
C1606 C 0.0835 0.85407 0.16481 0.0
C1607 C 0.03609 0.86998 0.14238 0.0
C1608 C 0.04916 0.86534 0.11627 0.0
H1609 H 0.04116 0.86489 0.18579 0.0
H1610 H 0.01194 0.87552 0.14447 0.0
S1611 S 0.13065 0.84582 0.10218 0.0
N1612 N 0.12775 0.84479 0.13586 0.0
N1613 N 0.09633 0.85575 0.09083 0.0
C1614 C 0.08081 0.85896 0.11479 0.0
C1615 C 0.09791 0.85322 0.13914 0.0
C1616 C 0.62371 0.78201 0.89483 0.0
C1617 C 0.62028 0.79446 0.86836 0.0
C1618 C 0.61743 0.79967 0.91821 0.0
C1619 C 0.60746 0.83023 0.91579 0.0
H1620 H 0.62875 0.75781 0.89755 0.0
H1621 H 0.61687 0.78828 0.93792 0.0
S1622 S 0.60257 0.87591 0.85206 0.0
N1623 N 0.6125 0.84114 0.84171 0.0
N1624 N 0.60007 0.8739 0.88573 0.0
C1625 C 0.60796 0.84401 0.88986 0.0
C1626 C 0.61448 0.8262 0.86606 0.0
C1627 C 0.39106 0.35264 0.14069 0.0
C1628 C 0.40366 0.3544 0.16714 0.0
C1629 C 0.40897 0.35876 0.11758 0.0
C1630 C 0.44016 0.36662 0.12017 0.0
H1631 H 0.36821 0.34332 0.13773 0.0
H1632 H 0.39892 0.35467 0.09762 0.0
S1633 S 0.48163 0.38152 0.18533 0.0
N1634 N 0.44716 0.36995 0.19493 0.0
N1635 N 0.48104 0.38184 0.15154 0.0
C1636 C 0.45176 0.37248 0.14664 0.0
C1637 C 0.43335 0.36637 0.17018 0.0
C1638 C 0.8785 0.14564 0.38917 0.0
C1639 C 0.87757 0.15803 0.41575 0.0
C1640 C 0.87164 0.16376 0.36636 0.0
C1641 C 0.86395 0.19499 0.36939 0.0
H1642 H 0.88763 0.12275 0.38582 0.0
H1643 H 0.87514 0.1539 0.34623 0.0
S1644 S 0.85105 0.23596 0.43514 0.0
N1645 N 0.86288 0.20136 0.44422 0.0
N1646 N 0.84975 0.23566 0.40136 0.0
C1647 C 0.85894 0.20638 0.39605 0.0
C1648 C 0.86573 0.18775 0.41929 0.0
C1649 C 0.03733 0.61475 0.64648 0.0
C1650 C 0.04991 0.61793 0.62003 0.0
C1651 C 0.05471 0.62173 0.66987 0.0
C1652 C 0.0851 0.63214 0.66747 0.0
H1653 H 0.01321 0.60944 0.64914 0.0
H1654 H 0.04317 0.62249 0.68951 0.0
S1655 S 0.13115 0.63641 0.60391 0.0
N1656 N 0.09664 0.62581 0.59352 0.0
N1657 N 0.12884 0.63953 0.63752 0.0
C1658 C 0.09907 0.63132 0.64161 0.0
C1659 C 0.08154 0.62411 0.61782 0.0
C1660 C 0.60775 0.16151 0.64639 0.0
C1661 C 0.61586 0.19271 0.64422 0.0
C1662 C 0.60169 0.14392 0.62301 0.0
C1663 C 0.60387 0.15682 0.59672 0.0
H1664 H 0.60339 0.15127 0.6662 0.0
H1665 H 0.5922 0.12107 0.62562 0.0
S1666 S 0.63143 0.235 0.57969 0.0
N1667 N 0.63147 0.23396 0.61347 0.0
N1668 N 0.61979 0.20068 0.56958 0.0
C1669 C 0.61595 0.18655 0.59413 0.0
C1670 C 0.62192 0.20464 0.61794 0.0
C1671 C 0.09 0.36393 0.86964 0.0
C1672 C 0.07844 0.36183 0.84283 0.0
C1673 C 0.07054 0.3702 0.89174 0.0
C1674 C 0.03881 0.37447 0.88776 0.0
H1675 H 0.11353 0.35734 0.87391 0.0
H1676 H 0.08007 0.36902 0.91218 0.0
S1677 S -0.00109 0.37936 0.82071 0.0
N1678 N 0.03475 0.37056 0.8129 0.0
N1679 N -0.00198 0.38262 0.85437 0.0
C1680 C 0.02786 0.37677 0.86069 0.0
C1681 C 0.04781 0.37053 0.83817 0.0
C1682 C 0.87732 0.83025 0.14577 0.0
C1683 C 0.86894 0.79906 0.1441 0.0
C1684 C 0.88434 0.84707 0.12219 0.0
C1685 C 0.88284 0.83346 0.09612 0.0
H1686 H 0.88106 0.8411 0.16545 0.0
H1687 H 0.89388 0.86994 0.12456 0.0
S1688 S 0.8557 0.7548 0.08004 0.0
N1689 N 0.85436 0.75691 0.11377 0.0
N1690 N 0.86779 0.78878 0.06954 0.0
C1691 C 0.87075 0.80368 0.09387 0.0
C1692 C 0.86379 0.78635 0.1179 0.0
C1693 C 0.39709 0.62551 0.37265 0.0
C1694 C 0.40866 0.62825 0.3459 0.0
C1695 C 0.41657 0.61906 0.39468 0.0
C1696 C 0.44834 0.61519 0.3907 0.0
H1697 H 0.37345 0.63165 0.37698 0.0
H1698 H 0.40698 0.61972 0.41512 0.0
S1699 S 0.48841 0.61208 0.32365 0.0
N1700 N 0.45249 0.62062 0.31591 0.0
N1701 N 0.48928 0.60814 0.35724 0.0
C1702 C 0.45936 0.61354 0.3636 0.0
C1703 C 0.43939 0.62002 0.34115 0.0
C1704 C 0.38038 0.14024 0.12138 0.0
C1705 C 0.38156 0.15368 0.09524 0.0
C1706 C 0.37371 0.1579 0.1446 0.0
C1707 C 0.3681 0.18966 0.14247 0.0
H1708 H 0.38792 0.11671 0.12425 0.0
H1709 H 0.37561 0.14702 0.16445 0.0
S1710 S 0.36075 0.23388 0.07778 0.0
N1711 N 0.37083 0.19898 0.0679 0.0
N1712 N 0.35788 0.23233 0.11145 0.0
C1713 C 0.36497 0.20234 0.11605 0.0
C1714 C 0.37169 0.18422 0.09238 0.0
C1715 C 0.59341 0.63099 0.87495 0.0
C1716 C 0.5807 0.62917 0.84855 0.0
C1717 C 0.57564 0.62486 0.89815 0.0
C1718 C 0.54441 0.61702 0.89572 0.0
H1719 H 0.61634 0.64016 0.87781 0.0
H1720 H 0.58582 0.62891 0.91806 0.0
S1721 S 0.50248 0.60241 0.83076 0.0
N1722 N 0.53693 0.61386 0.82098 0.0
N1723 N 0.50328 0.60206 0.86455 0.0
C1724 C 0.53262 0.61131 0.8693 0.0
C1725 C 0.5509 0.61739 0.84566 0.0
C1726 C 0.10822 0.84854 0.62239 0.0
C1727 C 0.10708 0.83551 0.59603 0.0
C1728 C 0.11447 0.83043 0.64539 0.0
C1729 C 0.11968 0.79864 0.64281 0.0
H1730 H 0.10092 0.8721 0.62556 0.0
H1731 H 0.11252 0.84101 0.6654 0.0
S1732 S 0.12707 0.75533 0.57755 0.0
N1733 N 0.11752 0.7905 0.56811 0.0
N1734 N 0.12965 0.75633 0.61126 0.0
C1735 C 0.12286 0.78633 0.61624 0.0
C1736 C 0.11661 0.80489 0.5928 0.0
C1737 C 0.89288 0.36181 0.36941 0.0
C1738 C 0.90574 0.35949 0.34307 0.0
C1739 C 0.91142 0.36665 0.39242 0.0
C1740 C 0.94349 0.36939 0.38989 0.0
H1741 H 0.86886 0.35631 0.37257 0.0
H1742 H 0.90075 0.36562 0.41242 0.0
S1743 S 0.98715 0.37326 0.32467 0.0
N1744 N 0.95137 0.36645 0.3152 0.0
N1745 N 0.98637 0.376 0.35836 0.0
C1746 C 0.95596 0.37162 0.36333 0.0
C1747 C 0.93696 0.36675 0.33988 0.0
C1748 C 0.36736 0.82395 0.36921 0.0
C1749 C 0.36147 0.79254 0.3736 0.0
C1750 C 0.37542 0.84329 0.39094 0.0
C1751 C 0.37774 0.83192 0.41779 0.0
H1752 H 0.36852 0.83315 0.34865 0.0
H1753 H 0.3831 0.8664 0.38628 0.0
S1754 S 0.3561 0.75382 0.44111 0.0
N1755 N 0.35183 0.75271 0.40754 0.0
N1756 N 0.36725 0.78919 0.44837 0.0
C1757 C 0.36737 0.80191 0.42298 0.0
C1758 C 0.35929 0.78208 0.40081 0.0
C1759 C 0.93286 0.62259 0.16555 0.0
C1760 C 0.90312 0.63488 0.16392 0.0
C1761 C 0.9497 0.61631 0.14171 0.0
C1762 C 0.93724 0.62206 0.11553 0.0
H1763 H 0.94441 0.62104 0.18515 0.0
H1764 H 0.97342 0.60919 0.14392 0.0
S1765 S 0.85742 0.64726 0.10093 0.0
N1766 N 0.85993 0.64748 0.13464 0.0
N1767 N 0.89116 0.63524 0.08978 0.0
C1768 C 0.90611 0.63055 0.11384 0.0
C1769 C 0.88912 0.63704 0.1381 0.0
C1770 C 0.11451 0.18954 0.91964 0.0
C1771 C 0.10862 0.158 0.91637 0.0
C1772 C 0.11995 0.2083 0.89684 0.0
C1773 C 0.11987 0.19602 0.87011 0.0
H1774 H 0.11113 0.20045 0.93937 0.0
H1775 H 0.1216 0.23289 0.90008 0.0
S1776 S 0.11471 0.11324 0.85208 0.0
N1777 N 0.10952 0.11427 0.88555 0.0
N1778 N 0.12046 0.14923 0.84264 0.0
C1779 C 0.11859 0.16385 0.86719 0.0
C1780 C 0.1129 0.14487 0.8904 0.0
C1781 C 0.55196 0.3686 0.66927 0.0
C1782 C 0.58272 0.35917 0.66727 0.0
C1783 C 0.53451 0.37422 0.64565 0.0
C1784 C 0.54735 0.37066 0.61932 0.0
H1785 H 0.5403 0.368 0.68886 0.0
H1786 H 0.51021 0.37883 0.64809 0.0
S1787 S 0.62924 0.35415 0.604 0.0
N1788 N 0.62684 0.35216 0.63768 0.0
N1789 N 0.59447 0.36332 0.59323 0.0
C1790 C 0.57919 0.36543 0.61741 0.0
C1791 C 0.59681 0.35962 0.64145 0.0
C1792 C 0.24187 0.21824 0.27593 0.0
C1793 C 0.21474 0.22522 0.26172 0.0
C1794 C 0.26927 0.23345 0.26979 0.0
C1795 C 0.27011 0.25589 0.24924 0.0
H1796 H 0.24172 0.2013 0.29217 0.0
H1797 H 0.29 0.2273 0.28078 0.0
S1798 S 0.20542 0.28203 0.20602 0.0
N1799 N 0.19021 0.25582 0.22638 0.0
N1800 N 0.24215 0.28409 0.21439 0.0
C1801 C 0.24327 0.26285 0.23472 0.0
C1802 C 0.21539 0.24746 0.24102 0.0
C1803 C 0.00891 0.99359 0.52722 0.0
C1804 C 0.00298 0.96665 0.51227 0.0
C1805 C -0.00582 0.02112 0.52055 0.0
C1806 C 0.97325 0.02227 0.49877 0.0
H1807 H 0.02482 0.99322 0.54428 0.0
H1808 H -0.00034 0.04174 0.53203 0.0
S1809 S 0.9496 0.95792 0.45385 0.0
N1810 N 0.9746 0.94249 0.47527 0.0
N1811 N 0.94701 -0.00541 0.46247 0.0
C1812 C 0.96703 -0.0045 0.4838 0.0
C1813 C 0.98202 0.96753 0.49056 0.0
C1814 C 0.23963 0.71512 0.75253 0.0
C1815 C 0.21534 0.73601 0.74965 0.0
C1816 C 0.26945 0.72562 0.75746 0.0
C1817 C 0.2757 0.75725 0.75961 0.0
H1818 H 0.2356 0.69063 0.75054 0.0
H1819 H 0.28776 0.70893 0.75974 0.0
S1820 S 0.21952 0.82089 0.75506 0.0
N1821 N 0.19897 0.78944 0.7501 0.0
N1822 N 0.25526 0.80919 0.75962 0.0
C1823 C 0.25157 0.77831 0.75697 0.0
C1824 C 0.22124 0.76764 0.75196 0.0
C1825 C 0.47651 0.96885 1.00023 0.0
C1826 C 0.50826 0.96335 0.99824 0.0
C1827 C 0.46532 -0.00172 1.0059 0.0
C1828 C 0.48563 0.02287 0.00975 0.0
H1829 H 0.46027 0.95022 0.99749 0.0
H1830 H 0.44076 0.00171 0.00792 0.0
S1831 S 0.57052 0.02077 1.00491 0.0
N1832 N 0.55968 0.98495 0.99911 0.0
N1833 N 0.53861 0.04045 0.01024 0.0
C1834 C 0.51736 0.01778 0.00743 0.0
C1835 C 0.52873 0.98787 1.00158 0.0
C1836 C 0.26871 0.74967 0.2452 0.0
C1837 C 0.26951 0.72653 0.26518 0.0
C1838 C 0.24108 0.76436 0.23868 0.0
C1839 C 0.21381 0.75642 0.25222 0.0
H1840 H 0.28962 0.75676 0.23498 0.0
H1841 H 0.24091 0.78178 0.22285 0.0
S1842 S 0.20381 0.69632 0.30494 0.0
N1843 N 0.24086 0.6955 0.29759 0.0
N1844 N 0.18879 0.72344 0.28543 0.0
C1845 C 0.21428 0.73312 0.27193 0.0
C1846 C 0.24226 0.71801 0.27838 0.0
C1847 C 0.47632 0.01919 0.50717 0.0
C1848 C 0.50792 0.0236 0.51168 0.0
C1849 C 0.46465 0.99004 0.50123 0.0
C1850 C 0.48435 0.96468 0.49953 0.0
H1851 H 0.46056 0.03845 0.50831 0.0
H1852 H 0.44027 0.98738 0.49743 0.0
S1853 S 0.56841 0.9638 0.51091 0.0
N1854 N 0.55837 0.0001 0.51545 0.0
N1855 N 0.53647 0.9452 0.50319 0.0
C1856 C 0.51589 0.96867 0.50409 0.0
C1857 C 0.52772 -0.00173 0.51045 0.0
C1858 C 0.23705 0.27696 0.75906 0.0
C1859 C 0.21217 0.25685 0.76216 0.0
C1860 C 0.2664 0.26553 0.7535 0.0
C1861 C 0.27157 0.23372 0.75113 0.0
H1862 H 0.23387 0.30154 0.76134 0.0
H1863 H 0.28519 0.28161 0.75098 0.0
S1864 S 0.21363 0.17187 0.75685 0.0
N1865 N 0.19417 0.20395 0.76209 0.0
N1866 N 0.24959 0.18244 0.75161 0.0
C1867 C 0.24689 0.21344 0.75422 0.0
C1868 C 0.21704 0.22505 0.75974 0.0
C1869 C 0.00268 0.96769 0.99059 0.0
C1870 C 0.9816 0.96554 0.01217 0.0
C1871 C 0.01626 -0.00412 0.98414 0.0
C1872 C 0.00891 0.02253 0.99902 0.0
H1873 H 0.00894 0.94743 0.97894 0.0
H1874 H 0.03225 -0.003 0.96718 0.0
S1875 S 0.9553 0.02844 0.05754 0.0
N1876 N 0.95435 0.99175 0.04873 0.0
N1877 N 0.97954 0.04512 0.0362 0.0
C1878 C 0.9881 0.02054 0.02079 0.0
C1879 C 0.97439 0.99186 0.02742 0.0
C1880 C 0.77126 0.73113 0.77224 0.0
C1881 C 0.77309 0.75068 0.7495 0.0
C1882 C 0.74353 0.71683 0.77899 0.0
C1883 C 0.71713 0.72171 0.76308 0.0
H1884 H 0.79141 0.72671 0.78465 0.0
H1885 H 0.74251 0.70235 0.797 0.0
S1886 S 0.71025 0.77113 0.70183 0.0
N1887 N 0.74656 0.77444 0.71125 0.0
N1888 N 0.69423 0.7474 0.72401 0.0
C1889 C 0.71876 0.74103 0.74025 0.0
C1890 C 0.74687 0.75568 0.73347 0.0
C1891 C 0.76888 0.22357 0.25517 0.0
C1892 C 0.77425 0.25521 0.25834 0.0
C1893 C 0.73929 0.21253 0.24993 0.0
C1894 C 0.71436 0.23287 0.24836 0.0
H1895 H 0.78767 0.20733 0.25685 0.0
H1896 H 0.73594 0.18809 0.24679 0.0
S1897 S 0.71655 0.31757 0.25684 0.0
N1898 N 0.75267 0.30658 0.26027 0.0
N1899 N 0.69666 0.28583 0.25123 0.0
C1900 C 0.7195 0.26452 0.25186 0.0
C1901 C 0.74963 0.27574 0.25669 0.0
C1902 C 0.76492 0.26005 0.76166 0.0
C1903 C 0.76957 0.22811 0.76312 0.0
C1904 C 0.73585 0.27215 0.7561 0.0
C1905 C 0.71073 0.25256 0.75201 0.0
H1906 H 0.78391 0.27574 0.76498 0.0
H1907 H 0.73309 0.29685 0.75456 0.0
S1908 S 0.71067 0.16744 0.7557 0.0
N1909 N 0.74677 0.17726 0.76139 0.0
N1910 N 0.6918 0.19997 0.75095 0.0
C1911 C 0.71501 0.22061 0.75382 0.0
C1912 C 0.74461 0.20834 0.75936 0.0
C1913 C 0.73939 0.76212 0.27681 0.0
C1914 C 0.71283 0.75232 0.26303 0.0
C1915 C 0.76796 0.74911 0.27082 0.0
C1916 C 0.7706 0.72609 0.25087 0.0
H1917 H 0.73798 0.77986 0.29235 0.0
H1918 H 0.78818 0.75753 0.28137 0.0
S1919 S 0.70808 0.69292 0.2089 0.0
N1920 N 0.69078 0.71837 0.22877 0.0
N1921 N 0.74493 0.69434 0.21699 0.0
C1922 C 0.74433 0.71622 0.23685 0.0
C1923 C 0.71523 0.72934 0.24303 0.0
C1924 C 0.46594 0.49499 0.9864 0.0
C1925 C 0.47247 0.52145 1.00182 0.0
C1926 C 0.48023 0.46703 0.9925 0.0
C1927 C 0.50146 0.46508 0.014 0.0
H1928 H 0.45017 0.49614 0.96927 0.0
H1929 H 0.47448 0.44681 0.98057 0.0
S1930 S 0.52687 0.52808 0.05969 0.0
N1931 N 0.50169 0.54432 0.03893 0.0
N1932 N 0.52873 0.49157 0.05042 0.0
C1933 C 0.50824 0.49139 0.02944 0.0
C1934 C 0.49357 0.51971 0.02336 0.0
C1935 C 0.00417 0.51886 0.48777 0.0
C1936 C 0.98444 0.5212 0.51035 0.0
C1937 C 0.01771 0.49069 0.48102 0.0
C1938 C 0.01182 0.46438 0.49677 0.0
H1939 H 0.00958 0.53899 0.47566 0.0
H1940 H 0.03264 0.48934 0.46332 0.0
S1941 S 0.9608 0.4586 0.55705 0.0
N1942 N 0.95887 0.49511 0.54788 0.0
N1943 N 0.98448 0.44197 0.53515 0.0
C1944 C 0.99195 0.46642 0.51919 0.0
C1945 C 0.97807 0.49496 0.52595 0.0
C1946 C 0.01517 0.49627 0.0227 0.0
C1947 C 0.00603 0.52344 0.00959 0.0
C1948 C 0.00131 0.46821 0.01609 0.0
C1949 C 0.97784 0.46688 0.99644 0.0
H1950 H 0.03288 0.49683 0.03829 0.0
H1951 H 0.00917 0.44743 0.02611 0.0
S1952 S 0.94485 0.53202 0.95762 0.0
N1953 N 0.97178 0.54774 0.97694 0.0
N1954 N 0.94536 0.49486 0.96465 0.0
C1955 C 0.96825 0.49398 0.98355 0.0
C1956 C 0.98251 0.52241 0.99009 0.0
C1957 C 0.50114 0.46826 0.49256 0.0
C1958 C 0.47877 0.46722 0.51315 0.0
C1959 C 0.51588 0.49589 0.48623 0.0
C1960 C 0.50845 0.52306 0.50029 0.0
H1961 H 0.50769 0.4475 0.48174 0.0
H1962 H 0.53295 0.49613 0.4701 0.0
S1963 S 0.45142 0.53196 0.55587 0.0
N1964 N 0.45 0.49509 0.54774 0.0
N1965 N 0.47738 0.54743 0.53542 0.0
C1966 C 0.48616 0.52224 0.52093 0.0
C1967 C 0.47126 0.49413 0.52742 0.0
loop_
_geom_bond_atom_site_label_1
_geom_bond_atom_site_label_2
_geom_bond_distance
_geom_bond_site_symmetry_2
_ccdc_geom_bond_type
Co0 O3 1.970 . S
Co0 N17 1.989 . S
Co0 O25 1.967 . S
Co0 O32 1.920 . S
Co1 O4 1.966 . S
Co1 N10 2.022 . S
Co1 N18 1.993 . S
Co1 O26 1.941 . S
C2 O3 1.258 . S
C2 O4 1.263 . S
O3 Co0 1.970 . S
O3 C2 1.258 . S
O4 Co1 1.966 . S
O4 C2 1.263 . S
C5 O6 1.235 . S
C5 O32 1.289 . S
O6 C5 1.235 . S
C7 C9 1.400 . S
C7 N10 1.351 . S
C7 C12 1.501 . S
C8 C9 1.387 . S
C8 N11 1.341 . S
C9 C7 1.400 . S
C9 C8 1.387 . S
N10 Co1 2.022 . S
N10 C7 1.351 . S
N10 N11 1.365 . S
N11 C8 1.341 . S
N11 N10 1.365 . S
N11 H31 0.862 . S
C12 C7 1.501 . S
C12 H13 0.961 . S
C12 H14 0.961 . S
C12 H15 0.960 . S
H13 C12 0.961 . S
H14 C12 0.961 . S
H15 C12 0.960 . S
C16 N17 1.342 . S
C16 C20 1.401 . S
C16 C21 1.499 . S
N17 Co0 1.989 . S
N17 C16 1.342 . S
N17 N18 1.388 . S
N18 Co1 1.993 . S
N18 N17 1.388 . S
N18 C19 1.346 . S
C19 N18 1.346 . S
C19 C20 1.396 . S
C19 C29 1.510 . S
C20 C16 1.401 . S
C20 C19 1.396 . S
C21 C16 1.499 . S
C21 H22 0.959 . S
C21 H23 0.960 . S
C21 H24 0.961 . S
H22 C21 0.959 . S
H23 C21 0.960 . S
H24 C21 0.961 . S
O25 Co0 1.967 . S
O25 C33 1.258 . S
O26 Co1 1.941 . S
O26 C33 1.266 . S
H27 C29 0.959 . S
H28 C29 0.961 . S
C29 C19 1.510 . S
C29 H27 0.959 . S
C29 H28 0.961 . S
C29 H30 0.960 . S
H30 C29 0.960 . S
H31 N11 0.862 . S
O32 Co0 1.920 . S
O32 C5 1.289 . S
C33 O25 1.258 . S
C33 O26 1.266 . S
Co34 O37 1.970 . S
Co34 N51 1.989 . S
Co34 O59 1.967 . S
Co34 O66 1.920 . S
Co35 O38 1.966 . S
Co35 N44 2.022 . S
Co35 N52 1.993 . S
Co35 O60 1.941 . S
C36 O37 1.258 . S
C36 O38 1.263 . S
O37 Co34 1.970 . S
O37 C36 1.258 . S
O38 Co35 1.966 . S
O38 C36 1.263 . S
C39 O40 1.235 . S
C39 O66 1.289 1_655 S
O40 C39 1.235 . S
C41 C43 1.400 . S
C41 N44 1.351 . S
C41 C46 1.501 . S
C42 C43 1.387 . S
C42 N45 1.341 . S
C43 C41 1.400 . S
C43 C42 1.387 . S
N44 Co35 2.022 . S
N44 C41 1.351 . S
N44 N45 1.365 . S
N45 C42 1.341 . S
N45 N44 1.365 . S
N45 H65 0.862 . S
C46 C41 1.501 . S
C46 H47 0.961 . S
C46 H48 0.961 . S
C46 H49 0.960 . S
H47 C46 0.961 . S
H48 C46 0.961 . S
H49 C46 0.960 . S
C50 N51 1.342 . S
C50 C54 1.401 . S
C50 C55 1.499 . S
N51 Co34 1.989 . S
N51 C50 1.342 . S
N51 N52 1.388 . S
N52 Co35 1.993 . S
N52 N51 1.388 . S
N52 C53 1.346 . S
C53 N52 1.346 . S
C53 C54 1.396 . S
C53 C63 1.510 . S
C54 C50 1.401 . S
C54 C53 1.396 . S
C55 C50 1.499 . S
C55 H56 0.959 . S
C55 H57 0.960 1_455 S
C55 H58 0.961 . S
H56 C55 0.959 . S
H57 C55 0.960 1_655 S
H58 C55 0.961 . S
O59 Co34 1.967 . S
O59 C67 1.258 . S
O60 Co35 1.941 . S
O60 C67 1.266 . S
H61 C63 0.959 . S
H62 C63 0.961 . S
C63 C53 1.510 . S
C63 H61 0.959 . S
C63 H62 0.961 . S
C63 H64 0.960 . S
H64 C63 0.960 . S
H65 N45 0.862 . S
O66 Co34 1.920 . S
O66 C39 1.289 1_455 S
C67 O59 1.258 . S
C67 O60 1.266 . S
Co68 O71 1.970 . S
Co68 N85 1.989 . S
Co68 O93 1.967 . S
Co68 O100 1.920 . S
Co69 O72 1.966 . S
Co69 N78 2.022 . S
Co69 N86 1.993 . S
Co69 O94 1.941 . S
C70 O71 1.258 . S
C70 O72 1.263 . S
O71 Co68 1.970 . S
O71 C70 1.258 . S
O72 Co69 1.966 . S
O72 C70 1.263 . S
C73 O74 1.235 . S
C73 O100 1.289 . S
O74 C73 1.235 . S
C75 C77 1.400 . S
C75 N78 1.351 . S
C75 C80 1.501 . S
C76 C77 1.387 . S
C76 N79 1.341 . S
C77 C75 1.400 . S
C77 C76 1.387 . S
N78 Co69 2.022 . S
N78 C75 1.351 . S
N78 N79 1.365 . S
N79 C76 1.341 . S
N79 N78 1.365 . S
N79 H99 0.862 . S
C80 C75 1.501 . S
C80 H81 0.961 . S
C80 H82 0.961 . S
C80 H83 0.960 . S
H81 C80 0.961 . S
H82 C80 0.961 . S
H83 C80 0.960 . S
C84 N85 1.342 . S
C84 C88 1.401 . S
C84 C89 1.499 . S
N85 Co68 1.989 . S
N85 C84 1.342 . S
N85 N86 1.388 . S
N86 Co69 1.993 . S
N86 N85 1.388 . S
N86 C87 1.346 . S
C87 N86 1.346 . S
C87 C88 1.396 . S
C87 C97 1.510 . S
C88 C84 1.401 . S
C88 C87 1.396 . S
C89 C84 1.499 . S
C89 H90 0.959 . S
C89 H91 0.960 . S
C89 H92 0.961 . S
H90 C89 0.959 . S
H91 C89 0.960 . S
H92 C89 0.961 . S
O93 Co68 1.967 . S
O93 C101 1.258 . S
O94 Co69 1.941 . S
O94 C101 1.266 . S
H95 C97 0.959 . S
H96 C97 0.961 . S
C97 C87 1.510 . S
C97 H95 0.959 . S
C97 H96 0.961 . S
C97 H98 0.960 . S
H98 C97 0.960 . S
H99 N79 0.862 . S
O100 Co68 1.920 . S
O100 C73 1.289 . S
C101 O93 1.258 . S
C101 O94 1.266 . S
Co102 O105 1.970 . S
Co102 N119 1.989 . S
Co102 O127 1.967 . S
Co102 O134 1.920 . S
Co103 O106 1.966 . S
Co103 N112 2.022 1_554 S
Co103 N120 1.993 . S
Co103 O128 1.941 . S
C104 O105 1.258 . S
C104 O106 1.263 . S
O105 Co102 1.970 . S
O105 C104 1.258 . S
O106 Co103 1.966 . S
O106 C104 1.263 . S
C107 O108 1.235 . S
C107 O134 1.289 . S
O108 C107 1.235 . S
C109 C111 1.400 . S
C109 N112 1.351 . S
C109 C114 1.501 . S
C110 C111 1.387 . S
C110 N113 1.341 . S
C111 C109 1.400 . S
C111 C110 1.387 . S
N112 Co103 2.022 1_556 S
N112 C109 1.351 . S
N112 N113 1.365 . S
N113 C110 1.341 . S
N113 N112 1.365 . S
N113 H133 0.862 . S
C114 C109 1.501 . S
C114 H115 0.961 . S
C114 H116 0.961 . S
C114 H117 0.960 . S
H115 C114 0.961 . S
H116 C114 0.961 . S
H117 C114 0.960 . S
C118 N119 1.342 . S
C118 C122 1.401 . S
C118 C123 1.499 . S
N119 Co102 1.989 . S
N119 C118 1.342 . S
N119 N120 1.388 . S
N120 Co103 1.993 . S
N120 N119 1.388 . S
N120 C121 1.346 . S
C121 N120 1.346 . S
C121 C122 1.396 . S
C121 C131 1.510 1_554 S
C122 C118 1.401 . S
C122 C121 1.396 . S
C123 C118 1.499 . S
C123 H124 0.959 . S
C123 H125 0.960 . S
C123 H126 0.961 . S
H124 C123 0.959 . S
H125 C123 0.960 . S
H126 C123 0.961 . S
O127 Co102 1.967 . S
O127 C135 1.258 . S
O128 Co103 1.941 . S
O128 C135 1.266 . S
H129 C131 0.959 . S
H130 C131 0.961 . S
C131 C121 1.510 1_556 S
C131 H129 0.959 . S
C131 H130 0.961 . S
C131 H132 0.960 . S
H132 C131 0.960 . S
H133 N113 0.862 . S
O134 Co102 1.920 . S
O134 C107 1.289 . S
C135 O127 1.258 . S
C135 O128 1.266 . S
Co136 O139 1.970 . S
Co136 N153 1.989 . S
Co136 O161 1.967 . S
Co136 O168 1.920 . S
Co137 O140 1.966 . S
Co137 N146 2.022 . S
Co137 N154 1.993 . S
Co137 O162 1.941 . S
C138 O139 1.258 . S
C138 O140 1.263 . S
O139 Co136 1.970 . S
O139 C138 1.258 . S
O140 Co137 1.966 . S
O140 C138 1.263 . S
C141 O142 1.235 . S
C141 O168 1.289 . S
O142 C141 1.235 . S
C143 C145 1.400 . S
C143 N146 1.351 . S
C143 C148 1.501 . S
C144 C145 1.387 . S
C144 N147 1.341 . S
C145 C143 1.400 . S
C145 C144 1.387 . S
N146 Co137 2.022 . S
N146 C143 1.351 . S
N146 N147 1.365 . S
N147 C144 1.341 . S
N147 N146 1.365 . S
N147 H167 0.862 . S
C148 C143 1.501 . S
C148 H149 0.961 . S
C148 H150 0.961 . S
C148 H151 0.960 . S
H149 C148 0.961 . S
H150 C148 0.961 . S
H151 C148 0.960 . S
C152 N153 1.342 . S
C152 C156 1.401 . S
C152 C157 1.499 . S
N153 Co136 1.989 . S
N153 C152 1.342 . S
N153 N154 1.388 . S
N154 Co137 1.993 . S
N154 N153 1.388 . S
N154 C155 1.346 . S
C155 N154 1.346 . S
C155 C156 1.396 . S
C155 C165 1.510 . S
C156 C152 1.401 . S
C156 C155 1.396 . S
C157 C152 1.499 . S
C157 H158 0.959 . S
C157 H159 0.960 . S
C157 H160 0.961 . S
H158 C157 0.959 . S
H159 C157 0.960 . S
H160 C157 0.961 . S
O161 Co136 1.967 . S
O161 C169 1.258 . S
O162 Co137 1.941 . S
O162 C169 1.266 . S
H163 C165 0.959 . S
H164 C165 0.961 . S
C165 C155 1.510 . S
C165 H163 0.959 . S
C165 H164 0.961 . S
C165 H166 0.960 . S
H166 C165 0.960 . S
H167 N147 0.862 . S
O168 Co136 1.920 . S
O168 C141 1.289 . S
C169 O161 1.258 . S
C169 O162 1.266 . S
Co170 O173 1.970 . S
Co170 N187 1.989 . S
Co170 O195 1.967 . S
Co170 O202 1.920 . S
Co171 O174 1.966 . S
Co171 N180 2.022 . S
Co171 N188 1.993 . S
Co171 O196 1.941 . S
C172 O173 1.258 . S
C172 O174 1.263 . S
O173 Co170 1.970 . S
O173 C172 1.258 . S
O174 Co171 1.966 . S
O174 C172 1.263 . S
C175 O176 1.235 . S
C175 O202 1.289 . S
O176 C175 1.235 . S
C177 C179 1.400 . S
C177 N180 1.351 . S
C177 C182 1.501 . S
C178 C179 1.387 . S
C178 N181 1.341 . S
C179 C177 1.400 . S
C179 C178 1.387 . S
N180 Co171 2.022 . S
N180 C177 1.351 . S
N180 N181 1.365 . S
N181 C178 1.341 . S
N181 N180 1.365 . S
N181 H201 0.862 . S
C182 C177 1.501 . S
C182 H183 0.961 . S
C182 H184 0.961 . S
C182 H185 0.960 . S
H183 C182 0.961 . S
H184 C182 0.961 . S
H185 C182 0.960 . S
C186 N187 1.342 . S
C186 C190 1.401 . S
C186 C191 1.499 . S
N187 Co170 1.989 . S
N187 C186 1.342 . S
N187 N188 1.388 . S
N188 Co171 1.993 . S
N188 N187 1.388 . S
N188 C189 1.346 . S
C189 N188 1.346 . S
C189 C190 1.396 . S
C189 C199 1.510 . S
C190 C186 1.401 . S
C190 C189 1.396 . S
C191 C186 1.499 . S
C191 H192 0.959 . S
C191 H193 0.960 . S
C191 H194 0.961 . S
H192 C191 0.959 . S
H193 C191 0.960 . S
H194 C191 0.961 . S
O195 Co170 1.967 . S
O195 C203 1.258 . S
O196 Co171 1.941 . S
O196 C203 1.266 . S
H197 C199 0.959 . S
H198 C199 0.961 . S
C199 C189 1.510 . S
C199 H197 0.959 . S
C199 H198 0.961 . S
C199 H200 0.960 . S
H200 C199 0.960 . S
H201 N181 0.862 . S
O202 Co170 1.920 . S
O202 C175 1.289 . S
C203 O195 1.258 . S
C203 O196 1.266 . S
Co204 O207 1.970 . S
Co204 N221 1.989 . S
Co204 O229 1.967 . S
Co204 O236 1.920 . S
Co205 O208 1.966 . S
Co205 N214 2.022 . S
Co205 N222 1.993 . S
Co205 O230 1.941 . S
C206 O207 1.258 . S
C206 O208 1.263 . S
O207 Co204 1.970 . S
O207 C206 1.258 . S
O208 Co205 1.966 . S
O208 C206 1.263 . S
C209 O210 1.235 . S
C209 O236 1.289 . S
O210 C209 1.235 . S
C211 C213 1.400 . S
C211 N214 1.351 . S
C211 C216 1.501 . S
C212 C213 1.387 . S
C212 N215 1.341 . S
C213 C211 1.400 . S
C213 C212 1.387 . S
N214 Co205 2.022 . S
N214 C211 1.351 . S
N214 N215 1.365 . S
N215 C212 1.341 . S
N215 N214 1.365 . S
N215 H235 0.862 . S
C216 C211 1.501 . S
C216 H217 0.961 . S
C216 H218 0.961 . S
C216 H219 0.960 . S
H217 C216 0.961 . S
H218 C216 0.961 . S
H219 C216 0.960 . S
C220 N221 1.342 . S
C220 C224 1.401 . S
C220 C225 1.499 . S
N221 Co204 1.989 . S
N221 C220 1.342 . S
N221 N222 1.388 . S
N222 Co205 1.993 . S
N222 N221 1.388 . S
N222 C223 1.346 . S
C223 N222 1.346 . S
C223 C224 1.396 . S
C223 C233 1.510 . S
C224 C220 1.401 . S
C224 C223 1.396 . S
C225 C220 1.499 . S
C225 H226 0.959 . S
C225 H227 0.960 . S
C225 H228 0.961 . S
H226 C225 0.959 . S
H227 C225 0.960 . S
H228 C225 0.961 . S
O229 Co204 1.967 . S
O229 C237 1.258 . S
O230 Co205 1.941 . S
O230 C237 1.266 . S
H231 C233 0.959 . S
H232 C233 0.961 . S
C233 C223 1.510 . S
C233 H231 0.959 . S
C233 H232 0.961 . S
C233 H234 0.960 . S
H234 C233 0.960 . S
H235 N215 0.862 . S
O236 Co204 1.920 . S
O236 C209 1.289 . S
C237 O229 1.258 . S
C237 O230 1.266 . S
Co238 O241 1.970 . S
Co238 N255 1.989 . S
Co238 O263 1.967 . S
Co238 O270 1.920 . S
Co239 O242 1.966 . S
Co239 N248 2.022 1_556 S
Co239 N256 1.993 . S
Co239 O264 1.941 . S
C240 O241 1.258 . S
C240 O242 1.263 . S
O241 Co238 1.970 . S
O241 C240 1.258 . S
O242 Co239 1.966 . S
O242 C240 1.263 . S
C243 O244 1.235 . S
C243 O270 1.289 1_655 S
O244 C243 1.235 . S
C245 C247 1.400 . S
C245 N248 1.351 . S
C245 C250 1.501 . S
C246 C247 1.387 . S
C246 N249 1.341 . S
C247 C245 1.400 . S
C247 C246 1.387 . S
N248 Co239 2.022 1_554 S
N248 C245 1.351 . S
N248 N249 1.365 . S
N249 C246 1.341 . S
N249 N248 1.365 . S
N249 H269 0.862 . S
C250 C245 1.501 . S
C250 H251 0.961 . S
C250 H252 0.961 . S
C250 H253 0.960 . S
H251 C250 0.961 . S
H252 C250 0.961 . S
H253 C250 0.960 . S
C254 N255 1.342 . S
C254 C258 1.401 . S
C254 C259 1.499 . S
N255 Co238 1.989 . S
N255 C254 1.342 . S
N255 N256 1.388 . S
N256 Co239 1.993 . S
N256 N255 1.388 . S
N256 C257 1.346 . S
C257 N256 1.346 . S
C257 C258 1.396 . S
C257 C267 1.510 1_556 S
C258 C254 1.401 . S
C258 C257 1.396 . S
C259 C254 1.499 . S
C259 H260 0.959 . S
C259 H261 0.960 1_455 S
C259 H262 0.961 . S
H260 C259 0.959 . S
H261 C259 0.960 1_655 S
H262 C259 0.961 . S
O263 Co238 1.967 . S
O263 C271 1.258 . S
O264 Co239 1.941 . S
O264 C271 1.266 . S
H265 C267 0.959 . S
H266 C267 0.961 . S
C267 C257 1.510 1_554 S
C267 H265 0.959 . S
C267 H266 0.961 . S
C267 H268 0.960 . S
H268 C267 0.960 . S
H269 N249 0.862 . S
O270 Co238 1.920 . S
O270 C243 1.289 1_455 S
C271 O263 1.258 . S
C271 O264 1.266 . S
Co272 O275 1.970 . S
Co272 N289 1.989 . S
Co272 O297 1.967 . S
Co272 O304 1.920 . S
Co273 O276 1.966 . S
Co273 N282 2.022 . S
Co273 N290 1.993 . S
Co273 O298 1.941 . S
C274 O275 1.258 . S
C274 O276 1.263 . S
O275 Co272 1.970 . S
O275 C274 1.258 . S
O276 Co273 1.966 . S
O276 C274 1.263 . S
C277 O278 1.235 . S
C277 O304 1.289 . S
O278 C277 1.235 . S
C279 C281 1.400 . S
C279 N282 1.351 . S
C279 C284 1.501 . S
C280 C281 1.387 . S
C280 N283 1.341 . S
C281 C279 1.400 . S
C281 C280 1.387 . S
N282 Co273 2.022 . S
N282 C279 1.351 . S
N282 N283 1.365 . S
N283 C280 1.341 . S
N283 N282 1.365 . S
N283 H303 0.862 . S
C284 C279 1.501 . S
C284 H285 0.961 . S
C284 H286 0.961 . S
C284 H287 0.960 . S
H285 C284 0.961 . S
H286 C284 0.961 . S
H287 C284 0.960 . S
C288 N289 1.342 . S
C288 C292 1.401 . S
C288 C293 1.499 . S
N289 Co272 1.989 . S
N289 C288 1.342 . S
N289 N290 1.388 . S
N290 Co273 1.993 . S
N290 N289 1.388 . S
N290 C291 1.346 . S
C291 N290 1.346 . S
C291 C292 1.396 . S
C291 C301 1.510 . S
C292 C288 1.401 . S
C292 C291 1.396 . S
C293 C288 1.499 . S
C293 H294 0.959 . S
C293 H295 0.960 . S
C293 H296 0.961 . S
H294 C293 0.959 . S
H295 C293 0.960 . S
H296 C293 0.961 . S
O297 Co272 1.967 . S
O297 C305 1.258 . S
O298 Co273 1.941 . S
O298 C305 1.266 . S
H299 C301 0.959 . S
H300 C301 0.961 . S
C301 C291 1.510 . S
C301 H299 0.959 . S
C301 H300 0.961 . S
C301 H302 0.960 . S
H302 C301 0.960 . S
H303 N283 0.862 . S
O304 Co272 1.920 . S
O304 C277 1.289 . S
C305 O297 1.258 . S
C305 O298 1.266 . S
Co306 O309 1.970 . S
Co306 N323 1.989 . S
Co306 O331 1.967 . S
Co306 O338 1.920 . S
Co307 O310 1.966 . S
Co307 N316 2.022 . S
Co307 N324 1.993 . S
Co307 O332 1.941 . S
C308 O309 1.258 . S
C308 O310 1.263 . S
O309 Co306 1.970 . S
O309 C308 1.258 . S
O310 Co307 1.966 . S
O310 C308 1.263 . S
C311 O312 1.235 . S
C311 O338 1.289 1_455 S
O312 C311 1.235 . S
C313 C315 1.400 . S
C313 N316 1.351 . S
C313 C318 1.501 . S
C314 C315 1.387 . S
C314 N317 1.341 . S
C315 C313 1.400 . S
C315 C314 1.387 . S
N316 Co307 2.022 . S
N316 C313 1.351 . S
N316 N317 1.365 . S
N317 C314 1.341 . S
N317 N316 1.365 . S
N317 H337 0.862 . S
C318 C313 1.501 . S
C318 H319 0.961 . S
C318 H320 0.961 . S
C318 H321 0.960 . S
H319 C318 0.961 . S
H320 C318 0.961 . S
H321 C318 0.960 . S
C322 N323 1.342 . S
C322 C326 1.401 . S
C322 C327 1.499 . S
N323 Co306 1.989 . S
N323 C322 1.342 . S
N323 N324 1.388 . S
N324 Co307 1.993 . S
N324 N323 1.388 . S
N324 C325 1.346 . S
C325 N324 1.346 . S
C325 C326 1.396 . S
C325 C335 1.510 . S
C326 C322 1.401 . S
C326 C325 1.396 . S
C327 C322 1.499 . S
C327 H328 0.959 . S
C327 H329 0.960 1_655 S
C327 H330 0.961 . S
H328 C327 0.959 . S
H329 C327 0.960 1_455 S
H330 C327 0.961 . S
O331 Co306 1.967 . S
O331 C339 1.258 . S
O332 Co307 1.941 . S
O332 C339 1.266 . S
H333 C335 0.959 . S
H334 C335 0.961 . S
C335 C325 1.510 . S
C335 H333 0.959 . S
C335 H334 0.961 . S
C335 H336 0.960 . S
H336 C335 0.960 . S
H337 N317 0.862 . S
O338 Co306 1.920 . S
O338 C311 1.289 1_655 S
C339 O331 1.258 . S
C339 O332 1.266 . S
Co340 O343 1.970 . S
Co340 N357 1.989 . S
Co340 O365 1.967 . S
Co340 O372 1.920 . S
Co341 O344 1.966 . S
Co341 N350 2.022 . S
Co341 N358 1.993 . S
Co341 O366 1.941 . S
C342 O343 1.258 . S
C342 O344 1.263 . S
O343 Co340 1.970 . S
O343 C342 1.258 . S
O344 Co341 1.966 . S
O344 C342 1.263 . S
C345 O346 1.235 . S
C345 O372 1.289 . S
O346 C345 1.235 . S
C347 C349 1.400 . S
C347 N350 1.351 . S
C347 C352 1.501 . S
C348 C349 1.387 . S
C348 N351 1.341 . S
C349 C347 1.400 . S
C349 C348 1.387 . S
N350 Co341 2.022 . S
N350 C347 1.351 . S
N350 N351 1.365 . S
N351 C348 1.341 . S
N351 N350 1.365 . S
N351 H371 0.862 . S
C352 C347 1.501 . S
C352 H353 0.961 . S
C352 H354 0.961 . S
C352 H355 0.960 . S
H353 C352 0.961 . S
H354 C352 0.961 . S
H355 C352 0.960 . S
C356 N357 1.342 . S
C356 C360 1.401 . S
C356 C361 1.499 . S
N357 Co340 1.989 . S
N357 C356 1.342 . S
N357 N358 1.388 . S
N358 Co341 1.993 . S
N358 N357 1.388 . S
N358 C359 1.346 . S
C359 N358 1.346 . S
C359 C360 1.396 . S
C359 C369 1.510 . S
C360 C356 1.401 . S
C360 C359 1.396 . S
C361 C356 1.499 . S
C361 H362 0.959 . S
C361 H363 0.960 . S
C361 H364 0.961 . S
H362 C361 0.959 . S
H363 C361 0.960 . S
H364 C361 0.961 . S
O365 Co340 1.967 . S
O365 C373 1.258 . S
O366 Co341 1.941 . S
O366 C373 1.266 . S
H367 C369 0.959 . S
H368 C369 0.961 . S
C369 C359 1.510 . S
C369 H367 0.959 . S
C369 H368 0.961 . S
C369 H370 0.960 . S
H370 C369 0.960 . S
H371 N351 0.862 . S
O372 Co340 1.920 . S
O372 C345 1.289 . S
C373 O365 1.258 . S
C373 O366 1.266 . S
Co374 O377 1.970 . S
Co374 N391 1.989 . S
Co374 O399 1.967 . S
Co374 O406 1.920 . S
Co375 O378 1.966 . S
Co375 N384 2.022 1_556 S
Co375 N392 1.993 . S
Co375 O400 1.941 . S
C376 O377 1.258 . S
C376 O378 1.263 . S
O377 Co374 1.970 . S
O377 C376 1.258 . S
O378 Co375 1.966 . S
O378 C376 1.263 . S
C379 O380 1.235 . S
C379 O406 1.289 . S
O380 C379 1.235 . S
C381 C383 1.400 . S
C381 N384 1.351 . S
C381 C386 1.501 . S
C382 C383 1.387 . S
C382 N385 1.341 . S
C383 C381 1.400 . S
C383 C382 1.387 . S
N384 Co375 2.022 1_554 S
N384 C381 1.351 . S
N384 N385 1.365 . S
N385 C382 1.341 . S
N385 N384 1.365 . S
N385 H405 0.862 . S
C386 C381 1.501 . S
C386 H387 0.961 . S
C386 H388 0.961 . S
C386 H389 0.960 . S
H387 C386 0.961 . S
H388 C386 0.961 . S
H389 C386 0.960 . S
C390 N391 1.342 . S
C390 C394 1.401 . S
C390 C395 1.499 . S
N391 Co374 1.989 . S
N391 C390 1.342 . S
N391 N392 1.388 . S
N392 Co375 1.993 . S
N392 N391 1.388 . S
N392 C393 1.346 . S
C393 N392 1.346 . S
C393 C394 1.396 . S
C393 C403 1.510 1_556 S
C394 C390 1.401 . S
C394 C393 1.396 . S
C395 C390 1.499 . S
C395 H396 0.959 . S
C395 H397 0.960 . S
C395 H398 0.961 . S
H396 C395 0.959 . S
H397 C395 0.960 . S
H398 C395 0.961 . S
O399 Co374 1.967 . S
O399 C407 1.258 . S
O400 Co375 1.941 . S
O400 C407 1.266 . S
H401 C403 0.959 . S
H402 C403 0.961 . S
C403 C393 1.510 1_554 S
C403 H401 0.959 . S
C403 H402 0.961 . S
C403 H404 0.960 . S
H404 C403 0.960 . S
H405 N385 0.862 . S
O406 Co374 1.920 . S
O406 C379 1.289 . S
C407 O399 1.258 . S
C407 O400 1.266 . S
Co408 O411 1.970 . S
Co408 N425 1.989 . S
Co408 O433 1.967 . S
Co408 O440 1.920 . S
Co409 O412 1.966 . S
Co409 N418 2.022 . S
Co409 N426 1.993 . S
Co409 O434 1.941 . S
C410 O411 1.258 . S
C410 O412 1.263 . S
O411 Co408 1.970 . S
O411 C410 1.258 . S
O412 Co409 1.966 . S
O412 C410 1.263 . S
C413 O414 1.235 . S
C413 O440 1.289 . S
O414 C413 1.235 . S
C415 C417 1.400 . S
C415 N418 1.351 . S
C415 C420 1.501 . S
C416 C417 1.387 . S
C416 N419 1.341 . S
C417 C415 1.400 . S
C417 C416 1.387 . S
N418 Co409 2.022 . S
N418 C415 1.351 . S
N418 N419 1.365 . S
N419 C416 1.341 . S
N419 N418 1.365 . S
N419 H439 0.862 . S
C420 C415 1.501 . S
C420 H421 0.961 . S
C420 H422 0.961 . S
C420 H423 0.960 . S
H421 C420 0.961 . S
H422 C420 0.961 . S
H423 C420 0.960 . S
C424 N425 1.342 . S
C424 C428 1.401 . S
C424 C429 1.499 . S
N425 Co408 1.989 . S
N425 C424 1.342 . S
N425 N426 1.388 . S
N426 Co409 1.993 . S
N426 N425 1.388 . S
N426 C427 1.346 . S
C427 N426 1.346 . S
C427 C428 1.396 . S
C427 C437 1.510 . S
C428 C424 1.401 . S
C428 C427 1.396 . S
C429 C424 1.499 . S
C429 H430 0.959 . S
C429 H431 0.960 . S
C429 H432 0.961 . S
H430 C429 0.959 . S
H431 C429 0.960 . S
H432 C429 0.961 . S
O433 Co408 1.967 . S
O433 C441 1.258 . S
O434 Co409 1.941 . S
O434 C441 1.266 . S
H435 C437 0.959 . S
H436 C437 0.961 . S
C437 C427 1.510 . S
C437 H435 0.959 . S
C437 H436 0.961 . S
C437 H438 0.960 . S
H438 C437 0.960 . S
H439 N419 0.862 . S
O440 Co408 1.920 . S
O440 C413 1.289 . S
C441 O433 1.258 . S
C441 O434 1.266 . S
Co442 O445 1.970 . S
Co442 N459 1.989 . S
Co442 O467 1.967 . S
Co442 O474 1.920 . S
Co443 O446 1.966 . S
Co443 N452 2.022 . S
Co443 N460 1.993 . S
Co443 O468 1.941 . S
C444 O445 1.258 . S
C444 O446 1.263 . S
O445 Co442 1.970 . S
O445 C444 1.258 . S
O446 Co443 1.966 . S
O446 C444 1.263 . S
C447 O448 1.235 . S
C447 O474 1.289 . S
O448 C447 1.235 . S
C449 C451 1.400 . S
C449 N452 1.351 . S
C449 C454 1.501 . S
C450 C451 1.387 . S
C450 N453 1.341 . S
C451 C449 1.400 . S
C451 C450 1.387 . S
N452 Co443 2.022 . S
N452 C449 1.351 . S
N452 N453 1.365 . S
N453 C450 1.341 . S
N453 N452 1.365 . S
N453 H473 0.862 . S
C454 C449 1.501 . S
C454 H455 0.961 . S
C454 H456 0.961 . S
C454 H457 0.960 . S
H455 C454 0.961 . S
H456 C454 0.961 . S
H457 C454 0.960 . S
C458 N459 1.342 . S
C458 C462 1.401 . S
C458 C463 1.499 . S
N459 Co442 1.989 . S
N459 C458 1.342 . S
N459 N460 1.388 . S
N460 Co443 1.993 . S
N460 N459 1.388 . S
N460 C461 1.346 . S
C461 N460 1.346 . S
C461 C462 1.396 . S
C461 C471 1.510 . S
C462 C458 1.401 . S
C462 C461 1.396 . S
C463 C458 1.499 . S
C463 H464 0.959 . S
C463 H465 0.960 . S
C463 H466 0.961 . S
H464 C463 0.959 . S
H465 C463 0.960 . S
H466 C463 0.961 . S
O467 Co442 1.967 . S
O467 C475 1.258 . S
O468 Co443 1.941 . S
O468 C475 1.266 . S
H469 C471 0.959 . S
H470 C471 0.961 . S
C471 C461 1.510 . S
C471 H469 0.959 . S
C471 H470 0.961 . S
C471 H472 0.960 . S
H472 C471 0.960 . S
H473 N453 0.862 . S
O474 Co442 1.920 . S
O474 C447 1.289 . S
C475 O467 1.258 . S
C475 O468 1.266 . S
Co476 O479 1.970 . S
Co476 N493 1.989 . S
Co476 O501 1.967 . S
Co476 O508 1.920 . S
Co477 O480 1.966 . S
Co477 N486 2.022 . S
Co477 N494 1.993 . S
Co477 O502 1.941 . S
C478 O479 1.258 . S
C478 O480 1.263 . S
O479 Co476 1.970 . S
O479 C478 1.258 . S
O480 Co477 1.966 . S
O480 C478 1.263 . S
C481 O482 1.235 . S
C481 O508 1.289 . S
O482 C481 1.235 . S
C483 C485 1.400 . S
C483 N486 1.351 . S
C483 C488 1.501 . S
C484 C485 1.387 . S
C484 N487 1.341 . S
C485 C483 1.400 . S
C485 C484 1.387 . S
N486 Co477 2.022 . S
N486 C483 1.351 . S
N486 N487 1.365 . S
N487 C484 1.341 . S
N487 N486 1.365 . S
N487 H507 0.862 . S
C488 C483 1.501 . S
C488 H489 0.961 . S
C488 H490 0.961 . S
C488 H491 0.960 . S
H489 C488 0.961 . S
H490 C488 0.961 . S
H491 C488 0.960 . S
C492 N493 1.342 . S
C492 C496 1.401 . S
C492 C497 1.499 . S
N493 Co476 1.989 . S
N493 C492 1.342 . S
N493 N494 1.388 . S
N494 Co477 1.993 . S
N494 N493 1.388 . S
N494 C495 1.346 . S
C495 N494 1.346 . S
C495 C496 1.396 . S
C495 C505 1.510 . S
C496 C492 1.401 . S
C496 C495 1.396 . S
C497 C492 1.499 . S
C497 H498 0.959 . S
C497 H499 0.960 . S
C497 H500 0.961 . S
H498 C497 0.959 . S
H499 C497 0.960 . S
H500 C497 0.961 . S
O501 Co476 1.967 . S
O501 C509 1.258 . S
O502 Co477 1.941 . S
O502 C509 1.266 . S
H503 C505 0.959 . S
H504 C505 0.961 . S
C505 C495 1.510 . S
C505 H503 0.959 . S
C505 H504 0.961 . S
C505 H506 0.960 . S
H506 C505 0.960 . S
H507 N487 0.862 . S
O508 Co476 1.920 . S
O508 C481 1.289 . S
C509 O501 1.258 . S
C509 O502 1.266 . S
Co510 O513 1.970 . S
Co510 N527 1.989 . S
Co510 O535 1.967 . S
Co510 O542 1.920 . S
Co511 O514 1.966 . S
Co511 N520 2.022 1_554 S
Co511 N528 1.993 . S
Co511 O536 1.941 . S
C512 O513 1.258 . S
C512 O514 1.263 . S
O513 Co510 1.970 . S
O513 C512 1.258 . S
O514 Co511 1.966 . S
O514 C512 1.263 . S
C515 O516 1.235 . S
C515 O542 1.289 1_455 S
O516 C515 1.235 . S
C517 C519 1.400 . S
C517 N520 1.351 . S
C517 C522 1.501 . S
C518 C519 1.387 . S
C518 N521 1.341 . S
C519 C517 1.400 . S
C519 C518 1.387 . S
N520 Co511 2.022 1_556 S
N520 C517 1.351 . S
N520 N521 1.365 . S
N521 C518 1.341 . S
N521 N520 1.365 . S
N521 H541 0.862 . S
C522 C517 1.501 . S
C522 H523 0.961 . S
C522 H524 0.961 . S
C522 H525 0.960 . S
H523 C522 0.961 . S
H524 C522 0.961 . S
H525 C522 0.960 . S
C526 N527 1.342 . S
C526 C530 1.401 . S
C526 C531 1.499 . S
N527 Co510 1.989 . S
N527 C526 1.342 . S
N527 N528 1.388 . S
N528 Co511 1.993 . S
N528 N527 1.388 . S
N528 C529 1.346 . S
C529 N528 1.346 . S
C529 C530 1.396 . S
C529 C539 1.510 1_554 S
C530 C526 1.401 . S
C530 C529 1.396 . S
C531 C526 1.499 . S
C531 H532 0.959 . S
C531 H533 0.960 1_655 S
C531 H534 0.961 . S
H532 C531 0.959 . S
H533 C531 0.960 1_455 S
H534 C531 0.961 . S
O535 Co510 1.967 . S
O535 C543 1.258 . S
O536 Co511 1.941 . S
O536 C543 1.266 . S
H537 C539 0.959 . S
H538 C539 0.961 . S
C539 C529 1.510 1_556 S
C539 H537 0.959 . S
C539 H538 0.961 . S
C539 H540 0.960 . S
H540 C539 0.960 . S
H541 N521 0.862 . S
O542 Co510 1.920 . S
O542 C515 1.289 1_655 S
C543 O535 1.258 . S
C543 O536 1.266 . S
Co544 O547 1.970 . S
Co544 N561 1.989 . S
Co544 O569 1.967 . S
Co544 O576 1.920 . S
Co545 O548 1.966 . S
Co545 N554 2.022 . S
Co545 N562 1.993 . S
Co545 O570 1.941 . S
C546 O547 1.258 . S
C546 O548 1.263 . S
O547 Co544 1.970 . S
O547 C546 1.258 . S
O548 Co545 1.966 . S
O548 C546 1.263 . S
C549 O550 1.235 . S
C549 O576 1.289 . S
O550 C549 1.235 . S
C551 C553 1.400 . S
C551 N554 1.351 . S
C551 C556 1.501 . S
C552 C553 1.387 . S
C552 N555 1.341 . S
C553 C551 1.400 . S
C553 C552 1.387 . S
N554 Co545 2.022 . S
N554 C551 1.351 . S
N554 N555 1.365 . S
N555 C552 1.341 . S
N555 N554 1.365 . S
N555 H575 0.862 . S
C556 C551 1.501 . S
C556 H557 0.961 . S
C556 H558 0.961 . S
C556 H559 0.960 . S
H557 C556 0.961 . S
H558 C556 0.961 . S
H559 C556 0.960 . S
C560 N561 1.342 . S
C560 C564 1.401 . S
C560 C565 1.499 . S
N561 Co544 1.989 . S
N561 C560 1.342 . S
N561 N562 1.388 . S
N562 Co545 1.993 . S
N562 N561 1.388 . S
N562 C563 1.346 . S
C563 N562 1.346 . S
C563 C564 1.396 . S
C563 C573 1.510 . S
C564 C560 1.401 . S
C564 C563 1.396 . S
C565 C560 1.499 . S
C565 H566 0.959 . S
C565 H567 0.960 . S
C565 H568 0.961 . S
H566 C565 0.959 . S
H567 C565 0.960 . S
H568 C565 0.961 . S
O569 Co544 1.967 . S
O569 C577 1.258 . S
O570 Co545 1.941 . S
O570 C577 1.266 . S
H571 C573 0.959 . S
H572 C573 0.961 . S
C573 C563 1.510 . S
C573 H571 0.959 . S
C573 H572 0.961 . S
C573 H574 0.960 . S
H574 C573 0.960 . S
H575 N555 0.862 . S
O576 Co544 1.920 . S
O576 C549 1.289 . S
C577 O569 1.258 . S
C577 O570 1.266 . S
Co578 O581 1.970 . S
Co578 N595 1.989 . S
Co578 O603 1.967 . S
Co578 O610 1.920 . S
Co579 O582 1.966 . S
Co579 N588 2.022 1_554 S
Co579 N596 1.993 . S
Co579 O604 1.941 . S
C580 O581 1.258 . S
C580 O582 1.263 . S
O581 Co578 1.970 . S
O581 C580 1.258 . S
O582 Co579 1.966 . S
O582 C580 1.263 . S
C583 O584 1.235 . S
C583 O610 1.289 . S
O584 C583 1.235 . S
C585 C587 1.400 . S
C585 N588 1.351 . S
C585 C590 1.501 . S
C586 C587 1.387 . S
C586 N589 1.341 . S
C587 C585 1.400 . S
C587 C586 1.387 . S
N588 Co579 2.022 1_556 S
N588 C585 1.351 . S
N588 N589 1.365 . S
N589 C586 1.341 . S
N589 N588 1.365 . S
N589 H609 0.862 . S
C590 C585 1.501 . S
C590 H591 0.961 . S
C590 H592 0.961 . S
C590 H593 0.960 . S
H591 C590 0.961 . S
H592 C590 0.961 . S
H593 C590 0.960 . S
C594 N595 1.342 . S
C594 C598 1.401 . S
C594 C599 1.499 . S
N595 Co578 1.989 . S
N595 C594 1.342 . S
N595 N596 1.388 . S
N596 Co579 1.993 . S
N596 N595 1.388 . S
N596 C597 1.346 . S
C597 N596 1.346 . S
C597 C598 1.396 . S
C597 C607 1.510 1_554 S
C598 C594 1.401 . S
C598 C597 1.396 . S
C599 C594 1.499 . S
C599 H600 0.959 . S
C599 H601 0.960 . S
C599 H602 0.961 . S
H600 C599 0.959 . S
H601 C599 0.960 . S
H602 C599 0.961 . S
O603 Co578 1.967 . S
O603 C611 1.258 . S
O604 Co579 1.941 . S
O604 C611 1.266 . S
H605 C607 0.959 . S
H606 C607 0.961 . S
C607 C597 1.510 1_556 S
C607 H605 0.959 . S
C607 H606 0.961 . S
C607 H608 0.960 . S
H608 C607 0.960 . S
H609 N589 0.862 . S
O610 Co578 1.920 . S
O610 C583 1.289 . S
C611 O603 1.258 . S
C611 O604 1.266 . S
Co612 O615 1.970 . S
Co612 N629 1.989 . S
Co612 O637 1.967 . S
Co612 O644 1.920 . S
Co613 O616 1.966 . S
Co613 N622 2.022 . S
Co613 N630 1.993 . S
Co613 O638 1.941 . S
C614 O615 1.258 . S
C614 O616 1.263 . S
O615 Co612 1.970 . S
O615 C614 1.258 . S
O616 Co613 1.966 . S
O616 C614 1.263 . S
C617 O618 1.235 . S
C617 O644 1.289 . S
O618 C617 1.235 . S
C619 C621 1.400 . S
C619 N622 1.351 . S
C619 C624 1.501 . S
C620 C621 1.387 . S
C620 N623 1.341 . S
C621 C619 1.400 . S
C621 C620 1.387 . S
N622 Co613 2.022 . S
N622 C619 1.351 . S
N622 N623 1.365 . S
N623 C620 1.341 . S
N623 N622 1.365 . S
N623 H643 0.862 . S
C624 C619 1.501 . S
C624 H625 0.961 . S
C624 H626 0.961 . S
C624 H627 0.960 . S
H625 C624 0.961 . S
H626 C624 0.961 . S
H627 C624 0.960 . S
C628 N629 1.342 . S
C628 C632 1.401 . S
C628 C633 1.499 . S
N629 Co612 1.989 . S
N629 C628 1.342 . S
N629 N630 1.388 . S
N630 Co613 1.993 . S
N630 N629 1.388 . S
N630 C631 1.346 . S
C631 N630 1.346 . S
C631 C632 1.396 . S
C631 C641 1.510 . S
C632 C628 1.401 . S
C632 C631 1.396 . S
C633 C628 1.499 . S
C633 H634 0.959 . S
C633 H635 0.960 . S
C633 H636 0.961 . S
H634 C633 0.959 . S
H635 C633 0.960 . S
H636 C633 0.961 . S
O637 Co612 1.967 . S
O637 C645 1.258 . S
O638 Co613 1.941 . S
O638 C645 1.266 . S
H639 C641 0.959 . S
H640 C641 0.961 . S
C641 C631 1.510 . S
C641 H639 0.959 . S
C641 H640 0.961 . S
C641 H642 0.960 . S
H642 C641 0.960 . S
H643 N623 0.862 . S
O644 Co612 1.920 . S
O644 C617 1.289 . S
C645 O637 1.258 . S
C645 O638 1.266 . S
Co646 O649 1.970 . S
Co646 N663 1.989 . S
Co646 O671 1.967 . S
Co646 O678 1.920 . S
Co647 O650 1.966 . S
Co647 N656 2.022 . S
Co647 N664 1.993 . S
Co647 O672 1.941 . S
C648 O649 1.258 . S
C648 O650 1.263 . S
O649 Co646 1.970 . S
O649 C648 1.258 . S
O650 Co647 1.966 . S
O650 C648 1.263 . S
C651 O652 1.235 . S
C651 O678 1.289 1_455 S
O652 C651 1.235 . S
C653 C655 1.400 . S
C653 N656 1.351 . S
C653 C658 1.501 . S
C654 C655 1.387 . S
C654 N657 1.341 . S
C655 C653 1.400 . S
C655 C654 1.387 . S
N656 Co647 2.022 . S
N656 C653 1.351 . S
N656 N657 1.365 . S
N657 C654 1.341 . S
N657 N656 1.365 . S
N657 H677 0.862 . S
C658 C653 1.501 . S
C658 H659 0.961 . S
C658 H660 0.961 . S
C658 H661 0.960 . S
H659 C658 0.961 . S
H660 C658 0.961 . S
H661 C658 0.960 . S
C662 N663 1.342 . S
C662 C666 1.401 . S
C662 C667 1.499 . S
N663 Co646 1.989 . S
N663 C662 1.342 . S
N663 N664 1.388 . S
N664 Co647 1.993 . S
N664 N663 1.388 . S
N664 C665 1.346 . S
C665 N664 1.346 . S
C665 C666 1.396 . S
C665 C675 1.510 . S
C666 C662 1.401 . S
C666 C665 1.396 . S
C667 C662 1.499 . S
C667 H668 0.959 . S
C667 H669 0.960 1_655 S
C667 H670 0.961 . S
H668 C667 0.959 . S
H669 C667 0.960 1_455 S
H670 C667 0.961 . S
O671 Co646 1.967 . S
O671 C679 1.258 . S
O672 Co647 1.941 . S
O672 C679 1.266 . S
H673 C675 0.959 . S
H674 C675 0.961 . S
C675 C665 1.510 . S
C675 H673 0.959 . S
C675 H674 0.961 . S
C675 H676 0.960 . S
H676 C675 0.960 . S
H677 N657 0.862 . S
O678 Co646 1.920 . S
O678 C651 1.289 1_655 S
C679 O671 1.258 . S
C679 O672 1.266 . S
Co680 O683 1.970 . S
Co680 N697 1.989 . S
Co680 O705 1.967 . S
Co680 O712 1.920 . S
Co681 O684 1.966 . S
Co681 N690 2.022 . S
Co681 N698 1.993 . S
Co681 O706 1.941 . S
C682 O683 1.258 . S
C682 O684 1.263 . S
O683 Co680 1.970 . S
O683 C682 1.258 . S
O684 Co681 1.966 . S
O684 C682 1.263 . S
C685 O686 1.235 . S
C685 O712 1.289 . S
O686 C685 1.235 . S
C687 C689 1.400 . S
C687 N690 1.351 . S
C687 C692 1.501 . S
C688 C689 1.387 . S
C688 N691 1.341 . S
C689 C687 1.400 . S
C689 C688 1.387 . S
N690 Co681 2.022 . S
N690 C687 1.351 . S
N690 N691 1.365 . S
N691 C688 1.341 . S
N691 N690 1.365 . S
N691 H711 0.862 . S
C692 C687 1.501 . S
C692 H693 0.961 . S
C692 H694 0.961 . S
C692 H695 0.960 . S
H693 C692 0.961 . S
H694 C692 0.961 . S
H695 C692 0.960 . S
C696 N697 1.342 . S
C696 C700 1.401 . S
C696 C701 1.499 . S
N697 Co680 1.989 . S
N697 C696 1.342 . S
N697 N698 1.388 . S
N698 Co681 1.993 . S
N698 N697 1.388 . S
N698 C699 1.346 . S
C699 N698 1.346 . S
C699 C700 1.396 . S
C699 C709 1.510 . S
C700 C696 1.401 . S
C700 C699 1.396 . S
C701 C696 1.499 . S
C701 H702 0.959 . S
C701 H703 0.960 . S
C701 H704 0.961 . S
H702 C701 0.959 . S
H703 C701 0.960 . S
H704 C701 0.961 . S
O705 Co680 1.967 . S
O705 C713 1.258 . S
O706 Co681 1.941 . S
O706 C713 1.266 . S
H707 C709 0.959 . S
H708 C709 0.961 . S
C709 C699 1.510 . S
C709 H707 0.959 . S
C709 H708 0.961 . S
C709 H710 0.960 . S
H710 C709 0.960 . S
H711 N691 0.862 . S
O712 Co680 1.920 . S
O712 C685 1.289 . S
C713 O705 1.258 . S
C713 O706 1.266 . S
Co714 O717 1.970 . S
Co714 N731 1.989 . S
Co714 O739 1.967 . S
Co714 O746 1.920 . S
Co715 O718 1.966 . S
Co715 N724 2.022 1_556 S
Co715 N732 1.993 . S
Co715 O740 1.941 . S
C716 O717 1.258 . S
C716 O718 1.263 . S
O717 Co714 1.970 . S
O717 C716 1.258 . S
O718 Co715 1.966 . S
O718 C716 1.263 . S
C719 O720 1.235 . S
C719 O746 1.289 1_455 S
O720 C719 1.235 . S
C721 C723 1.400 . S
C721 N724 1.351 . S
C721 C726 1.501 . S
C722 C723 1.387 . S
C722 N725 1.341 . S
C723 C721 1.400 . S
C723 C722 1.387 . S
N724 Co715 2.022 1_554 S
N724 C721 1.351 . S
N724 N725 1.365 . S
N725 C722 1.341 . S
N725 N724 1.365 . S
N725 H745 0.862 . S
C726 C721 1.501 . S
C726 H727 0.961 . S
C726 H728 0.961 . S
C726 H729 0.960 . S
H727 C726 0.961 . S
H728 C726 0.961 . S
H729 C726 0.960 . S
C730 N731 1.342 . S
C730 C734 1.401 . S
C730 C735 1.499 . S
N731 Co714 1.989 . S
N731 C730 1.342 . S
N731 N732 1.388 . S
N732 Co715 1.993 . S
N732 N731 1.388 . S
N732 C733 1.346 . S
C733 N732 1.346 . S
C733 C734 1.396 . S
C733 C743 1.510 1_556 S
C734 C730 1.401 . S
C734 C733 1.396 . S
C735 C730 1.499 . S
C735 H736 0.959 . S
C735 H737 0.960 1_655 S
C735 H738 0.961 . S
H736 C735 0.959 . S
H737 C735 0.960 1_455 S
H738 C735 0.961 . S
O739 Co714 1.967 . S
O739 C747 1.258 . S
O740 Co715 1.941 . S
O740 C747 1.266 . S
H741 C743 0.959 . S
H742 C743 0.961 . S
C743 C733 1.510 1_554 S
C743 H741 0.959 . S
C743 H742 0.961 . S
C743 H744 0.960 . S
H744 C743 0.960 . S
H745 N725 0.862 . S
O746 Co714 1.920 . S
O746 C719 1.289 1_655 S
C747 O739 1.258 . S
C747 O740 1.266 . S
Co748 O751 1.970 . S
Co748 N765 1.989 . S
Co748 O773 1.967 . S
Co748 O780 1.920 . S
Co749 O752 1.966 . S
Co749 N758 2.022 . S
Co749 N766 1.993 . S
Co749 O774 1.941 . S
C750 O751 1.258 . S
C750 O752 1.263 . S
O751 Co748 1.970 . S
O751 C750 1.258 . S
O752 Co749 1.966 . S
O752 C750 1.263 . S
C753 O754 1.235 . S
C753 O780 1.289 . S
O754 C753 1.235 . S
C755 C757 1.400 . S
C755 N758 1.351 . S
C755 C760 1.501 . S
C756 C757 1.387 . S
C756 N759 1.341 . S
C757 C755 1.400 . S
C757 C756 1.387 . S
N758 Co749 2.022 . S
N758 C755 1.351 . S
N758 N759 1.365 . S
N759 C756 1.341 . S
N759 N758 1.365 . S
N759 H779 0.862 . S
C760 C755 1.501 . S
C760 H761 0.961 . S
C760 H762 0.961 . S
C760 H763 0.960 . S
H761 C760 0.961 . S
H762 C760 0.961 . S
H763 C760 0.960 . S
C764 N765 1.342 . S
C764 C768 1.401 . S
C764 C769 1.499 . S
N765 Co748 1.989 . S
N765 C764 1.342 . S
N765 N766 1.388 . S
N766 Co749 1.993 . S
N766 N765 1.388 . S
N766 C767 1.346 . S
C767 N766 1.346 . S
C767 C768 1.396 . S
C767 C777 1.510 . S
C768 C764 1.401 . S
C768 C767 1.396 . S
C769 C764 1.499 . S
C769 H770 0.959 . S
C769 H771 0.960 . S
C769 H772 0.961 . S
H770 C769 0.959 . S
H771 C769 0.960 . S
H772 C769 0.961 . S
O773 Co748 1.967 . S
O773 C781 1.258 . S
O774 Co749 1.941 . S
O774 C781 1.266 . S
H775 C777 0.959 . S
H776 C777 0.961 . S
C777 C767 1.510 . S
C777 H775 0.959 . S
C777 H776 0.961 . S
C777 H778 0.960 . S
H778 C777 0.960 . S
H779 N759 0.862 . S
O780 Co748 1.920 . S
O780 C753 1.289 . S
C781 O773 1.258 . S
C781 O774 1.266 . S
Co782 O785 1.970 . S
Co782 N799 1.989 . S
Co782 O807 1.967 . S
Co782 O814 1.920 . S
Co783 O786 1.966 . S
Co783 N792 2.022 . S
Co783 N800 1.993 . S
Co783 O808 1.941 . S
C784 O785 1.258 . S
C784 O786 1.263 . S
O785 Co782 1.970 . S
O785 C784 1.258 . S
O786 Co783 1.966 . S
O786 C784 1.263 . S
C787 O788 1.235 . S
C787 O814 1.289 . S
O788 C787 1.235 . S
C789 C791 1.400 . S
C789 N792 1.351 . S
C789 C794 1.501 . S
C790 C791 1.387 . S
C790 N793 1.341 . S
C791 C789 1.400 . S
C791 C790 1.387 . S
N792 Co783 2.022 . S
N792 C789 1.351 . S
N792 N793 1.365 . S
N793 C790 1.341 . S
N793 N792 1.365 . S
N793 H813 0.862 . S
C794 C789 1.501 . S
C794 H795 0.961 . S
C794 H796 0.961 . S
C794 H797 0.960 . S
H795 C794 0.961 . S
H796 C794 0.961 . S
H797 C794 0.960 . S
C798 N799 1.342 . S
C798 C802 1.401 . S
C798 C803 1.499 . S
N799 Co782 1.989 . S
N799 C798 1.342 . S
N799 N800 1.388 . S
N800 Co783 1.993 . S
N800 N799 1.388 . S
N800 C801 1.346 . S
C801 N800 1.346 . S
C801 C802 1.396 . S
C801 C811 1.510 . S
C802 C798 1.401 . S
C802 C801 1.396 . S
C803 C798 1.499 . S
C803 H804 0.959 . S
C803 H805 0.960 . S
C803 H806 0.961 . S
H804 C803 0.959 . S
H805 C803 0.960 . S
H806 C803 0.961 . S
O807 Co782 1.967 . S
O807 C815 1.258 . S
O808 Co783 1.941 . S
O808 C815 1.266 . S
H809 C811 0.959 . S
H810 C811 0.961 . S
C811 C801 1.510 . S
C811 H809 0.959 . S
C811 H810 0.961 . S
C811 H812 0.960 . S
H812 C811 0.960 . S
H813 N793 0.862 . S
O814 Co782 1.920 . S
O814 C787 1.289 . S
C815 O807 1.258 . S
C815 O808 1.266 . S
Co816 O819 1.970 . S
Co816 N833 1.989 . S
Co816 O841 1.967 . S
Co816 O848 1.920 . S
Co817 O820 1.966 . S
Co817 N826 2.022 . S
Co817 N834 1.993 . S
Co817 O842 1.941 . S
C818 O819 1.258 . S
C818 O820 1.263 . S
O819 Co816 1.970 . S
O819 C818 1.258 . S
O820 Co817 1.966 . S
O820 C818 1.263 . S
C821 O822 1.235 . S
C821 O848 1.289 . S
O822 C821 1.235 . S
C823 C825 1.400 . S
C823 N826 1.351 . S
C823 C828 1.501 . S
C824 C825 1.387 . S
C824 N827 1.341 . S
C825 C823 1.400 . S
C825 C824 1.387 . S
N826 Co817 2.022 . S
N826 C823 1.351 . S
N826 N827 1.365 . S
N827 C824 1.341 . S
N827 N826 1.365 . S
N827 H847 0.862 . S
C828 C823 1.501 . S
C828 H829 0.961 . S
C828 H830 0.961 . S
C828 H831 0.960 . S
H829 C828 0.961 . S
H830 C828 0.961 . S
H831 C828 0.960 . S
C832 N833 1.342 . S
C832 C836 1.401 . S
C832 C837 1.499 . S
N833 Co816 1.989 . S
N833 C832 1.342 . S
N833 N834 1.388 . S
N834 Co817 1.993 . S
N834 N833 1.388 . S
N834 C835 1.346 . S
C835 N834 1.346 . S
C835 C836 1.396 . S
C835 C845 1.510 . S
C836 C832 1.401 . S
C836 C835 1.396 . S
C837 C832 1.499 . S
C837 H838 0.959 . S
C837 H839 0.960 . S
C837 H840 0.961 . S
H838 C837 0.959 . S
H839 C837 0.960 . S
H840 C837 0.961 . S
O841 Co816 1.967 . S
O841 C849 1.258 . S
O842 Co817 1.941 . S
O842 C849 1.266 . S
H843 C845 0.959 . S
H844 C845 0.961 . S
C845 C835 1.510 . S
C845 H843 0.959 . S
C845 H844 0.961 . S
C845 H846 0.960 . S
H846 C845 0.960 . S
H847 N827 0.862 . S
O848 Co816 1.920 . S
O848 C821 1.289 . S
C849 O841 1.258 . S
C849 O842 1.266 . S
Co850 O853 1.970 . S
Co850 N867 1.989 . S
Co850 O875 1.967 . S
Co850 O882 1.920 . S
Co851 O854 1.966 . S
Co851 N860 2.022 1_556 S
Co851 N868 1.993 . S
Co851 O876 1.941 . S
C852 O853 1.258 . S
C852 O854 1.263 . S
O853 Co850 1.970 . S
O853 C852 1.258 . S
O854 Co851 1.966 . S
O854 C852 1.263 . S
C855 O856 1.235 . S
C855 O882 1.289 . S
O856 C855 1.235 . S
C857 C859 1.400 . S
C857 N860 1.351 . S
C857 C862 1.501 . S
C858 C859 1.387 . S
C858 N861 1.341 . S
C859 C857 1.400 . S
C859 C858 1.387 . S
N860 Co851 2.022 1_554 S
N860 C857 1.351 . S
N860 N861 1.365 . S
N861 C858 1.341 . S
N861 N860 1.365 . S
N861 H881 0.862 . S
C862 C857 1.501 . S
C862 H863 0.961 . S
C862 H864 0.961 . S
C862 H865 0.960 . S
H863 C862 0.961 . S
H864 C862 0.961 . S
H865 C862 0.960 . S
C866 N867 1.342 . S
C866 C870 1.401 . S
C866 C871 1.499 . S
N867 Co850 1.989 . S
N867 C866 1.342 . S
N867 N868 1.388 . S
N868 Co851 1.993 . S
N868 N867 1.388 . S
N868 C869 1.346 . S
C869 N868 1.346 . S
C869 C870 1.396 . S
C869 C879 1.510 1_556 S
C870 C866 1.401 . S
C870 C869 1.396 . S
C871 C866 1.499 . S
C871 H872 0.959 . S
C871 H873 0.960 . S
C871 H874 0.961 . S
H872 C871 0.959 . S
H873 C871 0.960 . S
H874 C871 0.961 . S
O875 Co850 1.967 . S
O875 C883 1.258 . S
O876 Co851 1.941 . S
O876 C883 1.266 . S
H877 C879 0.959 . S
H878 C879 0.961 . S
C879 C869 1.510 1_554 S
C879 H877 0.959 . S
C879 H878 0.961 . S
C879 H880 0.960 . S
H880 C879 0.960 . S
H881 N861 0.862 . S
O882 Co850 1.920 . S
O882 C855 1.289 . S
C883 O875 1.258 . S
C883 O876 1.266 . S
Co884 O887 1.970 . S
Co884 N901 1.989 . S
Co884 O909 1.967 . S
Co884 O916 1.920 . S
Co885 O888 1.966 . S
Co885 N894 2.022 . S
Co885 N902 1.993 . S
Co885 O910 1.941 . S
C886 O887 1.258 . S
C886 O888 1.263 . S
O887 Co884 1.970 . S
O887 C886 1.258 . S
O888 Co885 1.966 . S
O888 C886 1.263 . S
C889 O890 1.235 . S
C889 O916 1.289 . S
O890 C889 1.235 . S
C891 C893 1.400 . S
C891 N894 1.351 . S
C891 C896 1.501 . S
C892 C893 1.387 . S
C892 N895 1.341 . S
C893 C891 1.400 . S
C893 C892 1.387 . S
N894 Co885 2.022 . S
N894 C891 1.351 . S
N894 N895 1.365 . S
N895 C892 1.341 . S
N895 N894 1.365 . S
N895 H915 0.862 . S
C896 C891 1.501 . S
C896 H897 0.961 . S
C896 H898 0.961 . S
C896 H899 0.960 . S
H897 C896 0.961 . S
H898 C896 0.961 . S
H899 C896 0.960 . S
C900 N901 1.342 . S
C900 C904 1.401 . S
C900 C905 1.499 . S
N901 Co884 1.989 . S
N901 C900 1.342 . S
N901 N902 1.388 . S
N902 Co885 1.993 . S
N902 N901 1.388 . S
N902 C903 1.346 . S
C903 N902 1.346 . S
C903 C904 1.396 . S
C903 C913 1.510 . S
C904 C900 1.401 . S
C904 C903 1.396 . S
C905 C900 1.499 . S
C905 H906 0.959 . S
C905 H907 0.960 . S
C905 H908 0.961 . S
H906 C905 0.959 . S
H907 C905 0.960 . S
H908 C905 0.961 . S
O909 Co884 1.967 . S
O909 C917 1.258 . S
O910 Co885 1.941 . S
O910 C917 1.266 . S
H911 C913 0.959 . S
H912 C913 0.961 . S
C913 C903 1.510 . S
C913 H911 0.959 . S
C913 H912 0.961 . S
C913 H914 0.960 . S
H914 C913 0.960 . S
H915 N895 0.862 . S
O916 Co884 1.920 . S
O916 C889 1.289 . S
C917 O909 1.258 . S
C917 O910 1.266 . S
Co918 O921 1.970 . S
Co918 N935 1.989 . S
Co918 O943 1.967 . S
Co918 O950 1.920 . S
Co919 O922 1.966 . S
Co919 N928 2.022 . S
Co919 N936 1.993 . S
Co919 O944 1.941 . S
C920 O921 1.258 . S
C920 O922 1.263 . S
O921 Co918 1.970 . S
O921 C920 1.258 . S
O922 Co919 1.966 . S
O922 C920 1.263 . S
C923 O924 1.235 . S
C923 O950 1.289 1_655 S
O924 C923 1.235 . S
C925 C927 1.400 . S
C925 N928 1.351 . S
C925 C930 1.501 . S
C926 C927 1.387 . S
C926 N929 1.341 . S
C927 C925 1.400 . S
C927 C926 1.387 . S
N928 Co919 2.022 . S
N928 C925 1.351 . S
N928 N929 1.365 . S
N929 C926 1.341 . S
N929 N928 1.365 . S
N929 H949 0.862 . S
C930 C925 1.501 . S
C930 H931 0.961 . S
C930 H932 0.961 . S
C930 H933 0.960 . S
H931 C930 0.961 . S
H932 C930 0.961 . S
H933 C930 0.960 . S
C934 N935 1.342 . S
C934 C938 1.401 . S
C934 C939 1.499 . S
N935 Co918 1.989 . S
N935 C934 1.342 . S
N935 N936 1.388 . S
N936 Co919 1.993 . S
N936 N935 1.388 . S
N936 C937 1.346 . S
C937 N936 1.346 . S
C937 C938 1.396 . S
C937 C947 1.510 . S
C938 C934 1.401 . S
C938 C937 1.396 . S
C939 C934 1.499 . S
C939 H940 0.959 . S
C939 H941 0.960 1_455 S
C939 H942 0.961 . S
H940 C939 0.959 . S
H941 C939 0.960 1_655 S
H942 C939 0.961 . S
O943 Co918 1.967 . S
O943 C951 1.258 . S
O944 Co919 1.941 . S
O944 C951 1.266 . S
H945 C947 0.959 . S
H946 C947 0.961 . S
C947 C937 1.510 . S
C947 H945 0.959 . S
C947 H946 0.961 . S
C947 H948 0.960 . S
H948 C947 0.960 . S
H949 N929 0.862 . S
O950 Co918 1.920 . S
O950 C923 1.289 1_455 S
C951 O943 1.258 . S
C951 O944 1.266 . S
Co952 O955 1.970 . S
Co952 N969 1.989 . S
Co952 O977 1.967 . S
Co952 O984 1.920 . S
Co953 O956 1.966 . S
Co953 N962 2.022 . S
Co953 N970 1.993 . S
Co953 O978 1.941 . S
C954 O955 1.258 . S
C954 O956 1.263 . S
O955 Co952 1.970 . S
O955 C954 1.258 . S
O956 Co953 1.966 . S
O956 C954 1.263 . S
C957 O958 1.235 . S
C957 O984 1.289 . S
O958 C957 1.235 . S
C959 C961 1.400 . S
C959 N962 1.351 . S
C959 C964 1.501 . S
C960 C961 1.387 . S
C960 N963 1.341 . S
C961 C959 1.400 . S
C961 C960 1.387 . S
N962 Co953 2.022 . S
N962 C959 1.351 . S
N962 N963 1.365 . S
N963 C960 1.341 . S
N963 N962 1.365 . S
N963 H983 0.862 . S
C964 C959 1.501 . S
C964 H965 0.961 . S
C964 H966 0.961 . S
C964 H967 0.960 . S
H965 C964 0.961 . S
H966 C964 0.961 . S
H967 C964 0.960 . S
C968 N969 1.342 . S
C968 C972 1.401 . S
C968 C973 1.499 . S
N969 Co952 1.989 . S
N969 C968 1.342 . S
N969 N970 1.388 . S
N970 Co953 1.993 . S
N970 N969 1.388 . S
N970 C971 1.346 . S
C971 N970 1.346 . S
C971 C972 1.396 . S
C971 C981 1.510 . S
C972 C968 1.401 . S
C972 C971 1.396 . S
C973 C968 1.499 . S
C973 H974 0.959 . S
C973 H975 0.960 . S
C973 H976 0.961 . S
H974 C973 0.959 . S
H975 C973 0.960 . S
H976 C973 0.961 . S
O977 Co952 1.967 . S
O977 C985 1.258 . S
O978 Co953 1.941 . S
O978 C985 1.266 . S
H979 C981 0.959 . S
H980 C981 0.961 . S
C981 C971 1.510 . S
C981 H979 0.959 . S
C981 H980 0.961 . S
C981 H982 0.960 . S
H982 C981 0.960 . S
H983 N963 0.862 . S
O984 Co952 1.920 . S
O984 C957 1.289 . S
C985 O977 1.258 . S
C985 O978 1.266 . S
Co986 O989 1.970 . S
Co986 N1003 1.989 . S
Co986 O1011 1.967 . S
Co986 O1018 1.920 . S
Co987 O990 1.966 . S
Co987 N996 2.022 1_554 S
Co987 N1004 1.993 . S
Co987 O1012 1.941 . S
C988 O989 1.258 . S
C988 O990 1.263 . S
O989 Co986 1.970 . S
O989 C988 1.258 . S
O990 Co987 1.966 . S
O990 C988 1.263 . S
C991 O992 1.235 . S
C991 O1018 1.289 1_655 S
O992 C991 1.235 . S
C993 C995 1.400 . S
C993 N996 1.351 . S
C993 C998 1.501 . S
C994 C995 1.387 . S
C994 N997 1.341 . S
C995 C993 1.400 . S
C995 C994 1.387 . S
N996 Co987 2.022 1_556 S
N996 C993 1.351 . S
N996 N997 1.365 . S
N997 C994 1.341 . S
N997 N996 1.365 . S
N997 H1017 0.862 . S
C998 C993 1.501 . S
C998 H999 0.961 . S
C998 H1000 0.961 . S
C998 H1001 0.960 . S
H999 C998 0.961 . S
H1000 C998 0.961 . S
H1001 C998 0.960 . S
C1002 N1003 1.342 . S
C1002 C1006 1.401 . S
C1002 C1007 1.499 . S
N1003 Co986 1.989 . S
N1003 C1002 1.342 . S
N1003 N1004 1.388 . S
N1004 Co987 1.993 . S
N1004 N1003 1.388 . S
N1004 C1005 1.346 . S
C1005 N1004 1.346 . S
C1005 C1006 1.396 . S
C1005 C1015 1.510 1_554 S
C1006 C1002 1.401 . S
C1006 C1005 1.396 . S
C1007 C1002 1.499 . S
C1007 H1008 0.959 . S
C1007 H1009 0.960 1_455 S
C1007 H1010 0.961 . S
H1008 C1007 0.959 . S
H1009 C1007 0.960 1_655 S
H1010 C1007 0.961 . S
O1011 Co986 1.967 . S
O1011 C1019 1.258 . S
O1012 Co987 1.941 . S
O1012 C1019 1.266 . S
H1013 C1015 0.959 . S
H1014 C1015 0.961 . S
C1015 C1005 1.510 1_556 S
C1015 H1013 0.959 . S
C1015 H1014 0.961 . S
C1015 H1016 0.960 . S
H1016 C1015 0.960 . S
H1017 N997 0.862 . S
O1018 Co986 1.920 . S
O1018 C991 1.289 1_455 S
C1019 O1011 1.258 . S
C1019 O1012 1.266 . S
Co1020 O1023 1.970 . S
Co1020 N1037 1.989 . S
Co1020 O1045 1.967 . S
Co1020 O1052 1.920 . S
Co1021 O1024 1.966 . S
Co1021 N1030 2.022 . S
Co1021 N1038 1.993 . S
Co1021 O1046 1.941 . S
C1022 O1023 1.258 . S
C1022 O1024 1.263 . S
O1023 Co1020 1.970 . S
O1023 C1022 1.258 . S
O1024 Co1021 1.966 . S
O1024 C1022 1.263 . S
C1025 O1026 1.235 . S
C1025 O1052 1.289 . S
O1026 C1025 1.235 . S
C1027 C1029 1.400 . S
C1027 N1030 1.351 . S
C1027 C1032 1.501 . S
C1028 C1029 1.387 . S
C1028 N1031 1.341 . S
C1029 C1027 1.400 . S
C1029 C1028 1.387 . S
N1030 Co1021 2.022 . S
N1030 C1027 1.351 . S
N1030 N1031 1.365 . S
N1031 C1028 1.341 . S
N1031 N1030 1.365 . S
N1031 H1051 0.862 . S
C1032 C1027 1.501 . S
C1032 H1033 0.961 . S
C1032 H1034 0.961 . S
C1032 H1035 0.960 . S
H1033 C1032 0.961 . S
H1034 C1032 0.961 . S
H1035 C1032 0.960 . S
C1036 N1037 1.342 . S
C1036 C1040 1.401 . S
C1036 C1041 1.499 . S
N1037 Co1020 1.989 . S
N1037 C1036 1.342 . S
N1037 N1038 1.388 . S
N1038 Co1021 1.993 . S
N1038 N1037 1.388 . S
N1038 C1039 1.346 . S
C1039 N1038 1.346 . S
C1039 C1040 1.396 . S
C1039 C1049 1.510 . S
C1040 C1036 1.401 . S
C1040 C1039 1.396 . S
C1041 C1036 1.499 . S
C1041 H1042 0.959 . S
C1041 H1043 0.960 . S
C1041 H1044 0.961 . S
H1042 C1041 0.959 . S
H1043 C1041 0.960 . S
H1044 C1041 0.961 . S
O1045 Co1020 1.967 . S
O1045 C1053 1.258 . S
O1046 Co1021 1.941 . S
O1046 C1053 1.266 . S
H1047 C1049 0.959 . S
H1048 C1049 0.961 . S
C1049 C1039 1.510 . S
C1049 H1047 0.959 . S
C1049 H1048 0.961 . S
C1049 H1050 0.960 . S
H1050 C1049 0.960 . S
H1051 N1031 0.862 . S
O1052 Co1020 1.920 . S
O1052 C1025 1.289 . S
C1053 O1045 1.258 . S
C1053 O1046 1.266 . S
Co1054 O1057 1.970 . S
Co1054 N1071 1.989 . S
Co1054 O1079 1.967 . S
Co1054 O1086 1.920 . S
Co1055 O1058 1.966 . S
Co1055 N1064 2.022 . S
Co1055 N1072 1.993 . S
Co1055 O1080 1.941 . S
C1056 O1057 1.258 . S
C1056 O1058 1.263 . S
O1057 Co1054 1.970 . S
O1057 C1056 1.258 . S
O1058 Co1055 1.966 . S
O1058 C1056 1.263 . S
C1059 O1060 1.235 . S
C1059 O1086 1.289 . S
O1060 C1059 1.235 . S
C1061 C1063 1.400 . S
C1061 N1064 1.351 . S
C1061 C1066 1.501 . S
C1062 C1063 1.387 . S
C1062 N1065 1.341 . S
C1063 C1061 1.400 . S
C1063 C1062 1.387 . S
N1064 Co1055 2.022 . S
N1064 C1061 1.351 . S
N1064 N1065 1.365 . S
N1065 C1062 1.341 . S
N1065 N1064 1.365 . S
N1065 H1085 0.862 . S
C1066 C1061 1.501 . S
C1066 H1067 0.961 . S
C1066 H1068 0.961 . S
C1066 H1069 0.960 . S
H1067 C1066 0.961 . S
H1068 C1066 0.961 . S
H1069 C1066 0.960 . S
C1070 N1071 1.342 . S
C1070 C1074 1.401 . S
C1070 C1075 1.499 . S
N1071 Co1054 1.989 . S
N1071 C1070 1.342 . S
N1071 N1072 1.388 . S
N1072 Co1055 1.993 . S
N1072 N1071 1.388 . S
N1072 C1073 1.346 . S
C1073 N1072 1.346 . S
C1073 C1074 1.396 . S
C1073 C1083 1.510 . S
C1074 C1070 1.401 . S
C1074 C1073 1.396 . S
C1075 C1070 1.499 . S
C1075 H1076 0.959 . S
C1075 H1077 0.960 . S
C1075 H1078 0.961 . S
H1076 C1075 0.959 . S
H1077 C1075 0.960 . S
H1078 C1075 0.961 . S
O1079 Co1054 1.967 . S
O1079 C1087 1.258 . S
O1080 Co1055 1.941 . S
O1080 C1087 1.266 . S
H1081 C1083 0.959 . S
H1082 C1083 0.961 . S
C1083 C1073 1.510 . S
C1083 H1081 0.959 . S
C1083 H1082 0.961 . S
C1083 H1084 0.960 . S
H1084 C1083 0.960 . S
H1085 N1065 0.862 . S
O1086 Co1054 1.920 . S
O1086 C1059 1.289 . S
C1087 O1079 1.258 . S
C1087 O1080 1.266 . S
C1088 C1089 1.369 . S
C1088 C1090 1.419 . S
C1088 H1092 0.930 . S
C1089 C1088 1.369 . S
C1089 C1098 1.429 . S
C1090 C1088 1.419 . S
C1090 C1091 1.363 . S
C1090 H1093 0.929 . S
C1091 C1090 1.363 . S
C1091 C1097 1.428 . S
H1092 C1088 0.930 . S
H1093 C1090 0.929 . S
S1094 N1095 1.613 . S
S1094 N1096 1.610 . S
N1095 S1094 1.613 . S
N1095 C1098 1.350 . S
N1096 S1094 1.610 . S
N1096 C1097 1.351 . S
C1097 C1091 1.428 . S
C1097 N1096 1.351 . S
C1097 C1098 1.434 . S
C1098 C1089 1.429 . S
C1098 N1095 1.350 . S
C1098 C1097 1.434 . S
C1099 C1100 1.369 . S
C1099 C1101 1.419 . S
C1099 H1103 0.930 . S
C1100 C1099 1.369 . S
C1100 C1109 1.429 . S
C1101 C1099 1.419 . S
C1101 C1102 1.363 . S
C1101 H1104 0.929 . S
C1102 C1101 1.363 . S
C1102 C1108 1.428 . S
H1103 C1099 0.930 . S
H1104 C1101 0.929 . S
S1105 N1106 1.613 . S
S1105 N1107 1.610 . S
N1106 S1105 1.613 . S
N1106 C1109 1.350 . S
N1107 S1105 1.610 . S
N1107 C1108 1.351 . S
C1108 C1102 1.428 . S
C1108 N1107 1.351 . S
C1108 C1109 1.434 . S
C1109 C1100 1.429 . S
C1109 N1106 1.350 . S
C1109 C1108 1.434 . S
C1110 C1111 1.369 . S
C1110 C1112 1.419 . S
C1110 H1114 0.930 . S
C1111 C1110 1.369 . S
C1111 C1120 1.429 . S
C1112 C1110 1.419 . S
C1112 C1113 1.363 . S
C1112 H1115 0.929 . S
C1113 C1112 1.363 . S
C1113 C1119 1.428 . S
H1114 C1110 0.930 . S
H1115 C1112 0.929 . S
S1116 N1117 1.613 . S
S1116 N1118 1.610 . S
N1117 S1116 1.613 . S
N1117 C1120 1.350 . S
N1118 S1116 1.610 . S
N1118 C1119 1.351 . S
C1119 C1113 1.428 . S
C1119 N1118 1.351 . S
C1119 C1120 1.434 . S
C1120 C1111 1.429 . S
C1120 N1117 1.350 . S
C1120 C1119 1.434 . S
C1121 C1122 1.369 . S
C1121 C1123 1.419 . S
C1121 H1125 0.930 . S
C1122 C1121 1.369 . S
C1122 C1131 1.429 . S
C1123 C1121 1.419 . S
C1123 C1124 1.363 . S
C1123 H1126 0.929 . S
C1124 C1123 1.363 . S
C1124 C1130 1.428 . S
H1125 C1121 0.930 . S
H1126 C1123 0.929 . S
S1127 N1128 1.613 . S
S1127 N1129 1.610 . S
N1128 S1127 1.613 . S
N1128 C1131 1.350 . S
N1129 S1127 1.610 . S
N1129 C1130 1.351 . S
C1130 C1124 1.428 . S
C1130 N1129 1.351 . S
C1130 C1131 1.434 . S
C1131 C1122 1.429 . S
C1131 N1128 1.350 . S
C1131 C1130 1.434 . S
C1132 C1133 1.369 . S
C1132 C1134 1.419 . S
C1132 H1136 0.930 . S
C1133 C1132 1.369 . S
C1133 C1142 1.429 . S
C1134 C1132 1.419 . S
C1134 C1135 1.363 . S
C1134 H1137 0.929 . S
C1135 C1134 1.363 . S
C1135 C1141 1.428 . S
H1136 C1132 0.930 . S
H1137 C1134 0.929 . S
S1138 N1139 1.613 . S
S1138 N1140 1.610 . S
N1139 S1138 1.613 . S
N1139 C1142 1.350 . S
N1140 S1138 1.610 . S
N1140 C1141 1.351 . S
C1141 C1135 1.428 . S
C1141 N1140 1.351 . S
C1141 C1142 1.434 . S
C1142 C1133 1.429 . S
C1142 N1139 1.350 . S
C1142 C1141 1.434 . S
C1143 C1144 1.369 . S
C1143 C1145 1.419 . S
C1143 H1147 0.930 . S
C1144 C1143 1.369 . S
C1144 C1153 1.429 . S
C1145 C1143 1.419 . S
C1145 C1146 1.363 . S
C1145 H1148 0.929 . S
C1146 C1145 1.363 . S
C1146 C1152 1.428 . S
H1147 C1143 0.930 . S
H1148 C1145 0.929 . S
S1149 N1150 1.613 . S
S1149 N1151 1.610 . S
N1150 S1149 1.613 . S
N1150 C1153 1.350 . S
N1151 S1149 1.610 . S
N1151 C1152 1.351 . S
C1152 C1146 1.428 . S
C1152 N1151 1.351 . S
C1152 C1153 1.434 . S
C1153 C1144 1.429 . S
C1153 N1150 1.350 . S
C1153 C1152 1.434 . S
C1154 C1155 1.369 . S
C1154 C1156 1.419 . S
C1154 H1158 0.930 . S
C1155 C1154 1.369 . S
C1155 C1164 1.429 . S
C1156 C1154 1.419 . S
C1156 C1157 1.363 . S
C1156 H1159 0.929 . S
C1157 C1156 1.363 . S
C1157 C1163 1.428 . S
H1158 C1154 0.930 . S
H1159 C1156 0.929 . S
S1160 N1161 1.613 . S
S1160 N1162 1.610 . S
N1161 S1160 1.613 . S
N1161 C1164 1.350 . S
N1162 S1160 1.610 . S
N1162 C1163 1.351 . S
C1163 C1157 1.428 . S
C1163 N1162 1.351 . S
C1163 C1164 1.434 . S
C1164 C1155 1.429 . S
C1164 N1161 1.350 . S
C1164 C1163 1.434 . S
C1165 C1166 1.369 . S
C1165 C1167 1.419 . S
C1165 H1169 0.930 . S
C1166 C1165 1.369 . S
C1166 C1175 1.429 . S
C1167 C1165 1.419 . S
C1167 C1168 1.363 . S
C1167 H1170 0.929 . S
C1168 C1167 1.363 . S
C1168 C1174 1.428 . S
H1169 C1165 0.930 . S
H1170 C1167 0.929 . S
S1171 N1172 1.613 . S
S1171 N1173 1.610 . S
N1172 S1171 1.613 . S
N1172 C1175 1.350 . S
N1173 S1171 1.610 . S
N1173 C1174 1.351 . S
C1174 C1168 1.428 . S
C1174 N1173 1.351 . S
C1174 C1175 1.434 . S
C1175 C1166 1.429 . S
C1175 N1172 1.350 . S
C1175 C1174 1.434 . S
C1176 C1177 1.369 . S
C1176 C1178 1.419 . S
C1176 H1180 0.930 . S
C1177 C1176 1.369 . S
C1177 C1186 1.429 . S
C1178 C1176 1.419 . S
C1178 C1179 1.363 . S
C1178 H1181 0.929 . S
C1179 C1178 1.363 . S
C1179 C1185 1.428 . S
H1180 C1176 0.930 . S
H1181 C1178 0.929 . S
S1182 N1183 1.613 . S
S1182 N1184 1.610 . S
N1183 S1182 1.613 . S
N1183 C1186 1.350 . S
N1184 S1182 1.610 . S
N1184 C1185 1.351 . S
C1185 C1179 1.428 . S
C1185 N1184 1.351 . S
C1185 C1186 1.434 . S
C1186 C1177 1.429 . S
C1186 N1183 1.350 . S
C1186 C1185 1.434 . S
C1187 C1188 1.369 . S
C1187 C1189 1.419 . S
C1187 H1191 0.930 . S
C1188 C1187 1.369 . S
C1188 C1197 1.429 . S
C1189 C1187 1.419 . S
C1189 C1190 1.363 . S
C1189 H1192 0.929 . S
C1190 C1189 1.363 . S
C1190 C1196 1.428 . S
H1191 C1187 0.930 . S
H1192 C1189 0.929 . S
S1193 N1194 1.613 . S
S1193 N1195 1.610 . S
N1194 S1193 1.613 . S
N1194 C1197 1.350 . S
N1195 S1193 1.610 . S
N1195 C1196 1.351 . S
C1196 C1190 1.428 . S
C1196 N1195 1.351 . S
C1196 C1197 1.434 . S
C1197 C1188 1.429 . S
C1197 N1194 1.350 . S
C1197 C1196 1.434 . S
C1198 C1199 1.369 . S
C1198 C1200 1.419 . S
C1198 H1202 0.930 . S
C1199 C1198 1.369 . S
C1199 C1208 1.429 . S
C1200 C1198 1.419 . S
C1200 C1201 1.363 . S
C1200 H1203 0.929 . S
C1201 C1200 1.363 . S
C1201 C1207 1.428 . S
H1202 C1198 0.930 . S
H1203 C1200 0.929 . S
S1204 N1205 1.613 . S
S1204 N1206 1.610 . S
N1205 S1204 1.613 . S
N1205 C1208 1.350 . S
N1206 S1204 1.610 . S
N1206 C1207 1.351 . S
C1207 C1201 1.428 . S
C1207 N1206 1.351 . S
C1207 C1208 1.434 . S
C1208 C1199 1.429 . S
C1208 N1205 1.350 . S
C1208 C1207 1.434 . S
C1209 C1210 1.369 . S
C1209 C1211 1.419 . S
C1209 H1213 0.930 . S
C1210 C1209 1.369 . S
C1210 C1219 1.429 . S
C1211 C1209 1.419 . S
C1211 C1212 1.363 . S
C1211 H1214 0.929 . S
C1212 C1211 1.363 . S
C1212 C1218 1.428 . S
H1213 C1209 0.930 . S
H1214 C1211 0.929 . S
S1215 N1216 1.613 . S
S1215 N1217 1.610 . S
N1216 S1215 1.613 . S
N1216 C1219 1.350 . S
N1217 S1215 1.610 . S
N1217 C1218 1.351 . S
C1218 C1212 1.428 . S
C1218 N1217 1.351 . S
C1218 C1219 1.434 . S
C1219 C1210 1.429 . S
C1219 N1216 1.350 . S
C1219 C1218 1.434 . S
C1220 C1221 1.369 . S
C1220 C1222 1.419 . S
C1220 H1224 0.930 . S
C1221 C1220 1.369 . S
C1221 C1230 1.429 . S
C1222 C1220 1.419 . S
C1222 C1223 1.363 . S
C1222 H1225 0.929 . S
C1223 C1222 1.363 . S
C1223 C1229 1.428 . S
H1224 C1220 0.930 . S
H1225 C1222 0.929 . S
S1226 N1227 1.613 . S
S1226 N1228 1.610 . S
N1227 S1226 1.613 . S
N1227 C1230 1.350 . S
N1228 S1226 1.610 . S
N1228 C1229 1.351 . S
C1229 C1223 1.428 . S
C1229 N1228 1.351 . S
C1229 C1230 1.434 . S
C1230 C1221 1.429 . S
C1230 N1227 1.350 . S
C1230 C1229 1.434 . S
C1231 C1232 1.369 . S
C1231 C1233 1.419 . S
C1231 H1235 0.930 . S
C1232 C1231 1.369 . S
C1232 C1241 1.429 . S
C1233 C1231 1.419 . S
C1233 C1234 1.363 . S
C1233 H1236 0.929 . S
C1234 C1233 1.363 . S
C1234 C1240 1.428 . S
H1235 C1231 0.930 . S
H1236 C1233 0.929 . S
S1237 N1238 1.613 . S
S1237 N1239 1.610 . S
N1238 S1237 1.613 . S
N1238 C1241 1.350 . S
N1239 S1237 1.610 . S
N1239 C1240 1.351 . S
C1240 C1234 1.428 . S
C1240 N1239 1.351 . S
C1240 C1241 1.434 . S
C1241 C1232 1.429 . S
C1241 N1238 1.350 . S
C1241 C1240 1.434 . S
C1242 C1243 1.369 . S
C1242 C1244 1.419 . S
C1242 H1246 0.930 . S
C1243 C1242 1.369 . S
C1243 C1252 1.429 . S
C1244 C1242 1.419 . S
C1244 C1245 1.363 . S
C1244 H1247 0.929 . S
C1245 C1244 1.363 . S
C1245 C1251 1.428 . S
H1246 C1242 0.930 . S
H1247 C1244 0.929 . S
S1248 N1249 1.613 . S
S1248 N1250 1.610 . S
N1249 S1248 1.613 . S
N1249 C1252 1.350 . S
N1250 S1248 1.610 . S
N1250 C1251 1.351 . S
C1251 C1245 1.428 . S
C1251 N1250 1.351 . S
C1251 C1252 1.434 . S
C1252 C1243 1.429 . S
C1252 N1249 1.350 . S
C1252 C1251 1.434 . S
C1253 C1254 1.369 . S
C1253 C1255 1.419 . S
C1253 H1257 0.930 . S
C1254 C1253 1.369 . S
C1254 C1263 1.429 . S
C1255 C1253 1.419 . S
C1255 C1256 1.363 . S
C1255 H1258 0.929 . S
C1256 C1255 1.363 . S
C1256 C1262 1.428 . S
H1257 C1253 0.930 . S
H1258 C1255 0.929 . S
S1259 N1260 1.613 . S
S1259 N1261 1.610 . S
N1260 S1259 1.613 . S
N1260 C1263 1.350 . S
N1261 S1259 1.610 . S
N1261 C1262 1.351 . S
C1262 C1256 1.428 . S
C1262 N1261 1.351 . S
C1262 C1263 1.434 . S
C1263 C1254 1.429 . S
C1263 N1260 1.350 . S
C1263 C1262 1.434 . S
C1264 C1265 1.369 . S
C1264 C1266 1.419 1_655 S
C1264 H1268 0.930 . S
C1265 C1264 1.369 . S
C1265 C1274 1.429 . S
C1266 C1264 1.419 1_455 S
C1266 C1267 1.363 . S
C1266 H1269 0.929 . S
C1267 C1266 1.363 . S
C1267 C1273 1.428 . S
H1268 C1264 0.930 . S
H1269 C1266 0.929 . S
S1270 N1271 1.613 . S
S1270 N1272 1.610 1_655 S
N1271 S1270 1.613 . S
N1271 C1274 1.350 . S
N1272 S1270 1.610 1_455 S
N1272 C1273 1.351 . S
C1273 C1267 1.428 . S
C1273 N1272 1.351 . S
C1273 C1274 1.434 1_455 S
C1274 C1265 1.429 . S
C1274 N1271 1.350 . S
C1274 C1273 1.434 1_655 S
C1275 C1276 1.369 1_455 S
C1275 C1277 1.419 . S
C1275 H1279 0.930 . S
C1276 C1275 1.369 1_655 S
C1276 C1285 1.429 . S
C1277 C1275 1.419 . S
C1277 C1278 1.363 . S
C1277 H1280 0.929 . S
C1278 C1277 1.363 . S
C1278 C1284 1.428 1_455 S
H1279 C1275 0.930 . S
H1280 C1277 0.929 . S
S1281 N1282 1.613 . S
S1281 N1283 1.610 . S
N1282 S1281 1.613 . S
N1282 C1285 1.350 . S
N1283 S1281 1.610 . S
N1283 C1284 1.351 . S
C1284 C1278 1.428 1_655 S
C1284 N1283 1.351 . S
C1284 C1285 1.434 . S
C1285 C1276 1.429 . S
C1285 N1282 1.350 . S
C1285 C1284 1.434 . S
C1286 C1287 1.369 . S
C1286 C1288 1.419 . S
C1286 H1290 0.930 . S
C1287 C1286 1.369 . S
C1287 C1296 1.429 . S
C1288 C1286 1.419 . S
C1288 C1289 1.363 . S
C1288 H1291 0.929 . S
C1289 C1288 1.363 . S
C1289 C1295 1.428 . S
H1290 C1286 0.930 . S
H1291 C1288 0.929 . S
S1292 N1293 1.613 . S
S1292 N1294 1.610 . S
N1293 S1292 1.613 . S
N1293 C1296 1.350 . S
N1294 S1292 1.610 . S
N1294 C1295 1.351 . S
C1295 C1289 1.428 . S
C1295 N1294 1.351 . S
C1295 C1296 1.434 . S
C1296 C1287 1.429 . S
C1296 N1293 1.350 . S
C1296 C1295 1.434 . S
C1297 C1298 1.369 . S
C1297 C1299 1.419 . S
C1297 H1301 0.930 1_554 S
C1298 C1297 1.369 . S
C1298 C1307 1.429 . S
C1299 C1297 1.419 . S
C1299 C1300 1.363 . S
C1299 H1302 0.929 1_554 S
C1300 C1299 1.363 . S
C1300 C1306 1.428 . S
H1301 C1297 0.930 1_556 S
H1302 C1299 0.929 1_556 S
S1303 N1304 1.613 . S
S1303 N1305 1.610 . S
N1304 S1303 1.613 . S
N1304 C1307 1.350 . S
N1305 S1303 1.610 . S
N1305 C1306 1.351 . S
C1306 C1300 1.428 . S
C1306 N1305 1.351 . S
C1306 C1307 1.434 . S
C1307 C1298 1.429 . S
C1307 N1304 1.350 . S
C1307 C1306 1.434 . S
C1308 C1309 1.369 . S
C1308 C1310 1.419 1_655 S
C1308 H1312 0.930 . S
C1309 C1308 1.369 . S
C1309 C1318 1.429 . S
C1310 C1308 1.419 1_455 S
C1310 C1311 1.363 . S
C1310 H1313 0.929 . S
C1311 C1310 1.363 . S
C1311 C1317 1.428 . S
H1312 C1308 0.930 . S
H1313 C1310 0.929 . S
S1314 N1315 1.613 . S
S1314 N1316 1.610 1_655 S
N1315 S1314 1.613 . S
N1315 C1318 1.350 . S
N1316 S1314 1.610 1_455 S
N1316 C1317 1.351 . S
C1317 C1311 1.428 . S
C1317 N1316 1.351 . S
C1317 C1318 1.434 1_455 S
C1318 C1309 1.429 . S
C1318 N1315 1.350 . S
C1318 C1317 1.434 1_655 S
C1319 C1320 1.369 . S
C1319 C1321 1.419 . S
C1319 H1323 0.930 . S
C1320 C1319 1.369 . S
C1320 C1329 1.429 . S
C1321 C1319 1.419 . S
C1321 C1322 1.363 . S
C1321 H1324 0.929 . S
C1322 C1321 1.363 . S
C1322 C1328 1.428 . S
H1323 C1319 0.930 . S
H1324 C1321 0.929 . S
S1325 N1326 1.613 . S
S1325 N1327 1.610 . S
N1326 S1325 1.613 . S
N1326 C1329 1.350 . S
N1327 S1325 1.610 . S
N1327 C1328 1.351 . S
C1328 C1322 1.428 . S
C1328 N1327 1.351 . S
C1328 C1329 1.434 . S
C1329 C1320 1.429 . S
C1329 N1326 1.350 . S
C1329 C1328 1.434 . S
C1330 C1331 1.369 . S
C1330 C1332 1.419 . S
C1330 H1334 0.930 . S
C1331 C1330 1.369 . S
C1331 C1340 1.429 . S
C1332 C1330 1.419 . S
C1332 C1333 1.363 . S
C1332 H1335 0.929 . S
C1333 C1332 1.363 . S
C1333 C1339 1.428 . S
H1334 C1330 0.930 . S
H1335 C1332 0.929 . S
S1336 N1337 1.613 . S
S1336 N1338 1.610 . S
N1337 S1336 1.613 . S
N1337 C1340 1.350 . S
N1338 S1336 1.610 . S
N1338 C1339 1.351 . S
C1339 C1333 1.428 . S
C1339 N1338 1.351 . S
C1339 C1340 1.434 . S
C1340 C1331 1.429 . S
C1340 N1337 1.350 . S
C1340 C1339 1.434 . S
C1341 C1342 1.369 . S
C1341 C1343 1.419 . S
C1341 H1345 0.930 . S
C1342 C1341 1.369 . S
C1342 C1351 1.429 1_455 S
C1343 C1341 1.419 . S
C1343 C1344 1.363 1_455 S
C1343 H1346 0.929 . S
C1344 C1343 1.363 1_655 S
C1344 C1350 1.428 . S
H1345 C1341 0.930 . S
H1346 C1343 0.929 . S
S1347 N1348 1.613 . S
S1347 N1349 1.610 . S
N1348 S1347 1.613 . S
N1348 C1351 1.350 1_554 S
N1349 S1347 1.610 . S
N1349 C1350 1.351 1_554 S
C1350 C1344 1.428 . S
C1350 N1349 1.351 1_556 S
C1350 C1351 1.434 . S
C1351 C1342 1.429 1_655 S
C1351 N1348 1.350 1_556 S
C1351 C1350 1.434 . S
C1352 C1353 1.369 . S
C1352 C1354 1.419 1_655 S
C1352 H1356 0.930 . S
C1353 C1352 1.369 . S
C1353 C1362 1.429 . S
C1354 C1352 1.419 1_455 S
C1354 C1355 1.363 . S
C1354 H1357 0.929 . S
C1355 C1354 1.363 . S
C1355 C1361 1.428 . S
H1356 C1352 0.930 . S
H1357 C1354 0.929 . S
S1358 N1359 1.613 1_455 S
S1358 N1360 1.610 . S
N1359 S1358 1.613 1_655 S
N1359 C1362 1.350 . S
N1360 S1358 1.610 . S
N1360 C1361 1.351 . S
C1361 C1355 1.428 . S
C1361 N1360 1.351 . S
C1361 C1362 1.434 1_455 S
C1362 C1353 1.429 . S
C1362 N1359 1.350 . S
C1362 C1361 1.434 1_655 S
C1363 C1364 1.369 1_655 S
C1363 C1365 1.419 . S
C1363 H1367 0.930 . S
C1364 C1363 1.369 1_455 S
C1364 C1373 1.429 . S
C1365 C1363 1.419 . S
C1365 C1366 1.363 . S
C1365 H1368 0.929 . S
C1366 C1365 1.363 . S
C1366 C1372 1.428 1_655 S
H1367 C1363 0.930 . S
H1368 C1365 0.929 . S
S1369 N1370 1.613 . S
S1369 N1371 1.610 . S
N1370 S1369 1.613 . S
N1370 C1373 1.350 . S
N1371 S1369 1.610 . S
N1371 C1372 1.351 . S
C1372 C1366 1.428 1_455 S
C1372 N1371 1.351 . S
C1372 C1373 1.434 . S
C1373 C1364 1.429 . S
C1373 N1370 1.350 . S
C1373 C1372 1.434 . S
C1374 C1375 1.369 . S
C1374 C1376 1.419 . S
C1374 H1378 0.930 . S
C1375 C1374 1.369 . S
C1375 C1384 1.429 . S
C1376 C1374 1.419 . S
C1376 C1377 1.363 . S
C1376 H1379 0.929 . S
C1377 C1376 1.363 . S
C1377 C1383 1.428 . S
H1378 C1374 0.930 . S
H1379 C1376 0.929 . S
S1380 N1381 1.613 . S
S1380 N1382 1.610 . S
N1381 S1380 1.613 . S
N1381 C1384 1.350 . S
N1382 S1380 1.610 . S
N1382 C1383 1.351 . S
C1383 C1377 1.428 . S
C1383 N1382 1.351 . S
C1383 C1384 1.434 . S
C1384 C1375 1.429 . S
C1384 N1381 1.350 . S
C1384 C1383 1.434 . S
C1385 C1386 1.369 . S
C1385 C1387 1.419 . S
C1385 H1389 0.930 . S
C1386 C1385 1.369 . S
C1386 C1395 1.429 . S
C1387 C1385 1.419 . S
C1387 C1388 1.363 . S
C1387 H1390 0.929 . S
C1388 C1387 1.363 . S
C1388 C1394 1.428 . S
H1389 C1385 0.930 . S
H1390 C1387 0.929 . S
S1391 N1392 1.613 . S
S1391 N1393 1.610 . S
N1392 S1391 1.613 . S
N1392 C1395 1.350 . S
N1393 S1391 1.610 . S
N1393 C1394 1.351 . S
C1394 C1388 1.428 . S
C1394 N1393 1.351 . S
C1394 C1395 1.434 . S
C1395 C1386 1.429 . S
C1395 N1392 1.350 . S
C1395 C1394 1.434 . S
C1396 C1397 1.369 . S
C1396 C1398 1.419 1_655 S
C1396 H1400 0.930 . S
C1397 C1396 1.369 . S
C1397 C1406 1.429 . S
C1398 C1396 1.419 1_455 S
C1398 C1399 1.363 . S
C1398 H1401 0.929 . S
C1399 C1398 1.363 . S
C1399 C1405 1.428 . S
H1400 C1396 0.930 . S
H1401 C1398 0.929 . S
S1402 N1403 1.613 . S
S1402 N1404 1.610 1_655 S
N1403 S1402 1.613 . S
N1403 C1406 1.350 . S
N1404 S1402 1.610 1_455 S
N1404 C1405 1.351 . S
C1405 C1399 1.428 . S
C1405 N1404 1.351 . S
C1405 C1406 1.434 1_455 S
C1406 C1397 1.429 . S
C1406 N1403 1.350 . S
C1406 C1405 1.434 1_655 S
C1407 C1408 1.369 . S
C1407 C1409 1.419 . S
C1407 H1411 0.930 . S
C1408 C1407 1.369 . S
C1408 C1417 1.429 . S
C1409 C1407 1.419 . S
C1409 C1410 1.363 . S
C1409 H1412 0.929 . S
C1410 C1409 1.363 . S
C1410 C1416 1.428 . S
H1411 C1407 0.930 . S
H1412 C1409 0.929 . S
S1413 N1414 1.613 . S
S1413 N1415 1.610 . S
N1414 S1413 1.613 . S
N1414 C1417 1.350 . S
N1415 S1413 1.610 . S
N1415 C1416 1.351 . S
C1416 C1410 1.428 . S
C1416 N1415 1.351 . S
C1416 C1417 1.434 . S
C1417 C1408 1.429 . S
C1417 N1414 1.350 . S
C1417 C1416 1.434 . S
C1418 C1419 1.369 . S
C1418 C1420 1.419 . S
C1418 H1422 0.930 . S
C1419 C1418 1.369 . S
C1419 C1428 1.429 . S
C1420 C1418 1.419 . S
C1420 C1421 1.363 . S
C1420 H1423 0.929 . S
C1421 C1420 1.363 . S
C1421 C1427 1.428 . S
H1422 C1418 0.930 . S
H1423 C1420 0.929 . S
S1424 N1425 1.613 . S
S1424 N1426 1.610 . S
N1425 S1424 1.613 . S
N1425 C1428 1.350 . S
N1426 S1424 1.610 . S
N1426 C1427 1.351 . S
C1427 C1421 1.428 . S
C1427 N1426 1.351 . S
C1427 C1428 1.434 . S
C1428 C1419 1.429 . S
C1428 N1425 1.350 . S
C1428 C1427 1.434 . S
C1429 C1430 1.369 . S
C1429 C1431 1.419 . S
C1429 H1433 0.930 . S
C1430 C1429 1.369 . S
C1430 C1439 1.429 1_455 S
C1431 C1429 1.419 . S
C1431 C1432 1.363 1_455 S
C1431 H1434 0.929 . S
C1432 C1431 1.363 1_655 S
C1432 C1438 1.428 . S
H1433 C1429 0.930 . S
H1434 C1431 0.929 . S
S1435 N1436 1.613 . S
S1435 N1437 1.610 . S
N1436 S1435 1.613 . S
N1436 C1439 1.350 . S
N1437 S1435 1.610 . S
N1437 C1438 1.351 . S
C1438 C1432 1.428 . S
C1438 N1437 1.351 . S
C1438 C1439 1.434 . S
C1439 C1430 1.429 1_655 S
C1439 N1436 1.350 . S
C1439 C1438 1.434 . S
C1440 C1441 1.369 . S
C1440 C1442 1.419 . S
C1440 H1444 0.930 . S
C1441 C1440 1.369 . S
C1441 C1450 1.429 . S
C1442 C1440 1.419 . S
C1442 C1443 1.363 . S
C1442 H1445 0.929 . S
C1443 C1442 1.363 . S
C1443 C1449 1.428 . S
H1444 C1440 0.930 . S
H1445 C1442 0.929 . S
S1446 N1447 1.613 . S
S1446 N1448 1.610 . S
N1447 S1446 1.613 . S
N1447 C1450 1.350 . S
N1448 S1446 1.610 . S
N1448 C1449 1.351 . S
C1449 C1443 1.428 . S
C1449 N1448 1.351 . S
C1449 C1450 1.434 . S
C1450 C1441 1.429 . S
C1450 N1447 1.350 . S
C1450 C1449 1.434 . S
C1451 C1452 1.369 . S
C1451 C1453 1.419 . S
C1451 H1455 0.930 . S
C1452 C1451 1.369 . S
C1452 C1461 1.429 . S
C1453 C1451 1.419 . S
C1453 C1454 1.363 . S
C1453 H1456 0.929 . S
C1454 C1453 1.363 . S
C1454 C1460 1.428 . S
H1455 C1451 0.930 . S
H1456 C1453 0.929 . S
S1457 N1458 1.613 . S
S1457 N1459 1.610 . S
N1458 S1457 1.613 . S
N1458 C1461 1.350 . S
N1459 S1457 1.610 . S
N1459 C1460 1.351 . S
C1460 C1454 1.428 . S
C1460 N1459 1.351 . S
C1460 C1461 1.434 . S
C1461 C1452 1.429 . S
C1461 N1458 1.350 . S
C1461 C1460 1.434 . S
C1462 C1463 1.369 . S
C1462 C1464 1.419 . S
C1462 H1466 0.930 . S
C1463 C1462 1.369 . S
C1463 C1472 1.429 . S
C1464 C1462 1.419 . S
C1464 C1465 1.363 . S
C1464 H1467 0.929 . S
C1465 C1464 1.363 . S
C1465 C1471 1.428 . S
H1466 C1462 0.930 . S
H1467 C1464 0.929 . S
S1468 N1469 1.613 . S
S1468 N1470 1.610 . S
N1469 S1468 1.613 . S
N1469 C1472 1.350 . S
N1470 S1468 1.610 . S
N1470 C1471 1.351 . S
C1471 C1465 1.428 . S
C1471 N1470 1.351 . S
C1471 C1472 1.434 . S
C1472 C1463 1.429 . S
C1472 N1469 1.350 . S
C1472 C1471 1.434 . S
C1473 C1474 1.369 . S
C1473 C1475 1.419 . S
C1473 H1477 0.930 . S
C1474 C1473 1.369 . S
C1474 C1483 1.429 . S
C1475 C1473 1.419 . S
C1475 C1476 1.363 . S
C1475 H1478 0.929 . S
C1476 C1475 1.363 . S
C1476 C1482 1.428 . S
H1477 C1473 0.930 . S
H1478 C1475 0.929 . S
S1479 N1480 1.613 . S
S1479 N1481 1.610 . S
N1480 S1479 1.613 . S
N1480 C1483 1.350 . S
N1481 S1479 1.610 . S
N1481 C1482 1.351 . S
C1482 C1476 1.428 . S
C1482 N1481 1.351 . S
C1482 C1483 1.434 . S
C1483 C1474 1.429 . S
C1483 N1480 1.350 . S
C1483 C1482 1.434 . S
C1484 C1485 1.369 . S
C1484 C1486 1.419 . S
C1484 H1488 0.930 . S
C1485 C1484 1.369 . S
C1485 C1494 1.429 . S
C1486 C1484 1.419 . S
C1486 C1487 1.363 . S
C1486 H1489 0.929 . S
C1487 C1486 1.363 . S
C1487 C1493 1.428 . S
H1488 C1484 0.930 . S
H1489 C1486 0.929 . S
S1490 N1491 1.613 . S
S1490 N1492 1.610 . S
N1491 S1490 1.613 . S
N1491 C1494 1.350 . S
N1492 S1490 1.610 . S
N1492 C1493 1.351 . S
C1493 C1487 1.428 . S
C1493 N1492 1.351 . S
C1493 C1494 1.434 . S
C1494 C1485 1.429 . S
C1494 N1491 1.350 . S
C1494 C1493 1.434 . S
C1495 C1496 1.369 . S
C1495 C1497 1.419 . S
C1495 H1499 0.930 . S
C1496 C1495 1.369 . S
C1496 C1505 1.429 . S
C1497 C1495 1.419 . S
C1497 C1498 1.363 . S
C1497 H1500 0.929 . S
C1498 C1497 1.363 . S
C1498 C1504 1.428 . S
H1499 C1495 0.930 . S
H1500 C1497 0.929 . S
S1501 N1502 1.613 . S
S1501 N1503 1.610 . S
N1502 S1501 1.613 . S
N1502 C1505 1.350 . S
N1503 S1501 1.610 . S
N1503 C1504 1.351 . S
C1504 C1498 1.428 . S
C1504 N1503 1.351 . S
C1504 C1505 1.434 . S
C1505 C1496 1.429 . S
C1505 N1502 1.350 . S
C1505 C1504 1.434 . S
C1506 C1507 1.369 . S
C1506 C1508 1.419 . S
C1506 H1510 0.930 . S
C1507 C1506 1.369 . S
C1507 C1516 1.429 . S
C1508 C1506 1.419 . S
C1508 C1509 1.363 . S
C1508 H1511 0.929 . S
C1509 C1508 1.363 . S
C1509 C1515 1.428 . S
H1510 C1506 0.930 . S
H1511 C1508 0.929 . S
S1512 N1513 1.613 . S
S1512 N1514 1.610 . S
N1513 S1512 1.613 . S
N1513 C1516 1.350 . S
N1514 S1512 1.610 . S
N1514 C1515 1.351 . S
C1515 C1509 1.428 . S
C1515 N1514 1.351 . S
C1515 C1516 1.434 . S
C1516 C1507 1.429 . S
C1516 N1513 1.350 . S
C1516 C1515 1.434 . S
C1517 C1518 1.369 . S
C1517 C1519 1.419 . S
C1517 H1521 0.930 . S
C1518 C1517 1.369 . S
C1518 C1527 1.429 . S
C1519 C1517 1.419 . S
C1519 C1520 1.363 . S
C1519 H1522 0.929 . S
C1520 C1519 1.363 . S
C1520 C1526 1.428 . S
H1521 C1517 0.930 . S
H1522 C1519 0.929 . S
S1523 N1524 1.613 . S
S1523 N1525 1.610 . S
N1524 S1523 1.613 . S
N1524 C1527 1.350 . S
N1525 S1523 1.610 . S
N1525 C1526 1.351 . S
C1526 C1520 1.428 . S
C1526 N1525 1.351 . S
C1526 C1527 1.434 . S
C1527 C1518 1.429 . S
C1527 N1524 1.350 . S
C1527 C1526 1.434 . S
C1528 C1529 1.369 . S
C1528 C1530 1.419 . S
C1528 H1532 0.930 . S
C1529 C1528 1.369 . S
C1529 C1538 1.429 . S
C1530 C1528 1.419 . S
C1530 C1531 1.363 . S
C1530 H1533 0.929 . S
C1531 C1530 1.363 . S
C1531 C1537 1.428 . S
H1532 C1528 0.930 . S
H1533 C1530 0.929 . S
S1534 N1535 1.613 . S
S1534 N1536 1.610 . S
N1535 S1534 1.613 . S
N1535 C1538 1.350 . S
N1536 S1534 1.610 . S
N1536 C1537 1.351 . S
C1537 C1531 1.428 . S
C1537 N1536 1.351 . S
C1537 C1538 1.434 . S
C1538 C1529 1.429 . S
C1538 N1535 1.350 . S
C1538 C1537 1.434 . S
C1539 C1540 1.369 . S
C1539 C1541 1.419 . S
C1539 H1543 0.930 . S
C1540 C1539 1.369 . S
C1540 C1549 1.429 . S
C1541 C1539 1.419 . S
C1541 C1542 1.363 . S
C1541 H1544 0.929 . S
C1542 C1541 1.363 . S
C1542 C1548 1.428 . S
H1543 C1539 0.930 . S
H1544 C1541 0.929 . S
S1545 N1546 1.613 . S
S1545 N1547 1.610 . S
N1546 S1545 1.613 . S
N1546 C1549 1.350 . S
N1547 S1545 1.610 . S
N1547 C1548 1.351 . S
C1548 C1542 1.428 . S
C1548 N1547 1.351 . S
C1548 C1549 1.434 . S
C1549 C1540 1.429 . S
C1549 N1546 1.350 . S
C1549 C1548 1.434 . S
C1550 C1551 1.369 . S
C1550 C1552 1.419 . S
C1550 H1554 0.930 . S
C1551 C1550 1.369 . S
C1551 C1560 1.429 . S
C1552 C1550 1.419 . S
C1552 C1553 1.363 . S
C1552 H1555 0.929 . S
C1553 C1552 1.363 . S
C1553 C1559 1.428 . S
H1554 C1550 0.930 . S
H1555 C1552 0.929 . S
S1556 N1557 1.613 . S
S1556 N1558 1.610 . S
N1557 S1556 1.613 . S
N1557 C1560 1.350 . S
N1558 S1556 1.610 . S
N1558 C1559 1.351 . S
C1559 C1553 1.428 . S
C1559 N1558 1.351 . S
C1559 C1560 1.434 . S
C1560 C1551 1.429 . S
C1560 N1557 1.350 . S
C1560 C1559 1.434 . S
C1561 C1562 1.369 . S
C1561 C1563 1.419 . S
C1561 H1565 0.930 . S
C1562 C1561 1.369 . S
C1562 C1571 1.429 . S
C1563 C1561 1.419 . S
C1563 C1564 1.363 . S
C1563 H1566 0.929 . S
C1564 C1563 1.363 . S
C1564 C1570 1.428 . S
H1565 C1561 0.930 . S
H1566 C1563 0.929 . S
S1567 N1568 1.613 . S
S1567 N1569 1.610 . S
N1568 S1567 1.613 . S
N1568 C1571 1.350 . S
N1569 S1567 1.610 . S
N1569 C1570 1.351 . S
C1570 C1564 1.428 . S
C1570 N1569 1.351 . S
C1570 C1571 1.434 . S
C1571 C1562 1.429 . S
C1571 N1568 1.350 . S
C1571 C1570 1.434 . S
C1572 C1573 1.369 . S
C1572 C1574 1.419 . S
C1572 H1576 0.930 . S
C1573 C1572 1.369 . S
C1573 C1582 1.429 . S
C1574 C1572 1.419 . S
C1574 C1575 1.363 . S
C1574 H1577 0.929 . S
C1575 C1574 1.363 . S
C1575 C1581 1.428 . S
H1576 C1572 0.930 . S
H1577 C1574 0.929 . S
S1578 N1579 1.613 . S
S1578 N1580 1.610 . S
N1579 S1578 1.613 . S
N1579 C1582 1.350 . S
N1580 S1578 1.610 . S
N1580 C1581 1.351 . S
C1581 C1575 1.428 . S
C1581 N1580 1.351 . S
C1581 C1582 1.434 . S
C1582 C1573 1.429 . S
C1582 N1579 1.350 . S
C1582 C1581 1.434 . S
C1583 C1584 1.369 . S
C1583 C1585 1.419 . S
C1583 H1587 0.930 . S
C1584 C1583 1.369 . S
C1584 C1593 1.429 . S
C1585 C1583 1.419 . S
C1585 C1586 1.363 . S
C1585 H1588 0.929 . S
C1586 C1585 1.363 . S
C1586 C1592 1.428 . S
H1587 C1583 0.930 . S
H1588 C1585 0.929 . S
S1589 N1590 1.613 . S
S1589 N1591 1.610 . S
N1590 S1589 1.613 . S
N1590 C1593 1.350 . S
N1591 S1589 1.610 . S
N1591 C1592 1.351 . S
C1592 C1586 1.428 . S
C1592 N1591 1.351 . S
C1592 C1593 1.434 . S
C1593 C1584 1.429 . S
C1593 N1590 1.350 . S
C1593 C1592 1.434 . S
C1594 C1595 1.369 . S
C1594 C1596 1.419 . S
C1594 H1598 0.930 . S
C1595 C1594 1.369 . S
C1595 C1604 1.429 . S
C1596 C1594 1.419 . S
C1596 C1597 1.363 . S
C1596 H1599 0.929 . S
C1597 C1596 1.363 . S
C1597 C1603 1.428 . S
H1598 C1594 0.930 . S
H1599 C1596 0.929 . S
S1600 N1601 1.613 . S
S1600 N1602 1.610 . S
N1601 S1600 1.613 . S
N1601 C1604 1.350 . S
N1602 S1600 1.610 . S
N1602 C1603 1.351 . S
C1603 C1597 1.428 . S
C1603 N1602 1.351 . S
C1603 C1604 1.434 . S
C1604 C1595 1.429 . S
C1604 N1601 1.350 . S
C1604 C1603 1.434 . S
C1605 C1606 1.369 . S
C1605 C1607 1.419 . S
C1605 H1609 0.930 . S
C1606 C1605 1.369 . S
C1606 C1615 1.429 . S
C1607 C1605 1.419 . S
C1607 C1608 1.363 . S
C1607 H1610 0.929 . S
C1608 C1607 1.363 . S
C1608 C1614 1.428 . S
H1609 C1605 0.930 . S
H1610 C1607 0.929 . S
S1611 N1612 1.613 . S
S1611 N1613 1.610 . S
N1612 S1611 1.613 . S
N1612 C1615 1.350 . S
N1613 S1611 1.610 . S
N1613 C1614 1.351 . S
C1614 C1608 1.428 . S
C1614 N1613 1.351 . S
C1614 C1615 1.434 . S
C1615 C1606 1.429 . S
C1615 N1612 1.350 . S
C1615 C1614 1.434 . S
C1616 C1617 1.369 . S
C1616 C1618 1.419 . S
C1616 H1620 0.930 . S
C1617 C1616 1.369 . S
C1617 C1626 1.429 . S
C1618 C1616 1.419 . S
C1618 C1619 1.363 . S
C1618 H1621 0.929 . S
C1619 C1618 1.363 . S
C1619 C1625 1.428 . S
H1620 C1616 0.930 . S
H1621 C1618 0.929 . S
S1622 N1623 1.613 . S
S1622 N1624 1.610 . S
N1623 S1622 1.613 . S
N1623 C1626 1.350 . S
N1624 S1622 1.610 . S
N1624 C1625 1.351 . S
C1625 C1619 1.428 . S
C1625 N1624 1.351 . S
C1625 C1626 1.434 . S
C1626 C1617 1.429 . S
C1626 N1623 1.350 . S
C1626 C1625 1.434 . S
C1627 C1628 1.369 . S
C1627 C1629 1.419 . S
C1627 H1631 0.930 . S
C1628 C1627 1.369 . S
C1628 C1637 1.429 . S
C1629 C1627 1.419 . S
C1629 C1630 1.363 . S
C1629 H1632 0.929 . S
C1630 C1629 1.363 . S
C1630 C1636 1.428 . S
H1631 C1627 0.930 . S
H1632 C1629 0.929 . S
S1633 N1634 1.613 . S
S1633 N1635 1.610 . S
N1634 S1633 1.613 . S
N1634 C1637 1.350 . S
N1635 S1633 1.610 . S
N1635 C1636 1.351 . S
C1636 C1630 1.428 . S
C1636 N1635 1.351 . S
C1636 C1637 1.434 . S
C1637 C1628 1.429 . S
C1637 N1634 1.350 . S
C1637 C1636 1.434 . S
C1638 C1639 1.369 . S
C1638 C1640 1.419 . S
C1638 H1642 0.930 . S
C1639 C1638 1.369 . S
C1639 C1648 1.429 . S
C1640 C1638 1.419 . S
C1640 C1641 1.363 . S
C1640 H1643 0.929 . S
C1641 C1640 1.363 . S
C1641 C1647 1.428 . S
H1642 C1638 0.930 . S
H1643 C1640 0.929 . S
S1644 N1645 1.613 . S
S1644 N1646 1.610 . S
N1645 S1644 1.613 . S
N1645 C1648 1.350 . S
N1646 S1644 1.610 . S
N1646 C1647 1.351 . S
C1647 C1641 1.428 . S
C1647 N1646 1.351 . S
C1647 C1648 1.434 . S
C1648 C1639 1.429 . S
C1648 N1645 1.350 . S
C1648 C1647 1.434 . S
C1649 C1650 1.369 . S
C1649 C1651 1.419 . S
C1649 H1653 0.930 . S
C1650 C1649 1.369 . S
C1650 C1659 1.429 . S
C1651 C1649 1.419 . S
C1651 C1652 1.363 . S
C1651 H1654 0.929 . S
C1652 C1651 1.363 . S
C1652 C1658 1.428 . S
H1653 C1649 0.930 . S
H1654 C1651 0.929 . S
S1655 N1656 1.613 . S
S1655 N1657 1.610 . S
N1656 S1655 1.613 . S
N1656 C1659 1.350 . S
N1657 S1655 1.610 . S
N1657 C1658 1.351 . S
C1658 C1652 1.428 . S
C1658 N1657 1.351 . S
C1658 C1659 1.434 . S
C1659 C1650 1.429 . S
C1659 N1656 1.350 . S
C1659 C1658 1.434 . S
C1660 C1661 1.369 . S
C1660 C1662 1.419 . S
C1660 H1664 0.930 . S
C1661 C1660 1.369 . S
C1661 C1670 1.429 . S
C1662 C1660 1.419 . S
C1662 C1663 1.363 . S
C1662 H1665 0.929 . S
C1663 C1662 1.363 . S
C1663 C1669 1.428 . S
H1664 C1660 0.930 . S
H1665 C1662 0.929 . S
S1666 N1667 1.613 . S
S1666 N1668 1.610 . S
N1667 S1666 1.613 . S
N1667 C1670 1.350 . S
N1668 S1666 1.610 . S
N1668 C1669 1.351 . S
C1669 C1663 1.428 . S
C1669 N1668 1.351 . S
C1669 C1670 1.434 . S
C1670 C1661 1.429 . S
C1670 N1667 1.350 . S
C1670 C1669 1.434 . S
C1671 C1672 1.369 . S
C1671 C1673 1.419 . S
C1671 H1675 0.930 . S
C1672 C1671 1.369 . S
C1672 C1681 1.429 . S
C1673 C1671 1.419 . S
C1673 C1674 1.363 . S
C1673 H1676 0.929 . S
C1674 C1673 1.363 . S
C1674 C1680 1.428 . S
H1675 C1671 0.930 . S
H1676 C1673 0.929 . S
S1677 N1678 1.613 . S
S1677 N1679 1.610 . S
N1678 S1677 1.613 . S
N1678 C1681 1.350 . S
N1679 S1677 1.610 . S
N1679 C1680 1.351 . S
C1680 C1674 1.428 . S
C1680 N1679 1.351 . S
C1680 C1681 1.434 . S
C1681 C1672 1.429 . S
C1681 N1678 1.350 . S
C1681 C1680 1.434 . S
C1682 C1683 1.369 . S
C1682 C1684 1.419 . S
C1682 H1686 0.930 . S
C1683 C1682 1.369 . S
C1683 C1692 1.429 . S
C1684 C1682 1.419 . S
C1684 C1685 1.363 . S
C1684 H1687 0.929 . S
C1685 C1684 1.363 . S
C1685 C1691 1.428 . S
H1686 C1682 0.930 . S
H1687 C1684 0.929 . S
S1688 N1689 1.613 . S
S1688 N1690 1.610 . S
N1689 S1688 1.613 . S
N1689 C1692 1.350 . S
N1690 S1688 1.610 . S
N1690 C1691 1.351 . S
C1691 C1685 1.428 . S
C1691 N1690 1.351 . S
C1691 C1692 1.434 . S
C1692 C1683 1.429 . S
C1692 N1689 1.350 . S
C1692 C1691 1.434 . S
C1693 C1694 1.369 . S
C1693 C1695 1.419 . S
C1693 H1697 0.930 . S
C1694 C1693 1.369 . S
C1694 C1703 1.429 . S
C1695 C1693 1.419 . S
C1695 C1696 1.363 . S
C1695 H1698 0.929 . S
C1696 C1695 1.363 . S
C1696 C1702 1.428 . S
H1697 C1693 0.930 . S
H1698 C1695 0.929 . S
S1699 N1700 1.613 . S
S1699 N1701 1.610 . S
N1700 S1699 1.613 . S
N1700 C1703 1.350 . S
N1701 S1699 1.610 . S
N1701 C1702 1.351 . S
C1702 C1696 1.428 . S
C1702 N1701 1.351 . S
C1702 C1703 1.434 . S
C1703 C1694 1.429 . S
C1703 N1700 1.350 . S
C1703 C1702 1.434 . S
C1704 C1705 1.369 . S
C1704 C1706 1.419 . S
C1704 H1708 0.930 . S
C1705 C1704 1.369 . S
C1705 C1714 1.429 . S
C1706 C1704 1.419 . S
C1706 C1707 1.363 . S
C1706 H1709 0.929 . S
C1707 C1706 1.363 . S
C1707 C1713 1.428 . S
H1708 C1704 0.930 . S
H1709 C1706 0.929 . S
S1710 N1711 1.613 . S
S1710 N1712 1.610 . S
N1711 S1710 1.613 . S
N1711 C1714 1.350 . S
N1712 S1710 1.610 . S
N1712 C1713 1.351 . S
C1713 C1707 1.428 . S
C1713 N1712 1.351 . S
C1713 C1714 1.434 . S
C1714 C1705 1.429 . S
C1714 N1711 1.350 . S
C1714 C1713 1.434 . S
C1715 C1716 1.369 . S
C1715 C1717 1.419 . S
C1715 H1719 0.930 . S
C1716 C1715 1.369 . S
C1716 C1725 1.429 . S
C1717 C1715 1.419 . S
C1717 C1718 1.363 . S
C1717 H1720 0.929 . S
C1718 C1717 1.363 . S
C1718 C1724 1.428 . S
H1719 C1715 0.930 . S
H1720 C1717 0.929 . S
S1721 N1722 1.613 . S
S1721 N1723 1.610 . S
N1722 S1721 1.613 . S
N1722 C1725 1.350 . S
N1723 S1721 1.610 . S
N1723 C1724 1.351 . S
C1724 C1718 1.428 . S
C1724 N1723 1.351 . S
C1724 C1725 1.434 . S
C1725 C1716 1.429 . S
C1725 N1722 1.350 . S
C1725 C1724 1.434 . S
C1726 C1727 1.369 . S
C1726 C1728 1.419 . S
C1726 H1730 0.930 . S
C1727 C1726 1.369 . S
C1727 C1736 1.429 . S
C1728 C1726 1.419 . S
C1728 C1729 1.363 . S
C1728 H1731 0.929 . S
C1729 C1728 1.363 . S
C1729 C1735 1.428 . S
H1730 C1726 0.930 . S
H1731 C1728 0.929 . S
S1732 N1733 1.613 . S
S1732 N1734 1.610 . S
N1733 S1732 1.613 . S
N1733 C1736 1.350 . S
N1734 S1732 1.610 . S
N1734 C1735 1.351 . S
C1735 C1729 1.428 . S
C1735 N1734 1.351 . S
C1735 C1736 1.434 . S
C1736 C1727 1.429 . S
C1736 N1733 1.350 . S
C1736 C1735 1.434 . S
C1737 C1738 1.369 . S
C1737 C1739 1.419 . S
C1737 H1741 0.930 . S
C1738 C1737 1.369 . S
C1738 C1747 1.429 . S
C1739 C1737 1.419 . S
C1739 C1740 1.363 . S
C1739 H1742 0.929 . S
C1740 C1739 1.363 . S
C1740 C1746 1.428 . S
H1741 C1737 0.930 . S
H1742 C1739 0.929 . S
S1743 N1744 1.613 . S
S1743 N1745 1.611 . S
N1744 S1743 1.613 . S
N1744 C1747 1.350 . S
N1745 S1743 1.611 . S
N1745 C1746 1.355 . S
C1746 C1740 1.428 . S
C1746 N1745 1.355 . S
C1746 C1747 1.434 . S
C1747 C1738 1.429 . S
C1747 N1744 1.350 . S
C1747 C1746 1.434 . S
C1748 C1749 1.369 . S
C1748 C1750 1.419 . S
C1748 H1752 0.930 . S
C1749 C1748 1.369 . S
C1749 C1758 1.429 . S
C1750 C1748 1.419 . S
C1750 C1751 1.363 . S
C1750 H1753 0.929 . S
C1751 C1750 1.363 . S
C1751 C1757 1.428 . S
H1752 C1748 0.930 . S
H1753 C1750 0.929 . S
S1754 N1755 1.613 . S
S1754 N1756 1.610 . S
N1755 S1754 1.613 . S
N1755 C1758 1.350 . S
N1756 S1754 1.610 . S
N1756 C1757 1.351 . S
C1757 C1751 1.428 . S
C1757 N1756 1.351 . S
C1757 C1758 1.434 . S
C1758 C1749 1.429 . S
C1758 N1755 1.350 . S
C1758 C1757 1.434 . S
C1759 C1760 1.369 . S
C1759 C1761 1.419 . S
C1759 H1763 0.930 . S
C1760 C1759 1.369 . S
C1760 C1769 1.429 . S
C1761 C1759 1.419 . S
C1761 C1762 1.363 . S
C1761 H1764 0.929 . S
C1762 C1761 1.363 . S
C1762 C1768 1.428 . S
H1763 C1759 0.930 . S
H1764 C1761 0.929 . S
S1765 N1766 1.613 . S
S1765 N1767 1.610 . S
N1766 S1765 1.613 . S
N1766 C1769 1.350 . S
N1767 S1765 1.610 . S
N1767 C1768 1.351 . S
C1768 C1762 1.428 . S
C1768 N1767 1.351 . S
C1768 C1769 1.434 . S
C1769 C1760 1.429 . S
C1769 N1766 1.350 . S
C1769 C1768 1.434 . S
C1770 C1771 1.369 . S
C1770 C1772 1.419 . S
C1770 H1774 0.930 . S
C1771 C1770 1.369 . S
C1771 C1780 1.429 . S
C1772 C1770 1.419 . S
C1772 C1773 1.363 . S
C1772 H1775 0.929 . S
C1773 C1772 1.363 . S
C1773 C1779 1.428 . S
H1774 C1770 0.930 . S
H1775 C1772 0.929 . S
S1776 N1777 1.613 . S
S1776 N1778 1.610 . S
N1777 S1776 1.613 . S
N1777 C1780 1.350 . S
N1778 S1776 1.610 . S
N1778 C1779 1.351 . S
C1779 C1773 1.428 . S
C1779 N1778 1.351 . S
C1779 C1780 1.434 . S
C1780 C1771 1.429 . S
C1780 N1777 1.350 . S
C1780 C1779 1.434 . S
C1781 C1782 1.369 . S
C1781 C1783 1.419 . S
C1781 H1785 0.930 . S
C1782 C1781 1.369 . S
C1782 C1791 1.429 . S
C1783 C1781 1.419 . S
C1783 C1784 1.363 . S
C1783 H1786 0.929 . S
C1784 C1783 1.363 . S
C1784 C1790 1.428 . S
H1785 C1781 0.930 . S
H1786 C1783 0.929 . S
S1787 N1788 1.613 . S
S1787 N1789 1.610 . S
N1788 S1787 1.613 . S
N1788 C1791 1.350 . S
N1789 S1787 1.610 . S
N1789 C1790 1.351 . S
C1790 C1784 1.428 . S
C1790 N1789 1.351 . S
C1790 C1791 1.434 . S
C1791 C1782 1.429 . S
C1791 N1788 1.350 . S
C1791 C1790 1.434 . S
C1792 C1793 1.369 . S
C1792 C1794 1.419 . S
C1792 H1796 0.930 . S
C1793 C1792 1.369 . S
C1793 C1802 1.429 . S
C1794 C1792 1.419 . S
C1794 C1795 1.363 . S
C1794 H1797 0.929 . S
C1795 C1794 1.363 . S
C1795 C1801 1.428 . S
H1796 C1792 0.930 . S
H1797 C1794 0.929 . S
S1798 N1799 1.613 . S
S1798 N1800 1.610 . S
N1799 S1798 1.613 . S
N1799 C1802 1.350 . S
N1800 S1798 1.610 . S
N1800 C1801 1.351 . S
C1801 C1795 1.428 . S
C1801 N1800 1.351 . S
C1801 C1802 1.434 . S
C1802 C1793 1.429 . S
C1802 N1799 1.350 . S
C1802 C1801 1.434 . S
C1803 C1804 1.369 1_545 S
C1803 C1805 1.419 1_455 S
C1803 H1807 0.930 . S
C1804 C1803 1.369 1_565 S
C1804 C1813 1.429 . S
C1805 C1803 1.419 1_655 S
C1805 C1806 1.363 . S
C1805 H1808 0.929 . S
C1806 C1805 1.363 . S
C1806 C1812 1.428 1_545 S
H1807 C1803 0.930 . S
H1808 C1805 0.929 . S
S1809 N1810 1.613 1_655 S
S1809 N1811 1.610 . S
N1810 S1809 1.613 1_455 S
N1810 C1813 1.350 . S
N1811 S1809 1.610 . S
N1811 C1812 1.351 . S
C1812 C1806 1.428 1_565 S
C1812 N1811 1.351 . S
C1812 C1813 1.434 1_655 S
C1813 C1804 1.429 . S
C1813 N1810 1.350 . S
C1813 C1812 1.434 1_455 S
C1814 C1815 1.369 . S
C1814 C1816 1.419 . S
C1814 H1818 0.930 . S
C1815 C1814 1.369 . S
C1815 C1824 1.429 . S
C1816 C1814 1.419 . S
C1816 C1817 1.363 . S
C1816 H1819 0.929 . S
C1817 C1816 1.363 . S
C1817 C1823 1.428 . S
H1818 C1814 0.930 . S
H1819 C1816 0.929 . S
S1820 N1821 1.613 . S
S1820 N1822 1.610 . S
N1821 S1820 1.613 . S
N1821 C1824 1.350 . S
N1822 S1820 1.610 . S
N1822 C1823 1.351 . S
C1823 C1817 1.428 . S
C1823 N1822 1.351 . S
C1823 C1824 1.434 . S
C1824 C1815 1.429 . S
C1824 N1821 1.350 . S
C1824 C1823 1.434 . S
C1825 C1826 1.369 . S
C1825 C1827 1.419 1_565 S
C1825 H1829 0.930 . S
C1826 C1825 1.369 . S
C1826 C1835 1.429 1_556 S
C1827 C1825 1.419 1_545 S
C1827 C1828 1.363 1_556 S
C1827 H1830 0.929 . S
C1828 C1827 1.363 1_554 S
C1828 C1834 1.428 . S
H1829 C1825 0.930 . S
H1830 C1827 0.929 . S
S1831 N1832 1.613 1_545 S
S1831 N1833 1.610 . S
N1832 S1831 1.613 1_565 S
N1832 C1835 1.350 . S
N1833 S1831 1.610 . S
N1833 C1834 1.351 . S
C1834 C1828 1.428 . S
C1834 N1833 1.351 . S
C1834 C1835 1.434 1_545 S
C1835 C1826 1.429 1_554 S
C1835 N1832 1.350 . S
C1835 C1834 1.434 1_565 S
C1836 C1837 1.369 . S
C1836 C1838 1.419 . S
C1836 H1840 0.930 . S
C1837 C1836 1.369 . S
C1837 C1846 1.429 . S
C1838 C1836 1.419 . S
C1838 C1839 1.363 . S
C1838 H1841 0.929 . S
C1839 C1838 1.363 . S
C1839 C1845 1.428 . S
H1840 C1836 0.930 . S
H1841 C1838 0.929 . S
S1842 N1843 1.613 . S
S1842 N1844 1.610 . S
N1843 S1842 1.613 . S
N1843 C1846 1.350 . S
N1844 S1842 1.610 . S
N1844 C1845 1.351 . S
C1845 C1839 1.428 . S
C1845 N1844 1.351 . S
C1845 C1846 1.434 . S
C1846 C1837 1.429 . S
C1846 N1843 1.350 . S
C1846 C1845 1.434 . S
C1847 C1848 1.369 . S
C1847 C1849 1.419 1_545 S
C1847 H1851 0.930 . S
C1848 C1847 1.369 . S
C1848 C1857 1.429 . S
C1849 C1847 1.419 1_565 S
C1849 C1850 1.363 . S
C1849 H1852 0.929 . S
C1850 C1849 1.363 . S
C1850 C1856 1.428 . S
H1851 C1847 0.930 . S
H1852 C1849 0.929 . S
S1853 N1854 1.613 . S
S1853 N1855 1.610 1_545 S
N1854 S1853 1.613 . S
N1854 C1857 1.350 . S
N1855 S1853 1.610 1_565 S
N1855 C1856 1.351 . S
C1856 C1850 1.428 . S
C1856 N1855 1.351 . S
C1856 C1857 1.434 1_565 S
C1857 C1848 1.429 . S
C1857 N1854 1.350 . S
C1857 C1856 1.434 1_545 S
C1858 C1859 1.369 . S
C1858 C1860 1.419 . S
C1858 H1862 0.930 . S
C1859 C1858 1.369 . S
C1859 C1868 1.429 . S
C1860 C1858 1.419 . S
C1860 C1861 1.363 . S
C1860 H1863 0.929 . S
C1861 C1860 1.363 . S
C1861 C1867 1.428 . S
H1862 C1858 0.930 . S
H1863 C1860 0.929 . S
S1864 N1865 1.613 . S
S1864 N1866 1.610 . S
N1865 S1864 1.613 . S
N1865 C1868 1.350 . S
N1866 S1864 1.610 . S
N1866 C1867 1.351 . S
C1867 C1861 1.428 . S
C1867 N1866 1.351 . S
C1867 C1868 1.434 . S
C1868 C1859 1.429 . S
C1868 N1865 1.350 . S
C1868 C1867 1.434 . S
C1869 C1870 1.369 1_556 S
C1869 C1871 1.419 1_655 S
C1869 H1873 0.930 . S
C1870 C1869 1.369 1_554 S
C1870 C1879 1.429 1_565 S
C1871 C1869 1.419 1_455 S
C1871 C1872 1.363 1_565 S
C1871 H1874 0.929 . S
C1872 C1871 1.363 1_545 S
C1872 C1878 1.428 1_556 S
H1873 C1869 0.930 . S
H1874 C1871 0.929 . S
S1875 N1876 1.613 . S
S1875 N1877 1.610 1_655 S
N1876 S1875 1.613 . S
N1876 C1879 1.350 . S
N1877 S1875 1.610 1_455 S
N1877 C1878 1.351 . S
C1878 C1872 1.428 1_554 S
C1878 N1877 1.351 . S
C1878 C1879 1.434 1_455 S
C1879 C1870 1.429 1_545 S
C1879 N1876 1.350 . S
C1879 C1878 1.434 1_655 S
C1880 C1881 1.369 . S
C1880 C1882 1.419 . S
C1880 H1884 0.930 . S
C1881 C1880 1.369 . S
C1881 C1890 1.429 . S
C1882 C1880 1.419 . S
C1882 C1883 1.363 . S
C1882 H1885 0.929 . S
C1883 C1882 1.363 . S
C1883 C1889 1.428 . S
H1884 C1880 0.930 . S
H1885 C1882 0.929 . S
S1886 N1887 1.613 . S
S1886 N1888 1.610 . S
N1887 S1886 1.613 . S
N1887 C1890 1.350 . S
N1888 S1886 1.610 . S
N1888 C1889 1.351 . S
C1889 C1883 1.428 . S
C1889 N1888 1.351 . S
C1889 C1890 1.434 . S
C1890 C1881 1.429 . S
C1890 N1887 1.350 . S
C1890 C1889 1.434 . S
C1891 C1892 1.369 . S
C1891 C1893 1.419 . S
C1891 H1895 0.930 . S
C1892 C1891 1.369 . S
C1892 C1901 1.429 . S
C1893 C1891 1.419 . S
C1893 C1894 1.363 . S
C1893 H1896 0.929 . S
C1894 C1893 1.363 . S
C1894 C1900 1.428 . S
H1895 C1891 0.930 . S
H1896 C1893 0.929 . S
S1897 N1898 1.613 . S
S1897 N1899 1.610 . S
N1898 S1897 1.613 . S
N1898 C1901 1.350 . S
N1899 S1897 1.610 . S
N1899 C1900 1.351 . S
C1900 C1894 1.428 . S
C1900 N1899 1.351 . S
C1900 C1901 1.434 . S
C1901 C1892 1.429 . S
C1901 N1898 1.350 . S
C1901 C1900 1.434 . S
C1902 C1903 1.369 . S
C1902 C1904 1.419 . S
C1902 H1906 0.930 . S
C1903 C1902 1.369 . S
C1903 C1912 1.429 . S
C1904 C1902 1.419 . S
C1904 C1905 1.363 . S
C1904 H1907 0.929 . S
C1905 C1904 1.363 . S
C1905 C1911 1.428 . S
H1906 C1902 0.930 . S
H1907 C1904 0.929 . S
S1908 N1909 1.613 . S
S1908 N1910 1.610 . S
N1909 S1908 1.613 . S
N1909 C1912 1.350 . S
N1910 S1908 1.610 . S
N1910 C1911 1.351 . S
C1911 C1905 1.428 . S
C1911 N1910 1.351 . S
C1911 C1912 1.434 . S
C1912 C1903 1.429 . S
C1912 N1909 1.350 . S
C1912 C1911 1.434 . S
C1913 C1914 1.369 . S
C1913 C1915 1.419 . S
C1913 H1917 0.930 . S
C1914 C1913 1.369 . S
C1914 C1923 1.429 . S
C1915 C1913 1.419 . S
C1915 C1916 1.363 . S
C1915 H1918 0.929 . S
C1916 C1915 1.363 . S
C1916 C1922 1.428 . S
H1917 C1913 0.930 . S
H1918 C1915 0.929 . S
S1919 N1920 1.613 . S
S1919 N1921 1.610 . S
N1920 S1919 1.613 . S
N1920 C1923 1.350 . S
N1921 S1919 1.610 . S
N1921 C1922 1.351 . S
C1922 C1916 1.428 . S
C1922 N1921 1.351 . S
C1922 C1923 1.434 . S
C1923 C1914 1.429 . S
C1923 N1920 1.350 . S
C1923 C1922 1.434 . S
C1924 C1925 1.369 . S
C1924 C1926 1.419 . S
C1924 H1928 0.930 . S
C1925 C1924 1.369 . S
C1925 C1934 1.429 1_556 S
C1926 C1924 1.419 . S
C1926 C1927 1.363 1_556 S
C1926 H1929 0.929 . S
C1927 C1926 1.363 1_554 S
C1927 C1933 1.428 . S
H1928 C1924 0.930 . S
H1929 C1926 0.929 . S
S1930 N1931 1.613 . S
S1930 N1932 1.610 . S
N1931 S1930 1.613 . S
N1931 C1934 1.350 . S
N1932 S1930 1.610 . S
N1932 C1933 1.351 . S
C1933 C1927 1.428 . S
C1933 N1932 1.351 . S
C1933 C1934 1.434 . S
C1934 C1925 1.429 1_554 S
C1934 N1931 1.350 . S
C1934 C1933 1.434 . S
C1935 C1936 1.369 1_455 S
C1935 C1937 1.419 . S
C1935 H1939 0.930 . S
C1936 C1935 1.369 1_655 S
C1936 C1945 1.429 . S
C1937 C1935 1.419 . S
C1937 C1938 1.363 . S
C1937 H1940 0.929 . S
C1938 C1937 1.363 . S
C1938 C1944 1.428 1_455 S
H1939 C1935 0.930 . S
H1940 C1937 0.929 . S
S1941 N1942 1.613 . S
S1941 N1943 1.610 . S
N1942 S1941 1.613 . S
N1942 C1945 1.350 . S
N1943 S1941 1.610 . S
N1943 C1944 1.351 . S
C1944 C1938 1.428 1_655 S
C1944 N1943 1.351 . S
C1944 C1945 1.434 . S
C1945 C1936 1.429 . S
C1945 N1942 1.350 . S
C1945 C1944 1.434 . S
C1946 C1947 1.369 . S
C1946 C1948 1.419 1_455 S
C1946 H1950 0.930 . S
C1947 C1946 1.369 . S
C1947 C1956 1.421 1_454 S
C1948 C1946 1.419 1_655 S
C1948 C1949 1.363 1_554 S
C1948 H1951 0.930 . S
C1949 C1948 1.363 1_556 S
C1949 C1955 1.428 . S
H1950 C1946 0.930 . S
H1951 C1948 0.930 . S
S1952 N1953 1.613 . S
S1952 N1954 1.610 . S
N1953 S1952 1.613 . S
N1953 C1956 1.351 . S
N1954 S1952 1.610 . S
N1954 C1955 1.351 . S
C1955 C1949 1.428 . S
C1955 N1954 1.351 . S
C1955 C1956 1.441 . S
C1956 C1947 1.421 1_656 S
C1956 N1953 1.351 . S
C1956 C1955 1.441 . S
C1957 C1958 1.369 . S
C1957 C1959 1.419 . S
C1957 H1961 0.930 . S
C1958 C1957 1.369 . S
C1958 C1967 1.429 . S
C1959 C1957 1.419 . S
C1959 C1960 1.363 . S
C1959 H1962 0.929 . S
C1960 C1959 1.363 . S
C1960 C1966 1.428 . S
H1961 C1957 0.930 . S
H1962 C1959 0.929 . S
S1963 N1964 1.613 . S
S1963 N1965 1.610 . S
N1964 S1963 1.613 . S
N1964 C1967 1.350 . S
N1965 S1963 1.610 . S
N1965 C1966 1.351 . S
C1966 C1960 1.428 . S
C1966 N1965 1.351 . S
C1966 C1967 1.434 . S
C1967 C1958 1.429 . S
C1967 N1964 1.350 . S
C1967 C1966 1.434 . S
C1089 C247 1.613 . S
C1091 C9 1.612 . S
C1100 C43 1.611 . S
C1102 C145 1.611 . S
C1111 C77 1.611 . S
C1113 C179 1.611 . S
C1122 C213 1.614 . S
C1124 C111 1.613 . S
C1133 C519 1.611 . S
C1135 C281 1.611 . S
C1144 C417 1.612 . S
C1146 C315 1.612 . S
C1155 C349 1.611 . S
C1157 C451 1.611 . S
C1166 C383 1.611 . S
C1168 C485 1.611 . S
C1177 C791 1.610 . S
C1179 C553 1.611 . S
C1188 C587 1.612 . S
C1190 C689 1.611 . S
C1199 C621 1.613 . S
C1201 C723 1.613 . S
C1210 C757 1.611 . S
C1212 C655 1.612 . S
C1221 C1063 1.613 . S
C1223 C825 1.612 . S
C1232 C859 1.613 . S
C1234 C961 1.613 . S
C1243 C995 1.610 . S
C1245 C893 1.611 . S
C1254 C1029 1.611 . S
C1256 C927 1.611 . S
C1265 C614 1.387 . S
C1267 C2 1.388 . S
C1276 C648 1.389 . S
C1278 C36 1.388 . S
C1287 C70 1.387 . S
C1289 C546 1.386 . S
C1298 C104 1.385 . S
C1300 C580 1.385 . S
C1309 C750 1.385 . S
C1311 C138 1.386 . S
C1320 C784 1.387 . S
C1322 C172 1.386 . S
C1331 C206 1.387 . S
C1333 C682 1.388 . S
C1342 C240 1.387 . S
C1344 C716 1.388 . S
C1353 C274 1.387 . S
C1355 C886 1.386 . S
C1364 C920 1.386 . S
C1366 C308 1.386 . S
C1375 C818 1.388 . S
C1377 C342 1.388 . S
C1386 C376 1.387 . S
C1388 C852 1.386 . S
C1397 C410 1.386 . S
C1399 C1022 1.387 . S
C1408 C1056 1.387 . S
C1410 C444 1.388 . S
C1419 C954 1.385 . S
C1421 C478 1.386 . S
C1430 C988 1.387 . S
C1432 C512 1.388 . S
C1441 C5 1.213 . S
C1443 C951 1.167 . S
C1452 C305 1.171 . S
C1454 C39 1.210 . S
C1463 C883 1.163 . S
C1465 C73 1.212 . S
C1474 C107 1.204 . S
C1476 C373 1.162 . S
C1485 C1019 1.162 . S
C1487 C141 1.205 . S
C1496 C509 1.168 . S
C1498 C175 1.206 . S
C1507 C209 1.211 . S
C1509 C1087 1.169 . S
C1518 C243 1.210 . S
C1520 C441 1.169 . S
C1529 C277 1.204 . S
C1531 C679 1.165 . S
C1540 C311 1.210 . S
C1542 C33 1.169 . S
C1551 C611 1.159 . S
C1553 C345 1.211 . S
C1562 C379 1.204 . S
C1564 C101 1.160 . S
C1573 C747 1.159 . S
C1575 C413 1.211 . S
C1584 C447 1.210 . S
C1586 C237 1.158 . S
C1595 C481 1.204 . S
C1597 C815 1.165 . S
C1606 C169 1.171 . S
C1608 C515 1.209 . S
C1617 C549 1.208 . S
C1619 C407 1.169 . S
C1628 C849 1.161 . S
C1630 C583 1.212 . S
C1639 C339 1.157 . S
C1641 C617 1.210 . S
C1650 C651 1.204 . S
C1652 C917 1.161 . S
C1661 C685 1.213 . S
C1663 C475 1.163 . S
C1672 C1053 1.168 . S
C1674 C719 1.212 . S
C1683 C753 1.213 . S
C1685 C543 1.162 . S
C1694 C985 1.168 . S
C1696 C787 1.212 . S
C1705 C135 1.156 . S
C1707 C821 1.209 . S
C1716 C577 1.161 . S
C1718 C855 1.212 . S
C1727 C67 1.163 . S
C1729 C889 1.212 . S
C1738 C645 1.156 . S
C1740 C923 1.210 . S
C1749 C957 1.213 . S
C1751 C203 1.161 . S
C1760 C781 1.164 . S
C1762 C991 1.205 . S
C1771 C271 1.171 . S
C1773 C1025 1.208 . S
C1782 C713 1.171 . S
C1784 C1059 1.209 . S
C1793 C20 1.535 . S
C1795 C836 1.537 . S
C1804 C54 1.534 . S
C1806 C326 1.538 . S
C1815 C904 1.538 . S
C1817 C88 1.535 . S
C1826 C394 1.536 . S
C1828 C122 1.535 . S
C1837 C972 1.540 . S
C1839 C156 1.533 . S
C1848 C462 1.534 . S
C1850 C190 1.537 . S
C1859 C1040 1.533 . S
C1861 C224 1.538 . S
C1870 C530 1.541 . S
C1872 C258 1.533 . S
C1881 C292 1.539 . S
C1883 C564 1.534 . S
C1892 C632 1.541 . S
C1894 C360 1.532 . S
C1903 C428 1.540 . S
C1905 C700 1.532 . S
C1914 C496 1.531 . S
C1916 C768 1.540 . S
C1925 C870 1.531 . S
C1927 C598 1.540 . S
C1936 C666 1.540 . S
C1938 C938 1.532 . S
C1947 C1006 1.531 . S
C1949 C734 1.540 . S
C1958 C1074 1.539 . S
C1960 C802 1.534 . S
