# Generated by pormake.
# Topology pcb, (4)-cn, num edge types: 1
# Building blocks:
#     Node 0, Type 0, BuildingBlock: NAHDIM_clean_sbu_0, # of connection points: 4
#     Node 1, Type 0, BuildingBlock: NAHDIM_clean_sbu_0, # of connection points: 4
#     Node 2, Type 0, BuildingBlock: NAHDIM_clean_sbu_0, # of connection points: 4
#     Node 3, Type 0, BuildingBlock: NAHDIM_clean_sbu_0, # of connection points: 4
#     Node 4, Type 0, BuildingBlock: NAHDIM_clean_sbu_0, # of connection points: 4
#     Node 5, Type 0, BuildingBlock: NAHDIM_clean_sbu_0, # of connection points: 4
#     Node 6, Type 0, BuildingBlock: NAHDIM_clean_sbu_0, # of connection points: 4
#     Node 7, Type 0, BuildingBlock: NAHDIM_clean_sbu_0, # of connection points: 4
#     Node 8, Type 0, BuildingBlock: NAHDIM_clean_sbu_0, # of connection points: 4
#     Node 9, Type 0, BuildingBlock: NAHDIM_clean_sbu_0, # of connection points: 4
#     Node 10, Type 0, BuildingBlock: NAHDIM_clean_sbu_0, # of connection points: 4
#     Node 11, Type 0, BuildingBlock: NAHDIM_clean_sbu_0, # of connection points: 4
#     Node 12, Type 0, BuildingBlock: NAHDIM_clean_sbu_0, # of connection points: 4
#     Node 13, Type 0, BuildingBlock: NAHDIM_clean_sbu_0, # of connection points: 4
#     Node 14, Type 0, BuildingBlock: NAHDIM_clean_sbu_0, # of connection points: 4
#     Node 15, Type 0, BuildingBlock: NAHDIM_clean_sbu_0, # of connection points: 4
#     Edge 16, Type (0, 0), BuildingBlock: XIVTED_clean_linker_0, # of connection points: 2
#     Edge 17, Type (0, 0), BuildingBlock: XIVTED_clean_linker_0, # of connection points: 2
#     Edge 18, Type (0, 0), BuildingBlock: XIVTED_clean_linker_0, # of connection points: 2
#     Edge 19, Type (0, 0), BuildingBlock: XIVTED_clean_linker_0, # of connection points: 2
#     Edge 20, Type (0, 0), BuildingBlock: XIVTED_clean_linker_0, # of connection points: 2
#     Edge 21, Type (0, 0), BuildingBlock: XIVTED_clean_linker_0, # of connection points: 2
#     Edge 22, Type (0, 0), BuildingBlock: XIVTED_clean_linker_0, # of connection points: 2
#     Edge 23, Type (0, 0), BuildingBlock: XIVTED_clean_linker_0, # of connection points: 2
#     Edge 24, Type (0, 0), BuildingBlock: XIVTED_clean_linker_0, # of connection points: 2
#     Edge 25, Type (0, 0), BuildingBlock: XIVTED_clean_linker_0, # of connection points: 2
#     Edge 26, Type (0, 0), BuildingBlock: XIVTED_clean_linker_0, # of connection points: 2
#     Edge 27, Type (0, 0), BuildingBlock: XIVTED_clean_linker_0, # of connection points: 2
#     Edge 28, Type (0, 0), BuildingBlock: XIVTED_clean_linker_0, # of connection points: 2
#     Edge 29, Type (0, 0), BuildingBlock: XIVTED_clean_linker_0, # of connection points: 2
#     Edge 30, Type (0, 0), BuildingBlock: XIVTED_clean_linker_0, # of connection points: 2
#     Edge 31, Type (0, 0), BuildingBlock: XIVTED_clean_linker_0, # of connection points: 2
#     Edge 32, Type (0, 0), BuildingBlock: XIVTED_clean_linker_0, # of connection points: 2
#     Edge 33, Type (0, 0), BuildingBlock: XIVTED_clean_linker_0, # of connection points: 2
#     Edge 34, Type (0, 0), BuildingBlock: XIVTED_clean_linker_0, # of connection points: 2
#     Edge 35, Type (0, 0), BuildingBlock: XIVTED_clean_linker_0, # of connection points: 2
#     Edge 36, Type (0, 0), BuildingBlock: XIVTED_clean_linker_0, # of connection points: 2
#     Edge 37, Type (0, 0), BuildingBlock: XIVTED_clean_linker_0, # of connection points: 2
#     Edge 38, Type (0, 0), BuildingBlock: XIVTED_clean_linker_0, # of connection points: 2
#     Edge 39, Type (0, 0), BuildingBlock: XIVTED_clean_linker_0, # of connection points: 2
#     Edge 40, Type (0, 0), BuildingBlock: XIVTED_clean_linker_0, # of connection points: 2
#     Edge 41, Type (0, 0), BuildingBlock: XIVTED_clean_linker_0, # of connection points: 2
#     Edge 42, Type (0, 0), BuildingBlock: XIVTED_clean_linker_0, # of connection points: 2
#     Edge 43, Type (0, 0), BuildingBlock: XIVTED_clean_linker_0, # of connection points: 2
#     Edge 44, Type (0, 0), BuildingBlock: XIVTED_clean_linker_0, # of connection points: 2
#     Edge 45, Type (0, 0), BuildingBlock: XIVTED_clean_linker_0, # of connection points: 2
#     Edge 46, Type (0, 0), BuildingBlock: XIVTED_clean_linker_0, # of connection points: 2
#     Edge 47, Type (0, 0), BuildingBlock: XIVTED_clean_linker_0, # of connection points: 2
# Relax obj value: 0.189
# Max RMSD: 0.096
# Mean RMSD: 0.075
data_MOF--net-pcb--node1-NAHDIM_clean_sbu_0--edge1-XIVTED_clean_linker_0
_symmetry_space_group_name_H-M    P1
_symmetry_Int_Tables_number       1
_symmetry_cell_setting            triclinic
loop_
_symmetry_equiv_pos_as_xyz
'x, y, z'
_cell_length_a     44.624582
_cell_length_b     47.025156
_cell_length_c     49.484068
_cell_angle_alpha  90.492562
_cell_angle_beta   90.987431
_cell_angle_gamma 92.438265
loop_
_atom_site_label
_atom_site_type_symbol
_atom_site_fract_x
_atom_site_fract_y
_atom_site_fract_z
_atom_type_partial_charge
C0 C 0.15355 0.20571 0.18613 0.0
O1 O 0.14107 0.1814 0.19392 0.0
O2 O 0.13808 0.14904 0.13985 0.0
Zn3 Zn 0.1249 0.18921 0.13631 0.0
O4 O 0.08073 0.1894 0.14376 0.0
C5 C 0.15859 0.19725 0.08845 0.0
O6 O 0.17922 0.18575 0.10359 0.0
O7 O 0.14889 0.21407 0.16217 0.0
C8 C 0.06183 0.18897 0.12423 0.0
O9 O 0.07155 0.18978 0.09934 0.0
C10 C 0.13161 0.13154 0.12073 0.0
O11 O 0.11621 0.14014 0.09969 0.0
O12 O 0.13329 0.20195 0.09854 0.0
C13 C 0.77663 0.17947 0.17479 0.0
O14 O 0.79733 0.18974 0.15858 0.0
O15 O 0.82611 0.1418 0.13676 0.0
Zn16 Zn 0.78275 0.13023 0.14157 0.0
O17 O 0.78136 0.08898 0.15183 0.0
C18 C 0.76608 0.15797 0.0925 0.0
O19 O 0.78272 0.1789 0.10337 0.0
O20 O 0.76606 0.15418 0.17107 0.0
C21 C 0.76578 0.07002 0.13882 0.0
O22 O 0.74834 0.07761 0.11872 0.0
C23 C 0.84465 0.14138 0.1565 0.0
O24 O 0.83517 0.13315 0.1803 0.0
O25 O 0.76161 0.13526 0.10582 0.0
C26 C 0.83689 0.78863 0.1767 0.0
O27 O 0.8583 0.80544 0.18733 0.0
O28 O 0.8307 0.85585 0.13115 0.0
Zn29 Zn 0.85152 0.81897 0.12828 0.0
O30 O 0.89465 0.82561 0.13953 0.0
C31 C 0.82621 0.80855 0.0752 0.0
O32 O 0.80273 0.82003 0.0858 0.0
O33 O 0.83071 0.79023 0.15164 0.0
C34 C 0.9149 0.81074 0.12954 0.0
O35 O 0.9072 0.79006 0.11247 0.0
C36 C 0.83538 0.87233 0.1514 0.0
O37 O 0.8541 0.86499 0.17064 0.0
O38 O 0.84953 0.80559 0.08978 0.0
C39 C 0.19747 0.82847 0.18505 0.0
O40 O 0.17516 0.81889 0.1694 0.0
O41 O 0.21799 0.86295 0.11503 0.0
Zn42 Zn 0.19454 0.87336 0.14767 0.0
O43 O 0.15127 0.86152 0.14092 0.0
C44 C 0.18734 0.92783 0.12995 0.0
O45 O 0.18019 0.9117 0.10879 0.0
O46 O 0.20988 0.85272 0.18027 0.0
C47 C 0.13154 0.87048 0.1567 0.0
O48 O 0.13986 0.88772 0.17674 0.0
C49 C 0.21403 0.8387 0.10374 0.0
O50 O 0.19535 0.8198 0.11444 0.0
O51 O 0.19609 0.91598 0.15153 0.0
C52 C 0.21388 0.78237 0.83395 0.0
O53 O 0.20244 0.77286 0.8566 0.0
O54 O 0.1566 0.83214 0.85784 0.0
Zn55 Zn 0.20176 0.83499 0.85871 0.0
O56 O 0.21573 0.82361 0.8956 0.0
C57 C 0.20419 0.88841 0.83142 0.0
O58 O 0.18711 0.87392 0.81382 0.0
O59 O 0.21707 0.80905 0.83047 0.0
C60 C 0.23812 0.83584 0.90772 0.0
O61 O 0.25373 0.85599 0.89534 0.0
C62 C 0.14135 0.82269 0.83749 0.0
O63 O 0.15528 0.81404 0.81595 0.0
O64 O 0.21432 0.87576 0.852 0.0
C65 C 0.1832 0.17446 0.79243 0.0
O66 O 0.16907 0.15294 0.77991 0.0
O67 O 0.11296 0.15252 0.83274 0.0
Zn68 Zn 0.15709 0.14935 0.83975 0.0
O69 O 0.16852 0.10957 0.83105 0.0
C70 C 0.15582 0.18128 0.88843 0.0
O71 O 0.1405 0.19786 0.8726 0.0
O72 O 0.18083 0.17718 0.81781 0.0
C73 C 0.19128 0.09875 0.84198 0.0
O74 O 0.20804 0.11409 0.85919 0.0
C75 C 0.09556 0.1397 0.84913 0.0
O76 O 0.10727 0.12513 0.86893 0.0
O77 O 0.16576 0.1585 0.87875 0.0
C78 C 0.79933 0.1867 0.82387 0.0
O79 O 0.81207 0.19686 0.84628 0.0
O80 O 0.85527 0.13811 0.8527 0.0
Zn81 Zn 0.81024 0.13449 0.84973 0.0
O82 O 0.79322 0.14571 0.88531 0.0
C83 C 0.80917 0.08238 0.81987 0.0
O84 O 0.82536 0.09819 0.80338 0.0
O85 O 0.79561 0.15995 0.82076 0.0
C86 C 0.77045 0.13304 0.8955 0.0
O87 O 0.75676 0.1118 0.88222 0.0
C88 C 0.87173 0.14696 0.83355 0.0
O89 O 0.85917 0.15485 0.81077 0.0
O90 O 0.79903 0.09367 0.84105 0.0
C91 C 0.82244 0.80417 0.77822 0.0
O92 O 0.83144 0.82926 0.76927 0.0
O93 O 0.90081 0.81733 0.82178 0.0
Zn94 Zn 0.8566 0.82234 0.82525 0.0
O95 O 0.84755 0.86272 0.8169 0.0
C96 C 0.85535 0.79468 0.87706 0.0
O97 O 0.87443 0.77787 0.86579 0.0
O98 O 0.83171 0.79611 0.8012 0.0
C99 C 0.82257 0.87225 0.8238 0.0
O100 O 0.8031 0.85532 0.83609 0.0
C101 C 0.91728 0.83108 0.83902 0.0
O102 O 0.9045 0.8471 0.857 0.0
O103 O 0.84483 0.81486 0.86346 0.0
C104 C 0.65235 0.69586 0.68457 0.0
O105 O 0.64247 0.67151 0.69456 0.0
O106 O 0.63473 0.63679 0.64206 0.0
Zn107 Zn 0.61831 0.67572 0.63836 0.0
O108 O 0.57502 0.67482 0.64879 0.0
C109 C 0.64801 0.68488 0.58905 0.0
O110 O 0.67031 0.67562 0.60375 0.0
O111 O 0.64368 0.70291 0.6611 0.0
C112 C 0.55656 0.69101 0.63753 0.0
O113 O 0.56633 0.70953 0.61965 0.0
C114 C 0.62412 0.61804 0.65799 0.0
O115 O 0.60092 0.62377 0.67277 0.0
O116 O 0.62252 0.6871 0.59971 0.0
C117 C 0.25167 0.64865 0.6813 0.0
O118 O 0.26086 0.62298 0.68612 0.0
O119 O 0.31914 0.65166 0.63124 0.0
Zn120 Zn 0.27591 0.63797 0.62921 0.0
O121 O 0.27419 0.59578 0.63501 0.0
C122 C 0.26969 0.66852 0.58019 0.0
O123 O 0.287 0.68716 0.5937 0.0
O124 O 0.25435 0.65887 0.65775 0.0
C125 C 0.29078 0.58164 0.61976 0.0
O126 O 0.30653 0.59517 0.60131 0.0
C127 C 0.3368 0.64362 0.6498 0.0
O128 O 0.32658 0.6259 0.66819 0.0
O129 O 0.2604 0.646 0.59195 0.0
C130 C 0.32828 0.30489 0.69667 0.0
O131 O 0.34518 0.32426 0.70966 0.0
O132 O 0.34805 0.36598 0.64742 0.0
Zn133 Zn 0.35987 0.32538 0.64982 0.0
O134 O 0.40142 0.3248 0.66573 0.0
C135 C 0.3347 0.3091 0.599 0.0
O136 O 0.31066 0.31811 0.61079 0.0
O137 O 0.33095 0.30189 0.67134 0.0
C138 C 0.4191 0.30546 0.65943 0.0
O139 O 0.40949 0.28478 0.64304 0.0
C140 C 0.32322 0.37561 0.65465 0.0
O141 O 0.3029 0.35843 0.66549 0.0
O142 O 0.35941 0.30972 0.61214 0.0
C143 C 0.72416 0.31672 0.6817 0.0
O144 O 0.71011 0.305 0.66062 0.0
O145 O 0.70886 0.35841 0.62159 0.0
Zn146 Zn 0.69549 0.36321 0.66005 0.0
O147 O 0.65393 0.34582 0.66339 0.0
C148 C 0.70706 0.42412 0.65595 0.0
O149 O 0.72562 0.41697 0.63697 0.0
O150 O 0.72226 0.34326 0.68588 0.0
C151 C 0.63719 0.35245 0.68275 0.0
O152 O 0.64746 0.37081 0.70119 0.0
C153 C 0.69584 0.33993 0.60601 0.0
O154 O 0.67404 0.3234 0.61543 0.0
O155 O 0.69315 0.40472 0.66903 0.0
C156 C 0.70668 0.2962 0.3295 0.0
O157 O 0.68955 0.28492 0.34825 0.0
O158 O 0.64301 0.34016 0.34461 0.0
Zn159 Zn 0.6869 0.3469 0.35336 0.0
O160 O 0.69482 0.33666 0.39198 0.0
C161 C 0.68546 0.40128 0.32834 0.0
O162 O 0.66798 0.3868 0.31104 0.0
O163 O 0.71002 0.3231 0.32821 0.0
C164 C 0.71516 0.34949 0.40629 0.0
O165 O 0.73241 0.36938 0.39527 0.0
C166 C 0.62631 0.32212 0.35687 0.0
O167 O 0.6378 0.30704 0.37641 0.0
O168 O 0.69715 0.38837 0.34807 0.0
C169 C 0.68954 0.68053 0.29058 0.0
O170 O 0.67289 0.65894 0.28094 0.0
O171 O 0.61492 0.67669 0.33 0.0
Zn172 Zn 0.65741 0.66669 0.33796 0.0
O173 O 0.66189 0.62499 0.33153 0.0
C174 C 0.65371 0.69583 0.38869 0.0
O175 O 0.63601 0.71189 0.37452 0.0
O176 O 0.68636 0.68846 0.31491 0.0
C177 C 0.68534 0.61317 0.33988 0.0
O178 O 0.70634 0.62857 0.35281 0.0
C179 C 0.59756 0.66262 0.31373 0.0
O180 O 0.608 0.64128 0.29997 0.0
O181 O 0.66624 0.6754 0.37705 0.0
C182 C 0.29416 0.69586 0.31311 0.0
O183 O 0.31335 0.70513 0.33194 0.0
O184 O 0.35889 0.65291 0.32382 0.0
Zn185 Zn 0.31555 0.64535 0.33293 0.0
O186 O 0.30796 0.65596 0.37141 0.0
C187 C 0.32523 0.58844 0.34098 0.0
O188 O 0.34682 0.60154 0.35529 0.0
O189 O 0.29036 0.6692 0.30914 0.0
C190 C 0.28274 0.64877 0.38135 0.0
O191 O 0.26272 0.63448 0.36623 0.0
C192 C 0.37689 0.66904 0.3377 0.0
O193 O 0.3671 0.68218 0.35914 0.0
O194 O 0.30662 0.60332 0.32824 0.0
C195 C 0.3128 0.30741 0.29962 0.0
O196 O 0.32825 0.32965 0.29059 0.0
O197 O 0.38856 0.30978 0.34252 0.0
Zn198 Zn 0.34609 0.3202 0.34879 0.0
O199 O 0.34365 0.36244 0.34444 0.0
C200 C 0.34901 0.29168 0.39994 0.0
O201 O 0.36946 0.27713 0.38782 0.0
O202 O 0.31725 0.29926 0.32369 0.0
C203 C 0.31939 0.37521 0.34092 0.0
O204 O 0.29377 0.36038 0.33958 0.0
C205 C 0.40511 0.32306 0.32577 0.0
O206 O 0.39358 0.34292 0.31079 0.0
O207 O 0.33568 0.31077 0.38697 0.0
H208 H 0.29468 0.3209 0.24831 0.0
H209 H 0.17042 0.19322 0.23799 0.0
H210 H 0.27709 0.26096 0.31234 0.0
H211 H 0.18586 0.2548 0.17494 0.0
H212 H 0.20875 0.21842 0.26595 0.0
H213 H 0.2546 0.29717 0.22118 0.0
C214 C 0.28246 0.30271 0.25664 0.0
C215 C 0.28927 0.29287 0.28261 0.0
C216 C 0.20366 0.22648 0.24604 0.0
C217 C 0.24332 0.26571 0.25176 0.0
C218 C 0.18173 0.21214 0.23009 0.0
C219 C 0.17501 0.22185 0.20405 0.0
C220 C 0.21904 0.25067 0.23585 0.0
C221 C 0.19036 0.2465 0.19487 0.0
C222 C 0.25952 0.28922 0.24117 0.0
C223 C 0.27263 0.26926 0.29241 0.0
N224 N 0.21175 0.25999 0.21071 0.0
N225 N 0.25044 0.25648 0.27696 0.0
H226 H 0.69835 0.23859 0.32259 0.0
H227 H 0.79306 0.23475 0.18696 0.0
H228 H 0.74368 0.3125 0.28842 0.0
H229 H 0.73854 0.16338 0.2153 0.0
H230 H 0.77797 0.26267 0.22578 0.0
H231 H 0.71627 0.20964 0.28548 0.0
C232 C 0.71226 0.2487 0.30741 0.0
C233 C 0.7194 0.27804 0.30851 0.0
C234 C 0.76928 0.24091 0.2235 0.0
C235 C 0.73982 0.24508 0.26596 0.0
C236 C 0.77786 0.22495 0.20132 0.0
C237 C 0.76697 0.19671 0.19784 0.0
C238 C 0.74974 0.22854 0.24243 0.0
C239 C 0.74739 0.18512 0.21713 0.0
C240 C 0.72237 0.23218 0.28617 0.0
C241 C 0.73751 0.28999 0.2883 0.0
N242 N 0.73941 0.20109 0.23864 0.0
N243 N 0.74701 0.27347 0.2678 0.0
H244 H 0.83709 0.7864 0.23197 0.0
H245 H 0.69947 0.67191 0.23679 0.0
H246 H 0.79378 0.74867 0.16081 0.0
H247 H 0.73178 0.72162 0.30592 0.0
H248 H 0.73756 0.69594 0.20923 0.0
H249 H 0.80262 0.75838 0.26009 0.0
C250 C 0.82052 0.77204 0.22226 0.0
C251 C 0.81814 0.77002 0.19401 0.0
C252 C 0.73631 0.70156 0.23044 0.0
C253 C 0.77862 0.73804 0.22602 0.0
C254 C 0.71457 0.68786 0.24618 0.0
C255 C 0.71235 0.69489 0.27365 0.0
C256 C 0.75605 0.72231 0.24231 0.0
C257 C 0.73257 0.71566 0.28477 0.0
C258 C 0.80077 0.75616 0.23832 0.0
C259 C 0.79626 0.75105 0.18252 0.0
N260 N 0.75358 0.72865 0.26905 0.0
N261 N 0.77727 0.73586 0.19857 0.0
H262 H 0.30262 0.75372 0.31241 0.0
H263 H 0.17793 0.77451 0.19737 0.0
H264 H 0.24929 0.68454 0.27564 0.0
H265 H 0.24374 0.84035 0.22128 0.0
H266 H 0.1996 0.74285 0.23037 0.0
H267 H 0.27718 0.78713 0.28331 0.0
C268 C 0.28546 0.74556 0.2983 0.0
C269 C 0.27815 0.71628 0.29632 0.0
C270 C 0.20925 0.76425 0.22848 0.0
C271 C 0.24897 0.7544 0.26308 0.0
C272 C 0.19685 0.7824 0.20968 0.0
C273 C 0.20921 0.81008 0.20642 0.0
C274 C 0.23415 0.77382 0.24423 0.0
C275 C 0.23363 0.81913 0.22304 0.0
C276 C 0.27101 0.76465 0.28168 0.0
C277 C 0.25574 0.70691 0.27772 0.0
N278 N 0.24539 0.80098 0.2412 0.0
N279 N 0.24195 0.72594 0.26178 0.0
H280 H 0.24339 0.63423 0.73428 0.0
H281 H 0.22849 0.79545 0.78202 0.0
H282 H 0.2396 0.70507 0.67953 0.0
H283 H 0.21244 0.7241 0.83498 0.0
H284 H 0.23546 0.76235 0.74471 0.0
H285 H 0.2336 0.66648 0.77187 0.0
C286 C 0.24022 0.65649 0.73012 0.0
C287 C 0.24246 0.66701 0.70375 0.0
C288 C 0.2304 0.75391 0.76449 0.0
C289 C 0.23167 0.70397 0.74662 0.0
C290 C 0.22661 0.7728 0.78585 0.0
C291 C 0.21989 0.7625 0.81166 0.0
C292 C 0.22767 0.72448 0.76896 0.0
C293 C 0.21758 0.73294 0.81539 0.0
C294 C 0.23469 0.67487 0.75159 0.0
C295 C 0.23812 0.69602 0.69953 0.0
N296 N 0.22151 0.71493 0.79426 0.0
N297 N 0.23318 0.71352 0.72077 0.0
H298 H 0.19477 0.17491 0.73821 0.0
H299 H 0.31529 0.30568 0.75061 0.0
H300 H 0.21659 0.21995 0.81289 0.0
H301 H 0.29073 0.2628 0.67541 0.0
H302 H 0.27866 0.27486 0.77377 0.0
H303 H 0.22922 0.20754 0.71464 0.0
C304 C 0.2067 0.19171 0.74963 0.0
C305 C 0.20288 0.19464 0.77756 0.0
C306 C 0.28127 0.27225 0.75219 0.0
C307 C 0.24238 0.23196 0.75079 0.0
C308 C 0.30219 0.28982 0.73898 0.0
C309 C 0.30613 0.28675 0.71107 0.0
C310 C 0.26424 0.25146 0.73738 0.0
C311 C 0.2885 0.26588 0.69698 0.0
C312 C 0.22638 0.21032 0.73618 0.0
C313 C 0.2189 0.21683 0.79134 0.0
N314 N 0.26838 0.249 0.7103 0.0
N315 N 0.23802 0.23458 0.77782 0.0
H316 H 0.77651 0.17229 0.77383 0.0
H317 H 0.75141 0.33285 0.72991 0.0
H318 H 0.80161 0.24502 0.82441 0.0
H319 H 0.73098 0.25945 0.67877 0.0
H320 H 0.77207 0.30152 0.7641 0.0
H321 H 0.7613 0.20436 0.73823 0.0
C322 C 0.77882 0.19503 0.77746 0.0
C323 C 0.79021 0.20601 0.80218 0.0
C324 C 0.76324 0.29233 0.74531 0.0
C325 C 0.77286 0.24291 0.76144 0.0
C326 C 0.7515 0.31019 0.72577 0.0
C327 C 0.73925 0.29871 0.70154 0.0
C328 C 0.76262 0.26282 0.74055 0.0
C329 C 0.74001 0.26923 0.69722 0.0
C330 C 0.7702 0.21335 0.75708 0.0
C331 C 0.79285 0.23566 0.80568 0.0
N332 N 0.75131 0.25231 0.7166 0.0
N333 N 0.78412 0.25311 0.78555 0.0
H334 H 0.79696 0.75269 0.79252 0.0
H335 H 0.6791 0.74634 0.6688 0.0
H336 H 0.79392 0.81679 0.73065 0.0
H337 H 0.68 0.68449 0.7328 0.0
H338 H 0.72127 0.7724 0.69097 0.0
H339 H 0.75499 0.72674 0.77009 0.0
C340 C 0.78761 0.76122 0.77409 0.0
C341 C 0.79892 0.78701 0.76347 0.0
C342 C 0.71217 0.75319 0.70022 0.0
C343 C 0.75065 0.75749 0.73782 0.0
C344 C 0.68801 0.73834 0.68762 0.0
C345 C 0.67604 0.71316 0.69895 0.0
C346 C 0.72449 0.74274 0.72427 0.0
C347 C 0.68851 0.7038 0.72334 0.0
C348 C 0.76354 0.74643 0.76136 0.0
C349 C 0.7859 0.79701 0.73955 0.0
N350 N 0.71214 0.71854 0.73513 0.0
N351 N 0.76237 0.78226 0.72757 0.0
H352 H 0.12852 0.22209 0.91772 0.0
H353 H 0.20403 0.17761 0.05795 0.0
H354 H 0.19249 0.15613 0.92515 0.0
H355 H 0.1228 0.22408 0.05215 0.0
H356 H 0.20699 0.17773 0.00867 0.0
H357 H 0.13299 0.23074 0.96645 0.0
C358 C 0.1437 0.2096 0.92955 0.0
C359 C 0.15993 0.18815 0.91743 0.0
C360 C 0.1887 0.18813 0.01824 0.0
C361 C 0.16522 0.19804 0.97306 0.0
C362 C 0.18706 0.1882 0.04635 0.0
C363 C 0.16294 0.20058 0.05914 0.0
C364 C 0.16618 0.2007 0.00285 0.0
C365 C 0.14162 0.21404 0.04309 0.0
C366 C 0.14619 0.21452 0.95735 0.0
C367 C 0.17933 0.17267 0.93372 0.0
N368 N 0.14363 0.21358 0.01575 0.0
N369 N 0.18136 0.17785 0.96074 0.0
H370 H 0.732 0.10313 0.92851 0.0
H371 H 0.77719 0.20099 0.05672 0.0
H372 H 0.7888 0.17965 0.92568 0.0
H373 H 0.73557 0.11668 0.06223 0.0
H374 H 0.77088 0.19849 0.00768 0.0
H375 H 0.72298 0.11281 0.97631 0.0
C376 C 0.74223 0.12216 0.93782 0.0
C377 C 0.76158 0.14037 0.92323 0.0
C378 C 0.76278 0.18068 0.01964 0.0
C379 C 0.75134 0.15155 0.97776 0.0
C380 C 0.76629 0.18212 0.04767 0.0
C381 C 0.75742 0.15878 0.06357 0.0
C382 C 0.75034 0.15573 0.00742 0.0
C383 C 0.74313 0.13502 0.05073 0.0
C384 C 0.73712 0.12764 0.9651 0.0
C385 C 0.7741 0.1648 0.93627 0.0
N386 N 0.74039 0.13395 0.02334 0.0
N387 N 0.76898 0.16954 0.96285 0.0
H388 H 0.8822 0.76191 0.91523 0.0
H389 H 0.78477 0.82099 0.03609 0.0
H390 H 0.81132 0.8207 0.9044 0.0
H391 H 0.86877 0.78012 0.04802 0.0
H392 H 0.78868 0.81322 0.98739 0.0
H393 H 0.87196 0.76075 0.96364 0.0
C394 C 0.8643 0.77434 0.92298 0.0
C395 C 0.8478 0.79167 0.90583 0.0
C396 C 0.80612 0.80577 0.00072 0.0
C397 C 0.83597 0.79039 0.96105 0.0
C398 C 0.80387 0.81012 0.02851 0.0
C399 C 0.82665 0.80149 0.0461 0.0
C400 C 0.83124 0.79256 0.99049 0.0
C401 C 0.85084 0.78741 0.03516 0.0
C402 C 0.85853 0.77372 0.9506 0.0
C403 C 0.82481 0.80728 0.91694 0.0
N404 N 0.85259 0.78352 0.00802 0.0
N405 N 0.81967 0.80637 0.94388 0.0
H406 H 0.25337 0.8731 0.07573 0.0
H407 H 0.21463 0.79211 0.93778 0.0
H408 H 0.2032 0.79263 0.0703 0.0
H409 H 0.27323 0.86742 0.94378 0.0
H410 H 0.21654 0.78808 0.98686 0.0
H411 H 0.26723 0.86775 0.02852 0.0
C412 C 0.24561 0.8541 0.06472 0.0
C413 C 0.22662 0.83353 0.07682 0.0
C414 C 0.22936 0.80527 0.97746 0.0
C415 C 0.24219 0.8274 0.02271 0.0
C416 C 0.22825 0.8076 0.94941 0.0
C417 C 0.24335 0.83045 0.93672 0.0
C418 C 0.24536 0.82616 -0.00703 0.0
C419 C 0.26098 0.84964 0.95276 0.0
C420 C 0.25356 0.85104 0.03775 0.0
C421 C 0.21755 0.80921 0.06169 0.0
N422 N 0.26108 0.84735 0.98011 0.0
N423 N 0.22503 0.80703 0.0353 0.0
H424 H 0.01563 0.18857 0.08724 0.0
H425 H 0.89015 0.14476 0.19447 0.0
H426 H 0.0341 0.18044 0.17271 0.0
H427 H 0.87155 0.15832 0.10973 0.0
H428 H 0.94276 0.15879 0.18725 0.0
H429 H 0.96247 0.17888 0.09547 0.0
C430 C 0.0085 0.18492 0.10778 0.0
C431 C 0.02938 0.18519 0.1293 0.0
C432 C 0.92714 0.15877 0.17026 0.0
C433 C 0.96849 0.17389 0.13886 0.0
C434 C 0.8971 0.15071 0.17436 0.0
C435 C 0.87644 0.15024 0.15264 0.0
C436 C 0.93658 0.16632 0.14426 0.0
C437 C 0.8867 0.15827 0.12705 0.0
C438 C 0.97811 0.17936 0.11246 0.0
C439 C 0.01879 0.18039 0.1555 0.0
N440 N 0.91606 0.16588 0.12356 0.0
N441 N 0.98909 0.17476 0.15952 0.0
H442 H 0.84343 0.91424 0.18989 0.0
H443 H 0.74245 0.02371 0.11041 0.0
H444 H 0.79471 0.8936 0.11566 0.0
H445 H 0.7999 0.04701 0.17887 0.0
H446 H 0.75545 0.97414 0.116 0.0
H447 H 0.82205 0.96119 0.18985 0.0
C448 C 0.8281 0.9195 0.17367 0.0
C449 C 0.8211 0.90007 0.15259 0.0
C450 C 0.765 0.99007 0.12994 0.0
C451 C 0.79654 0.95377 0.15243 0.0
C452 C 0.75751 0.01838 0.12681 0.0
C453 C 0.77038 0.0396 0.144 0.0
C454 C 0.78547 0.98295 0.15041 0.0
C455 C 0.78967 0.0314 0.16498 0.0
C456 C 0.8159 0.94632 0.17365 0.0
C457 C 0.80095 0.908 0.13219 0.0
N458 N 0.79681 0.00375 0.16745 0.0
N459 N 0.78951 0.93431 0.13254 0.0
H460 H 0.93844 0.85085 0.16524 0.0
H461 H 0.10764 0.83125 0.12035 0.0
H462 H 0.96413 0.78769 0.10719 0.0
H463 H 0.08313 0.88776 0.18478 0.0
H464 H 0.05506 0.81545 0.11486 0.0
H465 H 0.99129 0.86478 0.17264 0.0
C466 C 0.9552 0.8398 0.15415 0.0
C467 C 0.94684 0.81813 0.13549 0.0
C468 C 0.06118 0.83126 0.13023 0.0
C469 C 0.00738 0.8341 0.14375 0.0
C470 C 0.09119 0.84037 0.13333 0.0
C471 C 0.09978 0.86091 0.15303 0.0
C472 C 0.03954 0.84286 0.14687 0.0
C473 C 0.07752 0.8719 0.16933 0.0
C474 C 0.98538 0.84778 0.15838 0.0
C475 C 0.96954 0.80452 0.12174 0.0
N476 N 0.0484 0.86278 0.16584 0.0
N477 N -0.00124 0.81284 0.12605 0.0
H478 H 0.12651 0.09089 0.08107 0.0
H479 H 0.19452 0.96769 0.1709 0.0
H480 H 0.15959 0.105 0.16281 0.0
H481 H 0.16945 0.95833 0.08652 0.0
H482 H 0.18286 0.01812 0.1687 0.0
H483 H 0.14262 0.04213 0.08311 0.0
C484 C 0.13716 0.08373 0.09948 0.0
C485 C 0.14159 0.10202 0.12184 0.0
C486 C 0.18011 0.00501 0.15066 0.0
C487 C 0.16017 0.04606 0.12434 0.0
C488 C 0.1868 0.97626 0.15189 0.0
C489 C 0.18278 0.95873 0.1289 0.0
C490 C 0.16926 0.01618 0.1263 0.0
C491 C 0.17272 0.97096 0.10481 0.0
C492 C 0.14646 0.05586 0.10062 0.0
C493 C 0.15569 0.09158 0.14511 0.0
N494 N 0.16617 -0.00117 0.10419 0.0
N495 N 0.16438 0.06421 0.14581 0.0
H496 H 0.95775 0.85417 0.87584 0.0
H497 H 0.10164 0.80165 0.79867 0.0
H498 H 0.95187 0.80342 0.80266 0.0
H499 H 0.10559 0.84322 0.87688 0.0
H500 H 0.04692 0.80273 0.79911 0.0
H501 H 0.01212 0.85115 0.87584 0.0
C502 C 0.96789 0.84238 0.85974 0.0
C503 C 0.95023 0.82907 0.83918 0.0
C504 C 0.05977 0.81153 0.8162 0.0
C505 C 0.0126 0.82555 0.83905 0.0
C506 C 0.09102 0.81095 0.81596 0.0
C507 C 0.10823 0.82242 0.83775 0.0
C508 C 0.04566 0.82379 0.83833 0.0
C509 C 0.09324 0.83414 0.85963 0.0
C510 C -0.00103 0.84061 0.85979 0.0
C511 C 0.96464 0.81401 0.81891 0.0
N512 N 0.06284 0.8346 0.85931 0.0
N513 N 0.99502 0.81272 0.8193 0.0
H514 H 0.23833 0.92486 0.86402 0.0
H515 H 0.16441 0.06274 0.80431 0.0
H516 H 0.17871 0.92326 0.79431 0.0
H517 H 0.23217 0.06603 0.86773 0.0
H518 H 0.172 0.01202 0.79839 0.0
H519 H 0.23935 0.97682 0.86364 0.0
C520 C 0.22572 0.93543 0.84844 0.0
C521 C 0.20813 0.91967 0.82934 0.0
C522 C 0.18541 0.02386 0.81345 0.0
C523 C 0.209 0.97915 0.82895 0.0
C524 C 0.18103 0.05283 0.81689 0.0
C525 C 0.19747 0.0686 0.83674 0.0
C526 C 0.20618 0.01044 0.83014 0.0
C527 C 0.21888 0.05467 0.85228 0.0
C528 C 0.22631 0.96511 0.84824 0.0
C529 C 0.19241 0.93451 0.80954 0.0
N530 N 0.22241 0.02631 0.84883 0.0
N531 N 0.19295 0.96341 0.81005 0.0
H532 H 0.06344 0.16539 0.80909 0.0
H533 H 0.90484 0.12816 0.87633 0.0
H534 H 0.05278 0.11826 0.88306 0.0
H535 H 0.91385 0.1659 0.79747 0.0
H536 H 0.95932 0.12702 0.88023 0.0
H537 H 0.0089 0.16817 0.80543 0.0
C538 C 0.04965 0.15563 0.82456 0.0
C539 C 0.06268 0.14153 0.8464 0.0
C540 C 0.9494 0.13558 0.86207 0.0
C541 C 0.00034 0.14473 0.84238 0.0
C542 C 0.91827 0.13631 0.85985 0.0
C543 C 0.90474 0.14709 0.8365 0.0
C544 C 0.96722 0.14579 0.84083 0.0
C545 C 0.92332 0.15734 0.81581 0.0
C546 C 0.01852 0.15722 0.82244 0.0
C547 C 0.04373 0.12929 0.86584 0.0
N548 N 0.95363 0.15642 0.81846 0.0
N549 N 0.01354 0.1312 0.86338 0.0
H550 H 0.77655 0.90217 0.84406 0.0
H551 H 0.83677 0.05002 0.78227 0.0
H552 H 0.85428 0.91108 0.79356 0.0
H553 H 0.77486 0.04378 0.84829 0.0
H554 H 0.83629 -0.00189 0.77956 0.0
H555 H 0.76895 0.95311 0.83932 0.0
C556 C 0.79186 0.91478 0.83179 0.0
C557 C 0.81629 0.90245 0.81943 0.0
C558 C 0.82262 0.00813 0.79448 0.0
C559 C 0.80764 0.9606 0.81386 0.0
C560 C 0.82277 0.03776 0.79598 0.0
C561 C 0.80611 0.05125 0.81576 0.0
C562 C 0.80555 0.99189 0.81279 0.0
C563 C 0.7883 0.03425 0.83291 0.0
C564 C 0.78753 0.94384 0.82914 0.0
C565 C 0.83535 0.91977 0.80368 0.0
N566 N 0.78865 0.00543 0.83115 0.0
N567 N 0.83069 0.94801 0.80144 0.0
H568 H 0.62046 0.72879 0.42155 0.0
H569 H 0.69606 0.67332 0.55784 0.0
H570 H 0.6929 0.67076 0.42325 0.0
H571 H 0.60907 0.71012 0.55432 0.0
H572 H 0.70059 0.68027 0.50916 0.0
H573 H 0.62169 0.73023 0.47097 0.0
C574 C 0.63686 0.71662 0.4323 0.0
C575 C 0.65641 0.69939 0.41829 0.0
C576 C 0.68061 0.68697 0.5191 0.0
C577 C 0.6579 0.70097 0.47472 0.0
C578 C 0.67802 0.68308 0.54688 0.0
C579 C 0.65201 0.69089 0.56009 0.0
C580 C 0.65712 0.69896 0.50449 0.0
C581 C 0.62939 0.70353 0.54489 0.0
C582 C 0.63746 0.71737 0.46048 0.0
C583 C 0.67722 0.68411 0.43325 0.0
N584 N 0.63243 0.70708 0.51786 0.0
N585 N 0.67733 0.68515 0.46068 0.0
H586 H 0.29662 0.70756 0.54677 0.0
H587 H 0.23588 0.62856 0.41167 0.0
H588 H 0.23388 0.63506 0.54623 0.0
H589 H 0.31525 0.68434 0.41585 0.0
H590 H 0.2278 0.63769 0.45969 0.0
H591 H 0.2959 0.70657 0.4974 0.0
C592 C 0.28232 0.69171 0.5363 0.0
C593 C 0.2656 0.6711 0.55065 0.0
C594 C 0.24685 0.64806 0.45001 0.0
C595 C 0.26483 0.6698 0.49421 0.0
C596 C 0.25148 0.6429 0.42263 0.0
C597 C 0.27647 0.65547 0.40984 0.0
C598 C 0.26723 0.6661 0.46463 0.0
C599 C 0.29588 0.67395 0.42498 0.0
C600 C 0.28205 0.69108 0.50812 0.0
C601 C 0.24739 0.65115 0.53598 0.0
N602 N 0.29091 0.67863 0.45161 0.0
N603 N 0.24768 0.65084 0.50853 0.0
H604 H 0.38238 0.26272 0.43665 0.0
H605 H 0.28827 0.31403 0.5628 0.0
H606 H 0.30369 0.31267 0.42959 0.0
H607 H 0.3787 0.28528 0.56955 0.0
H608 H 0.28878 0.30447 0.5142 0.0
H609 H 0.37626 0.26174 0.48567 0.0
C610 C 0.3636 0.27317 0.44536 0.0
C611 C 0.34371 0.2881 0.42908 0.0
C612 C 0.30841 0.30006 0.52638 0.0
C613 C 0.33662 0.28702 0.485 0.0
C614 C 0.30812 0.30543 0.55412 0.0
C615 C 0.33363 0.30078 0.57017 0.0
C616 C 0.3343 0.2898 0.51466 0.0
C617 C 0.35867 0.28949 0.55786 0.0
C618 C 0.3602 0.27268 0.47333 0.0
C619 C 0.31975 0.3012 0.44143 0.0
N620 N 0.35844 0.28453 0.53078 0.0
N621 N 0.31697 0.30049 0.46869 0.0
H622 H 0.68462 0.30844 0.43482 0.0
H623 H 0.73674 0.37341 0.57856 0.0
H624 H 0.74981 0.37845 0.44463 0.0
H625 H 0.67237 0.30287 0.56765 0.0
H626 H 0.74575 0.37271 0.52995 0.0
H627 H 0.68391 0.30308 0.48374 0.0
C628 C 0.69899 0.32255 0.44725 0.0
C629 C 0.71707 0.34414 0.43562 0.0
C630 C 0.72984 0.35724 0.53825 0.0
C631 C 0.7162 0.33823 0.49175 0.0
C632 C 0.72469 0.35762 0.566 0.0
C633 C 0.70354 0.33835 0.57715 0.0
C634 C 0.71367 0.3375 0.52156 0.0
C635 C 0.68869 0.3183 0.55993 0.0
C636 C 0.69857 0.31948 0.47522 0.0
C637 C 0.7354 0.36163 0.45274 0.0
N638 N 0.69388 0.31854 0.53299 0.0
N639 N 0.73428 0.35848 0.47999 0.0
H640 H 0.52896 0.65548 0.67389 0.0
H641 H 0.36429 0.68256 0.61662 0.0
H642 H 0.51019 0.71723 0.61246 0.0
H643 H 0.38205 0.62683 0.68338 0.0
H644 H 0.4175 0.69678 0.61593 0.0
H645 H 0.47513 0.64616 0.67902 0.0
C646 C 0.51352 0.66725 0.66162 0.0
C647 C 0.52411 0.68703 0.64257 0.0
C648 C 0.40975 0.68156 0.63084 0.0
C649 C 0.46243 0.67631 0.64823 0.0
C650 C 0.37936 0.67338 0.63121 0.0
C651 C 0.36872 0.65333 0.64999 0.0
C652 C 0.42973 0.6695 0.64927 0.0
C653 C 0.38927 0.64227 0.66849 0.0
C654 C 0.48277 0.6619 0.66456 0.0
C655 C 0.50305 0.70172 0.62732 0.0
N656 N 0.41883 0.65038 0.66755 0.0
N657 N 0.47322 0.69589 0.63033 0.0
H658 H 0.32865 0.54685 0.59396 0.0
H659 H 0.2758 0.40584 0.67221 0.0
H660 H 0.26023 0.54624 0.65464 0.0
H661 H 0.35667 0.41406 0.62571 0.0
H662 H 0.26638 0.45588 0.66309 0.0
H663 H 0.3355 0.49651 0.60207 0.0
C664 C 0.31495 0.5361 0.60893 0.0
C665 C 0.29391 0.55081 0.62372 0.0
C666 C 0.28618 0.44666 0.65494 0.0
C667 C 0.3017 0.49308 0.63315 0.0
C668 C 0.29155 0.41813 0.66011 0.0
C669 C 0.31709 0.40578 0.64977 0.0
C670 C 0.30635 0.46277 0.63913 0.0
C671 C 0.33675 0.42269 0.63421 0.0
C672 C 0.31895 0.50735 0.61361 0.0
C673 C 0.27678 0.53573 0.64284 0.0
N674 N 0.33092 0.45026 0.62932 0.0
N675 N 0.28106 0.50763 0.64703 0.0
H676 H 0.61084 0.31005 0.65125 0.0
H677 H 0.4455 0.34327 0.69583 0.0
H678 H 0.59199 0.36942 0.71515 0.0
H679 H 0.46549 0.27417 0.64195 0.0
H680 H 0.49907 0.35125 0.7053 0.0
H681 H 0.55791 0.29476 0.64945 0.0
C682 C 0.59559 0.31974 0.66505 0.0
C683 C 0.60578 0.34126 0.6832 0.0
C684 C 0.49173 0.33413 0.69164 0.0
C685 C 0.5451 0.32395 0.68113 0.0
C686 C 0.46114 0.32958 0.68619 0.0
C687 C 0.45103 0.30822 0.66782 0.0
C688 C 0.5124 0.3174 0.67842 0.0
C689 C 0.47229 0.291 0.65611 0.0
C690 C 0.56537 0.31093 0.66405 0.0
C691 C 0.58507 0.35287 0.70075 0.0
N692 N 0.502 0.29619 0.66136 0.0
N693 N 0.55564 0.34428 0.69907 0.0
H694 H 0.60849 0.5734 0.69083 0.0
H695 H 0.72889 0.47096 0.62884 0.0
H696 H 0.6719 0.59939 0.62992 0.0
H697 H 0.66666 0.44552 0.69091 0.0
H698 H 0.71088 0.51922 0.63138 0.0
H699 H 0.63159 0.52729 0.69315 0.0
C700 C 0.62729 0.56944 0.67798 0.0
C701 C 0.63814 0.59022 0.66003 0.0
C702 C 0.70133 0.50313 0.6446 0.0
C703 C 0.66474 0.53751 0.66261 0.0
C704 C 0.71168 0.47557 0.64321 0.0
C705 C 0.69909 0.45409 0.65952 0.0
C706 C 0.67817 0.50922 0.66235 0.0
C707 C 0.6769 0.46135 0.67782 0.0
C708 C 0.64052 0.54312 0.67935 0.0
C709 C 0.66268 0.58395 0.64396 0.0
N710 N 0.66698 0.48824 0.67858 0.0
N711 N 0.67506 0.55812 0.64555 0.0
H712 H 0.44806 0.35064 0.29559 0.0
H713 H 0.58389 0.28586 0.3789 0.0
H714 H 0.43661 0.28621 0.35665 0.0
H715 H 0.59525 0.35086 0.31836 0.0
H716 H 0.53024 0.28254 0.36809 0.0
H717 H 0.50238 0.34751 0.30037 0.0
C718 C 0.45694 0.33561 0.30979 0.0
C719 C 0.43775 0.31889 0.32595 0.0
C720 C 0.5445 0.29742 0.35706 0.0
C721 C 0.49991 0.31536 0.33168 0.0
C722 C 0.57514 0.29935 0.36325 0.0
C723 C 0.59406 0.31884 0.34968 0.0
C724 C 0.53266 0.31515 0.3372 0.0
C725 C 0.58148 0.33566 0.32948 0.0
C726 C 0.48798 0.33388 0.31256 0.0
C727 C 0.45055 0.29969 0.34392 0.0
N728 N 0.55155 0.33354 0.32397 0.0
N729 N 0.48082 0.29864 0.34647 0.0
H730 H 0.65678 0.43644 0.29358 0.0
H731 H 0.7281 0.57947 0.36136 0.0
H732 H 0.72191 0.43743 0.35918 0.0
H733 H 0.64963 0.5766 0.30895 0.0
H734 H 0.73122 0.52795 0.35588 0.0
H735 H 0.65931 0.48843 0.29389 0.0
C736 C 0.67183 0.44757 0.30788 0.0
C737 C 0.68896 0.43257 0.32655 0.0
C738 C 0.7134 0.53864 0.3455 0.0
C739 C 0.69189 0.49205 0.32703 0.0
C740 C 0.71163 0.56804 0.34858 0.0
C741 C 0.68842 0.58231 0.33577 0.0
C742 C 0.69194 0.52345 0.32934 0.0
C743 C 0.66775 0.56643 0.3194 0.0
C744 C 0.67318 0.47725 0.3081 0.0
C745 C 0.70813 0.44814 0.34457 0.0
N746 N 0.66996 0.53784 0.3167 0.0
N747 N 0.70898 0.47704 0.34444 0.0
H748 H 0.56838 0.70287 0.34215 0.0
H749 H 0.40517 0.64142 0.29713 0.0
H750 H 0.55283 0.63445 0.28416 0.0
H751 H 0.42166 0.70219 0.36217 0.0
H752 H 0.45873 0.64328 0.28775 0.0
H753 H 0.51433 0.70773 0.34501 0.0
C754 C 0.55362 0.68904 0.32979 0.0
C755 C 0.56516 0.66798 0.3131 0.0
C756 C 0.45061 0.65634 0.30396 0.0
C757 C 0.50319 0.67337 0.31643 0.0
C758 C 0.42001 0.65532 0.30933 0.0
C759 C 0.40893 0.6715 0.33065 0.0
C760 C 0.4703 0.67369 0.31998 0.0
C761 C 0.42922 0.6892 0.34568 0.0
C762 C 0.52274 0.6918 0.3315 0.0
C763 C 0.54493 0.65082 0.29745 0.0
N764 N 0.45895 0.6897 0.34015 0.0
N765 N 0.51491 0.65374 0.29966 0.0
H766 H 0.36787 0.41191 0.34836 0.0
H767 H 0.27949 0.5533 0.32005 0.0
H768 H 0.27291 0.41005 0.32969 0.0
H769 H 0.36687 0.55205 0.35876 0.0
H770 H 0.27761 0.50103 0.31867 0.0
H771 H 0.36896 0.46366 0.3471 0.0
C772 C 0.34722 0.42238 0.34392 0.0
C773 C 0.32021 0.4066 0.33927 0.0
C774 C 0.29714 0.51229 0.32746 0.0
C775 C 0.32134 0.46604 0.33777 0.0
C776 C 0.29826 0.54206 0.32819 0.0
C777 C 0.32335 0.55703 0.3396 0.0
C778 C 0.32141 0.49753 0.33792 0.0
C779 C 0.34702 0.54143 0.34989 0.0
C780 C 0.34785 0.45197 0.34327 0.0
C781 C 0.29419 0.4214 0.33353 0.0
N782 N 0.34549 0.51259 0.34874 0.0
N783 N 0.29539 0.45035 0.33294 0.0
loop_
_geom_bond_atom_site_label_1
_geom_bond_atom_site_label_2
_geom_bond_distance
_geom_bond_site_symmetry_2
_ccdc_geom_bond_type
C0 O1 1.160 . S
C0 O7 1.185 . S
O1 C0 1.160 . S
O2 Zn3 1.899 . S
O2 C10 1.284 . S
Zn3 O2 1.899 . S
Zn3 O4 2.032 . S
Zn3 O7 2.086 . S
Zn3 O12 1.977 . S
O4 Zn3 2.032 . S
O4 C8 1.278 . S
C5 O6 1.203 . S
C5 O12 1.267 . S
O6 C5 1.203 . S
O7 C0 1.185 . S
O7 Zn3 2.086 . S
C8 O4 1.278 . S
C8 O9 1.211 . S
O9 C8 1.211 . S
C10 O2 1.284 . S
C10 O11 1.273 . S
O11 C10 1.273 . S
O12 Zn3 1.977 . S
O12 C5 1.267 . S
C13 O14 1.160 . S
C13 O20 1.185 . S
O14 C13 1.160 . S
O15 Zn16 1.899 . S
O15 C23 1.284 . S
Zn16 O15 1.899 . S
Zn16 O17 2.032 . S
Zn16 O20 2.086 . S
Zn16 O25 1.977 . S
O17 Zn16 2.032 . S
O17 C21 1.278 . S
C18 O19 1.203 . S
C18 O25 1.267 . S
O19 C18 1.203 . S
O20 C13 1.185 . S
O20 Zn16 2.086 . S
C21 O17 1.278 . S
C21 O22 1.211 . S
O22 C21 1.211 . S
C23 O15 1.284 . S
C23 O24 1.273 . S
O24 C23 1.273 . S
O25 Zn16 1.977 . S
O25 C18 1.267 . S
C26 O27 1.160 . S
C26 O33 1.185 . S
O27 C26 1.160 . S
O28 Zn29 1.899 . S
O28 C36 1.284 . S
Zn29 O28 1.899 . S
Zn29 O30 2.032 . S
Zn29 O33 2.086 . S
Zn29 O38 1.977 . S
O30 Zn29 2.032 . S
O30 C34 1.278 . S
C31 O32 1.203 . S
C31 O38 1.267 . S
O32 C31 1.203 . S
O33 C26 1.185 . S
O33 Zn29 2.086 . S
C34 O30 1.278 . S
C34 O35 1.211 . S
O35 C34 1.211 . S
C36 O28 1.284 . S
C36 O37 1.273 . S
O37 C36 1.273 . S
O38 Zn29 1.977 . S
O38 C31 1.267 . S
C39 O40 1.160 . S
C39 O46 1.185 . S
O40 C39 1.160 . S
O41 Zn42 1.899 . S
O41 C49 1.284 . S
Zn42 O41 1.899 . S
Zn42 O43 2.032 . S
Zn42 O46 2.086 . S
Zn42 O51 1.977 . S
O43 Zn42 2.032 . S
O43 C47 1.278 . S
C44 O45 1.203 . S
C44 O51 1.267 . S
O45 C44 1.203 . S
O46 C39 1.185 . S
O46 Zn42 2.086 . S
C47 O43 1.278 . S
C47 O48 1.211 . S
O48 C47 1.211 . S
C49 O41 1.284 . S
C49 O50 1.273 . S
O50 C49 1.273 . S
O51 Zn42 1.977 . S
O51 C44 1.267 . S
C52 O53 1.160 . S
C52 O59 1.185 . S
O53 C52 1.160 . S
O54 Zn55 1.899 . S
O54 C62 1.284 . S
Zn55 O54 1.899 . S
Zn55 O56 2.032 . S
Zn55 O59 2.086 . S
Zn55 O64 1.977 . S
O56 Zn55 2.032 . S
O56 C60 1.278 . S
C57 O58 1.203 . S
C57 O64 1.267 . S
O58 C57 1.203 . S
O59 C52 1.185 . S
O59 Zn55 2.086 . S
C60 O56 1.278 . S
C60 O61 1.211 . S
O61 C60 1.211 . S
C62 O54 1.284 . S
C62 O63 1.273 . S
O63 C62 1.273 . S
O64 Zn55 1.977 . S
O64 C57 1.267 . S
C65 O66 1.160 . S
C65 O72 1.185 . S
O66 C65 1.160 . S
O67 Zn68 1.899 . S
O67 C75 1.284 . S
Zn68 O67 1.899 . S
Zn68 O69 2.032 . S
Zn68 O72 2.086 . S
Zn68 O77 1.977 . S
O69 Zn68 2.032 . S
O69 C73 1.278 . S
C70 O71 1.203 . S
C70 O77 1.267 . S
O71 C70 1.203 . S
O72 C65 1.185 . S
O72 Zn68 2.086 . S
C73 O69 1.278 . S
C73 O74 1.211 . S
O74 C73 1.211 . S
C75 O67 1.284 . S
C75 O76 1.273 . S
O76 C75 1.273 . S
O77 Zn68 1.977 . S
O77 C70 1.267 . S
C78 O79 1.160 . S
C78 O85 1.185 . S
O79 C78 1.160 . S
O80 Zn81 1.899 . S
O80 C88 1.284 . S
Zn81 O80 1.899 . S
Zn81 O82 2.032 . S
Zn81 O85 2.086 . S
Zn81 O90 1.977 . S
O82 Zn81 2.032 . S
O82 C86 1.278 . S
C83 O84 1.203 . S
C83 O90 1.267 . S
O84 C83 1.203 . S
O85 C78 1.185 . S
O85 Zn81 2.086 . S
C86 O82 1.278 . S
C86 O87 1.211 . S
O87 C86 1.211 . S
C88 O80 1.284 . S
C88 O89 1.273 . S
O89 C88 1.273 . S
O90 Zn81 1.977 . S
O90 C83 1.267 . S
C91 O92 1.160 . S
C91 O98 1.185 . S
O92 C91 1.160 . S
O93 Zn94 1.899 . S
O93 C101 1.284 . S
Zn94 O93 1.899 . S
Zn94 O95 2.032 . S
Zn94 O98 2.086 . S
Zn94 O103 1.977 . S
O95 Zn94 2.032 . S
O95 C99 1.278 . S
C96 O97 1.203 . S
C96 O103 1.267 . S
O97 C96 1.203 . S
O98 C91 1.185 . S
O98 Zn94 2.086 . S
C99 O95 1.278 . S
C99 O100 1.211 . S
O100 C99 1.211 . S
C101 O93 1.284 . S
C101 O102 1.273 . S
O102 C101 1.273 . S
O103 Zn94 1.977 . S
O103 C96 1.267 . S
C104 O105 1.160 . S
C104 O111 1.185 . S
O105 C104 1.160 . S
O106 Zn107 1.899 . S
O106 C114 1.284 . S
Zn107 O106 1.899 . S
Zn107 O108 2.032 . S
Zn107 O111 2.086 . S
Zn107 O116 1.977 . S
O108 Zn107 2.032 . S
O108 C112 1.278 . S
C109 O110 1.203 . S
C109 O116 1.267 . S
O110 C109 1.203 . S
O111 C104 1.185 . S
O111 Zn107 2.086 . S
C112 O108 1.278 . S
C112 O113 1.211 . S
O113 C112 1.211 . S
C114 O106 1.284 . S
C114 O115 1.273 . S
O115 C114 1.273 . S
O116 Zn107 1.977 . S
O116 C109 1.267 . S
C117 O118 1.160 . S
C117 O124 1.185 . S
O118 C117 1.160 . S
O119 Zn120 1.899 . S
O119 C127 1.284 . S
Zn120 O119 1.899 . S
Zn120 O121 2.032 . S
Zn120 O124 2.086 . S
Zn120 O129 1.977 . S
O121 Zn120 2.032 . S
O121 C125 1.278 . S
C122 O123 1.203 . S
C122 O129 1.267 . S
O123 C122 1.203 . S
O124 C117 1.185 . S
O124 Zn120 2.086 . S
C125 O121 1.278 . S
C125 O126 1.211 . S
O126 C125 1.211 . S
C127 O119 1.284 . S
C127 O128 1.273 . S
O128 C127 1.273 . S
O129 Zn120 1.977 . S
O129 C122 1.267 . S
C130 O131 1.160 . S
C130 O137 1.185 . S
O131 C130 1.160 . S
O132 Zn133 1.899 . S
O132 C140 1.284 . S
Zn133 O132 1.899 . S
Zn133 O134 2.032 . S
Zn133 O137 2.086 . S
Zn133 O142 1.977 . S
O134 Zn133 2.032 . S
O134 C138 1.278 . S
C135 O136 1.203 . S
C135 O142 1.267 . S
O136 C135 1.203 . S
O137 C130 1.185 . S
O137 Zn133 2.086 . S
C138 O134 1.278 . S
C138 O139 1.211 . S
O139 C138 1.211 . S
C140 O132 1.284 . S
C140 O141 1.273 . S
O141 C140 1.273 . S
O142 Zn133 1.977 . S
O142 C135 1.267 . S
C143 O144 1.160 . S
C143 O150 1.185 . S
O144 C143 1.160 . S
O145 Zn146 1.899 . S
O145 C153 1.284 . S
Zn146 O145 1.899 . S
Zn146 O147 2.032 . S
Zn146 O150 2.086 . S
Zn146 O155 1.977 . S
O147 Zn146 2.032 . S
O147 C151 1.278 . S
C148 O149 1.203 . S
C148 O155 1.267 . S
O149 C148 1.203 . S
O150 C143 1.185 . S
O150 Zn146 2.086 . S
C151 O147 1.278 . S
C151 O152 1.211 . S
O152 C151 1.211 . S
C153 O145 1.284 . S
C153 O154 1.273 . S
O154 C153 1.273 . S
O155 Zn146 1.977 . S
O155 C148 1.267 . S
C156 O157 1.160 . S
C156 O163 1.185 . S
O157 C156 1.160 . S
O158 Zn159 1.899 . S
O158 C166 1.284 . S
Zn159 O158 1.899 . S
Zn159 O160 2.032 . S
Zn159 O163 2.086 . S
Zn159 O168 1.977 . S
O160 Zn159 2.032 . S
O160 C164 1.278 . S
C161 O162 1.203 . S
C161 O168 1.267 . S
O162 C161 1.203 . S
O163 C156 1.185 . S
O163 Zn159 2.086 . S
C164 O160 1.278 . S
C164 O165 1.211 . S
O165 C164 1.211 . S
C166 O158 1.284 . S
C166 O167 1.273 . S
O167 C166 1.273 . S
O168 Zn159 1.977 . S
O168 C161 1.267 . S
C169 O170 1.160 . S
C169 O176 1.185 . S
O170 C169 1.160 . S
O171 Zn172 1.899 . S
O171 C179 1.284 . S
Zn172 O171 1.899 . S
Zn172 O173 2.032 . S
Zn172 O176 2.086 . S
Zn172 O181 1.977 . S
O173 Zn172 2.032 . S
O173 C177 1.278 . S
C174 O175 1.203 . S
C174 O181 1.267 . S
O175 C174 1.203 . S
O176 C169 1.185 . S
O176 Zn172 2.086 . S
C177 O173 1.278 . S
C177 O178 1.211 . S
O178 C177 1.211 . S
C179 O171 1.284 . S
C179 O180 1.273 . S
O180 C179 1.273 . S
O181 Zn172 1.977 . S
O181 C174 1.267 . S
C182 O183 1.160 . S
C182 O189 1.185 . S
O183 C182 1.160 . S
O184 Zn185 1.899 . S
O184 C192 1.284 . S
Zn185 O184 1.899 . S
Zn185 O186 2.032 . S
Zn185 O189 2.086 . S
Zn185 O194 1.977 . S
O186 Zn185 2.032 . S
O186 C190 1.278 . S
C187 O188 1.203 . S
C187 O194 1.267 . S
O188 C187 1.203 . S
O189 C182 1.185 . S
O189 Zn185 2.086 . S
C190 O186 1.278 . S
C190 O191 1.211 . S
O191 C190 1.211 . S
C192 O184 1.284 . S
C192 O193 1.273 . S
O193 C192 1.273 . S
O194 Zn185 1.977 . S
O194 C187 1.267 . S
C195 O196 1.160 . S
C195 O202 1.185 . S
O196 C195 1.160 . S
O197 Zn198 1.899 . S
O197 C205 1.284 . S
Zn198 O197 1.899 . S
Zn198 O199 2.032 . S
Zn198 O202 2.086 . S
Zn198 O207 1.977 . S
O199 Zn198 2.032 . S
O199 C203 1.278 . S
C200 O201 1.203 . S
C200 O207 1.267 . S
O201 C200 1.203 . S
O202 C195 1.185 . S
O202 Zn198 2.086 . S
C203 O199 1.278 . S
C203 O204 1.211 . S
O204 C203 1.211 . S
C205 O197 1.284 . S
C205 O206 1.273 . S
O206 C205 1.273 . S
O207 Zn198 1.977 . S
O207 C200 1.267 . S
H208 C214 0.930 . S
H209 C218 0.930 . S
H210 C223 0.929 . S
H211 C221 0.929 . S
H212 C216 0.929 . S
H213 C222 0.929 . S
C214 H208 0.930 . S
C214 C215 1.367 . S
C214 C222 1.378 . S
C215 C214 1.367 . S
C215 C223 1.433 . S
C216 H212 0.929 . S
C216 C218 1.378 . S
C216 C220 1.350 . S
C217 C220 1.463 . S
C217 C222 1.350 . S
C217 N225 1.427 . S
C218 H209 0.930 . S
C218 C216 1.378 . S
C218 C219 1.367 . S
C219 C218 1.367 . S
C219 C221 1.433 . S
C220 C216 1.350 . S
C220 C217 1.463 . S
C220 N224 1.427 . S
C221 H211 0.929 . S
C221 C219 1.433 . S
C221 N224 1.384 . S
C222 H213 0.929 . S
C222 C214 1.378 . S
C222 C217 1.350 . S
C223 H210 0.929 . S
C223 C215 1.433 . S
C223 N225 1.384 . S
N224 C220 1.427 . S
N224 C221 1.384 . S
N225 C217 1.427 . S
N225 C223 1.384 . S
H226 C232 0.930 . S
H227 C236 0.930 . S
H228 C241 0.929 . S
H229 C239 0.929 . S
H230 C234 0.929 . S
H231 C240 0.929 . S
C232 H226 0.930 . S
C232 C233 1.367 . S
C232 C240 1.378 . S
C233 C232 1.367 . S
C233 C241 1.433 . S
C234 H230 0.929 . S
C234 C236 1.378 . S
C234 C238 1.350 . S
C235 C238 1.463 . S
C235 C240 1.350 . S
C235 N243 1.427 . S
C236 H227 0.930 . S
C236 C234 1.378 . S
C236 C237 1.367 . S
C237 C236 1.367 . S
C237 C239 1.433 . S
C238 C234 1.350 . S
C238 C235 1.463 . S
C238 N242 1.427 . S
C239 H229 0.929 . S
C239 C237 1.433 . S
C239 N242 1.384 . S
C240 H231 0.929 . S
C240 C232 1.378 . S
C240 C235 1.350 . S
C241 H228 0.929 . S
C241 C233 1.433 . S
C241 N243 1.384 . S
N242 C238 1.427 . S
N242 C239 1.384 . S
N243 C235 1.427 . S
N243 C241 1.384 . S
H244 C250 0.930 . S
H245 C254 0.930 . S
H246 C259 0.929 . S
H247 C257 0.929 . S
H248 C252 0.929 . S
H249 C258 0.929 . S
C250 H244 0.930 . S
C250 C251 1.367 . S
C250 C258 1.378 . S
C251 C250 1.367 . S
C251 C259 1.433 . S
C252 H248 0.929 . S
C252 C254 1.378 . S
C252 C256 1.350 . S
C253 C256 1.463 . S
C253 C258 1.350 . S
C253 N261 1.427 . S
C254 H245 0.930 . S
C254 C252 1.378 . S
C254 C255 1.367 . S
C255 C254 1.367 . S
C255 C257 1.433 . S
C256 C252 1.350 . S
C256 C253 1.463 . S
C256 N260 1.427 . S
C257 H247 0.929 . S
C257 C255 1.433 . S
C257 N260 1.384 . S
C258 H249 0.929 . S
C258 C250 1.378 . S
C258 C253 1.350 . S
C259 H246 0.929 . S
C259 C251 1.433 . S
C259 N261 1.384 . S
N260 C256 1.427 . S
N260 C257 1.384 . S
N261 C253 1.427 . S
N261 C259 1.384 . S
H262 C268 0.930 . S
H263 C272 0.930 . S
H264 C277 0.929 . S
H265 C275 0.929 . S
H266 C270 0.929 . S
H267 C276 0.929 . S
C268 H262 0.930 . S
C268 C269 1.367 . S
C268 C276 1.378 . S
C269 C268 1.367 . S
C269 C277 1.433 . S
C270 H266 0.929 . S
C270 C272 1.378 . S
C270 C274 1.350 . S
C271 C274 1.463 . S
C271 C276 1.350 . S
C271 N279 1.427 . S
C272 H263 0.930 . S
C272 C270 1.378 . S
C272 C273 1.367 . S
C273 C272 1.367 . S
C273 C275 1.433 . S
C274 C270 1.350 . S
C274 C271 1.463 . S
C274 N278 1.427 . S
C275 H265 0.929 . S
C275 C273 1.433 . S
C275 N278 1.384 . S
C276 H267 0.929 . S
C276 C268 1.378 . S
C276 C271 1.350 . S
C277 H264 0.929 . S
C277 C269 1.433 . S
C277 N279 1.384 . S
N278 C274 1.427 . S
N278 C275 1.384 . S
N279 C271 1.427 . S
N279 C277 1.384 . S
H280 C286 0.930 . S
H281 C290 0.930 . S
H282 C295 0.929 . S
H283 C293 0.929 . S
H284 C288 0.929 . S
H285 C294 0.929 . S
C286 H280 0.930 . S
C286 C287 1.367 . S
C286 C294 1.378 . S
C287 C286 1.367 . S
C287 C295 1.433 . S
C288 H284 0.929 . S
C288 C290 1.378 . S
C288 C292 1.350 . S
C289 C292 1.463 . S
C289 C294 1.350 . S
C289 N297 1.427 . S
C290 H281 0.930 . S
C290 C288 1.378 . S
C290 C291 1.367 . S
C291 C290 1.367 . S
C291 C293 1.433 . S
C292 C288 1.350 . S
C292 C289 1.463 . S
C292 N296 1.427 . S
C293 H283 0.929 . S
C293 C291 1.433 . S
C293 N296 1.384 . S
C294 H285 0.929 . S
C294 C286 1.378 . S
C294 C289 1.350 . S
C295 H282 0.929 . S
C295 C287 1.433 . S
C295 N297 1.384 . S
N296 C292 1.427 . S
N296 C293 1.384 . S
N297 C289 1.427 . S
N297 C295 1.384 . S
H298 C304 0.930 . S
H299 C308 0.930 . S
H300 C313 0.929 . S
H301 C311 0.929 . S
H302 C306 0.929 . S
H303 C312 0.929 . S
C304 H298 0.930 . S
C304 C305 1.367 . S
C304 C312 1.378 . S
C305 C304 1.367 . S
C305 C313 1.433 . S
C306 H302 0.929 . S
C306 C308 1.378 . S
C306 C310 1.350 . S
C307 C310 1.463 . S
C307 C312 1.350 . S
C307 N315 1.427 . S
C308 H299 0.930 . S
C308 C306 1.378 . S
C308 C309 1.367 . S
C309 C308 1.367 . S
C309 C311 1.433 . S
C310 C306 1.350 . S
C310 C307 1.463 . S
C310 N314 1.427 . S
C311 H301 0.929 . S
C311 C309 1.433 . S
C311 N314 1.384 . S
C312 H303 0.929 . S
C312 C304 1.378 . S
C312 C307 1.350 . S
C313 H300 0.929 . S
C313 C305 1.433 . S
C313 N315 1.384 . S
N314 C310 1.427 . S
N314 C311 1.384 . S
N315 C307 1.427 . S
N315 C313 1.384 . S
H316 C322 0.930 . S
H317 C326 0.930 . S
H318 C331 0.929 . S
H319 C329 0.929 . S
H320 C324 0.929 . S
H321 C330 0.929 . S
C322 H316 0.930 . S
C322 C323 1.367 . S
C322 C330 1.378 . S
C323 C322 1.367 . S
C323 C331 1.433 . S
C324 H320 0.929 . S
C324 C326 1.378 . S
C324 C328 1.350 . S
C325 C328 1.463 . S
C325 C330 1.350 . S
C325 N333 1.427 . S
C326 H317 0.930 . S
C326 C324 1.378 . S
C326 C327 1.367 . S
C327 C326 1.367 . S
C327 C329 1.433 . S
C328 C324 1.350 . S
C328 C325 1.463 . S
C328 N332 1.427 . S
C329 H319 0.929 . S
C329 C327 1.433 . S
C329 N332 1.384 . S
C330 H321 0.929 . S
C330 C322 1.378 . S
C330 C325 1.350 . S
C331 H318 0.929 . S
C331 C323 1.433 . S
C331 N333 1.384 . S
N332 C328 1.427 . S
N332 C329 1.384 . S
N333 C325 1.427 . S
N333 C331 1.384 . S
H334 C340 0.930 . S
H335 C344 0.930 . S
H336 C349 0.929 . S
H337 C347 0.929 . S
H338 C342 0.929 . S
H339 C348 0.929 . S
C340 H334 0.930 . S
C340 C341 1.367 . S
C340 C348 1.378 . S
C341 C340 1.367 . S
C341 C349 1.433 . S
C342 H338 0.929 . S
C342 C344 1.378 . S
C342 C346 1.350 . S
C343 C346 1.463 . S
C343 C348 1.350 . S
C343 N351 1.427 . S
C344 H335 0.930 . S
C344 C342 1.378 . S
C344 C345 1.367 . S
C345 C344 1.367 . S
C345 C347 1.433 . S
C346 C342 1.350 . S
C346 C343 1.463 . S
C346 N350 1.427 . S
C347 H337 0.929 . S
C347 C345 1.433 . S
C347 N350 1.384 . S
C348 H339 0.929 . S
C348 C340 1.378 . S
C348 C343 1.350 . S
C349 H336 0.929 . S
C349 C341 1.433 . S
C349 N351 1.384 . S
N350 C346 1.427 . S
N350 C347 1.384 . S
N351 C343 1.427 . S
N351 C349 1.384 . S
H352 C358 0.930 . S
H353 C362 0.930 . S
H354 C367 0.929 . S
H355 C365 0.929 . S
H356 C360 0.929 . S
H357 C366 0.929 . S
C358 H352 0.930 . S
C358 C359 1.367 . S
C358 C366 1.378 . S
C359 C358 1.367 . S
C359 C367 1.433 . S
C360 H356 0.929 . S
C360 C362 1.378 . S
C360 C364 1.350 . S
C361 C364 1.463 1_556 S
C361 C366 1.350 . S
C361 N369 1.427 . S
C362 H353 0.930 . S
C362 C360 1.378 . S
C362 C363 1.367 . S
C363 C362 1.367 . S
C363 C365 1.433 . S
C364 C360 1.350 . S
C364 C361 1.463 1_554 S
C364 N368 1.427 . S
C365 H355 0.929 . S
C365 C363 1.433 . S
C365 N368 1.384 . S
C366 H357 0.929 . S
C366 C358 1.378 . S
C366 C361 1.350 . S
C367 H354 0.929 . S
C367 C359 1.433 . S
C367 N369 1.384 . S
N368 C364 1.427 . S
N368 C365 1.384 . S
N369 C361 1.427 . S
N369 C367 1.384 . S
H370 C376 0.930 . S
H371 C380 0.930 . S
H372 C385 0.929 . S
H373 C383 0.929 . S
H374 C378 0.929 . S
H375 C384 0.929 . S
C376 H370 0.930 . S
C376 C377 1.367 . S
C376 C384 1.378 . S
C377 C376 1.367 . S
C377 C385 1.433 . S
C378 H374 0.929 . S
C378 C380 1.378 . S
C378 C382 1.350 . S
C379 C382 1.463 1_556 S
C379 C384 1.350 . S
C379 N387 1.427 . S
C380 H371 0.930 . S
C380 C378 1.378 . S
C380 C381 1.367 . S
C381 C380 1.367 . S
C381 C383 1.433 . S
C382 C378 1.350 . S
C382 C379 1.463 1_554 S
C382 N386 1.427 . S
C383 H373 0.929 . S
C383 C381 1.433 . S
C383 N386 1.384 . S
C384 H375 0.929 . S
C384 C376 1.378 . S
C384 C379 1.350 . S
C385 H372 0.929 . S
C385 C377 1.433 . S
C385 N387 1.384 . S
N386 C382 1.427 . S
N386 C383 1.384 . S
N387 C379 1.427 . S
N387 C385 1.384 . S
H388 C394 0.930 . S
H389 C398 0.930 . S
H390 C403 0.929 . S
H391 C401 0.929 . S
H392 C396 0.929 . S
H393 C402 0.929 . S
C394 H388 0.930 . S
C394 C395 1.367 . S
C394 C402 1.378 . S
C395 C394 1.367 . S
C395 C403 1.433 . S
C396 H392 0.929 . S
C396 C398 1.378 . S
C396 C400 1.350 . S
C397 C400 1.463 1_556 S
C397 C402 1.350 . S
C397 N405 1.427 . S
C398 H389 0.930 . S
C398 C396 1.378 . S
C398 C399 1.367 . S
C399 C398 1.367 . S
C399 C401 1.433 . S
C400 C396 1.350 . S
C400 C397 1.463 1_554 S
C400 N404 1.427 . S
C401 H391 0.929 . S
C401 C399 1.433 . S
C401 N404 1.384 . S
C402 H393 0.929 . S
C402 C394 1.378 . S
C402 C397 1.350 . S
C403 H390 0.929 . S
C403 C395 1.433 . S
C403 N405 1.384 . S
N404 C400 1.427 . S
N404 C401 1.384 . S
N405 C397 1.427 . S
N405 C403 1.384 . S
H406 C412 0.930 . S
H407 C416 0.930 . S
H408 C421 0.929 . S
H409 C419 0.929 . S
H410 C414 0.929 . S
H411 C420 0.929 . S
C412 H406 0.930 . S
C412 C413 1.367 . S
C412 C420 1.378 . S
C413 C412 1.367 . S
C413 C421 1.433 . S
C414 H410 0.929 . S
C414 C416 1.378 . S
C414 C418 1.350 . S
C415 C418 1.463 1_554 S
C415 C420 1.350 . S
C415 N423 1.427 . S
C416 H407 0.930 . S
C416 C414 1.378 . S
C416 C417 1.367 . S
C417 C416 1.367 . S
C417 C419 1.433 . S
C418 C414 1.350 . S
C418 C415 1.463 1_556 S
C418 N422 1.427 . S
C419 H409 0.929 . S
C419 C417 1.433 . S
C419 N422 1.384 . S
C420 H411 0.929 . S
C420 C412 1.378 . S
C420 C415 1.350 . S
C421 H408 0.929 . S
C421 C413 1.433 . S
C421 N423 1.384 . S
N422 C418 1.427 . S
N422 C419 1.384 . S
N423 C415 1.427 . S
N423 C421 1.384 . S
H424 C430 0.930 . S
H425 C434 0.930 . S
H426 C439 0.929 . S
H427 C437 0.929 . S
H428 C432 0.929 . S
H429 C438 0.929 . S
C430 H424 0.930 . S
C430 C431 1.367 . S
C430 C438 1.378 . S
C431 C430 1.367 . S
C431 C439 1.433 . S
C432 H428 0.929 . S
C432 C434 1.378 . S
C432 C436 1.350 . S
C433 C436 1.463 1_455 S
C433 C438 1.350 . S
C433 N441 1.427 . S
C434 H425 0.930 . S
C434 C432 1.378 . S
C434 C435 1.367 . S
C435 C434 1.367 . S
C435 C437 1.433 . S
C436 C432 1.350 . S
C436 C433 1.463 1_655 S
C436 N440 1.427 . S
C437 H427 0.929 . S
C437 C435 1.433 . S
C437 N440 1.384 . S
C438 H429 0.929 . S
C438 C430 1.378 . S
C438 C433 1.350 . S
C439 H426 0.929 . S
C439 C431 1.433 . S
C439 N441 1.384 . S
N440 C436 1.427 . S
N440 C437 1.384 . S
N441 C433 1.427 . S
N441 C439 1.384 . S
H442 C448 0.930 . S
H443 C452 0.930 . S
H444 C457 0.929 . S
H445 C455 0.929 . S
H446 C450 0.929 . S
H447 C456 0.929 . S
C448 H442 0.930 . S
C448 C449 1.367 . S
C448 C456 1.378 . S
C449 C448 1.367 . S
C449 C457 1.433 . S
C450 H446 0.929 . S
C450 C452 1.378 . S
C450 C454 1.350 . S
C451 C454 1.463 1_565 S
C451 C456 1.350 . S
C451 N459 1.427 . S
C452 H443 0.930 . S
C452 C450 1.378 . S
C452 C453 1.367 . S
C453 C452 1.367 . S
C453 C455 1.433 . S
C454 C450 1.350 . S
C454 C451 1.463 1_545 S
C454 N458 1.427 . S
C455 H445 0.929 . S
C455 C453 1.433 . S
C455 N458 1.384 . S
C456 H447 0.929 . S
C456 C448 1.378 . S
C456 C451 1.350 . S
C457 H444 0.929 . S
C457 C449 1.433 . S
C457 N459 1.384 . S
N458 C454 1.427 . S
N458 C455 1.384 . S
N459 C451 1.427 . S
N459 C457 1.384 . S
H460 C466 0.930 . S
H461 C470 0.930 . S
H462 C475 0.929 . S
H463 C473 0.929 . S
H464 C468 0.929 . S
H465 C474 0.929 . S
C466 H460 0.930 . S
C466 C467 1.367 . S
C466 C474 1.378 . S
C467 C466 1.367 . S
C467 C475 1.433 . S
C468 H464 0.929 . S
C468 C470 1.378 . S
C468 C472 1.350 . S
C469 C472 1.463 1_655 S
C469 C474 1.350 . S
C469 N477 1.427 . S
C470 H461 0.930 . S
C470 C468 1.378 . S
C470 C471 1.367 . S
C471 C470 1.367 . S
C471 C473 1.433 . S
C472 C468 1.350 . S
C472 C469 1.463 1_455 S
C472 N476 1.427 . S
C473 H463 0.929 . S
C473 C471 1.433 . S
C473 N476 1.384 . S
C474 H465 0.929 . S
C474 C466 1.378 . S
C474 C469 1.350 . S
C475 H462 0.929 . S
C475 C467 1.433 . S
C475 N477 1.384 . S
N476 C472 1.427 . S
N476 C473 1.384 . S
N477 C469 1.427 . S
N477 C475 1.384 . S
H478 C484 0.930 . S
H479 C488 0.930 . S
H480 C493 0.929 . S
H481 C491 0.929 . S
H482 C486 0.929 . S
H483 C492 0.929 . S
C484 H478 0.930 . S
C484 C485 1.367 . S
C484 C492 1.378 . S
C485 C484 1.367 . S
C485 C493 1.433 . S
C486 H482 0.929 . S
C486 C488 1.378 . S
C486 C490 1.350 . S
C487 C490 1.463 1_545 S
C487 C492 1.350 . S
C487 N495 1.427 . S
C488 H479 0.930 . S
C488 C486 1.378 . S
C488 C489 1.367 . S
C489 C488 1.367 . S
C489 C491 1.433 . S
C490 C486 1.350 . S
C490 C487 1.463 1_565 S
C490 N494 1.427 . S
C491 H481 0.929 . S
C491 C489 1.433 . S
C491 N494 1.384 . S
C492 H483 0.929 . S
C492 C484 1.378 . S
C492 C487 1.350 . S
C493 H480 0.929 . S
C493 C485 1.433 . S
C493 N495 1.384 . S
N494 C490 1.427 . S
N494 C491 1.384 . S
N495 C487 1.427 . S
N495 C493 1.384 . S
H496 C502 0.930 . S
H497 C506 0.930 . S
H498 C511 0.929 . S
H499 C509 0.929 . S
H500 C504 0.929 . S
H501 C510 0.929 . S
C502 H496 0.930 . S
C502 C503 1.367 . S
C502 C510 1.378 . S
C503 C502 1.367 . S
C503 C511 1.433 . S
C504 H500 0.929 . S
C504 C506 1.378 . S
C504 C508 1.350 . S
C505 C508 1.463 1_655 S
C505 C510 1.350 . S
C505 N513 1.427 . S
C506 H497 0.930 . S
C506 C504 1.378 . S
C506 C507 1.367 . S
C507 C506 1.367 . S
C507 C509 1.433 . S
C508 C504 1.350 . S
C508 C505 1.463 1_455 S
C508 N512 1.427 . S
C509 H499 0.929 . S
C509 C507 1.433 . S
C509 N512 1.384 . S
C510 H501 0.929 . S
C510 C502 1.378 . S
C510 C505 1.350 . S
C511 H498 0.929 . S
C511 C503 1.433 . S
C511 N513 1.384 . S
N512 C508 1.427 . S
N512 C509 1.384 . S
N513 C505 1.427 . S
N513 C511 1.384 . S
H514 C520 0.930 . S
H515 C524 0.930 . S
H516 C529 0.929 . S
H517 C527 0.929 . S
H518 C522 0.929 . S
H519 C528 0.929 . S
C520 H514 0.930 . S
C520 C521 1.367 . S
C520 C528 1.378 . S
C521 C520 1.367 . S
C521 C529 1.433 . S
C522 H518 0.929 . S
C522 C524 1.378 . S
C522 C526 1.350 . S
C523 C526 1.463 1_565 S
C523 C528 1.350 . S
C523 N531 1.427 . S
C524 H515 0.930 . S
C524 C522 1.378 . S
C524 C525 1.367 . S
C525 C524 1.367 . S
C525 C527 1.433 . S
C526 C522 1.350 . S
C526 C523 1.463 1_545 S
C526 N530 1.427 . S
C527 H517 0.929 . S
C527 C525 1.433 . S
C527 N530 1.384 . S
C528 H519 0.929 . S
C528 C520 1.378 . S
C528 C523 1.350 . S
C529 H516 0.929 . S
C529 C521 1.433 . S
C529 N531 1.384 . S
N530 C526 1.427 . S
N530 C527 1.384 . S
N531 C523 1.427 . S
N531 C529 1.384 . S
H532 C538 0.930 . S
H533 C542 0.930 . S
H534 C547 0.929 . S
H535 C545 0.929 . S
H536 C540 0.929 . S
H537 C546 0.929 . S
C538 H532 0.930 . S
C538 C539 1.367 . S
C538 C546 1.378 . S
C539 C538 1.367 . S
C539 C547 1.433 . S
C540 H536 0.929 . S
C540 C542 1.378 . S
C540 C544 1.350 . S
C541 C544 1.463 1_455 S
C541 C546 1.350 . S
C541 N549 1.427 . S
C542 H533 0.930 . S
C542 C540 1.378 . S
C542 C543 1.367 . S
C543 C542 1.367 . S
C543 C545 1.433 . S
C544 C540 1.350 . S
C544 C541 1.463 1_655 S
C544 N548 1.427 . S
C545 H535 0.929 . S
C545 C543 1.433 . S
C545 N548 1.384 . S
C546 H537 0.929 . S
C546 C538 1.378 . S
C546 C541 1.350 . S
C547 H534 0.929 . S
C547 C539 1.433 . S
C547 N549 1.384 . S
N548 C544 1.427 . S
N548 C545 1.384 . S
N549 C541 1.427 . S
N549 C547 1.384 . S
H550 C556 0.930 . S
H551 C560 0.930 . S
H552 C565 0.929 . S
H553 C563 0.929 . S
H554 C558 0.929 . S
H555 C564 0.929 . S
C556 H550 0.930 . S
C556 C557 1.367 . S
C556 C564 1.378 . S
C557 C556 1.367 . S
C557 C565 1.433 . S
C558 H554 0.929 . S
C558 C560 1.378 . S
C558 C562 1.350 . S
C559 C562 1.463 1_565 S
C559 C564 1.350 . S
C559 N567 1.427 . S
C560 H551 0.930 . S
C560 C558 1.378 . S
C560 C561 1.367 . S
C561 C560 1.367 . S
C561 C563 1.433 . S
C562 C558 1.350 . S
C562 C559 1.463 1_545 S
C562 N566 1.427 . S
C563 H553 0.929 . S
C563 C561 1.433 . S
C563 N566 1.384 . S
C564 H555 0.929 . S
C564 C556 1.378 . S
C564 C559 1.350 . S
C565 H552 0.929 . S
C565 C557 1.433 . S
C565 N567 1.384 . S
N566 C562 1.427 . S
N566 C563 1.384 . S
N567 C559 1.427 . S
N567 C565 1.384 . S
H568 C574 0.930 . S
H569 C578 0.930 . S
H570 C583 0.929 . S
H571 C581 0.929 . S
H572 C576 0.929 . S
H573 C582 0.929 . S
C574 H568 0.930 . S
C574 C575 1.367 . S
C574 C582 1.378 . S
C575 C574 1.367 . S
C575 C583 1.433 . S
C576 H572 0.929 . S
C576 C578 1.378 . S
C576 C580 1.350 . S
C577 C580 1.463 . S
C577 C582 1.350 . S
C577 N585 1.427 . S
C578 H569 0.930 . S
C578 C576 1.378 . S
C578 C579 1.367 . S
C579 C578 1.367 . S
C579 C581 1.433 . S
C580 C576 1.350 . S
C580 C577 1.463 . S
C580 N584 1.427 . S
C581 H571 0.929 . S
C581 C579 1.433 . S
C581 N584 1.384 . S
C582 H573 0.929 . S
C582 C574 1.378 . S
C582 C577 1.350 . S
C583 H570 0.929 . S
C583 C575 1.433 . S
C583 N585 1.384 . S
N584 C580 1.427 . S
N584 C581 1.384 . S
N585 C577 1.427 . S
N585 C583 1.384 . S
H586 C592 0.930 . S
H587 C596 0.930 . S
H588 C601 0.929 . S
H589 C599 0.929 . S
H590 C594 0.929 . S
H591 C600 0.929 . S
C592 H586 0.930 . S
C592 C593 1.367 . S
C592 C600 1.378 . S
C593 C592 1.367 . S
C593 C601 1.433 . S
C594 H590 0.929 . S
C594 C596 1.378 . S
C594 C598 1.350 . S
C595 C598 1.463 . S
C595 C600 1.350 . S
C595 N603 1.427 . S
C596 H587 0.930 . S
C596 C594 1.378 . S
C596 C597 1.367 . S
C597 C596 1.367 . S
C597 C599 1.433 . S
C598 C594 1.350 . S
C598 C595 1.463 . S
C598 N602 1.427 . S
C599 H589 0.929 . S
C599 C597 1.433 . S
C599 N602 1.384 . S
C600 H591 0.929 . S
C600 C592 1.378 . S
C600 C595 1.350 . S
C601 H588 0.929 . S
C601 C593 1.433 . S
C601 N603 1.384 . S
N602 C598 1.427 . S
N602 C599 1.384 . S
N603 C595 1.427 . S
N603 C601 1.384 . S
H604 C610 0.930 . S
H605 C614 0.930 . S
H606 C619 0.929 . S
H607 C617 0.929 . S
H608 C612 0.929 . S
H609 C618 0.929 . S
C610 H604 0.930 . S
C610 C611 1.367 . S
C610 C618 1.378 . S
C611 C610 1.367 . S
C611 C619 1.433 . S
C612 H608 0.929 . S
C612 C614 1.378 . S
C612 C616 1.350 . S
C613 C616 1.463 . S
C613 C618 1.350 . S
C613 N621 1.427 . S
C614 H605 0.930 . S
C614 C612 1.378 . S
C614 C615 1.367 . S
C615 C614 1.367 . S
C615 C617 1.433 . S
C616 C612 1.350 . S
C616 C613 1.463 . S
C616 N620 1.427 . S
C617 H607 0.929 . S
C617 C615 1.433 . S
C617 N620 1.384 . S
C618 H609 0.929 . S
C618 C610 1.378 . S
C618 C613 1.350 . S
C619 H606 0.929 . S
C619 C611 1.433 . S
C619 N621 1.384 . S
N620 C616 1.427 . S
N620 C617 1.384 . S
N621 C613 1.427 . S
N621 C619 1.384 . S
H622 C628 0.930 . S
H623 C632 0.930 . S
H624 C637 0.929 . S
H625 C635 0.929 . S
H626 C630 0.929 . S
H627 C636 0.929 . S
C628 H622 0.930 . S
C628 C629 1.367 . S
C628 C636 1.378 . S
C629 C628 1.367 . S
C629 C637 1.433 . S
C630 H626 0.929 . S
C630 C632 1.378 . S
C630 C634 1.350 . S
C631 C634 1.463 . S
C631 C636 1.350 . S
C631 N639 1.427 . S
C632 H623 0.930 . S
C632 C630 1.378 . S
C632 C633 1.367 . S
C633 C632 1.367 . S
C633 C635 1.433 . S
C634 C630 1.350 . S
C634 C631 1.463 . S
C634 N638 1.427 . S
C635 H625 0.929 . S
C635 C633 1.433 . S
C635 N638 1.384 . S
C636 H627 0.929 . S
C636 C628 1.378 . S
C636 C631 1.350 . S
C637 H624 0.929 . S
C637 C629 1.433 . S
C637 N639 1.384 . S
N638 C634 1.427 . S
N638 C635 1.384 . S
N639 C631 1.427 . S
N639 C637 1.384 . S
H640 C646 0.930 . S
H641 C650 0.930 . S
H642 C655 0.929 . S
H643 C653 0.929 . S
H644 C648 0.929 . S
H645 C654 0.929 . S
C646 H640 0.930 . S
C646 C647 1.367 . S
C646 C654 1.378 . S
C647 C646 1.367 . S
C647 C655 1.433 . S
C648 H644 0.929 . S
C648 C650 1.378 . S
C648 C652 1.350 . S
C649 C652 1.463 . S
C649 C654 1.350 . S
C649 N657 1.427 . S
C650 H641 0.930 . S
C650 C648 1.378 . S
C650 C651 1.367 . S
C651 C650 1.367 . S
C651 C653 1.433 . S
C652 C648 1.350 . S
C652 C649 1.463 . S
C652 N656 1.427 . S
C653 H643 0.929 . S
C653 C651 1.433 . S
C653 N656 1.384 . S
C654 H645 0.929 . S
C654 C646 1.378 . S
C654 C649 1.350 . S
C655 H642 0.929 . S
C655 C647 1.433 . S
C655 N657 1.384 . S
N656 C652 1.427 . S
N656 C653 1.384 . S
N657 C649 1.427 . S
N657 C655 1.384 . S
H658 C664 0.930 . S
H659 C668 0.930 . S
H660 C673 0.929 . S
H661 C671 0.929 . S
H662 C666 0.929 . S
H663 C672 0.929 . S
C664 H658 0.930 . S
C664 C665 1.367 . S
C664 C672 1.378 . S
C665 C664 1.367 . S
C665 C673 1.433 . S
C666 H662 0.929 . S
C666 C668 1.378 . S
C666 C670 1.350 . S
C667 C670 1.463 . S
C667 C672 1.350 . S
C667 N675 1.427 . S
C668 H659 0.930 . S
C668 C666 1.378 . S
C668 C669 1.367 . S
C669 C668 1.367 . S
C669 C671 1.433 . S
C670 C666 1.350 . S
C670 C667 1.463 . S
C670 N674 1.427 . S
C671 H661 0.929 . S
C671 C669 1.433 . S
C671 N674 1.384 . S
C672 H663 0.929 . S
C672 C664 1.378 . S
C672 C667 1.350 . S
C673 H660 0.929 . S
C673 C665 1.433 . S
C673 N675 1.384 . S
N674 C670 1.427 . S
N674 C671 1.384 . S
N675 C667 1.427 . S
N675 C673 1.384 . S
H676 C682 0.930 . S
H677 C686 0.930 . S
H678 C691 0.929 . S
H679 C689 0.929 . S
H680 C684 0.929 . S
H681 C690 0.929 . S
C682 H676 0.930 . S
C682 C683 1.367 . S
C682 C690 1.378 . S
C683 C682 1.367 . S
C683 C691 1.433 . S
C684 H680 0.929 . S
C684 C686 1.378 . S
C684 C688 1.350 . S
C685 C688 1.463 . S
C685 C690 1.350 . S
C685 N693 1.427 . S
C686 H677 0.930 . S
C686 C684 1.378 . S
C686 C687 1.367 . S
C687 C686 1.367 . S
C687 C689 1.433 . S
C688 C684 1.350 . S
C688 C685 1.463 . S
C688 N692 1.427 . S
C689 H679 0.929 . S
C689 C687 1.433 . S
C689 N692 1.384 . S
C690 H681 0.929 . S
C690 C682 1.378 . S
C690 C685 1.350 . S
C691 H678 0.929 . S
C691 C683 1.433 . S
C691 N693 1.384 . S
N692 C688 1.427 . S
N692 C689 1.384 . S
N693 C685 1.427 . S
N693 C691 1.384 . S
H694 C700 0.930 . S
H695 C704 0.930 . S
H696 C709 0.929 . S
H697 C707 0.929 . S
H698 C702 0.929 . S
H699 C708 0.929 . S
C700 H694 0.930 . S
C700 C701 1.367 . S
C700 C708 1.378 . S
C701 C700 1.367 . S
C701 C709 1.433 . S
C702 H698 0.929 . S
C702 C704 1.378 . S
C702 C706 1.350 . S
C703 C706 1.463 . S
C703 C708 1.350 . S
C703 N711 1.427 . S
C704 H695 0.930 . S
C704 C702 1.378 . S
C704 C705 1.367 . S
C705 C704 1.367 . S
C705 C707 1.433 . S
C706 C702 1.350 . S
C706 C703 1.463 . S
C706 N710 1.427 . S
C707 H697 0.929 . S
C707 C705 1.433 . S
C707 N710 1.384 . S
C708 H699 0.929 . S
C708 C700 1.378 . S
C708 C703 1.350 . S
C709 H696 0.929 . S
C709 C701 1.433 . S
C709 N711 1.384 . S
N710 C706 1.427 . S
N710 C707 1.384 . S
N711 C703 1.427 . S
N711 C709 1.384 . S
H712 C718 0.930 . S
H713 C722 0.930 . S
H714 C727 0.929 . S
H715 C725 0.929 . S
H716 C720 0.929 . S
H717 C726 0.929 . S
C718 H712 0.930 . S
C718 C719 1.367 . S
C718 C726 1.378 . S
C719 C718 1.367 . S
C719 C727 1.433 . S
C720 H716 0.929 . S
C720 C722 1.378 . S
C720 C724 1.350 . S
C721 C724 1.463 . S
C721 C726 1.350 . S
C721 N729 1.427 . S
C722 H713 0.930 . S
C722 C720 1.378 . S
C722 C723 1.367 . S
C723 C722 1.367 . S
C723 C725 1.433 . S
C724 C720 1.350 . S
C724 C721 1.463 . S
C724 N728 1.427 . S
C725 H715 0.929 . S
C725 C723 1.433 . S
C725 N728 1.384 . S
C726 H717 0.929 . S
C726 C718 1.378 . S
C726 C721 1.350 . S
C727 H714 0.929 . S
C727 C719 1.433 . S
C727 N729 1.384 . S
N728 C724 1.427 . S
N728 C725 1.384 . S
N729 C721 1.427 . S
N729 C727 1.384 . S
H730 C736 0.930 . S
H731 C740 0.930 . S
H732 C745 0.929 . S
H733 C743 0.929 . S
H734 C738 0.929 . S
H735 C744 0.929 . S
C736 H730 0.930 . S
C736 C737 1.367 . S
C736 C744 1.378 . S
C737 C736 1.367 . S
C737 C745 1.433 . S
C738 H734 0.929 . S
C738 C740 1.378 . S
C738 C742 1.350 . S
C739 C742 1.463 . S
C739 C744 1.350 . S
C739 N747 1.427 . S
C740 H731 0.930 . S
C740 C738 1.378 . S
C740 C741 1.367 . S
C741 C740 1.367 . S
C741 C743 1.433 . S
C742 C738 1.350 . S
C742 C739 1.463 . S
C742 N746 1.427 . S
C743 H733 0.929 . S
C743 C741 1.433 . S
C743 N746 1.384 . S
C744 H735 0.929 . S
C744 C736 1.378 . S
C744 C739 1.350 . S
C745 H732 0.929 . S
C745 C737 1.433 . S
C745 N747 1.384 . S
N746 C742 1.427 . S
N746 C743 1.384 . S
N747 C739 1.427 . S
N747 C745 1.384 . S
H748 C754 0.930 . S
H749 C758 0.930 . S
H750 C763 0.929 . S
H751 C761 0.929 . S
H752 C756 0.929 . S
H753 C762 0.929 . S
C754 H748 0.930 . S
C754 C755 1.367 . S
C754 C762 1.378 . S
C755 C754 1.367 . S
C755 C763 1.433 . S
C756 H752 0.929 . S
C756 C758 1.378 . S
C756 C760 1.350 . S
C757 C760 1.463 . S
C757 C762 1.350 . S
C757 N765 1.427 . S
C758 H749 0.930 . S
C758 C756 1.378 . S
C758 C759 1.367 . S
C759 C758 1.367 . S
C759 C761 1.433 . S
C760 C756 1.350 . S
C760 C757 1.463 . S
C760 N764 1.427 . S
C761 H751 0.929 . S
C761 C759 1.433 . S
C761 N764 1.384 . S
C762 H753 0.929 . S
C762 C754 1.378 . S
C762 C757 1.350 . S
C763 H750 0.929 . S
C763 C755 1.433 . S
C763 N765 1.384 . S
N764 C760 1.427 . S
N764 C761 1.384 . S
N765 C757 1.427 . S
N765 C763 1.384 . S
H766 C772 0.930 . S
H767 C776 0.930 . S
H768 C781 0.929 . S
H769 C779 0.929 . S
H770 C774 0.929 . S
H771 C780 0.929 . S
C772 H766 0.930 . S
C772 C773 1.367 . S
C772 C780 1.378 . S
C773 C772 1.367 . S
C773 C781 1.433 . S
C774 H770 0.929 . S
C774 C776 1.378 . S
C774 C778 1.350 . S
C775 C778 1.463 . S
C775 C780 1.350 . S
C775 N783 1.427 . S
C776 H767 0.930 . S
C776 C774 1.378 . S
C776 C777 1.367 . S
C777 C776 1.367 . S
C777 C779 1.433 . S
C778 C774 1.350 . S
C778 C775 1.463 . S
C778 N782 1.427 . S
C779 H769 0.929 . S
C779 C777 1.433 . S
C779 N782 1.384 . S
C780 H771 0.929 . S
C780 C772 1.378 . S
C780 C775 1.350 . S
C781 H768 0.929 . S
C781 C773 1.433 . S
C781 N783 1.384 . S
N782 C778 1.427 . S
N782 C779 1.384 . S
N783 C775 1.427 . S
N783 C781 1.384 . S
C215 C195 0.881 . S
C219 C0 0.895 . S
C233 C156 1.043 . S
C237 C13 1.047 . S
C251 C26 0.938 . S
C255 C169 0.921 . S
C269 C182 1.005 . S
C273 C39 1.025 . S
C287 C117 1.059 . S
C291 C52 1.053 . S
C305 C65 0.927 . S
C309 C130 0.931 . S
C323 C78 1.020 . S
C327 C143 1.025 . S
C341 C91 0.890 . S
C345 C104 0.895 . S
C359 C70 1.155 . S
C363 C5 1.148 . S
C377 C86 1.414 . S
C381 C18 1.438 . S
C395 C96 1.285 . S
C399 C31 1.287 . S
C413 C49 1.476 . S
C417 C60 1.430 . S
C431 C8 1.357 . S
C435 C23 1.393 . S
C449 C36 1.509 . S
C453 C21 1.463 . S
C467 C34 1.414 . S
C471 C47 1.431 . S
C485 C10 1.430 . S
C489 C44 1.406 . S
C503 C101 1.410 . S
C507 C62 1.419 . S
C521 C57 1.334 . S
C525 C73 1.317 . S
C539 C75 1.386 . S
C543 C88 1.377 . S
C557 C99 1.250 . S
C561 C83 1.233 . S
C575 C174 1.152 . S
C579 C109 1.150 . S
C593 C122 1.436 . S
C597 C190 1.415 . S
C611 C200 1.284 . S
C615 C135 1.288 . S
C629 C164 1.417 . S
C633 C153 1.479 . S
C647 C112 1.366 . S
C651 C127 1.397 . S
C665 C125 1.459 . S
C669 C140 1.513 . S
C683 C151 1.425 . S
C687 C138 1.424 . S
C701 C114 1.435 . S
C705 C148 1.391 . S
C719 C205 1.410 . S
C723 C166 1.416 . S
C737 C161 1.330 . S
C741 C177 1.305 . S
C755 C179 1.384 . S
C759 C192 1.384 . S
C773 C203 1.241 . S
C777 C187 1.251 . S
