# Generated by pormake.
# Topology uni, (4)-cn, num edge types: 1
# Building blocks:
#     Node 0, Type 0, BuildingBlock: GALJAG_clean_sbu_0, # of connection points: 4
#     Node 1, Type 0, BuildingBlock: GALJAG_clean_sbu_0, # of connection points: 4
#     Node 2, Type 0, BuildingBlock: GALJAG_clean_sbu_0, # of connection points: 4
#     Node 3, Type 0, BuildingBlock: GALJAG_clean_sbu_0, # of connection points: 4
#     Node 4, Type 0, BuildingBlock: GALJAG_clean_sbu_0, # of connection points: 4
#     Node 5, Type 0, BuildingBlock: GALJAG_clean_sbu_0, # of connection points: 4
#     Edge 6, Type (0, 0), BuildingBlock: ZUJKAS_clean_linker_0, # of connection points: 2
#     Edge 7, Type (0, 0), BuildingBlock: ZUJKAS_clean_linker_0, # of connection points: 2
#     Edge 8, Type (0, 0), BuildingBlock: ZUJKAS_clean_linker_0, # of connection points: 2
#     Edge 9, Type (0, 0), BuildingBlock: ZUJKAS_clean_linker_0, # of connection points: 2
#     Edge 10, Type (0, 0), BuildingBlock: ZUJKAS_clean_linker_0, # of connection points: 2
#     Edge 11, Type (0, 0), BuildingBlock: ZUJKAS_clean_linker_0, # of connection points: 2
#     Edge 12, Type (0, 0), BuildingBlock: ZUJKAS_clean_linker_0, # of connection points: 2
#     Edge 13, Type (0, 0), BuildingBlock: ZUJKAS_clean_linker_0, # of connection points: 2
#     Edge 14, Type (0, 0), BuildingBlock: ZUJKAS_clean_linker_0, # of connection points: 2
#     Edge 15, Type (0, 0), BuildingBlock: ZUJKAS_clean_linker_0, # of connection points: 2
#     Edge 16, Type (0, 0), BuildingBlock: ZUJKAS_clean_linker_0, # of connection points: 2
#     Edge 17, Type (0, 0), BuildingBlock: ZUJKAS_clean_linker_0, # of connection points: 2
# Relax obj value: 0.070
# Max RMSD: 0.134
# Mean RMSD: 0.134
data_MOF--net-uni--node1-GALJAG_clean_sbu_0--edge1-ZUJKAS_clean_linker_0
_symmetry_space_group_name_H-M    P1
_symmetry_Int_Tables_number       1
_symmetry_cell_setting            triclinic
loop_
_symmetry_equiv_pos_as_xyz
'x, y, z'
_cell_length_a     48.736692
_cell_length_b     48.681366
_cell_length_c     33.026191
_cell_angle_alpha  90.022007
_cell_angle_beta   89.954318
_cell_angle_gamma 119.96032
loop_
_atom_site_label
_atom_site_type_symbol
_atom_site_fract_x
_atom_site_fract_y
_atom_site_fract_z
_atom_type_partial_charge
In0 In 0.63065 0.01354 0.05587 0.0
O1 O 0.62128 0.00422 0.98808 0.0
O2 O 0.58961 0.01325 0.02186 0.0
C3 C 0.63812 0.96348 0.07361 0.0
C4 C 0.68583 0.06672 0.03857 0.0
C5 C 0.60217 0.01682 0.12457 0.0
O6 O 0.61933 0.96246 0.04662 0.0
O7 O 0.65337 0.98983 0.0914 0.0
O8 O 0.62893 0.03886 0.11333 0.0
O9 O 0.58968 0.99329 0.10102 0.0
C10 C 0.59713 0.00735 0.98776 0.0
O11 O 0.66077 0.06709 0.04697 0.0
O12 O 0.68318 0.03959 0.03936 0.0
In13 In 0.62997 0.62263 0.21143 0.0
O14 O 0.62699 0.59749 0.15188 0.0
O15 O 0.5854 0.59688 0.17225 0.0
C16 C 0.68731 0.63136 0.2332 0.0
C17 C 0.64099 0.68135 0.19241 0.0
C18 C 0.59338 0.58965 0.27523 0.0
O19 O 0.66943 0.61043 0.20829 0.0
O20 O 0.67649 0.64826 0.24685 0.0
O21 O 0.59447 0.61439 0.26176 0.0
O22 O 0.61024 0.58112 0.25605 0.0
C23 C 0.59833 0.58882 0.14526 0.0
O24 O 0.62899 0.66798 0.22563 0.0
O25 O 0.648 0.66534 0.16891 0.0
In26 In 0.01852 0.6266 0.3862 0.0
O27 O 0.03164 0.62706 0.31959 0.0
O28 O 0.01206 0.58333 0.3512 0.0
C29 C 0.06998 0.68268 0.40549 0.0
C30 C 0.9668 0.63139 0.36853 0.0
C31 C 0.01563 0.59336 0.45306 0.0
O32 O 0.06977 0.66582 0.37634 0.0
O33 O 0.04428 0.6713 0.42481 0.0
O34 O 0.99735 0.60439 0.44751 0.0
O35 O 0.0353 0.59908 0.42491 0.0
C36 C 0.02288 0.59792 0.3183 0.0
O37 O 0.965 0.60579 0.3797 0.0
O38 O 0.9946 0.6546 0.36665 0.0
In39 In 0.4081 0.01345 0.55575 0.0
O40 O 0.36781 0.96246 0.56098 0.0
O41 O 0.36277 0.99188 0.51768 0.0
C42 C 0.43898 0.00977 0.62182 0.0
C43 C 0.44483 0.01583 0.49283 0.0
C44 C 0.39729 0.06159 0.57355 0.0
O45 O 0.40979 0.99151 0.61607 0.0
O46 O 0.45278 0.02986 0.5941 0.0
O47 O 0.41001 0.06028 0.54093 0.0
O48 O 0.38952 0.03839 0.59693 0.0
C49 C 0.351 0.96478 0.53368 0.0
O50 O 0.44667 0.04035 0.5084 0.0
O51 O 0.42489 0.99019 0.5094 0.0
In52 In 0.40482 0.40232 0.71141 0.0
O53 O 0.40775 0.35794 0.72627 0.0
O54 O 0.38713 0.35903 0.67021 0.0
C55 C 0.44 0.43473 0.77633 0.0
C56 C 0.43531 0.43677 0.64495 0.0
C57 C 0.34758 0.39406 0.73239 0.0
O58 O 0.44312 0.41334 0.75901 0.0
O59 O 0.41967 0.44015 0.76046 0.0
O60 O 0.36685 0.41646 0.71008 0.0
O61 O 0.35698 0.37541 0.74388 0.0
C62 C 0.39528 0.34389 0.69355 0.0
O63 O 0.40572 0.42327 0.6493 0.0
O64 O 0.44976 0.43329 0.67438 0.0
In65 In 0.0184 0.4032 0.88627 0.0
O66 O 0.0717 0.42224 0.88185 0.0
O67 O 0.04097 0.37507 0.86224 0.0
C68 C 0.02275 0.43686 0.95338 0.0
C69 C 0.01474 0.43153 0.81768 0.0
C70 C 0.96673 0.34809 0.90806 0.0
O71 O 0.03983 0.42445 0.94783 0.0
O72 O 0.00368 0.43247 0.92498 0.0
O73 O 0.96558 0.36677 0.88256 0.0
O74 O 0.99393 0.35705 0.92223 0.0
C75 C 0.0691 0.39717 0.86702 0.0
O76 O 0.00372 0.402 0.82026 0.0
O77 O 0.02738 0.4467 0.84971 0.0
H78 H 0.54854 0.96943 0.15923 0.0
H79 H 0.52391 0.97128 0.22311 0.0
H80 H 0.59653 0.06879 0.23977 0.0
H81 H 0.62151 0.06712 0.17601 0.0
H82 H 0.55832 0.99116 0.30422 0.0
H83 H 0.50692 0.0643 0.25039 0.0
H84 H 0.51643 0.04127 0.21618 0.0
H85 H 0.54752 0.07727 0.23755 0.0
C86 C 0.5592 0.9913 0.17641 0.0
C87 C 0.58692 0.01816 0.16263 0.0
C88 C 0.54515 0.99228 0.21288 0.0
C89 C 0.55834 0.02021 0.23588 0.0
C90 C 0.58591 0.04711 0.22218 0.0
H91 H 0.49228 0.06818 0.45561 0.0
H92 H 0.52188 0.0698 0.39481 0.0
C93 C 0.60015 0.04608 0.18586 0.0
C94 C 0.54352 0.02096 0.27462 0.0
H95 H 0.49993 0.04983 0.31925 0.0
C96 C 0.54556 0.00398 0.30765 0.0
C97 C 0.52719 0.03794 0.27886 0.0
C98 C 0.52409 0.05616 0.24392 0.0
C99 C 0.53171 0.00362 0.34508 0.0
C100 C 0.51463 0.01997 0.34913 0.0
C101 C 0.51297 0.03727 0.31611 0.0
C102 C 0.49767 0.01886 0.38699 0.0
C103 C 0.53602 0.98619 0.38006 0.0
C104 C 0.47413 0.98971 0.40269 0.0
C105 C 0.45743 0.98872 0.43757 0.0
C106 C 0.4636 0.0169 0.45708 0.0
C107 C 0.48708 0.04608 0.44128 0.0
C108 C 0.50396 0.04703 0.40654 0.0
H109 H 0.55733 0.98376 0.37592 0.0
H110 H 0.53824 0.99852 0.40921 0.0
H111 H 0.51513 0.96198 0.38195 0.0
H112 H 0.46826 0.96771 0.38754 0.0
H113 H 0.43925 0.9659 0.4488 0.0
H114 H 0.58939 0.53733 0.31139 0.0
H115 H 0.56127 0.51149 0.37387 0.0
H116 H 0.52805 0.57837 0.38404 0.0
H117 H 0.55642 0.60459 0.32185 0.0
H118 H 0.55376 0.57078 0.45563 0.0
H119 H 0.46578 0.45434 0.39098 0.0
H120 H 0.50614 0.46654 0.37841 0.0
H121 H 0.48863 0.48904 0.36001 0.0
C122 C 0.57586 0.54635 0.32674 0.0
C123 C 0.57501 0.57291 0.31167 0.0
C124 C 0.55971 0.53148 0.36233 0.0
C125 C 0.54227 0.54278 0.3833 0.0
C126 C 0.54128 0.56922 0.36821 0.0
H127 H 0.40845 0.44652 0.57817 0.0
H128 H 0.43478 0.47362 0.51544 0.0
C129 C 0.55743 0.5841 0.33264 0.0
C130 C 0.52599 0.52777 0.42175 0.0
H131 H 0.46926 0.4579 0.46276 0.0
C132 C 0.53519 0.54613 0.45721 0.0
C133 C 0.50157 0.49572 0.4236 0.0
C134 C 0.48968 0.47528 0.38619 0.0
C135 C 0.52095 0.53315 0.49465 0.0
C136 C 0.49722 0.50083 0.49671 0.0
C137 C 0.48767 0.48261 0.46114 0.0
C138 C 0.4817 0.48547 0.53538 0.0
C139 C 0.53109 0.55424 0.53154 0.0
C140 C 0.49937 0.48308 0.56736 0.0
C141 C 0.4844 0.46767 0.6033 0.0
C142 C 0.45147 0.45422 0.60773 0.0
C143 C 0.43387 0.45672 0.57569 0.0
C144 C 0.44885 0.47213 0.53982 0.0
H145 H 0.54328 0.57975 0.52317 0.0
H146 H 0.51044 0.54892 0.55104 0.0
H147 H 0.54785 0.55003 0.54955 0.0
H148 H 0.52467 0.49269 0.56427 0.0
H149 H 0.49854 0.46594 0.62737 0.0
H150 H 0.99411 0.40469 0.74319 0.0
H151 H 0.99397 0.43127 0.6803 0.0
H152 H 0.03165 0.52006 0.74441 0.0
H153 H 0.03256 0.49381 0.80712 0.0
H154 H 0.96353 0.46349 0.66026 0.0
H155 H 0.09348 0.54338 0.65121 0.0
H156 H 0.07542 0.51023 0.68567 0.0
H157 H 0.07682 0.54691 0.69806 0.0
C158 C 0.00241 0.42989 0.74384 0.0
C159 C 0.01357 0.44724 0.77998 0.0
C160 C 0.0023 0.44503 0.70792 0.0
C161 C 0.01335 0.47775 0.70752 0.0
C162 C 0.02377 0.49495 0.7438 0.0
H163 H 0.97959 0.58315 0.5208 0.0
H164 H 0.97838 0.55421 0.58198 0.0
C165 C 0.02408 0.47988 0.77966 0.0
C166 C 0.01367 0.49383 0.66923 0.0
H167 H 0.06211 0.55417 0.60585 0.0
C168 C 0.98509 0.48323 0.64823 0.0
C169 C 0.04192 0.51924 0.65325 0.0
C170 C 0.0737 0.53043 0.67297 0.0
C171 C 0.98388 0.49776 0.61208 0.0
C172 C 0.01191 0.52405 0.59704 0.0
C173 C 0.04058 0.53424 0.61765 0.0
C174 C 0.01217 0.54121 0.55979 0.0
C175 C 0.95271 0.48445 0.59001 0.0
C176 C 0.03219 0.54426 0.52741 0.0
C177 C 0.03324 0.56114 0.49268 0.0
C178 C 0.01428 0.5753 0.48968 0.0
C179 C 0.99429 0.57228 0.52213 0.0
C180 C 0.99341 0.55557 0.55699 0.0
H181 H 0.93621 0.45942 0.59871 0.0
H182 H 0.94129 0.49855 0.59796 0.0
H183 H 0.95619 0.48558 0.5567 0.0
H184 H 0.04699 0.53351 0.529 0.0
H185 H 0.0489 0.56309 0.46817 0.0
H186 H 0.54354 0.01152 0.98017 0.0
H187 H 0.51563 0.00963 0.91768 0.0
H188 H 0.58386 0.99756 0.84822 0.0
H189 H 0.61155 0.99886 0.91059 0.0
H190 H 0.53878 0.04996 0.8523 0.0
H191 H 0.4999 0.92644 0.80519 0.0
H192 H 0.51431 0.94097 0.8555 0.0
H193 H 0.54169 0.95 0.81434 0.0
C194 C 0.55242 0.00818 0.95161 0.0
C195 C 0.57964 0.0052 0.95026 0.0
C196 C 0.5365 0.00716 0.91596 0.0
C197 C 0.54742 0.00303 0.87837 0.0
C198 C 0.57462 1.00007 0.87696 0.0
H199 H 0.50118 0.04793 0.64215 0.0
H200 H 0.52771 0.04618 0.70429 0.0
C201 C 0.5905 1.00099 0.9126 0.0
C202 C 0.53111 0.00312 0.84055 0.0
H203 H 0.49354 0.9591 0.75689 0.0
C204 C 0.52879 0.03006 0.83149 0.0
C205 C 0.51783 0.977 0.81367 0.0
C206 C 0.51824 0.94683 0.82275 0.0
C207 C 0.51394 0.03178 0.79597 0.0
C208 C 0.50153 0.00606 0.7685 0.0
C209 C 0.50341 0.97892 0.77782 0.0
C210 C 0.48586 0.00661 0.73034 0.0
C211 C 0.51116 0.06088 0.78848 0.0
C212 C 0.4538 0.98441 0.72398 0.0
C213 C 0.43865 0.98527 0.6885 0.0
C214 C 0.45537 0.00825 0.65864 0.0
C215 C 0.48766 0.03006 0.66471 0.0
C216 C 0.50279 0.02919 0.70025 0.0
H217 H 0.51485 0.07479 0.81664 0.0
H218 H 0.52945 0.07637 0.76623 0.0
H219 H 0.48757 0.05431 0.7758 0.0
H220 H 0.44038 0.96671 0.74677 0.0
H221 H 0.41377 0.9681 0.68462 0.0
H222 H 0.62008 0.56507 0.08651 0.0
H223 H 0.59325 0.5383 0.0237 0.0
H224 H 0.51259 0.54734 0.05694 0.0
H225 H 0.53909 0.57392 0.12005 0.0
H226 H 0.52057 0.47906 0.02005 0.0
H227 H 0.5515 0.59038 0.93664 0.0
H228 H 0.5763 0.58944 0.97666 0.0
H229 H 0.53908 0.58648 0.9888 0.0
C230 C 0.59657 0.56122 0.08055 0.0
C231 C 0.58168 0.57161 0.10815 0.0
C232 C 0.58132 0.54594 0.04473 0.0
C233 C 0.5511 0.54106 0.03582 0.0
C234 C 0.53599 0.55105 0.06341 0.0
H235 H 0.43137 0.47568 0.82367 0.0
H236 H 0.45856 0.50077 0.88678 0.0
C237 C 0.55113 0.56614 0.09939 0.0
C238 C 0.53548 0.52583 0.99734 0.0
H239 H 0.52009 0.5422 0.90239 0.0
C240 C 0.52045 0.49274 0.99421 0.0
C241 C 0.53534 0.5439 0.96403 0.0
C242 C 0.55146 0.57956 0.96627 0.0
C243 C 0.50477 0.47709 0.95851 0.0
C244 C 0.50495 0.49519 0.92482 0.0
C245 C 0.52007 0.52836 0.92813 0.0
C246 C 0.48898 0.48019 0.88614 0.0
C247 C 0.48745 0.44132 0.95769 0.0
C248 C 0.49743 0.46073 0.86437 0.0
C249 C 0.48173 0.44614 0.82842 0.0
C250 C 0.45764 0.45116 0.81331 0.0
C251 C 0.44983 0.47135 0.83456 0.0
C252 C 0.46534 0.4857 0.87063 0.0
H253 H 0.48211 0.43114 0.98872 0.0
H254 H 0.46489 0.43171 0.94061 0.0
H255 H 0.50253 0.43325 0.94258 0.0
H256 H 0.51617 0.45681 0.87517 0.0
H257 H 0.48841 0.43089 0.81253 0.0
H258 H 0.0591 0.44608 0.02048 0.0
H259 H 0.06012 0.47363 0.08304 0.0
H260 H 0.99169 0.4955 0.03247 0.0
H261 H 0.99011 0.46754 0.97018 0.0
H262 H 0.07559 0.53582 0.09616 0.0
H263 H 0.95083 0.4531 0.13952 0.0
H264 H 0.97095 0.4439 0.10051 0.0
H265 H 0.95511 0.46948 0.08969 0.0
C266 C 0.04427 0.45675 0.02272 0.0
C267 C 0.02435 0.45447 0.99057 0.0
C268 C 0.0449 0.47249 0.05843 0.0
C269 C 0.02558 0.48612 0.06264 0.0
C270 C 0.00625 0.48453 0.0302 0.0
H271 H 0.04162 0.62353 0.24283 0.0
H272 H 0.04334 0.59661 0.18105 0.0
C273 C 0.00551 0.4687 0.99455 0.0
C274 C 0.02574 0.50213 0.10089 0.0
H275 H 0.97806 0.50076 0.17756 0.0
C276 C 0.05431 0.52812 0.11408 0.0
C277 C 0.99804 0.49172 0.12449 0.0
C278 C 0.96705 0.46283 0.11312 0.0
C279 C 0.05581 0.54437 0.14989 0.0
C280 C 0.02784 0.53468 0.17267 0.0
C281 C 0.99941 0.50834 0.15984 0.0
C282 C 0.02752 0.55129 0.21015 0.0
C283 C 0.0874 0.57141 0.16333 0.0
C284 C 0.01737 0.53458 0.24681 0.0
C285 C 0.01606 0.5498 0.28201 0.0
C286 C 0.0248 0.58202 0.28117 0.0
C287 C 0.03494 0.59873 0.24444 0.0
C288 C 0.03613 0.58344 0.20919 0.0
H289 H 0.10742 0.57014 0.14914 0.0
H290 H 0.08922 0.59419 0.15417 0.0
H291 H 0.08994 0.57154 0.19675 0.0
H292 H 0.01047 0.50971 0.24817 0.0
H293 H 0.00811 0.5363 0.30986 0.0
H294 H 0.66196 0.71274 0.12043 0.0
H295 H 0.66476 0.76254 0.10056 0.0
H296 H 0.63178 0.77004 0.21905 0.0
H297 H 0.62842 0.72004 0.2389 0.0
H298 H 0.59868 0.77819 0.15769 0.0
H299 H 0.72796 0.8538 0.13221 0.0
H300 H 0.71027 0.81705 0.10477 0.0
H301 H 0.71104 0.81661 0.15919 0.0
C302 C 0.65566 0.72521 0.14239 0.0
C303 C 0.64499 0.71253 0.18123 0.0
C304 C 0.65744 0.75374 0.13106 0.0
C305 C 0.64886 0.77019 0.1585 0.0
C306 C 0.63864 0.75778 0.19747 0.0
H307 H 0.67472 0.95935 0.13318 0.0
H308 H 0.67762 0.91245 0.15334 0.0
C309 C 0.63677 0.72924 0.20878 0.0
C310 C 0.64865 0.79931 0.14589 0.0
H311 H 0.69541 0.87446 0.10983 0.0
C312 C 0.61985 0.79928 0.14736 0.0
C313 C 0.67636 0.82689 0.13282 0.0
C314 C 0.70824 0.82883 0.13246 0.0
C315 C 0.6179 0.82594 0.13562 0.0
C316 C 0.64539 0.85316 0.1213 0.0
C317 C 0.67431 0.85341 0.1204 0.0
C318 C 0.6446 0.88179 0.10781 0.0
C319 C 0.58651 0.82488 0.13933 0.0
C320 C 0.62557 0.88021 0.07502 0.0
C321 C 0.62377 0.9069 0.06355 0.0
C322 C 0.6412 0.9357 0.08447 0.0
C323 C 0.66095 0.93745 0.11656 0.0
C324 C 0.66267 0.91072 0.12808 0.0
H325 H 0.57017 0.80586 0.1603 0.0
H326 H 0.5898 0.8479 0.15031 0.0
H327 H 0.57505 0.82003 0.10913 0.0
H328 H 0.61193 0.85827 0.05847 0.0
H329 H 0.60853 0.90489 0.03852 0.0
H330 H 0.96541 0.68388 0.34252 0.0
H331 H 0.91903 0.68745 0.3219 0.0
H332 H 0.85868 0.58799 0.34777 0.0
H333 H 0.90487 0.5843 0.36887 0.0
H334 H 0.87687 0.6542 0.25969 0.0
H335 H 0.81475 0.62927 0.40747 0.0
H336 H 0.85585 0.64 0.40308 0.0
H337 H 0.82508 0.60008 0.3927 0.0
C338 C 0.94222 0.66284 0.34414 0.0
C339 C 0.93873 0.63383 0.35743 0.0
C340 C 0.91578 0.66491 0.33232 0.0
C341 C 0.8854 0.63809 0.33382 0.0
C342 C 0.88185 0.60912 0.34716 0.0
H343 H 0.71526 0.59816 0.2067 0.0
H344 H 0.7646 0.60221 0.23073 0.0
C345 C 0.90827 0.60701 0.35899 0.0
C346 C 0.85759 0.64007 0.31972 0.0
H347 H 0.78512 0.6277 0.34919 0.0
C348 C 0.8569 0.64864 0.27932 0.0
C349 C 0.83177 0.63319 0.34553 0.0
C350 C 0.83191 0.62541 0.38972 0.0
C351 C 0.83062 0.64959 0.26369 0.0
C352 C 0.80423 0.64137 0.28903 0.0
C353 C 0.8053 0.63373 0.32975 0.0
C354 C 0.77494 0.63978 0.27362 0.0
C355 C 0.83137 0.65951 0.22023 0.0
C356 C 0.76418 0.65925 0.29019 0.0
C357 C 0.73593 0.65694 0.27658 0.0
C358 C 0.71787 0.6349 0.24641 0.0
C359 C 0.72875 0.61548 0.22983 0.0
C360 C 0.757 0.61786 0.24338 0.0
H361 H 0.85598 0.67306 0.20844 0.0
H362 H 0.81813 0.63804 0.20118 0.0
H363 H 0.81999 0.67427 0.21701 0.0
H364 H 0.77762 0.67619 0.31373 0.0
H365 H 0.72806 0.67213 0.29002 0.0
H366 H 0.07835 0.71874 0.47256 0.0
H367 H 0.12553 0.76841 0.49161 0.0
H368 H 0.17214 0.76546 0.38193 0.0
H369 H 0.12531 0.71523 0.36329 0.0
H370 H 0.21004 0.7788 0.44593 0.0
H371 H 0.15735 0.85658 0.44861 0.0
H372 H 0.13656 0.82259 0.48075 0.0
H373 H 0.13716 0.81733 0.42686 0.0
C374 C 0.09858 0.72879 0.45238 0.0
C375 C 0.09814 0.71317 0.41639 0.0
C376 C 0.12545 0.75731 0.46315 0.0
C377 C 0.15216 0.77101 0.43781 0.0
C378 C 0.15173 0.75543 0.40181 0.0
H379 H 0.31433 0.96158 0.46921 0.0
H380 H 0.26616 0.91485 0.44465 0.0
C381 C 0.12497 0.72675 0.3912 0.0
C382 C 0.18113 0.80071 0.44984 0.0
H383 H 0.20827 0.87723 0.47961 0.0
C384 C 0.20969 0.80039 0.45299 0.0
C385 C 0.18078 0.82903 0.45847 0.0
C386 C 0.15139 0.83157 0.4531 0.0
C387 C 0.23772 0.82732 0.46549 0.0
C388 C 0.237 0.85512 0.47618 0.0
C389 C 0.20867 0.85575 0.47198 0.0
C390 C 0.26542 0.88369 0.4919 0.0
C391 C 0.2679 0.82583 0.46664 0.0
C392 C 0.28049 0.88185 0.52715 0.0
C393 C 0.30804 0.90838 0.54104 0.0
C394 C 0.32079 0.93738 0.52026 0.0
C395 C 0.30506 0.93951 0.48579 0.0
C396 C 0.27758 0.91286 0.47173 0.0
H397 H 0.2665 0.80686 0.44652 0.0
H398 H 0.28861 0.84876 0.45737 0.0
H399 H 0.27197 0.82043 0.49797 0.0
H400 H 0.27106 0.8598 0.54379 0.0
H401 H 0.31948 0.90608 0.5679 0.0
H402 H 0.41462 0.3088 0.73681 0.0
H403 H 0.41207 0.25922 0.7163 0.0
H404 H 0.36629 0.25969 0.60484 0.0
H405 H 0.36858 0.30919 0.62519 0.0
H406 H 0.33863 0.19924 0.64523 0.0
H407 H 0.46894 0.255 0.62558 0.0
H408 H 0.45631 0.26168 0.67393 0.0
H409 H 0.44912 0.27789 0.62898 0.0
C410 C 0.40384 0.29824 0.70804 0.0
C411 C 0.39196 0.31295 0.68249 0.0
C412 C 0.40254 0.27002 0.69631 0.0
C413 C 0.38939 0.25608 0.65883 0.0
C414 C 0.37664 0.27018 0.63382 0.0
H415 H 0.41549 0.11554 0.52981 0.0
H416 H 0.41154 0.16193 0.54957 0.0
C417 C 0.37801 0.29845 0.64547 0.0
C418 C 0.38954 0.22715 0.6453 0.0
H419 H 0.43889 0.19916 0.61925 0.0
C420 C 0.36051 0.19916 0.6395 0.0
C421 C 0.41814 0.22733 0.63735 0.0
C422 C 0.44994 0.25711 0.6414 0.0
C423 C 0.35936 0.1711 0.62657 0.0
C424 C 0.38799 0.17109 0.61963 0.0
C425 C 0.41698 0.19922 0.62484 0.0
C426 C 0.38854 0.1422 0.60685 0.0
C427 C 0.32756 0.14183 0.61988 0.0
C428 C 0.37689 0.11575 0.63253 0.0
C429 C 0.37915 0.08924 0.62135 0.0
C430 C 0.39319 0.08879 0.58433 0.0
C431 C 0.40447 0.11516 0.55846 0.0
C432 C 0.40228 0.14168 0.56971 0.0
H433 H 0.30831 0.14765 0.61708 0.0
H434 H 0.32784 0.12904 0.59217 0.0
H435 H 0.322 0.1256 0.64605 0.0
H436 H 0.36671 0.1159 0.66163 0.0
H437 H 0.37038 0.06933 0.64199 0.0
H438 H 0.13163 0.442 0.87318 0.0
H439 H 0.1773 0.43784 0.85069 0.0
H440 H 0.11486 0.34163 0.81195 0.0
H441 H 0.06902 0.34572 0.83393 0.0
H442 H 0.19728 0.39496 0.87413 0.0
H443 H 0.16778 0.38491 0.71028 0.0
H444 H 0.14937 0.39784 0.7473 0.0
H445 H 0.13678 0.35645 0.74231 0.0
C446 C 0.12763 0.41994 0.85993 0.0
C447 C 0.09676 0.39425 0.85507 0.0
C448 C 0.15373 0.41759 0.84716 0.0
C449 C 0.1494 0.38959 0.82916 0.0
C450 C 0.11865 0.36364 0.8251 0.0
H451 H 0.30295 0.3493 0.7826 0.0
H452 H 0.25372 0.34609 0.80628 0.0
C453 C 0.09253 0.36597 0.83785 0.0
C454 C 0.17715 0.38774 0.81442 0.0
H455 H 0.21176 0.37962 0.72878 0.0
C456 C 0.20044 0.3915 0.84239 0.0
C457 C 0.18128 0.38354 0.77293 0.0
C458 C 0.15766 0.38072 0.74132 0.0
C459 C 0.22786 0.39123 0.82994 0.0
C460 C 0.23181 0.38664 0.78851 0.0
C461 C 0.20848 0.38282 0.76057 0.0
C462 C 0.26082 0.38752 0.7732 0.0
C463 C 0.2528 0.39679 0.86103 0.0
C464 C 0.28058 0.41129 0.74589 0.0
C465 C 0.30853 0.41307 0.73218 0.0
C466 C 0.31716 0.39099 0.7454 0.0
C467 C 0.29697 0.36672 0.77204 0.0
C468 C 0.26896 0.36496 0.78576 0.0
H469 H 0.24938 0.40675 0.88962 0.0
H470 H 0.25151 0.37391 0.86823 0.0
H471 H 0.27688 0.41323 0.84913 0.0
H472 H 0.27465 0.42885 0.73572 0.0
H473 H 0.32357 0.432 0.7116 0.0
H474 H 0.96336 0.3062 0.96542 0.0
H475 H 0.91625 0.25756 0.98784 0.0
H476 H 0.8591 0.27453 0.90305 0.0
H477 H 0.90613 0.32315 0.88029 0.0
H478 H 0.85972 0.25193 0.02111 0.0
H479 H 0.83728 0.18222 0.87952 0.0
H480 H 0.87474 0.21734 0.8901 0.0
H481 H 0.84166 0.22086 0.87297 0.0
C482 C 0.94079 0.29947 0.95138 0.0
C483 C 0.93842 0.31839 0.92098 0.0
C484 C 0.91392 0.27174 0.96428 0.0
C485 C 0.88431 0.26231 0.94678 0.0
C486 C 0.88185 0.28116 0.91646 0.0
H487 H 0.69718 0.12757 0.03593 0.0
H488 H 0.74604 0.17511 0.01507 0.0
C489 C 0.9087 0.30896 0.90362 0.0
C490 C 0.85585 0.23318 0.96102 0.0
H491 H 0.79757 0.16014 0.93032 0.0
C492 C 0.84616 0.2318 1.00135 0.0
C493 C 0.83847 0.20688 0.93522 0.0
C494 C 0.84863 0.20663 0.89212 0.0
C495 C 0.81912 0.20497 0.01641 0.0
C496 C 0.80122 0.17904 0.99028 0.0
C497 C 0.81125 0.18019 0.95016 0.0
C498 C 0.77195 0.15046 0.00396 0.0
C499 C 0.81011 0.20442 0.06024 0.0
C500 C 0.77025 0.12083 0.00409 0.0
C501 C 0.74238 0.09364 0.01592 0.0
C502 C 0.71566 0.09561 0.0275 0.0
C503 C 0.71744 0.12534 0.02735 0.0
C504 C 0.74535 0.15253 0.01562 0.0
H505 H 0.83019 0.22253 0.07842 0.0
H506 H 0.79036 0.20954 0.06221 0.0
H507 H 0.80196 0.18072 0.07385 0.0
H508 H 0.79051 0.11876 0.99502 0.0
H509 H 0.74167 0.07104 0.01561 0.0
loop_
_geom_bond_atom_site_label_1
_geom_bond_atom_site_label_2
_geom_bond_distance
_geom_bond_site_symmetry_2
_ccdc_geom_bond_type
In0 O1 2.294 1_544 S
In0 O2 2.326 . S
In0 O6 2.266 1_545 S
In0 O7 2.326 1_545 S
In0 O8 2.266 . S
In0 O9 2.326 1_545 S
In0 O11 2.294 . S
In0 O12 2.335 . S
O1 In0 2.294 1_566 S
O1 C10 1.240 1_565 S
O2 In0 2.326 . S
O2 C10 1.252 1_554 S
C3 O6 1.252 . S
C3 O7 1.260 . S
C4 O11 1.240 . S
C4 O12 1.258 . S
C5 O8 1.252 . S
C5 O9 1.260 1_545 S
O6 In0 2.266 1_565 S
O6 C3 1.252 . S
O7 In0 2.326 1_565 S
O7 C3 1.260 . S
O8 In0 2.266 . S
O8 C5 1.252 . S
O9 In0 2.326 1_565 S
O9 C5 1.260 1_565 S
C10 O1 1.240 1_545 S
C10 O2 1.252 1_556 S
O11 In0 2.294 . S
O11 C4 1.240 . S
O12 In0 2.335 . S
O12 C4 1.258 . S
In13 O14 2.294 . S
In13 O15 2.326 . S
In13 O19 2.266 . S
In13 O20 2.326 . S
In13 O21 2.266 . S
In13 O22 2.326 . S
In13 O24 2.294 . S
In13 O25 2.326 . S
O14 In13 2.294 . S
O14 C23 1.240 . S
O15 In13 2.326 . S
O15 C23 1.252 . S
C16 O19 1.252 . S
C16 O20 1.260 . S
C17 O24 1.240 . S
C17 O25 1.252 . S
C18 O21 1.252 . S
C18 O22 1.260 . S
O19 In13 2.266 . S
O19 C16 1.252 . S
O20 In13 2.326 . S
O20 C16 1.260 . S
O21 In13 2.266 . S
O21 C18 1.252 . S
O22 In13 2.326 . S
O22 C18 1.260 . S
C23 O14 1.240 . S
C23 O15 1.252 . S
O24 In13 2.294 . S
O24 C17 1.240 . S
O25 In13 2.326 . S
O25 C17 1.252 . S
In26 O27 2.294 . S
In26 O28 2.326 1_455 S
In26 O32 2.266 . S
In26 O33 2.326 . S
In26 O34 2.266 . S
In26 O35 2.326 . S
In26 O37 2.294 1_455 S
In26 O38 2.326 1_455 S
O27 In26 2.294 . S
O27 C36 1.240 . S
O28 In26 2.326 1_655 S
O28 C36 1.252 1_655 S
C29 O32 1.252 . S
C29 O33 1.260 . S
C30 O37 1.240 . S
C30 O38 1.252 . S
C31 O34 1.252 . S
C31 O35 1.260 . S
O32 In26 2.266 . S
O32 C29 1.252 . S
O33 In26 2.326 . S
O33 C29 1.260 . S
O34 In26 2.266 . S
O34 C31 1.252 . S
O35 In26 2.326 . S
O35 C31 1.260 . S
C36 O27 1.240 . S
C36 O28 1.252 1_455 S
O37 In26 2.294 1_655 S
O37 C30 1.240 . S
O38 In26 2.326 1_655 S
O38 C30 1.252 . S
In39 O40 2.294 1_545 S
In39 O41 2.326 1_545 S
In39 O45 2.266 1_545 S
In39 O46 2.326 . S
In39 O47 2.266 . S
In39 O48 2.326 . S
In39 O50 2.294 . S
In39 O51 2.326 1_545 S
O40 In39 2.294 1_565 S
O40 C49 1.240 . S
O41 In39 2.326 1_565 S
O41 C49 1.252 . S
C42 O45 1.252 1_545 S
C42 O46 1.260 . S
C43 O50 1.240 . S
C43 O51 1.252 1_545 S
C44 O47 1.252 . S
C44 O48 1.260 . S
O45 In39 2.266 1_565 S
O45 C42 1.252 1_565 S
O46 In39 2.326 . S
O46 C42 1.260 . S
O47 In39 2.266 . S
O47 C44 1.252 . S
O48 In39 2.326 . S
O48 C44 1.260 . S
C49 O40 1.240 . S
C49 O41 1.252 . S
O50 In39 2.294 . S
O50 C43 1.240 . S
O51 In39 2.326 1_565 S
O51 C43 1.252 1_565 S
In52 O53 2.294 . S
In52 O54 2.326 . S
In52 O58 2.266 . S
In52 O59 2.326 . S
In52 O60 2.266 . S
In52 O61 2.326 . S
In52 O63 2.294 . S
In52 O64 2.326 . S
O53 In52 2.294 . S
O53 C62 1.240 . S
O54 In52 2.326 . S
O54 C62 1.252 . S
C55 O58 1.252 . S
C55 O59 1.260 . S
C56 O63 1.240 . S
C56 O64 1.252 . S
C57 O60 1.252 . S
C57 O61 1.260 . S
O58 In52 2.266 . S
O58 C55 1.252 . S
O59 In52 2.326 . S
O59 C55 1.260 . S
O60 In52 2.266 . S
O60 C57 1.252 . S
O61 In52 2.326 . S
O61 C57 1.260 . S
C62 O53 1.240 . S
C62 O54 1.252 . S
O63 In52 2.294 . S
O63 C56 1.240 . S
O64 In52 2.326 . S
O64 C56 1.252 . S
In65 O66 2.294 . S
In65 O67 2.326 . S
In65 O71 2.266 . S
In65 O72 2.326 1_455 S
In65 O73 2.266 1_455 S
In65 O74 2.326 1_455 S
In65 O76 2.294 . S
In65 O77 2.326 . S
O66 In65 2.294 . S
O66 C75 1.240 . S
O67 In65 2.326 . S
O67 C75 1.252 . S
C68 O71 1.252 . S
C68 O72 1.260 1_455 S
C69 O76 1.240 . S
C69 O77 1.252 . S
C70 O73 1.252 . S
C70 O74 1.260 . S
O71 In65 2.266 . S
O71 C68 1.252 . S
O72 In65 2.326 1_655 S
O72 C68 1.260 1_655 S
O73 In65 2.266 1_655 S
O73 C70 1.252 . S
O74 In65 2.326 1_655 S
O74 C70 1.260 . S
C75 O66 1.240 . S
C75 O67 1.252 . S
O76 In65 2.294 . S
O76 C69 1.240 . S
O77 In65 2.326 . S
O77 C69 1.252 . S
H78 C86 0.929 . S
H79 C88 0.930 . S
H80 C90 0.930 . S
H81 C93 0.929 . S
H82 C96 0.930 . S
H83 C98 0.960 . S
H84 C98 0.960 . S
H85 C98 0.960 . S
C86 H78 0.929 . S
C86 C87 1.377 1_565 S
C86 C88 1.384 . S
C87 C86 1.377 1_545 S
C87 C93 1.390 . S
C88 H79 0.930 . S
C88 C86 1.384 . S
C88 C89 1.372 1_565 S
C89 C88 1.372 1_545 S
C89 C90 1.400 . S
C89 C94 1.490 . S
C90 H80 0.930 . S
C90 C89 1.400 . S
C90 C93 1.386 . S
H91 C107 0.930 . S
H92 C108 0.931 . S
C93 H81 0.929 . S
C93 C87 1.390 . S
C93 C90 1.386 . S
C94 C89 1.490 . S
C94 C96 1.395 1_545 S
C94 C97 1.403 . S
H95 C101 0.930 . S
C96 H82 0.930 . S
C96 C94 1.395 1_565 S
C96 C99 1.403 . S
C97 C94 1.403 . S
C97 C98 1.524 . S
C97 C101 1.400 . S
C98 H83 0.960 . S
C98 H84 0.960 . S
C98 H85 0.960 . S
C98 C97 1.524 . S
C99 C96 1.403 . S
C99 C100 1.373 1_565 S
C99 C103 1.495 . S
C100 C99 1.373 1_545 S
C100 C101 1.398 . S
C100 C102 1.486 . S
C101 H95 0.930 . S
C101 C97 1.400 . S
C101 C100 1.398 . S
C102 C100 1.486 . S
C102 C104 1.381 1_545 S
C102 C108 1.383 . S
C103 C99 1.495 . S
C103 H109 0.959 . S
C103 H110 0.961 . S
C103 H111 0.960 . S
C104 C102 1.381 1_565 S
C104 C105 1.394 . S
C104 H112 0.930 . S
C105 C104 1.394 . S
C105 C106 1.383 1_565 S
C105 H113 0.929 . S
C106 C105 1.383 1_545 S
C106 C107 1.377 . S
C107 H91 0.930 . S
C107 C106 1.377 . S
C107 C108 1.379 . S
C108 H92 0.931 . S
C108 C102 1.383 . S
C108 C107 1.379 . S
H109 C103 0.959 . S
H110 C103 0.961 . S
H111 C103 0.960 . S
H112 C104 0.930 . S
H113 C105 0.929 . S
H114 C122 0.929 . S
H115 C124 0.930 . S
H116 C126 0.930 . S
H117 C129 0.929 . S
H118 C132 0.930 . S
H119 C134 0.960 . S
H120 C134 0.960 . S
H121 C134 0.960 . S
C122 H114 0.929 . S
C122 C123 1.377 . S
C122 C124 1.384 . S
C123 C122 1.377 . S
C123 C129 1.390 . S
C124 H115 0.930 . S
C124 C122 1.384 . S
C124 C125 1.372 . S
C125 C124 1.372 . S
C125 C126 1.400 . S
C125 C130 1.490 . S
C126 H116 0.930 . S
C126 C125 1.400 . S
C126 C129 1.386 . S
H127 C143 0.930 . S
H128 C144 0.931 . S
C129 H117 0.929 . S
C129 C123 1.390 . S
C129 C126 1.386 . S
C130 C125 1.490 . S
C130 C132 1.395 . S
C130 C133 1.403 . S
H131 C137 0.930 . S
C132 H118 0.930 . S
C132 C130 1.395 . S
C132 C135 1.403 . S
C133 C130 1.403 . S
C133 C134 1.524 . S
C133 C137 1.400 . S
C134 H119 0.960 . S
C134 H120 0.960 . S
C134 H121 0.960 . S
C134 C133 1.524 . S
C135 C132 1.403 . S
C135 C136 1.392 . S
C135 C139 1.495 . S
C136 C135 1.392 . S
C136 C137 1.385 . S
C136 C138 1.478 . S
C137 H131 0.930 . S
C137 C133 1.400 . S
C137 C136 1.385 . S
C138 C136 1.478 . S
C138 C140 1.381 . S
C138 C144 1.383 . S
C139 C135 1.495 . S
C139 H145 0.959 . S
C139 H146 0.961 . S
C139 H147 0.960 . S
C140 C138 1.381 . S
C140 C141 1.394 . S
C140 H148 0.930 . S
C141 C140 1.394 . S
C141 C142 1.383 . S
C141 H149 0.929 . S
C142 C141 1.383 . S
C142 C143 1.377 . S
C143 H127 0.930 . S
C143 C142 1.377 . S
C143 C144 1.379 . S
C144 H128 0.931 . S
C144 C138 1.383 . S
C144 C143 1.379 . S
H145 C139 0.959 . S
H146 C139 0.961 . S
H147 C139 0.960 . S
H148 C140 0.930 . S
H149 C141 0.929 . S
H150 C158 0.929 . S
H151 C160 0.930 . S
H152 C162 0.930 . S
H153 C165 0.929 . S
H154 C168 0.930 . S
H155 C170 0.960 . S
H156 C170 0.960 . S
H157 C170 0.960 . S
C158 H150 0.929 . S
C158 C159 1.377 . S
C158 C160 1.384 . S
C159 C158 1.377 . S
C159 C165 1.390 . S
C160 H151 0.930 . S
C160 C158 1.384 . S
C160 C161 1.372 . S
C161 C160 1.372 . S
C161 C162 1.400 . S
C161 C166 1.490 . S
C162 H152 0.930 . S
C162 C161 1.400 . S
C162 C165 1.386 . S
H163 C179 0.930 . S
H164 C180 0.931 . S
C165 H153 0.929 . S
C165 C159 1.390 . S
C165 C162 1.386 . S
C166 C161 1.490 . S
C166 C168 1.395 1_455 S
C166 C169 1.403 . S
H167 C173 0.930 . S
C168 H154 0.930 . S
C168 C166 1.395 1_655 S
C168 C171 1.403 . S
C169 C166 1.403 . S
C169 C170 1.524 . S
C169 C173 1.400 . S
C170 H155 0.960 . S
C170 H156 0.960 . S
C170 H157 0.960 . S
C170 C169 1.524 . S
C171 C168 1.403 . S
C171 C172 1.392 1_655 S
C171 C175 1.495 . S
C172 C171 1.392 1_455 S
C172 C173 1.385 . S
C172 C174 1.478 . S
C173 H167 0.930 . S
C173 C169 1.400 . S
C173 C172 1.385 . S
C174 C172 1.478 . S
C174 C176 1.381 . S
C174 C180 1.383 . S
C175 C171 1.495 . S
C175 H181 0.959 . S
C175 H182 0.961 . S
C175 H183 0.960 . S
C176 C174 1.381 . S
C176 C177 1.394 . S
C176 H184 0.930 . S
C177 C176 1.394 . S
C177 C178 1.383 . S
C177 H185 0.929 . S
C178 C177 1.383 . S
C178 C179 1.377 . S
C179 H163 0.930 . S
C179 C178 1.377 . S
C179 C180 1.379 . S
C180 H164 0.931 . S
C180 C174 1.383 . S
C180 C179 1.379 . S
H181 C175 0.959 . S
H182 C175 0.961 . S
H183 C175 0.960 . S
H184 C176 0.930 . S
H185 C177 0.929 . S
H186 C194 0.925 1_565 S
H187 C196 0.933 1_565 S
H188 C198 0.930 . S
H189 C201 0.929 . S
H190 C204 0.930 . S
H191 C206 0.960 . S
H192 C206 0.960 . S
H193 C206 0.957 1_545 S
C194 H186 0.925 1_545 S
C194 C195 1.377 . S
C194 C196 1.384 . S
C195 C194 1.377 . S
C195 C201 1.390 . S
C196 H187 0.933 1_545 S
C196 C194 1.384 . S
C196 C197 1.372 . S
C197 C196 1.372 . S
C197 C198 1.400 . S
C197 C202 1.490 . S
C198 H188 0.930 . S
C198 C197 1.400 . S
C198 C201 1.386 . S
H199 C215 0.930 . S
H200 C216 0.931 . S
C201 H189 0.929 . S
C201 C195 1.390 . S
C201 C198 1.386 . S
C202 C197 1.490 . S
C202 C204 1.395 . S
C202 C205 1.403 . S
H203 C209 0.917 1_565 S
C204 H190 0.930 . S
C204 C202 1.395 . S
C204 C207 1.403 . S
C205 C202 1.403 . S
C205 C206 1.524 1_545 S
C205 C209 1.400 . S
C206 H191 0.960 . S
C206 H192 0.960 . S
C206 H193 0.957 1_565 S
C206 C205 1.524 1_565 S
C207 C204 1.403 . S
C207 C208 1.392 . S
C207 C211 1.495 . S
C208 C207 1.392 . S
C208 C209 1.385 . S
C208 C210 1.478 . S
C209 H203 0.917 1_545 S
C209 C205 1.400 . S
C209 C208 1.385 . S
C210 C208 1.478 . S
C210 C212 1.381 . S
C210 C216 1.383 . S
C211 C207 1.495 . S
C211 H217 0.959 . S
C211 H218 0.961 . S
C211 H219 0.960 . S
C212 C210 1.381 . S
C212 C213 1.394 . S
C212 H220 0.930 1_545 S
C213 C212 1.394 . S
C213 C214 1.383 . S
C213 H221 0.929 1_545 S
C214 C213 1.383 . S
C214 C215 1.377 . S
C215 H199 0.930 . S
C215 C214 1.377 . S
C215 C216 1.379 . S
C216 H200 0.931 . S
C216 C210 1.383 . S
C216 C215 1.379 . S
H217 C211 0.959 . S
H218 C211 0.961 . S
H219 C211 0.960 . S
H220 C212 0.930 1_565 S
H221 C213 0.929 1_565 S
H222 C230 0.929 . S
H223 C232 0.930 . S
H224 C234 0.930 . S
H225 C237 0.929 . S
H226 C240 0.930 1_554 S
H227 C242 0.960 . S
H228 C242 0.960 . S
H229 C242 0.960 . S
C230 H222 0.929 . S
C230 C231 1.377 . S
C230 C232 1.384 . S
C231 C230 1.377 . S
C231 C237 1.390 . S
C232 H223 0.930 . S
C232 C230 1.384 . S
C232 C233 1.372 . S
C233 C232 1.372 . S
C233 C234 1.400 . S
C233 C238 1.468 1_554 S
C234 H224 0.930 . S
C234 C233 1.400 . S
C234 C237 1.386 . S
H235 C251 0.930 . S
H236 C252 0.931 . S
C237 H225 0.929 . S
C237 C231 1.390 . S
C237 C234 1.386 . S
C238 C233 1.468 1_556 S
C238 C240 1.396 . S
C238 C241 1.423 . S
H239 C245 0.930 . S
C240 H226 0.930 1_556 S
C240 C238 1.396 . S
C240 C243 1.403 . S
C241 C238 1.423 . S
C241 C242 1.524 . S
C241 C245 1.400 . S
C242 H227 0.960 . S
C242 H228 0.960 . S
C242 H229 0.960 . S
C242 C241 1.524 . S
C243 C240 1.403 . S
C243 C244 1.392 . S
C243 C247 1.495 . S
C244 C243 1.392 . S
C244 C245 1.385 . S
C244 C246 1.478 . S
C245 H239 0.930 . S
C245 C241 1.400 . S
C245 C244 1.385 . S
C246 C244 1.478 . S
C246 C248 1.381 . S
C246 C252 1.383 . S
C247 C243 1.495 . S
C247 H253 0.959 . S
C247 H254 0.961 . S
C247 H255 0.960 . S
C248 C246 1.381 . S
C248 C249 1.394 . S
C248 H256 0.930 . S
C249 C248 1.394 . S
C249 C250 1.383 . S
C249 H257 0.929 . S
C250 C249 1.383 . S
C250 C251 1.377 . S
C251 H235 0.930 . S
C251 C250 1.377 . S
C251 C252 1.379 . S
C252 H236 0.931 . S
C252 C246 1.383 . S
C252 C251 1.379 . S
H253 C247 0.959 . S
H254 C247 0.961 . S
H255 C247 0.960 . S
H256 C248 0.930 . S
H257 C249 0.929 . S
H258 C266 0.929 1_655 S
H259 C268 0.932 1_655 S
H260 C270 0.930 . S
H261 C273 0.929 . S
H262 C276 0.930 . S
H263 C278 0.960 . S
H264 C278 0.960 . S
H265 C278 0.960 . S
C266 H258 0.929 1_455 S
C266 C267 1.377 1_554 S
C266 C268 1.384 . S
C267 C266 1.377 1_556 S
C267 C273 1.390 . S
C268 H259 0.932 1_455 S
C268 C266 1.384 . S
C268 C269 1.372 . S
C269 C268 1.372 . S
C269 C270 1.400 . S
C269 C274 1.490 . S
C270 H260 0.930 . S
C270 C269 1.400 . S
C270 C273 1.386 1_554 S
H271 C287 0.930 . S
H272 C288 0.931 . S
C273 H261 0.929 . S
C273 C267 1.390 . S
C273 C270 1.386 1_556 S
C274 C269 1.490 . S
C274 C276 1.395 . S
C274 C277 1.403 1_455 S
H275 C281 0.930 . S
C276 H262 0.930 . S
C276 C274 1.395 . S
C276 C279 1.403 . S
C277 C274 1.403 1_655 S
C277 C278 1.524 . S
C277 C281 1.400 . S
C278 H263 0.960 . S
C278 H264 0.960 . S
C278 H265 0.960 . S
C278 C277 1.524 . S
C279 C276 1.403 . S
C279 C280 1.392 . S
C279 C283 1.495 . S
C280 C279 1.392 . S
C280 C281 1.385 1_455 S
C280 C282 1.478 . S
C281 H275 0.930 . S
C281 C277 1.400 . S
C281 C280 1.385 1_655 S
C282 C280 1.478 . S
C282 C284 1.381 . S
C282 C288 1.383 . S
C283 C279 1.495 . S
C283 H289 0.959 . S
C283 H290 0.961 . S
C283 H291 0.960 . S
C284 C282 1.381 . S
C284 C285 1.394 . S
C284 H292 0.937 1_455 S
C285 C284 1.394 . S
C285 C286 1.383 . S
C285 H293 0.929 1_455 S
C286 C285 1.383 . S
C286 C287 1.377 . S
C287 H271 0.930 . S
C287 C286 1.377 . S
C287 C288 1.379 . S
C288 H272 0.931 . S
C288 C282 1.383 . S
C288 C287 1.379 . S
H289 C283 0.959 . S
H290 C283 0.961 . S
H291 C283 0.960 . S
H292 C284 0.937 1_655 S
H293 C285 0.929 1_655 S
H294 C302 0.929 . S
H295 C304 0.930 . S
H296 C306 0.930 . S
H297 C309 0.929 . S
H298 C312 0.930 . S
H299 C314 0.960 . S
H300 C314 0.960 . S
H301 C314 0.960 . S
C302 H294 0.929 . S
C302 C303 1.377 . S
C302 C304 1.384 . S
C303 C302 1.377 . S
C303 C309 1.390 . S
C304 H295 0.930 . S
C304 C302 1.384 . S
C304 C305 1.372 . S
C305 C304 1.372 . S
C305 C306 1.400 . S
C305 C310 1.490 . S
C306 H296 0.930 . S
C306 C305 1.400 . S
C306 C309 1.386 . S
H307 C323 0.930 . S
H308 C324 0.931 . S
C309 H297 0.929 . S
C309 C303 1.390 . S
C309 C306 1.386 . S
C310 C305 1.490 . S
C310 C312 1.395 . S
C310 C313 1.403 . S
H311 C317 0.930 . S
C312 H298 0.930 . S
C312 C310 1.395 . S
C312 C315 1.403 . S
C313 C310 1.403 . S
C313 C314 1.524 . S
C313 C317 1.400 . S
C314 H299 0.960 . S
C314 H300 0.960 . S
C314 H301 0.960 . S
C314 C313 1.524 . S
C315 C312 1.403 . S
C315 C316 1.392 . S
C315 C319 1.495 . S
C316 C315 1.392 . S
C316 C317 1.385 . S
C316 C318 1.478 . S
C317 H311 0.930 . S
C317 C313 1.400 . S
C317 C316 1.385 . S
C318 C316 1.478 . S
C318 C320 1.381 . S
C318 C324 1.383 . S
C319 C315 1.495 . S
C319 H325 0.959 . S
C319 H326 0.961 . S
C319 H327 0.960 . S
C320 C318 1.381 . S
C320 C321 1.394 . S
C320 H328 0.930 . S
C321 C320 1.394 . S
C321 C322 1.383 . S
C321 H329 0.929 . S
C322 C321 1.383 . S
C322 C323 1.377 . S
C323 H307 0.930 . S
C323 C322 1.377 . S
C323 C324 1.379 . S
C324 H308 0.931 . S
C324 C318 1.383 . S
C324 C323 1.379 . S
H325 C319 0.959 . S
H326 C319 0.961 . S
H327 C319 0.960 . S
H328 C320 0.930 . S
H329 C321 0.929 . S
H330 C338 0.929 . S
H331 C340 0.930 . S
H332 C342 0.930 . S
H333 C345 0.929 . S
H334 C348 0.930 . S
H335 C350 0.960 . S
H336 C350 0.960 . S
H337 C350 0.960 . S
C338 H330 0.929 . S
C338 C339 1.377 . S
C338 C340 1.384 . S
C339 C338 1.377 . S
C339 C345 1.390 . S
C340 H331 0.930 . S
C340 C338 1.384 . S
C340 C341 1.372 . S
C341 C340 1.372 . S
C341 C342 1.400 . S
C341 C346 1.490 . S
C342 H332 0.930 . S
C342 C341 1.400 . S
C342 C345 1.386 . S
H343 C359 0.930 . S
H344 C360 0.931 . S
C345 H333 0.929 . S
C345 C339 1.390 . S
C345 C342 1.386 . S
C346 C341 1.490 . S
C346 C348 1.395 . S
C346 C349 1.403 . S
H347 C353 0.930 . S
C348 H334 0.930 . S
C348 C346 1.395 . S
C348 C351 1.403 . S
C349 C346 1.403 . S
C349 C350 1.524 . S
C349 C353 1.400 . S
C350 H335 0.960 . S
C350 H336 0.960 . S
C350 H337 0.960 . S
C350 C349 1.524 . S
C351 C348 1.403 . S
C351 C352 1.392 . S
C351 C355 1.495 . S
C352 C351 1.392 . S
C352 C353 1.385 . S
C352 C354 1.478 . S
C353 H347 0.930 . S
C353 C349 1.400 . S
C353 C352 1.385 . S
C354 C352 1.478 . S
C354 C356 1.381 . S
C354 C360 1.383 . S
C355 C351 1.495 . S
C355 H361 0.959 . S
C355 H362 0.961 . S
C355 H363 0.960 . S
C356 C354 1.381 . S
C356 C357 1.394 . S
C356 H364 0.930 . S
C357 C356 1.394 . S
C357 C358 1.383 . S
C357 H365 0.929 . S
C358 C357 1.383 . S
C358 C359 1.377 . S
C359 H343 0.930 . S
C359 C358 1.377 . S
C359 C360 1.379 . S
C360 H344 0.931 . S
C360 C354 1.383 . S
C360 C359 1.379 . S
H361 C355 0.959 . S
H362 C355 0.961 . S
H363 C355 0.960 . S
H364 C356 0.930 . S
H365 C357 0.929 . S
H366 C374 0.929 . S
H367 C376 0.930 . S
H368 C378 0.930 . S
H369 C381 0.929 . S
H370 C384 0.930 . S
H371 C386 0.960 . S
H372 C386 0.960 . S
H373 C386 0.960 . S
C374 H366 0.929 . S
C374 C375 1.377 . S
C374 C376 1.384 . S
C375 C374 1.377 . S
C375 C381 1.390 . S
C376 H367 0.930 . S
C376 C374 1.384 . S
C376 C377 1.372 . S
C377 C376 1.372 . S
C377 C378 1.400 . S
C377 C382 1.490 . S
C378 H368 0.930 . S
C378 C377 1.400 . S
C378 C381 1.386 . S
H379 C395 0.930 . S
H380 C396 0.931 . S
C381 H369 0.929 . S
C381 C375 1.390 . S
C381 C378 1.386 . S
C382 C377 1.490 . S
C382 C384 1.395 . S
C382 C385 1.403 . S
H383 C389 0.930 . S
C384 H370 0.930 . S
C384 C382 1.395 . S
C384 C387 1.403 . S
C385 C382 1.403 . S
C385 C386 1.524 . S
C385 C389 1.400 . S
C386 H371 0.960 . S
C386 H372 0.960 . S
C386 H373 0.960 . S
C386 C385 1.524 . S
C387 C384 1.403 . S
C387 C388 1.392 . S
C387 C391 1.495 . S
C388 C387 1.392 . S
C388 C389 1.385 . S
C388 C390 1.478 . S
C389 H383 0.930 . S
C389 C385 1.400 . S
C389 C388 1.385 . S
C390 C388 1.478 . S
C390 C392 1.381 . S
C390 C396 1.383 . S
C391 C387 1.495 . S
C391 H397 0.959 . S
C391 H398 0.961 . S
C391 H399 0.960 . S
C392 C390 1.381 . S
C392 C393 1.394 . S
C392 H400 0.930 . S
C393 C392 1.394 . S
C393 C394 1.383 . S
C393 H401 0.929 . S
C394 C393 1.383 . S
C394 C395 1.377 . S
C395 H379 0.930 . S
C395 C394 1.377 . S
C395 C396 1.379 . S
C396 H380 0.931 . S
C396 C390 1.383 . S
C396 C395 1.379 . S
H397 C391 0.959 . S
H398 C391 0.961 . S
H399 C391 0.960 . S
H400 C392 0.930 . S
H401 C393 0.929 . S
H402 C410 0.929 . S
H403 C412 0.930 . S
H404 C414 0.930 . S
H405 C417 0.929 . S
H406 C420 0.930 . S
H407 C422 0.960 . S
H408 C422 0.960 . S
H409 C422 0.960 . S
C410 H402 0.929 . S
C410 C411 1.377 . S
C410 C412 1.384 . S
C411 C410 1.377 . S
C411 C417 1.390 . S
C412 H403 0.930 . S
C412 C410 1.384 . S
C412 C413 1.372 . S
C413 C412 1.372 . S
C413 C414 1.400 . S
C413 C418 1.490 . S
C414 H404 0.930 . S
C414 C413 1.400 . S
C414 C417 1.386 . S
H415 C431 0.930 . S
H416 C432 0.931 . S
C417 H405 0.929 . S
C417 C411 1.390 . S
C417 C414 1.386 . S
C418 C413 1.490 . S
C418 C420 1.395 . S
C418 C421 1.403 . S
H419 C425 0.930 . S
C420 H406 0.930 . S
C420 C418 1.395 . S
C420 C423 1.403 . S
C421 C418 1.403 . S
C421 C422 1.524 . S
C421 C425 1.400 . S
C422 H407 0.960 . S
C422 H408 0.960 . S
C422 H409 0.960 . S
C422 C421 1.524 . S
C423 C420 1.403 . S
C423 C424 1.392 . S
C423 C427 1.495 . S
C424 C423 1.392 . S
C424 C425 1.385 . S
C424 C426 1.478 . S
C425 H419 0.930 . S
C425 C421 1.400 . S
C425 C424 1.385 . S
C426 C424 1.478 . S
C426 C428 1.381 . S
C426 C432 1.383 . S
C427 C423 1.495 . S
C427 H433 0.959 . S
C427 H434 0.961 . S
C427 H435 0.960 . S
C428 C426 1.381 . S
C428 C429 1.394 . S
C428 H436 0.930 . S
C429 C428 1.394 . S
C429 C430 1.383 . S
C429 H437 0.929 . S
C430 C429 1.383 . S
C430 C431 1.377 . S
C431 H415 0.930 . S
C431 C430 1.377 . S
C431 C432 1.379 . S
C432 H416 0.931 . S
C432 C426 1.383 . S
C432 C431 1.379 . S
H433 C427 0.959 . S
H434 C427 0.961 . S
H435 C427 0.960 . S
H436 C428 0.930 . S
H437 C429 0.929 . S
H438 C446 0.929 . S
H439 C448 0.930 . S
H440 C450 0.930 . S
H441 C453 0.929 . S
H442 C456 0.930 . S
H443 C458 0.960 . S
H444 C458 0.960 . S
H445 C458 0.960 . S
C446 H438 0.929 . S
C446 C447 1.377 . S
C446 C448 1.384 . S
C447 C446 1.377 . S
C447 C453 1.390 . S
C448 H439 0.930 . S
C448 C446 1.384 . S
C448 C449 1.372 . S
C449 C448 1.372 . S
C449 C450 1.400 . S
C449 C454 1.490 . S
C450 H440 0.930 . S
C450 C449 1.400 . S
C450 C453 1.386 . S
H451 C467 0.930 . S
H452 C468 0.931 . S
C453 H441 0.929 . S
C453 C447 1.390 . S
C453 C450 1.386 . S
C454 C449 1.490 . S
C454 C456 1.395 . S
C454 C457 1.403 . S
H455 C461 0.930 . S
C456 H442 0.930 . S
C456 C454 1.395 . S
C456 C459 1.403 . S
C457 C454 1.403 . S
C457 C458 1.524 . S
C457 C461 1.400 . S
C458 H443 0.960 . S
C458 H444 0.960 . S
C458 H445 0.960 . S
C458 C457 1.524 . S
C459 C456 1.403 . S
C459 C460 1.392 . S
C459 C463 1.495 . S
C460 C459 1.392 . S
C460 C461 1.385 . S
C460 C462 1.478 . S
C461 H455 0.930 . S
C461 C457 1.400 . S
C461 C460 1.385 . S
C462 C460 1.478 . S
C462 C464 1.381 . S
C462 C468 1.383 . S
C463 C459 1.495 . S
C463 H469 0.959 . S
C463 H470 0.961 . S
C463 H471 0.960 . S
C464 C462 1.381 . S
C464 C465 1.394 . S
C464 H472 0.930 . S
C465 C464 1.394 . S
C465 C466 1.383 . S
C465 H473 0.929 . S
C466 C465 1.383 . S
C466 C467 1.377 . S
C467 H451 0.930 . S
C467 C466 1.377 . S
C467 C468 1.379 . S
C468 H452 0.931 . S
C468 C462 1.383 . S
C468 C467 1.379 . S
H469 C463 0.959 . S
H470 C463 0.961 . S
H471 C463 0.960 . S
H472 C464 0.930 . S
H473 C465 0.929 . S
H474 C482 0.929 . S
H475 C484 0.930 . S
H476 C486 0.930 . S
H477 C489 0.929 . S
H478 C492 0.930 1_554 S
H479 C494 0.960 . S
H480 C494 0.960 . S
H481 C494 0.960 . S
C482 H474 0.929 . S
C482 C483 1.377 . S
C482 C484 1.384 . S
C483 C482 1.377 . S
C483 C489 1.390 . S
C484 H475 0.930 . S
C484 C482 1.384 . S
C484 C485 1.372 . S
C485 C484 1.372 . S
C485 C486 1.400 . S
C485 C490 1.490 . S
C486 H476 0.930 . S
C486 C485 1.400 . S
C486 C489 1.386 . S
H487 C503 0.930 . S
H488 C504 0.931 . S
C489 H477 0.929 . S
C489 C483 1.390 . S
C489 C486 1.386 . S
C490 C485 1.490 . S
C490 C492 1.395 . S
C490 C493 1.403 . S
H491 C497 0.930 . S
C492 H478 0.930 1_556 S
C492 C490 1.395 . S
C492 C495 1.403 1_556 S
C493 C490 1.403 . S
C493 C494 1.524 . S
C493 C497 1.400 . S
C494 H479 0.960 . S
C494 H480 0.960 . S
C494 H481 0.960 . S
C494 C493 1.524 . S
C495 C492 1.403 1_554 S
C495 C496 1.392 1_554 S
C495 C499 1.495 . S
C496 C495 1.392 1_556 S
C496 C497 1.385 . S
C496 C498 1.478 . S
C497 H491 0.930 . S
C497 C493 1.400 . S
C497 C496 1.385 . S
C498 C496 1.478 . S
C498 C500 1.381 1_556 S
C498 C504 1.383 . S
C499 C495 1.495 . S
C499 H505 0.959 . S
C499 H506 0.961 . S
C499 H507 0.960 . S
C500 C498 1.381 1_554 S
C500 C501 1.394 . S
C500 H508 0.930 . S
C501 C500 1.394 . S
C501 C502 1.383 . S
C501 H509 0.929 . S
C502 C501 1.383 . S
C502 C503 1.377 1_554 S
C503 H487 0.930 . S
C503 C502 1.377 1_556 S
C503 C504 1.379 . S
C504 H488 0.931 . S
C504 C498 1.383 . S
C504 C503 1.379 . S
H505 C499 0.959 . S
H506 C499 0.961 . S
H507 C499 0.960 . S
H508 C500 0.930 . S
H509 C501 0.929 . S
C87 C5 1.847 . S
C106 C43 1.845 . S
C123 C18 1.847 . S
C142 C56 1.842 . S
C159 C69 1.845 . S
C178 C31 1.840 . S
C195 C10 1.845 . S
C214 C42 1.844 . S
C231 C23 1.845 . S
C250 C55 1.840 . S
C267 C68 1.847 . S
C286 C36 1.841 . S
C303 C17 1.391 . S
C322 C3 1.383 . S
C339 C30 1.389 . S
C358 C16 1.389 . S
C375 C29 1.393 . S
C394 C49 1.378 . S
C411 C62 1.387 . S
C430 C44 1.397 . S
C447 C75 1.388 . S
C466 C57 1.390 . S
C483 C70 1.393 . S
C502 C4 1.378 . S
