# Generated by pormake.
# Topology tfs, (6)-cn, num edge types: 1
# Building blocks:
#     Node 0, Type 0, BuildingBlock: BETDEL_clean_sbu_0, # of connection points: 6
#     Node 1, Type 0, BuildingBlock: BETDEL_clean_sbu_0, # of connection points: 6
#     Node 2, Type 0, BuildingBlock: BETDEL_clean_sbu_0, # of connection points: 6
#     Node 3, Type 0, BuildingBlock: BETDEL_clean_sbu_0, # of connection points: 6
#     Node 4, Type 0, BuildingBlock: BETDEL_clean_sbu_0, # of connection points: 6
#     Node 5, Type 0, BuildingBlock: BETDEL_clean_sbu_0, # of connection points: 6
#     Edge 6, Type (0, 0), BuildingBlock: MIFKUJ_clean_linker_0, # of connection points: 2
#     Edge 7, Type (0, 0), BuildingBlock: MIFKUJ_clean_linker_0, # of connection points: 2
#     Edge 8, Type (0, 0), BuildingBlock: MIFKUJ_clean_linker_0, # of connection points: 2
#     Edge 9, Type (0, 0), BuildingBlock: MIFKUJ_clean_linker_0, # of connection points: 2
#     Edge 10, Type (0, 0), BuildingBlock: MIFKUJ_clean_linker_0, # of connection points: 2
#     Edge 11, Type (0, 0), BuildingBlock: MIFKUJ_clean_linker_0, # of connection points: 2
#     Edge 12, Type (0, 0), BuildingBlock: MIFKUJ_clean_linker_0, # of connection points: 2
#     Edge 13, Type (0, 0), BuildingBlock: MIFKUJ_clean_linker_0, # of connection points: 2
#     Edge 14, Type (0, 0), BuildingBlock: MIFKUJ_clean_linker_0, # of connection points: 2
#     Edge 15, Type (0, 0), BuildingBlock: MIFKUJ_clean_linker_0, # of connection points: 2
#     Edge 16, Type (0, 0), BuildingBlock: MIFKUJ_clean_linker_0, # of connection points: 2
#     Edge 17, Type (0, 0), BuildingBlock: MIFKUJ_clean_linker_0, # of connection points: 2
#     Edge 18, Type (0, 0), BuildingBlock: MIFKUJ_clean_linker_0, # of connection points: 2
#     Edge 19, Type (0, 0), BuildingBlock: MIFKUJ_clean_linker_0, # of connection points: 2
#     Edge 20, Type (0, 0), BuildingBlock: MIFKUJ_clean_linker_0, # of connection points: 2
#     Edge 21, Type (0, 0), BuildingBlock: MIFKUJ_clean_linker_0, # of connection points: 2
#     Edge 22, Type (0, 0), BuildingBlock: MIFKUJ_clean_linker_0, # of connection points: 2
#     Edge 23, Type (0, 0), BuildingBlock: MIFKUJ_clean_linker_0, # of connection points: 2
# Relax obj value: 0.417
# Max RMSD: 0.271
# Mean RMSD: 0.253
data_MOF--net-tfs--node1-BETDEL_clean_sbu_0--edge1-MIFKUJ_clean_linker_0
_symmetry_space_group_name_H-M    P1
_symmetry_Int_Tables_number       1
_symmetry_cell_setting            triclinic
loop_
_symmetry_equiv_pos_as_xyz
'x, y, z'
_cell_length_a     57.048513
_cell_length_b     56.378239
_cell_length_c     19.144981
_cell_angle_alpha  90.0577
_cell_angle_beta   91.46415
_cell_angle_gamma 121.32664
loop_
_atom_site_label
_atom_site_type_symbol
_atom_site_fract_x
_atom_site_fract_y
_atom_site_fract_z
_atom_type_partial_charge
Dy0 Dy 0.1807 0.44226 0.10806 0.0
C1 C 0.21416 0.36256 0.07558 0.0
C2 C 0.17487 0.48714 0.12489 0.0
Dy3 Dy 0.20369 0.40277 0.10846 0.0
O4 O 0.16249 0.46793 0.07692 0.0
O5 O 0.18911 0.48087 0.16655 0.0
O6 O 0.16481 0.42834 0.99885 0.0
O7 O 0.20101 0.4302 0.03162 0.0
C8 C 0.18338 0.42284 0.9822 0.0
C9 C 0.19217 0.4091 0.24032 0.0
O10 O 0.24344 0.44225 0.10196 0.0
O11 O 0.22604 0.47149 0.11306 0.0
O12 O 0.22626 0.38065 0.12615 0.0
O13 O 0.19743 0.36741 0.03996 0.0
O14 O 0.20167 0.39358 0.22305 0.0
O15 O 0.1891 0.41994 0.18614 0.0
O16 O 0.14319 0.40202 0.13524 0.0
O17 O 0.15934 0.37587 0.08545 0.0
C18 C 0.24661 0.4671 0.10849 0.0
C19 C 0.13926 0.37816 0.11036 0.0
Dy20 Dy 0.75922 0.18382 0.00714 0.0
C21 C 0.87156 0.22928 0.95733 0.0
C22 C 0.7073 0.16849 0.0391 0.0
Dy23 Dy 0.81998 0.21234 0.99474 0.0
O24 O 0.71368 0.15633 0.99234 0.0
O25 O 0.72928 0.1885 0.06962 0.0
O26 O 0.75322 0.16332 0.90279 0.0
O27 O 0.78708 0.2035 0.91954 0.0
C28 C 0.77541 0.18337 0.8766 0.0
C29 C 0.81041 0.20677 0.13235 0.0
O30 O 0.81614 0.2497 0.97912 0.0
O31 O 0.76982 0.22778 0.00236 0.0
O32 O 0.85043 0.2047 0.94408 0.0
O33 O 0.8638 0.24505 0.98495 0.0
O34 O 0.83461 0.21894 0.10676 0.0
O35 O 0.79271 0.19887 0.08319 0.0
O36 O 0.76609 0.15132 0.04903 0.0
O37 O 0.80522 0.1669 0.98649 0.0
C38 C 0.79362 0.25041 0.98953 0.0
C39 C 0.78486 0.14732 0.02239 0.0
Dy40 Dy 0.55307 0.76358 0.10006 0.0
C41 C 0.6346 0.87191 0.04577 0.0
C42 C 0.50674 0.71399 0.11263 0.0
Dy43 Dy 0.5944 0.82237 0.09254 0.0
O44 O 0.51086 0.73182 0.06487 0.0
O45 O 0.52832 0.72278 0.15353 0.0
O46 O 0.56675 0.75622 0.99859 0.0
O47 O 0.56653 0.79301 0.01352 0.0
C48 C 0.57242 0.77963 0.97188 0.0
C49 C 0.58964 0.81259 0.22915 0.0
O50 O 0.55627 0.8254 0.0814 0.0
O51 O 0.52701 0.78138 0.12148 0.0
O52 O 0.63268 0.84837 0.03286 0.0
O53 O 0.61403 0.86818 0.08193 0.0
O54 O 0.60579 0.83666 0.20288 0.0
O55 O 0.57617 0.79454 0.18173 0.0
O56 O 0.58827 0.75874 0.12669 0.0
O57 O 0.61966 0.80181 0.08449 0.0
C58 C 0.53166 0.80585 0.10218 0.0
C59 C 0.61321 0.7768 0.10621 0.0
Dy60 Dy 0.77846 0.54541 0.01131 0.0
C61 C 0.74731 0.62604 0.00355 0.0
C62 C 0.78696 0.50212 0.02889 0.0
Dy63 Dy 0.75811 0.58382 0.0122 0.0
O64 O 0.80357 0.52524 0.99843 0.0
O65 O 0.76632 0.50312 0.05188 0.0
O66 O 0.79554 0.55833 0.9059 0.0
O67 O 0.76006 0.55856 0.92814 0.0
C68 C 0.77837 0.56524 0.88365 0.0
C69 C 0.75829 0.56312 0.13891 0.0
O70 O 0.71695 0.54415 0.99373 0.0
O71 O 0.73327 0.51519 0.01865 0.0
O72 O 0.76558 0.62582 0.0446 0.0
O73 O 0.73518 0.60334 0.96582 0.0
O74 O 0.73991 0.5683 0.11595 0.0
O75 O 0.7767 0.57083 0.0945 0.0
O76 O 0.81694 0.58385 0.04728 0.0
O77 O 0.80389 0.61227 0.99568 0.0
C78 C 0.71259 0.51897 0.00552 0.0
C79 C 0.82329 0.60842 0.0232 0.0
Dy80 Dy 0.23185 0.81252 0.10581 0.0
C81 C 0.11412 0.77277 0.06722 0.0
C82 C 0.28194 0.81599 0.11585 0.0
Dy83 Dy 0.16848 0.79213 0.09981 0.0
O84 O 0.26084 0.79841 0.07741 0.0
O85 O 0.2758 0.83215 0.14955 0.0
O86 O 0.23515 0.8289 0.99787 0.0
O87 O 0.1981 0.79387 0.0256 0.0
C88 C 0.20985 0.81166 0.97872 0.0
C89 C 0.18737 0.80315 0.23388 0.0
O90 O 0.16838 0.75232 0.08998 0.0
O91 O 0.21122 0.76904 0.14302 0.0
O92 O 0.12379 0.75827 0.09385 0.0
O93 O 0.13439 0.79784 0.05568 0.0
O94 O 0.16235 0.79488 0.21448 0.0
O95 O 0.2007 0.80516 0.18043 0.0
O96 O 0.23367 0.85244 0.12425 0.0
O97 O 0.18972 0.83799 0.0783 0.0
C98 C 0.18724 0.74826 0.11976 0.0
C99 C 0.21487 0.85777 0.09969 0.0
Dy100 Dy 0.42503 0.19111 0.00587 0.0
C101 C 0.34805 0.22344 0.05615 0.0
C102 C 0.46859 0.18497 0.99035 0.0
Dy103 Dy 0.38658 0.21221 0.01619 0.0
O104 O 0.46656 0.20001 0.03803 0.0
O105 O 0.44643 0.17257 0.95071 0.0
O106 O 0.40998 0.16884 0.10564 0.0
O107 O 0.41249 0.20716 0.09373 0.0
C108 C 0.40513 0.1867 0.13378 0.0
C109 C 0.39148 0.2057 0.87888 0.0
O110 O 0.42683 0.25305 0.03095 0.0
O111 O 0.45342 0.23654 0.98884 0.0
O112 O 0.36771 0.23828 0.01391 0.0
O113 O 0.35017 0.20304 0.07973 0.0
O114 O 0.37671 0.21483 0.90356 0.0
O115 O 0.40315 0.20084 0.92884 0.0
O116 O 0.38641 0.15182 0.97597 0.0
O117 O 0.35826 0.16576 0.02195 0.0
C118 C 0.45076 0.25728 0.01028 0.0
C119 C 0.36211 0.14614 0.99693 0.0
H120 H 0.32142 0.22723 0.94405 0.0
H121 H 0.28293 0.23459 0.94172 0.0
H122 H 0.27979 0.22936 0.1665 0.0
H123 H 0.31774 0.22032 0.16849 0.0
H124 H 0.22717 0.21247 0.09627 0.0
H125 H 0.32105 0.28876 0.10803 0.0
H126 H 0.36916 0.31442 0.07174 0.0
H127 H 0.34318 0.32321 0.86592 0.0
H128 H 0.29482 0.29704 0.90065 0.0
H129 H 0.2239 0.33618 0.17913 0.0
H130 H 0.2294 0.29614 0.16836 0.0
H131 H 0.21325 0.29258 0.94612 0.0
H132 H 0.20651 0.33213 0.95715 0.0
H133 H 0.26934 0.30819 0.00563 0.0
H134 H 0.1745 0.23932 0.00929 0.0
H135 H 0.12733 0.21389 0.05198 0.0
H136 H 0.15552 0.19343 0.23934 0.0
H137 H 0.203 0.21924 0.19855 0.0
C138 C 0.31209 0.22703 0.99282 0.0
C139 C 0.32288 0.22424 0.05672 0.0
C140 C 0.28991 0.23083 0.99134 0.0
C141 C 0.27899 0.23308 0.054 0.0
C142 C 0.28805 0.22771 0.11766 0.0
C143 C 0.30988 0.22301 0.11893 0.0
C144 C 0.26322 0.24709 0.05321 0.0
C145 C 0.23628 0.23345 0.07706 0.0
C146 C 0.27521 0.27433 0.02721 0.0
C147 C 0.30432 0.29066 0.00666 0.0
C148 C 0.32559 0.29599 0.05488 0.0
C149 C 0.3529 0.31062 0.03461 0.0
C150 C 0.35922 0.32036 0.9665 0.0
C151 C 0.33824 0.31559 0.91861 0.0
C152 C 0.31088 0.30085 0.93854 0.0
C153 C 0.22103 0.3265 0.12817 0.0
C154 C 0.21551 0.33746 0.06854 0.0
C155 C 0.22363 0.30336 0.12237 0.0
C156 C 0.22133 0.29129 0.05668 0.0
C157 C 0.21451 0.30139 0.9974 0.0
C158 C 0.21111 0.32412 0.00353 0.0
C159 C 0.23313 0.27372 0.04854 0.0
C160 C 0.2598 0.28699 0.02374 0.0
C161 C 0.22097 0.24658 0.07541 0.0
C162 C 0.19248 0.23158 0.10109 0.0
C163 C 0.17077 0.2298 0.06009 0.0
C164 C 0.14392 0.2152 0.08385 0.0
C165 C 0.13844 0.20212 0.14842 0.0
C166 C 0.15981 0.20361 0.18937 0.0
C167 C 0.1867 0.21823 0.16592 0.0
H168 H 0.11764 0.19077 0.16663 0.0
H169 H 0.38038 0.33168 0.95088 0.0
H170 H 0.09077 0.36965 0.16093 0.0
H171 H 0.04516 0.32766 0.14328 0.0
H172 H 0.08081 0.2884 0.03042 0.0
H173 H 0.12586 0.32945 0.04746 0.0
H174 H 0.03878 0.29068 0.95788 0.0
H175 H 0.05588 0.26089 0.17395 0.0
H176 H 0.07266 0.26845 0.29661 0.0
H177 H 0.00917 0.28344 0.35427 0.0
H178 H 0.99231 0.27651 0.23166 0.0
H179 H 0.89424 0.2008 0.90444 0.0
H180 H 0.93879 0.20674 0.94109 0.0
H181 H 0.95224 0.27163 0.0862 0.0
H182 H 0.90908 0.26663 0.04863 0.0
H183 H 0.97111 0.23745 0.13928 0.0
H184 H 0.97133 0.28914 0.93104 0.0
H185 H 0.95601 0.29023 0.81014 0.0
H186 H 0.98871 0.24103 0.7405 0.0
H187 H 0.00352 0.23902 0.86167 0.0
C188 C 0.08885 0.35195 0.13314 0.0
C189 C 0.11184 0.35299 0.10527 0.0
C190 C 0.06296 0.328 0.12358 0.0
C191 C 0.05999 0.3051 0.08606 0.0
C192 C 0.08292 0.30588 0.05984 0.0
C193 C 0.10863 0.32951 0.06967 0.0
C194 C 0.03261 0.28157 0.06749 0.0
C195 C 0.02414 0.27819 0.99711 0.0
C196 C 0.01385 0.26556 0.11905 0.0
C197 C 0.0228 0.26813 0.19355 0.0
C198 C 0.04548 0.26579 0.21279 0.0
C199 C 0.05505 0.27003 0.28228 0.0
C200 C 0.04199 0.27641 0.33321 0.0
C201 C 0.01923 0.27844 0.31477 0.0
C202 C 0.00961 0.27429 0.24527 0.0
C203 C 0.90701 0.21646 0.94356 0.0
C204 C 0.89888 0.23396 0.97195 0.0
C205 C 0.93193 0.21933 0.96554 0.0
C206 C 0.94839 0.2393 0.017 0.0
C207 C 0.93956 0.2558 0.04725 0.0
C208 C 0.91525 0.25345 0.02426 0.0
C209 C 0.97711 0.24775 0.03018 0.0
C210 C 0.98609 0.24847 0.09955 0.0
C211 C 0.99643 0.26189 0.97798 0.0
C212 C 0.98802 0.26348 0.90526 0.0
C213 C 0.97498 0.27833 0.88999 0.0
C214 C 0.96639 0.2791 0.82151 0.0
C215 C 0.97126 0.26558 0.7677 0.0
C216 C 0.98481 0.25134 0.78231 0.0
C217 C 0.99322 0.25029 0.85089 0.0
H218 H 0.96464 0.26624 0.71464 0.0
H219 H 0.04949 0.2798 0.38697 0.0
H220 H 0.74875 0.10459 0.10223 0.0
H221 H 0.74067 0.05788 0.10587 0.0
H222 H 0.80612 0.08075 0.96282 0.0
H223 H 0.81421 0.12792 0.95809 0.0
H224 H 0.75906 0.03396 0.9204 0.0
H225 H 0.81334 0.06446 0.12937 0.0
H226 H 0.8306 0.08735 0.24477 0.0
H227 H 0.75172 0.0329 0.33104 0.0
H228 H 0.7337 0.01025 0.21603 0.0
H229 H 0.68106 0.88364 0.9783 0.0
H230 H 0.72393 0.92926 0.97354 0.0
H231 H 0.68629 0.96593 0.08913 0.0
H232 H 0.6438 0.92109 0.09302 0.0
H233 H 0.74099 0.9806 0.13872 0.0
H234 H 0.68555 0.96994 0.92279 0.0
H235 H 0.66379 0.94356 0.81334 0.0
H236 H 0.74186 0.95915 0.7468 0.0
H237 H 0.76395 0.98518 0.85673 0.0
C238 C 0.76172 0.0999 0.07217 0.0
C239 C 0.78201 0.11991 0.02956 0.0
C240 C 0.75726 0.07322 0.07486 0.0
C241 C 0.77312 0.06599 0.0355 0.0
C242 C 0.79387 0.08605 0.9941 0.0
C243 C 0.79843 0.11292 0.99149 0.0
C244 C 0.76549 0.03663 0.03254 0.0
C245 C 0.75604 0.02239 0.96798 0.0
C246 C 0.7616 0.02148 0.0945 0.0
C247 C 0.77223 0.03548 0.16383 0.0
C248 C 0.7996 0.05747 0.17278 0.0
C249 C 0.80952 0.07042 0.23821 0.0
C250 C 0.79231 0.06146 0.29527 0.0
C251 C 0.76508 0.03971 0.2869 0.0
C252 C 0.755 0.02681 0.22156 0.0
C253 C 0.68203 0.90161 0.00196 0.0
C254 C 0.65923 0.8991 0.03555 0.0
C255 C 0.70649 0.92741 0.9999 0.0
C256 C 0.70823 0.95064 0.03215 0.0
C257 C 0.68537 0.94803 0.06509 0.0
C258 C 0.66102 0.92253 0.0664 0.0
C259 C 0.73277 0.97857 0.02818 0.0
C260 C 0.74553 0.99245 0.09112 0.0
C261 C 0.73925 0.9934 0.96538 0.0
C262 C 0.72633 0.97931 0.89786 0.0
C263 C 0.69804 0.96772 0.88475 0.0
C264 C 0.68565 0.95277 0.82279 0.0
C265 C 0.70143 0.94964 0.77318 0.0
C266 C 0.72966 0.96157 0.78532 0.0
C267 C 0.74213 0.9764 0.84744 0.0
H268 H 0.69179 0.938 0.72529 0.0
H269 H 0.80005 0.07146 0.34591 0.0
H270 H 0.69909 0.62057 0.95841 0.0
H271 H 0.68404 0.65355 0.97336 0.0
H272 H 0.76284 0.71285 0.06853 0.0
H273 H 0.7772 0.67888 0.05765 0.0
H274 H 0.72868 0.71713 0.13638 0.0
H275 H 0.7411 0.72091 0.89655 0.0
H276 H 0.73929 0.70436 0.7762 0.0
H277 H 0.65135 0.66338 0.77076 0.0
H278 H 0.65258 0.67934 0.89152 0.0
H279 H 0.66984 0.80801 0.0988 0.0
H280 H 0.70098 0.7907 0.07871 0.0
H281 H 0.63177 0.70669 0.07245 0.0
H282 H 0.60094 0.72348 0.09424 0.0
H283 H 0.67186 0.72684 0.95145 0.0
H284 H 0.66699 0.72517 0.2104 0.0
H285 H 0.67635 0.74973 0.32385 0.0
H286 H 0.76199 0.79935 0.27886 0.0
H287 H 0.75302 0.7754 0.16458 0.0
C288 C 0.7133 0.64076 0.98177 0.0
C289 C 0.73938 0.64723 0.00627 0.0
C290 C 0.70476 0.65978 0.99003 0.0
C291 C 0.72243 0.68621 0.02076 0.0
C292 C 0.74872 0.69277 0.04456 0.0
C293 C 0.75701 0.6734 0.03788 0.0
C294 C 0.71282 0.70622 0.03004 0.0
C295 C 0.71671 0.71957 0.09523 0.0
C296 C 0.6979 0.71053 0.97632 0.0
C297 C 0.69693 0.70122 0.90324 0.0
C298 C 0.72136 0.70826 0.8698 0.0
C299 C 0.72044 0.69899 0.80151 0.0
C300 C 0.69522 0.6828 0.76589 0.0
C301 C 0.67087 0.67593 0.79843 0.0
C302 C 0.67166 0.68513 0.86676 0.0
C303 C 0.66136 0.78585 0.09386 0.0
C304 C 0.63289 0.76715 0.09864 0.0
C305 C 0.67916 0.77601 0.0823 0.0
C306 C 0.66864 0.74739 0.07385 0.0
C307 C 0.64032 0.72883 0.07877 0.0
C308 C 0.62273 0.73852 0.09173 0.0
C309 C 0.6865 0.73613 0.05837 0.0
C310 C 0.68427 0.72463 0.99178 0.0
C311 C 0.70404 0.73478 0.10961 0.0
C312 C 0.70928 0.74875 0.17868 0.0
C313 C 0.68776 0.7415 0.22442 0.0
C314 C 0.693 0.75528 0.28893 0.0
C315 C 0.71973 0.77615 0.30846 0.0
C316 C 0.74129 0.78323 0.26363 0.0
C317 C 0.73613 0.76956 0.19902 0.0
H318 H 0.72374 0.78678 0.35841 0.0
H319 H 0.69454 0.67559 0.71304 0.0
H320 H 0.07196 0.71915 0.06305 0.0
H321 H 0.02272 0.70138 0.05251 0.0
H322 H 0.03912 0.78505 0.04441 0.0
H323 H 0.0889 0.80309 0.05312 0.0
H324 H 0.99189 0.74132 0.14164 0.0
H325 H 0.01915 0.76238 0.90892 0.0
H326 H 0.04612 0.76648 0.80622 0.0
H327 H 0.00898 0.67787 0.79775 0.0
H328 H 0.98208 0.6733 0.90126 0.0
H329 H 0.845 0.6652 0.02444 0.0
H330 H 0.89396 0.70224 0.02943 0.0
H331 H 0.91663 0.64028 0.02987 0.0
H332 H 0.86826 0.60353 0.0268 0.0
H333 H 0.94413 0.6855 0.92739 0.0
H334 H 0.91969 0.66942 0.17551 0.0
H335 H 0.89371 0.67001 0.27581 0.0
H336 H 0.92535 0.75694 0.24697 0.0
H337 H 0.9512 0.75674 0.14575 0.0
C338 C 0.06517 0.73382 0.05871 0.0
C339 C 0.08435 0.7625 0.05816 0.0
C340 C 0.03698 0.72364 0.05314 0.0
C341 C 0.02716 0.74184 0.04817 0.0
C342 C 0.0462 0.77061 0.04867 0.0
C343 C 0.0746 0.78086 0.05291 0.0
C344 C 0.99701 0.72999 0.03817 0.0
C345 C 0.98142 0.72968 0.09419 0.0
C346 C 0.98323 0.71515 0.97613 0.0
C347 C 0.99877 0.71751 0.91305 0.0
C348 C 0.01688 0.74378 0.88541 0.0
C349 C 0.03213 0.7462 0.82705 0.0
C350 C 0.02931 0.72245 0.79556 0.0
C351 C 0.01114 0.69624 0.82224 0.0
C352 C 0.99585 0.69372 0.8807 0.0
C353 C 0.86047 0.65954 0.02564 0.0
C354 C 0.85267 0.63136 0.02537 0.0
C355 C 0.88842 0.68072 0.02867 0.0
C356 C 0.90902 0.67405 0.02995 0.0
C357 C 0.90117 0.64597 0.02886 0.0
C358 C 0.87343 0.62494 0.02736 0.0
C359 C 0.93888 0.6958 0.03185 0.0
C360 C 0.95448 0.6978 0.97415 0.0
C361 C 0.95246 0.71293 0.09148 0.0
C362 C 0.93708 0.71298 0.15257 0.0
C363 C 0.92089 0.68859 0.19013 0.0
C364 C 0.90624 0.68887 0.24723 0.0
C365 C 0.9078 0.71348 0.26761 0.0
C366 C 0.92411 0.73788 0.23104 0.0
C367 C 0.93877 0.7377 0.17383 0.0
H368 H 0.89645 0.71365 0.31185 0.0
H369 H 0.04118 0.72435 0.75041 0.0
H370 H 0.1825 0.8808 0.10013 0.0
H371 H 0.19769 0.9302 0.08768 0.0
H372 H 0.28079 0.94954 0.06239 0.0
H373 H 0.26604 0.90102 0.07758 0.0
H374 H 0.28036 0.98324 0.15389 0.0
H375 H 0.23343 0.94493 0.92539 0.0
H376 H 0.19276 0.91664 0.84811 0.0
H377 H 0.15471 0.95937 0.92779 0.0
H378 H 0.195 0.98762 0.00629 0.0
H379 H 0.3642 0.09986 0.96742 0.0
H380 H 0.32948 0.05168 0.9899 0.0
H381 H 0.27395 0.07676 0.0574 0.0
H382 H 0.30882 0.12544 0.03563 0.0
H383 H 0.24991 0.02327 0.96769 0.0
H384 H 0.3002 0.06659 0.1803 0.0
H385 H 0.34163 0.09606 0.25408 0.0
H386 H 0.37296 0.04358 0.20425 0.0
H387 H 0.33203 0.01417 0.12895 0.0
C388 C 0.204 0.89573 0.092 0.0
C389 C 0.22319 0.88717 0.09095 0.0
C390 C 0.21262 0.92389 0.0845 0.0
C391 C 0.24044 0.94369 0.07423 0.0
C392 C 0.25929 0.9348 0.07121 0.0
C393 C 0.25085 0.90701 0.08006 0.0
C394 C 0.25104 0.97396 0.06934 0.0
C395 C 0.27361 0.9919 0.11307 0.0
C396 C 0.24138 0.98551 0.01875 0.0
C397 C 0.21704 0.96809 0.97243 0.0
C398 C 0.21626 0.94806 0.927 0.0
C399 C 0.1933 0.93208 0.88286 0.0
C400 C 0.17112 0.93613 0.88322 0.0
C401 C 0.17186 0.95618 0.92771 0.0
C402 C 0.19473 0.97217 0.97205 0.0
C403 C 0.3445 0.09525 0.9859 0.0
C404 C 0.33948 0.11665 1.00035 0.0
C405 C 0.32465 0.06764 0.99871 0.0
C406 C 0.29927 0.06073 0.02577 0.0
C407 C 0.29342 0.08171 0.03642 0.0
C408 C 0.31344 0.10951 0.02414 0.0
C409 C 0.28038 0.03189 0.04848 0.0
C410 C 0.25619 0.01448 0.00922 0.0
C411 C 0.28844 0.02061 0.10319 0.0
C412 C 0.31309 0.03827 0.1486 0.0
C413 C 0.31604 0.06149 0.18454 0.0
C414 C 0.33942 0.07817 0.22671 0.0
C415 C 0.35992 0.07172 0.23379 0.0
C416 C 0.35707 0.04857 0.19872 0.0
C417 C 0.33378 0.03189 0.1563 0.0
H418 H 0.37799 0.08464 0.26653 0.0
H419 H 0.15341 0.92379 0.84888 0.0
H420 H 0.15254 0.70252 0.03826 0.0
H421 H 0.15087 0.65817 0.03449 0.0
H422 H 0.21112 0.68652 0.20411 0.0
H423 H 0.21328 0.73083 0.20719 0.0
H424 H 0.22412 0.66405 0.09956 0.0
H425 H 0.14186 0.63839 0.22818 0.0
H426 H 0.0972 0.63472 0.24163 0.0
H427 H 0.06589 0.58457 0.05432 0.0
H428 H 0.11048 0.58821 0.03942 0.0
H429 H 0.20812 0.53358 0.20558 0.0
H430 H 0.21245 0.57919 0.19744 0.0
H431 H 0.15113 0.54764 0.03006 0.0
H432 H 0.14669 0.50226 0.0382 0.0
H433 H 0.13912 0.57241 0.12633 0.0
H434 H 0.21762 0.59181 0.00335 0.0
H435 H 0.26261 0.59971 0.9713 0.0
H436 H 0.30249 0.66454 0.1269 0.0
H437 H 0.25769 0.65614 0.16283 0.0
C438 C 0.16504 0.69906 0.07549 0.0
C439 C 0.18299 0.72011 0.12305 0.0
C440 C 0.16416 0.67377 0.07316 0.0
C441 C 0.18085 0.66901 0.11918 0.0
C442 C 0.1982 0.68978 0.16784 0.0
C443 C 0.19928 0.71505 0.16976 0.0
C444 C 0.18078 0.64266 0.11633 0.0
C445 C 0.20572 0.64393 0.10677 0.0
C446 C 0.15648 0.61651 0.12236 0.0
C447 C 0.12951 0.61373 0.13247 0.0
C448 C 0.12546 0.62666 0.18979 0.0
C449 C 0.10017 0.62458 0.19766 0.0
C450 C 0.07874 0.60947 0.14879 0.0
C451 C 0.08251 0.59628 0.09212 0.0
C452 C 0.10776 0.5983 0.084 0.0
C453 C 0.19545 0.5364 0.16744 0.0
C454 C 0.17666 0.51425 0.1234 0.0
C455 C 0.19822 0.56255 0.16219 0.0
C456 C 0.1822 0.5669 0.11288 0.0
C457 C 0.16367 0.54479 0.06855 0.0
C458 C 0.16101 0.5188 0.07356 0.0
C459 C 0.18276 0.59355 0.11121 0.0
C460 C 0.15778 0.59239 0.1198 0.0
C461 C 0.20715 0.61977 0.10334 0.0
C462 C 0.23399 0.6229 0.08679 0.0
C463 C 0.23583 0.60719 0.03236 0.0
C464 C 0.26138 0.61186 0.01325 0.0
C465 C 0.28538 0.63255 0.04723 0.0
C466 C 0.28387 0.64848 0.10076 0.0
C467 C 0.25836 0.64357 0.12099 0.0
H468 H 0.30515 0.63628 0.03198 0.0
H469 H 0.05919 0.60794 0.15488 0.0
H470 H 0.51816 0.21883 0.05166 0.0
H471 H 0.55864 0.21487 0.04817 0.0
H472 H 0.51485 0.1431 0.9111 0.0
H473 H 0.47398 0.1472 0.91381 0.0
H474 H 0.53874 0.13399 0.02634 0.0
H475 H 0.56519 0.19798 0.84574 0.0
H476 H 0.57752 0.23874 0.7735 0.0
H477 H 0.6398 0.29166 0.92552 0.0
H478 H 0.62746 0.2513 0.99962 0.0
H479 H 0.66091 0.1316 0.96653 0.0
H480 H 0.61886 0.13296 0.95434 0.0
H481 H 0.65162 0.20079 0.10426 0.0
H482 H 0.69378 0.19959 0.11666 0.0
H483 H 0.63288 0.21003 0.97268 0.0
H484 H 0.60242 0.14073 0.15318 0.0
H485 H 0.59713 0.09735 0.19865 0.0
H486 H 0.54475 0.05194 0.02192 0.0
H487 H 0.55011 0.09517 0.97483 0.0
C488 C 0.51725 0.20238 0.0201 0.0
C489 C 0.49306 0.18317 0.98325 0.0
C490 C 0.54042 0.2003 0.01776 0.0
C491 C 0.53967 0.17885 0.97899 0.0
C492 C 0.51569 0.15987 0.94098 0.0
C493 C 0.49249 0.16219 0.94254 0.0
C494 C 0.56325 0.17504 0.98413 0.0
C495 C 0.55926 0.15046 0.01356 0.0
C496 C 0.59 0.19671 0.96822 0.0
C497 C 0.59522 0.22155 0.92856 0.0
C498 C 0.58108 0.21837 0.86466 0.0
C499 C 0.58822 0.24139 0.82309 0.0
C500 C 0.60958 0.2677 0.84462 0.0
C501 C 0.62336 0.27121 0.90871 0.0
C502 C 0.61625 0.24827 0.95063 0.0
C503 C 0.65881 0.14629 0.99819 0.0
C504 C 0.68035 0.16541 0.0427 0.0
C505 C 0.63493 0.14712 0.99095 0.0
C506 C 0.63239 0.16699 0.02842 0.0
C507 C 0.65343 0.18538 0.07502 0.0
C508 C 0.67728 0.18449 0.08247 0.0
C509 C 0.6083 0.16947 0.01616 0.0
C510 C 0.61228 0.19376 0.98564 0.0
C511 C 0.58158 0.1474 0.0296 0.0
C512 C 0.57672 0.12116 0.06042 0.0
C513 C 0.58974 0.12148 0.12409 0.0
C514 C 0.58679 0.09694 0.15006 0.0
C515 C 0.57064 0.07191 0.11315 0.0
C516 C 0.55724 0.07134 0.05047 0.0
C517 C 0.56018 0.09584 0.02419 0.0
H518 H 0.56849 0.05295 0.13314 0.0
H519 H 0.61545 0.28538 0.81157 0.0
H520 H 0.49549 0.66944 0.19185 0.0
H521 H 0.45038 0.62672 0.20227 0.0
H522 H 0.41388 0.66067 0.06655 0.0
H523 H 0.45863 0.70288 0.05477 0.0
H524 H 0.38319 0.63206 0.19156 0.0
H525 H 0.4265 0.62262 0.98895 0.0
H526 H 0.46421 0.6239 0.92557 0.0
H527 H 0.46161 0.56191 0.06087 0.0
H528 H 0.42413 0.56063 0.12581 0.0
H529 H 0.26159 0.5177 0.05927 0.0
H530 H 0.3069 0.5597 0.06954 0.0
H531 H 0.33857 0.51354 0.17274 0.0
H532 H 0.29322 0.47103 0.16062 0.0
H533 H 0.3723 0.54805 0.07447 0.0
H534 H 0.32608 0.55592 0.2732 0.0
H535 H 0.28648 0.55353 0.32941 0.0
H536 H 0.29266 0.61738 0.19583 0.0
H537 H 0.33221 0.62007 0.13801 0.0
C538 C 0.47773 0.66768 0.16476 0.0
C539 C 0.48026 0.68895 0.12193 0.0
C540 C 0.45218 0.64356 0.17096 0.0
C541 C 0.42919 0.64097 0.1352 0.0
C542 C 0.43156 0.66265 0.09469 0.0
C543 C 0.45707 0.68647 0.08752 0.0
C544 C 0.40307 0.61469 0.13463 0.0
C545 C 0.38068 0.61363 0.16611 0.0
C546 C 0.40021 0.59096 0.10138 0.0
C547 C 0.42284 0.59184 0.06286 0.0
C548 C 0.43421 0.60953 0.00573 0.0
C549 C 0.45548 0.61019 0.96939 0.0
C550 C 0.46538 0.59308 0.98936 0.0
C551 C 0.45398 0.57522 0.04561 0.0
C552 C 0.43273 0.57451 0.0822 0.0
C553 C 0.27828 0.51653 0.08389 0.0
C554 C 0.27417 0.49143 0.10971 0.0
C555 C 0.30398 0.54046 0.09005 0.0
C556 C 0.32563 0.53961 0.12346 0.0
C557 C 0.32184 0.51439 0.14736 0.0
C558 C 0.29614 0.49027 0.14019 0.0
C559 C 0.35238 0.56515 0.13227 0.0
C560 C 0.37488 0.56623 0.10149 0.0
C561 C 0.35522 0.58891 0.16572 0.0
C562 C 0.33205 0.58814 0.20134 0.0
C563 C 0.31896 0.56944 0.25571 0.0
C564 C 0.29652 0.56802 0.2877 0.0
C565 C 0.28701 0.58524 0.26581 0.0
C566 C 0.30004 0.60405 0.21225 0.0
C567 C 0.32254 0.60561 0.18009 0.0
H568 H 0.26957 0.58406 0.29043 0.0
H569 H 0.48182 0.59359 0.9611 0.0
H570 H 0.74602 0.44894 0.04969 0.0
H571 H 0.74791 0.40682 0.03891 0.0
H572 H 0.83424 0.45643 0.99593 0.0
H573 H 0.83189 0.4986 0.00247 0.0
H574 H 0.81133 0.4133 0.91289 0.0
H575 H 0.80537 0.42444 0.16383 0.0
H576 H 0.78354 0.42911 0.26832 0.0
H577 H 0.71 0.35124 0.21783 0.0
H578 H 0.73124 0.34631 0.11258 0.0
H579 H 0.83813 0.30338 0.97223 0.0
H580 H 0.83848 0.34711 0.97707 0.0
H581 H 0.75119 0.30128 0.00828 0.0
H582 H 0.75061 0.25799 0.00411 0.0
H583 H 0.77598 0.34284 0.09887 0.0
H584 H 0.77608 0.32975 0.8544 0.0
H585 H 0.79206 0.32145 0.74385 0.0
H586 H 0.86909 0.39819 0.773 0.0
H587 H 0.85372 0.40672 0.88457 0.0
C588 C 0.76546 0.45085 0.0386 0.0
C589 C 0.78892 0.47702 0.0279 0.0
C590 C 0.76657 0.42674 0.03266 0.0
C591 C 0.7914 0.42833 0.01832 0.0
C592 C 0.81487 0.45457 0.00747 0.0
C593 C 0.81359 0.47868 0.01171 0.0
C594 C 0.79286 0.40271 0.0138 0.0
C595 C 0.80406 0.39818 0.95425 0.0
C596 C 0.78234 0.38224 0.06621 0.0
C597 C 0.76985 0.38512 0.13015 0.0
C598 C 0.78452 0.40839 0.17491 0.0
C599 C 0.77224 0.41108 0.23424 0.0
C600 C 0.74539 0.39051 0.24964 0.0
C601 C 0.73078 0.36716 0.20584 0.0
C602 C 0.74293 0.3644 0.1464 0.0
C603 C 0.81901 0.30265 0.97962 0.0
C604 C 0.79438 0.27712 0.98789 0.0
C605 C 0.81923 0.32764 0.9823 0.0
C606 C 0.79483 0.32746 0.99309 0.0
C607 C 0.77028 0.30198 1.00038 0.0
C608 C 0.77003 0.27717 0.99768 0.0
C609 C 0.79461 0.35364 0.99846 0.0
C610 C 0.78358 0.35819 0.058 0.0
C611 C 0.80455 0.37367 0.9453 0.0
C612 C 0.81388 0.36872 0.87825 0.0
C613 C 0.79654 0.34473 0.83762 0.0
C614 C 0.80547 0.33999 0.77474 0.0
C615 C 0.8316 0.35925 0.75152 0.0
C616 C 0.84886 0.38328 0.79115 0.0
C617 C 0.84006 0.38808 0.85422 0.0
H618 H 0.83844 0.35562 0.70264 0.0
H619 H 0.73593 0.39265 0.29557 0.0
H620 H 0.29175 0.77651 0.06837 0.0
H621 H 0.33488 0.77696 0.07145 0.0
H622 H 0.37583 0.85747 0.17319 0.0
H623 H 0.33231 0.85688 0.17119 0.0
H624 H 0.40591 0.85443 0.06312 0.0
H625 H 0.36012 0.8016 0.26301 0.0
H626 H 0.32309 0.76428 0.33022 0.0
H627 H 0.3289 0.7031 0.21118 0.0
H628 H 0.36534 0.73996 0.14144 0.0
H629 H 0.53073 0.85392 0.12645 0.0
H630 H 0.49009 0.85812 0.13477 0.0
H631 H 0.43786 0.771 0.08215 0.0
H632 H 0.478 0.76657 0.07817 0.0
H633 H 0.41431 0.77996 0.17573 0.0
H634 H 0.45466 0.83047 0.96572 0.0
H635 H 0.49166 0.86668 0.89575 0.0
H636 H 0.49559 0.93001 0.02915 0.0
H637 H 0.45881 0.89415 0.10037 0.0
C638 C 0.30989 0.79431 0.09172 0.0
C639 C 0.3085 0.81665 0.1197 0.0
C640 C 0.3346 0.7945 0.09358 0.0
C641 C 0.35879 0.81718 0.12286 0.0
C642 C 0.35754 0.83969 0.15034 0.0
C643 C 0.33262 0.83931 0.14945 0.0
C644 C 0.38525 0.81733 0.12388 0.0
C645 C 0.40785 0.83832 0.08858 0.0
C646 C 0.38778 0.79598 0.15552 0.0
C647 C 0.36529 0.77364 0.19623 0.0
C648 C 0.35322 0.78019 0.25025 0.0
C649 C 0.33233 0.75909 0.28888 0.0
C650 C 0.32353 0.73132 0.27467 0.0
C651 C 0.3356 0.7246 0.22174 0.0
C652 C 0.35634 0.7456 0.18255 0.0
C653 C 0.51057 0.83578 0.11621 0.0
C654 C 0.50773 0.80993 0.10172 0.0
C655 C 0.48719 0.83816 0.12063 0.0
C656 C 0.46045 0.81494 0.10839 0.0
C657 C 0.45791 0.78931 0.09253 0.0
C658 C 0.48106 0.78682 0.08987 0.0
C659 C 0.43497 0.81671 0.11334 0.0
C660 C 0.41247 0.79607 0.14999 0.0
C661 C 0.43235 0.83808 0.08195 0.0
C662 C 0.45419 0.85964 0.03871 0.0
C663 C 0.46352 0.85212 0.98029 0.0
C664 C 0.48444 0.87258 0.94041 0.0
C665 C 0.49602 0.90063 0.95811 0.0
C666 C 0.48663 0.90828 0.01557 0.0
C667 C 0.46573 0.8879 0.05566 0.0
H668 H 0.51223 0.91643 0.92721 0.0
H669 H 0.30746 0.71502 0.30489 0.0
H670 H 0.66247 0.51446 0.97477 0.0
H671 H 0.61655 0.47208 0.97335 0.0
H672 H 0.65259 0.42412 0.03487 0.0
H673 H 0.69797 0.46571 0.03523 0.0
H674 H 0.61653 0.39768 0.93485 0.0
H675 H 0.61676 0.44228 0.14985 0.0
H676 H 0.62082 0.48063 0.22182 0.0
H677 H 0.55364 0.47682 0.10492 0.0
H678 H 0.54944 0.43867 0.03166 0.0
H679 H 0.50324 0.27013 0.03414 0.0
H680 H 0.54547 0.31536 0.03312 0.0
H681 H 0.49869 0.35409 0.98689 0.0
H682 H 0.45588 0.30853 0.99213 0.0
H683 H 0.53862 0.38702 0.06941 0.0
H684 H 0.53654 0.33781 0.86072 0.0
H685 H 0.53473 0.30017 0.79033 0.0
H686 H 0.60778 0.31335 0.8973 0.0
H687 H 0.60956 0.35027 0.96914 0.0
C688 C 0.66058 0.49489 0.98807 0.0
C689 C 0.68416 0.49375 0.00493 0.0
C690 C 0.63424 0.47061 0.98759 0.0
C691 C 0.63083 0.44465 0.00442 0.0
C692 C 0.65439 0.44365 0.02136 0.0
C693 C 0.68053 0.4677 0.02166 0.0
C694 C 0.60312 0.41825 0.00324 0.0
C695 C 0.59958 0.39532 0.96485 0.0
C696 C 0.58056 0.41509 0.04065 0.0
C697 C 0.58298 0.43787 0.08484 0.0
C698 C 0.60299 0.44977 0.13919 0.0
C699 C 0.6053 0.47144 0.18026 0.0
C700 C 0.58755 0.48121 0.16781 0.0
C701 C 0.56741 0.46927 0.11442 0.0
C702 C 0.56504 0.44762 0.07314 0.0
C703 C 0.50184 0.28826 0.02388 0.0
C704 C 0.47608 0.28559 0.0125 0.0
C705 C 0.52618 0.31426 0.02268 0.0
C706 C 0.52572 0.33844 0.00749 0.0
C707 C 0.49989 0.33592 0.99804 0.0
C708 C 0.47534 0.30983 1.00102 0.0
C709 C 0.55212 0.3661 0.00197 0.0
C710 C 0.55542 0.38932 0.03891 0.0
C711 C 0.57465 0.3695 0.96351 0.0
C712 C 0.57306 0.34671 0.92073 0.0
C713 C 0.55203 0.33244 0.86964 0.0
C714 C 0.551 0.31117 0.82942 0.0
C715 C 0.57105 0.30421 0.83931 0.0
C716 C 0.59213 0.31849 0.88954 0.0
C717 C 0.59315 0.33959 0.93012 0.0
H718 H 0.57026 0.28783 0.80792 0.0
H719 H 0.58937 0.49799 0.19966 0.0
H720 H 0.2146 0.46669 0.9007 0.0
H721 H 0.21727 0.46621 0.77291 0.0
H722 H 0.16681 0.37675 0.77021 0.0
H723 H 0.16393 0.37733 0.89814 0.0
H724 H 0.21068 0.39752 0.67822 0.0
H725 H 0.13726 0.41165 0.73534 0.0
H726 H 0.11623 0.4348 0.79357 0.0
H727 H 0.17158 0.51111 0.69229 0.0
H728 H 0.19323 0.48848 0.63422 0.0
H729 H 0.16632 0.36817 0.3315 0.0
H730 H 0.16548 0.37256 0.45797 0.0
H731 H 0.20676 0.46168 0.44097 0.0
H732 H 0.20645 0.45707 0.31279 0.0
H733 H 0.17066 0.44398 0.54348 0.0
H734 H 0.24284 0.42885 0.48163 0.0
H735 H 0.26337 0.40514 0.4236 0.0
H736 H 0.21044 0.33047 0.53407 0.0
H737 H 0.18937 0.35363 0.59213 0.0
C738 C 0.2047 0.44695 0.87269 0.0
C739 C 0.18939 0.422 0.90857 0.0
C740 C 0.20601 0.44669 0.79991 0.0
C741 C 0.192 0.42147 0.76211 0.0
C742 C 0.17777 0.39643 0.79845 0.0
C743 C 0.17622 0.39672 0.87126 0.0
C744 C 0.19106 0.42125 0.68458 0.0
C745 C 0.20173 0.40745 0.6487 0.0
C746 C 0.17996 0.43481 0.64618 0.0
C747 C 0.16707 0.44848 0.68114 0.0
C748 C 0.14513 0.43344 0.72604 0.0
C749 C 0.13306 0.44645 0.7589 0.0
C750 C 0.14262 0.47443 0.74682 0.0
C751 C 0.16424 0.48945 0.70171 0.0
C752 C 0.17641 0.47654 0.6688 0.0
C753 C 0.17449 0.38864 0.35466 0.0
C754 C 0.18631 0.41227 0.31284 0.0
C755 C 0.17434 0.39117 0.42698 0.0
C756 C 0.18687 0.4175 0.45928 0.0
C757 C 0.19719 0.44116 0.4172 0.0
C758 C 0.19683 0.43855 0.34414 0.0
C759 C 0.1901 0.42002 0.53677 0.0
C760 C 0.17988 0.43426 0.5728 0.0
C761 C 0.20166 0.40688 0.5754 0.0
C762 C 0.2144 0.39293 0.54083 0.0
C763 C 0.23548 0.40733 0.49322 0.0
C764 C 0.24722 0.39399 0.46037 0.0
C765 C 0.23818 0.3663 0.47504 0.0
C766 C 0.21742 0.35191 0.52273 0.0
C767 C 0.20559 0.36514 0.55569 0.0
H768 H 0.2473 0.35601 0.44953 0.0
H769 H 0.13324 0.48446 0.77226 0.0
H770 H 0.82346 0.21718 0.81029 0.0
H771 H 0.83051 0.22094 0.68385 0.0
H772 H 0.74449 0.16013 0.64676 0.0
H773 H 0.73802 0.15497 0.77219 0.0
H774 H 0.77026 0.14951 0.56223 0.0
H775 H 0.77865 0.23681 0.63118 0.0
H776 H 0.79902 0.28135 0.69618 0.0
H777 H 0.87729 0.3082 0.60811 0.0
H778 H 0.85752 0.26367 0.54352 0.0
H779 H 0.76123 0.17825 0.19961 0.0
H780 H 0.75504 0.17391 0.32689 0.0
H781 H 0.84281 0.22448 0.36142 0.0
H782 H 0.84901 0.2289 0.23587 0.0
H783 H 0.817 0.24064 0.44572 0.0
H784 H 0.80891 0.15531 0.37354 0.0
H785 H 0.78948 0.11153 0.30621 0.0
H786 H 0.7116 0.08091 0.40068 0.0
H787 H 0.73028 0.12501 0.46669 0.0
C788 C 0.80619 0.20458 0.77482 0.0
C789 C 0.78022 0.18582 0.80084 0.0
C790 C 0.81013 0.2069 0.70255 0.0
C791 C 0.7879 0.19126 0.65514 0.0
C792 C 0.76203 0.17244 0.68172 0.0
C793 C 0.75831 0.16954 0.75362 0.0
C794 C 0.79122 0.19392 0.57794 0.0
C795 C 0.7801 0.16949 0.53686 0.0
C796 C 0.80485 0.21996 0.54438 0.0
C797 C 0.81665 0.24675 0.58318 0.0
C798 C 0.80024 0.25213 0.62608 0.0
C799 C 0.81169 0.27739 0.66281 0.0
C800 C 0.83945 0.29754 0.65646 0.0
C801 C 0.85581 0.29254 0.61314 0.0
C802 C 0.8445 0.2673 0.57649 0.0
C803 C 0.77909 0.18845 0.23464 0.0
C804 C 0.80556 0.20392 0.20804 0.0
C805 C 0.77558 0.1859 0.30713 0.0
C806 C 0.79851 0.19881 0.35365 0.0
C807 C 0.82484 0.21442 0.3267 0.0
C808 C 0.82833 0.21685 0.25481 0.0
C809 C 0.7955 0.19629 0.43057 0.0
C810 C 0.80689 0.22072 0.47138 0.0
C811 C 0.78214 0.17029 0.46385 0.0
C812 C 0.77091 0.14369 0.42429 0.0
C813 C 0.78754 0.13941 0.37935 0.0
C814 C 0.77667 0.11448 0.34149 0.0
C815 C 0.7493 0.09344 0.3491 0.0
C816 C 0.73277 0.09727 0.39467 0.0
C817 C 0.74347 0.12227 0.43215 0.0
H818 H 0.7409 0.07417 0.31969 0.0
H819 H 0.84829 0.31704 0.68506 0.0
H820 H 0.58079 0.82555 0.90114 0.0
H821 H 0.58598 0.83296 0.77474 0.0
H822 H 0.58001 0.75391 0.74828 0.0
H823 H 0.57583 0.74696 0.87396 0.0
H824 H 0.61692 0.78955 0.66628 0.0
H825 H 0.52431 0.76349 0.7196 0.0
H826 H 0.48873 0.76793 0.77815 0.0
H827 H 0.52014 0.84871 0.69066 0.0
H828 H 0.55619 0.84493 0.63247 0.0
H829 H 0.5741 0.7648 0.30137 0.0
H830 H 0.57295 0.75996 0.42951 0.0
H831 H 0.59718 0.84591 0.45395 0.0
H832 H 0.59913 0.85102 0.32727 0.0
H833 H 0.55179 0.80775 0.53566 0.0
H834 H 0.64337 0.83299 0.47965 0.0
H835 H 0.67878 0.82849 0.42058 0.0
H836 H 0.64889 0.74873 0.51269 0.0
H837 H 0.61289 0.7525 0.57123 0.0
C838 C 0.58084 0.80994 0.8682 0.0
C839 C 0.57759 0.78555 0.89704 0.0
C840 C 0.58366 0.81409 0.79608 0.0
C841 C 0.58282 0.7937 0.7518 0.0
C842 C 0.58061 0.76988 0.78121 0.0
C843 C 0.57811 0.76588 0.85308 0.0
C844 C 0.58332 0.7965 0.67467 0.0
C845 C 0.60245 0.7932 0.63773 0.0
C846 C 0.56479 0.80178 0.63734 0.0
C847 C 0.54312 0.80405 0.67234 0.0
C848 C 0.52376 0.78229 0.71332 0.0
C849 C 0.5035 0.78468 0.74638 0.0
C850 C 0.50223 0.80862 0.73831 0.0
C851 C 0.52118 0.8302 0.69701 0.0
C852 C 0.54153 0.82795 0.66398 0.0
C853 C 0.57898 0.7825 0.33438 0.0
C854 C 0.58673 0.80826 0.3049 0.0
C855 C 0.57846 0.77979 0.4072 0.0
C856 C 0.58512 0.80266 0.45083 0.0
C857 C 0.59204 0.82809 0.42109 0.0
C858 C 0.59318 0.83095 0.34883 0.0
C859 C 0.58508 0.80045 0.52772 0.0
C860 C 0.56614 0.80397 0.56444 0.0
C861 C 0.60368 0.79527 0.56472 0.0
C862 C 0.62512 0.79283 0.52892 0.0
C863 C 0.64407 0.81431 0.48653 0.0
C864 C 0.66431 0.81193 0.4533 0.0
C865 C 0.66601 0.78828 0.4626 0.0
C866 C 0.64749 0.76699 0.50531 0.0
C867 C 0.62715 0.76923 0.53849 0.0
H868 H 0.68172 0.78649 0.43691 0.0
H869 H 0.48651 0.81042 0.76391 0.0
H870 H 0.76949 0.52549 0.79066 0.0
H871 H 0.76743 0.52748 0.66344 0.0
H872 H 0.77562 0.60788 0.67926 0.0
H873 H 0.77675 0.60537 0.80776 0.0
H874 H 0.73997 0.57742 0.57662 0.0
H875 H 0.83123 0.60195 0.64216 0.0
H876 H 0.86724 0.597 0.70183 0.0
H877 H 0.8391 0.52007 0.59122 0.0
H878 H 0.80269 0.52438 0.53155 0.0
H879 H 0.77111 0.60665 0.22285 0.0
H880 H 0.77726 0.60954 0.35012 0.0
H881 H 0.76491 0.5272 0.35093 0.0
H882 H 0.75958 0.52472 0.22253 0.0
H883 H 0.80498 0.56204 0.44508 0.0
H884 H 0.71203 0.53719 0.38442 0.0
H885 H 0.67755 0.54386 0.3221 0.0
H886 H 0.7108 0.62362 0.42256 0.0
H887 H 0.7457 0.61755 0.48482 0.0
C888 C 0.77041 0.54338 0.76683 0.0
C889 C 0.77327 0.56531 0.80829 0.0
C890 C 0.76951 0.54463 0.69429 0.0
C891 C 0.77213 0.56816 0.66185 0.0
C892 C 0.77379 0.58963 0.70333 0.0
C893 C 0.77432 0.58819 0.77638 0.0
C894 C 0.7735 0.57022 0.58471 0.0
C895 C 0.75449 0.57451 0.54798 0.0
C896 C 0.79219 0.56602 0.54716 0.0
C897 C 0.81409 0.56338 0.58286 0.0
C898 C 0.8326 0.58388 0.63095 0.0
C899 C 0.85311 0.5812 0.6647 0.0
C900 C 0.85542 0.5582 0.65044 0.0
C901 C 0.83727 0.53786 0.60226 0.0
C902 C 0.81672 0.54042 0.5684 0.0
C903 C 0.77005 0.58935 0.2504 0.0
C904 C 0.76465 0.56536 0.21392 0.0
C905 C 0.77346 0.59096 0.32286 0.0
C906 C 0.7709 0.56834 0.35999 0.0
C907 C 0.76678 0.5448 0.32313 0.0
C908 C 0.76369 0.54334 0.25021 0.0
C909 C 0.77122 0.56881 0.4373 0.0
C910 C 0.79057 0.56505 0.47393 0.0
C911 C 0.75298 0.57367 0.47476 0.0
C912 C 0.73156 0.577 0.43885 0.0
C913 C 0.71203 0.55619 0.393 0.0
C914 C 0.69242 0.55986 0.3577 0.0
C915 C 0.69202 0.58417 0.36827 0.0
C916 C 0.71115 0.60481 0.4144 0.0
C917 C 0.73082 0.60125 0.44978 0.0
H918 H 0.67685 0.587 0.34079 0.0
H919 H 0.87131 0.55617 0.67664 0.0
H920 H 0.17885 0.83515 0.32039 0.0
H921 H 0.18394 0.83799 0.44776 0.0
H922 H 0.22013 0.78727 0.44171 0.0
H923 H 0.21541 0.78482 0.31303 0.0
H924 H 0.17397 0.76741 0.53004 0.0
H925 H 0.25936 0.85413 0.49013 0.0
H926 H 0.28715 0.90071 0.43999 0.0
H927 H 0.23854 0.92739 0.54278 0.0
H928 H 0.21025 0.88088 0.5929 0.0
H929 H 0.20702 0.7727 0.89046 0.0
H930 H 0.20329 0.77215 0.76291 0.0
H931 H 0.19045 0.84115 0.7721 0.0
H932 H 0.19611 0.8427 0.89982 0.0
H933 H 0.22408 0.85213 0.68003 0.0
H934 H 0.13813 0.77076 0.71698 0.0
H935 H 0.10496 0.7251 0.76497 0.0
H936 H 0.14601 0.6889 0.66585 0.0
H937 H 0.17962 0.73443 0.61782 0.0
C938 C 0.18879 0.82543 0.34616 0.0
C939 C 0.19721 0.8102 0.30714 0.0
C940 C 0.19156 0.82695 0.41893 0.0
C941 C 0.20244 0.81288 0.45434 0.0
C942 C 0.21179 0.79839 0.41531 0.0
C943 C 0.20945 0.79728 0.34197 0.0
C944 C 0.20195 0.81167 0.53194 0.0
C945 C 0.18534 0.78583 0.56312 0.0
C946 C 0.21542 0.83591 0.57468 0.0
C947 C 0.23257 0.86394 0.54485 0.0
C948 C 0.25448 0.86987 0.50165 0.0
C949 C 0.27035 0.89628 0.47332 0.0
C950 C 0.26459 0.91698 0.48808 0.0
C951 C 0.24298 0.91134 0.53137 0.0
C952 C 0.22705 0.88497 0.55983 0.0
C953 C 0.20264 0.78719 0.86504 0.0
C954 C 0.2013 0.80738 0.90446 0.0
C955 C 0.20046 0.7869 0.79204 0.0
C956 C 0.19618 0.80637 0.75711 0.0
C957 C 0.19377 0.8259 0.79727 0.0
C958 C 0.19666 0.82661 0.87023 0.0
C959 C 0.19634 0.80767 0.67906 0.0
C960 C 0.21272 0.83356 0.64751 0.0
C961 C 0.18179 0.78357 0.63577 0.0
C962 C 0.16156 0.75609 0.66431 0.0
C963 C 0.1402 0.75311 0.7058 0.0
C964 C 0.1213 0.72724 0.73293 0.0
C965 C 0.12342 0.70413 0.71863 0.0
C966 C 0.1444 0.70683 0.67694 0.0
C967 C 0.16336 0.73265 0.64964 0.0
H968 H 0.10878 0.68413 0.73974 0.0
H969 H 0.27689 0.9374 0.46607 0.0
H970 H 0.37233 0.22342 0.77429 0.0
H971 H 0.37268 0.21647 0.64928 0.0
H972 H 0.41347 0.17092 0.68546 0.0
H973 H 0.41382 0.17862 0.8125 0.0
H974 H 0.43578 0.20476 0.58022 0.0
H975 H 0.34401 0.13721 0.63309 0.0
H976 H 0.29847 0.118 0.68406 0.0
H977 H 0.28453 0.17381 0.56292 0.0
H978 H 0.33013 0.19359 0.51177 0.0
H979 H 0.40527 0.15138 0.2294 0.0
H980 H 0.40134 0.15244 0.35573 0.0
H981 H 0.38957 0.22178 0.33723 0.0
H982 H 0.39437 0.22143 0.20958 0.0
H983 H 0.35132 0.17186 0.43255 0.0
H984 H 0.44632 0.24077 0.38696 0.0
H985 H 0.49115 0.25688 0.33486 0.0
H986 H 0.4974 0.19359 0.44295 0.0
H987 H 0.45234 0.17681 0.49481 0.0
C988 C 0.38141 0.21189 0.75589 0.0
C989 C 0.39302 0.20152 0.80322 0.0
C990 C 0.38137 0.20772 0.68417 0.0
C991 C 0.3925 0.1926 0.65762 0.0
C992 C 0.40455 0.18248 0.70469 0.0
C993 C 0.4048 0.1869 0.77711 0.0
C994 C 0.39224 0.18853 0.58057 0.0
C995 C 0.41718 0.19709 0.54827 0.0
C996 C 0.36806 0.17882 0.53823 0.0
C997 C 0.34061 0.16704 0.56898 0.0
C998 C 0.33133 0.14554 0.6177 0.0
C999 C 0.30548 0.13451 0.64653 0.0
C1000 C 0.28864 0.14472 0.62685 0.0
C1001 C 0.2976 0.16593 0.57814 0.0
C1002 C 0.32343 0.17703 0.54911 0.0
C1003 C 0.40177 0.16687 0.2519 0.0
C1004 C 0.40046 0.18659 0.20957 0.0
C1005 C 0.39949 0.16738 0.3242 0.0
C1006 C 0.39535 0.18727 0.35575 0.0
C1007 C 0.39284 0.2063 0.31363 0.0
C1008 C 0.39565 0.20615 0.24097 0.0
C1009 C 0.39486 0.18869 0.43304 0.0
C1010 C 0.36979 0.17943 0.46502 0.0
C1011 C 0.41878 0.19731 0.47514 0.0
C1012 C 0.44583 0.20733 0.44404 0.0
C1013 C 0.45711 0.23009 0.39898 0.0
C1014 C 0.48259 0.23939 0.36964 0.0
C1015 C 0.49708 0.22621 0.3854 0.0
C1016 C 0.48613 0.20374 0.43067 0.0
C1017 C 0.46063 0.19434 0.46007 0.0
H1018 H 0.51682 0.23346 0.36269 0.0
H1019 H 0.26864 0.13616 0.64925 0.0
loop_
_geom_bond_atom_site_label_1
_geom_bond_atom_site_label_2
_geom_bond_distance
_geom_bond_site_symmetry_2
_ccdc_geom_bond_type
Dy0 O4 2.398 . S
Dy0 O5 2.491 . S
Dy0 O6 2.403 1_554 S
Dy0 O7 2.664 . S
Dy0 O11 2.326 . S
Dy0 O15 2.310 . S
Dy0 O16 2.351 . S
C1 O12 1.185 . S
C1 O13 1.355 . S
C2 O4 1.185 . S
C2 O5 1.355 . S
Dy3 O7 2.310 . S
Dy3 O10 2.351 . S
Dy3 O12 2.398 . S
Dy3 O13 2.491 . S
Dy3 O14 2.403 . S
Dy3 O15 2.664 . S
Dy3 O17 2.326 . S
O4 Dy0 2.398 . S
O4 C2 1.185 . S
O5 Dy0 2.491 . S
O5 C2 1.355 . S
O6 Dy0 2.403 1_556 S
O6 C8 1.254 . S
O7 Dy0 2.664 . S
O7 Dy3 2.310 . S
O7 C8 1.268 1_554 S
C8 O6 1.254 . S
C8 O7 1.268 1_556 S
C9 O14 1.254 . S
C9 O15 1.268 . S
O10 Dy3 2.351 . S
O10 C18 1.249 . S
O11 Dy0 2.326 . S
O11 C18 1.267 . S
O12 C1 1.185 . S
O12 Dy3 2.398 . S
O13 C1 1.355 . S
O13 Dy3 2.491 . S
O14 Dy3 2.403 . S
O14 C9 1.254 . S
O15 Dy0 2.310 . S
O15 Dy3 2.664 . S
O15 C9 1.268 . S
O16 Dy0 2.351 . S
O16 C19 1.249 . S
O17 Dy3 2.326 . S
O17 C19 1.267 . S
C18 O10 1.249 . S
C18 O11 1.267 . S
C19 O16 1.249 . S
C19 O17 1.267 . S
Dy20 O24 2.398 . S
Dy20 O25 2.491 1_556 S
Dy20 O26 2.403 . S
Dy20 O27 2.664 . S
Dy20 O31 2.326 . S
Dy20 O35 2.310 1_556 S
Dy20 O36 2.351 . S
C21 O32 1.185 . S
C21 O33 1.355 1_554 S
C22 O24 1.185 . S
C22 O25 1.355 1_556 S
Dy23 O27 2.310 1_554 S
Dy23 O30 2.351 . S
Dy23 O32 2.398 . S
Dy23 O33 2.491 1_554 S
Dy23 O34 2.403 . S
Dy23 O35 2.664 . S
Dy23 O37 2.326 . S
O24 Dy20 2.398 . S
O24 C22 1.185 . S
O25 Dy20 2.491 1_554 S
O25 C22 1.355 1_554 S
O26 Dy20 2.403 . S
O26 C28 1.254 . S
O27 Dy20 2.664 . S
O27 Dy23 2.310 1_556 S
O27 C28 1.268 . S
C28 O26 1.254 . S
C28 O27 1.268 . S
C29 O34 1.254 . S
C29 O35 1.268 . S
O30 Dy23 2.351 . S
O30 C38 1.249 1_554 S
O31 Dy20 2.326 . S
O31 C38 1.267 . S
O32 C21 1.185 . S
O32 Dy23 2.398 . S
O33 C21 1.355 1_556 S
O33 Dy23 2.491 1_556 S
O34 Dy23 2.403 . S
O34 C29 1.254 . S
O35 Dy20 2.310 1_554 S
O35 Dy23 2.664 . S
O35 C29 1.268 . S
O36 Dy20 2.351 . S
O36 C39 1.249 1_556 S
O37 Dy23 2.326 . S
O37 C39 1.267 . S
C38 O30 1.249 1_556 S
C38 O31 1.267 . S
C39 O36 1.249 1_554 S
C39 O37 1.267 . S
Dy40 O44 2.398 . S
Dy40 O45 2.491 . S
Dy40 O46 2.403 1_554 S
Dy40 O47 2.664 . S
Dy40 O51 2.326 . S
Dy40 O55 2.310 . S
Dy40 O56 2.351 . S
C41 O52 1.185 . S
C41 O53 1.355 . S
C42 O44 1.185 . S
C42 O45 1.355 . S
Dy43 O47 2.310 . S
Dy43 O50 2.351 . S
Dy43 O52 2.398 . S
Dy43 O53 2.491 . S
Dy43 O54 2.403 . S
Dy43 O55 2.664 . S
Dy43 O57 2.326 . S
O44 Dy40 2.398 . S
O44 C42 1.185 . S
O45 Dy40 2.491 . S
O45 C42 1.355 . S
O46 Dy40 2.403 1_556 S
O46 C48 1.254 . S
O47 Dy40 2.664 . S
O47 Dy43 2.310 . S
O47 C48 1.268 1_554 S
C48 O46 1.254 . S
C48 O47 1.268 1_556 S
C49 O54 1.254 . S
C49 O55 1.268 . S
O50 Dy43 2.351 . S
O50 C58 1.249 . S
O51 Dy40 2.326 . S
O51 C58 1.267 . S
O52 C41 1.185 . S
O52 Dy43 2.398 . S
O53 C41 1.355 . S
O53 Dy43 2.491 . S
O54 Dy43 2.403 . S
O54 C49 1.254 . S
O55 Dy40 2.310 . S
O55 Dy43 2.664 . S
O55 C49 1.268 . S
O56 Dy40 2.351 . S
O56 C59 1.249 . S
O57 Dy43 2.326 . S
O57 C59 1.267 . S
C58 O50 1.249 . S
C58 O51 1.267 . S
C59 O56 1.249 . S
C59 O57 1.267 . S
Dy60 O64 2.398 . S
Dy60 O65 2.491 1_556 S
Dy60 O66 2.403 . S
Dy60 O67 2.664 . S
Dy60 O71 2.326 . S
Dy60 O75 2.310 1_556 S
Dy60 O76 2.351 1_556 S
C61 O72 1.185 . S
C61 O73 1.355 1_554 S
C62 O64 1.185 1_554 S
C62 O65 1.355 . S
Dy63 O67 2.310 1_554 S
Dy63 O70 2.351 . S
Dy63 O72 2.398 . S
Dy63 O73 2.491 1_554 S
Dy63 O74 2.403 . S
Dy63 O75 2.664 . S
Dy63 O77 2.326 . S
O64 Dy60 2.398 . S
O64 C62 1.185 1_556 S
O65 Dy60 2.491 1_554 S
O65 C62 1.355 . S
O66 Dy60 2.403 . S
O66 C68 1.254 . S
O67 Dy60 2.664 . S
O67 Dy63 2.310 1_556 S
O67 C68 1.268 . S
C68 O66 1.254 . S
C68 O67 1.268 . S
C69 O74 1.254 . S
C69 O75 1.268 . S
O70 Dy63 2.351 . S
O70 C78 1.249 1_554 S
O71 Dy60 2.326 . S
O71 C78 1.267 . S
O72 C61 1.185 . S
O72 Dy63 2.398 . S
O73 C61 1.355 1_556 S
O73 Dy63 2.491 1_556 S
O74 Dy63 2.403 . S
O74 C69 1.254 . S
O75 Dy60 2.310 1_554 S
O75 Dy63 2.664 . S
O75 C69 1.268 . S
O76 Dy60 2.351 1_554 S
O76 C79 1.249 . S
O77 Dy63 2.326 . S
O77 C79 1.267 . S
C78 O70 1.249 1_556 S
C78 O71 1.267 . S
C79 O76 1.249 . S
C79 O77 1.267 . S
Dy80 O84 2.398 . S
Dy80 O85 2.491 . S
Dy80 O86 2.403 1_554 S
Dy80 O87 2.664 . S
Dy80 O91 2.326 . S
Dy80 O95 2.310 . S
Dy80 O96 2.351 . S
C81 O92 1.185 . S
C81 O93 1.355 . S
C82 O84 1.185 . S
C82 O85 1.355 . S
Dy83 O87 2.310 . S
Dy83 O90 2.351 . S
Dy83 O92 2.398 . S
Dy83 O93 2.491 . S
Dy83 O94 2.403 . S
Dy83 O95 2.664 . S
Dy83 O97 2.326 . S
O84 Dy80 2.398 . S
O84 C82 1.185 . S
O85 Dy80 2.491 . S
O85 C82 1.355 . S
O86 Dy80 2.403 1_556 S
O86 C88 1.254 . S
O87 Dy80 2.664 . S
O87 Dy83 2.310 . S
O87 C88 1.268 1_554 S
C88 O86 1.254 . S
C88 O87 1.268 1_556 S
C89 O94 1.254 . S
C89 O95 1.268 . S
O90 Dy83 2.351 . S
O90 C98 1.249 . S
O91 Dy80 2.326 . S
O91 C98 1.267 . S
O92 C81 1.185 . S
O92 Dy83 2.398 . S
O93 C81 1.355 . S
O93 Dy83 2.491 . S
O94 Dy83 2.403 . S
O94 C89 1.254 . S
O95 Dy80 2.310 . S
O95 Dy83 2.664 . S
O95 C89 1.268 . S
O96 Dy80 2.351 . S
O96 C99 1.249 . S
O97 Dy83 2.326 . S
O97 C99 1.267 . S
C98 O90 1.249 . S
C98 O91 1.267 . S
C99 O96 1.249 . S
C99 O97 1.267 . S
Dy100 O104 2.398 . S
Dy100 O105 2.491 1_554 S
Dy100 O106 2.403 . S
Dy100 O107 2.664 . S
Dy100 O111 2.326 . S
Dy100 O115 2.310 1_554 S
Dy100 O116 2.351 . S
C101 O112 1.185 1_554 S
C101 O113 1.355 . S
C102 O104 1.185 1_556 S
C102 O105 1.355 . S
Dy103 O107 2.299 1_556 S
Dy103 O110 2.352 1_556 S
Dy103 O112 2.402 . S
Dy103 O113 2.482 1_556 S
Dy103 O114 2.419 . S
Dy103 O115 2.672 . S
Dy103 O117 2.328 . S
O104 Dy100 2.398 . S
O104 C102 1.185 1_554 S
O105 Dy100 2.491 1_556 S
O105 C102 1.355 . S
O106 Dy100 2.403 . S
O106 C108 1.254 . S
O107 Dy100 2.664 . S
O107 Dy103 2.299 1_554 S
O107 C108 1.268 . S
C108 O106 1.254 . S
C108 O107 1.268 . S
C109 O114 1.254 . S
C109 O115 1.268 . S
O110 Dy103 2.352 1_554 S
O110 C118 1.250 . S
O111 Dy100 2.326 . S
O111 C118 1.267 . S
O112 C101 1.185 1_556 S
O112 Dy103 2.402 . S
O113 C101 1.355 . S
O113 Dy103 2.482 1_554 S
O114 Dy103 2.419 . S
O114 C109 1.254 . S
O115 Dy100 2.310 1_556 S
O115 Dy103 2.672 . S
O115 C109 1.268 . S
O116 Dy100 2.351 . S
O116 C119 1.249 . S
O117 Dy103 2.328 . S
O117 C119 1.267 1_556 S
C118 O110 1.250 . S
C118 O111 1.267 . S
C119 O116 1.249 . S
C119 O117 1.267 1_554 S
H120 C138 0.951 . S
H121 C140 0.951 . S
H122 C142 0.950 . S
H123 C143 0.950 . S
H124 C145 0.950 . S
H125 C148 0.950 . S
H126 C149 0.950 . S
H127 C151 0.950 . S
H128 C152 0.950 . S
H129 C153 0.951 . S
H130 C155 0.951 . S
H131 C157 0.950 1_556 S
H132 C158 0.950 1_556 S
H133 C160 0.950 . S
H134 C163 0.950 . S
H135 C164 0.950 . S
H136 C166 0.950 . S
H137 C167 0.950 . S
C138 H120 0.951 . S
C138 C139 1.366 1_556 S
C138 C140 1.388 . S
C139 C138 1.366 1_554 S
C139 C143 1.385 . S
C140 H121 0.951 . S
C140 C138 1.388 . S
C140 C141 1.366 1_556 S
C141 C140 1.366 1_554 S
C141 C142 1.414 . S
C141 C144 1.499 . S
C142 H122 0.950 . S
C142 C141 1.414 . S
C142 C143 1.374 . S
C143 H123 0.950 . S
C143 C139 1.385 . S
C143 C142 1.374 . S
C144 C141 1.499 . S
C144 C145 1.373 . S
C144 C146 1.389 . S
C145 H124 0.950 . S
C145 C144 1.373 . S
C145 C161 1.377 . S
C146 C144 1.389 . S
C146 C147 1.524 . S
C146 C160 1.377 . S
C147 C146 1.524 . S
C147 C148 1.397 . S
C147 C152 1.363 1_554 S
C148 H125 0.950 . S
C148 C147 1.397 . S
C148 C149 1.334 . S
C149 H126 0.950 . S
C149 C148 1.334 . S
C149 C150 1.287 1_554 S
C150 C149 1.287 1_556 S
C150 C151 1.524 . S
C150 H169 0.913 . S
C151 H127 0.950 . S
C151 C150 1.524 . S
C151 C152 1.415 . S
C152 H128 0.950 . S
C152 C147 1.363 1_556 S
C152 C151 1.415 . S
C153 H129 0.951 . S
C153 C154 1.366 . S
C153 C155 1.388 . S
C154 C153 1.366 . S
C154 C158 1.385 . S
C155 H130 0.951 . S
C155 C153 1.388 . S
C155 C156 1.366 . S
C156 C155 1.366 . S
C156 C157 1.414 . S
C156 C159 1.499 . S
C157 H131 0.950 1_554 S
C157 C156 1.414 . S
C157 C158 1.374 . S
C158 H132 0.950 1_554 S
C158 C154 1.385 . S
C158 C157 1.374 . S
C159 C156 1.499 . S
C159 C160 1.373 . S
C159 C161 1.389 . S
C160 H133 0.950 . S
C160 C146 1.377 . S
C160 C159 1.373 . S
C161 C145 1.377 . S
C161 C159 1.389 . S
C161 C162 1.524 . S
C162 C161 1.524 . S
C162 C163 1.397 . S
C162 C167 1.363 . S
C163 H134 0.950 . S
C163 C162 1.397 . S
C163 C164 1.334 . S
C164 H135 0.950 . S
C164 C163 1.334 . S
C164 C165 1.287 . S
C165 C164 1.287 . S
C165 C166 1.524 . S
C165 H168 0.999 . S
C166 H136 0.950 . S
C166 C165 1.524 . S
C166 C167 1.415 . S
C167 H137 0.950 . S
C167 C162 1.363 . S
C167 C166 1.415 . S
H168 C165 0.999 . S
H169 C150 0.913 . S
H170 C188 0.951 . S
H171 C190 0.951 . S
H172 C192 0.950 1_556 S
H173 C193 0.950 . S
H174 C195 0.950 . S
H175 C198 0.950 . S
H176 C199 0.950 . S
H177 C201 0.950 . S
H178 C202 0.950 . S
H179 C203 0.951 . S
H180 C205 0.951 . S
H181 C207 0.950 . S
H182 C208 0.950 . S
H183 C210 0.950 . S
H184 C213 0.950 . S
H185 C214 0.950 . S
H186 C216 0.950 . S
H187 C217 0.939 1_455 S
C188 H170 0.951 . S
C188 C189 1.366 . S
C188 C190 1.388 . S
C189 C188 1.366 . S
C189 C193 1.385 . S
C190 H171 0.951 . S
C190 C188 1.388 . S
C190 C191 1.366 . S
C191 C190 1.366 . S
C191 C192 1.414 . S
C191 C194 1.499 . S
C192 H172 0.950 1_554 S
C192 C191 1.414 . S
C192 C193 1.374 . S
C193 H173 0.950 . S
C193 C189 1.385 . S
C193 C192 1.374 . S
C194 C191 1.499 . S
C194 C195 1.373 1_554 S
C194 C196 1.389 . S
C195 H174 0.950 . S
C195 C194 1.373 1_556 S
C195 C211 1.377 1_455 S
C196 C194 1.389 . S
C196 C197 1.524 . S
C196 C210 1.377 1_455 S
C197 C196 1.524 . S
C197 C198 1.397 . S
C197 C202 1.363 . S
C198 H175 0.950 . S
C198 C197 1.397 . S
C198 C199 1.334 . S
C199 H176 0.950 . S
C199 C198 1.334 . S
C199 C200 1.287 . S
C200 C199 1.287 . S
C200 C201 1.524 . S
C200 H219 0.913 . S
C201 H177 0.950 . S
C201 C200 1.524 . S
C201 C202 1.415 . S
C202 H178 0.950 . S
C202 C197 1.363 . S
C202 C201 1.415 . S
C203 H179 0.951 . S
C203 C204 1.366 1_556 S
C203 C205 1.388 . S
C204 C203 1.366 1_554 S
C204 C208 1.385 . S
C205 H180 0.951 . S
C205 C203 1.388 . S
C205 C206 1.366 1_556 S
C206 C205 1.366 1_554 S
C206 C207 1.414 . S
C206 C209 1.499 . S
C207 H181 0.950 . S
C207 C206 1.414 . S
C207 C208 1.374 . S
C208 H182 0.950 . S
C208 C204 1.385 . S
C208 C207 1.374 . S
C209 C206 1.499 . S
C209 C210 1.373 . S
C209 C211 1.389 1_554 S
C210 H183 0.950 . S
C210 C196 1.377 1_655 S
C210 C209 1.373 . S
C211 C195 1.377 1_655 S
C211 C209 1.389 1_556 S
C211 C212 1.524 . S
C212 C211 1.524 . S
C212 C213 1.397 . S
C212 C217 1.371 . S
C213 H184 0.950 . S
C213 C212 1.397 . S
C213 C214 1.334 . S
C214 H185 0.950 . S
C214 C213 1.334 . S
C214 C215 1.287 . S
C215 C214 1.287 . S
C215 C216 1.524 . S
C215 H218 0.999 . S
C216 H186 0.950 . S
C216 C215 1.524 . S
C216 C217 1.419 . S
C217 H187 0.939 1_655 S
C217 C212 1.371 . S
C217 C216 1.419 . S
H218 C215 0.999 . S
H219 C200 0.913 . S
H220 C238 0.951 . S
H221 C240 0.951 . S
H222 C242 0.950 . S
H223 C243 0.950 . S
H224 C245 0.950 . S
H225 C248 0.950 . S
H226 C249 0.950 . S
H227 C251 0.950 . S
H228 C252 0.950 . S
H229 C253 0.951 . S
H230 C255 0.951 . S
H231 C257 0.950 . S
H232 C258 0.950 . S
H233 C260 0.950 1_565 S
H234 C263 0.950 . S
H235 C264 0.950 . S
H236 C266 0.950 . S
H237 C267 0.950 . S
C238 H220 0.951 . S
C238 C239 1.366 . S
C238 C240 1.388 . S
C239 C238 1.366 . S
C239 C243 1.385 1_554 S
C240 H221 0.951 . S
C240 C238 1.388 . S
C240 C241 1.366 . S
C241 C240 1.366 . S
C241 C242 1.414 1_554 S
C241 C244 1.499 . S
C242 H222 0.950 . S
C242 C241 1.414 1_556 S
C242 C243 1.374 . S
C243 H223 0.950 . S
C243 C239 1.385 1_556 S
C243 C242 1.374 . S
C244 C241 1.499 . S
C244 C245 1.373 1_554 S
C244 C246 1.389 . S
C245 H224 0.950 . S
C245 C244 1.373 1_556 S
C245 C261 1.377 1_545 S
C246 C244 1.389 . S
C246 C247 1.524 . S
C246 C260 1.377 . S
C247 C246 1.524 . S
C247 C248 1.397 . S
C247 C252 1.363 . S
C248 H225 0.950 . S
C248 C247 1.397 . S
C248 C249 1.334 . S
C249 H226 0.950 . S
C249 C248 1.334 . S
C249 C250 1.287 . S
C250 C249 1.287 . S
C250 C251 1.524 . S
C250 H269 0.913 . S
C251 H227 0.950 . S
C251 C250 1.524 . S
C251 C252 1.415 . S
C252 H228 0.950 . S
C252 C247 1.363 . S
C252 C251 1.415 . S
C253 H229 0.951 . S
C253 C254 1.366 . S
C253 C255 1.388 . S
C254 C253 1.366 . S
C254 C258 1.385 . S
C255 H230 0.951 . S
C255 C253 1.388 . S
C255 C256 1.366 . S
C256 C255 1.366 . S
C256 C257 1.414 . S
C256 C259 1.499 . S
C257 H231 0.950 . S
C257 C256 1.414 . S
C257 C258 1.374 . S
C258 H232 0.950 . S
C258 C254 1.385 . S
C258 C257 1.374 . S
C259 C256 1.499 . S
C259 C260 1.373 1_565 S
C259 C261 1.389 1_554 S
C260 H233 0.950 1_545 S
C260 C246 1.377 . S
C260 C259 1.373 1_545 S
C261 C245 1.377 1_565 S
C261 C259 1.389 1_556 S
C261 C262 1.524 . S
C262 C261 1.524 . S
C262 C263 1.397 . S
C262 C267 1.363 . S
C263 H234 0.950 . S
C263 C262 1.397 . S
C263 C264 1.334 . S
C264 H235 0.950 . S
C264 C263 1.334 . S
C264 C265 1.287 . S
C265 C264 1.287 . S
C265 C266 1.524 . S
C265 H268 0.999 . S
C266 H236 0.950 . S
C266 C265 1.524 . S
C266 C267 1.415 . S
C267 H237 0.950 . S
C267 C262 1.363 . S
C267 C266 1.415 . S
H268 C265 0.999 . S
H269 C250 0.913 . S
H270 C288 0.951 . S
H271 C290 0.951 1_556 S
H272 C292 0.950 . S
H273 C293 0.950 . S
H274 C295 0.950 . S
H275 C298 0.950 . S
H276 C299 0.950 . S
H277 C301 0.950 . S
H278 C302 0.950 . S
H279 C303 0.951 . S
H280 C305 0.951 . S
H281 C307 0.950 . S
H282 C308 0.950 . S
H283 C310 0.950 . S
H284 C313 0.950 . S
H285 C314 0.950 . S
H286 C316 0.950 . S
H287 C317 0.950 . S
C288 H270 0.951 . S
C288 C289 1.366 1_556 S
C288 C290 1.388 1_556 S
C289 C288 1.366 1_554 S
C289 C293 1.385 . S
C290 H271 0.951 1_554 S
C290 C288 1.388 1_554 S
C290 C291 1.366 . S
C291 C290 1.366 . S
C291 C292 1.414 . S
C291 C294 1.499 . S
C292 H272 0.950 . S
C292 C291 1.414 . S
C292 C293 1.374 . S
C293 H273 0.950 . S
C293 C289 1.385 . S
C293 C292 1.374 . S
C294 C291 1.499 . S
C294 C295 1.373 . S
C294 C296 1.389 1_554 S
C295 H274 0.950 . S
C295 C294 1.373 . S
C295 C311 1.377 . S
C296 C294 1.389 1_556 S
C296 C297 1.524 . S
C296 C310 1.377 . S
C297 C296 1.524 . S
C297 C298 1.397 . S
C297 C302 1.363 . S
C298 H275 0.950 . S
C298 C297 1.397 . S
C298 C299 1.334 . S
C299 H276 0.950 . S
C299 C298 1.334 . S
C299 C300 1.287 . S
C300 C299 1.287 . S
C300 C301 1.524 . S
C300 H319 0.913 . S
C301 H277 0.950 . S
C301 C300 1.524 . S
C301 C302 1.415 . S
C302 H278 0.950 . S
C302 C297 1.363 . S
C302 C301 1.415 . S
C303 H279 0.951 . S
C303 C304 1.366 . S
C303 C305 1.388 . S
C304 C303 1.366 . S
C304 C308 1.385 . S
C305 H280 0.951 . S
C305 C303 1.388 . S
C305 C306 1.366 . S
C306 C305 1.366 . S
C306 C307 1.414 . S
C306 C309 1.499 . S
C307 H281 0.950 . S
C307 C306 1.414 . S
C307 C308 1.374 . S
C308 H282 0.950 . S
C308 C304 1.385 . S
C308 C307 1.374 . S
C309 C306 1.499 . S
C309 C310 1.373 1_554 S
C309 C311 1.389 . S
C310 H283 0.950 . S
C310 C296 1.377 . S
C310 C309 1.373 1_556 S
C311 C295 1.377 . S
C311 C309 1.389 . S
C311 C312 1.524 . S
C312 C311 1.524 . S
C312 C313 1.397 . S
C312 C317 1.363 . S
C313 H284 0.950 . S
C313 C312 1.397 . S
C313 C314 1.334 . S
C314 H285 0.950 . S
C314 C313 1.334 . S
C314 C315 1.287 . S
C315 C314 1.287 . S
C315 C316 1.524 . S
C315 H318 0.999 . S
C316 H286 0.950 . S
C316 C315 1.524 . S
C316 C317 1.415 . S
C317 H287 0.950 . S
C317 C312 1.363 . S
C317 C316 1.415 . S
H318 C315 0.999 . S
H319 C300 0.913 . S
H320 C338 0.951 . S
H321 C340 0.951 . S
H322 C342 0.950 . S
H323 C343 0.950 . S
H324 C345 0.950 . S
H325 C348 0.950 . S
H326 C349 0.950 . S
H327 C351 0.950 . S
H328 C352 0.950 . S
H329 C353 0.951 . S
H330 C355 0.951 . S
H331 C357 0.950 . S
H332 C358 0.950 1_556 S
H333 C360 0.950 . S
H334 C363 0.950 . S
H335 C364 0.950 . S
H336 C366 0.950 . S
H337 C367 0.950 . S
C338 H320 0.951 . S
C338 C339 1.366 . S
C338 C340 1.388 . S
C339 C338 1.366 . S
C339 C343 1.385 . S
C340 H321 0.951 . S
C340 C338 1.388 . S
C340 C341 1.366 . S
C341 C340 1.366 . S
C341 C342 1.414 . S
C341 C344 1.499 1_455 S
C342 H322 0.950 . S
C342 C341 1.414 . S
C342 C343 1.374 . S
C343 H323 0.950 . S
C343 C339 1.385 . S
C343 C342 1.374 . S
C344 C341 1.499 1_655 S
C344 C345 1.373 . S
C344 C346 1.389 1_554 S
C345 H324 0.950 . S
C345 C344 1.373 . S
C345 C361 1.377 . S
C346 C344 1.389 1_556 S
C346 C347 1.496 1_655 S
C346 C360 1.377 . S
C347 C346 1.496 1_455 S
C347 C348 1.402 . S
C347 C352 1.383 1_455 S
C348 H325 0.950 . S
C348 C347 1.402 . S
C348 C349 1.334 . S
C349 H326 0.950 . S
C349 C348 1.334 . S
C349 C350 1.287 . S
C350 C349 1.287 . S
C350 C351 1.524 . S
C350 H369 0.913 . S
C351 H327 0.950 . S
C351 C350 1.524 . S
C351 C352 1.415 1_455 S
C352 H328 0.950 . S
C352 C347 1.383 1_655 S
C352 C351 1.415 1_655 S
C353 H329 0.951 . S
C353 C354 1.366 . S
C353 C355 1.388 . S
C354 C353 1.366 . S
C354 C358 1.385 . S
C355 H330 0.951 . S
C355 C353 1.388 . S
C355 C356 1.366 . S
C356 C355 1.366 . S
C356 C357 1.414 . S
C356 C359 1.499 . S
C357 H331 0.950 . S
C357 C356 1.414 . S
C357 C358 1.374 . S
C358 H332 0.950 1_554 S
C358 C354 1.385 . S
C358 C357 1.374 . S
C359 C356 1.499 . S
C359 C360 1.373 1_554 S
C359 C361 1.389 . S
C360 H333 0.950 . S
C360 C346 1.377 . S
C360 C359 1.373 1_556 S
C361 C345 1.377 . S
C361 C359 1.389 . S
C361 C362 1.524 . S
C362 C361 1.524 . S
C362 C363 1.397 . S
C362 C367 1.363 . S
C363 H334 0.950 . S
C363 C362 1.397 . S
C363 C364 1.334 . S
C364 H335 0.950 . S
C364 C363 1.334 . S
C364 C365 1.287 . S
C365 C364 1.287 . S
C365 C366 1.524 . S
C365 H368 0.999 . S
C366 H336 0.950 . S
C366 C365 1.524 . S
C366 C367 1.415 . S
C367 H337 0.950 . S
C367 C362 1.363 . S
C367 C366 1.415 . S
H368 C365 0.999 . S
H369 C350 0.913 . S
H370 C388 0.951 . S
H371 C390 0.951 . S
H372 C392 0.950 . S
H373 C393 0.950 . S
H374 C395 0.950 . S
H375 C398 0.950 . S
H376 C399 0.950 . S
H377 C401 0.950 . S
H378 C402 0.950 . S
H379 C403 0.951 . S
H380 C405 0.951 . S
H381 C407 0.950 . S
H382 C408 0.950 . S
H383 C410 0.950 1_556 S
H384 C413 0.950 . S
H385 C414 0.950 . S
H386 C416 0.950 . S
H387 C417 0.950 . S
C388 H370 0.951 . S
C388 C389 1.366 . S
C388 C390 1.388 . S
C389 C388 1.366 . S
C389 C393 1.385 . S
C390 H371 0.951 . S
C390 C388 1.388 . S
C390 C391 1.366 . S
C391 C390 1.366 . S
C391 C392 1.414 . S
C391 C394 1.499 . S
C392 H372 0.950 . S
C392 C391 1.414 . S
C392 C393 1.374 . S
C393 H373 0.950 . S
C393 C389 1.385 . S
C393 C392 1.374 . S
C394 C391 1.499 . S
C394 C395 1.373 . S
C394 C396 1.389 . S
C395 H374 0.950 . S
C395 C394 1.373 . S
C395 C411 1.377 1_565 S
C396 C394 1.389 . S
C396 C397 1.524 1_554 S
C396 C410 1.377 1_565 S
C397 C396 1.524 1_556 S
C397 C398 1.397 . S
C397 C402 1.363 . S
C398 H375 0.950 . S
C398 C397 1.397 . S
C398 C399 1.334 . S
C399 H376 0.950 . S
C399 C398 1.334 . S
C399 C400 1.287 . S
C400 C399 1.287 . S
C400 C401 1.524 . S
C400 H419 0.913 . S
C401 H377 0.950 . S
C401 C400 1.524 . S
C401 C402 1.415 . S
C402 H378 0.950 . S
C402 C397 1.363 . S
C402 C401 1.415 . S
C403 H379 0.951 . S
C403 C404 1.366 . S
C403 C405 1.388 . S
C404 C403 1.366 . S
C404 C408 1.385 . S
C405 H380 0.951 . S
C405 C403 1.388 . S
C405 C406 1.366 . S
C406 C405 1.366 . S
C406 C407 1.414 . S
C406 C409 1.499 . S
C407 H381 0.950 . S
C407 C406 1.414 . S
C407 C408 1.374 . S
C408 H382 0.950 . S
C408 C404 1.385 . S
C408 C407 1.374 . S
C409 C406 1.499 . S
C409 C410 1.373 . S
C409 C411 1.389 . S
C410 H383 0.950 1_554 S
C410 C396 1.377 1_545 S
C410 C409 1.373 . S
C411 C395 1.377 1_545 S
C411 C409 1.389 . S
C411 C412 1.524 . S
C412 C411 1.524 . S
C412 C413 1.397 . S
C412 C417 1.363 . S
C413 H384 0.950 . S
C413 C412 1.397 . S
C413 C414 1.334 . S
C414 H385 0.950 . S
C414 C413 1.334 . S
C414 C415 1.287 . S
C415 C414 1.287 . S
C415 C416 1.524 . S
C415 H418 0.999 . S
C416 H386 0.950 . S
C416 C415 1.524 . S
C416 C417 1.415 . S
C417 H387 0.950 . S
C417 C412 1.363 . S
C417 C416 1.415 . S
H418 C415 0.999 . S
H419 C400 0.913 . S
H420 C438 0.951 . S
H421 C440 0.951 . S
H422 C442 0.950 . S
H423 C443 0.950 . S
H424 C445 0.950 . S
H425 C448 0.950 . S
H426 C449 0.950 . S
H427 C451 0.950 . S
H428 C452 0.950 . S
H429 C453 0.951 . S
H430 C455 0.951 . S
H431 C457 0.950 . S
H432 C458 0.950 . S
H433 C460 0.950 . S
H434 C463 0.950 . S
H435 C464 0.950 . S
H436 C466 0.950 . S
H437 C467 0.950 . S
C438 H420 0.951 . S
C438 C439 1.366 . S
C438 C440 1.388 . S
C439 C438 1.366 . S
C439 C443 1.385 . S
C440 H421 0.951 . S
C440 C438 1.388 . S
C440 C441 1.366 . S
C441 C440 1.366 . S
C441 C442 1.414 . S
C441 C444 1.499 . S
C442 H422 0.950 . S
C442 C441 1.414 . S
C442 C443 1.374 . S
C443 H423 0.950 . S
C443 C439 1.385 . S
C443 C442 1.374 . S
C444 C441 1.499 . S
C444 C445 1.373 . S
C444 C446 1.389 . S
C445 H424 0.950 . S
C445 C444 1.373 . S
C445 C461 1.377 . S
C446 C444 1.389 . S
C446 C447 1.524 . S
C446 C460 1.377 . S
C447 C446 1.524 . S
C447 C448 1.397 . S
C447 C452 1.363 . S
C448 H425 0.950 . S
C448 C447 1.397 . S
C448 C449 1.334 . S
C449 H426 0.950 . S
C449 C448 1.334 . S
C449 C450 1.287 . S
C450 C449 1.287 . S
C450 C451 1.524 . S
C450 H469 0.913 . S
C451 H427 0.950 . S
C451 C450 1.524 . S
C451 C452 1.415 . S
C452 H428 0.950 . S
C452 C447 1.363 . S
C452 C451 1.415 . S
C453 H429 0.951 . S
C453 C454 1.366 . S
C453 C455 1.388 . S
C454 C453 1.366 . S
C454 C458 1.385 . S
C455 H430 0.951 . S
C455 C453 1.388 . S
C455 C456 1.366 . S
C456 C455 1.366 . S
C456 C457 1.414 . S
C456 C459 1.499 . S
C457 H431 0.950 . S
C457 C456 1.414 . S
C457 C458 1.374 . S
C458 H432 0.950 . S
C458 C454 1.385 . S
C458 C457 1.374 . S
C459 C456 1.499 . S
C459 C460 1.373 . S
C459 C461 1.389 . S
C460 H433 0.950 . S
C460 C446 1.377 . S
C460 C459 1.373 . S
C461 C445 1.377 . S
C461 C459 1.389 . S
C461 C462 1.524 . S
C462 C461 1.524 . S
C462 C463 1.397 . S
C462 C467 1.363 . S
C463 H434 0.950 . S
C463 C462 1.397 . S
C463 C464 1.334 . S
C464 H435 0.950 . S
C464 C463 1.334 . S
C464 C465 1.287 . S
C465 C464 1.287 . S
C465 C466 1.524 . S
C465 H468 0.999 . S
C466 H436 0.950 . S
C466 C465 1.524 . S
C466 C467 1.415 . S
C467 H437 0.950 . S
C467 C462 1.363 . S
C467 C466 1.415 . S
H468 C465 0.999 . S
H469 C450 0.913 . S
H470 C488 0.951 . S
H471 C490 0.951 . S
H472 C492 0.950 . S
H473 C493 0.950 . S
H474 C495 0.950 . S
H475 C498 0.950 . S
H476 C499 0.950 . S
H477 C501 0.950 . S
H478 C502 0.950 1_554 S
H479 C503 0.951 . S
H480 C505 0.951 . S
H481 C507 0.950 . S
H482 C508 0.950 . S
H483 C510 0.950 . S
H484 C513 0.950 . S
H485 C514 0.950 . S
H486 C516 0.950 . S
H487 C517 0.950 1_556 S
C488 H470 0.951 . S
C488 C489 1.366 1_554 S
C488 C490 1.388 . S
C489 C488 1.366 1_556 S
C489 C493 1.385 . S
C490 H471 0.951 . S
C490 C488 1.388 . S
C490 C491 1.366 1_554 S
C491 C490 1.366 1_556 S
C491 C492 1.414 . S
C491 C494 1.499 . S
C492 H472 0.950 . S
C492 C491 1.414 . S
C492 C493 1.374 . S
C493 H473 0.950 . S
C493 C489 1.385 . S
C493 C492 1.374 . S
C494 C491 1.499 . S
C494 C495 1.373 1_556 S
C494 C496 1.389 . S
C495 H474 0.950 . S
C495 C494 1.373 1_554 S
C495 C511 1.377 . S
C496 C494 1.389 . S
C496 C497 1.524 . S
C496 C510 1.377 . S
C497 C496 1.524 . S
C497 C498 1.397 . S
C497 C502 1.363 . S
C498 H475 0.950 . S
C498 C497 1.397 . S
C498 C499 1.334 . S
C499 H476 0.950 . S
C499 C498 1.334 . S
C499 C500 1.287 . S
C500 C499 1.287 . S
C500 C501 1.524 . S
C500 H519 0.913 . S
C501 H477 0.950 . S
C501 C500 1.524 . S
C501 C502 1.415 . S
C502 H478 0.950 1_556 S
C502 C497 1.363 . S
C502 C501 1.415 . S
C503 H479 0.951 . S
C503 C504 1.366 . S
C503 C505 1.388 . S
C504 C503 1.366 . S
C504 C508 1.385 1_556 S
C505 H480 0.951 . S
C505 C503 1.388 . S
C505 C506 1.365 1_556 S
C506 C505 1.365 1_554 S
C506 C507 1.415 . S
C506 C509 1.499 . S
C507 H481 0.950 . S
C507 C506 1.415 . S
C507 C508 1.374 . S
C508 H482 0.950 . S
C508 C504 1.385 1_554 S
C508 C507 1.374 . S
C509 C506 1.499 . S
C509 C510 1.373 1_554 S
C509 C511 1.389 . S
C510 H483 0.950 . S
C510 C496 1.377 . S
C510 C509 1.373 1_556 S
C511 C495 1.377 . S
C511 C509 1.389 . S
C511 C512 1.524 . S
C512 C511 1.524 . S
C512 C513 1.397 . S
C512 C517 1.363 . S
C513 H484 0.950 . S
C513 C512 1.397 . S
C513 C514 1.334 . S
C514 H485 0.950 . S
C514 C513 1.334 . S
C514 C515 1.287 . S
C515 C514 1.287 . S
C515 C516 1.524 . S
C515 H518 0.999 . S
C516 H486 0.950 . S
C516 C515 1.524 . S
C516 C517 1.415 . S
C517 H487 0.950 1_554 S
C517 C512 1.363 . S
C517 C516 1.415 . S
H518 C515 0.999 . S
H519 C500 0.913 . S
H520 C538 0.951 . S
H521 C540 0.951 . S
H522 C542 0.950 . S
H523 C543 0.950 . S
H524 C545 0.950 . S
H525 C548 0.952 . S
H526 C549 0.950 . S
H527 C551 0.950 . S
H528 C552 0.950 . S
H529 C553 0.951 . S
H530 C555 0.951 . S
H531 C557 0.950 . S
H532 C558 0.950 . S
H533 C560 0.950 . S
H534 C563 0.950 . S
H535 C564 0.950 . S
H536 C566 0.950 . S
H537 C567 0.950 . S
C538 H520 0.951 . S
C538 C539 1.366 . S
C538 C540 1.388 . S
C539 C538 1.366 . S
C539 C543 1.385 . S
C540 H521 0.951 . S
C540 C538 1.388 . S
C540 C541 1.366 . S
C541 C540 1.366 . S
C541 C542 1.414 . S
C541 C544 1.499 . S
C542 H522 0.950 . S
C542 C541 1.414 . S
C542 C543 1.374 . S
C543 H523 0.950 . S
C543 C539 1.385 . S
C543 C542 1.374 . S
C544 C541 1.499 . S
C544 C545 1.373 . S
C544 C546 1.389 . S
C545 H524 0.950 . S
C545 C544 1.373 . S
C545 C561 1.377 . S
C546 C544 1.389 . S
C546 C547 1.524 . S
C546 C560 1.377 . S
C547 C546 1.524 . S
C547 C548 1.390 1_554 S
C547 C552 1.363 . S
C548 H525 0.952 . S
C548 C547 1.390 1_556 S
C548 C549 1.338 . S
C549 H526 0.950 . S
C549 C548 1.338 . S
C549 C550 1.287 . S
C550 C549 1.287 . S
C550 C551 1.524 1_556 S
C550 H569 0.913 . S
C551 H527 0.950 . S
C551 C550 1.524 1_554 S
C551 C552 1.415 . S
C552 H528 0.950 . S
C552 C547 1.363 . S
C552 C551 1.415 . S
C553 H529 0.951 . S
C553 C554 1.366 . S
C553 C555 1.388 . S
C554 C553 1.366 . S
C554 C558 1.385 . S
C555 H530 0.951 . S
C555 C553 1.388 . S
C555 C556 1.366 . S
C556 C555 1.366 . S
C556 C557 1.414 . S
C556 C559 1.499 . S
C557 H531 0.950 . S
C557 C556 1.414 . S
C557 C558 1.374 . S
C558 H532 0.950 . S
C558 C554 1.385 . S
C558 C557 1.374 . S
C559 C556 1.499 . S
C559 C560 1.373 . S
C559 C561 1.389 . S
C560 H533 0.950 . S
C560 C546 1.377 . S
C560 C559 1.373 . S
C561 C545 1.377 . S
C561 C559 1.389 . S
C561 C562 1.524 . S
C562 C561 1.524 . S
C562 C563 1.397 . S
C562 C567 1.363 . S
C563 H534 0.950 . S
C563 C562 1.397 . S
C563 C564 1.334 . S
C564 H535 0.950 . S
C564 C563 1.334 . S
C564 C565 1.287 . S
C565 C564 1.287 . S
C565 C566 1.524 . S
C565 H568 0.999 . S
C566 H536 0.950 . S
C566 C565 1.524 . S
C566 C567 1.415 . S
C567 H537 0.950 . S
C567 C562 1.363 . S
C567 C566 1.415 . S
H568 C565 0.999 . S
H569 C550 0.913 . S
H570 C588 0.951 . S
H571 C590 0.951 . S
H572 C592 0.950 . S
H573 C593 0.950 . S
H574 C595 0.950 . S
H575 C598 0.950 . S
H576 C599 0.950 . S
H577 C601 0.950 . S
H578 C602 0.950 . S
H579 C603 0.951 . S
H580 C605 0.951 . S
H581 C607 0.950 . S
H582 C608 0.950 . S
H583 C610 0.950 . S
H584 C613 0.950 . S
H585 C614 0.950 . S
H586 C616 0.950 . S
H587 C617 0.950 . S
C588 H570 0.951 . S
C588 C589 1.366 . S
C588 C590 1.388 . S
C589 C588 1.366 . S
C589 C593 1.385 1_554 S
C590 H571 0.951 . S
C590 C588 1.388 . S
C590 C591 1.366 . S
C591 C590 1.366 . S
C591 C592 1.414 1_554 S
C591 C594 1.499 . S
C592 H572 0.950 . S
C592 C591 1.414 1_556 S
C592 C593 1.374 . S
C593 H573 0.950 . S
C593 C589 1.385 1_556 S
C593 C592 1.374 . S
C594 C591 1.499 . S
C594 C595 1.373 1_554 S
C594 C596 1.389 . S
C595 H574 0.950 . S
C595 C594 1.373 1_556 S
C595 C611 1.377 . S
C596 C594 1.389 . S
C596 C597 1.524 . S
C596 C610 1.377 . S
C597 C596 1.524 . S
C597 C598 1.397 . S
C597 C602 1.363 . S
C598 H575 0.950 . S
C598 C597 1.397 . S
C598 C599 1.334 . S
C599 H576 0.950 . S
C599 C598 1.334 . S
C599 C600 1.287 . S
C600 C599 1.287 . S
C600 C601 1.524 . S
C600 H619 0.913 . S
C601 H577 0.950 . S
C601 C600 1.524 . S
C601 C602 1.415 . S
C602 H578 0.950 . S
C602 C597 1.363 . S
C602 C601 1.415 . S
C603 H579 0.951 . S
C603 C604 1.366 1_556 S
C603 C605 1.388 . S
C604 C603 1.366 1_554 S
C604 C608 1.384 . S
C605 H580 0.951 . S
C605 C603 1.388 . S
C605 C606 1.366 . S
C606 C605 1.366 . S
C606 C607 1.414 1_556 S
C606 C609 1.499 . S
C607 H581 0.950 . S
C607 C606 1.414 1_554 S
C607 C608 1.374 . S
C608 H582 0.950 . S
C608 C604 1.384 . S
C608 C607 1.374 . S
C609 C606 1.499 . S
C609 C610 1.373 1_556 S
C609 C611 1.389 . S
C610 H583 0.950 . S
C610 C596 1.377 . S
C610 C609 1.373 1_554 S
C611 C595 1.377 . S
C611 C609 1.389 . S
C611 C612 1.524 . S
C612 C611 1.524 . S
C612 C613 1.397 . S
C612 C617 1.363 . S
C613 H584 0.950 . S
C613 C612 1.397 . S
C613 C614 1.334 . S
C614 H585 0.950 . S
C614 C613 1.334 . S
C614 C615 1.287 . S
C615 C614 1.287 . S
C615 C616 1.524 . S
C615 H618 0.999 . S
C616 H586 0.950 . S
C616 C615 1.524 . S
C616 C617 1.415 . S
C617 H587 0.950 . S
C617 C612 1.363 . S
C617 C616 1.415 . S
H618 C615 0.999 . S
H619 C600 0.913 . S
H620 C638 0.951 . S
H621 C640 0.951 . S
H622 C642 0.950 . S
H623 C643 0.950 . S
H624 C645 0.950 . S
H625 C648 0.950 . S
H626 C649 0.950 . S
H627 C651 0.950 . S
H628 C652 0.950 . S
H629 C653 0.951 . S
H630 C655 0.951 . S
H631 C657 0.950 . S
H632 C658 0.950 . S
H633 C660 0.950 . S
H634 C663 0.950 . S
H635 C664 0.950 . S
H636 C666 0.950 . S
H637 C667 0.950 . S
C638 H620 0.951 . S
C638 C639 1.366 . S
C638 C640 1.388 . S
C639 C638 1.366 . S
C639 C643 1.385 . S
C640 H621 0.951 . S
C640 C638 1.388 . S
C640 C641 1.366 . S
C641 C640 1.366 . S
C641 C642 1.414 . S
C641 C644 1.499 . S
C642 H622 0.950 . S
C642 C641 1.414 . S
C642 C643 1.374 . S
C643 H623 0.950 . S
C643 C639 1.385 . S
C643 C642 1.374 . S
C644 C641 1.499 . S
C644 C645 1.373 . S
C644 C646 1.389 . S
C645 H624 0.950 . S
C645 C644 1.373 . S
C645 C661 1.377 . S
C646 C644 1.389 . S
C646 C647 1.524 . S
C646 C660 1.377 . S
C647 C646 1.524 . S
C647 C648 1.397 . S
C647 C652 1.363 . S
C648 H625 0.950 . S
C648 C647 1.397 . S
C648 C649 1.334 . S
C649 H626 0.950 . S
C649 C648 1.334 . S
C649 C650 1.287 . S
C650 C649 1.287 . S
C650 C651 1.524 . S
C650 H669 0.913 . S
C651 H627 0.950 . S
C651 C650 1.524 . S
C651 C652 1.415 . S
C652 H628 0.950 . S
C652 C647 1.363 . S
C652 C651 1.415 . S
C653 H629 0.951 . S
C653 C654 1.366 . S
C653 C655 1.388 . S
C654 C653 1.366 . S
C654 C658 1.385 . S
C655 H630 0.951 . S
C655 C653 1.388 . S
C655 C656 1.366 . S
C656 C655 1.366 . S
C656 C657 1.414 . S
C656 C659 1.499 . S
C657 H631 0.950 . S
C657 C656 1.414 . S
C657 C658 1.374 . S
C658 H632 0.950 . S
C658 C654 1.385 . S
C658 C657 1.374 . S
C659 C656 1.499 . S
C659 C660 1.373 . S
C659 C661 1.389 . S
C660 H633 0.950 . S
C660 C646 1.377 . S
C660 C659 1.373 . S
C661 C645 1.377 . S
C661 C659 1.389 . S
C661 C662 1.524 . S
C662 C661 1.524 . S
C662 C663 1.397 1_554 S
C662 C667 1.363 . S
C663 H634 0.950 . S
C663 C662 1.397 1_556 S
C663 C664 1.334 . S
C664 H635 0.950 . S
C664 C663 1.334 . S
C664 C665 1.287 . S
C665 C664 1.287 . S
C665 C666 1.524 1_556 S
C665 H668 0.999 . S
C666 H636 0.950 . S
C666 C665 1.524 1_554 S
C666 C667 1.415 . S
C667 H637 0.950 . S
C667 C662 1.363 . S
C667 C666 1.415 . S
H668 C665 0.999 . S
H669 C650 0.913 . S
H670 C688 0.951 . S
H671 C690 0.951 . S
H672 C692 0.950 . S
H673 C693 0.950 . S
H674 C695 0.950 . S
H675 C698 0.950 . S
H676 C699 0.950 . S
H677 C701 0.950 . S
H678 C702 0.950 . S
H679 C703 0.951 . S
H680 C705 0.951 . S
H681 C707 0.950 . S
H682 C708 0.950 . S
H683 C710 0.950 . S
H684 C713 0.950 . S
H685 C714 0.950 . S
H686 C716 0.950 . S
H687 C717 0.950 . S
C688 H670 0.951 . S
C688 C689 1.366 1_556 S
C688 C690 1.388 . S
C689 C688 1.366 1_554 S
C689 C693 1.384 . S
C690 H671 0.951 . S
C690 C688 1.388 . S
C690 C691 1.366 1_556 S
C691 C690 1.366 1_554 S
C691 C692 1.414 . S
C691 C694 1.499 . S
C692 H672 0.950 . S
C692 C691 1.414 . S
C692 C693 1.374 . S
C693 H673 0.950 . S
C693 C689 1.384 . S
C693 C692 1.374 . S
C694 C691 1.499 . S
C694 C695 1.373 1_554 S
C694 C696 1.389 . S
C695 H674 0.950 . S
C695 C694 1.373 1_556 S
C695 C711 1.377 . S
C696 C694 1.389 . S
C696 C697 1.524 . S
C696 C710 1.377 . S
C697 C696 1.524 . S
C697 C698 1.397 . S
C697 C702 1.363 . S
C698 H675 0.950 . S
C698 C697 1.397 . S
C698 C699 1.334 . S
C699 H676 0.950 . S
C699 C698 1.334 . S
C699 C700 1.287 . S
C700 C699 1.287 . S
C700 C701 1.524 . S
C700 H719 0.913 . S
C701 H677 0.950 . S
C701 C700 1.524 . S
C701 C702 1.415 . S
C702 H678 0.950 . S
C702 C697 1.363 . S
C702 C701 1.415 . S
C703 H679 0.951 . S
C703 C704 1.371 . S
C703 C705 1.388 . S
C704 C703 1.371 . S
C704 C708 1.379 1_554 S
C705 H680 0.951 . S
C705 C703 1.388 . S
C705 C706 1.366 1_554 S
C706 C705 1.366 1_556 S
C706 C707 1.414 . S
C706 C709 1.499 . S
C707 H681 0.950 . S
C707 C706 1.414 . S
C707 C708 1.374 . S
C708 H682 0.950 . S
C708 C704 1.379 1_556 S
C708 C707 1.374 . S
C709 C706 1.499 . S
C709 C710 1.373 1_556 S
C709 C711 1.389 . S
C710 H683 0.950 . S
C710 C696 1.377 . S
C710 C709 1.373 1_554 S
C711 C695 1.377 . S
C711 C709 1.389 . S
C711 C712 1.524 . S
C712 C711 1.524 . S
C712 C713 1.397 . S
C712 C717 1.363 . S
C713 H684 0.950 . S
C713 C712 1.397 . S
C713 C714 1.334 . S
C714 H685 0.950 . S
C714 C713 1.334 . S
C714 C715 1.287 . S
C715 C714 1.287 . S
C715 C716 1.524 . S
C715 H718 0.999 . S
C716 H686 0.950 . S
C716 C715 1.524 . S
C716 C717 1.415 . S
C717 H687 0.950 . S
C717 C712 1.363 . S
C717 C716 1.415 . S
H718 C715 0.999 . S
H719 C700 0.913 . S
H720 C738 0.951 . S
H721 C740 0.951 . S
H722 C742 0.950 . S
H723 C743 0.950 . S
H724 C745 0.950 . S
H725 C748 0.950 . S
H726 C749 0.950 . S
H727 C751 0.950 . S
H728 C752 0.950 . S
H729 C753 0.951 . S
H730 C755 0.951 . S
H731 C757 0.950 . S
H732 C758 0.950 . S
H733 C760 0.950 . S
H734 C763 0.950 . S
H735 C764 0.950 . S
H736 C766 0.950 . S
H737 C767 0.950 . S
C738 H720 0.951 . S
C738 C739 1.366 . S
C738 C740 1.388 . S
C739 C738 1.366 . S
C739 C743 1.385 . S
C740 H721 0.951 . S
C740 C738 1.388 . S
C740 C741 1.366 . S
C741 C740 1.366 . S
C741 C742 1.414 . S
C741 C744 1.499 . S
C742 H722 0.950 . S
C742 C741 1.414 . S
C742 C743 1.374 . S
C743 H723 0.950 . S
C743 C739 1.385 . S
C743 C742 1.374 . S
C744 C741 1.499 . S
C744 C745 1.373 . S
C744 C746 1.389 . S
C745 H724 0.950 . S
C745 C744 1.373 . S
C745 C761 1.377 . S
C746 C744 1.389 . S
C746 C747 1.524 . S
C746 C760 1.377 . S
C747 C746 1.524 . S
C747 C748 1.397 . S
C747 C752 1.363 . S
C748 H725 0.950 . S
C748 C747 1.397 . S
C748 C749 1.334 . S
C749 H726 0.950 . S
C749 C748 1.334 . S
C749 C750 1.287 . S
C750 C749 1.287 . S
C750 C751 1.524 . S
C750 H769 0.913 . S
C751 H727 0.950 . S
C751 C750 1.524 . S
C751 C752 1.415 . S
C752 H728 0.950 . S
C752 C747 1.363 . S
C752 C751 1.415 . S
C753 H729 0.951 . S
C753 C754 1.366 . S
C753 C755 1.388 . S
C754 C753 1.366 . S
C754 C758 1.385 . S
C755 H730 0.951 . S
C755 C753 1.388 . S
C755 C756 1.366 . S
C756 C755 1.366 . S
C756 C757 1.414 . S
C756 C759 1.499 . S
C757 H731 0.950 . S
C757 C756 1.414 . S
C757 C758 1.374 . S
C758 H732 0.950 . S
C758 C754 1.385 . S
C758 C757 1.374 . S
C759 C756 1.499 . S
C759 C760 1.373 . S
C759 C761 1.389 . S
C760 H733 0.950 . S
C760 C746 1.377 . S
C760 C759 1.373 . S
C761 C745 1.377 . S
C761 C759 1.389 . S
C761 C762 1.524 . S
C762 C761 1.524 . S
C762 C763 1.397 . S
C762 C767 1.363 . S
C763 H734 0.950 . S
C763 C762 1.397 . S
C763 C764 1.334 . S
C764 H735 0.950 . S
C764 C763 1.334 . S
C764 C765 1.287 . S
C765 C764 1.287 . S
C765 C766 1.524 . S
C765 H768 0.999 . S
C766 H736 0.950 . S
C766 C765 1.524 . S
C766 C767 1.415 . S
C767 H737 0.950 . S
C767 C762 1.363 . S
C767 C766 1.415 . S
H768 C765 0.999 . S
H769 C750 0.913 . S
H770 C788 0.951 . S
H771 C790 0.951 . S
H772 C792 0.950 . S
H773 C793 0.950 . S
H774 C795 0.950 . S
H775 C798 0.950 . S
H776 C799 0.950 . S
H777 C801 0.950 . S
H778 C802 0.950 . S
H779 C803 0.951 . S
H780 C805 0.951 . S
H781 C807 0.950 . S
H782 C808 0.950 . S
H783 C810 0.950 . S
H784 C813 0.950 . S
H785 C814 0.950 . S
H786 C816 0.950 . S
H787 C817 0.950 . S
C788 H770 0.951 . S
C788 C789 1.366 . S
C788 C790 1.388 . S
C789 C788 1.366 . S
C789 C793 1.385 . S
C790 H771 0.951 . S
C790 C788 1.388 . S
C790 C791 1.366 . S
C791 C790 1.366 . S
C791 C792 1.414 . S
C791 C794 1.499 . S
C792 H772 0.950 . S
C792 C791 1.414 . S
C792 C793 1.374 . S
C793 H773 0.950 . S
C793 C789 1.385 . S
C793 C792 1.374 . S
C794 C791 1.499 . S
C794 C795 1.373 . S
C794 C796 1.389 . S
C795 H774 0.950 . S
C795 C794 1.373 . S
C795 C811 1.377 . S
C796 C794 1.389 . S
C796 C797 1.524 . S
C796 C810 1.377 . S
C797 C796 1.524 . S
C797 C798 1.397 . S
C797 C802 1.363 . S
C798 H775 0.950 . S
C798 C797 1.397 . S
C798 C799 1.334 . S
C799 H776 0.950 . S
C799 C798 1.334 . S
C799 C800 1.287 . S
C800 C799 1.287 . S
C800 C801 1.524 . S
C800 H819 0.913 . S
C801 H777 0.950 . S
C801 C800 1.524 . S
C801 C802 1.415 . S
C802 H778 0.950 . S
C802 C797 1.363 . S
C802 C801 1.415 . S
C803 H779 0.951 . S
C803 C804 1.366 . S
C803 C805 1.388 . S
C804 C803 1.366 . S
C804 C808 1.385 . S
C805 H780 0.951 . S
C805 C803 1.388 . S
C805 C806 1.366 . S
C806 C805 1.366 . S
C806 C807 1.414 . S
C806 C809 1.499 . S
C807 H781 0.950 . S
C807 C806 1.414 . S
C807 C808 1.374 . S
C808 H782 0.950 . S
C808 C804 1.385 . S
C808 C807 1.374 . S
C809 C806 1.499 . S
C809 C810 1.373 . S
C809 C811 1.389 . S
C810 H783 0.950 . S
C810 C796 1.377 . S
C810 C809 1.373 . S
C811 C795 1.377 . S
C811 C809 1.389 . S
C811 C812 1.524 . S
C812 C811 1.524 . S
C812 C813 1.397 . S
C812 C817 1.363 . S
C813 H784 0.950 . S
C813 C812 1.397 . S
C813 C814 1.334 . S
C814 H785 0.950 . S
C814 C813 1.334 . S
C814 C815 1.287 . S
C815 C814 1.287 . S
C815 C816 1.524 . S
C815 H818 0.999 . S
C816 H786 0.950 . S
C816 C815 1.524 . S
C816 C817 1.415 . S
C817 H787 0.950 . S
C817 C812 1.363 . S
C817 C816 1.415 . S
H818 C815 0.999 . S
H819 C800 0.913 . S
H820 C838 0.951 . S
H821 C840 0.951 . S
H822 C842 0.950 . S
H823 C843 0.950 . S
H824 C845 0.950 . S
H825 C848 0.950 . S
H826 C849 0.950 . S
H827 C851 0.950 . S
H828 C852 0.950 . S
H829 C853 0.951 . S
H830 C855 0.951 . S
H831 C857 0.950 . S
H832 C858 0.950 . S
H833 C860 0.950 . S
H834 C863 0.950 . S
H835 C864 0.950 . S
H836 C866 0.950 . S
H837 C867 0.950 . S
C838 H820 0.951 . S
C838 C839 1.366 . S
C838 C840 1.388 . S
C839 C838 1.366 . S
C839 C843 1.385 . S
C840 H821 0.951 . S
C840 C838 1.388 . S
C840 C841 1.366 . S
C841 C840 1.366 . S
C841 C842 1.414 . S
C841 C844 1.499 . S
C842 H822 0.950 . S
C842 C841 1.414 . S
C842 C843 1.374 . S
C843 H823 0.950 . S
C843 C839 1.385 . S
C843 C842 1.374 . S
C844 C841 1.499 . S
C844 C845 1.373 . S
C844 C846 1.389 . S
C845 H824 0.950 . S
C845 C844 1.373 . S
C845 C861 1.377 . S
C846 C844 1.389 . S
C846 C847 1.524 . S
C846 C860 1.377 . S
C847 C846 1.524 . S
C847 C848 1.397 . S
C847 C852 1.363 . S
C848 H825 0.950 . S
C848 C847 1.397 . S
C848 C849 1.334 . S
C849 H826 0.950 . S
C849 C848 1.334 . S
C849 C850 1.287 . S
C850 C849 1.287 . S
C850 C851 1.524 . S
C850 H869 0.913 . S
C851 H827 0.950 . S
C851 C850 1.524 . S
C851 C852 1.415 . S
C852 H828 0.950 . S
C852 C847 1.363 . S
C852 C851 1.415 . S
C853 H829 0.951 . S
C853 C854 1.366 . S
C853 C855 1.388 . S
C854 C853 1.366 . S
C854 C858 1.385 . S
C855 H830 0.951 . S
C855 C853 1.388 . S
C855 C856 1.366 . S
C856 C855 1.366 . S
C856 C857 1.414 . S
C856 C859 1.499 . S
C857 H831 0.950 . S
C857 C856 1.414 . S
C857 C858 1.374 . S
C858 H832 0.950 . S
C858 C854 1.385 . S
C858 C857 1.374 . S
C859 C856 1.499 . S
C859 C860 1.373 . S
C859 C861 1.389 . S
C860 H833 0.950 . S
C860 C846 1.377 . S
C860 C859 1.373 . S
C861 C845 1.377 . S
C861 C859 1.389 . S
C861 C862 1.524 . S
C862 C861 1.524 . S
C862 C863 1.397 . S
C862 C867 1.363 . S
C863 H834 0.950 . S
C863 C862 1.397 . S
C863 C864 1.334 . S
C864 H835 0.950 . S
C864 C863 1.334 . S
C864 C865 1.287 . S
C865 C864 1.287 . S
C865 C866 1.524 . S
C865 H868 0.999 . S
C866 H836 0.950 . S
C866 C865 1.524 . S
C866 C867 1.415 . S
C867 H837 0.950 . S
C867 C862 1.363 . S
C867 C866 1.415 . S
H868 C865 0.999 . S
H869 C850 0.913 . S
H870 C888 0.951 . S
H871 C890 0.951 . S
H872 C892 0.950 . S
H873 C893 0.950 . S
H874 C895 0.950 . S
H875 C898 0.950 . S
H876 C899 0.950 . S
H877 C901 0.950 . S
H878 C902 0.950 . S
H879 C903 0.951 . S
H880 C905 0.951 . S
H881 C907 0.950 . S
H882 C908 0.950 . S
H883 C910 0.950 . S
H884 C913 0.950 . S
H885 C914 0.950 . S
H886 C916 0.950 . S
H887 C917 0.950 . S
C888 H870 0.951 . S
C888 C889 1.366 . S
C888 C890 1.388 . S
C889 C888 1.366 . S
C889 C893 1.385 . S
C890 H871 0.951 . S
C890 C888 1.388 . S
C890 C891 1.366 . S
C891 C890 1.366 . S
C891 C892 1.414 . S
C891 C894 1.499 . S
C892 H872 0.950 . S
C892 C891 1.414 . S
C892 C893 1.374 . S
C893 H873 0.950 . S
C893 C889 1.385 . S
C893 C892 1.374 . S
C894 C891 1.499 . S
C894 C895 1.373 . S
C894 C896 1.389 . S
C895 H874 0.950 . S
C895 C894 1.373 . S
C895 C911 1.377 . S
C896 C894 1.389 . S
C896 C897 1.524 . S
C896 C910 1.377 . S
C897 C896 1.524 . S
C897 C898 1.397 . S
C897 C902 1.363 . S
C898 H875 0.950 . S
C898 C897 1.397 . S
C898 C899 1.334 . S
C899 H876 0.950 . S
C899 C898 1.334 . S
C899 C900 1.287 . S
C900 C899 1.287 . S
C900 C901 1.524 . S
C900 H919 0.913 . S
C901 H877 0.950 . S
C901 C900 1.524 . S
C901 C902 1.415 . S
C902 H878 0.950 . S
C902 C897 1.363 . S
C902 C901 1.415 . S
C903 H879 0.951 . S
C903 C904 1.366 . S
C903 C905 1.388 . S
C904 C903 1.366 . S
C904 C908 1.385 . S
C905 H880 0.951 . S
C905 C903 1.388 . S
C905 C906 1.366 . S
C906 C905 1.366 . S
C906 C907 1.414 . S
C906 C909 1.499 . S
C907 H881 0.950 . S
C907 C906 1.414 . S
C907 C908 1.374 . S
C908 H882 0.950 . S
C908 C904 1.385 . S
C908 C907 1.374 . S
C909 C906 1.499 . S
C909 C910 1.373 . S
C909 C911 1.389 . S
C910 H883 0.950 . S
C910 C896 1.377 . S
C910 C909 1.373 . S
C911 C895 1.377 . S
C911 C909 1.389 . S
C911 C912 1.524 . S
C912 C911 1.524 . S
C912 C913 1.397 . S
C912 C917 1.363 . S
C913 H884 0.950 . S
C913 C912 1.397 . S
C913 C914 1.334 . S
C914 H885 0.950 . S
C914 C913 1.334 . S
C914 C915 1.287 . S
C915 C914 1.287 . S
C915 C916 1.524 . S
C915 H918 0.999 . S
C916 H886 0.950 . S
C916 C915 1.524 . S
C916 C917 1.415 . S
C917 H887 0.950 . S
C917 C912 1.363 . S
C917 C916 1.415 . S
H918 C915 0.999 . S
H919 C900 0.913 . S
H920 C938 0.951 . S
H921 C940 0.951 . S
H922 C942 0.950 . S
H923 C943 0.950 . S
H924 C945 0.950 . S
H925 C948 0.950 . S
H926 C949 0.950 . S
H927 C951 0.950 . S
H928 C952 0.950 . S
H929 C953 0.951 . S
H930 C955 0.951 . S
H931 C957 0.950 . S
H932 C958 0.950 . S
H933 C960 0.950 . S
H934 C963 0.950 . S
H935 C964 0.950 . S
H936 C966 0.950 . S
H937 C967 0.950 . S
C938 H920 0.951 . S
C938 C939 1.366 . S
C938 C940 1.388 . S
C939 C938 1.366 . S
C939 C943 1.385 . S
C940 H921 0.951 . S
C940 C938 1.388 . S
C940 C941 1.366 . S
C941 C940 1.366 . S
C941 C942 1.414 . S
C941 C944 1.499 . S
C942 H922 0.950 . S
C942 C941 1.414 . S
C942 C943 1.374 . S
C943 H923 0.950 . S
C943 C939 1.385 . S
C943 C942 1.374 . S
C944 C941 1.499 . S
C944 C945 1.373 . S
C944 C946 1.389 . S
C945 H924 0.950 . S
C945 C944 1.373 . S
C945 C961 1.377 . S
C946 C944 1.389 . S
C946 C947 1.524 . S
C946 C960 1.377 . S
C947 C946 1.524 . S
C947 C948 1.397 . S
C947 C952 1.363 . S
C948 H925 0.950 . S
C948 C947 1.397 . S
C948 C949 1.334 . S
C949 H926 0.950 . S
C949 C948 1.334 . S
C949 C950 1.287 . S
C950 C949 1.287 . S
C950 C951 1.524 . S
C950 H969 0.913 . S
C951 H927 0.950 . S
C951 C950 1.524 . S
C951 C952 1.415 . S
C952 H928 0.950 . S
C952 C947 1.363 . S
C952 C951 1.415 . S
C953 H929 0.951 . S
C953 C954 1.366 . S
C953 C955 1.388 . S
C954 C953 1.366 . S
C954 C958 1.385 . S
C955 H930 0.951 . S
C955 C953 1.388 . S
C955 C956 1.366 . S
C956 C955 1.366 . S
C956 C957 1.414 . S
C956 C959 1.499 . S
C957 H931 0.950 . S
C957 C956 1.414 . S
C957 C958 1.374 . S
C958 H932 0.950 . S
C958 C954 1.385 . S
C958 C957 1.374 . S
C959 C956 1.499 . S
C959 C960 1.373 . S
C959 C961 1.389 . S
C960 H933 0.950 . S
C960 C946 1.377 . S
C960 C959 1.373 . S
C961 C945 1.377 . S
C961 C959 1.389 . S
C961 C962 1.524 . S
C962 C961 1.524 . S
C962 C963 1.397 . S
C962 C967 1.363 . S
C963 H934 0.950 . S
C963 C962 1.397 . S
C963 C964 1.334 . S
C964 H935 0.950 . S
C964 C963 1.334 . S
C964 C965 1.287 . S
C965 C964 1.287 . S
C965 C966 1.524 . S
C965 H968 0.999 . S
C966 H936 0.950 . S
C966 C965 1.524 . S
C966 C967 1.415 . S
C967 H937 0.950 . S
C967 C962 1.363 . S
C967 C966 1.415 . S
H968 C965 0.999 . S
H969 C950 0.913 . S
H970 C988 0.951 . S
H971 C990 0.951 . S
H972 C992 0.950 . S
H973 C993 0.950 . S
H974 C995 0.950 . S
H975 C998 0.950 . S
H976 C999 0.950 . S
H977 C1001 0.950 . S
H978 C1002 0.950 . S
H979 C1003 0.951 . S
H980 C1005 0.951 . S
H981 C1007 0.950 . S
H982 C1008 0.950 . S
H983 C1010 0.950 . S
H984 C1013 0.950 . S
H985 C1014 0.950 . S
H986 C1016 0.950 . S
H987 C1017 0.950 . S
C988 H970 0.951 . S
C988 C989 1.366 . S
C988 C990 1.388 . S
C989 C988 1.366 . S
C989 C993 1.385 . S
C990 H971 0.951 . S
C990 C988 1.388 . S
C990 C991 1.366 . S
C991 C990 1.366 . S
C991 C992 1.414 . S
C991 C994 1.499 . S
C992 H972 0.950 . S
C992 C991 1.414 . S
C992 C993 1.374 . S
C993 H973 0.950 . S
C993 C989 1.385 . S
C993 C992 1.374 . S
C994 C991 1.499 . S
C994 C995 1.373 . S
C994 C996 1.389 . S
C995 H974 0.950 . S
C995 C994 1.373 . S
C995 C1011 1.377 . S
C996 C994 1.389 . S
C996 C997 1.524 . S
C996 C1010 1.377 . S
C997 C996 1.524 . S
C997 C998 1.397 . S
C997 C1002 1.363 . S
C998 H975 0.950 . S
C998 C997 1.397 . S
C998 C999 1.334 . S
C999 H976 0.950 . S
C999 C998 1.334 . S
C999 C1000 1.287 . S
C1000 C999 1.287 . S
C1000 C1001 1.524 . S
C1000 H1019 0.913 . S
C1001 H977 0.950 . S
C1001 C1000 1.524 . S
C1001 C1002 1.415 . S
C1002 H978 0.950 . S
C1002 C997 1.363 . S
C1002 C1001 1.415 . S
C1003 H979 0.951 . S
C1003 C1004 1.366 . S
C1003 C1005 1.388 . S
C1004 C1003 1.366 . S
C1004 C1008 1.385 . S
C1005 H980 0.951 . S
C1005 C1003 1.388 . S
C1005 C1006 1.366 . S
C1006 C1005 1.366 . S
C1006 C1007 1.414 . S
C1006 C1009 1.499 . S
C1007 H981 0.950 . S
C1007 C1006 1.414 . S
C1007 C1008 1.374 . S
C1008 H982 0.950 . S
C1008 C1004 1.385 . S
C1008 C1007 1.374 . S
C1009 C1006 1.499 . S
C1009 C1010 1.373 . S
C1009 C1011 1.389 . S
C1010 H983 0.950 . S
C1010 C996 1.377 . S
C1010 C1009 1.373 . S
C1011 C995 1.377 . S
C1011 C1009 1.389 . S
C1011 C1012 1.524 . S
C1012 C1011 1.524 . S
C1012 C1013 1.397 . S
C1012 C1017 1.363 . S
C1013 H984 0.950 . S
C1013 C1012 1.397 . S
C1013 C1014 1.334 . S
C1014 H985 0.950 . S
C1014 C1013 1.334 . S
C1014 C1015 1.287 . S
C1015 C1014 1.287 . S
C1015 C1016 1.524 . S
C1015 H1018 0.999 . S
C1016 H986 0.950 . S
C1016 C1015 1.524 . S
C1016 C1017 1.415 . S
C1017 H987 0.950 . S
C1017 C1012 1.363 . S
C1017 C1016 1.415 . S
H1018 C1015 0.999 . S
H1019 C1000 0.913 . S
C139 C101 1.202 . S
C154 C1 1.221 . S
C189 C19 1.061 . S
C204 C21 0.972 . S
C239 C39 0.823 . S
C254 C41 0.812 . S
C289 C61 1.566 . S
C304 C59 1.647 . S
C339 C81 1.480 . S
C354 C79 1.607 . S
C389 C99 1.152 . S
C404 C119 1.161 . S
C439 C98 1.782 . S
C454 C2 1.769 . S
C489 C102 1.364 . S
C504 C22 1.369 . S
C539 C42 1.528 . S
C554 C18 1.529 . S
C589 C62 1.820 . S
C604 C38 1.845 1_554 S
C639 C82 2.107 . S
C654 C58 2.116 . S
C689 C78 2.297 1_554 S
C704 C118 2.293 . S
C739 C8 1.435 . S
C754 C9 1.435 . S
C789 C28 1.437 . S
C804 C29 1.437 . S
C839 C48 1.436 . S
C854 C49 1.436 . S
C889 C68 1.432 . S
C904 C69 1.432 . S
C939 C89 1.430 . S
C954 C88 1.430 . S
C989 C109 1.435 . S
C1004 C108 1.435 . S
