# Generated by pormake.
# Topology qtz-x, (6)-cn, num edge types: 1
# Building blocks:
#     Node 0, Type 0, BuildingBlock: JUFBIX_clean_sbu_0, # of connection points: 6
#     Node 1, Type 0, BuildingBlock: JUFBIX_clean_sbu_0, # of connection points: 6
#     Node 2, Type 0, BuildingBlock: JUFBIX_clean_sbu_0, # of connection points: 6
#     Edge 3, Type (0, 0), BuildingBlock: TEMPAE_clean_linker_10, # of connection points: 2
#     Edge 4, Type (0, 0), BuildingBlock: TEMPAE_clean_linker_10, # of connection points: 2
#     Edge 5, Type (0, 0), BuildingBlock: TEMPAE_clean_linker_10, # of connection points: 2
#     Edge 6, Type (0, 0), BuildingBlock: TEMPAE_clean_linker_10, # of connection points: 2
#     Edge 7, Type (0, 0), BuildingBlock: TEMPAE_clean_linker_10, # of connection points: 2
#     Edge 8, Type (0, 0), BuildingBlock: TEMPAE_clean_linker_10, # of connection points: 2
#     Edge 9, Type (0, 0), BuildingBlock: TEMPAE_clean_linker_10, # of connection points: 2
#     Edge 10, Type (0, 0), BuildingBlock: TEMPAE_clean_linker_10, # of connection points: 2
#     Edge 11, Type (0, 0), BuildingBlock: TEMPAE_clean_linker_10, # of connection points: 2
# Relax obj value: 0.468
# Max RMSD: 0.292
# Mean RMSD: 0.292
data_MOF--net-qtz-x--node1-JUFBIX_clean_sbu_0--edge1-TEMPAE_clean_linker_10
_symmetry_space_group_name_H-M    P1
_symmetry_Int_Tables_number       1
_symmetry_cell_setting            triclinic
loop_
_symmetry_equiv_pos_as_xyz
'x, y, z'
_cell_length_a     15.17792
_cell_length_b     15.182567
_cell_length_c     43.708276
_cell_angle_alpha  90.010553
_cell_angle_beta   90.071169
_cell_angle_gamma 120.01396
loop_
_atom_site_label
_atom_site_type_symbol
_atom_site_fract_x
_atom_site_fract_y
_atom_site_fract_z
_atom_type_partial_charge
Co0 Co 0.12586 0.49496 0.14755 0.0
C1 C 0.04308 0.62055 0.15532 0.0
Co2 Co 0.96664 0.41395 0.16326 0.0
C3 C 0.28376 0.54292 0.10401 0.0
C4 C 0.33659 0.65093 0.14061 0.0
N5 N 0.25557 0.56315 0.13114 0.0
N6 N 0.3781 0.61544 0.09568 0.0
C7 C 0.41202 0.68351 0.11878 0.0
H8 H 0.23306 0.47965 0.08959 0.0
H9 H 0.33856 0.69142 0.1612 0.0
C10 C 0.04942 0.28851 0.1556 0.0
N11 N 0.83672 0.34725 0.17972 0.0
C12 C 0.81064 0.36827 0.20707 0.0
C13 C 0.75584 0.25786 0.17117 0.0
N14 N 0.71924 0.29392 0.21671 0.0
C15 C 0.68338 0.22473 0.19398 0.0
C16 C 0.97601 0.41713 0.10137 0.0
O17 O 0.12585 0.3694 0.14566 0.0
O18 O 0.97221 0.29167 0.16539 0.0
O19 O 0.91282 0.37953 0.12319 0.0
O20 O 0.07013 0.47212 0.10734 0.0
O21 O 0.9621 0.5373 0.16107 0.0
H22 H 0.75355 0.21517 0.15107 0.0
H23 H 0.86137 0.43277 0.22106 0.0
O24 O 0.12464 0.6196 0.14957 0.0
O25 O 0.18025 0.51758 0.18794 0.0
O26 O 1.02236 0.44855 0.2033 0.0
C27 C 0.11645 0.49182 0.20963 0.0
H28 H 0.48444 0.75362 0.11936 0.0
H29 H 0.61499 0.15092 0.19518 0.0
Co30 Co 0.45909 0.95392 0.48203 0.0
C31 C 0.66767 0.03626 0.49016 0.0
Co32 Co 0.53847 0.11386 0.49729 0.0
C33 C 0.34732 0.80082 0.43798 0.0
C34 C 0.4123 0.74662 0.47121 0.0
N35 N 0.39779 0.82531 0.46482 0.0
N36 N 0.3334 0.7123 0.42647 0.0
C37 C 0.37272 0.67689 0.44764 0.0
H38 H 0.32723 0.8509 0.42615 0.0
H39 H 0.45611 0.74412 0.4904 0.0
C40 C 0.33015 0.03182 0.48929 0.0
N41 N 0.60151 0.24345 0.5141 0.0
C42 C 0.64585 0.26848 0.54191 0.0
C43 C 0.59464 0.32498 0.50529 0.0
N44 N 0.66267 0.35985 0.55152 0.0
C45 C 0.63215 0.39678 0.52836 0.0
C46 C 0.53432 0.10397 0.43559 0.0
O47 O 0.33381 0.95433 0.48001 0.0
O48 O 0.41105 0.10956 0.49862 0.0
O49 O 0.56125 0.16851 0.45714 0.0
O50 O 0.49273 1.01021 0.44212 0.0
O51 O 0.66572 0.11736 0.49592 0.0
H52 H 0.55644 0.32819 0.48477 0.0
H53 H 0.65783 0.21713 0.55613 0.0
O54 O 0.58504 0.95493 0.48421 0.0
O55 O 0.42635 0.89851 0.52204 0.0
O56 O 0.51415 0.0569 0.5373 0.0
C57 C 0.46333 0.96281 0.54369 0.0
H58 H 0.37998 0.60987 0.44517 0.0
H59 H 0.62732 0.4655 0.52935 0.0
Co60 Co 0.57477 0.62103 0.81644 0.0
C61 C 0.44892 0.41376 0.82525 0.0
Co62 Co 0.6568 0.54362 0.8322 0.0
C63 C 0.53439 0.7334 0.77252 0.0
C64 C 0.41432 0.66781 0.80539 0.0
N65 N 0.50773 0.6825 0.79923 0.0
N66 N 0.45998 0.74734 0.76084 0.0
C67 C 0.38469 0.70767 0.78177 0.0
H68 H 0.60487 0.75368 0.76088 0.0
H69 H 0.36753 0.62365 0.82442 0.0
C70 C 0.78269 0.75072 0.82357 0.0
N71 N 0.72293 0.48051 0.84889 0.0
C72 C 0.69913 0.43007 0.87569 0.0
C73 C 0.81247 0.48914 0.84067 0.0
N74 N 0.77191 0.41031 0.88537 0.0
C75 C 0.84287 0.4461 0.8631 0.0
C76 C 0.6489 0.54465 0.77029 0.0
O77 O 0.70091 0.74665 0.81466 0.0
O78 O 0.78032 0.67011 0.83269 0.0
O79 O 0.68579 0.51766 0.79202 0.0
O80 O 0.59776 0.58754 0.77655 0.0
O81 O 0.53204 0.41663 0.83167 0.0
H82 H 0.85639 0.53075 0.82091 0.0
H83 H 0.63236 0.41395 0.88883 0.0
O84 O 0.44997 0.49556 0.8184 0.0
O85 O 0.55146 0.65317 0.85637 0.0
O86 O 0.62814 0.5717 0.87235 0.0
C87 C 0.58297 0.62109 0.87826 0.0
H88 H 0.31039 0.70029 0.77909 0.0
H89 H 0.91564 0.44922 0.86417 0.0
C90 C 0.12791 0.80613 0.16676 0.0
C91 C 0.0432 0.71788 0.15556 0.0
C92 C 0.12926 0.8993 0.16743 0.0
C93 C 0.04546 0.90505 0.15548 0.0
C94 C 0.96039 0.81623 0.14363 0.0
C95 C 0.95947 0.72319 0.14437 0.0
C96 C 0.21982 0.99124 0.18126 0.0
C97 C 0.87103 0.81977 0.12977 0.0
C98 C 1.00213 0.1214 0.17944 0.0
C99 C 0.04964 0.19138 0.15568 0.0
C100 C 1.00186 0.02876 0.17995 0.0
C101 C 0.04674 1.00391 0.1555 0.0
C102 C 0.09328 0.07383 0.13116 0.0
C103 C 0.09588 0.16766 0.13185 0.0
C104 C 0.95465 0.95806 0.20685 0.0
C105 C 0.13896 0.0489 0.10417 0.0
H106 H 0.19236 0.80176 0.17564 0.0
H107 H 0.89434 0.65501 0.13545 0.0
H108 H 0.25756 0.05152 0.16373 0.0
H109 H 0.19431 0.02305 0.19986 0.0
H110 H 0.27678 0.973 0.19074 0.0
H111 H 0.81289 0.74497 0.12035 0.0
H112 H 0.8344 0.84376 0.14726 0.0
H113 H 0.89765 0.87696 0.11112 0.0
H114 H 0.96695 0.14014 0.19798 0.0
H115 H 0.13175 0.22148 0.11332 0.0
H116 H 1.0112 0.94136 0.21743 0.0
H117 H 0.88982 0.88464 0.19903 0.0
H118 H 0.92683 0.99059 0.22461 0.0
H119 H 0.20235 0.03783 0.11191 0.0
H120 H 0.16838 0.10965 0.08652 0.0
H121 H 0.08093 0.97653 0.09349 0.0
C122 C 0.21134 0.0805 0.51305 0.0
C123 C 0.23287 0.03172 0.48945 0.0
C124 C 0.11868 0.08018 0.51378 0.0
C125 C 0.04768 0.03338 0.48967 0.0
C126 C 0.07011 0.9856 0.46546 0.0
C127 C 0.1617 0.98363 0.46596 0.0
C128 C 0.09625 0.1288 0.54053 0.0
C129 C 0.99809 0.93788 0.43883 0.0
C130 C 0.76905 0.95223 0.50178 0.0
C131 C 0.76484 0.03616 0.49027 0.0
C132 C 0.86104 0.95114 0.50228 0.0
C133 C 0.94992 0.0343 0.48982 0.0
C134 C 0.9454 0.11847 0.47764 0.0
C135 C 0.85324 0.11924 0.47858 0.0
C136 C 0.86336 0.86163 0.51646 0.0
C137 C 0.03749 0.207 0.46322 0.0
H138 H 0.26618 0.11701 0.53135 0.0
H139 H 0.17889 0.94668 0.44757 0.0
H140 H 0.0869 0.19291 0.53248 0.0
H141 H 0.0236 0.07271 0.55148 0.0
H142 H 0.15752 0.15796 0.55807 0.0
H143 H 0.02877 0.90763 0.42122 0.0
H144 H 0.9242 0.87475 0.44699 0.0
H145 H 0.98274 0.99491 0.42794 0.0
H146 H 0.70066 0.88827 0.51102 0.0
H147 H 0.84958 0.18371 0.46942 0.0
H148 H 0.92165 0.88842 0.53485 0.0
H149 H 0.88513 0.82289 0.49905 0.0
H150 H 0.78868 0.8052 0.52632 0.0
H151 H 0.09899 0.24494 0.48043 0.0
H152 H 1.02014 0.26434 0.45356 0.0
H153 H 0.06725 0.17928 0.44464 0.0
C154 C 0.94984 0.86984 0.84753 0.0
C155 C 0.87961 0.84824 0.82384 0.0
C156 C 0.04205 0.96258 0.84842 0.0
C157 C 0.06625 0.03365 0.82439 0.0
C158 C 0.99609 1.01123 0.80012 0.0
C159 C 0.90259 0.91951 0.80046 0.0
C160 C 0.11299 0.98499 0.87525 0.0
C161 C 1.02043 0.08336 0.77357 0.0
C162 C 0.26364 0.31217 0.83688 0.0
C163 C 0.35188 0.31644 0.82546 0.0
C164 C 0.17055 0.22017 0.83725 0.0
C165 C 0.16493 0.13141 0.8247 0.0
C166 C 0.25378 0.13601 0.81263 0.0
C167 C 0.34674 0.22815 0.81373 0.0
C168 C 0.0786 0.21773 0.85137 0.0
C169 C 0.25036 0.04406 0.79812 0.0
H170 H 0.93154 0.81493 0.86576 0.0
H171 H 0.84848 0.90227 0.78202 0.0
H172 H 0.18649 0.99429 0.86727 0.0
H173 H 0.12953 0.05761 0.88623 0.0
H174 H 0.08074 0.92373 0.89273 0.0
H175 H 0.95952 0.05276 0.75591 0.0
H176 H 0.03115 0.15717 0.78181 0.0
H177 H 0.09287 0.0988 0.76273 0.0
H178 H 0.26799 0.38053 0.84612 0.0
H179 H 0.41497 0.23193 0.80462 0.0
H180 H 0.04689 0.15924 0.86965 0.0
H181 H 1.01823 0.19623 0.83388 0.0
H182 H 0.09682 0.29228 0.86136 0.0
H183 H 0.22666 0.98246 0.81526 0.0
H184 H 0.32516 0.06149 0.78855 0.0
H185 H 0.193 1.01442 0.77946 0.0
C186 C 0.63065 0.63917 0.93339 0.0
C187 C 0.56518 0.63734 0.91041 0.0
C188 C 0.61084 0.64637 0.96434 0.0
C189 C 0.52204 0.64906 0.97249 0.0
C190 C 0.45714 0.65008 0.94932 0.0
C191 C 0.48023 0.64542 0.91846 0.0
C192 C 0.68401 0.64951 0.98833 0.0
C193 C 0.3609 0.65136 0.95714 0.0
C194 C 0.39882 0.5375 0.04885 0.0
C195 C 0.42354 0.62486 0.06604 0.0
C196 C 0.43204 0.54462 0.01859 0.0
C197 C 0.49222 0.64166 0.00518 0.0
C198 C 0.52118 0.73037 0.02275 0.0
C199 C 0.48629 0.72092 0.053 0.0
C200 C 0.40077 0.44813 0.00075 0.0
C201 C 0.58605 0.83515 0.00931 0.0
H202 H 0.69722 0.63428 0.92715 0.0
H203 H 0.42937 0.64359 0.90071 0.0
H204 H 0.71663 0.72225 0.00114 0.0
H205 H 0.64343 0.58742 0.00517 0.0
H206 H 0.74747 0.64269 0.97824 0.0
H207 H 0.3222 0.65859 0.9365 0.0
H208 H 0.30742 0.57993 0.96918 0.0
H209 H 0.37807 0.71529 0.97289 0.0
H210 H 0.352 0.4632 0.05899 0.0
H211 H 0.50496 0.78879 0.06599 0.0
H212 H 0.46925 0.44705 -0.00758 0.0
H213 H 0.35577 0.44537 0.98036 0.0
H214 H 0.35449 0.37868 0.01464 0.0
H215 H 0.65538 0.84171 -0.00135 0.0
H216 H 0.60937 0.89612 0.02675 0.0
H217 H 0.54303 0.84801 0.99101 0.0
C218 C 0.57881 0.23472 0.39446 0.0
C219 C 0.55177 0.13551 0.40316 0.0
C220 C 0.59744 0.26453 0.36362 0.0
C221 C 0.5905 0.19388 0.34122 0.0
C222 C 0.56119 0.0931 0.34985 0.0
C223 C 0.54148 0.06502 0.38066 0.0
C224 C 0.62694 0.37216 0.3551 0.0
C225 C 0.55538 0.01612 0.32681 0.0
C226 C 0.58431 0.23664 0.2557 0.0
C227 C 0.68668 0.27567 0.24804 0.0
C228 C 0.55204 0.21358 0.28627 0.0
C229 C 0.6237 0.22733 0.3093 0.0
C230 C 0.72721 0.26691 0.30154 0.0
C231 C 0.75747 0.29163 0.27108 0.0
C232 C 0.4413 0.17264 0.29383 0.0
C233 C 0.80559 0.27997 0.32521 0.0
H234 H 0.58576 0.28912 0.41172 0.0
H235 H 0.52071 0.98816 0.38721 0.0
H236 H 0.7074 0.41371 0.34748 0.0
H237 H 0.57963 0.37205 0.3357 0.0
H238 H 0.61829 0.41429 0.37456 0.0
H239 H 0.52635 0.9395 0.33703 0.0
H240 H 0.5052 1.00964 0.30745 0.0
H241 H 0.63216 0.04178 0.31725 0.0
H242 H 0.52996 0.2242 0.23775 0.0
H243 H 0.83627 0.31967 0.26502 0.0
H244 H 0.43398 0.21724 0.31277 0.0
H245 H 0.40686 0.09277 0.30177 0.0
H246 H 0.39724 0.17485 0.27382 0.0
H247 H 0.78094 0.20718 0.33737 0.0
H248 H 0.81335 0.33679 0.34254 0.0
H249 H 0.88151 0.30537 0.31494 0.0
C250 C 0.39068 0.81738 0.72271 0.0
C251 C 0.45469 0.77846 0.73 0.0
C252 C 0.38363 0.8455 0.69256 0.0
C253 C 0.44256 0.83507 0.66926 0.0
C254 C 0.50703 0.79565 0.67644 0.0
C255 C 0.51152 0.76703 0.70657 0.0
C256 C 0.31389 0.8871 0.68565 0.0
C257 C 0.57179 0.78396 0.65232 0.0
C258 C 0.38198 0.83042 0.58468 0.0
C259 C 0.45236 0.9303 0.57603 0.0
C260 C 0.37483 0.79921 0.6153 0.0
C261 C 0.44078 0.86917 0.63753 0.0
C262 C 0.51087 0.97038 0.62895 0.0
C263 C 0.51518 0.99983 0.5984 0.0
C264 C 0.29842 0.69091 0.62374 0.0
C265 C 0.58437 0.04655 0.65179 0.0
H266 H 0.34679 0.82667 0.74064 0.0
H267 H 0.55892 0.73429 0.71156 0.0
H268 H 0.35907 0.96661 0.67738 0.0
H269 H 0.25999 0.84203 0.66712 0.0
H270 H 0.26963 0.88599 0.70602 0.0
H271 H 0.62315 0.75881 0.66214 0.0
H272 H 0.52218 0.72733 0.635 0.0
H273 H 0.61893 0.85714 0.64024 0.0
H274 H 0.33287 0.77654 0.56753 0.0
H275 H 0.5703 0.07694 0.59191 0.0
H276 H 0.25165 0.68971 0.6434 0.0
H277 H 0.33882 0.6504 0.63096 0.0
H278 H 0.24702 0.64855 0.60438 0.0
H279 H 0.54229 0.05333 0.67152 0.0
H280 H 0.63212 0.12315 0.64158 0.0
H281 H 0.63535 0.01987 0.66082 0.0
C282 C 0.84595 0.34062 0.92189 0.0
C283 C 0.7844 0.38347 0.91608 0.0
C284 C 0.87047 0.32822 0.952 0.0
C285 C 0.83329 0.36047 0.97675 0.0
C286 C 0.76566 0.39724 0.97107 0.0
C287 C 0.74243 0.40864 0.94088 0.0
C288 C 0.94017 0.28551 0.95723 0.0
C289 C 0.72385 0.43241 -0.00331 0.0
C290 C 0.85418 0.3086 0.06063 0.0
C291 C 0.94152 0.39903 0.06931 0.0
C292 C 0.82116 0.2918 0.03004 0.0
C293 C 0.87478 0.36898 0.00808 0.0
C294 C 0.96392 0.45975 0.01676 0.0
C295 C 0.99704 0.4729 0.04719 0.0
C296 C 0.72769 0.19283 0.0214 0.0
C297 C 1.02218 0.54488 -0.0058 0.0
H298 H 0.87722 0.31947 0.90286 0.0
H299 H 0.69603 0.44318 0.93686 0.0
H300 H 1.01681 0.34784 0.96386 0.0
H301 H 0.91157 0.22957 0.97623 0.0
H302 H 0.94803 0.24811 0.93639 0.0
H303 H 0.65707 0.4382 0.9891 0.0
H304 H 0.70055 0.38002 0.01651 0.0
H305 H 0.78399 0.50842 0.00468 0.0
H306 H 0.8122 0.25076 0.0777 0.0
H307 H 0.06472 0.54278 0.05392 0.0
H308 H 0.74266 0.16021 0.00066 0.0
H309 H 0.66436 0.20677 0.01585 0.0
H310 H 0.70263 0.1359 0.04013 0.0
H311 H 0.04536 0.51638 0.97418 0.0
H312 H 0.09143 0.60935 0.00448 0.0
H313 H 0.97253 0.57383 0.98562 0.0
C314 C 0.24969 0.54591 0.25063 0.0
C315 C 0.14953 0.51536 0.24191 0.0
C316 C 0.28128 0.57168 0.28119 0.0
C317 C 0.21142 0.56832 0.30329 0.0
C318 C 0.11001 0.5364 0.29463 0.0
C319 C 0.08018 0.50957 0.26415 0.0
C320 C 0.38981 0.60448 0.28971 0.0
C321 C 0.03392 0.53438 0.3173 0.0
C322 C 0.26357 0.57218 0.38858 0.0
C323 C 0.30224 0.67522 0.39566 0.0
C324 C 0.23545 0.53632 0.35846 0.0
C325 C 0.24562 0.60507 0.33498 0.0
C326 C 0.28471 0.70904 0.34196 0.0
C327 C 0.31334 0.74287 0.37206 0.0
C328 C 0.19411 0.42487 0.3518 0.0
C329 C 0.29606 0.78484 0.31765 0.0
H330 H 0.30345 0.55008 0.23358 0.0
H331 H 1.00286 0.48684 0.25761 0.0
H332 H 0.42994 0.68553 0.29679 0.0
H333 H 0.39142 0.55948 0.30949 0.0
H334 H 0.4323 0.59541 0.27044 0.0
H335 H 0.95737 0.50565 0.307 0.0
H336 H 0.02686 0.48567 0.33712 0.0
H337 H 0.06087 0.61219 0.32624 0.0
H338 H 0.25445 0.51942 0.40662 0.0
H339 H 0.3458 0.82307 0.37689 0.0
H340 H 0.23923 0.41583 0.33338 0.0
H341 H 0.11454 0.39013 0.34347 0.0
H342 H 0.19541 0.38226 0.37229 0.0
H343 H 0.35305 0.79202 0.30049 0.0
H344 H 0.32062 0.8614 0.32731 0.0
H345 H 0.22292 0.7581 0.30541 0.0
C346 C 0.60383 0.53691 0.71518 0.0
C347 C 0.66308 0.52617 0.73794 0.0
C348 C 0.61276 0.51679 0.68444 0.0
C349 C 0.68383 0.48658 0.67613 0.0
C350 C 0.74638 0.47888 0.69881 0.0
C351 C 0.73467 0.49797 0.72957 0.0
C352 C 0.54287 0.52355 0.66108 0.0
C353 C 0.82404 0.44835 0.69066 0.0
C354 C 0.61772 0.32088 0.60563 0.0
C355 C 0.67459 0.39189 0.58291 0.0
C356 C 0.62134 0.35067 0.63609 0.0
C357 C 0.68532 0.4539 0.6442 0.0
C358 C 0.74507 0.52578 0.6215 0.0
C359 C 0.73783 0.49401 0.59091 0.0
C360 C 0.55412 0.27208 0.65937 0.0
C361 C 0.81499 0.63623 0.62944 0.0
H362 H 0.54819 0.55857 0.72147 0.0
H363 H 0.78138 0.49062 0.74703 0.0
H364 H 0.58768 0.57409 0.64196 0.0
H365 H 0.49191 0.4471 0.65123 0.0
H366 H 0.49509 0.55268 0.6711 0.0
H367 H 0.87358 0.4558 0.71038 0.0
H368 H 0.78472 0.36814 0.68276 0.0
H369 H 0.87259 0.4959 0.67154 0.0
H370 H 0.56703 0.24229 0.59929 0.0
H371 H 0.78133 0.54855 0.57322 0.0
H372 H 0.50534 0.29685 0.67108 0.0
H373 H 0.6018 0.26386 0.67711 0.0
H374 H 0.50412 0.19638 0.64885 0.0
H375 H 0.76957 0.67082 0.63725 0.0
H376 H 0.86222 0.68063 0.60966 0.0
H377 H 0.86605 0.64279 0.64858 0.0
loop_
_geom_bond_atom_site_label_1
_geom_bond_atom_site_label_2
_geom_bond_distance
_geom_bond_site_symmetry_2
_ccdc_geom_bond_type
Co0 N5 2.057 . S
Co0 O17 2.021 . S
Co0 O20 2.062 1_455 S
Co0 O24 2.117 . S
Co0 O25 2.020 . S
C1 O21 1.259 . S
C1 O24 1.258 1_655 S
Co2 N11 2.057 . S
Co2 O18 2.117 . S
Co2 O19 2.020 . S
Co2 O21 2.021 . S
Co2 O26 2.062 1_655 S
C3 N5 1.316 . S
C3 N6 1.347 . S
C3 H8 0.931 . S
C4 N5 1.375 . S
C4 C7 1.350 . S
C4 H9 0.930 . S
N5 Co0 2.057 . S
N5 C3 1.316 . S
N5 C4 1.375 . S
N6 C3 1.347 . S
N6 C7 1.373 . S
C7 C4 1.350 . S
C7 N6 1.373 . S
C7 H28 0.931 . S
H8 C3 0.931 . S
H9 C4 0.930 . S
C10 O17 1.259 . S
C10 O18 1.258 1_455 S
N11 Co2 2.057 . S
N11 C12 1.316 . S
N11 C13 1.375 . S
C12 N11 1.316 . S
C12 N14 1.347 . S
C12 H23 0.931 . S
C13 N11 1.375 . S
C13 C15 1.350 . S
C13 H22 0.930 . S
N14 C12 1.347 . S
N14 C15 1.373 . S
C15 C13 1.350 . S
C15 N14 1.373 . S
C15 H29 0.931 . S
C16 O19 1.256 . S
C16 O20 1.255 . S
O17 Co0 2.021 . S
O17 C10 1.259 . S
O18 Co2 2.117 . S
O18 C10 1.258 1_655 S
O19 Co2 2.020 . S
O19 C16 1.256 . S
O20 Co0 2.062 1_655 S
O20 C16 1.255 . S
O21 C1 1.259 . S
O21 Co2 2.021 . S
H22 C13 0.930 . S
H23 C12 0.931 . S
O24 Co0 2.117 . S
O24 C1 1.258 1_455 S
O25 Co0 2.020 . S
O25 C27 1.256 . S
O26 Co2 2.062 1_455 S
O26 C27 1.255 . S
C27 O25 1.256 . S
C27 O26 1.255 . S
H28 C7 0.931 . S
H29 C15 0.931 . S
Co30 N35 2.057 . S
Co30 O47 2.021 . S
Co30 O50 2.062 1_565 S
Co30 O54 2.117 . S
Co30 O55 2.020 . S
C31 O51 1.259 . S
C31 O54 1.258 1_545 S
Co32 N41 2.057 . S
Co32 O48 2.117 . S
Co32 O49 2.020 . S
Co32 O51 2.021 . S
Co32 O56 2.062 1_545 S
C33 N35 1.316 . S
C33 N36 1.347 . S
C33 H38 0.931 . S
C34 N35 1.375 . S
C34 C37 1.350 . S
C34 H39 0.930 . S
N35 Co30 2.057 . S
N35 C33 1.316 . S
N35 C34 1.375 . S
N36 C33 1.347 . S
N36 C37 1.373 . S
C37 C34 1.350 . S
C37 N36 1.373 . S
C37 H58 0.931 . S
H38 C33 0.931 . S
H39 C34 0.930 . S
C40 O47 1.259 1_545 S
C40 O48 1.258 . S
N41 Co32 2.057 . S
N41 C42 1.316 . S
N41 C43 1.375 . S
C42 N41 1.316 . S
C42 N44 1.347 . S
C42 H53 0.931 . S
C43 N41 1.375 . S
C43 C45 1.350 . S
C43 H52 0.930 . S
N44 C42 1.347 . S
N44 C45 1.373 . S
C45 C43 1.350 . S
C45 N44 1.373 . S
C45 H59 0.931 . S
C46 O49 1.256 . S
C46 O50 1.255 . S
O47 Co30 2.021 . S
O47 C40 1.259 1_565 S
O48 Co32 2.117 . S
O48 C40 1.258 . S
O49 Co32 2.020 . S
O49 C46 1.256 . S
O50 Co30 2.062 1_545 S
O50 C46 1.255 . S
O51 C31 1.259 . S
O51 Co32 2.021 . S
H52 C43 0.930 . S
H53 C42 0.931 . S
O54 Co30 2.117 . S
O54 C31 1.258 1_565 S
O55 Co30 2.020 . S
O55 C57 1.256 . S
O56 Co32 2.062 1_565 S
O56 C57 1.255 . S
C57 O55 1.256 . S
C57 O56 1.255 . S
H58 C37 0.931 . S
H59 C45 0.931 . S
Co60 N65 2.057 . S
Co60 O77 2.021 . S
Co60 O80 2.062 . S
Co60 O84 2.117 . S
Co60 O85 2.020 . S
C61 O81 1.259 . S
C61 O84 1.258 . S
Co62 N71 2.057 . S
Co62 O78 2.117 . S
Co62 O79 2.020 . S
Co62 O81 2.021 . S
Co62 O86 2.062 . S
C63 N65 1.316 . S
C63 N66 1.347 . S
C63 H68 0.931 . S
C64 N65 1.375 . S
C64 C67 1.350 . S
C64 H69 0.930 . S
N65 Co60 2.057 . S
N65 C63 1.316 . S
N65 C64 1.375 . S
N66 C63 1.347 . S
N66 C67 1.373 . S
C67 C64 1.350 . S
C67 N66 1.373 . S
C67 H88 0.931 . S
H68 C63 0.931 . S
H69 C64 0.930 . S
C70 O77 1.259 . S
C70 O78 1.258 . S
N71 Co62 2.057 . S
N71 C72 1.316 . S
N71 C73 1.375 . S
C72 N71 1.316 . S
C72 N74 1.347 . S
C72 H83 0.931 . S
C73 N71 1.375 . S
C73 C75 1.350 . S
C73 H82 0.930 . S
N74 C72 1.347 . S
N74 C75 1.373 . S
C75 C73 1.350 . S
C75 N74 1.373 . S
C75 H89 0.931 . S
C76 O79 1.256 . S
C76 O80 1.255 . S
O77 Co60 2.021 . S
O77 C70 1.259 . S
O78 Co62 2.117 . S
O78 C70 1.258 . S
O79 Co62 2.020 . S
O79 C76 1.256 . S
O80 Co60 2.062 . S
O80 C76 1.255 . S
O81 C61 1.259 . S
O81 Co62 2.021 . S
H82 C73 0.930 . S
H83 C72 0.931 . S
O84 Co60 2.117 . S
O84 C61 1.258 . S
O85 Co60 2.020 . S
O85 C87 1.256 . S
O86 Co62 2.062 . S
O86 C87 1.255 . S
C87 O85 1.256 . S
C87 O86 1.255 . S
H88 C67 0.931 . S
H89 C75 0.931 . S
C90 C91 1.386 1_455 S
C90 C92 1.394 . S
C90 H106 0.931 . S
C91 C90 1.386 1_655 S
C91 C95 1.387 . S
C92 C90 1.394 . S
C92 C93 1.356 1_455 S
C92 C96 1.531 1_565 S
C93 C92 1.356 1_655 S
C93 C94 1.416 . S
C93 C101 1.510 1_565 S
C94 C93 1.416 . S
C94 C95 1.392 . S
C94 C97 1.511 . S
C95 C91 1.387 . S
C95 C94 1.392 . S
C95 H107 0.929 . S
C96 C92 1.531 1_545 S
C96 H108 0.960 . S
C96 H109 0.962 . S
C96 H110 0.960 . S
C97 C94 1.511 . S
C97 H111 0.961 . S
C97 H112 0.961 . S
C97 H113 0.961 . S
C98 C99 1.370 1_455 S
C98 C100 1.363 . S
C98 H114 0.931 . S
C99 C98 1.370 1_655 S
C99 C103 1.408 . S
C100 C98 1.363 . S
C100 C101 1.370 1_455 S
C100 C104 1.524 . S
C101 C93 1.510 1_545 S
C101 C100 1.370 1_655 S
C101 C102 1.403 . S
C102 C101 1.403 . S
C102 C103 1.404 . S
C102 C105 1.539 . S
C103 C99 1.408 . S
C103 C102 1.404 . S
C103 H115 0.930 . S
C104 C100 1.524 . S
C104 H116 0.956 . S
C104 H117 0.961 1_445 S
C104 H118 0.961 . S
C105 C102 1.539 . S
C105 H119 0.958 1_655 S
C105 H120 0.961 . S
C105 H121 0.960 1_545 S
H106 C90 0.931 . S
H107 C95 0.929 . S
H108 C96 0.960 . S
H109 C96 0.962 . S
H110 C96 0.960 . S
H111 C97 0.961 . S
H112 C97 0.961 . S
H113 C97 0.961 . S
H114 C98 0.931 . S
H115 C103 0.930 . S
H116 C104 0.956 . S
H117 C104 0.961 1_665 S
H118 C104 0.961 . S
H119 C105 0.958 1_455 S
H120 C105 0.961 . S
H121 C105 0.960 1_565 S
C122 C123 1.391 . S
C122 C124 1.394 . S
C122 H138 0.931 . S
C123 C122 1.391 . S
C123 C127 1.376 1_545 S
C124 C122 1.394 . S
C124 C125 1.369 . S
C124 C128 1.531 . S
C125 C124 1.369 . S
C125 C126 1.410 1_545 S
C125 C133 1.503 1_455 S
C126 C125 1.410 1_565 S
C126 C127 1.392 . S
C126 C129 1.511 . S
C127 C123 1.376 1_565 S
C127 C126 1.392 . S
C127 H139 0.929 . S
C128 C124 1.531 . S
C128 H140 0.960 . S
C128 H141 0.962 . S
C128 H142 0.960 . S
C129 C126 1.511 . S
C129 H143 0.961 . S
C129 H144 0.961 1_455 S
C129 H145 0.961 . S
C130 C131 1.370 1_565 S
C130 C132 1.363 . S
C130 H146 0.931 . S
C131 C130 1.370 1_545 S
C131 C135 1.408 . S
C132 C130 1.363 . S
C132 C133 1.370 1_565 S
C132 C136 1.524 . S
C133 C125 1.503 1_655 S
C133 C132 1.370 1_545 S
C133 C134 1.403 . S
C134 C133 1.403 . S
C134 C135 1.404 . S
C134 C137 1.539 1_655 S
C135 C131 1.408 . S
C135 C134 1.404 . S
C135 H147 0.930 . S
C136 C132 1.524 . S
C136 H148 0.956 1_655 S
C136 H149 0.961 . S
C136 H150 0.961 . S
C137 C134 1.539 1_455 S
C137 H151 0.958 . S
C137 H152 0.961 . S
C137 H153 0.960 . S
H138 C122 0.931 . S
H139 C127 0.929 . S
H140 C128 0.960 . S
H141 C128 0.962 . S
H142 C128 0.960 . S
H143 C129 0.961 . S
H144 C129 0.961 1_655 S
H145 C129 0.961 . S
H146 C130 0.931 . S
H147 C135 0.930 . S
H148 C136 0.956 1_455 S
H149 C136 0.961 . S
H150 C136 0.961 . S
H151 C137 0.958 . S
H152 C137 0.961 . S
H153 C137 0.960 . S
C154 C155 1.391 . S
C154 C156 1.394 . S
C154 H170 0.931 . S
C155 C154 1.391 . S
C155 C159 1.376 . S
C156 C154 1.394 . S
C156 C157 1.369 1_655 S
C156 C160 1.531 1_655 S
C157 C156 1.369 1_455 S
C157 C158 1.410 1_455 S
C157 C165 1.503 1_565 S
C158 C157 1.410 1_655 S
C158 C159 1.392 . S
C158 C161 1.511 . S
C159 C155 1.376 . S
C159 C158 1.392 . S
C159 H171 0.929 . S
C160 C156 1.531 1_455 S
C160 H172 0.960 . S
C160 H173 0.962 . S
C160 H174 0.960 . S
C161 C158 1.511 . S
C161 H175 0.961 . S
C161 H176 0.961 1_665 S
C161 H177 0.961 1_655 S
C162 C163 1.370 . S
C162 C164 1.363 . S
C162 H178 0.931 . S
C163 C162 1.370 . S
C163 C167 1.408 . S
C164 C162 1.363 . S
C164 C165 1.370 . S
C164 C168 1.524 1_455 S
C165 C157 1.503 1_545 S
C165 C164 1.370 . S
C165 C166 1.403 . S
C166 C165 1.403 . S
C166 C167 1.404 . S
C166 C169 1.539 1_545 S
C167 C163 1.408 . S
C167 C166 1.404 . S
C167 H179 0.930 . S
C168 C164 1.524 1_655 S
C168 H180 0.956 . S
C168 H181 0.961 . S
C168 H182 0.961 1_655 S
C169 C166 1.539 1_565 S
C169 H183 0.958 . S
C169 H184 0.961 . S
C169 H185 0.960 . S
H170 C154 0.931 . S
H171 C159 0.929 . S
H172 C160 0.960 . S
H173 C160 0.962 . S
H174 C160 0.960 . S
H175 C161 0.961 . S
H176 C161 0.961 1_445 S
H177 C161 0.961 1_455 S
H178 C162 0.931 . S
H179 C167 0.930 . S
H180 C168 0.956 . S
H181 C168 0.961 . S
H182 C168 0.961 1_455 S
H183 C169 0.958 . S
H184 C169 0.961 . S
H185 C169 0.960 . S
C186 C187 1.391 . S
C186 C188 1.394 . S
C186 H202 0.931 . S
C187 C186 1.391 . S
C187 C191 1.376 . S
C188 C186 1.394 . S
C188 C189 1.369 . S
C188 C192 1.531 . S
C189 C188 1.369 . S
C189 C190 1.410 . S
C189 C197 1.503 . S
C190 C189 1.410 . S
C190 C191 1.392 . S
C190 C193 1.511 . S
C191 C187 1.376 . S
C191 C190 1.392 . S
C191 H203 0.929 . S
C192 C188 1.531 . S
C192 H204 0.960 . S
C192 H205 0.962 . S
C192 H206 0.960 . S
C193 C190 1.511 . S
C193 H207 0.961 . S
C193 H208 0.961 . S
C193 H209 0.961 . S
C194 C195 1.370 . S
C194 C196 1.363 . S
C194 H210 0.931 . S
C195 C194 1.370 . S
C195 C199 1.408 . S
C196 C194 1.363 . S
C196 C197 1.370 1_554 S
C196 C200 1.524 1_554 S
C197 C189 1.503 . S
C197 C196 1.370 1_556 S
C197 C198 1.403 1_556 S
C198 C197 1.403 1_554 S
C198 C199 1.404 . S
C198 C201 1.539 1_554 S
C199 C195 1.408 . S
C199 C198 1.404 . S
C199 H211 0.930 . S
C200 C196 1.524 1_556 S
C200 H212 0.956 . S
C200 H213 0.961 . S
C200 H214 0.961 1_556 S
C201 C198 1.539 1_556 S
C201 H215 0.958 . S
C201 H216 0.961 . S
C201 H217 0.960 . S
H202 C186 0.931 . S
H203 C191 0.929 . S
H204 C192 0.960 . S
H205 C192 0.962 . S
H206 C192 0.960 . S
H207 C193 0.961 . S
H208 C193 0.961 . S
H209 C193 0.961 . S
H210 C194 0.931 . S
H211 C199 0.930 . S
H212 C200 0.956 . S
H213 C200 0.961 . S
H214 C200 0.961 1_554 S
H215 C201 0.958 . S
H216 C201 0.961 . S
H217 C201 0.960 . S
C218 C219 1.391 . S
C218 C220 1.394 . S
C218 H234 0.931 . S
C219 C218 1.391 . S
C219 C223 1.376 . S
C220 C218 1.394 . S
C220 C221 1.369 . S
C220 C224 1.531 . S
C221 C220 1.369 . S
C221 C222 1.410 . S
C221 C229 1.503 . S
C222 C221 1.410 . S
C222 C223 1.392 . S
C222 C225 1.511 . S
C223 C219 1.376 . S
C223 C222 1.392 . S
C223 H235 0.929 . S
C224 C220 1.531 . S
C224 H236 0.960 . S
C224 H237 0.962 . S
C224 H238 0.960 . S
C225 C222 1.511 . S
C225 H239 0.961 . S
C225 H240 0.961 . S
C225 H241 0.961 . S
C226 C227 1.370 . S
C226 C228 1.363 . S
C226 H242 0.931 . S
C227 C226 1.370 . S
C227 C231 1.408 . S
C228 C226 1.363 . S
C228 C229 1.370 . S
C228 C232 1.524 . S
C229 C221 1.503 . S
C229 C228 1.370 . S
C229 C230 1.403 . S
C230 C229 1.403 . S
C230 C231 1.404 . S
C230 C233 1.539 . S
C231 C227 1.408 . S
C231 C230 1.404 . S
C231 H243 0.930 . S
C232 C228 1.524 . S
C232 H244 0.956 . S
C232 H245 0.961 . S
C232 H246 0.961 . S
C233 C230 1.539 . S
C233 H247 0.958 . S
C233 H248 0.961 . S
C233 H249 0.960 . S
H234 C218 0.931 . S
H235 C223 0.929 . S
H236 C224 0.960 . S
H237 C224 0.962 . S
H238 C224 0.960 . S
H239 C225 0.961 . S
H240 C225 0.961 . S
H241 C225 0.961 . S
H242 C226 0.931 . S
H243 C231 0.930 . S
H244 C232 0.956 . S
H245 C232 0.961 . S
H246 C232 0.961 . S
H247 C233 0.958 . S
H248 C233 0.961 . S
H249 C233 0.960 . S
C250 C251 1.391 . S
C250 C252 1.394 . S
C250 H266 0.931 . S
C251 C250 1.391 . S
C251 C255 1.376 . S
C252 C250 1.394 . S
C252 C253 1.369 . S
C252 C256 1.531 . S
C253 C252 1.369 . S
C253 C254 1.410 . S
C253 C261 1.503 . S
C254 C253 1.410 . S
C254 C255 1.392 . S
C254 C257 1.511 . S
C255 C251 1.376 . S
C255 C254 1.392 . S
C255 H267 0.929 . S
C256 C252 1.531 . S
C256 H268 0.960 . S
C256 H269 0.962 . S
C256 H270 0.960 . S
C257 C254 1.511 . S
C257 H271 0.961 . S
C257 H272 0.961 . S
C257 H273 0.961 . S
C258 C259 1.370 . S
C258 C260 1.363 . S
C258 H274 0.931 . S
C259 C258 1.370 . S
C259 C263 1.408 . S
C260 C258 1.363 . S
C260 C261 1.370 . S
C260 C264 1.524 . S
C261 C253 1.503 . S
C261 C260 1.370 . S
C261 C262 1.403 . S
C262 C261 1.403 . S
C262 C263 1.404 . S
C262 C265 1.539 . S
C263 C259 1.408 . S
C263 C262 1.404 . S
C263 H275 0.930 . S
C264 C260 1.524 . S
C264 H276 0.956 . S
C264 H277 0.961 . S
C264 H278 0.961 . S
C265 C262 1.539 . S
C265 H279 0.958 . S
C265 H280 0.961 . S
C265 H281 0.960 . S
H266 C250 0.931 . S
H267 C255 0.929 . S
H268 C256 0.960 . S
H269 C256 0.962 . S
H270 C256 0.960 . S
H271 C257 0.961 . S
H272 C257 0.961 . S
H273 C257 0.961 . S
H274 C258 0.931 . S
H275 C263 0.930 . S
H276 C264 0.956 . S
H277 C264 0.961 . S
H278 C264 0.961 . S
H279 C265 0.958 . S
H280 C265 0.961 . S
H281 C265 0.960 . S
C282 C283 1.391 . S
C282 C284 1.394 . S
C282 H298 0.931 . S
C283 C282 1.391 . S
C283 C287 1.376 . S
C284 C282 1.394 . S
C284 C285 1.369 1_556 S
C284 C288 1.531 . S
C285 C284 1.369 1_554 S
C285 C286 1.410 . S
C285 C293 1.503 . S
C286 C285 1.410 . S
C286 C287 1.392 1_554 S
C286 C289 1.511 . S
C287 C283 1.376 . S
C287 C286 1.392 1_556 S
C287 H299 0.929 . S
C288 C284 1.531 . S
C288 H300 0.960 1_556 S
C288 H301 0.962 . S
C288 H302 0.960 . S
C289 C286 1.511 . S
C289 H303 0.961 . S
C289 H304 0.961 . S
C289 H305 0.961 . S
C290 C291 1.370 . S
C290 C292 1.363 . S
C290 H306 0.931 . S
C291 C290 1.370 . S
C291 C295 1.408 . S
C292 C290 1.363 . S
C292 C293 1.370 . S
C292 C296 1.524 . S
C293 C285 1.503 . S
C293 C292 1.370 . S
C293 C294 1.403 . S
C294 C293 1.403 . S
C294 C295 1.404 . S
C294 C297 1.539 . S
C295 C291 1.408 . S
C295 C294 1.404 . S
C295 H307 0.930 . S
C296 C292 1.524 . S
C296 H308 0.956 . S
C296 H309 0.961 . S
C296 H310 0.961 . S
C297 C294 1.539 . S
C297 H311 0.958 . S
C297 H312 0.961 . S
C297 H313 0.960 . S
H298 C282 0.931 . S
H299 C287 0.929 . S
H300 C288 0.960 1_554 S
H301 C288 0.962 . S
H302 C288 0.960 . S
H303 C289 0.961 . S
H304 C289 0.961 . S
H305 C289 0.961 . S
H306 C290 0.931 . S
H307 C295 0.930 . S
H308 C296 0.956 . S
H309 C296 0.961 . S
H310 C296 0.961 . S
H311 C297 0.958 . S
H312 C297 0.961 . S
H313 C297 0.960 . S
C314 C315 1.391 . S
C314 C316 1.394 . S
C314 H330 0.931 . S
C315 C314 1.391 . S
C315 C319 1.376 . S
C316 C314 1.394 . S
C316 C317 1.369 . S
C316 C320 1.531 . S
C317 C316 1.369 . S
C317 C318 1.410 . S
C317 C325 1.503 . S
C318 C317 1.410 . S
C318 C319 1.392 . S
C318 C321 1.511 . S
C319 C315 1.376 . S
C319 C318 1.392 . S
C319 H331 0.929 . S
C320 C316 1.531 . S
C320 H332 0.960 . S
C320 H333 0.962 . S
C320 H334 0.960 . S
C321 C318 1.511 . S
C321 H335 0.961 . S
C321 H336 0.961 . S
C321 H337 0.961 . S
C322 C323 1.370 . S
C322 C324 1.363 . S
C322 H338 0.931 . S
C323 C322 1.370 . S
C323 C327 1.408 . S
C324 C322 1.363 . S
C324 C325 1.370 . S
C324 C328 1.524 . S
C325 C317 1.503 . S
C325 C324 1.370 . S
C325 C326 1.403 . S
C326 C325 1.403 . S
C326 C327 1.404 . S
C326 C329 1.539 . S
C327 C323 1.408 . S
C327 C326 1.404 . S
C327 H339 0.930 . S
C328 C324 1.524 . S
C328 H340 0.956 . S
C328 H341 0.961 . S
C328 H342 0.961 . S
C329 C326 1.539 . S
C329 H343 0.958 . S
C329 H344 0.961 . S
C329 H345 0.960 . S
H330 C314 0.931 . S
H331 C319 0.929 . S
H332 C320 0.960 . S
H333 C320 0.962 . S
H334 C320 0.960 . S
H335 C321 0.961 . S
H336 C321 0.961 . S
H337 C321 0.961 . S
H338 C322 0.931 . S
H339 C327 0.930 . S
H340 C328 0.956 . S
H341 C328 0.961 . S
H342 C328 0.961 . S
H343 C329 0.958 . S
H344 C329 0.961 . S
H345 C329 0.960 . S
C346 C347 1.391 . S
C346 C348 1.394 . S
C346 H362 0.931 . S
C347 C346 1.391 . S
C347 C351 1.376 . S
C348 C346 1.394 . S
C348 C349 1.369 . S
C348 C352 1.531 . S
C349 C348 1.369 . S
C349 C350 1.410 . S
C349 C357 1.503 . S
C350 C349 1.410 . S
C350 C351 1.392 . S
C350 C353 1.511 . S
C351 C347 1.376 . S
C351 C350 1.392 . S
C351 H363 0.929 . S
C352 C348 1.531 . S
C352 H364 0.960 . S
C352 H365 0.962 . S
C352 H366 0.960 . S
C353 C350 1.511 . S
C353 H367 0.961 . S
C353 H368 0.961 . S
C353 H369 0.961 . S
C354 C355 1.370 . S
C354 C356 1.363 . S
C354 H370 0.931 . S
C355 C354 1.370 . S
C355 C359 1.408 . S
C356 C354 1.363 . S
C356 C357 1.370 . S
C356 C360 1.524 . S
C357 C349 1.503 . S
C357 C356 1.370 . S
C357 C358 1.403 . S
C358 C357 1.403 . S
C358 C359 1.404 . S
C358 C361 1.539 . S
C359 C355 1.408 . S
C359 C358 1.404 . S
C359 H371 0.930 . S
C360 C356 1.524 . S
C360 H372 0.956 . S
C360 H373 0.961 . S
C360 H374 0.961 . S
C361 C358 1.539 . S
C361 H375 0.958 . S
C361 H376 0.961 . S
C361 H377 0.960 . S
H362 C346 0.931 . S
H363 C351 0.929 . S
H364 C352 0.960 . S
H365 C352 0.962 . S
H366 C352 0.960 . S
H367 C353 0.961 . S
H368 C353 0.961 . S
H369 C353 0.961 . S
H370 C354 0.931 . S
H371 C359 0.930 . S
H372 C360 0.956 . S
H373 C360 0.961 . S
H374 C360 0.961 . S
H375 C361 0.958 . S
H376 C361 0.961 . S
H377 C361 0.960 . S
C91 C1 1.709 . S
C99 C10 1.720 1_655 S
C123 C40 1.719 . S
C131 C31 1.718 . S
C155 C70 1.721 . S
C163 C61 1.717 . S
C187 C87 1.067 . S
C195 N6 1.052 . S
C219 C46 0.940 . S
C227 N14 0.884 . S
C251 N66 1.048 . S
C259 C57 1.047 . S
C283 N74 0.827 . S
C291 C16 0.911 . S
C315 C27 1.051 . S
C323 N36 1.050 . S
C347 C76 0.871 . S
C355 N44 0.882 . S
