# Generated by pormake.
# Topology zfx, (5)-cn, num edge types: 1
# Building blocks:
#     Node 0, Type 0, BuildingBlock: XOMCOT_clean_sbu_0, # of connection points: 5
#     Node 1, Type 0, BuildingBlock: XOMCOT_clean_sbu_0, # of connection points: 5
#     Node 2, Type 0, BuildingBlock: XOMCOT_clean_sbu_0, # of connection points: 5
#     Node 3, Type 0, BuildingBlock: XOMCOT_clean_sbu_0, # of connection points: 5
#     Node 4, Type 0, BuildingBlock: XOMCOT_clean_sbu_0, # of connection points: 5
#     Node 5, Type 0, BuildingBlock: XOMCOT_clean_sbu_0, # of connection points: 5
#     Node 6, Type 0, BuildingBlock: XOMCOT_clean_sbu_0, # of connection points: 5
#     Node 7, Type 0, BuildingBlock: XOMCOT_clean_sbu_0, # of connection points: 5
#     Node 8, Type 0, BuildingBlock: XOMCOT_clean_sbu_0, # of connection points: 5
#     Node 9, Type 0, BuildingBlock: XOMCOT_clean_sbu_0, # of connection points: 5
#     Node 10, Type 0, BuildingBlock: XOMCOT_clean_sbu_0, # of connection points: 5
#     Node 11, Type 0, BuildingBlock: XOMCOT_clean_sbu_0, # of connection points: 5
#     Node 12, Type 0, BuildingBlock: XOMCOT_clean_sbu_0, # of connection points: 5
#     Node 13, Type 0, BuildingBlock: XOMCOT_clean_sbu_0, # of connection points: 5
#     Node 14, Type 0, BuildingBlock: XOMCOT_clean_sbu_0, # of connection points: 5
#     Node 15, Type 0, BuildingBlock: XOMCOT_clean_sbu_0, # of connection points: 5
#     Edge 16, Type (0, 0), None
#     Edge 17, Type (0, 0), None
#     Edge 18, Type (0, 0), None
#     Edge 19, Type (0, 0), None
#     Edge 20, Type (0, 0), None
#     Edge 21, Type (0, 0), None
#     Edge 22, Type (0, 0), None
#     Edge 23, Type (0, 0), None
#     Edge 24, Type (0, 0), None
#     Edge 25, Type (0, 0), None
#     Edge 26, Type (0, 0), None
#     Edge 27, Type (0, 0), None
#     Edge 28, Type (0, 0), None
#     Edge 29, Type (0, 0), None
#     Edge 30, Type (0, 0), None
#     Edge 31, Type (0, 0), None
#     Edge 32, Type (0, 0), None
#     Edge 33, Type (0, 0), None
#     Edge 34, Type (0, 0), None
#     Edge 35, Type (0, 0), None
#     Edge 36, Type (0, 0), None
#     Edge 37, Type (0, 0), None
#     Edge 38, Type (0, 0), None
#     Edge 39, Type (0, 0), None
#     Edge 40, Type (0, 0), None
#     Edge 41, Type (0, 0), None
#     Edge 42, Type (0, 0), None
#     Edge 43, Type (0, 0), None
#     Edge 44, Type (0, 0), None
#     Edge 45, Type (0, 0), None
#     Edge 46, Type (0, 0), None
#     Edge 47, Type (0, 0), None
#     Edge 48, Type (0, 0), None
#     Edge 49, Type (0, 0), None
#     Edge 50, Type (0, 0), None
#     Edge 51, Type (0, 0), None
#     Edge 52, Type (0, 0), None
#     Edge 53, Type (0, 0), None
#     Edge 54, Type (0, 0), None
#     Edge 55, Type (0, 0), None
# Relax obj value: 0.489
# Max RMSD: 0.231
# Mean RMSD: 0.231
data_MOF--net-zfx--node1-XOMCOT_clean_sbu_0--edge1-none
_symmetry_space_group_name_H-M    P1
_symmetry_Int_Tables_number       1
_symmetry_cell_setting            triclinic
loop_
_symmetry_equiv_pos_as_xyz
'x, y, z'
_cell_length_a     32.795085
_cell_length_b     32.80011
_cell_length_c     11.104417
_cell_angle_alpha  90.002035
_cell_angle_beta   89.998415
_cell_angle_gamma 90.00703
loop_
_atom_site_label
_atom_site_type_symbol
_atom_site_fract_x
_atom_site_fract_y
_atom_site_fract_z
_atom_type_partial_charge
Co0 Co 0.52847 0.1764 0.47878 0.0
C1 C 0.60092 0.15618 0.60463 0.0
C2 C 0.61421 0.20191 0.47571 0.0
C3 C 0.65031 0.18586 0.51698 0.0
N4 N 0.58315 0.18325 0.53268 0.0
N5 N 0.642 0.15894 0.60624 0.0
H6 H 0.58346 0.13798 0.66726 0.0
H7 H 0.61138 0.22649 0.41191 0.0
C8 C 0.56239 0.20734 0.24012 0.0
O9 O 0.54705 0.24213 0.27449 0.0
N10 N 0.47443 0.16768 0.41518 0.0
C11 C 0.45836 0.13116 0.38201 0.0
C12 C 0.43984 0.13502 0.27222 0.0
C13 C 0.46174 0.19349 0.33035 0.0
N14 N 0.44373 0.17398 0.23837 0.0
C15 C 0.51136 0.10267 0.60098 0.0
C16 C 0.56877 0.05207 0.49874 0.0
C17 C 0.54619 0.03807 0.59878 0.0
C18 C 0.5171 0.06398 0.64821 0.0
C19 C 0.56202 0.09188 0.45289 0.0
N20 N 0.53383 0.117 0.50575 0.0
H21 H 0.48758 0.12085 0.64073 0.0
H22 H 0.58052 0.10299 0.37928 0.0
H23 H 0.46496 0.10188 0.4209 0.0
H24 H 0.47425 0.22378 0.32213 0.0
O25 O 0.50567 0.18838 0.63998 0.0
O26 O 0.51551 0.23622 0.51069 0.0
O27 O 0.55431 0.17544 0.30535 0.0
C28 C 0.50214 0.22656 0.61786 0.0
H29 H 0.68012 0.19877 0.49958 0.0
H30 H 0.43047 0.11022 0.2142 0.0
H31 H 0.59092 0.03237 0.45584 0.0
H32 H 0.49812 0.05407 0.72261 0.0
Co33 Co 0.13207 0.25801 0.72736 0.0
C34 C 0.15213 0.33062 0.85267 0.0
C35 C 0.10625 0.34359 0.72393 0.0
C36 C 0.12219 0.3798 0.76477 0.0
N37 N 0.12508 0.31268 0.78103 0.0
N38 N 0.14925 0.3717 0.85385 0.0
H39 H 0.17044 0.3133 0.91535 0.0
H40 H 0.08166 0.34058 0.66017 0.0
C41 C 0.10142 0.29176 0.48807 0.0
O42 O 0.06666 0.2761 0.52143 0.0
N43 N 0.1409 0.20397 0.66384 0.0
C44 C 0.17747 0.18809 0.63036 0.0
C45 C 0.17361 0.16964 0.52047 0.0
C46 C 0.11508 0.19121 0.57911 0.0
N47 N 0.13461 0.17339 0.48683 0.0
C48 C 0.20573 0.24096 0.85001 0.0
C49 C 0.25638 0.29842 0.74815 0.0
C50 C 0.27033 0.27585 0.84825 0.0
C51 C 0.24439 0.24672 0.89749 0.0
C52 C 0.2166 0.29164 0.70205 0.0
N53 N 0.19144 0.26345 0.75475 0.0
H54 H 0.18754 0.21716 0.88958 0.0
H55 H 0.20554 0.31013 0.62837 0.0
H56 H 0.20675 0.19481 0.66911 0.0
H57 H 0.08471 0.20355 0.5712 0.0
O58 O 0.12 0.23526 0.88854 0.0
O59 O 0.07222 0.245 0.75903 0.0
O60 O 0.13321 0.28385 0.55394 0.0
C61 C 0.08183 0.23169 0.86632 0.0
H62 H 0.10917 0.40954 0.74716 0.0
H63 H 0.19843 0.16044 0.46225 0.0
H64 H 0.27611 0.32058 0.70538 0.0
H65 H 0.25426 0.22774 0.97191 0.0
Co66 Co 0.05013 0.86165 0.97907 0.0
C67 C 0.97771 0.88189 0.10499 0.0
C68 C 0.96437 0.83618 0.97606 0.0
C69 C 0.92828 0.85224 1.01743 0.0
N70 N 0.99545 0.85482 1.03298 0.0
N71 N 0.93662 0.87915 0.10669 0.0
H72 H 0.99519 0.90008 0.16759 0.0
H73 H 0.96717 0.8116 0.91224 0.0
C74 C 1.0162 0.83067 0.7405 0.0
O75 O 0.03149 0.79587 0.77499 0.0
N76 N 0.10418 0.87035 0.91549 0.0
C77 C 0.12027 0.90686 0.88237 0.0
C78 C 0.13878 0.903 0.77257 0.0
C79 C 0.11685 0.84453 0.83064 0.0
N80 N 0.13486 0.86405 0.73867 0.0
C81 C 0.06719 0.93541 0.10117 0.0
C82 C 1.00984 0.98597 0.99852 0.0
C83 C 0.03238 1.00002 0.09856 0.0
C84 C 0.06145 0.97412 0.14822 0.0
C85 C 1.01659 0.94614 0.95286 0.0
N86 N 0.04476 0.92104 1.0059 0.0
H87 H 0.09095 0.91724 0.14107 0.0
H88 H 0.99812 0.935 0.87923 0.0
H89 H 0.11369 0.93614 0.92132 0.0
H90 H 0.10432 0.81425 0.82238 0.0
O91 O 0.07292 0.84968 0.14027 0.0
O92 O 0.06307 0.80183 1.01101 0.0
O93 O 0.0243 0.86258 0.80564 0.0
C94 C 0.07645 0.8115 0.11816 0.0
H95 H 0.89846 0.83934 1.00008 0.0
H96 H 0.14817 0.92781 0.71457 0.0
H97 H 0.98771 1.00566 0.95546 0.0
H98 H 0.0804 0.98407 0.22263 0.0
Co99 Co 0.44655 0.78 0.22857 0.0
C100 C 0.42642 0.70746 0.35409 0.0
C101 C 0.47224 0.69436 0.22527 0.0
C102 C 0.45624 0.6582 0.26626 0.0
N103 N 0.45348 0.72533 0.28233 0.0
N104 N 0.42923 0.66638 0.35541 0.0
H105 H 0.40815 0.72483 0.41676 0.0
H106 H 0.49683 0.69729 0.1615 0.0
C107 C 0.47731 0.74617 0.98953 0.0
O108 O 0.5121 0.76168 1.02332 0.0
N109 N 0.43777 0.83403 0.16504 0.0
C110 C 0.40122 0.85 0.13175 0.0
C111 C 0.40507 0.86849 1.02191 0.0
C112 C 0.46358 0.84677 0.08025 0.0
N113 N 0.44406 0.86468 0.98815 0.0
C114 C 0.37286 0.79704 0.35104 0.0
C115 C 0.32224 0.73962 0.24891 0.0
C116 C 0.30826 0.76217 0.34901 0.0
C117 C 0.33418 0.79128 0.39839 0.0
C118 C 0.36203 0.74639 0.20294 0.0
N119 N 0.38717 0.77458 0.25577 0.0
H120 H 0.39104 0.82084 0.39072 0.0
H121 H 0.37312 0.72791 0.12927 0.0
H122 H 0.37194 0.84333 0.17058 0.0
H123 H 0.49391 0.83435 0.07215 0.0
O124 O 0.45858 0.80277 0.38977 0.0
O125 O 0.50639 0.793 0.26035 0.0
O126 O 0.44548 0.75416 1.05514 0.0
C127 C 0.49675 0.80633 0.36759 0.0
H128 H 0.46921 0.62842 0.24872 0.0
H129 H 0.38026 0.87778 0.96382 0.0
H130 H 0.30252 0.71746 0.20604 0.0
H131 H 0.32428 0.81025 0.47282 0.0
Co132 Co 0.55017 0.85573 0.64563 0.0
C133 C 0.60318 0.89862 0.48697 0.0
C134 C 0.63934 0.86579 0.61183 0.0
C135 C 0.6641 0.88642 0.53224 0.0
N136 N 0.60065 0.87154 0.57618 0.0
N137 N 0.64066 0.8992 0.43866 0.0
H138 H 0.57655 0.90965 0.43973 0.0
H139 H 0.64934 0.84571 0.68258 0.0
C140 C 0.60622 0.82642 0.87931 0.0
O141 O 0.62861 0.85883 0.90009 0.0
N142 N 0.49997 0.84319 0.72349 0.0
C143 C 0.46151 0.83837 0.68171 0.0
C144 C 0.43463 0.84742 0.77366 0.0
C145 C 0.49597 0.8548 0.83805 0.0
N146 N 0.45702 0.85881 0.86953 0.0
C147 C 0.51153 0.93119 0.66549 0.0
C148 C 0.58114 0.97705 0.69792 0.0
C149 C 0.54713 0.99507 0.6422 0.0
C150 C 0.51145 0.97212 0.63343 0.0
C151 C 0.57957 0.93555 0.73247 0.0
N152 N 0.54611 0.91214 0.70538 0.0
H153 H 0.48488 0.91388 0.64147 0.0
H154 H 0.60694 0.92144 0.76668 0.0
H155 H 0.45309 0.83237 0.59001 0.0
H156 H 0.52124 0.86361 0.89503 0.0
O157 O 0.5202 0.86491 0.48969 0.0
O158 O 0.54549 0.80704 0.54027 0.0
O159 O 0.57931 0.82682 0.79294 0.0
C160 C 0.52481 0.82698 0.45998 0.0
H161 H 0.6966 0.88096 0.52545 0.0
H162 H 0.40169 0.84615 0.77002 0.0
H163 H 0.60887 0.99439 0.71127 0.0
H164 H 0.48409 0.98509 0.59423 0.0
Co165 Co 0.45264 0.27997 0.89568 0.0
C166 C 0.40973 0.3329 0.73684 0.0
C167 C 0.4425 0.36911 0.86174 0.0
C168 C 0.42186 0.39383 0.78209 0.0
N169 N 0.43681 0.33041 0.82611 0.0
N170 N 0.40912 0.37036 0.6885 0.0
H171 H 0.39874 0.30625 0.68962 0.0
H172 H 0.46254 0.37915 0.93256 0.0
C173 C 0.48193 0.33606 0.12934 0.0
O174 O 0.44951 0.35844 0.15021 0.0
N175 N 0.46522 0.22982 0.97364 0.0
C176 C 0.47006 0.19136 0.93194 0.0
C177 C 0.46101 0.1645 1.02393 0.0
C178 C 0.45358 0.22584 0.08818 0.0
N179 N 0.44959 0.18691 0.11972 0.0
C180 C 0.3772 0.24127 0.91554 0.0
C181 C 0.33128 0.31085 0.94764 0.0
C182 C 0.3133 0.27681 0.89193 0.0
C183 C 0.33627 0.24115 0.88334 0.0
C184 C 0.37278 0.30932 0.98234 0.0
N185 N 0.39622 0.27588 0.95538 0.0
H186 H 0.39453 0.21464 0.89163 0.0
H187 H 0.38686 0.3367 1.01655 0.0
H188 H 0.47609 0.18292 0.84027 0.0
H189 H 0.44476 0.25111 0.14511 0.0
O190 O 0.4435 0.24996 0.73981 0.0
O191 O 0.50136 0.27533 0.79042 0.0
O192 O 0.48152 0.30917 1.04295 0.0
C193 C 0.48144 0.2546 0.71017 0.0
H194 H 0.42728 0.42633 0.77528 0.0
H195 H 0.4623 0.13156 1.02038 0.0
H196 H 0.31393 0.33857 0.96084 0.0
H197 H 0.32333 0.21378 0.84416 0.0
Co198 Co 0.02841 0.18239 0.14454 0.0
C199 C 0.97537 0.13947 0.986 0.0
C200 C 0.93924 0.17235 0.11084 0.0
C201 C 0.91445 0.15171 1.03131 0.0
N202 N 0.97792 0.16657 0.07519 0.0
N203 N 0.93789 0.13891 0.93772 0.0
H204 H 1.00199 0.12842 0.93875 0.0
H205 H 0.92924 0.19246 0.18153 0.0
C206 C 0.97237 0.21171 0.37821 0.0
O207 O 0.94997 0.17931 0.39888 0.0
N208 N 0.07863 0.19496 0.2223 0.0
C209 C 0.11708 0.19972 0.18042 0.0
C210 C 0.14398 0.19067 0.27232 0.0
C211 C 0.08265 0.18337 0.33689 0.0
N212 N 0.1216 0.17933 0.36827 0.0
C213 C 0.06705 0.10693 0.16459 0.0
C214 C 0.99744 0.06109 0.19738 0.0
C215 C 0.03146 0.04303 0.14174 0.0
C216 C 0.06713 0.06598 0.13278 0.0
C217 C 0.99901 0.10261 0.23168 0.0
N218 N 0.03247 0.126 0.20444 0.0
H219 H 0.09369 0.12423 0.14043 0.0
H220 H 0.97165 0.11674 0.26582 0.0
H221 H 0.12549 0.20566 0.08868 0.0
H222 H 0.05739 0.17458 0.39392 0.0
O223 O 0.05836 0.17315 0.98858 0.0
O224 O 0.03309 0.23104 1.03901 0.0
O225 O 0.9993 0.21134 0.29186 0.0
C226 C 0.05376 0.21107 0.95875 0.0
H227 H 0.88196 0.15719 1.02452 0.0
H228 H 0.17692 0.19187 0.26855 0.0
H229 H 0.96971 0.04376 0.21086 0.0
H230 H 0.09448 0.05299 0.09362 0.0
Co231 Co 0.12593 0.75808 0.39594 0.0
C232 C 0.16884 0.70517 0.23709 0.0
C233 C 0.13607 0.66895 0.36197 0.0
C234 C 0.15671 0.64423 0.2823 0.0
N235 N 0.14177 0.70765 0.32636 0.0
N236 N 0.16945 0.6677 0.18872 0.0
H237 H 0.17984 0.73182 0.18988 0.0
H238 H 0.11603 0.65891 0.4328 0.0
C239 C 0.09663 0.702 0.62957 0.0
O240 O 0.12905 0.67965 0.65049 0.0
N241 N 0.11334 0.80824 0.47391 0.0
C242 C 0.10854 0.8467 0.43223 0.0
C243 C 0.1176 0.87355 0.52424 0.0
C244 C 0.12497 0.8122 0.58846 0.0
N245 N 0.129 0.85113 0.62002 0.0
C246 C 0.20137 0.79677 0.4159 0.0
C247 C 0.24726 0.72718 0.44819 0.0
C248 C 0.26527 0.76122 0.39252 0.0
C249 C 0.24231 0.79688 0.38383 0.0
C250 C 0.20576 0.72872 0.48276 0.0
N251 N 0.18234 0.76217 0.45572 0.0
H252 H 0.18405 0.8234 0.39193 0.0
H253 H 0.19165 0.70135 0.51694 0.0
H254 H 0.10253 0.85515 0.34055 0.0
H255 H 0.13378 0.78693 0.64537 0.0
O256 O 0.13508 0.78811 0.24011 0.0
O257 O 0.07722 0.76273 0.29067 0.0
O258 O 0.09703 0.72889 0.54316 0.0
C259 C 0.09714 0.78347 0.21046 0.0
H260 H 0.15129 0.61173 0.27547 0.0
H261 H 0.11634 0.90649 0.5207 0.0
H262 H 0.26461 0.69946 0.46147 0.0
H263 H 0.25527 0.82424 0.34467 0.0
Co264 Co 0.95412 0.77693 0.40439 0.0
C265 C 0.91612 0.83749 0.25994 0.0
C266 C 0.9566 0.86697 0.38061 0.0
C267 C 0.93609 0.8957 0.31355 0.0
N268 N 0.94469 0.83003 0.34243 0.0
N269 N 0.91785 0.87611 0.22017 0.0
H270 H 0.90106 0.81322 0.21115 0.0
H271 H 0.98155 0.87305 0.44098 0.0
C272 C 0.9839 0.83015 0.64116 0.0
O273 O 0.9561 0.85892 0.64054 0.0
N274 N 0.96033 0.72441 0.47604 0.0
C275 C 0.97257 0.68754 0.4364 0.0
C276 C 0.96438 0.65927 0.52574 0.0
C277 C 0.94482 0.71814 0.58599 0.0
N278 N 0.94615 0.67901 0.61792 0.0
C279 C 0.87619 0.74362 0.4062 0.0
C280 C 0.83298 0.81407 0.45189 0.0
C281 C 0.81365 0.78183 0.39073 0.0
C282 C 0.83538 0.74576 0.37415 0.0
C283 C 0.87455 0.81041 0.48507 0.0
N284 N 0.89645 0.77637 0.45373 0.0
H285 H 0.89257 0.71671 0.37839 0.0
H286 H 0.88989 0.83658 0.52286 0.0
H287 H 0.98662 0.68139 0.35084 0.0
H288 H 0.93312 0.74221 0.64308 0.0
O289 O 0.94469 0.75153 0.24038 0.0
O290 O 1.00373 0.76903 0.30304 0.0
O291 O 0.98209 0.80037 0.56315 0.0
C292 C 0.98313 0.75309 0.21465 0.0
H293 H 0.9452 0.92743 0.31053 0.0
H294 H 0.97312 0.62746 0.52567 0.0
H295 H 0.81661 0.84201 0.47066 0.0
H296 H 0.82135 0.71972 0.33053 0.0
Co297 Co 0.62447 0.26111 0.90403 0.0
C298 C 0.66251 0.20059 0.75949 0.0
C299 C 0.62208 0.17107 0.8802 0.0
C300 C 0.6426 0.14236 0.81306 0.0
N301 N 0.63394 0.20802 0.84202 0.0
N302 N 0.6608 0.16197 0.71967 0.0
H303 H 0.67755 0.22487 0.71069 0.0
H304 H 0.59715 0.16495 0.94061 0.0
C305 C 0.59471 0.20786 0.1408 0.0
O306 O 0.62253 0.1791 0.14024 0.0
N307 N 0.61821 0.31362 0.97574 0.0
C308 C 0.60601 0.3505 0.93607 0.0
C309 C 0.6142 0.37876 1.02541 0.0
C310 C 0.63371 0.31988 0.08572 0.0
N311 N 0.63239 0.35901 0.11763 0.0
C312 C 0.70238 0.29448 0.9059 0.0
C313 C 0.74564 0.22405 0.95125 0.0
C314 C 0.76495 0.25632 0.89014 0.0
C315 C 0.74319 0.29238 0.87376 0.0
C316 C 0.70408 0.22767 0.98458 0.0
N317 N 0.68215 0.2617 0.95337 0.0
H318 H 0.68598 0.3214 0.8782 0.0
H319 H 0.68877 0.20149 1.02234 0.0
H320 H 0.59201 0.35666 0.85046 0.0
H321 H 0.64539 0.29581 0.14282 0.0
O322 O 0.63389 0.28653 0.74005 0.0
O323 O 0.57486 0.26898 0.80267 0.0
O324 O 0.5965 0.23763 1.06277 0.0
C325 C 0.59545 0.28495 0.71431 0.0
H326 H 0.63351 0.11062 0.81003 0.0
H327 H 0.60549 0.41058 1.0253 0.0
H328 H 0.76203 0.1961 0.96989 0.0
H329 H 0.75718 0.31844 0.83017 0.0
Co330 Co 0.6326 0.76011 0.22532 0.0
C331 C 0.64754 0.83562 0.34186 0.0
C332 C 0.59997 0.84198 0.21372 0.0
C333 C 0.61373 0.8802 0.24447 0.0
N334 N 0.62125 0.81407 0.2766 0.0
N335 N 0.64236 0.87634 0.33172 0.0
H336 H 0.66747 0.82141 0.40708 0.0
H337 H 0.57662 0.83507 0.14812 0.0
C338 C 0.60972 0.78953 0.96303 0.0
O339 O 0.58393 0.75978 0.94746 0.0
N340 N 0.64553 0.70667 0.16185 0.0
C341 C 0.68339 0.69394 0.12916 0.0
C342 C 0.68125 0.67387 1.02129 0.0
C343 C 0.62096 0.69051 0.07844 0.0
N344 N 0.64207 0.67335 0.98755 0.0
C345 C 0.70567 0.7475 0.35665 0.0
C346 C 0.75621 0.8039 0.24954 0.0
C347 C 0.7702 0.78241 0.35164 0.0
C348 C 0.74415 0.75412 0.40427 0.0
C349 C 0.71634 0.79675 0.20449 0.0
N350 N 0.69131 0.76885 0.25921 0.0
H351 H 0.68815 0.72339 0.397 0.0
H352 H 0.70545 0.81413 0.12832 0.0
H353 H 0.71193 0.70384 0.16695 0.0
H354 H 0.58923 0.69893 0.07148 0.0
O355 O 0.62054 0.73709 0.38722 0.0
O356 O 0.57304 0.74359 0.2567 0.0
O357 O 0.63505 0.788 1.05321 0.0
C358 C 0.58262 0.73211 0.36618 0.0
H359 H 0.59914 0.90857 0.21949 0.0
H360 H 0.70681 0.66634 0.96378 0.0
H361 H 0.77611 0.8252 0.20373 0.0
H362 H 0.7542 0.73569 0.47972 0.0
Co363 Co 0.94596 0.27798 0.72424 0.0
C364 C 0.93101 0.20248 0.84086 0.0
C365 C 0.97855 0.19609 0.71264 0.0
C366 C 0.9648 0.15788 0.74349 0.0
N367 N 0.95729 0.22401 0.77551 0.0
N368 N 0.93618 0.16176 0.83077 0.0
H369 H 0.9111 0.21671 0.90609 0.0
H370 H 1.0019 0.20298 0.64701 0.0
C371 C 0.96886 0.24858 0.46204 0.0
O372 O 0.99471 0.2783 0.44674 0.0
N373 N 0.93306 0.33143 0.66078 0.0
C374 C 0.89522 0.34415 0.62793 0.0
C375 C 0.89741 0.36422 0.52008 0.0
C376 C 0.95767 0.34759 0.57748 0.0
N377 N 0.9366 0.36474 0.48648 0.0
C378 C 0.87291 0.29069 0.85553 0.0
C379 C 0.82236 0.23421 0.74885 0.0
C380 C 0.80838 0.25576 0.85086 0.0
C381 C 0.83443 0.2841 0.90326 0.0
C382 C 0.86221 0.24135 0.70366 0.0
N383 N 0.88726 0.26928 0.75819 0.0
H384 H 0.89044 0.31482 0.89571 0.0
H385 H 0.87309 0.22391 0.62756 0.0
H386 H 0.86666 0.33424 0.66557 0.0
H387 H 0.98941 0.33918 0.57066 0.0
O388 O 0.95805 0.301 0.88611 0.0
O389 O 1.00553 0.29446 0.75555 0.0
O390 O 0.9435 0.2501 0.55213 0.0
C391 C 0.99597 0.30596 0.86503 0.0
H392 H 0.97938 0.12949 0.71853 0.0
H393 H 0.87187 0.37174 0.46248 0.0
H394 H 0.80246 0.21287 0.70321 0.0
H395 H 0.8244 0.30257 0.97863 0.0
Co396 Co 0.0303 0.67561 0.97565 0.0
C397 C 0.10586 0.66073 0.09199 0.0
C398 C 0.11212 0.70836 0.964 0.0
C399 C 0.15038 0.69465 0.99463 0.0
N400 N 0.08426 0.68702 1.02687 0.0
N401 N 0.14658 0.66599 0.08181 0.0
H402 H 0.09168 0.64077 0.15719 0.0
H403 H 0.10517 0.73171 0.89846 0.0
C404 C 0.0597 0.69849 0.71319 0.0
O405 O 0.02992 0.72422 0.69733 0.0
N406 N 0.97685 0.66263 0.91221 0.0
C407 C 0.9641 0.62474 0.87985 0.0
C408 C 0.9441 0.62675 0.77183 0.0
C409 C 0.96075 0.68711 0.82846 0.0
N410 N 0.94364 0.66588 0.73777 0.0
C411 C 1.01788 0.60251 0.10704 0.0
C412 C 0.07415 0.55204 0.99907 0.0
C413 C 0.05276 0.53798 0.1013 0.0
C414 C 0.02454 0.564 0.15437 0.0
C415 C 0.06695 0.59193 0.9543 0.0
N416 N 0.03911 0.61692 1.00941 0.0
H417 H 0.99383 0.62 0.14775 0.0
H418 H 0.08425 0.60285 0.87799 0.0
H419 H 0.97392 0.59625 0.91809 0.0
H420 H 0.96914 0.71884 0.82125 0.0
O421 O 1.00727 0.68763 0.13759 0.0
O422 O 1.01372 0.73514 1.0071 0.0
O423 O 0.05819 0.67322 0.8035 0.0
C424 C 1.00227 0.72554 0.1166 0.0
H425 H 0.17873 0.70928 0.96962 0.0
H426 H 0.93655 0.60113 0.71455 0.0
H427 H 0.09539 0.53218 0.95293 0.0
H428 H 1.0062 0.55391 0.22995 0.0
Co429 Co 0.54827 0.36245 0.4754 0.0
C430 C 0.47272 0.37734 0.59178 0.0
C431 C 0.46644 0.32972 0.46376 0.0
C432 C 0.42819 0.34343 0.49439 0.0
N433 N 0.49431 0.35105 0.52664 0.0
N434 N 0.43199 0.37209 0.58159 0.0
H435 H 0.48689 0.39729 0.65699 0.0
H436 H 0.4734 0.30636 0.39823 0.0
C437 C 0.51884 0.33957 0.21299 0.0
O438 O 0.54861 0.31381 0.19722 0.0
N439 N 0.60172 0.37543 0.41193 0.0
C440 C 0.61445 0.41332 0.37952 0.0
C441 C 0.63445 0.4113 0.27149 0.0
C442 C 0.61781 0.35094 0.3282 0.0
N443 N 0.63492 0.37216 0.23747 0.0
C444 C 0.56076 0.43553 0.60686 0.0
C445 C 0.50443 0.48603 0.49934 0.0
C446 C 0.52586 0.50005 0.60155 0.0
C447 C 0.55411 0.47402 0.65438 0.0
C448 C 0.51162 0.44616 0.45438 0.0
N449 N 0.53948 0.42115 0.50929 0.0
H450 H 0.58484 0.41803 0.64739 0.0
H451 H 0.49429 0.43526 0.3781 0.0
H452 H 0.60463 0.44181 0.41771 0.0
H453 H 0.60942 0.31921 0.32102 0.0
O454 O 0.57131 0.35042 0.63732 0.0
O455 O 0.56484 0.30292 0.5068 0.0
O456 O 0.52037 0.36487 0.30327 0.0
C457 C 0.5763 0.31251 0.61629 0.0
H458 H 0.39984 0.3288 0.46938 0.0
H459 H 0.642 0.43691 0.21417 0.0
H460 H 0.48317 0.50591 0.45337 0.0
H461 H 0.57249 0.48408 0.72992 0.0
Co462 Co 0.04753 0.35407 0.15253 0.0
C463 C 0.10777 0.39229 1.00737 0.0
C464 C 0.13758 0.3521 0.12811 0.0
C465 C 0.16613 0.37264 1.06044 0.0
N466 N 0.10054 0.36375 0.09013 0.0
N467 N 0.14634 0.39065 0.96708 0.0
H468 H 0.08338 0.40721 0.95875 0.0
H469 H 0.14387 0.32728 0.18876 0.0
C470 C 0.10093 0.32418 0.38903 0.0
O471 O 0.12962 0.35206 0.38894 0.0
N472 N 0.99509 0.34764 0.22459 0.0
C473 C 0.958 0.33627 0.18431 0.0
C474 C 0.92983 0.34453 0.27384 0.0
C475 C 0.98904 0.3628 0.33506 0.0
N476 N 0.94988 0.36194 0.36679 0.0
C477 C 1.01407 0.43193 0.15545 0.0
C478 C 0.08455 0.47516 0.20084 0.0
C479 C 0.05223 0.49452 0.14014 0.0
C480 C 1.01615 0.47278 0.12374 0.0
C481 C 0.08095 0.43357 0.23373 0.0
N482 N 0.0469 0.41167 0.20249 0.0
H483 H 0.98715 0.41556 0.12772 0.0
H484 H 0.10716 0.41823 0.27119 0.0
H485 H 0.95159 0.32304 0.0978 0.0
H486 H 1.01324 0.37412 0.39233 0.0
O487 O 0.02191 0.36356 0.98886 0.0
O488 O 0.0397 0.30451 1.05095 0.0
O489 O 0.07121 0.32599 0.31082 0.0
C490 C 0.02355 0.32513 0.96295 0.0
H491 H 0.19791 0.36368 1.05715 0.0
H492 H 0.89781 0.33656 0.27305 0.0
H493 H 0.11251 0.49154 0.21947 0.0
H494 H 0.99005 0.48682 0.08047 0.0
Co495 Co 0.53113 0.68396 0.65373 0.0
C496 C 0.47077 0.64581 0.50882 0.0
C497 C 0.44107 0.68609 0.62957 0.0
C498 C 0.41246 0.66556 0.56209 0.0
N499 N 0.47808 0.67436 0.5915 0.0
N500 N 0.43218 0.64748 0.46872 0.0
H501 H 0.49512 0.63085 0.46012 0.0
H502 H 0.43486 0.71095 0.69013 0.0
C503 C 0.4778 0.71379 0.89037 0.0
O504 O 0.44907 0.68595 0.8901 0.0
N505 N 0.58359 0.69031 0.72565 0.0
C506 C 0.62063 0.70195 0.68557 0.0
C507 C 0.64882 0.69372 0.77509 0.0
C508 C 0.58969 0.67506 0.83599 0.0
N509 N 0.62885 0.6761 0.86782 0.0
C510 C 0.56456 0.60608 0.65619 0.0
C511 C 0.49409 0.56283 0.70148 0.0
C512 C 0.5264 0.5435 0.6406 0.0
C513 C 0.56247 0.56525 0.62425 0.0
C514 C 0.4977 0.6044 0.7346 0.0
N515 N 0.53175 0.62632 0.7034 0.0
H516 H 0.59148 0.62247 0.62849 0.0
H517 H 0.47149 0.61972 0.7722 0.0
H518 H 0.62698 0.7154 0.59933 0.0
H519 H 0.56553 0.66362 0.89318 0.0
O520 O 0.55667 0.6745 0.48993 0.0
O521 O 0.53897 0.73354 0.55229 0.0
O522 O 0.50753 0.71198 0.81221 0.0
C523 C 0.55506 0.71294 0.46415 0.0
H524 H 0.3807 0.67458 0.5589 0.0
H525 H 0.68078 0.70192 0.77452 0.0
H526 H 0.46613 0.54644 0.7201 0.0
H527 H 0.58856 0.55124 0.58085 0.0
loop_
_geom_bond_atom_site_label_1
_geom_bond_atom_site_label_2
_geom_bond_distance
_geom_bond_site_symmetry_2
_ccdc_geom_bond_type
Co0 N4 2.148 . S
Co0 N10 2.128 . S
Co0 N20 2.194 . S
Co0 O25 2.351 . S
Co0 O26 2.155 . S
Co0 O27 2.096 . S
C1 N4 1.301 . S
C1 N5 1.328 . S
C1 H6 0.930 . S
C2 C3 1.333 . S
C2 N4 1.317 . S
C2 H7 0.930 . S
C3 C2 1.333 . S
C3 N5 1.350 . S
C3 H29 0.931 . S
N4 Co0 2.148 . S
N4 C1 1.301 . S
N4 C2 1.317 . S
N5 C1 1.328 . S
N5 C3 1.350 . S
H6 C1 0.930 . S
H7 C2 0.930 . S
C8 O9 1.224 . S
C8 O27 1.247 . S
O9 C8 1.224 . S
N10 Co0 2.128 . S
N10 C11 1.355 . S
N10 C13 1.311 . S
C11 N10 1.355 . S
C11 C12 1.363 . S
C11 H23 0.929 . S
C12 C11 1.363 . S
C12 N14 1.375 . S
C12 H30 0.931 . S
C13 N10 1.311 . S
C13 N14 1.347 . S
C13 H24 0.929 . S
N14 C12 1.375 . S
N14 C13 1.347 . S
C15 C18 1.365 . S
C15 N20 1.328 . S
C15 H21 0.929 . S
C16 C17 1.362 . S
C16 C19 1.378 . S
C16 H31 0.929 . S
C17 C16 1.362 . S
C17 C18 1.366 . S
C18 C15 1.365 . S
C18 C17 1.366 . S
C18 H32 0.930 . S
C19 C16 1.378 . S
C19 N20 1.315 . S
C19 H22 0.930 . S
N20 Co0 2.194 . S
N20 C15 1.328 . S
N20 C19 1.315 . S
H21 C15 0.929 . S
H22 C19 0.930 . S
H23 C11 0.929 . S
H24 C13 0.929 . S
O25 Co0 2.351 . S
O25 C28 1.244 . S
O26 Co0 2.155 . S
O26 C28 1.240 . S
O27 Co0 2.096 . S
O27 C8 1.247 . S
C28 O25 1.244 . S
C28 O26 1.240 . S
H29 C3 0.931 . S
H30 C12 0.931 . S
H31 C16 0.929 . S
H32 C18 0.930 . S
Co33 N37 2.148 . S
Co33 N43 2.128 . S
Co33 N53 2.194 . S
Co33 O58 2.351 . S
Co33 O59 2.155 . S
Co33 O60 2.096 . S
C34 N37 1.301 . S
C34 N38 1.328 . S
C34 H39 0.930 . S
C35 C36 1.333 . S
C35 N37 1.317 . S
C35 H40 0.930 . S
C36 C35 1.333 . S
C36 N38 1.350 . S
C36 H62 0.931 . S
N37 Co33 2.148 . S
N37 C34 1.301 . S
N37 C35 1.317 . S
N38 C34 1.328 . S
N38 C36 1.350 . S
H39 C34 0.930 . S
H40 C35 0.930 . S
C41 O42 1.224 . S
C41 O60 1.247 . S
O42 C41 1.224 . S
N43 Co33 2.128 . S
N43 C44 1.355 . S
N43 C46 1.311 . S
C44 N43 1.355 . S
C44 C45 1.363 . S
C44 H56 0.929 . S
C45 C44 1.363 . S
C45 N47 1.375 . S
C45 H63 0.931 . S
C46 N43 1.311 . S
C46 N47 1.347 . S
C46 H57 0.929 . S
N47 C45 1.375 . S
N47 C46 1.347 . S
C48 C51 1.365 . S
C48 N53 1.328 . S
C48 H54 0.929 . S
C49 C50 1.362 . S
C49 C52 1.378 . S
C49 H64 0.929 . S
C50 C49 1.362 . S
C50 C51 1.366 . S
C51 C48 1.365 . S
C51 C50 1.366 . S
C51 H65 0.930 . S
C52 C49 1.378 . S
C52 N53 1.315 . S
C52 H55 0.930 . S
N53 Co33 2.194 . S
N53 C48 1.328 . S
N53 C52 1.315 . S
H54 C48 0.929 . S
H55 C52 0.930 . S
H56 C44 0.929 . S
H57 C46 0.929 . S
O58 Co33 2.351 . S
O58 C61 1.244 . S
O59 Co33 2.155 . S
O59 C61 1.240 . S
O60 Co33 2.096 . S
O60 C41 1.247 . S
C61 O58 1.244 . S
C61 O59 1.240 . S
H62 C36 0.931 . S
H63 C45 0.931 . S
H64 C49 0.929 . S
H65 C51 0.930 . S
Co66 N70 2.148 1_455 S
Co66 N76 2.128 . S
Co66 N86 2.194 . S
Co66 O91 2.351 1_556 S
Co66 O92 2.155 . S
Co66 O93 2.096 1_455 S
C67 N70 1.301 1_554 S
C67 N71 1.328 . S
C67 H72 0.930 . S
C68 C69 1.333 1_556 S
C68 N70 1.317 . S
C68 H73 0.930 . S
C69 C68 1.333 1_554 S
C69 N71 1.350 . S
C69 H95 0.931 . S
N70 Co66 2.148 1_655 S
N70 C67 1.301 1_556 S
N70 C68 1.317 . S
N71 C67 1.328 . S
N71 C69 1.350 . S
H72 C67 0.930 . S
H73 C68 0.930 . S
C74 O75 1.224 . S
C74 O93 1.247 . S
O75 C74 1.224 . S
N76 Co66 2.128 . S
N76 C77 1.355 . S
N76 C79 1.311 . S
C77 N76 1.355 . S
C77 C78 1.363 . S
C77 H89 0.929 . S
C78 C77 1.363 . S
C78 N80 1.375 . S
C78 H96 0.931 . S
C79 N76 1.311 . S
C79 N80 1.347 . S
C79 H90 0.929 . S
N80 C78 1.375 . S
N80 C79 1.347 . S
C81 C84 1.365 . S
C81 N86 1.328 . S
C81 H87 0.929 1_556 S
C82 C83 1.362 1_655 S
C82 C85 1.378 . S
C82 H97 0.929 . S
C83 C82 1.362 1_455 S
C83 C84 1.366 . S
C84 C81 1.365 . S
C84 C83 1.366 . S
C84 H98 0.930 1_556 S
C85 C82 1.378 . S
C85 N86 1.315 1_655 S
C85 H88 0.930 . S
N86 Co66 2.194 . S
N86 C81 1.328 . S
N86 C85 1.315 1_455 S
H87 C81 0.929 1_554 S
H88 C85 0.930 . S
H89 C77 0.929 . S
H90 C79 0.929 . S
O91 Co66 2.351 1_554 S
O91 C94 1.244 . S
O92 Co66 2.155 . S
O92 C94 1.240 1_556 S
O93 Co66 2.096 1_655 S
O93 C74 1.247 . S
C94 O91 1.244 . S
C94 O92 1.240 1_554 S
H95 C69 0.931 . S
H96 C78 0.931 . S
H97 C82 0.929 . S
H98 C84 0.930 1_554 S
Co99 N103 2.148 . S
Co99 N109 2.128 . S
Co99 N119 2.194 . S
Co99 O124 2.351 . S
Co99 O125 2.155 . S
Co99 O126 2.096 . S
C100 N103 1.301 . S
C100 N104 1.328 . S
C100 H105 0.930 . S
C101 C102 1.333 . S
C101 N103 1.317 . S
C101 H106 0.930 . S
C102 C101 1.333 . S
C102 N104 1.350 . S
C102 H128 0.931 . S
N103 Co99 2.148 . S
N103 C100 1.301 . S
N103 C101 1.317 . S
N104 C100 1.328 . S
N104 C102 1.350 . S
H105 C100 0.930 . S
H106 C101 0.930 . S
C107 O108 1.224 . S
C107 O126 1.247 1_556 S
O108 C107 1.224 . S
N109 Co99 2.128 . S
N109 C110 1.355 . S
N109 C112 1.311 1_554 S
C110 N109 1.355 . S
C110 C111 1.363 1_554 S
C110 H122 0.929 . S
C111 C110 1.363 1_556 S
C111 N113 1.375 . S
C111 H129 0.931 . S
C112 N109 1.311 1_556 S
C112 N113 1.347 . S
C112 H123 0.929 . S
N113 C111 1.375 . S
N113 C112 1.347 . S
C114 C117 1.365 . S
C114 N119 1.328 . S
C114 H120 0.929 . S
C115 C116 1.362 . S
C115 C118 1.378 . S
C115 H130 0.929 . S
C116 C115 1.362 . S
C116 C117 1.366 . S
C117 C114 1.365 . S
C117 C116 1.366 . S
C117 H131 0.930 . S
C118 C115 1.378 . S
C118 N119 1.315 . S
C118 H121 0.930 . S
N119 Co99 2.194 . S
N119 C114 1.328 . S
N119 C118 1.315 . S
H120 C114 0.929 . S
H121 C118 0.930 . S
H122 C110 0.929 . S
H123 C112 0.929 . S
O124 Co99 2.351 . S
O124 C127 1.244 . S
O125 Co99 2.155 . S
O125 C127 1.240 . S
O126 Co99 2.096 . S
O126 C107 1.247 1_554 S
C127 O124 1.244 . S
C127 O125 1.240 . S
H128 C102 0.931 . S
H129 C111 0.931 . S
H130 C115 0.929 . S
H131 C117 0.930 . S
Co132 N136 2.148 . S
Co132 N142 2.128 . S
Co132 N152 2.194 . S
Co132 O157 2.351 . S
Co132 O158 2.155 . S
Co132 O159 2.096 . S
C133 N136 1.301 . S
C133 N137 1.328 . S
C133 H138 0.930 . S
C134 C135 1.333 . S
C134 N136 1.317 . S
C134 H139 0.930 . S
C135 C134 1.333 . S
C135 N137 1.350 . S
C135 H161 0.931 . S
N136 Co132 2.148 . S
N136 C133 1.301 . S
N136 C134 1.317 . S
N137 C133 1.328 . S
N137 C135 1.350 . S
H138 C133 0.930 . S
H139 C134 0.930 . S
C140 O141 1.224 . S
C140 O159 1.247 . S
O141 C140 1.224 . S
N142 Co132 2.128 . S
N142 C143 1.355 . S
N142 C145 1.311 . S
C143 N142 1.355 . S
C143 C144 1.363 . S
C143 H155 0.929 . S
C144 C143 1.363 . S
C144 N146 1.375 . S
C144 H162 0.931 . S
C145 N142 1.311 . S
C145 N146 1.347 . S
C145 H156 0.929 . S
N146 C144 1.375 . S
N146 C145 1.347 . S
C147 C150 1.365 . S
C147 N152 1.328 . S
C147 H153 0.929 . S
C148 C149 1.362 . S
C148 C151 1.378 . S
C148 H163 0.929 . S
C149 C148 1.362 . S
C149 C150 1.366 . S
C150 C147 1.365 . S
C150 C149 1.366 . S
C150 H164 0.930 . S
C151 C148 1.378 . S
C151 N152 1.315 . S
C151 H154 0.930 . S
N152 Co132 2.194 . S
N152 C147 1.328 . S
N152 C151 1.315 . S
H153 C147 0.929 . S
H154 C151 0.930 . S
H155 C143 0.929 . S
H156 C145 0.929 . S
O157 Co132 2.351 . S
O157 C160 1.244 . S
O158 Co132 2.155 . S
O158 C160 1.240 . S
O159 Co132 2.096 . S
O159 C140 1.247 . S
C160 O157 1.244 . S
C160 O158 1.240 . S
H161 C135 0.931 . S
H162 C144 0.931 . S
H163 C148 0.929 . S
H164 C150 0.930 . S
Co165 N169 2.148 . S
Co165 N175 2.128 . S
Co165 N185 2.194 . S
Co165 O190 2.351 . S
Co165 O191 2.155 . S
Co165 O192 2.096 . S
C166 N169 1.301 . S
C166 N170 1.328 . S
C166 H171 0.930 . S
C167 C168 1.333 . S
C167 N169 1.317 . S
C167 H172 0.930 . S
C168 C167 1.333 . S
C168 N170 1.350 . S
C168 H194 0.931 . S
N169 Co165 2.148 . S
N169 C166 1.301 . S
N169 C167 1.317 . S
N170 C166 1.328 . S
N170 C168 1.350 . S
H171 C166 0.930 . S
H172 C167 0.930 . S
C173 O174 1.224 . S
C173 O192 1.247 1_554 S
O174 C173 1.224 . S
N175 Co165 2.128 . S
N175 C176 1.355 . S
N175 C178 1.311 1_556 S
C176 N175 1.355 . S
C176 C177 1.363 1_556 S
C176 H188 0.929 . S
C177 C176 1.363 1_554 S
C177 N179 1.375 . S
C177 H195 0.931 . S
C178 N175 1.311 1_554 S
C178 N179 1.347 . S
C178 H189 0.929 . S
N179 C177 1.375 . S
N179 C178 1.347 . S
C180 C183 1.365 . S
C180 N185 1.328 . S
C180 H186 0.929 . S
C181 C182 1.362 . S
C181 C184 1.378 . S
C181 H196 0.929 . S
C182 C181 1.362 . S
C182 C183 1.366 . S
C183 C180 1.365 . S
C183 C182 1.366 . S
C183 H197 0.930 . S
C184 C181 1.378 . S
C184 N185 1.315 . S
C184 H187 0.930 . S
N185 Co165 2.194 . S
N185 C180 1.328 . S
N185 C184 1.315 . S
H186 C180 0.929 . S
H187 C184 0.930 . S
H188 C176 0.929 . S
H189 C178 0.929 . S
O190 Co165 2.351 . S
O190 C193 1.244 . S
O191 Co165 2.155 . S
O191 C193 1.240 . S
O192 Co165 2.096 . S
O192 C173 1.247 1_556 S
C193 O190 1.244 . S
C193 O191 1.240 . S
H194 C168 0.931 . S
H195 C177 0.931 . S
H196 C181 0.929 . S
H197 C183 0.930 . S
Co198 N202 2.148 1_455 S
Co198 N208 2.128 . S
Co198 N218 2.194 . S
Co198 O223 2.351 1_554 S
Co198 O224 2.155 . S
Co198 O225 2.096 1_455 S
C199 N202 1.301 1_556 S
C199 N203 1.328 . S
C199 H204 0.930 . S
C200 C201 1.333 1_554 S
C200 N202 1.317 . S
C200 H205 0.930 . S
C201 C200 1.333 1_556 S
C201 N203 1.350 . S
C201 H227 0.931 . S
N202 Co198 2.148 1_655 S
N202 C199 1.301 1_554 S
N202 C200 1.317 . S
N203 C199 1.328 . S
N203 C201 1.350 . S
H204 C199 0.930 . S
H205 C200 0.930 . S
C206 O207 1.224 . S
C206 O225 1.247 . S
O207 C206 1.224 . S
N208 Co198 2.128 . S
N208 C209 1.355 . S
N208 C211 1.311 . S
C209 N208 1.355 . S
C209 C210 1.363 . S
C209 H221 0.929 . S
C210 C209 1.363 . S
C210 N212 1.375 . S
C210 H228 0.931 . S
C211 N208 1.311 . S
C211 N212 1.347 . S
C211 H222 0.929 . S
N212 C210 1.375 . S
N212 C211 1.347 . S
C213 C216 1.365 . S
C213 N218 1.328 . S
C213 H219 0.929 1_554 S
C214 C215 1.362 1_655 S
C214 C217 1.378 . S
C214 H229 0.929 . S
C215 C214 1.362 1_455 S
C215 C216 1.366 . S
C216 C213 1.365 . S
C216 C215 1.366 . S
C216 H230 0.930 1_554 S
C217 C214 1.378 . S
C217 N218 1.315 1_655 S
C217 H220 0.930 . S
N218 Co198 2.194 . S
N218 C213 1.328 . S
N218 C217 1.315 1_455 S
H219 C213 0.929 1_556 S
H220 C217 0.930 . S
H221 C209 0.929 . S
H222 C211 0.929 . S
O223 Co198 2.351 1_556 S
O223 C226 1.244 . S
O224 Co198 2.155 . S
O224 C226 1.240 1_554 S
O225 Co198 2.096 1_655 S
O225 C206 1.247 . S
C226 O223 1.244 . S
C226 O224 1.240 1_556 S
H227 C201 0.931 . S
H228 C210 0.931 . S
H229 C214 0.929 . S
H230 C216 0.930 1_556 S
Co231 N235 2.148 . S
Co231 N241 2.128 . S
Co231 N251 2.194 . S
Co231 O256 2.351 . S
Co231 O257 2.155 . S
Co231 O258 2.096 . S
C232 N235 1.301 . S
C232 N236 1.328 . S
C232 H237 0.930 . S
C233 C234 1.333 . S
C233 N235 1.317 . S
C233 H238 0.930 . S
C234 C233 1.333 . S
C234 N236 1.350 . S
C234 H260 0.931 . S
N235 Co231 2.148 . S
N235 C232 1.301 . S
N235 C233 1.317 . S
N236 C232 1.328 . S
N236 C234 1.350 . S
H237 C232 0.930 . S
H238 C233 0.930 . S
C239 O240 1.224 . S
C239 O258 1.247 . S
O240 C239 1.224 . S
N241 Co231 2.128 . S
N241 C242 1.355 . S
N241 C244 1.311 . S
C242 N241 1.355 . S
C242 C243 1.363 . S
C242 H254 0.929 . S
C243 C242 1.363 . S
C243 N245 1.375 . S
C243 H261 0.931 . S
C244 N241 1.311 . S
C244 N245 1.347 . S
C244 H255 0.929 . S
N245 C243 1.375 . S
N245 C244 1.347 . S
C246 C249 1.365 . S
C246 N251 1.328 . S
C246 H252 0.929 . S
C247 C248 1.362 . S
C247 C250 1.378 . S
C247 H262 0.929 . S
C248 C247 1.362 . S
C248 C249 1.366 . S
C249 C246 1.365 . S
C249 C248 1.366 . S
C249 H263 0.930 . S
C250 C247 1.378 . S
C250 N251 1.315 . S
C250 H253 0.930 . S
N251 Co231 2.194 . S
N251 C246 1.328 . S
N251 C250 1.315 . S
H252 C246 0.929 . S
H253 C250 0.930 . S
H254 C242 0.929 . S
H255 C244 0.929 . S
O256 Co231 2.351 . S
O256 C259 1.244 . S
O257 Co231 2.155 . S
O257 C259 1.240 . S
O258 Co231 2.096 . S
O258 C239 1.247 . S
C259 O256 1.244 . S
C259 O257 1.240 . S
H260 C234 0.931 . S
H261 C243 0.931 . S
H262 C247 0.929 . S
H263 C249 0.930 . S
Co264 N268 2.148 . S
Co264 N274 2.128 . S
Co264 N284 2.194 . S
Co264 O289 2.351 . S
Co264 O290 2.155 . S
Co264 O291 2.096 . S
C265 N268 1.301 . S
C265 N269 1.328 . S
C265 H270 0.930 . S
C266 C267 1.333 . S
C266 N268 1.317 . S
C266 H271 0.930 . S
C267 C266 1.333 . S
C267 N269 1.350 . S
C267 H293 0.931 . S
N268 Co264 2.148 . S
N268 C265 1.301 . S
N268 C266 1.317 . S
N269 C265 1.328 . S
N269 C267 1.350 . S
H270 C265 0.930 . S
H271 C266 0.930 . S
C272 O273 1.224 . S
C272 O291 1.247 . S
O273 C272 1.224 . S
N274 Co264 2.128 . S
N274 C275 1.355 . S
N274 C277 1.311 . S
C275 N274 1.355 . S
C275 C276 1.363 . S
C275 H287 0.929 . S
C276 C275 1.363 . S
C276 N278 1.375 . S
C276 H294 0.931 . S
C277 N274 1.311 . S
C277 N278 1.347 . S
C277 H288 0.929 . S
N278 C276 1.375 . S
N278 C277 1.347 . S
C279 C282 1.365 . S
C279 N284 1.328 . S
C279 H285 0.929 . S
C280 C281 1.362 . S
C280 C283 1.378 . S
C280 H295 0.929 . S
C281 C280 1.362 . S
C281 C282 1.366 . S
C282 C279 1.365 . S
C282 C281 1.366 . S
C282 H296 0.930 . S
C283 C280 1.378 . S
C283 N284 1.315 . S
C283 H286 0.930 . S
N284 Co264 2.194 . S
N284 C279 1.328 . S
N284 C283 1.315 . S
H285 C279 0.929 . S
H286 C283 0.930 . S
H287 C275 0.929 . S
H288 C277 0.929 . S
O289 Co264 2.351 . S
O289 C292 1.244 . S
O290 Co264 2.155 . S
O290 C292 1.240 . S
O291 Co264 2.096 . S
O291 C272 1.247 . S
C292 O289 1.244 . S
C292 O290 1.240 . S
H293 C267 0.931 . S
H294 C276 0.931 . S
H295 C280 0.929 . S
H296 C282 0.930 . S
Co297 N301 2.148 . S
Co297 N307 2.128 . S
Co297 N317 2.194 . S
Co297 O322 2.351 . S
Co297 O323 2.155 . S
Co297 O324 2.096 . S
C298 N301 1.301 . S
C298 N302 1.328 . S
C298 H303 0.930 . S
C299 C300 1.333 . S
C299 N301 1.317 . S
C299 H304 0.930 . S
C300 C299 1.333 . S
C300 N302 1.350 . S
C300 H326 0.931 . S
N301 Co297 2.148 . S
N301 C298 1.301 . S
N301 C299 1.317 . S
N302 C298 1.328 . S
N302 C300 1.350 . S
H303 C298 0.930 . S
H304 C299 0.930 . S
C305 O306 1.224 . S
C305 O324 1.247 1_554 S
O306 C305 1.224 . S
N307 Co297 2.128 . S
N307 C308 1.355 . S
N307 C310 1.311 1_556 S
C308 N307 1.355 . S
C308 C309 1.363 1_556 S
C308 H320 0.929 . S
C309 C308 1.363 1_554 S
C309 N311 1.375 . S
C309 H327 0.931 . S
C310 N307 1.311 1_554 S
C310 N311 1.347 . S
C310 H321 0.929 . S
N311 C309 1.375 . S
N311 C310 1.347 . S
C312 C315 1.365 . S
C312 N317 1.328 . S
C312 H318 0.929 . S
C313 C314 1.362 . S
C313 C316 1.378 . S
C313 H328 0.929 . S
C314 C313 1.362 . S
C314 C315 1.366 . S
C315 C312 1.365 . S
C315 C314 1.366 . S
C315 H329 0.930 . S
C316 C313 1.378 . S
C316 N317 1.315 . S
C316 H319 0.930 . S
N317 Co297 2.194 . S
N317 C312 1.328 . S
N317 C316 1.315 . S
H318 C312 0.929 . S
H319 C316 0.930 . S
H320 C308 0.929 . S
H321 C310 0.929 . S
O322 Co297 2.351 . S
O322 C325 1.244 . S
O323 Co297 2.155 . S
O323 C325 1.240 . S
O324 Co297 2.096 . S
O324 C305 1.247 1_556 S
C325 O322 1.244 . S
C325 O323 1.240 . S
H326 C300 0.931 . S
H327 C309 0.931 . S
H328 C313 0.929 . S
H329 C315 0.930 . S
Co330 N334 2.148 . S
Co330 N340 2.128 . S
Co330 N350 2.194 . S
Co330 O355 2.351 . S
Co330 O356 2.155 . S
Co330 O357 2.096 . S
C331 N334 1.301 . S
C331 N335 1.328 . S
C331 H336 0.930 . S
C332 C333 1.333 . S
C332 N334 1.317 . S
C332 H337 0.930 . S
C333 C332 1.333 . S
C333 N335 1.350 . S
C333 H359 0.931 . S
N334 Co330 2.148 . S
N334 C331 1.301 . S
N334 C332 1.317 . S
N335 C331 1.328 . S
N335 C333 1.350 . S
H336 C331 0.930 . S
H337 C332 0.930 . S
C338 O339 1.224 . S
C338 O357 1.247 1_556 S
O339 C338 1.224 . S
N340 Co330 2.128 . S
N340 C341 1.355 . S
N340 C343 1.311 1_554 S
C341 N340 1.355 . S
C341 C342 1.363 1_554 S
C341 H353 0.929 . S
C342 C341 1.363 1_556 S
C342 N344 1.375 . S
C342 H360 0.931 . S
C343 N340 1.311 1_556 S
C343 N344 1.347 . S
C343 H354 0.929 . S
N344 C342 1.375 . S
N344 C343 1.347 . S
C345 C348 1.365 . S
C345 N350 1.328 . S
C345 H351 0.929 . S
C346 C347 1.362 . S
C346 C349 1.378 . S
C346 H361 0.929 . S
C347 C346 1.362 . S
C347 C348 1.366 . S
C348 C345 1.365 . S
C348 C347 1.366 . S
C348 H362 0.930 . S
C349 C346 1.378 . S
C349 N350 1.315 . S
C349 H352 0.930 . S
N350 Co330 2.194 . S
N350 C345 1.328 . S
N350 C349 1.315 . S
H351 C345 0.929 . S
H352 C349 0.930 . S
H353 C341 0.929 . S
H354 C343 0.929 . S
O355 Co330 2.351 . S
O355 C358 1.244 . S
O356 Co330 2.155 . S
O356 C358 1.240 . S
O357 Co330 2.096 . S
O357 C338 1.247 1_554 S
C358 O355 1.244 . S
C358 O356 1.240 . S
H359 C333 0.931 . S
H360 C342 0.931 . S
H361 C346 0.929 . S
H362 C348 0.930 . S
Co363 N367 2.148 . S
Co363 N373 2.128 . S
Co363 N383 2.194 . S
Co363 O388 2.351 . S
Co363 O389 2.155 . S
Co363 O390 2.096 . S
C364 N367 1.301 . S
C364 N368 1.328 . S
C364 H369 0.930 . S
C365 C366 1.333 . S
C365 N367 1.317 . S
C365 H370 0.930 . S
C366 C365 1.333 . S
C366 N368 1.350 . S
C366 H392 0.931 . S
N367 Co363 2.148 . S
N367 C364 1.301 . S
N367 C365 1.317 . S
N368 C364 1.328 . S
N368 C366 1.350 . S
H369 C364 0.930 . S
H370 C365 0.930 . S
C371 O372 1.224 . S
C371 O390 1.247 . S
O372 C371 1.224 . S
N373 Co363 2.128 . S
N373 C374 1.355 . S
N373 C376 1.311 . S
C374 N373 1.355 . S
C374 C375 1.363 . S
C374 H386 0.929 . S
C375 C374 1.363 . S
C375 N377 1.375 . S
C375 H393 0.931 . S
C376 N373 1.311 . S
C376 N377 1.347 . S
C376 H387 0.929 . S
N377 C375 1.375 . S
N377 C376 1.347 . S
C378 C381 1.365 . S
C378 N383 1.328 . S
C378 H384 0.929 . S
C379 C380 1.362 . S
C379 C382 1.378 . S
C379 H394 0.929 . S
C380 C379 1.362 . S
C380 C381 1.366 . S
C381 C378 1.365 . S
C381 C380 1.366 . S
C381 H395 0.930 . S
C382 C379 1.378 . S
C382 N383 1.315 . S
C382 H385 0.930 . S
N383 Co363 2.194 . S
N383 C378 1.328 . S
N383 C382 1.315 . S
H384 C378 0.929 . S
H385 C382 0.930 . S
H386 C374 0.929 . S
H387 C376 0.929 . S
O388 Co363 2.351 . S
O388 C391 1.244 . S
O389 Co363 2.155 . S
O389 C391 1.240 . S
O390 Co363 2.096 . S
O390 C371 1.247 . S
C391 O388 1.244 . S
C391 O389 1.240 . S
H392 C366 0.931 . S
H393 C375 0.931 . S
H394 C379 0.929 . S
H395 C381 0.930 . S
Co396 N400 2.148 . S
Co396 N406 2.128 1_455 S
Co396 N416 2.194 . S
Co396 O421 2.351 1_456 S
Co396 O422 2.155 1_455 S
Co396 O423 2.096 . S
C397 N400 1.301 1_554 S
C397 N401 1.328 . S
C397 H402 0.930 . S
C398 C399 1.333 1_556 S
C398 N400 1.317 . S
C398 H403 0.930 . S
C399 C398 1.333 1_554 S
C399 N401 1.350 . S
C399 H425 0.931 . S
N400 Co396 2.148 . S
N400 C397 1.301 1_556 S
N400 C398 1.317 . S
N401 C397 1.328 . S
N401 C399 1.350 . S
H402 C397 0.930 . S
H403 C398 0.930 . S
C404 O405 1.224 . S
C404 O423 1.247 . S
O405 C404 1.224 . S
N406 Co396 2.128 1_655 S
N406 C407 1.355 . S
N406 C409 1.311 . S
C407 N406 1.355 . S
C407 C408 1.363 . S
C407 H419 0.929 . S
C408 C407 1.363 . S
C408 N410 1.375 . S
C408 H426 0.931 . S
C409 N406 1.311 . S
C409 N410 1.347 . S
C409 H420 0.929 . S
N410 C408 1.375 . S
N410 C409 1.347 . S
C411 C414 1.365 . S
C411 N416 1.328 . S
C411 H417 0.929 1_456 S
C412 C413 1.362 . S
C412 C415 1.378 . S
C412 H427 0.929 . S
C413 C412 1.362 . S
C413 C414 1.366 . S
C414 C411 1.365 . S
C414 C413 1.366 . S
C414 H428 0.930 1_456 S
C415 C412 1.378 . S
C415 N416 1.315 . S
C415 H418 0.930 . S
N416 Co396 2.194 . S
N416 C411 1.328 . S
N416 C415 1.315 . S
H417 C411 0.929 1_654 S
H418 C415 0.930 . S
H419 C407 0.929 . S
H420 C409 0.929 . S
O421 Co396 2.351 1_654 S
O421 C424 1.244 . S
O422 Co396 2.155 1_655 S
O422 C424 1.240 1_556 S
O423 Co396 2.096 . S
O423 C404 1.247 . S
C424 O421 1.244 . S
C424 O422 1.240 1_554 S
H425 C399 0.931 . S
H426 C408 0.931 . S
H427 C412 0.929 . S
H428 C414 0.930 1_654 S
Co429 N433 2.148 . S
Co429 N439 2.128 . S
Co429 N449 2.194 . S
Co429 O454 2.351 . S
Co429 O455 2.155 . S
Co429 O456 2.096 . S
C430 N433 1.301 . S
C430 N434 1.328 . S
C430 H435 0.930 . S
C431 C432 1.333 . S
C431 N433 1.317 . S
C431 H436 0.930 . S
C432 C431 1.333 . S
C432 N434 1.350 . S
C432 H458 0.931 . S
N433 Co429 2.148 . S
N433 C430 1.301 . S
N433 C431 1.317 . S
N434 C430 1.328 . S
N434 C432 1.350 . S
H435 C430 0.930 . S
H436 C431 0.930 . S
C437 O438 1.224 . S
C437 O456 1.247 . S
O438 C437 1.224 . S
N439 Co429 2.128 . S
N439 C440 1.355 . S
N439 C442 1.311 . S
C440 N439 1.355 . S
C440 C441 1.363 . S
C440 H452 0.929 . S
C441 C440 1.363 . S
C441 N443 1.375 . S
C441 H459 0.931 . S
C442 N439 1.311 . S
C442 N443 1.347 . S
C442 H453 0.929 . S
N443 C441 1.375 . S
N443 C442 1.347 . S
C444 C447 1.365 . S
C444 N449 1.328 . S
C444 H450 0.929 . S
C445 C446 1.362 . S
C445 C448 1.378 . S
C445 H460 0.929 . S
C446 C445 1.362 . S
C446 C447 1.366 . S
C447 C444 1.365 . S
C447 C446 1.366 . S
C447 H461 0.930 . S
C448 C445 1.378 . S
C448 N449 1.315 . S
C448 H451 0.930 . S
N449 Co429 2.194 . S
N449 C444 1.328 . S
N449 C448 1.315 . S
H450 C444 0.929 . S
H451 C448 0.930 . S
H452 C440 0.929 . S
H453 C442 0.929 . S
O454 Co429 2.351 . S
O454 C457 1.244 . S
O455 Co429 2.155 . S
O455 C457 1.240 . S
O456 Co429 2.096 . S
O456 C437 1.247 . S
C457 O454 1.244 . S
C457 O455 1.240 . S
H458 C432 0.931 . S
H459 C441 0.931 . S
H460 C445 0.929 . S
H461 C447 0.930 . S
Co462 N466 2.148 . S
Co462 N472 2.128 1_455 S
Co462 N482 2.194 . S
Co462 O487 2.351 1_454 S
Co462 O488 2.155 1_455 S
Co462 O489 2.096 . S
C463 N466 1.301 1_556 S
C463 N467 1.328 . S
C463 H468 0.930 . S
C464 C465 1.333 1_554 S
C464 N466 1.317 . S
C464 H469 0.930 . S
C465 C464 1.333 1_556 S
C465 N467 1.350 . S
C465 H491 0.931 . S
N466 Co462 2.148 . S
N466 C463 1.301 1_554 S
N466 C464 1.317 . S
N467 C463 1.328 . S
N467 C465 1.350 . S
H468 C463 0.930 . S
H469 C464 0.930 . S
C470 O471 1.224 . S
C470 O489 1.247 . S
O471 C470 1.224 . S
N472 Co462 2.128 1_655 S
N472 C473 1.355 . S
N472 C475 1.311 . S
C473 N472 1.355 . S
C473 C474 1.363 . S
C473 H485 0.929 . S
C474 C473 1.363 . S
C474 N476 1.375 . S
C474 H492 0.931 . S
C475 N472 1.311 . S
C475 N476 1.347 . S
C475 H486 0.929 . S
N476 C474 1.375 . S
N476 C475 1.347 . S
C477 C480 1.365 . S
C477 N482 1.328 . S
C477 H483 0.929 1_454 S
C478 C479 1.362 . S
C478 C481 1.378 . S
C478 H493 0.929 . S
C479 C478 1.362 . S
C479 C480 1.366 . S
C480 C477 1.365 . S
C480 C479 1.366 . S
C480 H494 0.930 1_454 S
C481 C478 1.378 . S
C481 N482 1.315 . S
C481 H484 0.930 . S
N482 Co462 2.194 . S
N482 C477 1.328 . S
N482 C481 1.315 . S
H483 C477 0.929 1_656 S
H484 C481 0.930 . S
H485 C473 0.929 . S
H486 C475 0.929 . S
O487 Co462 2.351 1_656 S
O487 C490 1.244 . S
O488 Co462 2.155 1_655 S
O488 C490 1.240 1_554 S
O489 Co462 2.096 . S
O489 C470 1.247 . S
C490 O487 1.244 . S
C490 O488 1.240 1_556 S
H491 C465 0.931 . S
H492 C474 0.931 . S
H493 C478 0.929 . S
H494 C480 0.930 1_656 S
Co495 N499 2.148 . S
Co495 N505 2.128 . S
Co495 N515 2.194 . S
Co495 O520 2.351 . S
Co495 O521 2.155 . S
Co495 O522 2.096 . S
C496 N499 1.301 . S
C496 N500 1.328 . S
C496 H501 0.930 . S
C497 C498 1.333 . S
C497 N499 1.317 . S
C497 H502 0.930 . S
C498 C497 1.333 . S
C498 N500 1.350 . S
C498 H524 0.931 . S
N499 Co495 2.148 . S
N499 C496 1.301 . S
N499 C497 1.317 . S
N500 C496 1.328 . S
N500 C498 1.350 . S
H501 C496 0.930 . S
H502 C497 0.930 . S
C503 O504 1.224 . S
C503 O522 1.247 . S
O504 C503 1.224 . S
N505 Co495 2.128 . S
N505 C506 1.355 . S
N505 C508 1.311 . S
C506 N505 1.355 . S
C506 C507 1.363 . S
C506 H518 0.929 . S
C507 C506 1.363 . S
C507 N509 1.375 . S
C507 H525 0.931 . S
C508 N505 1.311 . S
C508 N509 1.347 . S
C508 H519 0.929 . S
N509 C507 1.375 . S
N509 C508 1.347 . S
C510 C513 1.365 . S
C510 N515 1.328 . S
C510 H516 0.929 . S
C511 C512 1.362 . S
C511 C514 1.378 . S
C511 H526 0.929 . S
C512 C511 1.362 . S
C512 C513 1.366 . S
C513 C510 1.365 . S
C513 C512 1.366 . S
C513 H527 0.930 . S
C514 C511 1.378 . S
C514 N515 1.315 . S
C514 H517 0.930 . S
N515 Co495 2.194 . S
N515 C510 1.328 . S
N515 C514 1.315 . S
H516 C510 0.929 . S
H517 C514 0.930 . S
H518 C506 0.929 . S
H519 C508 0.929 . S
O520 Co495 2.351 . S
O520 C523 1.244 . S
O521 Co495 2.155 . S
O521 C523 1.240 . S
O522 Co495 2.096 . S
O522 C503 1.247 . S
C523 O520 1.244 . S
C523 O521 1.240 . S
H524 C498 0.931 . S
H525 C507 0.931 . S
H526 C511 0.929 . S
H527 C513 0.930 . S
C17 C149 2.056 1_545 S
C182 C50 2.055 . S
C215 C83 2.055 1_544 S
C116 C248 2.055 . S
C281 C347 2.055 . S
C380 C314 2.055 . S
C413 C479 2.055 1_556 S
C446 C512 2.056 . S
N14 N179 1.460 . S
N212 N47 1.460 . S
N245 N80 1.460 . S
N113 N146 1.460 . S
C140 C338 2.648 . S
C74 C272 2.648 . S
C206 C371 2.648 . S
C8 C305 2.648 . S
N410 N278 1.460 . S
N344 N509 1.460 . S
N311 N443 1.460 . S
N377 N476 1.460 . S
C470 C41 2.649 . S
C173 C437 2.648 . S
C107 C503 2.648 . S
C404 C239 2.649 . S
C193 C28 2.664 . S
C226 C61 2.664 . S
C94 C259 2.664 . S
C127 C160 2.664 . S
N137 N335 0.307 . S
N269 N71 0.307 . S
N368 N203 0.307 . S
N5 N302 0.307 . S
C424 C292 2.664 . S
C358 C523 2.664 . S
C457 C325 2.664 . S
C490 C391 2.664 . S
N38 N467 0.307 . S
N170 N434 0.307 . S
N500 N104 0.307 . S
N236 N401 0.307 . S
