# Generated by pormake.
# Topology wll, (5)-cn, num edge types: 1
# Building blocks:
#     Node 0, Type 0, BuildingBlock: BEQFEK_clean_sbu_0, # of connection points: 5
#     Node 1, Type 0, BuildingBlock: BEQFEK_clean_sbu_0, # of connection points: 5
#     Node 2, Type 0, BuildingBlock: BEQFEK_clean_sbu_0, # of connection points: 5
#     Node 3, Type 0, BuildingBlock: BEQFEK_clean_sbu_0, # of connection points: 5
#     Node 4, Type 0, BuildingBlock: BEQFEK_clean_sbu_0, # of connection points: 5
#     Node 5, Type 0, BuildingBlock: BEQFEK_clean_sbu_0, # of connection points: 5
#     Node 6, Type 0, BuildingBlock: BEQFEK_clean_sbu_0, # of connection points: 5
#     Node 7, Type 0, BuildingBlock: BEQFEK_clean_sbu_0, # of connection points: 5
#     Node 8, Type 0, BuildingBlock: BEQFEK_clean_sbu_0, # of connection points: 5
#     Node 9, Type 0, BuildingBlock: BEQFEK_clean_sbu_0, # of connection points: 5
#     Node 10, Type 0, BuildingBlock: BEQFEK_clean_sbu_0, # of connection points: 5
#     Node 11, Type 0, BuildingBlock: BEQFEK_clean_sbu_0, # of connection points: 5
#     Node 12, Type 0, BuildingBlock: BEQFEK_clean_sbu_0, # of connection points: 5
#     Node 13, Type 0, BuildingBlock: BEQFEK_clean_sbu_0, # of connection points: 5
#     Node 14, Type 0, BuildingBlock: BEQFEK_clean_sbu_0, # of connection points: 5
#     Node 15, Type 0, BuildingBlock: BEQFEK_clean_sbu_0, # of connection points: 5
#     Node 16, Type 0, BuildingBlock: BEQFEK_clean_sbu_0, # of connection points: 5
#     Node 17, Type 0, BuildingBlock: BEQFEK_clean_sbu_0, # of connection points: 5
#     Edge 18, Type (0, 0), BuildingBlock: OJICUG_clean_linker_0, # of connection points: 2
#     Edge 19, Type (0, 0), BuildingBlock: OJICUG_clean_linker_0, # of connection points: 2
#     Edge 20, Type (0, 0), BuildingBlock: OJICUG_clean_linker_0, # of connection points: 2
#     Edge 21, Type (0, 0), BuildingBlock: OJICUG_clean_linker_0, # of connection points: 2
#     Edge 22, Type (0, 0), BuildingBlock: OJICUG_clean_linker_0, # of connection points: 2
#     Edge 23, Type (0, 0), BuildingBlock: OJICUG_clean_linker_0, # of connection points: 2
#     Edge 24, Type (0, 0), BuildingBlock: OJICUG_clean_linker_0, # of connection points: 2
#     Edge 25, Type (0, 0), BuildingBlock: OJICUG_clean_linker_0, # of connection points: 2
#     Edge 26, Type (0, 0), BuildingBlock: OJICUG_clean_linker_0, # of connection points: 2
#     Edge 27, Type (0, 0), BuildingBlock: OJICUG_clean_linker_0, # of connection points: 2
#     Edge 28, Type (0, 0), BuildingBlock: OJICUG_clean_linker_0, # of connection points: 2
#     Edge 29, Type (0, 0), BuildingBlock: OJICUG_clean_linker_0, # of connection points: 2
#     Edge 30, Type (0, 0), BuildingBlock: OJICUG_clean_linker_0, # of connection points: 2
#     Edge 31, Type (0, 0), BuildingBlock: OJICUG_clean_linker_0, # of connection points: 2
#     Edge 32, Type (0, 0), BuildingBlock: OJICUG_clean_linker_0, # of connection points: 2
#     Edge 33, Type (0, 0), BuildingBlock: OJICUG_clean_linker_0, # of connection points: 2
#     Edge 34, Type (0, 0), BuildingBlock: OJICUG_clean_linker_0, # of connection points: 2
#     Edge 35, Type (0, 0), BuildingBlock: OJICUG_clean_linker_0, # of connection points: 2
#     Edge 36, Type (0, 0), BuildingBlock: OJICUG_clean_linker_0, # of connection points: 2
#     Edge 37, Type (0, 0), BuildingBlock: OJICUG_clean_linker_0, # of connection points: 2
#     Edge 38, Type (0, 0), BuildingBlock: OJICUG_clean_linker_0, # of connection points: 2
#     Edge 39, Type (0, 0), BuildingBlock: OJICUG_clean_linker_0, # of connection points: 2
#     Edge 40, Type (0, 0), BuildingBlock: OJICUG_clean_linker_0, # of connection points: 2
#     Edge 41, Type (0, 0), BuildingBlock: OJICUG_clean_linker_0, # of connection points: 2
#     Edge 42, Type (0, 0), BuildingBlock: OJICUG_clean_linker_0, # of connection points: 2
#     Edge 43, Type (0, 0), BuildingBlock: OJICUG_clean_linker_0, # of connection points: 2
#     Edge 44, Type (0, 0), BuildingBlock: OJICUG_clean_linker_0, # of connection points: 2
#     Edge 45, Type (0, 0), BuildingBlock: OJICUG_clean_linker_0, # of connection points: 2
#     Edge 46, Type (0, 0), BuildingBlock: OJICUG_clean_linker_0, # of connection points: 2
#     Edge 47, Type (0, 0), BuildingBlock: OJICUG_clean_linker_0, # of connection points: 2
#     Edge 48, Type (0, 0), BuildingBlock: OJICUG_clean_linker_0, # of connection points: 2
#     Edge 49, Type (0, 0), BuildingBlock: OJICUG_clean_linker_0, # of connection points: 2
#     Edge 50, Type (0, 0), BuildingBlock: OJICUG_clean_linker_0, # of connection points: 2
#     Edge 51, Type (0, 0), BuildingBlock: OJICUG_clean_linker_0, # of connection points: 2
#     Edge 52, Type (0, 0), BuildingBlock: OJICUG_clean_linker_0, # of connection points: 2
#     Edge 53, Type (0, 0), BuildingBlock: OJICUG_clean_linker_0, # of connection points: 2
#     Edge 54, Type (0, 0), BuildingBlock: OJICUG_clean_linker_0, # of connection points: 2
#     Edge 55, Type (0, 0), BuildingBlock: OJICUG_clean_linker_0, # of connection points: 2
#     Edge 56, Type (0, 0), BuildingBlock: OJICUG_clean_linker_0, # of connection points: 2
#     Edge 57, Type (0, 0), BuildingBlock: OJICUG_clean_linker_0, # of connection points: 2
#     Edge 58, Type (0, 0), BuildingBlock: OJICUG_clean_linker_0, # of connection points: 2
#     Edge 59, Type (0, 0), BuildingBlock: OJICUG_clean_linker_0, # of connection points: 2
#     Edge 60, Type (0, 0), BuildingBlock: OJICUG_clean_linker_0, # of connection points: 2
#     Edge 61, Type (0, 0), BuildingBlock: OJICUG_clean_linker_0, # of connection points: 2
#     Edge 62, Type (0, 0), BuildingBlock: OJICUG_clean_linker_0, # of connection points: 2
# Relax obj value: 0.210
# Max RMSD: 0.164
# Mean RMSD: 0.162
data_MOF--net-wll--node1-BEQFEK_clean_sbu_0--edge1-OJICUG_clean_linker_0
_symmetry_space_group_name_H-M    P1
_symmetry_Int_Tables_number       1
_symmetry_cell_setting            triclinic
loop_
_symmetry_equiv_pos_as_xyz
'x, y, z'
_cell_length_a     30.331009
_cell_length_b     30.388379
_cell_length_c     51.199265
_cell_angle_alpha  90.001347
_cell_angle_beta   89.986839
_cell_angle_gamma 119.99279
loop_
_atom_site_label
_atom_site_type_symbol
_atom_site_fract_x
_atom_site_fract_y
_atom_site_fract_z
_atom_type_partial_charge
Co0 Co 0.29756 0.32072 0.13447 0.0
Co1 Co 0.35966 0.30396 0.09031 0.0
C2 C 0.32417 0.23974 0.13963 0.0
O3 O 0.30101 0.26187 0.14833 0.0
O4 O 0.34737 0.25248 0.1178 0.0
C5 C 0.23313 0.31108 0.17861 0.0
O6 O 0.2457 0.27848 0.18779 0.0
C7 C 0.35413 0.2398 0.04716 0.0
C8 C 0.42851 0.28334 0.02748 0.0
C9 C 0.38208 0.23853 0.02604 0.0
N10 N 0.38219 0.28358 0.06017 0.0
N11 N 0.42676 0.30947 0.04839 0.0
C12 C 0.30239 0.19911 0.05574 0.0
H13 H 0.29608 0.20368 0.07664 0.0
H14 H 0.27286 0.20182 0.04425 0.0
H15 H 0.29784 0.16096 0.05238 0.0
C16 C 0.23628 0.31795 0.08902 0.0
N17 N 0.27293 0.31101 0.09978 0.0
N18 N 0.30085 0.30765 0.08109 0.0
C19 C 0.28397 0.31431 0.05784 0.0
C20 C 0.24208 0.32028 0.06211 0.0
C21 C 0.20102 0.32918 0.10433 0.0
H22 H 0.2234 0.36667 0.11401 0.0
H23 H 0.18206 0.29999 0.11976 0.0
H24 H 0.17176 0.32993 0.09163 0.0
O25 O 0.36724 0.38089 0.13566 0.0
O26 O 0.41228 0.37103 0.10411 0.0
H27 H 0.35274 0.34171 0.03547 0.0
H28 H 0.30113 0.34217 0.01804 0.0
C29 C 0.31098 0.32109 0.03237 0.0
H30 H 0.29949 0.28332 0.0239 0.0
H31 H 0.45586 0.34495 0.05456 0.0
O32 O 0.25201 0.33351 0.15708 0.0
C33 C 0.40876 0.39657 0.12302 0.0
Co34 Co 0.67964 0.97675 0.13439 0.0
Co35 Co 0.69629 0.05522 0.09012 0.0
C36 C 0.76049 0.08444 0.13946 0.0
O37 O 0.73842 0.03924 0.14822 0.0
O38 O 0.74773 0.09468 0.11759 0.0
C39 C 0.68969 0.92241 0.17856 0.0
O40 O 0.72246 0.96761 0.18762 0.0
C41 C 0.76044 0.11394 0.04695 0.0
C42 C 0.71648 0.14421 0.02723 0.0
C43 C 0.76154 0.14297 0.02581 0.0
N44 N 0.71652 0.09795 0.05995 0.0
N45 N 0.69038 0.11629 0.04815 0.0
C46 C 0.80143 0.10333 0.05556 0.0
H47 H 0.79684 0.09245 0.07646 0.0
H48 H 0.799 0.07128 0.04407 0.0
H49 H 0.83954 0.1371 0.05223 0.0
C50 C 0.6829 0.91835 0.08903 0.0
N51 N 0.68957 0.96182 0.09973 0.0
N52 N 0.69294 0.99295 0.08099 0.0
C53 C 0.68658 0.96944 0.05777 0.0
C54 C 0.68082 0.92178 0.06211 0.0
C55 C 0.67176 0.87202 0.10438 0.0
H56 H 0.63412 0.85673 0.114 0.0
H57 H 0.70093 0.88242 0.11986 0.0
H58 H 0.67125 0.84213 0.09172 0.0
O59 O 0.61918 0.9859 0.13551 0.0
O60 O 0.62901 0.04051 0.10385 0.0
H61 H 0.65891 0.01035 0.03529 0.0
H62 H 0.65865 0.95835 0.01798 0.0
C63 C 0.6797 0.98939 0.03225 0.0
H64 H 0.71751 0.01573 0.02376 0.0
H65 H 0.65476 0.10965 0.0543 0.0
O66 O 0.667 0.91866 0.15709 0.0
C67 C 0.60343 0.01154 0.12279 0.0
Co68 Co 0.02384 0.70303 0.1352 0.0
Co69 Co 0.94529 0.64248 0.09057 0.0
C70 C 0.91584 0.67585 0.14035 0.0
O71 O 0.96112 0.69888 0.1491 0.0
O72 O 0.90556 0.65331 0.11836 0.0
C73 C 0.078 0.76752 0.17938 0.0
O74 O 0.03271 0.75596 0.18804 0.0
C75 C 0.88522 0.64791 0.04787 0.0
C76 C 0.86169 0.57744 0.02559 0.0
C77 C 0.85927 0.62187 0.02554 0.0
N78 N 0.90301 0.6208 0.06013 0.0
N79 N 0.88855 0.57849 0.04682 0.0
C80 C 0.89235 0.69735 0.05794 0.0
H81 H 0.89913 0.70055 0.07928 0.0
H82 H 0.92618 0.72921 0.04852 0.0
H83 H 0.85855 0.70106 0.05344 0.0
C84 C 0.08283 0.76554 0.09021 0.0
N85 N 0.03905 0.72875 0.10073 0.0
N86 N 0.00767 0.70187 0.08186 0.0
C87 C 0.03122 0.71981 0.05871 0.0
C88 C 0.07929 0.76107 0.06325 0.0
C89 C 0.12951 0.79957 0.10569 0.0
H90 H 0.1438 0.77632 0.11521 0.0
H91 H 0.11973 0.81867 0.12124 0.0
H92 H 0.16 0.82867 0.09315 0.0
O93 O 0.01462 0.63358 0.13575 0.0
O94 O 0.96014 0.5897 0.10384 0.0
H95 H 0.99183 0.65258 0.03521 0.0
H96 H 0.04114 0.70692 0.01799 0.0
C97 C 0.01073 0.69441 0.03293 0.0
H98 H 0.98232 0.70431 0.02578 0.0
H99 H 0.89763 0.55073 0.052 0.0
O100 O 0.08185 0.74798 0.15814 0.0
C101 C 0.98902 0.59258 0.12274 0.0
Co102 Co 0.70257 0.67915 0.87623 0.0
Co103 Co 0.64203 0.69695 0.92089 0.0
C104 C 0.67609 0.76037 0.87135 0.0
O105 O 0.69877 0.7379 0.86246 0.0
O106 O 0.65358 0.7481 0.89337 0.0
C107 C 0.76668 0.689 0.83191 0.0
O108 O 0.7549 0.72241 0.82311 0.0
C109 C 0.64804 0.76144 0.96409 0.0
C110 C 0.57427 0.71731 0.98426 0.0
C111 C 0.6204 0.7625 0.98543 0.0
N112 N 0.62009 0.71744 0.95123 0.0
N113 N 0.5759 0.69121 0.96332 0.0
C114 C 0.69931 0.80253 0.95517 0.0
H115 H 0.70517 0.79786 0.93421 0.0
H116 H 0.72941 0.80043 0.96643 0.0
H117 H 0.70338 0.84048 0.95852 0.0
C118 C 0.76504 0.68229 0.92116 0.0
N119 N 0.72816 0.68924 0.91071 0.0
N120 N 0.70132 0.69369 0.92963 0.0
C121 C 0.71945 0.6882 0.95276 0.0
C122 C 0.76084 0.68166 0.94812 0.0
C123 C 0.79942 0.67015 0.90566 0.0
H124 H 0.77639 0.63257 0.89616 0.0
H125 H 0.81831 0.69902 0.89009 0.0
H126 H 0.82876 0.66918 0.91821 0.0
O127 O 0.633 0.61909 0.87553 0.0
O128 O 0.58898 0.62961 0.90741 0.0
H129 H 0.65159 0.66136 0.97585 0.0
H130 H 0.70373 0.66065 0.99258 0.0
C131 C 0.69346 0.68184 0.97851 0.0
H132 H 0.70552 0.71973 0.98698 0.0
H133 H 0.54696 0.65549 0.95733 0.0
O134 O 0.74743 0.66604 0.85328 0.0
C135 C 0.59188 0.60371 0.88849 0.0
Co136 Co 0.3202 0.02329 0.87722 0.0
Co137 Co 0.3033 0.94479 0.92155 0.0
C138 C 0.2388 0.91577 0.87231 0.0
O139 O 0.26113 0.96094 0.86352 0.0
O140 O 0.25148 0.90543 0.89418 0.0
C141 C 0.3102 0.07765 0.83303 0.0
O142 O 0.27718 0.03247 0.82405 0.0
C143 C 0.23947 0.8869 0.96501 0.0
C144 C 0.28315 0.85619 0.98461 0.0
C145 C 0.23842 0.858 0.98621 0.0
N146 N 0.28308 0.90229 0.95182 0.0
N147 N 0.30906 0.88368 0.96355 0.0
C148 C 0.1987 0.89793 0.95656 0.0
H149 H 0.20311 0.90871 0.93564 0.0
H150 H 0.20156 0.93016 0.96806 0.0
H151 H 0.16048 0.86439 0.96002 0.0
C152 C 0.31795 0.08221 0.92254 0.0
N153 N 0.31071 0.0385 0.91188 0.0
N154 N 0.30735 0.0074 0.93063 0.0
C155 C 0.31434 0.03118 0.95382 0.0
C156 C 0.3205 0.07899 0.94945 0.0
C157 C 0.32928 0.12853 0.90713 0.0
H158 H 0.36675 0.14343 0.89737 0.0
H159 H 0.29993 0.11824 0.89176 0.0
H160 H 0.33028 0.15868 0.91977 0.0
O161 O 0.38036 0.01369 0.87602 0.0
O162 O 0.37032 0.95896 0.90765 0.0
H163 H 0.3417 0.98989 0.97622 0.0
H164 H 0.3427 0.04222 0.99354 0.0
C165 C 0.32128 0.01119 0.97932 0.0
H166 H 0.2835 0.98517 0.98793 0.0
H167 H 0.34444 0.88987 0.95726 0.0
O168 O 0.33301 0.08137 0.85446 0.0
C169 C 0.39593 0.98785 0.8887 0.0
Co170 Co 0.97647 0.29755 0.87694 0.0
Co171 Co 0.05529 0.35905 0.92124 0.0
C172 C 0.08417 0.32392 0.87187 0.0
O173 O 0.03889 0.30102 0.86311 0.0
O174 O 0.09457 0.34686 0.89375 0.0
C175 C 0.92201 0.23336 0.83274 0.0
O176 O 0.96731 0.24591 0.82367 0.0
C177 C 0.11407 0.35331 0.96436 0.0
C178 C 0.14474 0.42746 0.98411 0.0
C179 C 0.14331 0.38115 0.98549 0.0
N180 N 0.09815 0.3813 0.95142 0.0
N181 N 0.11673 0.42573 0.96325 0.0
C182 C 0.10321 0.30174 0.95571 0.0
H183 H 0.09222 0.29549 0.93483 0.0
H184 H 0.07109 0.27218 0.96723 0.0
H185 H 0.13697 0.29731 0.95898 0.0
C186 C 0.91777 0.23612 0.92227 0.0
N187 N 0.96145 0.27273 0.91159 0.0
N188 N 0.99272 0.30034 0.93033 0.0
C189 C 0.96909 0.2833 0.95354 0.0
C190 C 0.92119 0.24163 0.94919 0.0
C191 C 0.87128 0.20118 0.90691 0.0
H192 H 0.8563 0.22371 0.89724 0.0
H193 H 0.88151 0.18222 0.89147 0.0
H194 H 0.84113 0.17198 0.91956 0.0
O195 O 0.98599 0.36717 0.87588 0.0
O196 O 0.04089 0.41175 0.90752 0.0
H197 H 0.01036 0.35168 0.9761 0.0
H198 H 0.95832 0.29995 0.99344 0.0
C199 C 0.98929 0.30996 0.97908 0.0
H200 H 0.01567 0.29843 0.98744 0.0
H201 H 0.11021 0.45477 0.95714 0.0
O202 O 0.91823 0.25221 0.85423 0.0
C203 C 0.01188 0.40849 0.88861 0.0
Co204 Co 0.96411 0.6537 0.46789 0.0
Co205 Co 0.02575 0.63655 0.42357 0.0
C206 C 0.99055 0.57257 0.47296 0.0
O207 O 0.96759 0.59487 0.4817 0.0
O208 O 0.01355 0.58511 0.45108 0.0
C209 C 0.89986 0.64404 0.51213 0.0
O210 O 0.91228 0.61125 0.52119 0.0
C211 C 0.01994 0.57232 0.38033 0.0
C212 C 0.09406 0.61611 0.36044 0.0
C213 C 0.0477 0.57119 0.35907 0.0
N214 N 0.04802 0.61611 0.39333 0.0
N215 N 0.09244 0.64214 0.38143 0.0
C216 C 0.96833 0.53152 0.389 0.0
H217 H 0.93864 0.5343 0.37771 0.0
H218 H 0.96377 0.49342 0.38548 0.0
H219 H 0.9623 0.53593 0.40997 0.0
C220 C 0.90265 0.65107 0.42259 0.0
N221 N 0.93924 0.64392 0.43325 0.0
N222 N 0.96694 0.64038 0.4145 0.0
C223 C 0.94997 0.64711 0.3913 0.0
C224 C 0.90827 0.65334 0.39567 0.0
C225 C 0.8677 0.6626 0.43798 0.0
H226 H 0.89033 0.70005 0.44766 0.0
H227 H 0.84867 0.63343 0.45341 0.0
H228 H 0.83849 0.66359 0.42535 0.0
O229 O 0.03382 0.7138 0.46893 0.0
O230 O 0.07856 0.70364 0.43731 0.0
H231 H 0.01854 0.67442 0.36878 0.0
H232 H 0.96672 0.67459 0.35141 0.0
C233 C 0.97675 0.6537 0.36577 0.0
H234 H 0.96527 0.61587 0.35739 0.0
H235 H 0.12151 0.67768 0.38754 0.0
O236 O 0.91877 0.6666 0.49063 0.0
C237 C 0.07524 0.72933 0.45621 0.0
Co238 Co 0.34639 0.31051 0.46808 0.0
Co239 Co 0.36323 0.3892 0.42389 0.0
C240 C 0.42732 0.41812 0.47326 0.0
O241 O 0.40518 0.37289 0.48198 0.0
O242 O 0.41463 0.42848 0.4514 0.0
C243 C 0.35617 0.25588 0.51219 0.0
O244 O 0.38898 0.30101 0.52131 0.0
C245 C 0.42745 0.44806 0.38076 0.0
C246 C 0.38346 0.4783 0.36105 0.0
C247 C 0.42853 0.47709 0.35962 0.0
N248 N 0.38353 0.43203 0.39376 0.0
N249 N 0.35737 0.45036 0.38196 0.0
C250 C 0.46844 0.43744 0.38935 0.0
H251 H 0.46393 0.42667 0.41027 0.0
H252 H 0.46592 0.40531 0.3779 0.0
H253 H 0.50656 0.47117 0.38596 0.0
C254 C 0.34948 0.2522 0.42267 0.0
N255 N 0.35636 0.29571 0.43341 0.0
N256 N 0.3598 0.32693 0.4147 0.0
C257 C 0.35328 0.30344 0.39146 0.0
C258 C 0.3473 0.25568 0.39575 0.0
C259 C 0.33813 0.20577 0.43798 0.0
H260 H 0.30052 0.19062 0.44761 0.0
H261 H 0.36729 0.21599 0.45344 0.0
H262 H 0.33744 0.17581 0.42529 0.0
O263 O 0.28598 0.3197 0.46917 0.0
O264 O 0.29595 0.37447 0.43758 0.0
H265 H 0.32563 0.34444 0.36904 0.0
H266 H 0.3256 0.29268 0.35161 0.0
C267 C 0.34651 0.32358 0.36598 0.0
H268 H 0.38435 0.35005 0.35757 0.0
H269 H 0.32173 0.44368 0.38811 0.0
O270 O 0.33358 0.25229 0.49071 0.0
C271 C 0.27028 0.3454 0.45646 0.0
Co272 Co 0.69046 0.03616 0.46791 0.0
Co273 Co 0.61177 0.97461 0.42358 0.0
C274 C 0.58272 0.00973 0.4729 0.0
O275 O 0.62798 0.03267 0.48167 0.0
O276 O 0.57237 0.98675 0.45103 0.0
C277 C 0.74464 0.10037 0.51215 0.0
O278 O 0.69928 0.08785 0.52111 0.0
C279 C 0.55323 0.98054 0.38043 0.0
C280 C 0.52255 0.90646 0.36061 0.0
C281 C 0.52408 0.95282 0.35926 0.0
N282 N 0.56901 0.95243 0.39338 0.0
N283 N 0.55042 0.90804 0.38151 0.0
C284 C 0.56415 0.03211 0.38912 0.0
H285 H 0.57504 0.03827 0.41002 0.0
H286 H 0.59637 0.06168 0.37765 0.0
H287 H 0.53046 0.03664 0.38581 0.0
C288 C 0.74925 0.09765 0.42259 0.0
N289 N 0.70558 0.06098 0.43326 0.0
N290 N 0.67436 0.03334 0.41451 0.0
C291 C 0.69799 0.05043 0.3913 0.0
C292 C 0.74584 0.09215 0.39566 0.0
C293 C 0.79569 0.13267 0.43796 0.0
H294 H 0.81073 0.11022 0.44765 0.0
H295 H 0.78538 0.15158 0.45338 0.0
H296 H 0.82581 0.1619 0.4253 0.0
O297 O 0.68095 0.96654 0.46901 0.0
O298 O 0.62615 0.92191 0.43735 0.0
H299 H 0.65673 0.98203 0.36876 0.0
H300 H 0.70893 0.03367 0.35146 0.0
C301 C 0.67788 0.02374 0.36576 0.0
H302 H 0.65162 0.03535 0.35733 0.0
H303 H 0.55685 0.87894 0.38761 0.0
O304 O 0.74858 0.08152 0.49069 0.0
C305 C 0.65512 0.9252 0.45628 0.0
Co306 Co 0.36975 0.01349 0.21048 0.0
Co307 Co 0.30817 0.03076 0.25474 0.0
C308 C 0.3431 0.09446 0.20526 0.0
O309 O 0.36611 0.07219 0.19653 0.0
O310 O 0.32018 0.08198 0.22716 0.0
C311 C 0.43347 0.02246 0.16611 0.0
O312 O 0.42059 0.05476 0.15684 0.0
C313 C 0.31388 0.09518 0.29783 0.0
C314 C 0.23973 0.05147 0.31771 0.0
C315 C 0.28606 0.09642 0.31903 0.0
N316 N 0.28585 0.05129 0.2849 0.0
N317 N 0.24142 0.0253 0.2968 0.0
C318 C 0.36547 0.13598 0.28912 0.0
H319 H 0.39518 0.13337 0.30049 0.0
H320 H 0.36994 0.17408 0.29253 0.0
H321 H 0.37154 0.13141 0.26819 0.0
C322 C 0.43143 0.01657 0.25579 0.0
N323 N 0.39476 0.02357 0.2451 0.0
N324 N 0.36709 0.02719 0.26384 0.0
C325 C 0.38416 0.02067 0.28706 0.0
C326 C 0.4259 0.0145 0.28272 0.0
C327 C 0.46637 0.00498 0.24044 0.0
H328 H 0.44376 0.96741 0.23086 0.0
H329 H 0.48527 0.03399 0.22493 0.0
H330 H 0.4957 0.00421 0.25308 0.0
O331 O 0.3001 0.95326 0.20955 0.0
O332 O 0.25543 0.96355 0.24116 0.0
H333 H 0.31559 0.99332 0.3096 0.0
H334 H 0.36748 0.9933 0.32697 0.0
C335 C 0.35739 0.01411 0.31259 0.0
H336 H 0.36881 0.05196 0.32094 0.0
H337 H 0.21239 0.98971 0.29073 0.0
O338 O 0.41504 0.00046 0.18779 0.0
C339 C 0.25873 0.93775 0.22232 0.0
Co340 Co 0.98682 0.3568 0.20988 0.0
Co341 Co 0.96988 0.27833 0.25425 0.0
C342 C 0.9057 0.24917 0.2049 0.0
O343 O 0.92791 0.29435 0.1961 0.0
O344 O 0.91837 0.23892 0.22679 0.0
C345 C 0.97699 0.41131 0.16566 0.0
O346 O 0.94376 0.3662 0.15669 0.0
C347 C 0.90579 0.21965 0.29751 0.0
C348 C 0.95006 0.1898 0.31729 0.0
C349 C 0.9049 0.19084 0.31872 0.0
N350 N 0.94968 0.2357 0.28447 0.0
N351 N 0.97601 0.2176 0.29631 0.0
C352 C 0.86466 0.23004 0.28889 0.0
H353 H 0.86904 0.24061 0.26795 0.0
H354 H 0.86716 0.26226 0.30027 0.0
H355 H 0.82661 0.19629 0.29237 0.0
C356 C 0.98409 0.41556 0.25521 0.0
N357 N 0.97703 0.37192 0.24454 0.0
N358 N 0.97348 0.34075 0.2633 0.0
C359 C 0.98007 0.36437 0.2865 0.0
C360 C 0.98624 0.41219 0.28214 0.0
C361 C 0.99559 0.46195 0.23982 0.0
H362 H 0.03315 0.47689 0.23016 0.0
H363 H 0.96641 0.45174 0.22437 0.0
H364 H 0.99646 0.49204 0.25247 0.0
O365 O 0.04713 0.34743 0.20882 0.0
O366 O 0.0371 0.29283 0.24051 0.0
H367 H 0.00765 0.32345 0.30904 0.0
H368 H 0.00758 0.37524 0.32639 0.0
C369 C 0.98675 0.34431 0.31204 0.0
H370 H 0.94887 0.31784 0.32041 0.0
H371 H 0.01166 0.22436 0.29015 0.0
O372 O 0.99974 0.4149 0.1871 0.0
C373 C 0.06276 0.32173 0.22158 0.0
Co374 Co 0.64349 0.63093 0.21059 0.0
Co375 Co 0.72218 0.69274 0.25486 0.0
C376 C 0.75113 0.65705 0.20571 0.0
O377 O 0.70588 0.63412 0.19692 0.0
O378 O 0.76149 0.68024 0.22751 0.0
C379 C 0.58914 0.5667 0.16639 0.0
O380 O 0.63447 0.57934 0.15733 0.0
C381 C 0.78065 0.68702 0.29809 0.0
C382 C 0.81165 0.76134 0.3177 0.0
C383 C 0.80994 0.71491 0.31919 0.0
N384 N 0.76496 0.71511 0.28505 0.0
N385 N 0.78373 0.75963 0.2968 0.0
C386 C 0.76955 0.63531 0.28955 0.0
H387 H 0.73745 0.60592 0.30115 0.0
H388 H 0.80324 0.63077 0.29281 0.0
H389 H 0.75843 0.6289 0.26868 0.0
C390 C 0.58464 0.56985 0.25599 0.0
N391 N 0.62834 0.60639 0.24528 0.0
N392 N 0.65955 0.63417 0.26401 0.0
C393 C 0.63587 0.61732 0.28722 0.0
C394 C 0.588 0.57559 0.2829 0.0
C395 C 0.53822 0.53472 0.24063 0.0
H396 H 0.52318 0.55711 0.23087 0.0
H397 H 0.54854 0.5157 0.22527 0.0
H398 H 0.50808 0.50558 0.25331 0.0
O399 O 0.65313 0.70058 0.20933 0.0
O400 O 0.70792 0.7454 0.24095 0.0
H401 H 0.67723 0.68587 0.30964 0.0
H402 H 0.625 0.6344 0.32702 0.0
C403 C 0.65602 0.64417 0.31272 0.0
H404 H 0.68225 0.63257 0.32121 0.0
H405 H 0.77742 0.78876 0.29059 0.0
O406 O 0.58529 0.58549 0.18788 0.0
C407 C 0.67898 0.742 0.22198 0.0
Co408 Co 0.63043 0.98702 0.80114 0.0
Co409 Co 0.69242 0.97039 0.75685 0.0
C410 C 0.65711 0.90605 0.80611 0.0
O411 O 0.63401 0.92817 0.81489 0.0
O412 O 0.68023 0.91885 0.78427 0.0
C413 C 0.5658 0.97685 0.84528 0.0
O414 O 0.5781 0.94392 0.85425 0.0
C415 C 0.68685 0.9063 0.71366 0.0
C416 C 0.7612 0.94988 0.69396 0.0
C417 C 0.71479 0.90504 0.69253 0.0
N418 N 0.71489 0.95009 0.72666 0.0
N419 N 0.75944 0.97601 0.71487 0.0
C420 C 0.63514 0.86556 0.72225 0.0
H421 H 0.62881 0.87018 0.74314 0.0
H422 H 0.60558 0.86815 0.71073 0.0
H423 H 0.63068 0.82744 0.71894 0.0
C424 C 0.56904 0.98437 0.75577 0.0
N425 N 0.6057 0.97737 0.76647 0.0
N426 N 0.63355 0.97402 0.74774 0.0
C427 C 0.61661 0.98072 0.72452 0.0
C428 C 0.57477 0.98673 0.72885 0.0
C429 C 0.53387 0.99563 0.77113 0.0
H430 H 0.51489 0.9664 0.78653 0.0
H431 H 0.50462 0.99648 0.75846 0.0
H432 H 0.55631 0.03308 0.78084 0.0
O433 O 0.70008 0.04726 0.80229 0.0
O434 O 0.74503 0.03746 0.77066 0.0
H435 H 0.68534 0.00826 0.7021 0.0
H436 H 0.63362 0.0086 0.68471 0.0
C437 C 0.64356 0.98756 0.69902 0.0
H438 H 0.63213 0.94982 0.69055 0.0
H439 H 0.78852 0.0115 0.72103 0.0
O440 O 0.5849 0.99967 0.82386 0.0
C441 C 0.74155 0.06298 0.78959 0.0
Co442 Co 0.01317 0.64371 0.80126 0.0
Co443 Co 0.03059 0.72238 0.75694 0.0
C444 C 0.09398 0.75145 0.80654 0.0
O445 O 0.07169 0.70622 0.81526 0.0
O446 O 0.08167 0.76179 0.78457 0.0
C447 C 0.0231 0.58925 0.84542 0.0
O448 O 0.05625 0.63441 0.85438 0.0
C449 C 0.09501 0.78127 0.71384 0.0
C450 C 0.05064 0.81075 0.69381 0.0
C451 C 0.09592 0.80992 0.69255 0.0
N452 N 0.05098 0.76509 0.72676 0.0
N453 N 0.0246 0.78298 0.71477 0.0
C454 C 0.13618 0.77107 0.72261 0.0
H455 H 0.13182 0.76084 0.7436 0.0
H456 H 0.13369 0.73868 0.71141 0.0
H457 H 0.17422 0.80478 0.71904 0.0
C458 C 0.01658 0.58526 0.75601 0.0
N459 N 0.02358 0.62888 0.76667 0.0
N460 N 0.02731 0.66011 0.74791 0.0
C461 C 0.0209 0.63655 0.7247 0.0
C462 C 0.01466 0.58871 0.72907 0.0
C463 C 0.00477 0.53877 0.77138 0.0
H464 H 0.96713 0.5239 0.78094 0.0
H465 H 0.03379 0.54883 0.78691 0.0
H466 H 0.00392 0.50867 0.75876 0.0
O467 O 0.95264 0.65271 0.80203 0.0
O468 O 0.96312 0.70758 0.7704 0.0
H469 H 0.99323 0.67731 0.7021 0.0
H470 H 0.9938 0.62578 0.68473 0.0
C471 C 0.01435 0.65666 0.69915 0.0
H472 H 0.05227 0.68333 0.69088 0.0
H473 H 0.98883 0.77606 0.72081 0.0
O474 O 0.00026 0.58559 0.82401 0.0
C475 C 0.93714 0.67843 0.78919 0.0
Co476 Co 0.3565 0.36919 0.80145 0.0
Co477 Co 0.27791 0.30771 0.75707 0.0
C478 C 0.24873 0.34271 0.80638 0.0
O479 O 0.29398 0.36562 0.81517 0.0
O480 O 0.23841 0.31978 0.7845 0.0
C481 C 0.41073 0.43406 0.84551 0.0
O482 O 0.36546 0.42254 0.85417 0.0
C483 C 0.21937 0.31353 0.71388 0.0
C484 C 0.1888 0.23944 0.69408 0.0
C485 C 0.19025 0.28575 0.69271 0.0
N486 N 0.23521 0.2855 0.72684 0.0
N487 N 0.21669 0.2411 0.71499 0.0
C488 C 0.23019 0.36508 0.72255 0.0
H489 H 0.2411 0.37128 0.74345 0.0
H490 H 0.26236 0.39467 0.71107 0.0
H491 H 0.19644 0.36952 0.71925 0.0
C492 C 0.41543 0.43071 0.75616 0.0
N493 N 0.37171 0.39408 0.76681 0.0
N494 N 0.34052 0.36647 0.74804 0.0
C495 C 0.36423 0.38356 0.72485 0.0
C496 C 0.4121 0.42524 0.72924 0.0
C497 C 0.46184 0.46566 0.77158 0.0
H498 H 0.47679 0.44314 0.78129 0.0
H499 H 0.45154 0.48459 0.78699 0.0
H500 H 0.49204 0.49486 0.75895 0.0
O501 O 0.34702 0.2996 0.80251 0.0
O502 O 0.29228 0.25501 0.77083 0.0
H503 H 0.32306 0.31519 0.70227 0.0
H504 H 0.3752 0.36692 0.68498 0.0
C505 C 0.34416 0.35692 0.6993 0.0
H506 H 0.31783 0.36847 0.69088 0.0
H507 H 0.22317 0.21204 0.72111 0.0
O508 O 0.41456 0.41444 0.82429 0.0
C509 C 0.32122 0.25828 0.78977 0.0
Co510 Co 0.03601 0.34643 0.54388 0.0
Co511 Co 0.97415 0.3634 0.58808 0.0
C512 C 0.0094 0.42737 0.53867 0.0
O513 O 0.03252 0.4052 0.52998 0.0
O514 O 0.98628 0.41473 0.56052 0.0
C515 C 0.09982 0.35561 0.49956 0.0
O516 O 0.08689 0.38789 0.49031 0.0
C517 C 0.9801 0.42781 0.6312 0.0
C518 C 0.90595 0.38436 0.65109 0.0
C519 C 0.9524 0.42917 0.65242 0.0
N520 N 0.95189 0.38398 0.61825 0.0
N521 N 0.90746 0.35815 0.63016 0.0
C522 C 0.03177 0.46844 0.62249 0.0
H523 H 0.03778 0.46389 0.60154 0.0
H524 H 0.06139 0.4656 0.63382 0.0
H525 H 0.03648 0.50662 0.62595 0.0
C526 C 0.0975 0.34932 0.58923 0.0
N527 N 0.06083 0.3563 0.57852 0.0
N528 N 0.03301 0.35974 0.59723 0.0
C529 C 0.04998 0.35311 0.62046 0.0
C530 C 0.09181 0.34707 0.61615 0.0
C531 C 0.13261 0.33795 0.57389 0.0
H532 H 0.11013 0.30042 0.56426 0.0
H533 H 0.15151 0.36706 0.55842 0.0
H534 H 0.16193 0.33722 0.58655 0.0
O535 O 0.96636 0.28628 0.54281 0.0
O536 O 0.92142 0.29623 0.5744 0.0
H537 H 0.98129 0.32575 0.6429 0.0
H538 H 0.03298 0.32536 0.66029 0.0
C539 C 0.02307 0.34639 0.64596 0.0
H540 H 0.03458 0.38418 0.65441 0.0
H541 H 0.8783 0.32263 0.62408 0.0
O542 O 0.08137 0.33351 0.52121 0.0
C543 C 0.92489 0.27063 0.5555 0.0
Co544 Co 0.65393 0.69008 0.54376 0.0
Co545 Co 0.63696 0.61153 0.5881 0.0
C546 C 0.57274 0.58251 0.53877 0.0
O547 O 0.59499 0.6277 0.52999 0.0
O548 O 0.5854 0.57219 0.56065 0.0
C549 C 0.64398 0.74452 0.49958 0.0
O550 O 0.61096 0.69935 0.49059 0.0
C551 C 0.57273 0.55293 0.63133 0.0
C552 C 0.61668 0.52267 0.65108 0.0
C553 C 0.57163 0.52394 0.65251 0.0
N554 N 0.61663 0.56886 0.61832 0.0
N555 N 0.64276 0.55053 0.63014 0.0
C556 C 0.53177 0.56357 0.62272 0.0
H557 H 0.53631 0.57435 0.60181 0.0
H558 H 0.53428 0.5957 0.63417 0.0
H559 H 0.49364 0.52985 0.6261 0.0
C560 C 0.65123 0.74878 0.58908 0.0
N561 N 0.64418 0.70515 0.57841 0.0
N562 N 0.64068 0.67399 0.59717 0.0
C563 C 0.64734 0.69764 0.62037 0.0
C564 C 0.65349 0.74545 0.616 0.0
C565 C 0.66266 0.79515 0.57369 0.0
H566 H 0.70019 0.81008 0.56399 0.0
H567 H 0.63342 0.78491 0.55827 0.0
H568 H 0.66358 0.82527 0.58632 0.0
O569 O 0.7142 0.68065 0.54266 0.0
O570 O 0.70415 0.62595 0.57432 0.0
H571 H 0.6748 0.65661 0.6429 0.0
H572 H 0.67485 0.70846 0.66025 0.0
C573 C 0.65397 0.67754 0.6459 0.0
H574 H 0.61608 0.65113 0.65428 0.0
H575 H 0.67837 0.55713 0.62399 0.0
O576 O 0.66676 0.74821 0.52102 0.0
C577 C 0.72981 0.65489 0.55539 0.0
Co578 Co 0.31028 0.96427 0.54339 0.0
Co579 Co 0.38901 0.02584 0.58771 0.0
C580 C 0.4181 0.99092 0.53834 0.0
O581 O 0.37283 0.96796 0.52958 0.0
O582 O 0.42845 0.01383 0.56023 0.0
C583 C 0.25593 0.89948 0.49933 0.0
O584 O 0.30123 0.9115 0.49048 0.0
C585 C 0.44767 0.02021 0.63089 0.0
C586 C 0.47789 0.09422 0.65074 0.0
C587 C 0.47661 0.04799 0.65211 0.0
N588 N 0.43176 0.04817 0.61791 0.0
N589 N 0.45008 0.09252 0.62979 0.0
C590 C 0.43702 0.96872 0.62222 0.0
H591 H 0.42639 0.96261 0.60128 0.0
H592 H 0.40471 0.93906 0.6336 0.0
H593 H 0.47075 0.96431 0.62565 0.0
C594 C 0.25164 0.9027 0.58871 0.0
N595 N 0.29528 0.93938 0.57803 0.0
N596 N 0.32652 0.96702 0.59677 0.0
C597 C 0.30292 0.94991 0.61999 0.0
C598 C 0.25508 0.90818 0.61563 0.0
C599 C 0.20516 0.8677 0.57335 0.0
H600 H 0.1901 0.89017 0.56369 0.0
H601 H 0.21543 0.8488 0.55791 0.0
H602 H 0.17507 0.83847 0.58602 0.0
O603 O 0.31959 0.03381 0.54235 0.0
O604 O 0.37443 0.07841 0.574 0.0
H605 H 0.34399 0.01837 0.64251 0.0
H606 H 0.29191 0.96664 0.65983 0.0
C607 C 0.32297 0.97665 0.64552 0.0
H608 H 0.34934 0.96519 0.65396 0.0
H609 H 0.44347 0.1215 0.62367 0.0
O610 O 0.25211 0.91884 0.52064 0.0
C611 C 0.3454 0.07512 0.5551 0.0
C612 C 0.40114 0.18369 0.99719 0.0
C613 C 0.36655 0.19845 0.00593 0.0
H614 H 0.41314 0.13344 0.9725 0.0
C615 C 0.31732 0.17492 0.99515 0.0
H616 H 0.43943 0.2015 1.00501 0.0
C617 C 0.30251 0.13637 0.97655 0.0
C618 C 0.33662 0.12066 0.96851 0.0
H619 H 0.29042 0.18672 1.0008 0.0
H620 H 0.26435 0.11854 0.96856 0.0
C621 C 0.38617 0.14483 0.97873 0.0
C622 C 0.82549 0.14232 0.99494 0.0
C623 C 0.8017 0.16772 1.00572 0.0
H624 H 0.88211 0.14613 0.96833 0.0
C625 C 0.81625 0.21696 0.99699 0.0
H626 H 0.81386 0.10372 1.00059 0.0
C627 C 0.85516 0.24102 0.97853 0.0
C628 C 0.87957 0.21593 0.96829 0.0
H629 H 0.79823 0.23719 1.00482 0.0
H630 H 0.86639 0.27928 0.97231 0.0
C631 C 0.86409 0.16624 0.97633 0.0
C632 C 0.78999 0.60065 0.9929 0.0
C633 C 0.83477 0.63739 1.00527 0.0
H634 H 0.73122 0.58626 0.96507 0.0
C635 C 0.85618 0.68857 0.99768 0.0
H636 H 0.77291 0.56089 0.99811 0.0
C637 C 0.83226 0.70291 0.97892 0.0
C638 C 0.78695 0.66628 0.96721 0.0
H639 H 0.8918 0.71758 0.00586 0.0
H640 H 0.84908 0.74258 0.97356 0.0
C641 C 0.76615 0.61503 0.97409 0.0
C642 C 0.69991 0.86581 0.03447 0.0
C643 C 0.66512 0.88028 0.04299 0.0
H644 H 0.71283 0.81647 0.00984 0.0
C645 C 0.61528 0.85507 0.03316 0.0
H646 H 0.73835 0.88448 0.04212 0.0
C647 C 0.60061 0.81633 0.01467 0.0
C648 C 0.6358 0.80271 1.00547 0.0
H649 H 0.58781 0.86555 0.03975 0.0
H650 H 0.56204 0.79766 0.00719 0.0
C651 C 0.68541 0.82735 0.01582 0.0
C652 C 0.17551 0.85983 0.01742 0.0
C653 C 0.19855 0.83381 0.00649 0.0
H654 H 0.11961 0.85691 0.04427 0.0
C655 C 0.18347 0.78446 0.01521 0.0
H656 H 0.18755 0.89851 0.01175 0.0
C657 C 0.14474 0.76086 0.0338 0.0
C658 C 0.12107 0.78655 0.0442 0.0
H659 H 0.20088 0.76374 0.00725 0.0
H660 H 0.133 0.72244 0.03997 0.0
C661 C 0.13711 0.83637 0.03618 0.0
C662 C 0.24151 0.3856 0.03275 0.0
C663 C 0.21638 0.33613 0.04296 0.0
H664 H 0.2377 0.43865 0.0065 0.0
C665 C 0.16664 0.30189 0.03488 0.0
H666 H 0.27982 0.41266 0.03901 0.0
C667 C 0.14269 0.31652 0.01626 0.0
C668 C 0.16813 0.36571 1.00553 0.0
H669 H 0.14648 0.26378 0.04285 0.0
H670 H 0.10404 0.28954 0.0106 0.0
C671 C 0.21743 0.4004 0.01429 0.0
C672 C 0.98271 0.50733 0.32832 0.0
C673 C 0.03213 0.53121 0.33889 0.0
H674 H 0.92964 0.45083 0.30181 0.0
C675 C 0.06693 0.51697 0.32982 0.0
H676 H 0.95562 0.51872 0.33422 0.0
C677 C 0.05201 0.4783 0.31125 0.0
C678 C 0.0023 0.45379 0.30124 0.0
H679 H 0.10536 0.53506 0.33746 0.0
H680 H 0.07914 0.46728 0.30479 0.0
C681 C 0.96795 0.46895 0.30961 0.0
C682 C 0.53097 0.50027 0.31009 0.0
C683 C 0.54639 0.54992 0.30201 0.0
H684 H 0.48084 0.43781 0.33441 0.0
C685 C 0.52197 0.57501 0.31224 0.0
H686 H 0.549 0.48015 0.3021 0.0
C687 C 0.48313 0.55099 0.33074 0.0
C688 C 0.46864 0.5018 0.33951 0.0
H689 H 0.53316 0.61325 0.30598 0.0
H690 H 0.4651 0.57123 0.33855 0.0
C691 C 0.49243 0.47638 0.32873 0.0
C692 C 0.45014 0.93391 0.3304 0.0
C693 C 0.49945 0.96844 0.33921 0.0
H694 H 0.38788 0.92197 0.30567 0.0
C695 C 0.52505 0.01767 0.32853 0.0
H696 H 0.42975 0.89562 0.33814 0.0
C697 C 0.50125 0.03251 0.30993 0.0
C698 C 0.45149 0.99843 0.30181 0.0
H699 H 0.56372 0.04454 0.33423 0.0
H700 H 0.52152 0.07066 0.30201 0.0
C701 C 0.4262 0.94891 0.31196 0.0
C702 C 0.28169 0.18969 0.36654 0.0
C703 C 0.33134 0.21417 0.37662 0.0
H704 H 0.22841 0.13282 0.34035 0.0
C705 C 0.36568 0.1989 0.36838 0.0
H706 H 0.25456 0.20076 0.37292 0.0
C707 C 0.35096 0.16042 0.34974 0.0
C708 C 0.30159 0.13654 0.33912 0.0
H709 H 0.40394 0.21698 0.37625 0.0
H710 H 0.37803 0.14893 0.34395 0.0
C711 C 0.26681 0.15091 0.34804 0.0
C712 C 0.85087 0.11715 0.34785 0.0
C713 C 0.86489 0.16612 0.33889 0.0
H714 H 0.80133 0.05502 0.37281 0.0
C715 C 0.84076 0.1913 0.34955 0.0
H716 H 0.86916 0.09709 0.34013 0.0
C717 C 0.80235 0.16738 0.36827 0.0
C718 C 0.78742 0.11795 0.37653 0.0
H719 H 0.85198 0.22971 0.34374 0.0
H720 H 0.78405 0.18731 0.37616 0.0
C721 C 0.81217 0.09311 0.36642 0.0
C722 C 0.90807 0.71881 0.36629 0.0
C723 C 0.88266 0.66943 0.3766 0.0
H724 H 0.90458 0.77197 0.33999 0.0
C725 C 0.83271 0.63549 0.36869 0.0
H726 H 0.94653 0.74566 0.37244 0.0
C727 C 0.80886 0.6503 0.35011 0.0
C728 C 0.8346 0.69938 0.33926 0.0
H729 H 0.81234 0.59745 0.37674 0.0
H730 H 0.77007 0.62354 0.34456 0.0
C731 C 0.88409 0.7338 0.34787 0.0
C732 C 0.63533 0.80273 0.64308 0.0
C733 C 0.66949 0.78708 0.63507 0.0
H734 H 0.62314 0.85307 0.66729 0.0
C735 C 0.71903 0.8113 0.64531 0.0
H736 H 0.59717 0.78486 0.63508 0.0
C737 C 0.73394 0.85019 0.66374 0.0
C738 C 0.69931 0.86492 0.67245 0.0
H739 H 0.74604 0.79995 0.6391 0.0
H740 H 0.77223 0.86806 0.67157 0.0
C741 C 0.65007 0.84131 0.66167 0.0
C742 C 0.18856 0.90729 0.64469 0.0
C743 C 0.21349 0.88249 0.63475 0.0
H744 H 0.13141 0.90338 0.67083 0.0
C745 C 0.19872 0.8332 0.6432 0.0
H746 H 0.19928 0.94527 0.63816 0.0
C747 C 0.16029 0.80939 0.66191 0.0
C748 C 0.13598 0.83454 0.67239 0.0
H749 H 0.21718 0.81331 0.63546 0.0
H750 H 0.1492 0.77108 0.66786 0.0
C751 C 0.14984 0.88336 0.66325 0.0
C752 C 0.1672 0.36524 0.64336 0.0
C753 C 0.11745 0.33109 0.63525 0.0
H754 H 0.22973 0.37742 0.66764 0.0
C755 C 0.09224 0.28158 0.64542 0.0
H756 H 0.18742 0.40338 0.63542 0.0
C757 C 0.11624 0.26667 0.66386 0.0
C758 C 0.16555 0.30128 0.67265 0.0
H759 H 0.05393 0.25459 0.63914 0.0
H760 H 0.09591 0.2284 0.67162 0.0
C761 C 0.19107 0.35049 0.66195 0.0
C762 C 0.93359 0.48392 0.68148 0.0
C763 C 0.96816 0.46929 0.67253 0.0
H764 H 0.92177 0.53406 0.70635 0.0
C765 C 0.01756 0.49295 0.68312 0.0
H766 H 0.89519 0.46601 0.67382 0.0
C767 C 0.03253 0.5315 0.70174 0.0
C768 C 0.99842 0.54705 0.71 0.0
H769 H 0.04446 0.48127 0.67731 0.0
H770 H 0.07082 0.54943 0.70958 0.0
C771 C 0.94873 0.52276 0.69996 0.0
C772 C 0.46899 0.50058 0.70199 0.0
C773 C 0.45377 0.45101 0.71015 0.0
H774 H 0.51896 0.563 0.6776 0.0
C775 C 0.47835 0.42605 0.69998 0.0
H776 H 0.45082 0.5206 0.70992 0.0
C777 C 0.51718 0.45009 0.68148 0.0
C778 C 0.5315 0.4992 0.67262 0.0
H779 H 0.46731 0.38787 0.70629 0.0
H780 H 0.53534 0.42994 0.67371 0.0
C781 C 0.50752 0.5245 0.68333 0.0
C782 C 0.4995 0.9685 0.70153 0.0
C783 C 0.54914 0.00273 0.70975 0.0
H784 H 0.43713 0.95624 0.67709 0.0
C785 C 0.57431 0.05229 0.69966 0.0
H786 H 0.47932 0.93032 0.70941 0.0
C787 C 0.55038 0.06718 0.68115 0.0
C788 C 0.50121 0.03249 0.67223 0.0
H789 H 0.61254 0.07934 0.70602 0.0
H790 H 0.57069 0.10549 0.67344 0.0
C791 C 0.4757 0.98323 0.68288 0.0
C792 C 0.50261 0.45941 0.12093 0.0
C793 C 0.45451 0.44367 0.13195 0.0
H794 H 0.58298 0.51087 0.12307 0.0
C795 C 0.4509 0.4715 0.15298 0.0
H796 H 0.50677 0.43895 0.10467 0.0
C797 C 0.49448 0.51255 0.16351 0.0
C798 C 0.54278 0.5269 0.15327 0.0
H799 H 0.41449 0.46075 0.16188 0.0
H800 H 0.49031 0.53215 0.18017 0.0
C801 C 0.54632 0.50064 0.13149 0.0
C802 C 0.52858 0.97924 0.15289 0.0
C803 C 0.55627 0.01022 0.13169 0.0
H804 H 0.46812 0.95856 0.18022 0.0
C805 C 0.54039 0.04227 0.12049 0.0
H806 H 0.53943 0.95382 0.16193 0.0
C807 C 0.49921 0.04493 0.13104 0.0
C808 C 0.47314 0.01564 0.15301 0.0
H809 H 0.56073 0.06652 0.1041 0.0
H810 H 0.4889 0.07113 0.12248 0.0
C811 C 0.48758 0.98194 0.16342 0.0
C812 C 0.95414 0.45476 0.13089 0.0
C813 C 0.98412 0.45783 0.15253 0.0
H814 H 0.93228 0.49493 0.10431 0.0
C815 C 0.01884 0.5059 0.16264 0.0
H816 H 0.92715 0.41829 0.12257 0.0
C817 C 0.02185 0.5497 0.15218 0.0
C818 C 0.99015 0.54658 0.13136 0.0
H819 H 0.0428 0.50971 0.17916 0.0
H820 H 0.04806 0.58593 0.16101 0.0
C821 C 0.95711 0.49871 0.1204 0.0
C822 C 0.50545 0.48686 0.84877 0.0
C823 C 0.45718 0.47363 0.85866 0.0
H824 H 0.58561 0.53768 0.85058 0.0
C825 C 0.45384 0.50081 0.88008 0.0
H826 H 0.50946 0.46652 0.83241 0.0
C827 C 0.49776 0.54191 0.89057 0.0
C828 C 0.54585 0.5566 0.87984 0.0
H829 H 0.41721 0.49143 0.88822 0.0
H830 H 0.4938 0.56315 0.90649 0.0
C831 C 0.54921 0.52778 0.85923 0.0
C832 C 0.51199 0.01767 0.84819 0.0
C833 C 0.52606 0.98355 0.8584 0.0
H834 H 0.46047 0.04618 0.84987 0.0
C835 C 0.49959 0.95376 0.88016 0.0
H836 H 0.53175 0.04143 0.83156 0.0
C837 C 0.45844 0.95644 0.89073 0.0
C838 C 0.44297 0.98898 0.87975 0.0
H839 H 0.50961 0.92721 0.88855 0.0
H840 H 0.43782 0.93185 0.90697 0.0
C841 C 0.471 0.02038 0.85874 0.0
C842 C 0.98198 0.4947 0.84831 0.0
C843 C 0.01626 0.54282 0.85852 0.0
H844 H 0.95332 0.41475 0.84992 0.0
C845 C 0.0461 0.54608 0.88025 0.0
H846 H 0.95816 0.49075 0.8317 0.0
C847 C 0.04337 0.50227 0.89078 0.0
C848 C 0.01071 0.45435 0.87977 0.0
H849 H 0.07277 0.58259 0.88865 0.0
H850 H 0.06804 0.50621 0.90698 0.0
C851 C 0.97921 0.45103 0.85881 0.0
C852 C 0.16123 0.84572 0.49638 0.0
C853 C 0.20952 0.85968 0.48624 0.0
H854 H 0.08118 0.79421 0.49473 0.0
C855 C 0.21297 0.83303 0.46461 0.0
H856 H 0.15712 0.86562 0.51292 0.0
C857 C 0.16918 0.7918 0.45411 0.0
C858 C 0.12109 0.77644 0.46504 0.0
H859 H 0.24961 0.84297 0.45627 0.0
H860 H 0.17327 0.77104 0.43798 0.0
C861 C 0.11758 0.80465 0.48591 0.0
C862 C 0.16587 0.37851 0.46463 0.0
C863 C 0.13963 0.34897 0.48649 0.0
H864 H 0.22765 0.40047 0.43782 0.0
C865 C 0.15405 0.31523 0.49687 0.0
H866 H 0.15558 0.40476 0.4561 0.0
C867 C 0.19518 0.31271 0.4864 0.0
C868 C 0.22303 0.34394 0.4653 0.0
H869 H 0.13445 0.29166 0.51359 0.0
H870 H 0.206 0.28724 0.4954 0.0
C871 C 0.20719 0.37604 0.45413 0.0
C872 C 0.68771 0.88272 0.48618 0.0
C873 C 0.65628 0.87936 0.46517 0.0
H874 H 0.70873 0.84306 0.51334 0.0
C875 C 0.62371 0.83142 0.45416 0.0
H876 H 0.71355 0.919 0.49507 0.0
C877 C 0.62099 0.78764 0.46471 0.0
C878 C 0.65077 0.79093 0.48647 0.0
H879 H 0.59909 0.82746 0.43792 0.0
H880 H 0.59439 0.75111 0.4563 0.0
C881 C 0.68497 0.83907 0.4967 0.0
C882 C 0.12099 0.83409 0.21402 0.0
C883 C 0.12442 0.80721 0.1925 0.0
H884 H 0.16072 0.89633 0.24051 0.0
C885 C 0.17272 0.82093 0.18245 0.0
H886 H 0.08434 0.82435 0.22229 0.0
C887 C 0.21638 0.86204 0.19287 0.0
C888 C 0.21288 0.89053 0.2136 0.0
H889 H 0.17681 0.80084 0.166 0.0
H890 H 0.25279 0.87233 0.18411 0.0
C891 C 0.16479 0.87536 0.22448 0.0
C892 C 0.13792 0.35425 0.19168 0.0
C893 C 0.10994 0.32302 0.21275 0.0
H894 H 0.19874 0.37522 0.16455 0.0
C895 C 0.1256 0.29078 0.22391 0.0
H896 H 0.12724 0.37982 0.18267 0.0
C897 C 0.16689 0.28819 0.21345 0.0
C898 C 0.19328 0.31776 0.19163 0.0
H899 H 0.10504 0.26633 0.24021 0.0
H900 H 0.17705 0.26185 0.22198 0.0
C901 C 0.17903 0.35162 0.18124 0.0
C902 C 0.64646 0.78432 0.19193 0.0
C903 C 0.67778 0.78777 0.21301 0.0
H904 H 0.62541 0.82384 0.16469 0.0
C905 C 0.71015 0.83573 0.22406 0.0
H906 H 0.6208 0.74802 0.183 0.0
C907 C 0.71274 0.87945 0.21349 0.0
C908 C 0.68306 0.87606 0.19167 0.0
H909 H 0.73466 0.83977 0.24036 0.0
H910 H 0.73916 0.91599 0.22194 0.0
C911 C 0.64909 0.8279 0.18139 0.0
C912 C 0.83536 0.12592 0.78738 0.0
C913 C 0.7873 0.11013 0.79847 0.0
H914 H 0.91572 0.17749 0.78941 0.0
C915 C 0.78375 0.13798 0.81951 0.0
H916 H 0.83948 0.10546 0.77112 0.0
C917 C 0.82734 0.17911 0.82998 0.0
C918 C 0.87561 0.19351 0.81967 0.0
H919 H 0.74736 0.1272 0.82845 0.0
H920 H 0.82321 0.19872 0.84664 0.0
C921 C 0.87909 0.16723 0.79788 0.0
C922 C 0.83334 0.7124 0.79727 0.0
C923 C 0.80633 0.68216 0.8188 0.0
H924 H 0.89578 0.73484 0.77085 0.0
C925 C 0.81992 0.64758 0.82887 0.0
H926 H 0.82368 0.73928 0.78897 0.0
C927 C 0.86109 0.645 0.8185 0.0
C928 C 0.88976 0.67696 0.7978 0.0
H929 H 0.7997 0.62344 0.84532 0.0
H930 H 0.8713 0.6189 0.8273 0.0
C931 C 0.87467 0.70983 0.78686 0.0
C932 C 0.2898 0.1645 0.78764 0.0
C933 C 0.32241 0.21245 0.79863 0.0
H934 H 0.26049 0.08419 0.78978 0.0
C935 C 0.35392 0.21582 0.81961 0.0
H936 H 0.26513 0.16052 0.77142 0.0
C937 C 0.3512 0.17218 0.83012 0.0
C938 C 0.31697 0.12404 0.81991 0.0
H939 H 0.37978 0.25211 0.82848 0.0
H940 H 0.37502 0.17618 0.84674 0.0
C941 C 0.28712 0.12072 0.79817 0.0
C942 C 0.83102 0.20784 0.55756 0.0
C943 C 0.87915 0.22347 0.54662 0.0
H944 H 0.75064 0.15644 0.55534 0.0
C945 C 0.88283 0.19548 0.52569 0.0
H946 H 0.82681 0.22842 0.57374 0.0
C947 C 0.83929 0.15439 0.51515 0.0
C948 C 0.79095 0.14017 0.5253 0.0
H949 H 0.91928 0.20612 0.51686 0.0
H950 H 0.84352 0.13468 0.49856 0.0
C951 C 0.78733 0.16658 0.547 0.0
C952 C 0.80496 0.68748 0.52548 0.0
C953 C 0.77694 0.65613 0.54651 0.0
H954 H 0.86572 0.7085 0.49831 0.0
C955 C 0.79251 0.62372 0.55756 0.0
H956 H 0.79436 0.71318 0.51655 0.0
C957 C 0.83371 0.62109 0.54703 0.0
C958 C 0.86013 0.65078 0.52524 0.0
H959 H 0.77191 0.59919 0.57382 0.0
H960 H 0.84379 0.59462 0.55547 0.0
C961 C 0.84599 0.68481 0.51497 0.0
C962 C 0.31275 0.11766 0.52528 0.0
C963 C 0.34411 0.12094 0.54631 0.0
H964 H 0.29171 0.15742 0.4982 0.0
C965 C 0.37652 0.16881 0.55744 0.0
H966 H 0.28705 0.08143 0.5163 0.0
C967 C 0.37914 0.21262 0.54699 0.0
C968 C 0.34944 0.20941 0.5252 0.0
H969 H 0.40107 0.17272 0.5737 0.0
H970 H 0.40561 0.2491 0.55549 0.0
C971 C 0.31541 0.16133 0.51486 0.0
C972 C 0.36107 0.14429 0.1636 0.0
C973 C 0.33951 0.13272 0.18875 0.0
H974 H 0.37259 0.18636 0.12829 0.0
C975 C 0.31196 0.15592 0.19737 0.0
H976 H 0.38226 0.12693 0.15623 0.0
C977 C 0.30609 0.18979 0.18124 0.0
C978 C 0.32768 0.20139 0.15609 0.0
H979 H 0.29458 0.14774 0.21655 0.0
H980 H 0.28491 0.20716 0.18862 0.0
C981 C 0.35521 0.17817 0.14748 0.0
C982 C 0.82189 0.17707 0.14721 0.0
C983 C 0.79877 0.12644 0.1559 0.0
H984 H 0.87305 0.25539 0.15585 0.0
C985 C 0.81039 0.11669 0.18108 0.0
H986 H 0.81367 0.18608 0.12799 0.0
C987 C 0.84423 0.15655 0.19716 0.0
C988 C 0.86737 0.20718 0.18847 0.0
H989 H 0.79309 0.07824 0.18852 0.0
H990 H 0.85246 0.14754 0.21638 0.0
C991 C 0.85574 0.21693 0.16329 0.0
C992 C 0.88365 0.69329 0.18205 0.0
C993 C 0.87382 0.67202 0.15685 0.0
H994 H 0.85284 0.7047 0.21732 0.0
C995 C 0.8231 0.64474 0.14813 0.0
H996 H 0.92217 0.71426 0.1895 0.0
C997 C 0.78324 0.63894 0.16418 0.0
C998 C 0.79308 0.66033 0.18936 0.0
H999 H 0.81405 0.6276 0.12889 0.0
H1000 H 0.74473 0.61802 0.15672 0.0
C1001 C 0.84378 0.6875 0.1981 0.0
C1002 C 0.69366 0.81015 0.82971 0.0
C1003 C 0.67244 0.7987 0.85494 0.0
H1004 H 0.70491 0.85224 0.79444 0.0
C1005 C 0.64523 0.82214 0.86373 0.0
H1006 H 0.71458 0.79261 0.8222 0.0
C1007 C 0.63937 0.85612 0.8477 0.0
C1008 C 0.66062 0.8676 0.82249 0.0
H1009 H 0.62814 0.81406 0.88299 0.0
H1010 H 0.61846 0.87368 0.85522 0.0
C1011 C 0.68781 0.84415 0.81369 0.0
C1012 C 0.14339 0.78345 0.84833 0.0
C1013 C 0.13204 0.79334 0.82311 0.0
H1014 H 0.1852 0.8141 0.88372 0.0
C1015 C 0.15527 0.84402 0.81449 0.0
H1016 H 0.12599 0.74495 0.85571 0.0
C1017 C 0.18899 0.88378 0.83065 0.0
C1018 C 0.20042 0.87388 0.85585 0.0
H1019 H 0.14724 0.85314 0.79525 0.0
H1020 H 0.20641 0.92227 0.82325 0.0
C1021 C 0.17713 0.82321 0.86449 0.0
C1022 C 0.11619 0.30598 0.83025 0.0
C1023 C 0.1261 0.32741 0.85541 0.0
H1024 H 0.14691 0.29455 0.79495 0.0
C1025 C 0.17685 0.35478 0.86408 0.0
H1026 H 0.07764 0.28493 0.82284 0.0
C1027 C 0.21667 0.36062 0.84798 0.0
C1028 C 0.20677 0.33919 0.82282 0.0
H1029 H 0.18597 0.37205 0.88328 0.0
H1030 H 0.25521 0.38167 0.8554 0.0
C1031 C 0.15602 0.31181 0.81415 0.0
C1032 C 0.97243 0.52268 0.51459 0.0
C1033 C 0.99405 0.53425 0.48945 0.0
H1034 H 0.96087 0.48066 0.54992 0.0
C1035 C 0.02161 0.51105 0.48087 0.0
H1036 H 0.95122 0.54004 0.52194 0.0
C1037 C 0.02746 0.4772 0.49702 0.0
C1038 C 0.00585 0.46564 0.52217 0.0
H1039 H 0.03903 0.51923 0.46169 0.0
H1040 H 0.04867 0.45985 0.48968 0.0
C1041 C 0.97828 0.48884 0.53074 0.0
C1042 C 0.51113 0.48994 0.531 0.0
C1043 C 0.53434 0.5406 0.52234 0.0
H1044 H 0.45986 0.41168 0.5223 0.0
C1045 C 0.52273 0.55046 0.49718 0.0
H1046 H 0.51934 0.48086 0.55019 0.0
C1047 C 0.48883 0.51068 0.48108 0.0
C1048 C 0.46563 0.46002 0.48973 0.0
H1049 H 0.5401 0.58894 0.48977 0.0
H1050 H 0.48063 0.51977 0.46187 0.0
C1051 C 0.47723 0.45016 0.51489 0.0
C1052 C 0.55065 0.02769 0.51449 0.0
C1053 C 0.54076 0.00624 0.48932 0.0
H1054 H 0.51991 0.03912 0.54977 0.0
C1055 C 0.49002 0.97887 0.48065 0.0
H1056 H 0.58919 0.04875 0.5219 0.0
C1057 C 0.45018 0.97304 0.49673 0.0
C1058 C 0.46007 0.99447 0.5219 0.0
H1059 H 0.48092 0.9616 0.46145 0.0
H1060 H 0.41164 0.95198 0.48932 0.0
C1061 C 0.51081 0.02186 0.53057 0.0
loop_
_geom_bond_atom_site_label_1
_geom_bond_atom_site_label_2
_geom_bond_distance
_geom_bond_site_symmetry_2
_ccdc_geom_bond_type
Co0 O3 1.970 . S
Co0 N17 1.989 . S
Co0 O25 1.967 . S
Co0 O32 1.920 . S
Co1 O4 1.966 . S
Co1 N10 2.022 . S
Co1 N18 1.993 . S
Co1 O26 1.941 . S
C2 O3 1.258 . S
C2 O4 1.263 . S
O3 Co0 1.970 . S
O3 C2 1.258 . S
O4 Co1 1.966 . S
O4 C2 1.263 . S
C5 O6 1.235 . S
C5 O32 1.289 . S
O6 C5 1.235 . S
C7 C9 1.400 . S
C7 N10 1.351 . S
C7 C12 1.501 . S
C8 C9 1.387 . S
C8 N11 1.341 . S
C9 C7 1.400 . S
C9 C8 1.387 . S
N10 Co1 2.022 . S
N10 C7 1.351 . S
N10 N11 1.365 . S
N11 C8 1.341 . S
N11 N10 1.365 . S
N11 H31 0.862 . S
C12 C7 1.501 . S
C12 H13 0.961 . S
C12 H14 0.961 . S
C12 H15 0.960 . S
H13 C12 0.961 . S
H14 C12 0.961 . S
H15 C12 0.960 . S
C16 N17 1.342 . S
C16 C20 1.401 . S
C16 C21 1.499 . S
N17 Co0 1.989 . S
N17 C16 1.342 . S
N17 N18 1.388 . S
N18 Co1 1.993 . S
N18 N17 1.388 . S
N18 C19 1.346 . S
C19 N18 1.346 . S
C19 C20 1.396 . S
C19 C29 1.510 . S
C20 C16 1.401 . S
C20 C19 1.396 . S
C21 C16 1.499 . S
C21 H22 0.959 . S
C21 H23 0.960 . S
C21 H24 0.961 . S
H22 C21 0.959 . S
H23 C21 0.960 . S
H24 C21 0.961 . S
O25 Co0 1.967 . S
O25 C33 1.258 . S
O26 Co1 1.941 . S
O26 C33 1.266 . S
H27 C29 0.959 . S
H28 C29 0.961 . S
C29 C19 1.510 . S
C29 H27 0.959 . S
C29 H28 0.961 . S
C29 H30 0.960 . S
H30 C29 0.960 . S
H31 N11 0.862 . S
O32 Co0 1.920 . S
O32 C5 1.289 . S
C33 O25 1.258 . S
C33 O26 1.266 . S
Co34 O37 1.970 1_565 S
Co34 N51 1.989 . S
Co34 O59 1.967 . S
Co34 O66 1.920 . S
Co35 O38 1.966 . S
Co35 N44 2.022 . S
Co35 N52 1.993 1_545 S
Co35 O60 1.941 . S
C36 O37 1.258 . S
C36 O38 1.263 . S
O37 Co34 1.970 1_545 S
O37 C36 1.258 . S
O38 Co35 1.966 . S
O38 C36 1.263 . S
C39 O40 1.235 . S
C39 O66 1.289 . S
O40 C39 1.235 . S
C41 C43 1.400 . S
C41 N44 1.351 . S
C41 C46 1.501 . S
C42 C43 1.387 . S
C42 N45 1.341 . S
C43 C41 1.400 . S
C43 C42 1.387 . S
N44 Co35 2.022 . S
N44 C41 1.351 . S
N44 N45 1.365 . S
N45 C42 1.341 . S
N45 N44 1.365 . S
N45 H65 0.862 . S
C46 C41 1.501 . S
C46 H47 0.961 . S
C46 H48 0.961 . S
C46 H49 0.960 . S
H47 C46 0.961 . S
H48 C46 0.961 . S
H49 C46 0.960 . S
C50 N51 1.342 . S
C50 C54 1.401 . S
C50 C55 1.499 . S
N51 Co34 1.989 . S
N51 C50 1.342 . S
N51 N52 1.388 . S
N52 Co35 1.993 1_565 S
N52 N51 1.388 . S
N52 C53 1.346 . S
C53 N52 1.346 . S
C53 C54 1.396 . S
C53 C63 1.510 . S
C54 C50 1.401 . S
C54 C53 1.396 . S
C55 C50 1.499 . S
C55 H56 0.959 . S
C55 H57 0.960 . S
C55 H58 0.961 . S
H56 C55 0.959 . S
H57 C55 0.960 . S
H58 C55 0.961 . S
O59 Co34 1.967 . S
O59 C67 1.258 1_565 S
O60 Co35 1.941 . S
O60 C67 1.266 . S
H61 C63 0.959 . S
H62 C63 0.961 . S
C63 C53 1.510 . S
C63 H61 0.959 . S
C63 H62 0.961 . S
C63 H64 0.960 1_565 S
H64 C63 0.960 1_545 S
H65 N45 0.862 . S
O66 Co34 1.920 . S
O66 C39 1.289 . S
C67 O59 1.258 1_545 S
C67 O60 1.266 . S
Co68 O71 1.970 1_455 S
Co68 N85 1.989 . S
Co68 O93 1.967 . S
Co68 O100 1.920 . S
Co69 O72 1.966 . S
Co69 N78 2.022 . S
Co69 N86 1.993 1_655 S
Co69 O94 1.941 . S
C70 O71 1.258 . S
C70 O72 1.263 . S
O71 Co68 1.970 1_655 S
O71 C70 1.258 . S
O72 Co69 1.966 . S
O72 C70 1.263 . S
C73 O74 1.235 . S
C73 O100 1.289 . S
O74 C73 1.235 . S
C75 C77 1.400 . S
C75 N78 1.351 . S
C75 C80 1.501 . S
C76 C77 1.387 . S
C76 N79 1.341 . S
C77 C75 1.400 . S
C77 C76 1.387 . S
N78 Co69 2.022 . S
N78 C75 1.351 . S
N78 N79 1.365 . S
N79 C76 1.341 . S
N79 N78 1.365 . S
N79 H99 0.862 . S
C80 C75 1.501 . S
C80 H81 0.961 . S
C80 H82 0.961 . S
C80 H83 0.960 . S
H81 C80 0.961 . S
H82 C80 0.961 . S
H83 C80 0.960 . S
C84 N85 1.342 . S
C84 C88 1.401 . S
C84 C89 1.499 . S
N85 Co68 1.989 . S
N85 C84 1.342 . S
N85 N86 1.388 . S
N86 Co69 1.993 1_455 S
N86 N85 1.388 . S
N86 C87 1.346 . S
C87 N86 1.346 . S
C87 C88 1.396 . S
C87 C97 1.510 . S
C88 C84 1.401 . S
C88 C87 1.396 . S
C89 C84 1.499 . S
C89 H90 0.959 . S
C89 H91 0.960 . S
C89 H92 0.961 . S
H90 C89 0.959 . S
H91 C89 0.960 . S
H92 C89 0.961 . S
O93 Co68 1.967 . S
O93 C101 1.258 1_455 S
O94 Co69 1.941 . S
O94 C101 1.266 . S
H95 C97 0.959 . S
H96 C97 0.961 . S
C97 C87 1.510 . S
C97 H95 0.959 . S
C97 H96 0.961 . S
C97 H98 0.960 1_455 S
H98 C97 0.960 1_655 S
H99 N79 0.862 . S
O100 Co68 1.920 . S
O100 C73 1.289 . S
C101 O93 1.258 1_655 S
C101 O94 1.266 . S
Co102 O105 1.970 . S
Co102 N119 1.989 . S
Co102 O127 1.967 . S
Co102 O134 1.920 . S
Co103 O106 1.966 . S
Co103 N112 2.022 . S
Co103 N120 1.993 . S
Co103 O128 1.941 . S
C104 O105 1.258 . S
C104 O106 1.263 . S
O105 Co102 1.970 . S
O105 C104 1.258 . S
O106 Co103 1.966 . S
O106 C104 1.263 . S
C107 O108 1.235 . S
C107 O134 1.289 . S
O108 C107 1.235 . S
C109 C111 1.400 . S
C109 N112 1.351 . S
C109 C114 1.501 . S
C110 C111 1.387 . S
C110 N113 1.341 . S
C111 C109 1.400 . S
C111 C110 1.387 . S
N112 Co103 2.022 . S
N112 C109 1.351 . S
N112 N113 1.365 . S
N113 C110 1.341 . S
N113 N112 1.365 . S
N113 H133 0.862 . S
C114 C109 1.501 . S
C114 H115 0.961 . S
C114 H116 0.961 . S
C114 H117 0.960 . S
H115 C114 0.961 . S
H116 C114 0.961 . S
H117 C114 0.960 . S
C118 N119 1.342 . S
C118 C122 1.401 . S
C118 C123 1.499 . S
N119 Co102 1.989 . S
N119 C118 1.342 . S
N119 N120 1.388 . S
N120 Co103 1.993 . S
N120 N119 1.388 . S
N120 C121 1.346 . S
C121 N120 1.346 . S
C121 C122 1.396 . S
C121 C131 1.510 . S
C122 C118 1.401 . S
C122 C121 1.396 . S
C123 C118 1.499 . S
C123 H124 0.959 . S
C123 H125 0.960 . S
C123 H126 0.961 . S
H124 C123 0.959 . S
H125 C123 0.960 . S
H126 C123 0.961 . S
O127 Co102 1.967 . S
O127 C135 1.258 . S
O128 Co103 1.941 . S
O128 C135 1.266 . S
H129 C131 0.959 . S
H130 C131 0.961 . S
C131 C121 1.510 . S
C131 H129 0.959 . S
C131 H130 0.961 . S
C131 H132 0.960 . S
H132 C131 0.960 . S
H133 N113 0.862 . S
O134 Co102 1.920 . S
O134 C107 1.289 . S
C135 O127 1.258 . S
C135 O128 1.266 . S
Co136 O139 1.970 1_545 S
Co136 N153 1.989 . S
Co136 O161 1.967 . S
Co136 O168 1.920 . S
Co137 O140 1.966 . S
Co137 N146 2.022 . S
Co137 N154 1.993 1_565 S
Co137 O162 1.941 . S
C138 O139 1.258 . S
C138 O140 1.263 . S
O139 Co136 1.970 1_565 S
O139 C138 1.258 . S
O140 Co137 1.966 . S
O140 C138 1.263 . S
C141 O142 1.235 . S
C141 O168 1.289 . S
O142 C141 1.235 . S
C143 C145 1.400 . S
C143 N146 1.351 . S
C143 C148 1.501 . S
C144 C145 1.387 . S
C144 N147 1.341 . S
C145 C143 1.400 . S
C145 C144 1.387 . S
N146 Co137 2.022 . S
N146 C143 1.351 . S
N146 N147 1.365 . S
N147 C144 1.341 . S
N147 N146 1.365 . S
N147 H167 0.862 . S
C148 C143 1.501 . S
C148 H149 0.961 . S
C148 H150 0.961 . S
C148 H151 0.960 . S
H149 C148 0.961 . S
H150 C148 0.961 . S
H151 C148 0.960 . S
C152 N153 1.342 . S
C152 C156 1.401 . S
C152 C157 1.499 . S
N153 Co136 1.989 . S
N153 C152 1.342 . S
N153 N154 1.388 . S
N154 Co137 1.993 1_545 S
N154 N153 1.388 . S
N154 C155 1.346 . S
C155 N154 1.346 . S
C155 C156 1.396 . S
C155 C165 1.510 . S
C156 C152 1.401 . S
C156 C155 1.396 . S
C157 C152 1.499 . S
C157 H158 0.959 . S
C157 H159 0.960 . S
C157 H160 0.961 . S
H158 C157 0.959 . S
H159 C157 0.960 . S
H160 C157 0.961 . S
O161 Co136 1.967 . S
O161 C169 1.258 1_545 S
O162 Co137 1.941 . S
O162 C169 1.266 . S
H163 C165 0.959 . S
H164 C165 0.961 . S
C165 C155 1.510 . S
C165 H163 0.959 . S
C165 H164 0.961 . S
C165 H166 0.960 1_545 S
H166 C165 0.960 1_565 S
H167 N147 0.862 . S
O168 Co136 1.920 . S
O168 C141 1.289 . S
C169 O161 1.258 1_565 S
C169 O162 1.266 . S
Co170 O173 1.970 1_655 S
Co170 N187 1.989 . S
Co170 O195 1.967 . S
Co170 O202 1.920 . S
Co171 O174 1.966 . S
Co171 N180 2.022 . S
Co171 N188 1.993 1_455 S
Co171 O196 1.941 . S
C172 O173 1.258 . S
C172 O174 1.263 . S
O173 Co170 1.970 1_455 S
O173 C172 1.258 . S
O174 Co171 1.966 . S
O174 C172 1.263 . S
C175 O176 1.235 . S
C175 O202 1.289 . S
O176 C175 1.235 . S
C177 C179 1.400 . S
C177 N180 1.351 . S
C177 C182 1.501 . S
C178 C179 1.387 . S
C178 N181 1.341 . S
C179 C177 1.400 . S
C179 C178 1.387 . S
N180 Co171 2.022 . S
N180 C177 1.351 . S
N180 N181 1.365 . S
N181 C178 1.341 . S
N181 N180 1.365 . S
N181 H201 0.862 . S
C182 C177 1.501 . S
C182 H183 0.961 . S
C182 H184 0.961 . S
C182 H185 0.960 . S
H183 C182 0.961 . S
H184 C182 0.961 . S
H185 C182 0.960 . S
C186 N187 1.342 . S
C186 C190 1.401 . S
C186 C191 1.499 . S
N187 Co170 1.989 . S
N187 C186 1.342 . S
N187 N188 1.388 . S
N188 Co171 1.993 1_655 S
N188 N187 1.388 . S
N188 C189 1.346 . S
C189 N188 1.346 . S
C189 C190 1.396 . S
C189 C199 1.510 . S
C190 C186 1.401 . S
C190 C189 1.396 . S
C191 C186 1.499 . S
C191 H192 0.959 . S
C191 H193 0.960 . S
C191 H194 0.961 . S
H192 C191 0.959 . S
H193 C191 0.960 . S
H194 C191 0.961 . S
O195 Co170 1.967 . S
O195 C203 1.258 1_655 S
O196 Co171 1.941 . S
O196 C203 1.266 . S
H197 C199 0.959 . S
H198 C199 0.961 . S
C199 C189 1.510 . S
C199 H197 0.959 . S
C199 H198 0.961 . S
C199 H200 0.960 1_655 S
H200 C199 0.960 1_455 S
H201 N181 0.862 . S
O202 Co170 1.920 . S
O202 C175 1.289 . S
C203 O195 1.258 1_455 S
C203 O196 1.266 . S
Co204 O207 1.970 . S
Co204 N221 1.989 . S
Co204 O229 1.967 1_655 S
Co204 O236 1.920 . S
Co205 O208 1.966 . S
Co205 N214 2.022 . S
Co205 N222 1.993 1_455 S
Co205 O230 1.941 . S
C206 O207 1.258 . S
C206 O208 1.263 1_655 S
O207 Co204 1.970 . S
O207 C206 1.258 . S
O208 Co205 1.966 . S
O208 C206 1.263 1_455 S
C209 O210 1.235 . S
C209 O236 1.289 . S
O210 C209 1.235 . S
C211 C213 1.400 . S
C211 N214 1.351 . S
C211 C216 1.501 . S
C212 C213 1.387 . S
C212 N215 1.341 . S
C213 C211 1.400 . S
C213 C212 1.387 . S
N214 Co205 2.022 . S
N214 C211 1.351 . S
N214 N215 1.365 . S
N215 C212 1.341 . S
N215 N214 1.365 . S
N215 H235 0.862 . S
C216 C211 1.501 . S
C216 H217 0.961 . S
C216 H218 0.956 1_455 S
C216 H219 0.960 . S
H217 C216 0.961 . S
H218 C216 0.956 1_655 S
H219 C216 0.960 . S
C220 N221 1.342 . S
C220 C224 1.401 . S
C220 C225 1.499 . S
N221 Co204 1.989 . S
N221 C220 1.342 . S
N221 N222 1.388 . S
N222 Co205 1.993 1_655 S
N222 N221 1.388 . S
N222 C223 1.346 . S
C223 N222 1.346 . S
C223 C224 1.396 . S
C223 C233 1.510 . S
C224 C220 1.401 . S
C224 C223 1.396 . S
C225 C220 1.499 . S
C225 H226 0.959 . S
C225 H227 0.960 . S
C225 H228 0.961 . S
H226 C225 0.959 . S
H227 C225 0.960 . S
H228 C225 0.961 . S
O229 Co204 1.967 1_455 S
O229 C237 1.258 . S
O230 Co205 1.941 . S
O230 C237 1.266 . S
H231 C233 0.959 . S
H232 C233 0.961 . S
C233 C223 1.510 . S
C233 H231 0.959 . S
C233 H232 0.961 . S
C233 H234 0.960 . S
H234 C233 0.960 . S
H235 N215 0.862 . S
O236 Co204 1.920 . S
O236 C209 1.289 . S
C237 O229 1.258 . S
C237 O230 1.266 . S
Co238 O241 1.970 . S
Co238 N255 1.989 . S
Co238 O263 1.967 . S
Co238 O270 1.920 . S
Co239 O242 1.966 . S
Co239 N248 2.022 . S
Co239 N256 1.993 . S
Co239 O264 1.941 . S
C240 O241 1.258 . S
C240 O242 1.263 . S
O241 Co238 1.970 . S
O241 C240 1.258 . S
O242 Co239 1.966 . S
O242 C240 1.263 . S
C243 O244 1.235 . S
C243 O270 1.289 . S
O244 C243 1.235 . S
C245 C247 1.400 . S
C245 N248 1.351 . S
C245 C250 1.501 . S
C246 C247 1.387 . S
C246 N249 1.341 . S
C247 C245 1.400 . S
C247 C246 1.387 . S
N248 Co239 2.022 . S
N248 C245 1.351 . S
N248 N249 1.365 . S
N249 C246 1.341 . S
N249 N248 1.365 . S
N249 H269 0.862 . S
C250 C245 1.501 . S
C250 H251 0.961 . S
C250 H252 0.961 . S
C250 H253 0.960 . S
H251 C250 0.961 . S
H252 C250 0.961 . S
H253 C250 0.960 . S
C254 N255 1.342 . S
C254 C258 1.401 . S
C254 C259 1.499 . S
N255 Co238 1.989 . S
N255 C254 1.342 . S
N255 N256 1.388 . S
N256 Co239 1.993 . S
N256 N255 1.388 . S
N256 C257 1.346 . S
C257 N256 1.346 . S
C257 C258 1.396 . S
C257 C267 1.510 . S
C258 C254 1.401 . S
C258 C257 1.396 . S
C259 C254 1.499 . S
C259 H260 0.959 . S
C259 H261 0.960 . S
C259 H262 0.961 . S
H260 C259 0.959 . S
H261 C259 0.960 . S
H262 C259 0.961 . S
O263 Co238 1.967 . S
O263 C271 1.258 . S
O264 Co239 1.941 . S
O264 C271 1.266 . S
H265 C267 0.959 . S
H266 C267 0.961 . S
C267 C257 1.510 . S
C267 H265 0.959 . S
C267 H266 0.961 . S
C267 H268 0.960 . S
H268 C267 0.960 . S
H269 N249 0.862 . S
O270 Co238 1.920 . S
O270 C243 1.289 . S
C271 O263 1.258 . S
C271 O264 1.266 . S
Co272 O275 1.970 . S
Co272 N289 1.989 . S
Co272 O297 1.967 1_545 S
Co272 O304 1.920 . S
Co273 O276 1.966 . S
Co273 N282 2.022 . S
Co273 N290 1.993 1_565 S
Co273 O298 1.941 . S
C274 O275 1.258 . S
C274 O276 1.263 1_545 S
O275 Co272 1.970 . S
O275 C274 1.258 . S
O276 Co273 1.966 . S
O276 C274 1.263 1_565 S
C277 O278 1.235 . S
C277 O304 1.289 . S
O278 C277 1.235 . S
C279 C281 1.400 . S
C279 N282 1.351 . S
C279 C284 1.501 . S
C280 C281 1.387 . S
C280 N283 1.341 . S
C281 C279 1.400 . S
C281 C280 1.387 . S
N282 Co273 2.022 . S
N282 C279 1.351 . S
N282 N283 1.365 . S
N283 C280 1.341 . S
N283 N282 1.365 . S
N283 H303 0.862 . S
C284 C279 1.501 . S
C284 H285 0.961 . S
C284 H286 0.947 1_565 S
C284 H287 0.960 . S
H285 C284 0.961 . S
H286 C284 0.947 1_545 S
H287 C284 0.960 . S
C288 N289 1.342 . S
C288 C292 1.401 . S
C288 C293 1.499 . S
N289 Co272 1.989 . S
N289 C288 1.342 . S
N289 N290 1.388 . S
N290 Co273 1.993 1_545 S
N290 N289 1.388 . S
N290 C291 1.346 . S
C291 N290 1.346 . S
C291 C292 1.396 . S
C291 C301 1.510 . S
C292 C288 1.401 . S
C292 C291 1.396 . S
C293 C288 1.499 . S
C293 H294 0.959 . S
C293 H295 0.960 . S
C293 H296 0.961 . S
H294 C293 0.959 . S
H295 C293 0.960 . S
H296 C293 0.961 . S
O297 Co272 1.967 1_565 S
O297 C305 1.258 . S
O298 Co273 1.941 . S
O298 C305 1.266 . S
H299 C301 0.959 . S
H300 C301 0.961 . S
C301 C291 1.510 . S
C301 H299 0.959 . S
C301 H300 0.961 . S
C301 H302 0.960 . S
H302 C301 0.960 . S
H303 N283 0.862 . S
O304 Co272 1.920 . S
O304 C277 1.289 . S
C305 O297 1.258 . S
C305 O298 1.266 . S
Co306 O309 1.970 1_565 S
Co306 N323 1.989 . S
Co306 O331 1.967 . S
Co306 O338 1.920 . S
Co307 O310 1.966 . S
Co307 N316 2.022 . S
Co307 N324 1.993 . S
Co307 O332 1.941 1_545 S
C308 O309 1.258 . S
C308 O310 1.263 . S
O309 Co306 1.970 1_545 S
O309 C308 1.258 . S
O310 Co307 1.966 . S
O310 C308 1.263 . S
C311 O312 1.235 1_565 S
C311 O338 1.289 . S
O312 C311 1.235 1_545 S
C313 C315 1.400 . S
C313 N316 1.351 . S
C313 C318 1.501 . S
C314 C315 1.387 . S
C314 N317 1.341 . S
C315 C313 1.400 . S
C315 C314 1.387 . S
N316 Co307 2.022 . S
N316 C313 1.351 . S
N316 N317 1.365 . S
N317 C314 1.341 . S
N317 N316 1.365 . S
N317 H337 0.862 1_545 S
C318 C313 1.501 . S
C318 H319 0.961 . S
C318 H320 0.961 . S
C318 H321 0.960 . S
H319 C318 0.961 . S
H320 C318 0.961 . S
H321 C318 0.960 . S
C322 N323 1.342 . S
C322 C326 1.401 . S
C322 C327 1.499 . S
N323 Co306 1.989 . S
N323 C322 1.342 . S
N323 N324 1.388 1_565 S
N324 Co307 1.993 . S
N324 N323 1.388 1_545 S
N324 C325 1.346 . S
C325 N324 1.346 . S
C325 C326 1.396 1_545 S
C325 C335 1.510 . S
C326 C322 1.401 . S
C326 C325 1.396 1_565 S
C327 C322 1.499 . S
C327 H328 0.959 . S
C327 H329 0.960 . S
C327 H330 0.961 . S
H328 C327 0.959 . S
H329 C327 0.960 . S
H330 C327 0.961 . S
O331 Co306 1.967 . S
O331 C339 1.258 . S
O332 Co307 1.941 1_565 S
O332 C339 1.266 . S
H333 C335 0.959 . S
H334 C335 0.961 . S
C335 C325 1.510 . S
C335 H333 0.959 . S
C335 H334 0.961 . S
C335 H336 0.960 . S
H336 C335 0.960 . S
H337 N317 0.862 1_565 S
O338 Co306 1.920 . S
O338 C311 1.289 . S
C339 O331 1.258 . S
C339 O332 1.266 . S
Co340 O343 1.970 1_455 S
Co340 N357 1.994 . S
Co340 O365 1.967 . S
Co340 O372 1.920 . S
Co341 O344 1.966 . S
Co341 N350 2.022 . S
Co341 N358 1.993 . S
Co341 O366 1.941 1_655 S
C342 O343 1.258 . S
C342 O344 1.263 . S
O343 Co340 1.970 1_655 S
O343 C342 1.258 . S
O344 Co341 1.966 . S
O344 C342 1.263 . S
C345 O346 1.235 1_455 S
C345 O372 1.289 . S
O346 C345 1.235 1_655 S
C347 C349 1.400 . S
C347 N350 1.351 . S
C347 C352 1.501 . S
C348 C349 1.387 . S
C348 N351 1.341 . S
C349 C347 1.400 . S
C349 C348 1.387 . S
N350 Co341 2.022 . S
N350 C347 1.351 . S
N350 N351 1.365 . S
N351 C348 1.341 . S
N351 N350 1.365 . S
N351 H371 0.862 1_655 S
C352 C347 1.501 . S
C352 H353 0.961 . S
C352 H354 0.961 . S
C352 H355 0.960 . S
H353 C352 0.961 . S
H354 C352 0.961 . S
H355 C352 0.960 . S
C356 N357 1.335 . S
C356 C360 1.401 . S
C356 C361 1.499 . S
N357 Co340 1.994 . S
N357 C356 1.335 . S
N357 N358 1.391 1_455 S
N358 Co341 1.993 . S
N358 N357 1.391 1_655 S
N358 C359 1.346 . S
C359 N358 1.346 . S
C359 C360 1.396 1_655 S
C359 C369 1.510 . S
C360 C356 1.401 . S
C360 C359 1.396 1_455 S
C361 C356 1.499 . S
C361 H362 0.959 . S
C361 H363 0.960 . S
C361 H364 0.961 . S
H362 C361 0.959 . S
H363 C361 0.960 . S
H364 C361 0.961 . S
O365 Co340 1.967 . S
O365 C373 1.258 . S
O366 Co341 1.941 1_455 S
O366 C373 1.266 . S
H367 C369 0.959 . S
H368 C369 0.961 . S
C369 C359 1.510 . S
C369 H367 0.959 . S
C369 H368 0.961 . S
C369 H370 0.960 . S
H370 C369 0.960 . S
H371 N351 0.862 1_455 S
O372 Co340 1.920 . S
O372 C345 1.289 . S
C373 O365 1.258 . S
C373 O366 1.266 . S
Co374 O377 1.970 . S
Co374 N391 1.989 . S
Co374 O399 1.967 . S
Co374 O406 1.920 . S
Co375 O378 1.966 . S
Co375 N384 2.022 . S
Co375 N392 1.993 . S
Co375 O400 1.941 . S
C376 O377 1.258 . S
C376 O378 1.263 . S
O377 Co374 1.970 . S
O377 C376 1.258 . S
O378 Co375 1.966 . S
O378 C376 1.263 . S
C379 O380 1.235 . S
C379 O406 1.289 . S
O380 C379 1.235 . S
C381 C383 1.400 . S
C381 N384 1.351 . S
C381 C386 1.501 . S
C382 C383 1.387 . S
C382 N385 1.341 . S
C383 C381 1.400 . S
C383 C382 1.387 . S
N384 Co375 2.022 . S
N384 C381 1.351 . S
N384 N385 1.365 . S
N385 C382 1.341 . S
N385 N384 1.365 . S
N385 H405 0.862 . S
C386 C381 1.501 . S
C386 H387 0.961 . S
C386 H388 0.961 . S
C386 H389 0.960 . S
H387 C386 0.961 . S
H388 C386 0.961 . S
H389 C386 0.960 . S
C390 N391 1.342 . S
C390 C394 1.401 . S
C390 C395 1.499 . S
N391 Co374 1.989 . S
N391 C390 1.342 . S
N391 N392 1.388 . S
N392 Co375 1.993 . S
N392 N391 1.388 . S
N392 C393 1.346 . S
C393 N392 1.346 . S
C393 C394 1.396 . S
C393 C403 1.510 . S
C394 C390 1.401 . S
C394 C393 1.396 . S
C395 C390 1.499 . S
C395 H396 0.959 . S
C395 H397 0.960 . S
C395 H398 0.961 . S
H396 C395 0.959 . S
H397 C395 0.960 . S
H398 C395 0.961 . S
O399 Co374 1.967 . S
O399 C407 1.258 . S
O400 Co375 1.941 . S
O400 C407 1.266 . S
H401 C403 0.959 . S
H402 C403 0.961 . S
C403 C393 1.510 . S
C403 H401 0.959 . S
C403 H402 0.961 . S
C403 H404 0.960 . S
H404 C403 0.960 . S
H405 N385 0.862 . S
O406 Co374 1.920 . S
O406 C379 1.289 . S
C407 O399 1.258 . S
C407 O400 1.266 . S
Co408 O411 1.970 1_545 S
Co408 N425 1.989 . S
Co408 O433 1.967 . S
Co408 O440 1.920 . S
Co409 O412 1.966 . S
Co409 N418 2.022 . S
Co409 N426 1.993 . S
Co409 O434 1.941 1_565 S
C410 O411 1.258 . S
C410 O412 1.263 . S
O411 Co408 1.970 1_565 S
O411 C410 1.258 . S
O412 Co409 1.966 . S
O412 C410 1.263 . S
C413 O414 1.235 1_545 S
C413 O440 1.289 . S
O414 C413 1.235 1_565 S
C415 C417 1.400 . S
C415 N418 1.351 . S
C415 C420 1.501 . S
C416 C417 1.387 . S
C416 N419 1.341 . S
C417 C415 1.400 . S
C417 C416 1.387 . S
N418 Co409 2.022 . S
N418 C415 1.351 . S
N418 N419 1.365 . S
N419 C416 1.341 . S
N419 N418 1.365 . S
N419 H439 0.862 1_565 S
C420 C415 1.501 . S
C420 H421 0.961 . S
C420 H422 0.961 . S
C420 H423 0.960 . S
H421 C420 0.961 . S
H422 C420 0.961 . S
H423 C420 0.960 . S
C424 N425 1.342 . S
C424 C428 1.401 . S
C424 C429 1.499 . S
N425 Co408 1.989 . S
N425 C424 1.342 . S
N425 N426 1.388 1_545 S
N426 Co409 1.993 . S
N426 N425 1.388 1_565 S
N426 C427 1.346 . S
C427 N426 1.346 . S
C427 C428 1.396 1_565 S
C427 C437 1.510 . S
C428 C424 1.401 . S
C428 C427 1.396 1_545 S
C429 C424 1.499 . S
C429 H430 0.959 . S
C429 H431 0.960 . S
C429 H432 0.961 . S
H430 C429 0.959 . S
H431 C429 0.960 . S
H432 C429 0.961 . S
O433 Co408 1.967 . S
O433 C441 1.258 . S
O434 Co409 1.941 1_545 S
O434 C441 1.266 . S
H435 C437 0.959 . S
H436 C437 0.961 . S
C437 C427 1.510 . S
C437 H435 0.959 . S
C437 H436 0.961 . S
C437 H438 0.960 . S
H438 C437 0.960 . S
H439 N419 0.862 1_545 S
O440 Co408 1.920 . S
O440 C413 1.289 . S
C441 O433 1.258 . S
C441 O434 1.266 . S
Co442 O445 1.970 1_655 S
Co442 N459 1.994 . S
Co442 O467 1.967 . S
Co442 O474 1.920 . S
Co443 O446 1.966 . S
Co443 N452 2.022 . S
Co443 N460 1.993 . S
Co443 O468 1.941 1_455 S
C444 O445 1.258 . S
C444 O446 1.263 . S
O445 Co442 1.970 1_455 S
O445 C444 1.258 . S
O446 Co443 1.966 . S
O446 C444 1.263 . S
C447 O448 1.235 1_655 S
C447 O474 1.289 . S
O448 C447 1.235 1_455 S
C449 C451 1.400 . S
C449 N452 1.351 . S
C449 C454 1.501 . S
C450 C451 1.387 . S
C450 N453 1.341 . S
C451 C449 1.400 . S
C451 C450 1.387 . S
N452 Co443 2.022 . S
N452 C449 1.351 . S
N452 N453 1.365 . S
N453 C450 1.341 . S
N453 N452 1.365 . S
N453 H473 0.862 1_455 S
C454 C449 1.501 . S
C454 H455 0.961 . S
C454 H456 0.961 . S
C454 H457 0.960 . S
H455 C454 0.961 . S
H456 C454 0.961 . S
H457 C454 0.960 . S
C458 N459 1.335 . S
C458 C462 1.401 . S
C458 C463 1.499 . S
N459 Co442 1.994 . S
N459 C458 1.335 . S
N459 N460 1.391 1_655 S
N460 Co443 1.993 . S
N460 N459 1.391 1_455 S
N460 C461 1.346 . S
C461 N460 1.346 . S
C461 C462 1.396 1_455 S
C461 C471 1.510 . S
C462 C458 1.401 . S
C462 C461 1.396 1_655 S
C463 C458 1.499 . S
C463 H464 0.959 . S
C463 H465 0.960 . S
C463 H466 0.961 . S
H464 C463 0.959 . S
H465 C463 0.960 . S
H466 C463 0.961 . S
O467 Co442 1.967 . S
O467 C475 1.258 . S
O468 Co443 1.941 1_655 S
O468 C475 1.266 . S
H469 C471 0.959 . S
H470 C471 0.961 . S
C471 C461 1.510 . S
C471 H469 0.959 . S
C471 H470 0.961 . S
C471 H472 0.960 . S
H472 C471 0.960 . S
H473 N453 0.862 1_655 S
O474 Co442 1.920 . S
O474 C447 1.289 . S
C475 O467 1.258 . S
C475 O468 1.266 . S
Co476 O479 1.970 . S
Co476 N493 1.989 . S
Co476 O501 1.967 . S
Co476 O508 1.920 . S
Co477 O480 1.966 . S
Co477 N486 2.022 . S
Co477 N494 1.993 . S
Co477 O502 1.941 . S
C478 O479 1.258 . S
C478 O480 1.263 . S
O479 Co476 1.970 . S
O479 C478 1.258 . S
O480 Co477 1.966 . S
O480 C478 1.263 . S
C481 O482 1.235 . S
C481 O508 1.289 . S
O482 C481 1.235 . S
C483 C485 1.400 . S
C483 N486 1.351 . S
C483 C488 1.501 . S
C484 C485 1.387 . S
C484 N487 1.341 . S
C485 C483 1.400 . S
C485 C484 1.387 . S
N486 Co477 2.022 . S
N486 C483 1.351 . S
N486 N487 1.365 . S
N487 C484 1.341 . S
N487 N486 1.365 . S
N487 H507 0.862 . S
C488 C483 1.501 . S
C488 H489 0.961 . S
C488 H490 0.961 . S
C488 H491 0.960 . S
H489 C488 0.961 . S
H490 C488 0.961 . S
H491 C488 0.960 . S
C492 N493 1.342 . S
C492 C496 1.401 . S
C492 C497 1.499 . S
N493 Co476 1.989 . S
N493 C492 1.342 . S
N493 N494 1.388 . S
N494 Co477 1.993 . S
N494 N493 1.388 . S
N494 C495 1.346 . S
C495 N494 1.346 . S
C495 C496 1.396 . S
C495 C505 1.510 . S
C496 C492 1.401 . S
C496 C495 1.396 . S
C497 C492 1.499 . S
C497 H498 0.959 . S
C497 H499 0.960 . S
C497 H500 0.961 . S
H498 C497 0.959 . S
H499 C497 0.960 . S
H500 C497 0.961 . S
O501 Co476 1.967 . S
O501 C509 1.258 . S
O502 Co477 1.941 . S
O502 C509 1.266 . S
H503 C505 0.959 . S
H504 C505 0.961 . S
C505 C495 1.510 . S
C505 H503 0.959 . S
C505 H504 0.961 . S
C505 H506 0.960 . S
H506 C505 0.960 . S
H507 N487 0.862 . S
O508 Co476 1.920 . S
O508 C481 1.289 . S
C509 O501 1.258 . S
C509 O502 1.266 . S
Co510 O513 1.970 . S
Co510 N527 1.989 . S
Co510 O535 1.967 1_455 S
Co510 O542 1.920 . S
Co511 O514 1.966 . S
Co511 N520 2.022 . S
Co511 N528 1.993 1_655 S
Co511 O536 1.941 . S
C512 O513 1.258 . S
C512 O514 1.263 1_455 S
O513 Co510 1.970 . S
O513 C512 1.258 . S
O514 Co511 1.966 . S
O514 C512 1.263 1_655 S
C515 O516 1.235 . S
C515 O542 1.289 . S
O516 C515 1.235 . S
C517 C519 1.400 . S
C517 N520 1.351 . S
C517 C522 1.501 . S
C518 C519 1.387 . S
C518 N521 1.341 . S
C519 C517 1.400 . S
C519 C518 1.387 . S
N520 Co511 2.022 . S
N520 C517 1.351 . S
N520 N521 1.365 . S
N521 C518 1.341 . S
N521 N520 1.365 . S
N521 H541 0.862 . S
C522 C517 1.501 . S
C522 H523 0.961 . S
C522 H524 0.956 1_655 S
C522 H525 0.960 . S
H523 C522 0.961 . S
H524 C522 0.956 1_455 S
H525 C522 0.960 . S
C526 N527 1.342 . S
C526 C530 1.401 . S
C526 C531 1.499 . S
N527 Co510 1.989 . S
N527 C526 1.342 . S
N527 N528 1.388 . S
N528 Co511 1.993 1_455 S
N528 N527 1.388 . S
N528 C529 1.346 . S
C529 N528 1.346 . S
C529 C530 1.396 . S
C529 C539 1.510 . S
C530 C526 1.401 . S
C530 C529 1.396 . S
C531 C526 1.499 . S
C531 H532 0.959 . S
C531 H533 0.960 . S
C531 H534 0.961 . S
H532 C531 0.959 . S
H533 C531 0.960 . S
H534 C531 0.961 . S
O535 Co510 1.967 1_655 S
O535 C543 1.258 . S
O536 Co511 1.941 . S
O536 C543 1.266 . S
H537 C539 0.959 . S
H538 C539 0.961 . S
C539 C529 1.510 . S
C539 H537 0.959 . S
C539 H538 0.961 . S
C539 H540 0.960 . S
H540 C539 0.960 . S
H541 N521 0.862 . S
O542 Co510 1.920 . S
O542 C515 1.289 . S
C543 O535 1.258 . S
C543 O536 1.266 . S
Co544 O547 1.970 . S
Co544 N561 1.989 . S
Co544 O569 1.967 . S
Co544 O576 1.920 . S
Co545 O548 1.966 . S
Co545 N554 2.022 . S
Co545 N562 1.993 . S
Co545 O570 1.941 . S
C546 O547 1.258 . S
C546 O548 1.263 . S
O547 Co544 1.970 . S
O547 C546 1.258 . S
O548 Co545 1.966 . S
O548 C546 1.263 . S
C549 O550 1.235 . S
C549 O576 1.289 . S
O550 C549 1.235 . S
C551 C553 1.400 . S
C551 N554 1.351 . S
C551 C556 1.501 . S
C552 C553 1.387 . S
C552 N555 1.341 . S
C553 C551 1.400 . S
C553 C552 1.387 . S
N554 Co545 2.022 . S
N554 C551 1.351 . S
N554 N555 1.365 . S
N555 C552 1.341 . S
N555 N554 1.365 . S
N555 H575 0.862 . S
C556 C551 1.501 . S
C556 H557 0.961 . S
C556 H558 0.961 . S
C556 H559 0.960 . S
H557 C556 0.961 . S
H558 C556 0.961 . S
H559 C556 0.960 . S
C560 N561 1.342 . S
C560 C564 1.401 . S
C560 C565 1.499 . S
N561 Co544 1.989 . S
N561 C560 1.342 . S
N561 N562 1.388 . S
N562 Co545 1.993 . S
N562 N561 1.388 . S
N562 C563 1.346 . S
C563 N562 1.346 . S
C563 C564 1.396 . S
C563 C573 1.510 . S
C564 C560 1.401 . S
C564 C563 1.396 . S
C565 C560 1.499 . S
C565 H566 0.959 . S
C565 H567 0.960 . S
C565 H568 0.961 . S
H566 C565 0.959 . S
H567 C565 0.960 . S
H568 C565 0.961 . S
O569 Co544 1.967 . S
O569 C577 1.258 . S
O570 Co545 1.941 . S
O570 C577 1.266 . S
H571 C573 0.959 . S
H572 C573 0.961 . S
C573 C563 1.510 . S
C573 H571 0.959 . S
C573 H572 0.961 . S
C573 H574 0.960 . S
H574 C573 0.960 . S
H575 N555 0.862 . S
O576 Co544 1.920 . S
O576 C549 1.289 . S
C577 O569 1.258 . S
C577 O570 1.266 . S
Co578 O581 1.970 . S
Co578 N595 1.989 . S
Co578 O603 1.967 1_565 S
Co578 O610 1.920 . S
Co579 O582 1.966 . S
Co579 N588 2.022 . S
Co579 N596 1.993 1_545 S
Co579 O604 1.941 . S
C580 O581 1.258 . S
C580 O582 1.263 1_565 S
O581 Co578 1.970 . S
O581 C580 1.258 . S
O582 Co579 1.966 . S
O582 C580 1.263 1_545 S
C583 O584 1.235 . S
C583 O610 1.289 . S
O584 C583 1.235 . S
C585 C587 1.400 . S
C585 N588 1.351 . S
C585 C590 1.501 . S
C586 C587 1.387 . S
C586 N589 1.341 . S
C587 C585 1.400 . S
C587 C586 1.387 . S
N588 Co579 2.022 . S
N588 C585 1.351 . S
N588 N589 1.365 . S
N589 C586 1.341 . S
N589 N588 1.365 . S
N589 H609 0.862 . S
C590 C585 1.501 . S
C590 H591 0.961 . S
C590 H592 0.947 1_545 S
C590 H593 0.960 . S
H591 C590 0.961 . S
H592 C590 0.947 1_565 S
H593 C590 0.960 . S
C594 N595 1.342 . S
C594 C598 1.401 . S
C594 C599 1.499 . S
N595 Co578 1.989 . S
N595 C594 1.342 . S
N595 N596 1.388 . S
N596 Co579 1.993 1_565 S
N596 N595 1.388 . S
N596 C597 1.346 . S
C597 N596 1.346 . S
C597 C598 1.396 . S
C597 C607 1.510 . S
C598 C594 1.401 . S
C598 C597 1.396 . S
C599 C594 1.499 . S
C599 H600 0.959 . S
C599 H601 0.960 . S
C599 H602 0.961 . S
H600 C599 0.959 . S
H601 C599 0.960 . S
H602 C599 0.961 . S
O603 Co578 1.967 1_545 S
O603 C611 1.258 . S
O604 Co579 1.941 . S
O604 C611 1.266 . S
H605 C607 0.959 . S
H606 C607 0.961 . S
C607 C597 1.510 . S
C607 H605 0.959 . S
C607 H606 0.961 . S
C607 H608 0.960 . S
H608 C607 0.960 . S
H609 N589 0.862 . S
O610 Co578 1.920 . S
O610 C583 1.289 . S
C611 O603 1.258 . S
C611 O604 1.266 . S
C612 C613 1.387 . S
C612 H616 0.950 . S
C612 C621 1.390 1_554 S
C613 C612 1.387 . S
C613 C615 1.387 1_554 S
H614 C621 0.950 1_554 S
C615 C613 1.387 1_556 S
C615 C617 1.390 . S
C615 H619 0.950 . S
H616 C612 0.950 . S
C617 C615 1.390 . S
C617 C618 1.387 . S
C617 H620 0.950 . S
C618 C617 1.387 . S
C618 C621 1.387 . S
H619 C615 0.950 . S
H620 C617 0.950 . S
C621 C612 1.390 1_556 S
C621 H614 0.950 1_556 S
C621 C618 1.387 . S
C622 C623 1.387 1_556 S
C622 H626 0.950 . S
C622 C631 1.390 . S
C623 C622 1.387 1_554 S
C623 C625 1.387 . S
H624 C631 0.950 . S
C625 C623 1.387 . S
C625 C627 1.390 1_554 S
C625 H629 0.950 . S
H626 C622 0.950 . S
C627 C625 1.390 1_556 S
C627 C628 1.387 . S
C627 H630 0.950 . S
C628 C627 1.387 . S
C628 C631 1.387 . S
H629 C625 0.950 . S
H630 C627 0.950 . S
C631 C622 1.390 . S
C631 H624 0.950 . S
C631 C628 1.387 . S
C632 C633 1.387 1_556 S
C632 H636 0.950 . S
C632 C641 1.390 . S
C633 C632 1.387 1_554 S
C633 C635 1.387 . S
H634 C641 0.950 . S
C635 C633 1.387 . S
C635 C637 1.390 1_554 S
C635 H639 0.950 . S
H636 C632 0.950 . S
C637 C635 1.390 1_556 S
C637 C638 1.387 . S
C637 H640 0.950 . S
C638 C637 1.387 . S
C638 C641 1.387 . S
H639 C635 0.950 . S
H640 C637 0.950 . S
C641 C632 1.390 . S
C641 H634 0.950 . S
C641 C638 1.387 . S
C642 C643 1.387 . S
C642 H646 0.950 . S
C642 C651 1.390 . S
C643 C642 1.387 . S
C643 C645 1.387 . S
H644 C651 0.950 . S
C645 C643 1.387 . S
C645 C647 1.390 1_554 S
C645 H649 0.950 . S
H646 C642 0.950 . S
C647 C645 1.390 1_556 S
C647 C648 1.387 . S
C647 H650 0.950 . S
C648 C647 1.387 . S
C648 C651 1.387 1_556 S
H649 C645 0.950 . S
H650 C647 0.950 . S
C651 C642 1.390 . S
C651 H644 0.950 . S
C651 C648 1.387 1_554 S
C652 C653 1.387 1_554 S
C652 H656 0.950 . S
C652 C661 1.390 . S
C653 C652 1.387 1_556 S
C653 C655 1.387 . S
H654 C661 0.950 . S
C655 C653 1.387 . S
C655 C657 1.390 1_556 S
C655 H659 0.950 . S
H656 C652 0.950 . S
C657 C655 1.390 1_554 S
C657 C658 1.387 . S
C657 H660 0.950 1_554 S
C658 C657 1.387 . S
C658 C661 1.387 . S
H659 C655 0.950 . S
H660 C657 0.950 1_556 S
C661 C652 1.390 . S
C661 H654 0.950 . S
C661 C658 1.387 . S
C662 C663 1.387 . S
C662 H666 0.950 . S
C662 C671 1.390 1_554 S
C663 C662 1.387 . S
C663 C665 1.387 . S
H664 C671 0.950 . S
C665 C663 1.387 . S
C665 C667 1.390 . S
C665 H669 0.950 . S
H666 C662 0.950 . S
C667 C665 1.390 . S
C667 C668 1.387 1_554 S
C667 H670 0.950 . S
C668 C667 1.387 1_556 S
C668 C671 1.387 . S
H669 C665 0.950 . S
H670 C667 0.950 . S
C671 C662 1.390 1_556 S
C671 H664 0.950 . S
C671 C668 1.387 . S
C672 C673 1.387 . S
C672 H676 0.950 1_455 S
C672 C681 1.390 1_455 S
C673 C672 1.387 . S
C673 C675 1.387 . S
H674 C681 0.950 . S
C675 C673 1.387 . S
C675 C677 1.390 . S
C675 H679 0.950 . S
H676 C672 0.950 1_655 S
C677 C675 1.390 . S
C677 C678 1.387 . S
C677 H680 0.950 . S
C678 C677 1.387 . S
C678 C681 1.387 1_455 S
H679 C675 0.950 . S
H680 C677 0.950 . S
C681 C672 1.390 1_655 S
C681 H674 0.950 . S
C681 C678 1.387 1_655 S
C682 C683 1.387 . S
C682 H686 0.950 . S
C682 C691 1.390 . S
C683 C682 1.387 . S
C683 C685 1.387 . S
H684 C691 0.950 . S
C685 C683 1.387 . S
C685 C687 1.390 . S
C685 H689 0.950 . S
H686 C682 0.950 . S
C687 C685 1.390 . S
C687 C688 1.387 . S
C687 H690 0.950 . S
C688 C687 1.387 . S
C688 C691 1.387 . S
H689 C685 0.950 . S
H690 C687 0.950 . S
C691 C682 1.390 . S
C691 H684 0.950 . S
C691 C688 1.387 . S
C692 C693 1.387 . S
C692 H696 0.950 . S
C692 C701 1.390 . S
C693 C692 1.387 . S
C693 C695 1.387 . S
H694 C701 0.950 . S
C695 C693 1.387 . S
C695 C697 1.390 . S
C695 H699 0.950 . S
H696 C692 0.950 . S
C697 C695 1.390 . S
C697 C698 1.387 . S
C697 H700 0.950 1_565 S
C698 C697 1.387 . S
C698 C701 1.387 . S
H699 C695 0.950 . S
H700 C697 0.950 1_545 S
C701 C692 1.390 . S
C701 H694 0.950 . S
C701 C698 1.387 . S
C702 C703 1.387 . S
C702 H706 0.950 . S
C702 C711 1.390 . S
C703 C702 1.387 . S
C703 C705 1.387 . S
H704 C711 0.950 . S
C705 C703 1.387 . S
C705 C707 1.390 . S
C705 H709 0.950 . S
H706 C702 0.950 . S
C707 C705 1.390 . S
C707 C708 1.387 . S
C707 H710 0.950 . S
C708 C707 1.387 . S
C708 C711 1.387 . S
H709 C705 0.950 . S
H710 C707 0.950 . S
C711 C702 1.390 . S
C711 H704 0.950 . S
C711 C708 1.387 . S
C712 C713 1.387 . S
C712 H716 0.950 . S
C712 C721 1.390 . S
C713 C712 1.387 . S
C713 C715 1.387 . S
H714 C721 0.950 . S
C715 C713 1.387 . S
C715 C717 1.390 . S
C715 H719 0.950 . S
H716 C712 0.950 . S
C717 C715 1.390 . S
C717 C718 1.387 . S
C717 H720 0.950 . S
C718 C717 1.387 . S
C718 C721 1.387 . S
H719 C715 0.950 . S
H720 C717 0.950 . S
C721 C712 1.390 . S
C721 H714 0.950 . S
C721 C718 1.387 . S
C722 C723 1.387 . S
C722 H726 0.950 . S
C722 C731 1.390 . S
C723 C722 1.387 . S
C723 C725 1.387 . S
H724 C731 0.950 . S
C725 C723 1.387 . S
C725 C727 1.390 . S
C725 H729 0.950 . S
H726 C722 0.950 . S
C727 C725 1.390 . S
C727 C728 1.387 . S
C727 H730 0.950 . S
C728 C727 1.387 . S
C728 C731 1.387 . S
H729 C725 0.950 . S
H730 C727 0.950 . S
C731 C722 1.390 . S
C731 H724 0.950 . S
C731 C728 1.387 . S
C732 C733 1.387 . S
C732 H736 0.950 . S
C732 C741 1.390 . S
C733 C732 1.387 . S
C733 C735 1.387 . S
H734 C741 0.950 . S
C735 C733 1.387 . S
C735 C737 1.390 . S
C735 H739 0.950 . S
H736 C732 0.950 . S
C737 C735 1.390 . S
C737 C738 1.387 . S
C737 H740 0.950 . S
C738 C737 1.387 . S
C738 C741 1.387 . S
H739 C735 0.950 . S
H740 C737 0.950 . S
C741 C732 1.390 . S
C741 H734 0.950 . S
C741 C738 1.387 . S
C742 C743 1.387 . S
C742 H746 0.950 . S
C742 C751 1.390 . S
C743 C742 1.387 . S
C743 C745 1.387 . S
H744 C751 0.950 . S
C745 C743 1.387 . S
C745 C747 1.390 . S
C745 H749 0.950 . S
H746 C742 0.950 . S
C747 C745 1.390 . S
C747 C748 1.387 . S
C747 H750 0.950 . S
C748 C747 1.387 . S
C748 C751 1.387 . S
H749 C745 0.950 . S
H750 C747 0.950 . S
C751 C742 1.390 . S
C751 H744 0.950 . S
C751 C748 1.387 . S
C752 C753 1.387 . S
C752 H756 0.950 . S
C752 C761 1.390 . S
C753 C752 1.387 . S
C753 C755 1.387 . S
H754 C761 0.950 . S
C755 C753 1.387 . S
C755 C757 1.390 . S
C755 H759 0.950 . S
H756 C752 0.950 . S
C757 C755 1.390 . S
C757 C758 1.387 . S
C757 H760 0.950 . S
C758 C757 1.387 . S
C758 C761 1.387 . S
H759 C755 0.950 . S
H760 C757 0.950 . S
C761 C752 1.390 . S
C761 H754 0.950 . S
C761 C758 1.387 . S
C762 C763 1.387 . S
C762 H766 0.950 . S
C762 C771 1.390 . S
C763 C762 1.387 . S
C763 C765 1.387 . S
H764 C771 0.950 . S
C765 C763 1.387 . S
C765 C767 1.390 1_655 S
C765 H769 0.950 1_655 S
H766 C762 0.950 . S
C767 C765 1.390 1_455 S
C767 C768 1.387 1_455 S
C767 H770 0.950 . S
C768 C767 1.387 1_655 S
C768 C771 1.387 . S
H769 C765 0.950 1_455 S
H770 C767 0.950 . S
C771 C762 1.390 . S
C771 H764 0.950 . S
C771 C768 1.387 . S
C772 C773 1.387 . S
C772 H776 0.950 . S
C772 C781 1.390 . S
C773 C772 1.387 . S
C773 C775 1.387 . S
H774 C781 0.950 . S
C775 C773 1.387 . S
C775 C777 1.390 . S
C775 H779 0.950 . S
H776 C772 0.950 . S
C777 C775 1.390 . S
C777 C778 1.387 . S
C777 H780 0.950 . S
C778 C777 1.387 . S
C778 C781 1.387 . S
H779 C775 0.950 . S
H780 C777 0.950 . S
C781 C772 1.390 . S
C781 H774 0.950 . S
C781 C778 1.387 . S
C782 C783 1.387 1_565 S
C782 H786 0.950 . S
C782 C791 1.390 1_565 S
C783 C782 1.387 1_545 S
C783 C785 1.387 . S
H784 C791 0.950 1_565 S
C785 C783 1.387 . S
C785 C787 1.390 . S
C785 H789 0.950 . S
H786 C782 0.950 . S
C787 C785 1.390 . S
C787 C788 1.387 . S
C787 H790 0.950 . S
C788 C787 1.387 . S
C788 C791 1.387 . S
H789 C785 0.950 . S
H790 C787 0.950 . S
C791 C782 1.390 1_545 S
C791 H784 0.950 1_545 S
C791 C788 1.387 . S
C792 C793 1.387 . S
C792 H796 0.950 . S
C792 C801 1.390 . S
C793 C792 1.387 . S
C793 C795 1.387 . S
H794 C801 0.950 . S
C795 C793 1.387 . S
C795 C797 1.390 . S
C795 H799 0.950 . S
H796 C792 0.950 . S
C797 C795 1.390 . S
C797 C798 1.387 . S
C797 H800 0.950 . S
C798 C797 1.387 . S
C798 C801 1.387 . S
H799 C795 0.950 . S
H800 C797 0.950 . S
C801 C792 1.390 . S
C801 H794 0.950 . S
C801 C798 1.387 . S
C802 C803 1.387 1_565 S
C802 H806 0.950 . S
C802 C811 1.390 . S
C803 C802 1.387 1_545 S
C803 C805 1.387 . S
H804 C811 0.950 . S
C805 C803 1.387 . S
C805 C807 1.390 . S
C805 H809 0.950 . S
H806 C802 0.950 . S
C807 C805 1.390 . S
C807 C808 1.387 1_545 S
C807 H810 0.950 . S
C808 C807 1.387 1_565 S
C808 C811 1.387 . S
H809 C805 0.950 . S
H810 C807 0.950 . S
C811 C802 1.390 . S
C811 H804 0.950 . S
C811 C808 1.387 . S
C812 C813 1.387 . S
C812 H816 0.950 . S
C812 C821 1.390 1_455 S
C813 C812 1.387 . S
C813 C815 1.387 . S
H814 C821 0.950 . S
C815 C813 1.387 . S
C815 C817 1.390 . S
C815 H819 0.950 . S
H816 C812 0.950 . S
C817 C815 1.390 . S
C817 C818 1.387 1_455 S
C817 H820 0.950 . S
C818 C817 1.387 1_655 S
C818 C821 1.387 . S
H819 C815 0.950 . S
H820 C817 0.950 . S
C821 C812 1.390 1_655 S
C821 H814 0.950 . S
C821 C818 1.387 . S
C822 C823 1.387 . S
C822 H826 0.950 . S
C822 C831 1.390 . S
C823 C822 1.387 . S
C823 C825 1.387 . S
H824 C831 0.950 . S
C825 C823 1.387 . S
C825 C827 1.390 . S
C825 H829 0.950 . S
H826 C822 0.950 . S
C827 C825 1.390 . S
C827 C828 1.387 . S
C827 H830 0.950 . S
C828 C827 1.387 . S
C828 C831 1.387 . S
H829 C825 0.950 . S
H830 C827 0.950 . S
C831 C822 1.390 . S
C831 H824 0.950 . S
C831 C828 1.387 . S
C832 C833 1.387 . S
C832 H836 0.950 . S
C832 C841 1.390 . S
C833 C832 1.387 . S
C833 C835 1.387 1_545 S
H834 C841 0.950 . S
C835 C833 1.387 1_565 S
C835 C837 1.390 . S
C835 H839 0.950 . S
H836 C832 0.950 . S
C837 C835 1.390 . S
C837 C838 1.387 . S
C837 H840 0.950 . S
C838 C837 1.387 . S
C838 C841 1.387 1_565 S
H839 C835 0.950 . S
H840 C837 0.950 . S
C841 C832 1.390 . S
C841 H834 0.950 . S
C841 C838 1.387 1_545 S
C842 C843 1.387 . S
C842 H846 0.950 . S
C842 C851 1.390 . S
C843 C842 1.387 . S
C843 C845 1.387 1_655 S
H844 C851 0.950 . S
C845 C843 1.387 1_455 S
C845 C847 1.390 . S
C845 H849 0.950 . S
H846 C842 0.950 . S
C847 C845 1.390 . S
C847 C848 1.387 . S
C847 H850 0.950 . S
C848 C847 1.387 . S
C848 C851 1.387 1_455 S
H849 C845 0.950 . S
H850 C847 0.950 . S
C851 C842 1.390 . S
C851 H844 0.950 . S
C851 C848 1.387 1_655 S
C852 C853 1.387 . S
C852 H856 0.950 . S
C852 C861 1.390 . S
C853 C852 1.387 . S
C853 C855 1.387 . S
H854 C861 0.950 . S
C855 C853 1.387 . S
C855 C857 1.390 . S
C855 H859 0.950 . S
H856 C852 0.950 . S
C857 C855 1.390 . S
C857 C858 1.387 . S
C857 H860 0.950 . S
C858 C857 1.387 . S
C858 C861 1.387 . S
H859 C855 0.950 . S
H860 C857 0.950 . S
C861 C852 1.390 . S
C861 H854 0.950 . S
C861 C858 1.387 . S
C862 C863 1.387 . S
C862 H866 0.950 . S
C862 C871 1.390 . S
C863 C862 1.387 . S
C863 C865 1.387 . S
H864 C871 0.950 . S
C865 C863 1.387 . S
C865 C867 1.390 . S
C865 H869 0.950 . S
H866 C862 0.950 . S
C867 C865 1.390 . S
C867 C868 1.387 . S
C867 H870 0.950 . S
C868 C867 1.387 . S
C868 C871 1.387 . S
H869 C865 0.950 . S
H870 C867 0.950 . S
C871 C862 1.390 . S
C871 H864 0.950 . S
C871 C868 1.387 . S
C872 C873 1.387 . S
C872 H876 0.950 . S
C872 C881 1.390 . S
C873 C872 1.387 . S
C873 C875 1.387 . S
H874 C881 0.950 . S
C875 C873 1.387 . S
C875 C877 1.390 . S
C875 H879 0.950 . S
H876 C872 0.950 . S
C877 C875 1.390 . S
C877 C878 1.387 . S
C877 H880 0.950 . S
C878 C877 1.387 . S
C878 C881 1.387 . S
H879 C875 0.950 . S
H880 C877 0.950 . S
C881 C872 1.390 . S
C881 H874 0.950 . S
C881 C878 1.387 . S
C882 C883 1.387 . S
C882 H886 0.950 . S
C882 C891 1.390 . S
C883 C882 1.387 . S
C883 C885 1.387 . S
H884 C891 0.950 . S
C885 C883 1.387 . S
C885 C887 1.390 . S
C885 H889 0.950 . S
H886 C882 0.950 . S
C887 C885 1.390 . S
C887 C888 1.387 . S
C887 H890 0.950 . S
C888 C887 1.387 . S
C888 C891 1.387 . S
H889 C885 0.950 . S
H890 C887 0.950 . S
C891 C882 1.390 . S
C891 H884 0.950 . S
C891 C888 1.387 . S
C892 C893 1.387 . S
C892 H896 0.950 . S
C892 C901 1.390 . S
C893 C892 1.387 . S
C893 C895 1.387 . S
H894 C901 0.950 . S
C895 C893 1.387 . S
C895 C897 1.390 . S
C895 H899 0.950 . S
H896 C892 0.950 . S
C897 C895 1.390 . S
C897 C898 1.387 . S
C897 H900 0.950 . S
C898 C897 1.387 . S
C898 C901 1.387 . S
H899 C895 0.950 . S
H900 C897 0.950 . S
C901 C892 1.390 . S
C901 H894 0.950 . S
C901 C898 1.387 . S
C902 C903 1.387 . S
C902 H906 0.950 . S
C902 C911 1.390 . S
C903 C902 1.387 . S
C903 C905 1.387 . S
H904 C911 0.950 . S
C905 C903 1.387 . S
C905 C907 1.390 . S
C905 H909 0.950 . S
H906 C902 0.950 . S
C907 C905 1.390 . S
C907 C908 1.387 . S
C907 H910 0.950 . S
C908 C907 1.387 . S
C908 C911 1.387 . S
H909 C905 0.950 . S
H910 C907 0.950 . S
C911 C902 1.390 . S
C911 H904 0.950 . S
C911 C908 1.387 . S
C912 C913 1.387 . S
C912 H916 0.950 . S
C912 C921 1.390 . S
C913 C912 1.387 . S
C913 C915 1.387 . S
H914 C921 0.950 . S
C915 C913 1.387 . S
C915 C917 1.390 . S
C915 H919 0.950 . S
H916 C912 0.950 . S
C917 C915 1.390 . S
C917 C918 1.387 . S
C917 H920 0.950 . S
C918 C917 1.387 . S
C918 C921 1.387 . S
H919 C915 0.950 . S
H920 C917 0.950 . S
C921 C912 1.390 . S
C921 H914 0.950 . S
C921 C918 1.387 . S
C922 C923 1.387 . S
C922 H926 0.950 . S
C922 C931 1.390 . S
C923 C922 1.387 . S
C923 C925 1.387 . S
H924 C931 0.950 . S
C925 C923 1.387 . S
C925 C927 1.390 . S
C925 H929 0.950 . S
H926 C922 0.950 . S
C927 C925 1.390 . S
C927 C928 1.387 . S
C927 H930 0.950 . S
C928 C927 1.387 . S
C928 C931 1.387 . S
H929 C925 0.950 . S
H930 C927 0.950 . S
C931 C922 1.390 . S
C931 H924 0.950 . S
C931 C928 1.387 . S
C932 C933 1.387 . S
C932 H936 0.950 . S
C932 C941 1.390 . S
C933 C932 1.387 . S
C933 C935 1.387 . S
H934 C941 0.950 . S
C935 C933 1.387 . S
C935 C937 1.390 . S
C935 H939 0.950 . S
H936 C932 0.950 . S
C937 C935 1.390 . S
C937 C938 1.387 . S
C937 H940 0.950 . S
C938 C937 1.387 . S
C938 C941 1.387 . S
H939 C935 0.950 . S
H940 C937 0.950 . S
C941 C932 1.390 . S
C941 H934 0.950 . S
C941 C938 1.387 . S
C942 C943 1.387 . S
C942 H946 0.950 . S
C942 C951 1.390 . S
C943 C942 1.387 . S
C943 C945 1.387 . S
H944 C951 0.950 . S
C945 C943 1.387 . S
C945 C947 1.390 . S
C945 H949 0.950 . S
H946 C942 0.950 . S
C947 C945 1.390 . S
C947 C948 1.387 . S
C947 H950 0.950 . S
C948 C947 1.387 . S
C948 C951 1.387 . S
H949 C945 0.950 . S
H950 C947 0.950 . S
C951 C942 1.390 . S
C951 H944 0.950 . S
C951 C948 1.387 . S
C952 C953 1.387 . S
C952 H956 0.950 . S
C952 C961 1.390 . S
C953 C952 1.387 . S
C953 C955 1.387 . S
H954 C961 0.950 . S
C955 C953 1.387 . S
C955 C957 1.390 . S
C955 H959 0.950 . S
H956 C952 0.950 . S
C957 C955 1.390 . S
C957 C958 1.387 . S
C957 H960 0.950 . S
C958 C957 1.387 . S
C958 C961 1.387 . S
H959 C955 0.950 . S
H960 C957 0.950 . S
C961 C952 1.390 . S
C961 H954 0.950 . S
C961 C958 1.387 . S
C962 C963 1.387 . S
C962 H966 0.950 . S
C962 C971 1.390 . S
C963 C962 1.387 . S
C963 C965 1.387 . S
H964 C971 0.950 . S
C965 C963 1.387 . S
C965 C967 1.390 . S
C965 H969 0.950 . S
H966 C962 0.950 . S
C967 C965 1.390 . S
C967 C968 1.387 . S
C967 H970 0.950 . S
C968 C967 1.387 . S
C968 C971 1.387 . S
H969 C965 0.950 . S
H970 C967 0.950 . S
C971 C962 1.390 . S
C971 H964 0.950 . S
C971 C968 1.387 . S
C972 C973 1.387 . S
C972 H976 0.950 . S
C972 C981 1.390 . S
C973 C972 1.387 . S
C973 C975 1.387 . S
H974 C981 0.950 . S
C975 C973 1.387 . S
C975 C977 1.390 . S
C975 H979 0.950 . S
H976 C972 0.950 . S
C977 C975 1.390 . S
C977 C978 1.387 . S
C977 H980 0.950 . S
C978 C977 1.387 . S
C978 C981 1.387 . S
H979 C975 0.950 . S
H980 C977 0.950 . S
C981 C972 1.390 . S
C981 H974 0.950 . S
C981 C978 1.387 . S
C982 C983 1.387 . S
C982 H986 0.950 . S
C982 C991 1.390 . S
C983 C982 1.387 . S
C983 C985 1.387 . S
H984 C991 0.950 . S
C985 C983 1.387 . S
C985 C987 1.390 . S
C985 H989 0.950 . S
H986 C982 0.950 . S
C987 C985 1.390 . S
C987 C988 1.387 . S
C987 H990 0.950 . S
C988 C987 1.387 . S
C988 C991 1.387 . S
H989 C985 0.950 . S
H990 C987 0.950 . S
C991 C982 1.390 . S
C991 H984 0.950 . S
C991 C988 1.387 . S
C992 C993 1.387 . S
C992 H996 0.950 . S
C992 C1001 1.390 . S
C993 C992 1.387 . S
C993 C995 1.387 . S
H994 C1001 0.950 . S
C995 C993 1.387 . S
C995 C997 1.390 . S
C995 H999 0.950 . S
H996 C992 0.950 . S
C997 C995 1.390 . S
C997 C998 1.387 . S
C997 H1000 0.950 . S
C998 C997 1.387 . S
C998 C1001 1.387 . S
H999 C995 0.950 . S
H1000 C997 0.950 . S
C1001 C992 1.390 . S
C1001 H994 0.950 . S
C1001 C998 1.387 . S
C1002 C1003 1.387 . S
C1002 H1006 0.950 . S
C1002 C1011 1.390 . S
C1003 C1002 1.387 . S
C1003 C1005 1.387 . S
H1004 C1011 0.950 . S
C1005 C1003 1.387 . S
C1005 C1007 1.390 . S
C1005 H1009 0.950 . S
H1006 C1002 0.950 . S
C1007 C1005 1.390 . S
C1007 C1008 1.387 . S
C1007 H1010 0.950 . S
C1008 C1007 1.387 . S
C1008 C1011 1.387 . S
H1009 C1005 0.950 . S
H1010 C1007 0.950 . S
C1011 C1002 1.390 . S
C1011 H1004 0.950 . S
C1011 C1008 1.387 . S
C1012 C1013 1.387 . S
C1012 H1016 0.950 . S
C1012 C1021 1.390 . S
C1013 C1012 1.387 . S
C1013 C1015 1.387 . S
H1014 C1021 0.950 . S
C1015 C1013 1.387 . S
C1015 C1017 1.390 . S
C1015 H1019 0.950 . S
H1016 C1012 0.950 . S
C1017 C1015 1.390 . S
C1017 C1018 1.387 . S
C1017 H1020 0.950 . S
C1018 C1017 1.387 . S
C1018 C1021 1.387 . S
H1019 C1015 0.950 . S
H1020 C1017 0.950 . S
C1021 C1012 1.390 . S
C1021 H1014 0.950 . S
C1021 C1018 1.387 . S
C1022 C1023 1.387 . S
C1022 H1026 0.950 . S
C1022 C1031 1.390 . S
C1023 C1022 1.387 . S
C1023 C1025 1.387 . S
H1024 C1031 0.950 . S
C1025 C1023 1.387 . S
C1025 C1027 1.390 . S
C1025 H1029 0.950 . S
H1026 C1022 0.950 . S
C1027 C1025 1.390 . S
C1027 C1028 1.387 . S
C1027 H1030 0.950 . S
C1028 C1027 1.387 . S
C1028 C1031 1.387 . S
H1029 C1025 0.950 . S
H1030 C1027 0.950 . S
C1031 C1022 1.390 . S
C1031 H1024 0.950 . S
C1031 C1028 1.387 . S
C1032 C1033 1.387 . S
C1032 H1036 0.950 . S
C1032 C1041 1.390 . S
C1033 C1032 1.387 . S
C1033 C1035 1.387 1_655 S
H1034 C1041 0.950 . S
C1035 C1033 1.387 1_455 S
C1035 C1037 1.390 . S
C1035 H1039 0.950 . S
H1036 C1032 0.950 . S
C1037 C1035 1.390 . S
C1037 C1038 1.387 . S
C1037 H1040 0.950 . S
C1038 C1037 1.387 . S
C1038 C1041 1.387 1_455 S
H1039 C1035 0.950 . S
H1040 C1037 0.950 . S
C1041 C1032 1.390 . S
C1041 H1034 0.950 . S
C1041 C1038 1.387 1_655 S
C1042 C1043 1.387 . S
C1042 H1046 0.950 . S
C1042 C1051 1.390 . S
C1043 C1042 1.387 . S
C1043 C1045 1.387 . S
H1044 C1051 0.950 . S
C1045 C1043 1.387 . S
C1045 C1047 1.390 . S
C1045 H1049 0.950 . S
H1046 C1042 0.950 . S
C1047 C1045 1.390 . S
C1047 C1048 1.387 . S
C1047 H1050 0.950 . S
C1048 C1047 1.387 . S
C1048 C1051 1.387 . S
H1049 C1045 0.950 . S
H1050 C1047 0.950 . S
C1051 C1042 1.390 . S
C1051 H1044 0.950 . S
C1051 C1048 1.387 . S
C1052 C1053 1.387 . S
C1052 H1056 0.950 . S
C1052 C1061 1.390 . S
C1053 C1052 1.387 . S
C1053 C1055 1.387 1_545 S
H1054 C1061 0.950 . S
C1055 C1053 1.387 1_565 S
C1055 C1057 1.390 . S
C1055 H1059 0.950 . S
H1056 C1052 0.950 . S
C1057 C1055 1.390 . S
C1057 C1058 1.387 . S
C1057 H1060 0.950 . S
C1058 C1057 1.387 . S
C1058 C1061 1.387 1_565 S
H1059 C1055 0.950 . S
H1060 C1057 0.950 . S
C1061 C1052 1.390 . S
C1061 H1054 0.950 . S
C1061 C1058 1.387 1_545 S
C613 C9 1.411 . S
C618 C156 1.415 . S
C623 C43 1.454 . S
C628 C190 1.457 . S
C633 C77 1.503 . S
C638 C122 1.507 . S
C643 C54 1.418 . S
C648 C111 1.408 . S
C653 C145 1.455 . S
C658 C88 1.458 . S
C663 C20 1.504 . S
C668 C179 1.506 . S
C673 C213 1.484 . S
C678 C360 1.489 . S
C683 C394 1.481 . S
C688 C247 1.476 . S
C693 C281 1.464 . S
C698 C326 1.468 . S
C703 C258 1.475 . S
C708 C315 1.471 . S
C713 C349 1.459 . S
C718 C292 1.465 . S
C723 C224 1.463 . S
C728 C383 1.458 . S
C733 C564 1.475 . S
C738 C417 1.471 . S
C743 C598 1.466 . S
C748 C451 1.460 . S
C753 C530 1.464 . S
C758 C485 1.459 . S
C763 C519 1.484 . S
C768 C462 1.489 . S
C773 C496 1.482 . S
C778 C553 1.477 . S
C783 C428 1.468 . S
C788 C587 1.463 . S
C793 C33 1.442 . S
C798 C379 1.397 . S
C803 C67 1.417 . S
C808 C311 1.377 . S
C813 C345 1.421 . S
C818 C101 1.460 . S
C823 C481 1.396 . S
C828 C135 1.442 . S
C833 C413 1.376 . S
C838 C169 1.416 . S
C843 C447 1.421 . S
C848 C203 1.459 . S
C853 C583 1.400 . S
C858 C237 1.451 . S
C863 C515 1.404 . S
C868 C271 1.451 . S
C873 C305 1.448 . S
C878 C549 1.399 . S
C883 C73 1.347 . S
C888 C339 1.393 . S
C893 C373 1.422 . S
C898 C5 1.376 . S
C903 C407 1.402 . S
C908 C39 1.349 . S
C913 C441 1.392 . S
C918 C175 1.345 . S
C923 C107 1.375 . S
C928 C475 1.422 . S
C933 C509 1.402 . S
C938 C141 1.349 . S
C943 C543 1.451 . S
C948 C277 1.402 . S
C953 C577 1.451 . S
C958 C209 1.404 . S
C963 C611 1.447 . S
C968 C243 1.400 . S
C973 C308 2.053 . S
C978 C2 2.053 . S
C983 C36 2.097 . S
C988 C342 2.098 . S
C993 C70 2.079 . S
C998 C376 2.081 . S
C1003 C104 2.053 . S
C1008 C410 2.053 . S
C1013 C444 2.097 . S
C1018 C138 2.098 . S
C1023 C172 2.079 . S
C1028 C478 2.081 . S
C1033 C206 2.015 . S
C1038 C512 2.015 . S
C1043 C546 2.024 . S
C1048 C240 2.024 . S
C1053 C274 2.018 . S
C1058 C580 2.018 . S
