# Generated by pormake.
# Topology ghw, (5)-cn, num edge types: 1
# Building blocks:
#     Node 0, Type 0, BuildingBlock: XOMCOT_clean_sbu_0, # of connection points: 5
#     Node 1, Type 0, BuildingBlock: XOMCOT_clean_sbu_0, # of connection points: 5
#     Node 2, Type 0, BuildingBlock: XOMCOT_clean_sbu_0, # of connection points: 5
#     Node 3, Type 0, BuildingBlock: XOMCOT_clean_sbu_0, # of connection points: 5
#     Node 4, Type 0, BuildingBlock: XOMCOT_clean_sbu_0, # of connection points: 5
#     Node 5, Type 0, BuildingBlock: XOMCOT_clean_sbu_0, # of connection points: 5
#     Node 6, Type 0, BuildingBlock: XOMCOT_clean_sbu_0, # of connection points: 5
#     Node 7, Type 0, BuildingBlock: XOMCOT_clean_sbu_0, # of connection points: 5
#     Node 8, Type 0, BuildingBlock: XOMCOT_clean_sbu_0, # of connection points: 5
#     Node 9, Type 0, BuildingBlock: XOMCOT_clean_sbu_0, # of connection points: 5
#     Node 10, Type 0, BuildingBlock: XOMCOT_clean_sbu_0, # of connection points: 5
#     Node 11, Type 0, BuildingBlock: XOMCOT_clean_sbu_0, # of connection points: 5
#     Node 12, Type 0, BuildingBlock: XOMCOT_clean_sbu_0, # of connection points: 5
#     Node 13, Type 0, BuildingBlock: XOMCOT_clean_sbu_0, # of connection points: 5
#     Node 14, Type 0, BuildingBlock: XOMCOT_clean_sbu_0, # of connection points: 5
#     Node 15, Type 0, BuildingBlock: XOMCOT_clean_sbu_0, # of connection points: 5
#     Edge 16, Type (0, 0), None
#     Edge 17, Type (0, 0), None
#     Edge 18, Type (0, 0), None
#     Edge 19, Type (0, 0), None
#     Edge 20, Type (0, 0), None
#     Edge 21, Type (0, 0), None
#     Edge 22, Type (0, 0), None
#     Edge 23, Type (0, 0), None
#     Edge 24, Type (0, 0), None
#     Edge 25, Type (0, 0), None
#     Edge 26, Type (0, 0), None
#     Edge 27, Type (0, 0), None
#     Edge 28, Type (0, 0), None
#     Edge 29, Type (0, 0), None
#     Edge 30, Type (0, 0), None
#     Edge 31, Type (0, 0), None
#     Edge 32, Type (0, 0), None
#     Edge 33, Type (0, 0), None
#     Edge 34, Type (0, 0), None
#     Edge 35, Type (0, 0), None
#     Edge 36, Type (0, 0), None
#     Edge 37, Type (0, 0), None
#     Edge 38, Type (0, 0), None
#     Edge 39, Type (0, 0), None
#     Edge 40, Type (0, 0), None
#     Edge 41, Type (0, 0), None
#     Edge 42, Type (0, 0), None
#     Edge 43, Type (0, 0), None
#     Edge 44, Type (0, 0), None
#     Edge 45, Type (0, 0), None
#     Edge 46, Type (0, 0), None
#     Edge 47, Type (0, 0), None
#     Edge 48, Type (0, 0), None
#     Edge 49, Type (0, 0), None
#     Edge 50, Type (0, 0), None
#     Edge 51, Type (0, 0), None
#     Edge 52, Type (0, 0), None
#     Edge 53, Type (0, 0), None
#     Edge 54, Type (0, 0), None
#     Edge 55, Type (0, 0), None
# Relax obj value: 0.230
# Max RMSD: 0.252
# Mean RMSD: 0.252
data_MOF--net-ghw--node1-XOMCOT_clean_sbu_0--edge1-none
_symmetry_space_group_name_H-M    P1
_symmetry_Int_Tables_number       1
_symmetry_cell_setting            triclinic
loop_
_symmetry_equiv_pos_as_xyz
'x, y, z'
_cell_length_a     16.365387
_cell_length_b     19.968048
_cell_length_c     18.245707
_cell_angle_alpha  90.00161
_cell_angle_beta   90.96644
_cell_angle_gamma 90.00119
loop_
_atom_site_label
_atom_site_type_symbol
_atom_site_fract_x
_atom_site_fract_y
_atom_site_fract_z
_atom_type_partial_charge
Co0 Co 0.18894 0.0662 0.44597 0.0
C1 C 0.31576 -0.02916 0.4077 0.0
C2 C 0.33446 0.00757 0.51666 0.0
C3 C 0.40691 -0.01754 0.4922 0.0
N4 N 0.27866 0.00462 0.46136 0.0
N5 N 0.39531 -0.03794 0.42238 0.0
H6 H 0.28766 -0.04322 0.35618 0.0
H7 H 0.3269 0.03294 0.56836 0.0
C8 C 0.08256 -0.04493 0.52419 0.0
O9 O 0.11079 -0.02808 0.58935 0.0
N10 N 0.09789 0.1257 0.43138 0.0
C11 C 0.09546 0.16981 0.37567 0.0
C12 C 1.01573 0.17757 0.35281 0.0
C13 C 1.01868 0.11109 0.44504 0.0
N14 N 0.96847 0.14112 0.39613 0.0
C15 C 0.24781 0.06543 0.29925 0.0
C16 C 0.10793 0.02154 0.22932 0.0
C17 C 0.17705 0.03629 0.18653 0.0
C18 C 0.24801 0.05667 0.22366 0.0
C19 C 0.11326 0.02378 0.30627 0.0
N20 N 0.18299 0.04576 0.34065 0.0
H21 H 0.30268 0.08494 0.32496 0.0
H22 H 0.05978 0.01182 0.33759 0.0
H23 H 0.14861 0.18857 0.34788 0.0
H24 H 0.9984 0.0754 0.48537 0.0
O25 O 0.26772 0.1412 0.43457 0.0
O26 O 0.22021 0.11348 0.54024 0.0
O27 O 0.10755 -0.01269 0.46716 0.0
C28 C 0.27039 0.15194 0.50357 0.0
H29 H 0.46475 -0.01532 0.52122 0.0
H30 H 0.99369 0.20494 0.30644 0.0
H31 H 1.04988 0.00866 0.20393 0.0
H32 H 0.303 0.06887 0.19473 0.0
Co33 Co 0.16221 0.06579 0.84463 0.0
C34 C 1.0351 -0.02922 0.88311 0.0
C35 C 1.01654 0.00722 0.77403 0.0
C36 C 0.94402 -0.01775 0.79852 0.0
N37 N 0.07231 0.00435 0.82937 0.0
N38 N 0.95555 -0.03798 0.8684 0.0
H39 H 0.06318 -0.04327 0.93465 0.0
H40 H 1.02419 0.03244 0.72224 0.0
C41 C 0.27048 -0.04455 0.76682 0.0
O42 O 0.24558 -0.02579 0.70125 0.0
N43 N 0.25337 0.1252 0.85913 0.0
C44 C 0.25568 0.16951 0.91467 0.0
C45 C 0.33536 0.17749 0.9375 0.0
C46 C 0.33262 0.11069 0.84553 0.0
N47 N 0.38274 0.14105 0.89429 0.0
C48 C 0.10323 0.06538 0.99136 0.0
C49 C 0.243 0.02143 0.06138 0.0
C50 C 0.17387 0.03623 0.10413 0.0
C51 C 0.10296 0.05665 0.06695 0.0
C52 C 0.23772 0.02359 0.98444 0.0
N53 N 0.16804 0.04558 0.95 0.0
H54 H 1.04842 0.08496 0.9656 0.0
H55 H 0.29121 0.01156 0.95316 0.0
H56 H 0.20247 0.18828 0.94237 0.0
H57 H 0.35301 0.07493 0.80534 0.0
O58 O 0.08362 0.14092 0.85584 0.0
O59 O 0.13101 0.11294 0.75023 0.0
O60 O 0.24329 -0.01346 0.82379 0.0
C61 C 0.0809 0.15152 0.78683 0.0
H62 H 0.88618 -0.01549 0.76949 0.0
H63 H 0.35729 0.20498 0.98382 0.0
H64 H 0.30104 0.00857 0.0868 0.0
H65 H 1.04798 0.06892 0.09586 0.0
Co66 Co 0.91361 0.78731 0.59533 0.0
C67 C 0.78679 0.88268 0.6336 0.0
C68 C 0.76809 0.84595 0.52464 0.0
C69 C 0.69564 0.87106 0.5491 0.0
N70 N 0.82389 0.84889 0.57994 0.0
N71 N 0.70724 0.89145 0.61892 0.0
H72 H 0.81489 0.89673 0.68512 0.0
H73 H 0.77565 0.82057 0.47294 0.0
C74 C 1.01999 0.89845 0.51711 0.0
O75 O 0.99176 0.88159 0.45195 0.0
N76 N 1.00466 0.72782 0.60992 0.0
C77 C 1.00709 0.6837 0.66563 0.0
C78 C 0.08682 0.67595 0.68849 0.0
C79 C 0.08387 0.74243 0.59626 0.0
N80 N 0.13408 0.71239 0.64517 0.0
C81 C 0.85474 0.78809 0.74205 0.0
C82 C 0.99462 0.83198 0.81198 0.0
C83 C 0.9255 0.81722 0.85477 0.0
C84 C 0.85454 0.79685 0.81764 0.0
C85 C 0.98929 0.82973 0.73503 0.0
N86 N 0.91956 0.80776 0.70065 0.0
H87 H 0.79987 0.76857 0.71634 0.0
H88 H 1.04277 0.8417 0.70371 0.0
H89 H 0.95394 0.66495 0.69342 0.0
H90 H 0.10415 0.77812 0.55593 0.0
O91 O 0.83483 0.71232 0.60673 0.0
O92 O 0.88234 0.74003 0.50106 0.0
O93 O 0.995 0.8662 0.57414 0.0
C94 C 0.83216 0.70158 0.53773 0.0
H95 H 0.6378 0.86883 0.52008 0.0
H96 H 0.10886 0.64857 0.73486 0.0
H97 H 0.05267 0.84485 0.83736 0.0
H98 H 0.79955 0.78465 0.84657 0.0
Co99 Co 0.94033 0.78773 0.19667 0.0
C100 C 0.06745 0.88274 0.15819 0.0
C101 C 0.08601 0.8463 0.26727 0.0
C102 C 0.15853 0.87127 0.24278 0.0
N103 N 1.03024 0.84917 0.21193 0.0
N104 N 0.147 0.89149 0.1729 0.0
H105 H 1.03937 0.89679 0.10665 0.0
H106 H 0.07836 0.82108 0.31906 0.0
C107 C 0.83206 0.89807 0.27448 0.0
O108 O 0.85697 0.8793 0.34005 0.0
N109 N 0.84918 0.72831 0.18217 0.0
C110 C 0.84687 0.684 0.12663 0.0
C111 C 0.76718 0.67603 0.10379 0.0
C112 C 0.76993 0.74282 0.19577 0.0
N113 N 0.71981 0.71247 0.14701 0.0
C114 C 0.99932 0.78813 0.04994 0.0
C115 C 0.85955 0.83209 0.97992 0.0
C116 C 0.92868 0.81728 0.93717 0.0
C117 C 0.99959 0.79686 0.97435 0.0
C118 C 0.86483 0.82992 0.05686 0.0
N119 N 0.93451 0.80794 0.0913 0.0
H120 H 0.05413 0.76856 0.0757 0.0
H121 H 0.81134 0.84195 0.08814 0.0
H122 H 0.90008 0.66524 0.09893 0.0
H123 H 0.74954 0.77859 0.23596 0.0
O124 O 1.01893 0.7126 0.18546 0.0
O125 O 0.97154 0.74058 0.29107 0.0
O126 O 0.85926 0.86698 0.2175 0.0
C127 C 1.02165 0.702 0.25447 0.0
H128 H 0.21637 0.869 0.27181 0.0
H129 H 0.74526 0.64853 0.05747 0.0
H130 H 0.80151 0.84494 0.9545 0.0
H131 H 0.05457 0.78459 0.94544 0.0
Co132 Co 0.19028 0.5658 0.94669 0.0
C133 C 0.31737 0.47078 0.9082 0.0
C134 C 0.33594 0.50722 1.01729 0.0
C135 C 0.40846 0.48225 0.99278 0.0
N136 N 0.28017 0.50435 0.96195 0.0
N137 N 0.39693 0.46202 0.9229 0.0
H138 H 0.28929 0.45673 0.85666 0.0
H139 H 0.3283 0.53244 0.06907 0.0
C140 C 0.08207 0.45541 0.02448 0.0
O141 O 0.10713 0.47407 0.09005 0.0
N142 N 0.09913 0.62522 0.93219 0.0
C143 C 0.09683 0.66953 0.87666 0.0
C144 C 1.01715 0.67749 0.8538 0.0
C145 C 1.01988 0.6107 0.94577 0.0
N146 N 0.96977 0.64103 0.89699 0.0
C147 C 0.24927 0.56539 0.79996 0.0
C148 C 0.10948 0.52148 0.72993 0.0
C149 C 0.17862 0.53626 0.68718 0.0
C150 C 0.24954 0.55667 0.72437 0.0
C151 C 0.11476 0.52363 0.80687 0.0
N152 N 0.18445 0.5456 0.84132 0.0
H153 H 0.30408 0.58495 0.82572 0.0
H154 H 0.06127 0.51161 0.83814 0.0
H155 H 0.15004 0.68831 0.84897 0.0
H156 H 0.99949 0.57493 0.98596 0.0
O157 O 0.26889 0.64092 0.93548 0.0
O158 O 0.2215 0.61295 0.04109 0.0
O159 O 0.10917 0.48656 0.96752 0.0
C160 C 0.27161 0.65152 1.00449 0.0
H161 H 0.4663 0.48452 0.02181 0.0
H162 H 0.99523 0.70498 0.80748 0.0
H163 H 0.05144 0.50865 0.70451 0.0
H164 H 0.30452 0.56893 0.69546 0.0
Co165 Co 0.16364 0.5662 0.34534 0.0
C166 C 1.03682 0.47083 0.38359 0.0
C167 C 1.01814 0.50754 0.27462 0.0
C168 C 0.94568 0.48244 0.29908 0.0
N169 N 0.07393 0.5046 0.32993 0.0
N170 N 0.95727 0.46206 0.3689 0.0
H171 H 0.06491 0.45677 0.43511 0.0
H172 H 1.02571 0.53291 0.22292 0.0
C173 C 0.27002 0.45506 0.26712 0.0
O174 O 0.24174 0.47188 0.20197 0.0
N175 N 0.25468 0.6257 0.35994 0.0
C176 C 0.25711 0.6698 0.41568 0.0
C177 C 0.33684 0.67757 0.43853 0.0
C178 C 0.33389 0.61111 0.34628 0.0
N179 N 0.3841 0.64114 0.3952 0.0
C180 C 0.10473 0.56543 0.49205 0.0
C181 C 0.24459 0.52152 0.56201 0.0
C182 C 0.17547 0.5363 0.60479 0.0
C183 C 0.10451 0.55668 0.56764 0.0
C184 C 0.23927 0.52377 0.48506 0.0
N185 N 0.16956 0.54575 0.45066 0.0
H186 H 1.04988 0.58495 0.46633 0.0
H187 H 0.29276 0.5118 0.45375 0.0
H188 H 0.20395 0.68855 0.44347 0.0
H189 H 0.35417 0.57542 0.30594 0.0
O190 O 0.08484 0.64118 0.35672 0.0
O191 O 0.13238 0.61347 0.25107 0.0
O192 O 0.24505 0.48732 0.32415 0.0
C193 C 0.08217 0.65191 0.28772 0.0
H194 H 0.88784 0.48468 0.27005 0.0
H195 H 0.35887 0.70495 0.4849 0.0
H196 H 0.30263 0.50864 0.58741 0.0
H197 H 1.04952 0.56889 0.59656 0.0
Co198 Co 0.91227 0.28772 0.09461 0.0
C199 C 0.78517 0.38274 0.1331 0.0
C200 C 0.76661 0.3463 0.02401 0.0
C201 C 0.69409 0.37127 0.04852 0.0
N202 N 0.82238 0.34917 0.07935 0.0
N203 N 0.70562 0.39149 0.1184 0.0
H204 H 0.81326 0.39679 0.18464 0.0
H205 H 0.77425 0.32108 0.97223 0.0
C206 C 1.02048 0.39811 1.01682 0.0
O207 O 0.99541 0.37945 0.95125 0.0
N208 N 1.00342 0.22829 0.1091 0.0
C209 C 1.00572 0.18398 0.16464 0.0
C210 C 0.0854 0.17603 0.1875 0.0
C211 C 0.08266 0.24282 0.09553 0.0
N212 N 0.13278 0.21248 0.14431 0.0
C213 C 0.85328 0.28812 0.24133 0.0
C214 C 0.99307 0.33203 0.31137 0.0
C215 C 0.92393 0.31725 0.35412 0.0
C216 C 0.85301 0.29685 0.31693 0.0
C217 C 0.98778 0.32988 0.23443 0.0
N218 N 0.9181 0.30792 0.19998 0.0
H219 H 0.79847 0.26856 0.21557 0.0
H220 H 1.04128 0.3419 0.20316 0.0
H221 H 0.95251 0.16521 0.19233 0.0
H222 H 0.10306 0.27858 0.05534 0.0
O223 O 0.83366 0.2126 0.10582 0.0
O224 O 0.88105 0.24057 1.00021 0.0
O225 O 0.99338 0.36695 0.07378 0.0
C226 C 0.83094 0.202 0.03681 0.0
H227 H 0.63625 0.369 1.01949 0.0
H228 H 0.10732 0.14854 0.23382 0.0
H229 H 1.05111 0.34487 0.33679 0.0
H230 H 0.79802 0.28458 0.34584 0.0
Co231 Co 0.93891 0.28732 0.69596 0.0
C232 C 0.06573 0.38269 0.65771 0.0
C233 C 0.08441 0.34597 0.76668 0.0
C234 C 0.15687 0.37107 0.74222 0.0
N235 N 1.02862 0.34891 0.71137 0.0
N236 N 0.14528 0.39146 0.6724 0.0
H237 H 1.03764 0.39674 0.60619 0.0
H238 H 0.07684 0.3206 0.81838 0.0
C239 C 0.83253 0.39846 0.77418 0.0
O240 O 0.86081 0.38164 0.83933 0.0
N241 N 0.84787 0.22781 0.68135 0.0
C242 C 0.84544 0.18371 0.62562 0.0
C243 C 0.76571 0.17595 0.60277 0.0
C244 C 0.76866 0.24241 0.69502 0.0
N245 N 0.71845 0.21238 0.6461 0.0
C246 C 0.99782 0.28809 0.54925 0.0
C247 C 0.85796 0.332 0.47929 0.0
C248 C 0.92708 0.31721 0.43651 0.0
C249 C 0.99804 0.29684 0.47366 0.0
C250 C 0.86327 0.32975 0.55624 0.0
N251 N 0.93299 0.30776 0.59064 0.0
H252 H 0.05267 0.26857 0.57497 0.0
H253 H 0.80979 0.34172 0.58755 0.0
H254 H 0.8986 0.16496 0.59783 0.0
H255 H 0.74838 0.27809 0.73536 0.0
O256 O 1.01771 0.21233 0.68458 0.0
O257 O 0.97017 0.24005 0.79023 0.0
O258 O 0.8575 0.36619 0.71715 0.0
C259 C 1.02038 0.2016 0.75357 0.0
H260 H 0.21471 0.36884 0.77125 0.0
H261 H 0.74368 0.14857 0.5564 0.0
H262 H 0.79992 0.34488 0.45389 0.0
H263 H 0.05302 0.28462 0.44474 0.0
Co264 Co 0.6889 0.06621 0.94595 0.0
C265 C 0.81573 -0.02912 0.90766 0.0
C266 C 0.8344 0.00755 1.01666 0.0
C267 C 0.9069 -0.01748 0.99219 0.0
N268 N 0.77859 0.0046 0.96135 0.0
N269 N 0.89528 -0.03776 0.92234 0.0
H270 H 0.78763 -0.0432 0.85615 0.0
H271 H 0.8268 0.03287 0.06839 0.0
C272 C 0.58261 -0.04498 0.02417 0.0
O273 O 0.61111 -0.02829 0.0893 0.0
N274 N 0.59788 0.12573 0.93136 0.0
C275 C 0.5954 0.16981 0.87561 0.0
C276 C 0.51565 0.17759 0.85282 0.0
C277 C 0.51868 0.11116 0.9451 0.0
N278 N 0.46843 0.14123 0.89625 0.0
C279 C 0.74779 0.06545 0.79923 0.0
C280 C 0.60793 0.02152 0.72929 0.0
C281 C 0.67706 0.0363 0.6865 0.0
C282 C 0.74801 0.05669 0.72365 0.0
C283 C 0.61325 0.02378 0.80623 0.0
N284 N 0.68296 0.04577 0.84063 0.0
H285 H 0.80265 0.08497 0.82495 0.0
H286 H 0.55976 0.01182 0.83755 0.0
H287 H 0.64854 0.18854 0.84777 0.0
H288 H 0.49843 0.07548 0.98545 0.0
O289 O 0.76772 0.14118 0.93456 0.0
O290 O 0.72019 0.11348 0.04022 0.0
O291 O 0.60745 -0.01264 0.96715 0.0
C292 C 0.7704 0.15191 1.00356 0.0
H293 H 0.96474 -0.01529 0.02122 0.0
H294 H 0.49358 0.20494 0.80644 0.0
H295 H 0.54989 0.00864 0.70389 0.0
H296 H 0.80299 0.06891 0.69472 0.0
Co297 Co 0.66225 0.06576 0.3446 0.0
C298 C 0.53513 -0.02921 0.38312 0.0
C299 C 0.51655 0.00719 0.27401 0.0
C300 C 0.444 -0.01772 0.29853 0.0
N301 N 0.57235 0.00431 0.32935 0.0
N302 N 0.45556 -0.03784 0.36843 0.0
H303 H 0.56321 -0.04329 0.43465 0.0
H304 H 0.52422 0.03237 0.2222 0.0
C305 C 0.77053 -0.04459 0.26681 0.0
O306 O 0.74564 -0.02581 0.20124 0.0
N307 N 0.7534 0.12517 0.35909 0.0
C308 C 0.75575 0.16949 0.41462 0.0
C309 C 0.83544 0.17747 0.43742 0.0
C310 C 0.83264 0.11066 0.34545 0.0
N311 N 0.88279 0.14105 0.39416 0.0
C312 C 0.60326 0.06538 0.49133 0.0
C313 C 0.74304 0.02147 0.56137 0.0
C314 C 0.6739 0.03626 0.60411 0.0
C315 C 0.60299 0.05667 0.56692 0.0
C316 C 0.73776 0.02361 0.48443 0.0
N317 N 0.66807 0.04557 0.44998 0.0
H318 H 0.54845 0.08495 0.46557 0.0
H319 H 0.79125 0.01158 0.45315 0.0
H320 H 0.70255 0.18826 0.44233 0.0
H321 H 0.85301 0.07487 0.30527 0.0
O322 O 0.58367 0.14089 0.35581 0.0
O323 O 0.63103 0.1129 0.2502 0.0
O324 O 0.74332 -0.0135 0.32378 0.0
C325 C 0.58094 0.15149 0.2868 0.0
H326 H 0.38616 -0.01548 0.2695 0.0
H327 H 0.8574 0.20495 0.48374 0.0
H328 H 0.80108 0.00863 0.58679 0.0
H329 H 0.548 0.06894 0.59583 0.0
Co330 Co 0.41365 0.7873 0.09535 0.0
C331 C 0.28682 0.88264 0.13364 0.0
C332 C 0.26814 0.84597 0.02464 0.0
C333 C 0.19565 0.87099 0.04911 0.0
N334 N 0.32396 0.84892 0.07995 0.0
N335 N 0.20727 0.89128 0.11895 0.0
H336 H 0.31492 0.89672 0.18515 0.0
H337 H 0.27575 0.82065 0.97291 0.0
C338 C 0.51994 0.89849 1.01712 0.0
O339 O 0.49144 0.88181 0.952 0.0
N340 N 0.50467 0.72778 0.10994 0.0
C341 C 0.50715 0.6837 0.16569 0.0
C342 C 0.58689 0.67593 0.18848 0.0
C343 C 0.58387 0.74235 0.0962 0.0
N344 N 0.63412 0.71229 0.14505 0.0
C345 C 0.35476 0.78807 0.24207 0.0
C346 C 0.49461 0.83199 0.31201 0.0
C347 C 0.42549 0.81722 0.35479 0.0
C348 C 0.35454 0.79683 0.31765 0.0
C349 C 0.4893 0.82973 0.23507 0.0
N350 N 0.41959 0.80775 0.20067 0.0
H351 H 0.2999 0.76854 0.21635 0.0
H352 H 0.54279 0.84169 0.20375 0.0
H353 H 0.45401 0.66498 0.19353 0.0
H354 H 0.60412 0.77804 0.05585 0.0
O355 O 0.33483 0.71233 0.10674 0.0
O356 O 0.38236 0.74003 1.00108 0.0
O357 O 0.49509 0.86615 0.07415 0.0
C358 C 0.33215 0.7016 0.03774 0.0
H359 H 0.13781 0.8688 1.02008 0.0
H360 H 0.60897 0.64857 0.23485 0.0
H361 H 0.55266 0.84487 0.33741 0.0
H362 H 0.29956 0.78461 0.34658 0.0
Co363 Co 0.4403 0.78776 0.6967 0.0
C364 C 0.56742 0.88272 0.65818 0.0
C365 C 0.586 0.84632 0.76729 0.0
C366 C 0.65855 0.87123 0.74277 0.0
N367 N 0.5302 0.8492 0.71195 0.0
N368 N 0.64698 0.89135 0.67287 0.0
H369 H 0.53934 0.8968 0.60665 0.0
H370 H 0.57833 0.82115 0.8191 0.0
C371 C 0.33202 0.8981 0.77449 0.0
O372 O 0.35691 0.87932 0.84006 0.0
N373 N 0.34914 0.72834 0.68221 0.0
C374 C 0.3468 0.68403 0.62668 0.0
C375 C 0.26711 0.67605 0.60388 0.0
C376 C 0.26991 0.74286 0.69584 0.0
N377 N 0.21976 0.71246 0.64714 0.0
C378 C 0.49929 0.78813 0.54997 0.0
C379 C 0.35951 0.83204 0.47993 0.0
C380 C 0.42865 0.81725 0.43719 0.0
C381 C 0.49956 0.79685 0.47437 0.0
C382 C 0.36479 0.82991 0.55687 0.0
N383 N 0.43448 0.80794 0.59132 0.0
H384 H 0.5541 0.76856 0.57573 0.0
H385 H 0.3113 0.84193 0.58815 0.0
H386 H 0.4 0.66526 0.59897 0.0
H387 H 0.24954 0.77864 0.73602 0.0
O388 O 0.51888 0.71262 0.68549 0.0
O389 O 0.47151 0.74062 0.7911 0.0
O390 O 0.35923 0.86702 0.71752 0.0
C391 C 0.52161 0.70203 0.7545 0.0
H392 H 0.71639 0.869 0.77179 0.0
H393 H 0.24515 0.64857 0.55756 0.0
H394 H 0.30147 0.84488 0.45451 0.0
H395 H 0.55455 0.78457 0.44547 0.0
Co396 Co 0.69033 0.56575 0.44668 0.0
C397 C 0.81745 0.47079 0.40815 0.0
C398 C 0.83602 0.50719 0.51726 0.0
C399 C 0.90858 0.48228 0.49275 0.0
N400 N 0.78023 0.50431 0.46192 0.0
N401 N 0.89701 0.46216 0.42284 0.0
H402 H 0.78937 0.45671 0.35662 0.0
H403 H 0.82835 0.53236 0.56908 0.0
C404 C 0.58204 0.45543 0.52448 0.0
O405 O 0.60691 0.47423 0.59005 0.0
N406 N 0.59918 0.62517 0.43219 0.0
C407 C 0.59683 0.66948 0.37666 0.0
C408 C 0.51713 0.67747 0.35387 0.0
C409 C 0.51994 0.61067 0.44585 0.0
N410 N 0.46978 0.64107 0.39716 0.0
C411 C 0.7493 0.56538 0.29994 0.0
C412 C 0.60953 0.52142 0.22991 0.0
C413 C 0.67866 0.53622 0.18717 0.0
C414 C 0.74957 0.55665 0.22435 0.0
C415 C 0.61482 0.52358 0.30685 0.0
N416 N 0.6845 0.54556 0.3413 0.0
H417 H 0.80411 0.58496 0.3257 0.0
H418 H 0.56133 0.51155 0.33813 0.0
H419 H 0.65002 0.68824 0.34893 0.0
H420 H 0.49957 0.57489 0.48603 0.0
O421 O 0.76892 0.64089 0.43547 0.0
O422 O 0.72155 0.6129 0.54108 0.0
O423 O 0.60926 0.4865 0.4675 0.0
C424 C 0.77165 0.65148 0.50448 0.0
H425 H 0.96641 0.4845 0.52178 0.0
H426 H 0.49517 0.70495 0.30755 0.0
H427 H 0.5515 0.50856 0.20449 0.0
H428 H 0.80455 0.56894 0.19544 0.0
Co429 Co 0.66359 0.56621 0.84533 0.0
C430 C 0.53674 0.47089 0.88363 0.0
C431 C 0.51805 0.50757 0.77464 0.0
C432 C 0.44556 0.48253 0.79911 0.0
N433 N 0.57387 0.50461 0.82995 0.0
N434 N 0.45718 0.46224 0.86896 0.0
H435 H 0.56484 0.45681 0.93515 0.0
H436 H 0.52565 0.53289 0.72291 0.0
C437 C 0.76994 0.45505 0.7671 0.0
O438 O 0.74165 0.47187 0.70195 0.0
N439 N 0.75464 0.62571 0.85991 0.0
C440 C 0.75711 0.66981 0.91564 0.0
C441 C 0.83686 0.67759 0.93844 0.0
C442 C 0.83383 0.61112 0.84618 0.0
N443 N 0.88409 0.64121 0.89502 0.0
C444 C 0.60473 0.56544 0.99206 0.0
C445 C 0.74461 0.52154 0.06197 0.0
C446 C 0.67549 0.5363 0.10477 0.0
C447 C 0.60453 0.55668 0.06764 0.0
C448 C 0.73927 0.52379 0.98503 0.0
N449 N 0.66954 0.54577 0.95065 0.0
H450 H 0.54986 0.58497 0.96636 0.0
H451 H 0.79275 0.51183 0.9537 0.0
H452 H 0.70398 0.68855 0.94348 0.0
H453 H 0.85408 0.57542 0.80585 0.0
O454 O 0.58481 0.6412 0.85674 0.0
O455 O 0.6323 0.61348 0.75107 0.0
O456 O 0.74499 0.48732 0.82413 0.0
C457 C 0.58212 0.65193 0.78774 0.0
H458 H 0.38772 0.48471 0.77009 0.0
H459 H 0.85894 0.70495 0.98481 0.0
H460 H 0.80266 0.50867 0.08736 0.0
H461 H 0.54954 0.56888 0.09658 0.0
Co462 Co 0.41222 0.28776 0.59462 0.0
C463 C 0.2851 0.38272 0.63315 0.0
C464 C 0.26653 0.34633 0.52404 0.0
C465 C 0.19397 0.37123 0.54855 0.0
N466 N 0.32232 0.3492 0.57938 0.0
N467 N 0.20554 0.39135 0.61846 0.0
H468 H 0.31318 0.3968 0.68468 0.0
H469 H 0.2742 0.32116 0.47222 0.0
C470 C 0.52051 0.39808 0.51682 0.0
O471 O 0.49564 0.37928 0.45125 0.0
N472 N 0.50337 0.22835 0.6091 0.0
C473 C 0.50572 0.18404 0.66464 0.0
C474 C 0.58542 0.17605 0.68742 0.0
C475 C 0.58261 0.24285 0.59545 0.0
N476 N 0.63277 0.21244 0.64414 0.0
C477 C 0.35325 0.28814 0.74136 0.0
C478 C 0.49302 0.3321 0.81139 0.0
C479 C 0.42388 0.31729 0.85413 0.0
C480 C 0.35298 0.29686 0.81695 0.0
C481 C 0.48773 0.32994 0.73445 0.0
N482 N 0.41805 0.30795 0.7 0.0
H483 H 0.29844 0.26856 0.7156 0.0
H484 H 0.54122 0.34197 0.70317 0.0
H485 H 0.45253 0.16528 0.69237 0.0
H486 H 0.60298 0.27863 0.55527 0.0
O487 O 0.33363 0.21263 0.60583 0.0
O488 O 0.381 0.24062 0.50022 0.0
O489 O 0.49329 0.36702 0.5738 0.0
C490 C 0.3309 0.20204 0.53682 0.0
H491 H 0.13614 0.36901 0.51952 0.0
H492 H 0.60738 0.14857 0.73374 0.0
H493 H 0.55105 0.34495 0.8368 0.0
H494 H 0.298 0.28458 0.84586 0.0
Co495 Co 0.43896 0.28731 0.19597 0.0
C496 C 0.56581 0.38262 0.15767 0.0
C497 C 0.5845 0.34595 0.26666 0.0
C498 C 0.65699 0.37099 0.24218 0.0
N499 N 0.52868 0.3489 0.21135 0.0
N500 N 0.64537 0.39127 0.17234 0.0
H501 H 0.53771 0.39671 0.10615 0.0
H502 H 0.5769 0.32063 0.31839 0.0
C503 C 0.33261 0.39846 0.2742 0.0
O504 O 0.3609 0.38164 0.33935 0.0
N505 N 0.34791 0.22781 0.18139 0.0
C506 C 0.34544 0.1837 0.12566 0.0
C507 C 0.26569 0.17592 0.10286 0.0
C508 C 0.26872 0.24239 0.19512 0.0
N509 N 0.21846 0.21231 0.14628 0.0
C510 C 0.49782 0.28807 0.04924 0.0
C511 C 0.35794 0.33197 0.97933 0.0
C512 C 0.42706 0.31721 0.93653 0.0
C513 C 0.49802 0.29684 0.97365 0.0
C514 C 0.36328 0.32972 0.05627 0.0
N515 N 0.43301 0.30774 0.09065 0.0
H516 H 0.55269 0.26855 0.07494 0.0
H517 H 0.3098 0.34168 0.08759 0.0
H518 H 0.39857 0.16497 0.09782 0.0
H519 H 0.24847 0.27809 0.23545 0.0
O520 O 0.51774 0.21232 0.18456 0.0
O521 O 0.47025 0.24004 0.29023 0.0
O522 O 0.35756 0.36619 0.21717 0.0
C523 C 0.52043 0.20159 0.25356 0.0
H524 H 0.71483 0.3688 0.27121 0.0
H525 H 0.24361 0.14856 0.05649 0.0
H526 H 0.29989 0.34484 0.95394 0.0
H527 H 0.55301 0.28464 0.94472 0.0
loop_
_geom_bond_atom_site_label_1
_geom_bond_atom_site_label_2
_geom_bond_distance
_geom_bond_site_symmetry_2
_ccdc_geom_bond_type
Co0 N4 2.148 . S
Co0 N10 2.128 . S
Co0 N20 2.194 . S
Co0 O25 2.351 . S
Co0 O26 2.155 . S
Co0 O27 2.096 . S
C1 N4 1.301 . S
C1 N5 1.328 . S
C1 H6 0.930 . S
C2 C3 1.333 . S
C2 N4 1.318 1_565 S
C2 H7 0.929 . S
C3 C2 1.333 . S
C3 N5 1.350 1_565 S
C3 H29 0.931 . S
N4 Co0 2.148 . S
N4 C1 1.301 . S
N4 C2 1.318 1_545 S
N5 C1 1.328 . S
N5 C3 1.350 1_545 S
H6 C1 0.930 . S
H7 C2 0.929 . S
C8 O9 1.224 . S
C8 O27 1.247 1_565 S
O9 C8 1.224 . S
N10 Co0 2.128 . S
N10 C11 1.358 . S
N10 C13 1.311 1_455 S
C11 N10 1.358 . S
C11 C12 1.349 1_455 S
C11 H23 0.938 . S
C12 C11 1.349 1_655 S
C12 N14 1.375 . S
C12 H30 0.931 . S
C13 N10 1.311 1_655 S
C13 N14 1.347 . S
C13 H24 0.929 . S
N14 C12 1.375 . S
N14 C13 1.347 . S
C15 C18 1.365 . S
C15 N20 1.328 . S
C15 H21 0.929 . S
C16 C17 1.362 . S
C16 C19 1.378 . S
C16 H31 0.929 . S
C17 C16 1.362 . S
C17 C18 1.366 . S
C18 C15 1.365 . S
C18 C17 1.366 . S
C18 H32 0.930 . S
C19 C16 1.378 . S
C19 N20 1.315 . S
C19 H22 0.930 . S
N20 Co0 2.194 . S
N20 C15 1.328 . S
N20 C19 1.315 . S
H21 C15 0.929 . S
H22 C19 0.930 . S
H23 C11 0.938 . S
H24 C13 0.929 . S
O25 Co0 2.351 . S
O25 C28 1.244 . S
O26 Co0 2.155 . S
O26 C28 1.240 . S
O27 Co0 2.096 . S
O27 C8 1.247 1_545 S
C28 O25 1.244 . S
C28 O26 1.240 . S
H29 C3 0.931 . S
H30 C12 0.931 . S
H31 C16 0.929 . S
H32 C18 0.930 . S
Co33 N37 2.148 . S
Co33 N43 2.128 . S
Co33 N53 2.194 . S
Co33 O58 2.351 . S
Co33 O59 2.155 . S
Co33 O60 2.096 . S
C34 N37 1.301 1_655 S
C34 N38 1.328 . S
C34 H39 0.930 . S
C35 C36 1.333 . S
C35 N37 1.318 1_665 S
C35 H40 0.929 1_655 S
C36 C35 1.333 . S
C36 N38 1.350 1_565 S
C36 H62 0.931 . S
N37 Co33 2.148 . S
N37 C34 1.301 1_455 S
N37 C35 1.318 1_445 S
N38 C34 1.328 . S
N38 C36 1.350 1_545 S
H39 C34 0.930 . S
H40 C35 0.929 1_455 S
C41 O42 1.224 . S
C41 O60 1.247 1_565 S
O42 C41 1.224 . S
N43 Co33 2.128 . S
N43 C44 1.355 . S
N43 C46 1.311 . S
C44 N43 1.355 . S
C44 C45 1.363 . S
C44 H56 0.929 . S
C45 C44 1.363 . S
C45 N47 1.375 . S
C45 H63 0.931 . S
C46 N43 1.311 . S
C46 N47 1.347 . S
C46 H57 0.929 . S
N47 C45 1.375 . S
N47 C46 1.347 . S
C48 C51 1.365 1_556 S
C48 N53 1.328 . S
C48 H54 0.929 . S
C49 C50 1.362 . S
C49 C52 1.378 1_554 S
C49 H64 0.929 . S
C50 C49 1.362 . S
C50 C51 1.366 . S
C51 C48 1.365 1_554 S
C51 C50 1.366 . S
C51 H65 0.930 . S
C52 C49 1.378 1_556 S
C52 N53 1.315 . S
C52 H55 0.930 . S
N53 Co33 2.194 . S
N53 C48 1.328 . S
N53 C52 1.315 . S
H54 C48 0.929 . S
H55 C52 0.930 . S
H56 C44 0.929 . S
H57 C46 0.929 . S
O58 Co33 2.351 . S
O58 C61 1.244 . S
O59 Co33 2.155 . S
O59 C61 1.240 . S
O60 Co33 2.096 . S
O60 C41 1.247 1_545 S
C61 O58 1.244 . S
C61 O59 1.240 . S
H62 C36 0.931 . S
H63 C45 0.931 . S
H64 C49 0.929 . S
H65 C51 0.930 . S
Co66 N70 2.148 . S
Co66 N76 2.128 . S
Co66 N86 2.194 . S
Co66 O91 2.351 . S
Co66 O92 2.155 . S
Co66 O93 2.096 . S
C67 N70 1.301 . S
C67 N71 1.328 . S
C67 H72 0.930 . S
C68 C69 1.333 . S
C68 N70 1.318 1_545 S
C68 H73 0.929 . S
C69 C68 1.333 . S
C69 N71 1.350 1_545 S
C69 H95 0.931 . S
N70 Co66 2.148 . S
N70 C67 1.301 . S
N70 C68 1.318 1_565 S
N71 C67 1.328 . S
N71 C69 1.350 1_565 S
H72 C67 0.930 . S
H73 C68 0.929 . S
C74 O75 1.224 . S
C74 O93 1.247 1_545 S
O75 C74 1.224 . S
N76 Co66 2.128 . S
N76 C77 1.358 . S
N76 C79 1.311 1_655 S
C77 N76 1.358 . S
C77 C78 1.349 1_655 S
C77 H89 0.938 . S
C78 C77 1.349 1_455 S
C78 N80 1.375 . S
C78 H96 0.931 . S
C79 N76 1.311 1_455 S
C79 N80 1.347 . S
C79 H90 0.929 . S
N80 C78 1.375 . S
N80 C79 1.347 . S
C81 C84 1.365 . S
C81 N86 1.328 . S
C81 H87 0.929 . S
C82 C83 1.362 . S
C82 C85 1.378 . S
C82 H97 0.929 . S
C83 C82 1.362 . S
C83 C84 1.366 . S
C84 C81 1.365 . S
C84 C83 1.366 . S
C84 H98 0.930 . S
C85 C82 1.378 . S
C85 N86 1.315 . S
C85 H88 0.930 . S
N86 Co66 2.194 . S
N86 C81 1.328 . S
N86 C85 1.315 . S
H87 C81 0.929 . S
H88 C85 0.930 . S
H89 C77 0.938 . S
H90 C79 0.929 . S
O91 Co66 2.351 . S
O91 C94 1.244 . S
O92 Co66 2.155 . S
O92 C94 1.240 . S
O93 Co66 2.096 . S
O93 C74 1.247 1_565 S
C94 O91 1.244 . S
C94 O92 1.240 . S
H95 C69 0.931 . S
H96 C78 0.931 . S
H97 C82 0.929 . S
H98 C84 0.930 . S
Co99 N103 2.148 . S
Co99 N109 2.128 . S
Co99 N119 2.194 . S
Co99 O124 2.351 . S
Co99 O125 2.155 . S
Co99 O126 2.096 . S
C100 N103 1.301 1_455 S
C100 N104 1.328 . S
C100 H105 0.930 . S
C101 C102 1.333 . S
C101 N103 1.318 1_445 S
C101 H106 0.929 1_455 S
C102 C101 1.333 . S
C102 N104 1.350 1_545 S
C102 H128 0.931 . S
N103 Co99 2.148 . S
N103 C100 1.301 1_655 S
N103 C101 1.318 1_665 S
N104 C100 1.328 . S
N104 C102 1.350 1_565 S
H105 C100 0.930 . S
H106 C101 0.929 1_655 S
C107 O108 1.224 . S
C107 O126 1.247 1_545 S
O108 C107 1.224 . S
N109 Co99 2.128 . S
N109 C110 1.355 . S
N109 C112 1.311 . S
C110 N109 1.355 . S
C110 C111 1.363 . S
C110 H122 0.929 . S
C111 C110 1.363 . S
C111 N113 1.375 . S
C111 H129 0.931 . S
C112 N109 1.311 . S
C112 N113 1.347 . S
C112 H123 0.929 . S
N113 C111 1.375 . S
N113 C112 1.347 . S
C114 C117 1.365 1_554 S
C114 N119 1.328 . S
C114 H120 0.929 . S
C115 C116 1.362 . S
C115 C118 1.378 1_556 S
C115 H130 0.929 . S
C116 C115 1.362 . S
C116 C117 1.366 . S
C117 C114 1.365 1_556 S
C117 C116 1.366 . S
C117 H131 0.930 . S
C118 C115 1.378 1_554 S
C118 N119 1.315 . S
C118 H121 0.930 . S
N119 Co99 2.194 . S
N119 C114 1.328 . S
N119 C118 1.315 . S
H120 C114 0.929 . S
H121 C118 0.930 . S
H122 C110 0.929 . S
H123 C112 0.929 . S
O124 Co99 2.351 . S
O124 C127 1.244 . S
O125 Co99 2.155 . S
O125 C127 1.240 . S
O126 Co99 2.096 . S
O126 C107 1.247 1_565 S
C127 O124 1.244 . S
C127 O125 1.240 . S
H128 C102 0.931 . S
H129 C111 0.931 . S
H130 C115 0.929 . S
H131 C117 0.930 . S
Co132 N136 2.148 . S
Co132 N142 2.128 . S
Co132 N152 2.194 . S
Co132 O157 2.351 . S
Co132 O158 2.155 1_556 S
Co132 O159 2.096 . S
C133 N136 1.301 . S
C133 N137 1.328 . S
C133 H138 0.930 . S
C134 C135 1.333 . S
C134 N136 1.317 . S
C134 H139 0.930 . S
C135 C134 1.333 . S
C135 N137 1.350 . S
C135 H161 0.931 . S
N136 Co132 2.148 . S
N136 C133 1.301 . S
N136 C134 1.317 . S
N137 C133 1.328 . S
N137 C135 1.350 . S
H138 C133 0.930 . S
H139 C134 0.930 . S
C140 O141 1.224 . S
C140 O159 1.247 . S
O141 C140 1.224 . S
N142 Co132 2.128 . S
N142 C143 1.358 . S
N142 C145 1.311 1_455 S
C143 N142 1.358 . S
C143 C144 1.349 1_455 S
C143 H155 0.938 . S
C144 C143 1.349 1_655 S
C144 N146 1.375 . S
C144 H162 0.931 . S
C145 N142 1.311 1_655 S
C145 N146 1.347 . S
C145 H156 0.929 . S
N146 C144 1.375 . S
N146 C145 1.347 . S
C147 C150 1.365 . S
C147 N152 1.328 . S
C147 H153 0.929 . S
C148 C149 1.362 . S
C148 C151 1.378 . S
C148 H163 0.929 . S
C149 C148 1.362 . S
C149 C150 1.366 . S
C150 C147 1.365 . S
C150 C149 1.366 . S
C150 H164 0.930 . S
C151 C148 1.378 . S
C151 N152 1.315 . S
C151 H154 0.930 . S
N152 Co132 2.194 . S
N152 C147 1.328 . S
N152 C151 1.315 . S
H153 C147 0.929 . S
H154 C151 0.930 . S
H155 C143 0.938 . S
H156 C145 0.929 . S
O157 Co132 2.351 . S
O157 C160 1.244 . S
O158 Co132 2.155 1_554 S
O158 C160 1.240 1_554 S
O159 Co132 2.096 . S
O159 C140 1.247 . S
C160 O157 1.244 . S
C160 O158 1.240 1_556 S
H161 C135 0.931 . S
H162 C144 0.931 . S
H163 C148 0.929 . S
H164 C150 0.930 . S
Co165 N169 2.148 . S
Co165 N175 2.128 . S
Co165 N185 2.194 . S
Co165 O190 2.351 . S
Co165 O191 2.155 . S
Co165 O192 2.096 . S
C166 N169 1.301 1_655 S
C166 N170 1.328 . S
C166 H171 0.930 . S
C167 C168 1.334 . S
C167 N169 1.317 1_655 S
C167 H172 0.930 1_655 S
C168 C167 1.334 . S
C168 N170 1.350 . S
C168 H194 0.931 . S
N169 Co165 2.148 . S
N169 C166 1.301 1_455 S
N169 C167 1.317 1_455 S
N170 C166 1.328 . S
N170 C168 1.350 . S
H171 C166 0.930 . S
H172 C167 0.930 1_455 S
C173 O174 1.224 . S
C173 O192 1.247 . S
O174 C173 1.224 . S
N175 Co165 2.128 . S
N175 C176 1.355 . S
N175 C178 1.311 . S
C176 N175 1.355 . S
C176 C177 1.363 . S
C176 H188 0.929 . S
C177 C176 1.363 . S
C177 N179 1.375 . S
C177 H195 0.931 . S
C178 N175 1.311 . S
C178 N179 1.347 . S
C178 H189 0.929 . S
N179 C177 1.375 . S
N179 C178 1.347 . S
C180 C183 1.365 . S
C180 N185 1.328 . S
C180 H186 0.929 . S
C181 C182 1.362 . S
C181 C184 1.378 . S
C181 H196 0.929 . S
C182 C181 1.362 . S
C182 C183 1.366 . S
C183 C180 1.365 . S
C183 C182 1.366 . S
C183 H197 0.930 . S
C184 C181 1.378 . S
C184 N185 1.315 . S
C184 H187 0.930 . S
N185 Co165 2.194 . S
N185 C180 1.328 . S
N185 C184 1.315 . S
H186 C180 0.929 . S
H187 C184 0.930 . S
H188 C176 0.929 . S
H189 C178 0.929 . S
O190 Co165 2.351 . S
O190 C193 1.244 . S
O191 Co165 2.155 . S
O191 C193 1.240 . S
O192 Co165 2.096 . S
O192 C173 1.247 . S
C193 O190 1.244 . S
C193 O191 1.240 . S
H194 C168 0.931 . S
H195 C177 0.931 . S
H196 C181 0.929 . S
H197 C183 0.930 . S
Co198 N202 2.148 . S
Co198 N208 2.128 . S
Co198 N218 2.194 . S
Co198 O223 2.351 . S
Co198 O224 2.155 1_554 S
Co198 O225 2.096 . S
C199 N202 1.301 . S
C199 N203 1.328 . S
C199 H204 0.930 . S
C200 C201 1.333 . S
C200 N202 1.317 . S
C200 H205 0.930 . S
C201 C200 1.333 . S
C201 N203 1.350 . S
C201 H227 0.931 . S
N202 Co198 2.148 . S
N202 C199 1.301 . S
N202 C200 1.317 . S
N203 C199 1.328 . S
N203 C201 1.350 . S
H204 C199 0.930 . S
H205 C200 0.930 . S
C206 O207 1.224 . S
C206 O225 1.247 . S
O207 C206 1.224 . S
N208 Co198 2.128 . S
N208 C209 1.358 . S
N208 C211 1.311 1_655 S
C209 N208 1.358 . S
C209 C210 1.349 1_655 S
C209 H221 0.938 . S
C210 C209 1.349 1_455 S
C210 N212 1.375 . S
C210 H228 0.931 . S
C211 N208 1.311 1_455 S
C211 N212 1.347 . S
C211 H222 0.929 . S
N212 C210 1.375 . S
N212 C211 1.347 . S
C213 C216 1.365 . S
C213 N218 1.328 . S
C213 H219 0.929 . S
C214 C215 1.362 . S
C214 C217 1.378 . S
C214 H229 0.929 . S
C215 C214 1.362 . S
C215 C216 1.366 . S
C216 C213 1.365 . S
C216 C215 1.366 . S
C216 H230 0.930 . S
C217 C214 1.378 . S
C217 N218 1.315 . S
C217 H220 0.930 . S
N218 Co198 2.194 . S
N218 C213 1.328 . S
N218 C217 1.315 . S
H219 C213 0.929 . S
H220 C217 0.930 . S
H221 C209 0.938 . S
H222 C211 0.929 . S
O223 Co198 2.351 . S
O223 C226 1.244 . S
O224 Co198 2.155 1_556 S
O224 C226 1.240 1_556 S
O225 Co198 2.096 . S
O225 C206 1.247 . S
C226 O223 1.244 . S
C226 O224 1.240 1_554 S
H227 C201 0.931 . S
H228 C210 0.931 . S
H229 C214 0.929 . S
H230 C216 0.930 . S
Co231 N235 2.148 . S
Co231 N241 2.128 . S
Co231 N251 2.194 . S
Co231 O256 2.351 . S
Co231 O257 2.155 . S
Co231 O258 2.096 . S
C232 N235 1.301 1_455 S
C232 N236 1.328 . S
C232 H237 0.930 . S
C233 C234 1.334 . S
C233 N235 1.317 1_455 S
C233 H238 0.930 1_455 S
C234 C233 1.334 . S
C234 N236 1.350 . S
C234 H260 0.931 . S
N235 Co231 2.148 . S
N235 C232 1.301 1_655 S
N235 C233 1.317 1_655 S
N236 C232 1.328 . S
N236 C234 1.350 . S
H237 C232 0.930 . S
H238 C233 0.930 1_655 S
C239 O240 1.224 . S
C239 O258 1.247 . S
O240 C239 1.224 . S
N241 Co231 2.128 . S
N241 C242 1.355 . S
N241 C244 1.311 . S
C242 N241 1.355 . S
C242 C243 1.363 . S
C242 H254 0.929 . S
C243 C242 1.363 . S
C243 N245 1.375 . S
C243 H261 0.931 . S
C244 N241 1.311 . S
C244 N245 1.347 . S
C244 H255 0.929 . S
N245 C243 1.375 . S
N245 C244 1.347 . S
C246 C249 1.365 . S
C246 N251 1.328 . S
C246 H252 0.929 . S
C247 C248 1.362 . S
C247 C250 1.378 . S
C247 H262 0.929 . S
C248 C247 1.362 . S
C248 C249 1.366 . S
C249 C246 1.365 . S
C249 C248 1.366 . S
C249 H263 0.930 . S
C250 C247 1.378 . S
C250 N251 1.315 . S
C250 H253 0.930 . S
N251 Co231 2.194 . S
N251 C246 1.328 . S
N251 C250 1.315 . S
H252 C246 0.929 . S
H253 C250 0.930 . S
H254 C242 0.929 . S
H255 C244 0.929 . S
O256 Co231 2.351 . S
O256 C259 1.244 . S
O257 Co231 2.155 . S
O257 C259 1.240 . S
O258 Co231 2.096 . S
O258 C239 1.247 . S
C259 O256 1.244 . S
C259 O257 1.240 . S
H260 C234 0.931 . S
H261 C243 0.931 . S
H262 C247 0.929 . S
H263 C249 0.930 . S
Co264 N268 2.148 . S
Co264 N274 2.128 . S
Co264 N284 2.194 . S
Co264 O289 2.351 . S
Co264 O290 2.155 1_556 S
Co264 O291 2.096 . S
C265 N268 1.301 . S
C265 N269 1.328 . S
C265 H270 0.930 . S
C266 C267 1.333 . S
C266 N268 1.318 1_565 S
C266 H271 0.929 . S
C267 C266 1.333 . S
C267 N269 1.350 1_565 S
C267 H293 0.931 . S
N268 Co264 2.148 . S
N268 C265 1.301 . S
N268 C266 1.318 1_545 S
N269 C265 1.328 . S
N269 C267 1.350 1_545 S
H270 C265 0.930 . S
H271 C266 0.929 . S
C272 O273 1.224 . S
C272 O291 1.247 1_565 S
O273 C272 1.224 . S
N274 Co264 2.128 . S
N274 C275 1.355 . S
N274 C277 1.311 . S
C275 N274 1.355 . S
C275 C276 1.363 . S
C275 H287 0.929 . S
C276 C275 1.363 . S
C276 N278 1.375 . S
C276 H294 0.931 . S
C277 N274 1.311 . S
C277 N278 1.347 . S
C277 H288 0.929 . S
N278 C276 1.375 . S
N278 C277 1.347 . S
C279 C282 1.365 . S
C279 N284 1.328 . S
C279 H285 0.929 . S
C280 C281 1.362 . S
C280 C283 1.378 . S
C280 H295 0.929 . S
C281 C280 1.362 . S
C281 C282 1.366 . S
C282 C279 1.365 . S
C282 C281 1.366 . S
C282 H296 0.930 . S
C283 C280 1.378 . S
C283 N284 1.315 . S
C283 H286 0.930 . S
N284 Co264 2.194 . S
N284 C279 1.328 . S
N284 C283 1.315 . S
H285 C279 0.929 . S
H286 C283 0.930 . S
H287 C275 0.929 . S
H288 C277 0.929 . S
O289 Co264 2.351 . S
O289 C292 1.244 . S
O290 Co264 2.155 1_554 S
O290 C292 1.240 1_554 S
O291 Co264 2.096 . S
O291 C272 1.247 1_545 S
C292 O289 1.244 . S
C292 O290 1.240 1_556 S
H293 C267 0.931 . S
H294 C276 0.931 . S
H295 C280 0.929 . S
H296 C282 0.930 . S
Co297 N301 2.148 . S
Co297 N307 2.128 . S
Co297 N317 2.194 . S
Co297 O322 2.351 . S
Co297 O323 2.155 . S
Co297 O324 2.096 . S
C298 N301 1.301 . S
C298 N302 1.328 . S
C298 H303 0.930 . S
C299 C300 1.333 . S
C299 N301 1.318 1_565 S
C299 H304 0.929 . S
C300 C299 1.333 . S
C300 N302 1.350 1_565 S
C300 H326 0.931 . S
N301 Co297 2.148 . S
N301 C298 1.301 . S
N301 C299 1.318 1_545 S
N302 C298 1.328 . S
N302 C300 1.350 1_545 S
H303 C298 0.930 . S
H304 C299 0.929 . S
C305 O306 1.224 . S
C305 O324 1.247 1_565 S
O306 C305 1.224 . S
N307 Co297 2.128 . S
N307 C308 1.355 . S
N307 C310 1.311 . S
C308 N307 1.355 . S
C308 C309 1.363 . S
C308 H320 0.929 . S
C309 C308 1.363 . S
C309 N311 1.375 . S
C309 H327 0.931 . S
C310 N307 1.311 . S
C310 N311 1.347 . S
C310 H321 0.929 . S
N311 C309 1.375 . S
N311 C310 1.347 . S
C312 C315 1.365 . S
C312 N317 1.328 . S
C312 H318 0.929 . S
C313 C314 1.362 . S
C313 C316 1.378 . S
C313 H328 0.929 . S
C314 C313 1.362 . S
C314 C315 1.366 . S
C315 C312 1.365 . S
C315 C314 1.366 . S
C315 H329 0.930 . S
C316 C313 1.378 . S
C316 N317 1.315 . S
C316 H319 0.930 . S
N317 Co297 2.194 . S
N317 C312 1.328 . S
N317 C316 1.315 . S
H318 C312 0.929 . S
H319 C316 0.930 . S
H320 C308 0.929 . S
H321 C310 0.929 . S
O322 Co297 2.351 . S
O322 C325 1.244 . S
O323 Co297 2.155 . S
O323 C325 1.240 . S
O324 Co297 2.096 . S
O324 C305 1.247 1_545 S
C325 O322 1.244 . S
C325 O323 1.240 . S
H326 C300 0.931 . S
H327 C309 0.931 . S
H328 C313 0.929 . S
H329 C315 0.930 . S
Co330 N334 2.148 . S
Co330 N340 2.128 . S
Co330 N350 2.194 . S
Co330 O355 2.351 . S
Co330 O356 2.155 1_554 S
Co330 O357 2.096 . S
C331 N334 1.301 . S
C331 N335 1.328 . S
C331 H336 0.930 . S
C332 C333 1.333 . S
C332 N334 1.318 1_545 S
C332 H337 0.929 . S
C333 C332 1.333 . S
C333 N335 1.350 1_545 S
C333 H359 0.931 . S
N334 Co330 2.148 . S
N334 C331 1.301 . S
N334 C332 1.318 1_565 S
N335 C331 1.328 . S
N335 C333 1.350 1_565 S
H336 C331 0.930 . S
H337 C332 0.929 . S
C338 O339 1.224 . S
C338 O357 1.247 1_545 S
O339 C338 1.224 . S
N340 Co330 2.128 . S
N340 C341 1.355 . S
N340 C343 1.311 . S
C341 N340 1.355 . S
C341 C342 1.363 . S
C341 H353 0.929 . S
C342 C341 1.363 . S
C342 N344 1.375 . S
C342 H360 0.931 . S
C343 N340 1.311 . S
C343 N344 1.347 . S
C343 H354 0.929 . S
N344 C342 1.375 . S
N344 C343 1.347 . S
C345 C348 1.365 . S
C345 N350 1.328 . S
C345 H351 0.929 . S
C346 C347 1.362 . S
C346 C349 1.378 . S
C346 H361 0.929 . S
C347 C346 1.362 . S
C347 C348 1.366 . S
C348 C345 1.365 . S
C348 C347 1.366 . S
C348 H362 0.930 . S
C349 C346 1.378 . S
C349 N350 1.315 . S
C349 H352 0.930 . S
N350 Co330 2.194 . S
N350 C345 1.328 . S
N350 C349 1.315 . S
H351 C345 0.929 . S
H352 C349 0.930 . S
H353 C341 0.929 . S
H354 C343 0.929 . S
O355 Co330 2.351 . S
O355 C358 1.244 . S
O356 Co330 2.155 1_556 S
O356 C358 1.240 1_556 S
O357 Co330 2.096 . S
O357 C338 1.247 1_565 S
C358 O355 1.244 . S
C358 O356 1.240 1_554 S
H359 C333 0.931 . S
H360 C342 0.931 . S
H361 C346 0.929 . S
H362 C348 0.930 . S
Co363 N367 2.148 . S
Co363 N373 2.128 . S
Co363 N383 2.194 . S
Co363 O388 2.351 . S
Co363 O389 2.155 . S
Co363 O390 2.096 . S
C364 N367 1.301 . S
C364 N368 1.328 . S
C364 H369 0.930 . S
C365 C366 1.333 . S
C365 N367 1.318 1_545 S
C365 H370 0.929 . S
C366 C365 1.333 . S
C366 N368 1.350 1_545 S
C366 H392 0.931 . S
N367 Co363 2.148 . S
N367 C364 1.301 . S
N367 C365 1.318 1_565 S
N368 C364 1.328 . S
N368 C366 1.350 1_565 S
H369 C364 0.930 . S
H370 C365 0.929 . S
C371 O372 1.224 . S
C371 O390 1.247 1_545 S
O372 C371 1.224 . S
N373 Co363 2.128 . S
N373 C374 1.355 . S
N373 C376 1.311 . S
C374 N373 1.355 . S
C374 C375 1.363 . S
C374 H386 0.929 . S
C375 C374 1.363 . S
C375 N377 1.375 . S
C375 H393 0.931 . S
C376 N373 1.311 . S
C376 N377 1.347 . S
C376 H387 0.929 . S
N377 C375 1.375 . S
N377 C376 1.347 . S
C378 C381 1.365 . S
C378 N383 1.328 . S
C378 H384 0.929 . S
C379 C380 1.362 . S
C379 C382 1.378 . S
C379 H394 0.929 . S
C380 C379 1.362 . S
C380 C381 1.366 . S
C381 C378 1.365 . S
C381 C380 1.366 . S
C381 H395 0.930 . S
C382 C379 1.378 . S
C382 N383 1.315 . S
C382 H385 0.930 . S
N383 Co363 2.194 . S
N383 C378 1.328 . S
N383 C382 1.315 . S
H384 C378 0.929 . S
H385 C382 0.930 . S
H386 C374 0.929 . S
H387 C376 0.929 . S
O388 Co363 2.351 . S
O388 C391 1.244 . S
O389 Co363 2.155 . S
O389 C391 1.240 . S
O390 Co363 2.096 . S
O390 C371 1.247 1_565 S
C391 O388 1.244 . S
C391 O389 1.240 . S
H392 C366 0.931 . S
H393 C375 0.931 . S
H394 C379 0.929 . S
H395 C381 0.930 . S
Co396 N400 2.148 . S
Co396 N406 2.128 . S
Co396 N416 2.194 . S
Co396 O421 2.351 . S
Co396 O422 2.155 . S
Co396 O423 2.096 . S
C397 N400 1.301 . S
C397 N401 1.328 . S
C397 H402 0.930 . S
C398 C399 1.333 . S
C398 N400 1.317 . S
C398 H403 0.930 . S
C399 C398 1.333 . S
C399 N401 1.350 . S
C399 H425 0.931 . S
N400 Co396 2.148 . S
N400 C397 1.301 . S
N400 C398 1.317 . S
N401 C397 1.328 . S
N401 C399 1.350 . S
H402 C397 0.930 . S
H403 C398 0.930 . S
C404 O405 1.224 . S
C404 O423 1.247 . S
O405 C404 1.224 . S
N406 Co396 2.128 . S
N406 C407 1.355 . S
N406 C409 1.311 . S
C407 N406 1.355 . S
C407 C408 1.363 . S
C407 H419 0.929 . S
C408 C407 1.363 . S
C408 N410 1.375 . S
C408 H426 0.931 . S
C409 N406 1.311 . S
C409 N410 1.347 . S
C409 H420 0.929 . S
N410 C408 1.375 . S
N410 C409 1.347 . S
C411 C414 1.365 . S
C411 N416 1.328 . S
C411 H417 0.929 . S
C412 C413 1.362 . S
C412 C415 1.378 . S
C412 H427 0.929 . S
C413 C412 1.362 . S
C413 C414 1.366 . S
C414 C411 1.365 . S
C414 C413 1.366 . S
C414 H428 0.930 . S
C415 C412 1.378 . S
C415 N416 1.315 . S
C415 H418 0.930 . S
N416 Co396 2.194 . S
N416 C411 1.328 . S
N416 C415 1.315 . S
H417 C411 0.929 . S
H418 C415 0.930 . S
H419 C407 0.929 . S
H420 C409 0.929 . S
O421 Co396 2.351 . S
O421 C424 1.244 . S
O422 Co396 2.155 . S
O422 C424 1.240 . S
O423 Co396 2.096 . S
O423 C404 1.247 . S
C424 O421 1.244 . S
C424 O422 1.240 . S
H425 C399 0.931 . S
H426 C408 0.931 . S
H427 C412 0.929 . S
H428 C414 0.930 . S
Co429 N433 2.148 . S
Co429 N439 2.128 . S
Co429 N449 2.194 . S
Co429 O454 2.351 . S
Co429 O455 2.155 . S
Co429 O456 2.096 . S
C430 N433 1.301 . S
C430 N434 1.328 . S
C430 H435 0.930 . S
C431 C432 1.333 . S
C431 N433 1.317 . S
C431 H436 0.930 . S
C432 C431 1.333 . S
C432 N434 1.350 . S
C432 H458 0.931 . S
N433 Co429 2.148 . S
N433 C430 1.301 . S
N433 C431 1.317 . S
N434 C430 1.328 . S
N434 C432 1.350 . S
H435 C430 0.930 . S
H436 C431 0.930 . S
C437 O438 1.224 . S
C437 O456 1.247 . S
O438 C437 1.224 . S
N439 Co429 2.128 . S
N439 C440 1.355 . S
N439 C442 1.311 . S
C440 N439 1.355 . S
C440 C441 1.363 . S
C440 H452 0.929 . S
C441 C440 1.363 . S
C441 N443 1.375 . S
C441 H459 0.931 . S
C442 N439 1.311 . S
C442 N443 1.347 . S
C442 H453 0.929 . S
N443 C441 1.375 . S
N443 C442 1.347 . S
C444 C447 1.365 1_556 S
C444 N449 1.328 . S
C444 H450 0.929 . S
C445 C446 1.362 . S
C445 C448 1.378 1_554 S
C445 H460 0.929 . S
C446 C445 1.362 . S
C446 C447 1.366 . S
C447 C444 1.365 1_554 S
C447 C446 1.366 . S
C447 H461 0.930 . S
C448 C445 1.378 1_556 S
C448 N449 1.315 . S
C448 H451 0.930 . S
N449 Co429 2.194 . S
N449 C444 1.328 . S
N449 C448 1.315 . S
H450 C444 0.929 . S
H451 C448 0.930 . S
H452 C440 0.929 . S
H453 C442 0.929 . S
O454 Co429 2.351 . S
O454 C457 1.244 . S
O455 Co429 2.155 . S
O455 C457 1.240 . S
O456 Co429 2.096 . S
O456 C437 1.247 . S
C457 O454 1.244 . S
C457 O455 1.240 . S
H458 C432 0.931 . S
H459 C441 0.931 . S
H460 C445 0.929 . S
H461 C447 0.930 . S
Co462 N466 2.148 . S
Co462 N472 2.128 . S
Co462 N482 2.194 . S
Co462 O487 2.351 . S
Co462 O488 2.155 . S
Co462 O489 2.096 . S
C463 N466 1.301 . S
C463 N467 1.328 . S
C463 H468 0.930 . S
C464 C465 1.333 . S
C464 N466 1.317 . S
C464 H469 0.930 . S
C465 C464 1.333 . S
C465 N467 1.350 . S
C465 H491 0.931 . S
N466 Co462 2.148 . S
N466 C463 1.301 . S
N466 C464 1.317 . S
N467 C463 1.328 . S
N467 C465 1.350 . S
H468 C463 0.930 . S
H469 C464 0.930 . S
C470 O471 1.224 . S
C470 O489 1.247 . S
O471 C470 1.224 . S
N472 Co462 2.128 . S
N472 C473 1.355 . S
N472 C475 1.311 . S
C473 N472 1.355 . S
C473 C474 1.363 . S
C473 H485 0.929 . S
C474 C473 1.363 . S
C474 N476 1.375 . S
C474 H492 0.931 . S
C475 N472 1.311 . S
C475 N476 1.347 . S
C475 H486 0.929 . S
N476 C474 1.375 . S
N476 C475 1.347 . S
C477 C480 1.365 . S
C477 N482 1.328 . S
C477 H483 0.929 . S
C478 C479 1.362 . S
C478 C481 1.378 . S
C478 H493 0.929 . S
C479 C478 1.362 . S
C479 C480 1.366 . S
C480 C477 1.365 . S
C480 C479 1.366 . S
C480 H494 0.930 . S
C481 C478 1.378 . S
C481 N482 1.315 . S
C481 H484 0.930 . S
N482 Co462 2.194 . S
N482 C477 1.328 . S
N482 C481 1.315 . S
H483 C477 0.929 . S
H484 C481 0.930 . S
H485 C473 0.929 . S
H486 C475 0.929 . S
O487 Co462 2.351 . S
O487 C490 1.244 . S
O488 Co462 2.155 . S
O488 C490 1.240 . S
O489 Co462 2.096 . S
O489 C470 1.247 . S
C490 O487 1.244 . S
C490 O488 1.240 . S
H491 C465 0.931 . S
H492 C474 0.931 . S
H493 C478 0.929 . S
H494 C480 0.930 . S
Co495 N499 2.148 . S
Co495 N505 2.128 . S
Co495 N515 2.194 . S
Co495 O520 2.351 . S
Co495 O521 2.155 . S
Co495 O522 2.096 . S
C496 N499 1.301 . S
C496 N500 1.328 . S
C496 H501 0.930 . S
C497 C498 1.333 . S
C497 N499 1.317 . S
C497 H502 0.930 . S
C498 C497 1.333 . S
C498 N500 1.350 . S
C498 H524 0.931 . S
N499 Co495 2.148 . S
N499 C496 1.301 . S
N499 C497 1.317 . S
N500 C496 1.328 . S
N500 C498 1.350 . S
H501 C496 0.930 . S
H502 C497 0.930 . S
C503 O504 1.224 . S
C503 O522 1.247 . S
O504 C503 1.224 . S
N505 Co495 2.128 . S
N505 C506 1.355 . S
N505 C508 1.311 . S
C506 N505 1.355 . S
C506 C507 1.363 . S
C506 H518 0.929 . S
C507 C506 1.363 . S
C507 N509 1.375 . S
C507 H525 0.931 . S
C508 N505 1.311 . S
C508 N509 1.347 . S
C508 H519 0.929 . S
N509 C507 1.375 . S
N509 C508 1.347 . S
C510 C513 1.365 1_554 S
C510 N515 1.328 . S
C510 H516 0.929 . S
C511 C512 1.362 . S
C511 C514 1.378 1_556 S
C511 H526 0.929 . S
C512 C511 1.362 . S
C512 C513 1.366 . S
C513 C510 1.365 1_556 S
C513 C512 1.366 . S
C513 H527 0.930 . S
C514 C511 1.378 1_554 S
C514 N515 1.315 . S
C514 H517 0.930 . S
N515 Co495 2.194 . S
N515 C510 1.328 . S
N515 C514 1.315 . S
H516 C510 0.929 . S
H517 C514 0.930 . S
H518 C506 0.929 . S
H519 C508 0.929 . S
O520 Co495 2.351 . S
O520 C523 1.244 . S
O521 Co495 2.155 . S
O521 C523 1.240 . S
O522 Co495 2.096 . S
O522 C503 1.247 . S
C523 O520 1.244 . S
C523 O521 1.240 . S
H524 C498 0.931 . S
H525 C507 0.931 . S
H526 C511 0.929 . S
H527 C513 0.930 . S
N5 N302 1.695 . S
N14 N311 1.326 . S
N278 N47 1.326 . S
N38 N269 1.695 . S
N71 N368 1.695 . S
N80 N377 1.326 . S
N113 N344 1.326 . S
N104 N335 1.695 . S
N137 N434 1.695 . S
N443 N146 1.326 . S
N410 N179 1.326 . S
N401 N170 1.695 . S
N500 N203 1.695 . S
N509 N212 1.326 . S
N476 N245 1.326 . S
N236 N467 1.695 . S
C17 C50 1.081 . S
C116 C83 1.081 . S
C182 C149 1.081 . S
C248 C215 1.081 . S
C314 C281 1.081 . S
C347 C380 1.081 . S
C446 C413 1.081 . S
C479 C512 1.081 . S
C490 C28 2.650 . S
C74 C8 2.693 1_645 S
C371 C41 2.693 1_545 S
C259 C61 2.650 1_655 S
C94 C424 2.650 . S
C305 C107 2.693 1_565 S
C127 C193 2.650 1_655 S
C358 C160 2.650 1_554 S
C140 C206 2.693 1_456 S
C173 C503 2.693 . S
C226 C292 2.650 1_554 S
C239 C437 2.693 . S
C338 C272 2.693 1_544 S
C523 C325 2.650 . S
C391 C457 2.650 . S
C404 C470 2.693 . S
