# Generated by pormake.
# Topology wmn, (6)-cn, num edge types: 1
# Building blocks:
#     Node 0, Type 0, BuildingBlock: KUMBUR_clean_sbu_1, # of connection points: 6
#     Node 1, Type 0, BuildingBlock: KUMBUR_clean_sbu_1, # of connection points: 6
#     Node 2, Type 0, BuildingBlock: KUMBUR_clean_sbu_1, # of connection points: 6
#     Node 3, Type 0, BuildingBlock: KUMBUR_clean_sbu_1, # of connection points: 6
#     Node 4, Type 0, BuildingBlock: KUMBUR_clean_sbu_1, # of connection points: 6
#     Node 5, Type 0, BuildingBlock: KUMBUR_clean_sbu_1, # of connection points: 6
#     Node 6, Type 0, BuildingBlock: KUMBUR_clean_sbu_1, # of connection points: 6
#     Node 7, Type 0, BuildingBlock: KUMBUR_clean_sbu_1, # of connection points: 6
#     Node 8, Type 0, BuildingBlock: KUMBUR_clean_sbu_1, # of connection points: 6
#     Node 9, Type 0, BuildingBlock: KUMBUR_clean_sbu_1, # of connection points: 6
#     Node 10, Type 0, BuildingBlock: KUMBUR_clean_sbu_1, # of connection points: 6
#     Node 11, Type 0, BuildingBlock: KUMBUR_clean_sbu_1, # of connection points: 6
#     Edge 12, Type (0, 0), BuildingBlock: AJUNOK_clean_linker_0, # of connection points: 2
#     Edge 13, Type (0, 0), BuildingBlock: AJUNOK_clean_linker_0, # of connection points: 2
#     Edge 14, Type (0, 0), BuildingBlock: AJUNOK_clean_linker_0, # of connection points: 2
#     Edge 15, Type (0, 0), BuildingBlock: AJUNOK_clean_linker_0, # of connection points: 2
#     Edge 16, Type (0, 0), BuildingBlock: AJUNOK_clean_linker_0, # of connection points: 2
#     Edge 17, Type (0, 0), BuildingBlock: AJUNOK_clean_linker_0, # of connection points: 2
#     Edge 18, Type (0, 0), BuildingBlock: AJUNOK_clean_linker_0, # of connection points: 2
#     Edge 19, Type (0, 0), BuildingBlock: AJUNOK_clean_linker_0, # of connection points: 2
#     Edge 20, Type (0, 0), BuildingBlock: AJUNOK_clean_linker_0, # of connection points: 2
#     Edge 21, Type (0, 0), BuildingBlock: AJUNOK_clean_linker_0, # of connection points: 2
#     Edge 22, Type (0, 0), BuildingBlock: AJUNOK_clean_linker_0, # of connection points: 2
#     Edge 23, Type (0, 0), BuildingBlock: AJUNOK_clean_linker_0, # of connection points: 2
#     Edge 24, Type (0, 0), BuildingBlock: AJUNOK_clean_linker_0, # of connection points: 2
#     Edge 25, Type (0, 0), BuildingBlock: AJUNOK_clean_linker_0, # of connection points: 2
#     Edge 26, Type (0, 0), BuildingBlock: AJUNOK_clean_linker_0, # of connection points: 2
#     Edge 27, Type (0, 0), BuildingBlock: AJUNOK_clean_linker_0, # of connection points: 2
#     Edge 28, Type (0, 0), BuildingBlock: AJUNOK_clean_linker_0, # of connection points: 2
#     Edge 29, Type (0, 0), BuildingBlock: AJUNOK_clean_linker_0, # of connection points: 2
#     Edge 30, Type (0, 0), BuildingBlock: AJUNOK_clean_linker_0, # of connection points: 2
#     Edge 31, Type (0, 0), BuildingBlock: AJUNOK_clean_linker_0, # of connection points: 2
#     Edge 32, Type (0, 0), BuildingBlock: AJUNOK_clean_linker_0, # of connection points: 2
#     Edge 33, Type (0, 0), BuildingBlock: AJUNOK_clean_linker_0, # of connection points: 2
#     Edge 34, Type (0, 0), BuildingBlock: AJUNOK_clean_linker_0, # of connection points: 2
#     Edge 35, Type (0, 0), BuildingBlock: AJUNOK_clean_linker_0, # of connection points: 2
#     Edge 36, Type (0, 0), BuildingBlock: AJUNOK_clean_linker_0, # of connection points: 2
#     Edge 37, Type (0, 0), BuildingBlock: AJUNOK_clean_linker_0, # of connection points: 2
#     Edge 38, Type (0, 0), BuildingBlock: AJUNOK_clean_linker_0, # of connection points: 2
#     Edge 39, Type (0, 0), BuildingBlock: AJUNOK_clean_linker_0, # of connection points: 2
#     Edge 40, Type (0, 0), BuildingBlock: AJUNOK_clean_linker_0, # of connection points: 2
#     Edge 41, Type (0, 0), BuildingBlock: AJUNOK_clean_linker_0, # of connection points: 2
#     Edge 42, Type (0, 0), BuildingBlock: AJUNOK_clean_linker_0, # of connection points: 2
#     Edge 43, Type (0, 0), BuildingBlock: AJUNOK_clean_linker_0, # of connection points: 2
#     Edge 44, Type (0, 0), BuildingBlock: AJUNOK_clean_linker_0, # of connection points: 2
#     Edge 45, Type (0, 0), BuildingBlock: AJUNOK_clean_linker_0, # of connection points: 2
#     Edge 46, Type (0, 0), BuildingBlock: AJUNOK_clean_linker_0, # of connection points: 2
#     Edge 47, Type (0, 0), BuildingBlock: AJUNOK_clean_linker_0, # of connection points: 2
# Relax obj value: 0.145
# Max RMSD: 0.311
# Mean RMSD: 0.311
data_MOF--net-wmn--node1-KUMBUR_clean_sbu_1--edge1-AJUNOK_clean_linker_0
_symmetry_space_group_name_H-M    P1
_symmetry_Int_Tables_number       1
_symmetry_cell_setting            triclinic
loop_
_symmetry_equiv_pos_as_xyz
'x, y, z'
_cell_length_a     47.578154
_cell_length_b     47.579991
_cell_length_c     17.356355
_cell_angle_alpha  89.888744
_cell_angle_beta   90.096682
_cell_angle_gamma 119.91538
loop_
_atom_site_label
_atom_site_type_symbol
_atom_site_fract_x
_atom_site_fract_y
_atom_site_fract_z
_atom_type_partial_charge
Tb0 Tb 0.13237 0.40447 0.09019 0.0
C1 C 0.08431 0.25213 0.06134 0.0
N2 N 0.096 0.27058 0.12541 0.0
C3 C 0.05616 0.22661 0.20175 0.0
C4 C 0.05704 0.2207 0.06398 0.0
C5 C 0.08384 0.25729 0.19578 0.0
C6 C 0.04208 0.20854 0.13515 0.0
C7 C 0.09423 0.24366 0.92933 0.0
C8 C 0.10236 0.26335 0.99542 0.0
C9 C 0.06599 0.21309 0.92962 0.0
C10 C 0.0472 0.2017 0.9968 0.0
Tb11 Tb 0.13953 0.32195 0.11003 0.0
N12 N 0.12976 0.29262 0.99876 0.0
C13 C 0.11563 0.25465 0.86682 0.0
C14 C 0.15193 0.30214 0.94067 0.0
C15 C 0.14503 0.28369 0.87343 0.0
H16 H 0.09613 0.27019 0.24731 0.0
H17 H 0.1627 0.29157 0.82767 0.0
H18 H 0.1856 0.44598 0.94897 0.0
H19 H 0.1233 0.43691 0.38361 0.0
H20 H 0.17504 0.3237 0.94681 0.0
H21 H 0.11045 0.24023 0.81497 0.0
H22 H 0.10472 0.40265 0.26794 0.0
H23 H 0.04631 0.2166 0.25775 0.0
H24 H 0.05914 0.19763 0.87925 0.0
H25 H 0.02612 0.1776 0.99729 0.0
H26 H 0.23815 0.49591 0.93807 0.0
H27 H 1.02106 0.18451 0.13994 0.0
H28 H 0.17611 0.48786 0.38331 0.0
N29 N 0.18125 0.45049 0.07021 0.0
C30 C 0.19341 0.47052 0.13226 0.0
C31 C 0.22606 0.48881 0.99334 0.0
C32 C 0.22306 0.5 0.12775 0.0
C33 C 0.19643 0.45997 1.00034 0.0
C34 C 0.23964 0.50872 0.0575 0.0
N35 N 0.14699 0.43335 0.20231 0.0
C36 C 0.12798 0.42457 0.2667 0.0
C37 C 0.18706 0.48224 0.26521 0.0
C38 C 0.17553 0.46193 0.20008 0.0
C39 C 0.16812 0.47289 0.33207 0.0
C40 C 0.13832 0.44411 0.3325 0.0
H41 H 0.26247 0.53118 0.05165 0.0
H42 H 0.25767 0.54276 0.19051 0.0
H43 H 0.22625 0.52713 0.31093 0.0
O44 O 0.09923 0.421 0.11078 0.0
O45 O 0.16978 0.4036 0.16937 0.0
O46 O 0.14566 0.35089 0.21141 0.0
O47 O 0.12361 0.4306 1.00303 0.0
O48 O 0.09442 0.36667 0.16133 0.0
O49 O 0.10137 0.32189 0.18692 0.0
O50 O 0.18703 0.32892 0.10264 0.0
O51 O 0.11735 0.32909 1.00753 0.0
O52 O 0.09251 0.35758 0.04564 0.0
O53 O 0.15284 0.29523 0.18257 0.0
O54 O 0.17778 0.36863 0.0599 0.0
O55 O 0.15338 0.3918 0.99166 0.0
C56 C 0.16783 0.38125 0.21863 0.0
C57 C 0.1052 0.46722 0.04318 0.0
C58 C 0.07906 0.50114 0.03495 0.0
C59 C 0.10977 0.52866 0.04597 0.0
C60 C 0.13518 0.4954 0.05423 0.0
C61 C 0.13739 0.52577 0.05548 0.0
C62 C 0.07704 0.47023 0.03288 0.0
C63 C 0.08601 0.33881 0.19605 0.0
C64 C 0.10305 0.43475 0.0441 0.0
C65 C 0.23487 0.52011 0.19286 0.0
C66 C 0.21693 0.51124 0.2614 0.0
C67 C 0.09204 0.33296 0.00927 0.0
C68 C 0.18735 0.27983 0.12239 0.0
C69 C 0.22526 0.26237 0.08046 0.0
C70 C 0.199 0.23075 0.07133 0.0
C71 C 0.16158 0.24793 0.11221 0.0
C72 C 0.21932 0.28701 0.1063 0.0
C73 C 0.16747 0.22363 0.08706 0.0
C74 C 0.17547 0.38271 0.9962 0.0
C75 C 0.18067 0.30531 0.14979 0.0
H76 H 0.11256 0.55269 0.04617 0.0
H77 H 0.157 0.49403 0.06172 0.0
H78 H 0.16078 0.54732 0.06373 0.0
H79 H 0.05368 0.44864 0.02442 0.0
H80 H 0.2029 0.21146 0.05165 0.0
H81 H 0.13677 0.2416 0.12383 0.0
H82 H 0.2393 0.31157 0.11303 0.0
H83 H 0.1475 0.19917 0.07952 0.0
Tb84 Tb 0.62775 0.7318 0.08681 0.0
C85 C 0.78448 0.84081 0.08376 0.0
N86 N 0.76195 0.83311 0.13957 0.0
C87 C 0.80144 0.8405 0.23588 0.0
C88 C 0.81625 0.84775 0.10127 0.0
C89 C 0.77039 0.83432 0.21546 0.0
C90 C 0.8243 0.84657 0.17836 0.0
C91 C 0.80026 0.85774 0.95199 0.0
C92 C 0.7766 0.84552 0.01051 0.0
C93 C 0.83142 0.86276 0.96751 0.0
C94 C 0.83935 0.85753 0.04202 0.0
Tb95 Tb 0.71128 0.82176 0.10045 0.0
N96 N 0.74654 0.84118 0.99879 0.0
C97 C 0.79238 0.86617 0.8812 0.0
C98 C 0.73938 0.85125 0.93156 0.0
C99 C 0.76204 0.86362 0.87161 0.0
H100 H 0.75272 0.82949 0.26021 0.0
H101 H 0.75624 0.87145 0.81837 0.0
H102 H 0.58668 0.73472 0.93214 0.0
H103 H 0.59209 0.70376 0.38478 0.0
H104 H 0.71609 0.84941 0.92407 0.0
H105 H 0.80992 0.87587 0.83484 0.0
H106 H 0.62787 0.71514 0.27256 0.0
H107 H 0.80768 0.84047 0.29587 0.0
H108 H 0.84987 0.87175 0.92309 0.0
H109 H 0.8638 0.86259 0.05397 0.0
H110 H 0.53709 0.73698 0.90693 0.0
H111 H 0.84842 0.85166 0.19429 0.0
H112 H 0.54086 0.70478 0.37082 0.0
N113 N 0.5816 0.73301 0.05416 0.0
C114 C 0.561 0.72817 0.1135 0.0
C115 C 0.54379 0.73507 0.96553 0.0
C116 C 0.53152 0.72789 0.1014 0.0
C117 C 0.57249 0.73468 0.9803 0.0
C118 C 0.52342 0.73214 0.02647 0.0
N119 N 0.5972 0.72207 0.19544 0.0
C120 C 0.60544 0.71514 0.26538 0.0
C121 C 0.54771 0.71596 0.24893 0.0
C122 C 0.56872 0.72189 0.18619 0.0
C123 C 0.55636 0.70948 0.32114 0.0
C124 C 0.58524 0.70885 0.32923 0.0
H125 H 0.50101 0.73207 0.01475 0.0
H126 H 0.48804 0.72234 0.15577 0.0
H127 H 0.50234 0.71213 0.28507 0.0
O128 O 0.61129 0.68308 0.11883 0.0
O129 O 0.62957 0.77119 0.16341 0.0
O130 O 0.68254 0.79856 0.20172 0.0
O131 O 0.60271 0.69407 1.00535 0.0
O132 O 0.66568 0.7324 0.16131 0.0
O133 O 0.71395 0.78291 0.16656 0.0
O134 O 0.70604 0.86231 0.07499 0.0
O135 O 0.70424 0.7915 1.00017 0.0
O136 O 0.67384 0.73816 0.03894 0.0
O137 O 0.72967 0.86079 0.17805 0.0
O138 O 0.66404 0.81156 0.05063 0.0
O139 O 0.6402 0.76395 0.98473 0.0
C140 C 0.65278 0.7922 0.20982 0.0
C141 C 0.56658 0.64024 0.05223 0.0
C142 C 0.53368 0.58034 0.03882 0.0
C143 C 0.50598 0.58255 0.05623 0.0
C144 C 0.53823 0.64105 0.06908 0.0
C145 C 0.50828 0.61249 0.07097 0.0
C146 C 0.5642 0.60967 0.0368 0.0
C147 C 0.69608 0.75153 0.18421 0.0
C148 C 0.59861 0.67097 0.05229 0.0
C149 C 0.5107 0.72248 0.16394 0.0
C150 C 0.51877 0.71654 0.23753 0.0
C151 C 0.69932 0.76186 1.00375 0.0
C152 C 0.75012 0.91164 0.11761 0.0
C153 C 0.77015 0.96922 0.0941 0.0
C154 C 0.80152 0.97379 0.08425 0.0
C155 C 0.78177 0.9171 0.10867 0.0
C156 C 0.7444 0.93785 0.11095 0.0
C157 C 0.80725 0.94795 0.09186 0.0
C158 C 0.65085 0.79545 0.9864 0.0
C159 C 0.72312 0.87874 0.13379 0.0
H160 H 0.48223 0.56099 0.05754 0.0
H161 H 0.5392 0.66379 0.08099 0.0
H162 H 0.48658 0.61356 0.08399 0.0
H163 H 0.58603 0.60873 0.02457 0.0
H164 H 0.82171 0.99742 0.07012 0.0
H165 H 0.78696 0.89762 0.11503 0.0
H166 H 0.72012 0.93383 0.11979 0.0
H167 H 0.83153 0.95186 0.08457 0.0
Tb168 Tb 0.30718 0.89795 0.1043 0.0
C169 C 0.19921 0.9481 0.09798 0.0
N170 N 0.2048 0.93082 0.15166 0.0
C171 C 0.193 0.9579 0.25238 0.0
C172 C 0.19112 0.97176 0.11918 0.0
C173 C 0.20057 0.9344 0.22819 0.0
C174 C 0.18876 0.97703 0.19762 0.0
C175 C 0.18775 0.95319 0.96464 0.0
C176 C 0.19769 0.93907 0.02219 0.0
C177 C 0.18182 0.9784 0.98437 0.0
C178 C 0.18367 0.98781 0.06159 0.0
Tb179 Tb 0.21774 0.89349 0.10758 0.0
N180 N 0.20237 0.91384 1.00649 0.0
C181 C 0.18209 0.94013 0.89029 0.0
C182 C 0.19475 0.89959 0.93537 0.0
C183 C 0.18486 0.9127 0.87608 0.0
H184 H 0.20397 0.91969 0.27068 0.0
H185 H 0.17953 0.90176 0.81943 0.0
H186 H 0.29655 0.84214 0.97101 0.0
H187 H 0.33258 0.90607 0.40989 0.0
H188 H 0.19689 0.87841 0.9242 0.0
H189 H 0.17436 0.95021 0.84438 0.0
H190 H 0.32343 0.92525 0.28585 0.0
H191 H 0.19043 0.96121 0.31311 0.0
H192 H 0.17441 0.98979 0.94093 0.0
H193 H 0.17776 1.00636 0.07652 0.0
H194 H 0.29293 0.7889 0.96986 0.0
H195 H 0.18232 0.99479 0.21627 0.0
H196 H 0.33092 0.85336 0.41792 0.0
N197 N 0.30275 0.84806 0.09301 0.0
C198 C 0.30864 0.83639 0.15924 0.0
C199 C 0.2969 0.80181 0.0237 0.0
C200 C 0.30751 0.80621 0.16058 0.0
C201 C 0.29832 0.83187 0.02502 0.0
C202 C 0.30119 0.78876 0.09183 0.0
N203 N 0.31585 0.88344 0.22358 0.0
C204 C 0.32232 0.90209 0.28813 0.0
C205 C 0.32081 0.8429 0.2964 0.0
C206 C 0.31564 0.85471 0.22642 0.0
C207 C 0.32687 0.86163 0.363 0.0
C208 C 0.32773 0.89137 0.35874 0.0
H209 H 0.30016 0.76549 0.09045 0.0
H210 H 0.31203 0.77131 0.23227 0.0
H211 H 0.32337 0.80326 0.35113 0.0
O212 O 0.35659 0.92375 0.13713 0.0
O213 O 0.26587 0.86108 0.17666 0.0
O214 O 0.23947 0.8881 0.21259 0.0
O215 O 0.34376 0.90704 0.02205 0.0
O216 O 0.30593 0.93754 0.1671 0.0
O217 O 0.2553 0.93531 0.17502 0.0
O218 O 0.1787 0.86696 0.18385 0.0
O219 O 0.2507 0.91563 0.00986 0.0
O220 O 0.30358 0.9386 0.0527 0.0
O221 O 0.17526 0.85274 0.06683 0.0
O222 O 0.22888 0.85621 0.06579 0.0
O223 O 0.27637 0.87717 1.00059 0.0
C224 C 0.24623 0.86503 0.22379 0.0
C225 C 0.39519 0.95534 0.04148 0.0
C226 C 0.45401 0.99406 0.02272 0.0
C227 C 0.44566 0.01642 0.99269 0.0
C228 C 0.38837 0.97876 0.01212 0.0
C229 C 0.41334 1.00887 0.98777 0.0
C230 C 0.42828 0.96306 0.04639 0.0
C231 C 0.28695 0.94901 0.19033 0.0
C232 C 0.3678 0.92359 0.06921 0.0
C233 C 0.3129 0.79449 0.23018 0.0
C234 C 0.31945 0.81274 0.29787 0.0
C235 C 0.28043 0.94016 0.01411 0.0
C236 C 0.12648 0.84177 0.12662 0.0
C237 C 0.0677 0.80466 0.11536 0.0
C238 C 0.0637 0.83191 0.10587 0.0
C239 C 0.12142 0.86819 0.11796 0.0
C240 C 0.09951 0.81002 0.12678 0.0
C241 C 0.09024 0.86326 0.10807 0.0
C242 C 0.24461 0.85776 1.0021 0.0
C243 C 0.15983 0.84711 0.13148 0.0
H244 H 0.46426 0.03989 0.97199 0.0
H245 H 0.36362 0.9738 1.00802 0.0
H246 H 0.40759 0.02658 0.96479 0.0
H247 H 0.43395 0.94533 0.06962 0.0
H248 H 0.04002 0.8291 0.09492 0.0
H249 H 0.14155 0.89265 0.11791 0.0
H250 H 0.10352 0.78975 0.13552 0.0
H251 H 0.08667 0.88386 0.10057 0.0
Tb252 Tb 0.41913 0.12784 0.42799 0.0
C253 C 0.26167 0.08404 0.43714 0.0
N254 N 0.28404 0.09462 0.38009 0.0
C255 C 0.24309 0.05934 0.29034 0.0
C256 C 0.22915 0.06013 0.4237 0.0
C257 C 0.27483 0.08377 0.30628 0.0
C258 C 0.22024 0.04705 0.34965 0.0
C259 C 0.2476 0.09305 0.56489 0.0
C260 C 0.27079 0.09982 0.50676 0.0
C261 C 0.21548 0.06809 0.55365 0.0
C262 C 0.20632 0.05143 0.48329 0.0
Tb263 Tb 0.33554 0.13438 0.41197 0.0
N264 N 0.30198 0.12368 0.51512 0.0
C265 C 0.25735 0.11196 0.63184 0.0
C266 C 0.31142 0.14271 0.57935 0.0
C267 C 0.28952 0.13675 0.63918 0.0
H268 H 0.29225 0.09363 0.25978 0.0
H269 H 0.29754 0.15125 0.69079 0.0
H270 H 0.45841 0.17109 0.5852 0.0
H271 H 0.45518 0.13873 0.12974 0.0
H272 H 0.33586 0.16246 0.5843 0.0
H273 H 0.24037 0.10756 0.6781 0.0
H274 H 0.41898 0.11327 0.24091 0.0
H275 H 0.23623 0.05028 0.23219 0.0
H276 H 0.19742 0.06204 0.59821 0.0
H277 H 0.18128 0.03285 0.47445 0.0
H278 H 0.50845 0.22214 0.61236 0.0
H279 H 0.19553 0.02854 0.33706 0.0
H280 H 0.50698 0.19005 0.14683 0.0
N281 N 0.46505 0.17462 0.46317 0.0
C282 C 0.48611 0.1906 0.40467 0.0
C283 C 0.50224 0.21378 0.55352 0.0
C284 C 0.51564 0.21945 0.41817 0.0
C285 C 0.47343 0.18507 0.5375 0.0
C286 C 0.52327 0.23126 0.49354 0.0
N287 N 0.45001 0.14944 0.32033 0.0
C288 C 0.44169 0.13526 0.24935 0.0
C289 C 0.49993 0.19292 0.2692 0.0
C290 C 0.47863 0.17735 0.3312 0.0
C291 C 0.49129 0.1788 0.196 0.0
C292 C 0.46208 0.14981 0.18612 0.0
H293 H 0.54571 0.25335 0.50629 0.0
H294 H 0.55959 0.25747 0.36575 0.0
H295 H 0.54571 0.23438 0.23526 0.0
O296 O 0.43485 0.09505 0.39566 0.0
O297 O 0.41708 0.16501 0.3506 0.0
O298 O 0.36422 0.13854 0.31146 0.0
O299 O 0.44423 0.11485 0.50887 0.0
O300 O 0.38156 0.09065 0.35352 0.0
O301 O 0.3324 0.0914 0.35223 0.0
O302 O 0.34076 0.18075 0.42907 0.0
O303 O 0.34153 0.11098 0.51441 0.0
O304 O 0.37323 0.08904 0.47764 0.0
O305 O 0.31681 0.15306 0.32931 0.0
O306 O 0.38273 0.17165 0.46105 0.0
O307 O 0.40596 0.1473 0.52822 0.0
C308 C 0.39393 0.16189 0.30265 0.0
C309 C 0.47934 0.09597 0.46162 0.0
C310 C 0.51117 0.06779 0.4758 0.0
C311 C 0.53925 0.09733 0.45806 0.0
C312 C 0.508 0.1247 0.44429 0.0
C313 C 0.53762 0.12532 0.4426 0.0
C314 C 0.48101 0.06741 0.47748 0.0
C315 C 0.35069 0.07842 0.33374 0.0
C316 C 0.44769 0.09547 0.462 0.0
C317 C 0.53687 0.23522 0.35647 0.0
C318 C 0.52902 0.222 0.28219 0.0
C319 C 0.34748 0.0868 0.51256 0.0
C320 C 0.29633 0.18516 0.38208 0.0
C321 C 0.27599 0.22294 0.40242 0.0
C322 C 0.24435 0.19622 0.4075 0.0
C323 C 0.26425 0.15926 0.38446 0.0
C324 C 0.30216 0.21718 0.39118 0.0
C325 C 0.23859 0.16476 0.39795 0.0
C326 C 0.39635 0.16893 0.52485 0.0
C327 C 0.3234 0.17864 0.36936 0.0
H328 H 0.56278 0.09896 0.45706 0.0
H329 H 0.50752 0.14672 0.43195 0.0
H330 H 0.55959 0.14775 0.42928 0.0
H331 H 0.45888 0.04498 0.48986 0.0
H332 H 0.22389 0.19963 0.41926 0.0
H333 H 0.25883 0.13465 0.37559 0.0
H334 H 0.32675 0.23741 0.38841 0.0
H335 H 0.21406 0.1445 0.40089 0.0
Tb336 Tb 0.90871 0.30063 0.43524 0.0
C337 C 0.95258 0.18875 0.43241 0.0
N338 N 0.93616 0.19659 0.38073 0.0
C339 C 0.9612 0.18449 0.27608 0.0
C340 C 0.97445 0.17878 0.40777 0.0
C341 C 0.93924 0.1936 0.30336 0.0
C342 C 0.97908 0.1773 0.32851 0.0
C343 C 0.95823 0.17553 0.56439 0.0
C344 C 0.94499 0.18768 0.50992 0.0
C345 C 0.98154 0.16743 0.54084 0.0
C346 C 0.98982 0.16928 0.46272 0.0
Tb347 Tb 0.90248 0.21241 0.43288 0.0
N348 N 0.92177 0.19492 0.53036 0.0
C349 C 0.94595 0.16975 0.63957 0.0
C350 C 0.90767 0.18656 0.60136 0.0
C351 C 0.91991 0.17441 0.65734 0.0
H352 H 0.92516 0.19879 0.26277 0.0
H353 H 0.90888 0.16831 0.71354 0.0
H354 H 0.85275 0.28917 0.57065 0.0
H355 H 0.91485 0.32731 0.13116 0.0
H356 H 0.8874 0.18987 0.61488 0.0
H357 H 0.95519 0.16004 0.68288 0.0
H358 H 0.93518 0.31918 0.25511 0.0
H359 H 0.9641 0.18273 0.21474 0.0
H360 H 0.99238 0.15852 0.5821 0.0
H361 H 1.00705 0.16195 0.44507 0.0
H362 H 0.7979 0.28126 0.57268 0.0
H363 H 0.99557 0.16961 0.30725 0.0
H364 H 0.86005 0.32094 0.12343 0.0
N365 N 0.85745 0.29332 0.44798 0.0
C366 C 0.8445 0.2976 0.38186 0.0
C367 C 0.81051 0.28527 0.51838 0.0
C368 C 0.81331 0.29424 0.38104 0.0
C369 C 0.84156 0.28898 0.5165 0.0
C370 C 0.79612 0.28744 0.45026 0.0
N371 N 0.89255 0.30839 0.31707 0.0
C372 C 0.91142 0.31653 0.25263 0.0
C373 C 0.84998 0.30986 0.24478 0.0
C374 C 0.86273 0.30575 0.31454 0.0
C375 C 0.86899 0.31761 0.17818 0.0
C376 C 0.89992 0.32119 0.18228 0.0
H377 H 0.77212 0.28472 0.45206 0.0
H378 H 0.77648 0.29555 0.30989 0.0
H379 H 0.80846 0.30891 0.19054 0.0
O380 O 0.93543 0.34985 0.40106 0.0
O381 O 0.87382 0.25834 0.36047 0.0
O382 O 0.89926 0.23062 0.32088 0.0
O383 O 0.91541 0.33766 0.51354 0.0
O384 O 0.94994 0.30126 0.37511 0.0
O385 O 0.94323 0.24884 0.36192 0.0
O386 O 0.85195 0.18401 0.42008 0.0
O387 O 0.92697 0.24387 0.53151 0.0
O388 O 0.94893 0.29697 0.48989 0.0
O389 O 0.8814 0.16149 0.42456 0.0
O390 O 0.86729 0.22461 0.48196 0.0
O391 O 0.89035 0.27252 0.54373 0.0
C392 C 0.8797 0.2419 0.30699 0.0
C393 C 0.96416 0.38879 0.49842 0.0
C394 C 1.00192 0.44754 0.52008 0.0
C395 C 0.02375 0.43936 0.55416 0.0
C396 C 0.98673 0.38204 0.53331 0.0
C397 C 1.01619 0.40708 0.56072 0.0
C398 C 0.97182 0.42177 0.49209 0.0
C399 C 0.95937 0.28077 0.35072 0.0
C400 C 0.93332 0.36142 0.46698 0.0
C401 C 0.80046 0.29821 0.31158 0.0
C402 C 0.81871 0.30593 0.24364 0.0
C403 C 0.95092 0.27404 0.5287 0.0
C404 C 0.82883 0.13071 0.37003 0.0
C405 C 0.78319 0.07534 0.35895 0.0
C406 C 0.77946 0.08156 0.28155 0.0
C407 C 0.82516 0.13627 0.2925 0.0
C408 C 0.80811 0.10017 0.40274 0.0
C409 C 0.80025 0.11193 0.24884 0.0
C410 C 0.87077 0.24087 0.54544 0.0
C411 C 0.85215 0.15677 0.42028 0.0
H412 H 0.04673 0.45807 0.57698 0.0
H413 H 0.98158 0.35729 0.53931 0.0
H414 H 0.03335 0.4014 0.58742 0.0
H415 H 0.95471 0.42729 0.4645 0.0
H416 H 0.76008 0.06315 0.24693 0.0
H417 H 0.8413 0.15945 0.26624 0.0
H418 H 0.81118 0.09588 0.46276 0.0
H419 H 0.7969 0.11678 0.18963 0.0
Tb420 Tb 0.74167 0.62125 0.44342 0.0
C421 C 0.87074 0.77861 0.41648 0.0
N422 N 0.85154 0.75375 0.36919 0.0
C423 C 0.86114 0.79138 0.26646 0.0
C424 C 0.88564 0.81106 0.39126 0.0
C425 C 0.84725 0.75958 0.29421 0.0
C426 C 0.88032 0.81729 0.31535 0.0
C427 C 0.89603 0.79608 0.54154 0.0
C428 C 0.87585 0.77126 0.49 0.0
C429 C 0.91082 0.82858 0.51731 0.0
C430 C 0.90562 0.83606 0.44227 0.0
Tb431 Tb 0.83212 0.70259 0.4169 0.0
N432 N 0.86085 0.73964 0.51097 0.0
C433 C 0.90081 0.78742 0.61548 0.0
C434 C 0.86632 0.731 0.58216 0.0
C435 C 0.88598 0.75468 0.63575 0.0
H436 H 0.83322 0.73956 0.2555 0.0
H437 H 0.88988 0.74765 0.69236 0.0
H438 H 0.75709 0.58107 0.58188 0.0
H439 H 0.70048 0.59031 0.14952 0.0
H440 H 0.85547 0.70585 0.59766 0.0
H441 H 0.91613 0.80572 0.65692 0.0
H442 H 0.71693 0.62453 0.26563 0.0
H443 H 0.85736 0.79584 0.2072 0.0
H444 H 0.92639 0.84805 0.55599 0.0
H445 H 0.91728 0.86119 0.42413 0.0
H446 H 0.75996 0.53115 0.59115 0.0
H447 H 0.89126 0.84188 0.29364 0.0
H448 H 0.70115 0.53866 0.14948 0.0
N449 N 0.74569 0.57577 0.46184 0.0
C450 C 0.73696 0.55553 0.39992 0.0
C451 C 0.75388 0.53796 0.53672 0.0
C452 C 0.73733 0.52611 0.40359 0.0
C453 C 0.7529 0.56677 0.53062 0.0
C454 C 0.74636 0.51768 0.47281 0.0
N455 N 0.72741 0.59289 0.33083 0.0
C456 C 0.71754 0.60219 0.26657 0.0
C457 C 0.71791 0.54386 0.26746 0.0
C458 C 0.72706 0.56411 0.3327 0.0
C459 C 0.70838 0.55356 0.20085 0.0
C460 C 0.70802 0.58274 0.2006 0.0
H461 H 0.74692 0.49527 0.47798 0.0
H462 H 0.72848 0.48321 0.34034 0.0
H463 H 0.71167 0.49883 0.22115 0.0
O464 O 0.69244 0.60717 0.42341 0.0
O465 O 0.77955 0.62154 0.36434 0.0
O466 O 0.80372 0.67326 0.321 0.0
O467 O 0.70579 0.59208 0.52564 0.0
O468 O 0.74224 0.66048 0.37454 0.0
O469 O 0.79275 0.70857 0.36266 0.0
O470 O 0.87311 0.69764 0.43875 0.0
O471 O 0.80522 0.70503 0.51677 0.0
O472 O 0.75027 0.66689 0.49792 0.0
O473 O 0.86347 0.7085 0.32523 0.0
O474 O 0.82018 0.6564 0.47484 0.0
O475 O 0.77393 0.63519 0.54489 0.0
C476 C 0.79785 0.64374 0.31294 0.0
C477 C 0.65087 0.55858 0.48113 0.0
C478 C 0.59073 0.52507 0.48839 0.0
C479 C 0.5935 0.49791 0.46848 0.0
C480 C 0.65211 0.53071 0.4612 0.0
C481 C 0.62374 0.50075 0.45502 0.0
C482 C 0.6199 0.5556 0.4954 0.0
C483 C 0.76073 0.69094 0.35125 0.0
C484 C 0.68169 0.59058 0.48652 0.0
C485 C 0.72827 0.50587 0.33859 0.0
C486 C 0.71861 0.51473 0.27074 0.0
C487 C 0.77395 0.69486 0.52478 0.0
C488 C 0.91887 0.73079 0.36032 0.0
C489 C 0.97642 0.74744 0.37313 0.0
C490 C 0.98442 0.77583 0.3319 0.0
C491 C 0.92791 0.7606 0.32443 0.0
C492 C 0.94339 0.72455 0.38581 0.0
C493 C 0.96039 0.78264 0.30919 0.0
C494 C 0.80536 0.64606 0.54161 0.0
C495 C 0.88419 0.70581 0.36907 0.0
H496 H 0.57211 0.47412 0.46435 0.0
H497 H 0.67507 0.53198 0.45079 0.0
H498 H 0.62522 0.47945 0.43997 0.0
H499 H 0.61851 0.57691 0.51093 0.0
H500 H 1.00942 0.79331 0.31942 0.0
H501 H 0.90996 0.76683 0.30694 0.0
H502 H 0.93684 0.70208 0.41563 0.0
H503 H 0.96705 0.80525 0.2801 0.0
Tb504 Tb 0.90203 0.69957 0.92578 0.0
C505 C 0.84889 0.55129 0.90501 0.0
N506 N 0.8623 0.57121 0.96687 0.0
C507 C 0.81924 0.53247 0.04735 0.0
C508 C 0.81952 0.52164 0.91163 0.0
C509 C 0.84858 0.56146 0.03825 0.0
C510 C 0.80444 0.51265 0.98367 0.0
C511 C 0.8525 0.53997 0.77002 0.0
C512 C 0.86529 0.56008 0.83514 0.0
C513 C 0.82292 0.51077 0.77607 0.0
C514 C 0.80649 0.50162 0.84669 0.0
Tb515 Tb 0.91055 0.61761 0.9427 0.0
N516 N 0.89354 0.58886 0.83083 0.0
C517 C 0.86986 0.54983 0.7008 0.0
C518 C 0.911 0.59821 0.76408 0.0
C519 C 0.89933 0.57897 0.698 0.0
H520 H 0.86034 0.5754 0.08915 0.0
H521 H 0.91304 0.58666 0.6449 0.0
H522 H 0.94096 0.73953 0.76915 0.0
H523 H 0.88255 0.74332 0.19254 0.0
H524 H 0.93376 0.6206 0.76131 0.0
H525 H 0.86085 0.53505 0.64942 0.0
H526 H 0.87268 0.7026 0.09358 0.0
H527 H 0.80832 0.52518 0.10383 0.0
H528 H 0.81265 0.49499 0.72662 0.0
H529 H 0.78389 0.47883 0.85067 0.0
H530 H 0.98213 0.79541 0.73418 0.0
H531 H 0.78186 0.49006 0.99114 0.0
H532 H 0.92805 0.79977 0.17778 0.0
N533 N 0.94053 0.75049 0.88784 0.0
C534 C 0.9513 0.77394 0.94221 0.0
C535 C 0.97406 0.78974 0.79318 0.0
C536 C 0.97463 0.80628 0.925 0.0
C537 C 0.95071 0.7581 0.81313 0.0
C538 C 0.98648 0.8139 0.84959 0.0
N539 N 0.9122 0.73504 0.02381 0.0
C540 C 0.89276 0.72689 0.08712 0.0
C541 C 0.94337 0.79013 0.06846 0.0
C542 C 0.93621 0.76599 0.01276 0.0
C543 C 0.9241 0.78173 0.13468 0.0
C544 C 0.8984 0.75002 0.14336 0.0
H545 H 1.00424 0.83851 0.83378 0.0
H546 H 1.00211 0.85506 0.97073 0.0
H547 H 0.97441 0.84091 0.09658 0.0
O548 O 0.85616 0.69535 0.94275 0.0
O549 O 0.92384 0.69474 0.03229 0.0
O550 O 0.94644 0.66262 1.00283 0.0
O551 O 0.8816 0.71383 0.83678 0.0
O552 O 0.86552 0.65175 0.9734 0.0
O553 O 0.88954 0.62906 0.04298 0.0
O554 O 0.94619 0.60474 0.91688 0.0
O555 O 0.87413 0.61933 0.86143 0.0
O556 O 0.90152 0.67221 0.82638 0.0
O557 O 0.91972 0.58902 0.02168 0.0
O558 O 0.94911 0.65694 0.87343 0.0
O559 O 0.94835 0.70608 0.87968 0.0
C560 C 0.9476 0.68817 0.03681 0.0
C561 C 0.85148 0.73754 0.88381 0.0
C562 C 0.81517 0.75914 0.90964 0.0
C563 C 0.84176 0.79068 0.90069 0.0
C564 C 0.87722 0.76935 0.87342 0.0
C565 C 0.87237 0.79566 0.8823 0.0
C566 C 0.82033 0.7325 0.90122 0.0
C567 C 0.86817 0.63895 0.03863 0.0
C568 C 0.8572 0.70976 0.87841 0.0
C569 C 0.98389 0.83012 0.98236 0.0
C570 C 0.96814 0.82207 0.054 0.0
C571 C 0.87784 0.64303 0.81477 0.0
C572 C 0.94127 0.5565 0.97226 0.0
C573 C 0.96869 0.52366 0.9793 0.0
C574 C 0.9391 0.49639 0.9579 0.0
C575 C 0.91251 0.52854 0.9512 0.0
C576 C 0.96949 0.55396 0.98638 0.0
C577 C 0.91149 0.49886 0.94404 0.0
C578 C 0.96205 0.68859 0.86102 0.0
C579 C 0.94185 0.58814 0.97951 0.0
H580 H 0.83895 0.8117 0.90804 0.0
H581 H 0.90116 0.77406 0.85837 0.0
H582 H 0.89248 0.82008 0.875 0.0
H583 H 0.80028 0.70795 0.90711 0.0
H584 H 0.93709 0.47277 0.95285 0.0
H585 H 0.89067 0.52954 0.94057 0.0
H586 H 0.99195 0.57551 1.00184 0.0
H587 H 0.889 0.47748 0.92795 0.0
Tb588 Tb 0.33608 0.20491 0.91713 0.0
C589 C 0.48334 0.30451 0.87497 0.0
N590 N 0.46438 0.29621 0.93912 0.0
C591 C 0.50478 0.29093 0.01054 0.0
C592 C 0.51329 0.30514 0.8756 0.0
C593 C 0.47535 0.29079 1.00731 0.0
C594 C 0.52368 0.29777 0.94427 0.0
C595 C 0.49182 0.32163 0.74095 0.0
C596 C 0.47295 0.31303 0.80856 0.0
C597 C 0.52138 0.32173 0.74107 0.0
C598 C 0.53211 0.31356 0.80822 0.0
Tb599 Tb 0.41754 0.29816 0.92538 0.0
N600 N 0.4439 0.31209 0.80997 0.0
C601 C 0.48039 0.32989 0.67527 0.0
C602 C 0.43299 0.32087 0.74662 0.0
C603 C 0.45098 0.32973 0.67833 0.0
H604 H 0.46213 0.28715 0.06021 0.0
H605 H 0.44213 0.33641 0.62805 0.0
H606 H 0.2933 0.18962 0.75899 0.0
H607 H 0.29773 0.17318 0.21295 0.0
H608 H 0.41057 0.32132 0.74827 0.0
H609 H 0.49418 0.33665 0.62215 0.0
H610 H 0.33572 0.18942 0.10368 0.0
H611 H 0.51312 0.28622 0.06452 0.0
H612 H 0.53622 0.32824 0.68962 0.0
H613 H 0.55513 0.31406 0.8076 0.0
H614 H 0.23647 0.17123 0.72114 0.0
H615 H 0.54656 0.29804 0.94717 0.0
H616 H 0.24121 0.1605 0.19189 0.0
N617 N 0.28407 0.18818 0.87862 0.0
C618 C 0.26135 0.17981 0.93412 0.0
C619 C 0.2432 0.17396 0.78138 0.0
C620 C 0.22866 0.16908 0.91587 0.0
C621 C 0.27529 0.18437 0.80283 0.0
C622 C 0.21984 0.16681 0.83822 0.0
N623 N 0.302 0.18856 0.02206 0.0
C624 C 0.31135 0.18455 0.09394 0.0
C625 C 0.24779 0.16973 0.06912 0.0
C626 C 0.27071 0.18011 1.00897 0.0
C627 C 0.25796 0.16815 0.14383 0.0
C628 C 0.28981 0.17519 0.156 0.0
H629 H 0.19498 0.15862 0.8216 0.0
H630 H 0.18057 0.15171 0.96286 0.0
H631 H 0.19738 0.15227 0.09753 0.0
O632 O 0.33757 0.16356 0.9571 0.0
O633 O 0.34379 0.2385 0.01091 0.0
O634 O 0.37097 0.29139 0.96983 0.0
O635 O 0.32622 0.16702 0.83992 0.0
O636 O 0.38495 0.21925 0.96275 0.0
O637 O 0.40712 0.26693 0.028 0.0
O638 O 0.43341 0.34753 0.90198 0.0
O639 O 0.4168 0.25941 0.84868 0.0
O640 O 0.36331 0.22757 0.81334 0.0
O641 O 0.44365 0.33375 0.0106 0.0
O642 O 0.37648 0.29376 0.85741 0.0
O643 O 0.33192 0.24072 0.84031 0.0
C644 C 0.34581 0.26677 1.0031 0.0
C645 C 0.30133 0.11431 0.89376 0.0
C646 C 0.28239 0.05624 0.908 0.0
C647 C 0.25093 0.04949 0.8888 0.0
C648 C 0.26956 0.10666 0.875 0.0
C649 C 0.2446 0.0745 0.87274 0.0
C650 C 0.30759 0.08892 0.91116 0.0
C651 C 0.39749 0.23567 0.02685 0.0
C652 C 0.32813 0.14843 0.89186 0.0
C653 C 0.20579 0.15982 0.97549 0.0
C654 C 0.21536 0.16014 0.05213 0.0
C655 C 0.39399 0.23759 0.80268 0.0
C656 C 0.47945 0.38854 0.96859 0.0
C657 C 0.51276 0.44851 0.97851 0.0
C658 C 0.54051 0.44571 0.96672 0.0
C659 C 0.50784 0.38716 0.95658 0.0
C660 C 0.48205 0.41944 0.98016 0.0
C661 C 0.53802 0.41546 0.95581 0.0
C662 C 0.34771 0.27281 0.82805 0.0
C663 C 0.44724 0.358 0.96835 0.0
H664 H 0.2311 0.02475 0.88652 0.0
H665 H 0.26394 0.1254 0.86116 0.0
H666 H 0.22024 0.06892 0.85793 0.0
H667 H 0.33201 0.09452 0.92568 0.0
H668 H 0.56443 0.46705 0.96702 0.0
H669 H 0.50676 0.36415 0.94814 0.0
H670 H 0.46028 0.42087 0.98942 0.0
H671 H 0.55974 0.41394 0.94695 0.0
Tb672 Tb 0.82987 0.13381 0.92119 0.0
C673 C 0.7367 0.18997 0.88641 0.0
N674 N 0.74336 0.17815 0.95129 0.0
C675 C 0.74739 0.22277 0.02446 0.0
C676 C 0.73636 0.21943 0.88781 0.0
C677 C 0.74745 0.19344 0.02041 0.0
C678 C 0.74209 0.23596 0.95784 0.0
C679 C 0.72505 0.18495 0.749 0.0
C680 C 0.73066 0.17269 0.81775 0.0
C681 C 0.72472 0.21429 0.75038 0.0
C682 C 0.73028 0.23143 0.81956 0.0
Tb683 Tb 0.74082 0.12933 0.93612 0.0
N684 N 0.73218 0.14482 0.81782 0.0
C685 C 0.72051 0.16763 0.68063 0.0
C686 C 0.7277 0.12781 0.75122 0.0
C687 C 0.72188 0.13899 0.68179 0.0
H688 H 0.75005 0.18293 0.07317 0.0
H689 H 0.71863 0.12557 0.62907 0.0
H690 H 0.83413 0.09719 0.76406 0.0
H691 H 0.88106 0.14292 0.20339 0.0
H692 H 0.72911 0.10596 0.75061 0.0
H693 H 0.71622 0.1763 0.62657 0.0
H694 H 0.85623 0.158 0.09744 0.0
H695 H 0.75104 0.23498 0.07921 0.0
H696 H 0.7204 0.22406 0.69812 0.0
H697 H 0.72997 0.25405 0.81959 0.0
H698 H 0.84829 0.05544 0.72956 0.0
H699 H 0.74201 0.25865 0.9613 0.0
H700 H 0.89107 0.09702 0.18689 0.0
N701 N 0.84207 0.09501 0.88412 0.0
C702 C 0.85317 0.08295 0.9395 0.0
C703 C 0.84948 0.06267 0.78904 0.0
C704 C 0.86195 0.0594 0.9226 0.0
C705 C 0.84142 0.08626 0.8088 0.0
C706 C 0.8593 0.04876 0.84641 0.0
N707 N 0.85151 0.12054 0.02301 0.0
C708 C 0.86037 0.13787 0.09006 0.0
C709 C 0.87252 0.08696 0.07011 0.0
C710 C 0.85836 0.09645 0.01169 0.0
C711 C 0.88006 0.10345 0.14052 0.0
C712 C 0.87444 0.1294 0.15005 0.0
H713 H 0.86588 0.03075 0.83088 0.0
H714 H 0.88108 0.03013 0.96996 0.0
H715 H 0.89034 0.05431 0.09951 0.0
O716 O 0.87378 0.17682 0.94416 0.0
O717 O 0.79956 0.11303 0.02325 0.0
O718 O 0.74576 0.08956 0.9887 0.0
O719 O 0.86423 0.15558 0.83213 0.0
O720 O 0.82197 0.17242 0.97086 0.0
O721 O 0.77376 0.15116 0.03615 0.0
O722 O 0.69116 0.10402 0.90546 0.0
O723 O 0.78159 0.16786 0.86586 0.0
O724 O 0.80386 0.1384 0.82427 0.0
O725 O 0.70502 0.11973 0.02096 0.0
O726 O 0.73998 0.08872 0.87172 0.0
O727 O 0.79034 0.09039 0.86267 0.0
C728 C 0.76996 0.08808 0.02236 0.0
C729 C 0.91908 0.18309 0.87411 0.0
C730 C 0.97766 0.21965 0.88718 0.0
C731 C 0.98278 0.19418 0.86505 0.0
C732 C 0.92491 0.15769 0.85587 0.0
C733 C 0.95657 0.16338 0.85036 0.0
C734 C 0.94559 0.21403 0.88976 0.0
C735 C 0.80548 0.17128 0.03325 0.0
C736 C 0.88573 0.1779 0.8765 0.0
C737 C 0.87449 0.04847 0.98144 0.0
C738 C 0.87979 0.06226 0.05519 0.0
C739 C 0.80065 0.16382 0.81739 0.0
C740 C 0.65294 0.07221 1.0017 0.0
C741 C 0.59401 0.03426 0.02183 0.0
C742 C 0.60189 1.01106 0.04828 0.0
C743 C 0.65933 0.04826 0.02914 0.0
C744 C 0.62004 0.06515 0.9984 0.0
C745 C 0.63407 0.01802 0.05197 0.0
C746 C 0.75861 0.0767 0.84875 0.0
C747 C 0.68056 0.10388 0.97438 0.0
H748 H 1.007 0.19777 0.86136 0.0
H749 H 0.90516 0.13365 0.84379 0.0
H750 H 0.96081 0.14379 0.83483 0.0
H751 H 0.94122 0.23365 0.90458 0.0
H752 H 0.58304 0.98742 0.06742 0.0
H753 H 0.68398 0.05295 0.03283 0.0
H754 H 0.61476 0.08337 0.97661 0.0
H755 H 0.63949 0.99979 0.07289 0.0
Tb756 Tb 0.71374 0.90122 0.58528 0.0
C757 C 0.5649 0.83953 0.63059 0.0
N758 N 0.58317 0.85386 0.56683 0.0
C759 C 0.54429 0.81007 0.48853 0.0
C760 C 0.53622 0.80917 0.62603 0.0
C761 C 0.57249 0.84023 0.49579 0.0
C762 C 0.52628 0.79428 0.55398 0.0
C763 C 0.55664 0.84143 0.76817 0.0
C764 C 0.57466 0.85563 0.70071 0.0
C765 C 0.52839 0.81093 0.76404 0.0
C766 C 0.51817 0.79489 0.69314 0.0
Tb767 Tb 0.62836 0.90319 0.58789 0.0
N768 N 0.60248 0.88484 0.703 0.0
C769 C 0.56766 0.85824 0.83783 0.0
C770 C 0.61307 0.90163 0.77055 0.0
C771 C 0.59593 0.88851 0.83893 0.0
H772 H 0.5851 0.85263 0.44397 0.0
H773 H 0.60459 0.90172 0.89248 0.0
H774 H 0.76268 0.93494 0.73448 0.0
H775 H 0.74431 0.90393 0.28513 0.0
H776 H 0.63485 0.92495 0.77238 0.0
H777 H 0.55453 0.8481 0.89099 0.0
H778 H 0.71145 0.88049 0.40243 0.0
H779 H 0.53624 0.7992 0.43224 0.0
H780 H 0.51423 0.79958 0.81528 0.0
H781 H 0.49615 0.7715 0.69076 0.0
H782 H 0.81762 0.98146 0.75802 0.0
H783 H 0.50436 0.77098 0.54803 0.0
H784 H 0.79583 0.95612 0.29171 0.0
N785 N 0.76471 0.94258 0.61339 0.0
C786 C 0.78348 0.95916 0.55244 0.0
C787 C 0.8082 0.97569 0.69989 0.0
C788 C 0.81505 0.9856 0.56276 0.0
C789 C 0.7771 0.94949 0.68642 0.0
C790 C 0.82707 0.9942 0.63784 0.0
N791 N 0.74266 0.9203 0.47343 0.0
C792 C 0.73354 0.90353 0.40551 0.0
C793 C 0.79209 0.96148 0.41463 0.0
C794 C 0.77217 0.9474 0.47964 0.0
C795 C 0.78132 0.94615 0.34321 0.0
C796 C 0.75225 0.91664 0.33914 0.0
H797 H 0.85133 1.01416 0.64822 0.0
H798 H 0.85828 0.02208 0.50454 0.0
H799 H 0.8381 1.00087 0.37446 0.0
O800 O 0.70537 0.85479 0.55686 0.0
O801 O 0.70371 0.92652 0.49275 0.0
O802 O 0.67205 0.94587 0.54339 0.0
O803 O 0.7457 0.88587 0.6273 0.0
O804 O 0.66587 0.86277 0.54491 0.0
O805 O 0.63991 0.88494 0.48215 0.0
O806 O 0.60837 0.93228 0.62118 0.0
O807 O 0.6347 0.86742 0.66114 0.0
O808 O 0.68893 0.89078 0.69623 0.0
O809 O 0.60119 0.91345 0.50695 0.0
O810 O 0.66772 0.9415 0.65544 0.0
O811 O 0.71407 0.93643 0.67155 0.0
C812 C 0.69702 0.94988 0.50238 0.0
C813 C 0.72469 0.82916 0.64052 0.0
C814 C 0.72993 0.78054 0.65203 0.0
C815 C 0.71559 0.77492 0.72533 0.0
C816 C 0.71109 0.8234 0.71424 0.0
C817 C 0.7063 0.79623 0.75601 0.0
C818 C 0.7336 0.80746 0.60919 0.0
C819 C 0.65119 0.86464 0.4825 0.0
C820 C 0.73003 0.85761 0.59504 0.0
C821 C 0.83412 1.0014 0.49789 0.0
C822 C 0.82264 0.98934 0.42382 0.0
C823 C 0.65796 0.8711 0.7099 0.0
C824 C 0.56341 0.92928 0.55291 0.0
C825 C 0.5298 0.95556 0.54024 0.0
C826 C 0.50217 0.92502 0.55271 0.0
C827 C 0.53525 0.89952 0.56592 0.0
C828 C 0.56058 0.95734 0.53963 0.0
C829 C 0.50492 0.89745 0.56552 0.0
C830 C 0.69668 0.95091 0.68541 0.0
C831 C 0.59581 0.93148 0.55424 0.0
H832 H 0.71231 0.7545 0.75978 0.0
H833 H 0.70448 0.84003 0.73958 0.0
H834 H 0.69584 0.79196 0.81307 0.0
H835 H 0.74348 0.81168 0.55138 0.0
H836 H 0.47817 0.92229 0.55156 0.0
H837 H 0.53667 0.87782 0.57625 0.0
H838 H 0.58227 0.98052 0.52994 0.0
H839 H 0.4833 0.87424 0.57507 0.0
Tb840 Tb 0.13741 0.81936 0.60484 0.0
C841 C 0.19594 0.73391 0.67776 0.0
N842 N 0.18634 0.74016 0.60893 0.0
C843 C 0.23677 0.75128 0.55179 0.0
C844 C 0.22707 0.73765 0.68697 0.0
C845 C 0.2057 0.74734 0.54544 0.0
C846 C 0.24767 0.74681 0.62302 0.0
C847 C 0.18374 0.71777 0.81189 0.0
C848 C 0.17446 0.724 0.73952 0.0
C849 C 0.21496 0.72205 0.82158 0.0
C850 C 0.23653 0.73191 0.7593 0.0
Tb851 Tb 0.13491 0.73227 0.60658 0.0
N852 N 0.1446 0.72072 0.72857 0.0
C853 C 0.16128 0.70715 0.87221 0.0
C854 C 0.12218 0.70912 0.78657 0.0
C855 C 0.13024 0.70236 0.85914 0.0
H856 H 0.19727 0.74943 0.48921 0.0
H857 H 0.11248 0.69348 0.90501 0.0
H858 H 0.09677 0.83082 0.74283 0.0
H859 H 0.14494 0.85238 0.30511 0.0
H860 H 0.0978 0.70433 0.77741 0.0
H861 H 0.16747 0.70208 0.92867 0.0
H862 H 0.16459 0.84246 0.42806 0.0
H863 H 0.25217 0.75741 0.50149 0.0
H864 H 0.22256 0.71752 0.87688 0.0
H865 H 0.26042 0.73481 0.76754 0.0
H866 H 0.04677 0.83411 0.75615 0.0
H867 H 0.27174 0.74985 0.62765 0.0
H868 H 0.09142 0.84902 0.29908 0.0
N869 N 0.09253 0.82461 0.6218 0.0
C870 C 0.07778 0.827 0.55729 0.0
C871 C 0.05466 0.83124 0.69983 0.0
C872 C 0.05003 0.8304 0.5613 0.0
C873 C 0.08248 0.82856 0.69247 0.0
C874 C 0.03793 0.8315 0.63388 0.0
N875 N 0.12127 0.82968 0.4887 0.0
C876 C 0.1407 0.83939 0.42502 0.0
C877 C 0.0812 0.83691 0.42001 0.0
C878 C 0.09294 0.83002 0.48791 0.0
C879 C 0.09956 0.84366 0.3526 0.0
C880 C 0.12977 0.84553 0.35563 0.0
H881 H 1.01694 0.83456 0.63941 0.0
H882 H 1.01547 0.83765 0.49507 0.0
H883 H 0.04359 0.84463 0.37164 0.0
O884 O 0.18538 0.85872 0.59512 0.0
O885 O 0.11476 0.78456 0.51118 0.0
O886 O 0.09171 0.73343 0.56218 0.0
O887 O 0.14848 0.86502 0.64814 0.0
O888 O 0.17675 0.81233 0.55785 0.0
O889 O 0.15492 0.76222 0.50166 0.0
O890 O 0.11225 0.68202 0.63101 0.0
O891 O 0.17256 0.7758 0.6721 0.0
O892 O 0.14757 0.80378 0.71416 0.0
O893 O 0.12918 0.69931 0.5178 0.0
O894 O 0.0944 0.7321 0.66663 0.0
O895 O 0.10508 0.78478 0.69638 0.0
C896 C 0.08982 0.75554 0.52002 0.0
C897 C 0.1882 0.90947 0.57738 0.0
C898 C 0.22936 0.9646 0.54167 0.0
C899 C 0.20662 0.96686 0.49445 0.0
C900 C 0.16576 0.91248 0.53027 0.0
C901 C 0.17504 0.94089 0.48869 0.0
C902 C 0.22022 0.93568 0.58256 0.0
C903 C 0.1749 0.79392 0.49905 0.0
C904 C 0.17802 0.87956 0.62283 0.0
C905 C 0.03685 0.83509 0.49327 0.0
C906 C 0.05271 0.83882 0.42285 0.0
C907 C 0.16848 0.79381 0.72436 0.0
C908 C 0.08232 0.64633 0.529 0.0
C909 C 0.04375 0.58765 0.50892 0.0
C910 C 0.02303 0.59623 0.47055 0.0
C911 C 0.06054 0.65344 0.49115 0.0
C912 C 0.07386 0.61317 0.53749 0.0
C913 C 0.03131 0.62864 0.46206 0.0
C914 C 0.08827 0.75253 0.70486 0.0
C915 C 0.11328 0.67354 0.56063 0.0
H916 H 0.21333 0.98887 0.46234 0.0
H917 H 0.14092 0.89306 0.52621 0.0
H918 H 0.15757 0.94291 0.4525 0.0
H919 H 0.23775 0.93377 0.61878 0.0
H920 H 1.00035 0.57773 0.446 0.0
H921 H 0.06616 0.6783 0.48369 0.0
H922 H 0.09034 0.60728 0.567 0.0
H923 H 1.01491 0.6346 0.43247 0.0
Tb924 Tb 0.21395 0.32606 0.60479 0.0
C925 C 0.30954 0.47375 0.62449 0.0
N926 N 0.30389 0.4536 0.56355 0.0
C927 C 0.30022 0.49194 0.47967 0.0
C928 C 0.30954 0.50323 0.61569 0.0
C929 C 0.30085 0.46315 0.49098 0.0
C930 C 0.30414 0.51186 0.5424 0.0
C931 C 0.3235 0.48595 0.75976 0.0
C932 C 0.31679 0.46549 0.69556 0.0
C933 C 0.32265 0.51488 0.75165 0.0
C934 C 0.31571 0.52351 0.67979 0.0
Tb935 Tb 0.30557 0.40724 0.59159 0.0
N936 N 0.31685 0.43702 0.70173 0.0
C937 C 0.33102 0.47676 0.83006 0.0
C938 C 0.32523 0.42845 0.76938 0.0
C939 C 0.33214 0.44802 0.83468 0.0
H940 H 0.29957 0.44916 0.44088 0.0
H941 H 0.33829 0.44089 0.88855 0.0
H942 H 0.21158 0.2818 0.75558 0.0
H943 H 0.15013 0.28773 0.33543 0.0
H944 H 0.32629 0.40641 0.77335 0.0
H945 H 0.3363 0.49181 0.8808 0.0
H946 H 0.18064 0.32624 0.43968 0.0
H947 H 0.29723 0.49901 0.42226 0.0
H948 H 0.32763 0.5309 0.80037 0.0
H949 H 0.31563 0.54616 0.67415 0.0
H950 H 0.19911 0.22552 0.78059 0.0
H951 H 0.30395 0.5343 0.53324 0.0
H952 H 0.13993 0.23137 0.34181 0.0
N953 N 0.20104 0.27406 0.63563 0.0
C954 C 0.18891 0.25203 0.57795 0.0
C955 C 0.19626 0.23268 0.72317 0.0
C956 C 0.18059 0.21947 0.58985 0.0
C957 C 0.20338 0.26451 0.70874 0.0
C958 C 0.1853 0.21015 0.66312 0.0
N959 N 0.18841 0.29265 0.503 0.0
C960 C 0.1768 0.30202 0.44216 0.0
C961 C 0.16466 0.23862 0.45117 0.0
C962 C 0.18164 0.26153 0.5094 0.0
C963 C 0.1535 0.24832 0.38739 0.0
C964 C 0.1593 0.28012 0.38336 0.0
H965 H 0.17942 0.18541 0.67461 0.0
H966 H 0.16013 0.17199 0.53701 0.0
H967 H 0.14568 0.1887 0.41566 0.0
O968 O 0.17456 0.33453 0.59164 0.0
O969 O 0.24128 0.33018 0.50002 0.0
O970 O 0.29595 0.36168 0.53298 0.0
O971 O 0.17716 0.30814 0.68825 0.0
O972 O 0.22693 0.37455 0.55885 0.0
O973 O 0.27362 0.39601 0.49028 0.0
O974 O 0.3537 0.41923 0.61945 0.0
O975 O 0.26758 0.40544 0.67327 0.0
O976 O 0.23925 0.35206 0.7076 0.0
O977 O 0.34404 0.4355 0.5141 0.0
O978 O 0.30387 0.36815 0.66339 0.0
O979 O 0.25322 0.31996 0.65674 0.0
C980 C 0.27168 0.3368 0.49675 0.0
C981 C 0.12495 0.29122 0.63784 0.0
C982 C 0.06762 0.27452 0.61832 0.0
C983 C 0.06064 0.24214 0.6134 0.0
C984 C 0.11691 0.25856 0.63349 0.0
C985 C 0.08503 0.23429 0.62111 0.0
C986 C 0.10013 0.29916 0.63038 0.0
C987 C 0.24259 0.387 0.49389 0.0
C988 C 0.15907 0.31675 0.65064 0.0
C989 C 0.16631 0.19704 0.52951 0.0
C990 C 0.15809 0.20655 0.4604 0.0
C991 C 0.24706 0.38203 0.71993 0.0
C992 C 0.39779 0.46735 0.56603 0.0
C993 C 0.458 0.50035 0.55784 0.0
C994 C 0.45582 0.52695 0.58568 0.0
C995 C 0.39718 0.49471 0.59333 0.0
C996 C 0.42846 0.47029 0.54799 0.0
C997 C 0.42587 0.52413 0.60304 0.0
C998 C 0.28429 0.33679 0.67678 0.0
C999 C 0.36659 0.43589 0.5573 0.0
H1000 H 0.03617 0.22273 0.60284 0.0
H1001 H 0.13519 0.25162 0.64015 0.0
H1002 H 0.07918 0.20924 0.61741 0.0
H1003 H 0.1061 0.32424 0.63501 0.0
H1004 H 0.47746 0.55036 0.59313 0.0
H1005 H 0.37446 0.49341 0.60715 0.0
H1006 H 0.42929 0.44924 0.5275 0.0
H1007 H 0.42488 0.54502 0.62407 0.0
C1008 C 0.0295 0.49266 0.95966 0.0
C1009 C 0.05001 0.50574 0.02407 0.0
C1010 C 1.00414 0.49933 0.94487 0.0
C1011 C 0.99776 0.51929 0.99389 0.0
H1012 H 0.03353 0.47773 0.91919 0.0
H1013 H 0.98946 0.48881 0.89388 0.0
S1014 S 0.04276 0.55748 0.17411 0.0
N1015 N 0.06111 0.53851 0.13951 0.0
N1016 N 1.01358 0.55058 0.11227 0.0
C1017 C 1.01787 0.53215 0.05909 0.0
C1018 C 0.04377 0.52545 0.07405 0.0
C1019 C 0.50311 0.48859 0.05477 0.0
C1020 C 0.51692 0.4819 0.99062 0.0
C1021 C 0.50931 0.52035 0.07063 0.0
C1022 C 0.52962 0.54715 0.02319 0.0
H1023 H 0.48794 0.46923 0.09418 0.0
H1024 H 0.49817 0.52397 0.12117 0.0
S1025 S 0.56944 0.54243 0.84383 0.0
N1026 N 0.55046 0.50481 0.87662 0.0
N1027 N 0.5619 0.56395 0.90636 0.0
C1028 C 0.54317 0.54068 0.95822 0.0
C1029 C 0.53684 0.50835 0.94197 0.0
C1030 C 0.53455 0.99452 0.99216 0.0
C1031 C 0.55855 0.02519 0.0202 0.0
C1032 C 0.50102 0.98413 0.99542 0.0
C1033 C 0.48961 1.00386 0.02692 0.0
H1034 H 0.54178 0.97829 0.96688 0.0
H1035 H 0.48394 0.96072 0.97141 0.0
S1036 S 0.54162 0.08506 0.11482 0.0
N1037 N 0.56778 0.07426 0.08473 0.0
N1038 N 0.50537 0.05503 0.09112 0.0
C1039 C 0.51329 0.03435 0.05639 0.0
C1040 C 0.54742 0.04493 0.05283 0.0
C1041 C 0.53496 0.03146 0.44636 0.0
C1042 C 0.51444 0.03822 0.49221 0.0
C1043 C 0.54048 1.00549 0.46312 0.0
C1044 C 0.52567 0.98475 0.5265 0.0
H1045 H 0.54686 0.04635 0.39642 0.0
H1046 H 0.556 1.00125 0.42507 0.0
S1047 S 0.47185 0.99299 0.66886 0.0
N1048 N 0.48067 0.02254 0.60662 0.0
N1049 N 0.49076 0.97402 0.63787 0.0
C1050 C 0.50538 0.99141 0.57338 0.0
C1051 C 0.4998 0.01788 0.5563 0.0
C1052 C 0.05387 0.54024 0.49287 0.0
C1053 C 0.03334 0.55204 0.51633 0.0
C1054 C 0.04323 0.50665 0.49237 0.0
C1055 C 1.01151 0.48304 0.51534 0.0
H1056 H 0.07816 0.55704 0.47298 0.0
H1057 H 0.06008 0.49908 0.47324 0.0
S1058 S 0.949 0.50117 0.58849 0.0
N1059 N 0.98013 0.53716 0.56754 0.0
N1060 N 0.96043 0.4746 0.56647 0.0
C1061 C 0.99092 0.49459 0.53997 0.0
C1062 C 1.00175 0.52877 0.54066 0.0
C1063 C 0.51786 0.52332 0.59009 0.0
C1064 C 0.49139 0.50524 0.53963 0.0
C1065 C 0.54986 0.53066 0.57228 0.0
C1066 C 0.55719 0.52027 0.50307 0.0
H1067 H 0.51381 0.53181 0.64452 0.0
H1068 H 0.56889 0.54395 0.61403 0.0
S1069 S 0.49779 0.47447 0.34785 0.0
N1070 N 0.47566 0.47872 0.41509 0.0
N1071 N 0.53519 0.49218 0.38186 0.0
C1072 C 0.53109 0.50254 0.45163 0.0
C1073 C 0.49851 0.49508 0.4698 0.0
C1074 C 1.00336 0.32312 0.2672 0.0
C1075 C 0.99202 0.29534 0.31367 0.0
C1076 C 0.03417 0.3376 0.23286 0.0
C1077 C 0.0555 0.32526 0.24372 0.0
H1078 H 0.98817 0.33355 0.25567 0.0
H1079 H 0.04064 0.35799 0.19479 0.0
S1080 S 0.04215 0.26093 0.38456 0.0
N1081 N 1.0073 0.26059 0.38284 0.0
N1082 N 0.06593 0.28937 0.32295 0.0
C1083 C 0.04577 0.29971 0.29697 0.0
C1084 C 1.0139 0.28431 0.3304 0.0
C1085 C 0.74582 0.75157 0.23695 0.0
C1086 C 0.71181 0.73607 0.22978 0.0
C1087 C 0.76132 0.73726 0.27684 0.0
C1088 C 0.74372 0.70616 0.30996 0.0
H1089 H 0.76092 0.77452 0.2091 0.0
H1090 H 0.78739 0.75073 0.28047 0.0
S1091 S 0.65375 0.65389 0.30519 0.0
N1092 N 0.66096 0.6869 0.25798 0.0
N1093 N 0.68963 0.66008 0.332 0.0
C1094 C 0.70955 0.6901 0.30256 0.0
C1095 C 0.6938 0.70486 0.2625 0.0
C1096 C 0.30097 0.02555 0.29693 0.0
C1097 C 0.33486 0.04615 0.29382 0.0
C1098 C 0.28578 0.99416 0.26521 0.0
C1099 C 0.30364 0.98159 0.22912 0.0
H1100 H 0.28595 0.03314 0.32669 0.0
H1101 H 0.25984 0.97959 0.27023 0.0
S1102 S 0.39349 0.0253 0.20625 0.0
N1103 N 0.38597 0.05113 0.25215 0.0
N1104 N 0.35778 0.99274 0.19293 0.0
C1105 C 0.33772 1.00181 0.22655 0.0
C1106 C 0.35315 0.0338 0.25854 0.0
C1107 C 0.03505 0.70375 0.74041 0.0
C1108 C 0.05795 0.73682 0.75305 0.0
C1109 C 1.00444 0.68864 0.77535 0.0
C1110 C 0.99487 0.7057 0.82468 0.0
H1111 H 0.04013 0.68938 0.70049 0.0
H1112 H 0.98789 0.66345 0.76191 0.0
S1113 S 0.04804 0.78995 0.89362 0.0
N1114 N 0.07083 0.78385 0.83188 0.0
N1115 N 1.01252 0.75624 0.89367 0.0
C1116 C 1.01799 0.73819 0.84172 0.0
C1117 C 0.04967 0.75344 0.80732 0.0
C1118 C 0.3227 0.33481 0.77273 0.0
C1119 C 0.29872 0.31908 0.71619 0.0
C1120 C 0.33815 0.31952 0.80769 0.0
C1121 C 0.33085 0.28791 0.78685 0.0
H1122 H 0.32951 0.35913 0.79082 0.0
H1123 H 0.35589 0.33271 0.85216 0.0
S1124 S 0.27196 0.23724 0.63618 0.0
N1125 N 0.26891 0.27029 0.63915 0.0
N1126 N 0.29963 0.24259 0.701 0.0
C1127 C 0.30735 0.27213 0.72918 0.0
C1128 C 0.2909 0.28741 0.69491 0.0
C1129 C 0.75751 0.02572 0.80137 0.0
C1130 C 0.74199 0.04423 0.80901 0.0
C1131 C 0.74247 0.9953 0.76441 0.0
C1132 C 0.71103 0.98156 0.73315 0.0
H1133 H 0.78134 0.03435 0.8255 0.0
H1134 H 0.75578 0.98257 0.76082 0.0
S1135 S 0.65727 0.01759 0.74855 0.0
N1136 N 0.69146 0.0445 0.78951 0.0
N1137 N 0.66339 0.98798 0.7208 0.0
C1138 C 0.6944 0.99901 0.74463 0.0
C1139 C 0.70977 0.03003 0.78203 0.0
C1140 C 0.20717 0.39458 0.7866 0.0
C1141 C 0.23341 0.38875 0.79112 0.0
C1142 C 0.18947 0.39388 0.85307 0.0
C1143 C 0.19723 0.38743 0.92746 0.0
H1144 H 0.19913 0.39802 0.73074 0.0
H1145 H 0.16869 0.39714 0.84544 0.0
S1146 S 0.26531 0.3725 0.9707 0.0
N1147 N 0.26656 0.37685 0.87616 0.0
N1148 N 0.23531 0.37775 1.00051 0.0
C1149 C 0.22467 0.38336 0.93269 0.0
C1150 C 0.24202 0.38323 0.86489 0.0
C1151 C 0.65776 0.84637 0.9199 0.0
C1152 C 0.64839 0.81313 0.91571 0.0
C1153 C 0.65942 0.86457 0.85381 0.0
C1154 C 0.6501 0.85019 0.78049 0.0
H1155 H 0.66512 0.85899 0.97436 0.0
H1156 H 0.6687 0.89038 0.85996 0.0
S1157 S 0.62087 0.76383 0.73604 0.0
N1158 N 0.62858 0.76667 0.82944 0.0
N1159 N 0.6292 0.80035 0.70787 0.0
C1160 C 0.63855 0.81669 0.77569 0.0
C1161 C 0.63817 0.79833 0.8424 0.0
C1162 C 0.24033 0.84629 0.85752 0.0
C1163 C 0.22635 0.83834 0.93192 0.0
C1164 C 0.22227 0.83037 0.79051 0.0
C1165 C 0.18937 0.80608 0.79491 0.0
H1166 H 0.26511 0.86574 0.8506 0.0
H1167 H 0.23371 0.83825 0.73466 0.0
S1168 S 0.14201 0.7735 0.97459 0.0
N1169 N 0.17834 0.80109 1.00476 0.0
N1170 N 0.14403 0.77415 0.87965 0.0
C1171 C 0.17546 0.79733 0.86861 0.0
C1172 C 0.19402 0.81257 0.93671 0.0
C1173 C 0.408 0.18253 0.66752 0.0
C1174 C 0.40088 0.19026 0.59389 0.0
C1175 C 0.40863 0.19982 0.73452 0.0
C1176 C 0.40207 0.22557 0.73115 0.0
H1177 H 0.41175 0.16201 0.67423 0.0
H1178 H 0.41242 0.19171 0.78994 0.0
S1179 S 0.38374 0.25712 0.55392 0.0
N1180 N 0.38985 0.22785 0.52266 0.0
N1181 N 0.38852 0.25811 0.64828 0.0
C1182 C 0.39584 0.23415 0.65813 0.0
C1183 C 0.39605 0.21724 0.58977 0.0
C1184 C 0.82868 0.18958 0.61091 0.0
C1185 C 0.85129 0.22311 0.61587 0.0
C1186 C 0.81177 0.17114 0.67577 0.0
C1187 C 0.81566 0.18532 0.74887 0.0
H1188 H 0.8245 0.17695 0.55667 0.0
H1189 H 0.79573 0.14528 0.66873 0.0
S1190 S 0.87052 0.272 0.79513 0.0
N1191 N 0.876 0.26968 0.70183 0.0
N1192 N 0.84315 0.23505 0.82279 0.0
C1193 C 0.83707 0.21891 0.75488 0.0
C1194 C 0.85503 0.23775 0.68882 0.0
C1195 C 0.82555 0.6326 0.7501 0.0
C1196 C 0.85726 0.63753 0.74446 0.0
C1197 C 0.80866 0.63442 0.68443 0.0
C1198 C 0.82261 0.64114 0.60986 0.0
H1199 H 0.81431 0.62892 0.80622 0.0
H1200 H 0.78484 0.6316 0.69277 0.0
S1201 S 0.9045 0.65363 0.56397 0.0
N1202 N 0.90164 0.64879 0.65834 0.0
N1203 N 0.86966 0.64986 0.5355 0.0
C1204 C 0.85382 0.64455 0.60364 0.0
C1205 C 0.87116 0.64347 0.67056 0.0
C1206 C 0.8558 0.63105 0.18289 0.0
C1207 C 0.84738 0.63598 0.10777 0.0
C1208 C 0.83833 0.63118 0.24901 0.0
C1209 C 0.8117 0.63637 0.24316 0.0
H1210 H 0.8768 0.62818 0.19114 0.0
H1211 H 0.84675 0.62882 0.30539 0.0
S1212 S 0.77752 0.64744 0.06098 0.0
N1213 N 0.80808 0.64288 0.03264 0.0
N1214 N 0.77718 0.64539 0.15595 0.0
C1215 C 0.8025 0.64035 0.16864 0.0
C1216 C 0.81968 0.63944 0.10142 0.0
C1217 C 0.39507 0.1694 0.15901 0.0
C1218 C 0.40094 0.18314 0.23324 0.0
C1219 C 0.39537 0.18692 0.0929 0.0
C1220 C 0.40061 0.21883 0.09781 0.0
H1221 H 0.38935 0.14447 0.15213 0.0
H1222 H 0.39055 0.1749 0.03762 0.0
S1223 S 0.41612 0.2655 0.27994 0.0
N1224 N 0.4121 0.23049 0.30805 0.0
N1225 N 0.41189 0.26324 0.18525 0.0
C1226 C 0.40701 0.233 0.17205 0.0
C1227 C 0.40722 0.21521 0.23921 0.0
C1228 C 0.80817 0.18893 0.17367 0.0
C1229 C 0.82315 0.19334 0.10078 0.0
C1230 C 0.82577 0.20678 0.23947 0.0
C1231 C 0.85931 0.22916 0.23568 0.0
H1232 H 0.78295 0.1706 0.1809 0.0
H1233 H 0.81355 0.20129 0.29465 0.0
S1234 S 0.90897 0.25433 0.05789 0.0
N1235 N 0.87264 0.22658 0.0282 0.0
N1236 N 0.90592 0.25699 0.15197 0.0
C1237 C 0.87406 0.23501 0.16289 0.0
C1238 C 0.85599 0.218 0.09563 0.0
C1239 C 0.64066 0.83306 0.27325 0.0
C1240 C 0.64562 0.80627 0.27946 0.0
C1241 C 0.64105 0.85098 0.33904 0.0
C1242 C 0.64637 0.84288 0.41408 0.0
H1243 H 0.63816 0.8413 0.21677 0.0
H1244 H 0.63857 0.87219 0.33055 0.0
S1245 S 0.65747 0.77274 0.46191 0.0
N1246 N 0.65518 0.7722 0.36698 0.0
N1247 N 0.65279 0.8033 0.48976 0.0
C1248 C 0.64939 0.81488 0.42086 0.0
C1249 C 0.64995 0.79739 0.35398 0.0
C1250 C 0.22163 0.84204 0.43318 0.0
C1251 C 0.196 0.80958 0.42926 0.0
C1252 C 0.23887 0.85915 0.36701 0.0
C1253 C 0.23215 0.84444 0.29392 0.0
H1254 H 0.2276 0.85496 0.48742 0.0
H1255 H 0.25701 0.88453 0.37278 0.0
S1256 S 0.16871 0.76002 0.25054 0.0
N1257 N 0.16554 0.76336 0.34447 0.0
N1258 N 0.19874 0.79537 0.22135 0.0
C1259 C 0.20779 0.81171 0.28921 0.0
C1260 C 0.18968 0.79431 0.35644 0.0
C1261 C 0.22042 0.39295 0.28262 0.0
C1262 C 0.18936 0.38969 0.28808 0.0
C1263 C 0.23798 0.39334 0.34913 0.0
C1264 C 0.22527 0.3904 0.42424 0.0
H1265 H 0.23052 0.39353 0.22637 0.0
H1266 H 0.26116 0.39459 0.3413 0.0
S1267 S 0.14577 0.38341 0.46987 0.0
N1268 N 0.14697 0.38391 0.37482 0.0
N1269 N 0.1805 0.38709 0.49877 0.0
C1270 C 0.19494 0.38887 0.43011 0.0
C1271 C 0.17683 0.38768 0.36252 0.0
C1272 C 0.26249 0.25787 0.98754 0.0
C1273 C 0.2582 0.26877 0.05935 0.0
C1274 C 0.29129 0.25836 0.96937 0.0
C1275 C 0.3171 0.26967 0.022 0.0
H1276 H 0.24294 0.24787 0.94575 0.0
H1277 H 0.29258 0.24873 0.91437 0.0
S1278 S 0.31931 0.30284 0.21606 0.0
N1279 N 0.2831 0.29313 0.18207 0.0
N1280 N 0.33736 0.29348 0.14763 0.0
C1281 C 0.31383 0.28188 0.09283 0.0
C1282 C 0.2844 0.28166 0.11145 0.0
C1283 C 0.78789 0.05599 0.10174 0.0
C1284 C 0.76492 0.05638 0.05146 0.0
C1285 C 0.78799 0.02738 0.11909 0.0
C1286 C 0.76525 0.99765 0.08605 0.0
H1287 H 0.8068 0.07817 0.1263 0.0
H1288 H 0.80692 0.02882 0.15651 0.0
S1289 S 0.69647 0.98391 0.95994 0.0
N1290 N 0.71574 0.02327 0.97722 0.0
N1291 N 0.71685 0.96951 1.00672 0.0
C1292 C 0.74052 0.99699 0.04013 0.0
C1293 C 0.74012 0.02631 0.02357 0.0
C1294 C 0.97922 0.73746 0.11925 0.0
C1295 C 0.97882 0.71335 0.07171 0.0
C1296 C 1.00829 0.7657 0.13762 0.0
C1297 C 0.03844 0.77135 0.10912 0.0
H1298 H 0.95675 0.73524 0.13993 0.0
H1299 H 1.00687 0.78396 0.17174 0.0
S1300 S 0.05132 0.71301 0.99349 0.0
N1301 N 1.01172 0.69464 1.00641 0.0
N1302 N 0.06613 0.74813 0.03834 0.0
C1303 C 0.03868 0.74601 0.06755 0.0
C1304 C 1.00896 0.71695 0.0496 0.0
C1305 C 0.30298 0.27813 0.46535 0.0
C1306 C 0.28064 0.25622 0.41167 0.0
C1307 C 0.30187 0.306 0.48802 0.0
C1308 C 0.27825 0.31272 0.45811 0.0
H1309 H 0.31977 0.27252 0.49434 0.0
H1310 H 0.31794 0.32087 0.53365 0.0
S1311 S 0.22177 0.26874 0.29784 0.0
N1312 N 0.23955 0.24729 0.3164 0.0
N1313 N 0.23748 0.29938 0.35895 0.0
C1314 C 0.25859 0.29314 0.39775 0.0
C1315 C 0.25978 0.26497 0.37458 0.0
C1316 C 0.73354 0.98408 0.39447 0.0
C1317 C 0.71781 0.9819 0.46473 0.0
C1318 C 0.7544 1.01426 0.36007 0.0
C1319 C 0.76041 0.04347 0.39487 0.0
H1320 H 0.72946 0.96229 0.36539 0.0
H1321 H 0.76625 0.01476 0.3064 0.0
S1322 S 0.72334 0.05124 0.57554 0.0
N1323 N 0.70842 1.01183 0.56525 0.0
N1324 N 0.74743 0.06824 0.5009 0.0
C1325 C 0.74421 0.04162 0.46396 0.0
C1326 C 0.72287 1.01095 0.4986 0.0
C1327 C 0.03046 0.74982 0.36587 0.0
C1328 C 1.00294 0.74395 0.40898 0.0
C1329 C 0.05801 0.75201 0.40183 0.0
C1330 C 0.05894 0.74815 0.48199 0.0
H1331 H 0.03111 0.75387 0.30428 0.0
H1332 H 0.07911 0.75778 0.36705 0.0
S1333 S 0.9947 0.73588 0.62116 0.0
N1334 N 0.97927 0.73629 0.53631 0.0
N1335 N 0.03073 0.74029 0.60311 0.0
C1336 C 0.03153 0.74202 0.52524 0.0
C1337 C 1.00359 0.7399 0.48892 0.0
C1338 C 0.74512 0.77598 0.91295 0.0
C1339 C 0.72502 0.75599 0.97224 0.0
C1340 C 0.77293 0.77527 0.89017 0.0
C1341 C 0.78257 0.75507 0.92719 0.0
H1342 H 0.73995 0.79322 0.88531 0.0
H1343 H 0.78764 0.79164 0.84473 0.0
S1344 S 0.73693 0.69576 0.0822 0.0
N1345 N 0.71483 0.71277 0.06243 0.0
N1346 N 0.76853 0.71307 0.02397 0.0
C1347 C 0.76187 0.73368 0.98426 0.0
C1348 C 0.73282 0.73377 1.00579 0.0
C1349 C 0.30202 0.02822 0.99814 0.0
C1350 C 0.28784 0.02878 0.9274 0.0
C1351 C 0.30191 1.00006 0.02338 0.0
C1352 C 0.28712 0.97138 0.97956 0.0
H1353 H 0.31172 0.04906 0.03604 0.0
H1354 H 0.31194 1.00035 0.07922 0.0
S1355 S 0.25479 0.96294 0.78176 0.0
N1356 N 0.26432 0.99999 0.80789 0.0
N1357 N 0.26388 0.94724 0.85608 0.0
C1358 C 0.2756 0.97255 0.90604 0.0
C1359 C 0.27595 1.00118 0.87993 0.0
C1360 C 0.06251 0.29384 0.90187 0.0
C1361 C 0.06159 0.30732 0.97336 0.0
C1362 C 0.03501 0.26627 0.87244 0.0
C1363 C 1.0056 0.25095 0.91384 0.0
H1364 H 0.08493 0.30415 0.86944 0.0
H1365 H 0.03705 0.25639 0.81795 0.0
S1366 S 0.9913 0.27515 0.10593 0.0
N1367 N 0.02885 0.30287 0.08433 0.0
N1368 N 0.97802 0.25035 0.03167 0.0
C1369 C 1.00442 0.26434 0.98492 0.0
C1370 C 0.03215 0.2927 0.0139 0.0
C1371 C 0.72293 0.72494 0.62805 0.0
C1372 C 0.7419 0.75896 0.62167 0.0
C1373 C 0.73375 0.7044 0.59851 0.0
C1374 C 0.76417 0.717 0.56218 0.0
H1375 H 0.69921 0.71402 0.65466 0.0
H1376 H 0.71798 0.67843 0.60363 0.0
S1377 S 0.82307 0.80438 0.53094 0.0
N1378 N 0.79297 0.80422 0.57811 0.0
N1379 N 0.81246 0.7659 0.52012 0.0
C1380 C 0.78333 0.75096 0.55612 0.0
C1381 C 0.77243 0.77182 0.58633 0.0
C1382 C 0.28667 0.997 0.49654 0.0
C1383 C 0.26227 0.99315 0.54792 0.0
C1384 C 0.31576 0.02672 0.49088 0.0
C1385 C 0.32089 0.05392 0.53428 0.0
H1386 H 0.28262 0.97744 0.45798 0.0
H1387 H 0.33346 0.02882 0.44885 0.0
S1388 S 0.26786 0.05316 0.6911 0.0
N1389 N 0.24721 0.01675 0.65224 0.0
N1390 N 0.30205 0.07258 0.642 0.0
C1391 C 0.29791 0.04925 0.59096 0.0
C1392 C 0.26845 0.01892 0.59723 0.0
C1393 C 0.98209 0.26082 0.62396 0.0
C1394 C 0.9822 0.28128 0.5653 0.0
C1395 C 1.01042 0.26068 0.64511 0.0
C1396 C 0.0403 0.2813 0.60909 0.0
H1397 H 0.95963 0.24369 0.65155 0.0
H1398 H 1.00851 0.243 0.68731 0.0
S1399 S 0.05542 0.34596 0.46757 0.0
N1400 N 1.01596 0.32755 0.48322 0.0
N1401 N 0.06928 0.32702 0.52208 0.0
C1402 C 0.04155 0.30473 0.55732 0.0
C1403 C 1.0125 0.30487 0.53582 0.0
loop_
_geom_bond_atom_site_label_1
_geom_bond_atom_site_label_2
_geom_bond_distance
_geom_bond_site_symmetry_2
_ccdc_geom_bond_type
Tb0 N29 2.617 . S
Tb0 N35 2.572 . S
Tb0 O44 2.465 . S
Tb0 O45 2.387 . S
Tb0 O47 2.428 . S
Tb0 O48 2.308 . S
Tb0 O52 2.349 . S
Tb0 O55 2.393 1_554 S
Tb0 C64 2.802 . S
C1 N2 1.379 . S
C1 C4 1.416 . S
C1 C8 1.424 . S
N2 C1 1.379 . S
N2 C5 1.334 . S
N2 Tb11 2.617 . S
C3 C5 1.390 . S
C3 C6 1.339 . S
C3 H23 0.930 . S
C4 C1 1.416 . S
C4 C6 1.416 . S
C4 C10 1.448 . S
C5 N2 1.334 . S
C5 C3 1.390 . S
C5 H16 0.930 . S
C6 C3 1.339 . S
C6 C4 1.416 . S
C6 H27 0.930 1_455 S
C7 C8 1.413 1_556 S
C7 C9 1.427 . S
C7 C13 1.416 . S
C8 C1 1.424 . S
C8 C7 1.413 1_554 S
C8 N12 1.361 . S
C9 C7 1.427 . S
C9 C10 1.328 1_556 S
C9 H24 0.929 . S
C10 C4 1.448 . S
C10 C9 1.328 1_554 S
C10 H25 0.930 1_455 S
Tb11 N2 2.617 . S
Tb11 N12 2.572 . S
Tb11 O46 2.349 . S
Tb11 O49 2.393 . S
Tb11 O50 2.465 . S
Tb11 O51 2.387 . S
Tb11 O53 2.428 . S
Tb11 O54 2.308 . S
Tb11 C75 2.802 . S
N12 C8 1.361 . S
N12 Tb11 2.572 . S
N12 C14 1.340 1_554 S
C13 C7 1.416 . S
C13 C15 1.332 . S
C13 H21 0.931 . S
C14 N12 1.340 1_556 S
C14 C15 1.407 . S
C14 H20 0.930 . S
C15 C13 1.332 . S
C15 C14 1.407 . S
C15 H17 0.929 . S
H16 C5 0.930 . S
H17 C15 0.929 . S
H18 C33 0.930 . S
H19 C40 0.929 . S
H20 C14 0.930 . S
H21 C13 0.931 . S
H22 C36 0.930 . S
H23 C3 0.930 . S
H24 C9 0.929 . S
H25 C10 0.930 1_655 S
H26 C31 0.930 . S
H27 C6 0.930 1_655 S
H28 C39 0.931 . S
N29 Tb0 2.617 . S
N29 C30 1.379 . S
N29 C33 1.334 1_554 S
C30 N29 1.379 . S
C30 C32 1.416 . S
C30 C38 1.424 . S
C31 H26 0.930 . S
C31 C33 1.390 . S
C31 C34 1.339 1_556 S
C32 C30 1.416 . S
C32 C34 1.416 . S
C32 C65 1.448 . S
C33 H18 0.930 . S
C33 N29 1.334 1_556 S
C33 C31 1.390 . S
C34 C31 1.339 1_554 S
C34 C32 1.416 . S
C34 H41 0.930 . S
N35 Tb0 2.572 . S
N35 C36 1.340 . S
N35 C38 1.361 . S
C36 H22 0.930 . S
C36 N35 1.340 . S
C36 C40 1.407 . S
C37 C38 1.413 . S
C37 C39 1.416 . S
C37 C66 1.427 . S
C38 C30 1.424 . S
C38 N35 1.361 . S
C38 C37 1.413 . S
C39 H28 0.931 . S
C39 C37 1.416 . S
C39 C40 1.332 . S
C40 H19 0.929 . S
C40 C36 1.407 . S
C40 C39 1.332 . S
H41 C34 0.930 . S
H42 C65 0.930 . S
H43 C66 0.929 . S
O44 Tb0 2.465 . S
O44 C64 1.264 . S
O45 Tb0 2.387 . S
O45 C56 1.264 . S
O46 Tb11 2.349 . S
O46 C56 1.243 . S
O47 Tb0 2.428 . S
O47 C64 1.256 . S
O48 Tb0 2.308 . S
O48 C63 1.266 . S
O49 Tb11 2.393 . S
O49 C63 1.248 . S
O50 Tb11 2.465 . S
O50 C75 1.264 . S
O51 Tb11 2.387 . S
O51 C67 1.264 . S
O52 Tb0 2.349 . S
O52 C67 1.243 . S
O53 Tb11 2.428 . S
O53 C75 1.256 . S
O54 Tb11 2.308 . S
O54 C74 1.266 1_554 S
O55 Tb0 2.393 1_556 S
O55 C74 1.248 . S
C56 O45 1.264 . S
C56 O46 1.243 . S
C57 C60 1.399 1_554 S
C57 C62 1.383 . S
C57 C64 1.496 . S
C58 C59 1.405 . S
C58 C62 1.389 . S
C59 C58 1.405 . S
C59 C61 1.375 1_554 S
C59 H76 0.928 1_554 S
C60 C57 1.399 1_556 S
C60 C61 1.392 . S
C60 H77 0.929 . S
C61 C59 1.375 1_556 S
C61 C60 1.392 . S
C61 H78 0.929 . S
C62 C57 1.383 . S
C62 C58 1.389 . S
C62 H79 0.931 . S
C63 O48 1.266 . S
C63 O49 1.248 . S
C64 Tb0 2.802 . S
C64 O44 1.264 . S
C64 O47 1.256 . S
C64 C57 1.496 . S
C65 C32 1.448 . S
C65 H42 0.930 . S
C65 C66 1.328 . S
C66 C37 1.427 . S
C66 H43 0.929 . S
C66 C65 1.328 . S
C67 O51 1.264 . S
C67 O52 1.243 . S
C68 C71 1.399 . S
C68 C72 1.383 . S
C68 C75 1.496 . S
C69 C70 1.399 . S
C69 C72 1.389 . S
C70 C69 1.399 . S
C70 C73 1.380 . S
C70 H80 0.929 . S
C71 C68 1.399 . S
C71 C73 1.392 . S
C71 H81 0.929 . S
C72 C68 1.383 . S
C72 C69 1.389 . S
C72 H82 0.931 . S
C73 C70 1.380 . S
C73 C71 1.392 . S
C73 H83 0.929 . S
C74 O54 1.266 1_556 S
C74 O55 1.248 . S
C75 Tb11 2.802 . S
C75 O50 1.264 . S
C75 O53 1.256 . S
C75 C68 1.496 . S
H76 C59 0.928 1_556 S
H77 C60 0.929 . S
H78 C61 0.929 . S
H79 C62 0.931 . S
H80 C70 0.929 . S
H81 C71 0.929 . S
H82 C72 0.931 . S
H83 C73 0.929 . S
Tb84 N113 2.617 . S
Tb84 N119 2.572 . S
Tb84 O128 2.465 . S
Tb84 O129 2.387 . S
Tb84 O131 2.428 . S
Tb84 O132 2.308 . S
Tb84 O136 2.349 . S
Tb84 O139 2.393 1_554 S
Tb84 C148 2.802 . S
C85 N86 1.379 . S
C85 C88 1.416 . S
C85 C92 1.424 . S
N86 C85 1.379 . S
N86 C89 1.334 . S
N86 Tb95 2.617 . S
C87 C89 1.390 . S
C87 C90 1.339 . S
C87 H107 0.930 . S
C88 C85 1.416 . S
C88 C90 1.416 . S
C88 C94 1.448 . S
C89 N86 1.334 . S
C89 C87 1.390 . S
C89 H100 0.930 . S
C90 C87 1.339 . S
C90 C88 1.416 . S
C90 H111 0.930 . S
C91 C92 1.413 1_556 S
C91 C93 1.427 . S
C91 C97 1.416 . S
C92 C85 1.424 . S
C92 C91 1.413 1_554 S
C92 N96 1.361 . S
C93 C91 1.427 . S
C93 C94 1.328 1_556 S
C93 H108 0.929 . S
C94 C88 1.448 . S
C94 C93 1.328 1_554 S
C94 H109 0.930 . S
Tb95 N86 2.617 . S
Tb95 N96 2.572 . S
Tb95 O130 2.349 . S
Tb95 O133 2.393 . S
Tb95 O134 2.465 . S
Tb95 O135 2.387 . S
Tb95 O137 2.428 . S
Tb95 O138 2.308 . S
Tb95 C159 2.802 . S
N96 C92 1.361 . S
N96 Tb95 2.572 . S
N96 C98 1.340 1_554 S
C97 C91 1.416 . S
C97 C99 1.332 . S
C97 H105 0.931 . S
C98 N96 1.340 1_556 S
C98 C99 1.407 . S
C98 H104 0.930 . S
C99 C97 1.332 . S
C99 C98 1.407 . S
C99 H101 0.929 . S
H100 C89 0.930 . S
H101 C99 0.929 . S
H102 C117 0.930 . S
H103 C124 0.929 . S
H104 C98 0.930 . S
H105 C97 0.931 . S
H106 C120 0.930 . S
H107 C87 0.930 . S
H108 C93 0.929 . S
H109 C94 0.930 . S
H110 C115 0.930 . S
H111 C90 0.930 . S
H112 C123 0.931 . S
N113 Tb84 2.617 . S
N113 C114 1.379 . S
N113 C117 1.334 1_554 S
C114 N113 1.379 . S
C114 C116 1.416 . S
C114 C122 1.424 . S
C115 H110 0.930 . S
C115 C117 1.390 . S
C115 C118 1.339 1_556 S
C116 C114 1.416 . S
C116 C118 1.416 . S
C116 C149 1.448 . S
C117 H102 0.930 . S
C117 N113 1.334 1_556 S
C117 C115 1.390 . S
C118 C115 1.339 1_554 S
C118 C116 1.416 . S
C118 H125 0.930 . S
N119 Tb84 2.572 . S
N119 C120 1.340 . S
N119 C122 1.361 . S
C120 H106 0.930 . S
C120 N119 1.340 . S
C120 C124 1.407 . S
C121 C122 1.413 . S
C121 C123 1.416 . S
C121 C150 1.427 . S
C122 C114 1.424 . S
C122 N119 1.361 . S
C122 C121 1.413 . S
C123 H112 0.931 . S
C123 C121 1.416 . S
C123 C124 1.332 . S
C124 H103 0.929 . S
C124 C120 1.407 . S
C124 C123 1.332 . S
H125 C118 0.930 . S
H126 C149 0.930 . S
H127 C150 0.929 . S
O128 Tb84 2.465 . S
O128 C148 1.264 . S
O129 Tb84 2.387 . S
O129 C140 1.264 . S
O130 Tb95 2.349 . S
O130 C140 1.243 . S
O131 Tb84 2.428 . S
O131 C148 1.256 . S
O132 Tb84 2.308 . S
O132 C147 1.266 . S
O133 Tb95 2.393 . S
O133 C147 1.248 . S
O134 Tb95 2.465 . S
O134 C159 1.264 . S
O135 Tb95 2.387 . S
O135 C151 1.264 . S
O136 Tb84 2.349 . S
O136 C151 1.243 . S
O137 Tb95 2.428 . S
O137 C159 1.256 . S
O138 Tb95 2.308 . S
O138 C158 1.266 1_554 S
O139 Tb84 2.393 1_556 S
O139 C158 1.248 . S
C140 O129 1.264 . S
C140 O130 1.243 . S
C141 C144 1.399 1_554 S
C141 C146 1.383 . S
C141 C148 1.496 . S
C142 C143 1.404 . S
C142 C146 1.389 . S
C143 C142 1.404 . S
C143 C145 1.375 1_554 S
C143 H160 0.928 1_554 S
C144 C141 1.399 1_556 S
C144 C145 1.392 . S
C144 H161 0.929 . S
C145 C143 1.375 1_556 S
C145 C144 1.392 . S
C145 H162 0.929 . S
C146 C141 1.383 . S
C146 C142 1.389 . S
C146 H163 0.931 . S
C147 O132 1.266 . S
C147 O133 1.248 . S
C148 Tb84 2.802 . S
C148 O128 1.264 . S
C148 O131 1.256 . S
C148 C141 1.496 . S
C149 C116 1.448 . S
C149 H126 0.930 . S
C149 C150 1.328 . S
C150 C121 1.427 . S
C150 H127 0.929 . S
C150 C149 1.328 . S
C151 O135 1.264 . S
C151 O136 1.243 . S
C152 C155 1.399 . S
C152 C156 1.383 . S
C152 C159 1.496 . S
C153 C154 1.399 . S
C153 C156 1.389 . S
C154 C153 1.399 . S
C154 C157 1.380 . S
C154 H164 0.929 . S
C155 C152 1.399 . S
C155 C157 1.392 . S
C155 H165 0.929 . S
C156 C152 1.383 . S
C156 C153 1.389 . S
C156 H166 0.931 . S
C157 C154 1.380 . S
C157 C155 1.392 . S
C157 H167 0.929 . S
C158 O138 1.266 1_556 S
C158 O139 1.248 . S
C159 Tb95 2.802 . S
C159 O134 1.264 . S
C159 O137 1.256 . S
C159 C152 1.496 . S
H160 C143 0.928 1_556 S
H161 C144 0.929 . S
H162 C145 0.929 . S
H163 C146 0.931 . S
H164 C154 0.929 . S
H165 C155 0.929 . S
H166 C156 0.931 . S
H167 C157 0.929 . S
Tb168 N197 2.617 . S
Tb168 N203 2.572 . S
Tb168 O212 2.465 . S
Tb168 O213 2.387 . S
Tb168 O215 2.428 . S
Tb168 O216 2.308 . S
Tb168 O220 2.349 . S
Tb168 O223 2.393 1_554 S
Tb168 C232 2.802 . S
C169 N170 1.379 . S
C169 C172 1.416 . S
C169 C176 1.424 . S
N170 C169 1.379 . S
N170 C173 1.334 . S
N170 Tb179 2.617 . S
C171 C173 1.390 . S
C171 C174 1.339 . S
C171 H191 0.930 . S
C172 C169 1.416 . S
C172 C174 1.416 . S
C172 C178 1.448 . S
C173 N170 1.334 . S
C173 C171 1.390 . S
C173 H184 0.930 . S
C174 C171 1.339 . S
C174 C172 1.416 . S
C174 H195 0.930 1_565 S
C175 C176 1.413 1_556 S
C175 C177 1.427 . S
C175 C181 1.416 . S
C176 C169 1.424 . S
C176 C175 1.413 1_554 S
C176 N180 1.361 . S
C177 C175 1.427 . S
C177 C178 1.328 1_556 S
C177 H192 0.929 . S
C178 C172 1.448 . S
C178 C177 1.328 1_554 S
C178 H193 0.930 1_565 S
Tb179 N170 2.617 . S
Tb179 N180 2.572 . S
Tb179 O214 2.349 . S
Tb179 O217 2.393 . S
Tb179 O218 2.465 . S
Tb179 O219 2.387 . S
Tb179 O221 2.428 . S
Tb179 O222 2.308 . S
Tb179 C243 2.802 . S
N180 C176 1.361 . S
N180 Tb179 2.572 . S
N180 C182 1.340 1_554 S
C181 C175 1.416 . S
C181 C183 1.332 . S
C181 H189 0.931 . S
C182 N180 1.340 1_556 S
C182 C183 1.407 . S
C182 H188 0.930 . S
C183 C181 1.332 . S
C183 C182 1.407 . S
C183 H185 0.929 . S
H184 C173 0.930 . S
H185 C183 0.929 . S
H186 C201 0.930 . S
H187 C208 0.929 . S
H188 C182 0.930 . S
H189 C181 0.931 . S
H190 C204 0.930 . S
H191 C171 0.930 . S
H192 C177 0.929 . S
H193 C178 0.930 1_545 S
H194 C199 0.930 . S
H195 C174 0.930 1_545 S
H196 C207 0.931 . S
N197 Tb168 2.617 . S
N197 C198 1.379 . S
N197 C201 1.334 1_554 S
C198 N197 1.379 . S
C198 C200 1.416 . S
C198 C206 1.424 . S
C199 H194 0.930 . S
C199 C201 1.390 . S
C199 C202 1.339 1_556 S
C200 C198 1.416 . S
C200 C202 1.416 . S
C200 C233 1.448 . S
C201 H186 0.930 . S
C201 N197 1.334 1_556 S
C201 C199 1.390 . S
C202 C199 1.339 1_554 S
C202 C200 1.416 . S
C202 H209 0.930 . S
N203 Tb168 2.572 . S
N203 C204 1.340 . S
N203 C206 1.361 . S
C204 H190 0.930 . S
C204 N203 1.340 . S
C204 C208 1.407 . S
C205 C206 1.413 . S
C205 C207 1.416 . S
C205 C234 1.427 . S
C206 C198 1.424 . S
C206 N203 1.361 . S
C206 C205 1.413 . S
C207 H196 0.931 . S
C207 C205 1.416 . S
C207 C208 1.332 . S
C208 H187 0.929 . S
C208 C204 1.407 . S
C208 C207 1.332 . S
H209 C202 0.930 . S
H210 C233 0.930 . S
H211 C234 0.929 . S
O212 Tb168 2.465 . S
O212 C232 1.264 . S
O213 Tb168 2.387 . S
O213 C224 1.264 . S
O214 Tb179 2.349 . S
O214 C224 1.243 . S
O215 Tb168 2.428 . S
O215 C232 1.256 . S
O216 Tb168 2.308 . S
O216 C231 1.266 . S
O217 Tb179 2.393 . S
O217 C231 1.248 . S
O218 Tb179 2.465 . S
O218 C243 1.264 . S
O219 Tb179 2.387 . S
O219 C235 1.264 . S
O220 Tb168 2.349 . S
O220 C235 1.243 . S
O221 Tb179 2.428 . S
O221 C243 1.256 . S
O222 Tb179 2.308 . S
O222 C242 1.266 1_554 S
O223 Tb168 2.393 1_556 S
O223 C242 1.248 . S
C224 O213 1.264 . S
C224 O214 1.243 . S
C225 C228 1.399 1_554 S
C225 C230 1.383 . S
C225 C232 1.496 . S
C226 C227 1.404 . S
C226 C230 1.389 . S
C227 C226 1.404 . S
C227 C229 1.375 1_554 S
C227 H244 0.928 1_554 S
C228 C225 1.399 1_556 S
C228 C229 1.392 . S
C228 H245 0.929 . S
C229 C227 1.375 1_556 S
C229 C228 1.392 . S
C229 H246 0.929 . S
C230 C225 1.383 . S
C230 C226 1.389 . S
C230 H247 0.931 . S
C231 O216 1.266 . S
C231 O217 1.248 . S
C232 Tb168 2.802 . S
C232 O212 1.264 . S
C232 O215 1.256 . S
C232 C225 1.496 . S
C233 C200 1.448 . S
C233 H210 0.930 . S
C233 C234 1.328 . S
C234 C205 1.427 . S
C234 H211 0.929 . S
C234 C233 1.328 . S
C235 O219 1.264 . S
C235 O220 1.243 . S
C236 C239 1.399 . S
C236 C240 1.383 . S
C236 C243 1.496 . S
C237 C238 1.399 . S
C237 C240 1.389 . S
C238 C237 1.399 . S
C238 C241 1.380 . S
C238 H248 0.929 . S
C239 C236 1.399 . S
C239 C241 1.392 . S
C239 H249 0.929 . S
C240 C236 1.383 . S
C240 C237 1.389 . S
C240 H250 0.931 . S
C241 C238 1.380 . S
C241 C239 1.392 . S
C241 H251 0.929 . S
C242 O222 1.266 1_556 S
C242 O223 1.248 . S
C243 Tb179 2.802 . S
C243 O218 1.264 . S
C243 O221 1.256 . S
C243 C236 1.496 . S
H244 C227 0.928 1_556 S
H245 C228 0.929 . S
H246 C229 0.929 . S
H247 C230 0.931 . S
H248 C238 0.929 . S
H249 C239 0.929 . S
H250 C240 0.931 . S
H251 C241 0.929 . S
Tb252 N281 2.617 . S
Tb252 N287 2.572 . S
Tb252 O296 2.465 . S
Tb252 O297 2.387 . S
Tb252 O299 2.428 . S
Tb252 O300 2.308 . S
Tb252 O304 2.349 . S
Tb252 O307 2.393 . S
Tb252 C316 2.802 . S
C253 N254 1.379 . S
C253 C256 1.416 . S
C253 C260 1.424 . S
N254 C253 1.379 . S
N254 C257 1.334 . S
N254 Tb263 2.617 . S
C255 C257 1.390 . S
C255 C258 1.339 . S
C255 H275 0.930 . S
C256 C253 1.416 . S
C256 C258 1.416 . S
C256 C262 1.448 . S
C257 N254 1.334 . S
C257 C255 1.390 . S
C257 H268 0.930 . S
C258 C255 1.339 . S
C258 C256 1.416 . S
C258 H279 0.930 1_545 S
C259 C260 1.413 . S
C259 C261 1.427 . S
C259 C265 1.416 . S
C260 C253 1.424 . S
C260 C259 1.413 . S
C260 N264 1.361 . S
C261 C259 1.427 . S
C261 C262 1.328 . S
C261 H276 0.929 . S
C262 C256 1.448 . S
C262 C261 1.328 . S
C262 H277 0.930 1_545 S
Tb263 N254 2.617 . S
Tb263 N264 2.572 . S
Tb263 O298 2.349 . S
Tb263 O301 2.393 . S
Tb263 O302 2.465 . S
Tb263 O303 2.387 . S
Tb263 O305 2.428 . S
Tb263 O306 2.308 . S
Tb263 C327 2.802 . S
N264 C260 1.361 . S
N264 Tb263 2.572 . S
N264 C266 1.340 . S
C265 C259 1.416 . S
C265 C267 1.332 . S
C265 H273 0.931 . S
C266 N264 1.340 . S
C266 C267 1.407 . S
C266 H272 0.930 . S
C267 C265 1.332 . S
C267 C266 1.407 . S
C267 H269 0.929 . S
H268 C257 0.930 . S
H269 C267 0.929 . S
H270 C285 0.930 . S
H271 C292 0.929 . S
H272 C266 0.930 . S
H273 C265 0.931 . S
H274 C288 0.930 . S
H275 C255 0.930 . S
H276 C261 0.929 . S
H277 C262 0.930 1_565 S
H278 C283 0.930 . S
H279 C258 0.930 1_565 S
H280 C291 0.931 . S
N281 Tb252 2.617 . S
N281 C282 1.379 . S
N281 C285 1.334 . S
C282 N281 1.379 . S
C282 C284 1.416 . S
C282 C290 1.424 . S
C283 H278 0.930 . S
C283 C285 1.390 . S
C283 C286 1.339 . S
C284 C282 1.416 . S
C284 C286 1.416 . S
C284 C317 1.448 . S
C285 H270 0.930 . S
C285 N281 1.334 . S
C285 C283 1.390 . S
C286 C283 1.339 . S
C286 C284 1.416 . S
C286 H293 0.930 . S
N287 Tb252 2.572 . S
N287 C288 1.340 . S
N287 C290 1.361 . S
C288 H274 0.930 . S
C288 N287 1.340 . S
C288 C292 1.407 . S
C289 C290 1.413 . S
C289 C291 1.416 . S
C289 C318 1.427 . S
C290 C282 1.424 . S
C290 N287 1.361 . S
C290 C289 1.413 . S
C291 H280 0.931 . S
C291 C289 1.416 . S
C291 C292 1.332 . S
C292 H271 0.929 . S
C292 C288 1.407 . S
C292 C291 1.332 . S
H293 C286 0.930 . S
H294 C317 0.930 . S
H295 C318 0.929 . S
O296 Tb252 2.465 . S
O296 C316 1.264 . S
O297 Tb252 2.387 . S
O297 C308 1.264 . S
O298 Tb263 2.349 . S
O298 C308 1.243 . S
O299 Tb252 2.428 . S
O299 C316 1.256 . S
O300 Tb252 2.308 . S
O300 C315 1.266 . S
O301 Tb263 2.393 . S
O301 C315 1.248 . S
O302 Tb263 2.465 . S
O302 C327 1.264 . S
O303 Tb263 2.387 . S
O303 C319 1.264 . S
O304 Tb252 2.349 . S
O304 C319 1.243 . S
O305 Tb263 2.428 . S
O305 C327 1.256 . S
O306 Tb263 2.308 . S
O306 C326 1.266 . S
O307 Tb252 2.393 . S
O307 C326 1.248 . S
C308 O297 1.264 . S
C308 O298 1.243 . S
C309 C312 1.399 . S
C309 C314 1.383 . S
C309 C316 1.496 . S
C310 C311 1.399 . S
C310 C314 1.389 . S
C311 C310 1.399 . S
C311 C313 1.380 . S
C311 H328 0.929 . S
C312 C309 1.399 . S
C312 C313 1.392 . S
C312 H329 0.929 . S
C313 C311 1.380 . S
C313 C312 1.392 . S
C313 H330 0.929 . S
C314 C309 1.383 . S
C314 C310 1.389 . S
C314 H331 0.931 . S
C315 O300 1.266 . S
C315 O301 1.248 . S
C316 Tb252 2.802 . S
C316 O296 1.264 . S
C316 O299 1.256 . S
C316 C309 1.496 . S
C317 C284 1.448 . S
C317 H294 0.930 . S
C317 C318 1.328 . S
C318 C289 1.427 . S
C318 H295 0.929 . S
C318 C317 1.328 . S
C319 O303 1.264 . S
C319 O304 1.243 . S
C320 C323 1.399 . S
C320 C324 1.383 . S
C320 C327 1.496 . S
C321 C322 1.399 . S
C321 C324 1.389 . S
C322 C321 1.399 . S
C322 C325 1.380 . S
C322 H332 0.929 . S
C323 C320 1.399 . S
C323 C325 1.392 . S
C323 H333 0.929 . S
C324 C320 1.383 . S
C324 C321 1.389 . S
C324 H334 0.931 . S
C325 C322 1.380 . S
C325 C323 1.392 . S
C325 H335 0.929 . S
C326 O306 1.266 . S
C326 O307 1.248 . S
C327 Tb263 2.802 . S
C327 O302 1.264 . S
C327 O305 1.256 . S
C327 C320 1.496 . S
H328 C311 0.929 . S
H329 C312 0.929 . S
H330 C313 0.929 . S
H331 C314 0.931 . S
H332 C322 0.929 . S
H333 C323 0.929 . S
H334 C324 0.931 . S
H335 C325 0.929 . S
Tb336 N365 2.617 . S
Tb336 N371 2.572 . S
Tb336 O380 2.465 . S
Tb336 O381 2.387 . S
Tb336 O383 2.428 . S
Tb336 O384 2.308 . S
Tb336 O388 2.349 . S
Tb336 O391 2.393 . S
Tb336 C400 2.802 . S
C337 N338 1.379 . S
C337 C340 1.416 . S
C337 C344 1.424 . S
N338 C337 1.379 . S
N338 C341 1.334 . S
N338 Tb347 2.617 . S
C339 C341 1.390 . S
C339 C342 1.339 . S
C339 H359 0.930 . S
C340 C337 1.416 . S
C340 C342 1.416 . S
C340 C346 1.448 . S
C341 N338 1.334 . S
C341 C339 1.390 . S
C341 H352 0.930 . S
C342 C339 1.339 . S
C342 C340 1.416 . S
C342 H363 0.930 1_655 S
C343 C344 1.413 . S
C343 C345 1.427 . S
C343 C349 1.416 . S
C344 C337 1.424 . S
C344 C343 1.413 . S
C344 N348 1.361 . S
C345 C343 1.427 . S
C345 C346 1.328 . S
C345 H360 0.929 . S
C346 C340 1.448 . S
C346 C345 1.328 . S
C346 H361 0.930 1_655 S
Tb347 N338 2.617 . S
Tb347 N348 2.572 . S
Tb347 O382 2.349 . S
Tb347 O385 2.393 . S
Tb347 O386 2.465 . S
Tb347 O387 2.387 . S
Tb347 O389 2.428 . S
Tb347 O390 2.308 . S
Tb347 C411 2.802 . S
N348 C344 1.361 . S
N348 Tb347 2.572 . S
N348 C350 1.340 . S
C349 C343 1.416 . S
C349 C351 1.332 . S
C349 H357 0.931 . S
C350 N348 1.340 . S
C350 C351 1.407 . S
C350 H356 0.930 . S
C351 C349 1.332 . S
C351 C350 1.407 . S
C351 H353 0.929 . S
H352 C341 0.930 . S
H353 C351 0.929 . S
H354 C369 0.930 . S
H355 C376 0.929 . S
H356 C350 0.930 . S
H357 C349 0.931 . S
H358 C372 0.930 . S
H359 C339 0.930 . S
H360 C345 0.929 . S
H361 C346 0.930 1_455 S
H362 C367 0.930 . S
H363 C342 0.930 1_455 S
H364 C375 0.931 . S
N365 Tb336 2.617 . S
N365 C366 1.379 . S
N365 C369 1.334 . S
C366 N365 1.379 . S
C366 C368 1.416 . S
C366 C374 1.424 . S
C367 H362 0.930 . S
C367 C369 1.390 . S
C367 C370 1.339 . S
C368 C366 1.416 . S
C368 C370 1.416 . S
C368 C401 1.448 . S
C369 H354 0.930 . S
C369 N365 1.334 . S
C369 C367 1.390 . S
C370 C367 1.339 . S
C370 C368 1.416 . S
C370 H377 0.930 . S
N371 Tb336 2.572 . S
N371 C372 1.340 . S
N371 C374 1.361 . S
C372 H358 0.930 . S
C372 N371 1.340 . S
C372 C376 1.407 . S
C373 C374 1.413 . S
C373 C375 1.416 . S
C373 C402 1.427 . S
C374 C366 1.424 . S
C374 N371 1.361 . S
C374 C373 1.413 . S
C375 H364 0.931 . S
C375 C373 1.416 . S
C375 C376 1.332 . S
C376 H355 0.929 . S
C376 C372 1.407 . S
C376 C375 1.332 . S
H377 C370 0.930 . S
H378 C401 0.930 . S
H379 C402 0.929 . S
O380 Tb336 2.465 . S
O380 C400 1.264 . S
O381 Tb336 2.387 . S
O381 C392 1.264 . S
O382 Tb347 2.349 . S
O382 C392 1.243 . S
O383 Tb336 2.428 . S
O383 C400 1.256 . S
O384 Tb336 2.308 . S
O384 C399 1.266 . S
O385 Tb347 2.393 . S
O385 C399 1.248 . S
O386 Tb347 2.465 . S
O386 C411 1.264 . S
O387 Tb347 2.387 . S
O387 C403 1.264 . S
O388 Tb336 2.349 . S
O388 C403 1.243 . S
O389 Tb347 2.428 . S
O389 C411 1.256 . S
O390 Tb347 2.308 . S
O390 C410 1.266 . S
O391 Tb336 2.393 . S
O391 C410 1.248 . S
C392 O381 1.264 . S
C392 O382 1.243 . S
C393 C396 1.399 . S
C393 C398 1.383 . S
C393 C400 1.496 . S
C394 C395 1.399 . S
C394 C398 1.389 . S
C395 C394 1.399 . S
C395 C397 1.380 . S
C395 H412 0.929 . S
C396 C393 1.399 . S
C396 C397 1.392 . S
C396 H413 0.929 . S
C397 C395 1.380 . S
C397 C396 1.392 . S
C397 H414 0.929 . S
C398 C393 1.383 . S
C398 C394 1.389 . S
C398 H415 0.931 . S
C399 O384 1.266 . S
C399 O385 1.248 . S
C400 Tb336 2.802 . S
C400 O380 1.264 . S
C400 O383 1.256 . S
C400 C393 1.496 . S
C401 C368 1.448 . S
C401 H378 0.930 . S
C401 C402 1.328 . S
C402 C373 1.427 . S
C402 H379 0.929 . S
C402 C401 1.328 . S
C403 O387 1.264 . S
C403 O388 1.243 . S
C404 C407 1.399 . S
C404 C408 1.383 . S
C404 C411 1.496 . S
C405 C406 1.399 . S
C405 C408 1.389 . S
C406 C405 1.399 . S
C406 C409 1.380 . S
C406 H416 0.929 . S
C407 C404 1.399 . S
C407 C409 1.392 . S
C407 H417 0.929 . S
C408 C404 1.383 . S
C408 C405 1.389 . S
C408 H418 0.931 . S
C409 C406 1.380 . S
C409 C407 1.392 . S
C409 H419 0.929 . S
C410 O390 1.266 . S
C410 O391 1.248 . S
C411 Tb347 2.802 . S
C411 O386 1.264 . S
C411 O389 1.256 . S
C411 C404 1.496 . S
H412 C395 0.929 . S
H413 C396 0.929 . S
H414 C397 0.929 . S
H415 C398 0.931 . S
H416 C406 0.929 . S
H417 C407 0.929 . S
H418 C408 0.931 . S
H419 C409 0.929 . S
Tb420 N449 2.617 . S
Tb420 N455 2.572 . S
Tb420 O464 2.465 . S
Tb420 O465 2.387 . S
Tb420 O467 2.428 . S
Tb420 O468 2.308 . S
Tb420 O472 2.349 . S
Tb420 O475 2.393 . S
Tb420 C484 2.802 . S
C421 N422 1.379 . S
C421 C424 1.416 . S
C421 C428 1.424 . S
N422 C421 1.379 . S
N422 C425 1.334 . S
N422 Tb431 2.617 . S
C423 C425 1.390 . S
C423 C426 1.339 . S
C423 H443 0.930 . S
C424 C421 1.416 . S
C424 C426 1.416 . S
C424 C430 1.448 . S
C425 N422 1.334 . S
C425 C423 1.390 . S
C425 H436 0.930 . S
C426 C423 1.339 . S
C426 C424 1.416 . S
C426 H447 0.930 . S
C427 C428 1.413 . S
C427 C429 1.427 . S
C427 C433 1.416 . S
C428 C421 1.424 . S
C428 C427 1.413 . S
C428 N432 1.361 . S
C429 C427 1.427 . S
C429 C430 1.328 . S
C429 H444 0.929 . S
C430 C424 1.448 . S
C430 C429 1.328 . S
C430 H445 0.930 . S
Tb431 N422 2.617 . S
Tb431 N432 2.572 . S
Tb431 O466 2.349 . S
Tb431 O469 2.393 . S
Tb431 O470 2.465 . S
Tb431 O471 2.387 . S
Tb431 O473 2.428 . S
Tb431 O474 2.308 . S
Tb431 C495 2.802 . S
N432 C428 1.361 . S
N432 Tb431 2.572 . S
N432 C434 1.340 . S
C433 C427 1.416 . S
C433 C435 1.332 . S
C433 H441 0.931 . S
C434 N432 1.340 . S
C434 C435 1.407 . S
C434 H440 0.930 . S
C435 C433 1.332 . S
C435 C434 1.407 . S
C435 H437 0.929 . S
H436 C425 0.930 . S
H437 C435 0.929 . S
H438 C453 0.930 . S
H439 C460 0.929 . S
H440 C434 0.930 . S
H441 C433 0.931 . S
H442 C456 0.930 . S
H443 C423 0.930 . S
H444 C429 0.929 . S
H445 C430 0.930 . S
H446 C451 0.930 . S
H447 C426 0.930 . S
H448 C459 0.931 . S
N449 Tb420 2.617 . S
N449 C450 1.379 . S
N449 C453 1.334 . S
C450 N449 1.379 . S
C450 C452 1.416 . S
C450 C458 1.424 . S
C451 H446 0.930 . S
C451 C453 1.390 . S
C451 C454 1.339 . S
C452 C450 1.416 . S
C452 C454 1.416 . S
C452 C485 1.448 . S
C453 H438 0.930 . S
C453 N449 1.334 . S
C453 C451 1.390 . S
C454 C451 1.339 . S
C454 C452 1.416 . S
C454 H461 0.930 . S
N455 Tb420 2.572 . S
N455 C456 1.340 . S
N455 C458 1.361 . S
C456 H442 0.930 . S
C456 N455 1.340 . S
C456 C460 1.407 . S
C457 C458 1.413 . S
C457 C459 1.416 . S
C457 C486 1.427 . S
C458 C450 1.424 . S
C458 N455 1.361 . S
C458 C457 1.413 . S
C459 H448 0.931 . S
C459 C457 1.416 . S
C459 C460 1.332 . S
C460 H439 0.929 . S
C460 C456 1.407 . S
C460 C459 1.332 . S
H461 C454 0.930 . S
H462 C485 0.930 . S
H463 C486 0.929 . S
O464 Tb420 2.465 . S
O464 C484 1.264 . S
O465 Tb420 2.387 . S
O465 C476 1.264 . S
O466 Tb431 2.349 . S
O466 C476 1.243 . S
O467 Tb420 2.428 . S
O467 C484 1.256 . S
O468 Tb420 2.308 . S
O468 C483 1.266 . S
O469 Tb431 2.393 . S
O469 C483 1.248 . S
O470 Tb431 2.465 . S
O470 C495 1.264 . S
O471 Tb431 2.387 . S
O471 C487 1.264 . S
O472 Tb420 2.349 . S
O472 C487 1.243 . S
O473 Tb431 2.428 . S
O473 C495 1.256 . S
O474 Tb431 2.308 . S
O474 C494 1.266 . S
O475 Tb420 2.393 . S
O475 C494 1.248 . S
C476 O465 1.264 . S
C476 O466 1.243 . S
C477 C480 1.399 . S
C477 C482 1.383 . S
C477 C484 1.496 . S
C478 C479 1.399 . S
C478 C482 1.389 . S
C479 C478 1.399 . S
C479 C481 1.380 . S
C479 H496 0.929 . S
C480 C477 1.399 . S
C480 C481 1.392 . S
C480 H497 0.929 . S
C481 C479 1.380 . S
C481 C480 1.392 . S
C481 H498 0.929 . S
C482 C477 1.383 . S
C482 C478 1.389 . S
C482 H499 0.931 . S
C483 O468 1.266 . S
C483 O469 1.248 . S
C484 Tb420 2.802 . S
C484 O464 1.264 . S
C484 O467 1.256 . S
C484 C477 1.496 . S
C485 C452 1.448 . S
C485 H462 0.930 . S
C485 C486 1.328 . S
C486 C457 1.427 . S
C486 H463 0.929 . S
C486 C485 1.328 . S
C487 O471 1.264 . S
C487 O472 1.243 . S
C488 C491 1.399 . S
C488 C492 1.383 . S
C488 C495 1.496 . S
C489 C490 1.399 . S
C489 C492 1.389 . S
C490 C489 1.399 . S
C490 C493 1.380 . S
C490 H500 0.929 . S
C491 C488 1.399 . S
C491 C493 1.392 . S
C491 H501 0.929 . S
C492 C488 1.383 . S
C492 C489 1.389 . S
C492 H502 0.931 . S
C493 C490 1.380 . S
C493 C491 1.392 . S
C493 H503 0.929 . S
C494 O474 1.266 . S
C494 O475 1.248 . S
C495 Tb431 2.802 . S
C495 O470 1.264 . S
C495 O473 1.256 . S
C495 C488 1.496 . S
H496 C479 0.929 . S
H497 C480 0.929 . S
H498 C481 0.929 . S
H499 C482 0.931 . S
H500 C490 0.929 . S
H501 C491 0.929 . S
H502 C492 0.931 . S
H503 C493 0.929 . S
Tb504 N533 2.617 . S
Tb504 N539 2.572 . S
Tb504 O548 2.465 . S
Tb504 O549 2.387 . S
Tb504 O551 2.428 . S
Tb504 O552 2.308 . S
Tb504 O556 2.349 . S
Tb504 O559 2.393 . S
Tb504 C568 2.802 . S
C505 N506 1.379 . S
C505 C508 1.416 . S
C505 C512 1.424 . S
N506 C505 1.379 . S
N506 C509 1.334 1_556 S
N506 Tb515 2.617 . S
C507 C509 1.390 . S
C507 C510 1.339 1_554 S
C507 H527 0.930 . S
C508 C505 1.416 . S
C508 C510 1.416 . S
C508 C514 1.448 . S
C509 N506 1.334 1_554 S
C509 C507 1.390 . S
C509 H520 0.930 . S
C510 C507 1.339 1_556 S
C510 C508 1.416 . S
C510 H531 0.930 . S
C511 C512 1.413 . S
C511 C513 1.427 . S
C511 C517 1.416 . S
C512 C505 1.424 . S
C512 C511 1.413 . S
C512 N516 1.361 . S
C513 C511 1.427 . S
C513 C514 1.328 . S
C513 H528 0.929 . S
C514 C508 1.448 . S
C514 C513 1.328 . S
C514 H529 0.930 . S
Tb515 N506 2.617 . S
Tb515 N516 2.572 . S
Tb515 O550 2.349 . S
Tb515 O553 2.393 1_556 S
Tb515 O554 2.465 . S
Tb515 O555 2.387 . S
Tb515 O557 2.428 . S
Tb515 O558 2.308 . S
Tb515 C579 2.802 . S
N516 C512 1.361 . S
N516 Tb515 2.572 . S
N516 C518 1.340 . S
C517 C511 1.416 . S
C517 C519 1.332 . S
C517 H525 0.931 . S
C518 N516 1.340 . S
C518 C519 1.407 . S
C518 H524 0.930 . S
C519 C517 1.332 . S
C519 C518 1.407 . S
C519 H521 0.929 . S
H520 C509 0.930 . S
H521 C519 0.929 . S
H522 C537 0.930 . S
H523 C544 0.929 . S
H524 C518 0.930 . S
H525 C517 0.931 . S
H526 C540 0.930 . S
H527 C507 0.930 . S
H528 C513 0.929 . S
H529 C514 0.930 . S
H530 C535 0.930 . S
H531 C510 0.930 . S
H532 C543 0.931 . S
N533 Tb504 2.617 . S
N533 C534 1.379 . S
N533 C537 1.334 . S
C534 N533 1.379 . S
C534 C536 1.416 . S
C534 C542 1.424 . S
C535 H530 0.930 . S
C535 C537 1.390 . S
C535 C538 1.339 . S
C536 C534 1.416 . S
C536 C538 1.416 . S
C536 C569 1.448 . S
C537 H522 0.930 . S
C537 N533 1.334 . S
C537 C535 1.390 . S
C538 C535 1.339 . S
C538 C536 1.416 . S
C538 H545 0.930 1_655 S
N539 Tb504 2.572 . S
N539 C540 1.340 1_556 S
N539 C542 1.361 . S
C540 H526 0.930 . S
C540 N539 1.340 1_554 S
C540 C544 1.407 . S
C541 C542 1.413 1_554 S
C541 C543 1.416 . S
C541 C570 1.427 . S
C542 C534 1.424 . S
C542 N539 1.361 . S
C542 C541 1.413 1_556 S
C543 H532 0.931 . S
C543 C541 1.416 . S
C543 C544 1.332 . S
C544 H523 0.929 . S
C544 C540 1.407 . S
C544 C543 1.332 . S
H545 C538 0.930 1_455 S
H546 C569 0.930 1_455 S
H547 C570 0.929 . S
O548 Tb504 2.465 . S
O548 C568 1.264 . S
O549 Tb504 2.387 . S
O549 C560 1.264 . S
O550 Tb515 2.349 . S
O550 C560 1.243 . S
O551 Tb504 2.428 . S
O551 C568 1.256 . S
O552 Tb504 2.308 . S
O552 C567 1.266 1_556 S
O553 Tb515 2.393 1_554 S
O553 C567 1.248 . S
O554 Tb515 2.465 . S
O554 C579 1.264 . S
O555 Tb515 2.387 . S
O555 C571 1.264 . S
O556 Tb504 2.349 . S
O556 C571 1.243 . S
O557 Tb515 2.428 . S
O557 C579 1.256 . S
O558 Tb515 2.308 . S
O558 C578 1.266 . S
O559 Tb504 2.393 . S
O559 C578 1.248 . S
C560 O549 1.264 . S
C560 O550 1.243 . S
C561 C564 1.399 . S
C561 C566 1.383 . S
C561 C568 1.496 . S
C562 C563 1.399 . S
C562 C566 1.389 . S
C563 C562 1.399 . S
C563 C565 1.380 . S
C563 H580 0.929 . S
C564 C561 1.399 . S
C564 C565 1.392 . S
C564 H581 0.929 . S
C565 C563 1.380 . S
C565 C564 1.392 . S
C565 H582 0.929 . S
C566 C561 1.383 . S
C566 C562 1.389 . S
C566 H583 0.931 . S
C567 O552 1.266 1_554 S
C567 O553 1.248 . S
C568 Tb504 2.802 . S
C568 O548 1.264 . S
C568 O551 1.256 . S
C568 C561 1.496 . S
C569 C536 1.448 . S
C569 H546 0.930 1_655 S
C569 C570 1.328 1_556 S
C570 C541 1.427 . S
C570 H547 0.929 . S
C570 C569 1.328 1_554 S
C571 O555 1.264 . S
C571 O556 1.243 . S
C572 C575 1.399 1_556 S
C572 C576 1.383 . S
C572 C579 1.496 . S
C573 C574 1.405 . S
C573 C576 1.389 . S
C574 C573 1.405 . S
C574 C577 1.375 1_556 S
C574 H584 0.928 1_556 S
C575 C572 1.399 1_554 S
C575 C577 1.392 . S
C575 H585 0.929 . S
C576 C572 1.383 . S
C576 C573 1.389 . S
C576 H586 0.931 . S
C577 C574 1.375 1_554 S
C577 C575 1.392 . S
C577 H587 0.929 . S
C578 O558 1.266 . S
C578 O559 1.248 . S
C579 Tb515 2.802 . S
C579 O554 1.264 . S
C579 O557 1.256 . S
C579 C572 1.496 . S
H580 C563 0.929 . S
H581 C564 0.929 . S
H582 C565 0.929 . S
H583 C566 0.931 . S
H584 C574 0.928 1_554 S
H585 C575 0.929 . S
H586 C576 0.931 . S
H587 C577 0.929 . S
Tb588 N617 2.617 . S
Tb588 N623 2.572 . S
Tb588 O632 2.465 . S
Tb588 O633 2.387 . S
Tb588 O635 2.428 . S
Tb588 O636 2.308 . S
Tb588 O640 2.349 . S
Tb588 O643 2.393 . S
Tb588 C652 2.802 . S
C589 N590 1.379 . S
C589 C592 1.416 . S
C589 C596 1.424 . S
N590 C589 1.379 . S
N590 C593 1.334 1_556 S
N590 Tb599 2.617 . S
C591 C593 1.390 . S
C591 C594 1.339 1_554 S
C591 H611 0.930 . S
C592 C589 1.416 . S
C592 C594 1.416 . S
C592 C598 1.448 . S
C593 N590 1.334 1_554 S
C593 C591 1.390 . S
C593 H604 0.930 . S
C594 C591 1.339 1_556 S
C594 C592 1.416 . S
C594 H615 0.930 . S
C595 C596 1.413 . S
C595 C597 1.427 . S
C595 C601 1.416 . S
C596 C589 1.424 . S
C596 C595 1.413 . S
C596 N600 1.361 . S
C597 C595 1.427 . S
C597 C598 1.328 . S
C597 H612 0.929 . S
C598 C592 1.448 . S
C598 C597 1.328 . S
C598 H613 0.930 . S
Tb599 N590 2.617 . S
Tb599 N600 2.572 . S
Tb599 O634 2.349 . S
Tb599 O637 2.393 1_556 S
Tb599 O638 2.465 . S
Tb599 O639 2.387 . S
Tb599 O641 2.428 . S
Tb599 O642 2.308 . S
Tb599 C663 2.802 . S
N600 C596 1.361 . S
N600 Tb599 2.572 . S
N600 C602 1.340 . S
C601 C595 1.416 . S
C601 C603 1.332 . S
C601 H609 0.931 . S
C602 N600 1.340 . S
C602 C603 1.407 . S
C602 H608 0.930 . S
C603 C601 1.332 . S
C603 C602 1.407 . S
C603 H605 0.929 . S
H604 C593 0.930 . S
H605 C603 0.929 . S
H606 C621 0.930 . S
H607 C628 0.929 . S
H608 C602 0.930 . S
H609 C601 0.931 . S
H610 C624 0.930 . S
H611 C591 0.930 . S
H612 C597 0.929 . S
H613 C598 0.930 . S
H614 C619 0.930 . S
H615 C594 0.930 . S
H616 C627 0.931 . S
N617 Tb588 2.617 . S
N617 C618 1.379 . S
N617 C621 1.334 . S
C618 N617 1.379 . S
C618 C620 1.416 . S
C618 C626 1.424 . S
C619 H614 0.930 . S
C619 C621 1.390 . S
C619 C622 1.339 . S
C620 C618 1.416 . S
C620 C622 1.416 . S
C620 C653 1.448 . S
C621 H606 0.930 . S
C621 N617 1.334 . S
C621 C619 1.390 . S
C622 C619 1.339 . S
C622 C620 1.416 . S
C622 H629 0.930 . S
N623 Tb588 2.572 . S
N623 C624 1.340 1_556 S
N623 C626 1.361 . S
C624 H610 0.930 . S
C624 N623 1.340 1_554 S
C624 C628 1.407 . S
C625 C626 1.413 1_554 S
C625 C627 1.416 . S
C625 C654 1.427 . S
C626 C618 1.424 . S
C626 N623 1.361 . S
C626 C625 1.413 1_556 S
C627 H616 0.931 . S
C627 C625 1.416 . S
C627 C628 1.332 . S
C628 H607 0.929 . S
C628 C624 1.407 . S
C628 C627 1.332 . S
H629 C622 0.930 . S
H630 C653 0.930 . S
H631 C654 0.929 . S
O632 Tb588 2.465 . S
O632 C652 1.264 . S
O633 Tb588 2.387 . S
O633 C644 1.264 . S
O634 Tb599 2.349 . S
O634 C644 1.243 . S
O635 Tb588 2.428 . S
O635 C652 1.256 . S
O636 Tb588 2.308 . S
O636 C651 1.266 1_556 S
O637 Tb599 2.393 1_554 S
O637 C651 1.248 . S
O638 Tb599 2.465 . S
O638 C663 1.264 . S
O639 Tb599 2.387 . S
O639 C655 1.264 . S
O640 Tb588 2.349 . S
O640 C655 1.243 . S
O641 Tb599 2.428 . S
O641 C663 1.256 . S
O642 Tb599 2.308 . S
O642 C662 1.266 . S
O643 Tb588 2.393 . S
O643 C662 1.248 . S
C644 O633 1.264 . S
C644 O634 1.243 . S
C645 C648 1.399 . S
C645 C650 1.383 . S
C645 C652 1.496 . S
C646 C647 1.399 . S
C646 C650 1.389 . S
C647 C646 1.399 . S
C647 C649 1.380 . S
C647 H664 0.929 . S
C648 C645 1.399 . S
C648 C649 1.392 . S
C648 H665 0.929 . S
C649 C647 1.380 . S
C649 C648 1.392 . S
C649 H666 0.929 . S
C650 C645 1.383 . S
C650 C646 1.389 . S
C650 H667 0.931 . S
C651 O636 1.266 1_554 S
C651 O637 1.248 . S
C652 Tb588 2.802 . S
C652 O632 1.264 . S
C652 O635 1.256 . S
C652 C645 1.496 . S
C653 C620 1.448 . S
C653 H630 0.930 . S
C653 C654 1.328 1_556 S
C654 C625 1.427 . S
C654 H631 0.929 . S
C654 C653 1.328 1_554 S
C655 O639 1.264 . S
C655 O640 1.243 . S
C656 C659 1.399 1_556 S
C656 C660 1.383 . S
C656 C663 1.496 . S
C657 C658 1.404 . S
C657 C660 1.389 . S
C658 C657 1.404 . S
C658 C661 1.375 1_556 S
C658 H668 0.928 1_556 S
C659 C656 1.399 1_554 S
C659 C661 1.392 . S
C659 H669 0.929 . S
C660 C656 1.383 . S
C660 C657 1.389 . S
C660 H670 0.931 . S
C661 C658 1.375 1_554 S
C661 C659 1.392 . S
C661 H671 0.929 . S
C662 O642 1.266 . S
C662 O643 1.248 . S
C663 Tb599 2.802 . S
C663 O638 1.264 . S
C663 O641 1.256 . S
C663 C656 1.496 . S
H664 C647 0.929 . S
H665 C648 0.929 . S
H666 C649 0.929 . S
H667 C650 0.931 . S
H668 C658 0.928 1_554 S
H669 C659 0.929 . S
H670 C660 0.931 . S
H671 C661 0.929 . S
Tb672 N701 2.617 . S
Tb672 N707 2.572 . S
Tb672 O716 2.465 . S
Tb672 O717 2.387 . S
Tb672 O719 2.428 . S
Tb672 O720 2.308 . S
Tb672 O724 2.349 . S
Tb672 O727 2.393 . S
Tb672 C736 2.802 . S
C673 N674 1.379 . S
C673 C676 1.416 . S
C673 C680 1.424 . S
N674 C673 1.379 . S
N674 C677 1.334 1_556 S
N674 Tb683 2.617 . S
C675 C677 1.390 . S
C675 C678 1.339 1_554 S
C675 H695 0.930 . S
C676 C673 1.416 . S
C676 C678 1.416 . S
C676 C682 1.448 . S
C677 N674 1.334 1_554 S
C677 C675 1.390 . S
C677 H688 0.930 . S
C678 C675 1.339 1_556 S
C678 C676 1.416 . S
C678 H699 0.930 . S
C679 C680 1.413 . S
C679 C681 1.427 . S
C679 C685 1.416 . S
C680 C673 1.424 . S
C680 C679 1.413 . S
C680 N684 1.361 . S
C681 C679 1.427 . S
C681 C682 1.328 . S
C681 H696 0.929 . S
C682 C676 1.448 . S
C682 C681 1.328 . S
C682 H697 0.930 . S
Tb683 N674 2.617 . S
Tb683 N684 2.572 . S
Tb683 O718 2.349 . S
Tb683 O721 2.393 1_556 S
Tb683 O722 2.465 . S
Tb683 O723 2.387 . S
Tb683 O725 2.428 . S
Tb683 O726 2.308 . S
Tb683 C747 2.802 . S
N684 C680 1.361 . S
N684 Tb683 2.572 . S
N684 C686 1.340 . S
C685 C679 1.416 . S
C685 C687 1.332 . S
C685 H693 0.931 . S
C686 N684 1.340 . S
C686 C687 1.407 . S
C686 H692 0.930 . S
C687 C685 1.332 . S
C687 C686 1.407 . S
C687 H689 0.929 . S
H688 C677 0.930 . S
H689 C687 0.929 . S
H690 C705 0.930 . S
H691 C712 0.929 . S
H692 C686 0.930 . S
H693 C685 0.931 . S
H694 C708 0.930 . S
H695 C675 0.930 . S
H696 C681 0.929 . S
H697 C682 0.930 . S
H698 C703 0.930 . S
H699 C678 0.930 . S
H700 C711 0.931 . S
N701 Tb672 2.617 . S
N701 C702 1.379 . S
N701 C705 1.334 . S
C702 N701 1.379 . S
C702 C704 1.416 . S
C702 C710 1.424 . S
C703 H698 0.930 . S
C703 C705 1.390 . S
C703 C706 1.339 . S
C704 C702 1.416 . S
C704 C706 1.416 . S
C704 C737 1.448 . S
C705 H690 0.930 . S
C705 N701 1.334 . S
C705 C703 1.390 . S
C706 C703 1.339 . S
C706 C704 1.416 . S
C706 H713 0.930 1_545 S
N707 Tb672 2.572 . S
N707 C708 1.340 1_556 S
N707 C710 1.361 . S
C708 H694 0.930 . S
C708 N707 1.340 1_554 S
C708 C712 1.407 . S
C709 C710 1.413 1_554 S
C709 C711 1.416 . S
C709 C738 1.427 . S
C710 C702 1.424 . S
C710 N707 1.361 . S
C710 C709 1.413 1_556 S
C711 H700 0.931 . S
C711 C709 1.416 . S
C711 C712 1.332 . S
C712 H691 0.929 . S
C712 C708 1.407 . S
C712 C711 1.332 . S
H713 C706 0.930 1_565 S
H714 C737 0.930 1_565 S
H715 C738 0.929 . S
O716 Tb672 2.465 . S
O716 C736 1.264 . S
O717 Tb672 2.387 . S
O717 C728 1.264 . S
O718 Tb683 2.349 . S
O718 C728 1.243 . S
O719 Tb672 2.428 . S
O719 C736 1.256 . S
O720 Tb672 2.308 . S
O720 C735 1.266 1_556 S
O721 Tb683 2.393 1_554 S
O721 C735 1.248 . S
O722 Tb683 2.465 . S
O722 C747 1.264 . S
O723 Tb683 2.387 . S
O723 C739 1.264 . S
O724 Tb672 2.349 . S
O724 C739 1.243 . S
O725 Tb683 2.428 . S
O725 C747 1.256 . S
O726 Tb683 2.308 . S
O726 C746 1.266 . S
O727 Tb672 2.393 . S
O727 C746 1.248 . S
C728 O717 1.264 . S
C728 O718 1.243 . S
C729 C732 1.399 . S
C729 C734 1.383 . S
C729 C736 1.496 . S
C730 C731 1.399 . S
C730 C734 1.389 . S
C731 C730 1.399 . S
C731 C733 1.380 . S
C731 H748 0.929 . S
C732 C729 1.399 . S
C732 C733 1.392 . S
C732 H749 0.929 . S
C733 C731 1.380 . S
C733 C732 1.392 . S
C733 H750 0.929 . S
C734 C729 1.383 . S
C734 C730 1.389 . S
C734 H751 0.931 . S
C735 O720 1.266 1_554 S
C735 O721 1.248 . S
C736 Tb672 2.802 . S
C736 O716 1.264 . S
C736 O719 1.256 . S
C736 C729 1.496 . S
C737 C704 1.448 . S
C737 H714 0.930 1_545 S
C737 C738 1.328 1_556 S
C738 C709 1.427 . S
C738 H715 0.929 . S
C738 C737 1.328 1_554 S
C739 O723 1.264 . S
C739 O724 1.243 . S
C740 C743 1.399 1_556 S
C740 C744 1.383 . S
C740 C747 1.496 . S
C741 C742 1.404 . S
C741 C744 1.389 . S
C742 C741 1.404 . S
C742 C745 1.375 1_556 S
C742 H752 0.928 1_556 S
C743 C740 1.399 1_554 S
C743 C745 1.392 . S
C743 H753 0.929 . S
C744 C740 1.383 . S
C744 C741 1.389 . S
C744 H754 0.931 . S
C745 C742 1.375 1_554 S
C745 C743 1.392 . S
C745 H755 0.929 . S
C746 O726 1.266 . S
C746 O727 1.248 . S
C747 Tb683 2.802 . S
C747 O722 1.264 . S
C747 O725 1.256 . S
C747 C740 1.496 . S
H748 C731 0.929 . S
H749 C732 0.929 . S
H750 C733 0.929 . S
H751 C734 0.931 . S
H752 C742 0.928 1_554 S
H753 C743 0.929 . S
H754 C744 0.931 . S
H755 C745 0.929 . S
Tb756 N785 2.617 . S
Tb756 N791 2.572 . S
Tb756 O800 2.465 . S
Tb756 O801 2.387 . S
Tb756 O803 2.428 . S
Tb756 O804 2.308 . S
Tb756 O808 2.349 . S
Tb756 O811 2.393 . S
Tb756 C820 2.802 . S
C757 N758 1.379 . S
C757 C760 1.416 . S
C757 C764 1.424 . S
N758 C757 1.379 . S
N758 C761 1.334 . S
N758 Tb767 2.617 . S
C759 C761 1.390 . S
C759 C762 1.339 . S
C759 H779 0.930 . S
C760 C757 1.416 . S
C760 C762 1.416 . S
C760 C766 1.448 . S
C761 N758 1.334 . S
C761 C759 1.390 . S
C761 H772 0.930 . S
C762 C759 1.339 . S
C762 C760 1.416 . S
C762 H783 0.930 . S
C763 C764 1.413 . S
C763 C765 1.427 . S
C763 C769 1.416 . S
C764 C757 1.424 . S
C764 C763 1.413 . S
C764 N768 1.361 . S
C765 C763 1.427 . S
C765 C766 1.328 . S
C765 H780 0.929 . S
C766 C760 1.448 . S
C766 C765 1.328 . S
C766 H781 0.930 . S
Tb767 N758 2.617 . S
Tb767 N768 2.572 . S
Tb767 O802 2.349 . S
Tb767 O805 2.393 . S
Tb767 O806 2.465 . S
Tb767 O807 2.387 . S
Tb767 O809 2.428 . S
Tb767 O810 2.308 . S
Tb767 C831 2.802 . S
N768 C764 1.361 . S
N768 Tb767 2.572 . S
N768 C770 1.340 . S
C769 C763 1.416 . S
C769 C771 1.332 . S
C769 H777 0.931 . S
C770 N768 1.340 . S
C770 C771 1.407 . S
C770 H776 0.930 . S
C771 C769 1.332 . S
C771 C770 1.407 . S
C771 H773 0.929 . S
H772 C761 0.930 . S
H773 C771 0.929 . S
H774 C789 0.930 . S
H775 C796 0.929 . S
H776 C770 0.930 . S
H777 C769 0.931 . S
H778 C792 0.930 . S
H779 C759 0.930 . S
H780 C765 0.929 . S
H781 C766 0.930 . S
H782 C787 0.930 . S
H783 C762 0.930 . S
H784 C795 0.931 . S
N785 Tb756 2.617 . S
N785 C786 1.379 . S
N785 C789 1.334 . S
C786 N785 1.379 . S
C786 C788 1.416 . S
C786 C794 1.424 . S
C787 H782 0.930 . S
C787 C789 1.390 . S
C787 C790 1.339 . S
C788 C786 1.416 . S
C788 C790 1.416 . S
C788 C821 1.448 . S
C789 H774 0.930 . S
C789 N785 1.334 . S
C789 C787 1.390 . S
C790 C787 1.339 . S
C790 C788 1.416 . S
C790 H797 0.930 1_565 S
N791 Tb756 2.572 . S
N791 C792 1.340 . S
N791 C794 1.361 . S
C792 H778 0.930 . S
C792 N791 1.340 . S
C792 C796 1.407 . S
C793 C794 1.413 . S
C793 C795 1.416 . S
C793 C822 1.427 . S
C794 C786 1.424 . S
C794 N791 1.361 . S
C794 C793 1.413 . S
C795 H784 0.931 . S
C795 C793 1.416 . S
C795 C796 1.332 . S
C796 H775 0.929 . S
C796 C792 1.407 . S
C796 C795 1.332 . S
H797 C790 0.930 1_545 S
H798 C821 0.930 1_545 S
H799 C822 0.929 . S
O800 Tb756 2.465 . S
O800 C820 1.264 . S
O801 Tb756 2.387 . S
O801 C812 1.264 . S
O802 Tb767 2.349 . S
O802 C812 1.243 . S
O803 Tb756 2.428 . S
O803 C820 1.256 . S
O804 Tb756 2.308 . S
O804 C819 1.266 . S
O805 Tb767 2.393 . S
O805 C819 1.248 . S
O806 Tb767 2.465 . S
O806 C831 1.264 . S
O807 Tb767 2.387 . S
O807 C823 1.264 . S
O808 Tb756 2.349 . S
O808 C823 1.243 . S
O809 Tb767 2.428 . S
O809 C831 1.256 . S
O810 Tb767 2.308 . S
O810 C830 1.266 . S
O811 Tb756 2.393 . S
O811 C830 1.248 . S
C812 O801 1.264 . S
C812 O802 1.243 . S
C813 C816 1.399 . S
C813 C818 1.383 . S
C813 C820 1.496 . S
C814 C815 1.399 . S
C814 C818 1.389 . S
C815 C814 1.399 . S
C815 C817 1.380 . S
C815 H832 0.929 . S
C816 C813 1.399 . S
C816 C817 1.392 . S
C816 H833 0.929 . S
C817 C815 1.380 . S
C817 C816 1.392 . S
C817 H834 0.929 . S
C818 C813 1.383 . S
C818 C814 1.389 . S
C818 H835 0.931 . S
C819 O804 1.266 . S
C819 O805 1.248 . S
C820 Tb756 2.802 . S
C820 O800 1.264 . S
C820 O803 1.256 . S
C820 C813 1.496 . S
C821 C788 1.448 . S
C821 H798 0.930 1_565 S
C821 C822 1.328 . S
C822 C793 1.427 . S
C822 H799 0.929 . S
C822 C821 1.328 . S
C823 O807 1.264 . S
C823 O808 1.243 . S
C824 C827 1.399 . S
C824 C828 1.383 . S
C824 C831 1.496 . S
C825 C826 1.399 . S
C825 C828 1.389 . S
C826 C825 1.399 . S
C826 C829 1.380 . S
C826 H836 0.929 . S
C827 C824 1.399 . S
C827 C829 1.392 . S
C827 H837 0.929 . S
C828 C824 1.383 . S
C828 C825 1.389 . S
C828 H838 0.931 . S
C829 C826 1.380 . S
C829 C827 1.392 . S
C829 H839 0.929 . S
C830 O810 1.266 . S
C830 O811 1.248 . S
C831 Tb767 2.802 . S
C831 O806 1.264 . S
C831 O809 1.256 . S
C831 C824 1.496 . S
H832 C815 0.929 . S
H833 C816 0.929 . S
H834 C817 0.929 . S
H835 C818 0.931 . S
H836 C826 0.929 . S
H837 C827 0.929 . S
H838 C828 0.931 . S
H839 C829 0.929 . S
Tb840 N869 2.617 . S
Tb840 N875 2.572 . S
Tb840 O884 2.465 . S
Tb840 O885 2.387 . S
Tb840 O887 2.428 . S
Tb840 O888 2.308 . S
Tb840 O892 2.349 . S
Tb840 O895 2.393 . S
Tb840 C904 2.802 . S
C841 N842 1.379 . S
C841 C844 1.416 . S
C841 C848 1.424 . S
N842 C841 1.379 . S
N842 C845 1.334 . S
N842 Tb851 2.617 . S
C843 C845 1.390 . S
C843 C846 1.339 . S
C843 H863 0.930 . S
C844 C841 1.416 . S
C844 C846 1.416 . S
C844 C850 1.448 . S
C845 N842 1.334 . S
C845 C843 1.390 . S
C845 H856 0.930 . S
C846 C843 1.339 . S
C846 C844 1.416 . S
C846 H867 0.930 . S
C847 C848 1.413 . S
C847 C849 1.427 . S
C847 C853 1.416 . S
C848 C841 1.424 . S
C848 C847 1.413 . S
C848 N852 1.361 . S
C849 C847 1.427 . S
C849 C850 1.328 . S
C849 H864 0.929 . S
C850 C844 1.448 . S
C850 C849 1.328 . S
C850 H865 0.930 . S
Tb851 N842 2.617 . S
Tb851 N852 2.572 . S
Tb851 O886 2.349 . S
Tb851 O889 2.393 . S
Tb851 O890 2.465 . S
Tb851 O891 2.387 . S
Tb851 O893 2.428 . S
Tb851 O894 2.308 . S
Tb851 C915 2.802 . S
N852 C848 1.361 . S
N852 Tb851 2.572 . S
N852 C854 1.340 . S
C853 C847 1.416 . S
C853 C855 1.332 . S
C853 H861 0.931 . S
C854 N852 1.340 . S
C854 C855 1.407 . S
C854 H860 0.930 . S
C855 C853 1.332 . S
C855 C854 1.407 . S
C855 H857 0.929 . S
H856 C845 0.930 . S
H857 C855 0.929 . S
H858 C873 0.930 . S
H859 C880 0.929 . S
H860 C854 0.930 . S
H861 C853 0.931 . S
H862 C876 0.930 . S
H863 C843 0.930 . S
H864 C849 0.929 . S
H865 C850 0.930 . S
H866 C871 0.930 . S
H867 C846 0.930 . S
H868 C879 0.931 . S
N869 Tb840 2.617 . S
N869 C870 1.379 . S
N869 C873 1.334 . S
C870 N869 1.379 . S
C870 C872 1.416 . S
C870 C878 1.424 . S
C871 H866 0.930 . S
C871 C873 1.390 . S
C871 C874 1.339 . S
C872 C870 1.416 . S
C872 C874 1.416 . S
C872 C905 1.448 . S
C873 H858 0.930 . S
C873 N869 1.334 . S
C873 C871 1.390 . S
C874 C871 1.339 . S
C874 C872 1.416 . S
C874 H881 0.930 1_455 S
N875 Tb840 2.572 . S
N875 C876 1.340 . S
N875 C878 1.361 . S
C876 H862 0.930 . S
C876 N875 1.340 . S
C876 C880 1.407 . S
C877 C878 1.413 . S
C877 C879 1.416 . S
C877 C906 1.427 . S
C878 C870 1.424 . S
C878 N875 1.361 . S
C878 C877 1.413 . S
C879 H868 0.931 . S
C879 C877 1.416 . S
C879 C880 1.332 . S
C880 H859 0.929 . S
C880 C876 1.407 . S
C880 C879 1.332 . S
H881 C874 0.930 1_655 S
H882 C905 0.930 1_655 S
H883 C906 0.929 . S
O884 Tb840 2.465 . S
O884 C904 1.264 . S
O885 Tb840 2.387 . S
O885 C896 1.264 . S
O886 Tb851 2.349 . S
O886 C896 1.243 . S
O887 Tb840 2.428 . S
O887 C904 1.256 . S
O888 Tb840 2.308 . S
O888 C903 1.266 . S
O889 Tb851 2.393 . S
O889 C903 1.248 . S
O890 Tb851 2.465 . S
O890 C915 1.264 . S
O891 Tb851 2.387 . S
O891 C907 1.264 . S
O892 Tb840 2.349 . S
O892 C907 1.243 . S
O893 Tb851 2.428 . S
O893 C915 1.256 . S
O894 Tb851 2.308 . S
O894 C914 1.266 . S
O895 Tb840 2.393 . S
O895 C914 1.248 . S
C896 O885 1.264 . S
C896 O886 1.243 . S
C897 C900 1.399 . S
C897 C902 1.383 . S
C897 C904 1.496 . S
C898 C899 1.399 . S
C898 C902 1.389 . S
C899 C898 1.399 . S
C899 C901 1.380 . S
C899 H916 0.929 . S
C900 C897 1.399 . S
C900 C901 1.392 . S
C900 H917 0.929 . S
C901 C899 1.380 . S
C901 C900 1.392 . S
C901 H918 0.929 . S
C902 C897 1.383 . S
C902 C898 1.389 . S
C902 H919 0.931 . S
C903 O888 1.266 . S
C903 O889 1.248 . S
C904 Tb840 2.802 . S
C904 O884 1.264 . S
C904 O887 1.256 . S
C904 C897 1.496 . S
C905 C872 1.448 . S
C905 H882 0.930 1_455 S
C905 C906 1.328 . S
C906 C877 1.427 . S
C906 H883 0.929 . S
C906 C905 1.328 . S
C907 O891 1.264 . S
C907 O892 1.243 . S
C908 C911 1.399 . S
C908 C912 1.383 . S
C908 C915 1.496 . S
C909 C910 1.399 . S
C909 C912 1.389 . S
C910 C909 1.399 . S
C910 C913 1.380 . S
C910 H920 0.929 . S
C911 C908 1.399 . S
C911 C913 1.392 . S
C911 H921 0.929 . S
C912 C908 1.383 . S
C912 C909 1.389 . S
C912 H922 0.931 . S
C913 C910 1.380 . S
C913 C911 1.392 . S
C913 H923 0.929 . S
C914 O894 1.266 . S
C914 O895 1.248 . S
C915 Tb851 2.802 . S
C915 O890 1.264 . S
C915 O893 1.256 . S
C915 C908 1.496 . S
H916 C899 0.929 . S
H917 C900 0.929 . S
H918 C901 0.929 . S
H919 C902 0.931 . S
H920 C910 0.929 . S
H921 C911 0.929 . S
H922 C912 0.931 . S
H923 C913 0.929 . S
Tb924 N953 2.617 . S
Tb924 N959 2.572 . S
Tb924 O968 2.465 . S
Tb924 O969 2.387 . S
Tb924 O971 2.428 . S
Tb924 O972 2.308 . S
Tb924 O976 2.349 . S
Tb924 O979 2.393 . S
Tb924 C988 2.802 . S
C925 N926 1.379 . S
C925 C928 1.416 . S
C925 C932 1.424 . S
N926 C925 1.379 . S
N926 C929 1.334 . S
N926 Tb935 2.617 . S
C927 C929 1.390 . S
C927 C930 1.339 . S
C927 H947 0.930 . S
C928 C925 1.416 . S
C928 C930 1.416 . S
C928 C934 1.448 . S
C929 N926 1.334 . S
C929 C927 1.390 . S
C929 H940 0.930 . S
C930 C927 1.339 . S
C930 C928 1.416 . S
C930 H951 0.930 . S
C931 C932 1.413 . S
C931 C933 1.427 . S
C931 C937 1.416 . S
C932 C925 1.424 . S
C932 C931 1.413 . S
C932 N936 1.361 . S
C933 C931 1.427 . S
C933 C934 1.328 . S
C933 H948 0.929 . S
C934 C928 1.448 . S
C934 C933 1.328 . S
C934 H949 0.930 . S
Tb935 N926 2.617 . S
Tb935 N936 2.572 . S
Tb935 O970 2.349 . S
Tb935 O973 2.393 . S
Tb935 O974 2.465 . S
Tb935 O975 2.387 . S
Tb935 O977 2.428 . S
Tb935 O978 2.308 . S
Tb935 C999 2.802 . S
N936 C932 1.361 . S
N936 Tb935 2.572 . S
N936 C938 1.340 . S
C937 C931 1.416 . S
C937 C939 1.332 . S
C937 H945 0.931 . S
C938 N936 1.340 . S
C938 C939 1.407 . S
C938 H944 0.930 . S
C939 C937 1.332 . S
C939 C938 1.407 . S
C939 H941 0.929 . S
H940 C929 0.930 . S
H941 C939 0.929 . S
H942 C957 0.930 . S
H943 C964 0.929 . S
H944 C938 0.930 . S
H945 C937 0.931 . S
H946 C960 0.930 . S
H947 C927 0.930 . S
H948 C933 0.929 . S
H949 C934 0.930 . S
H950 C955 0.930 . S
H951 C930 0.930 . S
H952 C963 0.931 . S
N953 Tb924 2.617 . S
N953 C954 1.379 . S
N953 C957 1.334 . S
C954 N953 1.379 . S
C954 C956 1.416 . S
C954 C962 1.424 . S
C955 H950 0.930 . S
C955 C957 1.390 . S
C955 C958 1.339 . S
C956 C954 1.416 . S
C956 C958 1.416 . S
C956 C989 1.448 . S
C957 H942 0.930 . S
C957 N953 1.334 . S
C957 C955 1.390 . S
C958 C955 1.339 . S
C958 C956 1.416 . S
C958 H965 0.930 . S
N959 Tb924 2.572 . S
N959 C960 1.340 . S
N959 C962 1.361 . S
C960 H946 0.930 . S
C960 N959 1.340 . S
C960 C964 1.407 . S
C961 C962 1.413 . S
C961 C963 1.416 . S
C961 C990 1.427 . S
C962 C954 1.424 . S
C962 N959 1.361 . S
C962 C961 1.413 . S
C963 H952 0.931 . S
C963 C961 1.416 . S
C963 C964 1.332 . S
C964 H943 0.929 . S
C964 C960 1.407 . S
C964 C963 1.332 . S
H965 C958 0.930 . S
H966 C989 0.930 . S
H967 C990 0.929 . S
O968 Tb924 2.465 . S
O968 C988 1.264 . S
O969 Tb924 2.387 . S
O969 C980 1.264 . S
O970 Tb935 2.349 . S
O970 C980 1.243 . S
O971 Tb924 2.428 . S
O971 C988 1.256 . S
O972 Tb924 2.308 . S
O972 C987 1.266 . S
O973 Tb935 2.393 . S
O973 C987 1.248 . S
O974 Tb935 2.465 . S
O974 C999 1.264 . S
O975 Tb935 2.387 . S
O975 C991 1.264 . S
O976 Tb924 2.349 . S
O976 C991 1.243 . S
O977 Tb935 2.428 . S
O977 C999 1.256 . S
O978 Tb935 2.308 . S
O978 C998 1.266 . S
O979 Tb924 2.393 . S
O979 C998 1.248 . S
C980 O969 1.264 . S
C980 O970 1.243 . S
C981 C984 1.399 . S
C981 C986 1.383 . S
C981 C988 1.496 . S
C982 C983 1.399 . S
C982 C986 1.389 . S
C983 C982 1.399 . S
C983 C985 1.380 . S
C983 H1000 0.929 . S
C984 C981 1.399 . S
C984 C985 1.392 . S
C984 H1001 0.929 . S
C985 C983 1.380 . S
C985 C984 1.392 . S
C985 H1002 0.929 . S
C986 C981 1.383 . S
C986 C982 1.389 . S
C986 H1003 0.931 . S
C987 O972 1.266 . S
C987 O973 1.248 . S
C988 Tb924 2.802 . S
C988 O968 1.264 . S
C988 O971 1.256 . S
C988 C981 1.496 . S
C989 C956 1.448 . S
C989 H966 0.930 . S
C989 C990 1.328 . S
C990 C961 1.427 . S
C990 H967 0.929 . S
C990 C989 1.328 . S
C991 O975 1.264 . S
C991 O976 1.243 . S
C992 C995 1.399 . S
C992 C996 1.383 . S
C992 C999 1.496 . S
C993 C994 1.399 . S
C993 C996 1.389 . S
C994 C993 1.399 . S
C994 C997 1.380 . S
C994 H1004 0.929 . S
C995 C992 1.399 . S
C995 C997 1.392 . S
C995 H1005 0.929 . S
C996 C992 1.383 . S
C996 C993 1.389 . S
C996 H1006 0.931 . S
C997 C994 1.380 . S
C997 C995 1.392 . S
C997 H1007 0.929 . S
C998 O978 1.266 . S
C998 O979 1.248 . S
C999 Tb935 2.802 . S
C999 O974 1.264 . S
C999 O977 1.256 . S
C999 C992 1.496 . S
H1000 C983 0.929 . S
H1001 C984 0.929 . S
H1002 C985 0.929 . S
H1003 C986 0.931 . S
H1004 C994 0.929 . S
H1005 C995 0.929 . S
H1006 C996 0.931 . S
H1007 C997 0.929 . S
C1008 C1009 1.369 1_656 S
C1008 C1010 1.419 . S
C1008 H1012 0.930 . S
C1009 C1008 1.369 1_454 S
C1009 C1018 1.429 . S
C1010 C1008 1.419 . S
C1010 C1011 1.363 . S
C1010 H1013 0.929 . S
C1011 C1010 1.363 . S
C1011 C1017 1.428 1_656 S
H1012 C1008 0.930 . S
H1013 C1010 0.929 . S
S1014 N1015 1.613 . S
S1014 N1016 1.610 . S
N1015 S1014 1.613 . S
N1015 C1018 1.350 . S
N1016 S1014 1.610 . S
N1016 C1017 1.351 . S
C1017 C1011 1.428 1_454 S
C1017 N1016 1.351 . S
C1017 C1018 1.434 . S
C1018 C1009 1.429 . S
C1018 N1015 1.350 . S
C1018 C1017 1.434 . S
C1019 C1020 1.369 1_554 S
C1019 C1021 1.419 . S
C1019 H1023 0.930 . S
C1020 C1019 1.369 1_556 S
C1020 C1029 1.429 . S
C1021 C1019 1.419 . S
C1021 C1022 1.363 . S
C1021 H1024 0.929 . S
C1022 C1021 1.363 . S
C1022 C1028 1.428 1_554 S
H1023 C1019 0.930 . S
H1024 C1021 0.929 . S
S1025 N1026 1.613 . S
S1025 N1027 1.610 . S
N1026 S1025 1.613 . S
N1026 C1029 1.350 . S
N1027 S1025 1.610 . S
N1027 C1028 1.351 . S
C1028 C1022 1.428 1_556 S
C1028 N1027 1.351 . S
C1028 C1029 1.434 . S
C1029 C1020 1.429 . S
C1029 N1026 1.350 . S
C1029 C1028 1.434 . S
C1030 C1031 1.369 1_565 S
C1030 C1032 1.419 1_556 S
C1030 H1034 0.930 . S
C1031 C1030 1.369 1_545 S
C1031 C1040 1.429 1_556 S
C1032 C1030 1.419 1_554 S
C1032 C1033 1.363 . S
C1032 H1035 0.929 . S
C1033 C1032 1.363 . S
C1033 C1039 1.428 1_565 S
H1034 C1030 0.930 . S
H1035 C1032 0.929 . S
S1036 N1037 1.613 . S
S1036 N1038 1.610 . S
N1037 S1036 1.613 . S
N1037 C1040 1.350 . S
N1038 S1036 1.610 . S
N1038 C1039 1.351 . S
C1039 C1033 1.428 1_545 S
C1039 N1038 1.351 . S
C1039 C1040 1.434 . S
C1040 C1031 1.429 1_554 S
C1040 N1037 1.350 . S
C1040 C1039 1.434 . S
C1041 C1042 1.369 . S
C1041 C1043 1.419 . S
C1041 H1045 0.930 . S
C1042 C1041 1.369 . S
C1042 C1051 1.429 1_545 S
C1043 C1041 1.419 . S
C1043 C1044 1.363 1_545 S
C1043 H1046 0.929 . S
C1044 C1043 1.363 1_565 S
C1044 C1050 1.428 . S
H1045 C1041 0.930 . S
H1046 C1043 0.929 . S
S1047 N1048 1.613 . S
S1047 N1049 1.610 . S
N1048 S1047 1.613 . S
N1048 C1051 1.350 . S
N1049 S1047 1.610 . S
N1049 C1050 1.351 . S
C1050 C1044 1.428 . S
C1050 N1049 1.351 . S
C1050 C1051 1.434 . S
C1051 C1042 1.429 1_565 S
C1051 N1048 1.350 . S
C1051 C1050 1.434 . S
C1052 C1053 1.369 . S
C1052 C1054 1.419 . S
C1052 H1056 0.930 . S
C1053 C1052 1.369 . S
C1053 C1062 1.429 1_455 S
C1054 C1052 1.419 . S
C1054 C1055 1.363 1_455 S
C1054 H1057 0.929 . S
C1055 C1054 1.363 1_655 S
C1055 C1061 1.428 . S
H1056 C1052 0.930 . S
H1057 C1054 0.929 . S
S1058 N1059 1.613 . S
S1058 N1060 1.610 . S
N1059 S1058 1.613 . S
N1059 C1062 1.350 . S
N1060 S1058 1.610 . S
N1060 C1061 1.351 . S
C1061 C1055 1.428 . S
C1061 N1060 1.351 . S
C1061 C1062 1.434 . S
C1062 C1053 1.429 1_655 S
C1062 N1059 1.350 . S
C1062 C1061 1.434 . S
C1063 C1064 1.369 . S
C1063 C1065 1.419 . S
C1063 H1067 0.930 . S
C1064 C1063 1.369 . S
C1064 C1073 1.429 . S
C1065 C1063 1.419 . S
C1065 C1066 1.363 . S
C1065 H1068 0.929 . S
C1066 C1065 1.363 . S
C1066 C1072 1.428 . S
H1067 C1063 0.930 . S
H1068 C1065 0.929 . S
S1069 N1070 1.613 . S
S1069 N1071 1.610 . S
N1070 S1069 1.613 . S
N1070 C1073 1.350 . S
N1071 S1069 1.610 . S
N1071 C1072 1.351 . S
C1072 C1066 1.428 . S
C1072 N1071 1.351 . S
C1072 C1073 1.434 . S
C1073 C1064 1.429 . S
C1073 N1070 1.350 . S
C1073 C1072 1.434 . S
C1074 C1075 1.369 . S
C1074 C1076 1.419 1_655 S
C1074 H1078 0.930 . S
C1075 C1074 1.369 . S
C1075 C1084 1.429 . S
C1076 C1074 1.419 1_455 S
C1076 C1077 1.363 . S
C1076 H1079 0.929 . S
C1077 C1076 1.363 . S
C1077 C1083 1.428 . S
H1078 C1074 0.930 . S
H1079 C1076 0.929 . S
S1080 N1081 1.613 1_455 S
S1080 N1082 1.610 . S
N1081 S1080 1.613 1_655 S
N1081 C1084 1.350 . S
N1082 S1080 1.610 . S
N1082 C1083 1.351 . S
C1083 C1077 1.428 . S
C1083 N1082 1.351 . S
C1083 C1084 1.434 1_455 S
C1084 C1075 1.429 . S
C1084 N1081 1.350 . S
C1084 C1083 1.434 1_655 S
C1085 C1086 1.369 . S
C1085 C1087 1.419 . S
C1085 H1089 0.930 . S
C1086 C1085 1.369 . S
C1086 C1095 1.429 . S
C1087 C1085 1.419 . S
C1087 C1088 1.363 . S
C1087 H1090 0.929 . S
C1088 C1087 1.363 . S
C1088 C1094 1.428 . S
H1089 C1085 0.930 . S
H1090 C1087 0.929 . S
S1091 N1092 1.613 . S
S1091 N1093 1.610 . S
N1092 S1091 1.613 . S
N1092 C1095 1.350 . S
N1093 S1091 1.610 . S
N1093 C1094 1.351 . S
C1094 C1088 1.428 . S
C1094 N1093 1.351 . S
C1094 C1095 1.434 . S
C1095 C1086 1.429 . S
C1095 N1092 1.350 . S
C1095 C1094 1.434 . S
C1096 C1097 1.369 . S
C1096 C1098 1.419 1_545 S
C1096 H1100 0.930 . S
C1097 C1096 1.369 . S
C1097 C1106 1.429 . S
C1098 C1096 1.419 1_565 S
C1098 C1099 1.363 . S
C1098 H1101 0.929 . S
C1099 C1098 1.363 . S
C1099 C1105 1.428 . S
H1100 C1096 0.930 . S
H1101 C1098 0.929 . S
S1102 N1103 1.613 . S
S1102 N1104 1.610 1_545 S
N1103 S1102 1.613 . S
N1103 C1106 1.350 . S
N1104 S1102 1.610 1_565 S
N1104 C1105 1.351 . S
C1105 C1099 1.428 . S
C1105 N1104 1.351 . S
C1105 C1106 1.434 1_565 S
C1106 C1097 1.429 . S
C1106 N1103 1.350 . S
C1106 C1105 1.434 1_545 S
C1107 C1108 1.369 . S
C1107 C1109 1.419 1_455 S
C1107 H1111 0.930 . S
C1108 C1107 1.369 . S
C1108 C1117 1.429 . S
C1109 C1107 1.419 1_655 S
C1109 C1110 1.363 . S
C1109 H1112 0.929 . S
C1110 C1109 1.363 . S
C1110 C1116 1.428 . S
H1111 C1107 0.930 . S
H1112 C1109 0.929 . S
S1113 N1114 1.643 . S
S1113 N1115 1.600 1_455 S
N1114 S1113 1.643 . S
N1114 C1117 1.350 . S
N1115 S1113 1.600 1_655 S
N1115 C1116 1.351 . S
C1116 C1110 1.428 . S
C1116 N1115 1.351 . S
C1116 C1117 1.434 1_655 S
C1117 C1108 1.429 . S
C1117 N1114 1.350 . S
C1117 C1116 1.434 1_455 S
C1118 C1119 1.369 . S
C1118 C1120 1.419 . S
C1118 H1122 0.930 . S
C1119 C1118 1.369 . S
C1119 C1128 1.429 . S
C1120 C1118 1.419 . S
C1120 C1121 1.363 . S
C1120 H1123 0.929 . S
C1121 C1120 1.363 . S
C1121 C1127 1.428 . S
H1122 C1118 0.930 . S
H1123 C1120 0.929 . S
S1124 N1125 1.613 . S
S1124 N1126 1.610 . S
N1125 S1124 1.613 . S
N1125 C1128 1.350 . S
N1126 S1124 1.610 . S
N1126 C1127 1.351 . S
C1127 C1121 1.428 . S
C1127 N1126 1.351 . S
C1127 C1128 1.434 . S
C1128 C1119 1.429 . S
C1128 N1125 1.350 . S
C1128 C1127 1.434 . S
C1129 C1130 1.369 . S
C1129 C1131 1.419 1_545 S
C1129 H1133 0.930 . S
C1130 C1129 1.369 . S
C1130 C1139 1.429 . S
C1131 C1129 1.419 1_565 S
C1131 C1132 1.363 . S
C1131 H1134 0.929 . S
C1132 C1131 1.363 . S
C1132 C1138 1.428 . S
H1133 C1129 0.930 . S
H1134 C1131 0.929 . S
S1135 N1136 1.613 1_565 S
S1135 N1137 1.610 . S
N1136 S1135 1.613 1_545 S
N1136 C1139 1.350 . S
N1137 S1135 1.610 . S
N1137 C1138 1.351 . S
C1138 C1132 1.428 . S
C1138 N1137 1.351 . S
C1138 C1139 1.434 1_565 S
C1139 C1130 1.429 . S
C1139 N1136 1.350 . S
C1139 C1138 1.434 1_545 S
C1140 C1141 1.369 . S
C1140 C1142 1.419 . S
C1140 H1144 0.930 . S
C1141 C1140 1.369 . S
C1141 C1150 1.429 . S
C1142 C1140 1.419 . S
C1142 C1143 1.363 . S
C1142 H1145 0.929 . S
C1143 C1142 1.363 . S
C1143 C1149 1.428 . S
H1144 C1140 0.930 . S
H1145 C1142 0.929 . S
S1146 N1147 1.613 . S
S1146 N1148 1.610 . S
N1147 S1146 1.613 . S
N1147 C1150 1.350 . S
N1148 S1146 1.610 . S
N1148 C1149 1.351 . S
C1149 C1143 1.428 . S
C1149 N1148 1.351 . S
C1149 C1150 1.434 . S
C1150 C1141 1.429 . S
C1150 N1147 1.350 . S
C1150 C1149 1.434 . S
C1151 C1152 1.369 . S
C1151 C1153 1.419 . S
C1151 H1155 0.930 . S
C1152 C1151 1.369 . S
C1152 C1161 1.429 . S
C1153 C1151 1.419 . S
C1153 C1154 1.363 . S
C1153 H1156 0.929 . S
C1154 C1153 1.363 . S
C1154 C1160 1.428 . S
H1155 C1151 0.930 . S
H1156 C1153 0.929 . S
S1157 N1158 1.613 . S
S1157 N1159 1.610 . S
N1158 S1157 1.613 . S
N1158 C1161 1.350 . S
N1159 S1157 1.610 . S
N1159 C1160 1.351 . S
C1160 C1154 1.428 . S
C1160 N1159 1.351 . S
C1160 C1161 1.434 . S
C1161 C1152 1.429 . S
C1161 N1158 1.350 . S
C1161 C1160 1.434 . S
C1162 C1163 1.369 . S
C1162 C1164 1.419 . S
C1162 H1166 0.930 . S
C1163 C1162 1.369 . S
C1163 C1172 1.429 . S
C1164 C1162 1.419 . S
C1164 C1165 1.363 . S
C1164 H1167 0.929 . S
C1165 C1164 1.363 . S
C1165 C1171 1.428 . S
H1166 C1162 0.930 . S
H1167 C1164 0.929 . S
S1168 N1169 1.613 . S
S1168 N1170 1.610 . S
N1169 S1168 1.613 . S
N1169 C1172 1.350 . S
N1170 S1168 1.610 . S
N1170 C1171 1.351 . S
C1171 C1165 1.428 . S
C1171 N1170 1.351 . S
C1171 C1172 1.434 . S
C1172 C1163 1.429 . S
C1172 N1169 1.350 . S
C1172 C1171 1.434 . S
C1173 C1174 1.369 . S
C1173 C1175 1.419 . S
C1173 H1177 0.930 . S
C1174 C1173 1.369 . S
C1174 C1183 1.429 . S
C1175 C1173 1.419 . S
C1175 C1176 1.363 . S
C1175 H1178 0.929 . S
C1176 C1175 1.363 . S
C1176 C1182 1.428 . S
H1177 C1173 0.930 . S
H1178 C1175 0.929 . S
S1179 N1180 1.613 . S
S1179 N1181 1.610 . S
N1180 S1179 1.613 . S
N1180 C1183 1.350 . S
N1181 S1179 1.610 . S
N1181 C1182 1.351 . S
C1182 C1176 1.428 . S
C1182 N1181 1.351 . S
C1182 C1183 1.434 . S
C1183 C1174 1.429 . S
C1183 N1180 1.350 . S
C1183 C1182 1.434 . S
C1184 C1185 1.369 . S
C1184 C1186 1.419 . S
C1184 H1188 0.930 . S
C1185 C1184 1.369 . S
C1185 C1194 1.429 . S
C1186 C1184 1.419 . S
C1186 C1187 1.363 . S
C1186 H1189 0.929 . S
C1187 C1186 1.363 . S
C1187 C1193 1.428 . S
H1188 C1184 0.930 . S
H1189 C1186 0.929 . S
S1190 N1191 1.613 . S
S1190 N1192 1.610 . S
N1191 S1190 1.613 . S
N1191 C1194 1.350 . S
N1192 S1190 1.610 . S
N1192 C1193 1.351 . S
C1193 C1187 1.428 . S
C1193 N1192 1.351 . S
C1193 C1194 1.434 . S
C1194 C1185 1.429 . S
C1194 N1191 1.350 . S
C1194 C1193 1.434 . S
C1195 C1196 1.369 . S
C1195 C1197 1.419 . S
C1195 H1199 0.930 . S
C1196 C1195 1.369 . S
C1196 C1205 1.429 . S
C1197 C1195 1.419 . S
C1197 C1198 1.363 . S
C1197 H1200 0.929 . S
C1198 C1197 1.363 . S
C1198 C1204 1.428 . S
H1199 C1195 0.930 . S
H1200 C1197 0.929 . S
S1201 N1202 1.613 . S
S1201 N1203 1.610 . S
N1202 S1201 1.613 . S
N1202 C1205 1.350 . S
N1203 S1201 1.610 . S
N1203 C1204 1.351 . S
C1204 C1198 1.428 . S
C1204 N1203 1.351 . S
C1204 C1205 1.434 . S
C1205 C1196 1.429 . S
C1205 N1202 1.350 . S
C1205 C1204 1.434 . S
C1206 C1207 1.369 . S
C1206 C1208 1.419 . S
C1206 H1210 0.930 . S
C1207 C1206 1.369 . S
C1207 C1216 1.429 . S
C1208 C1206 1.419 . S
C1208 C1209 1.363 . S
C1208 H1211 0.929 . S
C1209 C1208 1.363 . S
C1209 C1215 1.428 . S
H1210 C1206 0.930 . S
H1211 C1208 0.929 . S
S1212 N1213 1.613 . S
S1212 N1214 1.610 . S
N1213 S1212 1.613 . S
N1213 C1216 1.350 . S
N1214 S1212 1.610 . S
N1214 C1215 1.351 . S
C1215 C1209 1.428 . S
C1215 N1214 1.351 . S
C1215 C1216 1.434 . S
C1216 C1207 1.429 . S
C1216 N1213 1.350 . S
C1216 C1215 1.434 . S
C1217 C1218 1.369 . S
C1217 C1219 1.419 . S
C1217 H1221 0.930 . S
C1218 C1217 1.369 . S
C1218 C1227 1.429 . S
C1219 C1217 1.419 . S
C1219 C1220 1.363 . S
C1219 H1222 0.929 . S
C1220 C1219 1.363 . S
C1220 C1226 1.428 . S
H1221 C1217 0.930 . S
H1222 C1219 0.929 . S
S1223 N1224 1.613 . S
S1223 N1225 1.610 . S
N1224 S1223 1.613 . S
N1224 C1227 1.350 . S
N1225 S1223 1.610 . S
N1225 C1226 1.351 . S
C1226 C1220 1.428 . S
C1226 N1225 1.351 . S
C1226 C1227 1.434 . S
C1227 C1218 1.429 . S
C1227 N1224 1.350 . S
C1227 C1226 1.434 . S
C1228 C1229 1.369 . S
C1228 C1230 1.419 . S
C1228 H1232 0.930 . S
C1229 C1228 1.369 . S
C1229 C1238 1.429 . S
C1230 C1228 1.419 . S
C1230 C1231 1.363 . S
C1230 H1233 0.929 . S
C1231 C1230 1.363 . S
C1231 C1237 1.428 . S
H1232 C1228 0.930 . S
H1233 C1230 0.929 . S
S1234 N1235 1.613 . S
S1234 N1236 1.610 . S
N1235 S1234 1.613 . S
N1235 C1238 1.350 . S
N1236 S1234 1.610 . S
N1236 C1237 1.351 . S
C1237 C1231 1.428 . S
C1237 N1236 1.351 . S
C1237 C1238 1.434 . S
C1238 C1229 1.429 . S
C1238 N1235 1.350 . S
C1238 C1237 1.434 . S
C1239 C1240 1.369 . S
C1239 C1241 1.419 . S
C1239 H1243 0.930 . S
C1240 C1239 1.369 . S
C1240 C1249 1.429 . S
C1241 C1239 1.419 . S
C1241 C1242 1.363 . S
C1241 H1244 0.929 . S
C1242 C1241 1.363 . S
C1242 C1248 1.428 . S
H1243 C1239 0.930 . S
H1244 C1241 0.929 . S
S1245 N1246 1.613 . S
S1245 N1247 1.610 . S
N1246 S1245 1.613 . S
N1246 C1249 1.350 . S
N1247 S1245 1.610 . S
N1247 C1248 1.351 . S
C1248 C1242 1.428 . S
C1248 N1247 1.351 . S
C1248 C1249 1.434 . S
C1249 C1240 1.429 . S
C1249 N1246 1.350 . S
C1249 C1248 1.434 . S
C1250 C1251 1.369 . S
C1250 C1252 1.419 . S
C1250 H1254 0.930 . S
C1251 C1250 1.369 . S
C1251 C1260 1.429 . S
C1252 C1250 1.419 . S
C1252 C1253 1.363 . S
C1252 H1255 0.929 . S
C1253 C1252 1.363 . S
C1253 C1259 1.428 . S
H1254 C1250 0.930 . S
H1255 C1252 0.929 . S
S1256 N1257 1.613 . S
S1256 N1258 1.610 . S
N1257 S1256 1.613 . S
N1257 C1260 1.350 . S
N1258 S1256 1.610 . S
N1258 C1259 1.351 . S
C1259 C1253 1.428 . S
C1259 N1258 1.351 . S
C1259 C1260 1.434 . S
C1260 C1251 1.429 . S
C1260 N1257 1.350 . S
C1260 C1259 1.434 . S
C1261 C1262 1.369 . S
C1261 C1263 1.419 . S
C1261 H1265 0.930 . S
C1262 C1261 1.369 . S
C1262 C1271 1.429 . S
C1263 C1261 1.419 . S
C1263 C1264 1.363 . S
C1263 H1266 0.929 . S
C1264 C1263 1.363 . S
C1264 C1270 1.428 . S
H1265 C1261 0.930 . S
H1266 C1263 0.929 . S
S1267 N1268 1.613 . S
S1267 N1269 1.610 . S
N1268 S1267 1.613 . S
N1268 C1271 1.350 . S
N1269 S1267 1.610 . S
N1269 C1270 1.351 . S
C1270 C1264 1.428 . S
C1270 N1269 1.351 . S
C1270 C1271 1.434 . S
C1271 C1262 1.429 . S
C1271 N1268 1.350 . S
C1271 C1270 1.434 . S
C1272 C1273 1.369 . S
C1272 C1274 1.419 1_554 S
C1272 H1276 0.930 1_554 S
C1273 C1272 1.369 . S
C1273 C1282 1.429 . S
C1274 C1272 1.419 1_556 S
C1274 C1275 1.363 1_556 S
C1274 H1277 0.929 . S
C1275 C1274 1.363 1_554 S
C1275 C1281 1.428 . S
H1276 C1272 0.930 1_556 S
H1277 C1274 0.929 . S
S1278 N1279 1.613 . S
S1278 N1280 1.610 . S
N1279 S1278 1.613 . S
N1279 C1282 1.350 . S
N1280 S1278 1.610 . S
N1280 C1281 1.351 . S
C1281 C1275 1.428 . S
C1281 N1280 1.351 . S
C1281 C1282 1.434 . S
C1282 C1273 1.429 . S
C1282 N1279 1.350 . S
C1282 C1281 1.434 . S
C1283 C1284 1.369 . S
C1283 C1285 1.419 . S
C1283 H1287 0.930 . S
C1284 C1283 1.369 . S
C1284 C1293 1.430 . S
C1285 C1283 1.419 . S
C1285 C1286 1.363 1_545 S
C1285 H1288 0.929 . S
C1286 C1285 1.363 1_565 S
C1286 C1292 1.428 . S
H1287 C1283 0.930 . S
H1288 C1285 0.929 . S
S1289 N1290 1.613 . S
S1289 N1291 1.610 . S
N1290 S1289 1.613 . S
N1290 C1293 1.350 1_566 S
N1291 S1289 1.610 . S
N1291 C1292 1.351 1_556 S
C1292 C1286 1.428 . S
C1292 N1291 1.351 1_554 S
C1292 C1293 1.432 1_565 S
C1293 C1284 1.430 . S
C1293 N1290 1.350 1_544 S
C1293 C1292 1.432 1_545 S
C1294 C1295 1.369 . S
C1294 C1296 1.419 . S
C1294 H1298 0.930 . S
C1295 C1294 1.369 . S
C1295 C1304 1.429 . S
C1296 C1294 1.419 . S
C1296 C1297 1.363 1_655 S
C1296 H1299 0.929 . S
C1297 C1296 1.363 1_455 S
C1297 C1303 1.428 . S
H1298 C1294 0.930 . S
H1299 C1296 0.929 . S
S1300 N1301 1.601 1_455 S
S1300 N1302 1.610 . S
N1301 S1300 1.601 1_655 S
N1301 C1304 1.358 . S
N1302 S1300 1.610 . S
N1302 C1303 1.351 . S
C1303 C1297 1.428 . S
C1303 N1302 1.351 . S
C1303 C1304 1.434 1_455 S
C1304 C1295 1.429 . S
C1304 N1301 1.358 . S
C1304 C1303 1.434 1_655 S
C1305 C1306 1.369 . S
C1305 C1307 1.419 . S
C1305 H1309 0.930 . S
C1306 C1305 1.369 . S
C1306 C1315 1.429 . S
C1307 C1305 1.419 . S
C1307 C1308 1.363 . S
C1307 H1310 0.929 . S
C1308 C1307 1.363 . S
C1308 C1314 1.428 . S
H1309 C1305 0.930 . S
H1310 C1307 0.929 . S
S1311 N1312 1.613 . S
S1311 N1313 1.610 . S
N1312 S1311 1.613 . S
N1312 C1315 1.350 . S
N1313 S1311 1.610 . S
N1313 C1314 1.351 . S
C1314 C1308 1.428 . S
C1314 N1313 1.351 . S
C1314 C1315 1.434 . S
C1315 C1306 1.429 . S
C1315 N1312 1.350 . S
C1315 C1314 1.434 . S
C1316 C1317 1.369 . S
C1316 C1318 1.419 . S
C1316 H1320 0.930 . S
C1317 C1316 1.369 . S
C1317 C1326 1.391 1_565 S
C1318 C1316 1.419 . S
C1318 C1319 1.363 1_565 S
C1318 H1321 0.929 . S
C1319 C1318 1.363 1_545 S
C1319 C1325 1.428 . S
H1320 C1316 0.930 . S
H1321 C1318 0.929 . S
S1322 N1323 1.613 . S
S1322 N1324 1.610 . S
N1323 S1322 1.613 . S
N1323 C1326 1.375 . S
N1324 S1322 1.610 . S
N1324 C1325 1.351 . S
C1325 C1319 1.428 . S
C1325 N1324 1.351 . S
C1325 C1326 1.450 . S
C1326 C1317 1.391 1_545 S
C1326 N1323 1.375 . S
C1326 C1325 1.450 . S
C1327 C1328 1.369 1_455 S
C1327 C1329 1.419 . S
C1327 H1331 0.930 . S
C1328 C1327 1.369 1_655 S
C1328 C1337 1.429 . S
C1329 C1327 1.419 . S
C1329 C1330 1.363 . S
C1329 H1332 0.929 . S
C1330 C1329 1.363 . S
C1330 C1336 1.428 . S
H1331 C1327 0.930 . S
H1332 C1329 0.929 . S
S1333 N1334 1.613 . S
S1333 N1335 1.610 1_655 S
N1334 S1333 1.613 . S
N1334 C1337 1.350 . S
N1335 S1333 1.610 1_455 S
N1335 C1336 1.351 . S
C1336 C1330 1.428 . S
C1336 N1335 1.351 . S
C1336 C1337 1.434 1_455 S
C1337 C1328 1.429 . S
C1337 N1334 1.350 . S
C1337 C1336 1.434 1_655 S
C1338 C1339 1.369 . S
C1338 C1340 1.419 . S
C1338 H1342 0.930 . S
C1339 C1338 1.369 . S
C1339 C1348 1.429 1_556 S
C1340 C1338 1.419 . S
C1340 C1341 1.363 . S
C1340 H1343 0.929 . S
C1341 C1340 1.363 . S
C1341 C1347 1.428 . S
H1342 C1338 0.930 . S
H1343 C1340 0.929 . S
S1344 N1345 1.613 . S
S1344 N1346 1.610 . S
N1345 S1344 1.613 . S
N1345 C1348 1.350 . S
N1346 S1344 1.610 . S
N1346 C1347 1.351 1_554 S
C1347 C1341 1.428 . S
C1347 N1346 1.351 1_556 S
C1347 C1348 1.434 1_556 S
C1348 C1339 1.429 1_554 S
C1348 N1345 1.350 . S
C1348 C1347 1.434 1_554 S
C1349 C1350 1.369 . S
C1349 C1351 1.419 1_546 S
C1349 H1353 0.930 1_556 S
C1350 C1349 1.369 . S
C1350 C1359 1.429 1_545 S
C1351 C1349 1.419 1_564 S
C1351 C1352 1.363 1_554 S
C1351 H1354 0.929 . S
C1352 C1351 1.363 1_556 S
C1352 C1358 1.428 . S
H1353 C1349 0.930 1_554 S
H1354 C1351 0.929 . S
S1355 N1356 1.613 . S
S1355 N1357 1.610 . S
N1356 S1355 1.613 . S
N1356 C1359 1.350 . S
N1357 S1355 1.610 . S
N1357 C1358 1.351 . S
C1358 C1352 1.428 . S
C1358 N1357 1.351 . S
C1358 C1359 1.434 . S
C1359 C1350 1.429 1_565 S
C1359 N1356 1.350 . S
C1359 C1358 1.434 . S
C1360 C1361 1.369 . S
C1360 C1362 1.419 1_455 S
C1360 H1364 0.930 . S
C1361 C1360 1.369 . S
C1361 C1370 1.429 1_556 S
C1362 C1360 1.419 1_655 S
C1362 C1363 1.363 . S
C1362 H1365 0.929 . S
C1363 C1362 1.363 . S
C1363 C1369 1.428 . S
H1364 C1360 0.930 . S
H1365 C1362 0.929 . S
S1366 N1367 1.613 1_655 S
S1366 N1368 1.610 . S
N1367 S1366 1.613 1_455 S
N1367 C1370 1.350 . S
N1368 S1366 1.610 . S
N1368 C1369 1.351 1_554 S
C1369 C1363 1.428 . S
C1369 N1368 1.351 1_556 S
C1369 C1370 1.434 1_656 S
C1370 C1361 1.429 1_554 S
C1370 N1367 1.350 . S
C1370 C1369 1.434 1_454 S
C1371 C1372 1.369 . S
C1371 C1373 1.419 . S
C1371 H1375 0.930 . S
C1372 C1371 1.369 . S
C1372 C1381 1.429 . S
C1373 C1371 1.419 . S
C1373 C1374 1.363 . S
C1373 H1376 0.929 . S
C1374 C1373 1.363 . S
C1374 C1380 1.428 . S
H1375 C1371 0.930 . S
H1376 C1373 0.929 . S
S1377 N1378 1.613 . S
S1377 N1379 1.610 . S
N1378 S1377 1.613 . S
N1378 C1381 1.350 . S
N1379 S1377 1.610 . S
N1379 C1380 1.351 . S
C1380 C1374 1.428 . S
C1380 N1379 1.351 . S
C1380 C1381 1.434 . S
C1381 C1372 1.429 . S
C1381 N1378 1.350 . S
C1381 C1380 1.434 . S
C1382 C1383 1.369 . S
C1382 C1384 1.409 1_565 S
C1382 H1386 0.930 . S
C1383 C1382 1.369 . S
C1383 C1392 1.429 1_565 S
C1384 C1382 1.409 1_545 S
C1384 C1385 1.385 . S
C1384 H1387 0.916 1_545 S
C1385 C1384 1.385 . S
C1385 C1391 1.428 . S
H1386 C1382 0.930 . S
H1387 C1384 0.916 1_565 S
S1388 N1389 1.613 . S
S1388 N1390 1.610 . S
N1389 S1388 1.613 . S
N1389 C1392 1.350 . S
N1390 S1388 1.610 . S
N1390 C1391 1.351 . S
C1391 C1385 1.428 . S
C1391 N1390 1.351 . S
C1391 C1392 1.434 . S
C1392 C1383 1.429 1_545 S
C1392 N1389 1.350 . S
C1392 C1391 1.434 . S
C1393 C1394 1.369 . S
C1393 C1395 1.419 . S
C1393 H1397 0.930 . S
C1394 C1393 1.369 . S
C1394 C1403 1.429 1_655 S
C1395 C1393 1.419 . S
C1395 C1396 1.363 1_655 S
C1395 H1398 0.929 . S
C1396 C1395 1.363 1_455 S
C1396 C1402 1.428 . S
H1397 C1393 0.930 . S
H1398 C1395 0.929 . S
S1399 N1400 1.613 . S
S1399 N1401 1.610 . S
N1400 S1399 1.613 . S
N1400 C1403 1.350 . S
N1401 S1399 1.610 . S
N1401 C1402 1.351 . S
C1402 C1396 1.428 . S
C1402 N1401 1.351 . S
C1402 C1403 1.434 . S
C1403 C1394 1.429 1_455 S
C1403 N1400 1.350 . S
C1403 C1402 1.434 . S
C1009 C58 1.549 . S
C1011 C573 1.537 . S
C1020 C657 1.537 . S
C1022 C142 1.546 . S
C1031 C741 1.534 . S
C1033 C226 1.549 . S
C1042 C310 1.542 . S
C1044 C825 1.542 . S
C1053 C909 1.550 . S
C1055 C394 1.535 . S
C1064 C993 1.544 . S
C1066 C478 1.541 . S
C1075 C399 1.947 . S
C1077 C63 1.953 . S
C1086 C147 1.954 . S
C1088 C483 1.951 . S
C1097 C315 1.954 . S
C1099 C231 1.949 . S
C1108 C914 1.950 . S
C1110 C578 1.947 . S
C1119 C998 1.946 . S
C1121 C662 1.952 . S
C1130 C746 1.950 . S
C1132 C830 1.953 . S
C1141 C991 1.620 . S
C1143 C74 1.628 . S
C1152 C158 1.625 . S
C1154 C823 1.621 . S
C1163 C242 1.630 . S
C1165 C907 1.618 . S
C1174 C326 1.628 . S
C1176 C655 1.614 . S
C1185 C410 1.628 . S
C1187 C739 1.614 . S
C1196 C571 1.620 . S
C1198 C494 1.628 . S
C1207 C567 1.627 . S
C1209 C476 1.614 . S
C1218 C308 1.621 . S
C1220 C651 1.625 . S
C1229 C735 1.629 . S
C1231 C392 1.619 . S
C1240 C140 1.617 . S
C1242 C819 1.629 . S
C1251 C903 1.628 . S
C1253 C224 1.620 . S
C1262 C56 1.614 . S
C1264 C987 1.629 . S
C1273 C69 1.870 . S
C1275 C644 1.794 1_554 S
C1284 C728 1.791 1_554 S
C1286 C153 1.872 . S
C1295 C560 1.795 1_554 S
C1297 C237 1.870 . S
C1306 C321 1.869 . S
C1308 C980 1.791 . S
C1317 C812 1.793 . S
C1319 C405 1.871 . S
C1328 C489 1.873 . S
C1330 C896 1.787 . S
C1339 C151 1.786 1_556 S
C1341 C562 1.872 . S
C1350 C646 1.869 . S
C1352 C235 1.791 1_556 S
C1361 C67 1.786 1_556 S
C1363 C730 1.872 . S
C1372 C814 1.872 . S
C1374 C487 1.787 . S
C1383 C898 1.871 . S
C1385 C319 1.788 . S
C1394 C403 1.789 . S
C1396 C982 1.872 . S
