# Generated by pormake.
# Topology unp, (4)-cn, num edge types: 1
# Building blocks:
#     Node 0, Type 0, BuildingBlock: QUQFOY_clean_sbu_3, # of connection points: 4
#     Node 1, Type 0, BuildingBlock: QUQFOY_clean_sbu_3, # of connection points: 4
#     Node 2, Type 0, BuildingBlock: QUQFOY_clean_sbu_3, # of connection points: 4
#     Node 3, Type 0, BuildingBlock: QUQFOY_clean_sbu_3, # of connection points: 4
#     Node 4, Type 0, BuildingBlock: QUQFOY_clean_sbu_3, # of connection points: 4
#     Node 5, Type 0, BuildingBlock: QUQFOY_clean_sbu_3, # of connection points: 4
#     Node 6, Type 0, BuildingBlock: QUQFOY_clean_sbu_3, # of connection points: 4
#     Node 7, Type 0, BuildingBlock: QUQFOY_clean_sbu_3, # of connection points: 4
#     Node 8, Type 0, BuildingBlock: QUQFOY_clean_sbu_3, # of connection points: 4
#     Node 9, Type 0, BuildingBlock: QUQFOY_clean_sbu_3, # of connection points: 4
#     Node 10, Type 0, BuildingBlock: QUQFOY_clean_sbu_3, # of connection points: 4
#     Node 11, Type 0, BuildingBlock: QUQFOY_clean_sbu_3, # of connection points: 4
#     Node 12, Type 0, BuildingBlock: QUQFOY_clean_sbu_3, # of connection points: 4
#     Node 13, Type 0, BuildingBlock: QUQFOY_clean_sbu_3, # of connection points: 4
#     Node 14, Type 0, BuildingBlock: QUQFOY_clean_sbu_3, # of connection points: 4
#     Node 15, Type 0, BuildingBlock: QUQFOY_clean_sbu_3, # of connection points: 4
#     Node 16, Type 0, BuildingBlock: QUQFOY_clean_sbu_3, # of connection points: 4
#     Node 17, Type 0, BuildingBlock: QUQFOY_clean_sbu_3, # of connection points: 4
#     Edge 18, Type (0, 0), BuildingBlock: MIFKUJ_clean_linker_0, # of connection points: 2
#     Edge 19, Type (0, 0), BuildingBlock: MIFKUJ_clean_linker_0, # of connection points: 2
#     Edge 20, Type (0, 0), BuildingBlock: MIFKUJ_clean_linker_0, # of connection points: 2
#     Edge 21, Type (0, 0), BuildingBlock: MIFKUJ_clean_linker_0, # of connection points: 2
#     Edge 22, Type (0, 0), BuildingBlock: MIFKUJ_clean_linker_0, # of connection points: 2
#     Edge 23, Type (0, 0), BuildingBlock: MIFKUJ_clean_linker_0, # of connection points: 2
#     Edge 24, Type (0, 0), BuildingBlock: MIFKUJ_clean_linker_0, # of connection points: 2
#     Edge 25, Type (0, 0), BuildingBlock: MIFKUJ_clean_linker_0, # of connection points: 2
#     Edge 26, Type (0, 0), BuildingBlock: MIFKUJ_clean_linker_0, # of connection points: 2
#     Edge 27, Type (0, 0), BuildingBlock: MIFKUJ_clean_linker_0, # of connection points: 2
#     Edge 28, Type (0, 0), BuildingBlock: MIFKUJ_clean_linker_0, # of connection points: 2
#     Edge 29, Type (0, 0), BuildingBlock: MIFKUJ_clean_linker_0, # of connection points: 2
#     Edge 30, Type (0, 0), BuildingBlock: MIFKUJ_clean_linker_0, # of connection points: 2
#     Edge 31, Type (0, 0), BuildingBlock: MIFKUJ_clean_linker_0, # of connection points: 2
#     Edge 32, Type (0, 0), BuildingBlock: MIFKUJ_clean_linker_0, # of connection points: 2
#     Edge 33, Type (0, 0), BuildingBlock: MIFKUJ_clean_linker_0, # of connection points: 2
#     Edge 34, Type (0, 0), BuildingBlock: MIFKUJ_clean_linker_0, # of connection points: 2
#     Edge 35, Type (0, 0), BuildingBlock: MIFKUJ_clean_linker_0, # of connection points: 2
#     Edge 36, Type (0, 0), BuildingBlock: MIFKUJ_clean_linker_0, # of connection points: 2
#     Edge 37, Type (0, 0), BuildingBlock: MIFKUJ_clean_linker_0, # of connection points: 2
#     Edge 38, Type (0, 0), BuildingBlock: MIFKUJ_clean_linker_0, # of connection points: 2
#     Edge 39, Type (0, 0), BuildingBlock: MIFKUJ_clean_linker_0, # of connection points: 2
#     Edge 40, Type (0, 0), BuildingBlock: MIFKUJ_clean_linker_0, # of connection points: 2
#     Edge 41, Type (0, 0), BuildingBlock: MIFKUJ_clean_linker_0, # of connection points: 2
#     Edge 42, Type (0, 0), BuildingBlock: MIFKUJ_clean_linker_0, # of connection points: 2
#     Edge 43, Type (0, 0), BuildingBlock: MIFKUJ_clean_linker_0, # of connection points: 2
#     Edge 44, Type (0, 0), BuildingBlock: MIFKUJ_clean_linker_0, # of connection points: 2
#     Edge 45, Type (0, 0), BuildingBlock: MIFKUJ_clean_linker_0, # of connection points: 2
#     Edge 46, Type (0, 0), BuildingBlock: MIFKUJ_clean_linker_0, # of connection points: 2
#     Edge 47, Type (0, 0), BuildingBlock: MIFKUJ_clean_linker_0, # of connection points: 2
#     Edge 48, Type (0, 0), BuildingBlock: MIFKUJ_clean_linker_0, # of connection points: 2
#     Edge 49, Type (0, 0), BuildingBlock: MIFKUJ_clean_linker_0, # of connection points: 2
#     Edge 50, Type (0, 0), BuildingBlock: MIFKUJ_clean_linker_0, # of connection points: 2
#     Edge 51, Type (0, 0), BuildingBlock: MIFKUJ_clean_linker_0, # of connection points: 2
#     Edge 52, Type (0, 0), BuildingBlock: MIFKUJ_clean_linker_0, # of connection points: 2
#     Edge 53, Type (0, 0), BuildingBlock: MIFKUJ_clean_linker_0, # of connection points: 2
# Relax obj value: 0.412
# Max RMSD: 0.182
# Mean RMSD: 0.182
data_MOF--net-unp--node1-QUQFOY_clean_sbu_3--edge1-MIFKUJ_clean_linker_0
_symmetry_space_group_name_H-M    P1
_symmetry_Int_Tables_number       1
_symmetry_cell_setting            triclinic
loop_
_symmetry_equiv_pos_as_xyz
'x, y, z'
_cell_length_a     63.774337
_cell_length_b     63.782845
_cell_length_c     72.492287
_cell_angle_alpha  90.028952
_cell_angle_beta   90.010654
_cell_angle_gamma 119.9371
loop_
_atom_site_label
_atom_site_type_symbol
_atom_site_fract_x
_atom_site_fract_y
_atom_site_fract_z
_atom_type_partial_charge
C0 C 0.13353 0.1158 0.11732 0.0
O1 O 0.1235 0.11692 0.10251 0.0
Cd2 Cd 0.13173 0.15397 0.08836 0.0
O3 O 0.14838 0.13508 0.12582 0.0
Cd4 Cd 0.16457 0.17929 0.12149 0.0
C5 C 0.10898 0.17288 0.12272 0.0
O6 O 0.1748 0.17804 0.08968 0.0
O7 O 0.17685 0.21151 0.09759 0.0
O8 O 0.19905 0.1812 0.13696 0.0
C9 C 0.18171 0.19983 0.08582 0.0
O10 O 0.10798 0.16765 0.10569 0.0
C11 C 0.20549 0.20101 0.14525 0.0
O12 O 0.12685 0.17607 0.13256 0.0
O13 O 0.19213 0.21038 0.14321 0.0
C14 C 0.87512 0.00763 0.13135 0.0
O15 O 0.87736 -0.00332 0.1175 0.0
Cd16 Cd 0.84535 0.97044 0.09732 0.0
O17 O 0.85429 0.0036 0.13649 0.0
Cd18 Cd 0.81183 0.97493 0.12673 0.0
C19 C 0.81806 0.92496 0.12792 0.0
O20 O 0.82221 0.99026 0.09571 0.0
O21 O 0.78504 0.96243 0.09896 0.0
O22 O 0.80505 0.0042 0.14294 0.0
C23 C 0.80131 0.97845 0.08879 0.0
O24 O 0.82731 0.93117 0.11193 0.0
C25 C 0.78392 0.98912 0.1485 0.0
O26 O 0.81251 0.93852 0.13708 0.0
O27 O 0.77604 0.96701 0.14461 0.0
C28 C 0.97276 0.8469 0.13003 0.0
O29 O 0.97957 0.85437 0.1137 0.0
Cd30 Cd 0.00502 0.84535 0.09558 0.0
O31 O 0.97998 0.83388 0.13814 0.0
Cd32 Cd 0.00829 0.81882 0.12958 0.0
C33 C 0.05426 0.8752 0.12326 0.0
O34 O 0.98952 0.80308 0.10012 0.0
O35 O 0.02482 0.80698 0.10278 0.0
O36 O 0.98286 0.78485 0.14919 0.0
C37 C 0.00511 0.79826 0.09388 0.0
O38 O 0.04544 0.87324 0.10718 0.0
C39 C -0.0003 0.78153 0.15511 0.0
O40 O 0.04331 0.85857 0.13515 0.0
O41 O 0.02107 0.79662 0.14999 0.0
C42 C 0.119 0.15045 0.85698 0.0
O43 O 0.11641 0.14143 0.87299 0.0
Cd44 Cd 0.14901 0.14673 0.89201 0.0
O45 O 0.14 0.16281 0.84989 0.0
Cd46 Cd 0.18192 0.17445 0.86002 0.0
C47 C 0.1682 0.11665 0.86422 0.0
O48 O 0.17777 0.18899 0.88977 0.0
O49 O 0.20874 0.1842 0.8875 0.0
O50 O 0.19251 0.20989 0.84178 0.0
C51 C 0.19784 0.19313 0.89628 0.0
O52 O 0.15995 0.11778 0.87995 0.0
C53 C 0.21295 0.21329 0.83656 0.0
O54 O 0.17601 0.13442 0.85312 0.0
O55 O 0.21841 0.19742 0.84121 0.0
C56 C 0.86717 0.99348 0.86071 0.0
O57 O 0.88139 0.0051 0.87389 0.0
Cd58 Cd 0.87791 0.03424 0.89227 0.0
O59 O 0.85088 -0.00173 0.8556 0.0
Cd60 Cd 0.83915 0.0288 0.86454 0.0
C61 C 0.8951 0.07741 0.85956 0.0
O62 O 0.83516 0.01571 0.89622 0.0
O63 O 0.82864 0.04535 0.89199 0.0
O64 O 0.80202 -0.00177 0.8506 0.0
C65 C 0.82743 0.029 0.90262 0.0
O66 O 0.8992 0.07208 0.87554 0.0
C67 C 0.79493 0.0126 0.84524 0.0
O68 O 0.87519 0.06366 0.85142 0.0
O69 O 0.80921 0.03502 0.84793 0.0
C70 C 0.01184 0.88116 0.86595 0.0
O71 O 0.00088 0.88226 0.88021 0.0
Cd72 Cd 0.97294 0.84741 0.89729 0.0
O73 O 0.00724 0.86073 0.85946 0.0
Cd74 Cd 0.97798 0.81798 0.86767 0.0
C75 C 0.92911 0.82449 0.86522 0.0
O76 O 0.99101 0.82248 0.89952 0.0
O77 O 0.958 0.78938 0.89365 0.0
O78 O 0.00861 0.81118 0.85426 0.0
C79 C 0.97563 0.8013 0.90451 0.0
O80 O 0.93388 0.83091 0.882 0.0
C81 C -0.00583 0.79037 0.8478 0.0
O82 O 0.94367 0.82094 0.85553 0.0
O83 O 0.9717 0.78304 0.84921 0.0
C84 C 0.79964 0.45595 0.4431 0.0
O85 O 0.7919 0.45658 0.42709 0.0
Cd86 Cd 0.79826 0.49296 0.41336 0.0
O87 O 0.81244 0.47547 0.45214 0.0
Cd88 Cd 0.82958 0.52 0.44716 0.0
C89 C 0.7723 0.50815 0.44878 0.0
O90 O 0.84101 0.51918 0.41593 0.0
O91 O 0.83882 0.55093 0.42252 0.0
O92 O 0.86486 0.5234 0.46232 0.0
C93 C 0.84603 0.54033 0.41157 0.0
O94 O 0.77133 0.50134 0.43212 0.0
C95 C 0.87086 0.54319 0.4705 0.0
O96 O 0.79154 0.5154 0.45818 0.0
O97 O 0.8568 0.55181 0.46862 0.0
C98 C 0.54332 0.33012 0.48296 0.0
O99 O 0.54465 0.31456 0.47284 0.0
Cd100 Cd 0.51196 0.28631 0.45374 0.0
O101 O 0.52323 0.3296 0.48516 0.0
Cd102 Cd 0.48079 0.30109 0.47579 0.0
C103 C 0.47817 0.24835 0.48709 0.0
O104 O 0.4927 0.30805 0.44349 0.0
O105 O 0.45465 0.28404 0.44821 0.0
O106 O 0.47647 0.33541 0.48482 0.0
C107 C 0.47155 0.29632 0.43692 0.0
O108 O 0.48797 0.25008 0.47149 0.0
C109 C 0.45453 0.32281 0.48976 0.0
O110 O 0.47568 0.26566 0.49324 0.0
O111 O 0.44525 0.29999 0.48925 0.0
C112 C 0.60373 0.15537 0.49141 0.0
O113 O 0.60444 0.15972 0.47427 0.0
Cd114 Cd 0.63634 0.16611 0.45399 0.0
O115 O 0.62034 0.15286 0.49908 0.0
Cd116 Cd 0.65676 0.15125 0.48807 0.0
C117 C 0.68565 0.21003 0.47831 0.0
O118 O 0.64032 0.13163 0.45854 0.0
O119 O 0.67895 0.1487 0.46112 0.0
O120 O 0.64114 0.11625 0.50775 0.0
C121 C 0.66013 0.13523 0.4518 0.0
O122 O 0.67246 0.20332 0.46388 0.0
C123 C 0.66151 0.11855 0.51188 0.0
O124 O 0.68272 0.19501 0.49101 0.0
O125 O 0.68018 0.1376 0.50632 0.0
C126 C 0.77163 0.46677 0.17507 0.0
O127 O 0.76705 0.45293 0.18887 0.0
Cd128 Cd 0.79697 0.45684 0.21046 0.0
O129 O 0.79341 0.48236 0.17108 0.0
Cd130 Cd 0.83311 0.49103 0.18423 0.0
C131 C 0.82478 0.43493 0.1841 0.0
O132 O 0.82337 0.49917 0.21499 0.0
O133 O 0.85606 0.49727 0.21327 0.0
O134 O 0.84628 0.53016 0.17066 0.0
C135 C 0.84308 0.50349 0.22238 0.0
O136 O 0.81481 0.43341 0.1996 0.0
C137 C 0.86762 0.53481 0.16701 0.0
O138 O 0.83097 0.45323 0.17378 0.0
O139 O 0.8724 0.518 0.16984 0.0
C140 C 0.537 0.32241 0.20589 0.0
O141 O 0.55258 0.3371 0.2173 0.0
Cd142 Cd 0.54879 0.36693 0.23489 0.0
O143 O 0.51823 0.3238 0.20197 0.0
Cd144 Cd 0.50226 0.35102 0.21049 0.0
C145 C 0.55366 0.40333 0.19944 0.0
O146 O 0.50713 0.34498 0.24271 0.0
O147 O 0.49067 0.36686 0.2378 0.0
O148 O 0.46464 0.31588 0.201 0.0
C149 C 0.49693 0.35598 0.24923 0.0
O150 O 0.56181 0.40197 0.21512 0.0
C151 C 0.45545 0.32785 0.19427 0.0
O152 O 0.53353 0.38626 0.19358 0.0
O153 O 0.46852 0.35075 0.19441 0.0
C154 C 0.69102 0.21059 0.21242 0.0
O155 O 0.68508 0.21535 0.22791 0.0
Cd156 Cd 0.65741 0.18533 0.24869 0.0
O157 O 0.68222 0.18875 0.20707 0.0
Cd158 Cd 0.65312 0.1478 0.21932 0.0
C159 C 0.60888 0.16195 0.2193 0.0
O160 O 0.66968 0.15565 0.2502 0.0
O161 O 0.63514 0.12309 0.24745 0.0
O162 O 0.68108 0.13812 0.2048 0.0
C163 C 0.65368 0.136 0.25726 0.0
O164 O 0.61827 0.17259 0.23446 0.0
C165 C 0.66544 0.11734 0.19901 0.0
O166 O 0.61869 0.15234 0.20982 0.0
O167 O 0.64335 0.11083 0.20186 0.0
C168 C 0.47732 0.78486 0.79133 0.0
O169 O 0.4654 0.78111 0.77648 0.0
Cd170 Cd 0.46825 0.81242 0.75701 0.0
O171 O 0.49154 0.80638 0.79689 0.0
Cd172 Cd 0.50316 0.84784 0.78572 0.0
C173 C 0.44562 0.83623 0.78788 0.0
O174 O 0.51086 0.83998 0.75461 0.0
O175 O 0.50996 0.87308 0.75765 0.0
O176 O 0.54105 0.85783 0.80025 0.0
C177 C 0.51523 0.85996 0.74776 0.0
O178 O 0.44306 0.82601 0.77231 0.0
C179 C 0.54554 0.87826 0.80642 0.0
O180 O 0.46545 0.84458 0.79668 0.0
O181 O 0.52972 0.88444 0.80349 0.0
C182 C 0.21454 0.69081 0.80954 0.0
O183 O 0.21476 0.68074 0.79449 0.0
Cd184 Cd 0.17945 0.65545 0.77698 0.0
O185 O 0.19454 0.68618 0.81694 0.0
Cd186 Cd 0.15146 0.65697 0.80887 0.0
C187 C 0.15815 0.60829 0.80566 0.0
O188 O 0.1552 0.67434 0.77867 0.0
O189 O 0.12324 0.63966 0.78192 0.0
O190 O 0.14311 0.68382 0.8271 0.0
C191 C 0.13456 0.65904 0.77269 0.0
O192 O 0.16308 0.61451 0.78886 0.0
C193 C 0.12257 0.66752 0.8328 0.0
O194 O 0.15571 0.62204 0.8171 0.0
O195 O 0.11606 0.64587 0.82833 0.0
C196 C 0.31812 0.53199 0.79796 0.0
O197 O 0.32874 0.54523 0.78408 0.0
Cd198 Cd 0.35622 0.54102 0.76419 0.0
O199 O 0.32309 0.51591 0.80332 0.0
Cd200 Cd 0.35326 0.50399 0.7936 0.0
C201 C 0.40207 0.56067 0.79487 0.0
O202 O 0.33832 0.49823 0.76224 0.0
O203 O 0.3676 0.49109 0.76621 0.0
O204 O 0.32526 0.46712 0.80951 0.0
C205 C 0.35129 0.49019 0.75571 0.0
O206 O 0.39535 0.5635 0.779 0.0
C207 C 0.34117 0.46202 0.81478 0.0
O208 O 0.3891 0.54145 0.80405 0.0
O209 O 0.36305 0.47729 0.81111 0.0
C210 C 0.44668 0.8217 0.51002 0.0
O211 O 0.44202 0.80967 0.52486 0.0
Cd212 Cd 0.4714 0.80915 0.54468 0.0
O213 O 0.4683 0.83416 0.50408 0.0
Cd214 Cd 0.50784 0.83974 0.51558 0.0
C215 C 0.49035 0.78083 0.51518 0.0
O216 O 0.50276 0.85034 0.54687 0.0
O217 O 0.53153 0.84239 0.54359 0.0
O218 O 0.52525 0.87884 0.5006 0.0
C219 C 0.52146 0.85117 0.55354 0.0
O220 O 0.48192 0.78071 0.53111 0.0
C221 C 0.54522 0.88006 0.49666 0.0
O222 O 0.49893 0.79963 0.5051 0.0
O223 O 0.54705 0.86155 0.50014 0.0
C224 C 0.19646 0.65565 0.5382 0.0
O225 O 0.2102 0.66792 0.5514 0.0
Cd226 Cd 0.20304 0.69445 0.57016 0.0
O227 O 0.17866 0.65826 0.53342 0.0
Cd228 Cd 0.16378 0.68614 0.54308 0.0
C229 C 0.21769 0.73731 0.53782 0.0
O230 O 0.16015 0.67405 0.57511 0.0
O231 O 0.15517 0.70456 0.57019 0.0
O232 O 0.12617 0.65394 0.53066 0.0
C233 C 0.15312 0.68812 0.58111 0.0
O234 O 0.22214 0.7329 0.55401 0.0
C235 C 0.11885 0.66761 0.52413 0.0
O236 O 0.19839 0.72213 0.52957 0.0
O237 O 0.13296 0.69025 0.52576 0.0
C238 C 0.3548 0.54412 0.52785 0.0
O239 O 0.34828 0.54572 0.5441 0.0
Cd240 Cd 0.31931 0.5127 0.56187 0.0
O241 O 0.34609 0.5237 0.51971 0.0
Cd242 Cd 0.31776 0.48019 0.52739 0.0
C243 C 0.27169 0.49135 0.53099 0.0
O244 O 0.33457 0.48611 0.5576 0.0
O245 O 0.30347 0.45095 0.55416 0.0
O246 O 0.34689 0.47556 0.50936 0.0
C247 C 0.32106 0.46539 0.56423 0.0
O248 O 0.2808 0.50049 0.54662 0.0
C249 C 0.33212 0.4548 0.50299 0.0
O250 O 0.28216 0.48371 0.52021 0.0
O251 O 0.30993 0.44624 0.50704 0.0
H252 H 0.42472 0.27939 0.1904 0.0
H253 H 0.38173 0.25903 0.18267 0.0
H254 H 0.38569 0.32817 0.17637 0.0
H255 H 0.4288 0.34876 0.18416 0.0
H256 H 0.34721 0.29634 0.19813 0.0
H257 H 0.38069 0.2963 0.13901 0.0
H258 H 0.40594 0.28927 0.11691 0.0
H259 H 0.36662 0.21326 0.12905 0.0
H260 H 0.34134 0.21988 0.15142 0.0
H261 H 0.23086 0.24867 0.15515 0.0
H262 H 0.27304 0.27109 0.16527 0.0
H263 H 0.27529 0.2046 0.16707 0.0
H264 H 0.23341 0.18223 0.15646 0.0
H265 H 0.31108 0.23694 0.14713 0.0
H266 H 0.27795 0.23677 0.20666 0.0
H267 H 0.25282 0.24366 0.22898 0.0
H268 H 0.29125 0.31957 0.21642 0.0
H269 H 0.31641 0.31309 0.19384 0.0
C270 C 0.41652 0.29029 0.18717 0.0
C271 C 0.43012 0.31567 0.18786 0.0
C272 C 0.39197 0.27863 0.18275 0.0
C273 C 0.38061 0.29213 0.17891 0.0
C274 C 0.39418 0.31748 0.17932 0.0
C275 C 0.41881 0.32918 0.18366 0.0
C276 C 0.35437 0.27964 0.17499 0.0
C277 C 0.33927 0.2836 0.18682 0.0
C278 C 0.34411 0.26267 0.16049 0.0
C279 C 0.35926 0.25862 0.14702 0.0
C280 C 0.37755 0.27811 0.13708 0.0
C281 C 0.39185 0.2742 0.12448 0.0
C282 C 0.38792 0.25084 0.12161 0.0
C283 C 0.36965 0.23134 0.1313 0.0
C284 C 0.35532 0.23516 0.14393 0.0
C285 C 0.24019 0.23877 0.15813 0.0
C286 C 0.22895 0.21375 0.15489 0.0
C287 C 0.26429 0.2516 0.16394 0.0
C288 C 0.27733 0.23952 0.16689 0.0
C289 C 0.26561 0.2143 0.16475 0.0
C290 C 0.24166 0.20154 0.15876 0.0
C291 C 0.30372 0.25325 0.17047 0.0
C292 C 0.31892 0.24964 0.15848 0.0
C293 C 0.31401 0.27046 0.18485 0.0
C294 C 0.2989 0.2744 0.19842 0.0
C295 C 0.28091 0.2549 0.20854 0.0
C296 C 0.26668 0.25874 0.22126 0.0
C297 C 0.27039 0.28202 0.22408 0.0
C298 C 0.28838 0.30153 0.21421 0.0
C299 C 0.30264 0.29779 0.20146 0.0
H300 H 0.25937 0.28496 0.23394 0.0
H301 H 0.399 0.24785 0.11185 0.0
H302 H 0.79763 0.03443 0.16078 0.0
H303 H 0.77159 0.04958 0.17177 0.0
H304 H 0.70938 0.97797 0.16735 0.0
H305 H 0.73546 0.9626 0.15611 0.0
H306 H 0.70172 0.01175 0.15069 0.0
H307 H 0.72824 0.00204 0.20942 0.0
H308 H 0.75713 0.00471 0.23318 0.0
H309 H 0.79396 0.08227 0.23031 0.0
H310 H 0.76552 0.08009 0.20633 0.0
H311 H 0.63751 0.06873 0.19182 0.0
H312 H 0.65218 0.04071 0.18428 0.0
H313 H 0.72527 0.10072 0.18171 0.0
H314 H 0.71092 0.12863 0.18918 0.0
H315 H 0.7198 0.0644 0.20565 0.0
H316 H 0.69664 0.0728 0.14329 0.0
H317 H 0.66772 0.06976 0.11939 0.0
H318 H 0.62376 0.9936 0.12983 0.0
H319 H 0.65229 -0.00373 0.15397 0.0
C320 C 0.77847 0.02179 0.16242 0.0
C321 C 0.76858 -0.00266 0.15756 0.0
C322 C 0.76361 0.03046 0.16878 0.0
C323 C 0.73857 0.01485 0.1705 0.0
C324 C 0.72867 0.99027 0.16616 0.0
C325 C 0.7436 0.98152 0.15984 0.0
C326 C 0.72289 0.02492 0.17558 0.0
C327 C 0.70523 0.02279 0.16294 0.0
C328 C 0.72761 0.03942 0.1915 0.0
C329 C 0.74477 0.04088 0.20599 0.0
C330 C 0.74259 0.01967 0.21376 0.0
C331 C 0.75888 0.0211 0.22728 0.0
C332 C 0.77738 0.04364 0.23324 0.0
C333 C 0.77961 0.06481 0.22569 0.0
C334 C 0.76338 0.06349 0.21215 0.0
C335 C 0.65663 0.07595 0.18925 0.0
C336 C 0.67311 0.10083 0.19125 0.0
C337 C 0.66496 0.05994 0.185 0.0
C338 C 0.68982 0.06869 0.18267 0.0
C339 C 0.70605 0.09363 0.18367 0.0
C340 C 0.69779 0.10955 0.18787 0.0
C341 C 0.6995 0.05209 0.18035 0.0
C342 C 0.71593 0.05292 0.19361 0.0
C343 C 0.69355 0.03635 0.16508 0.0
C344 C 0.67641 0.03479 0.1506 0.0
C345 C 0.68068 0.05546 0.14062 0.0
C346 C 0.66439 0.05379 0.127 0.0
C347 C 0.64387 0.03152 0.12314 0.0
C348 C 0.63964 0.01085 0.13286 0.0
C349 C 0.65586 0.01243 0.14651 0.0
H350 H 0.63129 0.03027 0.11259 0.0
H351 H 0.78998 0.0447 0.24371 0.0
H352 H 0.86194 0.57379 0.16151 0.0
H353 H 0.89339 0.61617 0.16315 0.0
H354 H 0.94813 0.59542 0.16586 0.0
H355 H 0.91657 0.55261 0.1645 0.0
H356 H 0.92602 0.63306 0.19542 0.0
H357 H -0.00082 0.6486 0.1437 0.0
H358 H 0.00451 0.63188 0.11449 0.0
H359 H 0.93141 0.60991 0.09894 0.0
H360 H 0.92579 0.62678 0.12792 0.0
H361 H 0.02934 0.76256 0.16074 0.0
H362 H 0.01632 0.72058 0.16895 0.0
H363 H 0.94394 0.70745 0.17855 0.0
H364 H 0.95686 0.74916 0.17068 0.0
H365 H 0.98552 0.68498 0.14816 0.0
H366 H 0.91141 0.66076 0.20551 0.0
H367 H 0.90733 0.67725 0.23517 0.0
H368 H 0.98462 0.71737 0.24102 0.0
H369 H 0.98921 0.70081 0.21155 0.0
C370 C 0.88067 0.57815 0.16202 0.0
C371 C 0.88677 0.55985 0.16308 0.0
C372 C 0.89859 0.60237 0.16308 0.0
C373 C 0.92292 0.60875 0.16494 0.0
C374 C 0.92936 0.59071 0.16454 0.0
C375 C 0.91134 0.56633 0.16363 0.0
C376 C 0.94101 0.63424 0.16861 0.0
C377 C 0.9391 0.64456 0.18516 0.0
C378 C 0.95886 0.6487 0.15561 0.0
C379 C 0.96198 0.6386 0.13809 0.0
C380 C 0.98427 0.6402 0.13403 0.0
C381 C 0.98734 0.63072 0.11752 0.0
C382 C 0.96827 0.61973 0.10491 0.0
C383 C 0.94612 0.6183 0.10876 0.0
C384 C 0.94297 0.62777 0.12525 0.0
C385 C 0.01089 0.75094 0.1653 0.0
C386 C -0.006 0.759 0.16484 0.0
C387 C 0.00346 0.72694 0.1699 0.0
C388 C 0.97916 0.71083 0.17432 0.0
C389 C 0.96287 0.71955 0.17546 0.0
C390 C 0.97024 0.74343 0.17083 0.0
C391 C 0.96959 0.68435 0.1746 0.0
C392 C 0.97309 0.67363 0.15881 0.0
C393 C 0.95333 0.66947 0.18844 0.0
C394 C 0.95066 0.67957 0.20621 0.0
C395 C 0.92756 0.67297 0.21315 0.0
C396 C 0.92515 0.68236 0.22994 0.0
C397 C 0.9457 0.69837 0.23996 0.0
C398 C 0.96871 0.70501 0.23322 0.0
C399 C 0.97123 0.69566 0.21645 0.0
H400 H 0.94379 0.70561 0.25295 0.0
H401 H 0.97069 0.6124 0.09213 0.0
H402 H 0.36946 0.44129 0.81882 0.0
H403 H 0.35529 0.39841 0.82447 0.0
H404 H 0.28279 0.38547 0.83274 0.0
H405 H 0.29675 0.42815 0.8272 0.0
H406 H 0.29317 0.35783 0.85569 0.0
H407 H 0.30061 0.37963 0.79069 0.0
H408 H 0.32331 0.40241 0.76318 0.0
H409 H 0.37116 0.37363 0.76881 0.0
H410 H 0.34893 0.35095 0.79653 0.0
H411 H 0.20493 0.24867 0.82378 0.0
H412 H 0.23534 0.29115 0.81998 0.0
H413 H 0.29208 0.27403 0.82808 0.0
H414 H 0.26164 0.23122 0.83212 0.0
H415 H 0.2981 0.31584 0.79952 0.0
H416 H 0.28473 0.28878 0.86319 0.0
H417 H 0.25838 0.26497 0.889 0.0
H418 H 0.21932 0.30346 0.88474 0.0
H419 H 0.24513 0.32715 0.85865 0.0
C420 C 0.35064 0.42943 0.82237 0.0
C421 C 0.33411 0.43795 0.82234 0.0
C422 C 0.34258 0.40495 0.82551 0.0
C423 C 0.31795 0.38878 0.8287 0.0
C424 C 0.30187 0.39768 0.83024 0.0
C425 C 0.30986 0.42205 0.82702 0.0
C426 C 0.30815 0.36234 0.82839 0.0
C427 C 0.29451 0.34867 0.84351 0.0
C428 C 0.31011 0.35043 0.81253 0.0
C429 C 0.32333 0.36387 0.7958 0.0
C430 C 0.31609 0.37831 0.78613 0.0
C431 C 0.32885 0.39118 0.7705 0.0
C432 C 0.34871 0.38953 0.76429 0.0
C433 C 0.35581 0.37494 0.77367 0.0
C434 C 0.34314 0.36208 0.78934 0.0
C435 C 0.22386 0.25374 0.82415 0.0
C436 C 0.23092 0.23672 0.82859 0.0
C437 C 0.24119 0.27801 0.82196 0.0
C438 C 0.26579 0.28558 0.82407 0.0
C439 C 0.2731 0.26837 0.82646 0.0
C440 C 0.25569 0.24397 0.82874 0.0
C441 C 0.28296 0.31154 0.82669 0.0
C442 C 0.29768 0.32506 0.81197 0.0
C443 C 0.28191 0.32337 0.84288 0.0
C444 C 0.26676 0.30961 0.85888 0.0
C445 C 0.2704 0.29203 0.86767 0.0
C446 C 0.25558 0.27857 0.88235 0.0
C447 C 0.23717 0.28267 0.88849 0.0
C448 C 0.23359 0.30029 0.87997 0.0
C449 C 0.24832 0.31376 0.86524 0.0
H450 H 0.22572 0.27224 0.89986 0.0
H451 H 0.35857 0.3995 0.75218 0.0
H452 H 0.77059 0.03746 0.8405 0.0
H453 H 0.7269 0.01979 0.83574 0.0
H454 H 0.71945 0.94903 0.83044 0.0
H455 H 0.7628 0.96636 0.83534 0.0
H456 H 0.69303 0.99002 0.80836 0.0
H457 H 0.67359 0.91072 0.85735 0.0
H458 H 0.69315 0.90271 0.88363 0.0
H459 H 0.72947 0.97797 0.8983 0.0
H460 H 0.70984 0.98638 0.87227 0.0
H461 H 0.58013 0.8677 0.8168 0.0
H462 H 0.62146 0.89602 0.82622 0.0
H463 H 0.60587 0.95452 0.82491 0.0
H464 H 0.56427 0.92614 0.81517 0.0
H465 H 0.64318 0.92691 0.85433 0.0
H466 H 0.65698 0.00422 0.80669 0.0
H467 H 0.639 0.01126 0.77887 0.0
H468 H 0.61524 0.93881 0.76042 0.0
H469 H 0.63334 0.93148 0.78799 0.0
C470 C 0.7597 0.01822 0.8379 0.0
C471 C 0.77001 0.00321 0.83853 0.0
C472 C 0.73478 0.00819 0.83522 0.0
C473 C 0.72 0.98309 0.8332 0.0
C474 C 0.73057 0.9684 0.83237 0.0
C475 C 0.75534 0.97835 0.83509 0.0
C476 C 0.69338 0.97174 0.8332 0.0
C477 C 0.68205 0.97663 0.81862 0.0
C478 C 0.67921 0.95421 0.8466 0.0
C479 C 0.69034 0.94919 0.86277 0.0
C480 C 0.68558 0.92553 0.86627 0.0
C481 C 0.69672 0.92093 0.8811 0.0
C482 C 0.71261 0.93983 0.89258 0.0
C483 C 0.71723 0.96336 0.88935 0.0
C484 C 0.70611 0.96805 0.87455 0.0
C485 C 0.58533 0.88651 0.81878 0.0
C486 C 0.56907 0.89477 0.81503 0.0
C487 C 0.60895 0.90267 0.82424 0.0
C488 C 0.61679 0.9274 0.826 0.0
C489 C 0.6002 0.93553 0.82339 0.0
C490 C 0.57646 0.9193 0.81792 0.0
C491 C 0.6428 0.94452 0.82909 0.0
C492 C 0.65407 0.94078 0.84433 0.0
C493 C 0.6569 0.96298 0.81625 0.0
C494 C 0.64621 0.96723 0.79951 0.0
C495 C 0.64795 0.98983 0.79667 0.0
C496 C 0.63775 0.99387 0.78095 0.0
C497 C 0.6259 0.97546 0.76792 0.0
C498 C 0.62433 0.95302 0.77055 0.0
C499 C 0.63454 0.94891 0.78623 0.0
H500 H 0.61799 0.97861 0.75578 0.0
H501 H 0.72135 0.93625 0.90395 0.0
H502 H 0.0737 0.63889 0.83708 0.0
H503 H 0.04498 0.65296 0.84312 0.0
H504 H 0.10435 0.72497 0.85322 0.0
H505 H 0.1331 0.71111 0.84723 0.0
H506 H 0.06411 0.71378 0.875 0.0
H507 H 0.08425 0.70969 0.81074 0.0
H508 H 0.08701 0.68833 0.78328 0.0
H509 H 0.01027 0.63963 0.78512 0.0
H510 H 0.00715 0.66051 0.81279 0.0
H511 H 0.04106 0.80193 0.84366 0.0
H512 H 0.05637 0.77377 0.84281 0.0
H513 H 0.98347 0.71372 0.83897 0.0
H514 H 0.9678 0.74189 0.84 0.0
H515 H 0.02201 0.7111 0.81661 0.0
H516 H 0.00195 0.72181 0.87824 0.0
H517 H 0.00103 0.74615 0.90434 0.0
H518 H 0.07862 0.78399 0.90699 0.0
H519 H 0.08005 0.7602 0.88066 0.0
C520 C 0.08062 0.65752 0.84122 0.0
C521 C 0.10564 0.67403 0.84139 0.0
C522 C 0.06419 0.66553 0.8446 0.0
C523 C 0.07261 0.69007 0.84826 0.0
C524 C 0.09752 0.70597 0.85034 0.0
C525 C 0.11393 0.69804 0.84685 0.0
C526 C 0.05616 0.70008 0.8472 0.0
C527 C 0.05474 0.71305 0.86231 0.0
C528 C 0.04369 0.69882 0.83068 0.0
C529 C 0.04552 0.68644 0.81395 0.0
C530 C 0.068 0.69431 0.80536 0.0
C531 C 0.06963 0.68231 0.78976 0.0
C532 C 0.04884 0.66259 0.7825 0.0
C533 C 0.02637 0.65487 0.79079 0.0
C534 C 0.02466 0.66677 0.80644 0.0
C535 C 0.02825 0.7828 0.84214 0.0
C536 C 0.00321 0.77409 0.84216 0.0
C537 C 0.03704 0.76675 0.84173 0.0
C538 C 0.02097 0.74175 0.84123 0.0
C539 C -0.00393 0.733 0.83949 0.0
C540 C 0.98719 0.74911 0.84002 0.0
C541 C 0.0304 0.72512 0.84428 0.0
C542 C 0.03065 0.7111 0.82951 0.0
C543 C 0.04186 0.72549 0.8611 0.0
C544 C 0.0411 0.73934 0.87735 0.0
C545 C 0.01883 0.73544 0.88429 0.0
C546 C 0.01822 0.74914 0.89913 0.0
C547 C 0.03976 0.76671 0.90723 0.0
C548 C 0.06195 0.77044 0.90064 0.0
C549 C 0.06267 0.75682 0.88577 0.0
H550 H 0.03924 0.77735 0.91868 0.0
H551 H 0.05013 0.65332 0.77041 0.0
H552 H 0.90119 0.52655 0.47993 0.0
H553 H 0.94317 0.55044 0.49 0.0
H554 H 0.93658 0.61456 0.49121 0.0
H555 H 0.89429 0.59059 0.48144 0.0
H556 H 0.97774 0.58582 0.47003 0.0
H557 H 0.97958 0.65557 0.52166 0.0
H558 H 0.95349 0.65889 0.54525 0.0
H559 H 0.91746 0.5821 0.55399 0.0
H560 H 0.94353 0.57838 0.53065 0.0
H561 H 0.09447 0.69149 0.51553 0.0
H562 H 0.05213 0.67346 0.50572 0.0
H563 H 0.04551 0.60276 0.50587 0.0
H564 H 0.08759 0.62054 0.51558 0.0
H565 H 0.01164 0.6393 0.52464 0.0
H566 H 0.00793 0.56919 0.4716 0.0
H567 H 0.03432 0.56582 0.44833 0.0
H568 H 0.07425 0.64313 0.44268 0.0
H569 H 0.04791 0.64695 0.4657 0.0
C570 C 0.9085 0.54564 0.48272 0.0
C571 C 0.89452 0.55674 0.4798 0.0
C572 C 0.93252 0.55928 0.48839 0.0
C573 C 0.94304 0.58429 0.49123 0.0
C574 C 0.92877 0.59525 0.48925 0.0
C575 C 0.90461 0.58153 0.48367 0.0
C576 C 0.96937 0.59897 0.49476 0.0
C577 C 0.98513 0.5973 0.48209 0.0
C578 C 0.97902 0.61468 0.51008 0.0
C579 C 0.96332 0.61668 0.52423 0.0
C580 C 0.96612 0.63941 0.52865 0.0
C581 C 0.95134 0.64136 0.54197 0.0
C582 C 0.93376 0.62071 0.55106 0.0
C583 C 0.931 0.59807 0.54688 0.0
C584 C 0.94575 0.59603 0.53358 0.0
C585 C 0.08407 0.67216 0.51319 0.0
C586 C 0.09432 0.65741 0.5163 0.0
C587 C 0.05989 0.6619 0.50771 0.0
C588 C 0.04578 0.63683 0.50501 0.0
C589 C 0.05619 0.62219 0.50768 0.0
C590 C 0.08022 0.63238 0.51326 0.0
C591 C 0.01986 0.62556 0.50018 0.0
C592 C 0.00421 0.62796 0.51251 0.0
C593 C 0.01025 0.61047 0.48455 0.0
C594 C 0.02604 0.60835 0.47051 0.0
C595 C 0.02227 0.58546 0.46533 0.0
C596 C 0.03724 0.58348 0.45219 0.0
C597 C 0.05599 0.60425 0.44407 0.0
C598 C 0.05978 0.62706 0.44903 0.0
C599 C 0.04485 0.62914 0.46215 0.0
H600 H 0.06756 0.60268 0.43391 0.0
H601 H 0.92233 0.62225 0.56137 0.0
H602 H 0.30664 0.40642 0.49476 0.0
H603 H 0.3242 0.38043 0.48929 0.0
H604 H 0.3954 0.44339 0.48684 0.0
H605 H 0.37817 0.46945 0.4921 0.0
H606 H 0.36222 0.37975 0.46288 0.0
H607 H 0.42424 0.4333 0.52309 0.0
H608 H 0.42459 0.45784 0.54955 0.0
H609 H 0.34707 0.41616 0.55264 0.0
H610 H 0.34633 0.39109 0.52646 0.0
H611 H 0.47043 0.37041 0.4967 0.0
H612 H 0.44601 0.39017 0.49768 0.0
H613 H 0.38103 0.32093 0.4916 0.0
H614 H 0.4053 0.30095 0.49081 0.0
H615 H 0.40746 0.3845 0.52002 0.0
H616 H 0.34602 0.33168 0.45828 0.0
H617 H 0.34683 0.30878 0.43109 0.0
H618 H 0.42446 0.34986 0.43052 0.0
H619 H 0.4241 0.37355 0.45724 0.0
C620 C 0.32592 0.41477 0.49233 0.0
C621 C 0.34111 0.43992 0.49423 0.0
C622 C 0.33589 0.3999 0.48919 0.0
C623 C 0.36105 0.41008 0.488 0.0
C624 C 0.37592 0.43529 0.48787 0.0
C625 C 0.36603 0.45012 0.49092 0.0
C626 C 0.37223 0.39482 0.49017 0.0
C627 C 0.37175 0.38036 0.47545 0.0
C628 C 0.38492 0.39607 0.50652 0.0
C629 C 0.38524 0.41052 0.52268 0.0
C630 C 0.4073 0.4293 0.52949 0.0
C631 C 0.40756 0.4433 0.54444 0.0
C632 C 0.38586 0.43862 0.55273 0.0
C633 C 0.36386 0.41983 0.54616 0.0
C634 C 0.36351 0.40573 0.53126 0.0
C635 C 0.45092 0.35935 0.49595 0.0
C636 C 0.43976 0.33417 0.49359 0.0
C637 C 0.43701 0.37065 0.49651 0.0
C638 C 0.41182 0.35699 0.49444 0.0
C639 C 0.4005 0.33174 0.49303 0.0
C640 C 0.41438 0.32037 0.4927 0.0
C641 C 0.39764 0.36942 0.49269 0.0
C642 C 0.39763 0.38349 0.50752 0.0
C643 C 0.38458 0.36779 0.47642 0.0
C644 C 0.38501 0.35412 0.45997 0.0
C645 C 0.36325 0.33592 0.45227 0.0
C646 C 0.36364 0.32285 0.4369 0.0
C647 C 0.38569 0.32785 0.42909 0.0
C648 C 0.4074 0.34603 0.43656 0.0
C649 C 0.4071 0.35928 0.45182 0.0
H650 H 0.38597 0.31766 0.41723 0.0
H651 H 0.38609 0.44952 0.56426 0.0
H652 H 0.69697 0.10754 0.50523 0.0
H653 H 0.69046 0.06637 0.50438 0.0
H654 H 0.62165 0.04018 0.53152 0.0
H655 H 0.62797 0.08112 0.53228 0.0
H656 H 0.64138 0.01138 0.539 0.0
H657 H 0.62515 0.04913 0.48637 0.0
H658 H 0.63603 0.07923 0.46151 0.0
H659 H 0.68656 0.05973 0.43966 0.0
H660 H 0.67626 0.0298 0.46462 0.0
H661 H 0.54572 0.91933 0.48156 0.0
H662 H 0.5791 0.96095 0.48334 0.0
H663 H 0.62592 0.93576 0.50433 0.0
H664 H 0.59264 0.89394 0.5023 0.0
H665 H 0.62783 0.99003 0.47249 0.0
H666 H 0.64988 0.97023 0.54445 0.0
H667 H 0.63186 0.93868 0.5685 0.0
H668 H 0.56061 0.92126 0.55106 0.0
H669 H 0.57824 0.95295 0.52714 0.0
C670 C 0.68106 0.09321 0.51189 0.0
C671 C 0.66272 0.09736 0.51851 0.0
C672 C 0.67731 0.06966 0.51128 0.0
C673 C 0.65532 0.05022 0.51746 0.0
C674 C 0.63869 0.05492 0.52656 0.0
C675 C 0.6423 0.07835 0.527 0.0
C676 C 0.64714 0.02521 0.51124 0.0
C677 C 0.63907 0.00673 0.52445 0.0
C678 C 0.64362 0.01912 0.49223 0.0
C679 C 0.65026 0.03756 0.47753 0.0
C680 C 0.63881 0.0515 0.4764 0.0
C681 C 0.64483 0.06848 0.46227 0.0
C682 C 0.66205 0.07146 0.44905 0.0
C683 C 0.67331 0.05748 0.44996 0.0
C684 C 0.66742 0.04054 0.46411 0.0
C685 C 0.56338 0.92258 0.48583 0.0
C686 C 0.56654 0.90349 0.492 0.0
C687 C 0.58246 0.94636 0.48681 0.0
C688 C 0.6048 0.95136 0.49425 0.0
C689 C 0.60874 0.93219 0.49864 0.0
C690 C 0.58972 0.90833 0.49739 0.0
C691 C 0.62198 0.97631 0.50023 0.0
C692 C 0.63144 0.99473 0.48699 0.0
C693 C 0.62616 0.98233 0.5192 0.0
C694 C 0.61539 0.96367 0.53384 0.0
C695 C 0.63039 0.95969 0.54579 0.0
C696 C 0.62023 0.94179 0.55939 0.0
C697 C 0.5951 0.92786 0.56121 0.0
C698 C 0.58007 0.93196 0.54956 0.0
C699 C 0.59013 0.94988 0.53598 0.0
H700 H 0.58727 0.91397 0.57171 0.0
H701 H 0.6666 0.0845 0.43805 0.0
H702 H 0.07719 0.18566 0.10896 0.0
H703 H 0.0351 0.16886 0.11859 0.0
H704 H 0.04797 0.13376 0.16461 0.0
H705 H 0.09027 0.15195 0.15575 0.0
H706 H 0.00825 0.1251 0.11465 0.0
H707 H 0.00276 0.10846 0.19466 0.0
H708 H 0.02169 0.13174 0.22294 0.0
H709 H 0.04054 0.1979 0.19457 0.0
H710 H 0.0214 0.17503 0.16617 0.0
H711 H 0.91956 0.01174 0.13225 0.0
H712 H 0.95783 0.04823 0.13898 0.0
H713 H 0.91948 0.0848 0.15575 0.0
H714 H 0.88082 0.04798 0.14932 0.0
H715 H 0.96657 0.10016 0.17514 0.0
H716 H 0.93255 0.09274 0.1149 0.0
H717 H 0.9121 0.07064 0.08652 0.0
H718 H 0.97116 0.05838 0.07498 0.0
H719 H 0.99177 0.08006 0.10348 0.0
C720 C 0.07124 0.17535 0.12165 0.0
C721 C 0.08683 0.16989 0.13153 0.0
C722 C 0.04716 0.16565 0.12713 0.0
C723 C 0.03809 0.14967 0.14219 0.0
C724 C 0.05437 0.14626 0.15312 0.0
C725 C 0.07865 0.1566 0.14798 0.0
C726 C 0.01158 0.13269 0.1439 0.0
C727 C -0.00081 0.12019 0.12791 0.0
C728 C -0.00066 0.12612 0.1611 0.0
C729 C 0.01071 0.13999 0.17822 0.0
C730 C 0.01078 0.12796 0.19446 0.0
C731 C 0.0216 0.14109 0.21052 0.0
C732 C 0.03235 0.16628 0.21054 0.0
C733 C 0.03227 0.17839 0.19451 0.0
C734 C 0.02148 0.16535 0.17842 0.0
C735 C 0.9192 0.02728 0.13792 0.0
C736 C 0.89727 0.0272 0.13993 0.0
C737 C 0.94107 0.04808 0.14184 0.0
C738 C 0.94142 0.06927 0.14755 0.0
C739 C 0.91952 0.06859 0.15136 0.0
C740 C 0.89749 0.04757 0.14762 0.0
C741 C 0.9643 0.09258 0.14608 0.0
C742 C 0.97579 0.10591 0.16198 0.0
C743 C 0.97568 0.1005 0.12876 0.0
C744 C 0.96363 0.08791 0.11137 0.0
C745 C 0.94111 0.08521 0.10636 0.0
C746 C 0.92949 0.07277 0.09026 0.0
C747 C 0.94031 0.06309 0.07897 0.0
C748 C 0.9628 0.06589 0.08374 0.0
C749 C 0.97447 0.07828 0.09986 0.0
H750 H 0.93129 0.05345 0.06651 0.0
H751 H 0.04072 0.17642 0.22299 0.0
H752 H 0.82159 0.91842 0.16488 0.0
H753 H 0.83952 0.89562 0.17797 0.0
H754 H 0.83637 0.86431 0.12457 0.0
H755 H 0.81829 0.88671 0.11152 0.0
H756 H 0.83643 0.83507 0.15194 0.0
H757 H 0.88238 0.92084 0.13374 0.0
H758 H 0.89187 0.96327 0.13631 0.0
H759 H 0.90742 0.96334 0.19396 0.0
H760 H 0.89767 0.92074 0.19174 0.0
H761 H 0.96348 0.88256 0.12053 0.0
H762 H 0.93175 0.88942 0.13222 0.0
H763 H 0.91136 0.83204 0.17191 0.0
H764 H 0.94325 0.82475 0.15994 0.0
H765 H 0.92014 0.9016 0.16383 0.0
H766 H 0.84832 0.80342 0.17483 0.0
H767 H 0.8393 0.7622 0.16646 0.0
H768 H 0.8775 0.78891 0.11532 0.0
H769 H 0.8865 0.8302 0.12334 0.0
C770 C 0.82356 0.90573 0.15615 0.0
C771 C 0.8192 0.90484 0.13706 0.0
C772 C 0.83389 0.89275 0.16365 0.0
C773 C 0.83992 0.87884 0.15212 0.0
C774 C 0.83208 0.87509 0.13371 0.0
C775 C 0.82184 0.88804 0.12622 0.0
C776 C 0.85898 0.87314 0.15745 0.0
C777 C 0.85462 0.84945 0.15511 0.0
C778 C 0.88281 0.89196 0.16131 0.0
C779 C 0.88904 0.91761 0.16263 0.0
C780 C 0.88774 0.92991 0.14697 0.0
C781 C 0.89315 0.95396 0.14836 0.0
C782 C 0.90018 0.96598 0.1653 0.0
C783 C 0.9019 0.95398 0.18086 0.0
C784 C 0.89642 0.92989 0.17955 0.0
C785 C 0.95244 0.87149 0.13187 0.0
C786 C 0.95561 0.85283 0.13911 0.0
C787 C 0.93441 0.8756 0.13867 0.0
C788 C 0.91902 0.86112 0.15284 0.0
C789 C 0.92292 0.84329 0.16086 0.0
C790 C 0.94115 0.8392 0.15405 0.0
C791 C 0.89778 0.86369 0.1576 0.0
C792 C 0.90177 0.88688 0.16179 0.0
C793 C 0.87378 0.84456 0.15485 0.0
C794 C 0.86834 0.81986 0.1498 0.0
C795 C 0.85476 0.80045 0.16181 0.0
C796 C 0.84965 0.77709 0.15712 0.0
C797 C 0.85791 0.77296 0.14041 0.0
C798 C 0.8712 0.79215 0.1283 0.0
C799 C 0.87632 0.81553 0.13291 0.0
H800 H 0.85396 0.75487 0.13682 0.0
H801 H 0.90435 0.9846 0.16636 0.0
H802 H 0.15673 0.10589 0.14503 0.0
H803 H 0.14973 0.06597 0.15454 0.0
H804 H 0.09212 0.03211 0.11461 0.0
H805 H 0.09877 0.07155 0.10519 0.0
H806 H 0.07985 0.00756 0.14673 0.0
H807 H 0.149 0.04361 0.1047 0.0
H808 H 0.1901 0.07497 0.09549 0.0
H809 H 0.2192 0.0621 0.14485 0.0
H810 H 0.17818 0.03084 0.15444 0.0
H811 H 0.08738 0.91097 0.10119 0.0
H812 H 0.11042 0.95376 0.10916 0.0
H813 H 0.08912 0.9365 0.16607 0.0
H814 H 0.06603 0.89352 0.15822 0.0
H815 H 0.14466 0.98795 0.13404 0.0
H816 H 0.0626 0.97033 0.17652 0.0
H817 H 0.02035 0.93813 0.18186 0.0
H818 H 0.01554 0.91349 0.12606 0.0
H819 H 0.05759 0.94578 0.12034 0.0
C820 C 0.14239 0.08989 0.13844 0.0
C821 C 0.12842 0.0919 0.12425 0.0
C822 C 0.13847 0.06714 0.14387 0.0
C823 C 0.12049 0.04612 0.13521 0.0
C824 C 0.10602 0.04809 0.12153 0.0
C825 C 0.10997 0.07071 0.11607 0.0
C826 C 0.1173 0.02196 0.13935 0.0
C827 C 0.09418 0.00339 0.14438 0.0
C828 C 0.13595 0.01647 0.13619 0.0
C829 C 0.16054 0.03515 0.13039 0.0
C830 C 0.16415 0.04761 0.11364 0.0
C831 C 0.18743 0.06534 0.10835 0.0
C832 C 0.20724 0.07059 0.11961 0.0
C833 C 0.20383 0.05806 0.13617 0.0
C834 C 0.18058 0.04034 0.14154 0.0
C835 C 0.0884 0.91616 0.11553 0.0
C836 C 0.07442 0.89898 0.12899 0.0
C837 C 0.10172 0.94064 0.12009 0.0
C838 C 0.10103 0.94826 0.13812 0.0
C839 C 0.0897 0.93091 0.15205 0.0
C840 C 0.07651 0.90635 0.14752 0.0
C841 C 0.10716 0.97363 0.14108 0.0
C842 C 0.13069 0.99235 0.13727 0.0
C843 C 0.08878 0.97927 0.14498 0.0
C844 C 0.06329 0.96023 0.14811 0.0
C845 C 0.05247 0.95808 0.1654 0.0
C846 C 0.02857 0.93983 0.16848 0.0
C847 C 0.0153 0.92372 0.15433 0.0
C848 C 0.02585 0.92593 0.13702 0.0
C849 C 0.04971 0.9442 0.13385 0.0
H850 H -0.00316 0.90957 0.15676 0.0
H851 H 0.22525 0.08431 0.11549 0.0
H852 H 0.01867 0.92642 0.87087 0.0
H853 H 0.05197 0.96445 0.85961 0.0
H854 H 0.08148 0.92577 0.83083 0.0
H855 H 0.04791 0.8873 0.84211 0.0
H856 H 0.11514 0.96208 0.8523 0.0
H857 H 0.06087 0.95522 0.80562 0.0
H858 H 0.02244 0.94721 0.79144 0.0
H859 H 0.02479 0.00599 0.82205 0.0
H860 H 0.06298 0.01408 0.83671 0.0
H861 H 0.16734 0.10162 0.8287 0.0
H862 H 0.15044 0.0597 0.8184 0.0
H863 H 0.14321 0.03644 0.87508 0.0
H864 H 0.16013 0.07807 0.8854 0.0
H865 H 0.1051 0.02838 0.82617 0.0
H866 H 0.14022 0.98384 0.87967 0.0
H867 H 0.17924 0.99216 0.89287 0.0
H868 H 0.21668 0.03626 0.84607 0.0
H869 H 0.17787 0.02793 0.83242 0.0
C870 C 0.03203 0.9259 0.86195 0.0
C871 C 0.03073 0.90386 0.85746 0.0
C872 C 0.05098 0.94767 0.85539 0.0
C873 C 0.06907 0.94792 0.84423 0.0
C874 C 0.06759 0.92593 0.83933 0.0
C875 C 0.0484 0.90401 0.84575 0.0
C876 C 0.09049 0.97143 0.83941 0.0
C877 C 0.11313 0.97656 0.84632 0.0
C878 C 0.08797 0.99006 0.83099 0.0
C879 C 0.06486 0.98524 0.8223 0.0
C880 C 0.05313 0.96634 0.80945 0.0
C881 C 0.03137 0.96179 0.80131 0.0
C882 C 0.02118 0.97608 0.80585 0.0
C883 C 0.03272 0.99495 0.81854 0.0
C884 C 0.05445 -0.00046 0.82675 0.0
C885 C 0.16301 0.08768 0.83893 0.0
C886 C 0.16468 0.09307 0.85788 0.0
C887 C 0.1533 0.06372 0.83301 0.0
C888 C 0.14549 0.04491 0.84594 0.0
C889 C 0.14937 0.05062 0.8648 0.0
C890 C 0.15888 0.07447 0.87071 0.0
C891 C 0.12924 0.0194 0.8404 0.0
C892 C 0.10747 0.01384 0.83156 0.0
C893 C 0.13263 0.00041 0.84692 0.0
C894 C 0.15606 0.00526 0.85501 0.0
C895 C 0.15673 0.99514 0.87209 0.0
C896 C 0.17884 -9e-05 0.87969 0.0
C897 C 0.20043 0.01474 0.87032 0.0
C898 C 0.19995 0.02482 0.85333 0.0
C899 C 0.1779 0.0201 0.84567 0.0
H900 H 0.21752 0.01842 0.87623 0.0
H901 H 0.00435 0.97254 0.79952 0.0
H902 H 0.07251 0.11598 0.86348 0.0
H903 H 0.03611 0.11177 0.84934 0.0
H904 H 0.07931 0.17244 0.81369 0.0
H905 H 0.11632 0.17685 0.82798 0.0
H906 H 0.04341 0.17657 0.83123 0.0
H907 H 0.0464 0.11879 0.79323 0.0
H908 H 0.05336 0.08528 0.78487 0.0
H909 H -0.00468 0.03732 0.82046 0.0
H910 H 0.98821 0.07057 0.82927 0.0
H911 H 0.9019 0.08245 0.82216 0.0
H912 H 0.94092 0.10626 0.80667 0.0
H913 H 0.97374 0.13929 0.8587 0.0
H914 H 0.93503 0.11598 0.87403 0.0
H915 H 0.97427 0.09632 0.81443 0.0
H916 H 0.02513 0.18794 0.85606 0.0
H917 H 0.0184 0.22164 0.86406 0.0
H918 H 0.96878 0.20314 0.81881 0.0
H919 H 0.97548 0.16953 0.81031 0.0
C920 C 0.07439 0.12829 0.85248 0.0
C921 C 0.09729 0.14682 0.84691 0.0
C922 C 0.05352 0.12572 0.84427 0.0
C923 C 0.055 0.14158 0.83027 0.0
C924 C 0.07783 0.15989 0.82435 0.0
C925 C 0.09889 0.16234 0.83249 0.0
C926 C 0.03231 0.13991 0.82347 0.0
C927 C 0.02828 0.15921 0.82718 0.0
C928 C 0.0129 0.11759 0.81732 0.0
C929 C 0.01672 0.09725 0.81186 0.0
C930 C 0.03514 0.10112 0.79932 0.0
C931 C 0.03912 0.08216 0.7945 0.0
C932 C 0.02477 0.05918 0.80211 0.0
C933 C 0.00638 0.05511 0.81453 0.0
C934 C 0.00231 0.07401 0.8194 0.0
C935 C 0.91721 0.09564 0.83011 0.0
C936 C 0.91556 0.09703 0.84938 0.0
C937 C 0.93954 0.1092 0.82124 0.0
C938 C 0.96038 0.1245 0.83149 0.0
C939 C 0.958 0.12793 0.85035 0.0
C940 C 0.93581 0.11437 0.8592 0.0
C941 C 0.98491 0.13227 0.82407 0.0
C942 C 0.98938 0.11408 0.81764 0.0
C943 C 0.00469 0.15568 0.82753 0.0
C944 C 0.00087 0.17616 0.8325 0.0
C945 C 0.01298 0.19117 0.84766 0.0
C946 C 0.00911 0.21024 0.85234 0.0
C947 C 0.99318 0.21454 0.84195 0.0
C948 C 0.9811 0.19978 0.82686 0.0
C949 C 0.9849 0.18068 0.82213 0.0
H950 H 0.9902 0.2293 0.8456 0.0
H951 H 0.02792 0.04454 0.7984 0.0
H952 H 0.88387 0.8095 0.87845 0.0
H953 H 0.85806 0.82598 0.86943 0.0
H954 H 0.90688 0.86439 0.82459 0.0
H955 H 0.9314 0.84638 0.83273 0.0
H956 H 0.87407 0.86899 0.87523 0.0
H957 H 0.88843 0.89198 0.796 0.0
H958 H 0.8847 0.87075 0.76672 0.0
H959 H 0.83601 0.80279 0.79225 0.0
H960 H 0.83913 0.82361 0.82163 0.0
H961 H 0.90505 0.98526 0.86156 0.0
H962 H 0.90411 0.94741 0.85468 0.0
H963 H 0.83048 0.91618 0.83561 0.0
H964 H 0.83133 0.95437 0.84227 0.0
H965 H 0.86091 0.8997 0.81602 0.0
H966 H 0.83279 0.90409 0.87612 0.0
H967 H 0.83381 0.92405 0.90552 0.0
H968 H 0.90295 0.93151 0.91834 0.0
H969 H 0.90253 0.91197 0.88886 0.0
C970 C 0.88824 0.82039 0.86607 0.0
C971 C 0.90964 0.82686 0.85635 0.0
C972 C 0.87359 0.82994 0.86095 0.0
C973 C 0.88062 0.84684 0.84649 0.0
C974 C 0.90065 0.85118 0.8356 0.0
C975 C 0.91483 0.84094 0.84033 0.0
C976 C 0.87106 0.86389 0.84566 0.0
C977 C 0.87064 0.87513 0.86222 0.0
C978 C 0.86624 0.87202 0.82881 0.0
C979 C 0.8641 0.8594 0.81108 0.0
C980 C 0.87677 0.87253 0.79536 0.0
C981 C 0.87481 0.86055 0.77874 0.0
C982 C 0.86016 0.83544 0.77763 0.0
C983 C 0.84741 0.82224 0.79314 0.0
C984 C 0.84931 0.83412 0.80979 0.0
C985 C 0.88883 0.97058 0.85547 0.0
C986 C 0.86812 0.97263 0.85276 0.0
C987 C 0.88836 0.949 0.85148 0.0
C988 C 0.8671 0.92896 0.84492 0.0
C989 C 0.84703 0.93149 0.84067 0.0
C990 C 0.84755 0.95328 0.84453 0.0
C991 C 0.86516 0.90488 0.84538 0.0
C992 C 0.86354 0.89265 0.82889 0.0
C993 C 0.86749 0.89528 0.86231 0.0
C994 C 0.86766 0.90665 0.88024 0.0
C995 C 0.84827 0.91011 0.88516 0.0
C996 C 0.84874 0.92135 0.90184 0.0
C997 C 0.86844 0.92906 0.91378 0.0
C998 C 0.8877 0.92552 0.90908 0.0
C999 C 0.88734 0.91433 0.89239 0.0
H1000 H 0.86878 0.93777 0.92669 0.0
H1001 H 0.85867 0.8262 0.76475 0.0
H1002 H 0.76344 0.50549 0.48597 0.0
H1003 H 0.72374 0.48126 0.50032 0.0
H1004 H 0.6895 0.47214 0.44736 0.0
H1005 H 0.72895 0.49621 0.43288 0.0
H1006 H 0.67299 0.47336 0.50086 0.0
H1007 H 0.66349 0.41078 0.43981 0.0
H1008 H 0.68972 0.4042 0.41838 0.0
H1009 H 0.74692 0.433 0.4585 0.0
H1010 H 0.72092 0.43928 0.48022 0.0
H1011 H 0.55378 0.3768 0.48636 0.0
H1012 H 0.59392 0.41222 0.48962 0.0
H1013 H 0.62409 0.36567 0.49879 0.0
H1014 H 0.58408 0.33021 0.49428 0.0
H1015 H 0.64674 0.39281 0.47316 0.0
H1016 H 0.6264 0.40932 0.53191 0.0
H1017 H 0.60211 0.41494 0.55579 0.0
H1018 H 0.60705 0.47534 0.52589 0.0
H1019 H 0.63108 0.46989 0.50168 0.0
C1020 C 0.74743 0.4993 0.47749 0.0
C1021 C 0.74936 0.50216 0.45818 0.0
C1022 C 0.72473 0.4855 0.48576 0.0
C1023 C 0.70383 0.47453 0.47481 0.0
C1024 C 0.70552 0.4803 0.456 0.0
C1025 C 0.72812 0.49401 0.44772 0.0
C1026 C 0.68168 0.4531 0.48169 0.0
C1027 C 0.66709 0.45567 0.49492 0.0
C1028 C 0.6747 0.42993 0.47447 0.0
C1029 C 0.69036 0.42584 0.46153 0.0
C1030 C 0.68164 0.41564 0.44406 0.0
C1031 C 0.69647 0.41194 0.43186 0.0
C1032 C 0.72003 0.41829 0.43702 0.0
C1033 C 0.72876 0.42823 0.45443 0.0
C1034 C 0.714 0.43194 0.46667 0.0
C1035 C 0.56887 0.37416 0.48964 0.0
C1036 C 0.56594 0.35083 0.48986 0.0
C1037 C 0.59188 0.39447 0.49163 0.0
C1038 C 0.61222 0.39176 0.49444 0.0
C1039 C 0.60879 0.36832 0.49645 0.0
C1040 C 0.58592 0.34804 0.49393 0.0
C1041 C 0.63706 0.41279 0.49206 0.0
C1042 C 0.6524 0.41024 0.4795 0.0
C1043 C 0.64487 0.43568 0.50038 0.0
C1044 C 0.63044 0.43909 0.51491 0.0
C1045 C 0.62216 0.4237 0.53035 0.0
C1046 C 0.60846 0.42688 0.54396 0.0
C1047 C 0.60301 0.44546 0.54234 0.0
C1048 C 0.61129 0.46095 0.52712 0.0
C1049 C 0.62499 0.45785 0.51347 0.0
H1050 H 0.5924 0.44789 0.55289 0.0
H1051 H 0.73146 0.41547 0.42752 0.0
H1052 H 0.4816 0.24828 0.52472 0.0
H1053 H 0.49107 0.22126 0.54229 0.0
H1054 H 0.4768 0.17654 0.494 0.0
H1055 H 0.46719 0.2032 0.47656 0.0
H1056 H 0.47104 0.15057 0.52577 0.0
H1057 H 0.53145 0.22919 0.49767 0.0
H1058 H 0.55034 0.27362 0.49544 0.0
H1059 H 0.56573 0.28017 0.55352 0.0
H1060 H 0.54663 0.23572 0.55608 0.0
H1061 H 0.5582 0.14044 0.47961 0.0
H1062 H 0.5271 0.14512 0.49526 0.0
H1063 H 0.57263 0.17278 0.54345 0.0
H1064 H 0.60407 0.16787 0.52769 0.0
H1065 H 0.56002 0.20423 0.52969 0.0
H1066 H 0.51655 0.12346 0.5489 0.0
H1067 H 0.49881 0.07921 0.54719 0.0
H1068 H 0.45218 0.07577 0.50316 0.0
H1069 H 0.46986 0.12001 0.50436 0.0
C1070 C 0.47926 0.23199 0.51815 0.0
C1071 C 0.47433 0.22813 0.49916 0.0
C1072 C 0.48472 0.21658 0.52821 0.0
C1073 C 0.4853 0.1973 0.5193 0.0
C1074 C 0.47667 0.19141 0.50114 0.0
C1075 C 0.47132 0.20678 0.49112 0.0
C1076 C 0.50034 0.18736 0.52645 0.0
C1077 C 0.49046 0.16218 0.52703 0.0
C1078 C 0.52563 0.20259 0.52865 0.0
C1079 C 0.53744 0.22924 0.5271 0.0
C1080 C 0.53883 0.24015 0.50995 0.0
C1081 C 0.54953 0.2653 0.50863 0.0
C1082 C 0.55918 0.2797 0.52434 0.0
C1083 C 0.55819 0.26898 0.54138 0.0
C1084 C 0.54742 0.24382 0.54278 0.0
C1085 C 0.56137 0.14693 0.49372 0.0
C1086 C 0.58363 0.15409 0.50237 0.0
C1087 C 0.54343 0.14931 0.50277 0.0
C1088 C 0.5474 0.15908 0.52063 0.0
C1089 C 0.5691 0.16495 0.52976 0.0
C1090 C 0.58703 0.16219 0.52074 0.0
C1091 C 0.53091 0.16733 0.52772 0.0
C1092 C 0.54054 0.19235 0.52971 0.0
C1093 C 0.50549 0.15189 0.52758 0.0
C1094 C 0.49453 0.12515 0.52679 0.0
C1095 C 0.50258 0.1133 0.5388 0.0
C1096 C 0.49252 0.0882 0.53792 0.0
C1097 C 0.47436 0.07469 0.52509 0.0
C1098 C 0.4662 0.08625 0.51313 0.0
C1099 C 0.47619 0.11136 0.51394 0.0
H1100 H 0.46661 0.05525 0.52442 0.0
H1101 H 0.56745 0.29916 0.5233 0.0
H1102 H 0.76804 0.41146 0.42928 0.0
H1103 H 0.75375 0.37225 0.44381 0.0
H1104 H 0.8009 0.4067 0.49021 0.0
H1105 H 0.81485 0.44652 0.47601 0.0
H1106 H 0.79985 0.36225 0.47008 0.0
H1107 H 0.75172 0.38894 0.50277 0.0
H1108 H 0.72511 0.40647 0.50612 0.0
H1109 H 0.6723 0.35131 0.47085 0.0
H1110 H 0.69871 0.33359 0.46709 0.0
H1111 H 0.70013 0.23693 0.51001 0.0
H1112 H 0.72613 0.28113 0.51232 0.0
H1113 H 0.73795 0.28516 0.45355 0.0
H1114 H 0.71158 0.24138 0.45108 0.0
H1115 H 0.71446 0.31359 0.4906 0.0
H1116 H 0.79836 0.32994 0.44812 0.0
H1117 H 0.82348 0.31093 0.44364 0.0
H1118 H 0.80409 0.27932 0.49764 0.0
H1119 H 0.77916 0.29844 0.50256 0.0
C1120 C 0.7754 0.41085 0.44259 0.0
C1121 C 0.79247 0.43219 0.45155 0.0
C1122 C 0.76717 0.3884 0.45087 0.0
C1123 C 0.77614 0.38673 0.4681 0.0
C1124 C 0.79371 0.40778 0.47693 0.0
C1125 C 0.80165 0.43044 0.46879 0.0
C1126 C 0.76708 0.36263 0.47641 0.0
C1127 C 0.78134 0.35166 0.47493 0.0
C1128 C 0.74297 0.34905 0.48276 0.0
C1129 C 0.72724 0.35996 0.48464 0.0
C1130 C 0.73453 0.38067 0.4956 0.0
C1131 C 0.71944 0.39058 0.49763 0.0
C1132 C 0.69696 0.3799 0.48881 0.0
C1133 C 0.68965 0.35946 0.47776 0.0
C1134 C 0.70466 0.34945 0.47571 0.0
C1135 C 0.70867 0.24726 0.49768 0.0
C1136 C 0.7038 0.23586 0.48035 0.0
C1137 C 0.72342 0.27242 0.49901 0.0
C1138 C 0.734 0.28626 0.48312 0.0
C1139 C 0.7301 0.27471 0.46598 0.0
C1140 C 0.71497 0.24976 0.46458 0.0
C1141 C 0.74699 0.31297 0.48375 0.0
C1142 C 0.73328 0.32435 0.48652 0.0
C1143 C 0.77152 0.32685 0.47843 0.0
C1144 C 0.78678 0.31556 0.47567 0.0
C1145 C 0.79958 0.31907 0.45909 0.0
C1146 C 0.81376 0.30824 0.45646 0.0
C1147 C 0.81535 0.2939 0.47033 0.0
C1148 C 0.80279 0.29039 0.48688 0.0
C1149 C 0.78859 0.30118 0.48959 0.0
H1150 H 0.82632 0.28552 0.46826 0.0
H1151 H 0.68522 0.38749 0.49051 0.0
H1152 H 0.70183 0.25743 0.21415 0.0
H1153 H 0.73104 0.29135 0.19572 0.0
H1154 H 0.74859 0.24387 0.16551 0.0
H1155 H 0.71886 0.20937 0.18394 0.0
H1156 H 0.78938 0.28624 0.17917 0.0
H1157 H 0.72226 0.26627 0.14166 0.0
H1158 H 0.68004 0.2536 0.13352 0.0
H1159 H 0.68771 0.31842 0.15792 0.0
H1160 H 0.72965 0.33116 0.16667 0.0
H1161 H 0.82109 0.41922 0.14845 0.0
H1162 H 0.80902 0.37778 0.13904 0.0
H1163 H 0.8166 0.3606 0.19537 0.0
H1164 H 0.82875 0.40165 0.20464 0.0
H1165 H 0.76806 0.34392 0.1509 0.0
H1166 H 0.82039 0.31284 0.20103 0.0
H1167 H 0.86277 0.3258 0.20864 0.0
H1168 H 0.88591 0.36328 0.15694 0.0
H1169 H 0.84362 0.35023 0.14882 0.0
C1170 C 0.71173 0.25408 0.20352 0.0
C1171 C 0.70811 0.23074 0.20054 0.0
C1172 C 0.7283 0.27347 0.19289 0.0
C1173 C 0.74175 0.27004 0.17912 0.0
C1174 C 0.73821 0.24678 0.17598 0.0
C1175 C 0.72125 0.22717 0.18649 0.0
C1176 C 0.76056 0.29149 0.16922 0.0
C1177 C 0.78491 0.29881 0.17267 0.0
C1178 C 0.75464 0.30732 0.15993 0.0
C1179 C 0.72923 0.29971 0.1548 0.0
C1180 C 0.71489 0.27775 0.14543 0.0
C1181 C 0.69097 0.27053 0.14072 0.0
C1182 C 0.68116 0.28517 0.14522 0.0
C1183 C 0.69527 0.30705 0.15446 0.0
C1184 C 0.71915 0.3143 0.15928 0.0
C1185 C 0.82125 0.40686 0.15861 0.0
C1186 C 0.82541 0.41344 0.17733 0.0
C1187 C 0.81431 0.38317 0.15323 0.0
C1188 C 0.81179 0.36595 0.16647 0.0
C1189 C 0.81871 0.37348 0.18477 0.0
C1190 C 0.82544 0.39698 0.19014 0.0
C1191 C 0.79671 0.33963 0.16271 0.0
C1192 C 0.77291 0.33122 0.15666 0.0
C1193 C 0.8032 0.32283 0.16949 0.0
C1194 C 0.82871 0.33046 0.17428 0.0
C1195 C 0.83444 0.32361 0.19116 0.0
C1196 C 0.85849 0.33106 0.1956 0.0
C1197 C 0.87702 0.34535 0.18328 0.0
C1198 C 0.87154 0.35223 0.16648 0.0
C1199 C 0.84752 0.34484 0.16197 0.0
H1200 H 0.89563 0.3511 0.18675 0.0
H1201 H 0.66265 0.27957 0.14154 0.0
H1202 H 0.77099 0.5043 0.15716 0.0
H1203 H 0.73463 0.50659 0.14966 0.0
H1204 H 0.68997 0.43141 0.16406 0.0
H1205 H 0.72592 0.429 0.1717 0.0
H1206 H 0.67957 0.4681 0.12971 0.0
H1207 H 0.67191 0.44255 0.20497 0.0
H1208 H 0.6984 0.44852 0.23166 0.0
H1209 H 0.75041 0.51883 0.21136 0.0
H1210 H 0.72404 0.51338 0.18472 0.0
H1211 H 0.56526 0.39634 0.1651 0.0
H1212 H 0.60375 0.42213 0.15013 0.0
H1213 H 0.6192 0.4787 0.18974 0.0
H1214 H 0.58142 0.45174 0.20574 0.0
H1215 H 0.65096 0.46883 0.1932 0.0
H1216 H 0.62323 0.48709 0.13916 0.0
H1217 H 0.59753 0.48152 0.11212 0.0
H1218 H 0.61604 0.43088 0.08902 0.0
H1219 H 0.64154 0.43581 0.11603 0.0
C1220 C 0.75346 0.48801 0.15795 0.0
C1221 C 0.75119 0.46657 0.16534 0.0
C1222 C 0.73275 0.48934 0.15358 0.0
C1223 C 0.70972 0.4692 0.15641 0.0
C1224 C 0.70764 0.4471 0.16172 0.0
C1225 C 0.72818 0.44581 0.16623 0.0
C1226 C 0.68826 0.47203 0.15859 0.0
C1227 C 0.67322 0.46871 0.14347 0.0
C1228 C 0.68061 0.47371 0.1765 0.0
C1229 C 0.6961 0.4775 0.19285 0.0
C1230 C 0.68892 0.45934 0.2063 0.0
C1231 C 0.70392 0.46261 0.22139 0.0
C1232 C 0.7261 0.48402 0.22318 0.0
C1233 C 0.73326 0.50224 0.20994 0.0
C1234 C 0.7183 0.49907 0.19484 0.0
C1235 C 0.57635 0.4147 0.17008 0.0
C1236 C 0.57062 0.42201 0.18667 0.0
C1237 C 0.59846 0.42964 0.1614 0.0
C1238 C 0.61479 0.45247 0.16885 0.0
C1239 C 0.60719 0.46107 0.18385 0.0
C1240 C 0.58553 0.44575 0.19295 0.0
C1241 C 0.64105 0.46393 0.16431 0.0
C1242 C 0.65716 0.46951 0.17917 0.0
C1243 C 0.64968 0.46499 0.14607 0.0
C1244 C 0.63434 0.46184 0.1297 0.0
C1245 C 0.62172 0.47465 0.12838 0.0
C1246 C 0.60719 0.47162 0.11303 0.0
C1247 C 0.60516 0.45586 0.09886 0.0
C1248 C 0.61767 0.44312 0.09999 0.0
C1249 C 0.63223 0.44608 0.11531 0.0
H1250 H 0.59389 0.45353 0.08699 0.0
H1251 H 0.73772 0.48649 0.23484 0.0
H1252 H 0.57586 0.31586 0.20973 0.0
H1253 H 0.57879 0.28063 0.2011 0.0
H1254 H 0.50786 0.24808 0.17633 0.0
H1255 H 0.50454 0.28338 0.18531 0.0
H1256 H 0.51077 0.21696 0.19844 0.0
H1257 H 0.55795 0.26406 0.1486 0.0
H1258 H 0.58863 0.30043 0.13229 0.0
H1259 H 0.64459 0.30123 0.16572 0.0
H1260 H 0.61432 0.26497 0.18226 0.0
H1261 H 0.59592 0.15969 0.18298 0.0
H1262 H 0.57172 0.17615 0.16992 0.0
H1263 H 0.55409 0.18844 0.22488 0.0
H1264 H 0.57776 0.1718 0.23788 0.0
H1265 H 0.58558 0.2215 0.17407 0.0
H1266 H 0.50634 0.1942 0.22722 0.0
H1267 H 0.47475 0.15701 0.24201 0.0
H1268 H 0.48013 0.11421 0.19854 0.0
H1269 H 0.51149 0.15115 0.1833 0.0
C1270 C 0.56099 0.30144 0.20219 0.0
C1271 C 0.53991 0.30242 0.19832 0.0
C1272 C 0.56278 0.28132 0.1971 0.0
C1273 C 0.54367 0.26178 0.18784 0.0
C1274 C 0.52288 0.263 0.18337 0.0
C1275 C 0.52105 0.28322 0.18848 0.0
C1276 C 0.5448 0.23935 0.18478 0.0
C1277 C 0.52692 0.21776 0.19284 0.0
C1278 C 0.56536 0.24006 0.17675 0.0
C1279 C 0.58381 0.26173 0.16666 0.0
C1280 C 0.5768 0.27201 0.15249 0.0
C1281 C 0.59414 0.2926 0.14318 0.0
C1282 C 0.61857 0.3031 0.14792 0.0
C1283 C 0.62571 0.293 0.16196 0.0
C1284 C 0.60846 0.27237 0.17127 0.0
C1285 C 0.58605 0.16497 0.19225 0.0
C1286 C 0.58903 0.1648 0.21147 0.0
C1287 C 0.5723 0.17448 0.18476 0.0
C1288 C 0.56111 0.18363 0.19638 0.0
C1289 C 0.5622 0.18122 0.21556 0.0
C1290 C 0.57595 0.17185 0.22302 0.0
C1291 C 0.55247 0.19976 0.18909 0.0
C1292 C 0.56896 0.22025 0.17907 0.0
C1293 C 0.53043 0.19783 0.19503 0.0
C1294 C 0.51135 0.17553 0.2041 0.0
C1295 C 0.50066 0.1769 0.2207 0.0
C1296 C 0.48282 0.15583 0.2292 0.0
C1297 C 0.47545 0.13326 0.22123 0.0
C1298 C 0.48589 0.1317 0.20472 0.0
C1299 C 0.50374 0.1527 0.19616 0.0
H1300 H 0.46164 0.11698 0.22784 0.0
H1301 H 0.63197 0.31907 0.14073 0.0
H1302 H 0.25831 0.69445 0.80434 0.0
H1303 H 0.2977 0.72766 0.81327 0.0
H1304 H 0.26345 0.76217 0.84159 0.0
H1305 H 0.22354 0.72861 0.83257 0.0
H1306 H 0.29708 0.79242 0.81754 0.0
H1307 H 0.29693 0.74492 0.86682 0.0
H1308 H 0.29023 0.70843 0.88351 0.0
H1309 H 0.34225 0.7035 0.84893 0.0
H1310 H 0.34901 0.7397 0.83182 0.0
H1311 H 0.43905 0.84156 0.82459 0.0
H1312 H 0.40032 0.82845 0.84001 0.0
H1313 H 0.36472 0.81323 0.78706 0.0
H1314 H 0.40315 0.82645 0.77166 0.0
H1315 H 0.36615 0.78328 0.83837 0.0
H1316 H 0.31347 0.81258 0.78761 0.0
H1317 H 0.32047 0.84974 0.77184 0.0
H1318 H 0.37439 0.89301 0.81198 0.0
H1319 H 0.36749 0.85614 0.8282 0.0
C1320 C 0.25908 0.70884 0.81278 0.0
C1321 C 0.23786 0.70903 0.81764 0.0
C1322 C 0.28163 0.72775 0.81803 0.0
C1323 C 0.28354 0.74732 0.82825 0.0
C1324 C 0.26236 0.74714 0.83382 0.0
C1325 C 0.23962 0.72797 0.8287 0.0
C1326 C 0.30777 0.76898 0.83075 0.0
C1327 C 0.31221 0.79068 0.82241 0.0
C1328 C 0.32739 0.76699 0.83778 0.0
C1329 C 0.3235 0.74513 0.84803 0.0
C1330 C 0.30686 0.736 0.8627 0.0
C1331 C 0.30306 0.71535 0.87225 0.0
C1332 C 0.31583 0.70367 0.8673 0.0
C1333 C 0.33243 0.71261 0.85279 0.0
C1334 C 0.33629 0.73324 0.84318 0.0
C1335 C 0.42311 0.83626 0.81622 0.0
C1336 C 0.42408 0.83468 0.7969 0.0
C1337 C 0.40097 0.82873 0.82507 0.0
C1338 C 0.37958 0.81983 0.81473 0.0
C1339 C 0.38097 0.82035 0.79538 0.0
C1340 C 0.40299 0.82773 0.78656 0.0
C1341 C 0.35552 0.80584 0.82365 0.0
C1342 C 0.35108 0.78553 0.83415 0.0
C1343 C 0.33595 0.80924 0.81877 0.0
C1344 C 0.33994 0.83152 0.80915 0.0
C1345 C 0.32666 0.83 0.7932 0.0
C1346 C 0.33066 0.85103 0.78414 0.0
C1347 C 0.34787 0.87371 0.7909 0.0
C1348 C 0.3611 0.87542 0.80674 0.0
C1349 C 0.35718 0.85446 0.81586 0.0
H1350 H 0.35094 0.88997 0.78386 0.0
H1351 H 0.31285 0.68769 0.87471 0.0
H1352 H 0.27832 0.49695 0.81623 0.0
H1353 H 0.24164 0.49855 0.82411 0.0
H1354 H 0.27682 0.57328 0.80716 0.0
H1355 H 0.31306 0.57171 0.79897 0.0
H1356 H 0.228 0.52917 0.84543 0.0
H1357 H 0.24236 0.57729 0.77494 0.0
H1358 H 0.26082 0.57851 0.74476 0.0
H1359 H 0.24878 0.50676 0.75357 0.0
H1360 H 0.22989 0.50495 0.78364 0.0
H1361 H 0.18091 0.60652 0.83665 0.0
H1362 H 0.19737 0.57987 0.84169 0.0
H1363 H 0.15705 0.53665 0.79482 0.0
H1364 H 0.14215 0.56467 0.78893 0.0
H1365 H 0.19936 0.55032 0.78857 0.0
H1366 H 0.15331 0.51279 0.8413 0.0
H1367 H 0.1331 0.50838 0.87118 0.0
H1368 H 0.20205 0.55133 0.89743 0.0
H1369 H 0.2227 0.55634 0.86767 0.0
C1370 C 0.2784 0.51389 0.81469 0.0
C1371 C 0.29834 0.5341 0.80667 0.0
C1372 C 0.25749 0.51477 0.81924 0.0
C1373 C 0.25646 0.5359 0.8159 0.0
C1374 C 0.2772 0.55671 0.8096 0.0
C1375 C 0.29786 0.55577 0.80488 0.0
C1376 C 0.2332 0.53576 0.81626 0.0
C1377 C 0.22141 0.53356 0.83307 0.0
C1378 C 0.22409 0.54035 0.79993 0.0
C1379 C 0.23481 0.54105 0.78159 0.0
C1380 C 0.24348 0.5617 0.77037 0.0
C1381 C 0.25406 0.56251 0.7533 0.0
C1382 C 0.25601 0.54275 0.74727 0.0
C1383 C 0.24731 0.52208 0.75827 0.0
C1384 C 0.23667 0.52116 0.77533 0.0
C1385 C 0.17481 0.59077 0.82787 0.0
C1386 C 0.16055 0.58777 0.81226 0.0
C1387 C 0.18413 0.57534 0.83084 0.0
C1388 C 0.17868 0.55619 0.81857 0.0
C1389 C 0.16185 0.55145 0.80435 0.0
C1390 C 0.15322 0.56738 0.80102 0.0
C1391 C 0.19438 0.54504 0.81804 0.0
C1392 C 0.20505 0.54519 0.80105 0.0
C1393 C 0.20183 0.5379 0.83416 0.0
C1394 C 0.18956 0.53499 0.85218 0.0
C1395 C 0.16418 0.52143 0.85341 0.0
C1396 C 0.15264 0.51881 0.87034 0.0
C1397 C 0.16628 0.52958 0.88619 0.0
C1398 C 0.1915 0.54297 0.88515 0.0
C1399 C 0.20314 0.54567 0.86824 0.0
H1400 H 0.15731 0.52753 0.89929 0.0
H1401 H 0.26425 0.54343 0.73406 0.0
H1402 H 0.44114 0.73825 0.78859 0.0
H1403 H 0.43843 0.70283 0.80334 0.0
H1404 H 0.50515 0.74795 0.83249 0.0
H1405 H 0.50804 0.78395 0.81757 0.0
H1406 H 0.50556 0.71027 0.81543 0.0
H1407 H 0.45515 0.71765 0.85818 0.0
H1408 H 0.42388 0.7261 0.87002 0.0
H1409 H 0.36939 0.66574 0.8395 0.0
H1410 H 0.40033 0.65711 0.82723 0.0
H1411 H 0.41131 0.57006 0.8318 0.0
H1412 H 0.43729 0.60995 0.8455 0.0
H1413 H 0.46416 0.63911 0.79134 0.0
H1414 H 0.43883 0.59955 0.77779 0.0
H1415 H 0.42778 0.64356 0.83905 0.0
H1416 H 0.5132 0.68989 0.79008 0.0
H1417 H 0.54521 0.68178 0.77962 0.0
H1418 H 0.53203 0.63522 0.82616 0.0
H1419 H 0.50018 0.64332 0.83712 0.0
C1420 C 0.45513 0.74078 0.7983 0.0
C1421 C 0.47487 0.76389 0.80183 0.0
C1422 C 0.45344 0.72049 0.80689 0.0
C1423 C 0.47142 0.72277 0.81923 0.0
C1424 C 0.49098 0.74586 0.82314 0.0
C1425 C 0.49257 0.76635 0.81463 0.0
C1426 C 0.47042 0.70047 0.82623 0.0
C1427 C 0.48879 0.6957 0.82093 0.0
C1428 C 0.44907 0.68187 0.83437 0.0
C1429 C 0.43014 0.68669 0.84183 0.0
C1430 C 0.43651 0.70621 0.85394 0.0
C1431 C 0.41883 0.71104 0.86072 0.0
C1432 C 0.39466 0.69645 0.85553 0.0
C1433 C 0.38812 0.67698 0.84355 0.0
C1434 C 0.40572 0.67207 0.83672 0.0
C1435 C 0.4236 0.58477 0.82295 0.0
C1436 C 0.42271 0.58182 0.80368 0.0
C1437 C 0.43839 0.60759 0.8308 0.0
C1438 C 0.45265 0.62767 0.8195 0.0
C1439 C 0.4537 0.624 0.80048 0.0
C1440 C 0.43895 0.60131 0.79267 0.0
C1441 C 0.46188 0.65275 0.82631 0.0
C1442 C 0.44505 0.65816 0.8343 0.0
C1443 C 0.48483 0.67195 0.82096 0.0
C1444 C 0.50426 0.66728 0.81447 0.0
C1445 C 0.51727 0.67813 0.79823 0.0
C1446 C 0.53535 0.67346 0.79216 0.0
C1447 C 0.54065 0.658 0.80222 0.0
C1448 C 0.52788 0.64717 0.81837 0.0
C1449 C 0.50978 0.65177 0.8245 0.0
H1450 H 0.55465 0.65441 0.79749 0.0
H1451 H 0.38101 0.70023 0.86079 0.0
H1452 H 0.49137 0.74495 0.53442 0.0
H1453 H 0.4772 0.70371 0.524 0.0
H1454 H 0.4666 0.723 0.46914 0.0
H1455 H 0.48127 0.76471 0.47954 0.0
H1456 H 0.42514 0.68614 0.48418 0.0
H1457 H 0.50336 0.70029 0.47306 0.0
H1458 H 0.54703 0.71637 0.47771 0.0
H1459 H 0.53244 0.67481 0.52742 0.0
H1460 H 0.4887 0.65875 0.52328 0.0
H1461 H 0.36096 0.55507 0.49089 0.0
H1462 H 0.39125 0.59365 0.47686 0.0
H1463 H 0.42156 0.6208 0.53068 0.0
H1464 H 0.39128 0.58299 0.54469 0.0
H1465 H 0.45689 0.63187 0.50122 0.0
H1466 H 0.38208 0.63343 0.5167 0.0
H1467 H 0.33828 0.6179 0.51314 0.0
H1468 H 0.34762 0.63064 0.45477 0.0
H1469 H 0.39147 0.64591 0.45799 0.0
C1470 C 0.48677 0.74061 0.52 0.0
C1471 C 0.48725 0.75791 0.50781 0.0
C1472 C 0.47882 0.71707 0.514 0.0
C1473 C 0.47093 0.71029 0.49576 0.0
C1474 C 0.47279 0.72792 0.48323 0.0
C1475 C 0.48122 0.75171 0.48917 0.0
C1476 C 0.45701 0.6842 0.49117 0.0
C1477 C 0.4323 0.67424 0.48716 0.0
C1478 C 0.46631 0.66867 0.49511 0.0
C1479 C 0.49266 0.67829 0.49783 0.0
C1480 C 0.50944 0.69468 0.48506 0.0
C1481 C 0.53423 0.70378 0.4876 0.0
C1482 C 0.54251 0.69661 0.50285 0.0
C1483 C 0.526 0.68031 0.51559 0.0
C1484 C 0.50119 0.67116 0.51313 0.0
C1485 C 0.3743 0.56925 0.49962 0.0
C1486 C 0.37368 0.56624 0.51887 0.0
C1487 C 0.39156 0.59114 0.49161 0.0
C1488 C 0.40867 0.60991 0.50276 0.0
C1489 C 0.40865 0.60642 0.52185 0.0
C1490 C 0.39118 0.58492 0.52984 0.0
C1491 C 0.42511 0.63428 0.49534 0.0
C1492 C 0.45013 0.64379 0.49721 0.0
C1493 C 0.41617 0.64945 0.48944 0.0
C1494 C 0.38992 0.64046 0.48754 0.0
C1495 C 0.37474 0.63271 0.50309 0.0
C1496 C 0.34992 0.62399 0.50115 0.0
C1497 C 0.34016 0.6232 0.48373 0.0
C1498 C 0.35521 0.63119 0.46824 0.0
C1499 C 0.38003 0.63986 0.47011 0.0
H1500 H 0.32095 0.61646 0.48224 0.0
H1501 H 0.56171 0.70367 0.50478 0.0
H1502 H 0.2232 0.74348 0.50035 0.0
H1503 H 0.26186 0.76774 0.48453 0.0
H1504 H 0.2956 0.8008 0.53618 0.0
H1505 H 0.25723 0.77674 0.5521 0.0
H1506 H 0.3121 0.82351 0.48771 0.0
H1507 H 0.3234 0.76884 0.54266 0.0
H1508 H 0.29839 0.73297 0.56197 0.0
H1509 H 0.24956 0.699 0.51663 0.0
H1510 H 0.27468 0.73435 0.49698 0.0
H1511 H 0.43204 0.8547 0.51248 0.0
H1512 H 0.39133 0.84716 0.5054 0.0
H1513 H 0.37439 0.77948 0.47959 0.0
H1514 H 0.41491 0.7868 0.48723 0.0
H1515 H 0.34623 0.77214 0.50751 0.0
H1516 H 0.36942 0.82421 0.45561 0.0
H1517 H 0.39383 0.86146 0.43766 0.0
H1518 H 0.37473 0.90126 0.47525 0.0
H1519 H 0.35048 0.86433 0.49361 0.0
C1520 C 0.23853 0.75681 0.50821 0.0
C1521 C 0.23738 0.75768 0.52756 0.0
C1522 C 0.2606 0.7708 0.49908 0.0
C1523 C 0.28156 0.78578 0.50925 0.0
C1524 C 0.27957 0.78933 0.52811 0.0
C1525 C 0.25764 0.77535 0.53723 0.0
C1526 C 0.30546 0.79129 0.50209 0.0
C1527 C 0.31966 0.81229 0.49177 0.0
C1528 C 0.31496 0.77631 0.50718 0.0
C1529 C 0.30077 0.75425 0.51844 0.0
C1530 C 0.30748 0.75356 0.53679 0.0
C1531 C 0.29329 0.73334 0.54779 0.0
C1532 C 0.27238 0.71371 0.54055 0.0
C1533 C 0.26577 0.71416 0.52224 0.0
C1534 C 0.28 0.73426 0.51115 0.0
C1535 C 0.41994 0.83881 0.50452 0.0
C1536 C 0.42644 0.82137 0.50024 0.0
C1537 C 0.39669 0.83451 0.50042 0.0
C1538 C 0.37973 0.81272 0.49196 0.0
C1539 C 0.38716 0.79642 0.48609 0.0
C1540 C 0.4103 0.80062 0.49036 0.0
C1541 C 0.35354 0.80468 0.49302 0.0
C1542 C 0.33878 0.78317 0.50265 0.0
C1543 C 0.34371 0.81917 0.48706 0.0
C1544 C 0.3582 0.84147 0.47605 0.0
C1545 C 0.37055 0.84093 0.46014 0.0
C1546 C 0.38434 0.86199 0.44987 0.0
C1547 C 0.38585 0.88372 0.45532 0.0
C1548 C 0.37354 0.88441 0.47104 0.0
C1549 C 0.35972 0.8634 0.48136 0.0
H1550 H 0.39654 0.90001 0.44736 0.0
H1551 H 0.26135 0.69818 0.54915 0.0
H1552 H 0.26603 0.50486 0.49658 0.0
H1553 H 0.2443 0.52657 0.4899 0.0
H1554 H 0.21109 0.50761 0.54365 0.0
H1555 H 0.23336 0.48666 0.55062 0.0
H1556 H 0.19789 0.52669 0.49301 0.0
H1557 H 0.23413 0.55863 0.56614 0.0
H1558 H 0.26479 0.55893 0.58714 0.0
H1559 H 0.30814 0.56226 0.54069 0.0
H1560 H 0.27792 0.56235 0.51949 0.0
H1561 H 0.16261 0.6104 0.52682 0.0
H1562 H 0.16996 0.57755 0.51795 0.0
H1563 H 0.24701 0.62722 0.51985 0.0
H1564 H 0.23961 0.65932 0.53008 0.0
H1565 H 0.23903 0.5924 0.53915 0.0
H1566 H 0.21345 0.59769 0.47864 0.0
H1567 H 0.18708 0.59936 0.4545 0.0
H1568 H 0.13058 0.52822 0.46947 0.0
H1569 H 0.15648 0.52625 0.49388 0.0
C1570 C 0.25309 0.50422 0.50657 0.0
C1571 C 0.25169 0.49457 0.52426 0.0
C1572 C 0.24062 0.51659 0.5027 0.0
C1573 C 0.22654 0.5191 0.51645 0.0
C1574 C 0.22207 0.50602 0.53294 0.0
C1575 C 0.23484 0.4941 0.53694 0.0
C1576 C 0.22253 0.54002 0.51597 0.0
C1577 C 0.20673 0.54112 0.50306 0.0
C1578 C 0.23497 0.55928 0.52856 0.0
C1579 C 0.25367 0.56025 0.54127 0.0
C1580 C 0.25028 0.55958 0.56045 0.0
C1581 C 0.26757 0.55966 0.57237 0.0
C1582 C 0.28836 0.56053 0.56525 0.0
C1583 C 0.29201 0.56151 0.54619 0.0
C1584 C 0.27481 0.56149 0.53423 0.0
C1585 C 0.18107 0.61431 0.52494 0.0
C1586 C 0.20057 0.63728 0.52926 0.0
C1587 C 0.18528 0.59557 0.51975 0.0
C1588 C 0.20908 0.5998 0.51824 0.0
C1589 C 0.22848 0.62335 0.52113 0.0
C1590 C 0.22428 0.64176 0.52689 0.0
C1591 C 0.21397 0.5794 0.51626 0.0
C1592 C 0.23007 0.57828 0.52888 0.0
C1593 C 0.20252 0.56082 0.50286 0.0
C1594 C 0.18685 0.56192 0.48822 0.0
C1595 C 0.19533 0.58248 0.47689 0.0
C1596 C 0.18048 0.58346 0.46314 0.0
C1597 C 0.15715 0.56393 0.46048 0.0
C1598 C 0.14864 0.54335 0.47155 0.0
C1599 C 0.16341 0.54228 0.48534 0.0
H1600 H 0.14568 0.56473 0.44982 0.0
H1601 H 0.30166 0.56049 0.5745 0.0
H1602 H 0.20446 0.18405 0.06303 0.0
H1603 H 0.21644 0.19576 0.03109 0.0
H1604 H 0.19318 0.24857 0.03479 0.0
H1605 H 0.1813 0.23703 0.0671 0.0
H1606 H 0.17159 0.21509 0.00636 0.0
H1607 H 0.25133 0.26862 0.02779 0.0
H1608 H 0.28835 0.28108 0.04601 0.0
H1609 H 0.29951 0.22788 0.0184 0.0
H1610 H 0.26235 0.21482 0.0002 0.0
H1611 H 0.19025 0.22755 0.91141 0.0
H1612 H 0.19691 0.24127 0.94346 0.0
H1613 H 0.22801 0.19608 0.95491 0.0
H1614 H 0.22251 0.18332 0.92252 0.0
H1615 H 0.24908 0.23526 0.97585 0.0
H1616 H 0.16662 0.1756 0.96078 0.0
H1617 H 0.12829 0.15927 0.9435 0.0
H1618 H 0.12094 0.2198 0.96048 0.0
H1619 H 0.15943 0.23665 0.97766 0.0
C1620 C 0.20231 0.19849 0.05717 0.0
C1621 C 0.19177 0.2095 0.06745 0.0
C1622 C 0.20936 0.2053 0.03896 0.0
C1623 C 0.20586 0.22315 0.03063 0.0
C1624 C 0.19618 0.23488 0.04106 0.0
C1625 C 0.18943 0.22829 0.05946 0.0
C1626 C 0.2093 0.22688 0.01047 0.0
C1627 C 0.18871 0.22023 -0.00034 0.0
C1628 C 0.23147 0.23279 0.00182 0.0
C1629 C 0.25395 0.24067 0.01267 0.0
C1630 C 0.26157 0.25945 0.02568 0.0
C1631 C 0.28261 0.26664 0.036 0.0
C1632 C 0.29626 0.25526 0.03338 0.0
C1633 C 0.28892 0.23669 0.02041 0.0
C1634 C 0.26789 0.22941 0.01006 0.0
C1635 C 0.19899 0.22098 0.92071 0.0
C1636 C 0.20552 0.20411 0.91467 0.0
C1637 C 0.20276 0.22879 0.939 0.0
C1638 C 0.21231 0.21917 0.95171 0.0
C1639 C 0.22048 0.20365 0.94537 0.0
C1640 C 0.21726 0.19629 0.9269 0.0
C1641 C 0.21123 0.223 0.9718 0.0
C1642 C 0.23216 0.23085 0.98255 0.0
C1643 C 0.18923 0.21771 0.98051 0.0
C1644 C 0.16602 0.20753 0.9703 0.0
C1645 C 0.1569 0.1855 0.96072 0.0
C1646 C 0.13515 0.17614 0.95096 0.0
C1647 C 0.12223 0.18853 0.95085 0.0
C1648 C 0.131 0.21026 0.96055 0.0
C1649 C 0.15278 0.21972 0.9703 0.0
H1650 H 0.10539 0.18126 0.94328 0.0
H1651 H 0.31254 0.26086 0.04138 0.0
H1652 H 0.82255 0.99439 0.92669 0.0
H1653 H 0.80654 0.98729 0.9578 0.0
H1654 H 0.79301 0.04692 0.95269 0.0
H1655 H 0.8095 0.05442 0.92117 0.0
H1656 H 0.81436 0.04942 0.98436 0.0
H1657 H 0.74461 0.98965 0.95602 0.0
H1658 H 0.71881 0.95649 0.93481 0.0
H1659 H 0.74057 0.91014 0.96124 0.0
H1660 H 0.7667 0.94309 0.98253 0.0
H1661 H 0.75765 0.96463 0.0719 0.0
H1662 H 0.75138 0.97575 0.04071 0.0
H1663 H 0.8286 0.01403 0.03183 0.0
H1664 H 0.83492 0.00375 0.06276 0.0
H1665 H 0.76048 0.96627 0.00779 0.0
H1666 H 0.84821 0.06218 0.00701 0.0
H1667 H 0.87031 0.09615 0.02859 0.0
H1668 H 0.8057 0.07243 0.06059 0.0
H1669 H 0.78308 0.03852 0.03906 0.0
C1670 C 0.81608 0.00599 0.93206 0.0
C1671 C 0.81737 0.02504 0.92147 0.0
C1672 C 0.80664 0.00171 0.94984 0.0
C1673 C 0.79807 0.01622 0.95747 0.0
C1674 C 0.7993 0.03533 0.94698 0.0
C1675 C 0.80877 0.03964 0.92904 0.0
C1676 C 0.78998 0.01231 0.97696 0.0
C1677 C 0.80227 0.03134 0.98951 0.0
C1678 C 0.77332 0.98894 0.98364 0.0
C1679 C 0.75766 0.96891 0.97089 0.0
C1680 C 0.74401 0.97243 0.95726 0.0
C1681 C 0.7293 0.95366 0.94522 0.0
C1682 C 0.72807 0.93122 0.94666 0.0
C1683 C 0.74152 0.92752 0.96016 0.0
C1684 C 0.75623 0.94623 0.97227 0.0
C1685 C 0.77321 0.97544 0.06323 0.0
C1686 C 0.79677 0.98349 0.06979 0.0
C1687 C 0.76963 0.98184 0.04548 0.0
C1688 C 0.78956 -0.00369 0.03411 0.0
C1689 C 0.81297 0.00361 0.04054 0.0
C1690 C 0.81655 -0.0025 0.05821 0.0
C1691 C 0.78643 0.003 0.01512 0.0
C1692 C 0.77196 0.9845 0.00269 0.0
C1693 C 0.80047 0.02704 0.00858 0.0
C1694 C 0.81393 0.04774 0.0214 0.0
C1695 C 0.83863 0.06432 0.01855 0.0
C1696 C 0.85128 0.08354 0.0308 0.0
C1697 C 0.83942 0.08644 0.04595 0.0
C1698 C 0.81488 0.07014 0.04886 0.0
C1699 C 0.80214 0.0509 0.03665 0.0
H1700 H 0.84926 0.10131 0.05544 0.0
H1701 H 0.71666 0.9167 0.93732 0.0
H1702 H 0.01599 0.81687 0.92534 0.0
H1703 H 0.01879 0.80505 0.95686 0.0
H1704 H 0.94222 0.75372 0.95667 0.0
H1705 H 0.93933 0.76531 0.92486 0.0
H1706 H 0.95774 0.78752 0.98542 0.0
H1707 H 0.97934 0.73235 0.95929 0.0
H1708 H 0.00164 0.71934 0.93889 0.0
H1709 H 0.06843 0.7697 0.96519 0.0
H1710 H 0.0466 0.78329 0.9856 0.0
H1711 H 0.96346 0.76476 0.07788 0.0
H1712 H 0.95674 0.75408 0.0452 0.0
H1713 H 0.03313 0.79967 0.03477 0.0
H1714 H 0.04006 0.8095 0.06773 0.0
H1715 H 0.01373 0.762 0.01099 0.0
H1716 H -0.0049 0.8224 0.03216 0.0
H1717 H 0.97518 0.83864 0.05207 0.0
H1718 H 0.9055 0.78242 0.03384 0.0
H1719 H 0.92504 0.7656 0.01404 0.0
C1720 C -0.0002 0.80282 0.93192 0.0
C1721 C 0.97738 0.79219 0.92279 0.0
C1722 C 0.00148 0.79593 0.94986 0.0
C1723 C 0.98074 0.77843 0.95903 0.0
C1724 C 0.95844 0.76717 0.94974 0.0
C1725 C 0.95681 0.77381 0.93163 0.0
C1726 C 0.98206 0.77434 0.97896 0.0
C1727 C 0.96945 0.78129 0.99102 0.0
C1728 C -0.00192 0.76708 0.98617 0.0
C1729 C 0.01131 0.75892 0.97394 0.0
C1730 C -0.00119 0.74078 0.96066 0.0
C1731 C 0.01136 0.73325 0.94912 0.0
C1732 C 0.03642 0.74364 0.95077 0.0
C1733 C 0.049 0.76161 0.96396 0.0
C1734 C 0.03654 0.76921 0.97554 0.0
C1735 C 0.97889 0.77193 0.06868 0.0
C1736 C 0.00221 0.78819 0.07518 0.0
C1737 C 0.97504 0.76586 0.05003 0.0
C1738 C -0.00566 0.77661 0.03749 0.0
C1739 C 0.01797 0.79126 0.04421 0.0
C1740 C 0.02191 0.79692 0.063 0.0
C1741 C 0.98945 0.77527 0.01739 0.0
C1742 C 0.00155 0.76761 0.00536 0.0
C1743 C 0.9733 0.78234 0.01008 0.0
C1744 C 0.96151 0.79258 0.02179 0.0
C1745 C 0.97553 0.81341 0.03249 0.0
C1746 C 0.96431 0.82272 0.04375 0.0
C1747 C 0.93909 0.81153 0.04426 0.0
C1748 C 0.92503 0.79104 0.03346 0.0
C1749 C 0.93617 0.7816 0.02222 0.0
H1750 H 0.93043 0.81876 0.05298 0.0
H1751 H 0.04611 0.73782 0.9418 0.0
H1752 H 0.82277 0.52531 0.24178 0.0
H1753 H 0.83205 0.54091 0.27329 0.0
H1754 H 0.88732 0.52091 0.2768 0.0
H1755 H 0.87829 0.50543 0.2451 0.0
H1756 H 0.8531 0.50256 0.30513 0.0
H1757 H 0.9046 0.5785 0.27613 0.0
H1758 H 0.9153 0.61192 0.25425 0.0
H1759 H 0.86229 0.62594 0.27887 0.0
H1760 H 0.85099 0.59234 0.30074 0.0
H1761 H 0.88272 0.53882 0.39461 0.0
H1762 H 0.89131 0.54306 0.36157 0.0
H1763 H 0.83742 0.56422 0.35333 0.0
H1764 H 0.8295 0.56094 0.38669 0.0
H1765 H 0.87497 0.58479 0.32701 0.0
H1766 H 0.81966 0.50663 0.35253 0.0
H1767 H 0.80731 0.47297 0.3745 0.0
H1768 H 0.86506 0.46225 0.35553 0.0
H1769 H 0.87805 0.49619 0.33368 0.0
C1770 C 0.83705 0.52442 0.2492 0.0
C1771 C 0.84968 0.51396 0.24106 0.0
C1772 C 0.84247 0.53354 0.26712 0.0
C1773 C 0.86049 0.53223 0.27727 0.0
C1774 C 0.87344 0.5222 0.26909 0.0
C1775 C 0.86824 0.51333 0.25104 0.0
C1776 C 0.86395 0.53904 0.29699 0.0
C1777 C 0.85842 0.52067 0.3099 0.0
C1778 C 0.87005 0.56249 0.30313 0.0
C1779 C 0.8768 0.58273 0.28999 0.0
C1780 C 0.89505 0.58855 0.27678 0.0
C1781 C 0.90127 0.60757 0.2644 0.0
C1782 C 0.88945 0.62101 0.26514 0.0
C1783 C 0.87142 0.61549 0.2783 0.0
C1784 C 0.86512 0.59648 0.29071 0.0
C1785 C 0.87341 0.54529 0.38581 0.0
C1786 C 0.85532 0.54933 0.39301 0.0
C1787 C 0.8783 0.5477 0.36698 0.0
C1788 C 0.86457 0.55336 0.35499 0.0
C1789 C 0.84816 0.55977 0.36237 0.0
C1790 C 0.84362 0.55786 0.38138 0.0
C1791 C 0.86428 0.54832 0.33504 0.0
C1792 C 0.87008 0.56683 0.32216 0.0
C1793 C 0.85808 0.52487 0.32879 0.0
C1794 C 0.84998 0.5041 0.34161 0.0
C1795 C 0.82981 0.49718 0.35312 0.0
C1796 C 0.8227 0.47806 0.36556 0.0
C1797 C 0.83542 0.46551 0.36644 0.0
C1798 C 0.85524 0.47201 0.35485 0.0
C1799 C 0.8625 0.49119 0.34244 0.0
H1800 H 0.82989 0.45072 0.37607 0.0
H1801 H 0.89429 0.63573 0.25555 0.0
H1802 H 0.52256 0.35188 0.27708 0.0
H1803 H 0.5094 0.34007 0.3088 0.0
H1804 H 0.44376 0.34168 0.29766 0.0
H1805 H 0.45736 0.35435 0.2657 0.0
H1806 H 0.46134 0.35723 0.3335 0.0
H1807 H 0.44025 0.28871 0.29609 0.0
H1808 H 0.44615 0.26442 0.27237 0.0
H1809 H 0.50241 0.2645 0.30497 0.0
H1810 H 0.49713 0.28913 0.32876 0.0
H1811 H 0.43001 0.28997 0.42048 0.0
H1812 H 0.42492 0.29744 0.38788 0.0
H1813 H 0.49823 0.31454 0.37675 0.0
H1814 H 0.50352 0.30758 0.40905 0.0
H1815 H 0.46277 0.28257 0.3506 0.0
H1816 H 0.48816 0.35922 0.38386 0.0
H1817 H 0.48163 0.38358 0.40719 0.0
H1818 H 0.41363 0.3654 0.38208 0.0
H1819 H 0.4197 0.34075 0.35869 0.0
C1820 C 0.50556 0.35024 0.28149 0.0
C1821 C 0.49083 0.35375 0.26897 0.0
C1822 C 0.49801 0.34338 0.29957 0.0
C1823 C 0.47529 0.33931 0.30539 0.0
C1824 C 0.46125 0.34451 0.29334 0.0
C1825 C 0.46904 0.3518 0.27517 0.0
C1826 C 0.46603 0.32796 0.32362 0.0
C1827 C 0.46102 0.34058 0.33715 0.0
C1828 C 0.46529 0.30604 0.32832 0.0
C1829 C 0.46831 0.29084 0.3142 0.0
C1830 C 0.45395 0.28365 0.29817 0.0
C1831 C 0.4572 0.26982 0.28471 0.0
C1832 C 0.47465 0.26293 0.28716 0.0
C1833 C 0.48888 0.26983 0.3031 0.0
C1834 C 0.48573 0.28369 0.3166 0.0
C1835 C 0.44486 0.29501 0.41096 0.0
C1836 C 0.46716 0.29821 0.41721 0.0
C1837 C 0.44197 0.29937 0.39244 0.0
C1838 C 0.46124 0.30657 0.38 0.0
C1839 C 0.48316 0.30895 0.38616 0.0
C1840 C 0.48617 0.30501 0.4046 0.0
C1841 C 0.45942 0.31252 0.3606 0.0
C1842 C 0.46227 0.29877 0.3468 0.0
C1843 C 0.45779 0.33312 0.35567 0.0
C1844 C 0.45426 0.34799 0.36967 0.0
C1845 C 0.47175 0.3603 0.3834 0.0
C1846 C 0.46816 0.3742 0.3966 0.0
C1847 C 0.44724 0.37605 0.3961 0.0
C1848 C 0.42984 0.36398 0.38243 0.0
C1849 C 0.43335 0.35006 0.3692 0.0
H1850 H 0.4445 0.38683 0.40632 0.0
H1851 H 0.47715 0.25224 0.27672 0.0
H1852 H 0.62289 0.10497 0.42943 0.0
H1853 H 0.62447 0.09941 0.3962 0.0
H1854 H 0.70199 0.14592 0.3971 0.0
H1855 H 0.70057 0.15157 0.43039 0.0
H1856 H 0.67883 0.1606 0.37259 0.0
H1857 H 0.679 0.08798 0.3879 0.0
H1858 H 0.66437 0.0489 0.40366 0.0
H1859 H 0.59638 0.01987 0.3753 0.0
H1860 H 0.6104 0.05897 0.35965 0.0
H1861 H 0.69433 0.1548 0.27817 0.0
H1862 H 0.69746 0.14873 0.31104 0.0
H1863 H 0.62063 0.09865 0.31332 0.0
H1864 H 0.6175 0.1041 0.28011 0.0
H1865 H 0.6454 0.08462 0.33627 0.0
H1866 H 0.6424 0.1572 0.3244 0.0
H1867 H 0.65492 0.19654 0.30965 0.0
H1868 H 0.72615 0.22548 0.33261 0.0
H1869 H 0.71414 0.18617 0.34729 0.0
C1870 C 0.64032 0.11369 0.4226 0.0
C1871 C 0.66157 0.12898 0.43243 0.0
C1872 C 0.6412 0.11037 0.40365 0.0
C1873 C 0.66334 0.12228 0.39423 0.0
C1874 C 0.68473 0.1366 0.40417 0.0
C1875 C 0.68389 0.13978 0.42316 0.0
C1876 C 0.66376 0.12198 0.37384 0.0
C1877 C 0.67202 0.14404 0.36464 0.0
C1878 C 0.65405 0.10024 0.36357 0.0
C1879 C 0.64571 0.07652 0.3727 0.0
C1880 C 0.66086 0.07334 0.38512 0.0
C1881 C 0.65268 0.05117 0.39403 0.0
C1882 C 0.62945 0.03193 0.39051 0.0
C1883 C 0.61437 0.0348 0.37802 0.0
C1884 C 0.62243 0.05697 0.36912 0.0
C1885 C 0.67813 0.14227 0.28561 0.0
C1886 C 0.65559 0.13022 0.27667 0.0
C1887 C 0.67995 0.1388 0.30439 0.0
C1888 C 0.6592 0.12363 0.31469 0.0
C1889 C 0.63685 0.1105 0.30562 0.0
C1890 C 0.63507 0.11371 0.28669 0.0
C1891 C 0.6606 0.12328 0.33509 0.0
C1892 C 0.65253 0.10117 0.34426 0.0
C1893 C 0.67024 0.14496 0.34546 0.0
C1894 C 0.67745 0.16868 0.33678 0.0
C1895 C 0.66078 0.17191 0.3262 0.0
C1896 C 0.66778 0.1942 0.31786 0.0
C1897 C 0.69134 0.21348 0.32015 0.0
C1898 C 0.70793 0.21052 0.33083 0.0
C1899 C 0.70103 0.18824 0.33916 0.0
H1900 H 0.69672 0.23073 0.31369 0.0
H1901 H 0.62314 0.01478 0.39742 0.0
H1902 H 0.5072 0.87615 0.57568 0.0
H1903 H 0.51489 0.88415 0.60866 0.0
H1904 H 0.559 0.85038 0.60828 0.0
H1905 H 0.55148 0.8424 0.57513 0.0
H1906 H 0.52181 0.83095 0.63399 0.0
H1907 H 0.58587 0.90929 0.61664 0.0
H1908 H 0.60458 0.94816 0.59998 0.0
H1909 H 0.55485 0.96614 0.62553 0.0
H1910 H 0.53579 0.92734 0.64233 0.0
H1911 H 0.54209 0.84542 0.72861 0.0
H1912 H 0.55149 0.85054 0.69572 0.0
H1913 H 0.51479 0.89162 0.69016 0.0
H1914 H 0.50635 0.8875 0.72342 0.0
H1915 H 0.55249 0.90889 0.66725 0.0
H1916 H 0.48561 0.8301 0.68151 0.0
H1917 H 0.46482 0.7909 0.69772 0.0
H1918 H 0.51689 0.77297 0.67675 0.0
H1919 H 0.5382 0.81223 0.66061 0.0
C1920 C 0.51883 0.87073 0.58256 0.0
C1921 C 0.52851 0.85839 0.57291 0.0
C1922 C 0.52335 0.87549 0.60136 0.0
C1923 C 0.53757 0.86793 0.61087 0.0
C1924 C 0.54803 0.85641 0.60114 0.0
C1925 C 0.54372 0.85187 0.58224 0.0
C1926 C 0.53913 0.86965 0.63123 0.0
C1927 C 0.52905 0.84803 0.64129 0.0
C1928 C 0.54778 0.89189 0.64065 0.0
C1929 C 0.55929 0.91532 0.63066 0.0
C1930 C 0.57881 0.92146 0.61862 0.0
C1931 C 0.58951 0.94349 0.60917 0.0
C1932 C 0.58083 0.95955 0.61162 0.0
C1933 C 0.56154 0.95367 0.62362 0.0
C1934 C 0.55083 0.93169 0.63317 0.0
C1935 C 0.53635 0.85586 0.72041 0.0
C1936 C 0.52319 0.86576 0.72843 0.0
C1937 C 0.54169 0.85874 0.70163 0.0
C1938 C 0.53327 0.87089 0.69038 0.0
C1939 C 0.52134 0.88205 0.69856 0.0
C1940 C 0.51646 0.87963 0.71752 0.0
C1941 C 0.53515 0.87014 0.67 0.0
C1942 C 0.54564 0.89185 0.65996 0.0
C1943 C 0.52656 0.84792 0.66048 0.0
C1944 C 0.51363 0.82419 0.67001 0.0
C1945 C 0.49271 0.81785 0.68045 0.0
C1946 C 0.48082 0.79563 0.68961 0.0
C1947 C 0.48957 0.77948 0.6883 0.0
C1948 C 0.51017 0.78551 0.67777 0.0
C1949 C 0.52214 0.80774 0.66861 0.0
H1950 H 0.48035 0.76229 0.69541 0.0
H1951 H 0.58911 0.97657 0.60425 0.0
H1952 H 0.13501 0.64857 0.60311 0.0
H1953 H 0.12381 0.64564 0.63562 0.0
H1954 H 0.14164 0.72037 0.63523 0.0
H1955 H 0.15245 0.72331 0.6024 0.0
H1956 H 0.16545 0.70685 0.66288 0.0
H1957 H 0.0859 0.68192 0.64049 0.0
H1958 H 0.04958 0.6581 0.62139 0.0
H1959 H 0.03859 0.59258 0.64681 0.0
H1960 H 0.07508 0.61597 0.66588 0.0
H1961 H 0.14257 0.70071 0.75685 0.0
H1962 H 0.13748 0.70733 0.72436 0.0
H1963 H 0.10629 0.63086 0.71388 0.0
H1964 H 0.11027 0.62406 0.74668 0.0
H1965 H 0.08665 0.64904 0.69141 0.0
H1966 H 0.16755 0.6705 0.70903 0.0
H1967 H 0.20517 0.69154 0.72724 0.0
H1968 H 0.2153 0.76022 0.70952 0.0
H1969 H 0.17751 0.73957 0.69142 0.0
C1970 C 0.13626 0.66431 0.60988 0.0
C1971 C 0.14474 0.68623 0.60031 0.0
C1972 C 0.1297 0.66255 0.62839 0.0
C1973 C 0.13176 0.68273 0.63773 0.0
C1974 C 0.13978 0.70456 0.62815 0.0
C1975 C 0.14595 0.70622 0.60947 0.0
C1976 C 0.12785 0.68144 0.65789 0.0
C1977 C 0.14809 0.69471 0.66917 0.0
C1978 C 0.10538 0.66487 0.66593 0.0
C1979 C 0.08335 0.65072 0.65453 0.0
C1980 C 0.07587 0.66242 0.64191 0.0
C1981 C 0.05522 0.64899 0.6311 0.0
C1982 C 0.04181 0.62384 0.63286 0.0
C1983 C 0.049 0.61207 0.64546 0.0
C1984 C 0.06965 0.62541 0.65629 0.0
C1985 C 0.13406 0.68526 0.74767 0.0
C1986 C 0.1271 0.66194 0.75411 0.0
C1987 C 0.13124 0.68905 0.72912 0.0
C1988 C 0.12219 0.6697 0.71659 0.0
C1989 C 0.11347 0.64609 0.72328 0.0
C1990 C 0.11577 0.64221 0.74199 0.0
C1991 C 0.12432 0.6744 0.69643 0.0
C1992 C 0.10388 0.66162 0.68515 0.0
C1993 C 0.14678 0.69104 0.68827 0.0
C1994 C 0.16957 0.70351 0.69906 0.0
C1995 C 0.17772 0.6901 0.70913 0.0
C1996 C 0.19907 0.70195 0.71942 0.0
C1997 C 0.21258 0.7272 0.71958 0.0
C1998 C 0.20479 0.74066 0.70942 0.0
C1999 C 0.1834 0.7289 0.69914 0.0
H2000 H 0.22911 0.73635 0.72755 0.0
H2001 H 0.02583 0.61348 0.62449 0.0
H2002 H 0.29592 0.42254 0.58351 0.0
H2003 H 0.30062 0.41597 0.61634 0.0
H2004 H 0.35719 0.49056 0.62125 0.0
H2005 H 0.35324 0.49688 0.58883 0.0
H2006 H 0.36927 0.46474 0.64066 0.0
H2007 H 0.29548 0.46933 0.63267 0.0
H2008 H 0.25444 0.45532 0.62049 0.0
H2009 H 0.22924 0.38588 0.64569 0.0
H2010 H 0.27023 0.39945 0.65786 0.0
H2011 H 0.32612 0.49727 0.72873 0.0
H2012 H 0.32002 0.48295 0.69705 0.0
H2013 H 0.36108 0.44714 0.70775 0.0
H2014 H 0.36805 0.46235 0.73959 0.0
H2015 H 0.29842 0.44127 0.68126 0.0
H2016 H 0.38957 0.44698 0.66762 0.0
H2017 H 0.4316 0.46802 0.67922 0.0
H2018 H 0.42364 0.52807 0.69655 0.0
H2019 H 0.38169 0.50749 0.68488 0.0
C2020 C 0.30948 0.43738 0.59163 0.0
C2021 C 0.32404 0.46026 0.58363 0.0
C2022 C 0.31215 0.43363 0.61035 0.0
C2023 C 0.32916 0.45283 0.62133 0.0
C2024 C 0.34408 0.47539 0.61311 0.0
C2025 C 0.34164 0.47903 0.59452 0.0
C2026 C 0.33073 0.45059 0.64161 0.0
C2027 C 0.35369 0.4592 0.64955 0.0
C2028 C 0.31048 0.44343 0.65326 0.0
C2029 C 0.28592 0.43527 0.64593 0.0
C2030 C 0.2812 0.45102 0.63549 0.0
C2031 C 0.25796 0.44318 0.62861 0.0
C2032 C 0.23926 0.41969 0.63226 0.0
C2033 C 0.24376 0.40403 0.64283 0.0
C2034 C 0.26698 0.41179 0.64972 0.0
C2035 C 0.33388 0.48635 0.72438 0.0
C2036 C 0.34775 0.48111 0.73658 0.0
C2037 C 0.33021 0.47799 0.70627 0.0
C2038 C 0.34009 0.46397 0.69995 0.0
C2039 C 0.35351 0.45817 0.71224 0.0
C2040 C 0.35752 0.46689 0.73039 0.0
C2041 C 0.33716 0.45681 0.6802 0.0
C2042 C 0.3139 0.44609 0.67241 0.0
C2043 C 0.35727 0.46298 0.66862 0.0
C2044 C 0.38244 0.47554 0.67564 0.0
C2045 C 0.39683 0.46467 0.67391 0.0
C2046 C 0.42062 0.47652 0.68048 0.0
C2047 C 0.43024 0.49931 0.68869 0.0
C2048 C 0.41613 0.51036 0.69027 0.0
C2049 C 0.39235 0.49861 0.6837 0.0
H2050 H 0.44866 0.50845 0.69378 0.0
H2051 H 0.22128 0.41365 0.62693 0.0
loop_
_geom_bond_atom_site_label_1
_geom_bond_atom_site_label_2
_geom_bond_distance
_geom_bond_site_symmetry_2
_ccdc_geom_bond_type
C0 O1 1.306 . S
C0 O3 1.160 . S
O1 C0 1.306 . S
O1 Cd2 2.228 . S
Cd2 O1 2.228 . S
Cd2 O6 2.273 . S
Cd2 O10 2.277 . S
O3 C0 1.160 . S
O3 Cd4 2.203 . S
Cd4 O3 2.203 . S
Cd4 O6 2.411 . S
Cd4 O7 2.333 . S
Cd4 O8 2.352 . S
Cd4 O12 2.277 . S
Cd4 O13 2.356 . S
C5 O10 1.209 . S
C5 O12 1.226 . S
O6 Cd2 2.273 . S
O6 Cd4 2.411 . S
O6 C9 1.320 . S
O7 Cd4 2.333 . S
O7 C9 1.214 . S
O8 Cd4 2.352 . S
O8 C11 1.258 . S
C9 O6 1.320 . S
C9 O7 1.214 . S
O10 Cd2 2.277 . S
O10 C5 1.209 . S
C11 O8 1.258 . S
C11 O13 1.282 . S
O12 Cd4 2.277 . S
O12 C5 1.226 . S
O13 Cd4 2.356 . S
O13 C11 1.282 . S
C14 O15 1.306 . S
C14 O17 1.160 . S
O15 C14 1.306 . S
O15 Cd16 2.228 . S
Cd16 O15 2.228 . S
Cd16 O20 2.273 . S
Cd16 O24 2.277 1_545 S
O17 C14 1.160 . S
O17 Cd18 2.203 . S
Cd18 O17 2.203 . S
Cd18 O20 2.411 . S
Cd18 O21 2.333 1_545 S
Cd18 O22 2.352 . S
Cd18 O26 2.277 1_545 S
Cd18 O27 2.356 . S
C19 O24 1.209 . S
C19 O26 1.226 . S
O20 Cd16 2.273 . S
O20 Cd18 2.411 . S
O20 C23 1.320 1_545 S
O21 Cd18 2.333 1_565 S
O21 C23 1.214 . S
O22 Cd18 2.352 . S
O22 C25 1.258 . S
C23 O20 1.320 1_565 S
C23 O21 1.214 . S
O24 Cd16 2.277 1_565 S
O24 C19 1.209 . S
C25 O22 1.258 . S
C25 O27 1.282 . S
O26 Cd18 2.277 1_565 S
O26 C19 1.226 . S
O27 Cd18 2.356 . S
O27 C25 1.282 . S
C28 O29 1.306 . S
C28 O31 1.160 . S
O29 C28 1.306 . S
O29 Cd30 2.228 . S
Cd30 O29 2.228 . S
Cd30 O34 2.273 . S
Cd30 O38 2.277 1_655 S
O31 C28 1.160 . S
O31 Cd32 2.220 . S
Cd32 O31 2.220 . S
Cd32 O34 2.416 . S
Cd32 O35 2.321 1_655 S
Cd32 O36 2.358 . S
Cd32 O40 2.266 1_655 S
Cd32 O41 2.347 1_655 S
C33 O38 1.209 . S
C33 O40 1.226 . S
O34 Cd30 2.273 . S
O34 Cd32 2.416 . S
O34 C37 1.320 1_655 S
O35 Cd32 2.321 1_455 S
O35 C37 1.214 . S
O36 Cd32 2.358 . S
O36 C39 1.258 . S
C37 O34 1.320 1_455 S
C37 O35 1.214 . S
O38 Cd30 2.277 1_455 S
O38 C33 1.209 . S
C39 O36 1.258 . S
C39 O41 1.282 1_655 S
O40 Cd32 2.266 1_455 S
O40 C33 1.226 . S
O41 Cd32 2.347 1_455 S
O41 C39 1.282 1_455 S
C42 O43 1.306 . S
C42 O45 1.160 . S
O43 C42 1.306 . S
O43 Cd44 2.228 . S
Cd44 O43 2.228 . S
Cd44 O48 2.273 . S
Cd44 O52 2.277 . S
O45 C42 1.160 . S
O45 Cd46 2.203 . S
Cd46 O45 2.203 . S
Cd46 O48 2.411 . S
Cd46 O49 2.333 . S
Cd46 O50 2.352 . S
Cd46 O54 2.277 . S
Cd46 O55 2.356 . S
C47 O52 1.209 . S
C47 O54 1.226 . S
O48 Cd44 2.273 . S
O48 Cd46 2.411 . S
O48 C51 1.320 . S
O49 Cd46 2.333 . S
O49 C51 1.214 . S
O50 Cd46 2.352 . S
O50 C53 1.258 . S
C51 O48 1.320 . S
C51 O49 1.214 . S
O52 Cd44 2.277 . S
O52 C47 1.209 . S
C53 O50 1.258 . S
C53 O55 1.282 . S
O54 Cd46 2.277 . S
O54 C47 1.226 . S
O55 Cd46 2.356 . S
O55 C53 1.282 . S
C56 O57 1.306 . S
C56 O59 1.160 . S
O57 C56 1.306 . S
O57 Cd58 2.228 . S
Cd58 O57 2.228 . S
Cd58 O62 2.273 . S
Cd58 O66 2.277 1_565 S
O59 C56 1.160 . S
O59 Cd60 2.217 . S
Cd60 O59 2.217 . S
Cd60 O62 2.415 . S
Cd60 O63 2.323 1_565 S
Cd60 O64 2.357 . S
Cd60 O68 2.268 1_565 S
Cd60 O69 2.349 1_565 S
C61 O66 1.209 . S
C61 O68 1.226 . S
O62 Cd58 2.273 . S
O62 Cd60 2.415 . S
O62 C65 1.320 1_565 S
O63 Cd60 2.323 1_545 S
O63 C65 1.214 . S
O64 Cd60 2.357 . S
O64 C67 1.258 . S
C65 O62 1.320 1_545 S
C65 O63 1.214 . S
O66 Cd58 2.277 1_545 S
O66 C61 1.209 . S
C67 O64 1.258 . S
C67 O69 1.282 1_565 S
O68 Cd60 2.268 1_545 S
O68 C61 1.226 . S
O69 Cd60 2.349 1_545 S
O69 C67 1.282 1_545 S
C70 O71 1.306 . S
C70 O73 1.160 . S
O71 C70 1.306 . S
O71 Cd72 2.228 . S
Cd72 O71 2.228 . S
Cd72 O76 2.273 . S
Cd72 O80 2.277 1_455 S
O73 C70 1.160 . S
O73 Cd74 2.203 . S
Cd74 O73 2.203 . S
Cd74 O76 2.411 . S
Cd74 O77 2.333 1_455 S
Cd74 O78 2.352 . S
Cd74 O82 2.277 1_455 S
Cd74 O83 2.356 . S
C75 O80 1.209 . S
C75 O82 1.226 . S
O76 Cd72 2.273 . S
O76 Cd74 2.411 . S
O76 C79 1.320 1_455 S
O77 Cd74 2.333 1_655 S
O77 C79 1.214 . S
O78 Cd74 2.352 . S
O78 C81 1.258 . S
C79 O76 1.320 1_655 S
C79 O77 1.214 . S
O80 Cd72 2.277 1_655 S
O80 C75 1.209 . S
C81 O78 1.258 . S
C81 O83 1.282 . S
O82 Cd74 2.277 1_655 S
O82 C75 1.226 . S
O83 Cd74 2.356 . S
O83 C81 1.282 . S
C84 O85 1.306 . S
C84 O87 1.160 . S
O85 C84 1.306 . S
O85 Cd86 2.228 . S
Cd86 O85 2.228 . S
Cd86 O90 2.273 . S
Cd86 O94 2.277 . S
O87 C84 1.160 . S
O87 Cd88 2.203 . S
Cd88 O87 2.203 . S
Cd88 O90 2.411 . S
Cd88 O91 2.333 . S
Cd88 O92 2.352 . S
Cd88 O96 2.277 . S
Cd88 O97 2.356 . S
C89 O94 1.209 . S
C89 O96 1.226 . S
O90 Cd86 2.273 . S
O90 Cd88 2.411 . S
O90 C93 1.320 . S
O91 Cd88 2.333 . S
O91 C93 1.214 . S
O92 Cd88 2.352 . S
O92 C95 1.258 . S
C93 O90 1.320 . S
C93 O91 1.214 . S
O94 Cd86 2.277 . S
O94 C89 1.209 . S
C95 O92 1.258 . S
C95 O97 1.282 . S
O96 Cd88 2.277 . S
O96 C89 1.226 . S
O97 Cd88 2.356 . S
O97 C95 1.282 . S
C98 O99 1.306 . S
C98 O101 1.160 . S
O99 C98 1.306 . S
O99 Cd100 2.228 . S
Cd100 O99 2.228 . S
Cd100 O104 2.273 . S
Cd100 O108 2.277 . S
O101 C98 1.160 . S
O101 Cd102 2.203 . S
Cd102 O101 2.203 . S
Cd102 O104 2.411 . S
Cd102 O105 2.333 . S
Cd102 O106 2.352 . S
Cd102 O110 2.277 . S
Cd102 O111 2.356 . S
C103 O108 1.209 . S
C103 O110 1.226 . S
O104 Cd100 2.273 . S
O104 Cd102 2.411 . S
O104 C107 1.320 . S
O105 Cd102 2.333 . S
O105 C107 1.214 . S
O106 Cd102 2.352 . S
O106 C109 1.258 . S
C107 O104 1.320 . S
C107 O105 1.214 . S
O108 Cd100 2.277 . S
O108 C103 1.209 . S
C109 O106 1.258 . S
C109 O111 1.282 . S
O110 Cd102 2.277 . S
O110 C103 1.226 . S
O111 Cd102 2.356 . S
O111 C109 1.282 . S
C112 O113 1.306 . S
C112 O115 1.160 . S
O113 C112 1.306 . S
O113 Cd114 2.228 . S
Cd114 O113 2.228 . S
Cd114 O118 2.273 . S
Cd114 O122 2.277 . S
O115 C112 1.160 . S
O115 Cd116 2.203 . S
Cd116 O115 2.203 . S
Cd116 O118 2.411 . S
Cd116 O119 2.333 . S
Cd116 O120 2.352 . S
Cd116 O124 2.277 . S
Cd116 O125 2.356 . S
C117 O122 1.209 . S
C117 O124 1.226 . S
O118 Cd114 2.273 . S
O118 Cd116 2.411 . S
O118 C121 1.320 . S
O119 Cd116 2.333 . S
O119 C121 1.214 . S
O120 Cd116 2.352 . S
O120 C123 1.258 . S
C121 O118 1.320 . S
C121 O119 1.214 . S
O122 Cd114 2.277 . S
O122 C117 1.209 . S
C123 O120 1.258 . S
C123 O125 1.282 . S
O124 Cd116 2.277 . S
O124 C117 1.226 . S
O125 Cd116 2.356 . S
O125 C123 1.282 . S
C126 O127 1.306 . S
C126 O129 1.160 . S
O127 C126 1.306 . S
O127 Cd128 2.228 . S
Cd128 O127 2.228 . S
Cd128 O132 2.273 . S
Cd128 O136 2.277 . S
O129 C126 1.160 . S
O129 Cd130 2.203 . S
Cd130 O129 2.203 . S
Cd130 O132 2.411 . S
Cd130 O133 2.333 . S
Cd130 O134 2.352 . S
Cd130 O138 2.277 . S
Cd130 O139 2.356 . S
C131 O136 1.209 . S
C131 O138 1.226 . S
O132 Cd128 2.273 . S
O132 Cd130 2.411 . S
O132 C135 1.320 . S
O133 Cd130 2.333 . S
O133 C135 1.214 . S
O134 Cd130 2.352 . S
O134 C137 1.258 . S
C135 O132 1.320 . S
C135 O133 1.214 . S
O136 Cd128 2.277 . S
O136 C131 1.209 . S
C137 O134 1.258 . S
C137 O139 1.282 . S
O138 Cd130 2.277 . S
O138 C131 1.226 . S
O139 Cd130 2.356 . S
O139 C137 1.282 . S
C140 O141 1.306 . S
C140 O143 1.160 . S
O141 C140 1.306 . S
O141 Cd142 2.228 . S
Cd142 O141 2.228 . S
Cd142 O146 2.273 . S
Cd142 O150 2.277 . S
O143 C140 1.160 . S
O143 Cd144 2.203 . S
Cd144 O143 2.203 . S
Cd144 O146 2.411 . S
Cd144 O147 2.333 . S
Cd144 O148 2.352 . S
Cd144 O152 2.277 . S
Cd144 O153 2.356 . S
C145 O150 1.209 . S
C145 O152 1.226 . S
O146 Cd142 2.273 . S
O146 Cd144 2.411 . S
O146 C149 1.320 . S
O147 Cd144 2.333 . S
O147 C149 1.214 . S
O148 Cd144 2.352 . S
O148 C151 1.258 . S
C149 O146 1.320 . S
C149 O147 1.214 . S
O150 Cd142 2.277 . S
O150 C145 1.209 . S
C151 O148 1.258 . S
C151 O153 1.282 . S
O152 Cd144 2.277 . S
O152 C145 1.226 . S
O153 Cd144 2.356 . S
O153 C151 1.282 . S
C154 O155 1.306 . S
C154 O157 1.160 . S
O155 C154 1.306 . S
O155 Cd156 2.228 . S
Cd156 O155 2.228 . S
Cd156 O160 2.273 . S
Cd156 O164 2.277 . S
O157 C154 1.160 . S
O157 Cd158 2.203 . S
Cd158 O157 2.203 . S
Cd158 O160 2.411 . S
Cd158 O161 2.333 . S
Cd158 O162 2.352 . S
Cd158 O166 2.277 . S
Cd158 O167 2.356 . S
C159 O164 1.209 . S
C159 O166 1.226 . S
O160 Cd156 2.273 . S
O160 Cd158 2.411 . S
O160 C163 1.320 . S
O161 Cd158 2.333 . S
O161 C163 1.214 . S
O162 Cd158 2.352 . S
O162 C165 1.258 . S
C163 O160 1.320 . S
C163 O161 1.214 . S
O164 Cd156 2.277 . S
O164 C159 1.209 . S
C165 O162 1.258 . S
C165 O167 1.282 . S
O166 Cd158 2.277 . S
O166 C159 1.226 . S
O167 Cd158 2.356 . S
O167 C165 1.282 . S
C168 O169 1.306 . S
C168 O171 1.160 . S
O169 C168 1.306 . S
O169 Cd170 2.228 . S
Cd170 O169 2.228 . S
Cd170 O174 2.273 . S
Cd170 O178 2.277 . S
O171 C168 1.160 . S
O171 Cd172 2.203 . S
Cd172 O171 2.203 . S
Cd172 O174 2.411 . S
Cd172 O175 2.333 . S
Cd172 O176 2.352 . S
Cd172 O180 2.277 . S
Cd172 O181 2.356 . S
C173 O178 1.209 . S
C173 O180 1.226 . S
O174 Cd170 2.273 . S
O174 Cd172 2.411 . S
O174 C177 1.320 . S
O175 Cd172 2.333 . S
O175 C177 1.214 . S
O176 Cd172 2.352 . S
O176 C179 1.258 . S
C177 O174 1.320 . S
C177 O175 1.214 . S
O178 Cd170 2.277 . S
O178 C173 1.209 . S
C179 O176 1.258 . S
C179 O181 1.282 . S
O180 Cd172 2.277 . S
O180 C173 1.226 . S
O181 Cd172 2.356 . S
O181 C179 1.282 . S
C182 O183 1.306 . S
C182 O185 1.160 . S
O183 C182 1.306 . S
O183 Cd184 2.228 . S
Cd184 O183 2.228 . S
Cd184 O188 2.273 . S
Cd184 O192 2.277 . S
O185 C182 1.160 . S
O185 Cd186 2.203 . S
Cd186 O185 2.203 . S
Cd186 O188 2.411 . S
Cd186 O189 2.333 . S
Cd186 O190 2.352 . S
Cd186 O194 2.277 . S
Cd186 O195 2.356 . S
C187 O192 1.209 . S
C187 O194 1.226 . S
O188 Cd184 2.273 . S
O188 Cd186 2.411 . S
O188 C191 1.320 . S
O189 Cd186 2.333 . S
O189 C191 1.214 . S
O190 Cd186 2.352 . S
O190 C193 1.258 . S
C191 O188 1.320 . S
C191 O189 1.214 . S
O192 Cd184 2.277 . S
O192 C187 1.209 . S
C193 O190 1.258 . S
C193 O195 1.282 . S
O194 Cd186 2.277 . S
O194 C187 1.226 . S
O195 Cd186 2.356 . S
O195 C193 1.282 . S
C196 O197 1.306 . S
C196 O199 1.160 . S
O197 C196 1.306 . S
O197 Cd198 2.228 . S
Cd198 O197 2.228 . S
Cd198 O202 2.273 . S
Cd198 O206 2.277 . S
O199 C196 1.160 . S
O199 Cd200 2.203 . S
Cd200 O199 2.203 . S
Cd200 O202 2.411 . S
Cd200 O203 2.333 . S
Cd200 O204 2.352 . S
Cd200 O208 2.277 . S
Cd200 O209 2.356 . S
C201 O206 1.209 . S
C201 O208 1.226 . S
O202 Cd198 2.273 . S
O202 Cd200 2.411 . S
O202 C205 1.320 . S
O203 Cd200 2.333 . S
O203 C205 1.214 . S
O204 Cd200 2.352 . S
O204 C207 1.258 . S
C205 O202 1.320 . S
C205 O203 1.214 . S
O206 Cd198 2.277 . S
O206 C201 1.209 . S
C207 O204 1.258 . S
C207 O209 1.282 . S
O208 Cd200 2.277 . S
O208 C201 1.226 . S
O209 Cd200 2.356 . S
O209 C207 1.282 . S
C210 O211 1.306 . S
C210 O213 1.160 . S
O211 C210 1.306 . S
O211 Cd212 2.228 . S
Cd212 O211 2.228 . S
Cd212 O216 2.273 . S
Cd212 O220 2.277 . S
O213 C210 1.160 . S
O213 Cd214 2.203 . S
Cd214 O213 2.203 . S
Cd214 O216 2.411 . S
Cd214 O217 2.333 . S
Cd214 O218 2.352 . S
Cd214 O222 2.277 . S
Cd214 O223 2.356 . S
C215 O220 1.209 . S
C215 O222 1.226 . S
O216 Cd212 2.273 . S
O216 Cd214 2.411 . S
O216 C219 1.320 . S
O217 Cd214 2.333 . S
O217 C219 1.214 . S
O218 Cd214 2.352 . S
O218 C221 1.258 . S
C219 O216 1.320 . S
C219 O217 1.214 . S
O220 Cd212 2.277 . S
O220 C215 1.209 . S
C221 O218 1.258 . S
C221 O223 1.282 . S
O222 Cd214 2.277 . S
O222 C215 1.226 . S
O223 Cd214 2.356 . S
O223 C221 1.282 . S
C224 O225 1.306 . S
C224 O227 1.160 . S
O225 C224 1.306 . S
O225 Cd226 2.228 . S
Cd226 O225 2.228 . S
Cd226 O230 2.273 . S
Cd226 O234 2.277 . S
O227 C224 1.160 . S
O227 Cd228 2.203 . S
Cd228 O227 2.203 . S
Cd228 O230 2.411 . S
Cd228 O231 2.333 . S
Cd228 O232 2.352 . S
Cd228 O236 2.277 . S
Cd228 O237 2.356 . S
C229 O234 1.209 . S
C229 O236 1.226 . S
O230 Cd226 2.273 . S
O230 Cd228 2.411 . S
O230 C233 1.320 . S
O231 Cd228 2.333 . S
O231 C233 1.214 . S
O232 Cd228 2.352 . S
O232 C235 1.258 . S
C233 O230 1.320 . S
C233 O231 1.214 . S
O234 Cd226 2.277 . S
O234 C229 1.209 . S
C235 O232 1.258 . S
C235 O237 1.282 . S
O236 Cd228 2.277 . S
O236 C229 1.226 . S
O237 Cd228 2.356 . S
O237 C235 1.282 . S
C238 O239 1.306 . S
C238 O241 1.160 . S
O239 C238 1.306 . S
O239 Cd240 2.228 . S
Cd240 O239 2.228 . S
Cd240 O244 2.273 . S
Cd240 O248 2.277 . S
O241 C238 1.160 . S
O241 Cd242 2.203 . S
Cd242 O241 2.203 . S
Cd242 O244 2.411 . S
Cd242 O245 2.333 . S
Cd242 O246 2.352 . S
Cd242 O250 2.277 . S
Cd242 O251 2.356 . S
C243 O248 1.209 . S
C243 O250 1.226 . S
O244 Cd240 2.273 . S
O244 Cd242 2.411 . S
O244 C247 1.320 . S
O245 Cd242 2.333 . S
O245 C247 1.214 . S
O246 Cd242 2.352 . S
O246 C249 1.258 . S
C247 O244 1.320 . S
C247 O245 1.214 . S
O248 Cd240 2.277 . S
O248 C243 1.209 . S
C249 O246 1.258 . S
C249 O251 1.282 . S
O250 Cd242 2.277 . S
O250 C243 1.226 . S
O251 Cd242 2.356 . S
O251 C249 1.282 . S
H252 C270 0.951 . S
H253 C272 0.951 . S
H254 C274 0.950 . S
H255 C275 0.950 . S
H256 C277 0.950 . S
H257 C280 0.950 . S
H258 C281 0.950 . S
H259 C283 0.950 . S
H260 C284 0.950 . S
H261 C285 0.951 . S
H262 C287 0.951 . S
H263 C289 0.950 . S
H264 C290 0.950 . S
H265 C292 0.950 . S
H266 C295 0.950 . S
H267 C296 0.950 . S
H268 C298 0.950 . S
H269 C299 0.950 . S
C270 H252 0.951 . S
C270 C271 1.366 . S
C270 C272 1.388 . S
C271 C270 1.366 . S
C271 C275 1.385 . S
C272 H253 0.951 . S
C272 C270 1.388 . S
C272 C273 1.366 . S
C273 C272 1.366 . S
C273 C274 1.414 . S
C273 C276 1.499 . S
C274 H254 0.950 . S
C274 C273 1.414 . S
C274 C275 1.374 . S
C275 H255 0.950 . S
C275 C271 1.385 . S
C275 C274 1.374 . S
C276 C273 1.499 . S
C276 C277 1.373 . S
C276 C278 1.389 . S
C277 H256 0.950 . S
C277 C276 1.373 . S
C277 C293 1.377 . S
C278 C276 1.389 . S
C278 C279 1.524 . S
C278 C292 1.377 . S
C279 C278 1.524 . S
C279 C280 1.397 . S
C279 C284 1.363 . S
C280 H257 0.950 . S
C280 C279 1.397 . S
C280 C281 1.334 . S
C281 H258 0.950 . S
C281 C280 1.334 . S
C281 C282 1.287 . S
C282 C281 1.287 . S
C282 C283 1.524 . S
C282 H301 0.913 . S
C283 H259 0.950 . S
C283 C282 1.524 . S
C283 C284 1.415 . S
C284 H260 0.950 . S
C284 C279 1.363 . S
C284 C283 1.415 . S
C285 H261 0.951 . S
C285 C286 1.366 . S
C285 C287 1.388 . S
C286 C285 1.366 . S
C286 C290 1.385 . S
C287 H262 0.951 . S
C287 C285 1.388 . S
C287 C288 1.366 . S
C288 C287 1.366 . S
C288 C289 1.414 . S
C288 C291 1.499 . S
C289 H263 0.950 . S
C289 C288 1.414 . S
C289 C290 1.374 . S
C290 H264 0.950 . S
C290 C286 1.385 . S
C290 C289 1.374 . S
C291 C288 1.499 . S
C291 C292 1.373 . S
C291 C293 1.389 . S
C292 H265 0.950 . S
C292 C278 1.377 . S
C292 C291 1.373 . S
C293 C277 1.377 . S
C293 C291 1.389 . S
C293 C294 1.524 . S
C294 C293 1.524 . S
C294 C295 1.397 . S
C294 C299 1.363 . S
C295 H266 0.950 . S
C295 C294 1.397 . S
C295 C296 1.334 . S
C296 H267 0.950 . S
C296 C295 1.334 . S
C296 C297 1.287 . S
C297 C296 1.287 . S
C297 C298 1.524 . S
C297 H300 0.999 . S
C298 H268 0.950 . S
C298 C297 1.524 . S
C298 C299 1.415 . S
C299 H269 0.950 . S
C299 C294 1.363 . S
C299 C298 1.415 . S
H300 C297 0.999 . S
H301 C282 0.913 . S
H302 C320 0.951 . S
H303 C322 0.951 . S
H304 C324 0.950 . S
H305 C325 0.950 . S
H306 C327 0.950 . S
H307 C330 0.950 . S
H308 C331 0.950 . S
H309 C333 0.950 . S
H310 C334 0.950 . S
H311 C335 0.951 . S
H312 C337 0.951 . S
H313 C339 0.950 . S
H314 C340 0.950 . S
H315 C342 0.950 . S
H316 C345 0.950 . S
H317 C346 0.950 . S
H318 C348 0.950 . S
H319 C349 0.950 . S
C320 H302 0.951 . S
C320 C321 1.366 . S
C320 C322 1.388 . S
C321 C320 1.366 . S
C321 C325 1.385 . S
C322 H303 0.951 . S
C322 C320 1.388 . S
C322 C323 1.366 . S
C323 C322 1.366 . S
C323 C324 1.414 . S
C323 C326 1.499 . S
C324 H304 0.950 . S
C324 C323 1.414 . S
C324 C325 1.374 . S
C325 H305 0.950 . S
C325 C321 1.385 . S
C325 C324 1.374 . S
C326 C323 1.499 . S
C326 C327 1.373 . S
C326 C328 1.389 . S
C327 H306 0.950 . S
C327 C326 1.373 . S
C327 C343 1.377 . S
C328 C326 1.389 . S
C328 C329 1.524 . S
C328 C342 1.377 . S
C329 C328 1.524 . S
C329 C330 1.397 . S
C329 C334 1.363 . S
C330 H307 0.950 . S
C330 C329 1.397 . S
C330 C331 1.334 . S
C331 H308 0.950 . S
C331 C330 1.334 . S
C331 C332 1.287 . S
C332 C331 1.287 . S
C332 C333 1.524 . S
C332 H351 0.913 . S
C333 H309 0.950 . S
C333 C332 1.524 . S
C333 C334 1.415 . S
C334 H310 0.950 . S
C334 C329 1.363 . S
C334 C333 1.415 . S
C335 H311 0.951 . S
C335 C336 1.366 . S
C335 C337 1.388 . S
C336 C335 1.366 . S
C336 C340 1.385 . S
C337 H312 0.951 . S
C337 C335 1.388 . S
C337 C338 1.366 . S
C338 C337 1.366 . S
C338 C339 1.414 . S
C338 C341 1.499 . S
C339 H313 0.950 . S
C339 C338 1.414 . S
C339 C340 1.374 . S
C340 H314 0.950 . S
C340 C336 1.385 . S
C340 C339 1.374 . S
C341 C338 1.499 . S
C341 C342 1.373 . S
C341 C343 1.389 . S
C342 H315 0.950 . S
C342 C328 1.377 . S
C342 C341 1.373 . S
C343 C327 1.377 . S
C343 C341 1.389 . S
C343 C344 1.524 . S
C344 C343 1.524 . S
C344 C345 1.397 . S
C344 C349 1.363 . S
C345 H316 0.950 . S
C345 C344 1.397 . S
C345 C346 1.334 . S
C346 H317 0.950 . S
C346 C345 1.334 . S
C346 C347 1.287 . S
C347 C346 1.287 . S
C347 C348 1.524 . S
C347 H350 0.999 . S
C348 H318 0.950 . S
C348 C347 1.524 . S
C348 C349 1.415 . S
C349 H319 0.950 . S
C349 C344 1.363 . S
C349 C348 1.415 . S
H350 C347 0.999 . S
H351 C332 0.913 . S
H352 C370 0.951 . S
H353 C372 0.951 . S
H354 C374 0.950 . S
H355 C375 0.950 . S
H356 C377 0.950 . S
H357 C380 0.950 . S
H358 C381 0.950 . S
H359 C383 0.950 . S
H360 C384 0.950 . S
H361 C385 0.951 . S
H362 C387 0.951 . S
H363 C389 0.950 . S
H364 C390 0.950 . S
H365 C392 0.950 . S
H366 C395 0.950 . S
H367 C396 0.950 . S
H368 C398 0.950 . S
H369 C399 0.950 . S
C370 H352 0.951 . S
C370 C371 1.366 . S
C370 C372 1.388 . S
C371 C370 1.366 . S
C371 C375 1.385 . S
C372 H353 0.951 . S
C372 C370 1.388 . S
C372 C373 1.366 . S
C373 C372 1.366 . S
C373 C374 1.414 . S
C373 C376 1.499 . S
C374 H354 0.950 . S
C374 C373 1.414 . S
C374 C375 1.374 . S
C375 H355 0.950 . S
C375 C371 1.385 . S
C375 C374 1.374 . S
C376 C373 1.499 . S
C376 C377 1.373 . S
C376 C378 1.389 . S
C377 H356 0.950 . S
C377 C376 1.373 . S
C377 C393 1.377 . S
C378 C376 1.389 . S
C378 C379 1.524 . S
C378 C392 1.377 . S
C379 C378 1.524 . S
C379 C380 1.397 . S
C379 C384 1.363 . S
C380 H357 0.950 . S
C380 C379 1.397 . S
C380 C381 1.334 . S
C381 H358 0.950 . S
C381 C380 1.334 . S
C381 C382 1.287 . S
C382 C381 1.287 . S
C382 C383 1.524 . S
C382 H401 0.913 . S
C383 H359 0.950 . S
C383 C382 1.524 . S
C383 C384 1.415 . S
C384 H360 0.950 . S
C384 C379 1.363 . S
C384 C383 1.415 . S
C385 H361 0.951 . S
C385 C386 1.366 . S
C385 C387 1.388 . S
C386 C385 1.366 . S
C386 C390 1.385 . S
C387 H362 0.951 . S
C387 C385 1.388 . S
C387 C388 1.366 . S
C388 C387 1.366 . S
C388 C389 1.414 . S
C388 C391 1.499 . S
C389 H363 0.950 . S
C389 C388 1.414 . S
C389 C390 1.374 . S
C390 H364 0.950 . S
C390 C386 1.385 . S
C390 C389 1.374 . S
C391 C388 1.499 . S
C391 C392 1.373 . S
C391 C393 1.389 . S
C392 H365 0.950 . S
C392 C378 1.377 . S
C392 C391 1.373 . S
C393 C377 1.377 . S
C393 C391 1.389 . S
C393 C394 1.524 . S
C394 C393 1.524 . S
C394 C395 1.397 . S
C394 C399 1.363 . S
C395 H366 0.950 . S
C395 C394 1.397 . S
C395 C396 1.334 . S
C396 H367 0.950 . S
C396 C395 1.334 . S
C396 C397 1.287 . S
C397 C396 1.287 . S
C397 C398 1.524 . S
C397 H400 0.999 . S
C398 H368 0.950 . S
C398 C397 1.524 . S
C398 C399 1.415 . S
C399 H369 0.950 . S
C399 C394 1.363 . S
C399 C398 1.415 . S
H400 C397 0.999 . S
H401 C382 0.913 . S
H402 C420 0.951 . S
H403 C422 0.951 . S
H404 C424 0.950 . S
H405 C425 0.950 . S
H406 C427 0.950 . S
H407 C430 0.950 . S
H408 C431 0.950 . S
H409 C433 0.950 . S
H410 C434 0.950 . S
H411 C435 0.951 . S
H412 C437 0.951 . S
H413 C439 0.950 . S
H414 C440 0.950 . S
H415 C442 0.950 . S
H416 C445 0.950 . S
H417 C446 0.950 . S
H418 C448 0.950 . S
H419 C449 0.950 . S
C420 H402 0.951 . S
C420 C421 1.366 . S
C420 C422 1.388 . S
C421 C420 1.366 . S
C421 C425 1.385 . S
C422 H403 0.951 . S
C422 C420 1.388 . S
C422 C423 1.366 . S
C423 C422 1.366 . S
C423 C424 1.414 . S
C423 C426 1.499 . S
C424 H404 0.950 . S
C424 C423 1.414 . S
C424 C425 1.374 . S
C425 H405 0.950 . S
C425 C421 1.385 . S
C425 C424 1.374 . S
C426 C423 1.499 . S
C426 C427 1.373 . S
C426 C428 1.389 . S
C427 H406 0.950 . S
C427 C426 1.373 . S
C427 C443 1.377 . S
C428 C426 1.389 . S
C428 C429 1.524 . S
C428 C442 1.377 . S
C429 C428 1.524 . S
C429 C430 1.397 . S
C429 C434 1.363 . S
C430 H407 0.950 . S
C430 C429 1.397 . S
C430 C431 1.334 . S
C431 H408 0.950 . S
C431 C430 1.334 . S
C431 C432 1.287 . S
C432 C431 1.287 . S
C432 C433 1.524 . S
C432 H451 0.913 . S
C433 H409 0.950 . S
C433 C432 1.524 . S
C433 C434 1.415 . S
C434 H410 0.950 . S
C434 C429 1.363 . S
C434 C433 1.415 . S
C435 H411 0.951 . S
C435 C436 1.366 . S
C435 C437 1.388 . S
C436 C435 1.366 . S
C436 C440 1.385 . S
C437 H412 0.951 . S
C437 C435 1.388 . S
C437 C438 1.366 . S
C438 C437 1.366 . S
C438 C439 1.414 . S
C438 C441 1.499 . S
C439 H413 0.950 . S
C439 C438 1.414 . S
C439 C440 1.374 . S
C440 H414 0.950 . S
C440 C436 1.385 . S
C440 C439 1.374 . S
C441 C438 1.499 . S
C441 C442 1.373 . S
C441 C443 1.389 . S
C442 H415 0.950 . S
C442 C428 1.377 . S
C442 C441 1.373 . S
C443 C427 1.377 . S
C443 C441 1.389 . S
C443 C444 1.524 . S
C444 C443 1.524 . S
C444 C445 1.397 . S
C444 C449 1.363 . S
C445 H416 0.950 . S
C445 C444 1.397 . S
C445 C446 1.334 . S
C446 H417 0.950 . S
C446 C445 1.334 . S
C446 C447 1.287 . S
C447 C446 1.287 . S
C447 C448 1.524 . S
C447 H450 0.999 . S
C448 H418 0.950 . S
C448 C447 1.524 . S
C448 C449 1.415 . S
C449 H419 0.950 . S
C449 C444 1.363 . S
C449 C448 1.415 . S
H450 C447 0.999 . S
H451 C432 0.913 . S
H452 C470 0.951 . S
H453 C472 0.951 . S
H454 C474 0.950 . S
H455 C475 0.950 . S
H456 C477 0.950 . S
H457 C480 0.950 . S
H458 C481 0.950 . S
H459 C483 0.950 . S
H460 C484 0.950 . S
H461 C485 0.951 . S
H462 C487 0.951 . S
H463 C489 0.950 . S
H464 C490 0.950 . S
H465 C492 0.950 . S
H466 C495 0.950 . S
H467 C496 0.950 . S
H468 C498 0.950 . S
H469 C499 0.950 . S
C470 H452 0.951 . S
C470 C471 1.366 . S
C470 C472 1.388 . S
C471 C470 1.366 . S
C471 C475 1.385 . S
C472 H453 0.951 . S
C472 C470 1.388 . S
C472 C473 1.366 . S
C473 C472 1.366 . S
C473 C474 1.414 . S
C473 C476 1.499 . S
C474 H454 0.950 . S
C474 C473 1.414 . S
C474 C475 1.374 . S
C475 H455 0.950 . S
C475 C471 1.385 . S
C475 C474 1.374 . S
C476 C473 1.499 . S
C476 C477 1.373 . S
C476 C478 1.389 . S
C477 H456 0.950 . S
C477 C476 1.373 . S
C477 C493 1.377 . S
C478 C476 1.389 . S
C478 C479 1.524 . S
C478 C492 1.377 . S
C479 C478 1.524 . S
C479 C480 1.397 . S
C479 C484 1.363 . S
C480 H457 0.950 . S
C480 C479 1.397 . S
C480 C481 1.334 . S
C481 H458 0.950 . S
C481 C480 1.334 . S
C481 C482 1.287 . S
C482 C481 1.287 . S
C482 C483 1.524 . S
C482 H501 0.913 . S
C483 H459 0.950 . S
C483 C482 1.524 . S
C483 C484 1.415 . S
C484 H460 0.950 . S
C484 C479 1.363 . S
C484 C483 1.415 . S
C485 H461 0.951 . S
C485 C486 1.366 . S
C485 C487 1.388 . S
C486 C485 1.366 . S
C486 C490 1.385 . S
C487 H462 0.951 . S
C487 C485 1.388 . S
C487 C488 1.366 . S
C488 C487 1.366 . S
C488 C489 1.414 . S
C488 C491 1.499 . S
C489 H463 0.950 . S
C489 C488 1.414 . S
C489 C490 1.374 . S
C490 H464 0.950 . S
C490 C486 1.385 . S
C490 C489 1.374 . S
C491 C488 1.499 . S
C491 C492 1.373 . S
C491 C493 1.389 . S
C492 H465 0.950 . S
C492 C478 1.377 . S
C492 C491 1.373 . S
C493 C477 1.377 . S
C493 C491 1.389 . S
C493 C494 1.524 . S
C494 C493 1.524 . S
C494 C495 1.397 . S
C494 C499 1.363 . S
C495 H466 0.950 . S
C495 C494 1.397 . S
C495 C496 1.334 . S
C496 H467 0.950 . S
C496 C495 1.334 . S
C496 C497 1.287 . S
C497 C496 1.287 . S
C497 C498 1.524 . S
C497 H500 0.999 . S
C498 H468 0.950 . S
C498 C497 1.524 . S
C498 C499 1.415 . S
C499 H469 0.950 . S
C499 C494 1.363 . S
C499 C498 1.415 . S
H500 C497 0.999 . S
H501 C482 0.913 . S
H502 C520 0.951 . S
H503 C522 0.951 . S
H504 C524 0.950 . S
H505 C525 0.950 . S
H506 C527 0.950 . S
H507 C530 0.950 . S
H508 C531 0.950 . S
H509 C533 0.950 . S
H510 C534 0.950 . S
H511 C535 0.951 . S
H512 C537 0.951 . S
H513 C539 0.950 . S
H514 C540 0.950 . S
H515 C542 0.950 . S
H516 C545 0.950 . S
H517 C546 0.950 . S
H518 C548 0.950 . S
H519 C549 0.950 . S
C520 H502 0.951 . S
C520 C521 1.366 . S
C520 C522 1.388 . S
C521 C520 1.366 . S
C521 C525 1.385 . S
C522 H503 0.951 . S
C522 C520 1.388 . S
C522 C523 1.366 . S
C523 C522 1.366 . S
C523 C524 1.414 . S
C523 C526 1.499 . S
C524 H504 0.950 . S
C524 C523 1.414 . S
C524 C525 1.374 . S
C525 H505 0.950 . S
C525 C521 1.385 . S
C525 C524 1.374 . S
C526 C523 1.499 . S
C526 C527 1.373 . S
C526 C528 1.389 . S
C527 H506 0.950 . S
C527 C526 1.373 . S
C527 C543 1.377 . S
C528 C526 1.389 . S
C528 C529 1.524 . S
C528 C542 1.377 . S
C529 C528 1.524 . S
C529 C530 1.397 . S
C529 C534 1.363 . S
C530 H507 0.950 . S
C530 C529 1.397 . S
C530 C531 1.334 . S
C531 H508 0.950 . S
C531 C530 1.334 . S
C531 C532 1.287 . S
C532 C531 1.287 . S
C532 C533 1.524 . S
C532 H551 0.913 . S
C533 H509 0.950 . S
C533 C532 1.524 . S
C533 C534 1.415 . S
C534 H510 0.950 . S
C534 C529 1.363 . S
C534 C533 1.415 . S
C535 H511 0.951 . S
C535 C536 1.366 . S
C535 C537 1.388 . S
C536 C535 1.366 . S
C536 C540 1.385 . S
C537 H512 0.951 . S
C537 C535 1.388 . S
C537 C538 1.366 . S
C538 C537 1.366 . S
C538 C539 1.414 . S
C538 C541 1.499 . S
C539 H513 0.950 . S
C539 C538 1.414 . S
C539 C540 1.374 . S
C540 H514 0.950 . S
C540 C536 1.385 . S
C540 C539 1.374 . S
C541 C538 1.499 . S
C541 C542 1.373 . S
C541 C543 1.389 . S
C542 H515 0.950 . S
C542 C528 1.377 . S
C542 C541 1.373 . S
C543 C527 1.377 . S
C543 C541 1.389 . S
C543 C544 1.524 . S
C544 C543 1.524 . S
C544 C545 1.397 . S
C544 C549 1.363 . S
C545 H516 0.950 . S
C545 C544 1.397 . S
C545 C546 1.334 . S
C546 H517 0.950 . S
C546 C545 1.334 . S
C546 C547 1.287 . S
C547 C546 1.287 . S
C547 C548 1.524 . S
C547 H550 0.999 . S
C548 H518 0.950 . S
C548 C547 1.524 . S
C548 C549 1.415 . S
C549 H519 0.950 . S
C549 C544 1.363 . S
C549 C548 1.415 . S
H550 C547 0.999 . S
H551 C532 0.913 . S
H552 C570 0.951 . S
H553 C572 0.951 . S
H554 C574 0.950 . S
H555 C575 0.950 . S
H556 C577 0.950 . S
H557 C580 0.950 . S
H558 C581 0.950 . S
H559 C583 0.950 . S
H560 C584 0.950 . S
H561 C585 0.951 . S
H562 C587 0.951 . S
H563 C589 0.950 . S
H564 C590 0.950 . S
H565 C592 0.950 . S
H566 C595 0.950 . S
H567 C596 0.950 . S
H568 C598 0.950 . S
H569 C599 0.950 . S
C570 H552 0.951 . S
C570 C571 1.366 . S
C570 C572 1.388 . S
C571 C570 1.366 . S
C571 C575 1.385 . S
C572 H553 0.951 . S
C572 C570 1.388 . S
C572 C573 1.366 . S
C573 C572 1.366 . S
C573 C574 1.414 . S
C573 C576 1.499 . S
C574 H554 0.950 . S
C574 C573 1.414 . S
C574 C575 1.374 . S
C575 H555 0.950 . S
C575 C571 1.385 . S
C575 C574 1.374 . S
C576 C573 1.499 . S
C576 C577 1.373 . S
C576 C578 1.389 . S
C577 H556 0.950 . S
C577 C576 1.373 . S
C577 C593 1.377 1_655 S
C578 C576 1.389 . S
C578 C579 1.524 . S
C578 C592 1.377 1_655 S
C579 C578 1.524 . S
C579 C580 1.397 . S
C579 C584 1.363 . S
C580 H557 0.950 . S
C580 C579 1.397 . S
C580 C581 1.334 . S
C581 H558 0.950 . S
C581 C580 1.334 . S
C581 C582 1.287 . S
C582 C581 1.287 . S
C582 C583 1.524 . S
C582 H601 0.913 . S
C583 H559 0.950 . S
C583 C582 1.524 . S
C583 C584 1.415 . S
C584 H560 0.950 . S
C584 C579 1.363 . S
C584 C583 1.415 . S
C585 H561 0.951 . S
C585 C586 1.366 . S
C585 C587 1.388 . S
C586 C585 1.366 . S
C586 C590 1.385 . S
C587 H562 0.951 . S
C587 C585 1.388 . S
C587 C588 1.366 . S
C588 C587 1.366 . S
C588 C589 1.414 . S
C588 C591 1.499 . S
C589 H563 0.950 . S
C589 C588 1.414 . S
C589 C590 1.374 . S
C590 H564 0.950 . S
C590 C586 1.385 . S
C590 C589 1.374 . S
C591 C588 1.499 . S
C591 C592 1.373 . S
C591 C593 1.389 . S
C592 H565 0.950 . S
C592 C578 1.377 1_455 S
C592 C591 1.373 . S
C593 C577 1.377 1_455 S
C593 C591 1.389 . S
C593 C594 1.524 . S
C594 C593 1.524 . S
C594 C595 1.397 . S
C594 C599 1.363 . S
C595 H566 0.950 . S
C595 C594 1.397 . S
C595 C596 1.334 . S
C596 H567 0.950 . S
C596 C595 1.334 . S
C596 C597 1.287 . S
C597 C596 1.287 . S
C597 C598 1.524 . S
C597 H600 0.999 . S
C598 H568 0.950 . S
C598 C597 1.524 . S
C598 C599 1.415 . S
C599 H569 0.950 . S
C599 C594 1.363 . S
C599 C598 1.415 . S
H600 C597 0.999 . S
H601 C582 0.913 . S
H602 C620 0.951 . S
H603 C622 0.951 . S
H604 C624 0.950 . S
H605 C625 0.950 . S
H606 C627 0.950 . S
H607 C630 0.950 . S
H608 C631 0.950 . S
H609 C633 0.950 . S
H610 C634 0.950 . S
H611 C635 0.951 . S
H612 C637 0.951 . S
H613 C639 0.950 . S
H614 C640 0.950 . S
H615 C642 0.950 . S
H616 C645 0.950 . S
H617 C646 0.950 . S
H618 C648 0.950 . S
H619 C649 0.950 . S
C620 H602 0.951 . S
C620 C621 1.366 . S
C620 C622 1.388 . S
C621 C620 1.366 . S
C621 C625 1.385 . S
C622 H603 0.951 . S
C622 C620 1.388 . S
C622 C623 1.366 . S
C623 C622 1.366 . S
C623 C624 1.414 . S
C623 C626 1.499 . S
C624 H604 0.950 . S
C624 C623 1.414 . S
C624 C625 1.374 . S
C625 H605 0.950 . S
C625 C621 1.385 . S
C625 C624 1.374 . S
C626 C623 1.499 . S
C626 C627 1.373 . S
C626 C628 1.389 . S
C627 H606 0.950 . S
C627 C626 1.373 . S
C627 C643 1.377 . S
C628 C626 1.389 . S
C628 C629 1.524 . S
C628 C642 1.377 . S
C629 C628 1.524 . S
C629 C630 1.397 . S
C629 C634 1.363 . S
C630 H607 0.950 . S
C630 C629 1.397 . S
C630 C631 1.334 . S
C631 H608 0.950 . S
C631 C630 1.334 . S
C631 C632 1.287 . S
C632 C631 1.287 . S
C632 C633 1.524 . S
C632 H651 0.913 . S
C633 H609 0.950 . S
C633 C632 1.524 . S
C633 C634 1.415 . S
C634 H610 0.950 . S
C634 C629 1.363 . S
C634 C633 1.415 . S
C635 H611 0.951 . S
C635 C636 1.366 . S
C635 C637 1.388 . S
C636 C635 1.366 . S
C636 C640 1.385 . S
C637 H612 0.951 . S
C637 C635 1.388 . S
C637 C638 1.366 . S
C638 C637 1.366 . S
C638 C639 1.414 . S
C638 C641 1.499 . S
C639 H613 0.950 . S
C639 C638 1.414 . S
C639 C640 1.374 . S
C640 H614 0.950 . S
C640 C636 1.385 . S
C640 C639 1.374 . S
C641 C638 1.499 . S
C641 C642 1.373 . S
C641 C643 1.389 . S
C642 H615 0.950 . S
C642 C628 1.377 . S
C642 C641 1.373 . S
C643 C627 1.377 . S
C643 C641 1.389 . S
C643 C644 1.524 . S
C644 C643 1.524 . S
C644 C645 1.397 . S
C644 C649 1.363 . S
C645 H616 0.950 . S
C645 C644 1.397 . S
C645 C646 1.334 . S
C646 H617 0.950 . S
C646 C645 1.334 . S
C646 C647 1.287 . S
C647 C646 1.287 . S
C647 C648 1.524 . S
C647 H650 0.999 . S
C648 H618 0.950 . S
C648 C647 1.524 . S
C648 C649 1.415 . S
C649 H619 0.950 . S
C649 C644 1.363 . S
C649 C648 1.415 . S
H650 C647 0.999 . S
H651 C632 0.913 . S
H652 C670 0.951 . S
H653 C672 0.951 . S
H654 C674 0.950 . S
H655 C675 0.950 . S
H656 C677 0.950 . S
H657 C680 0.950 . S
H658 C681 0.950 . S
H659 C683 0.950 . S
H660 C684 0.897 1_565 S
H661 C685 0.951 . S
H662 C687 0.951 . S
H663 C689 0.950 . S
H664 C690 0.950 . S
H665 C692 0.950 . S
H666 C695 0.950 . S
H667 C696 0.950 . S
H668 C698 0.950 . S
H669 C699 0.950 1_545 S
C670 H652 0.951 . S
C670 C671 1.366 . S
C670 C672 1.388 . S
C671 C670 1.366 . S
C671 C675 1.385 . S
C672 H653 0.951 . S
C672 C670 1.388 . S
C672 C673 1.366 . S
C673 C672 1.366 . S
C673 C674 1.414 . S
C673 C676 1.499 . S
C674 H654 0.950 . S
C674 C673 1.414 . S
C674 C675 1.374 . S
C675 H655 0.950 . S
C675 C671 1.385 . S
C675 C674 1.374 . S
C676 C673 1.499 . S
C676 C677 1.373 . S
C676 C678 1.389 . S
C677 H656 0.950 . S
C677 C676 1.373 . S
C677 C693 1.377 1_545 S
C678 C676 1.389 . S
C678 C679 1.524 . S
C678 C692 1.377 1_545 S
C679 C678 1.524 . S
C679 C680 1.397 . S
C679 C684 1.363 . S
C680 H657 0.950 . S
C680 C679 1.397 . S
C680 C681 1.334 . S
C681 H658 0.950 . S
C681 C680 1.334 . S
C681 C682 1.287 . S
C682 C681 1.287 . S
C682 C683 1.524 . S
C682 H701 0.913 . S
C683 H659 0.950 . S
C683 C682 1.524 . S
C683 C684 1.415 . S
C684 H660 0.897 1_545 S
C684 C679 1.363 . S
C684 C683 1.415 . S
C685 H661 0.951 . S
C685 C686 1.366 . S
C685 C687 1.388 . S
C686 C685 1.366 . S
C686 C690 1.385 . S
C687 H662 0.951 . S
C687 C685 1.388 . S
C687 C688 1.366 . S
C688 C687 1.366 . S
C688 C689 1.414 . S
C688 C691 1.499 . S
C689 H663 0.950 . S
C689 C688 1.414 . S
C689 C690 1.374 . S
C690 H664 0.950 . S
C690 C686 1.385 . S
C690 C689 1.374 . S
C691 C688 1.499 . S
C691 C692 1.373 . S
C691 C693 1.389 . S
C692 H665 0.950 . S
C692 C678 1.377 1_565 S
C692 C691 1.373 . S
C693 C677 1.377 1_565 S
C693 C691 1.389 . S
C693 C694 1.524 . S
C694 C693 1.524 . S
C694 C695 1.397 . S
C694 C699 1.363 . S
C695 H666 0.950 . S
C695 C694 1.397 . S
C695 C696 1.334 . S
C696 H667 0.950 . S
C696 C695 1.334 . S
C696 C697 1.287 . S
C697 C696 1.287 . S
C697 C698 1.524 . S
C697 H700 0.999 . S
C698 H668 0.950 . S
C698 C697 1.524 . S
C698 C699 1.415 . S
C699 H669 0.950 1_565 S
C699 C694 1.363 . S
C699 C698 1.415 . S
H700 C697 0.999 . S
H701 C682 0.913 . S
H702 C720 0.951 . S
H703 C722 0.951 . S
H704 C724 0.950 . S
H705 C725 0.950 . S
H706 C727 0.950 . S
H707 C730 0.950 . S
H708 C731 0.950 . S
H709 C733 0.950 . S
H710 C734 0.950 . S
H711 C735 0.951 . S
H712 C737 0.951 . S
H713 C739 0.950 . S
H714 C740 0.950 . S
H715 C742 0.950 . S
H716 C745 0.950 . S
H717 C746 0.950 . S
H718 C748 0.950 . S
H719 C749 0.950 1_455 S
C720 H702 0.951 . S
C720 C721 1.366 . S
C720 C722 1.388 . S
C721 C720 1.366 . S
C721 C725 1.385 . S
C722 H703 0.951 . S
C722 C720 1.388 . S
C722 C723 1.366 . S
C723 C722 1.366 . S
C723 C724 1.414 . S
C723 C726 1.499 . S
C724 H704 0.950 . S
C724 C723 1.414 . S
C724 C725 1.374 . S
C725 H705 0.950 . S
C725 C721 1.385 . S
C725 C724 1.374 . S
C726 C723 1.499 . S
C726 C727 1.373 . S
C726 C728 1.389 . S
C727 H706 0.950 . S
C727 C726 1.373 . S
C727 C743 1.377 1_455 S
C728 C726 1.389 . S
C728 C729 1.524 . S
C728 C742 1.377 1_455 S
C729 C728 1.524 . S
C729 C730 1.397 . S
C729 C734 1.363 . S
C730 H707 0.950 . S
C730 C729 1.397 . S
C730 C731 1.334 . S
C731 H708 0.950 . S
C731 C730 1.334 . S
C731 C732 1.287 . S
C732 C731 1.287 . S
C732 C733 1.524 . S
C732 H751 0.913 . S
C733 H709 0.950 . S
C733 C732 1.524 . S
C733 C734 1.415 . S
C734 H710 0.950 . S
C734 C729 1.363 . S
C734 C733 1.415 . S
C735 H711 0.951 . S
C735 C736 1.366 . S
C735 C737 1.388 . S
C736 C735 1.366 . S
C736 C740 1.385 . S
C737 H712 0.951 . S
C737 C735 1.388 . S
C737 C738 1.366 . S
C738 C737 1.366 . S
C738 C739 1.414 . S
C738 C741 1.499 . S
C739 H713 0.950 . S
C739 C738 1.414 . S
C739 C740 1.374 . S
C740 H714 0.950 . S
C740 C736 1.385 . S
C740 C739 1.374 . S
C741 C738 1.499 . S
C741 C742 1.373 . S
C741 C743 1.389 . S
C742 H715 0.950 . S
C742 C728 1.377 1_655 S
C742 C741 1.373 . S
C743 C727 1.377 1_655 S
C743 C741 1.389 . S
C743 C744 1.524 . S
C744 C743 1.524 . S
C744 C745 1.397 . S
C744 C749 1.363 . S
C745 H716 0.950 . S
C745 C744 1.397 . S
C745 C746 1.334 . S
C746 H717 0.950 . S
C746 C745 1.334 . S
C746 C747 1.287 . S
C747 C746 1.287 . S
C747 C748 1.524 . S
C747 H750 0.999 . S
C748 H718 0.950 . S
C748 C747 1.524 . S
C748 C749 1.415 . S
C749 H719 0.950 1_655 S
C749 C744 1.363 . S
C749 C748 1.415 . S
H750 C747 0.999 . S
H751 C732 0.913 . S
H752 C770 0.951 . S
H753 C772 0.951 . S
H754 C774 0.950 . S
H755 C775 0.950 . S
H756 C777 0.950 . S
H757 C780 0.950 . S
H758 C781 0.950 . S
H759 C783 0.950 . S
H760 C784 0.950 . S
H761 C785 0.951 . S
H762 C787 0.951 . S
H763 C789 0.950 . S
H764 C790 0.950 . S
H765 C792 0.950 . S
H766 C795 0.950 . S
H767 C796 0.950 . S
H768 C798 0.950 . S
H769 C799 0.950 . S
C770 H752 0.951 . S
C770 C771 1.366 . S
C770 C772 1.388 . S
C771 C770 1.366 . S
C771 C775 1.385 . S
C772 H753 0.951 . S
C772 C770 1.388 . S
C772 C773 1.366 . S
C773 C772 1.366 . S
C773 C774 1.414 . S
C773 C776 1.499 . S
C774 H754 0.950 . S
C774 C773 1.414 . S
C774 C775 1.374 . S
C775 H755 0.950 . S
C775 C771 1.385 . S
C775 C774 1.374 . S
C776 C773 1.499 . S
C776 C777 1.373 . S
C776 C778 1.389 . S
C777 H756 0.950 . S
C777 C776 1.373 . S
C777 C793 1.377 . S
C778 C776 1.389 . S
C778 C779 1.524 . S
C778 C792 1.377 . S
C779 C778 1.524 . S
C779 C780 1.397 . S
C779 C784 1.363 . S
C780 H757 0.950 . S
C780 C779 1.397 . S
C780 C781 1.334 . S
C781 H758 0.950 . S
C781 C780 1.334 . S
C781 C782 1.287 . S
C782 C781 1.287 . S
C782 C783 1.524 . S
C782 H801 0.913 . S
C783 H759 0.950 . S
C783 C782 1.524 . S
C783 C784 1.415 . S
C784 H760 0.950 . S
C784 C779 1.363 . S
C784 C783 1.415 . S
C785 H761 0.951 . S
C785 C786 1.366 . S
C785 C787 1.388 . S
C786 C785 1.366 . S
C786 C790 1.385 . S
C787 H762 0.951 . S
C787 C785 1.388 . S
C787 C788 1.366 . S
C788 C787 1.366 . S
C788 C789 1.414 . S
C788 C791 1.499 . S
C789 H763 0.950 . S
C789 C788 1.414 . S
C789 C790 1.374 . S
C790 H764 0.950 . S
C790 C786 1.385 . S
C790 C789 1.374 . S
C791 C788 1.499 . S
C791 C792 1.373 . S
C791 C793 1.389 . S
C792 H765 0.950 . S
C792 C778 1.377 . S
C792 C791 1.373 . S
C793 C777 1.377 . S
C793 C791 1.389 . S
C793 C794 1.524 . S
C794 C793 1.524 . S
C794 C795 1.397 . S
C794 C799 1.363 . S
C795 H766 0.950 . S
C795 C794 1.397 . S
C795 C796 1.334 . S
C796 H767 0.950 . S
C796 C795 1.334 . S
C796 C797 1.287 . S
C797 C796 1.287 . S
C797 C798 1.524 . S
C797 H800 0.999 . S
C798 H768 0.950 . S
C798 C797 1.524 . S
C798 C799 1.415 . S
C799 H769 0.950 . S
C799 C794 1.363 . S
C799 C798 1.415 . S
H800 C797 0.999 . S
H801 C782 0.913 . S
H802 C820 0.951 . S
H803 C822 0.951 . S
H804 C824 0.950 . S
H805 C825 0.950 . S
H806 C827 0.950 . S
H807 C830 0.950 . S
H808 C831 0.950 . S
H809 C833 0.950 . S
H810 C834 0.950 . S
H811 C835 0.951 . S
H812 C837 0.951 . S
H813 C839 0.950 . S
H814 C840 0.950 . S
H815 C842 0.950 . S
H816 C845 0.950 . S
H817 C846 0.950 . S
H818 C848 0.950 1_655 S
H819 C849 0.950 . S
C820 H802 0.951 . S
C820 C821 1.366 . S
C820 C822 1.388 . S
C821 C820 1.366 . S
C821 C825 1.385 . S
C822 H803 0.951 . S
C822 C820 1.388 . S
C822 C823 1.366 . S
C823 C822 1.366 . S
C823 C824 1.414 . S
C823 C826 1.499 . S
C824 H804 0.950 . S
C824 C823 1.414 . S
C824 C825 1.374 . S
C825 H805 0.950 . S
C825 C821 1.385 . S
C825 C824 1.374 . S
C826 C823 1.499 . S
C826 C827 1.373 . S
C826 C828 1.389 . S
C827 H806 0.950 . S
C827 C826 1.373 . S
C827 C843 1.377 1_545 S
C828 C826 1.389 . S
C828 C829 1.524 . S
C828 C842 1.377 1_545 S
C829 C828 1.524 . S
C829 C830 1.397 . S
C829 C834 1.363 . S
C830 H807 0.950 . S
C830 C829 1.397 . S
C830 C831 1.334 . S
C831 H808 0.950 . S
C831 C830 1.334 . S
C831 C832 1.287 . S
C832 C831 1.287 . S
C832 C833 1.524 . S
C832 H851 0.913 . S
C833 H809 0.950 . S
C833 C832 1.524 . S
C833 C834 1.415 . S
C834 H810 0.950 . S
C834 C829 1.363 . S
C834 C833 1.415 . S
C835 H811 0.951 . S
C835 C836 1.366 . S
C835 C837 1.388 . S
C836 C835 1.366 . S
C836 C840 1.385 . S
C837 H812 0.951 . S
C837 C835 1.388 . S
C837 C838 1.366 . S
C838 C837 1.366 . S
C838 C839 1.414 . S
C838 C841 1.499 . S
C839 H813 0.950 . S
C839 C838 1.414 . S
C839 C840 1.374 . S
C840 H814 0.950 . S
C840 C836 1.385 . S
C840 C839 1.374 . S
C841 C838 1.499 . S
C841 C842 1.373 . S
C841 C843 1.389 . S
C842 H815 0.950 . S
C842 C828 1.377 1_565 S
C842 C841 1.373 . S
C843 C827 1.377 1_565 S
C843 C841 1.389 . S
C843 C844 1.524 . S
C844 C843 1.524 . S
C844 C845 1.397 . S
C844 C849 1.363 . S
C845 H816 0.950 . S
C845 C844 1.397 . S
C845 C846 1.334 . S
C846 H817 0.950 . S
C846 C845 1.334 . S
C846 C847 1.287 . S
C847 C846 1.287 . S
C847 C848 1.524 . S
C847 H850 0.999 1_455 S
C848 H818 0.950 1_455 S
C848 C847 1.524 . S
C848 C849 1.415 . S
C849 H819 0.950 . S
C849 C844 1.363 . S
C849 C848 1.415 . S
H850 C847 0.999 1_655 S
H851 C832 0.913 . S
H852 C870 0.951 . S
H853 C872 0.951 . S
H854 C874 0.950 . S
H855 C875 0.950 . S
H856 C877 0.950 . S
H857 C880 0.950 . S
H858 C881 0.950 . S
H859 C883 0.950 . S
H860 C884 0.950 1_545 S
H861 C885 0.951 . S
H862 C887 0.951 . S
H863 C889 0.950 . S
H864 C890 0.950 . S
H865 C892 0.950 . S
H866 C895 0.950 . S
H867 C896 0.950 . S
H868 C898 0.950 . S
H869 C899 0.950 . S
C870 H852 0.951 . S
C870 C871 1.366 . S
C870 C872 1.388 . S
C871 C870 1.366 . S
C871 C875 1.385 . S
C872 H853 0.951 . S
C872 C870 1.388 . S
C872 C873 1.366 . S
C873 C872 1.366 . S
C873 C874 1.414 . S
C873 C876 1.499 . S
C874 H854 0.950 . S
C874 C873 1.414 . S
C874 C875 1.374 . S
C875 H855 0.950 . S
C875 C871 1.385 . S
C875 C874 1.374 . S
C876 C873 1.499 . S
C876 C877 1.373 . S
C876 C878 1.389 . S
C877 H856 0.950 . S
C877 C876 1.373 . S
C877 C893 1.377 1_565 S
C878 C876 1.389 . S
C878 C879 1.524 . S
C878 C892 1.377 1_565 S
C879 C878 1.524 . S
C879 C880 1.397 . S
C879 C884 1.363 . S
C880 H857 0.950 . S
C880 C879 1.397 . S
C880 C881 1.334 . S
C881 H858 0.950 . S
C881 C880 1.334 . S
C881 C882 1.287 . S
C882 C881 1.287 . S
C882 C883 1.524 . S
C882 H901 0.913 . S
C883 H859 0.950 . S
C883 C882 1.524 . S
C883 C884 1.415 . S
C884 H860 0.950 1_565 S
C884 C879 1.363 . S
C884 C883 1.415 . S
C885 H861 0.951 . S
C885 C886 1.366 . S
C885 C887 1.388 . S
C886 C885 1.366 . S
C886 C890 1.385 . S
C887 H862 0.951 . S
C887 C885 1.388 . S
C887 C888 1.366 . S
C888 C887 1.366 . S
C888 C889 1.414 . S
C888 C891 1.499 . S
C889 H863 0.950 . S
C889 C888 1.414 . S
C889 C890 1.374 . S
C890 H864 0.950 . S
C890 C886 1.385 . S
C890 C889 1.374 . S
C891 C888 1.499 . S
C891 C892 1.373 . S
C891 C893 1.389 . S
C892 H865 0.950 . S
C892 C878 1.377 1_545 S
C892 C891 1.373 . S
C893 C877 1.377 1_545 S
C893 C891 1.389 . S
C893 C894 1.524 . S
C894 C893 1.524 . S
C894 C895 1.397 . S
C894 C899 1.363 . S
C895 H866 0.950 . S
C895 C894 1.397 . S
C895 C896 1.334 . S
C896 H867 0.950 . S
C896 C895 1.334 . S
C896 C897 1.287 . S
C897 C896 1.287 . S
C897 C898 1.524 . S
C897 H900 0.999 . S
C898 H868 0.950 . S
C898 C897 1.524 . S
C898 C899 1.415 . S
C899 H869 0.950 . S
C899 C894 1.363 . S
C899 C898 1.415 . S
H900 C897 0.999 . S
H901 C882 0.913 . S
H902 C920 0.951 . S
H903 C922 0.951 . S
H904 C924 0.950 . S
H905 C925 0.950 . S
H906 C927 0.950 . S
H907 C930 0.950 . S
H908 C931 0.950 . S
H909 C933 0.950 . S
H910 C934 0.950 . S
H911 C935 0.951 . S
H912 C937 0.951 . S
H913 C939 0.950 . S
H914 C940 0.950 . S
H915 C942 0.950 . S
H916 C945 0.950 . S
H917 C946 0.950 . S
H918 C948 0.950 . S
H919 C949 0.950 . S
C920 H902 0.951 . S
C920 C921 1.366 . S
C920 C922 1.388 . S
C921 C920 1.366 . S
C921 C925 1.385 . S
C922 H903 0.951 . S
C922 C920 1.388 . S
C922 C923 1.366 . S
C923 C922 1.366 . S
C923 C924 1.414 . S
C923 C926 1.499 . S
C924 H904 0.950 . S
C924 C923 1.414 . S
C924 C925 1.374 . S
C925 H905 0.950 . S
C925 C921 1.385 . S
C925 C924 1.374 . S
C926 C923 1.499 . S
C926 C927 1.373 . S
C926 C928 1.389 . S
C927 H906 0.950 . S
C927 C926 1.373 . S
C927 C943 1.377 1_455 S
C928 C926 1.389 . S
C928 C929 1.524 . S
C928 C942 1.377 1_455 S
C929 C928 1.524 . S
C929 C930 1.397 . S
C929 C934 1.363 . S
C930 H907 0.950 . S
C930 C929 1.397 . S
C930 C931 1.334 . S
C931 H908 0.950 . S
C931 C930 1.334 . S
C931 C932 1.287 . S
C932 C931 1.287 . S
C932 C933 1.524 . S
C932 H951 0.913 . S
C933 H909 0.950 . S
C933 C932 1.524 . S
C933 C934 1.415 . S
C934 H910 0.950 . S
C934 C929 1.363 . S
C934 C933 1.415 . S
C935 H911 0.951 . S
C935 C936 1.366 . S
C935 C937 1.388 . S
C936 C935 1.366 . S
C936 C940 1.385 . S
C937 H912 0.951 . S
C937 C935 1.388 . S
C937 C938 1.366 . S
C938 C937 1.366 . S
C938 C939 1.414 . S
C938 C941 1.499 . S
C939 H913 0.950 . S
C939 C938 1.414 . S
C939 C940 1.374 . S
C940 H914 0.950 . S
C940 C936 1.385 . S
C940 C939 1.374 . S
C941 C938 1.499 . S
C941 C942 1.373 . S
C941 C943 1.389 . S
C942 H915 0.950 . S
C942 C928 1.377 1_655 S
C942 C941 1.373 . S
C943 C927 1.377 1_655 S
C943 C941 1.389 . S
C943 C944 1.524 . S
C944 C943 1.524 . S
C944 C945 1.397 . S
C944 C949 1.363 . S
C945 H916 0.950 . S
C945 C944 1.397 . S
C945 C946 1.334 . S
C946 H917 0.950 . S
C946 C945 1.334 . S
C946 C947 1.287 . S
C947 C946 1.287 . S
C947 C948 1.524 . S
C947 H950 0.999 . S
C948 H918 0.950 . S
C948 C947 1.524 . S
C948 C949 1.415 . S
C949 H919 0.950 . S
C949 C944 1.363 . S
C949 C948 1.415 . S
H950 C947 0.999 . S
H951 C932 0.913 . S
H952 C970 0.951 . S
H953 C972 0.951 . S
H954 C974 0.950 . S
H955 C975 0.950 . S
H956 C977 0.950 . S
H957 C980 0.950 . S
H958 C981 0.950 . S
H959 C983 0.950 . S
H960 C984 0.950 . S
H961 C985 0.951 . S
H962 C987 0.951 . S
H963 C989 0.950 . S
H964 C990 0.950 . S
H965 C992 0.950 . S
H966 C995 0.950 . S
H967 C996 0.950 . S
H968 C998 0.950 . S
H969 C999 0.950 . S
C970 H952 0.951 . S
C970 C971 1.366 . S
C970 C972 1.388 . S
C971 C970 1.366 . S
C971 C975 1.385 . S
C972 H953 0.951 . S
C972 C970 1.388 . S
C972 C973 1.366 . S
C973 C972 1.366 . S
C973 C974 1.414 . S
C973 C976 1.499 . S
C974 H954 0.950 . S
C974 C973 1.414 . S
C974 C975 1.374 . S
C975 H955 0.950 . S
C975 C971 1.385 . S
C975 C974 1.374 . S
C976 C973 1.499 . S
C976 C977 1.373 . S
C976 C978 1.389 . S
C977 H956 0.950 . S
C977 C976 1.373 . S
C977 C993 1.377 . S
C978 C976 1.389 . S
C978 C979 1.524 . S
C978 C992 1.377 . S
C979 C978 1.524 . S
C979 C980 1.397 . S
C979 C984 1.363 . S
C980 H957 0.950 . S
C980 C979 1.397 . S
C980 C981 1.334 . S
C981 H958 0.950 . S
C981 C980 1.334 . S
C981 C982 1.287 . S
C982 C981 1.287 . S
C982 C983 1.524 . S
C982 H1001 0.913 . S
C983 H959 0.950 . S
C983 C982 1.524 . S
C983 C984 1.415 . S
C984 H960 0.950 . S
C984 C979 1.363 . S
C984 C983 1.415 . S
C985 H961 0.951 . S
C985 C986 1.366 . S
C985 C987 1.388 . S
C986 C985 1.366 . S
C986 C990 1.385 . S
C987 H962 0.951 . S
C987 C985 1.388 . S
C987 C988 1.366 . S
C988 C987 1.366 . S
C988 C989 1.414 . S
C988 C991 1.499 . S
C989 H963 0.950 . S
C989 C988 1.414 . S
C989 C990 1.374 . S
C990 H964 0.950 . S
C990 C986 1.385 . S
C990 C989 1.374 . S
C991 C988 1.499 . S
C991 C992 1.373 . S
C991 C993 1.389 . S
C992 H965 0.950 . S
C992 C978 1.377 . S
C992 C991 1.373 . S
C993 C977 1.377 . S
C993 C991 1.389 . S
C993 C994 1.524 . S
C994 C993 1.524 . S
C994 C995 1.397 . S
C994 C999 1.363 . S
C995 H966 0.950 . S
C995 C994 1.397 . S
C995 C996 1.334 . S
C996 H967 0.950 . S
C996 C995 1.334 . S
C996 C997 1.287 . S
C997 C996 1.287 . S
C997 C998 1.524 . S
C997 H1000 0.999 . S
C998 H968 0.950 . S
C998 C997 1.524 . S
C998 C999 1.415 . S
C999 H969 0.950 . S
C999 C994 1.363 . S
C999 C998 1.415 . S
H1000 C997 0.999 . S
H1001 C982 0.913 . S
H1002 C1020 0.951 . S
H1003 C1022 0.951 . S
H1004 C1024 0.950 . S
H1005 C1025 0.950 . S
H1006 C1027 0.950 . S
H1007 C1030 0.950 . S
H1008 C1031 0.950 . S
H1009 C1033 0.950 . S
H1010 C1034 0.950 . S
H1011 C1035 0.951 . S
H1012 C1037 0.951 . S
H1013 C1039 0.950 . S
H1014 C1040 0.950 . S
H1015 C1042 0.950 . S
H1016 C1045 0.950 . S
H1017 C1046 0.950 . S
H1018 C1048 0.950 . S
H1019 C1049 0.950 . S
C1020 H1002 0.951 . S
C1020 C1021 1.366 . S
C1020 C1022 1.388 . S
C1021 C1020 1.366 . S
C1021 C1025 1.385 . S
C1022 H1003 0.951 . S
C1022 C1020 1.388 . S
C1022 C1023 1.366 . S
C1023 C1022 1.366 . S
C1023 C1024 1.414 . S
C1023 C1026 1.499 . S
C1024 H1004 0.950 . S
C1024 C1023 1.414 . S
C1024 C1025 1.374 . S
C1025 H1005 0.950 . S
C1025 C1021 1.385 . S
C1025 C1024 1.374 . S
C1026 C1023 1.499 . S
C1026 C1027 1.373 . S
C1026 C1028 1.389 . S
C1027 H1006 0.950 . S
C1027 C1026 1.373 . S
C1027 C1043 1.377 . S
C1028 C1026 1.389 . S
C1028 C1029 1.524 . S
C1028 C1042 1.377 . S
C1029 C1028 1.524 . S
C1029 C1030 1.397 . S
C1029 C1034 1.363 . S
C1030 H1007 0.950 . S
C1030 C1029 1.397 . S
C1030 C1031 1.334 . S
C1031 H1008 0.950 . S
C1031 C1030 1.334 . S
C1031 C1032 1.287 . S
C1032 C1031 1.287 . S
C1032 C1033 1.524 . S
C1032 H1051 0.913 . S
C1033 H1009 0.950 . S
C1033 C1032 1.524 . S
C1033 C1034 1.415 . S
C1034 H1010 0.950 . S
C1034 C1029 1.363 . S
C1034 C1033 1.415 . S
C1035 H1011 0.951 . S
C1035 C1036 1.366 . S
C1035 C1037 1.388 . S
C1036 C1035 1.366 . S
C1036 C1040 1.385 . S
C1037 H1012 0.951 . S
C1037 C1035 1.388 . S
C1037 C1038 1.366 . S
C1038 C1037 1.366 . S
C1038 C1039 1.414 . S
C1038 C1041 1.499 . S
C1039 H1013 0.950 . S
C1039 C1038 1.414 . S
C1039 C1040 1.374 . S
C1040 H1014 0.950 . S
C1040 C1036 1.385 . S
C1040 C1039 1.374 . S
C1041 C1038 1.499 . S
C1041 C1042 1.373 . S
C1041 C1043 1.389 . S
C1042 H1015 0.950 . S
C1042 C1028 1.377 . S
C1042 C1041 1.373 . S
C1043 C1027 1.377 . S
C1043 C1041 1.389 . S
C1043 C1044 1.524 . S
C1044 C1043 1.524 . S
C1044 C1045 1.397 . S
C1044 C1049 1.363 . S
C1045 H1016 0.950 . S
C1045 C1044 1.397 . S
C1045 C1046 1.334 . S
C1046 H1017 0.950 . S
C1046 C1045 1.334 . S
C1046 C1047 1.287 . S
C1047 C1046 1.287 . S
C1047 C1048 1.524 . S
C1047 H1050 0.999 . S
C1048 H1018 0.950 . S
C1048 C1047 1.524 . S
C1048 C1049 1.415 . S
C1049 H1019 0.950 . S
C1049 C1044 1.363 . S
C1049 C1048 1.415 . S
H1050 C1047 0.999 . S
H1051 C1032 0.913 . S
H1052 C1070 0.951 . S
H1053 C1072 0.951 . S
H1054 C1074 0.950 . S
H1055 C1075 0.950 . S
H1056 C1077 0.950 . S
H1057 C1080 0.950 . S
H1058 C1081 0.950 . S
H1059 C1083 0.950 . S
H1060 C1084 0.950 . S
H1061 C1085 0.951 . S
H1062 C1087 0.951 . S
H1063 C1089 0.950 . S
H1064 C1090 0.950 . S
H1065 C1092 0.950 . S
H1066 C1095 0.950 . S
H1067 C1096 0.950 . S
H1068 C1098 0.950 . S
H1069 C1099 0.950 . S
C1070 H1052 0.951 . S
C1070 C1071 1.366 . S
C1070 C1072 1.388 . S
C1071 C1070 1.366 . S
C1071 C1075 1.385 . S
C1072 H1053 0.951 . S
C1072 C1070 1.388 . S
C1072 C1073 1.366 . S
C1073 C1072 1.366 . S
C1073 C1074 1.414 . S
C1073 C1076 1.499 . S
C1074 H1054 0.950 . S
C1074 C1073 1.414 . S
C1074 C1075 1.374 . S
C1075 H1055 0.950 . S
C1075 C1071 1.385 . S
C1075 C1074 1.374 . S
C1076 C1073 1.499 . S
C1076 C1077 1.373 . S
C1076 C1078 1.389 . S
C1077 H1056 0.950 . S
C1077 C1076 1.373 . S
C1077 C1093 1.377 . S
C1078 C1076 1.389 . S
C1078 C1079 1.524 . S
C1078 C1092 1.377 . S
C1079 C1078 1.524 . S
C1079 C1080 1.397 . S
C1079 C1084 1.363 . S
C1080 H1057 0.950 . S
C1080 C1079 1.397 . S
C1080 C1081 1.334 . S
C1081 H1058 0.950 . S
C1081 C1080 1.334 . S
C1081 C1082 1.287 . S
C1082 C1081 1.287 . S
C1082 C1083 1.524 . S
C1082 H1101 0.913 . S
C1083 H1059 0.950 . S
C1083 C1082 1.524 . S
C1083 C1084 1.415 . S
C1084 H1060 0.950 . S
C1084 C1079 1.363 . S
C1084 C1083 1.415 . S
C1085 H1061 0.951 . S
C1085 C1086 1.366 . S
C1085 C1087 1.388 . S
C1086 C1085 1.366 . S
C1086 C1090 1.385 . S
C1087 H1062 0.951 . S
C1087 C1085 1.388 . S
C1087 C1088 1.366 . S
C1088 C1087 1.366 . S
C1088 C1089 1.414 . S
C1088 C1091 1.499 . S
C1089 H1063 0.950 . S
C1089 C1088 1.414 . S
C1089 C1090 1.374 . S
C1090 H1064 0.950 . S
C1090 C1086 1.385 . S
C1090 C1089 1.374 . S
C1091 C1088 1.499 . S
C1091 C1092 1.373 . S
C1091 C1093 1.389 . S
C1092 H1065 0.950 . S
C1092 C1078 1.377 . S
C1092 C1091 1.373 . S
C1093 C1077 1.377 . S
C1093 C1091 1.389 . S
C1093 C1094 1.524 . S
C1094 C1093 1.524 . S
C1094 C1095 1.397 . S
C1094 C1099 1.363 . S
C1095 H1066 0.950 . S
C1095 C1094 1.397 . S
C1095 C1096 1.334 . S
C1096 H1067 0.950 . S
C1096 C1095 1.334 . S
C1096 C1097 1.287 . S
C1097 C1096 1.287 . S
C1097 C1098 1.524 . S
C1097 H1100 0.999 . S
C1098 H1068 0.950 . S
C1098 C1097 1.524 . S
C1098 C1099 1.415 . S
C1099 H1069 0.950 . S
C1099 C1094 1.363 . S
C1099 C1098 1.415 . S
H1100 C1097 0.999 . S
H1101 C1082 0.913 . S
H1102 C1120 0.951 . S
H1103 C1122 0.951 . S
H1104 C1124 0.950 . S
H1105 C1125 0.950 . S
H1106 C1127 0.950 . S
H1107 C1130 0.950 . S
H1108 C1131 0.950 . S
H1109 C1133 0.950 . S
H1110 C1134 0.950 . S
H1111 C1135 0.951 . S
H1112 C1137 0.951 . S
H1113 C1139 0.950 . S
H1114 C1140 0.950 . S
H1115 C1142 0.950 . S
H1116 C1145 0.950 . S
H1117 C1146 0.950 . S
H1118 C1148 0.950 . S
H1119 C1149 0.950 . S
C1120 H1102 0.951 . S
C1120 C1121 1.366 . S
C1120 C1122 1.388 . S
C1121 C1120 1.366 . S
C1121 C1125 1.385 . S
C1122 H1103 0.951 . S
C1122 C1120 1.388 . S
C1122 C1123 1.366 . S
C1123 C1122 1.366 . S
C1123 C1124 1.414 . S
C1123 C1126 1.499 . S
C1124 H1104 0.950 . S
C1124 C1123 1.414 . S
C1124 C1125 1.374 . S
C1125 H1105 0.950 . S
C1125 C1121 1.385 . S
C1125 C1124 1.374 . S
C1126 C1123 1.499 . S
C1126 C1127 1.373 . S
C1126 C1128 1.389 . S
C1127 H1106 0.950 . S
C1127 C1126 1.373 . S
C1127 C1143 1.377 . S
C1128 C1126 1.389 . S
C1128 C1129 1.524 . S
C1128 C1142 1.377 . S
C1129 C1128 1.524 . S
C1129 C1130 1.397 . S
C1129 C1134 1.363 . S
C1130 H1107 0.950 . S
C1130 C1129 1.397 . S
C1130 C1131 1.334 . S
C1131 H1108 0.950 . S
C1131 C1130 1.334 . S
C1131 C1132 1.287 . S
C1132 C1131 1.287 . S
C1132 C1133 1.524 . S
C1132 H1151 0.913 . S
C1133 H1109 0.950 . S
C1133 C1132 1.524 . S
C1133 C1134 1.415 . S
C1134 H1110 0.950 . S
C1134 C1129 1.363 . S
C1134 C1133 1.415 . S
C1135 H1111 0.951 . S
C1135 C1136 1.366 . S
C1135 C1137 1.388 . S
C1136 C1135 1.366 . S
C1136 C1140 1.385 . S
C1137 H1112 0.951 . S
C1137 C1135 1.388 . S
C1137 C1138 1.366 . S
C1138 C1137 1.366 . S
C1138 C1139 1.414 . S
C1138 C1141 1.499 . S
C1139 H1113 0.950 . S
C1139 C1138 1.414 . S
C1139 C1140 1.374 . S
C1140 H1114 0.950 . S
C1140 C1136 1.385 . S
C1140 C1139 1.374 . S
C1141 C1138 1.499 . S
C1141 C1142 1.373 . S
C1141 C1143 1.389 . S
C1142 H1115 0.950 . S
C1142 C1128 1.377 . S
C1142 C1141 1.373 . S
C1143 C1127 1.377 . S
C1143 C1141 1.389 . S
C1143 C1144 1.524 . S
C1144 C1143 1.524 . S
C1144 C1145 1.397 . S
C1144 C1149 1.363 . S
C1145 H1116 0.950 . S
C1145 C1144 1.397 . S
C1145 C1146 1.334 . S
C1146 H1117 0.950 . S
C1146 C1145 1.334 . S
C1146 C1147 1.287 . S
C1147 C1146 1.287 . S
C1147 C1148 1.524 . S
C1147 H1150 0.999 . S
C1148 H1118 0.950 . S
C1148 C1147 1.524 . S
C1148 C1149 1.415 . S
C1149 H1119 0.950 . S
C1149 C1144 1.363 . S
C1149 C1148 1.415 . S
H1150 C1147 0.999 . S
H1151 C1132 0.913 . S
H1152 C1170 0.951 . S
H1153 C1172 0.951 . S
H1154 C1174 0.950 . S
H1155 C1175 0.950 . S
H1156 C1177 0.950 . S
H1157 C1180 0.950 . S
H1158 C1181 0.950 . S
H1159 C1183 0.950 . S
H1160 C1184 0.950 . S
H1161 C1185 0.951 . S
H1162 C1187 0.951 . S
H1163 C1189 0.950 . S
H1164 C1190 0.950 . S
H1165 C1192 0.950 . S
H1166 C1195 0.950 . S
H1167 C1196 0.950 . S
H1168 C1198 0.950 . S
H1169 C1199 0.950 . S
C1170 H1152 0.951 . S
C1170 C1171 1.366 . S
C1170 C1172 1.388 . S
C1171 C1170 1.366 . S
C1171 C1175 1.385 . S
C1172 H1153 0.951 . S
C1172 C1170 1.388 . S
C1172 C1173 1.366 . S
C1173 C1172 1.366 . S
C1173 C1174 1.414 . S
C1173 C1176 1.499 . S
C1174 H1154 0.950 . S
C1174 C1173 1.414 . S
C1174 C1175 1.374 . S
C1175 H1155 0.950 . S
C1175 C1171 1.385 . S
C1175 C1174 1.374 . S
C1176 C1173 1.499 . S
C1176 C1177 1.373 . S
C1176 C1178 1.389 . S
C1177 H1156 0.950 . S
C1177 C1176 1.373 . S
C1177 C1193 1.377 . S
C1178 C1176 1.389 . S
C1178 C1179 1.524 . S
C1178 C1192 1.377 . S
C1179 C1178 1.524 . S
C1179 C1180 1.397 . S
C1179 C1184 1.363 . S
C1180 H1157 0.950 . S
C1180 C1179 1.397 . S
C1180 C1181 1.334 . S
C1181 H1158 0.950 . S
C1181 C1180 1.334 . S
C1181 C1182 1.287 . S
C1182 C1181 1.287 . S
C1182 C1183 1.524 . S
C1182 H1201 0.913 . S
C1183 H1159 0.950 . S
C1183 C1182 1.524 . S
C1183 C1184 1.415 . S
C1184 H1160 0.950 . S
C1184 C1179 1.363 . S
C1184 C1183 1.415 . S
C1185 H1161 0.951 . S
C1185 C1186 1.366 . S
C1185 C1187 1.388 . S
C1186 C1185 1.366 . S
C1186 C1190 1.385 . S
C1187 H1162 0.951 . S
C1187 C1185 1.388 . S
C1187 C1188 1.366 . S
C1188 C1187 1.366 . S
C1188 C1189 1.414 . S
C1188 C1191 1.499 . S
C1189 H1163 0.950 . S
C1189 C1188 1.414 . S
C1189 C1190 1.374 . S
C1190 H1164 0.950 . S
C1190 C1186 1.385 . S
C1190 C1189 1.374 . S
C1191 C1188 1.499 . S
C1191 C1192 1.373 . S
C1191 C1193 1.389 . S
C1192 H1165 0.950 . S
C1192 C1178 1.377 . S
C1192 C1191 1.373 . S
C1193 C1177 1.377 . S
C1193 C1191 1.389 . S
C1193 C1194 1.524 . S
C1194 C1193 1.524 . S
C1194 C1195 1.397 . S
C1194 C1199 1.363 . S
C1195 H1166 0.950 . S
C1195 C1194 1.397 . S
C1195 C1196 1.334 . S
C1196 H1167 0.950 . S
C1196 C1195 1.334 . S
C1196 C1197 1.287 . S
C1197 C1196 1.287 . S
C1197 C1198 1.524 . S
C1197 H1200 0.999 . S
C1198 H1168 0.950 . S
C1198 C1197 1.524 . S
C1198 C1199 1.415 . S
C1199 H1169 0.950 . S
C1199 C1194 1.363 . S
C1199 C1198 1.415 . S
H1200 C1197 0.999 . S
H1201 C1182 0.913 . S
H1202 C1220 0.951 . S
H1203 C1222 0.951 . S
H1204 C1224 0.950 . S
H1205 C1225 0.950 . S
H1206 C1227 0.950 . S
H1207 C1230 0.950 . S
H1208 C1231 0.950 . S
H1209 C1233 0.950 . S
H1210 C1234 0.950 . S
H1211 C1235 0.951 . S
H1212 C1237 0.951 . S
H1213 C1239 0.950 . S
H1214 C1240 0.950 . S
H1215 C1242 0.950 . S
H1216 C1245 0.950 . S
H1217 C1246 0.950 . S
H1218 C1248 0.950 . S
H1219 C1249 0.950 . S
C1220 H1202 0.951 . S
C1220 C1221 1.366 . S
C1220 C1222 1.388 . S
C1221 C1220 1.366 . S
C1221 C1225 1.385 . S
C1222 H1203 0.951 . S
C1222 C1220 1.388 . S
C1222 C1223 1.366 . S
C1223 C1222 1.366 . S
C1223 C1224 1.414 . S
C1223 C1226 1.499 . S
C1224 H1204 0.950 . S
C1224 C1223 1.414 . S
C1224 C1225 1.374 . S
C1225 H1205 0.950 . S
C1225 C1221 1.385 . S
C1225 C1224 1.374 . S
C1226 C1223 1.499 . S
C1226 C1227 1.373 . S
C1226 C1228 1.389 . S
C1227 H1206 0.950 . S
C1227 C1226 1.373 . S
C1227 C1243 1.377 . S
C1228 C1226 1.389 . S
C1228 C1229 1.524 . S
C1228 C1242 1.377 . S
C1229 C1228 1.524 . S
C1229 C1230 1.397 . S
C1229 C1234 1.363 . S
C1230 H1207 0.950 . S
C1230 C1229 1.397 . S
C1230 C1231 1.334 . S
C1231 H1208 0.950 . S
C1231 C1230 1.334 . S
C1231 C1232 1.287 . S
C1232 C1231 1.287 . S
C1232 C1233 1.524 . S
C1232 H1251 0.913 . S
C1233 H1209 0.950 . S
C1233 C1232 1.524 . S
C1233 C1234 1.415 . S
C1234 H1210 0.950 . S
C1234 C1229 1.363 . S
C1234 C1233 1.415 . S
C1235 H1211 0.951 . S
C1235 C1236 1.366 . S
C1235 C1237 1.388 . S
C1236 C1235 1.366 . S
C1236 C1240 1.385 . S
C1237 H1212 0.951 . S
C1237 C1235 1.388 . S
C1237 C1238 1.366 . S
C1238 C1237 1.366 . S
C1238 C1239 1.414 . S
C1238 C1241 1.499 . S
C1239 H1213 0.950 . S
C1239 C1238 1.414 . S
C1239 C1240 1.374 . S
C1240 H1214 0.950 . S
C1240 C1236 1.385 . S
C1240 C1239 1.374 . S
C1241 C1238 1.499 . S
C1241 C1242 1.373 . S
C1241 C1243 1.389 . S
C1242 H1215 0.950 . S
C1242 C1228 1.377 . S
C1242 C1241 1.373 . S
C1243 C1227 1.377 . S
C1243 C1241 1.389 . S
C1243 C1244 1.524 . S
C1244 C1243 1.524 . S
C1244 C1245 1.397 . S
C1244 C1249 1.363 . S
C1245 H1216 0.950 . S
C1245 C1244 1.397 . S
C1245 C1246 1.334 . S
C1246 H1217 0.950 . S
C1246 C1245 1.334 . S
C1246 C1247 1.287 . S
C1247 C1246 1.287 . S
C1247 C1248 1.524 . S
C1247 H1250 0.999 . S
C1248 H1218 0.950 . S
C1248 C1247 1.524 . S
C1248 C1249 1.415 . S
C1249 H1219 0.950 . S
C1249 C1244 1.363 . S
C1249 C1248 1.415 . S
H1250 C1247 0.999 . S
H1251 C1232 0.913 . S
H1252 C1270 0.951 . S
H1253 C1272 0.951 . S
H1254 C1274 0.950 . S
H1255 C1275 0.950 . S
H1256 C1277 0.950 . S
H1257 C1280 0.950 . S
H1258 C1281 0.950 . S
H1259 C1283 0.950 . S
H1260 C1284 0.950 . S
H1261 C1285 0.951 . S
H1262 C1287 0.951 . S
H1263 C1289 0.950 . S
H1264 C1290 0.950 . S
H1265 C1292 0.950 . S
H1266 C1295 0.950 . S
H1267 C1296 0.950 . S
H1268 C1298 0.950 . S
H1269 C1299 0.950 . S
C1270 H1252 0.951 . S
C1270 C1271 1.366 . S
C1270 C1272 1.388 . S
C1271 C1270 1.366 . S
C1271 C1275 1.385 . S
C1272 H1253 0.951 . S
C1272 C1270 1.388 . S
C1272 C1273 1.366 . S
C1273 C1272 1.366 . S
C1273 C1274 1.414 . S
C1273 C1276 1.499 . S
C1274 H1254 0.950 . S
C1274 C1273 1.414 . S
C1274 C1275 1.374 . S
C1275 H1255 0.950 . S
C1275 C1271 1.385 . S
C1275 C1274 1.374 . S
C1276 C1273 1.499 . S
C1276 C1277 1.373 . S
C1276 C1278 1.389 . S
C1277 H1256 0.950 . S
C1277 C1276 1.373 . S
C1277 C1293 1.377 . S
C1278 C1276 1.389 . S
C1278 C1279 1.524 . S
C1278 C1292 1.377 . S
C1279 C1278 1.524 . S
C1279 C1280 1.397 . S
C1279 C1284 1.363 . S
C1280 H1257 0.950 . S
C1280 C1279 1.397 . S
C1280 C1281 1.334 . S
C1281 H1258 0.950 . S
C1281 C1280 1.334 . S
C1281 C1282 1.287 . S
C1282 C1281 1.287 . S
C1282 C1283 1.524 . S
C1282 H1301 0.913 . S
C1283 H1259 0.950 . S
C1283 C1282 1.524 . S
C1283 C1284 1.415 . S
C1284 H1260 0.950 . S
C1284 C1279 1.363 . S
C1284 C1283 1.415 . S
C1285 H1261 0.951 . S
C1285 C1286 1.366 . S
C1285 C1287 1.388 . S
C1286 C1285 1.366 . S
C1286 C1290 1.385 . S
C1287 H1262 0.951 . S
C1287 C1285 1.388 . S
C1287 C1288 1.366 . S
C1288 C1287 1.366 . S
C1288 C1289 1.414 . S
C1288 C1291 1.499 . S
C1289 H1263 0.950 . S
C1289 C1288 1.414 . S
C1289 C1290 1.374 . S
C1290 H1264 0.950 . S
C1290 C1286 1.385 . S
C1290 C1289 1.374 . S
C1291 C1288 1.499 . S
C1291 C1292 1.373 . S
C1291 C1293 1.389 . S
C1292 H1265 0.950 . S
C1292 C1278 1.377 . S
C1292 C1291 1.373 . S
C1293 C1277 1.377 . S
C1293 C1291 1.389 . S
C1293 C1294 1.524 . S
C1294 C1293 1.524 . S
C1294 C1295 1.397 . S
C1294 C1299 1.363 . S
C1295 H1266 0.950 . S
C1295 C1294 1.397 . S
C1295 C1296 1.334 . S
C1296 H1267 0.950 . S
C1296 C1295 1.334 . S
C1296 C1297 1.287 . S
C1297 C1296 1.287 . S
C1297 C1298 1.524 . S
C1297 H1300 0.999 . S
C1298 H1268 0.950 . S
C1298 C1297 1.524 . S
C1298 C1299 1.415 . S
C1299 H1269 0.950 . S
C1299 C1294 1.363 . S
C1299 C1298 1.415 . S
H1300 C1297 0.999 . S
H1301 C1282 0.913 . S
H1302 C1320 0.951 . S
H1303 C1322 0.951 . S
H1304 C1324 0.950 . S
H1305 C1325 0.950 . S
H1306 C1327 0.950 . S
H1307 C1330 0.950 . S
H1308 C1331 0.950 . S
H1309 C1333 0.950 . S
H1310 C1334 0.950 . S
H1311 C1335 0.951 . S
H1312 C1337 0.951 . S
H1313 C1339 0.950 . S
H1314 C1340 0.950 . S
H1315 C1342 0.950 . S
H1316 C1345 0.950 . S
H1317 C1346 0.950 . S
H1318 C1348 0.950 . S
H1319 C1349 0.950 . S
C1320 H1302 0.951 . S
C1320 C1321 1.366 . S
C1320 C1322 1.388 . S
C1321 C1320 1.366 . S
C1321 C1325 1.385 . S
C1322 H1303 0.951 . S
C1322 C1320 1.388 . S
C1322 C1323 1.366 . S
C1323 C1322 1.366 . S
C1323 C1324 1.414 . S
C1323 C1326 1.499 . S
C1324 H1304 0.950 . S
C1324 C1323 1.414 . S
C1324 C1325 1.374 . S
C1325 H1305 0.950 . S
C1325 C1321 1.385 . S
C1325 C1324 1.374 . S
C1326 C1323 1.499 . S
C1326 C1327 1.373 . S
C1326 C1328 1.389 . S
C1327 H1306 0.950 . S
C1327 C1326 1.373 . S
C1327 C1343 1.377 . S
C1328 C1326 1.389 . S
C1328 C1329 1.524 . S
C1328 C1342 1.377 . S
C1329 C1328 1.524 . S
C1329 C1330 1.397 . S
C1329 C1334 1.363 . S
C1330 H1307 0.950 . S
C1330 C1329 1.397 . S
C1330 C1331 1.334 . S
C1331 H1308 0.950 . S
C1331 C1330 1.334 . S
C1331 C1332 1.287 . S
C1332 C1331 1.287 . S
C1332 C1333 1.524 . S
C1332 H1351 0.913 . S
C1333 H1309 0.950 . S
C1333 C1332 1.524 . S
C1333 C1334 1.415 . S
C1334 H1310 0.950 . S
C1334 C1329 1.363 . S
C1334 C1333 1.415 . S
C1335 H1311 0.951 . S
C1335 C1336 1.366 . S
C1335 C1337 1.388 . S
C1336 C1335 1.366 . S
C1336 C1340 1.385 . S
C1337 H1312 0.951 . S
C1337 C1335 1.388 . S
C1337 C1338 1.366 . S
C1338 C1337 1.366 . S
C1338 C1339 1.414 . S
C1338 C1341 1.499 . S
C1339 H1313 0.950 . S
C1339 C1338 1.414 . S
C1339 C1340 1.374 . S
C1340 H1314 0.950 . S
C1340 C1336 1.385 . S
C1340 C1339 1.374 . S
C1341 C1338 1.499 . S
C1341 C1342 1.373 . S
C1341 C1343 1.389 . S
C1342 H1315 0.950 . S
C1342 C1328 1.377 . S
C1342 C1341 1.373 . S
C1343 C1327 1.377 . S
C1343 C1341 1.389 . S
C1343 C1344 1.524 . S
C1344 C1343 1.524 . S
C1344 C1345 1.397 . S
C1344 C1349 1.363 . S
C1345 H1316 0.950 . S
C1345 C1344 1.397 . S
C1345 C1346 1.334 . S
C1346 H1317 0.950 . S
C1346 C1345 1.334 . S
C1346 C1347 1.287 . S
C1347 C1346 1.287 . S
C1347 C1348 1.524 . S
C1347 H1350 0.999 . S
C1348 H1318 0.950 . S
C1348 C1347 1.524 . S
C1348 C1349 1.415 . S
C1349 H1319 0.950 . S
C1349 C1344 1.363 . S
C1349 C1348 1.415 . S
H1350 C1347 0.999 . S
H1351 C1332 0.913 . S
H1352 C1370 0.951 . S
H1353 C1372 0.951 . S
H1354 C1374 0.950 . S
H1355 C1375 0.950 . S
H1356 C1377 0.950 . S
H1357 C1380 0.950 . S
H1358 C1381 0.950 . S
H1359 C1383 0.950 . S
H1360 C1384 0.950 . S
H1361 C1385 0.951 . S
H1362 C1387 0.951 . S
H1363 C1389 0.950 . S
H1364 C1390 0.950 . S
H1365 C1392 0.950 . S
H1366 C1395 0.950 . S
H1367 C1396 0.950 . S
H1368 C1398 0.950 . S
H1369 C1399 0.950 . S
C1370 H1352 0.951 . S
C1370 C1371 1.366 . S
C1370 C1372 1.388 . S
C1371 C1370 1.366 . S
C1371 C1375 1.385 . S
C1372 H1353 0.951 . S
C1372 C1370 1.388 . S
C1372 C1373 1.366 . S
C1373 C1372 1.366 . S
C1373 C1374 1.414 . S
C1373 C1376 1.499 . S
C1374 H1354 0.950 . S
C1374 C1373 1.414 . S
C1374 C1375 1.374 . S
C1375 H1355 0.950 . S
C1375 C1371 1.385 . S
C1375 C1374 1.374 . S
C1376 C1373 1.499 . S
C1376 C1377 1.373 . S
C1376 C1378 1.389 . S
C1377 H1356 0.950 . S
C1377 C1376 1.373 . S
C1377 C1393 1.377 . S
C1378 C1376 1.389 . S
C1378 C1379 1.524 . S
C1378 C1392 1.377 . S
C1379 C1378 1.524 . S
C1379 C1380 1.397 . S
C1379 C1384 1.363 . S
C1380 H1357 0.950 . S
C1380 C1379 1.397 . S
C1380 C1381 1.334 . S
C1381 H1358 0.950 . S
C1381 C1380 1.334 . S
C1381 C1382 1.287 . S
C1382 C1381 1.287 . S
C1382 C1383 1.524 . S
C1382 H1401 0.913 . S
C1383 H1359 0.950 . S
C1383 C1382 1.524 . S
C1383 C1384 1.415 . S
C1384 H1360 0.950 . S
C1384 C1379 1.363 . S
C1384 C1383 1.415 . S
C1385 H1361 0.951 . S
C1385 C1386 1.366 . S
C1385 C1387 1.388 . S
C1386 C1385 1.366 . S
C1386 C1390 1.385 . S
C1387 H1362 0.951 . S
C1387 C1385 1.388 . S
C1387 C1388 1.366 . S
C1388 C1387 1.366 . S
C1388 C1389 1.414 . S
C1388 C1391 1.499 . S
C1389 H1363 0.950 . S
C1389 C1388 1.414 . S
C1389 C1390 1.374 . S
C1390 H1364 0.950 . S
C1390 C1386 1.385 . S
C1390 C1389 1.374 . S
C1391 C1388 1.499 . S
C1391 C1392 1.373 . S
C1391 C1393 1.389 . S
C1392 H1365 0.950 . S
C1392 C1378 1.377 . S
C1392 C1391 1.373 . S
C1393 C1377 1.377 . S
C1393 C1391 1.389 . S
C1393 C1394 1.524 . S
C1394 C1393 1.524 . S
C1394 C1395 1.397 . S
C1394 C1399 1.363 . S
C1395 H1366 0.950 . S
C1395 C1394 1.397 . S
C1395 C1396 1.334 . S
C1396 H1367 0.950 . S
C1396 C1395 1.334 . S
C1396 C1397 1.287 . S
C1397 C1396 1.287 . S
C1397 C1398 1.524 . S
C1397 H1400 0.999 . S
C1398 H1368 0.950 . S
C1398 C1397 1.524 . S
C1398 C1399 1.415 . S
C1399 H1369 0.950 . S
C1399 C1394 1.363 . S
C1399 C1398 1.415 . S
H1400 C1397 0.999 . S
H1401 C1382 0.913 . S
H1402 C1420 0.951 . S
H1403 C1422 0.951 . S
H1404 C1424 0.950 . S
H1405 C1425 0.950 . S
H1406 C1427 0.950 . S
H1407 C1430 0.950 . S
H1408 C1431 0.950 . S
H1409 C1433 0.950 . S
H1410 C1434 0.950 . S
H1411 C1435 0.951 . S
H1412 C1437 0.951 . S
H1413 C1439 0.950 . S
H1414 C1440 0.950 . S
H1415 C1442 0.950 . S
H1416 C1445 0.950 . S
H1417 C1446 0.950 . S
H1418 C1448 0.950 . S
H1419 C1449 0.950 . S
C1420 H1402 0.951 . S
C1420 C1421 1.366 . S
C1420 C1422 1.388 . S
C1421 C1420 1.366 . S
C1421 C1425 1.385 . S
C1422 H1403 0.951 . S
C1422 C1420 1.388 . S
C1422 C1423 1.366 . S
C1423 C1422 1.366 . S
C1423 C1424 1.414 . S
C1423 C1426 1.499 . S
C1424 H1404 0.950 . S
C1424 C1423 1.414 . S
C1424 C1425 1.374 . S
C1425 H1405 0.950 . S
C1425 C1421 1.385 . S
C1425 C1424 1.374 . S
C1426 C1423 1.499 . S
C1426 C1427 1.373 . S
C1426 C1428 1.389 . S
C1427 H1406 0.950 . S
C1427 C1426 1.373 . S
C1427 C1443 1.377 . S
C1428 C1426 1.389 . S
C1428 C1429 1.524 . S
C1428 C1442 1.377 . S
C1429 C1428 1.524 . S
C1429 C1430 1.397 . S
C1429 C1434 1.363 . S
C1430 H1407 0.950 . S
C1430 C1429 1.397 . S
C1430 C1431 1.334 . S
C1431 H1408 0.950 . S
C1431 C1430 1.334 . S
C1431 C1432 1.287 . S
C1432 C1431 1.287 . S
C1432 C1433 1.524 . S
C1432 H1451 0.913 . S
C1433 H1409 0.950 . S
C1433 C1432 1.524 . S
C1433 C1434 1.415 . S
C1434 H1410 0.950 . S
C1434 C1429 1.363 . S
C1434 C1433 1.415 . S
C1435 H1411 0.951 . S
C1435 C1436 1.366 . S
C1435 C1437 1.388 . S
C1436 C1435 1.366 . S
C1436 C1440 1.385 . S
C1437 H1412 0.951 . S
C1437 C1435 1.388 . S
C1437 C1438 1.366 . S
C1438 C1437 1.366 . S
C1438 C1439 1.414 . S
C1438 C1441 1.499 . S
C1439 H1413 0.950 . S
C1439 C1438 1.414 . S
C1439 C1440 1.374 . S
C1440 H1414 0.950 . S
C1440 C1436 1.385 . S
C1440 C1439 1.374 . S
C1441 C1438 1.499 . S
C1441 C1442 1.373 . S
C1441 C1443 1.389 . S
C1442 H1415 0.950 . S
C1442 C1428 1.377 . S
C1442 C1441 1.373 . S
C1443 C1427 1.377 . S
C1443 C1441 1.389 . S
C1443 C1444 1.524 . S
C1444 C1443 1.524 . S
C1444 C1445 1.397 . S
C1444 C1449 1.363 . S
C1445 H1416 0.950 . S
C1445 C1444 1.397 . S
C1445 C1446 1.334 . S
C1446 H1417 0.950 . S
C1446 C1445 1.334 . S
C1446 C1447 1.287 . S
C1447 C1446 1.287 . S
C1447 C1448 1.524 . S
C1447 H1450 0.999 . S
C1448 H1418 0.950 . S
C1448 C1447 1.524 . S
C1448 C1449 1.415 . S
C1449 H1419 0.950 . S
C1449 C1444 1.363 . S
C1449 C1448 1.415 . S
H1450 C1447 0.999 . S
H1451 C1432 0.913 . S
H1452 C1470 0.951 . S
H1453 C1472 0.951 . S
H1454 C1474 0.950 . S
H1455 C1475 0.950 . S
H1456 C1477 0.950 . S
H1457 C1480 0.950 . S
H1458 C1481 0.950 . S
H1459 C1483 0.950 . S
H1460 C1484 0.950 . S
H1461 C1485 0.951 . S
H1462 C1487 0.951 . S
H1463 C1489 0.950 . S
H1464 C1490 0.950 . S
H1465 C1492 0.950 . S
H1466 C1495 0.950 . S
H1467 C1496 0.950 . S
H1468 C1498 0.950 . S
H1469 C1499 0.950 . S
C1470 H1452 0.951 . S
C1470 C1471 1.366 . S
C1470 C1472 1.388 . S
C1471 C1470 1.366 . S
C1471 C1475 1.385 . S
C1472 H1453 0.951 . S
C1472 C1470 1.388 . S
C1472 C1473 1.366 . S
C1473 C1472 1.366 . S
C1473 C1474 1.414 . S
C1473 C1476 1.499 . S
C1474 H1454 0.950 . S
C1474 C1473 1.414 . S
C1474 C1475 1.374 . S
C1475 H1455 0.950 . S
C1475 C1471 1.385 . S
C1475 C1474 1.374 . S
C1476 C1473 1.499 . S
C1476 C1477 1.373 . S
C1476 C1478 1.389 . S
C1477 H1456 0.950 . S
C1477 C1476 1.373 . S
C1477 C1493 1.377 . S
C1478 C1476 1.389 . S
C1478 C1479 1.524 . S
C1478 C1492 1.377 . S
C1479 C1478 1.524 . S
C1479 C1480 1.397 . S
C1479 C1484 1.363 . S
C1480 H1457 0.950 . S
C1480 C1479 1.397 . S
C1480 C1481 1.334 . S
C1481 H1458 0.950 . S
C1481 C1480 1.334 . S
C1481 C1482 1.287 . S
C1482 C1481 1.287 . S
C1482 C1483 1.524 . S
C1482 H1501 0.913 . S
C1483 H1459 0.950 . S
C1483 C1482 1.524 . S
C1483 C1484 1.415 . S
C1484 H1460 0.950 . S
C1484 C1479 1.363 . S
C1484 C1483 1.415 . S
C1485 H1461 0.951 . S
C1485 C1486 1.366 . S
C1485 C1487 1.388 . S
C1486 C1485 1.366 . S
C1486 C1490 1.385 . S
C1487 H1462 0.951 . S
C1487 C1485 1.388 . S
C1487 C1488 1.366 . S
C1488 C1487 1.366 . S
C1488 C1489 1.414 . S
C1488 C1491 1.499 . S
C1489 H1463 0.950 . S
C1489 C1488 1.414 . S
C1489 C1490 1.374 . S
C1490 H1464 0.950 . S
C1490 C1486 1.385 . S
C1490 C1489 1.374 . S
C1491 C1488 1.499 . S
C1491 C1492 1.373 . S
C1491 C1493 1.389 . S
C1492 H1465 0.950 . S
C1492 C1478 1.377 . S
C1492 C1491 1.373 . S
C1493 C1477 1.377 . S
C1493 C1491 1.389 . S
C1493 C1494 1.524 . S
C1494 C1493 1.524 . S
C1494 C1495 1.397 . S
C1494 C1499 1.363 . S
C1495 H1466 0.950 . S
C1495 C1494 1.397 . S
C1495 C1496 1.334 . S
C1496 H1467 0.950 . S
C1496 C1495 1.334 . S
C1496 C1497 1.287 . S
C1497 C1496 1.287 . S
C1497 C1498 1.524 . S
C1497 H1500 0.999 . S
C1498 H1468 0.950 . S
C1498 C1497 1.524 . S
C1498 C1499 1.415 . S
C1499 H1469 0.950 . S
C1499 C1494 1.363 . S
C1499 C1498 1.415 . S
H1500 C1497 0.999 . S
H1501 C1482 0.913 . S
H1502 C1520 0.951 . S
H1503 C1522 0.951 . S
H1504 C1524 0.950 . S
H1505 C1525 0.950 . S
H1506 C1527 0.950 . S
H1507 C1530 0.950 . S
H1508 C1531 0.950 . S
H1509 C1533 0.950 . S
H1510 C1534 0.950 . S
H1511 C1535 0.951 . S
H1512 C1537 0.951 . S
H1513 C1539 0.950 . S
H1514 C1540 0.950 . S
H1515 C1542 0.950 . S
H1516 C1545 0.950 . S
H1517 C1546 0.950 . S
H1518 C1548 0.950 . S
H1519 C1549 0.950 . S
C1520 H1502 0.951 . S
C1520 C1521 1.366 . S
C1520 C1522 1.388 . S
C1521 C1520 1.366 . S
C1521 C1525 1.385 . S
C1522 H1503 0.951 . S
C1522 C1520 1.388 . S
C1522 C1523 1.366 . S
C1523 C1522 1.366 . S
C1523 C1524 1.414 . S
C1523 C1526 1.499 . S
C1524 H1504 0.950 . S
C1524 C1523 1.414 . S
C1524 C1525 1.374 . S
C1525 H1505 0.950 . S
C1525 C1521 1.385 . S
C1525 C1524 1.374 . S
C1526 C1523 1.499 . S
C1526 C1527 1.373 . S
C1526 C1528 1.389 . S
C1527 H1506 0.950 . S
C1527 C1526 1.373 . S
C1527 C1543 1.377 . S
C1528 C1526 1.389 . S
C1528 C1529 1.524 . S
C1528 C1542 1.377 . S
C1529 C1528 1.524 . S
C1529 C1530 1.397 . S
C1529 C1534 1.363 . S
C1530 H1507 0.950 . S
C1530 C1529 1.397 . S
C1530 C1531 1.334 . S
C1531 H1508 0.950 . S
C1531 C1530 1.334 . S
C1531 C1532 1.287 . S
C1532 C1531 1.287 . S
C1532 C1533 1.524 . S
C1532 H1551 0.913 . S
C1533 H1509 0.950 . S
C1533 C1532 1.524 . S
C1533 C1534 1.415 . S
C1534 H1510 0.950 . S
C1534 C1529 1.363 . S
C1534 C1533 1.415 . S
C1535 H1511 0.951 . S
C1535 C1536 1.366 . S
C1535 C1537 1.388 . S
C1536 C1535 1.366 . S
C1536 C1540 1.385 . S
C1537 H1512 0.951 . S
C1537 C1535 1.388 . S
C1537 C1538 1.366 . S
C1538 C1537 1.366 . S
C1538 C1539 1.414 . S
C1538 C1541 1.499 . S
C1539 H1513 0.950 . S
C1539 C1538 1.414 . S
C1539 C1540 1.374 . S
C1540 H1514 0.950 . S
C1540 C1536 1.385 . S
C1540 C1539 1.374 . S
C1541 C1538 1.499 . S
C1541 C1542 1.373 . S
C1541 C1543 1.389 . S
C1542 H1515 0.950 . S
C1542 C1528 1.377 . S
C1542 C1541 1.373 . S
C1543 C1527 1.377 . S
C1543 C1541 1.389 . S
C1543 C1544 1.524 . S
C1544 C1543 1.524 . S
C1544 C1545 1.397 . S
C1544 C1549 1.363 . S
C1545 H1516 0.950 . S
C1545 C1544 1.397 . S
C1545 C1546 1.334 . S
C1546 H1517 0.950 . S
C1546 C1545 1.334 . S
C1546 C1547 1.287 . S
C1547 C1546 1.287 . S
C1547 C1548 1.524 . S
C1547 H1550 0.999 . S
C1548 H1518 0.950 . S
C1548 C1547 1.524 . S
C1548 C1549 1.415 . S
C1549 H1519 0.950 . S
C1549 C1544 1.363 . S
C1549 C1548 1.415 . S
H1550 C1547 0.999 . S
H1551 C1532 0.913 . S
H1552 C1570 0.951 . S
H1553 C1572 0.951 . S
H1554 C1574 0.950 . S
H1555 C1575 0.950 . S
H1556 C1577 0.950 . S
H1557 C1580 0.950 . S
H1558 C1581 0.950 . S
H1559 C1583 0.950 . S
H1560 C1584 0.950 . S
H1561 C1585 0.951 . S
H1562 C1587 0.951 . S
H1563 C1589 0.950 . S
H1564 C1590 0.950 . S
H1565 C1592 0.950 . S
H1566 C1595 0.950 . S
H1567 C1596 0.950 . S
H1568 C1598 0.950 . S
H1569 C1599 0.950 . S
C1570 H1552 0.951 . S
C1570 C1571 1.366 . S
C1570 C1572 1.388 . S
C1571 C1570 1.366 . S
C1571 C1575 1.385 . S
C1572 H1553 0.951 . S
C1572 C1570 1.388 . S
C1572 C1573 1.366 . S
C1573 C1572 1.366 . S
C1573 C1574 1.414 . S
C1573 C1576 1.499 . S
C1574 H1554 0.950 . S
C1574 C1573 1.414 . S
C1574 C1575 1.374 . S
C1575 H1555 0.950 . S
C1575 C1571 1.385 . S
C1575 C1574 1.374 . S
C1576 C1573 1.499 . S
C1576 C1577 1.373 . S
C1576 C1578 1.389 . S
C1577 H1556 0.950 . S
C1577 C1576 1.373 . S
C1577 C1593 1.377 . S
C1578 C1576 1.389 . S
C1578 C1579 1.524 . S
C1578 C1592 1.377 . S
C1579 C1578 1.524 . S
C1579 C1580 1.397 . S
C1579 C1584 1.363 . S
C1580 H1557 0.950 . S
C1580 C1579 1.397 . S
C1580 C1581 1.334 . S
C1581 H1558 0.950 . S
C1581 C1580 1.334 . S
C1581 C1582 1.287 . S
C1582 C1581 1.287 . S
C1582 C1583 1.524 . S
C1582 H1601 0.913 . S
C1583 H1559 0.950 . S
C1583 C1582 1.524 . S
C1583 C1584 1.415 . S
C1584 H1560 0.950 . S
C1584 C1579 1.363 . S
C1584 C1583 1.415 . S
C1585 H1561 0.951 . S
C1585 C1586 1.366 . S
C1585 C1587 1.388 . S
C1586 C1585 1.366 . S
C1586 C1590 1.385 . S
C1587 H1562 0.951 . S
C1587 C1585 1.388 . S
C1587 C1588 1.366 . S
C1588 C1587 1.366 . S
C1588 C1589 1.414 . S
C1588 C1591 1.499 . S
C1589 H1563 0.950 . S
C1589 C1588 1.414 . S
C1589 C1590 1.374 . S
C1590 H1564 0.950 . S
C1590 C1586 1.385 . S
C1590 C1589 1.374 . S
C1591 C1588 1.499 . S
C1591 C1592 1.373 . S
C1591 C1593 1.389 . S
C1592 H1565 0.950 . S
C1592 C1578 1.377 . S
C1592 C1591 1.373 . S
C1593 C1577 1.377 . S
C1593 C1591 1.389 . S
C1593 C1594 1.524 . S
C1594 C1593 1.524 . S
C1594 C1595 1.397 . S
C1594 C1599 1.363 . S
C1595 H1566 0.950 . S
C1595 C1594 1.397 . S
C1595 C1596 1.334 . S
C1596 H1567 0.950 . S
C1596 C1595 1.334 . S
C1596 C1597 1.287 . S
C1597 C1596 1.287 . S
C1597 C1598 1.524 . S
C1597 H1600 0.999 . S
C1598 H1568 0.950 . S
C1598 C1597 1.524 . S
C1598 C1599 1.415 . S
C1599 H1569 0.950 . S
C1599 C1594 1.363 . S
C1599 C1598 1.415 . S
H1600 C1597 0.999 . S
H1601 C1582 0.913 . S
H1602 C1620 0.951 . S
H1603 C1622 0.951 . S
H1604 C1624 0.950 . S
H1605 C1625 0.950 . S
H1606 C1627 0.950 . S
H1607 C1630 0.950 . S
H1608 C1631 0.950 . S
H1609 C1633 0.950 . S
H1610 C1634 0.950 . S
H1611 C1635 0.951 . S
H1612 C1637 0.951 . S
H1613 C1639 0.950 . S
H1614 C1640 0.950 . S
H1615 C1642 0.950 . S
H1616 C1645 0.950 . S
H1617 C1646 0.950 . S
H1618 C1648 0.950 . S
H1619 C1649 0.950 . S
C1620 H1602 0.951 . S
C1620 C1621 1.366 . S
C1620 C1622 1.388 . S
C1621 C1620 1.366 . S
C1621 C1625 1.385 . S
C1622 H1603 0.951 . S
C1622 C1620 1.388 . S
C1622 C1623 1.366 . S
C1623 C1622 1.366 . S
C1623 C1624 1.414 . S
C1623 C1626 1.499 . S
C1624 H1604 0.950 . S
C1624 C1623 1.414 . S
C1624 C1625 1.374 . S
C1625 H1605 0.950 . S
C1625 C1621 1.385 . S
C1625 C1624 1.374 . S
C1626 C1623 1.499 . S
C1626 C1627 1.373 . S
C1626 C1628 1.389 . S
C1627 H1606 0.950 . S
C1627 C1626 1.373 . S
C1627 C1643 1.377 1_554 S
C1628 C1626 1.389 . S
C1628 C1629 1.524 . S
C1628 C1642 1.377 1_554 S
C1629 C1628 1.524 . S
C1629 C1630 1.397 . S
C1629 C1634 1.363 . S
C1630 H1607 0.950 . S
C1630 C1629 1.397 . S
C1630 C1631 1.334 . S
C1631 H1608 0.950 . S
C1631 C1630 1.334 . S
C1631 C1632 1.287 . S
C1632 C1631 1.287 . S
C1632 C1633 1.524 . S
C1632 H1651 0.913 . S
C1633 H1609 0.950 . S
C1633 C1632 1.524 . S
C1633 C1634 1.415 . S
C1634 H1610 0.950 . S
C1634 C1629 1.363 . S
C1634 C1633 1.415 . S
C1635 H1611 0.951 . S
C1635 C1636 1.366 . S
C1635 C1637 1.388 . S
C1636 C1635 1.366 . S
C1636 C1640 1.385 . S
C1637 H1612 0.951 . S
C1637 C1635 1.388 . S
C1637 C1638 1.366 . S
C1638 C1637 1.366 . S
C1638 C1639 1.414 . S
C1638 C1641 1.499 . S
C1639 H1613 0.950 . S
C1639 C1638 1.414 . S
C1639 C1640 1.374 . S
C1640 H1614 0.950 . S
C1640 C1636 1.385 . S
C1640 C1639 1.374 . S
C1641 C1638 1.499 . S
C1641 C1642 1.373 . S
C1641 C1643 1.389 . S
C1642 H1615 0.950 . S
C1642 C1628 1.377 1_556 S
C1642 C1641 1.373 . S
C1643 C1627 1.377 1_556 S
C1643 C1641 1.389 . S
C1643 C1644 1.524 . S
C1644 C1643 1.524 . S
C1644 C1645 1.397 . S
C1644 C1649 1.363 . S
C1645 H1616 0.950 . S
C1645 C1644 1.397 . S
C1645 C1646 1.334 . S
C1646 H1617 0.950 . S
C1646 C1645 1.334 . S
C1646 C1647 1.287 . S
C1647 C1646 1.287 . S
C1647 C1648 1.524 . S
C1647 H1650 0.999 . S
C1648 H1618 0.950 . S
C1648 C1647 1.524 . S
C1648 C1649 1.415 . S
C1649 H1619 0.950 . S
C1649 C1644 1.363 . S
C1649 C1648 1.415 . S
H1650 C1647 0.999 . S
H1651 C1632 0.913 . S
H1652 C1670 0.951 . S
H1653 C1672 0.951 . S
H1654 C1674 0.950 . S
H1655 C1675 0.950 . S
H1656 C1677 0.950 . S
H1657 C1680 0.950 . S
H1658 C1681 0.950 . S
H1659 C1683 0.950 . S
H1660 C1684 0.950 . S
H1661 C1685 0.951 . S
H1662 C1687 0.951 . S
H1663 C1689 0.950 . S
H1664 C1690 0.950 . S
H1665 C1692 0.950 . S
H1666 C1695 0.950 . S
H1667 C1696 0.950 . S
H1668 C1698 0.950 . S
H1669 C1699 0.950 . S
C1670 H1652 0.951 . S
C1670 C1671 1.366 1_565 S
C1670 C1672 1.388 . S
C1671 C1670 1.366 1_545 S
C1671 C1675 1.385 . S
C1672 H1653 0.951 . S
C1672 C1670 1.388 . S
C1672 C1673 1.366 1_565 S
C1673 C1672 1.366 1_545 S
C1673 C1674 1.414 . S
C1673 C1676 1.499 . S
C1674 H1654 0.950 . S
C1674 C1673 1.414 . S
C1674 C1675 1.374 . S
C1675 H1655 0.950 . S
C1675 C1671 1.385 . S
C1675 C1674 1.374 . S
C1676 C1673 1.499 . S
C1676 C1677 1.373 . S
C1676 C1678 1.389 1_545 S
C1677 H1656 0.950 . S
C1677 C1676 1.373 . S
C1677 C1693 1.377 1_556 S
C1678 C1676 1.389 1_565 S
C1678 C1679 1.524 . S
C1678 C1692 1.377 1_556 S
C1679 C1678 1.524 . S
C1679 C1680 1.397 . S
C1679 C1684 1.363 . S
C1680 H1657 0.950 . S
C1680 C1679 1.397 . S
C1680 C1681 1.334 . S
C1681 H1658 0.950 . S
C1681 C1680 1.334 . S
C1681 C1682 1.287 . S
C1682 C1681 1.287 . S
C1682 C1683 1.524 . S
C1682 H1701 0.913 . S
C1683 H1659 0.950 . S
C1683 C1682 1.524 . S
C1683 C1684 1.415 . S
C1684 H1660 0.950 . S
C1684 C1679 1.363 . S
C1684 C1683 1.415 . S
C1685 H1661 0.951 . S
C1685 C1686 1.366 1_545 S
C1685 C1687 1.388 . S
C1686 C1685 1.366 1_565 S
C1686 C1690 1.385 . S
C1687 H1662 0.951 . S
C1687 C1685 1.388 . S
C1687 C1688 1.389 . S
C1688 C1687 1.389 . S
C1688 C1689 1.389 1_545 S
C1688 C1691 1.500 . S
C1689 H1663 0.950 . S
C1689 C1688 1.389 1_565 S
C1689 C1690 1.374 . S
C1690 H1664 0.950 . S
C1690 C1686 1.385 . S
C1690 C1689 1.374 . S
C1691 C1688 1.500 . S
C1691 C1692 1.373 1_545 S
C1691 C1693 1.389 . S
C1692 H1665 0.950 . S
C1692 C1678 1.377 1_554 S
C1692 C1691 1.373 1_565 S
C1693 C1677 1.377 1_554 S
C1693 C1691 1.389 . S
C1693 C1694 1.524 . S
C1694 C1693 1.524 . S
C1694 C1695 1.397 . S
C1694 C1699 1.363 . S
C1695 H1666 0.950 . S
C1695 C1694 1.397 . S
C1695 C1696 1.334 . S
C1696 H1667 0.950 . S
C1696 C1695 1.334 . S
C1696 C1697 1.287 . S
C1697 C1696 1.287 . S
C1697 C1698 1.524 . S
C1697 H1700 0.999 . S
C1698 H1668 0.950 . S
C1698 C1697 1.524 . S
C1698 C1699 1.415 . S
C1699 H1669 0.950 . S
C1699 C1694 1.363 . S
C1699 C1698 1.415 . S
H1700 C1697 0.999 . S
H1701 C1682 0.913 . S
H1702 C1720 0.951 . S
H1703 C1722 0.951 . S
H1704 C1724 0.950 . S
H1705 C1725 0.950 . S
H1706 C1727 0.950 . S
H1707 C1730 0.950 . S
H1708 C1731 0.950 . S
H1709 C1733 0.950 . S
H1710 C1734 0.950 . S
H1711 C1735 0.951 . S
H1712 C1737 0.951 . S
H1713 C1739 0.950 . S
H1714 C1740 0.950 . S
H1715 C1742 0.950 . S
H1716 C1745 0.950 . S
H1717 C1746 0.950 . S
H1718 C1748 0.950 . S
H1719 C1749 0.950 . S
C1720 H1702 0.951 . S
C1720 C1721 1.366 1_455 S
C1720 C1722 1.388 . S
C1721 C1720 1.366 1_655 S
C1721 C1725 1.385 . S
C1722 H1703 0.951 . S
C1722 C1720 1.388 . S
C1722 C1723 1.369 . S
C1723 C1722 1.369 . S
C1723 C1724 1.409 1_455 S
C1723 C1726 1.500 . S
C1724 H1704 0.950 . S
C1724 C1723 1.409 1_655 S
C1724 C1725 1.374 . S
C1725 H1705 0.950 . S
C1725 C1721 1.385 . S
C1725 C1724 1.374 . S
C1726 C1723 1.500 . S
C1726 C1727 1.373 1_455 S
C1726 C1728 1.389 . S
C1727 H1706 0.950 . S
C1727 C1726 1.373 1_655 S
C1727 C1743 1.377 1_556 S
C1728 C1726 1.389 . S
C1728 C1729 1.524 . S
C1728 C1742 1.377 1_556 S
C1729 C1728 1.524 . S
C1729 C1730 1.397 . S
C1729 C1734 1.363 . S
C1730 H1707 0.950 . S
C1730 C1729 1.397 . S
C1730 C1731 1.334 . S
C1731 H1708 0.950 . S
C1731 C1730 1.334 . S
C1731 C1732 1.287 . S
C1732 C1731 1.287 . S
C1732 C1733 1.524 . S
C1732 H1751 0.913 . S
C1733 H1709 0.950 . S
C1733 C1732 1.524 . S
C1733 C1734 1.415 . S
C1734 H1710 0.950 . S
C1734 C1729 1.363 . S
C1734 C1733 1.415 . S
C1735 H1711 0.951 . S
C1735 C1736 1.366 1_655 S
C1735 C1737 1.388 . S
C1736 C1735 1.366 1_455 S
C1736 C1740 1.385 . S
C1737 H1712 0.951 . S
C1737 C1735 1.388 . S
C1737 C1738 1.366 1_655 S
C1738 C1737 1.366 1_455 S
C1738 C1739 1.414 . S
C1738 C1741 1.499 . S
C1739 H1713 0.950 . S
C1739 C1738 1.414 . S
C1739 C1740 1.374 . S
C1740 H1714 0.950 . S
C1740 C1736 1.385 . S
C1740 C1739 1.374 . S
C1741 C1738 1.499 . S
C1741 C1742 1.373 . S
C1741 C1743 1.389 1_455 S
C1742 H1715 0.950 . S
C1742 C1728 1.377 1_554 S
C1742 C1741 1.373 . S
C1743 C1727 1.377 1_554 S
C1743 C1741 1.389 1_655 S
C1743 C1744 1.524 . S
C1744 C1743 1.524 . S
C1744 C1745 1.397 . S
C1744 C1749 1.363 . S
C1745 H1716 0.950 . S
C1745 C1744 1.397 . S
C1745 C1746 1.334 . S
C1746 H1717 0.950 . S
C1746 C1745 1.334 . S
C1746 C1747 1.287 . S
C1747 C1746 1.287 . S
C1747 C1748 1.524 . S
C1747 H1750 0.999 . S
C1748 H1718 0.950 . S
C1748 C1747 1.524 . S
C1748 C1749 1.415 . S
C1749 H1719 0.950 . S
C1749 C1744 1.363 . S
C1749 C1748 1.415 . S
H1750 C1747 0.999 . S
H1751 C1732 0.913 . S
H1752 C1770 0.951 . S
H1753 C1772 0.951 . S
H1754 C1774 0.950 . S
H1755 C1775 0.950 . S
H1756 C1777 0.950 . S
H1757 C1780 0.950 . S
H1758 C1781 0.950 . S
H1759 C1783 0.950 . S
H1760 C1784 0.950 . S
H1761 C1785 0.951 . S
H1762 C1787 0.951 . S
H1763 C1789 0.950 . S
H1764 C1790 0.950 . S
H1765 C1792 0.950 . S
H1766 C1795 0.950 . S
H1767 C1796 0.950 . S
H1768 C1798 0.950 . S
H1769 C1799 0.950 . S
C1770 H1752 0.951 . S
C1770 C1771 1.366 . S
C1770 C1772 1.388 . S
C1771 C1770 1.366 . S
C1771 C1775 1.385 . S
C1772 H1753 0.951 . S
C1772 C1770 1.388 . S
C1772 C1773 1.366 . S
C1773 C1772 1.366 . S
C1773 C1774 1.414 . S
C1773 C1776 1.499 . S
C1774 H1754 0.950 . S
C1774 C1773 1.414 . S
C1774 C1775 1.374 . S
C1775 H1755 0.950 . S
C1775 C1771 1.385 . S
C1775 C1774 1.374 . S
C1776 C1773 1.499 . S
C1776 C1777 1.373 . S
C1776 C1778 1.389 . S
C1777 H1756 0.950 . S
C1777 C1776 1.373 . S
C1777 C1793 1.377 . S
C1778 C1776 1.389 . S
C1778 C1779 1.524 . S
C1778 C1792 1.377 . S
C1779 C1778 1.524 . S
C1779 C1780 1.397 . S
C1779 C1784 1.363 . S
C1780 H1757 0.950 . S
C1780 C1779 1.397 . S
C1780 C1781 1.334 . S
C1781 H1758 0.950 . S
C1781 C1780 1.334 . S
C1781 C1782 1.287 . S
C1782 C1781 1.287 . S
C1782 C1783 1.524 . S
C1782 H1801 0.913 . S
C1783 H1759 0.950 . S
C1783 C1782 1.524 . S
C1783 C1784 1.415 . S
C1784 H1760 0.950 . S
C1784 C1779 1.363 . S
C1784 C1783 1.415 . S
C1785 H1761 0.951 . S
C1785 C1786 1.366 . S
C1785 C1787 1.388 . S
C1786 C1785 1.366 . S
C1786 C1790 1.385 . S
C1787 H1762 0.951 . S
C1787 C1785 1.388 . S
C1787 C1788 1.366 . S
C1788 C1787 1.366 . S
C1788 C1789 1.414 . S
C1788 C1791 1.499 . S
C1789 H1763 0.950 . S
C1789 C1788 1.414 . S
C1789 C1790 1.374 . S
C1790 H1764 0.950 . S
C1790 C1786 1.385 . S
C1790 C1789 1.374 . S
C1791 C1788 1.499 . S
C1791 C1792 1.373 . S
C1791 C1793 1.389 . S
C1792 H1765 0.950 . S
C1792 C1778 1.377 . S
C1792 C1791 1.373 . S
C1793 C1777 1.377 . S
C1793 C1791 1.389 . S
C1793 C1794 1.524 . S
C1794 C1793 1.524 . S
C1794 C1795 1.397 . S
C1794 C1799 1.363 . S
C1795 H1766 0.950 . S
C1795 C1794 1.397 . S
C1795 C1796 1.334 . S
C1796 H1767 0.950 . S
C1796 C1795 1.334 . S
C1796 C1797 1.287 . S
C1797 C1796 1.287 . S
C1797 C1798 1.524 . S
C1797 H1800 0.999 . S
C1798 H1768 0.950 . S
C1798 C1797 1.524 . S
C1798 C1799 1.415 . S
C1799 H1769 0.950 . S
C1799 C1794 1.363 . S
C1799 C1798 1.415 . S
H1800 C1797 0.999 . S
H1801 C1782 0.913 . S
H1802 C1820 0.951 . S
H1803 C1822 0.951 . S
H1804 C1824 0.950 . S
H1805 C1825 0.950 . S
H1806 C1827 0.950 . S
H1807 C1830 0.950 . S
H1808 C1831 0.950 . S
H1809 C1833 0.950 . S
H1810 C1834 0.950 . S
H1811 C1835 0.951 . S
H1812 C1837 0.951 . S
H1813 C1839 0.950 . S
H1814 C1840 0.950 . S
H1815 C1842 0.950 . S
H1816 C1845 0.950 . S
H1817 C1846 0.950 . S
H1818 C1848 0.950 . S
H1819 C1849 0.950 . S
C1820 H1802 0.951 . S
C1820 C1821 1.366 . S
C1820 C1822 1.388 . S
C1821 C1820 1.366 . S
C1821 C1825 1.385 . S
C1822 H1803 0.951 . S
C1822 C1820 1.388 . S
C1822 C1823 1.366 . S
C1823 C1822 1.366 . S
C1823 C1824 1.414 . S
C1823 C1826 1.499 . S
C1824 H1804 0.950 . S
C1824 C1823 1.414 . S
C1824 C1825 1.374 . S
C1825 H1805 0.950 . S
C1825 C1821 1.385 . S
C1825 C1824 1.374 . S
C1826 C1823 1.499 . S
C1826 C1827 1.373 . S
C1826 C1828 1.389 . S
C1827 H1806 0.950 . S
C1827 C1826 1.373 . S
C1827 C1843 1.377 . S
C1828 C1826 1.389 . S
C1828 C1829 1.524 . S
C1828 C1842 1.377 . S
C1829 C1828 1.524 . S
C1829 C1830 1.397 . S
C1829 C1834 1.363 . S
C1830 H1807 0.950 . S
C1830 C1829 1.397 . S
C1830 C1831 1.334 . S
C1831 H1808 0.950 . S
C1831 C1830 1.334 . S
C1831 C1832 1.287 . S
C1832 C1831 1.287 . S
C1832 C1833 1.524 . S
C1832 H1851 0.913 . S
C1833 H1809 0.950 . S
C1833 C1832 1.524 . S
C1833 C1834 1.415 . S
C1834 H1810 0.950 . S
C1834 C1829 1.363 . S
C1834 C1833 1.415 . S
C1835 H1811 0.951 . S
C1835 C1836 1.366 . S
C1835 C1837 1.388 . S
C1836 C1835 1.366 . S
C1836 C1840 1.385 . S
C1837 H1812 0.951 . S
C1837 C1835 1.388 . S
C1837 C1838 1.366 . S
C1838 C1837 1.366 . S
C1838 C1839 1.414 . S
C1838 C1841 1.499 . S
C1839 H1813 0.950 . S
C1839 C1838 1.414 . S
C1839 C1840 1.374 . S
C1840 H1814 0.950 . S
C1840 C1836 1.385 . S
C1840 C1839 1.374 . S
C1841 C1838 1.499 . S
C1841 C1842 1.373 . S
C1841 C1843 1.389 . S
C1842 H1815 0.950 . S
C1842 C1828 1.377 . S
C1842 C1841 1.373 . S
C1843 C1827 1.377 . S
C1843 C1841 1.389 . S
C1843 C1844 1.524 . S
C1844 C1843 1.524 . S
C1844 C1845 1.397 . S
C1844 C1849 1.363 . S
C1845 H1816 0.950 . S
C1845 C1844 1.397 . S
C1845 C1846 1.334 . S
C1846 H1817 0.950 . S
C1846 C1845 1.334 . S
C1846 C1847 1.287 . S
C1847 C1846 1.287 . S
C1847 C1848 1.524 . S
C1847 H1850 0.999 . S
C1848 H1818 0.950 . S
C1848 C1847 1.524 . S
C1848 C1849 1.415 . S
C1849 H1819 0.950 . S
C1849 C1844 1.363 . S
C1849 C1848 1.415 . S
H1850 C1847 0.999 . S
H1851 C1832 0.913 . S
H1852 C1870 0.951 . S
H1853 C1872 0.951 . S
H1854 C1874 0.950 . S
H1855 C1875 0.950 . S
H1856 C1877 0.950 . S
H1857 C1880 0.950 . S
H1858 C1881 0.950 . S
H1859 C1883 0.950 . S
H1860 C1884 0.950 . S
H1861 C1885 0.951 . S
H1862 C1887 0.951 . S
H1863 C1889 0.950 . S
H1864 C1890 0.950 . S
H1865 C1892 0.950 . S
H1866 C1895 0.950 . S
H1867 C1896 0.950 . S
H1868 C1898 0.950 . S
H1869 C1899 0.950 . S
C1870 H1852 0.951 . S
C1870 C1871 1.366 . S
C1870 C1872 1.388 . S
C1871 C1870 1.366 . S
C1871 C1875 1.385 . S
C1872 H1853 0.951 . S
C1872 C1870 1.388 . S
C1872 C1873 1.366 . S
C1873 C1872 1.366 . S
C1873 C1874 1.414 . S
C1873 C1876 1.499 . S
C1874 H1854 0.950 . S
C1874 C1873 1.414 . S
C1874 C1875 1.374 . S
C1875 H1855 0.950 . S
C1875 C1871 1.385 . S
C1875 C1874 1.374 . S
C1876 C1873 1.499 . S
C1876 C1877 1.373 . S
C1876 C1878 1.389 . S
C1877 H1856 0.950 . S
C1877 C1876 1.373 . S
C1877 C1893 1.377 . S
C1878 C1876 1.389 . S
C1878 C1879 1.524 . S
C1878 C1892 1.377 . S
C1879 C1878 1.524 . S
C1879 C1880 1.397 . S
C1879 C1884 1.363 . S
C1880 H1857 0.950 . S
C1880 C1879 1.397 . S
C1880 C1881 1.334 . S
C1881 H1858 0.950 . S
C1881 C1880 1.334 . S
C1881 C1882 1.287 . S
C1882 C1881 1.287 . S
C1882 C1883 1.524 . S
C1882 H1901 0.913 . S
C1883 H1859 0.950 . S
C1883 C1882 1.524 . S
C1883 C1884 1.415 . S
C1884 H1860 0.950 . S
C1884 C1879 1.363 . S
C1884 C1883 1.415 . S
C1885 H1861 0.951 . S
C1885 C1886 1.366 . S
C1885 C1887 1.388 . S
C1886 C1885 1.366 . S
C1886 C1890 1.385 . S
C1887 H1862 0.951 . S
C1887 C1885 1.388 . S
C1887 C1888 1.366 . S
C1888 C1887 1.366 . S
C1888 C1889 1.414 . S
C1888 C1891 1.499 . S
C1889 H1863 0.950 . S
C1889 C1888 1.414 . S
C1889 C1890 1.374 . S
C1890 H1864 0.950 . S
C1890 C1886 1.385 . S
C1890 C1889 1.374 . S
C1891 C1888 1.499 . S
C1891 C1892 1.373 . S
C1891 C1893 1.389 . S
C1892 H1865 0.950 . S
C1892 C1878 1.377 . S
C1892 C1891 1.373 . S
C1893 C1877 1.377 . S
C1893 C1891 1.389 . S
C1893 C1894 1.524 . S
C1894 C1893 1.524 . S
C1894 C1895 1.397 . S
C1894 C1899 1.363 . S
C1895 H1866 0.950 . S
C1895 C1894 1.397 . S
C1895 C1896 1.334 . S
C1896 H1867 0.950 . S
C1896 C1895 1.334 . S
C1896 C1897 1.287 . S
C1897 C1896 1.287 . S
C1897 C1898 1.524 . S
C1897 H1900 0.999 . S
C1898 H1868 0.950 . S
C1898 C1897 1.524 . S
C1898 C1899 1.415 . S
C1899 H1869 0.950 . S
C1899 C1894 1.363 . S
C1899 C1898 1.415 . S
H1900 C1897 0.999 . S
H1901 C1882 0.913 . S
H1902 C1920 0.951 . S
H1903 C1922 0.951 . S
H1904 C1924 0.950 . S
H1905 C1925 0.950 . S
H1906 C1927 0.950 . S
H1907 C1930 0.950 . S
H1908 C1931 0.950 . S
H1909 C1933 0.950 . S
H1910 C1934 0.950 . S
H1911 C1935 0.951 . S
H1912 C1937 0.951 . S
H1913 C1939 0.950 . S
H1914 C1940 0.950 . S
H1915 C1942 0.950 . S
H1916 C1945 0.950 . S
H1917 C1946 0.950 . S
H1918 C1948 0.950 . S
H1919 C1949 0.950 . S
C1920 H1902 0.951 . S
C1920 C1921 1.366 . S
C1920 C1922 1.388 . S
C1921 C1920 1.366 . S
C1921 C1925 1.385 . S
C1922 H1903 0.951 . S
C1922 C1920 1.388 . S
C1922 C1923 1.366 . S
C1923 C1922 1.366 . S
C1923 C1924 1.414 . S
C1923 C1926 1.499 . S
C1924 H1904 0.950 . S
C1924 C1923 1.414 . S
C1924 C1925 1.374 . S
C1925 H1905 0.950 . S
C1925 C1921 1.385 . S
C1925 C1924 1.374 . S
C1926 C1923 1.499 . S
C1926 C1927 1.373 . S
C1926 C1928 1.389 . S
C1927 H1906 0.950 . S
C1927 C1926 1.373 . S
C1927 C1943 1.377 . S
C1928 C1926 1.389 . S
C1928 C1929 1.524 . S
C1928 C1942 1.377 . S
C1929 C1928 1.524 . S
C1929 C1930 1.397 . S
C1929 C1934 1.363 . S
C1930 H1907 0.950 . S
C1930 C1929 1.397 . S
C1930 C1931 1.334 . S
C1931 H1908 0.950 . S
C1931 C1930 1.334 . S
C1931 C1932 1.287 . S
C1932 C1931 1.287 . S
C1932 C1933 1.524 . S
C1932 H1951 0.913 . S
C1933 H1909 0.950 . S
C1933 C1932 1.524 . S
C1933 C1934 1.415 . S
C1934 H1910 0.950 . S
C1934 C1929 1.363 . S
C1934 C1933 1.415 . S
C1935 H1911 0.951 . S
C1935 C1936 1.366 . S
C1935 C1937 1.388 . S
C1936 C1935 1.366 . S
C1936 C1940 1.385 . S
C1937 H1912 0.951 . S
C1937 C1935 1.388 . S
C1937 C1938 1.366 . S
C1938 C1937 1.366 . S
C1938 C1939 1.414 . S
C1938 C1941 1.499 . S
C1939 H1913 0.950 . S
C1939 C1938 1.414 . S
C1939 C1940 1.374 . S
C1940 H1914 0.950 . S
C1940 C1936 1.385 . S
C1940 C1939 1.374 . S
C1941 C1938 1.499 . S
C1941 C1942 1.373 . S
C1941 C1943 1.389 . S
C1942 H1915 0.950 . S
C1942 C1928 1.377 . S
C1942 C1941 1.373 . S
C1943 C1927 1.377 . S
C1943 C1941 1.389 . S
C1943 C1944 1.524 . S
C1944 C1943 1.524 . S
C1944 C1945 1.397 . S
C1944 C1949 1.363 . S
C1945 H1916 0.950 . S
C1945 C1944 1.397 . S
C1945 C1946 1.334 . S
C1946 H1917 0.950 . S
C1946 C1945 1.334 . S
C1946 C1947 1.287 . S
C1947 C1946 1.287 . S
C1947 C1948 1.524 . S
C1947 H1950 0.999 . S
C1948 H1918 0.950 . S
C1948 C1947 1.524 . S
C1948 C1949 1.415 . S
C1949 H1919 0.950 . S
C1949 C1944 1.363 . S
C1949 C1948 1.415 . S
H1950 C1947 0.999 . S
H1951 C1932 0.913 . S
H1952 C1970 0.951 . S
H1953 C1972 0.951 . S
H1954 C1974 0.950 . S
H1955 C1975 0.950 . S
H1956 C1977 0.950 . S
H1957 C1980 0.950 . S
H1958 C1981 0.950 . S
H1959 C1983 0.950 . S
H1960 C1984 0.950 . S
H1961 C1985 0.951 . S
H1962 C1987 0.951 . S
H1963 C1989 0.950 . S
H1964 C1990 0.950 . S
H1965 C1992 0.950 . S
H1966 C1995 0.950 . S
H1967 C1996 0.950 . S
H1968 C1998 0.950 . S
H1969 C1999 0.950 . S
C1970 H1952 0.951 . S
C1970 C1971 1.366 . S
C1970 C1972 1.388 . S
C1971 C1970 1.366 . S
C1971 C1975 1.385 . S
C1972 H1953 0.951 . S
C1972 C1970 1.388 . S
C1972 C1973 1.366 . S
C1973 C1972 1.366 . S
C1973 C1974 1.414 . S
C1973 C1976 1.499 . S
C1974 H1954 0.950 . S
C1974 C1973 1.414 . S
C1974 C1975 1.374 . S
C1975 H1955 0.950 . S
C1975 C1971 1.385 . S
C1975 C1974 1.374 . S
C1976 C1973 1.499 . S
C1976 C1977 1.373 . S
C1976 C1978 1.389 . S
C1977 H1956 0.950 . S
C1977 C1976 1.373 . S
C1977 C1993 1.377 . S
C1978 C1976 1.389 . S
C1978 C1979 1.524 . S
C1978 C1992 1.377 . S
C1979 C1978 1.524 . S
C1979 C1980 1.397 . S
C1979 C1984 1.363 . S
C1980 H1957 0.950 . S
C1980 C1979 1.397 . S
C1980 C1981 1.334 . S
C1981 H1958 0.950 . S
C1981 C1980 1.334 . S
C1981 C1982 1.287 . S
C1982 C1981 1.287 . S
C1982 C1983 1.524 . S
C1982 H2001 0.913 . S
C1983 H1959 0.950 . S
C1983 C1982 1.524 . S
C1983 C1984 1.415 . S
C1984 H1960 0.950 . S
C1984 C1979 1.363 . S
C1984 C1983 1.415 . S
C1985 H1961 0.951 . S
C1985 C1986 1.366 . S
C1985 C1987 1.388 . S
C1986 C1985 1.366 . S
C1986 C1990 1.385 . S
C1987 H1962 0.951 . S
C1987 C1985 1.388 . S
C1987 C1988 1.366 . S
C1988 C1987 1.366 . S
C1988 C1989 1.414 . S
C1988 C1991 1.499 . S
C1989 H1963 0.950 . S
C1989 C1988 1.414 . S
C1989 C1990 1.374 . S
C1990 H1964 0.950 . S
C1990 C1986 1.385 . S
C1990 C1989 1.374 . S
C1991 C1988 1.499 . S
C1991 C1992 1.373 . S
C1991 C1993 1.389 . S
C1992 H1965 0.950 . S
C1992 C1978 1.377 . S
C1992 C1991 1.373 . S
C1993 C1977 1.377 . S
C1993 C1991 1.389 . S
C1993 C1994 1.524 . S
C1994 C1993 1.524 . S
C1994 C1995 1.397 . S
C1994 C1999 1.363 . S
C1995 H1966 0.950 . S
C1995 C1994 1.397 . S
C1995 C1996 1.334 . S
C1996 H1967 0.950 . S
C1996 C1995 1.334 . S
C1996 C1997 1.287 . S
C1997 C1996 1.287 . S
C1997 C1998 1.524 . S
C1997 H2000 0.999 . S
C1998 H1968 0.950 . S
C1998 C1997 1.524 . S
C1998 C1999 1.415 . S
C1999 H1969 0.950 . S
C1999 C1994 1.363 . S
C1999 C1998 1.415 . S
H2000 C1997 0.999 . S
H2001 C1982 0.913 . S
H2002 C2020 0.951 . S
H2003 C2022 0.951 . S
H2004 C2024 0.950 . S
H2005 C2025 0.950 . S
H2006 C2027 0.950 . S
H2007 C2030 0.950 . S
H2008 C2031 0.950 . S
H2009 C2033 0.950 . S
H2010 C2034 0.950 . S
H2011 C2035 0.951 . S
H2012 C2037 0.951 . S
H2013 C2039 0.950 . S
H2014 C2040 0.950 . S
H2015 C2042 0.950 . S
H2016 C2045 0.950 . S
H2017 C2046 0.950 . S
H2018 C2048 0.950 . S
H2019 C2049 0.950 . S
C2020 H2002 0.951 . S
C2020 C2021 1.366 . S
C2020 C2022 1.388 . S
C2021 C2020 1.366 . S
C2021 C2025 1.385 . S
C2022 H2003 0.951 . S
C2022 C2020 1.388 . S
C2022 C2023 1.366 . S
C2023 C2022 1.366 . S
C2023 C2024 1.414 . S
C2023 C2026 1.499 . S
C2024 H2004 0.950 . S
C2024 C2023 1.414 . S
C2024 C2025 1.374 . S
C2025 H2005 0.950 . S
C2025 C2021 1.385 . S
C2025 C2024 1.374 . S
C2026 C2023 1.499 . S
C2026 C2027 1.373 . S
C2026 C2028 1.389 . S
C2027 H2006 0.950 . S
C2027 C2026 1.373 . S
C2027 C2043 1.377 . S
C2028 C2026 1.389 . S
C2028 C2029 1.524 . S
C2028 C2042 1.377 . S
C2029 C2028 1.524 . S
C2029 C2030 1.397 . S
C2029 C2034 1.363 . S
C2030 H2007 0.950 . S
C2030 C2029 1.397 . S
C2030 C2031 1.334 . S
C2031 H2008 0.950 . S
C2031 C2030 1.334 . S
C2031 C2032 1.287 . S
C2032 C2031 1.287 . S
C2032 C2033 1.524 . S
C2032 H2051 0.913 . S
C2033 H2009 0.950 . S
C2033 C2032 1.524 . S
C2033 C2034 1.415 . S
C2034 H2010 0.950 . S
C2034 C2029 1.363 . S
C2034 C2033 1.415 . S
C2035 H2011 0.951 . S
C2035 C2036 1.366 . S
C2035 C2037 1.388 . S
C2036 C2035 1.366 . S
C2036 C2040 1.385 . S
C2037 H2012 0.951 . S
C2037 C2035 1.388 . S
C2037 C2038 1.366 . S
C2038 C2037 1.366 . S
C2038 C2039 1.414 . S
C2038 C2041 1.499 . S
C2039 H2013 0.950 . S
C2039 C2038 1.414 . S
C2039 C2040 1.374 . S
C2040 H2014 0.950 . S
C2040 C2036 1.385 . S
C2040 C2039 1.374 . S
C2041 C2038 1.499 . S
C2041 C2042 1.373 . S
C2041 C2043 1.389 . S
C2042 H2015 0.950 . S
C2042 C2028 1.377 . S
C2042 C2041 1.373 . S
C2043 C2027 1.377 . S
C2043 C2041 1.389 . S
C2043 C2044 1.524 . S
C2044 C2043 1.524 . S
C2044 C2045 1.397 . S
C2044 C2049 1.363 . S
C2045 H2016 0.950 . S
C2045 C2044 1.397 . S
C2045 C2046 1.334 . S
C2046 H2017 0.950 . S
C2046 C2045 1.334 . S
C2046 C2047 1.287 . S
C2047 C2046 1.287 . S
C2047 C2048 1.524 . S
C2047 H2050 0.999 . S
C2048 H2018 0.950 . S
C2048 C2047 1.524 . S
C2048 C2049 1.415 . S
C2049 H2019 0.950 . S
C2049 C2044 1.363 . S
C2049 C2048 1.415 . S
H2050 C2047 0.999 . S
H2051 C2032 0.913 . S
C271 C151 0.994 . S
C286 C11 0.994 . S
C321 C25 0.994 . S
C336 C165 0.994 . S
C371 C137 0.994 . S
C386 C39 0.994 . S
C421 C207 0.994 . S
C436 C53 0.994 . S
C471 C67 0.994 . S
C486 C179 0.994 . S
C521 C193 0.994 . S
C536 C81 0.994 . S
C571 C95 0.994 . S
C586 C235 0.994 . S
C621 C249 0.994 . S
C636 C109 0.994 . S
C671 C123 0.994 . S
C686 C221 0.994 . S
C721 C5 0.818 . S
C736 C14 0.819 . S
C771 C19 0.818 . S
C786 C28 0.818 . S
C821 C0 0.817 . S
C836 C33 0.819 . S
C871 C70 0.817 . S
C886 C47 0.818 . S
C921 C42 0.817 . S
C936 C61 0.818 . S
C971 C75 0.818 . S
C986 C56 0.818 . S
C1021 C89 0.819 . S
C1036 C98 0.816 . S
C1071 C103 0.820 . S
C1086 C112 0.816 . S
C1121 C84 0.817 . S
C1136 C117 0.818 . S
C1171 C154 0.817 . S
C1186 C131 0.818 . S
C1221 C126 0.818 . S
C1236 C145 0.818 . S
C1271 C140 0.818 . S
C1286 C159 0.817 . S
C1321 C182 0.816 . S
C1336 C173 0.819 . S
C1371 C196 0.818 . S
C1386 C187 0.818 . S
C1421 C168 0.817 . S
C1436 C201 0.818 . S
C1471 C215 0.818 . S
C1486 C238 0.819 . S
C1521 C229 0.819 . S
C1536 C210 0.816 . S
C1571 C243 0.819 . S
C1586 C224 0.817 . S
C1621 C9 1.664 . S
C1636 C51 1.665 . S
C1671 C65 1.664 . S
C1686 C23 1.664 . S
C1721 C79 1.664 . S
C1736 C37 1.664 . S
C1771 C135 1.664 . S
C1786 C93 1.664 . S
C1821 C149 1.664 . S
C1836 C107 1.664 . S
C1871 C121 1.664 . S
C1886 C163 1.664 . S
C1921 C219 1.664 . S
C1936 C177 1.664 . S
C1971 C233 1.664 . S
C1986 C191 1.664 . S
C2021 C247 1.664 . S
C2036 C205 1.664 . S
