# Generated by pormake.
# Topology umx, (4)-cn, num edge types: 1
# Building blocks:
#     Node 0, Type 0, BuildingBlock: QUQFOY_clean_sbu_3, # of connection points: 4
#     Node 1, Type 0, BuildingBlock: QUQFOY_clean_sbu_3, # of connection points: 4
#     Node 2, Type 0, BuildingBlock: QUQFOY_clean_sbu_3, # of connection points: 4
#     Node 3, Type 0, BuildingBlock: QUQFOY_clean_sbu_3, # of connection points: 4
#     Node 4, Type 0, BuildingBlock: QUQFOY_clean_sbu_3, # of connection points: 4
#     Node 5, Type 0, BuildingBlock: QUQFOY_clean_sbu_3, # of connection points: 4
#     Node 6, Type 0, BuildingBlock: QUQFOY_clean_sbu_3, # of connection points: 4
#     Node 7, Type 0, BuildingBlock: QUQFOY_clean_sbu_3, # of connection points: 4
#     Edge 8, Type (0, 0), BuildingBlock: FUNLAD_clean_linker_1, # of connection points: 2
#     Edge 9, Type (0, 0), BuildingBlock: FUNLAD_clean_linker_1, # of connection points: 2
#     Edge 10, Type (0, 0), BuildingBlock: FUNLAD_clean_linker_1, # of connection points: 2
#     Edge 11, Type (0, 0), BuildingBlock: FUNLAD_clean_linker_1, # of connection points: 2
#     Edge 12, Type (0, 0), BuildingBlock: FUNLAD_clean_linker_1, # of connection points: 2
#     Edge 13, Type (0, 0), BuildingBlock: FUNLAD_clean_linker_1, # of connection points: 2
#     Edge 14, Type (0, 0), BuildingBlock: FUNLAD_clean_linker_1, # of connection points: 2
#     Edge 15, Type (0, 0), BuildingBlock: FUNLAD_clean_linker_1, # of connection points: 2
#     Edge 16, Type (0, 0), BuildingBlock: FUNLAD_clean_linker_1, # of connection points: 2
#     Edge 17, Type (0, 0), BuildingBlock: FUNLAD_clean_linker_1, # of connection points: 2
#     Edge 18, Type (0, 0), BuildingBlock: FUNLAD_clean_linker_1, # of connection points: 2
#     Edge 19, Type (0, 0), BuildingBlock: FUNLAD_clean_linker_1, # of connection points: 2
#     Edge 20, Type (0, 0), BuildingBlock: FUNLAD_clean_linker_1, # of connection points: 2
#     Edge 21, Type (0, 0), BuildingBlock: FUNLAD_clean_linker_1, # of connection points: 2
#     Edge 22, Type (0, 0), BuildingBlock: FUNLAD_clean_linker_1, # of connection points: 2
#     Edge 23, Type (0, 0), BuildingBlock: FUNLAD_clean_linker_1, # of connection points: 2
# Relax obj value: 0.078
# Max RMSD: 0.191
# Mean RMSD: 0.191
data_MOF--net-umx--node1-QUQFOY_clean_sbu_3--edge1-FUNLAD_clean_linker_1
_symmetry_space_group_name_H-M    P1
_symmetry_Int_Tables_number       1
_symmetry_cell_setting            triclinic
loop_
_symmetry_equiv_pos_as_xyz
'x, y, z'
_cell_length_a     42.638555
_cell_length_b     42.001819
_cell_length_c     30.243648
_cell_angle_alpha  90.072109
_cell_angle_beta   89.962356
_cell_angle_gamma 90.244962
loop_
_atom_site_label
_atom_site_type_symbol
_atom_site_fract_x
_atom_site_fract_y
_atom_site_fract_z
_atom_type_partial_charge
C0 C 0.18318 0.48273 0.90537 0.0
O1 O 0.19173 0.50569 0.92989 0.0
Cd2 Cd 0.17208 0.50827 0.00451 0.0
O3 O 0.16868 0.45892 0.92149 0.0
Cd4 Cd 0.15411 0.43688 -0.00556 0.0
C5 C 0.09398 0.48756 -0.00967 0.0
O6 O 0.18944 0.46371 0.04716 0.0
O7 O 0.14645 0.44322 0.07303 0.0
O8 O 0.18854 0.39276 0.97951 0.0
C9 C 0.17262 0.45656 0.08046 0.0
O10 O 0.11463 0.50859 -0.00073 0.0
C11 C 0.16845 0.37085 -0.01421 0.0
O12 O 0.10152 0.45851 -0.01567 0.0
O13 O 0.14067 0.37944 -0.0048 0.0
C14 C 0.50004 0.20773 0.41128 0.0
O15 O 0.47499 0.20988 0.43376 0.0
Cd16 Cd 0.47463 0.1928 0.51061 0.0
O17 O 0.52551 0.19966 0.42974 0.0
Cd18 Cd 0.54695 0.18698 0.50314 0.0
C19 C 0.50607 0.11825 0.49778 0.0
O20 O 0.51412 0.21614 0.55785 0.0
O21 O 0.545 0.17868 0.58111 0.0
O22 O 0.58299 0.22957 0.48692 0.0
C23 C 0.52577 0.20063 0.59012 0.0
O24 O 0.48268 0.13574 0.50701 0.0
C25 C 0.60792 0.21406 0.49393 0.0
O26 O 0.53329 0.13025 0.49147 0.0
O27 O 0.60502 0.18484 0.50446 0.0
C28 C 0.76534 0.48207 0.92189 0.0
O29 O 0.76495 0.45904 0.94901 0.0
Cd30 Cd 0.77991 0.46358 0.02539 0.0
O31 O 0.77187 0.51027 0.93464 0.0
Cd32 Cd 0.78471 0.54014 0.00285 0.0
C33 C 0.85256 0.4982 0.0079 0.0
O34 O 0.75464 0.50889 0.05581 0.0
O35 O 0.78809 0.54217 0.08307 0.0
O36 O 0.74677 0.5809 -0.01566 0.0
C37 C 0.76713 0.52123 0.08978 0.0
O38 O 0.836 0.47474 0.021 0.0
C39 C 0.76577 0.6042 -0.01275 0.0
O40 O 0.84008 0.52457 -0.0033 0.0
O41 O 0.79421 0.59774 -0.00419 0.0
C42 C 0.49279 0.78079 0.41471 0.0
O43 O 0.51527 0.77823 0.44194 0.0
Cd44 Cd 0.5114 0.79566 0.51738 0.0
O45 O 0.46629 0.79168 0.42676 0.0
Cd46 Cd 0.43775 0.81082 0.4921 0.0
C47 C 0.48843 0.87343 0.49809 0.0
O48 O 0.46281 0.77573 0.54469 0.0
O49 O 0.43365 0.81271 0.57218 0.0
O50 O 0.3959 0.77601 0.46854 0.0
C51 C 0.45101 0.78873 0.57858 0.0
O52 O 0.50864 0.85345 0.51158 0.0
C53 C 0.37395 0.79615 0.47225 0.0
O54 O 0.46091 0.86466 0.48645 0.0
O55 O 0.38166 0.82431 0.4834 0.0
C56 C 0.21519 0.50072 0.56913 0.0
O57 O 0.21739 0.47676 0.54382 0.0
Cd58 Cd 0.19738 0.47945 0.46982 0.0
O59 O 0.20684 0.52772 0.55413 0.0
Cd60 Cd 0.19648 0.55335 0.48156 0.0
C61 C 0.12615 0.5176 0.4851 0.0
O62 O 0.22647 0.51934 0.43081 0.0
O63 O 0.19067 0.54902 0.40187 0.0
O64 O 0.23783 0.59036 0.50088 0.0
C65 C 0.21332 0.52997 0.3963 0.0
O66 O 0.14127 0.49231 0.47591 0.0
C67 C 0.22288 0.61545 0.49143 0.0
O68 O 0.14037 0.54398 0.491 0.0
O69 O 0.19471 0.61213 0.47836 0.0
C70 C 0.45318 0.20531 0.0747 0.0
O71 O 0.47813 0.20427 0.05181 0.0
Cd72 Cd 0.4764 0.18531 0.97599 0.0
O73 O 0.42684 0.19892 0.05713 0.0
Cd74 Cd 0.40369 0.18504 -0.01518 0.0
C75 C 0.43946 0.11342 -0.00835 0.0
O76 O 0.43831 0.2119 0.93001 0.0
O77 O 0.40453 0.17701 0.90636 0.0
O78 O 0.36951 0.2292 0.00022 0.0
C79 C 0.42535 0.19762 0.89755 0.0
O80 O 0.4643 0.12889 0.98208 0.0
C81 C 0.34388 0.21429 -0.00505 0.0
O82 O 0.41339 0.12772 -0.00291 0.0
O83 O 0.34551 0.1848 -0.01453 0.0
C84 C 0.79902 0.4827 0.58344 0.0
O85 O 0.80273 0.50655 0.55825 0.0
Cd86 Cd 0.81789 0.50319 0.48218 0.0
O87 O 0.80261 0.45438 0.56904 0.0
Cd88 Cd 0.81516 0.42681 0.4984 0.0
C89 C 0.88716 0.46216 0.49423 0.0
O90 O 0.78545 0.46255 0.45093 0.0
O91 O 0.81429 0.42787 0.41762 0.0
O92 O 0.77519 0.38758 0.5168 0.0
C93 C 0.79438 0.4501 0.41496 0.0
O94 O 0.87298 0.48779 0.48418 0.0
C95 C 0.79235 0.36335 0.51059 0.0
O96 O 0.87197 0.43674 0.50298 0.0
O97 O 0.82074 0.36845 0.49995 0.0
C98 C 0.47874 0.78256 0.07462 0.0
O99 O 0.45493 0.78594 0.04995 0.0
Cd100 Cd 0.45961 0.8032 0.97465 0.0
O101 O 0.50637 0.78688 0.0597 0.0
Cd102 Cd 0.53579 0.79913 -0.00816 0.0
C103 C 0.50257 0.87255 -0.00789 0.0
O104 O 0.49994 0.77165 0.94242 0.0
O105 O 0.53637 0.79976 0.91164 0.0
O106 O 0.56801 0.7555 0.0166 0.0
C107 C 0.51303 0.78125 0.90729 0.0
O108 O 0.47722 0.8583 0.98146 0.0
C109 C 0.59417 0.76825 0.00731 0.0
O110 O 0.52769 0.85707 -0.00029 0.0
O111 O 0.59375 0.7965 -0.00779 0.0
H112 H 0.1634 0.46192 0.15131 0.0
C113 C 0.18107 0.46563 0.12586 0.0
H114 H 0.22661 0.48293 0.11191 0.0
H115 H 0.22079 0.57575 0.27829 0.0
H116 H 0.22958 0.61246 0.21758 0.0
H117 H 0.23135 0.59319 0.14052 0.0
H118 H 0.22468 0.5371 0.12373 0.0
C119 C 0.2089 0.4784 0.13699 0.0
C120 C 0.21441 0.4891 0.18336 0.0
C121 C 0.21863 0.52192 0.1925 0.0
C122 C 0.21703 0.53309 0.23684 0.0
C123 C 0.22124 0.56604 0.24513 0.0
C124 C 0.22641 0.58736 0.21061 0.0
C125 C 0.22744 0.57651 0.16724 0.0
C126 C 0.22354 0.54422 0.15807 0.0
H127 H 0.24208 0.50257 0.34884 0.0
C128 C 0.22177 0.51796 0.3521 0.0
H129 H 0.18398 0.54019 0.31969 0.0
H130 H 0.21467 0.42418 0.17802 0.0
H131 H 0.20542 0.3871 0.2383 0.0
H132 H 0.19669 0.40665 0.31427 0.0
H133 H 0.19809 0.46299 0.33064 0.0
C134 C 0.20391 0.52429 0.31665 0.0
C135 C 0.21084 0.5115 0.27182 0.0
C136 C 0.20858 0.47835 0.26291 0.0
C137 C 0.21156 0.46714 0.21874 0.0
C138 C 0.21101 0.43392 0.21076 0.0
C139 C 0.20595 0.41241 0.24505 0.0
C140 C 0.20118 0.42342 0.28783 0.0
C141 C 0.20233 0.45595 0.29683 0.0
H142 H 0.53232 0.19527 0.66145 0.0
C143 C 0.51738 0.20627 0.6367 0.0
H144 H 0.47533 0.23157 0.62596 0.0
H145 H 0.47145 0.15759 0.82346 0.0
H146 H 0.47286 0.1087 0.78098 0.0
H147 H 0.47554 0.11002 0.6995 0.0
H148 H 0.47813 0.16024 0.66035 0.0
C149 C 0.49079 0.22041 0.64986 0.0
C150 C 0.48164 0.21986 0.69761 0.0
C151 C 0.47731 0.1903 0.71966 0.0
C152 C 0.47293 0.18957 0.76624 0.0
C153 C 0.47244 0.15963 0.78785 0.0
C154 C 0.47359 0.13133 0.7639 0.0
C155 C 0.4753 0.13207 0.71809 0.0
C156 C 0.47712 0.16111 0.69606 0.0
H157 H 0.41859 0.19297 0.82605 0.0
C158 C 0.43387 0.20337 0.85102 0.0
H159 H 0.4762 0.2284 0.86233 0.0
H160 H 0.48797 0.2804 0.66571 0.0
H161 H 0.48291 0.32945 0.70763 0.0
H162 H 0.47106 0.32826 0.78746 0.0
H163 H 0.46459 0.27804 0.82608 0.0
C164 C 0.46059 0.21765 0.83813 0.0
C165 C 0.46939 0.21844 0.79026 0.0
C166 C 0.47271 0.24799 0.76803 0.0
C167 C 0.47906 0.24869 0.72175 0.0
C168 C 0.48287 0.27852 0.70066 0.0
C169 C 0.48001 0.30684 0.72432 0.0
C170 C 0.47335 0.30617 0.76929 0.0
C171 C 0.46969 0.27718 0.79106 0.0
H172 H 0.77248 0.48626 0.3724 0.0
C173 C 0.78515 0.46386 0.37225 0.0
H174 H 0.80642 0.42827 0.33333 0.0
H175 H 0.71788 0.51496 0.19506 0.0
H176 H 0.67305 0.49542 0.23647 0.0
H177 H 0.68031 0.46142 0.30212 0.0
H178 H 0.73246 0.44741 0.32728 0.0
C179 C 0.79315 0.4503 0.33368 0.0
C180 C 0.78819 0.46712 0.29106 0.0
C181 C 0.75748 0.47377 0.27565 0.0
C182 C 0.75326 0.49195 0.23647 0.0
C183 C 0.72242 0.50006 0.22344 0.0
C184 C 0.69647 0.48917 0.2471 0.0
C185 C 0.70056 0.47015 0.28416 0.0
C186 C 0.73064 0.46246 0.29842 0.0
H187 H 0.7517 0.48365 0.13592 0.0
C188 C 0.76314 0.50677 0.1337 0.0
H189 H 0.78798 0.5429 0.16723 0.0
H190 H 0.8503 0.4585 0.31149 0.0
H191 H 0.89498 0.47536 0.26783 0.0
H192 H 0.88762 0.50377 0.19729 0.0
H193 H 0.8356 0.51587 0.17039 0.0
C194 C 0.77601 0.52007 0.16981 0.0
C195 C 0.77974 0.5019 0.21157 0.0
C196 C 0.81042 0.49437 0.22629 0.0
C197 C 0.81465 0.47724 0.26629 0.0
C198 C 0.8456 0.47091 0.2809 0.0
C199 C 0.87153 0.48051 0.25619 0.0
C200 C 0.8674 0.49655 0.21655 0.0
C201 C 0.83731 0.50345 0.20159 0.0
H202 H 0.47495 0.76596 0.86272 0.0
C203 C 0.49861 0.77568 0.86394 0.0
H204 H 0.53657 0.79487 0.8279 0.0
H205 H 0.44074 0.73176 0.67533 0.0
H206 H 0.45155 0.68049 0.70883 0.0
H207 H 0.48408 0.67672 0.77605 0.0
H208 H 0.50538 0.72424 0.81067 0.0
C209 C 0.51317 0.78453 0.8266 0.0
C210 C 0.49606 0.7859 0.78404 0.0
C211 C 0.48502 0.75771 0.76332 0.0
C212 C 0.46767 0.75973 0.72336 0.0
C213 C 0.45524 0.73145 0.70465 0.0
C214 C 0.46108 0.70189 0.72372 0.0
C215 C 0.47929 0.69978 0.76166 0.0
C216 C 0.4912 0.72728 0.78136 0.0
H217 H 0.48231 0.76532 0.62625 0.0
C218 C 0.46159 0.78014 0.62308 0.0
H219 H 0.4273 0.80736 0.65599 0.0
H220 H 0.51269 0.8447 0.8166 0.0
H221 H 0.50371 0.89563 0.78155 0.0
H222 H 0.47665 0.89886 0.70965 0.0
H223 H 0.45801 0.85125 0.67282 0.0
C224 C 0.44773 0.79214 0.65921 0.0
C225 C 0.46296 0.78977 0.70311 0.0
C226 C 0.47412 0.81794 0.72377 0.0
C227 C 0.49044 0.81602 0.76453 0.0
C228 C 0.5007 0.8446 0.78509 0.0
C229 C 0.49564 0.87409 0.7654 0.0
C230 C 0.48035 0.87591 0.72499 0.0
C231 C 0.4697 0.84829 0.70425 0.0
H232 H 0.79087 0.51299 0.64177 0.0
C233 C 0.79164 0.48844 0.63033 0.0
H234 H 0.78684 0.44004 0.64872 0.0
H235 H 0.82417 0.51023 0.83807 0.0
H236 H 0.8761 0.51456 0.80608 0.0
H237 H 0.88572 0.49893 0.72861 0.0
H238 H 0.8434 0.4789 0.68274 0.0
C239 C 0.78704 0.46475 0.65939 0.0
C240 C 0.78176 0.47193 0.7069 0.0
C241 C 0.80685 0.48341 0.73332 0.0
C242 C 0.80135 0.49214 0.77804 0.0
C243 C 0.82688 0.50342 0.80378 0.0
C244 C 0.85689 0.50595 0.78588 0.0
C245 C 0.8623 0.49717 0.74228 0.0
C246 C 0.83771 0.48591 0.71621 0.0
H247 H 0.75854 0.45046 0.86437 0.0
C248 C 0.76164 0.47515 0.8744 0.0
H249 H 0.77034 0.5222 0.85307 0.0
H250 H 0.72918 0.44902 0.6658 0.0
H251 H 0.67724 0.44379 0.69809 0.0
H252 H 0.66745 0.45973 0.77542 0.0
H253 H 0.70952 0.48084 0.821 0.0
C254 C 0.76581 0.49767 0.84345 0.0
C255 C 0.77088 0.48888 0.79641 0.0
C256 C 0.74593 0.47684 0.77023 0.0
C257 C 0.75147 0.46808 0.72548 0.0
C258 C 0.72621 0.4561 0.69996 0.0
C259 C 0.6963 0.453 0.71807 0.0
C260 C 0.69079 0.46194 0.76162 0.0
C261 C 0.71519 0.47386 0.78751 0.0
H262 H 0.4504 0.77573 0.13495 0.0
C263 C 0.47415 0.77557 0.12181 0.0
H264 H 0.52246 0.77223 0.13671 0.0
H265 H 0.50149 0.83094 0.32684 0.0
H266 H 0.52736 0.8746 0.28918 0.0
H267 H 0.53853 0.8717 0.20925 0.0
H268 H 0.52373 0.82518 0.16654 0.0
C269 C 0.49856 0.7715 0.1492 0.0
C270 C 0.49398 0.77163 0.19773 0.0
C271 C 0.50361 0.79871 0.22231 0.0
C272 C 0.49752 0.80021 0.2684 0.0
C273 C 0.50616 0.82813 0.29191 0.0
C274 C 0.52089 0.85351 0.27065 0.0
C275 C 0.52715 0.85189 0.22566 0.0
C276 C 0.51857 0.82495 0.20157 0.0
H277 H 0.52195 0.76746 0.35733 0.0
C278 C 0.49827 0.77331 0.36785 0.0
H279 H 0.45152 0.78166 0.34741 0.0
H280 H 0.47499 0.71526 0.1606 0.0
H281 H 0.44906 0.67145 0.19837 0.0
H282 H 0.43804 0.67429 0.27839 0.0
H283 H 0.45303 0.72094 0.32119 0.0
C284 C 0.47544 0.77627 0.33764 0.0
C285 C 0.48242 0.77433 0.28979 0.0
C286 C 0.47317 0.74711 0.26535 0.0
C287 C 0.47916 0.74564 0.21919 0.0
C288 C 0.47039 0.71787 0.1956 0.0
C289 C 0.45565 0.69249 0.21692 0.0
C290 C 0.44947 0.69408 0.26198 0.0
C291 C 0.45814 0.72099 0.28613 0.0
H292 H 0.17124 0.47126 0.83669 0.0
C293 C 0.18798 0.48404 0.85728 0.0
H294 H 0.22881 0.51235 0.85906 0.0
H295 H 0.19443 0.4504 0.65696 0.0
H296 H 0.19796 0.39859 0.6913 0.0
H297 H 0.21253 0.3934 0.76991 0.0
H298 H 0.22186 0.44035 0.81502 0.0
C299 C 0.21196 0.49984 0.83837 0.0
C300 C 0.21452 0.50239 0.78919 0.0
C301 C 0.21288 0.47472 0.76223 0.0
C302 C 0.20802 0.47763 0.7159 0.0
C303 C 0.20126 0.44968 0.69131 0.0
C304 C 0.20275 0.41969 0.7108 0.0
C305 C 0.2107 0.41677 0.7551 0.0
C306 C 0.21568 0.44389 0.78069 0.0
H307 H 0.23929 0.47981 0.62668 0.0
C308 C 0.22163 0.4969 0.61659 0.0
H309 H 0.18643 0.52878 0.63645 0.0
H310 H 0.21983 0.56051 0.83042 0.0
H311 H 0.22355 0.61194 0.79496 0.0
H312 H 0.2222 0.61659 0.71372 0.0
H313 H 0.21644 0.56982 0.66753 0.0
C314 C 0.20431 0.51208 0.64711 0.0
C315 C 0.20925 0.50815 0.69567 0.0
C316 C 0.2141 0.53565 0.72223 0.0
C317 C 0.21603 0.53285 0.76905 0.0
C318 C 0.21897 0.56097 0.79473 0.0
C319 C 0.2211 0.59077 0.77479 0.0
C320 C 0.22027 0.5934 0.72907 0.0
C321 C 0.21681 0.56629 0.70295 0.0
H322 H 0.52262 0.21078 0.34597 0.0
C323 C 0.50014 0.21229 0.36287 0.0
H324 H 0.45111 0.21672 0.35449 0.0
H325 H 0.46651 0.27233 0.15914 0.0
H326 H 0.45109 0.32009 0.19874 0.0
H327 H 0.44662 0.32008 0.28008 0.0
H328 H 0.45758 0.27231 0.32239 0.0
C329 C 0.4739 0.21494 0.33862 0.0
C330 C 0.4754 0.21456 0.28931 0.0
C331 C 0.46851 0.24251 0.26502 0.0
C332 C 0.47083 0.24244 0.21804 0.0
C333 C 0.46455 0.27092 0.19475 0.0
C334 C 0.45584 0.29854 0.21709 0.0
C335 C 0.45335 0.29854 0.2629 0.0
C336 C 0.45967 0.27095 0.28678 0.0
H337 H 0.43174 0.21405 0.13984 0.0
C338 C 0.45405 0.21219 0.12259 0.0
H339 H 0.50323 0.20982 0.12994 0.0
H340 H 0.48678 0.15572 0.32511 0.0
H341 H 0.50216 0.10813 0.28553 0.0
H342 H 0.50778 0.10852 0.20436 0.0
H343 H 0.49781 0.1565 0.1623 0.0
C344 C 0.48074 0.21338 0.14609 0.0
C345 C 0.47975 0.21431 0.19537 0.0
C346 C 0.4866 0.18633 0.21965 0.0
C347 C 0.48398 0.18629 0.26656 0.0
C348 C 0.48942 0.15749 0.28965 0.0
C349 C 0.49802 0.12987 0.26729 0.0
C350 C 0.50114 0.13007 0.22159 0.0
C351 C 0.49539 0.15783 0.19786 0.0
H352 H 0.89613 0.47164 0.01872 0.0
C353 C 0.88676 0.49384 0.00588 0.0
H354 H 0.89781 0.53711 0.97357 0.0
H355 H 0.03052 0.48333 0.06522 0.0
H356 H 0.00648 0.49819 0.13483 0.0
H357 H 0.95246 0.51897 0.13717 0.0
H358 H 0.92207 0.52459 0.06986 0.0
C359 C 0.90653 0.51534 -0.01159 0.0
C360 C 0.94066 0.50828 -0.01381 0.0
C361 C 0.95858 0.50648 0.02559 0.0
C362 C -0.00988 0.49571 0.024 0.0
C363 C 0.00686 0.49244 0.0642 0.0
C364 C -0.00673 0.50071 0.10448 0.0
C365 C 0.96283 0.51231 0.10582 0.0
C366 C 0.94559 0.51523 0.06696 0.0
H367 H 0.05561 0.52226 -0.00397 0.0
C368 C 0.06088 0.49748 -0.01121 0.0
H369 H 0.0418 0.45242 0.97241 0.0
H370 H 0.91325 0.51064 0.90445 0.0
H371 H 0.93783 0.49758 0.83437 0.0
H372 H -0.00696 0.48031 0.83133 0.0
H373 H 0.02396 0.4758 0.89843 0.0
C374 C 0.0372 0.47712 0.98085 0.0
C375 C 0.00407 0.488 0.98275 0.0
C376 C -0.01356 0.49076 0.94323 0.0
C377 C 0.9547 0.50098 0.94494 0.0
C378 C 0.93749 0.50315 0.90502 0.0
C379 C 0.95132 0.49574 0.86457 0.0
C380 C 0.9824 0.486 0.86287 0.0
C381 C -0.00012 0.48349 0.90162 0.0
H382 H 0.52101 0.91326 0.50967 0.0
C383 C 0.49786 0.90722 0.49696 0.0
H384 H 0.45669 0.92523 0.46735 0.0
H385 H 0.5225 0.05033 0.56805 0.0
H386 H 0.50828 0.02351 0.63624 0.0
H387 H 0.48476 0.96975 0.63486 0.0
H388 H 0.47575 0.94234 0.56543 0.0
C389 C 0.47945 0.93058 0.48176 0.0
C390 C 0.49066 0.96422 0.48254 0.0
C391 C 0.49472 0.98032 0.52345 0.0
C392 C 0.50701 0.01183 0.52416 0.0
C393 C 0.51216 0.02682 0.56553 0.0
C394 C 0.5043 0.01163 0.60494 0.0
C395 C 0.49116 0.98133 0.60417 0.0
C396 C 0.48633 0.96577 0.56404 0.0
H397 H 0.477 0.07532 0.50384 0.0
C398 C 0.50047 0.08367 0.49552 0.0
H399 H 0.54568 0.06964 0.47435 0.0
H400 H 0.48619 0.94003 0.39873 0.0
H401 H 0.49925 0.96747 0.3305 0.0
H402 H 0.51896 0.02279 0.33172 0.0
H403 H 0.52601 0.05095 0.40122 0.0
C404 C 0.52231 0.06222 0.48441 0.0
C405 C 0.51387 0.02776 0.48393 0.0
C406 C 0.51001 0.01163 0.44312 0.0
C407 C 0.49835 0.97983 0.44241 0.0
C408 C 0.49476 0.96426 0.40115 0.0
C409 C 0.50218 0.97973 0.36175 0.0
C410 C 0.51329 0.01087 0.36244 0.0
C411 C 0.51719 0.02677 0.40253 0.0
H412 H 0.0792 0.5389 0.49347 0.0
C413 C 0.09161 0.51665 0.48819 0.0
H414 H 0.0871 0.4668 0.47952 0.0
H415 H 0.95131 0.475 0.57191 0.0
H416 H 0.98214 0.46209 0.63668 0.0
H417 H 0.03993 0.46096 0.63307 0.0
H418 H 0.06724 0.47313 0.56463 0.0
C419 C 0.07522 0.48941 0.48406 0.0
C420 C 0.04039 0.48918 0.48576 0.0
C421 C 0.02477 0.48112 0.52558 0.0
C422 C -0.00858 0.48101 0.52734 0.0
C423 C 0.97651 0.47441 0.5682 0.0
C424 C -0.00604 0.46718 0.60578 0.0
C425 C 0.0265 0.4666 0.60377 0.0
C426 C 0.04186 0.47358 0.56428 0.0
H427 H 0.93355 0.43926 0.50131 0.0
C428 C 0.92179 0.4618 0.49562 0.0
H429 H 0.92738 0.51101 0.48333 0.0
H430 H 0.06319 0.50483 0.40397 0.0
H431 H 0.03252 0.51734 0.33878 0.0
H432 H 0.97469 0.5164 0.34132 0.0
H433 H 0.94718 0.50299 0.409 0.0
C434 C 0.9389 0.4885 0.49005 0.0
C435 C 0.9738 0.48812 0.48881 0.0
C436 C -0.0105 0.49612 0.44894 0.0
C437 C 0.02283 0.49662 0.44741 0.0
C438 C 0.03791 0.50433 0.40705 0.0
C439 C 0.02059 0.51148 0.36934 0.0
C440 C -0.01196 0.51096 0.37077 0.0
C441 C 0.97255 0.50331 0.40994 0.0
H442 H 0.52492 0.91998 0.00044 0.0
C443 C 0.50274 0.9077 -0.00482 0.0
H444 H 0.45369 0.9126 -0.01309 0.0
H445 H 0.45416 0.05077 0.07424 0.0
H446 H 0.44245 0.01987 0.13989 0.0
H447 H 0.44554 0.96124 0.13871 0.0
H448 H 0.46074 0.93316 0.07186 0.0
C449 C 0.47613 0.92457 -0.00891 0.0
C450 C 0.47584 0.95994 -0.00769 0.0
C451 C 0.46628 0.97595 0.03128 0.0
C452 C 0.46387 0.00974 0.03167 0.0
C453 C 0.4555 0.02514 0.07163 0.0
C454 C 0.44889 0.00769 0.10968 0.0
C455 C 0.45067 0.97467 0.10903 0.0
C456 C 0.45933 0.95886 0.07043 0.0
H457 H 0.41933 0.06512 0.00099 0.0
C458 C 0.44096 0.07838 -0.00421 0.0
H459 H 0.49 0.07581 -0.01375 0.0
H460 H 0.49449 0.93648 0.91202 0.0
H461 H 0.50607 0.96719 0.84613 0.0
H462 H 0.5014 0.02572 0.84639 0.0
H463 H 0.48505 0.05386 0.91246 0.0
C464 C 0.4684 0.06274 -0.00749 0.0
C465 C 0.47035 0.02735 -0.00732 0.0
C466 C 0.48023 0.01128 0.95381 0.0
C467 C 0.48293 0.97754 0.95362 0.0
C468 C 0.49227 0.96208 0.91411 0.0
C469 C 0.49894 0.97942 0.876 0.0
C470 C 0.49632 0.01236 0.87616 0.0
C471 C 0.48701 0.02823 0.91442 0.0
H472 H 0.1605 0.31887 -0.00623 0.0
C473 C 0.17765 0.33697 -0.01512 0.0
H474 H 0.22451 0.34672 0.96664 0.0
H475 H 0.27051 0.22313 0.06967 0.0
H476 H 0.25394 0.25048 0.1367 0.0
H477 H 0.22153 0.29894 0.13253 0.0
H478 H 0.20517 0.3201 0.06161 0.0
C479 C 0.20745 0.32871 0.97619 0.0
C480 C 0.2193 0.29562 0.97994 0.0
C481 C 0.22831 0.28353 0.02176 0.0
C482 C 0.24764 0.25609 0.0242 0.0
C483 C 0.25646 0.24439 0.06622 0.0
C484 C 0.24698 0.25974 0.10481 0.0
C485 C 0.22869 0.28699 0.10245 0.0
C486 C 0.21946 0.29891 0.06151 0.0
H487 H 0.31558 0.25643 0.00905 0.0
C488 C 0.3141 0.23169 -0.00149 0.0
H489 H 0.28417 0.19563 0.97361 0.0
H490 H 0.201 0.30921 0.89572 0.0
H491 H 0.21591 0.28052 0.82903 0.0
H492 H 0.25018 0.2334 0.83318 0.0
H493 H 0.26971 0.21462 0.90392 0.0
C494 C 0.28612 0.21973 -0.01358 0.0
C495 C 0.25851 0.24138 -0.0151 0.0
C496 C 0.24655 0.25129 0.94349 0.0
C497 C 0.22697 0.27856 0.94103 0.0
C498 C 0.21617 0.28876 0.89918 0.0
C499 C 0.22447 0.27247 0.86078 0.0
C500 C 0.24375 0.24593 0.86313 0.0
C501 C 0.25484 0.23542 0.9039 0.0
H502 H 0.79467 0.31079 0.50507 0.0
C503 C 0.77939 0.33073 0.51258 0.0
H504 H 0.73339 0.34538 0.52815 0.0
H505 H 0.68572 0.21876 0.42658 0.0
H506 H 0.70718 0.24293 0.35996 0.0
H507 H 0.74069 0.29087 0.36452 0.0
H508 H 0.75332 0.31464 0.43541 0.0
C509 C 0.74872 0.32562 0.51999 0.0
C510 C 0.73396 0.29356 0.51696 0.0
C511 C 0.7269 0.28011 0.47506 0.0
C512 C 0.70681 0.25308 0.47223 0.0
C513 C 0.70021 0.23983 0.43021 0.0
C514 C 0.71248 0.25335 0.39186 0.0
C515 C 0.73141 0.2803 0.39445 0.0
C516 C 0.73853 0.29369 0.43544 0.0
H517 H 0.6381 0.25488 0.4789 0.0
C518 C 0.63833 0.23062 0.49146 0.0
H519 H 0.66573 0.19538 0.52272 0.0
H520 H 0.74721 0.3103 0.60218 0.0
H521 H 0.72687 0.28501 0.66863 0.0
H522 H 0.69109 0.23882 0.66358 0.0
H523 H 0.67549 0.21753 0.59217 0.0
C524 C 0.6652 0.21884 0.50766 0.0
C525 C 0.69309 0.24024 0.51104 0.0
C526 C 0.7026 0.25174 0.55302 0.0
C527 C 0.72302 0.27852 0.55595 0.0
C528 C 0.7315 0.29018 0.59822 0.0
C529 C 0.72008 0.27585 0.63655 0.0
C530 C 0.69994 0.24982 0.6337 0.0
C531 C 0.69114 0.23786 0.59251 0.0
H532 H 0.77183 0.65661 -0.01146 0.0
C533 C 0.75492 0.63745 -0.01589 0.0
H534 H 0.70729 0.62522 0.97479 0.0
H535 H 0.67287 0.75728 0.07197 0.0
H536 H 0.69441 0.73292 0.1382 0.0
H537 H 0.7238 0.68253 0.13368 0.0
H538 H 0.73223 0.65646 0.06312 0.0
C539 C 0.72433 0.64421 0.97962 0.0
C540 C 0.71198 0.6772 0.98205 0.0
C541 C 0.70728 0.69198 0.02371 0.0
C542 C 0.68954 0.7205 0.02657 0.0
C543 C 0.68543 0.73509 0.06835 0.0
C544 C 0.69781 0.72147 0.10648 0.0
C545 C 0.71441 0.69314 0.10391 0.0
C546 C 0.71912 0.67842 0.06313 0.0
H547 H 0.62089 0.726 0.02628 0.0
C548 C 0.62305 0.74937 0.01108 0.0
H549 H 0.65244 0.78016 0.97445 0.0
H550 H 0.72111 0.65763 0.89696 0.0
H551 H 0.70077 0.68287 0.83067 0.0
H552 H 0.66891 0.73165 0.83571 0.0
H553 H 0.65729 0.75558 0.90687 0.0
C554 C 0.65032 0.75769 -0.00803 0.0
C555 C 0.67574 0.73357 -0.01195 0.0
C556 C 0.68291 0.72043 0.94605 0.0
C557 C 0.70102 0.69214 0.94311 0.0
C558 C 0.7072 0.67895 0.90093 0.0
C559 C 0.69575 0.69322 0.86268 0.0
C560 C 0.67783 0.72071 0.86553 0.0
C561 C 0.67132 0.7342 0.90662 0.0
H562 H 0.32246 0.80363 0.47439 0.0
C563 C 0.34078 0.78632 0.46803 0.0
H564 H 0.35157 0.73829 0.45444 0.0
H565 H 0.22664 0.69598 0.55603 0.0
H566 H 0.25036 0.71891 0.62204 0.0
H567 H 0.29772 0.75267 0.61657 0.0
H568 H 0.32133 0.76411 0.5454 0.0
C569 C 0.3333 0.75558 0.46125 0.0
C570 C 0.30082 0.74284 0.46445 0.0
C571 C 0.28737 0.73663 0.5065 0.0
C572 C 0.26065 0.71641 0.50988 0.0
C573 C 0.24746 0.71054 0.55204 0.0
C574 C 0.26073 0.72366 0.59002 0.0
C575 C 0.28736 0.74272 0.58693 0.0
C576 C 0.30068 0.74913 0.54578 0.0
H577 H 0.26257 0.64675 0.50697 0.0
C578 C 0.23892 0.6465 0.49349 0.0
H579 H 0.20444 0.67321 0.45996 0.0
H580 H 0.31731 0.7551 0.37903 0.0
H581 H 0.29235 0.73356 0.31305 0.0
H582 H 0.24669 0.6975 0.31902 0.0
H583 H 0.22564 0.68281 0.39082 0.0
C584 C 0.22732 0.67329 0.47573 0.0
C585 C 0.24814 0.70173 0.47151 0.0
C586 C 0.2594 0.71079 0.42926 0.0
C587 C 0.28587 0.73135 0.42578 0.0
C588 C 0.29743 0.73928 0.38332 0.0
C589 C 0.28327 0.72718 0.3453 0.0
C590 C 0.25755 0.70689 0.34867 0.0
C591 C 0.24571 0.69861 0.39007 0.0
loop_
_geom_bond_atom_site_label_1
_geom_bond_atom_site_label_2
_geom_bond_distance
_geom_bond_site_symmetry_2
_ccdc_geom_bond_type
C0 O1 1.306 . S
C0 O3 1.160 . S
O1 C0 1.306 . S
O1 Cd2 2.228 1_556 S
Cd2 O1 2.228 1_554 S
Cd2 O6 2.273 . S
Cd2 O10 2.277 . S
O3 C0 1.160 . S
O3 Cd4 2.203 1_556 S
Cd4 O3 2.203 1_554 S
Cd4 O6 2.411 . S
Cd4 O7 2.333 . S
Cd4 O8 2.352 . S
Cd4 O12 2.277 . S
Cd4 O13 2.356 . S
C5 O10 1.209 . S
C5 O12 1.226 . S
O6 Cd2 2.273 . S
O6 Cd4 2.411 . S
O6 C9 1.320 . S
O7 Cd4 2.333 . S
O7 C9 1.214 . S
O8 Cd4 2.352 . S
O8 C11 1.258 . S
C9 O6 1.320 . S
C9 O7 1.214 . S
O10 Cd2 2.277 . S
O10 C5 1.209 . S
C11 O8 1.258 . S
C11 O13 1.282 . S
O12 Cd4 2.277 . S
O12 C5 1.226 . S
O13 Cd4 2.356 . S
O13 C11 1.282 . S
C14 O15 1.306 . S
C14 O17 1.160 . S
O15 C14 1.306 . S
O15 Cd16 2.228 . S
Cd16 O15 2.228 . S
Cd16 O20 2.273 . S
Cd16 O24 2.277 . S
O17 C14 1.160 . S
O17 Cd18 2.203 . S
Cd18 O17 2.203 . S
Cd18 O20 2.411 . S
Cd18 O21 2.333 . S
Cd18 O22 2.352 . S
Cd18 O26 2.277 . S
Cd18 O27 2.356 . S
C19 O24 1.209 . S
C19 O26 1.226 . S
O20 Cd16 2.273 . S
O20 Cd18 2.411 . S
O20 C23 1.320 . S
O21 Cd18 2.333 . S
O21 C23 1.214 . S
O22 Cd18 2.352 . S
O22 C25 1.258 . S
C23 O20 1.320 . S
C23 O21 1.214 . S
O24 Cd16 2.277 . S
O24 C19 1.209 . S
C25 O22 1.258 . S
C25 O27 1.282 . S
O26 Cd18 2.277 . S
O26 C19 1.226 . S
O27 Cd18 2.356 . S
O27 C25 1.282 . S
C28 O29 1.306 . S
C28 O31 1.160 . S
O29 C28 1.306 . S
O29 Cd30 2.228 1_556 S
Cd30 O29 2.228 1_554 S
Cd30 O34 2.273 . S
Cd30 O38 2.277 . S
O31 C28 1.160 . S
O31 Cd32 2.203 1_556 S
Cd32 O31 2.203 1_554 S
Cd32 O34 2.411 . S
Cd32 O35 2.333 . S
Cd32 O36 2.352 . S
Cd32 O40 2.277 . S
Cd32 O41 2.356 . S
C33 O38 1.209 . S
C33 O40 1.226 . S
O34 Cd30 2.273 . S
O34 Cd32 2.411 . S
O34 C37 1.320 . S
O35 Cd32 2.333 . S
O35 C37 1.214 . S
O36 Cd32 2.352 . S
O36 C39 1.258 . S
C37 O34 1.320 . S
C37 O35 1.214 . S
O38 Cd30 2.277 . S
O38 C33 1.209 . S
C39 O36 1.258 . S
C39 O41 1.282 . S
O40 Cd32 2.277 . S
O40 C33 1.226 . S
O41 Cd32 2.356 . S
O41 C39 1.282 . S
C42 O43 1.306 . S
C42 O45 1.160 . S
O43 C42 1.306 . S
O43 Cd44 2.228 . S
Cd44 O43 2.228 . S
Cd44 O48 2.273 . S
Cd44 O52 2.277 . S
O45 C42 1.160 . S
O45 Cd46 2.203 . S
Cd46 O45 2.203 . S
Cd46 O48 2.411 . S
Cd46 O49 2.333 . S
Cd46 O50 2.352 . S
Cd46 O54 2.277 . S
Cd46 O55 2.356 . S
C47 O52 1.209 . S
C47 O54 1.226 . S
O48 Cd44 2.273 . S
O48 Cd46 2.411 . S
O48 C51 1.320 . S
O49 Cd46 2.333 . S
O49 C51 1.214 . S
O50 Cd46 2.352 . S
O50 C53 1.258 . S
C51 O48 1.320 . S
C51 O49 1.214 . S
O52 Cd44 2.277 . S
O52 C47 1.209 . S
C53 O50 1.258 . S
C53 O55 1.282 . S
O54 Cd46 2.277 . S
O54 C47 1.226 . S
O55 Cd46 2.356 . S
O55 C53 1.282 . S
C56 O57 1.306 . S
C56 O59 1.160 . S
O57 C56 1.306 . S
O57 Cd58 2.228 . S
Cd58 O57 2.228 . S
Cd58 O62 2.273 . S
Cd58 O66 2.277 . S
O59 C56 1.160 . S
O59 Cd60 2.203 . S
Cd60 O59 2.203 . S
Cd60 O62 2.411 . S
Cd60 O63 2.333 . S
Cd60 O64 2.352 . S
Cd60 O68 2.277 . S
Cd60 O69 2.356 . S
C61 O66 1.209 . S
C61 O68 1.226 . S
O62 Cd58 2.273 . S
O62 Cd60 2.411 . S
O62 C65 1.320 . S
O63 Cd60 2.333 . S
O63 C65 1.214 . S
O64 Cd60 2.352 . S
O64 C67 1.258 . S
C65 O62 1.320 . S
C65 O63 1.214 . S
O66 Cd58 2.277 . S
O66 C61 1.209 . S
C67 O64 1.258 . S
C67 O69 1.282 . S
O68 Cd60 2.277 . S
O68 C61 1.226 . S
O69 Cd60 2.356 . S
O69 C67 1.282 . S
C70 O71 1.306 . S
C70 O73 1.160 . S
O71 C70 1.306 . S
O71 Cd72 2.228 . S
Cd72 O71 2.228 . S
Cd72 O76 2.273 1_554 S
Cd72 O80 2.277 . S
O73 C70 1.160 . S
O73 Cd74 2.203 . S
Cd74 O73 2.203 . S
Cd74 O76 2.411 1_554 S
Cd74 O77 2.333 1_554 S
Cd74 O78 2.352 . S
Cd74 O82 2.277 . S
Cd74 O83 2.356 1_554 S
C75 O80 1.209 . S
C75 O82 1.226 . S
O76 Cd72 2.273 1_556 S
O76 Cd74 2.411 1_556 S
O76 C79 1.320 . S
O77 Cd74 2.333 1_556 S
O77 C79 1.214 . S
O78 Cd74 2.352 . S
O78 C81 1.258 . S
C79 O76 1.320 . S
C79 O77 1.214 . S
O80 Cd72 2.277 . S
O80 C75 1.209 . S
C81 O78 1.258 . S
C81 O83 1.282 1_554 S
O82 Cd74 2.277 . S
O82 C75 1.226 . S
O83 Cd74 2.356 1_556 S
O83 C81 1.282 1_556 S
C84 O85 1.306 . S
C84 O87 1.160 . S
O85 C84 1.306 . S
O85 Cd86 2.228 . S
Cd86 O85 2.228 . S
Cd86 O90 2.273 . S
Cd86 O94 2.277 . S
O87 C84 1.160 . S
O87 Cd88 2.203 . S
Cd88 O87 2.203 . S
Cd88 O90 2.411 . S
Cd88 O91 2.333 . S
Cd88 O92 2.352 . S
Cd88 O96 2.277 . S
Cd88 O97 2.356 . S
C89 O94 1.209 . S
C89 O96 1.226 . S
O90 Cd86 2.273 . S
O90 Cd88 2.411 . S
O90 C93 1.320 . S
O91 Cd88 2.333 . S
O91 C93 1.214 . S
O92 Cd88 2.352 . S
O92 C95 1.258 . S
C93 O90 1.320 . S
C93 O91 1.214 . S
O94 Cd86 2.277 . S
O94 C89 1.209 . S
C95 O92 1.258 . S
C95 O97 1.282 . S
O96 Cd88 2.277 . S
O96 C89 1.226 . S
O97 Cd88 2.356 . S
O97 C95 1.282 . S
C98 O99 1.306 . S
C98 O101 1.160 . S
O99 C98 1.306 . S
O99 Cd100 2.228 . S
Cd100 O99 2.228 . S
Cd100 O104 2.273 1_554 S
Cd100 O108 2.277 . S
O101 C98 1.160 . S
O101 Cd102 2.203 . S
Cd102 O101 2.203 . S
Cd102 O104 2.411 1_554 S
Cd102 O105 2.333 1_554 S
Cd102 O106 2.352 . S
Cd102 O110 2.277 . S
Cd102 O111 2.356 1_554 S
C103 O108 1.209 . S
C103 O110 1.226 . S
O104 Cd100 2.273 1_556 S
O104 Cd102 2.411 1_556 S
O104 C107 1.320 . S
O105 Cd102 2.333 1_556 S
O105 C107 1.214 . S
O106 Cd102 2.352 . S
O106 C109 1.258 . S
C107 O104 1.320 . S
C107 O105 1.214 . S
O108 Cd100 2.277 . S
O108 C103 1.209 . S
C109 O106 1.258 . S
C109 O111 1.282 1_554 S
O110 Cd102 2.277 . S
O110 C103 1.226 . S
O111 Cd102 2.356 1_556 S
O111 C109 1.282 1_556 S
H112 C113 0.951 . S
C113 H112 0.951 . S
C113 C119 1.265 . S
H114 C119 0.950 . S
H115 C123 0.949 . S
H116 C124 0.950 . S
H117 C125 0.951 . S
H118 C126 0.951 . S
C119 C113 1.265 . S
C119 H114 0.950 . S
C119 C120 1.478 . S
C120 C119 1.478 . S
C120 C121 1.397 . S
C120 C137 1.394 . S
C121 C120 1.397 . S
C121 C122 1.438 . S
C121 C126 1.429 . S
C122 C121 1.438 . S
C122 C123 1.428 . S
C122 C135 1.394 . S
C123 H115 0.949 . S
C123 C122 1.428 . S
C123 C124 1.345 . S
C124 H116 0.950 . S
C124 C123 1.345 . S
C124 C125 1.424 . S
C125 H117 0.951 . S
C125 C124 1.424 . S
C125 C126 1.347 . S
C126 H118 0.951 . S
C126 C121 1.429 . S
C126 C125 1.347 . S
H127 C128 0.951 . S
C128 H127 0.951 . S
C128 C134 1.265 . S
H129 C134 0.950 . S
H130 C138 0.949 . S
H131 C139 0.950 . S
H132 C140 0.951 . S
H133 C141 0.951 . S
C134 C128 1.265 . S
C134 H129 0.950 . S
C134 C135 1.478 . S
C135 C122 1.394 . S
C135 C134 1.478 . S
C135 C136 1.397 . S
C136 C135 1.397 . S
C136 C137 1.438 . S
C136 C141 1.429 . S
C137 C120 1.394 . S
C137 C136 1.438 . S
C137 C138 1.428 . S
C138 H130 0.949 . S
C138 C137 1.428 . S
C138 C139 1.345 . S
C139 H131 0.950 . S
C139 C138 1.345 . S
C139 C140 1.424 . S
C140 H132 0.951 . S
C140 C139 1.424 . S
C140 C141 1.347 . S
C141 H133 0.951 . S
C141 C136 1.429 . S
C141 C140 1.347 . S
H142 C143 0.951 . S
C143 H142 0.951 . S
C143 C149 1.265 . S
H144 C149 0.950 . S
H145 C153 0.949 . S
H146 C154 0.950 . S
H147 C155 0.951 . S
H148 C156 0.951 . S
C149 C143 1.265 . S
C149 H144 0.950 . S
C149 C150 1.478 . S
C150 C149 1.478 . S
C150 C151 1.397 . S
C150 C167 1.394 . S
C151 C150 1.397 . S
C151 C152 1.438 . S
C151 C156 1.429 . S
C152 C151 1.438 . S
C152 C153 1.428 . S
C152 C165 1.394 . S
C153 H145 0.949 . S
C153 C152 1.428 . S
C153 C154 1.345 . S
C154 H146 0.950 . S
C154 C153 1.345 . S
C154 C155 1.424 . S
C155 H147 0.951 . S
C155 C154 1.424 . S
C155 C156 1.347 . S
C156 H148 0.951 . S
C156 C151 1.429 . S
C156 C155 1.347 . S
H157 C158 0.951 . S
C158 H157 0.951 . S
C158 C164 1.265 . S
H159 C164 0.950 . S
H160 C168 0.949 . S
H161 C169 0.950 . S
H162 C170 0.951 . S
H163 C171 0.951 . S
C164 C158 1.265 . S
C164 H159 0.950 . S
C164 C165 1.478 . S
C165 C152 1.394 . S
C165 C164 1.478 . S
C165 C166 1.397 . S
C166 C165 1.397 . S
C166 C167 1.438 . S
C166 C171 1.429 . S
C167 C150 1.394 . S
C167 C166 1.438 . S
C167 C168 1.428 . S
C168 H160 0.949 . S
C168 C167 1.428 . S
C168 C169 1.345 . S
C169 H161 0.950 . S
C169 C168 1.345 . S
C169 C170 1.424 . S
C170 H162 0.951 . S
C170 C169 1.424 . S
C170 C171 1.347 . S
C171 H163 0.951 . S
C171 C166 1.429 . S
C171 C170 1.347 . S
H172 C173 0.951 . S
C173 H172 0.951 . S
C173 C179 1.265 . S
H174 C179 0.950 . S
H175 C183 0.949 . S
H176 C184 0.950 . S
H177 C185 0.951 . S
H178 C186 0.951 . S
C179 C173 1.265 . S
C179 H174 0.950 . S
C179 C180 1.478 . S
C180 C179 1.478 . S
C180 C181 1.397 . S
C180 C197 1.394 . S
C181 C180 1.397 . S
C181 C182 1.438 . S
C181 C186 1.429 . S
C182 C181 1.438 . S
C182 C183 1.428 . S
C182 C195 1.394 . S
C183 H175 0.949 . S
C183 C182 1.428 . S
C183 C184 1.345 . S
C184 H176 0.950 . S
C184 C183 1.345 . S
C184 C185 1.424 . S
C185 H177 0.951 . S
C185 C184 1.424 . S
C185 C186 1.347 . S
C186 H178 0.951 . S
C186 C181 1.429 . S
C186 C185 1.347 . S
H187 C188 0.951 . S
C188 H187 0.951 . S
C188 C194 1.265 . S
H189 C194 0.950 . S
H190 C198 0.949 . S
H191 C199 0.950 . S
H192 C200 0.951 . S
H193 C201 0.951 . S
C194 C188 1.265 . S
C194 H189 0.950 . S
C194 C195 1.478 . S
C195 C182 1.394 . S
C195 C194 1.478 . S
C195 C196 1.397 . S
C196 C195 1.397 . S
C196 C197 1.438 . S
C196 C201 1.429 . S
C197 C180 1.394 . S
C197 C196 1.438 . S
C197 C198 1.428 . S
C198 H190 0.949 . S
C198 C197 1.428 . S
C198 C199 1.345 . S
C199 H191 0.950 . S
C199 C198 1.345 . S
C199 C200 1.424 . S
C200 H192 0.951 . S
C200 C199 1.424 . S
C200 C201 1.347 . S
C201 H193 0.951 . S
C201 C196 1.429 . S
C201 C200 1.347 . S
H202 C203 0.951 . S
C203 H202 0.951 . S
C203 C209 1.265 . S
H204 C209 0.950 . S
H205 C213 0.949 . S
H206 C214 0.950 . S
H207 C215 0.951 . S
H208 C216 0.951 . S
C209 C203 1.265 . S
C209 H204 0.950 . S
C209 C210 1.478 . S
C210 C209 1.478 . S
C210 C211 1.397 . S
C210 C227 1.394 . S
C211 C210 1.397 . S
C211 C212 1.438 . S
C211 C216 1.429 . S
C212 C211 1.438 . S
C212 C213 1.428 . S
C212 C225 1.394 . S
C213 H205 0.949 . S
C213 C212 1.428 . S
C213 C214 1.345 . S
C214 H206 0.950 . S
C214 C213 1.345 . S
C214 C215 1.424 . S
C215 H207 0.951 . S
C215 C214 1.424 . S
C215 C216 1.347 . S
C216 H208 0.951 . S
C216 C211 1.429 . S
C216 C215 1.347 . S
H217 C218 0.951 . S
C218 H217 0.951 . S
C218 C224 1.265 . S
H219 C224 0.950 . S
H220 C228 0.949 . S
H221 C229 0.950 . S
H222 C230 0.951 . S
H223 C231 0.951 . S
C224 C218 1.265 . S
C224 H219 0.950 . S
C224 C225 1.478 . S
C225 C212 1.394 . S
C225 C224 1.478 . S
C225 C226 1.397 . S
C226 C225 1.397 . S
C226 C227 1.438 . S
C226 C231 1.429 . S
C227 C210 1.394 . S
C227 C226 1.438 . S
C227 C228 1.428 . S
C228 H220 0.949 . S
C228 C227 1.428 . S
C228 C229 1.345 . S
C229 H221 0.950 . S
C229 C228 1.345 . S
C229 C230 1.424 . S
C230 H222 0.951 . S
C230 C229 1.424 . S
C230 C231 1.347 . S
C231 H223 0.951 . S
C231 C226 1.429 . S
C231 C230 1.347 . S
H232 C233 0.951 . S
C233 H232 0.951 . S
C233 C239 1.265 . S
H234 C239 0.950 . S
H235 C243 0.949 . S
H236 C244 0.950 . S
H237 C245 0.951 . S
H238 C246 0.951 . S
C239 C233 1.265 . S
C239 H234 0.950 . S
C239 C240 1.478 . S
C240 C239 1.478 . S
C240 C241 1.397 . S
C240 C257 1.394 . S
C241 C240 1.397 . S
C241 C242 1.438 . S
C241 C246 1.429 . S
C242 C241 1.438 . S
C242 C243 1.428 . S
C242 C255 1.394 . S
C243 H235 0.949 . S
C243 C242 1.428 . S
C243 C244 1.345 . S
C244 H236 0.950 . S
C244 C243 1.345 . S
C244 C245 1.424 . S
C245 H237 0.951 . S
C245 C244 1.424 . S
C245 C246 1.347 . S
C246 H238 0.951 . S
C246 C241 1.429 . S
C246 C245 1.347 . S
H247 C248 0.951 . S
C248 H247 0.951 . S
C248 C254 1.265 . S
H249 C254 0.950 . S
H250 C258 0.949 . S
H251 C259 0.950 . S
H252 C260 0.951 . S
H253 C261 0.951 . S
C254 C248 1.265 . S
C254 H249 0.950 . S
C254 C255 1.478 . S
C255 C242 1.394 . S
C255 C254 1.478 . S
C255 C256 1.397 . S
C256 C255 1.397 . S
C256 C257 1.438 . S
C256 C261 1.429 . S
C257 C240 1.394 . S
C257 C256 1.438 . S
C257 C258 1.428 . S
C258 H250 0.949 . S
C258 C257 1.428 . S
C258 C259 1.345 . S
C259 H251 0.950 . S
C259 C258 1.345 . S
C259 C260 1.424 . S
C260 H252 0.951 . S
C260 C259 1.424 . S
C260 C261 1.347 . S
C261 H253 0.951 . S
C261 C256 1.429 . S
C261 C260 1.347 . S
H262 C263 0.951 . S
C263 H262 0.951 . S
C263 C269 1.265 . S
H264 C269 0.950 . S
H265 C273 0.949 . S
H266 C274 0.950 . S
H267 C275 0.951 . S
H268 C276 0.951 . S
C269 C263 1.265 . S
C269 H264 0.950 . S
C269 C270 1.478 . S
C270 C269 1.478 . S
C270 C271 1.397 . S
C270 C287 1.394 . S
C271 C270 1.397 . S
C271 C272 1.438 . S
C271 C276 1.429 . S
C272 C271 1.438 . S
C272 C273 1.428 . S
C272 C285 1.394 . S
C273 H265 0.949 . S
C273 C272 1.428 . S
C273 C274 1.345 . S
C274 H266 0.950 . S
C274 C273 1.345 . S
C274 C275 1.424 . S
C275 H267 0.951 . S
C275 C274 1.424 . S
C275 C276 1.347 . S
C276 H268 0.951 . S
C276 C271 1.429 . S
C276 C275 1.347 . S
H277 C278 0.951 . S
C278 H277 0.951 . S
C278 C284 1.265 . S
H279 C284 0.950 . S
H280 C288 0.949 . S
H281 C289 0.950 . S
H282 C290 0.951 . S
H283 C291 0.951 . S
C284 C278 1.265 . S
C284 H279 0.950 . S
C284 C285 1.478 . S
C285 C272 1.394 . S
C285 C284 1.478 . S
C285 C286 1.397 . S
C286 C285 1.397 . S
C286 C287 1.438 . S
C286 C291 1.429 . S
C287 C270 1.394 . S
C287 C286 1.438 . S
C287 C288 1.428 . S
C288 H280 0.949 . S
C288 C287 1.428 . S
C288 C289 1.345 . S
C289 H281 0.950 . S
C289 C288 1.345 . S
C289 C290 1.424 . S
C290 H282 0.951 . S
C290 C289 1.424 . S
C290 C291 1.347 . S
C291 H283 0.951 . S
C291 C286 1.429 . S
C291 C290 1.347 . S
H292 C293 0.951 . S
C293 H292 0.951 . S
C293 C299 1.265 . S
H294 C299 0.950 . S
H295 C303 0.949 . S
H296 C304 0.950 . S
H297 C305 0.951 . S
H298 C306 0.951 . S
C299 C293 1.265 . S
C299 H294 0.950 . S
C299 C300 1.478 . S
C300 C299 1.478 . S
C300 C301 1.397 . S
C300 C317 1.394 . S
C301 C300 1.397 . S
C301 C302 1.438 . S
C301 C306 1.429 . S
C302 C301 1.438 . S
C302 C303 1.428 . S
C302 C315 1.394 . S
C303 H295 0.949 . S
C303 C302 1.428 . S
C303 C304 1.345 . S
C304 H296 0.950 . S
C304 C303 1.345 . S
C304 C305 1.424 . S
C305 H297 0.951 . S
C305 C304 1.424 . S
C305 C306 1.347 . S
C306 H298 0.951 . S
C306 C301 1.429 . S
C306 C305 1.347 . S
H307 C308 0.951 . S
C308 H307 0.951 . S
C308 C314 1.265 . S
H309 C314 0.950 . S
H310 C318 0.949 . S
H311 C319 0.950 . S
H312 C320 0.951 . S
H313 C321 0.951 . S
C314 C308 1.265 . S
C314 H309 0.950 . S
C314 C315 1.478 . S
C315 C302 1.394 . S
C315 C314 1.478 . S
C315 C316 1.397 . S
C316 C315 1.397 . S
C316 C317 1.438 . S
C316 C321 1.429 . S
C317 C300 1.394 . S
C317 C316 1.438 . S
C317 C318 1.428 . S
C318 H310 0.949 . S
C318 C317 1.428 . S
C318 C319 1.345 . S
C319 H311 0.950 . S
C319 C318 1.345 . S
C319 C320 1.424 . S
C320 H312 0.951 . S
C320 C319 1.424 . S
C320 C321 1.347 . S
C321 H313 0.951 . S
C321 C316 1.429 . S
C321 C320 1.347 . S
H322 C323 0.951 . S
C323 H322 0.951 . S
C323 C329 1.265 . S
H324 C329 0.950 . S
H325 C333 0.949 . S
H326 C334 0.950 . S
H327 C335 0.951 . S
H328 C336 0.951 . S
C329 C323 1.265 . S
C329 H324 0.950 . S
C329 C330 1.478 . S
C330 C329 1.478 . S
C330 C331 1.397 . S
C330 C347 1.394 . S
C331 C330 1.397 . S
C331 C332 1.438 . S
C331 C336 1.429 . S
C332 C331 1.438 . S
C332 C333 1.428 . S
C332 C345 1.394 . S
C333 H325 0.949 . S
C333 C332 1.428 . S
C333 C334 1.345 . S
C334 H326 0.950 . S
C334 C333 1.345 . S
C334 C335 1.424 . S
C335 H327 0.951 . S
C335 C334 1.424 . S
C335 C336 1.347 . S
C336 H328 0.951 . S
C336 C331 1.429 . S
C336 C335 1.347 . S
H337 C338 0.951 . S
C338 H337 0.951 . S
C338 C344 1.265 . S
H339 C344 0.950 . S
H340 C348 0.949 . S
H341 C349 0.950 . S
H342 C350 0.951 . S
H343 C351 0.951 . S
C344 C338 1.265 . S
C344 H339 0.950 . S
C344 C345 1.478 . S
C345 C332 1.394 . S
C345 C344 1.478 . S
C345 C346 1.397 . S
C346 C345 1.397 . S
C346 C347 1.438 . S
C346 C351 1.429 . S
C347 C330 1.394 . S
C347 C346 1.438 . S
C347 C348 1.428 . S
C348 H340 0.949 . S
C348 C347 1.428 . S
C348 C349 1.345 . S
C349 H341 0.950 . S
C349 C348 1.345 . S
C349 C350 1.424 . S
C350 H342 0.951 . S
C350 C349 1.424 . S
C350 C351 1.347 . S
C351 H343 0.951 . S
C351 C346 1.429 . S
C351 C350 1.347 . S
H352 C353 0.951 . S
C353 H352 0.951 . S
C353 C359 1.265 . S
H354 C359 0.950 . S
H355 C363 0.949 . S
H356 C364 0.950 . S
H357 C365 0.951 1_655 S
H358 C366 0.951 . S
C359 C353 1.265 . S
C359 H354 0.950 . S
C359 C360 1.478 . S
C360 C359 1.478 . S
C360 C361 1.397 . S
C360 C377 1.394 1_554 S
C361 C360 1.397 . S
C361 C362 1.438 1_655 S
C361 C366 1.429 . S
C362 C361 1.438 1_455 S
C362 C363 1.428 . S
C362 C375 1.394 . S
C363 H355 0.949 . S
C363 C362 1.428 . S
C363 C364 1.345 . S
C364 H356 0.950 . S
C364 C363 1.345 . S
C364 C365 1.424 . S
C365 H357 0.951 1_455 S
C365 C364 1.424 . S
C365 C366 1.347 1_455 S
C366 H358 0.951 . S
C366 C361 1.429 . S
C366 C365 1.347 1_655 S
H367 C368 0.951 . S
C368 H367 0.951 . S
C368 C374 1.265 . S
H369 C374 0.948 1_556 S
H370 C378 0.949 . S
H371 C379 0.950 . S
H372 C380 0.951 1_455 S
H373 C381 0.951 . S
C374 C368 1.265 . S
C374 H369 0.948 1_554 S
C374 C375 1.478 . S
C375 C362 1.394 . S
C375 C374 1.478 . S
C375 C376 1.397 1_554 S
C376 C375 1.397 1_556 S
C376 C377 1.438 1_455 S
C376 C381 1.429 . S
C377 C360 1.394 1_556 S
C377 C376 1.438 1_655 S
C377 C378 1.428 . S
C378 H370 0.949 . S
C378 C377 1.428 . S
C378 C379 1.345 . S
C379 H371 0.950 . S
C379 C378 1.345 . S
C379 C380 1.424 . S
C380 H372 0.951 1_655 S
C380 C379 1.424 . S
C380 C381 1.347 1_655 S
C381 H373 0.951 . S
C381 C376 1.429 . S
C381 C380 1.347 1_455 S
H382 C383 0.951 . S
C383 H382 0.951 . S
C383 C389 1.265 . S
H384 C389 0.950 . S
H385 C393 0.949 . S
H386 C394 0.950 . S
H387 C395 0.951 . S
H388 C396 0.951 . S
C389 C383 1.265 . S
C389 H384 0.950 . S
C389 C390 1.478 . S
C390 C389 1.478 . S
C390 C391 1.397 . S
C390 C407 1.394 . S
C391 C390 1.397 . S
C391 C392 1.438 1_565 S
C391 C396 1.429 . S
C392 C391 1.438 1_545 S
C392 C393 1.428 . S
C392 C405 1.394 . S
C393 H385 0.949 . S
C393 C392 1.428 . S
C393 C394 1.345 . S
C394 H386 0.950 . S
C394 C393 1.345 . S
C394 C395 1.424 1_545 S
C395 H387 0.951 . S
C395 C394 1.424 1_565 S
C395 C396 1.347 . S
C396 H388 0.951 . S
C396 C391 1.429 . S
C396 C395 1.347 . S
H397 C398 0.951 . S
C398 H397 0.951 . S
C398 C404 1.265 . S
H399 C404 0.950 . S
H400 C408 0.949 . S
H401 C409 0.950 . S
H402 C410 0.951 . S
H403 C411 0.951 . S
C404 C398 1.265 . S
C404 H399 0.950 . S
C404 C405 1.478 . S
C405 C392 1.394 . S
C405 C404 1.478 . S
C405 C406 1.397 . S
C406 C405 1.397 . S
C406 C407 1.438 1_545 S
C406 C411 1.429 . S
C407 C390 1.394 . S
C407 C406 1.438 1_565 S
C407 C408 1.428 . S
C408 H400 0.949 . S
C408 C407 1.428 . S
C408 C409 1.345 . S
C409 H401 0.950 . S
C409 C408 1.345 . S
C409 C410 1.424 1_565 S
C410 H402 0.951 . S
C410 C409 1.424 1_545 S
C410 C411 1.347 . S
C411 H403 0.951 . S
C411 C406 1.429 . S
C411 C410 1.347 . S
H412 C413 0.951 . S
C413 H412 0.951 . S
C413 C419 1.265 . S
H414 C419 0.950 . S
H415 C423 0.949 . S
H416 C424 0.950 . S
H417 C425 0.951 . S
H418 C426 0.951 . S
C419 C413 1.265 . S
C419 H414 0.950 . S
C419 C420 1.478 . S
C420 C419 1.478 . S
C420 C421 1.397 . S
C420 C437 1.394 . S
C421 C420 1.397 . S
C421 C422 1.438 1_455 S
C421 C426 1.429 . S
C422 C421 1.438 1_655 S
C422 C423 1.428 . S
C422 C435 1.394 . S
C423 H415 0.949 . S
C423 C422 1.428 . S
C423 C424 1.345 . S
C424 H416 0.950 . S
C424 C423 1.345 . S
C424 C425 1.424 1_655 S
C425 H417 0.951 . S
C425 C424 1.424 1_455 S
C425 C426 1.347 . S
C426 H418 0.951 . S
C426 C421 1.429 . S
C426 C425 1.347 . S
H427 C428 0.951 . S
C428 H427 0.951 . S
C428 C434 1.265 . S
H429 C434 0.950 . S
H430 C438 0.949 . S
H431 C439 0.950 . S
H432 C440 0.951 . S
H433 C441 0.951 . S
C434 C428 1.265 . S
C434 H429 0.950 . S
C434 C435 1.478 . S
C435 C422 1.394 . S
C435 C434 1.478 . S
C435 C436 1.397 . S
C436 C435 1.397 . S
C436 C437 1.438 1_655 S
C436 C441 1.429 . S
C437 C420 1.394 . S
C437 C436 1.438 1_455 S
C437 C438 1.428 . S
C438 H430 0.949 . S
C438 C437 1.428 . S
C438 C439 1.345 . S
C439 H431 0.950 . S
C439 C438 1.345 . S
C439 C440 1.424 1_455 S
C440 H432 0.951 . S
C440 C439 1.424 1_655 S
C440 C441 1.347 . S
C441 H433 0.951 . S
C441 C436 1.429 . S
C441 C440 1.347 . S
H442 C443 0.951 . S
C443 H442 0.951 . S
C443 C449 1.265 . S
H444 C449 0.950 . S
H445 C453 0.949 . S
H446 C454 0.950 . S
H447 C455 0.951 . S
H448 C456 0.951 . S
C449 C443 1.265 . S
C449 H444 0.950 . S
C449 C450 1.478 . S
C450 C449 1.478 . S
C450 C451 1.397 . S
C450 C467 1.394 1_554 S
C451 C450 1.397 . S
C451 C452 1.438 1_565 S
C451 C456 1.429 . S
C452 C451 1.438 1_545 S
C452 C453 1.428 . S
C452 C465 1.394 . S
C453 H445 0.949 . S
C453 C452 1.428 . S
C453 C454 1.345 . S
C454 H446 0.950 . S
C454 C453 1.345 . S
C454 C455 1.424 1_545 S
C455 H447 0.951 . S
C455 C454 1.424 1_565 S
C455 C456 1.347 . S
C456 H448 0.951 . S
C456 C451 1.429 . S
C456 C455 1.347 . S
H457 C458 0.951 . S
C458 H457 0.951 . S
C458 C464 1.265 . S
H459 C464 0.950 . S
H460 C468 0.949 . S
H461 C469 0.950 . S
H462 C470 0.951 . S
H463 C471 0.951 . S
C464 C458 1.265 . S
C464 H459 0.950 . S
C464 C465 1.478 . S
C465 C452 1.394 . S
C465 C464 1.478 . S
C465 C466 1.397 1_554 S
C466 C465 1.397 1_556 S
C466 C467 1.438 1_545 S
C466 C471 1.429 . S
C467 C450 1.394 1_556 S
C467 C466 1.438 1_565 S
C467 C468 1.428 . S
C468 H460 0.949 . S
C468 C467 1.428 . S
C468 C469 1.345 . S
C469 H461 0.950 . S
C469 C468 1.345 . S
C469 C470 1.424 1_565 S
C470 H462 0.951 . S
C470 C469 1.424 1_545 S
C470 C471 1.347 . S
C471 H463 0.951 . S
C471 C466 1.429 . S
C471 C470 1.347 . S
H472 C473 0.951 . S
C473 H472 0.951 . S
C473 C479 1.265 . S
H474 C479 0.950 . S
H475 C483 0.949 . S
H476 C484 0.950 . S
H477 C485 0.951 . S
H478 C486 0.951 . S
C479 C473 1.265 . S
C479 H474 0.950 . S
C479 C480 1.478 . S
C480 C479 1.478 . S
C480 C481 1.397 . S
C480 C497 1.394 1_554 S
C481 C480 1.397 . S
C481 C482 1.438 . S
C481 C486 1.429 . S
C482 C481 1.438 . S
C482 C483 1.428 . S
C482 C495 1.394 . S
C483 H475 0.949 . S
C483 C482 1.428 . S
C483 C484 1.345 . S
C484 H476 0.950 . S
C484 C483 1.345 . S
C484 C485 1.424 . S
C485 H477 0.951 . S
C485 C484 1.424 . S
C485 C486 1.347 . S
C486 H478 0.951 . S
C486 C481 1.429 . S
C486 C485 1.347 . S
H487 C488 0.951 . S
C488 H487 0.951 . S
C488 C494 1.265 . S
H489 C494 0.950 . S
H490 C498 0.949 . S
H491 C499 0.950 . S
H492 C500 0.951 . S
H493 C501 0.951 . S
C494 C488 1.265 . S
C494 H489 0.950 . S
C494 C495 1.478 . S
C495 C482 1.394 . S
C495 C494 1.478 . S
C495 C496 1.397 1_554 S
C496 C495 1.397 1_556 S
C496 C497 1.438 . S
C496 C501 1.429 . S
C497 C480 1.394 1_556 S
C497 C496 1.438 . S
C497 C498 1.428 . S
C498 H490 0.949 . S
C498 C497 1.428 . S
C498 C499 1.345 . S
C499 H491 0.950 . S
C499 C498 1.345 . S
C499 C500 1.424 . S
C500 H492 0.951 . S
C500 C499 1.424 . S
C500 C501 1.347 . S
C501 H493 0.951 . S
C501 C496 1.429 . S
C501 C500 1.347 . S
H502 C503 0.951 . S
C503 H502 0.951 . S
C503 C509 1.265 . S
H504 C509 0.950 . S
H505 C513 0.949 . S
H506 C514 0.950 . S
H507 C515 0.951 . S
H508 C516 0.951 . S
C509 C503 1.265 . S
C509 H504 0.950 . S
C509 C510 1.478 . S
C510 C509 1.478 . S
C510 C511 1.397 . S
C510 C527 1.394 . S
C511 C510 1.397 . S
C511 C512 1.438 . S
C511 C516 1.429 . S
C512 C511 1.438 . S
C512 C513 1.428 . S
C512 C525 1.394 . S
C513 H505 0.949 . S
C513 C512 1.428 . S
C513 C514 1.345 . S
C514 H506 0.950 . S
C514 C513 1.345 . S
C514 C515 1.424 . S
C515 H507 0.951 . S
C515 C514 1.424 . S
C515 C516 1.347 . S
C516 H508 0.951 . S
C516 C511 1.429 . S
C516 C515 1.347 . S
H517 C518 0.951 . S
C518 H517 0.951 . S
C518 C524 1.265 . S
H519 C524 0.950 . S
H520 C528 0.949 . S
H521 C529 0.950 . S
H522 C530 0.951 . S
H523 C531 0.951 . S
C524 C518 1.265 . S
C524 H519 0.950 . S
C524 C525 1.478 . S
C525 C512 1.394 . S
C525 C524 1.478 . S
C525 C526 1.397 . S
C526 C525 1.397 . S
C526 C527 1.438 . S
C526 C531 1.429 . S
C527 C510 1.394 . S
C527 C526 1.438 . S
C527 C528 1.428 . S
C528 H520 0.949 . S
C528 C527 1.428 . S
C528 C529 1.345 . S
C529 H521 0.950 . S
C529 C528 1.345 . S
C529 C530 1.424 . S
C530 H522 0.951 . S
C530 C529 1.424 . S
C530 C531 1.347 . S
C531 H523 0.951 . S
C531 C526 1.429 . S
C531 C530 1.347 . S
H532 C533 0.951 . S
C533 H532 0.951 . S
C533 C539 1.265 . S
H534 C539 0.950 . S
H535 C543 0.949 . S
H536 C544 0.950 . S
H537 C545 0.951 . S
H538 C546 0.951 . S
C539 C533 1.265 . S
C539 H534 0.950 . S
C539 C540 1.478 . S
C540 C539 1.478 . S
C540 C541 1.397 . S
C540 C557 1.394 1_554 S
C541 C540 1.397 . S
C541 C542 1.438 . S
C541 C546 1.429 . S
C542 C541 1.438 . S
C542 C543 1.428 . S
C542 C555 1.394 . S
C543 H535 0.949 . S
C543 C542 1.428 . S
C543 C544 1.345 . S
C544 H536 0.950 . S
C544 C543 1.345 . S
C544 C545 1.424 . S
C545 H537 0.951 . S
C545 C544 1.424 . S
C545 C546 1.347 . S
C546 H538 0.951 . S
C546 C541 1.429 . S
C546 C545 1.347 . S
H547 C548 0.951 . S
C548 H547 0.951 . S
C548 C554 1.265 . S
H549 C554 0.950 . S
H550 C558 0.949 . S
H551 C559 0.950 . S
H552 C560 0.951 . S
H553 C561 0.951 . S
C554 C548 1.265 . S
C554 H549 0.950 . S
C554 C555 1.478 . S
C555 C542 1.394 . S
C555 C554 1.478 . S
C555 C556 1.397 1_554 S
C556 C555 1.397 1_556 S
C556 C557 1.438 . S
C556 C561 1.429 . S
C557 C540 1.394 1_556 S
C557 C556 1.438 . S
C557 C558 1.428 . S
C558 H550 0.949 . S
C558 C557 1.428 . S
C558 C559 1.345 . S
C559 H551 0.950 . S
C559 C558 1.345 . S
C559 C560 1.424 . S
C560 H552 0.951 . S
C560 C559 1.424 . S
C560 C561 1.347 . S
C561 H553 0.951 . S
C561 C556 1.429 . S
C561 C560 1.347 . S
H562 C563 0.951 . S
C563 H562 0.951 . S
C563 C569 1.265 . S
H564 C569 0.950 . S
H565 C573 0.949 . S
H566 C574 0.950 . S
H567 C575 0.951 . S
H568 C576 0.951 . S
C569 C563 1.265 . S
C569 H564 0.950 . S
C569 C570 1.478 . S
C570 C569 1.478 . S
C570 C571 1.397 . S
C570 C587 1.394 . S
C571 C570 1.397 . S
C571 C572 1.438 . S
C571 C576 1.429 . S
C572 C571 1.438 . S
C572 C573 1.428 . S
C572 C585 1.394 . S
C573 H565 0.949 . S
C573 C572 1.428 . S
C573 C574 1.345 . S
C574 H566 0.950 . S
C574 C573 1.345 . S
C574 C575 1.424 . S
C575 H567 0.951 . S
C575 C574 1.424 . S
C575 C576 1.347 . S
C576 H568 0.951 . S
C576 C571 1.429 . S
C576 C575 1.347 . S
H577 C578 0.951 . S
C578 H577 0.951 . S
C578 C584 1.265 . S
H579 C584 0.950 . S
H580 C588 0.949 . S
H581 C589 0.950 . S
H582 C590 0.951 . S
H583 C591 0.951 . S
C584 C578 1.265 . S
C584 H579 0.950 . S
C584 C585 1.478 . S
C585 C572 1.394 . S
C585 C584 1.478 . S
C585 C586 1.397 . S
C586 C585 1.397 . S
C586 C587 1.438 . S
C586 C591 1.429 . S
C587 C570 1.394 . S
C587 C586 1.438 . S
C587 C588 1.428 . S
C588 H580 0.949 . S
C588 C587 1.428 . S
C588 C589 1.345 . S
C589 H581 0.950 . S
C589 C588 1.345 . S
C589 C590 1.424 . S
C590 H582 0.951 . S
C590 C589 1.424 . S
C590 C591 1.347 . S
C591 H583 0.951 . S
C591 C586 1.429 . S
C591 C590 1.347 . S
C113 C9 1.248 . S
C128 C65 1.279 . S
C143 C23 1.226 . S
C158 C79 1.222 . S
C173 C93 1.317 . S
C188 C37 1.299 . S
C203 C107 1.315 . S
C218 C51 1.319 . S
C233 C84 1.226 . S
C248 C28 1.167 . S
C263 C98 1.220 . S
C278 C42 1.218 . S
C293 C0 1.173 . S
C308 C56 1.230 . S
C323 C14 1.177 . S
C338 C70 1.180 . S
C353 C33 1.310 . S
C368 C5 1.310 . S
C383 C47 1.311 . S
C398 C19 1.311 . S
C413 C61 1.376 . S
C428 C89 1.376 . S
C443 C103 1.376 . S
C458 C75 1.376 . S
C473 C11 1.327 . S
C488 C81 1.323 . S
C503 C95 1.328 . S
C518 C25 1.324 . S
C533 C39 1.327 . S
C548 C109 1.323 . S
C563 C53 1.327 . S
C578 C67 1.323 . S
