# Generated by pormake.
# Topology sow, (4)-cn, num edge types: 1
# Building blocks:
#     Node 0, Type 0, BuildingBlock: ICAMEG_clean_sbu_1, # of connection points: 4
#     Node 1, Type 0, BuildingBlock: ICAMEG_clean_sbu_1, # of connection points: 4
#     Node 2, Type 0, BuildingBlock: ICAMEG_clean_sbu_1, # of connection points: 4
#     Node 3, Type 0, BuildingBlock: ICAMEG_clean_sbu_1, # of connection points: 4
#     Node 4, Type 0, BuildingBlock: ICAMEG_clean_sbu_1, # of connection points: 4
#     Node 5, Type 0, BuildingBlock: ICAMEG_clean_sbu_1, # of connection points: 4
#     Node 6, Type 0, BuildingBlock: ICAMEG_clean_sbu_1, # of connection points: 4
#     Node 7, Type 0, BuildingBlock: ICAMEG_clean_sbu_1, # of connection points: 4
#     Edge 8, Type (0, 0), BuildingBlock: MIFKUJ_clean_linker_0, # of connection points: 2
#     Edge 9, Type (0, 0), BuildingBlock: MIFKUJ_clean_linker_0, # of connection points: 2
#     Edge 10, Type (0, 0), BuildingBlock: MIFKUJ_clean_linker_0, # of connection points: 2
#     Edge 11, Type (0, 0), BuildingBlock: MIFKUJ_clean_linker_0, # of connection points: 2
#     Edge 12, Type (0, 0), BuildingBlock: MIFKUJ_clean_linker_0, # of connection points: 2
#     Edge 13, Type (0, 0), BuildingBlock: MIFKUJ_clean_linker_0, # of connection points: 2
#     Edge 14, Type (0, 0), BuildingBlock: MIFKUJ_clean_linker_0, # of connection points: 2
#     Edge 15, Type (0, 0), BuildingBlock: MIFKUJ_clean_linker_0, # of connection points: 2
#     Edge 16, Type (0, 0), BuildingBlock: MIFKUJ_clean_linker_0, # of connection points: 2
#     Edge 17, Type (0, 0), BuildingBlock: MIFKUJ_clean_linker_0, # of connection points: 2
#     Edge 18, Type (0, 0), BuildingBlock: MIFKUJ_clean_linker_0, # of connection points: 2
#     Edge 19, Type (0, 0), BuildingBlock: MIFKUJ_clean_linker_0, # of connection points: 2
#     Edge 20, Type (0, 0), BuildingBlock: MIFKUJ_clean_linker_0, # of connection points: 2
#     Edge 21, Type (0, 0), BuildingBlock: MIFKUJ_clean_linker_0, # of connection points: 2
#     Edge 22, Type (0, 0), BuildingBlock: MIFKUJ_clean_linker_0, # of connection points: 2
#     Edge 23, Type (0, 0), BuildingBlock: MIFKUJ_clean_linker_0, # of connection points: 2
# Relax obj value: 0.056
# Max RMSD: 0.146
# Mean RMSD: 0.145
data_MOF--net-sow--node1-ICAMEG_clean_sbu_1--edge1-MIFKUJ_clean_linker_0
_symmetry_space_group_name_H-M    P1
_symmetry_Int_Tables_number       1
_symmetry_cell_setting            triclinic
loop_
_symmetry_equiv_pos_as_xyz
'x, y, z'
_cell_length_a     54.710674
_cell_length_b     24.608317
_cell_length_c     33.870737
_cell_angle_alpha  90.005441
_cell_angle_beta   89.985196
_cell_angle_gamma 89.986679
loop_
_atom_site_label
_atom_site_type_symbol
_atom_site_fract_x
_atom_site_fract_y
_atom_site_fract_z
_atom_type_partial_charge
Co0 Co 0.12902 0.2567 0.05436 0.0
Co1 Co 0.1462 0.15823 0.12138 0.0
O2 O 0.15351 0.21386 0.08222 0.0
C3 C 0.15767 0.20419 0.99139 0.0
O4 O 0.15454 0.15838 0.0106 0.0
C5 C 0.17791 0.23511 0.16359 0.0
O6 O 0.16379 0.27383 0.14979 0.0
O7 O 0.12324 0.20733 0.14949 0.0
O8 O 0.10923 0.26544 0.10353 0.0
H9 H 0.0919 0.04531 0.20864 0.0
H10 H 0.18133 0.28762 0.049 0.0
O11 O 0.14834 0.24807 0.00456 0.0
H12 H 0.13975 0.44641 0.10717 0.0
H13 H 0.10154 0.39759 0.95621 0.0
H14 H 0.07481 0.2609 0.05354 0.0
H15 H 0.11632 0.36465 0.08866 0.0
H16 H 0.13184 0.34359 0.99328 0.0
O17 O 0.17372 0.1857 0.15468 0.0
H18 H 0.10093 0.11395 0.1576 0.0
H19 H 0.17706 0.08512 0.17074 0.0
H20 H 0.04392 0.31425 0.01738 0.0
H21 H 0.20543 0.36872 0.06676 0.0
H22 H 0.05723 0.38319 0.9683 0.0
H23 H 0.18463 0.4488 0.09618 0.0
O24 O 0.10978 0.19064 0.04124 0.0
H25 H 0.22477 0.1089 0.05337 0.0
H26 H 0.14308 0.04387 0.09283 0.0
H27 H 0.17056 0.98281 0.05584 0.0
H28 H 0.21173 0.01527 0.03586 0.0
H29 H 0.19663 0.16873 0.09016 0.0
H30 H 0.16882 0.0165 0.22219 0.0
H31 H 0.12595 0.99603 0.24122 0.0
O32 O 0.11834 0.13039 0.08919 0.0
C33 C 0.10897 0.2453 0.13825 0.0
C34 C 0.11063 0.05368 0.2004 0.0
C35 C 0.15381 0.03756 0.20805 0.0
N36 N 0.13949 0.10312 0.16091 0.0
C37 C 0.11586 0.09236 0.17142 0.0
C38 C 0.15836 0.07649 0.17895 0.0
C39 C 0.12976 0.02611 0.21874 0.0
C40 C 0.17212 0.32251 0.06143 0.0
N41 N 0.14744 0.32153 0.06756 0.0
C42 C 0.18587 0.36823 0.07158 0.0
C43 C 0.17419 0.41312 0.08814 0.0
C44 C 0.14901 0.41179 0.09433 0.0
C45 C 0.13586 0.36535 0.08386 0.0
C46 C 0.09552 0.36777 0.97759 0.0
C47 C 0.08075 0.29109 0.03244 0.0
C48 C 0.11258 0.33702 0.99861 0.0
N49 N 0.10509 0.29951 0.02579 0.0
C50 C 0.06317 0.32105 0.01196 0.0
C51 C 0.07065 0.35968 0.98439 0.0
C52 C 0.1062 0.14563 0.05901 0.0
C53 C 0.2069 0.09424 0.06201 0.0
C54 C 0.16096 0.05828 0.08422 0.0
C55 C 0.17646 0.02351 0.06333 0.0
C56 C 0.19956 0.04173 0.05215 0.0
N57 N 0.16831 0.1097 0.09381 0.0
C58 C 0.19094 0.12785 0.08299 0.0
Co59 Co 0.36959 0.25956 0.55422 0.0
Co60 Co 0.35211 0.35616 0.62249 0.0
O61 O 0.3449 0.29988 0.58369 0.0
C62 C 0.33873 0.30836 0.49247 0.0
O63 O 0.34105 0.35462 0.51142 0.0
C64 C 0.32243 0.27724 0.66689 0.0
O65 O 0.33674 0.23928 0.65247 0.0
O66 O 0.37629 0.30865 0.64947 0.0
O67 O 0.39079 0.25336 0.60198 0.0
H68 H 0.40631 0.4751 0.70554 0.0
H69 H 0.31797 0.22287 0.55238 0.0
O70 O 0.34898 0.26557 0.50568 0.0
H71 H 0.36442 0.06943 0.60842 0.0
H72 H 0.39761 0.12031 0.45518 0.0
H73 H 0.42369 0.26251 0.54869 0.0
H74 H 0.38553 0.15345 0.58807 0.0
H75 H 0.36715 0.17115 0.49422 0.0
O76 O 0.32572 0.32678 0.65734 0.0
H77 H 0.39734 0.40421 0.65609 0.0
H78 H 0.32113 0.427 0.67343 0.0
H79 H 0.45478 0.2124 0.51052 0.0
H80 H 0.29616 0.13941 0.57202 0.0
H81 H 0.44179 0.14069 0.46335 0.0
H82 H 0.31942 0.06201 0.60038 0.0
O83 O 0.38688 0.32755 0.53955 0.0
H84 H 0.27142 0.39924 0.55897 0.0
H85 H 0.35284 0.47069 0.59373 0.0
H86 H 0.32361 0.52952 0.5584 0.0
H87 H 0.28256 0.49384 0.54082 0.0
H88 H 0.30129 0.34168 0.59405 0.0
H89 H 0.32931 0.49745 0.72354 0.0
H90 H 0.3722 0.52216 0.73961 0.0
O91 O 0.37884 0.38624 0.58872 0.0
C92 C 0.3911 0.27248 0.63699 0.0
C93 C 0.38758 0.46469 0.69871 0.0
C94 C 0.34435 0.47727 0.70883 0.0
N95 N 0.35874 0.41189 0.66158 0.0
C96 C 0.38237 0.42481 0.6706 0.0
C97 C 0.33983 0.43728 0.68048 0.0
C98 C 0.36841 0.49108 0.71787 0.0
C99 C 0.32824 0.18916 0.56434 0.0
N100 N 0.353 0.1929 0.56886 0.0
C101 C 0.31578 0.14209 0.57557 0.0
C102 C 0.32884 0.09871 0.59153 0.0
C103 C 0.35409 0.10286 0.59607 0.0
C104 C 0.36593 0.15058 0.58457 0.0
C105 C 0.40351 0.15131 0.47575 0.0
C106 C 0.41792 0.231 0.52852 0.0
C107 C 0.38635 0.18025 0.49791 0.0
N108 N 0.39368 0.21922 0.5241 0.0
C109 C 0.4356 0.20293 0.50685 0.0
C110 C 0.42829 0.16276 0.48035 0.0
C111 C 0.39019 0.37265 0.5573 0.0
C112 C 0.28923 0.4153 0.56657 0.0
C113 C 0.33502 0.45485 0.58612 0.0
C114 C 0.31853 0.48838 0.56618 0.0
C115 C 0.2955 0.46835 0.55635 0.0
N116 N 0.32872 0.4029 0.59609 0.0
C117 C 0.30617 0.38297 0.58657 0.0
Co118 Co 0.62893 0.2453 0.95174 0.0
Co119 Co 0.6437 0.33849 0.87952 0.0
O120 O 0.65257 0.28435 0.9191 0.0
C121 C 0.66296 0.29512 0.00835 0.0
O122 O 0.66176 0.33957 0.98706 0.0
C123 C 0.67379 0.26015 0.83463 0.0
O124 O 0.66028 0.22127 0.84975 0.0
O125 O 0.61953 0.28821 0.85535 0.0
O126 O 0.60606 0.23759 0.90617 0.0
H127 H 0.58581 0.44863 0.79659 0.0
H128 H 0.68049 0.20831 0.94973 0.0
O129 O 0.65103 0.2529 0.99838 0.0
H130 H 0.63213 0.05321 0.90081 0.0
H131 H 0.60427 0.10983 0.05572 0.0
H132 H 0.57511 0.24902 0.96217 0.0
H133 H 0.61179 0.13813 0.92132 0.0
H134 H 0.63337 0.159 0.01306 0.0
O135 O 0.66973 0.30955 0.84376 0.0
H136 H 0.59705 0.38142 0.84746 0.0
H137 H 0.67241 0.40956 0.82533 0.0
H138 H 0.54536 0.20055 0.00402 0.0
H139 H 0.70156 0.12396 0.92991 0.0
H140 H 0.55989 0.13035 0.05121 0.0
H141 H 0.67733 0.04572 0.90512 0.0
O142 O 0.61231 0.31399 0.96673 0.0
H143 H 0.72547 0.39032 0.93561 0.0
H144 H 0.64198 0.45403 0.90605 0.0
H145 H 0.67128 0.51652 0.93768 0.0
H146 H 0.71337 0.48477 0.95262 0.0
H147 H 0.69551 0.32901 0.90434 0.0
H148 H 0.66199 0.47676 0.77395 0.0
H149 H 0.61842 0.49681 0.75941 0.0
O150 O 0.61733 0.36844 0.91414 0.0
C151 C 0.60476 0.25392 0.87049 0.0
C152 C 0.60487 0.44039 0.80275 0.0
C153 C 0.64762 0.45613 0.79002 0.0
N154 N 0.63536 0.39195 0.83962 0.0
C155 C 0.61134 0.40249 0.83161 0.0
C156 C 0.65341 0.41798 0.8191 0.0
C157 C 0.62317 0.46737 0.78188 0.0
C158 C 0.66981 0.17424 0.93934 0.0
N159 N 0.64494 0.17801 0.9369 0.0
C160 C 0.68185 0.12668 0.928 0.0
C161 C 0.66825 0.08282 0.91405 0.0
C162 C 0.64288 0.087 0.9116 0.0
C163 C 0.63147 0.13523 0.92316 0.0
C164 C 0.59769 0.14016 0.03515 0.0
C165 C 0.58155 0.21817 0.98236 0.0
C166 C 0.61408 0.16815 0.01094 0.0
N167 N 0.6059 0.20628 0.98475 0.0
C168 C 0.56463 0.19102 0.0061 0.0
C169 C 0.5728 0.1517 0.03261 0.0
C170 C 0.60752 0.35705 0.9473 0.0
C171 C 0.70721 0.40469 0.92912 0.0
C172 C 0.66024 0.43985 0.91257 0.0
C173 C 0.67677 0.47547 0.93039 0.0
C174 C 0.70039 0.45764 0.93873 0.0
N175 N 0.66706 0.38798 0.90323 0.0
C176 C 0.6902 0.37024 0.91125 0.0
Co177 Co 0.8697 0.24321 0.44844 0.0
Co178 Co 0.85549 0.13876 0.38402 0.0
O179 O 0.84647 0.19729 0.42008 0.0
C180 C 0.83997 0.19246 0.51079 0.0
O181 O 0.84365 0.14614 0.49252 0.0
C182 C 0.82474 0.2122 0.33669 0.0
O183 O 0.83551 0.2529 0.35462 0.0
O184 O 0.8797 0.18574 0.35683 0.0
O185 O 0.89069 0.25033 0.40036 0.0
H186 H 0.91375 0.0185 0.3096 0.0
H187 H 0.81698 0.27149 0.45024 0.0
O188 O 0.84926 0.23615 0.49724 0.0
H189 H 0.85787 0.42868 0.38867 0.0
H190 H 0.89273 0.39199 0.54338 0.0
H191 H 0.92375 0.25057 0.45318 0.0
H192 H 0.88184 0.34957 0.41108 0.0
H193 H 0.86415 0.33366 0.50625 0.0
O194 O 0.83005 0.16332 0.34554 0.0
H195 H 0.90229 0.09218 0.3554 0.0
H196 H 0.82702 0.06107 0.3346 0.0
H197 H 0.95297 0.30825 0.48947 0.0
H198 H 0.79235 0.35002 0.4287 0.0
H199 H 0.93749 0.37961 0.53495 0.0
H200 H 0.81279 0.42924 0.39749 0.0
O201 O 0.88939 0.17929 0.46508 0.0
H202 H 0.77359 0.09536 0.44319 0.0
H203 H 0.85686 0.0269 0.41784 0.0
H204 H 0.82737 0.96906 0.45349 0.0
H205 H 0.7854 0.00325 0.46635 0.0
H206 H 0.80372 0.15195 0.40784 0.0
H207 H 0.83765 0.98725 0.28841 0.0
H208 H 0.8813 0.96544 0.27576 0.0
O209 O 0.88154 0.1135 0.42082 0.0
C210 C 0.89269 0.22639 0.36707 0.0
C211 C 0.89467 0.02749 0.31497 0.0
C212 C 0.85196 0.00999 0.30303 0.0
N213 N 0.86403 0.08052 0.34797 0.0
C214 C 0.88807 0.06905 0.34096 0.0
C215 C 0.84606 0.05187 0.32919 0.0
C216 C 0.87645 0.99777 0.29596 0.0
C217 C 0.82604 0.30608 0.43712 0.0
N218 N 0.85083 0.30605 0.4321 0.0
C219 C 0.81199 0.35031 0.42479 0.0
C220 C 0.82346 0.39472 0.40723 0.0
C221 C 0.84875 0.3944 0.40224 0.0
C222 C 0.86222 0.34944 0.41489 0.0
C223 C 0.8997 0.36116 0.52356 0.0
C224 C 0.91688 0.2818 0.47269 0.0
C225 C 0.88361 0.32797 0.5025 0.0
N226 N 0.89229 0.28918 0.47725 0.0
C227 C 0.93351 0.31421 0.49327 0.0
C228 C 0.92481 0.35419 0.51881 0.0
C229 C 0.89308 0.13216 0.45059 0.0
C230 C 0.7918 0.07994 0.43765 0.0
C231 C 0.83863 0.04205 0.42335 0.0
C232 C 0.822 0.00909 0.4435 0.0
C233 C 0.79845 0.02829 0.45069 0.0
N234 N 0.83195 0.0926 0.41058 0.0
C235 C 0.8089 0.1117 0.41751 0.0
Co236 Co 0.85833 0.83622 0.87213 0.0
Co237 Co 0.87034 0.73389 0.93908 0.0
O238 O 0.8481 0.77934 0.90854 0.0
C239 C 0.82789 0.76395 0.8231 0.0
O240 O 0.84062 0.72311 0.83722 0.0
C241 C 0.83921 0.78633 0.99869 0.0
O242 O 0.84387 0.83221 0.98043 0.0
O243 O 0.88956 0.79805 0.95663 0.0
O244 O 0.88438 0.86092 0.90923 0.0
H245 H 0.95213 0.66922 0.98755 0.0
H246 H 0.80618 0.82748 0.89522 0.0
O247 O 0.83253 0.81234 0.83412 0.0
H248 H 0.83199 0.01048 0.93742 0.0
H249 H 0.84332 0.98483 0.77294 0.0
H250 H 0.90597 0.87925 0.84421 0.0
H251 H 0.86098 0.94911 0.90388 0.0
H252 H 0.83133 0.91374 0.82048 0.0
O253 O 0.84841 0.74202 0.98607 0.0
H254 H 0.92416 0.72627 0.94826 0.0
H255 H 0.86287 0.64462 0.99724 0.0
H256 H 0.91878 0.95024 0.79713 0.0
H257 H 0.77654 0.88767 0.92844 0.0
H258 H 0.88733 0.00358 0.76111 0.0
H259 H 0.78942 0.97986 0.94984 0.0
O260 O 0.88231 0.78678 0.84633 0.0
H261 H 0.79357 0.62768 0.91311 0.0
H262 H 0.88354 0.62663 0.90414 0.0
H263 H 0.86023 0.54732 0.88038 0.0
H264 H 0.81491 0.5475 0.88487 0.0
H265 H 0.81759 0.70635 0.93616 0.0
H266 H 0.89016 0.58694 0.03733 0.0
H267 H 0.93514 0.59892 0.03248 0.0
O268 O 0.89274 0.72582 0.89288 0.0
C269 C 0.89448 0.84379 0.94081 0.0
C270 C 0.93257 0.66343 0.9898 0.0
C271 C 0.89779 0.61731 0.01777 0.0
N272 N 0.89194 0.68833 0.97012 0.0
C273 C 0.91665 0.69548 0.96752 0.0
C274 C 0.88242 0.65012 0.99505 0.0
C275 C 0.92302 0.62405 0.01503 0.0
C276 C 0.81185 0.86772 0.90415 0.0
N277 N 0.83523 0.88487 0.89743 0.0
C278 C 0.79502 0.90154 0.92308 0.0
C279 C 0.80227 0.95323 0.93513 0.0
C280 C 0.82615 0.97042 0.9282 0.0
C281 C 0.8425 0.93545 0.90927 0.0
C282 C 0.85719 0.96194 0.78851 0.0
C283 C 0.89218 0.90254 0.82884 0.0
C284 C 0.85052 0.92157 0.81541 0.0
N285 N 0.86794 0.89269 0.83533 0.0
C286 C 0.89954 0.94257 0.80213 0.0
C287 C 0.88189 0.97245 0.7819 0.0
C288 C 0.89534 0.74733 0.85884 0.0
C289 C 0.81331 0.62706 0.9111 0.0
C290 C 0.86382 0.62706 0.90609 0.0
C291 C 0.85072 0.58199 0.89267 0.0
C292 C 0.82529 0.58211 0.89521 0.0
N293 N 0.85193 0.67093 0.92171 0.0
C294 C 0.82701 0.67138 0.92426 0.0
Co295 Co 0.64117 0.67471 0.37287 0.0
Co296 Co 0.62911 0.77683 0.43989 0.0
O297 O 0.6514 0.73066 0.40999 0.0
C298 C 0.67325 0.74544 0.32544 0.0
O299 O 0.66086 0.78683 0.33954 0.0
C300 C 0.65909 0.72304 0.5004 0.0
O301 O 0.65414 0.6773 0.48213 0.0
O302 O 0.60915 0.71336 0.45666 0.0
O303 O 0.61409 0.65147 0.40854 0.0
H304 H 0.54725 0.84422 0.48617 0.0
H305 H 0.69295 0.67995 0.3984 0.0
O306 O 0.66793 0.69721 0.33609 0.0
H307 H 0.66386 0.49893 0.4395 0.0
H308 H 0.65585 0.52548 0.27399 0.0
H309 H 0.5935 0.63533 0.34251 0.0
H310 H 0.63643 0.56194 0.40421 0.0
H311 H 0.668 0.59552 0.32227 0.0
O312 O 0.6504 0.76771 0.48751 0.0
H313 H 0.57524 0.78636 0.44753 0.0
H314 H 0.63655 0.86564 0.49843 0.0
H315 H 0.58053 0.56549 0.29467 0.0
H316 H 0.72105 0.61806 0.43338 0.0
H317 H 0.61183 0.50998 0.26003 0.0
H318 H 0.70651 0.52689 0.45429 0.0
O319 O 0.61837 0.72581 0.34621 0.0
H320 H 0.70699 0.88002 0.41609 0.0
H321 H 0.61714 0.8847 0.40483 0.0
H322 H 0.64133 0.96306 0.38171 0.0
H323 H 0.68659 0.96103 0.38731 0.0
H324 H 0.6821 0.80237 0.43856 0.0
H325 H 0.60922 0.9241 0.53789 0.0
H326 H 0.56422 0.91371 0.53175 0.0
O327 O 0.60731 0.7859 0.393 0.0
C328 C 0.60377 0.66847 0.43997 0.0
C329 C 0.56682 0.84932 0.48897 0.0
C330 C 0.60161 0.8941 0.51803 0.0
N331 N 0.60748 0.82308 0.47037 0.0
C332 C 0.58276 0.81681 0.46705 0.0
C333 C 0.61698 0.86084 0.49566 0.0
C334 C 0.57636 0.88825 0.51457 0.0
C335 C 0.68658 0.64012 0.40705 0.0
N336 N 0.66314 0.62446 0.39909 0.0
C337 C 0.70254 0.60535 0.42699 0.0
C338 C 0.69435 0.55423 0.43877 0.0
C339 C 0.67042 0.53853 0.4305 0.0
C340 C 0.65496 0.57441 0.41057 0.0
C341 C 0.64204 0.54931 0.28896 0.0
C342 C 0.60722 0.6111 0.32775 0.0
C343 C 0.64881 0.58908 0.31628 0.0
N344 N 0.63146 0.61913 0.33543 0.0
C345 C 0.59977 0.57172 0.3006 0.0
C346 C 0.61734 0.54063 0.28115 0.0
C347 C 0.60528 0.76522 0.35858 0.0
C348 C 0.68727 0.88145 0.41361 0.0
C349 C 0.63683 0.88349 0.40731 0.0
C350 C 0.65043 0.92802 0.39423 0.0
C351 C 0.67582 0.92686 0.39741 0.0
N352 N 0.64819 0.83914 0.42322 0.0
C353 C 0.67308 0.83771 0.42643 0.0
Co354 Co 0.35518 0.67376 0.12524 0.0
Co355 Co 0.36974 0.77316 0.05725 0.0
O356 O 0.3465 0.72605 0.08431 0.0
C357 C 0.31918 0.74449 0.16454 0.0
O358 O 0.33174 0.78588 0.15088 0.0
C359 C 0.34531 0.71288 0.99313 0.0
O360 O 0.34925 0.66848 0.01365 0.0
O361 O 0.39217 0.71114 0.04688 0.0
O362 O 0.38511 0.65093 0.09552 0.0
H363 H 0.45292 0.84795 0.02568 0.0
H364 H 0.30544 0.67181 0.09059 0.0
O365 O 0.32566 0.69609 0.15619 0.0
H366 H 0.3406 0.49148 0.06209 0.0
H367 H 0.3359 0.53176 0.22758 0.0
H368 H 0.40102 0.6414 0.16595 0.0
H369 H 0.36421 0.5597 0.09941 0.0
H370 H 0.32631 0.5958 0.17374 0.0
O371 O 0.35252 0.75873 0.00617 0.0
H372 H 0.42342 0.78923 0.06049 0.0
H373 H 0.365 0.85699 0.99418 0.0
H374 H 0.41141 0.57753 0.21964 0.0
H375 H 0.28112 0.60469 0.05337 0.0
H376 H 0.37877 0.52224 0.25073 0.0
H377 H 0.29873 0.51384 0.0388 0.0
O378 O 0.37497 0.72882 0.15383 0.0
H379 H 0.28838 0.86777 0.06159 0.0
H380 H 0.37647 0.88473 0.08987 0.0
H381 H 0.34894 0.96145 0.10474 0.0
H382 H 0.30455 0.95325 0.09052 0.0
H383 H 0.31653 0.79188 0.0475 0.0
H384 H 0.3939 0.91616 0.95841 0.0
H385 H 0.4382 0.912 0.97422 0.0
O386 O 0.38741 0.78818 0.10759 0.0
C387 C 0.39726 0.66764 0.06569 0.0
C388 C 0.43366 0.85028 0.01862 0.0
C389 C 0.40053 0.88851 0.98083 0.0
N390 N 0.3925 0.82006 0.02962 0.0
C391 C 0.41686 0.81725 0.03831 0.0
C392 C 0.38427 0.85485 0.00112 0.0
C393 C 0.42538 0.88617 0.98972 0.0
C394 C 0.31312 0.63217 0.08468 0.0
N395 N 0.33615 0.61957 0.0973 0.0
C396 C 0.29931 0.59441 0.06346 0.0
C397 C 0.30922 0.54347 0.05525 0.0
C398 C 0.33271 0.53091 0.06828 0.0
C399 C 0.34601 0.56973 0.08934 0.0
C400 C 0.35033 0.55549 0.21412 0.0
C401 C 0.38674 0.61707 0.17913 0.0
C402 C 0.34501 0.59185 0.18363 0.0
N403 N 0.36313 0.62189 0.16644 0.0
C404 C 0.39273 0.58115 0.20957 0.0
C405 C 0.37437 0.55018 0.2271 0.0
C406 C 0.38751 0.76979 0.1428 0.0
C407 C 0.30769 0.87189 0.06781 0.0
C408 C 0.35717 0.88081 0.08369 0.0
C409 C 0.34168 0.92443 0.0921 0.0
C410 C 0.31678 0.91981 0.08409 0.0
N411 N 0.34812 0.83399 0.06763 0.0
C412 C 0.32373 0.82914 0.05974 0.0
Co413 Co 0.14773 0.81768 0.62561 0.0
Co414 Co 0.13074 0.72029 0.55767 0.0
O415 O 0.15501 0.76525 0.58413 0.0
C416 C 0.18345 0.74426 0.66296 0.0
O417 O 0.17002 0.70366 0.65026 0.0
C418 C 0.15528 0.77948 0.49317 0.0
O419 O 0.15182 0.82395 0.51384 0.0
O420 O 0.10919 0.7841 0.54841 0.0
O421 O 0.11762 0.84287 0.59741 0.0
H422 H 0.04606 0.6524 0.52834 0.0
H423 H 0.19684 0.81658 0.58856 0.0
O424 O 0.17745 0.79304 0.65494 0.0
H425 H 0.16374 0.9996 0.56285 0.0
H426 H 0.17098 0.95631 0.72821 0.0
H427 H 0.10312 0.85296 0.66861 0.0
H428 H 0.13987 0.9326 0.60092 0.0
H429 H 0.1786 0.89279 0.6732 0.0
O430 O 0.14765 0.73393 0.50617 0.0
H431 H 0.07687 0.70836 0.56255 0.0
H432 H 0.1334 0.63688 0.49401 0.0
H433 H 0.09472 0.91646 0.72349 0.0
H434 H 0.2214 0.88242 0.55055 0.0
H435 H 0.12873 0.96852 0.75354 0.0
H436 H 0.20482 0.97462 0.53738 0.0
O437 O 0.12762 0.76366 0.65477 0.0
H438 H 0.21055 0.61919 0.55894 0.0
H439 H 0.1226 0.60905 0.58999 0.0
H440 H 0.14903 0.53001 0.60357 0.0
H441 H 0.19334 0.53477 0.58795 0.0
H442 H 0.1835 0.69744 0.54615 0.0
H443 H 0.10317 0.58042 0.45881 0.0
H444 H 0.05916 0.58785 0.47605 0.0
O445 O 0.11341 0.70627 0.60853 0.0
C446 C 0.10488 0.8275 0.56784 0.0
C447 C 0.06519 0.64864 0.52066 0.0
C448 C 0.09724 0.6083 0.4816 0.0
N449 N 0.10692 0.6755 0.53053 0.0
C450 C 0.08273 0.6801 0.54001 0.0
C451 C 0.11427 0.64043 0.50157 0.0
C452 C 0.07255 0.61248 0.4913 0.0
C453 C 0.18962 0.8568 0.58326 0.0
N454 N 0.16702 0.87084 0.59708 0.0
C455 C 0.20356 0.89383 0.56159 0.0
C456 C 0.19423 0.94553 0.55416 0.0
C457 C 0.17117 0.95956 0.56842 0.0
C458 C 0.15773 0.92144 0.5899 0.0
C459 C 0.15596 0.934 0.71517 0.0
C460 C 0.118 0.87596 0.68132 0.0
C461 C 0.16015 0.89794 0.68404 0.0
N462 N 0.14127 0.8696 0.66746 0.0
C463 C 0.11313 0.91166 0.71243 0.0
C464 C 0.13226 0.94083 0.72938 0.0
C465 C 0.11412 0.72413 0.64388 0.0
C466 C 0.19126 0.61657 0.56576 0.0
C467 C 0.14187 0.61147 0.5832 0.0
C468 C 0.15674 0.56655 0.59088 0.0
C469 C 0.18159 0.56924 0.58209 0.0
N470 N 0.15148 0.65769 0.56708 0.0
C471 C 0.17583 0.66066 0.55843 0.0
H472 H 0.28866 0.34514 0.6997 0.0
H473 H 0.25999 0.32485 0.75275 0.0
H474 H 0.28498 0.1586 0.7551 0.0
H475 H 0.31359 0.17834 0.70132 0.0
H476 H 0.23562 0.16497 0.76456 0.0
H477 H 0.30614 0.24609 0.82204 0.0
H478 H 0.3388 0.31416 0.83024 0.0
H479 H 0.28518 0.43714 0.85457 0.0
H480 H 0.25215 0.36998 0.84583 0.0
H481 H 0.18431 0.12126 0.95855 0.0
H482 H 0.21145 0.12621 0.90113 0.0
H483 H 0.19284 0.29527 0.88581 0.0
H484 H 0.16599 0.29094 0.94316 0.0
H485 H 0.24131 0.27985 0.88458 0.0
H486 H 0.17048 0.19514 0.82557 0.0
H487 H 0.13892 0.12451 0.81758 0.0
H488 H 0.19451 0.00463 0.79721 0.0
H489 H 0.22647 0.07424 0.80606 0.0
C490 C 0.28798 0.30411 0.71121 0.0
C491 C 0.30362 0.26348 0.6966 0.0
C492 C 0.2716 0.29262 0.74163 0.0
C493 C 0.2707 0.24049 0.75836 0.0
C494 C 0.2855 0.19917 0.74272 0.0
C495 C 0.30187 0.21058 0.71208 0.0
C496 C 0.25497 0.23016 0.79318 0.0
C497 C 0.23704 0.18948 0.79108 0.0
C498 C 0.25682 0.26243 0.82763 0.0
C499 C 0.27664 0.30304 0.83296 0.0
C500 C 0.30129 0.28774 0.82882 0.0
C501 C 0.31988 0.32615 0.8336 0.0
C502 C 0.31407 0.37994 0.84288 0.0
C503 C 0.28966 0.39545 0.84737 0.0
C504 C 0.27099 0.35722 0.84252 0.0
C505 C 0.18584 0.15936 0.94272 0.0
C506 C 0.17302 0.20575 0.95546 0.0
C507 C 0.2013 0.16205 0.90985 0.0
C508 C 0.20406 0.21105 0.88909 0.0
C509 C 0.191 0.25708 0.90145 0.0
C510 C 0.17562 0.25448 0.93423 0.0
C511 C 0.22142 0.21566 0.85564 0.0
C512 C 0.23986 0.25514 0.85815 0.0
C513 C 0.22014 0.18185 0.82185 0.0
C514 C 0.2009 0.13984 0.81704 0.0
C515 C 0.17601 0.15359 0.81991 0.0
C516 C 0.15804 0.11373 0.81517 0.0
C517 C 0.16471 0.06004 0.80713 0.0
C518 C 0.18938 0.04613 0.8037 0.0
C519 C 0.20743 0.08578 0.8086 0.0
H520 H 0.15078 0.02926 0.80345 0.0
H521 H 0.3285 0.40956 0.84667 0.0
H522 H 0.21275 0.16653 0.19244 0.0
H523 H 0.24228 0.18492 0.24469 0.0
H524 H 0.21666 0.35039 0.25237 0.0
H525 H 0.18731 0.33269 0.19935 0.0
H526 H 0.2663 0.34382 0.26109 0.0
H527 H 0.1953 0.25708 0.3158 0.0
H528 H 0.16366 0.18593 0.31982 0.0
H529 H 0.21892 0.06535 0.34054 0.0
H530 H 0.25095 0.13571 0.33607 0.0
H531 H 0.31171 0.38915 0.45775 0.0
H532 H 0.28637 0.38216 0.39834 0.0
H533 H 0.3073 0.21404 0.38539 0.0
H534 H 0.33233 0.22039 0.44469 0.0
H535 H 0.25918 0.22593 0.37937 0.0
H536 H 0.33038 0.31427 0.32742 0.0
H537 H 0.3619 0.38525 0.32107 0.0
H538 H 0.30671 0.50308 0.29315 0.0
H539 H 0.27471 0.43338 0.30083 0.0
C540 C 0.21355 0.20704 0.2049 0.0
C541 C 0.19745 0.24797 0.19217 0.0
C542 C 0.23042 0.21744 0.2348 0.0
C543 C 0.23129 0.26869 0.25291 0.0
C544 C 0.21616 0.31049 0.23888 0.0
C545 C 0.19936 0.30023 0.2087 0.0
C546 C 0.2469 0.27742 0.28805 0.0
C547 C 0.2646 0.31865 0.28725 0.0
C548 C 0.2448 0.24389 0.3218 0.0
C549 C 0.22554 0.20162 0.32529 0.0
C550 C 0.20072 0.21535 0.32101 0.0
C551 C 0.18271 0.17517 0.32337 0.0
C552 C 0.18928 0.12114 0.33035 0.0
C553 C 0.21387 0.10721 0.33511 0.0
C554 C 0.23195 0.14724 0.3327 0.0
C555 C 0.31101 0.35079 0.44209 0.0
C556 C 0.32398 0.30529 0.45599 0.0
C557 C 0.29661 0.34695 0.40808 0.0
C558 C 0.29508 0.29767 0.38732 0.0
C559 C 0.3082 0.25244 0.40098 0.0
C560 C 0.32252 0.25619 0.4349 0.0
C561 C 0.27896 0.292 0.35243 0.0
C562 C 0.26097 0.25135 0.35335 0.0
C563 C 0.28083 0.32624 0.31893 0.0
C564 C 0.30006 0.36863 0.31533 0.0
C565 C 0.32488 0.35551 0.32063 0.0
C566 C 0.34285 0.39556 0.31678 0.0
C567 C 0.33629 0.44877 0.30707 0.0
C568 C 0.31174 0.46202 0.30112 0.0
C569 C 0.29367 0.42226 0.3053 0.0
H570 H 0.35022 0.47969 0.30399 0.0
H571 H 0.1753 0.09012 0.33217 0.0
H572 H 0.82098 0.15546 0.26857 0.0
H573 H 0.79453 0.17481 0.21233 0.0
H574 H 0.76263 0.30947 0.27611 0.0
H575 H 0.79074 0.29272 0.33106 0.0
H576 H 0.75102 0.16998 0.19935 0.0
H577 H 0.73886 0.40393 0.21652 0.0
H578 H 0.7624 0.48321 0.2398 0.0
H579 H 0.82955 0.39849 0.21687 0.0
H580 H 0.80642 0.31903 0.19295 0.0
H581 H 0.6542 0.24114 0.07659 0.0
H582 H 0.6812 0.2329 0.13367 0.0
H583 H 0.73502 0.33261 0.0748 0.0
H584 H 0.70711 0.34414 0.01884 0.0
H585 H 0.73716 0.35544 0.14664 0.0
H586 H 0.73745 0.18736 0.07798 0.0
H587 H 0.72021 0.10608 0.04577 0.0
H588 H 0.68901 0.05495 0.15602 0.0
H589 H 0.70574 0.13642 0.18877 0.0
C590 C 0.80837 0.18935 0.27037 0.0
C591 C 0.80786 0.22282 0.30386 0.0
C592 C 0.79319 0.20036 0.23829 0.0
C593 C 0.77668 0.24413 0.2395 0.0
C594 C 0.77567 0.27655 0.27371 0.0
C595 C 0.79154 0.26671 0.30528 0.0
C596 C 0.76032 0.25478 0.20522 0.0
C597 C 0.74813 0.2106 0.18784 0.0
C598 C 0.7568 0.30753 0.18935 0.0
C599 C 0.77088 0.35533 0.20336 0.0
C600 C 0.75865 0.40231 0.21632 0.0
C601 C 0.77192 0.44726 0.22964 0.0
C602 C 0.79745 0.44581 0.22995 0.0
C603 C 0.80977 0.39949 0.21677 0.0
C604 C 0.79659 0.35446 0.20336 0.0
C605 C 0.67171 0.26169 0.07612 0.0
C606 C 0.67875 0.29291 0.04339 0.0
C607 C 0.68721 0.25668 0.10859 0.0
C608 C 0.7105 0.2808 0.10818 0.0
C609 C 0.71721 0.31341 0.07585 0.0
C610 C 0.70133 0.31989 0.04386 0.0
C611 C 0.72803 0.27063 0.14091 0.0
C612 C 0.74026 0.31486 0.1581 0.0
C613 C 0.73268 0.21754 0.15525 0.0
C614 C 0.72266 0.16828 0.13575 0.0
C615 C 0.72678 0.15897 0.0953 0.0
C616 C 0.71711 0.11286 0.07695 0.0
C617 C 0.70348 0.07545 0.09882 0.0
C618 C 0.69954 0.08401 0.13911 0.0
C619 C 0.70912 0.13014 0.15759 0.0
H620 H 0.69601 0.03976 0.08456 0.0
H621 H 0.80769 0.48063 0.24031 0.0
H622 H 0.68455 0.1616 0.80075 0.0
H623 H 0.71418 0.14362 0.74805 0.0
H624 H 0.73601 0.31207 0.7497 0.0
H625 H 0.70637 0.3305 0.80165 0.0
H626 H 0.72631 0.27979 0.67679 0.0
H627 H 0.77221 0.21007 0.78694 0.0
H628 H 0.78046 0.15193 0.84469 0.0
H629 H 0.77336 0.00938 0.77249 0.0
H630 H 0.76461 0.06665 0.7144 0.0
H631 H 0.83126 0.27981 0.55843 0.0
H632 H 0.80411 0.28449 0.61546 0.0
H633 H 0.78579 0.11522 0.60066 0.0
H634 H 0.81327 0.10987 0.54368 0.0
H635 H 0.7923 0.14153 0.67845 0.0
H636 H 0.74724 0.21099 0.56834 0.0
H637 H 0.74026 0.26901 0.51008 0.0
H638 H 0.74611 0.41171 0.58243 0.0
H639 H 0.75353 0.35455 0.64105 0.0
C640 C 0.69584 0.19467 0.79012 0.0
C641 C 0.69296 0.24756 0.80518 0.0
C642 C 0.71283 0.18428 0.76012 0.0
C643 C 0.72734 0.22651 0.74498 0.0
C644 C 0.72493 0.27892 0.7608 0.0
C645 C 0.70797 0.28936 0.79057 0.0
C646 C 0.74403 0.2174 0.71107 0.0
C647 C 0.74092 0.24996 0.67741 0.0
C648 C 0.76256 0.17719 0.71131 0.0
C649 C 0.76742 0.14269 0.74639 0.0
C650 C 0.7721 0.16632 0.78345 0.0
C651 C 0.77693 0.13351 0.81624 0.0
C652 C 0.77735 0.07699 0.8123 0.0
C653 C 0.77296 0.05316 0.77553 0.0
C654 C 0.76805 0.08578 0.74267 0.0
C655 C 0.82155 0.24345 0.56733 0.0
C656 C 0.8243 0.19454 0.54634 0.0
C657 C 0.806 0.24624 0.59992 0.0
C658 C 0.79267 0.2004 0.61193 0.0
C659 C 0.79588 0.15108 0.59179 0.0
C660 C 0.81153 0.14817 0.5592 0.0
C661 C 0.77485 0.20476 0.64476 0.0
C662 C 0.77762 0.17117 0.67795 0.0
C663 C 0.75593 0.24396 0.64419 0.0
C664 C 0.75115 0.27846 0.60905 0.0
C665 C 0.7472 0.25475 0.57179 0.0
C666 C 0.74315 0.28749 0.5387 0.0
C667 C 0.74279 0.34401 0.54253 0.0
C668 C 0.74641 0.36792 0.5795 0.0
C669 C 0.75053 0.33536 0.61267 0.0
H670 H 0.73967 0.36929 0.51688 0.0
H671 H 0.78116 0.05167 0.8377 0.0
H672 H 0.82756 0.69957 0.04528 0.0
H673 H 0.80027 0.69814 0.10224 0.0
H674 H 0.78667 0.86973 0.08817 0.0
H675 H 0.81427 0.87177 0.03127 0.0
H676 H 0.79356 0.84231 0.16555 0.0
H677 H 0.74498 0.7797 0.05716 0.0
H678 H 0.73531 0.72286 0.99929 0.0
H679 H 0.73794 0.57962 0.07155 0.0
H680 H 0.748 0.63555 0.12978 0.0
H681 H 0.68699 0.84111 0.29031 0.0
H682 H 0.71658 0.85311 0.23677 0.0
H683 H 0.73262 0.68147 0.2394 0.0
H684 H 0.70293 0.66898 0.29228 0.0
H685 H 0.7235 0.71438 0.16635 0.0
H686 H 0.77272 0.77707 0.27478 0.0
H687 H 0.78363 0.83375 0.33215 0.0
H688 H 0.78021 0.97703 0.26003 0.0
H689 H 0.76884 0.92128 0.20234 0.0
C690 C 0.81882 0.73708 0.05427 0.0
C691 C 0.823 0.78575 0.03362 0.0
C692 C 0.80318 0.73615 0.0868 0.0
C693 C 0.79123 0.7837 0.09912 0.0
C694 C 0.79571 0.83259 0.07909 0.0
C695 C 0.81142 0.83361 0.04652 0.0
C696 C 0.77375 0.78188 0.13253 0.0
C697 C 0.778 0.81498 0.16558 0.0
C698 C 0.75373 0.74554 0.13269 0.0
C699 C 0.74745 0.71181 0.09778 0.0
C700 C 0.74367 0.73605 0.06066 0.0
C701 C 0.7381 0.70399 0.0278 0.0
C702 C 0.73606 0.64765 0.03172 0.0
C703 C 0.73954 0.62327 0.06855 0.0
C704 C 0.74516 0.65513 0.1015 0.0
C705 C 0.69698 0.80602 0.27972 0.0
C706 C 0.69247 0.75403 0.29537 0.0
C707 C 0.71397 0.813 0.24923 0.0
C708 C 0.72686 0.7682 0.23416 0.0
C709 C 0.72281 0.71657 0.25048 0.0
C710 C 0.70584 0.70954 0.28078 0.0
C711 C 0.7435 0.77409 0.19986 0.0
C712 C 0.739 0.7419 0.16642 0.0
C713 C 0.76323 0.81132 0.19944 0.0
C714 C 0.76962 0.84501 0.23431 0.0
C715 C 0.77399 0.82072 0.27124 0.0
C716 C 0.78032 0.85268 0.3038 0.0
C717 C 0.78254 0.90898 0.29977 0.0
C718 C 0.77843 0.93343 0.26314 0.0
C719 C 0.77203 0.90167 0.2305 0.0
H720 H 0.78753 0.93363 0.32498 0.0
H721 H 0.73175 0.6229 0.00624 0.0
H722 H 0.6838 0.63706 0.53274 0.0
H723 H 0.71144 0.6385 0.58954 0.0
H724 H 0.69827 0.81021 0.60412 0.0
H725 H 0.67095 0.80935 0.54723 0.0
H726 H 0.74574 0.78846 0.6067 0.0
H727 H 0.67299 0.71514 0.6659 0.0
H728 H 0.63875 0.65103 0.67425 0.0
H729 H 0.68945 0.51996 0.69149 0.0
H730 H 0.72402 0.58314 0.68254 0.0
H731 H 0.79619 0.83834 0.79258 0.0
H732 H 0.76657 0.8251 0.73975 0.0
H733 H 0.78676 0.65598 0.73189 0.0
H734 H 0.8163 0.66862 0.78552 0.0
H735 H 0.73721 0.67072 0.72483 0.0
H736 H 0.80986 0.74487 0.66666 0.0
H737 H 0.84391 0.81 0.66068 0.0
H738 H 0.79285 0.94017 0.64252 0.0
H739 H 0.75847 0.87589 0.64894 0.0
C740 C 0.68668 0.67507 0.5482 0.0
C741 C 0.67518 0.72311 0.53546 0.0
C742 C 0.7024 0.67575 0.58074 0.0
C743 C 0.70676 0.72438 0.60125 0.0
C744 C 0.69517 0.77224 0.58871 0.0
C745 C 0.67953 0.77164 0.5562 0.0
C746 C 0.72416 0.72626 0.6348 0.0
C747 C 0.74368 0.76312 0.6327 0.0
C748 C 0.7219 0.69199 0.66821 0.0
C749 C 0.70111 0.6538 0.67306 0.0
C750 C 0.67685 0.67255 0.67102 0.0
C751 C 0.65738 0.63639 0.67595 0.0
C752 C 0.66192 0.58143 0.68328 0.0
C753 C 0.68595 0.56252 0.68571 0.0
C754 C 0.7055 0.59849 0.68071 0.0
C755 C 0.79429 0.79819 0.77984 0.0
C756 C 0.80883 0.75464 0.79293 0.0
C757 C 0.77736 0.79074 0.74957 0.0
C758 C 0.77481 0.73981 0.73142 0.0
C759 C 0.78856 0.69567 0.7454 0.0
C760 C 0.80547 0.70302 0.77593 0.0
C761 C 0.75842 0.73356 0.69688 0.0
C762 C 0.73924 0.6958 0.69869 0.0
C763 C 0.76092 0.76698 0.66313 0.0
C764 C 0.78159 0.8056 0.65858 0.0
C765 C 0.80589 0.78742 0.66161 0.0
C766 C 0.82525 0.82419 0.65812 0.0
C767 C 0.82055 0.8792 0.6513 0.0
C768 C 0.79647 0.89754 0.64782 0.0
C769 C 0.77704 0.86095 0.65133 0.0
H770 H 0.83556 0.90761 0.64865 0.0
H771 H 0.64682 0.55353 0.6872 0.0
H772 H 0.32044 0.62629 0.96169 0.0
H773 H 0.2956 0.62523 0.90152 0.0
H774 H 0.31445 0.79279 0.8796 0.0
H775 H 0.33885 0.79449 0.93976 0.0
H776 H 0.26693 0.77848 0.87378 0.0
H777 H 0.33852 0.68531 0.82663 0.0
H778 H 0.37009 0.61388 0.82471 0.0
H779 H 0.31488 0.49289 0.80543 0.0
H780 H 0.28288 0.56322 0.80859 0.0
H781 H 0.21863 0.81609 0.68572 0.0
H782 H 0.24919 0.80387 0.73739 0.0
H783 H 0.22503 0.6387 0.75465 0.0
H784 H 0.19471 0.65016 0.70212 0.0
H785 H 0.27443 0.64764 0.76298 0.0
H786 H 0.20309 0.7386 0.81234 0.0
H787 H 0.17109 0.80919 0.81182 0.0
H788 H 0.22568 0.93301 0.82591 0.0
H789 H 0.25806 0.86321 0.82576 0.0
C790 C 0.31947 0.66273 0.94382 0.0
C791 C 0.33155 0.71053 0.95557 0.0
C792 C 0.30534 0.66199 0.90936 0.0
C793 C 0.30327 0.70886 0.88591 0.0
C794 C 0.31573 0.75619 0.89726 0.0
C795 C 0.3297 0.75707 0.93169 0.0
C796 C 0.28705 0.71009 0.85081 0.0
C797 C 0.26883 0.75024 0.84936 0.0
C798 C 0.28897 0.67211 0.81949 0.0
C799 C 0.30823 0.62957 0.81847 0.0
C800 C 0.33305 0.64337 0.82264 0.0
C801 C 0.35104 0.60303 0.82133 0.0
C802 C 0.34447 0.54878 0.81538 0.0
C803 C 0.31992 0.53479 0.81055 0.0
C804 C 0.30184 0.57489 0.81213 0.0
C805 C 0.22003 0.77688 0.70009 0.0
C806 C 0.20401 0.73432 0.69028 0.0
C807 C 0.23748 0.77 0.72966 0.0
C808 C 0.23898 0.72079 0.75046 0.0
C809 C 0.22406 0.67711 0.7391 0.0
C810 C 0.20672 0.68378 0.70916 0.0
C811 C 0.25477 0.71653 0.78588 0.0
C812 C 0.27267 0.67574 0.7875 0.0
C813 C 0.25254 0.75367 0.81758 0.0
C814 C 0.23303 0.79567 0.8187 0.0
C815 C 0.20829 0.7809 0.81511 0.0
C816 C 0.19007 0.82077 0.81491 0.0
C817 C 0.19634 0.87556 0.81871 0.0
C818 C 0.22084 0.89056 0.82289 0.0
C819 C 0.23914 0.85085 0.82296 0.0
H820 H 0.18221 0.90634 0.81851 0.0
H821 H 0.35842 0.51761 0.81426 0.0
H822 H 0.30658 0.83915 0.20186 0.0
H823 H 0.27666 0.85053 0.25495 0.0
H824 H 0.25606 0.68198 0.24383 0.0
H825 H 0.28632 0.6699 0.19162 0.0
H826 H 0.2284 0.83923 0.26381 0.0
H827 H 0.24632 0.62776 0.3347 0.0
H828 H 0.27959 0.56052 0.33986 0.0
H829 H 0.33271 0.68625 0.32085 0.0
H830 H 0.2998 0.75446 0.31655 0.0
H831 H 0.16243 0.6969 0.44075 0.0
H832 H 0.18754 0.69769 0.38129 0.0
H833 H 0.20547 0.86609 0.4017 0.0
H834 H 0.18001 0.8659 0.46119 0.0
H835 H 0.2355 0.71388 0.37791 0.0
H836 H 0.21916 0.92551 0.30875 0.0
H837 H 0.1869 0.99512 0.30358 0.0
H838 H 0.13193 0.87299 0.32099 0.0
H839 H 0.16381 0.80241 0.3253 0.0
C840 C 0.2955 0.80464 0.21046 0.0
C841 C 0.29906 0.75342 0.19295 0.0
C842 C 0.27838 0.81126 0.24075 0.0
C843 C 0.2645 0.76684 0.25391 0.0
C844 C 0.26698 0.71652 0.23477 0.0
C845 C 0.28424 0.70973 0.20483 0.0
C846 C 0.24834 0.77217 0.2889 0.0
C847 C 0.23009 0.81229 0.28902 0.0
C848 C 0.25051 0.73672 0.32164 0.0
C849 C 0.27053 0.69614 0.32483 0.0
C850 C 0.2651 0.64111 0.3318 0.0
C851 C 0.28391 0.60282 0.33458 0.0
C852 C 0.30825 0.61905 0.33048 0.0
C853 C 0.31385 0.67369 0.32385 0.0
C854 C 0.29512 0.71219 0.32126 0.0
C855 C 0.1715 0.73432 0.43246 0.0
C856 C 0.16926 0.78132 0.45578 0.0
C857 C 0.18587 0.73468 0.39845 0.0
C858 C 0.19831 0.78197 0.38692 0.0
C859 C 0.19577 0.82934 0.4097 0.0
C860 C 0.18128 0.82909 0.44378 0.0
C861 C 0.21511 0.78012 0.35254 0.0
C862 C 0.23371 0.74082 0.35271 0.0
C863 C 0.21337 0.81674 0.32039 0.0
C864 C 0.19394 0.85875 0.31795 0.0
C865 C 0.20019 0.91347 0.31143 0.0
C866 C 0.18196 0.95311 0.30862 0.0
C867 C 0.15739 0.93856 0.31226 0.0
C868 C 0.15098 0.88425 0.31843 0.0
C869 C 0.16913 0.8444 0.32109 0.0
H870 H 0.14332 0.96934 0.31018 0.0
H871 H 0.32279 0.58933 0.33255 0.0
H872 H 0.10112 0.21128 0.21416 0.0
H873 H 0.06399 0.22349 0.25292 0.0
H874 H 0.03441 0.32823 0.16274 0.0
H875 H 0.07164 0.31704 0.1238 0.0
H876 H 0.01992 0.35958 0.23786 0.0
H877 H 0.02081 0.20069 0.15716 0.0
H878 H 0.03865 0.11652 0.13006 0.0
H879 H 0.03872 0.04514 0.24575 0.0
H880 H 0.02129 0.12935 0.27366 0.0
H881 H 0.89935 0.19735 0.28984 0.0
H882 H 0.93496 0.21537 0.24852 0.0
H883 H 0.96737 0.30908 0.34264 0.0
H884 H 0.93149 0.29293 0.38361 0.0
H885 H 0.97883 0.1822 0.25942 0.0
H886 H 0.00782 0.40047 0.30702 0.0
H887 H 0.98838 0.4869 0.32642 0.0
H888 H 0.92337 0.44262 0.26314 0.0
H889 H 0.94253 0.35631 0.24289 0.0
C890 C 0.08703 0.23804 0.20289 0.0
C891 C 0.08919 0.26226 0.16543 0.0
C892 C 0.0658 0.24491 0.22513 0.0
C893 C 0.04631 0.27581 0.21024 0.0
C894 C 0.04923 0.30399 0.1746 0.0
C895 C 0.07051 0.29731 0.15232 0.0
C896 C 0.02204 0.27304 0.2294 0.0
C897 C 0.01088 0.32093 0.24275 0.0
C898 C 0.00994 0.2227 0.2343 0.0
C899 C 0.0199 0.17146 0.21755 0.0
C900 C 0.02475 0.16714 0.17686 0.0
C901 C 0.03479 0.11945 0.16135 0.0
C902 C 0.03981 0.07552 0.18617 0.0
C903 C 0.03479 0.0792 0.22656 0.0
C904 C 0.02482 0.12689 0.24224 0.0
C905 C 0.91384 0.22269 0.30152 0.0
C906 C 0.91259 0.24347 0.34016 0.0
C907 C 0.93424 0.23278 0.27788 0.0
C908 C 0.95387 0.2636 0.2924 0.0
C909 C 0.95232 0.28592 0.33048 0.0
C910 C 0.93177 0.27643 0.35398 0.0
C911 C 0.97668 0.2688 0.26894 0.0
C912 C 0.98767 0.2211 0.25464 0.0
C913 C 0.98816 0.31956 0.26208 0.0
C914 C 0.97656 0.37167 0.27376 0.0
C915 C 0.98942 0.40928 0.2971 0.0
C916 C 0.97844 0.45823 0.30827 0.0
C917 C 0.95463 0.47016 0.29612 0.0
C918 C 0.94178 0.43324 0.27266 0.0
C919 C 0.95268 0.38426 0.26138 0.0
H920 H 0.94616 0.50807 0.30482 0.0
H921 H 0.04759 0.03864 0.1741 0.0
H922 H 0.39139 0.27284 0.71776 0.0
H923 H 0.42597 0.25245 0.76108 0.0
H924 H 0.47045 0.21541 0.65921 0.0
H925 H 0.43565 0.23238 0.61623 0.0
H926 H 0.48356 0.15195 0.71349 0.0
H927 H 0.47043 0.34461 0.70805 0.0
H928 H 0.44767 0.43062 0.71426 0.0
H929 H 0.43605 0.39966 0.83764 0.0
H930 H 0.45857 0.31307 0.83202 0.0
H931 H 0.59864 0.26089 0.79033 0.0
H932 H 0.56074 0.24571 0.75337 0.0
H933 H 0.52441 0.19635 0.86041 0.0
H934 H 0.5622 0.2095 0.89741 0.0
H935 H 0.50617 0.29616 0.80906 0.0
H936 H 0.52609 0.10437 0.81022 0.0
H937 H 0.55326 0.02608 0.79846 0.0
H938 H 0.55683 0.06609 0.67519 0.0
H939 H 0.52998 0.1452 0.68636 0.0
C940 C 0.40847 0.25955 0.70474 0.0
C941 C 0.4109 0.25473 0.6636 0.0
C942 C 0.42826 0.24822 0.72947 0.0
C943 C 0.45106 0.23377 0.71339 0.0
C944 C 0.45312 0.22659 0.67241 0.0
C945 C 0.43319 0.2365 0.6478 0.0
C946 C 0.47313 0.22914 0.73871 0.0
C947 C 0.48848 0.1837 0.73423 0.0
C948 C 0.47964 0.27032 0.76604 0.0
C949 C 0.46588 0.32204 0.76949 0.0
C950 C 0.46282 0.35592 0.73642 0.0
C951 C 0.44998 0.4048 0.73985 0.0
C952 C 0.44027 0.42047 0.77627 0.0
C953 C 0.44346 0.38734 0.80939 0.0
C954 C 0.45625 0.33834 0.8061 0.0
C955 C 0.58276 0.24555 0.80584 0.0
C956 C 0.58342 0.23672 0.84686 0.0
C957 C 0.56118 0.23685 0.7847 0.0
C958 C 0.53996 0.21991 0.80434 0.0
C959 C 0.54074 0.20912 0.84487 0.0
C960 C 0.56238 0.21667 0.86589 0.0
C961 C 0.51638 0.21958 0.7834 0.0
C962 C 0.50088 0.26426 0.78866 0.0
C963 C 0.51019 0.1787 0.756 0.0
C964 C 0.52624 0.13105 0.74922 0.0
C965 C 0.53288 0.09684 0.78069 0.0
C966 C 0.54817 0.05222 0.77411 0.0
C967 C 0.55682 0.04121 0.73612 0.0
C968 C 0.55014 0.07471 0.70461 0.0
C969 C 0.53487 0.11941 0.71105 0.0
H970 H 0.56866 0.00664 0.73108 0.0
H971 H 0.43035 0.45836 0.77887 0.0
H972 H 0.0796 0.64517 0.63143 0.0
H973 H 0.04306 0.62981 0.67112 0.0
H974 H 0.07069 0.73854 0.76037 0.0
H975 H 0.10718 0.75488 0.72084 0.0
H976 H 0.02643 0.60299 0.74729 0.0
H977 H 0.02534 0.83759 0.77121 0.0
H978 H 0.04401 0.9189 0.74101 0.0
H979 H 0.0519 0.83358 0.63115 0.0
H980 H 0.03239 0.75306 0.66 0.0
H981 H 0.93312 0.68083 0.88032 0.0
H982 H 0.97011 0.66143 0.84317 0.0
H983 H 0.94154 0.75065 0.74364 0.0
H984 H 0.90478 0.77243 0.78141 0.0
H985 H 0.98494 0.78211 0.75566 0.0
H986 H 0.9489 0.60749 0.74391 0.0
H987 H 0.92864 0.52331 0.76596 0.0
H988 H 0.99089 0.48367 0.83758 0.0
H989 H 0.0114 0.56803 0.81639 0.0
C990 C 0.07832 0.66463 0.66004 0.0
C991 C 0.09598 0.70268 0.67235 0.0
C992 C 0.05746 0.65535 0.68284 0.0
C993 C 0.05398 0.68402 0.71815 0.0
C994 C 0.07296 0.71661 0.73287 0.0
C995 C 0.09378 0.72605 0.71009 0.0
C996 C 0.02917 0.68857 0.73521 0.0
C997 C 0.01733 0.64205 0.74946 0.0
C998 C 0.01697 0.73929 0.73619 0.0
C999 C 0.02776 0.78884 0.71807 0.0
C1000 C 0.03091 0.83636 0.74053 0.0
C1001 C 0.0416 0.88243 0.72358 0.0
C1002 C 0.04927 0.88142 0.68422 0.0
C1003 C 0.04618 0.83441 0.66169 0.0
C1004 C 0.0352 0.78858 0.6783 0.0
C1005 C 0.93446 0.69575 0.85033 0.0
C1006 C 0.91598 0.72856 0.83399 0.0
C1007 C 0.95566 0.68427 0.82896 0.0
C1008 C 0.95863 0.70419 0.79042 0.0
C1009 C 0.93973 0.73496 0.77338 0.0
C1010 C 0.91866 0.7472 0.79497 0.0
C1011 C 0.9822 0.69664 0.76924 0.0
C1012 C 0.99388 0.74283 0.75383 0.0
C1013 C 0.99382 0.64528 0.76607 0.0
C1014 C 0.98161 0.59434 0.77878 0.0
C1015 C 0.9582 0.58103 0.76458 0.0
C1016 C 0.94669 0.53324 0.77689 0.0
C1017 C 0.95845 0.49822 0.80322 0.0
C1018 C 0.98179 0.51086 0.8172 0.0
C1019 C 0.99339 0.55862 0.80501 0.0
H1020 H 0.9495 0.46125 0.81272 0.0
H1021 H 0.05752 0.91711 0.67114 0.0
H1022 H 0.42012 0.85253 0.12994 0.0
H1023 H 0.45648 0.87196 0.16911 0.0
H1024 H 0.43204 0.75951 0.25837 0.0
H1025 H 0.39575 0.73915 0.21939 0.0
H1026 H 0.47259 0.90007 0.24578 0.0
H1027 H 0.48018 0.66565 0.26755 0.0
H1028 H 0.46328 0.58253 0.23728 0.0
H1029 H 0.45193 0.66808 0.12835 0.0
H1030 H 0.4698 0.75056 0.15719 0.0
H1031 H 0.56649 0.82905 0.37962 0.0
H1032 H 0.52972 0.84662 0.34147 0.0
H1033 H 0.56119 0.76334 0.24145 0.0
H1034 H 0.59773 0.7433 0.28019 0.0
H1035 H 0.51859 0.72636 0.25233 0.0
H1036 H 0.55024 0.9055 0.24333 0.0
H1037 H 0.56819 0.99153 0.26678 0.0
H1038 H 0.50459 0.02159 0.33779 0.0
H1039 H 0.48638 0.93534 0.3152 0.0
C1040 C 0.42205 0.83305 0.15845 0.0
C1041 C 0.4054 0.7929 0.17092 0.0
C1042 C 0.44278 0.84466 0.18095 0.0
C1043 C 0.44713 0.81622 0.21609 0.0
C1044 C 0.42908 0.7813 0.23099 0.0
C1045 C 0.40838 0.76956 0.20853 0.0
C1046 C 0.47209 0.81454 0.23276 0.0
C1047 C 0.48269 0.86221 0.24751 0.0
C1048 C 0.48555 0.76541 0.23319 0.0
C1049 C 0.47594 0.71475 0.21488 0.0
C1050 C 0.47427 0.66658 0.23704 0.0
C1051 C 0.46458 0.61946 0.22006 0.0
C1052 C 0.45641 0.62003 0.18097 0.0
C1053 C 0.45805 0.66762 0.1587 0.0
C1054 C 0.46808 0.71454 0.17531 0.0
C1055 C 0.56584 0.81521 0.3493 0.0
C1056 C 0.58502 0.78429 0.33312 0.0
C1057 C 0.54477 0.82563 0.32736 0.0
C1058 C 0.54265 0.80659 0.28843 0.0
C1059 C 0.56232 0.77824 0.2715 0.0
C1060 C 0.58326 0.767 0.29364 0.0
C1061 C 0.51911 0.81176 0.26687 0.0
C1062 C 0.50868 0.7645 0.25083 0.0
C1063 C 0.5062 0.86162 0.26423 0.0
C1064 C 0.51702 0.91371 0.27777 0.0
C1065 C 0.54015 0.93026 0.26415 0.0
C1066 C 0.55036 0.9791 0.27726 0.0
C1067 C 0.53756 0.01195 0.30382 0.0
C1068 C 0.51449 0.99609 0.31724 0.0
C1069 C 0.5042 0.94726 0.30424 0.0
H1070 H 0.5455 0.04975 0.31394 0.0
H1071 H 0.4489 0.58355 0.16788 0.0
H1072 H 0.09075 0.04928 0.09098 0.0
H1073 H 0.05427 0.99762 0.07366 0.0
H1074 H 0.03811 0.11194 0.98073 0.0
H1075 H 0.07439 0.16447 0.99805 0.0
H1076 H 0.99828 0.09068 0.02641 0.0
H1077 H 0.0604 0.98806 0.95883 0.0
H1078 H 0.09904 0.93699 0.95339 0.0
H1079 H 0.073 0.82075 0.03806 0.0
H1080 H 0.03431 0.87159 0.04443 0.0
H1081 H 0.91042 0.94376 0.91656 0.0
H1082 H 0.94559 0.99426 0.94087 0.0
H1083 H 0.95846 0.87101 0.02902 0.0
H1084 H 0.92344 0.81946 0.00451 0.0
H1085 H 0.99962 0.89545 0.98989 0.0
H1086 H 0.93663 0.99539 0.05518 0.0
H1087 H 0.89796 0.0463 0.06065 0.0
H1088 H 0.92541 0.16744 0.98092 0.0
H1089 H 0.96414 0.11685 0.97451 0.0
C1090 C 0.07966 0.06321 0.06651 0.0
C1091 C 0.08561 0.11106 0.04583 0.0
C1092 C 0.05879 0.03354 0.05667 0.0
C1093 C 0.04357 0.05085 0.02581 0.0
C1094 C 0.04962 0.098 0.00471 0.0
C1095 C 0.07047 0.12776 0.01451 0.0
C1096 C 0.02098 0.02057 0.01613 0.0
C1097 C 0.99856 0.04815 0.01795 0.0
C1098 C 0.02137 0.96471 0.00634 0.0
C1099 C 0.04457 0.93395 0.00241 0.0
C1100 C 0.06299 0.95186 0.97653 0.0
C1101 C 0.08489 0.92291 0.97324 0.0
C1102 C 0.0885 0.87574 0.99545 0.0
C1103 C 0.07019 0.85734 0.02092 0.0
C1104 C 0.04827 0.88618 0.02436 0.0
C1105 C 0.92048 0.92755 0.94145 0.0
C1106 C 0.91407 0.8774 0.95851 0.0
C1107 C 0.94057 0.95667 0.95541 0.0
C1108 C 0.95455 0.93656 0.98692 0.0
C1109 C 0.94789 0.88722 0.00466 0.0
C1110 C 0.92779 0.85797 0.99071 0.0
C1111 C 0.97687 0.96567 0.99976 0.0
C1112 C 0.99927 0.93789 0.99857 0.0
C1113 C 0.97646 0.02134 0.01018 0.0
C1114 C 0.95322 0.05206 0.01412 0.0
C1115 C 0.93436 0.03267 0.03857 0.0
C1116 C 0.91243 0.06151 0.04188 0.0
C1117 C 0.90921 0.11001 0.02108 0.0
C1118 C 0.92793 0.12984 0.997 0.0
C1119 C 0.94988 0.10113 0.99355 0.0
H1120 H 0.89222 0.13227 0.02368 0.0
H1121 H 0.10546 0.85338 0.99285 0.0
H1122 H 0.57417 0.69303 0.50293 0.0
H1123 H 0.53727 0.6451 0.52379 0.0
H1124 H 0.54936 0.52394 0.43386 0.0
H1125 H 0.58615 0.57149 0.41256 0.0
H1126 H 0.50286 0.56262 0.4325 0.0
H1127 H 0.5593 0.49462 0.52945 0.0
H1128 H 0.59022 0.5019 0.58215 0.0
H1129 H 0.53921 0.58908 0.65479 0.0
H1130 H 0.50808 0.58303 0.60226 0.0
H1131 H 0.42016 0.35734 0.49348 0.0
H1132 H 0.45521 0.41229 0.47403 0.0
H1133 H 0.4396 0.52559 0.5679 0.0
H1134 H 0.4046 0.47063 0.58798 0.0
H1135 H 0.48685 0.49566 0.56819 0.0
H1136 H 0.42972 0.56028 0.47256 0.0
H1137 H 0.39879 0.55343 0.41988 0.0
H1138 H 0.4508 0.47362 0.3447 0.0
H1139 H 0.48197 0.4792 0.39716 0.0
C1140 C 0.56922 0.65577 0.48791 0.0
C1141 C 0.58316 0.63625 0.45597 0.0
C1142 C 0.5481 0.62844 0.4999 0.0
C1143 C 0.5406 0.58101 0.48033 0.0
C1144 C 0.55479 0.56064 0.4492 0.0
C1145 C 0.5759 0.58781 0.43723 0.0
C1146 C 0.51745 0.55366 0.49121 0.0
C1147 C 0.49945 0.54734 0.46204 0.0
C1148 C 0.51277 0.53535 0.53006 0.0
C1149 C 0.53145 0.53889 0.56173 0.0
C1150 C 0.55474 0.51577 0.55652 0.0
C1151 C 0.57229 0.51959 0.58639 0.0
C1152 C 0.56671 0.54608 0.62175 0.0
C1153 C 0.54353 0.56866 0.62735 0.0
C1154 C 0.52592 0.56501 0.59755 0.0
C1155 C 0.4239 0.39434 0.5097 0.0
C1156 C 0.40954 0.4094 0.5424 0.0
C1157 C 0.44395 0.4258 0.49845 0.0
C1158 C 0.44995 0.47313 0.51944 0.0
C1159 C 0.4353 0.48914 0.55137 0.0
C1160 C 0.41522 0.45773 0.56267 0.0
C1161 C 0.47232 0.5041 0.50936 0.0
C1162 C 0.49018 0.51116 0.53869 0.0
C1163 C 0.47685 0.52317 0.47064 0.0
C1164 C 0.45813 0.51971 0.43898 0.0
C1165 C 0.43452 0.54083 0.44493 0.0
C1166 C 0.41694 0.53725 0.41508 0.0
C1167 C 0.4228 0.51298 0.379 0.0
C1168 C 0.44628 0.49234 0.37268 0.0
C1169 C 0.46391 0.49574 0.40245 0.0
H1170 H 0.40917 0.51027 0.35592 0.0
H1171 H 0.58032 0.54899 0.64484 0.0
H1172 H 0.41835 0.58077 0.10328 0.0
H1173 H 0.45568 0.53255 0.08484 0.0
H1174 H 0.46315 0.6345 0.98201 0.0
H1175 H 0.42606 0.68371 0.00046 0.0
H1176 H 0.46886 0.52666 0.96454 0.0
H1177 H 0.504 0.655 0.05403 0.0
H1178 H 0.51269 0.70756 0.11445 0.0
H1179 H 0.52076 0.55951 0.18023 0.0
H1180 H 0.51244 0.50605 0.12002 0.0
H1181 H 0.5897 0.44965 0.91276 0.0
H1182 H 0.55457 0.50358 0.93362 0.0
H1183 H 0.54553 0.40084 0.03571 0.0
H1184 H 0.58072 0.34657 0.01531 0.0
H1185 H 0.54073 0.50966 0.05296 0.0
H1186 H 0.51043 0.38316 0.95574 0.0
H1187 H 0.50989 0.33883 0.8904 0.0
H1188 H 0.49528 0.49233 0.83502 0.0
H1189 H 0.49623 0.53782 0.8999 0.0
C1190 C 0.42785 0.59296 0.07666 0.0
C1191 C 0.41911 0.63618 0.05334 0.0
C1192 C 0.44932 0.5656 0.06636 0.0
C1193 C 0.4623 0.5803 0.03227 0.0
C1194 C 0.45344 0.62269 0.00855 0.0
C1195 C 0.43218 0.65064 0.01911 0.0
C1196 C 0.4845 0.54983 0.02044 0.0
C1197 C 0.48469 0.52343 0.98368 0.0
C1198 C 0.50499 0.54495 0.04564 0.0
C1199 C 0.50735 0.5766 0.08265 0.0
C1200 C 0.50729 0.63369 0.0815 0.0
C1201 C 0.51247 0.66361 0.11558 0.0
C1202 C 0.51746 0.63686 0.15108 0.0
C1203 C 0.51704 0.58015 0.15266 0.0
C1204 C 0.51216 0.55003 0.11856 0.0
C1205 C 0.58044 0.43868 0.93988 0.0
C1206 C 0.58802 0.39347 0.96224 0.0
C1207 C 0.56024 0.46942 0.95159 0.0
C1208 C 0.54721 0.45557 0.9858 0.0
C1209 C 0.55527 0.41194 0.00905 0.0
C1210 C 0.57543 0.38103 0.99734 0.0
C1211 C 0.52505 0.48634 0.99725 0.0
C1212 C 0.52482 0.5126 0.03396 0.0
C1213 C 0.5047 0.49167 0.9717 0.0
C1214 C 0.50369 0.46403 0.93272 0.0
C1215 C 0.5073 0.40756 0.92962 0.0
C1216 C 0.50691 0.38222 0.89265 0.0
C1217 C 0.50269 0.41284 0.8586 0.0
C1218 C 0.49865 0.46874 0.86143 0.0
C1219 C 0.49911 0.49431 0.89829 0.0
H1220 H 0.50253 0.39331 0.82998 0.0
H1221 H 0.52149 0.66011 0.17742 0.0
H1222 H 0.08687 0.91861 0.60452 0.0
H1223 H 0.04971 0.969 0.58823 0.0
H1224 H 0.0365 0.86145 0.49002 0.0
H1225 H 0.07336 0.81027 0.50627 0.0
H1226 H 0.03223 0.9677 0.46906 0.0
H1227 H 0.99601 0.8501 0.56682 0.0
H1228 H 0.98734 0.80412 0.63006 0.0
H1229 H 0.98833 0.95774 0.69015 0.0
H1230 H 0.99644 0.0047 0.62704 0.0
H1231 H 0.90991 0.03417 0.42376 0.0
H1232 H 0.94595 0.98475 0.4461 0.0
H1233 H 0.95813 0.10477 0.53673 0.0
H1234 H 0.92208 0.15503 0.51455 0.0
H1235 H 0.96352 0.99635 0.56242 0.0
H1236 H 0.99117 0.1118 0.45716 0.0
H1237 H 0.98965 0.15041 0.39003 0.0
H1238 H 0.00153 0.99199 0.3405 0.0
H1239 H 0.00267 0.95222 0.40734 0.0
C1240 C 0.07614 0.90567 0.57936 0.0
C1241 C 0.08321 0.86033 0.55667 0.0
C1242 C 0.05476 0.93427 0.57034 0.0
C1243 C 0.04024 0.91861 0.53816 0.0
C1244 C 0.04742 0.87404 0.51509 0.0
C1245 C 0.06858 0.84498 0.52436 0.0
C1246 C 0.01825 0.95039 0.52724 0.0
C1247 C 0.01711 0.97354 0.48937 0.0
C1248 C 0.99874 0.95895 0.55393 0.0
C1249 C 0.99714 0.93074 0.5924 0.0
C1250 C 0.99475 0.87393 0.59364 0.0
C1251 C 0.98957 0.84781 0.62932 0.0
C1252 C 0.98714 0.87804 0.66404 0.0
C1253 C 0.9901 0.93442 0.66321 0.0
C1254 C 0.9949 0.96082 0.62748 0.0
C1255 C 0.92005 0.04999 0.44869 0.0
C1256 C 0.91314 0.09887 0.46719 0.0
C1257 C 0.94073 0.02176 0.46125 0.0
C1258 C 0.95486 0.04169 0.49258 0.0
C1259 C 0.94749 0.08904 0.5123 0.0
C1260 C 0.92687 0.1176 0.49959 0.0
C1261 C 0.9775 0.01324 0.50438 0.0
C1262 C 0.9788 0.991 0.54235 0.0
C1263 C 0.99698 0.00492 0.47756 0.0
C1264 C 0.9968 0.02894 0.43731 0.0
C1265 C 0.99329 0.08511 0.43197 0.0
C1266 C 0.99251 0.10722 0.39395 0.0
C1267 C 0.99544 0.07366 0.36102 0.0
C1268 C 0.99924 0.01793 0.36604 0.0
C1269 C 0.99998 0.99559 0.40399 0.0
H1270 H 0.99478 0.09084 0.33162 0.0
H1271 H 0.9831 0.85773 0.69163 0.0
loop_
_geom_bond_atom_site_label_1
_geom_bond_atom_site_label_2
_geom_bond_distance
_geom_bond_site_symmetry_2
_ccdc_geom_bond_type
Co0 O2 2.143 . S
Co0 O8 2.074 . S
Co0 O11 2.093 . S
Co0 O24 2.097 . S
Co0 N41 2.151 . S
Co0 N49 2.214 . S
Co1 O2 2.160 . S
Co1 O7 2.058 . S
Co1 O17 2.057 . S
Co1 O32 2.037 . S
Co1 N36 2.145 . S
Co1 N57 2.257 . S
O2 Co0 2.143 . S
O2 Co1 2.160 . S
C3 O4 1.278 . S
C3 O11 1.224 . S
O4 C3 1.278 . S
C5 O6 1.245 . S
C5 O17 1.232 . S
O6 C5 1.245 . S
O7 Co1 2.058 . S
O7 C33 1.269 . S
O8 Co0 2.074 . S
O8 C33 1.257 . S
H9 C34 0.930 . S
H10 C40 0.930 . S
O11 Co0 2.093 . S
O11 C3 1.224 . S
H12 C44 0.929 . S
H13 C46 0.930 . S
H14 C47 0.930 . S
H15 C45 0.929 . S
H16 C48 0.931 . S
O17 Co1 2.057 . S
O17 C5 1.232 . S
H18 C37 0.929 . S
H19 C38 0.929 . S
H20 C50 0.931 . S
H21 C42 0.929 . S
H22 C51 0.930 . S
H23 C43 0.931 . S
O24 Co0 2.097 . S
O24 C52 1.214 . S
H25 C53 0.929 . S
H26 C54 0.929 . S
H27 C55 0.930 . S
H28 C56 0.929 . S
H29 C58 0.930 . S
H30 C35 0.930 . S
H31 C39 0.930 . S
O32 Co1 2.037 . S
O32 C52 1.234 . S
C33 O7 1.269 . S
C33 O8 1.257 . S
C34 H9 0.930 . S
C34 C37 1.388 . S
C34 C39 1.418 . S
C35 H30 0.930 . S
C35 C38 1.404 . S
C35 C39 1.353 . S
N36 Co1 2.145 . S
N36 C37 1.397 . S
N36 C38 1.334 . S
C37 H18 0.929 . S
C37 C34 1.388 . S
C37 N36 1.397 . S
C38 H19 0.929 . S
C38 C35 1.404 . S
C38 N36 1.334 . S
C39 H31 0.930 . S
C39 C34 1.418 . S
C39 C35 1.353 . S
C40 H10 0.930 . S
C40 N41 1.330 . S
C40 C42 1.446 . S
N41 Co0 2.151 . S
N41 C40 1.330 . S
N41 C45 1.418 . S
C42 H21 0.929 . S
C42 C40 1.446 . S
C42 C43 1.332 . S
C43 H23 0.931 . S
C43 C42 1.332 . S
C43 C44 1.267 . S
C44 H12 0.929 . S
C44 C43 1.267 . S
C44 C45 1.251 . S
C45 H15 0.929 . S
C45 N41 1.418 . S
C45 C44 1.251 . S
C46 H13 0.930 . S
C46 C48 1.417 . S
C46 C51 1.261 . S
C47 H14 0.930 . S
C47 N49 1.325 . S
C47 C50 1.357 . S
C48 H16 0.931 . S
C48 C46 1.417 . S
C48 N49 1.247 1_556 S
N49 Co0 2.214 . S
N49 C47 1.325 . S
N49 C48 1.247 1_554 S
C50 H20 0.931 . S
C50 C47 1.357 . S
C50 C51 1.312 1_554 S
C51 H22 0.930 . S
C51 C46 1.261 . S
C51 C50 1.312 1_556 S
C52 O24 1.214 . S
C52 O32 1.234 . S
C53 H25 0.929 . S
C53 C56 1.391 . S
C53 C58 1.391 . S
C54 H26 0.929 . S
C54 C55 1.390 . S
C54 N57 1.391 . S
C55 H27 0.930 . S
C55 C54 1.390 . S
C55 C56 1.392 . S
C56 H28 0.929 . S
C56 C53 1.391 . S
C56 C55 1.392 . S
N57 Co1 2.257 . S
N57 C54 1.391 . S
N57 C58 1.388 . S
C58 H29 0.930 . S
C58 C53 1.391 . S
C58 N57 1.388 . S
Co59 O61 2.143 . S
Co59 O67 2.074 . S
Co59 O70 2.093 . S
Co59 O83 2.097 . S
Co59 N100 2.151 . S
Co59 N108 2.214 . S
Co60 O61 2.160 . S
Co60 O66 2.058 . S
Co60 O76 2.057 . S
Co60 O91 2.037 . S
Co60 N95 2.145 . S
Co60 N116 2.257 . S
O61 Co59 2.143 . S
O61 Co60 2.160 . S
C62 O63 1.278 . S
C62 O70 1.224 . S
O63 C62 1.278 . S
C64 O65 1.245 . S
C64 O76 1.232 . S
O65 C64 1.245 . S
O66 Co60 2.058 . S
O66 C92 1.269 . S
O67 Co59 2.074 . S
O67 C92 1.257 . S
H68 C93 0.930 . S
H69 C99 0.930 . S
O70 Co59 2.093 . S
O70 C62 1.224 . S
H71 C103 0.929 . S
H72 C105 0.930 . S
H73 C106 0.930 . S
H74 C104 0.929 . S
H75 C107 0.928 . S
O76 Co60 2.057 . S
O76 C64 1.232 . S
H77 C96 0.929 . S
H78 C97 0.929 . S
H79 C109 0.931 . S
H80 C101 0.929 . S
H81 C110 0.930 . S
H82 C102 0.931 1_565 S
O83 Co59 2.097 . S
O83 C111 1.214 . S
H84 C112 0.929 . S
H85 C113 0.929 . S
H86 C114 0.930 . S
H87 C115 0.929 . S
H88 C117 0.930 . S
H89 C94 0.930 . S
H90 C98 0.930 . S
O91 Co60 2.037 . S
O91 C111 1.234 . S
C92 O66 1.269 . S
C92 O67 1.257 . S
C93 H68 0.930 . S
C93 C96 1.388 . S
C93 C98 1.418 . S
C94 H89 0.930 . S
C94 C97 1.404 . S
C94 C98 1.353 . S
N95 Co60 2.145 . S
N95 C96 1.397 . S
N95 C97 1.334 . S
C96 H77 0.929 . S
C96 C93 1.388 . S
C96 N95 1.397 . S
C97 H78 0.929 . S
C97 C94 1.404 . S
C97 N95 1.334 . S
C98 H90 0.930 . S
C98 C93 1.418 . S
C98 C94 1.353 . S
C99 H69 0.930 . S
C99 N100 1.330 . S
C99 C101 1.446 . S
N100 Co59 2.151 . S
N100 C99 1.330 . S
N100 C104 1.418 . S
C101 H80 0.929 . S
C101 C99 1.446 . S
C101 C102 1.332 . S
C102 H82 0.931 1_545 S
C102 C101 1.332 . S
C102 C103 1.267 . S
C103 H71 0.929 . S
C103 C102 1.267 . S
C103 C104 1.251 . S
C104 H74 0.929 . S
C104 N100 1.418 . S
C104 C103 1.251 . S
C105 H72 0.930 . S
C105 C107 1.406 . S
C105 C110 1.261 . S
C106 H73 0.930 . S
C106 N108 1.325 . S
C106 C109 1.357 . S
C107 H75 0.928 . S
C107 C105 1.406 . S
C107 N108 1.261 . S
N108 Co59 2.214 . S
N108 C106 1.325 . S
N108 C107 1.261 . S
C109 H79 0.931 . S
C109 C106 1.357 . S
C109 C110 1.312 . S
C110 H81 0.930 . S
C110 C105 1.261 . S
C110 C109 1.312 . S
C111 O83 1.214 . S
C111 O91 1.234 . S
C112 H84 0.929 . S
C112 C115 1.391 . S
C112 C117 1.391 . S
C113 H85 0.929 . S
C113 C114 1.390 . S
C113 N116 1.391 . S
C114 H86 0.930 . S
C114 C113 1.390 . S
C114 C115 1.392 . S
C115 H87 0.929 . S
C115 C112 1.391 . S
C115 C114 1.392 . S
N116 Co60 2.257 . S
N116 C113 1.391 . S
N116 C117 1.388 . S
C117 H88 0.930 . S
C117 C112 1.391 . S
C117 N116 1.388 . S
Co118 O120 2.143 . S
Co118 O126 2.074 . S
Co118 O129 2.093 . S
Co118 O142 2.097 . S
Co118 N159 2.151 . S
Co118 N167 2.214 . S
Co119 O120 2.160 . S
Co119 O125 2.058 . S
Co119 O135 2.057 . S
Co119 O150 2.037 . S
Co119 N154 2.145 . S
Co119 N175 2.257 . S
O120 Co118 2.143 . S
O120 Co119 2.160 . S
C121 O122 1.278 . S
C121 O129 1.224 . S
O122 C121 1.278 . S
C123 O124 1.245 . S
C123 O135 1.232 . S
O124 C123 1.245 . S
O125 Co119 2.058 . S
O125 C151 1.269 . S
O126 Co118 2.074 . S
O126 C151 1.257 . S
H127 C152 0.930 . S
H128 C158 0.930 . S
O129 Co118 2.093 . S
O129 C121 1.224 . S
H130 C162 0.929 . S
H131 C164 0.930 . S
H132 C165 0.930 . S
H133 C163 0.929 . S
H134 C166 0.931 . S
O135 Co119 2.057 . S
O135 C123 1.232 . S
H136 C155 0.929 . S
H137 C156 0.929 . S
H138 C168 0.931 . S
H139 C160 0.929 . S
H140 C169 0.930 . S
H141 C161 0.931 1_565 S
O142 Co118 2.097 . S
O142 C170 1.214 . S
H143 C171 0.929 . S
H144 C172 0.929 . S
H145 C173 0.930 . S
H146 C174 0.929 . S
H147 C176 0.930 . S
H148 C153 0.930 . S
H149 C157 0.930 . S
O150 Co119 2.037 . S
O150 C170 1.234 . S
C151 O125 1.269 . S
C151 O126 1.257 . S
C152 H127 0.930 . S
C152 C155 1.388 . S
C152 C157 1.418 . S
C153 H148 0.930 . S
C153 C156 1.404 . S
C153 C157 1.353 . S
N154 Co119 2.145 . S
N154 C155 1.397 . S
N154 C156 1.334 . S
C155 H136 0.929 . S
C155 C152 1.388 . S
C155 N154 1.397 . S
C156 H137 0.929 . S
C156 C153 1.404 . S
C156 N154 1.334 . S
C157 H149 0.930 . S
C157 C152 1.418 . S
C157 C153 1.353 . S
C158 H128 0.930 . S
C158 N159 1.330 . S
C158 C160 1.446 . S
N159 Co118 2.151 . S
N159 C158 1.330 . S
N159 C163 1.418 . S
C160 H139 0.929 . S
C160 C158 1.446 . S
C160 C161 1.332 . S
C161 H141 0.931 1_545 S
C161 C160 1.332 . S
C161 C162 1.267 . S
C162 H130 0.929 . S
C162 C161 1.267 . S
C162 C163 1.251 . S
C163 H133 0.929 . S
C163 N159 1.418 . S
C163 C162 1.251 . S
C164 H131 0.930 . S
C164 C166 1.417 . S
C164 C169 1.261 . S
C165 H132 0.930 . S
C165 N167 1.325 . S
C165 C168 1.357 . S
C166 H134 0.931 . S
C166 C164 1.417 . S
C166 N167 1.247 1_554 S
N167 Co118 2.214 . S
N167 C165 1.325 . S
N167 C166 1.247 1_556 S
C168 H138 0.931 . S
C168 C165 1.357 . S
C168 C169 1.312 1_556 S
C169 H140 0.930 . S
C169 C164 1.261 . S
C169 C168 1.312 1_554 S
C170 O142 1.214 . S
C170 O150 1.234 . S
C171 H143 0.929 . S
C171 C174 1.391 . S
C171 C176 1.391 . S
C172 H144 0.929 . S
C172 C173 1.390 . S
C172 N175 1.391 . S
C173 H145 0.930 . S
C173 C172 1.390 . S
C173 C174 1.392 . S
C174 H146 0.929 . S
C174 C171 1.391 . S
C174 C173 1.392 . S
N175 Co119 2.257 . S
N175 C172 1.391 . S
N175 C176 1.388 . S
C176 H147 0.930 . S
C176 C171 1.391 . S
C176 N175 1.388 . S
Co177 O179 2.143 . S
Co177 O185 2.074 . S
Co177 O188 2.093 . S
Co177 O201 2.097 . S
Co177 N218 2.151 . S
Co177 N226 2.214 . S
Co178 O179 2.160 . S
Co178 O184 2.058 . S
Co178 O194 2.057 . S
Co178 O209 2.037 . S
Co178 N213 2.145 . S
Co178 N234 2.257 . S
O179 Co177 2.143 . S
O179 Co178 2.160 . S
C180 O181 1.278 . S
C180 O188 1.224 . S
O181 C180 1.278 . S
C182 O183 1.245 . S
C182 O194 1.232 . S
O183 C182 1.245 . S
O184 Co178 2.058 . S
O184 C210 1.269 . S
O185 Co177 2.074 . S
O185 C210 1.257 . S
H186 C211 0.930 . S
H187 C217 0.930 . S
O188 Co177 2.093 . S
O188 C180 1.224 . S
H189 C221 0.929 . S
H190 C223 0.930 . S
H191 C224 0.930 . S
H192 C222 0.929 . S
H193 C225 0.928 . S
O194 Co178 2.057 . S
O194 C182 1.232 . S
H195 C214 0.929 . S
H196 C215 0.929 . S
H197 C227 0.931 . S
H198 C219 0.929 . S
H199 C228 0.930 . S
H200 C220 0.931 . S
O201 Co177 2.097 . S
O201 C229 1.214 . S
H202 C230 0.929 . S
H203 C231 0.929 . S
H204 C232 0.930 . S
H205 C233 0.929 . S
H206 C235 0.930 . S
H207 C212 0.930 . S
H208 C216 0.930 . S
O209 Co178 2.037 . S
O209 C229 1.234 . S
C210 O184 1.269 . S
C210 O185 1.257 . S
C211 H186 0.930 . S
C211 C214 1.388 . S
C211 C216 1.418 . S
C212 H207 0.930 . S
C212 C215 1.404 . S
C212 C216 1.353 . S
N213 Co178 2.145 . S
N213 C214 1.397 . S
N213 C215 1.334 . S
C214 H195 0.929 . S
C214 C211 1.388 . S
C214 N213 1.397 . S
C215 H196 0.929 . S
C215 C212 1.404 . S
C215 N213 1.334 . S
C216 H208 0.930 . S
C216 C211 1.418 . S
C216 C212 1.353 . S
C217 H187 0.930 . S
C217 N218 1.330 . S
C217 C219 1.446 . S
N218 Co177 2.151 . S
N218 C217 1.330 . S
N218 C222 1.418 . S
C219 H198 0.929 . S
C219 C217 1.446 . S
C219 C220 1.332 . S
C220 H200 0.931 . S
C220 C219 1.332 . S
C220 C221 1.267 . S
C221 H189 0.929 . S
C221 C220 1.267 . S
C221 C222 1.251 . S
C222 H192 0.929 . S
C222 N218 1.418 . S
C222 C221 1.251 . S
C223 H190 0.930 . S
C223 C225 1.406 . S
C223 C228 1.261 . S
C224 H191 0.930 . S
C224 N226 1.325 . S
C224 C227 1.357 . S
C225 H193 0.928 . S
C225 C223 1.406 . S
C225 N226 1.261 . S
N226 Co177 2.214 . S
N226 C224 1.325 . S
N226 C225 1.261 . S
C227 H197 0.931 . S
C227 C224 1.357 . S
C227 C228 1.312 . S
C228 H199 0.930 . S
C228 C223 1.261 . S
C228 C227 1.312 . S
C229 O201 1.214 . S
C229 O209 1.234 . S
C230 H202 0.929 . S
C230 C233 1.391 . S
C230 C235 1.391 . S
C231 H203 0.929 . S
C231 C232 1.390 . S
C231 N234 1.391 . S
C232 H204 0.930 . S
C232 C231 1.390 . S
C232 C233 1.392 . S
C233 H205 0.929 . S
C233 C230 1.391 . S
C233 C232 1.392 . S
N234 Co178 2.257 . S
N234 C231 1.391 . S
N234 C235 1.388 . S
C235 H206 0.930 . S
C235 C230 1.391 . S
C235 N234 1.388 . S
Co236 O238 2.143 . S
Co236 O244 2.074 . S
Co236 O247 2.093 . S
Co236 O260 2.097 . S
Co236 N277 2.151 . S
Co236 N285 2.214 . S
Co237 O238 2.160 . S
Co237 O243 2.058 . S
Co237 O253 2.057 . S
Co237 O268 2.037 . S
Co237 N272 2.145 . S
Co237 N293 2.257 . S
O238 Co236 2.143 . S
O238 Co237 2.160 . S
C239 O240 1.278 . S
C239 O247 1.224 . S
O240 C239 1.278 . S
C241 O242 1.245 . S
C241 O253 1.232 . S
O242 C241 1.245 . S
O243 Co237 2.058 . S
O243 C269 1.269 . S
O244 Co236 2.074 . S
O244 C269 1.257 . S
H245 C270 0.930 . S
H246 C276 0.930 . S
O247 Co236 2.093 . S
O247 C239 1.224 . S
H248 C280 0.929 1_545 S
H249 C282 0.930 . S
H250 C283 0.930 . S
H251 C281 0.929 . S
H252 C284 0.928 . S
O253 Co237 2.057 . S
O253 C241 1.232 . S
H254 C273 0.929 . S
H255 C274 0.929 . S
H256 C286 0.931 . S
H257 C278 0.929 . S
H258 C287 0.930 . S
H259 C279 0.931 . S
O260 Co236 2.097 . S
O260 C288 1.214 . S
H261 C289 0.929 . S
H262 C290 0.929 . S
H263 C291 0.930 . S
H264 C292 0.929 . S
H265 C294 0.930 . S
H266 C271 0.930 . S
H267 C275 0.930 . S
O268 Co237 2.037 . S
O268 C288 1.234 . S
C269 O243 1.269 . S
C269 O244 1.257 . S
C270 H245 0.930 . S
C270 C273 1.388 . S
C270 C275 1.418 1_556 S
C271 H266 0.930 . S
C271 C274 1.404 . S
C271 C275 1.353 . S
N272 Co237 2.145 . S
N272 C273 1.397 . S
N272 C274 1.334 1_556 S
C273 H254 0.929 . S
C273 C270 1.388 . S
C273 N272 1.397 . S
C274 H255 0.929 . S
C274 C271 1.404 . S
C274 N272 1.334 1_554 S
C275 H267 0.930 . S
C275 C270 1.418 1_554 S
C275 C271 1.353 . S
C276 H246 0.930 . S
C276 N277 1.330 . S
C276 C278 1.446 . S
N277 Co236 2.151 . S
N277 C276 1.330 . S
N277 C281 1.418 . S
C278 H257 0.929 . S
C278 C276 1.446 . S
C278 C279 1.332 . S
C279 H259 0.931 . S
C279 C278 1.332 . S
C279 C280 1.267 . S
C280 H248 0.929 1_565 S
C280 C279 1.267 . S
C280 C281 1.251 . S
C281 H251 0.929 . S
C281 N277 1.418 . S
C281 C280 1.251 . S
C282 H249 0.930 . S
C282 C284 1.406 . S
C282 C287 1.261 . S
C283 H250 0.930 . S
C283 N285 1.325 . S
C283 C286 1.357 . S
C284 H252 0.928 . S
C284 C282 1.406 . S
C284 N285 1.261 . S
N285 Co236 2.214 . S
N285 C283 1.325 . S
N285 C284 1.261 . S
C286 H256 0.931 . S
C286 C283 1.357 . S
C286 C287 1.312 . S
C287 H258 0.930 . S
C287 C282 1.261 . S
C287 C286 1.312 . S
C288 O260 1.214 . S
C288 O268 1.234 . S
C289 H261 0.929 . S
C289 C292 1.391 . S
C289 C294 1.391 . S
C290 H262 0.929 . S
C290 C291 1.390 . S
C290 N293 1.391 . S
C291 H263 0.930 . S
C291 C290 1.390 . S
C291 C292 1.392 . S
C292 H264 0.929 . S
C292 C289 1.391 . S
C292 C291 1.392 . S
N293 Co237 2.257 . S
N293 C290 1.391 . S
N293 C294 1.388 . S
C294 H265 0.930 . S
C294 C289 1.391 . S
C294 N293 1.388 . S
Co295 O297 2.143 . S
Co295 O303 2.074 . S
Co295 O306 2.093 . S
Co295 O319 2.097 . S
Co295 N336 2.151 . S
Co295 N344 2.214 . S
Co296 O297 2.160 . S
Co296 O302 2.058 . S
Co296 O312 2.057 . S
Co296 O327 2.037 . S
Co296 N331 2.145 . S
Co296 N352 2.257 . S
O297 Co295 2.143 . S
O297 Co296 2.160 . S
C298 O299 1.278 . S
C298 O306 1.224 . S
O299 C298 1.278 . S
C300 O301 1.245 . S
C300 O312 1.232 . S
O301 C300 1.245 . S
O302 Co296 2.058 . S
O302 C328 1.269 . S
O303 Co295 2.074 . S
O303 C328 1.257 . S
H304 C329 0.930 . S
H305 C335 0.930 . S
O306 Co295 2.093 . S
O306 C298 1.224 . S
H307 C339 0.929 . S
H308 C341 0.930 . S
H309 C342 0.930 . S
H310 C340 0.929 . S
H311 C343 0.928 . S
O312 Co296 2.057 . S
O312 C300 1.232 . S
H313 C332 0.929 . S
H314 C333 0.929 . S
H315 C345 0.931 . S
H316 C337 0.929 . S
H317 C346 0.930 . S
H318 C338 0.931 . S
O319 Co295 2.097 . S
O319 C347 1.214 . S
H320 C348 0.929 . S
H321 C349 0.929 . S
H322 C350 0.930 . S
H323 C351 0.929 . S
H324 C353 0.930 . S
H325 C330 0.930 . S
H326 C334 0.930 . S
O327 Co296 2.037 . S
O327 C347 1.234 . S
C328 O302 1.269 . S
C328 O303 1.257 . S
C329 H304 0.930 . S
C329 C332 1.388 . S
C329 C334 1.418 . S
C330 H325 0.930 . S
C330 C333 1.404 . S
C330 C334 1.353 . S
N331 Co296 2.145 . S
N331 C332 1.397 . S
N331 C333 1.334 . S
C332 H313 0.929 . S
C332 C329 1.388 . S
C332 N331 1.397 . S
C333 H314 0.929 . S
C333 C330 1.404 . S
C333 N331 1.334 . S
C334 H326 0.930 . S
C334 C329 1.418 . S
C334 C330 1.353 . S
C335 H305 0.930 . S
C335 N336 1.330 . S
C335 C337 1.446 . S
N336 Co295 2.151 . S
N336 C335 1.330 . S
N336 C340 1.418 . S
C337 H316 0.929 . S
C337 C335 1.446 . S
C337 C338 1.332 . S
C338 H318 0.931 . S
C338 C337 1.332 . S
C338 C339 1.267 . S
C339 H307 0.929 . S
C339 C338 1.267 . S
C339 C340 1.251 . S
C340 H310 0.929 . S
C340 N336 1.418 . S
C340 C339 1.251 . S
C341 H308 0.930 . S
C341 C343 1.406 . S
C341 C346 1.261 . S
C342 H309 0.930 . S
C342 N344 1.325 . S
C342 C345 1.357 . S
C343 H311 0.928 . S
C343 C341 1.406 . S
C343 N344 1.261 . S
N344 Co295 2.214 . S
N344 C342 1.325 . S
N344 C343 1.261 . S
C345 H315 0.931 . S
C345 C342 1.357 . S
C345 C346 1.312 . S
C346 H317 0.930 . S
C346 C341 1.261 . S
C346 C345 1.312 . S
C347 O319 1.214 . S
C347 O327 1.234 . S
C348 H320 0.929 . S
C348 C351 1.391 . S
C348 C353 1.391 . S
C349 H321 0.929 . S
C349 C350 1.390 . S
C349 N352 1.391 . S
C350 H322 0.930 . S
C350 C349 1.390 . S
C350 C351 1.392 . S
C351 H323 0.929 . S
C351 C348 1.391 . S
C351 C350 1.392 . S
N352 Co296 2.257 . S
N352 C349 1.391 . S
N352 C353 1.388 . S
C353 H324 0.930 . S
C353 C348 1.391 . S
C353 N352 1.388 . S
Co354 O356 2.143 . S
Co354 O362 2.074 . S
Co354 O365 2.093 . S
Co354 O378 2.097 . S
Co354 N395 2.151 . S
Co354 N403 2.214 . S
Co355 O356 2.160 . S
Co355 O361 2.058 . S
Co355 O371 2.057 . S
Co355 O386 2.037 . S
Co355 N390 2.145 . S
Co355 N411 2.257 . S
O356 Co354 2.143 . S
O356 Co355 2.160 . S
C357 O358 1.278 . S
C357 O365 1.224 . S
O358 C357 1.278 . S
C359 O360 1.245 . S
C359 O371 1.232 . S
O360 C359 1.245 . S
O361 Co355 2.058 . S
O361 C387 1.269 . S
O362 Co354 2.074 . S
O362 C387 1.257 . S
H363 C388 0.930 . S
H364 C394 0.930 . S
O365 Co354 2.093 . S
O365 C357 1.224 . S
H366 C398 0.929 . S
H367 C400 0.930 . S
H368 C401 0.930 . S
H369 C399 0.929 . S
H370 C402 0.928 . S
O371 Co355 2.057 . S
O371 C359 1.232 . S
H372 C391 0.929 . S
H373 C392 0.929 . S
H374 C404 0.931 . S
H375 C396 0.929 . S
H376 C405 0.930 . S
H377 C397 0.931 . S
O378 Co354 2.097 . S
O378 C406 1.214 . S
H379 C407 0.929 . S
H380 C408 0.929 . S
H381 C409 0.930 . S
H382 C410 0.929 . S
H383 C412 0.930 . S
H384 C389 0.930 . S
H385 C393 0.930 . S
O386 Co355 2.037 . S
O386 C406 1.234 . S
C387 O361 1.269 . S
C387 O362 1.257 . S
C388 H363 0.930 . S
C388 C391 1.388 . S
C388 C393 1.418 1_554 S
C389 H384 0.930 . S
C389 C392 1.404 . S
C389 C393 1.353 . S
N390 Co355 2.145 . S
N390 C391 1.397 . S
N390 C392 1.334 1_554 S
C391 H372 0.929 . S
C391 C388 1.388 . S
C391 N390 1.397 . S
C392 H373 0.929 . S
C392 C389 1.404 . S
C392 N390 1.334 1_556 S
C393 H385 0.930 . S
C393 C388 1.418 1_556 S
C393 C389 1.353 . S
C394 H364 0.930 . S
C394 N395 1.330 . S
C394 C396 1.446 . S
N395 Co354 2.151 . S
N395 C394 1.330 . S
N395 C399 1.418 . S
C396 H375 0.929 . S
C396 C394 1.446 . S
C396 C397 1.332 . S
C397 H377 0.931 . S
C397 C396 1.332 . S
C397 C398 1.267 . S
C398 H366 0.929 . S
C398 C397 1.267 . S
C398 C399 1.251 . S
C399 H369 0.929 . S
C399 N395 1.418 . S
C399 C398 1.251 . S
C400 H367 0.930 . S
C400 C402 1.406 . S
C400 C405 1.261 . S
C401 H368 0.930 . S
C401 N403 1.325 . S
C401 C404 1.357 . S
C402 H370 0.928 . S
C402 C400 1.406 . S
C402 N403 1.261 . S
N403 Co354 2.214 . S
N403 C401 1.325 . S
N403 C402 1.261 . S
C404 H374 0.931 . S
C404 C401 1.357 . S
C404 C405 1.312 . S
C405 H376 0.930 . S
C405 C400 1.261 . S
C405 C404 1.312 . S
C406 O378 1.214 . S
C406 O386 1.234 . S
C407 H379 0.929 . S
C407 C410 1.391 . S
C407 C412 1.391 . S
C408 H380 0.929 . S
C408 C409 1.390 . S
C408 N411 1.391 . S
C409 H381 0.930 . S
C409 C408 1.390 . S
C409 C410 1.392 . S
C410 H382 0.929 . S
C410 C407 1.391 . S
C410 C409 1.392 . S
N411 Co355 2.257 . S
N411 C408 1.391 . S
N411 C412 1.388 . S
C412 H383 0.930 . S
C412 C407 1.391 . S
C412 N411 1.388 . S
Co413 O415 2.143 . S
Co413 O421 2.074 . S
Co413 O424 2.093 . S
Co413 O437 2.097 . S
Co413 N454 2.151 . S
Co413 N462 2.214 . S
Co414 O415 2.160 . S
Co414 O420 2.058 . S
Co414 O430 2.057 . S
Co414 O445 2.037 . S
Co414 N449 2.145 . S
Co414 N470 2.257 . S
O415 Co413 2.143 . S
O415 Co414 2.160 . S
C416 O417 1.278 . S
C416 O424 1.224 . S
O417 C416 1.278 . S
C418 O419 1.245 . S
C418 O430 1.232 . S
O419 C418 1.245 . S
O420 Co414 2.058 . S
O420 C446 1.269 . S
O421 Co413 2.074 . S
O421 C446 1.257 . S
H422 C447 0.930 . S
H423 C453 0.930 . S
O424 Co413 2.093 . S
O424 C416 1.224 . S
H425 C457 0.929 1_545 S
H426 C459 0.930 . S
H427 C460 0.930 . S
H428 C458 0.929 . S
H429 C461 0.928 . S
O430 Co414 2.057 . S
O430 C418 1.232 . S
H431 C450 0.929 . S
H432 C451 0.929 . S
H433 C463 0.931 . S
H434 C455 0.929 . S
H435 C464 0.930 . S
H436 C456 0.932 1_545 S
O437 Co413 2.097 . S
O437 C465 1.214 . S
H438 C466 0.929 . S
H439 C467 0.929 . S
H440 C468 0.930 . S
H441 C469 0.929 . S
H442 C471 0.930 . S
H443 C448 0.930 . S
H444 C452 0.930 . S
O445 Co414 2.037 . S
O445 C465 1.234 . S
C446 O420 1.269 . S
C446 O421 1.257 . S
C447 H422 0.930 . S
C447 C450 1.388 . S
C447 C452 1.418 . S
C448 H443 0.930 . S
C448 C451 1.404 . S
C448 C452 1.353 . S
N449 Co414 2.145 . S
N449 C450 1.397 . S
N449 C451 1.334 . S
C450 H431 0.929 . S
C450 C447 1.388 . S
C450 N449 1.397 . S
C451 H432 0.929 . S
C451 C448 1.404 . S
C451 N449 1.334 . S
C452 H444 0.930 . S
C452 C447 1.418 . S
C452 C448 1.353 . S
C453 H423 0.930 . S
C453 N454 1.330 . S
C453 C455 1.446 . S
N454 Co413 2.151 . S
N454 C453 1.330 . S
N454 C458 1.418 . S
C455 H434 0.929 . S
C455 C453 1.446 . S
C455 C456 1.332 . S
C456 H436 0.932 1_565 S
C456 C455 1.332 . S
C456 C457 1.267 . S
C457 H425 0.929 1_565 S
C457 C456 1.267 . S
C457 C458 1.251 . S
C458 H428 0.929 . S
C458 N454 1.418 . S
C458 C457 1.251 . S
C459 H426 0.930 . S
C459 C461 1.406 . S
C459 C464 1.261 . S
C460 H427 0.930 . S
C460 N462 1.325 . S
C460 C463 1.357 . S
C461 H429 0.928 . S
C461 C459 1.406 . S
C461 N462 1.261 . S
N462 Co413 2.214 . S
N462 C460 1.325 . S
N462 C461 1.261 . S
C463 H433 0.931 . S
C463 C460 1.357 . S
C463 C464 1.312 . S
C464 H435 0.930 . S
C464 C459 1.261 . S
C464 C463 1.312 . S
C465 O437 1.214 . S
C465 O445 1.234 . S
C466 H438 0.929 . S
C466 C469 1.391 . S
C466 C471 1.391 . S
C467 H439 0.929 . S
C467 C468 1.390 . S
C467 N470 1.391 . S
C468 H440 0.930 . S
C468 C467 1.390 . S
C468 C469 1.392 . S
C469 H441 0.929 . S
C469 C466 1.391 . S
C469 C468 1.392 . S
N470 Co414 2.257 . S
N470 C467 1.391 . S
N470 C471 1.388 . S
C471 H442 0.930 . S
C471 C466 1.391 . S
C471 N470 1.388 . S
H472 C490 0.951 . S
H473 C492 0.951 . S
H474 C494 0.950 . S
H475 C495 0.950 . S
H476 C497 0.950 . S
H477 C500 0.950 . S
H478 C501 0.950 . S
H479 C503 0.950 . S
H480 C504 0.950 . S
H481 C505 0.951 . S
H482 C507 0.951 . S
H483 C509 0.950 . S
H484 C510 0.950 . S
H485 C512 0.950 . S
H486 C515 0.950 . S
H487 C516 0.950 . S
H488 C518 0.950 . S
H489 C519 0.950 . S
C490 H472 0.951 . S
C490 C491 1.366 . S
C490 C492 1.388 . S
C491 C490 1.366 . S
C491 C495 1.385 . S
C492 H473 0.951 . S
C492 C490 1.388 . S
C492 C493 1.366 . S
C493 C492 1.366 . S
C493 C494 1.414 . S
C493 C496 1.499 . S
C494 H474 0.950 . S
C494 C493 1.414 . S
C494 C495 1.374 . S
C495 H475 0.950 . S
C495 C491 1.385 . S
C495 C494 1.374 . S
C496 C493 1.499 . S
C496 C497 1.373 . S
C496 C498 1.389 . S
C497 H476 0.950 . S
C497 C496 1.373 . S
C497 C513 1.377 . S
C498 C496 1.389 . S
C498 C499 1.524 . S
C498 C512 1.377 . S
C499 C498 1.524 . S
C499 C500 1.397 . S
C499 C504 1.363 . S
C500 H477 0.950 . S
C500 C499 1.397 . S
C500 C501 1.334 . S
C501 H478 0.950 . S
C501 C500 1.334 . S
C501 C502 1.287 . S
C502 C501 1.287 . S
C502 C503 1.524 . S
C502 H521 0.913 . S
C503 H479 0.950 . S
C503 C502 1.524 . S
C503 C504 1.415 . S
C504 H480 0.950 . S
C504 C499 1.363 . S
C504 C503 1.415 . S
C505 H481 0.951 . S
C505 C506 1.366 . S
C505 C507 1.388 . S
C506 C505 1.366 . S
C506 C510 1.385 . S
C507 H482 0.951 . S
C507 C505 1.388 . S
C507 C508 1.366 . S
C508 C507 1.366 . S
C508 C509 1.414 . S
C508 C511 1.499 . S
C509 H483 0.950 . S
C509 C508 1.414 . S
C509 C510 1.374 . S
C510 H484 0.950 . S
C510 C506 1.385 . S
C510 C509 1.374 . S
C511 C508 1.499 . S
C511 C512 1.373 . S
C511 C513 1.389 . S
C512 H485 0.950 . S
C512 C498 1.377 . S
C512 C511 1.373 . S
C513 C497 1.377 . S
C513 C511 1.389 . S
C513 C514 1.524 . S
C514 C513 1.524 . S
C514 C515 1.397 . S
C514 C519 1.363 . S
C515 H486 0.950 . S
C515 C514 1.397 . S
C515 C516 1.334 . S
C516 H487 0.950 . S
C516 C515 1.334 . S
C516 C517 1.287 . S
C517 C516 1.287 . S
C517 C518 1.524 . S
C517 H520 0.999 . S
C518 H488 0.950 . S
C518 C517 1.524 . S
C518 C519 1.415 . S
C519 H489 0.950 . S
C519 C514 1.363 . S
C519 C518 1.415 . S
H520 C517 0.999 . S
H521 C502 0.913 . S
H522 C540 0.951 . S
H523 C542 0.951 . S
H524 C544 0.950 . S
H525 C545 0.950 . S
H526 C547 0.950 . S
H527 C550 0.950 . S
H528 C551 0.950 . S
H529 C553 0.950 . S
H530 C554 0.950 . S
H531 C555 0.951 . S
H532 C557 0.951 . S
H533 C559 0.950 . S
H534 C560 0.950 . S
H535 C562 0.950 . S
H536 C565 0.950 . S
H537 C566 0.950 . S
H538 C568 0.950 . S
H539 C569 0.950 . S
C540 H522 0.951 . S
C540 C541 1.366 . S
C540 C542 1.388 . S
C541 C540 1.366 . S
C541 C545 1.385 . S
C542 H523 0.951 . S
C542 C540 1.388 . S
C542 C543 1.366 . S
C543 C542 1.366 . S
C543 C544 1.414 . S
C543 C546 1.499 . S
C544 H524 0.950 . S
C544 C543 1.414 . S
C544 C545 1.374 . S
C545 H525 0.950 . S
C545 C541 1.385 . S
C545 C544 1.374 . S
C546 C543 1.499 . S
C546 C547 1.373 . S
C546 C548 1.389 . S
C547 H526 0.950 . S
C547 C546 1.373 . S
C547 C563 1.377 . S
C548 C546 1.389 . S
C548 C549 1.524 . S
C548 C562 1.377 . S
C549 C548 1.524 . S
C549 C550 1.397 . S
C549 C554 1.363 . S
C550 H527 0.950 . S
C550 C549 1.397 . S
C550 C551 1.334 . S
C551 H528 0.950 . S
C551 C550 1.334 . S
C551 C552 1.287 . S
C552 C551 1.287 . S
C552 C553 1.524 . S
C552 H571 0.913 . S
C553 H529 0.950 . S
C553 C552 1.524 . S
C553 C554 1.415 . S
C554 H530 0.950 . S
C554 C549 1.363 . S
C554 C553 1.415 . S
C555 H531 0.951 . S
C555 C556 1.366 . S
C555 C557 1.388 . S
C556 C555 1.366 . S
C556 C560 1.385 . S
C557 H532 0.951 . S
C557 C555 1.388 . S
C557 C558 1.366 . S
C558 C557 1.366 . S
C558 C559 1.414 . S
C558 C561 1.499 . S
C559 H533 0.950 . S
C559 C558 1.414 . S
C559 C560 1.374 . S
C560 H534 0.950 . S
C560 C556 1.385 . S
C560 C559 1.374 . S
C561 C558 1.499 . S
C561 C562 1.373 . S
C561 C563 1.389 . S
C562 H535 0.950 . S
C562 C548 1.377 . S
C562 C561 1.373 . S
C563 C547 1.377 . S
C563 C561 1.389 . S
C563 C564 1.524 . S
C564 C563 1.524 . S
C564 C565 1.397 . S
C564 C569 1.363 . S
C565 H536 0.950 . S
C565 C564 1.397 . S
C565 C566 1.334 . S
C566 H537 0.950 . S
C566 C565 1.334 . S
C566 C567 1.287 . S
C567 C566 1.287 . S
C567 C568 1.524 . S
C567 H570 0.999 . S
C568 H538 0.950 . S
C568 C567 1.524 . S
C568 C569 1.415 . S
C569 H539 0.950 . S
C569 C564 1.363 . S
C569 C568 1.415 . S
H570 C567 0.999 . S
H571 C552 0.913 . S
H572 C590 0.951 . S
H573 C592 0.951 . S
H574 C594 0.950 . S
H575 C595 0.950 . S
H576 C597 0.950 . S
H577 C600 0.950 . S
H578 C601 0.950 . S
H579 C603 0.950 . S
H580 C604 0.950 . S
H581 C605 0.951 . S
H582 C607 0.951 . S
H583 C609 0.950 . S
H584 C610 0.950 1_556 S
H585 C612 0.950 . S
H586 C615 0.950 . S
H587 C616 0.950 . S
H588 C618 0.950 . S
H589 C619 0.950 . S
C590 H572 0.951 . S
C590 C591 1.366 . S
C590 C592 1.388 . S
C591 C590 1.366 . S
C591 C595 1.385 . S
C592 H573 0.951 . S
C592 C590 1.388 . S
C592 C593 1.366 . S
C593 C592 1.366 . S
C593 C594 1.414 . S
C593 C596 1.499 . S
C594 H574 0.950 . S
C594 C593 1.414 . S
C594 C595 1.374 . S
C595 H575 0.950 . S
C595 C591 1.385 . S
C595 C594 1.374 . S
C596 C593 1.499 . S
C596 C597 1.373 . S
C596 C598 1.389 . S
C597 H576 0.950 . S
C597 C596 1.373 . S
C597 C613 1.377 . S
C598 C596 1.389 . S
C598 C599 1.524 . S
C598 C612 1.377 . S
C599 C598 1.524 . S
C599 C600 1.397 . S
C599 C604 1.363 . S
C600 H577 0.950 . S
C600 C599 1.397 . S
C600 C601 1.334 . S
C601 H578 0.950 . S
C601 C600 1.334 . S
C601 C602 1.287 . S
C602 C601 1.287 . S
C602 C603 1.524 . S
C602 H621 0.913 . S
C603 H579 0.950 . S
C603 C602 1.524 . S
C603 C604 1.415 . S
C604 H580 0.950 . S
C604 C599 1.363 . S
C604 C603 1.415 . S
C605 H581 0.951 . S
C605 C606 1.366 . S
C605 C607 1.388 . S
C606 C605 1.366 . S
C606 C610 1.385 . S
C607 H582 0.951 . S
C607 C605 1.388 . S
C607 C608 1.366 . S
C608 C607 1.366 . S
C608 C609 1.414 . S
C608 C611 1.499 . S
C609 H583 0.950 . S
C609 C608 1.414 . S
C609 C610 1.374 . S
C610 H584 0.950 1_554 S
C610 C606 1.385 . S
C610 C609 1.374 . S
C611 C608 1.499 . S
C611 C612 1.373 . S
C611 C613 1.389 . S
C612 H585 0.950 . S
C612 C598 1.377 . S
C612 C611 1.373 . S
C613 C597 1.377 . S
C613 C611 1.389 . S
C613 C614 1.524 . S
C614 C613 1.524 . S
C614 C615 1.397 . S
C614 C619 1.363 . S
C615 H586 0.950 . S
C615 C614 1.397 . S
C615 C616 1.334 . S
C616 H587 0.950 . S
C616 C615 1.334 . S
C616 C617 1.287 . S
C617 C616 1.287 . S
C617 C618 1.524 . S
C617 H620 0.999 . S
C618 H588 0.950 . S
C618 C617 1.524 . S
C618 C619 1.415 . S
C619 H589 0.950 . S
C619 C614 1.363 . S
C619 C618 1.415 . S
H620 C617 0.999 . S
H621 C602 0.913 . S
H622 C640 0.951 . S
H623 C642 0.951 . S
H624 C644 0.950 . S
H625 C645 0.950 . S
H626 C647 0.950 . S
H627 C650 0.950 . S
H628 C651 0.950 . S
H629 C653 0.950 . S
H630 C654 0.950 . S
H631 C655 0.951 . S
H632 C657 0.951 . S
H633 C659 0.950 . S
H634 C660 0.950 . S
H635 C662 0.950 . S
H636 C665 0.950 . S
H637 C666 0.950 . S
H638 C668 0.950 . S
H639 C669 0.950 . S
C640 H622 0.951 . S
C640 C641 1.366 . S
C640 C642 1.388 . S
C641 C640 1.366 . S
C641 C645 1.385 . S
C642 H623 0.951 . S
C642 C640 1.388 . S
C642 C643 1.366 . S
C643 C642 1.366 . S
C643 C644 1.414 . S
C643 C646 1.499 . S
C644 H624 0.950 . S
C644 C643 1.414 . S
C644 C645 1.374 . S
C645 H625 0.950 . S
C645 C641 1.385 . S
C645 C644 1.374 . S
C646 C643 1.499 . S
C646 C647 1.373 . S
C646 C648 1.389 . S
C647 H626 0.950 . S
C647 C646 1.373 . S
C647 C663 1.377 . S
C648 C646 1.389 . S
C648 C649 1.524 . S
C648 C662 1.377 . S
C649 C648 1.524 . S
C649 C650 1.397 . S
C649 C654 1.363 . S
C650 H627 0.950 . S
C650 C649 1.397 . S
C650 C651 1.334 . S
C651 H628 0.950 . S
C651 C650 1.334 . S
C651 C652 1.287 . S
C652 C651 1.287 . S
C652 C653 1.524 . S
C652 H671 0.913 . S
C653 H629 0.950 . S
C653 C652 1.524 . S
C653 C654 1.415 . S
C654 H630 0.950 . S
C654 C649 1.363 . S
C654 C653 1.415 . S
C655 H631 0.951 . S
C655 C656 1.366 . S
C655 C657 1.388 . S
C656 C655 1.366 . S
C656 C660 1.385 . S
C657 H632 0.951 . S
C657 C655 1.388 . S
C657 C658 1.366 . S
C658 C657 1.366 . S
C658 C659 1.414 . S
C658 C661 1.499 . S
C659 H633 0.950 . S
C659 C658 1.414 . S
C659 C660 1.374 . S
C660 H634 0.950 . S
C660 C656 1.385 . S
C660 C659 1.374 . S
C661 C658 1.499 . S
C661 C662 1.373 . S
C661 C663 1.389 . S
C662 H635 0.950 . S
C662 C648 1.377 . S
C662 C661 1.373 . S
C663 C647 1.377 . S
C663 C661 1.389 . S
C663 C664 1.524 . S
C664 C663 1.524 . S
C664 C665 1.397 . S
C664 C669 1.363 . S
C665 H636 0.950 . S
C665 C664 1.397 . S
C665 C666 1.334 . S
C666 H637 0.950 . S
C666 C665 1.334 . S
C666 C667 1.287 . S
C667 C666 1.287 . S
C667 C668 1.524 . S
C667 H670 0.999 . S
C668 H638 0.950 . S
C668 C667 1.524 . S
C668 C669 1.415 . S
C669 H639 0.950 . S
C669 C664 1.363 . S
C669 C668 1.415 . S
H670 C667 0.999 . S
H671 C652 0.913 . S
H672 C690 0.930 1_556 S
H673 C692 0.951 . S
H674 C694 0.950 . S
H675 C695 0.950 . S
H676 C697 0.950 . S
H677 C700 0.950 . S
H678 C701 0.933 1_556 S
H679 C703 0.950 . S
H680 C704 0.950 . S
H681 C705 0.951 . S
H682 C707 0.951 . S
H683 C709 0.950 . S
H684 C710 0.950 . S
H685 C712 0.950 . S
H686 C715 0.950 . S
H687 C716 0.950 . S
H688 C718 0.950 . S
H689 C719 0.950 . S
C690 H672 0.930 1_554 S
C690 C691 1.366 . S
C690 C692 1.388 . S
C691 C690 1.366 . S
C691 C695 1.385 . S
C692 H673 0.951 . S
C692 C690 1.388 . S
C692 C693 1.366 . S
C693 C692 1.366 . S
C693 C694 1.414 . S
C693 C696 1.499 . S
C694 H674 0.950 . S
C694 C693 1.414 . S
C694 C695 1.374 . S
C695 H675 0.950 . S
C695 C691 1.385 . S
C695 C694 1.374 . S
C696 C693 1.499 . S
C696 C697 1.373 . S
C696 C698 1.389 . S
C697 H676 0.950 . S
C697 C696 1.373 . S
C697 C713 1.377 . S
C698 C696 1.389 . S
C698 C699 1.524 . S
C698 C712 1.377 . S
C699 C698 1.524 . S
C699 C700 1.397 . S
C699 C704 1.363 . S
C700 H677 0.950 . S
C700 C699 1.397 . S
C700 C701 1.334 . S
C701 H678 0.933 1_554 S
C701 C700 1.334 . S
C701 C702 1.287 . S
C702 C701 1.287 . S
C702 C703 1.524 . S
C702 H721 0.913 1_554 S
C703 H679 0.950 . S
C703 C702 1.524 . S
C703 C704 1.415 . S
C704 H680 0.950 . S
C704 C699 1.363 . S
C704 C703 1.415 . S
C705 H681 0.951 . S
C705 C706 1.366 . S
C705 C707 1.388 . S
C706 C705 1.366 . S
C706 C710 1.385 . S
C707 H682 0.951 . S
C707 C705 1.388 . S
C707 C708 1.366 . S
C708 C707 1.366 . S
C708 C709 1.414 . S
C708 C711 1.499 . S
C709 H683 0.950 . S
C709 C708 1.414 . S
C709 C710 1.374 . S
C710 H684 0.950 . S
C710 C706 1.385 . S
C710 C709 1.374 . S
C711 C708 1.499 . S
C711 C712 1.373 . S
C711 C713 1.389 . S
C712 H685 0.950 . S
C712 C698 1.377 . S
C712 C711 1.373 . S
C713 C697 1.377 . S
C713 C711 1.389 . S
C713 C714 1.524 . S
C714 C713 1.524 . S
C714 C715 1.397 . S
C714 C719 1.363 . S
C715 H686 0.950 . S
C715 C714 1.397 . S
C715 C716 1.334 . S
C716 H687 0.950 . S
C716 C715 1.334 . S
C716 C717 1.287 . S
C717 C716 1.287 . S
C717 C718 1.524 . S
C717 H720 0.999 . S
C718 H688 0.950 . S
C718 C717 1.524 . S
C718 C719 1.415 . S
C719 H689 0.950 . S
C719 C714 1.363 . S
C719 C718 1.415 . S
H720 C717 0.999 . S
H721 C702 0.913 1_556 S
H722 C740 0.951 . S
H723 C742 0.951 . S
H724 C744 0.950 . S
H725 C745 0.950 . S
H726 C747 0.950 . S
H727 C750 0.950 . S
H728 C751 0.950 . S
H729 C753 0.950 . S
H730 C754 0.950 . S
H731 C755 0.951 . S
H732 C757 0.951 . S
H733 C759 0.950 . S
H734 C760 0.950 . S
H735 C762 0.950 . S
H736 C765 0.950 . S
H737 C766 0.950 . S
H738 C768 0.950 . S
H739 C769 0.950 . S
C740 H722 0.951 . S
C740 C741 1.366 . S
C740 C742 1.388 . S
C741 C740 1.366 . S
C741 C745 1.385 . S
C742 H723 0.951 . S
C742 C740 1.388 . S
C742 C743 1.366 . S
C743 C742 1.366 . S
C743 C744 1.414 . S
C743 C746 1.499 . S
C744 H724 0.950 . S
C744 C743 1.414 . S
C744 C745 1.374 . S
C745 H725 0.950 . S
C745 C741 1.385 . S
C745 C744 1.374 . S
C746 C743 1.499 . S
C746 C747 1.373 . S
C746 C748 1.389 . S
C747 H726 0.950 . S
C747 C746 1.373 . S
C747 C763 1.377 . S
C748 C746 1.389 . S
C748 C749 1.524 . S
C748 C762 1.377 . S
C749 C748 1.524 . S
C749 C750 1.397 . S
C749 C754 1.363 . S
C750 H727 0.950 . S
C750 C749 1.397 . S
C750 C751 1.334 . S
C751 H728 0.950 . S
C751 C750 1.334 . S
C751 C752 1.287 . S
C752 C751 1.287 . S
C752 C753 1.524 . S
C752 H771 0.913 . S
C753 H729 0.950 . S
C753 C752 1.524 . S
C753 C754 1.415 . S
C754 H730 0.950 . S
C754 C749 1.363 . S
C754 C753 1.415 . S
C755 H731 0.951 . S
C755 C756 1.366 . S
C755 C757 1.388 . S
C756 C755 1.366 . S
C756 C760 1.385 . S
C757 H732 0.951 . S
C757 C755 1.388 . S
C757 C758 1.366 . S
C758 C757 1.366 . S
C758 C759 1.414 . S
C758 C761 1.499 . S
C759 H733 0.950 . S
C759 C758 1.414 . S
C759 C760 1.374 . S
C760 H734 0.950 . S
C760 C756 1.385 . S
C760 C759 1.374 . S
C761 C758 1.499 . S
C761 C762 1.373 . S
C761 C763 1.389 . S
C762 H735 0.950 . S
C762 C748 1.377 . S
C762 C761 1.373 . S
C763 C747 1.377 . S
C763 C761 1.389 . S
C763 C764 1.524 . S
C764 C763 1.524 . S
C764 C765 1.397 . S
C764 C769 1.363 . S
C765 H736 0.950 . S
C765 C764 1.397 . S
C765 C766 1.334 . S
C766 H737 0.950 . S
C766 C765 1.334 . S
C766 C767 1.287 . S
C767 C766 1.287 . S
C767 C768 1.524 . S
C767 H770 0.999 . S
C768 H738 0.950 . S
C768 C767 1.524 . S
C768 C769 1.415 . S
C769 H739 0.950 . S
C769 C764 1.363 . S
C769 C768 1.415 . S
H770 C767 0.999 . S
H771 C752 0.913 . S
H772 C790 0.951 . S
H773 C792 0.951 . S
H774 C794 0.950 . S
H775 C795 0.950 . S
H776 C797 0.950 . S
H777 C800 0.950 . S
H778 C801 0.950 . S
H779 C803 0.950 . S
H780 C804 0.950 . S
H781 C805 0.951 . S
H782 C807 0.951 . S
H783 C809 0.950 . S
H784 C810 0.950 . S
H785 C812 0.950 . S
H786 C815 0.950 . S
H787 C816 0.950 . S
H788 C818 0.950 . S
H789 C819 0.950 . S
C790 H772 0.951 . S
C790 C791 1.366 . S
C790 C792 1.388 . S
C791 C790 1.366 . S
C791 C795 1.385 . S
C792 H773 0.951 . S
C792 C790 1.388 . S
C792 C793 1.366 . S
C793 C792 1.366 . S
C793 C794 1.414 . S
C793 C796 1.499 . S
C794 H774 0.950 . S
C794 C793 1.414 . S
C794 C795 1.374 . S
C795 H775 0.950 . S
C795 C791 1.385 . S
C795 C794 1.374 . S
C796 C793 1.499 . S
C796 C797 1.373 . S
C796 C798 1.389 . S
C797 H776 0.950 . S
C797 C796 1.373 . S
C797 C813 1.377 . S
C798 C796 1.389 . S
C798 C799 1.524 . S
C798 C812 1.377 . S
C799 C798 1.524 . S
C799 C800 1.397 . S
C799 C804 1.363 . S
C800 H777 0.950 . S
C800 C799 1.397 . S
C800 C801 1.334 . S
C801 H778 0.950 . S
C801 C800 1.334 . S
C801 C802 1.287 . S
C802 C801 1.287 . S
C802 C803 1.524 . S
C802 H821 0.913 . S
C803 H779 0.950 . S
C803 C802 1.524 . S
C803 C804 1.415 . S
C804 H780 0.950 . S
C804 C799 1.363 . S
C804 C803 1.415 . S
C805 H781 0.951 . S
C805 C806 1.366 . S
C805 C807 1.388 . S
C806 C805 1.366 . S
C806 C810 1.385 . S
C807 H782 0.951 . S
C807 C805 1.388 . S
C807 C808 1.366 . S
C808 C807 1.366 . S
C808 C809 1.414 . S
C808 C811 1.499 . S
C809 H783 0.950 . S
C809 C808 1.414 . S
C809 C810 1.374 . S
C810 H784 0.950 . S
C810 C806 1.385 . S
C810 C809 1.374 . S
C811 C808 1.499 . S
C811 C812 1.373 . S
C811 C813 1.389 . S
C812 H785 0.950 . S
C812 C798 1.377 . S
C812 C811 1.373 . S
C813 C797 1.377 . S
C813 C811 1.389 . S
C813 C814 1.524 . S
C814 C813 1.524 . S
C814 C815 1.397 . S
C814 C819 1.363 . S
C815 H786 0.950 . S
C815 C814 1.397 . S
C815 C816 1.334 . S
C816 H787 0.950 . S
C816 C815 1.334 . S
C816 C817 1.287 . S
C817 C816 1.287 . S
C817 C818 1.524 . S
C817 H820 0.999 . S
C818 H788 0.950 . S
C818 C817 1.524 . S
C818 C819 1.415 . S
C819 H789 0.950 . S
C819 C814 1.363 . S
C819 C818 1.415 . S
H820 C817 0.999 . S
H821 C802 0.913 . S
H822 C840 0.951 . S
H823 C842 0.951 . S
H824 C844 0.950 . S
H825 C845 0.950 . S
H826 C847 0.950 . S
H827 C850 0.950 . S
H828 C851 0.950 . S
H829 C853 0.950 . S
H830 C854 0.950 . S
H831 C855 0.951 . S
H832 C857 0.951 . S
H833 C859 0.950 . S
H834 C860 0.950 . S
H835 C862 0.950 . S
H836 C865 0.950 . S
H837 C866 0.950 . S
H838 C868 0.950 . S
H839 C869 0.950 . S
C840 H822 0.951 . S
C840 C841 1.366 . S
C840 C842 1.388 . S
C841 C840 1.366 . S
C841 C845 1.385 . S
C842 H823 0.951 . S
C842 C840 1.388 . S
C842 C843 1.366 . S
C843 C842 1.366 . S
C843 C844 1.414 . S
C843 C846 1.499 . S
C844 H824 0.950 . S
C844 C843 1.414 . S
C844 C845 1.374 . S
C845 H825 0.950 . S
C845 C841 1.385 . S
C845 C844 1.374 . S
C846 C843 1.499 . S
C846 C847 1.373 . S
C846 C848 1.389 . S
C847 H826 0.950 . S
C847 C846 1.373 . S
C847 C863 1.377 . S
C848 C846 1.389 . S
C848 C849 1.524 . S
C848 C862 1.377 . S
C849 C848 1.524 . S
C849 C850 1.397 . S
C849 C854 1.363 . S
C850 H827 0.950 . S
C850 C849 1.397 . S
C850 C851 1.334 . S
C851 H828 0.950 . S
C851 C850 1.334 . S
C851 C852 1.287 . S
C852 C851 1.287 . S
C852 C853 1.524 . S
C852 H871 0.913 . S
C853 H829 0.950 . S
C853 C852 1.524 . S
C853 C854 1.415 . S
C854 H830 0.950 . S
C854 C849 1.363 . S
C854 C853 1.415 . S
C855 H831 0.951 . S
C855 C856 1.366 . S
C855 C857 1.388 . S
C856 C855 1.366 . S
C856 C860 1.385 . S
C857 H832 0.951 . S
C857 C855 1.388 . S
C857 C858 1.366 . S
C858 C857 1.366 . S
C858 C859 1.414 . S
C858 C861 1.499 . S
C859 H833 0.950 . S
C859 C858 1.414 . S
C859 C860 1.374 . S
C860 H834 0.950 . S
C860 C856 1.385 . S
C860 C859 1.374 . S
C861 C858 1.499 . S
C861 C862 1.373 . S
C861 C863 1.389 . S
C862 H835 0.950 . S
C862 C848 1.377 . S
C862 C861 1.373 . S
C863 C847 1.377 . S
C863 C861 1.389 . S
C863 C864 1.524 . S
C864 C863 1.524 . S
C864 C865 1.397 . S
C864 C869 1.363 . S
C865 H836 0.950 . S
C865 C864 1.397 . S
C865 C866 1.334 . S
C866 H837 0.950 . S
C866 C865 1.334 . S
C866 C867 1.287 . S
C867 C866 1.287 . S
C867 C868 1.524 . S
C867 H870 0.999 . S
C868 H838 0.950 . S
C868 C867 1.524 . S
C868 C869 1.415 . S
C869 H839 0.950 . S
C869 C864 1.363 . S
C869 C868 1.415 . S
H870 C867 0.999 . S
H871 C852 0.913 . S
H872 C890 0.951 . S
H873 C892 0.951 . S
H874 C894 0.950 . S
H875 C895 0.950 . S
H876 C897 0.950 . S
H877 C900 0.950 . S
H878 C901 0.950 . S
H879 C903 0.950 . S
H880 C904 0.950 . S
H881 C905 0.951 . S
H882 C907 0.951 . S
H883 C909 0.950 . S
H884 C910 0.950 . S
H885 C912 0.950 . S
H886 C915 0.950 . S
H887 C916 0.950 . S
H888 C918 0.950 . S
H889 C919 0.950 . S
C890 H872 0.951 . S
C890 C891 1.366 . S
C890 C892 1.388 . S
C891 C890 1.366 . S
C891 C895 1.385 . S
C892 H873 0.951 . S
C892 C890 1.388 . S
C892 C893 1.366 . S
C893 C892 1.366 . S
C893 C894 1.414 . S
C893 C896 1.499 . S
C894 H874 0.950 . S
C894 C893 1.414 . S
C894 C895 1.374 . S
C895 H875 0.950 . S
C895 C891 1.385 . S
C895 C894 1.374 . S
C896 C893 1.499 . S
C896 C897 1.373 . S
C896 C898 1.389 . S
C897 H876 0.950 . S
C897 C896 1.373 . S
C897 C913 1.377 1_455 S
C898 C896 1.389 . S
C898 C899 1.524 . S
C898 C912 1.377 1_455 S
C899 C898 1.524 . S
C899 C900 1.397 . S
C899 C904 1.363 . S
C900 H877 0.950 . S
C900 C899 1.397 . S
C900 C901 1.334 . S
C901 H878 0.950 . S
C901 C900 1.334 . S
C901 C902 1.287 . S
C902 C901 1.287 . S
C902 C903 1.524 . S
C902 H921 0.913 . S
C903 H879 0.950 . S
C903 C902 1.524 . S
C903 C904 1.415 . S
C904 H880 0.950 . S
C904 C899 1.363 . S
C904 C903 1.415 . S
C905 H881 0.951 . S
C905 C906 1.366 . S
C905 C907 1.388 . S
C906 C905 1.366 . S
C906 C910 1.385 . S
C907 H882 0.951 . S
C907 C905 1.388 . S
C907 C908 1.366 . S
C908 C907 1.366 . S
C908 C909 1.414 . S
C908 C911 1.499 . S
C909 H883 0.950 . S
C909 C908 1.414 . S
C909 C910 1.374 . S
C910 H884 0.950 . S
C910 C906 1.385 . S
C910 C909 1.374 . S
C911 C908 1.499 . S
C911 C912 1.373 . S
C911 C913 1.389 . S
C912 H885 0.950 . S
C912 C898 1.377 1_655 S
C912 C911 1.373 . S
C913 C897 1.377 1_655 S
C913 C911 1.389 . S
C913 C914 1.524 . S
C914 C913 1.524 . S
C914 C915 1.397 . S
C914 C919 1.363 . S
C915 H886 0.950 . S
C915 C914 1.397 . S
C915 C916 1.334 . S
C916 H887 0.950 . S
C916 C915 1.334 . S
C916 C917 1.287 . S
C917 C916 1.287 . S
C917 C918 1.524 . S
C917 H920 0.999 . S
C918 H888 0.950 . S
C918 C917 1.524 . S
C918 C919 1.415 . S
C919 H889 0.950 . S
C919 C914 1.363 . S
C919 C918 1.415 . S
H920 C917 0.999 . S
H921 C902 0.913 . S
H922 C940 0.951 . S
H923 C942 0.951 . S
H924 C944 0.950 . S
H925 C945 0.950 . S
H926 C947 0.950 . S
H927 C950 0.950 . S
H928 C951 0.950 . S
H929 C953 0.950 . S
H930 C954 0.950 . S
H931 C955 0.951 . S
H932 C957 0.951 . S
H933 C959 0.950 . S
H934 C960 0.950 . S
H935 C962 0.950 . S
H936 C965 0.950 . S
H937 C966 0.950 . S
H938 C968 0.950 . S
H939 C969 0.950 . S
C940 H922 0.951 . S
C940 C941 1.366 . S
C940 C942 1.388 . S
C941 C940 1.366 . S
C941 C945 1.385 . S
C942 H923 0.951 . S
C942 C940 1.388 . S
C942 C943 1.366 . S
C943 C942 1.366 . S
C943 C944 1.414 . S
C943 C946 1.499 . S
C944 H924 0.950 . S
C944 C943 1.414 . S
C944 C945 1.374 . S
C945 H925 0.950 . S
C945 C941 1.385 . S
C945 C944 1.374 . S
C946 C943 1.499 . S
C946 C947 1.373 . S
C946 C948 1.389 . S
C947 H926 0.950 . S
C947 C946 1.373 . S
C947 C963 1.377 . S
C948 C946 1.389 . S
C948 C949 1.524 . S
C948 C962 1.377 . S
C949 C948 1.524 . S
C949 C950 1.397 . S
C949 C954 1.363 . S
C950 H927 0.950 . S
C950 C949 1.397 . S
C950 C951 1.334 . S
C951 H928 0.950 . S
C951 C950 1.334 . S
C951 C952 1.287 . S
C952 C951 1.287 . S
C952 C953 1.524 . S
C952 H971 0.913 . S
C953 H929 0.950 . S
C953 C952 1.524 . S
C953 C954 1.415 . S
C954 H930 0.950 . S
C954 C949 1.363 . S
C954 C953 1.415 . S
C955 H931 0.951 . S
C955 C956 1.366 . S
C955 C957 1.388 . S
C956 C955 1.366 . S
C956 C960 1.385 . S
C957 H932 0.951 . S
C957 C955 1.388 . S
C957 C958 1.366 . S
C958 C957 1.366 . S
C958 C959 1.414 . S
C958 C961 1.499 . S
C959 H933 0.950 . S
C959 C958 1.414 . S
C959 C960 1.374 . S
C960 H934 0.950 . S
C960 C956 1.385 . S
C960 C959 1.374 . S
C961 C958 1.499 . S
C961 C962 1.373 . S
C961 C963 1.389 . S
C962 H935 0.950 . S
C962 C948 1.377 . S
C962 C961 1.373 . S
C963 C947 1.377 . S
C963 C961 1.389 . S
C963 C964 1.524 . S
C964 C963 1.524 . S
C964 C965 1.397 . S
C964 C969 1.363 . S
C965 H936 0.950 . S
C965 C964 1.397 . S
C965 C966 1.334 . S
C966 H937 0.950 . S
C966 C965 1.334 . S
C966 C967 1.287 . S
C967 C966 1.287 . S
C967 C968 1.524 . S
C967 H970 0.999 . S
C968 H938 0.950 . S
C968 C967 1.524 . S
C968 C969 1.415 . S
C969 H939 0.950 . S
C969 C964 1.363 . S
C969 C968 1.415 . S
H970 C967 0.999 . S
H971 C952 0.913 . S
H972 C990 0.951 . S
H973 C992 0.951 . S
H974 C994 0.950 . S
H975 C995 0.950 . S
H976 C997 0.950 . S
H977 C1000 0.950 . S
H978 C1001 0.950 . S
H979 C1003 0.950 1_655 S
H980 C1004 0.950 . S
H981 C1005 0.951 . S
H982 C1007 0.951 . S
H983 C1009 0.950 . S
H984 C1010 0.950 . S
H985 C1012 0.950 . S
H986 C1015 0.950 . S
H987 C1016 0.950 . S
H988 C1018 0.950 1_455 S
H989 C1019 0.950 . S
C990 H972 0.951 . S
C990 C991 1.366 . S
C990 C992 1.388 . S
C991 C990 1.366 . S
C991 C995 1.385 . S
C992 H973 0.951 . S
C992 C990 1.388 . S
C992 C993 1.366 . S
C993 C992 1.366 . S
C993 C994 1.414 . S
C993 C996 1.499 . S
C994 H974 0.950 . S
C994 C993 1.414 . S
C994 C995 1.374 . S
C995 H975 0.950 . S
C995 C991 1.385 . S
C995 C994 1.374 . S
C996 C993 1.499 . S
C996 C997 1.373 . S
C996 C998 1.389 . S
C997 H976 0.950 . S
C997 C996 1.373 . S
C997 C1013 1.377 1_455 S
C998 C996 1.389 . S
C998 C999 1.524 . S
C998 C1012 1.377 1_455 S
C999 C998 1.524 . S
C999 C1000 1.397 . S
C999 C1004 1.363 1_455 S
C1000 H977 0.950 . S
C1000 C999 1.397 . S
C1000 C1001 1.334 . S
C1001 H978 0.950 . S
C1001 C1000 1.334 . S
C1001 C1002 1.287 . S
C1002 C1001 1.287 . S
C1002 C1003 1.524 . S
C1002 H1021 0.913 . S
C1003 H979 0.950 1_455 S
C1003 C1002 1.524 . S
C1003 C1004 1.415 1_455 S
C1004 H980 0.950 . S
C1004 C999 1.363 1_655 S
C1004 C1003 1.415 1_655 S
C1005 H981 0.951 . S
C1005 C1006 1.366 . S
C1005 C1007 1.388 . S
C1006 C1005 1.366 . S
C1006 C1010 1.385 . S
C1007 H982 0.951 . S
C1007 C1005 1.388 . S
C1007 C1008 1.366 . S
C1008 C1007 1.366 . S
C1008 C1009 1.414 . S
C1008 C1011 1.499 . S
C1009 H983 0.950 . S
C1009 C1008 1.414 . S
C1009 C1010 1.374 . S
C1010 H984 0.950 . S
C1010 C1006 1.385 . S
C1010 C1009 1.374 . S
C1011 C1008 1.499 . S
C1011 C1012 1.373 . S
C1011 C1013 1.389 . S
C1012 H985 0.950 . S
C1012 C998 1.377 1_655 S
C1012 C1011 1.373 . S
C1013 C997 1.377 1_655 S
C1013 C1011 1.389 . S
C1013 C1014 1.524 . S
C1014 C1013 1.524 . S
C1014 C1015 1.397 . S
C1014 C1019 1.363 1_655 S
C1015 H986 0.950 . S
C1015 C1014 1.397 . S
C1015 C1016 1.334 . S
C1016 H987 0.950 . S
C1016 C1015 1.334 . S
C1016 C1017 1.287 . S
C1017 C1016 1.287 . S
C1017 C1018 1.524 . S
C1017 H1020 0.999 . S
C1018 H988 0.950 1_655 S
C1018 C1017 1.524 . S
C1018 C1019 1.415 1_655 S
C1019 H989 0.950 . S
C1019 C1014 1.363 1_455 S
C1019 C1018 1.415 1_455 S
H1020 C1017 0.999 . S
H1021 C1002 0.913 . S
H1022 C1040 0.951 . S
H1023 C1042 0.951 . S
H1024 C1044 0.950 . S
H1025 C1045 0.950 . S
H1026 C1047 0.950 . S
H1027 C1050 0.950 . S
H1028 C1051 0.950 . S
H1029 C1053 0.950 . S
H1030 C1054 0.950 . S
H1031 C1055 0.951 . S
H1032 C1057 0.951 . S
H1033 C1059 0.950 . S
H1034 C1060 0.950 . S
H1035 C1062 0.950 . S
H1036 C1065 0.950 . S
H1037 C1066 0.950 . S
H1038 C1068 0.950 . S
H1039 C1069 0.950 . S
C1040 H1022 0.951 . S
C1040 C1041 1.366 . S
C1040 C1042 1.388 . S
C1041 C1040 1.366 . S
C1041 C1045 1.385 . S
C1042 H1023 0.951 . S
C1042 C1040 1.388 . S
C1042 C1043 1.366 . S
C1043 C1042 1.366 . S
C1043 C1044 1.414 . S
C1043 C1046 1.499 . S
C1044 H1024 0.950 . S
C1044 C1043 1.414 . S
C1044 C1045 1.374 . S
C1045 H1025 0.950 . S
C1045 C1041 1.385 . S
C1045 C1044 1.374 . S
C1046 C1043 1.499 . S
C1046 C1047 1.373 . S
C1046 C1048 1.389 . S
C1047 H1026 0.950 . S
C1047 C1046 1.373 . S
C1047 C1063 1.377 . S
C1048 C1046 1.389 . S
C1048 C1049 1.524 . S
C1048 C1062 1.377 . S
C1049 C1048 1.524 . S
C1049 C1050 1.397 . S
C1049 C1054 1.363 . S
C1050 H1027 0.950 . S
C1050 C1049 1.397 . S
C1050 C1051 1.334 . S
C1051 H1028 0.950 . S
C1051 C1050 1.334 . S
C1051 C1052 1.287 . S
C1052 C1051 1.287 . S
C1052 C1053 1.524 . S
C1052 H1071 0.913 . S
C1053 H1029 0.950 . S
C1053 C1052 1.524 . S
C1053 C1054 1.415 . S
C1054 H1030 0.950 . S
C1054 C1049 1.363 . S
C1054 C1053 1.415 . S
C1055 H1031 0.951 . S
C1055 C1056 1.366 . S
C1055 C1057 1.388 . S
C1056 C1055 1.366 . S
C1056 C1060 1.385 . S
C1057 H1032 0.951 . S
C1057 C1055 1.388 . S
C1057 C1058 1.366 . S
C1058 C1057 1.366 . S
C1058 C1059 1.414 . S
C1058 C1061 1.499 . S
C1059 H1033 0.950 . S
C1059 C1058 1.414 . S
C1059 C1060 1.374 . S
C1060 H1034 0.950 . S
C1060 C1056 1.385 . S
C1060 C1059 1.374 . S
C1061 C1058 1.499 . S
C1061 C1062 1.373 . S
C1061 C1063 1.389 . S
C1062 H1035 0.950 . S
C1062 C1048 1.377 . S
C1062 C1061 1.373 . S
C1063 C1047 1.377 . S
C1063 C1061 1.389 . S
C1063 C1064 1.524 . S
C1064 C1063 1.524 . S
C1064 C1065 1.397 . S
C1064 C1069 1.363 . S
C1065 H1036 0.950 . S
C1065 C1064 1.397 . S
C1065 C1066 1.334 . S
C1066 H1037 0.950 . S
C1066 C1065 1.334 . S
C1066 C1067 1.287 . S
C1067 C1066 1.287 . S
C1067 C1068 1.524 . S
C1067 H1070 0.999 . S
C1068 H1038 0.950 . S
C1068 C1067 1.524 . S
C1068 C1069 1.415 . S
C1069 H1039 0.950 . S
C1069 C1064 1.363 . S
C1069 C1068 1.415 . S
H1070 C1067 0.999 . S
H1071 C1052 0.913 . S
H1072 C1090 0.951 . S
H1073 C1092 0.951 . S
H1074 C1094 0.950 1_556 S
H1075 C1095 0.944 1_556 S
H1076 C1097 0.952 . S
H1077 C1100 0.950 1_556 S
H1078 C1101 0.950 1_556 S
H1079 C1103 0.950 . S
H1080 C1104 0.950 . S
H1081 C1105 0.951 . S
H1082 C1107 0.951 . S
H1083 C1109 0.950 1_554 S
H1084 C1110 0.950 1_554 S
H1085 C1112 0.952 . S
H1086 C1115 0.950 1_554 S
H1087 C1116 0.950 1_554 S
H1088 C1118 0.950 . S
H1089 C1119 0.950 . S
C1090 H1072 0.951 . S
C1090 C1091 1.366 . S
C1090 C1092 1.388 . S
C1091 C1090 1.366 . S
C1091 C1095 1.385 . S
C1092 H1073 0.951 . S
C1092 C1090 1.388 . S
C1092 C1093 1.366 . S
C1093 C1092 1.366 . S
C1093 C1094 1.414 . S
C1093 C1096 1.499 . S
C1094 H1074 0.950 1_554 S
C1094 C1093 1.414 . S
C1094 C1095 1.374 . S
C1095 H1075 0.944 1_554 S
C1095 C1091 1.385 . S
C1095 C1094 1.374 . S
C1096 C1093 1.499 . S
C1096 C1097 1.346 1_454 S
C1096 C1098 1.389 1_545 S
C1097 H1076 0.952 . S
C1097 C1096 1.346 1_656 S
C1097 C1113 1.402 . S
C1098 C1096 1.389 1_565 S
C1098 C1099 1.524 . S
C1098 C1112 1.402 . S
C1099 C1098 1.524 . S
C1099 C1100 1.397 . S
C1099 C1104 1.363 . S
C1100 H1077 0.950 1_554 S
C1100 C1099 1.397 . S
C1100 C1101 1.334 . S
C1101 H1078 0.950 1_554 S
C1101 C1100 1.334 . S
C1101 C1102 1.287 . S
C1102 C1101 1.287 . S
C1102 C1103 1.524 . S
C1102 H1121 0.913 . S
C1103 H1079 0.950 . S
C1103 C1102 1.524 . S
C1103 C1104 1.415 . S
C1104 H1080 0.950 . S
C1104 C1099 1.363 . S
C1104 C1103 1.415 . S
C1105 H1081 0.951 . S
C1105 C1106 1.366 . S
C1105 C1107 1.388 . S
C1106 C1105 1.366 . S
C1106 C1110 1.385 . S
C1107 H1082 0.951 . S
C1107 C1105 1.388 . S
C1107 C1108 1.366 . S
C1108 C1107 1.366 . S
C1108 C1109 1.414 . S
C1108 C1111 1.499 . S
C1109 H1083 0.950 1_556 S
C1109 C1108 1.414 . S
C1109 C1110 1.374 . S
C1110 H1084 0.950 1_556 S
C1110 C1106 1.385 . S
C1110 C1109 1.374 . S
C1111 C1108 1.499 . S
C1111 C1112 1.346 1_656 S
C1111 C1113 1.389 1_565 S
C1112 H1085 0.952 . S
C1112 C1098 1.402 . S
C1112 C1111 1.346 1_454 S
C1113 C1097 1.402 . S
C1113 C1111 1.389 1_545 S
C1113 C1114 1.524 . S
C1114 C1113 1.524 . S
C1114 C1115 1.397 . S
C1114 C1119 1.363 . S
C1115 H1086 0.950 1_556 S
C1115 C1114 1.397 . S
C1115 C1116 1.334 . S
C1116 H1087 0.950 1_556 S
C1116 C1115 1.334 . S
C1116 C1117 1.287 . S
C1117 C1116 1.287 . S
C1117 C1118 1.524 . S
C1117 H1120 0.999 . S
C1118 H1088 0.950 . S
C1118 C1117 1.524 . S
C1118 C1119 1.415 . S
C1119 H1089 0.950 . S
C1119 C1114 1.363 . S
C1119 C1118 1.415 . S
H1120 C1117 0.999 . S
H1121 C1102 0.913 . S
H1122 C1140 0.951 . S
H1123 C1142 0.951 . S
H1124 C1144 0.950 . S
H1125 C1145 0.950 . S
H1126 C1147 0.950 . S
H1127 C1150 0.950 . S
H1128 C1151 0.950 . S
H1129 C1153 0.950 . S
H1130 C1154 0.950 . S
H1131 C1155 0.951 . S
H1132 C1157 0.951 . S
H1133 C1159 0.950 . S
H1134 C1160 0.950 . S
H1135 C1162 0.950 . S
H1136 C1165 0.950 . S
H1137 C1166 0.950 . S
H1138 C1168 0.950 . S
H1139 C1169 0.950 . S
C1140 H1122 0.951 . S
C1140 C1141 1.366 . S
C1140 C1142 1.388 . S
C1141 C1140 1.366 . S
C1141 C1145 1.385 . S
C1142 H1123 0.951 . S
C1142 C1140 1.388 . S
C1142 C1143 1.366 . S
C1143 C1142 1.366 . S
C1143 C1144 1.414 . S
C1143 C1146 1.499 . S
C1144 H1124 0.950 . S
C1144 C1143 1.414 . S
C1144 C1145 1.374 . S
C1145 H1125 0.950 . S
C1145 C1141 1.385 . S
C1145 C1144 1.374 . S
C1146 C1143 1.499 . S
C1146 C1147 1.373 . S
C1146 C1148 1.389 . S
C1147 H1126 0.950 . S
C1147 C1146 1.373 . S
C1147 C1163 1.377 . S
C1148 C1146 1.389 . S
C1148 C1149 1.524 . S
C1148 C1162 1.377 . S
C1149 C1148 1.524 . S
C1149 C1150 1.397 . S
C1149 C1154 1.363 . S
C1150 H1127 0.950 . S
C1150 C1149 1.397 . S
C1150 C1151 1.334 . S
C1151 H1128 0.950 . S
C1151 C1150 1.334 . S
C1151 C1152 1.287 . S
C1152 C1151 1.287 . S
C1152 C1153 1.524 . S
C1152 H1171 0.913 . S
C1153 H1129 0.950 . S
C1153 C1152 1.524 . S
C1153 C1154 1.415 . S
C1154 H1130 0.950 . S
C1154 C1149 1.363 . S
C1154 C1153 1.415 . S
C1155 H1131 0.951 . S
C1155 C1156 1.366 . S
C1155 C1157 1.388 . S
C1156 C1155 1.366 . S
C1156 C1160 1.385 . S
C1157 H1132 0.951 . S
C1157 C1155 1.388 . S
C1157 C1158 1.366 . S
C1158 C1157 1.366 . S
C1158 C1159 1.414 . S
C1158 C1161 1.499 . S
C1159 H1133 0.950 . S
C1159 C1158 1.414 . S
C1159 C1160 1.374 . S
C1160 H1134 0.950 . S
C1160 C1156 1.385 . S
C1160 C1159 1.374 . S
C1161 C1158 1.499 . S
C1161 C1162 1.373 . S
C1161 C1163 1.389 . S
C1162 H1135 0.950 . S
C1162 C1148 1.377 . S
C1162 C1161 1.373 . S
C1163 C1147 1.377 . S
C1163 C1161 1.389 . S
C1163 C1164 1.524 . S
C1164 C1163 1.524 . S
C1164 C1165 1.397 . S
C1164 C1169 1.363 . S
C1165 H1136 0.950 . S
C1165 C1164 1.397 . S
C1165 C1166 1.334 . S
C1166 H1137 0.950 . S
C1166 C1165 1.334 . S
C1166 C1167 1.287 . S
C1167 C1166 1.287 . S
C1167 C1168 1.524 . S
C1167 H1170 0.999 . S
C1168 H1138 0.950 . S
C1168 C1167 1.524 . S
C1168 C1169 1.415 . S
C1169 H1139 0.950 . S
C1169 C1164 1.363 . S
C1169 C1168 1.415 . S
H1170 C1167 0.999 . S
H1171 C1152 0.913 . S
H1172 C1190 0.951 . S
H1173 C1192 0.951 . S
H1174 C1194 0.950 1_556 S
H1175 C1195 0.950 . S
H1176 C1197 0.950 . S
H1177 C1200 0.950 . S
H1178 C1201 0.950 . S
H1179 C1203 0.950 . S
H1180 C1204 0.950 . S
H1181 C1205 0.951 . S
H1182 C1207 0.951 . S
H1183 C1209 0.950 1_554 S
H1184 C1210 0.950 . S
H1185 C1212 0.950 . S
H1186 C1215 0.950 . S
H1187 C1216 0.950 . S
H1188 C1218 0.950 . S
H1189 C1219 0.950 . S
C1190 H1172 0.951 . S
C1190 C1191 1.366 . S
C1190 C1192 1.388 . S
C1191 C1190 1.366 . S
C1191 C1195 1.385 . S
C1192 H1173 0.951 . S
C1192 C1190 1.388 . S
C1192 C1193 1.366 . S
C1193 C1192 1.366 . S
C1193 C1194 1.414 . S
C1193 C1196 1.499 . S
C1194 H1174 0.950 1_554 S
C1194 C1193 1.414 . S
C1194 C1195 1.374 . S
C1195 H1175 0.950 . S
C1195 C1191 1.385 . S
C1195 C1194 1.374 . S
C1196 C1193 1.499 . S
C1196 C1197 1.373 1_554 S
C1196 C1198 1.389 . S
C1197 H1176 0.950 . S
C1197 C1196 1.373 1_556 S
C1197 C1213 1.377 . S
C1198 C1196 1.389 . S
C1198 C1199 1.524 . S
C1198 C1212 1.377 . S
C1199 C1198 1.524 . S
C1199 C1200 1.397 . S
C1199 C1204 1.363 . S
C1200 H1177 0.950 . S
C1200 C1199 1.397 . S
C1200 C1201 1.334 . S
C1201 H1178 0.950 . S
C1201 C1200 1.334 . S
C1201 C1202 1.287 . S
C1202 C1201 1.287 . S
C1202 C1203 1.524 . S
C1202 H1221 0.913 . S
C1203 H1179 0.950 . S
C1203 C1202 1.524 . S
C1203 C1204 1.415 . S
C1204 H1180 0.950 . S
C1204 C1199 1.363 . S
C1204 C1203 1.415 . S
C1205 H1181 0.951 . S
C1205 C1206 1.366 . S
C1205 C1207 1.388 . S
C1206 C1205 1.366 . S
C1206 C1210 1.385 . S
C1207 H1182 0.951 . S
C1207 C1205 1.388 . S
C1207 C1208 1.366 . S
C1208 C1207 1.366 . S
C1208 C1209 1.414 . S
C1208 C1211 1.499 . S
C1209 H1183 0.950 1_556 S
C1209 C1208 1.414 . S
C1209 C1210 1.374 . S
C1210 H1184 0.950 . S
C1210 C1206 1.385 . S
C1210 C1209 1.374 . S
C1211 C1208 1.499 . S
C1211 C1212 1.373 1_556 S
C1211 C1213 1.389 . S
C1212 H1185 0.950 . S
C1212 C1198 1.377 . S
C1212 C1211 1.373 1_554 S
C1213 C1197 1.377 . S
C1213 C1211 1.389 . S
C1213 C1214 1.524 . S
C1214 C1213 1.524 . S
C1214 C1215 1.397 . S
C1214 C1219 1.363 . S
C1215 H1186 0.950 . S
C1215 C1214 1.397 . S
C1215 C1216 1.334 . S
C1216 H1187 0.950 . S
C1216 C1215 1.334 . S
C1216 C1217 1.287 . S
C1217 C1216 1.287 . S
C1217 C1218 1.524 . S
C1217 H1220 0.999 . S
C1218 H1188 0.950 . S
C1218 C1217 1.524 . S
C1218 C1219 1.415 . S
C1219 H1189 0.950 . S
C1219 C1214 1.363 . S
C1219 C1218 1.415 . S
H1220 C1217 0.999 . S
H1221 C1202 0.913 . S
H1222 C1240 0.951 . S
H1223 C1242 0.951 . S
H1224 C1244 0.950 . S
H1225 C1245 0.950 . S
H1226 C1247 0.950 . S
H1227 C1250 0.950 1_565 S
H1228 C1251 0.950 . S
H1229 C1253 0.950 . S
H1230 C1254 0.950 . S
H1231 C1255 0.951 . S
H1232 C1257 0.951 . S
H1233 C1259 0.950 . S
H1234 C1260 0.950 . S
H1235 C1262 0.950 . S
H1236 C1265 0.950 1_545 S
H1237 C1266 0.950 . S
H1238 C1268 0.950 . S
H1239 C1269 0.950 . S
C1240 H1222 0.951 . S
C1240 C1241 1.366 . S
C1240 C1242 1.388 . S
C1241 C1240 1.366 . S
C1241 C1245 1.385 . S
C1242 H1223 0.951 . S
C1242 C1240 1.388 . S
C1242 C1243 1.366 . S
C1243 C1242 1.366 . S
C1243 C1244 1.414 . S
C1243 C1246 1.499 . S
C1244 H1224 0.950 . S
C1244 C1243 1.414 . S
C1244 C1245 1.374 . S
C1245 H1225 0.950 . S
C1245 C1241 1.385 . S
C1245 C1244 1.374 . S
C1246 C1243 1.499 . S
C1246 C1247 1.373 . S
C1246 C1248 1.389 1_565 S
C1247 H1226 0.950 . S
C1247 C1246 1.373 . S
C1247 C1263 1.377 1_455 S
C1248 C1246 1.389 1_545 S
C1248 C1249 1.524 . S
C1248 C1262 1.377 1_455 S
C1249 C1248 1.524 . S
C1249 C1250 1.397 . S
C1249 C1254 1.363 . S
C1250 H1227 0.950 1_545 S
C1250 C1249 1.397 . S
C1250 C1251 1.334 . S
C1251 H1228 0.950 . S
C1251 C1250 1.334 . S
C1251 C1252 1.287 . S
C1252 C1251 1.287 . S
C1252 C1253 1.524 . S
C1252 H1271 0.913 . S
C1253 H1229 0.950 . S
C1253 C1252 1.524 . S
C1253 C1254 1.415 . S
C1254 H1230 0.950 . S
C1254 C1249 1.363 . S
C1254 C1253 1.415 . S
C1255 H1231 0.951 . S
C1255 C1256 1.366 . S
C1255 C1257 1.388 . S
C1256 C1255 1.366 . S
C1256 C1260 1.385 . S
C1257 H1232 0.951 . S
C1257 C1255 1.388 . S
C1257 C1258 1.366 . S
C1258 C1257 1.366 . S
C1258 C1259 1.414 . S
C1258 C1261 1.499 . S
C1259 H1233 0.950 . S
C1259 C1258 1.414 . S
C1259 C1260 1.374 . S
C1260 H1234 0.950 . S
C1260 C1256 1.385 . S
C1260 C1259 1.374 . S
C1261 C1258 1.499 . S
C1261 C1262 1.373 . S
C1261 C1263 1.389 1_545 S
C1262 H1235 0.950 . S
C1262 C1248 1.377 1_655 S
C1262 C1261 1.373 . S
C1263 C1247 1.377 1_655 S
C1263 C1261 1.389 1_565 S
C1263 C1264 1.524 . S
C1264 C1263 1.524 . S
C1264 C1265 1.397 . S
C1264 C1269 1.363 . S
C1265 H1236 0.950 1_565 S
C1265 C1264 1.397 . S
C1265 C1266 1.334 . S
C1266 H1237 0.950 . S
C1266 C1265 1.334 . S
C1266 C1267 1.287 . S
C1267 C1266 1.287 . S
C1267 C1268 1.524 . S
C1267 H1270 0.999 . S
C1268 H1238 0.950 . S
C1268 C1267 1.524 . S
C1268 C1269 1.415 . S
C1269 H1239 0.950 . S
C1269 C1264 1.363 . S
C1269 C1268 1.415 . S
H1270 C1267 0.999 . S
H1271 C1252 0.913 . S
C491 C64 1.656 . S
C506 C3 1.625 1_556 S
C541 C5 1.655 . S
C556 C62 1.624 . S
C591 C182 1.656 . S
C606 C121 1.624 1_554 S
C641 C123 1.655 . S
C656 C180 1.624 . S
C691 C241 1.637 1_554 S
C706 C298 1.642 . S
C741 C300 1.637 . S
C756 C239 1.643 . S
C791 C359 1.637 1_556 S
C806 C416 1.643 . S
C841 C357 1.643 . S
C856 C418 1.637 . S
C891 C33 0.476 . S
C906 C210 0.473 . S
C941 C92 0.475 . S
C956 C151 0.474 . S
C991 C465 0.469 . S
C1006 C288 0.467 . S
C1041 C406 0.469 . S
C1056 C347 0.467 . S
C1091 C52 1.533 . S
C1106 C269 1.526 . S
C1141 C328 1.526 . S
C1156 C111 1.533 . S
C1191 C387 1.526 . S
C1206 C170 1.533 . S
C1241 C446 1.526 . S
C1256 C229 1.533 . S
