# Generated by pormake.
# Topology ukn, (4)-cn, num edge types: 1
# Building blocks:
#     Node 0, Type 0, BuildingBlock: QUQFOY_clean_sbu_1, # of connection points: 4
#     Node 1, Type 0, BuildingBlock: QUQFOY_clean_sbu_1, # of connection points: 4
#     Node 2, Type 0, BuildingBlock: QUQFOY_clean_sbu_1, # of connection points: 4
#     Node 3, Type 0, BuildingBlock: QUQFOY_clean_sbu_1, # of connection points: 4
#     Node 4, Type 0, BuildingBlock: QUQFOY_clean_sbu_1, # of connection points: 4
#     Node 5, Type 0, BuildingBlock: QUQFOY_clean_sbu_1, # of connection points: 4
#     Node 6, Type 0, BuildingBlock: QUQFOY_clean_sbu_1, # of connection points: 4
#     Node 7, Type 0, BuildingBlock: QUQFOY_clean_sbu_1, # of connection points: 4
#     Node 8, Type 0, BuildingBlock: QUQFOY_clean_sbu_1, # of connection points: 4
#     Node 9, Type 0, BuildingBlock: QUQFOY_clean_sbu_1, # of connection points: 4
#     Node 10, Type 0, BuildingBlock: QUQFOY_clean_sbu_1, # of connection points: 4
#     Node 11, Type 0, BuildingBlock: QUQFOY_clean_sbu_1, # of connection points: 4
#     Node 12, Type 0, BuildingBlock: QUQFOY_clean_sbu_1, # of connection points: 4
#     Node 13, Type 0, BuildingBlock: QUQFOY_clean_sbu_1, # of connection points: 4
#     Node 14, Type 0, BuildingBlock: QUQFOY_clean_sbu_1, # of connection points: 4
#     Node 15, Type 0, BuildingBlock: QUQFOY_clean_sbu_1, # of connection points: 4
#     Node 16, Type 0, BuildingBlock: QUQFOY_clean_sbu_1, # of connection points: 4
#     Node 17, Type 0, BuildingBlock: QUQFOY_clean_sbu_1, # of connection points: 4
#     Node 18, Type 0, BuildingBlock: QUQFOY_clean_sbu_1, # of connection points: 4
#     Node 19, Type 0, BuildingBlock: QUQFOY_clean_sbu_1, # of connection points: 4
#     Node 20, Type 0, BuildingBlock: QUQFOY_clean_sbu_1, # of connection points: 4
#     Node 21, Type 0, BuildingBlock: QUQFOY_clean_sbu_1, # of connection points: 4
#     Node 22, Type 0, BuildingBlock: QUQFOY_clean_sbu_1, # of connection points: 4
#     Node 23, Type 0, BuildingBlock: QUQFOY_clean_sbu_1, # of connection points: 4
#     Node 24, Type 0, BuildingBlock: QUQFOY_clean_sbu_1, # of connection points: 4
#     Node 25, Type 0, BuildingBlock: QUQFOY_clean_sbu_1, # of connection points: 4
#     Node 26, Type 0, BuildingBlock: QUQFOY_clean_sbu_1, # of connection points: 4
#     Node 27, Type 0, BuildingBlock: QUQFOY_clean_sbu_1, # of connection points: 4
#     Node 28, Type 0, BuildingBlock: QUQFOY_clean_sbu_1, # of connection points: 4
#     Node 29, Type 0, BuildingBlock: QUQFOY_clean_sbu_1, # of connection points: 4
#     Node 30, Type 0, BuildingBlock: QUQFOY_clean_sbu_1, # of connection points: 4
#     Node 31, Type 0, BuildingBlock: QUQFOY_clean_sbu_1, # of connection points: 4
#     Node 32, Type 0, BuildingBlock: QUQFOY_clean_sbu_1, # of connection points: 4
#     Node 33, Type 0, BuildingBlock: QUQFOY_clean_sbu_1, # of connection points: 4
#     Node 34, Type 0, BuildingBlock: QUQFOY_clean_sbu_1, # of connection points: 4
#     Node 35, Type 0, BuildingBlock: QUQFOY_clean_sbu_1, # of connection points: 4
#     Edge 36, Type (0, 0), None
#     Edge 37, Type (0, 0), None
#     Edge 38, Type (0, 0), None
#     Edge 39, Type (0, 0), None
#     Edge 40, Type (0, 0), None
#     Edge 41, Type (0, 0), None
#     Edge 42, Type (0, 0), None
#     Edge 43, Type (0, 0), None
#     Edge 44, Type (0, 0), None
#     Edge 45, Type (0, 0), None
#     Edge 46, Type (0, 0), None
#     Edge 47, Type (0, 0), None
#     Edge 48, Type (0, 0), None
#     Edge 49, Type (0, 0), None
#     Edge 50, Type (0, 0), None
#     Edge 51, Type (0, 0), None
#     Edge 52, Type (0, 0), None
#     Edge 53, Type (0, 0), None
#     Edge 54, Type (0, 0), None
#     Edge 55, Type (0, 0), None
#     Edge 56, Type (0, 0), None
#     Edge 57, Type (0, 0), None
#     Edge 58, Type (0, 0), None
#     Edge 59, Type (0, 0), None
#     Edge 60, Type (0, 0), None
#     Edge 61, Type (0, 0), None
#     Edge 62, Type (0, 0), None
#     Edge 63, Type (0, 0), None
#     Edge 64, Type (0, 0), None
#     Edge 65, Type (0, 0), None
#     Edge 66, Type (0, 0), None
#     Edge 67, Type (0, 0), None
#     Edge 68, Type (0, 0), None
#     Edge 69, Type (0, 0), None
#     Edge 70, Type (0, 0), None
#     Edge 71, Type (0, 0), None
#     Edge 72, Type (0, 0), None
#     Edge 73, Type (0, 0), None
#     Edge 74, Type (0, 0), None
#     Edge 75, Type (0, 0), None
#     Edge 76, Type (0, 0), None
#     Edge 77, Type (0, 0), None
#     Edge 78, Type (0, 0), None
#     Edge 79, Type (0, 0), None
#     Edge 80, Type (0, 0), None
#     Edge 81, Type (0, 0), None
#     Edge 82, Type (0, 0), None
#     Edge 83, Type (0, 0), None
#     Edge 84, Type (0, 0), None
#     Edge 85, Type (0, 0), None
#     Edge 86, Type (0, 0), None
#     Edge 87, Type (0, 0), None
#     Edge 88, Type (0, 0), None
#     Edge 89, Type (0, 0), None
#     Edge 90, Type (0, 0), None
#     Edge 91, Type (0, 0), None
#     Edge 92, Type (0, 0), None
#     Edge 93, Type (0, 0), None
#     Edge 94, Type (0, 0), None
#     Edge 95, Type (0, 0), None
#     Edge 96, Type (0, 0), None
#     Edge 97, Type (0, 0), None
#     Edge 98, Type (0, 0), None
#     Edge 99, Type (0, 0), None
#     Edge 100, Type (0, 0), None
#     Edge 101, Type (0, 0), None
#     Edge 102, Type (0, 0), None
#     Edge 103, Type (0, 0), None
#     Edge 104, Type (0, 0), None
#     Edge 105, Type (0, 0), None
#     Edge 106, Type (0, 0), None
#     Edge 107, Type (0, 0), None
# Relax obj value: 0.013
# Max RMSD: 0.037
# Mean RMSD: 0.037
data_MOF--net-ukn--node1-QUQFOY_clean_sbu_1--edge1-none
_symmetry_space_group_name_H-M    P1
_symmetry_Int_Tables_number       1
_symmetry_cell_setting            triclinic
loop_
_symmetry_equiv_pos_as_xyz
'x, y, z'
_cell_length_a     51.872048
_cell_length_b     51.872119
_cell_length_c     12.518449
_cell_angle_alpha  90.001135
_cell_angle_beta   89.99819
_cell_angle_gamma 119.99967
loop_
_atom_site_label
_atom_site_type_symbol
_atom_site_fract_x
_atom_site_fract_y
_atom_site_fract_z
_atom_type_partial_charge
O0 O 0.12503 0.29907 0.14241 0.0
Cd1 Cd 0.09333 0.31187 0.15599 0.0
Cd2 Cd 0.06743 0.26353 1.01727 0.0
O3 O 0.10226 0.25644 0.05398 0.0
O4 O 0.11266 0.34595 0.25932 0.0
O5 O 0.0721 0.30373 0.29879 0.0
C6 C 0.09272 0.32981 0.32816 0.0
C7 C 0.01759 0.23143 1.04668 0.0
C8 C 0.12496 0.2764 0.1032 0.0
C9 C 0.08483 0.32372 0.92873 0.0
O10 O 0.0773 0.29686 0.9092 0.0
O11 O 0.08935 0.3335 1.02402 0.0
O12 O 0.03052 0.22819 0.96379 0.0
O13 O 0.03338 0.25181 0.11591 0.0
O14 O 0.70333 0.82649 0.14243 0.0
Cd15 Cd 0.69054 0.78199 0.156 0.0
Cd16 Cd 0.73888 0.80445 1.01728 0.0
O17 O 0.74596 0.84637 0.054 0.0
O18 O 0.65646 0.76723 0.25933 0.0
O19 O 0.6987 0.76892 0.2988 0.0
C20 C 0.67261 0.76344 0.32818 0.0
C21 C 0.77099 0.78672 1.04668 0.0
C22 C 0.726 0.84909 0.10322 0.0
C23 C 0.6787 0.76164 0.92874 0.0
O24 O 0.70555 0.78098 0.90921 0.0
O25 O 0.66892 0.75638 1.02403 0.0
O26 O 0.77423 0.80289 0.9638 0.0
O27 O 0.75061 0.78213 0.11591 0.0
O28 O 0.17591 0.87734 0.14241 0.0
Cd29 Cd 0.22041 0.90906 0.15598 0.0
Cd30 Cd 0.19795 0.93494 1.01726 0.0
O31 O 0.15604 0.90011 0.05399 0.0
O32 O 0.23517 0.88973 0.2593 0.0
O33 O 0.23348 0.93028 0.29878 0.0
C34 C 0.23896 0.90967 0.32815 0.0
C35 C 0.21568 0.98478 1.04667 0.0
C36 C 0.15331 0.87741 0.10319 0.0
C37 C 0.24076 0.91756 0.92872 0.0
O38 O 0.22142 0.92508 0.90919 0.0
O39 O 0.24602 0.91305 1.024 0.0
O40 O 0.1995 0.97184 0.96378 0.0
O41 O 0.22027 0.96899 0.1159 0.0
O42 O 0.29952 0.1246 0.9597 0.0
Cd43 Cd 0.3123 0.09289 0.94612 0.0
Cd44 Cd 0.26396 0.067 0.08484 0.0
O45 O 0.25688 0.10183 1.04811 0.0
O46 O 0.34638 0.11221 0.84279 0.0
O47 O 0.30415 0.07166 0.80332 0.0
C48 C 0.33024 0.09227 0.77394 0.0
C49 C 0.23186 0.01716 0.05543 0.0
C50 C 0.27685 0.12453 0.9989 0.0
C51 C 0.32415 0.08438 0.17337 0.0
O52 O 0.29729 0.07686 0.19291 0.0
O53 O 0.33392 0.08889 0.07809 0.0
O54 O 0.22862 0.03009 0.13831 0.0
O55 O 0.25224 0.03295 0.9862 0.0
O56 O 0.87777 0.17546 0.95976 0.0
Cd57 Cd 0.90948 0.21995 0.94619 0.0
Cd58 Cd 0.93537 0.1975 0.08488 0.0
O59 O 0.90054 0.15559 1.04816 0.0
O60 O 0.89016 0.23471 0.84286 0.0
O61 O 0.93071 0.23303 0.80339 0.0
C62 C 0.9101 0.23851 0.77402 0.0
C63 C 0.98521 0.21524 0.05546 0.0
C64 C 0.87784 0.15286 0.99895 0.0
C65 C 0.91799 0.2403 0.17345 0.0
O66 O 0.92551 0.22097 0.19297 0.0
O67 O 0.91347 0.24556 0.07816 0.0
O68 O 0.97228 0.19906 0.13834 0.0
O69 O 0.96941 0.21983 0.98624 0.0
O70 O 0.82695 0.70286 0.9597 0.0
Cd71 Cd 0.78246 0.69008 0.94613 0.0
Cd72 Cd 0.80491 0.73842 0.08484 0.0
O73 O 0.84683 0.7455 1.04811 0.0
O74 O 0.7677 0.656 0.8428 0.0
O75 O 0.76938 0.69823 0.80333 0.0
C76 C 0.7639 0.67214 0.77395 0.0
C77 C 0.78718 0.77052 0.05544 0.0
C78 C 0.84956 0.72554 0.99891 0.0
C79 C 0.76211 0.67824 0.17339 0.0
O80 O 0.78144 0.70509 0.19292 0.0
O81 O 0.75685 0.66846 0.0781 0.0
O82 O 0.80335 0.77377 0.13832 0.0
O83 O 0.78259 0.75015 0.98621 0.0
O84 O 0.87781 0.70286 0.95969 0.0
Cd85 Cd 0.90952 0.69008 0.94611 0.0
Cd86 Cd 0.9354 0.73842 0.08483 0.0
O87 O 0.90057 0.7455 1.04811 0.0
O88 O 0.8902 0.656 0.84278 0.0
O89 O 0.93074 0.69823 0.80331 0.0
C90 C 0.91014 0.67214 0.77394 0.0
C91 C 0.98524 0.77053 0.05542 0.0
C92 C 0.87788 0.72553 0.99888 0.0
C93 C 0.91802 0.67824 0.17337 0.0
O94 O 0.92554 0.70509 0.1929 0.0
O95 O 0.91351 0.66846 0.07808 0.0
O96 O 0.97231 0.77377 0.1383 0.0
O97 O 0.96945 0.75015 0.98619 0.0
O98 O 0.29951 0.17545 0.95968 0.0
Cd99 Cd 0.3123 0.21994 0.94611 0.0
Cd100 Cd 0.26396 0.19749 0.08485 0.0
O101 O 0.25688 0.15557 1.04813 0.0
O102 O 0.34638 0.2347 0.84278 0.0
O103 O 0.30414 0.23302 0.80331 0.0
C104 C 0.33023 0.2385 0.77393 0.0
C105 C 0.23184 0.21521 0.05544 0.0
C106 C 0.27684 0.15284 0.9989 0.0
C107 C 0.32414 0.24029 0.17337 0.0
O108 O 0.29729 0.22096 0.19291 0.0
O109 O 0.33392 0.24555 0.07808 0.0
O110 O 0.2286 0.19904 0.13833 0.0
O111 O 0.25222 0.2198 0.98621 0.0
O112 O 0.82692 0.1246 0.95974 0.0
Cd113 Cd 0.78243 0.09288 0.94617 0.0
Cd114 Cd 0.80489 0.067 0.08489 0.0
O115 O 0.8468 0.10184 1.04816 0.0
O116 O 0.76766 0.1122 0.84285 0.0
O117 O 0.76935 0.07166 0.80337 0.0
C118 C 0.76387 0.09226 0.774 0.0
C119 C 0.78716 0.01716 0.05547 0.0
C120 C 0.84952 0.12453 0.99894 0.0
C121 C 0.76208 0.08438 0.17343 0.0
O122 O 0.78141 0.07686 0.19296 0.0
O123 O 0.75682 0.08889 0.07815 0.0
O124 O 0.80333 0.0301 0.13835 0.0
O125 O 0.78257 0.03295 0.98625 0.0
O126 O 0.70332 0.87734 0.14244 0.0
Cd127 Cd 0.69054 0.90905 0.15602 0.0
Cd128 Cd 0.73888 0.93494 1.01729 0.0
O129 O 0.74596 0.90011 0.05402 0.0
O130 O 0.65645 0.88973 0.25935 0.0
O131 O 0.69869 0.93028 0.29882 0.0
C132 C 0.6726 0.90967 0.32819 0.0
C133 C 0.77097 0.98478 1.0467 0.0
C134 C 0.726 0.87741 0.10324 0.0
C135 C 0.67869 0.91755 0.92876 0.0
O136 O 0.70555 0.92507 0.90923 0.0
O137 O 0.66892 0.91304 1.02404 0.0
O138 O 0.77422 0.97185 0.96383 0.0
O139 O 0.7506 0.96899 0.11594 0.0
O140 O 0.12506 0.82649 0.1424 0.0
Cd141 Cd 0.09335 0.78199 0.15597 0.0
Cd142 Cd 0.06746 0.80445 1.01725 0.0
O143 O 0.10229 0.84636 0.05398 0.0
O144 O 0.11267 0.76723 0.2593 0.0
O145 O 0.07212 0.76892 0.29877 0.0
C146 C 0.09273 0.76344 0.32814 0.0
C147 C 0.01762 0.78672 1.04666 0.0
C148 C 0.12499 0.84909 0.10321 0.0
C149 C 0.08484 0.76164 0.92871 0.0
O150 O 0.07732 0.78098 0.90918 0.0
O151 O 0.08936 0.75639 1.024 0.0
O152 O 0.03056 0.80289 0.96378 0.0
O153 O 0.03341 0.78213 0.11589 0.0
O154 O 0.17588 0.29906 0.14239 0.0
Cd155 Cd 0.22037 0.31183 0.15596 0.0
Cd156 Cd 0.1979 0.26349 1.01725 0.0
O157 O 0.15599 0.25642 0.05399 0.0
O158 O 0.23514 0.34591 0.25929 0.0
O159 O 0.23344 0.30367 0.29876 0.0
C160 C 0.23893 0.32977 0.32813 0.0
C161 C 0.21564 0.23139 1.04668 0.0
C162 C 0.15327 0.27639 0.10319 0.0
C163 C 0.24072 0.32367 0.9287 0.0
O164 O 0.22137 0.29682 0.90917 0.0
O165 O 0.24598 0.33345 1.02398 0.0
O166 O 0.19946 0.22814 0.9638 0.0
O167 O 0.22023 0.25178 0.1159 0.0
O168 O 0.79173 0.63242 0.47573 0.0
Cd169 Cd 0.76002 0.6452 0.48932 0.0
Cd170 Cd 0.73413 0.59686 0.3506 0.0
O171 O 0.76896 0.58978 0.38732 0.0
O172 O 0.77934 0.67928 0.59265 0.0
O173 O 0.73879 0.63704 0.63211 0.0
C174 C 0.7594 0.66313 0.66149 0.0
C175 C 0.68429 0.56475 0.38002 0.0
C176 C 0.79166 0.60975 0.43653 0.0
C177 C 0.7515 0.65704 0.26207 0.0
O178 O 0.74398 0.63018 0.24253 0.0
O179 O 0.75603 0.66682 0.35734 0.0
O180 O 0.69722 0.56151 0.29713 0.0
O181 O 0.70008 0.58513 0.44924 0.0
O182 O 0.36997 0.15982 0.47572 0.0
Cd183 Cd 0.35718 0.11532 0.4893 0.0
Cd184 Cd 0.40552 0.13778 0.35058 0.0
O185 O 0.4126 0.17969 0.3873 0.0
O186 O 0.3231 0.10057 0.59264 0.0
O187 O 0.36534 0.10225 0.63209 0.0
C188 C 0.33925 0.09678 0.66148 0.0
C189 C 0.43763 0.12004 0.38001 0.0
C190 C 0.39264 0.18242 0.43651 0.0
C191 C 0.34534 0.09497 0.26205 0.0
O192 O 0.3722 0.11431 0.24251 0.0
O193 O 0.33556 0.08971 0.35733 0.0
O194 O 0.44087 0.13621 0.29713 0.0
O195 O 0.41725 0.11545 0.44923 0.0
O196 O 0.84255 0.21067 0.4758 0.0
Cd197 Cd 0.88704 0.24239 0.48938 0.0
Cd198 Cd 0.86458 0.26827 0.35069 0.0
O199 O 0.82267 0.23344 0.38742 0.0
O200 O 0.9018 0.22307 0.59272 0.0
O201 O 0.90011 0.26362 0.63217 0.0
C202 C 0.90559 0.24301 0.66155 0.0
C203 C 0.88232 0.31811 0.3801 0.0
C204 C 0.81994 0.21074 0.4366 0.0
C205 C 0.90739 0.25091 0.26213 0.0
O206 O 0.88805 0.25842 0.2426 0.0
O207 O 0.91265 0.24638 0.35741 0.0
O208 O 0.86614 0.30518 0.29723 0.0
O209 O 0.88691 0.30232 0.44932 0.0
O210 O 0.9662 0.45793 0.29305 0.0
Cd211 Cd 0.97899 0.42622 0.27947 0.0
Cd212 Cd 0.93064 0.40034 0.41822 0.0
O213 O 0.92357 0.43517 0.38149 0.0
O214 O 0.01307 0.44554 0.17615 0.0
O215 O 0.97083 0.40499 0.13667 0.0
C216 C 0.99692 0.4256 0.1073 0.0
C217 C 0.89853 0.3505 0.38885 0.0
C218 C 0.94353 0.45786 0.33227 0.0
C219 C 0.99083 0.41771 0.50673 0.0
O220 O 0.96398 0.41019 0.52627 0.0
O221 O 1.00061 0.42223 0.41145 0.0
O222 O 0.89529 0.36344 0.47173 0.0
O223 O 0.9189 0.36628 0.3196 0.0
O224 O 0.54447 0.50878 0.29305 0.0
Cd225 Cd 0.57618 0.55327 0.27947 0.0
Cd226 Cd 0.60207 0.53082 0.41819 0.0
O227 O 0.56724 0.4889 0.38146 0.0
O228 O 0.55685 0.56803 0.17615 0.0
O229 O 0.5974 0.56635 0.13667 0.0
C230 C 0.57679 0.57183 0.1073 0.0
C231 C 0.65191 0.54856 0.38878 0.0
C232 C 0.54454 0.48618 0.33225 0.0
C233 C 0.58468 0.57362 0.50674 0.0
O234 O 0.5922 0.55429 0.52626 0.0
O235 O 0.58017 0.57888 0.41145 0.0
O236 O 0.63897 0.53238 0.47166 0.0
O237 O 0.63611 0.55314 0.31955 0.0
O238 O 0.49359 0.03618 0.29304 0.0
Cd239 Cd 0.4491 0.0234 0.27946 0.0
Cd240 Cd 0.47155 0.07174 0.41818 0.0
O241 O 0.51346 0.07882 0.38145 0.0
O242 O 0.43434 0.98932 0.17613 0.0
O243 O 0.43603 0.03155 0.13666 0.0
C244 C 0.43055 0.00546 0.10729 0.0
C245 C 0.45382 0.10384 0.38878 0.0
C246 C 0.5162 0.05886 0.33226 0.0
C247 C 0.42875 0.01155 0.50672 0.0
O248 O 0.44808 0.03841 0.52625 0.0
O249 O 0.42349 0.00178 0.41144 0.0
O250 O 0.46999 0.10708 0.47166 0.0
O251 O 0.44923 0.08347 0.31954 0.0
O252 O 0.54445 0.03619 0.29306 0.0
Cd253 Cd 0.57616 0.0234 0.27949 0.0
Cd254 Cd 0.60204 0.07174 0.41822 0.0
O255 O 0.56721 0.07882 0.38149 0.0
O256 O 0.55685 0.98932 0.17616 0.0
O257 O 0.59739 0.03156 0.13669 0.0
C258 C 0.57679 0.00547 0.10732 0.0
C259 C 0.65188 0.10385 0.38881 0.0
C260 C 0.54452 0.05885 0.33225 0.0
C261 C 0.58467 0.01156 0.50675 0.0
O262 O 0.59219 0.03842 0.52628 0.0
O263 O 0.58016 0.00179 0.41146 0.0
O264 O 0.63894 0.10709 0.47169 0.0
O265 O 0.63609 0.08347 0.31958 0.0
O266 O 0.9662 0.50879 0.29305 0.0
Cd267 Cd 0.97899 0.55328 0.27948 0.0
Cd268 Cd 0.93065 0.53083 0.4182 0.0
O269 O 0.92357 0.48891 0.38148 0.0
O270 O 0.01307 0.56804 0.17615 0.0
O271 O 0.97084 0.56635 0.13668 0.0
C272 C 0.99692 0.57184 0.1073 0.0
C273 C 0.89854 0.54856 0.38878 0.0
C274 C 0.94353 0.48618 0.33226 0.0
C275 C 0.99083 0.57363 0.50674 0.0
O276 O 0.96398 0.5543 0.52627 0.0
O277 O 1.00061 0.57889 0.41145 0.0
O278 O 0.8953 0.53239 0.47166 0.0
O279 O 0.91892 0.55315 0.31955 0.0
O280 O 0.49362 0.45792 0.29305 0.0
Cd281 Cd 0.44912 0.42621 0.27948 0.0
Cd282 Cd 0.47158 0.40033 0.41819 0.0
O283 O 0.51349 0.43516 0.38146 0.0
O284 O 0.43436 0.44553 0.17616 0.0
O285 O 0.43605 0.40498 0.13668 0.0
C286 C 0.43057 0.42559 0.10731 0.0
C287 C 0.45384 0.35049 0.38874 0.0
C288 C 0.51622 0.45785 0.33225 0.0
C289 C 0.42877 0.4177 0.50675 0.0
O290 O 0.44811 0.41019 0.52627 0.0
O291 O 0.42351 0.42222 0.41146 0.0
O292 O 0.47001 0.36342 0.47162 0.0
O293 O 0.44925 0.36629 0.31953 0.0
O294 O 0.36997 0.21067 0.47572 0.0
Cd295 Cd 0.35718 0.24238 0.4893 0.0
Cd296 Cd 0.40552 0.26827 0.35055 0.0
O297 O 0.4126 0.23343 0.38727 0.0
O298 O 0.3231 0.22306 0.59264 0.0
O299 O 0.36533 0.26361 0.63209 0.0
C300 C 0.33925 0.243 0.66147 0.0
C301 C 0.43764 0.31811 0.37996 0.0
C302 C 0.39264 0.21074 0.43651 0.0
C303 C 0.34534 0.2509 0.26205 0.0
O304 O 0.37219 0.25841 0.2425 0.0
O305 O 0.33556 0.24637 0.35732 0.0
O306 O 0.44088 0.30517 0.29708 0.0
O307 O 0.41726 0.30232 0.4492 0.0
O308 O 0.7917 0.15982 0.4758 0.0
Cd309 Cd 0.75999 0.11532 0.48937 0.0
Cd310 Cd 0.7341 0.13778 0.35064 0.0
O311 O 0.76893 0.17969 0.38738 0.0
O312 O 0.77931 0.10057 0.5927 0.0
O313 O 0.73876 0.10225 0.63216 0.0
C314 C 0.75937 0.09677 0.66153 0.0
C315 C 0.68426 0.12005 0.38004 0.0
C316 C 0.79162 0.18242 0.43661 0.0
C317 C 0.75147 0.09497 0.26211 0.0
O318 O 0.74396 0.11431 0.24257 0.0
O319 O 0.756 0.08971 0.35739 0.0
O320 O 0.6972 0.13622 0.29717 0.0
O321 O 0.70005 0.11546 0.44928 0.0
O322 O 0.84258 0.63242 0.47573 0.0
Cd323 Cd 0.88708 0.6452 0.4893 0.0
Cd324 Cd 0.86462 0.59686 0.35057 0.0
O325 O 0.82271 0.58978 0.38731 0.0
O326 O 0.90184 0.67928 0.59264 0.0
O327 O 0.90015 0.63704 0.63209 0.0
C328 C 0.90562 0.66313 0.66147 0.0
C329 C 0.88235 0.56475 0.38 0.0
C330 C 0.81998 0.60974 0.43652 0.0
C331 C 0.90743 0.65704 0.26205 0.0
O332 O 0.88809 0.63018 0.2425 0.0
O333 O 0.91269 0.66682 0.35732 0.0
O334 O 0.86618 0.56151 0.29712 0.0
O335 O 0.88694 0.58513 0.44922 0.0
O336 O 0.45838 0.96574 0.80907 0.0
Cd337 Cd 0.42667 0.97852 0.82265 0.0
Cd338 Cd 0.40079 0.93018 0.68393 0.0
O339 O 0.43562 0.9231 0.72066 0.0
O340 O 0.44599 0.0126 0.92599 0.0
O341 O 0.40544 0.97036 0.96544 0.0
C342 C 0.42605 0.99645 0.99482 0.0
C343 C 0.35095 0.89807 0.71335 0.0
C344 C 0.45832 0.94307 0.76988 0.0
C345 C 0.41815 0.99035 0.5954 0.0
O346 O 0.41064 0.9635 0.57586 0.0
O347 O 0.42267 1.00014 0.69068 0.0
O348 O 0.36388 0.89483 0.63047 0.0
O349 O 0.36674 0.91845 0.78258 0.0
O350 O 0.03665 0.49316 0.80908 0.0
Cd351 Cd 0.02387 0.44866 0.82266 0.0
Cd352 Cd 0.07221 0.47112 0.68392 0.0
O353 O 0.07929 0.51303 0.72065 0.0
O354 O 0.98979 0.4339 0.926 0.0
O355 O 0.03202 0.43559 0.96545 0.0
C356 C 0.00594 0.43011 0.99483 0.0
C357 C 0.10432 0.45339 0.71333 0.0
C358 C 0.05933 0.51576 0.76986 0.0
C359 C 0.01203 0.42831 0.59541 0.0
O360 O 0.03888 0.44764 0.57586 0.0
O361 O 0.00225 0.42305 0.69069 0.0
O362 O 0.10756 0.46956 0.63045 0.0
O363 O 0.08394 0.4488 0.78256 0.0
O364 O 0.50924 0.544 0.80909 0.0
Cd365 Cd 0.55373 0.57571 0.82267 0.0
Cd366 Cd 0.53128 0.6016 0.68396 0.0
O367 O 0.48936 0.56676 0.72068 0.0
O368 O 0.56849 0.55639 0.926 0.0
O369 O 0.56681 0.59694 0.96546 0.0
C370 C 0.57228 0.57633 0.99484 0.0
C371 C 0.54901 0.65144 0.71338 0.0
C372 C 0.48664 0.54407 0.76989 0.0
C373 C 0.57409 0.58423 0.59542 0.0
O374 O 0.55475 0.59174 0.57588 0.0
O375 O 0.57934 0.5797 0.69069 0.0
O376 O 0.53284 0.6385 0.6305 0.0
O377 O 0.5536 0.63564 0.7826 0.0
O378 O 0.63287 0.79126 0.6264 0.0
Cd379 Cd 0.64566 0.75955 0.61282 0.0
Cd380 Cd 0.59732 0.73366 0.75155 0.0
O381 O 0.59023 0.76849 0.71483 0.0
O382 O 0.67974 0.77888 0.50948 0.0
O383 O 0.63751 0.73832 0.47002 0.0
C384 C 0.66359 0.75894 0.44064 0.0
C385 C 0.56521 0.68382 0.72215 0.0
C386 C 0.6102 0.79119 0.66561 0.0
C387 C 0.6575 0.75103 0.84006 0.0
O388 O 0.63064 0.74352 0.85961 0.0
O389 O 0.66728 0.75556 0.74479 0.0
O390 O 0.56197 0.69675 0.80503 0.0
O391 O 0.58559 0.69961 0.65291 0.0
O392 O 0.21114 0.84212 0.62636 0.0
Cd393 Cd 0.24284 0.88661 0.61278 0.0
Cd394 Cd 0.26873 0.86415 0.75151 0.0
O395 O 0.2339 0.82224 0.71478 0.0
O396 O 0.22352 0.90137 0.50945 0.0
O397 O 0.26408 0.89969 0.46999 0.0
C398 C 0.24346 0.90516 0.44062 0.0
C399 C 0.31857 0.88188 0.72211 0.0
C400 C 0.2112 0.81952 0.66556 0.0
C401 C 0.25136 0.90697 0.84004 0.0
O402 O 0.25888 0.88763 0.85958 0.0
O403 O 0.24684 0.91222 0.74476 0.0
O404 O 0.30563 0.86571 0.80499 0.0
O405 O 0.30278 0.88647 0.65288 0.0
O406 O 0.16027 0.36953 0.62637 0.0
Cd407 Cd 0.11578 0.35675 0.6128 0.0
Cd408 Cd 0.13825 0.4051 0.75152 0.0
O409 O 0.18016 0.41217 0.71479 0.0
O410 O 0.10102 0.32267 0.50946 0.0
O411 O 0.10271 0.36492 0.47001 0.0
C412 C 0.09723 0.33883 0.44063 0.0
C413 C 0.12052 0.4372 0.7221 0.0
C414 C 0.18288 0.3922 0.66558 0.0
C415 C 0.09543 0.34492 0.84005 0.0
O416 O 0.11477 0.37177 0.85959 0.0
O417 O 0.09017 0.33514 0.74477 0.0
O418 O 0.1367 0.44045 0.80497 0.0
O419 O 0.11593 0.41682 0.65287 0.0
O420 O 0.21112 0.36951 0.62635 0.0
Cd421 Cd 0.24282 0.35671 0.61277 0.0
Cd422 Cd 0.26872 0.40506 0.75151 0.0
O423 O 0.23389 0.41215 0.71479 0.0
O424 O 0.22349 0.32263 0.50943 0.0
O425 O 0.26405 0.36486 0.46998 0.0
C426 C 0.24343 0.33878 0.4406 0.0
C427 C 0.31856 0.43717 0.72212 0.0
C428 C 0.2112 0.39219 0.66556 0.0
C429 C 0.25133 0.34487 0.84002 0.0
O430 O 0.25886 0.37173 0.85956 0.0
O431 O 0.2468 0.33509 0.74474 0.0
O432 O 0.30563 0.4404 0.805 0.0
O433 O 0.30277 0.41679 0.65288 0.0
O434 O 0.63287 0.84211 0.6264 0.0
Cd435 Cd 0.64566 0.88661 0.61283 0.0
Cd436 Cd 0.59731 0.86415 0.75156 0.0
O437 O 0.59023 0.82223 0.71483 0.0
O438 O 0.67974 0.90136 0.50949 0.0
O439 O 0.6375 0.89968 0.47004 0.0
C440 C 0.66358 0.90515 0.44066 0.0
C441 C 0.5652 0.88188 0.72214 0.0
C442 C 0.6102 0.81951 0.66561 0.0
C443 C 0.65749 0.90696 0.84008 0.0
O444 O 0.63064 0.88762 0.85963 0.0
O445 O 0.66727 0.91221 0.7448 0.0
O446 O 0.56196 0.86571 0.80502 0.0
O447 O 0.58559 0.88647 0.65291 0.0
O448 O 0.16028 0.79127 0.62635 0.0
Cd449 Cd 0.11579 0.75956 0.61278 0.0
Cd450 Cd 0.13824 0.73367 0.7515 0.0
O451 O 0.18016 0.7685 0.71477 0.0
O452 O 0.10103 0.77888 0.50944 0.0
O453 O 0.10271 0.73832 0.46999 0.0
C454 C 0.09724 0.75894 0.44061 0.0
C455 C 0.12051 0.68383 0.72209 0.0
C456 C 0.18288 0.79119 0.66556 0.0
C457 C 0.09543 0.75104 0.84003 0.0
O458 O 0.11477 0.74352 0.85957 0.0
O459 O 0.09018 0.75556 0.74475 0.0
O460 O 0.13669 0.69676 0.80497 0.0
O461 O 0.11592 0.69962 0.65286 0.0
O462 O 0.03665 0.54401 0.80908 0.0
Cd463 Cd 0.02387 0.57572 0.82267 0.0
Cd464 Cd 0.07221 0.60161 0.68393 0.0
O465 O 0.07929 0.56677 0.72065 0.0
O466 O 0.98979 0.5564 0.926 0.0
O467 O 0.03202 0.59695 0.96546 0.0
C468 C 0.00594 0.57634 0.99484 0.0
C469 C 0.10432 0.65145 0.71333 0.0
C470 C 0.05932 0.54408 0.76988 0.0
C471 C 0.01203 0.58424 0.59542 0.0
O472 O 0.03888 0.59175 0.57587 0.0
O473 O 0.00225 0.57971 0.69069 0.0
O474 O 0.10756 0.63851 0.63045 0.0
O475 O 0.08394 0.63566 0.78257 0.0
O476 O 0.45839 0.49314 0.8091 0.0
Cd477 Cd 0.42668 0.44865 0.82268 0.0
Cd478 Cd 0.40079 0.4711 0.68396 0.0
O479 O 0.43562 0.51302 0.72068 0.0
O480 O 0.44601 0.43389 0.92601 0.0
O481 O 0.40545 0.43557 0.96547 0.0
C482 C 0.42606 0.4301 0.99485 0.0
C483 C 0.35095 0.45336 0.71336 0.0
C484 C 0.45831 0.51574 0.76991 0.0
C485 C 0.41817 0.4283 0.59543 0.0
O486 O 0.41065 0.44763 0.57589 0.0
O487 O 0.42269 0.42304 0.6907 0.0
O488 O 0.36388 0.46954 0.63048 0.0
O489 O 0.36674 0.44878 0.7826 0.0
O490 O 0.50924 0.96574 0.8091 0.0
Cd491 Cd 0.55373 0.97853 0.82268 0.0
Cd492 Cd 0.53128 0.93018 0.68396 0.0
O493 O 0.48937 0.9231 0.72068 0.0
O494 O 0.56849 0.01261 0.92602 0.0
O495 O 0.56681 0.97037 0.96547 0.0
C496 C 0.57228 0.99646 0.99485 0.0
C497 C 0.54901 0.89808 0.71336 0.0
C498 C 0.48664 0.94306 0.76989 0.0
C499 C 0.57409 0.99036 0.59543 0.0
O500 O 0.55475 0.96351 0.57589 0.0
O501 O 0.57934 1.00015 0.69071 0.0
O502 O 0.53284 0.89483 0.63048 0.0
O503 O 0.5536 0.91845 0.7826 0.0
loop_
_geom_bond_atom_site_label_1
_geom_bond_atom_site_label_2
_geom_bond_distance
_geom_bond_site_symmetry_2
_ccdc_geom_bond_type
O0 Cd1 2.223 . S
O0 C8 1.315 . S
Cd1 O0 2.223 . S
Cd1 O4 2.297 . S
Cd1 O5 2.439 . S
Cd1 O11 2.240 1_554 S
Cd2 O3 2.240 1_556 S
Cd2 O10 2.223 . S
Cd2 O12 2.297 . S
Cd2 O13 2.439 1_556 S
O3 Cd2 2.240 1_554 S
O3 C8 1.279 . S
O4 Cd1 2.297 . S
O4 C6 1.247 . S
O5 Cd1 2.439 . S
O5 C6 1.208 . S
C6 O4 1.247 . S
C6 O5 1.208 . S
C7 O12 1.247 . S
C7 O13 1.208 1_556 S
C8 O0 1.315 . S
C8 O3 1.279 . S
C9 O10 1.315 . S
C9 O11 1.279 . S
O10 Cd2 2.223 . S
O10 C9 1.315 . S
O11 Cd1 2.240 1_556 S
O11 C9 1.279 . S
O12 Cd2 2.297 . S
O12 C7 1.247 . S
O13 Cd2 2.439 1_554 S
O13 C7 1.208 1_554 S
O14 Cd15 2.223 . S
O14 C22 1.315 . S
Cd15 O14 2.223 . S
Cd15 O18 2.297 . S
Cd15 O19 2.439 . S
Cd15 O25 2.240 1_554 S
Cd16 O17 2.240 1_556 S
Cd16 O24 2.223 . S
Cd16 O26 2.297 . S
Cd16 O27 2.439 1_556 S
O17 Cd16 2.240 1_554 S
O17 C22 1.279 . S
O18 Cd15 2.297 . S
O18 C20 1.247 . S
O19 Cd15 2.439 . S
O19 C20 1.208 . S
C20 O18 1.247 . S
C20 O19 1.208 . S
C21 O26 1.247 . S
C21 O27 1.208 1_556 S
C22 O14 1.315 . S
C22 O17 1.279 . S
C23 O24 1.315 . S
C23 O25 1.279 . S
O24 Cd16 2.223 . S
O24 C23 1.315 . S
O25 Cd15 2.240 1_556 S
O25 C23 1.279 . S
O26 Cd16 2.297 . S
O26 C21 1.247 . S
O27 Cd16 2.439 1_554 S
O27 C21 1.208 1_554 S
O28 Cd29 2.223 . S
O28 C36 1.315 . S
Cd29 O28 2.223 . S
Cd29 O32 2.297 . S
Cd29 O33 2.439 . S
Cd29 O39 2.240 1_554 S
Cd30 O31 2.240 1_556 S
Cd30 O38 2.223 . S
Cd30 O40 2.297 . S
Cd30 O41 2.439 1_556 S
O31 Cd30 2.240 1_554 S
O31 C36 1.279 . S
O32 Cd29 2.297 . S
O32 C34 1.247 . S
O33 Cd29 2.439 . S
O33 C34 1.208 . S
C34 O32 1.247 . S
C34 O33 1.208 . S
C35 O40 1.247 . S
C35 O41 1.208 1_556 S
C36 O28 1.315 . S
C36 O31 1.279 . S
C37 O38 1.315 . S
C37 O39 1.279 . S
O38 Cd30 2.223 . S
O38 C37 1.315 . S
O39 Cd29 2.240 1_556 S
O39 C37 1.279 . S
O40 Cd30 2.297 . S
O40 C35 1.247 . S
O41 Cd30 2.439 1_554 S
O41 C35 1.208 1_554 S
O42 Cd43 2.223 . S
O42 C50 1.315 . S
Cd43 O42 2.223 . S
Cd43 O46 2.297 . S
Cd43 O47 2.439 . S
Cd43 O53 2.240 1_556 S
Cd44 O45 2.240 1_554 S
Cd44 O52 2.223 . S
Cd44 O54 2.297 . S
Cd44 O55 2.439 1_554 S
O45 Cd44 2.240 1_556 S
O45 C50 1.279 . S
O46 Cd43 2.297 . S
O46 C48 1.247 . S
O47 Cd43 2.439 . S
O47 C48 1.208 . S
C48 O46 1.247 . S
C48 O47 1.208 . S
C49 O54 1.247 . S
C49 O55 1.208 1_554 S
C50 O42 1.315 . S
C50 O45 1.279 . S
C51 O52 1.315 . S
C51 O53 1.279 . S
O52 Cd44 2.223 . S
O52 C51 1.315 . S
O53 Cd43 2.240 1_554 S
O53 C51 1.279 . S
O54 Cd44 2.297 . S
O54 C49 1.247 . S
O55 Cd44 2.439 1_556 S
O55 C49 1.208 1_556 S
O56 Cd57 2.223 . S
O56 C64 1.315 . S
Cd57 O56 2.223 . S
Cd57 O60 2.297 . S
Cd57 O61 2.439 . S
Cd57 O67 2.240 1_556 S
Cd58 O59 2.240 1_554 S
Cd58 O66 2.223 . S
Cd58 O68 2.297 . S
Cd58 O69 2.439 1_554 S
O59 Cd58 2.240 1_556 S
O59 C64 1.279 . S
O60 Cd57 2.297 . S
O60 C62 1.247 . S
O61 Cd57 2.439 . S
O61 C62 1.208 . S
C62 O60 1.247 . S
C62 O61 1.208 . S
C63 O68 1.247 . S
C63 O69 1.208 1_554 S
C64 O56 1.315 . S
C64 O59 1.279 . S
C65 O66 1.315 . S
C65 O67 1.279 . S
O66 Cd58 2.223 . S
O66 C65 1.315 . S
O67 Cd57 2.240 1_554 S
O67 C65 1.279 . S
O68 Cd58 2.297 . S
O68 C63 1.247 . S
O69 Cd58 2.439 1_556 S
O69 C63 1.208 1_556 S
O70 Cd71 2.223 . S
O70 C78 1.315 . S
Cd71 O70 2.223 . S
Cd71 O74 2.297 . S
Cd71 O75 2.439 . S
Cd71 O81 2.240 1_556 S
Cd72 O73 2.240 1_554 S
Cd72 O80 2.223 . S
Cd72 O82 2.297 . S
Cd72 O83 2.439 1_554 S
O73 Cd72 2.240 1_556 S
O73 C78 1.279 . S
O74 Cd71 2.297 . S
O74 C76 1.247 . S
O75 Cd71 2.439 . S
O75 C76 1.208 . S
C76 O74 1.247 . S
C76 O75 1.208 . S
C77 O82 1.247 . S
C77 O83 1.208 1_554 S
C78 O70 1.315 . S
C78 O73 1.279 . S
C79 O80 1.315 . S
C79 O81 1.279 . S
O80 Cd72 2.223 . S
O80 C79 1.315 . S
O81 Cd71 2.240 1_554 S
O81 C79 1.279 . S
O82 Cd72 2.297 . S
O82 C77 1.247 . S
O83 Cd72 2.439 1_556 S
O83 C77 1.208 1_556 S
O84 Cd85 2.223 . S
O84 C92 1.315 . S
Cd85 O84 2.223 . S
Cd85 O88 2.297 . S
Cd85 O89 2.439 . S
Cd85 O95 2.240 1_556 S
Cd86 O87 2.240 1_554 S
Cd86 O94 2.223 . S
Cd86 O96 2.297 . S
Cd86 O97 2.439 1_554 S
O87 Cd86 2.240 1_556 S
O87 C92 1.279 . S
O88 Cd85 2.297 . S
O88 C90 1.247 . S
O89 Cd85 2.439 . S
O89 C90 1.208 . S
C90 O88 1.247 . S
C90 O89 1.208 . S
C91 O96 1.247 . S
C91 O97 1.208 1_554 S
C92 O84 1.315 . S
C92 O87 1.279 . S
C93 O94 1.315 . S
C93 O95 1.279 . S
O94 Cd86 2.223 . S
O94 C93 1.315 . S
O95 Cd85 2.240 1_554 S
O95 C93 1.279 . S
O96 Cd86 2.297 . S
O96 C91 1.247 . S
O97 Cd86 2.439 1_556 S
O97 C91 1.208 1_556 S
O98 Cd99 2.223 . S
O98 C106 1.315 . S
Cd99 O98 2.223 . S
Cd99 O102 2.297 . S
Cd99 O103 2.439 . S
Cd99 O109 2.240 1_556 S
Cd100 O101 2.240 1_554 S
Cd100 O108 2.223 . S
Cd100 O110 2.297 . S
Cd100 O111 2.439 1_554 S
O101 Cd100 2.240 1_556 S
O101 C106 1.279 . S
O102 Cd99 2.297 . S
O102 C104 1.247 . S
O103 Cd99 2.439 . S
O103 C104 1.208 . S
C104 O102 1.247 . S
C104 O103 1.208 . S
C105 O110 1.247 . S
C105 O111 1.208 1_554 S
C106 O98 1.315 . S
C106 O101 1.279 . S
C107 O108 1.315 . S
C107 O109 1.279 . S
O108 Cd100 2.223 . S
O108 C107 1.315 . S
O109 Cd99 2.240 1_554 S
O109 C107 1.279 . S
O110 Cd100 2.297 . S
O110 C105 1.247 . S
O111 Cd100 2.439 1_556 S
O111 C105 1.208 1_556 S
O112 Cd113 2.223 . S
O112 C120 1.315 . S
Cd113 O112 2.223 . S
Cd113 O116 2.297 . S
Cd113 O117 2.439 . S
Cd113 O123 2.240 1_556 S
Cd114 O115 2.240 1_554 S
Cd114 O122 2.223 . S
Cd114 O124 2.297 . S
Cd114 O125 2.439 1_554 S
O115 Cd114 2.240 1_556 S
O115 C120 1.279 . S
O116 Cd113 2.297 . S
O116 C118 1.247 . S
O117 Cd113 2.439 . S
O117 C118 1.208 . S
C118 O116 1.247 . S
C118 O117 1.208 . S
C119 O124 1.247 . S
C119 O125 1.208 1_554 S
C120 O112 1.315 . S
C120 O115 1.279 . S
C121 O122 1.315 . S
C121 O123 1.279 . S
O122 Cd114 2.223 . S
O122 C121 1.315 . S
O123 Cd113 2.240 1_554 S
O123 C121 1.279 . S
O124 Cd114 2.297 . S
O124 C119 1.247 . S
O125 Cd114 2.439 1_556 S
O125 C119 1.208 1_556 S
O126 Cd127 2.223 . S
O126 C134 1.315 . S
Cd127 O126 2.223 . S
Cd127 O130 2.297 . S
Cd127 O131 2.439 . S
Cd127 O137 2.240 1_554 S
Cd128 O129 2.240 1_556 S
Cd128 O136 2.223 . S
Cd128 O138 2.297 . S
Cd128 O139 2.439 1_556 S
O129 Cd128 2.240 1_554 S
O129 C134 1.279 . S
O130 Cd127 2.297 . S
O130 C132 1.247 . S
O131 Cd127 2.439 . S
O131 C132 1.208 . S
C132 O130 1.247 . S
C132 O131 1.208 . S
C133 O138 1.247 . S
C133 O139 1.208 1_556 S
C134 O126 1.315 . S
C134 O129 1.279 . S
C135 O136 1.315 . S
C135 O137 1.279 . S
O136 Cd128 2.223 . S
O136 C135 1.315 . S
O137 Cd127 2.240 1_556 S
O137 C135 1.279 . S
O138 Cd128 2.297 . S
O138 C133 1.247 . S
O139 Cd128 2.439 1_554 S
O139 C133 1.208 1_554 S
O140 Cd141 2.223 . S
O140 C148 1.315 . S
Cd141 O140 2.223 . S
Cd141 O144 2.297 . S
Cd141 O145 2.439 . S
Cd141 O151 2.240 1_554 S
Cd142 O143 2.240 1_556 S
Cd142 O150 2.223 . S
Cd142 O152 2.297 . S
Cd142 O153 2.439 1_556 S
O143 Cd142 2.240 1_554 S
O143 C148 1.279 . S
O144 Cd141 2.297 . S
O144 C146 1.247 . S
O145 Cd141 2.439 . S
O145 C146 1.208 . S
C146 O144 1.247 . S
C146 O145 1.208 . S
C147 O152 1.247 . S
C147 O153 1.208 1_556 S
C148 O140 1.315 . S
C148 O143 1.279 . S
C149 O150 1.315 . S
C149 O151 1.279 . S
O150 Cd142 2.223 . S
O150 C149 1.315 . S
O151 Cd141 2.240 1_556 S
O151 C149 1.279 . S
O152 Cd142 2.297 . S
O152 C147 1.247 . S
O153 Cd142 2.439 1_554 S
O153 C147 1.208 1_554 S
O154 Cd155 2.223 . S
O154 C162 1.315 . S
Cd155 O154 2.223 . S
Cd155 O158 2.297 . S
Cd155 O159 2.439 . S
Cd155 O165 2.240 1_554 S
Cd156 O157 2.240 1_556 S
Cd156 O164 2.223 . S
Cd156 O166 2.297 . S
Cd156 O167 2.439 1_556 S
O157 Cd156 2.240 1_554 S
O157 C162 1.279 . S
O158 Cd155 2.297 . S
O158 C160 1.247 . S
O159 Cd155 2.439 . S
O159 C160 1.208 . S
C160 O158 1.247 . S
C160 O159 1.208 . S
C161 O166 1.247 . S
C161 O167 1.208 1_556 S
C162 O154 1.315 . S
C162 O157 1.279 . S
C163 O164 1.315 . S
C163 O165 1.279 . S
O164 Cd156 2.223 . S
O164 C163 1.315 . S
O165 Cd155 2.240 1_556 S
O165 C163 1.279 . S
O166 Cd156 2.297 . S
O166 C161 1.247 . S
O167 Cd156 2.439 1_554 S
O167 C161 1.208 1_554 S
O168 Cd169 2.223 . S
O168 C176 1.315 . S
Cd169 O168 2.223 . S
Cd169 O172 2.297 . S
Cd169 O173 2.439 . S
Cd169 O179 2.240 . S
Cd170 O171 2.240 . S
Cd170 O178 2.223 . S
Cd170 O180 2.297 . S
Cd170 O181 2.439 . S
O171 Cd170 2.240 . S
O171 C176 1.279 . S
O172 Cd169 2.297 . S
O172 C174 1.247 . S
O173 Cd169 2.439 . S
O173 C174 1.208 . S
C174 O172 1.247 . S
C174 O173 1.208 . S
C175 O180 1.247 . S
C175 O181 1.208 . S
C176 O168 1.315 . S
C176 O171 1.279 . S
C177 O178 1.315 . S
C177 O179 1.279 . S
O178 Cd170 2.223 . S
O178 C177 1.315 . S
O179 Cd169 2.240 . S
O179 C177 1.279 . S
O180 Cd170 2.297 . S
O180 C175 1.247 . S
O181 Cd170 2.439 . S
O181 C175 1.208 . S
O182 Cd183 2.223 . S
O182 C190 1.315 . S
Cd183 O182 2.223 . S
Cd183 O186 2.297 . S
Cd183 O187 2.439 . S
Cd183 O193 2.240 . S
Cd184 O185 2.240 . S
Cd184 O192 2.223 . S
Cd184 O194 2.297 . S
Cd184 O195 2.439 . S
O185 Cd184 2.240 . S
O185 C190 1.279 . S
O186 Cd183 2.297 . S
O186 C188 1.247 . S
O187 Cd183 2.439 . S
O187 C188 1.208 . S
C188 O186 1.247 . S
C188 O187 1.208 . S
C189 O194 1.247 . S
C189 O195 1.208 . S
C190 O182 1.315 . S
C190 O185 1.279 . S
C191 O192 1.315 . S
C191 O193 1.279 . S
O192 Cd184 2.223 . S
O192 C191 1.315 . S
O193 Cd183 2.240 . S
O193 C191 1.279 . S
O194 Cd184 2.297 . S
O194 C189 1.247 . S
O195 Cd184 2.439 . S
O195 C189 1.208 . S
O196 Cd197 2.223 . S
O196 C204 1.315 . S
Cd197 O196 2.223 . S
Cd197 O200 2.297 . S
Cd197 O201 2.439 . S
Cd197 O207 2.240 . S
Cd198 O199 2.240 . S
Cd198 O206 2.223 . S
Cd198 O208 2.297 . S
Cd198 O209 2.439 . S
O199 Cd198 2.240 . S
O199 C204 1.279 . S
O200 Cd197 2.297 . S
O200 C202 1.247 . S
O201 Cd197 2.439 . S
O201 C202 1.208 . S
C202 O200 1.247 . S
C202 O201 1.208 . S
C203 O208 1.247 . S
C203 O209 1.208 . S
C204 O196 1.315 . S
C204 O199 1.279 . S
C205 O206 1.315 . S
C205 O207 1.279 . S
O206 Cd198 2.223 . S
O206 C205 1.315 . S
O207 Cd197 2.240 . S
O207 C205 1.279 . S
O208 Cd198 2.297 . S
O208 C203 1.247 . S
O209 Cd198 2.439 . S
O209 C203 1.208 . S
O210 Cd211 2.223 1_655 S
O210 C218 1.315 . S
Cd211 O210 2.223 1_455 S
Cd211 O214 2.297 . S
Cd211 O215 2.439 1_455 S
Cd211 O221 2.240 1_455 S
Cd212 O213 2.240 . S
Cd212 O220 2.223 . S
Cd212 O222 2.297 . S
Cd212 O223 2.439 . S
O213 Cd212 2.240 . S
O213 C218 1.279 . S
O214 Cd211 2.297 . S
O214 C216 1.240 1_455 S
O215 Cd211 2.439 1_655 S
O215 C216 1.217 . S
C216 O214 1.240 1_655 S
C216 O215 1.217 . S
C217 O222 1.247 . S
C217 O223 1.208 . S
C218 O210 1.315 . S
C218 O213 1.279 . S
C219 O220 1.315 . S
C219 O221 1.279 . S
O220 Cd212 2.223 . S
O220 C219 1.315 . S
O221 Cd211 2.240 1_655 S
O221 C219 1.279 . S
O222 Cd212 2.297 . S
O222 C217 1.247 . S
O223 Cd212 2.439 . S
O223 C217 1.208 . S
O224 Cd225 2.223 . S
O224 C232 1.315 . S
Cd225 O224 2.223 . S
Cd225 O228 2.297 . S
Cd225 O229 2.439 . S
Cd225 O235 2.240 . S
Cd226 O227 2.240 . S
Cd226 O234 2.223 . S
Cd226 O236 2.297 . S
Cd226 O237 2.439 . S
O227 Cd226 2.240 . S
O227 C232 1.279 . S
O228 Cd225 2.297 . S
O228 C230 1.247 . S
O229 Cd225 2.439 . S
O229 C230 1.208 . S
C230 O228 1.247 . S
C230 O229 1.208 . S
C231 O236 1.247 . S
C231 O237 1.208 . S
C232 O224 1.315 . S
C232 O227 1.279 . S
C233 O234 1.315 . S
C233 O235 1.279 . S
O234 Cd226 2.223 . S
O234 C233 1.315 . S
O235 Cd225 2.240 . S
O235 C233 1.279 . S
O236 Cd226 2.297 . S
O236 C231 1.247 . S
O237 Cd226 2.439 . S
O237 C231 1.208 . S
O238 Cd239 2.223 1_545 S
O238 C246 1.315 . S
Cd239 O238 2.223 1_565 S
Cd239 O242 2.297 . S
Cd239 O243 2.439 1_565 S
Cd239 O249 2.240 1_565 S
Cd240 O241 2.240 . S
Cd240 O248 2.223 . S
Cd240 O250 2.297 . S
Cd240 O251 2.439 . S
O241 Cd240 2.240 . S
O241 C246 1.279 . S
O242 Cd239 2.297 . S
O242 C244 1.218 1_565 S
O243 Cd239 2.439 1_545 S
O243 C244 1.234 . S
C244 O242 1.218 1_545 S
C244 O243 1.234 . S
C245 O250 1.247 . S
C245 O251 1.208 . S
C246 O238 1.315 . S
C246 O241 1.279 . S
C247 O248 1.315 . S
C247 O249 1.279 . S
O248 Cd240 2.223 . S
O248 C247 1.315 . S
O249 Cd239 2.240 1_545 S
O249 C247 1.279 . S
O250 Cd240 2.297 . S
O250 C245 1.247 . S
O251 Cd240 2.439 . S
O251 C245 1.208 . S
O252 Cd253 2.223 1_545 S
O252 C260 1.315 . S
Cd253 O252 2.223 1_565 S
Cd253 O256 2.297 . S
Cd253 O257 2.439 1_565 S
Cd253 O263 2.240 1_565 S
Cd254 O255 2.240 . S
Cd254 O262 2.223 . S
Cd254 O264 2.297 . S
Cd254 O265 2.439 . S
O255 Cd254 2.240 . S
O255 C260 1.279 . S
O256 Cd253 2.297 . S
O256 C258 1.240 1_565 S
O257 Cd253 2.439 1_545 S
O257 C258 1.217 . S
C258 O256 1.240 1_545 S
C258 O257 1.217 . S
C259 O264 1.247 . S
C259 O265 1.208 . S
C260 O252 1.315 . S
C260 O255 1.279 . S
C261 O262 1.315 . S
C261 O263 1.279 . S
O262 Cd254 2.223 . S
O262 C261 1.315 . S
O263 Cd253 2.240 1_545 S
O263 C261 1.279 . S
O264 Cd254 2.297 . S
O264 C259 1.247 . S
O265 Cd254 2.439 . S
O265 C259 1.208 . S
O266 Cd267 2.223 1_655 S
O266 C274 1.315 . S
Cd267 O266 2.223 1_455 S
Cd267 O270 2.297 . S
Cd267 O271 2.439 1_455 S
Cd267 O277 2.240 1_455 S
Cd268 O269 2.240 . S
Cd268 O276 2.223 . S
Cd268 O278 2.297 . S
Cd268 O279 2.439 . S
O269 Cd268 2.240 . S
O269 C274 1.279 . S
O270 Cd267 2.297 . S
O270 C272 1.218 1_455 S
O271 Cd267 2.439 1_655 S
O271 C272 1.234 . S
C272 O270 1.218 1_655 S
C272 O271 1.234 . S
C273 O278 1.247 . S
C273 O279 1.208 . S
C274 O266 1.315 . S
C274 O269 1.279 . S
C275 O276 1.315 . S
C275 O277 1.279 . S
O276 Cd268 2.223 . S
O276 C275 1.315 . S
O277 Cd267 2.240 1_655 S
O277 C275 1.279 . S
O278 Cd268 2.297 . S
O278 C273 1.247 . S
O279 Cd268 2.439 . S
O279 C273 1.208 . S
O280 Cd281 2.223 . S
O280 C288 1.315 . S
Cd281 O280 2.223 . S
Cd281 O284 2.297 . S
Cd281 O285 2.439 . S
Cd281 O291 2.240 . S
Cd282 O283 2.240 . S
Cd282 O290 2.223 . S
Cd282 O292 2.297 . S
Cd282 O293 2.439 . S
O283 Cd282 2.240 . S
O283 C288 1.279 . S
O284 Cd281 2.297 . S
O284 C286 1.247 . S
O285 Cd281 2.439 . S
O285 C286 1.208 . S
C286 O284 1.247 . S
C286 O285 1.208 . S
C287 O292 1.247 . S
C287 O293 1.208 . S
C288 O280 1.315 . S
C288 O283 1.279 . S
C289 O290 1.315 . S
C289 O291 1.279 . S
O290 Cd282 2.223 . S
O290 C289 1.315 . S
O291 Cd281 2.240 . S
O291 C289 1.279 . S
O292 Cd282 2.297 . S
O292 C287 1.247 . S
O293 Cd282 2.439 . S
O293 C287 1.208 . S
O294 Cd295 2.223 . S
O294 C302 1.315 . S
Cd295 O294 2.223 . S
Cd295 O298 2.297 . S
Cd295 O299 2.439 . S
Cd295 O305 2.240 . S
Cd296 O297 2.240 . S
Cd296 O304 2.223 . S
Cd296 O306 2.297 . S
Cd296 O307 2.439 . S
O297 Cd296 2.240 . S
O297 C302 1.279 . S
O298 Cd295 2.297 . S
O298 C300 1.247 . S
O299 Cd295 2.439 . S
O299 C300 1.208 . S
C300 O298 1.247 . S
C300 O299 1.208 . S
C301 O306 1.247 . S
C301 O307 1.208 . S
C302 O294 1.315 . S
C302 O297 1.279 . S
C303 O304 1.315 . S
C303 O305 1.279 . S
O304 Cd296 2.223 . S
O304 C303 1.315 . S
O305 Cd295 2.240 . S
O305 C303 1.279 . S
O306 Cd296 2.297 . S
O306 C301 1.247 . S
O307 Cd296 2.439 . S
O307 C301 1.208 . S
O308 Cd309 2.223 . S
O308 C316 1.315 . S
Cd309 O308 2.223 . S
Cd309 O312 2.297 . S
Cd309 O313 2.439 . S
Cd309 O319 2.240 . S
Cd310 O311 2.240 . S
Cd310 O318 2.223 . S
Cd310 O320 2.297 . S
Cd310 O321 2.439 . S
O311 Cd310 2.240 . S
O311 C316 1.279 . S
O312 Cd309 2.297 . S
O312 C314 1.247 . S
O313 Cd309 2.439 . S
O313 C314 1.208 . S
C314 O312 1.247 . S
C314 O313 1.208 . S
C315 O320 1.247 . S
C315 O321 1.208 . S
C316 O308 1.315 . S
C316 O311 1.279 . S
C317 O318 1.315 . S
C317 O319 1.279 . S
O318 Cd310 2.223 . S
O318 C317 1.315 . S
O319 Cd309 2.240 . S
O319 C317 1.279 . S
O320 Cd310 2.297 . S
O320 C315 1.247 . S
O321 Cd310 2.439 . S
O321 C315 1.208 . S
O322 Cd323 2.223 . S
O322 C330 1.315 . S
Cd323 O322 2.223 . S
Cd323 O326 2.297 . S
Cd323 O327 2.439 . S
Cd323 O333 2.240 . S
Cd324 O325 2.240 . S
Cd324 O332 2.223 . S
Cd324 O334 2.297 . S
Cd324 O335 2.439 . S
O325 Cd324 2.240 . S
O325 C330 1.279 . S
O326 Cd323 2.297 . S
O326 C328 1.247 . S
O327 Cd323 2.439 . S
O327 C328 1.208 . S
C328 O326 1.247 . S
C328 O327 1.208 . S
C329 O334 1.247 . S
C329 O335 1.208 . S
C330 O322 1.315 . S
C330 O325 1.279 . S
C331 O332 1.315 . S
C331 O333 1.279 . S
O332 Cd324 2.223 . S
O332 C331 1.315 . S
O333 Cd323 2.240 . S
O333 C331 1.279 . S
O334 Cd324 2.297 . S
O334 C329 1.247 . S
O335 Cd324 2.439 . S
O335 C329 1.208 . S
O336 Cd337 2.223 1_565 S
O336 C344 1.315 . S
Cd337 O336 2.223 1_545 S
Cd337 O340 2.297 . S
Cd337 O341 2.439 1_545 S
Cd337 O347 2.240 1_545 S
Cd338 O339 2.240 . S
Cd338 O346 2.223 . S
Cd338 O348 2.297 . S
Cd338 O349 2.439 . S
O339 Cd338 2.240 . S
O339 C344 1.279 . S
O340 Cd337 2.297 . S
O340 C342 1.240 1_545 S
O341 Cd337 2.439 1_565 S
O341 C342 1.217 . S
C342 O340 1.240 1_565 S
C342 O341 1.217 . S
C343 O348 1.247 . S
C343 O349 1.208 . S
C344 O336 1.315 . S
C344 O339 1.279 . S
C345 O346 1.315 . S
C345 O347 1.279 . S
O346 Cd338 2.223 . S
O346 C345 1.315 . S
O347 Cd337 2.240 1_565 S
O347 C345 1.279 . S
O348 Cd338 2.297 . S
O348 C343 1.247 . S
O349 Cd338 2.439 . S
O349 C343 1.208 . S
O350 Cd351 2.223 1_455 S
O350 C358 1.315 . S
Cd351 O350 2.223 1_655 S
Cd351 O354 2.297 . S
Cd351 O355 2.439 1_655 S
Cd351 O361 2.240 1_655 S
Cd352 O353 2.240 . S
Cd352 O360 2.223 . S
Cd352 O362 2.297 . S
Cd352 O363 2.439 . S
O353 Cd352 2.240 . S
O353 C358 1.279 . S
O354 Cd351 2.297 . S
O354 C356 1.218 1_655 S
O355 Cd351 2.439 1_455 S
O355 C356 1.234 . S
C356 O354 1.218 1_455 S
C356 O355 1.234 . S
C357 O362 1.247 . S
C357 O363 1.208 . S
C358 O350 1.315 . S
C358 O353 1.279 . S
C359 O360 1.315 . S
C359 O361 1.279 . S
O360 Cd352 2.223 . S
O360 C359 1.315 . S
O361 Cd351 2.240 1_455 S
O361 C359 1.279 . S
O362 Cd352 2.297 . S
O362 C357 1.247 . S
O363 Cd352 2.439 . S
O363 C357 1.208 . S
O364 Cd365 2.223 . S
O364 C372 1.315 . S
Cd365 O364 2.223 . S
Cd365 O368 2.297 . S
Cd365 O369 2.439 . S
Cd365 O375 2.240 . S
Cd366 O367 2.240 . S
Cd366 O374 2.223 . S
Cd366 O376 2.297 . S
Cd366 O377 2.439 . S
O367 Cd366 2.240 . S
O367 C372 1.279 . S
O368 Cd365 2.297 . S
O368 C370 1.247 . S
O369 Cd365 2.439 . S
O369 C370 1.208 . S
C370 O368 1.247 . S
C370 O369 1.208 . S
C371 O376 1.247 . S
C371 O377 1.208 . S
C372 O364 1.315 . S
C372 O367 1.279 . S
C373 O374 1.315 . S
C373 O375 1.279 . S
O374 Cd366 2.223 . S
O374 C373 1.315 . S
O375 Cd365 2.240 . S
O375 C373 1.279 . S
O376 Cd366 2.297 . S
O376 C371 1.247 . S
O377 Cd366 2.439 . S
O377 C371 1.208 . S
O378 Cd379 2.223 . S
O378 C386 1.315 . S
Cd379 O378 2.223 . S
Cd379 O382 2.297 . S
Cd379 O383 2.439 . S
Cd379 O389 2.240 . S
Cd380 O381 2.240 . S
Cd380 O388 2.223 . S
Cd380 O390 2.297 . S
Cd380 O391 2.439 . S
O381 Cd380 2.240 . S
O381 C386 1.279 . S
O382 Cd379 2.297 . S
O382 C384 1.247 . S
O383 Cd379 2.439 . S
O383 C384 1.208 . S
C384 O382 1.247 . S
C384 O383 1.208 . S
C385 O390 1.247 . S
C385 O391 1.208 . S
C386 O378 1.315 . S
C386 O381 1.279 . S
C387 O388 1.315 . S
C387 O389 1.279 . S
O388 Cd380 2.223 . S
O388 C387 1.315 . S
O389 Cd379 2.240 . S
O389 C387 1.279 . S
O390 Cd380 2.297 . S
O390 C385 1.247 . S
O391 Cd380 2.439 . S
O391 C385 1.208 . S
O392 Cd393 2.223 . S
O392 C400 1.315 . S
Cd393 O392 2.223 . S
Cd393 O396 2.297 . S
Cd393 O397 2.439 . S
Cd393 O403 2.240 . S
Cd394 O395 2.240 . S
Cd394 O402 2.223 . S
Cd394 O404 2.297 . S
Cd394 O405 2.439 . S
O395 Cd394 2.240 . S
O395 C400 1.279 . S
O396 Cd393 2.297 . S
O396 C398 1.247 . S
O397 Cd393 2.439 . S
O397 C398 1.208 . S
C398 O396 1.247 . S
C398 O397 1.208 . S
C399 O404 1.247 . S
C399 O405 1.208 . S
C400 O392 1.315 . S
C400 O395 1.279 . S
C401 O402 1.315 . S
C401 O403 1.279 . S
O402 Cd394 2.223 . S
O402 C401 1.315 . S
O403 Cd393 2.240 . S
O403 C401 1.279 . S
O404 Cd394 2.297 . S
O404 C399 1.247 . S
O405 Cd394 2.439 . S
O405 C399 1.208 . S
O406 Cd407 2.223 . S
O406 C414 1.315 . S
Cd407 O406 2.223 . S
Cd407 O410 2.297 . S
Cd407 O411 2.439 . S
Cd407 O417 2.240 . S
Cd408 O409 2.240 . S
Cd408 O416 2.223 . S
Cd408 O418 2.297 . S
Cd408 O419 2.439 . S
O409 Cd408 2.240 . S
O409 C414 1.279 . S
O410 Cd407 2.297 . S
O410 C412 1.247 . S
O411 Cd407 2.439 . S
O411 C412 1.208 . S
C412 O410 1.247 . S
C412 O411 1.208 . S
C413 O418 1.247 . S
C413 O419 1.208 . S
C414 O406 1.315 . S
C414 O409 1.279 . S
C415 O416 1.315 . S
C415 O417 1.279 . S
O416 Cd408 2.223 . S
O416 C415 1.315 . S
O417 Cd407 2.240 . S
O417 C415 1.279 . S
O418 Cd408 2.297 . S
O418 C413 1.247 . S
O419 Cd408 2.439 . S
O419 C413 1.208 . S
O420 Cd421 2.223 . S
O420 C428 1.315 . S
Cd421 O420 2.223 . S
Cd421 O424 2.297 . S
Cd421 O425 2.439 . S
Cd421 O431 2.240 . S
Cd422 O423 2.240 . S
Cd422 O430 2.223 . S
Cd422 O432 2.297 . S
Cd422 O433 2.439 . S
O423 Cd422 2.240 . S
O423 C428 1.279 . S
O424 Cd421 2.297 . S
O424 C426 1.247 . S
O425 Cd421 2.439 . S
O425 C426 1.208 . S
C426 O424 1.247 . S
C426 O425 1.208 . S
C427 O432 1.247 . S
C427 O433 1.208 . S
C428 O420 1.315 . S
C428 O423 1.279 . S
C429 O430 1.315 . S
C429 O431 1.279 . S
O430 Cd422 2.223 . S
O430 C429 1.315 . S
O431 Cd421 2.240 . S
O431 C429 1.279 . S
O432 Cd422 2.297 . S
O432 C427 1.247 . S
O433 Cd422 2.439 . S
O433 C427 1.208 . S
O434 Cd435 2.223 . S
O434 C442 1.315 . S
Cd435 O434 2.223 . S
Cd435 O438 2.297 . S
Cd435 O439 2.439 . S
Cd435 O445 2.240 . S
Cd436 O437 2.240 . S
Cd436 O444 2.223 . S
Cd436 O446 2.297 . S
Cd436 O447 2.439 . S
O437 Cd436 2.240 . S
O437 C442 1.279 . S
O438 Cd435 2.297 . S
O438 C440 1.247 . S
O439 Cd435 2.439 . S
O439 C440 1.208 . S
C440 O438 1.247 . S
C440 O439 1.208 . S
C441 O446 1.247 . S
C441 O447 1.208 . S
C442 O434 1.315 . S
C442 O437 1.279 . S
C443 O444 1.315 . S
C443 O445 1.279 . S
O444 Cd436 2.223 . S
O444 C443 1.315 . S
O445 Cd435 2.240 . S
O445 C443 1.279 . S
O446 Cd436 2.297 . S
O446 C441 1.247 . S
O447 Cd436 2.439 . S
O447 C441 1.208 . S
O448 Cd449 2.223 . S
O448 C456 1.315 . S
Cd449 O448 2.223 . S
Cd449 O452 2.297 . S
Cd449 O453 2.439 . S
Cd449 O459 2.240 . S
Cd450 O451 2.240 . S
Cd450 O458 2.223 . S
Cd450 O460 2.297 . S
Cd450 O461 2.439 . S
O451 Cd450 2.240 . S
O451 C456 1.279 . S
O452 Cd449 2.297 . S
O452 C454 1.247 . S
O453 Cd449 2.439 . S
O453 C454 1.208 . S
C454 O452 1.247 . S
C454 O453 1.208 . S
C455 O460 1.247 . S
C455 O461 1.208 . S
C456 O448 1.315 . S
C456 O451 1.279 . S
C457 O458 1.315 . S
C457 O459 1.279 . S
O458 Cd450 2.223 . S
O458 C457 1.315 . S
O459 Cd449 2.240 . S
O459 C457 1.279 . S
O460 Cd450 2.297 . S
O460 C455 1.247 . S
O461 Cd450 2.439 . S
O461 C455 1.208 . S
O462 Cd463 2.223 1_455 S
O462 C470 1.315 . S
Cd463 O462 2.223 1_655 S
Cd463 O466 2.297 . S
Cd463 O467 2.439 1_655 S
Cd463 O473 2.240 1_655 S
Cd464 O465 2.240 . S
Cd464 O472 2.223 . S
Cd464 O474 2.297 . S
Cd464 O475 2.439 . S
O465 Cd464 2.240 . S
O465 C470 1.279 . S
O466 Cd463 2.297 . S
O466 C468 1.240 1_655 S
O467 Cd463 2.439 1_455 S
O467 C468 1.217 . S
C468 O466 1.240 1_455 S
C468 O467 1.217 . S
C469 O474 1.247 . S
C469 O475 1.208 . S
C470 O462 1.315 . S
C470 O465 1.279 . S
C471 O472 1.315 . S
C471 O473 1.279 . S
O472 Cd464 2.223 . S
O472 C471 1.315 . S
O473 Cd463 2.240 1_455 S
O473 C471 1.279 . S
O474 Cd464 2.297 . S
O474 C469 1.247 . S
O475 Cd464 2.439 . S
O475 C469 1.208 . S
O476 Cd477 2.223 . S
O476 C484 1.315 . S
Cd477 O476 2.223 . S
Cd477 O480 2.297 . S
Cd477 O481 2.439 . S
Cd477 O487 2.240 . S
Cd478 O479 2.240 . S
Cd478 O486 2.223 . S
Cd478 O488 2.297 . S
Cd478 O489 2.439 . S
O479 Cd478 2.240 . S
O479 C484 1.279 . S
O480 Cd477 2.297 . S
O480 C482 1.247 . S
O481 Cd477 2.439 . S
O481 C482 1.208 . S
C482 O480 1.247 . S
C482 O481 1.208 . S
C483 O488 1.247 . S
C483 O489 1.208 . S
C484 O476 1.315 . S
C484 O479 1.279 . S
C485 O486 1.315 . S
C485 O487 1.279 . S
O486 Cd478 2.223 . S
O486 C485 1.315 . S
O487 Cd477 2.240 . S
O487 C485 1.279 . S
O488 Cd478 2.297 . S
O488 C483 1.247 . S
O489 Cd478 2.439 . S
O489 C483 1.208 . S
O490 Cd491 2.223 1_565 S
O490 C498 1.315 . S
Cd491 O490 2.223 1_545 S
Cd491 O494 2.297 . S
Cd491 O495 2.439 1_545 S
Cd491 O501 2.240 1_545 S
Cd492 O493 2.240 . S
Cd492 O500 2.223 . S
Cd492 O502 2.297 . S
Cd492 O503 2.439 . S
O493 Cd492 2.240 . S
O493 C498 1.279 . S
O494 Cd491 2.297 . S
O494 C496 1.218 1_545 S
O495 Cd491 2.439 1_565 S
O495 C496 1.234 . S
C496 O494 1.218 1_565 S
C496 O495 1.234 . S
C497 O502 1.247 . S
C497 O503 1.208 . S
C498 O490 1.315 . S
C498 O493 1.279 . S
C499 O500 1.315 . S
C499 O501 1.279 . S
O500 Cd492 2.223 . S
O500 C499 1.315 . S
O501 Cd491 2.240 1_565 S
O501 C499 1.279 . S
O502 Cd492 2.297 . S
O502 C497 1.247 . S
O503 Cd492 2.439 . S
O503 C497 1.208 . S
C8 C162 1.156 . S
C22 C134 1.156 . S
C148 C36 1.156 . S
C50 C106 1.156 . S
C120 C64 1.156 . S
C78 C92 1.156 . S
C330 C176 1.156 . S
C190 C302 1.155 . S
C204 C316 1.156 . S
C274 C218 1.156 . S
C232 C288 1.156 . S
C260 C246 1.156 . S
C344 C498 1.156 . S
C470 C358 1.156 . S
C484 C372 1.156 . S
C442 C386 1.156 . S
C456 C400 1.156 . S
C428 C414 1.156 . S
C7 C63 1.521 1_456 S
C77 C21 1.521 1_554 S
C35 C49 1.521 1_566 S
C91 C147 1.521 1_654 S
C105 C161 1.520 1_554 S
C119 C133 1.521 1_544 S
C231 C175 1.521 . S
C245 C189 1.521 . S
C203 C217 1.521 . S
C315 C259 1.521 . S
C329 C273 1.521 . S
C287 C301 1.521 . S
C399 C343 1.521 . S
C357 C413 1.521 . S
C371 C385 1.521 . S
C483 C427 1.521 . S
C441 C497 1.521 . S
C469 C455 1.521 . S
C415 C9 1.793 . S
C23 C387 1.793 . S
C37 C401 1.793 . S
C51 C191 1.793 . S
C205 C65 1.793 . S
C177 C79 1.793 . S
C93 C331 1.793 . S
C107 C303 1.793 . S
C121 C317 1.793 . S
C443 C135 1.793 . S
C457 C149 1.793 . S
C163 C429 1.793 . S
C359 C219 1.793 1_455 S
C233 C373 1.793 . S
C345 C247 1.793 1_565 S
C499 C261 1.793 1_565 S
C275 C471 1.793 1_655 S
C289 C485 1.793 . S
C6 C412 1.453 . S
C384 C20 1.453 . S
C34 C398 1.453 . S
C188 C48 1.453 . S
C62 C202 1.453 . S
C76 C174 1.453 . S
C328 C90 1.453 . S
C104 C300 1.453 . S
C118 C314 1.453 . S
C132 C440 1.453 . S
C454 C146 1.453 . S
C160 C426 1.453 . S
C356 C216 1.452 1_456 S
C230 C370 1.453 1_554 S
C244 C342 1.452 1_544 S
C496 C258 1.452 1_566 S
C468 C272 1.452 1_456 S
C286 C482 1.453 1_554 S
