# Generated by pormake.
# Topology wna, (6)-cn, num edge types: 1
# Building blocks:
#     Node 0, Type 0, BuildingBlock: BETFEN_clean_sbu_0, # of connection points: 6
#     Node 1, Type 0, BuildingBlock: BETFEN_clean_sbu_0, # of connection points: 6
#     Node 2, Type 0, BuildingBlock: BETFEN_clean_sbu_0, # of connection points: 6
#     Node 3, Type 0, BuildingBlock: BETFEN_clean_sbu_0, # of connection points: 6
#     Node 4, Type 0, BuildingBlock: BETFEN_clean_sbu_0, # of connection points: 6
#     Node 5, Type 0, BuildingBlock: BETFEN_clean_sbu_0, # of connection points: 6
#     Node 6, Type 0, BuildingBlock: BETFEN_clean_sbu_0, # of connection points: 6
#     Node 7, Type 0, BuildingBlock: BETFEN_clean_sbu_0, # of connection points: 6
#     Node 8, Type 0, BuildingBlock: BETFEN_clean_sbu_0, # of connection points: 6
#     Node 9, Type 0, BuildingBlock: BETFEN_clean_sbu_0, # of connection points: 6
#     Node 10, Type 0, BuildingBlock: BETFEN_clean_sbu_0, # of connection points: 6
#     Node 11, Type 0, BuildingBlock: BETFEN_clean_sbu_0, # of connection points: 6
#     Node 12, Type 0, BuildingBlock: BETFEN_clean_sbu_0, # of connection points: 6
#     Node 13, Type 0, BuildingBlock: BETFEN_clean_sbu_0, # of connection points: 6
#     Node 14, Type 0, BuildingBlock: BETFEN_clean_sbu_0, # of connection points: 6
#     Node 15, Type 0, BuildingBlock: BETFEN_clean_sbu_0, # of connection points: 6
#     Node 16, Type 0, BuildingBlock: BETFEN_clean_sbu_0, # of connection points: 6
#     Node 17, Type 0, BuildingBlock: BETFEN_clean_sbu_0, # of connection points: 6
#     Node 18, Type 0, BuildingBlock: BETFEN_clean_sbu_0, # of connection points: 6
#     Node 19, Type 0, BuildingBlock: BETFEN_clean_sbu_0, # of connection points: 6
#     Node 20, Type 0, BuildingBlock: BETFEN_clean_sbu_0, # of connection points: 6
#     Node 21, Type 0, BuildingBlock: BETFEN_clean_sbu_0, # of connection points: 6
#     Node 22, Type 0, BuildingBlock: BETFEN_clean_sbu_0, # of connection points: 6
#     Node 23, Type 0, BuildingBlock: BETFEN_clean_sbu_0, # of connection points: 6
#     Node 24, Type 0, BuildingBlock: BETFEN_clean_sbu_0, # of connection points: 6
#     Node 25, Type 0, BuildingBlock: BETFEN_clean_sbu_0, # of connection points: 6
#     Node 26, Type 0, BuildingBlock: BETFEN_clean_sbu_0, # of connection points: 6
#     Node 27, Type 0, BuildingBlock: BETFEN_clean_sbu_0, # of connection points: 6
#     Node 28, Type 0, BuildingBlock: BETFEN_clean_sbu_0, # of connection points: 6
#     Node 29, Type 0, BuildingBlock: BETFEN_clean_sbu_0, # of connection points: 6
#     Node 30, Type 0, BuildingBlock: BETFEN_clean_sbu_0, # of connection points: 6
#     Node 31, Type 0, BuildingBlock: BETFEN_clean_sbu_0, # of connection points: 6
#     Node 32, Type 0, BuildingBlock: BETFEN_clean_sbu_0, # of connection points: 6
#     Node 33, Type 0, BuildingBlock: BETFEN_clean_sbu_0, # of connection points: 6
#     Node 34, Type 0, BuildingBlock: BETFEN_clean_sbu_0, # of connection points: 6
#     Node 35, Type 0, BuildingBlock: BETFEN_clean_sbu_0, # of connection points: 6
#     Edge 36, Type (0, 0), BuildingBlock: KIFKEQ_clean_linker_1, # of connection points: 2
#     Edge 37, Type (0, 0), BuildingBlock: KIFKEQ_clean_linker_1, # of connection points: 2
#     Edge 38, Type (0, 0), BuildingBlock: KIFKEQ_clean_linker_1, # of connection points: 2
#     Edge 39, Type (0, 0), BuildingBlock: KIFKEQ_clean_linker_1, # of connection points: 2
#     Edge 40, Type (0, 0), BuildingBlock: KIFKEQ_clean_linker_1, # of connection points: 2
#     Edge 41, Type (0, 0), BuildingBlock: KIFKEQ_clean_linker_1, # of connection points: 2
#     Edge 42, Type (0, 0), BuildingBlock: KIFKEQ_clean_linker_1, # of connection points: 2
#     Edge 43, Type (0, 0), BuildingBlock: KIFKEQ_clean_linker_1, # of connection points: 2
#     Edge 44, Type (0, 0), BuildingBlock: KIFKEQ_clean_linker_1, # of connection points: 2
#     Edge 45, Type (0, 0), BuildingBlock: KIFKEQ_clean_linker_1, # of connection points: 2
#     Edge 46, Type (0, 0), BuildingBlock: KIFKEQ_clean_linker_1, # of connection points: 2
#     Edge 47, Type (0, 0), BuildingBlock: KIFKEQ_clean_linker_1, # of connection points: 2
#     Edge 48, Type (0, 0), BuildingBlock: KIFKEQ_clean_linker_1, # of connection points: 2
#     Edge 49, Type (0, 0), BuildingBlock: KIFKEQ_clean_linker_1, # of connection points: 2
#     Edge 50, Type (0, 0), BuildingBlock: KIFKEQ_clean_linker_1, # of connection points: 2
#     Edge 51, Type (0, 0), BuildingBlock: KIFKEQ_clean_linker_1, # of connection points: 2
#     Edge 52, Type (0, 0), BuildingBlock: KIFKEQ_clean_linker_1, # of connection points: 2
#     Edge 53, Type (0, 0), BuildingBlock: KIFKEQ_clean_linker_1, # of connection points: 2
#     Edge 54, Type (0, 0), BuildingBlock: KIFKEQ_clean_linker_1, # of connection points: 2
#     Edge 55, Type (0, 0), BuildingBlock: KIFKEQ_clean_linker_1, # of connection points: 2
#     Edge 56, Type (0, 0), BuildingBlock: KIFKEQ_clean_linker_1, # of connection points: 2
#     Edge 57, Type (0, 0), BuildingBlock: KIFKEQ_clean_linker_1, # of connection points: 2
#     Edge 58, Type (0, 0), BuildingBlock: KIFKEQ_clean_linker_1, # of connection points: 2
#     Edge 59, Type (0, 0), BuildingBlock: KIFKEQ_clean_linker_1, # of connection points: 2
#     Edge 60, Type (0, 0), BuildingBlock: KIFKEQ_clean_linker_1, # of connection points: 2
#     Edge 61, Type (0, 0), BuildingBlock: KIFKEQ_clean_linker_1, # of connection points: 2
#     Edge 62, Type (0, 0), BuildingBlock: KIFKEQ_clean_linker_1, # of connection points: 2
#     Edge 63, Type (0, 0), BuildingBlock: KIFKEQ_clean_linker_1, # of connection points: 2
#     Edge 64, Type (0, 0), BuildingBlock: KIFKEQ_clean_linker_1, # of connection points: 2
#     Edge 65, Type (0, 0), BuildingBlock: KIFKEQ_clean_linker_1, # of connection points: 2
#     Edge 66, Type (0, 0), BuildingBlock: KIFKEQ_clean_linker_1, # of connection points: 2
#     Edge 67, Type (0, 0), BuildingBlock: KIFKEQ_clean_linker_1, # of connection points: 2
#     Edge 68, Type (0, 0), BuildingBlock: KIFKEQ_clean_linker_1, # of connection points: 2
#     Edge 69, Type (0, 0), BuildingBlock: KIFKEQ_clean_linker_1, # of connection points: 2
#     Edge 70, Type (0, 0), BuildingBlock: KIFKEQ_clean_linker_1, # of connection points: 2
#     Edge 71, Type (0, 0), BuildingBlock: KIFKEQ_clean_linker_1, # of connection points: 2
#     Edge 72, Type (0, 0), BuildingBlock: KIFKEQ_clean_linker_1, # of connection points: 2
#     Edge 73, Type (0, 0), BuildingBlock: KIFKEQ_clean_linker_1, # of connection points: 2
#     Edge 74, Type (0, 0), BuildingBlock: KIFKEQ_clean_linker_1, # of connection points: 2
#     Edge 75, Type (0, 0), BuildingBlock: KIFKEQ_clean_linker_1, # of connection points: 2
#     Edge 76, Type (0, 0), BuildingBlock: KIFKEQ_clean_linker_1, # of connection points: 2
#     Edge 77, Type (0, 0), BuildingBlock: KIFKEQ_clean_linker_1, # of connection points: 2
#     Edge 78, Type (0, 0), BuildingBlock: KIFKEQ_clean_linker_1, # of connection points: 2
#     Edge 79, Type (0, 0), BuildingBlock: KIFKEQ_clean_linker_1, # of connection points: 2
#     Edge 80, Type (0, 0), BuildingBlock: KIFKEQ_clean_linker_1, # of connection points: 2
#     Edge 81, Type (0, 0), BuildingBlock: KIFKEQ_clean_linker_1, # of connection points: 2
#     Edge 82, Type (0, 0), BuildingBlock: KIFKEQ_clean_linker_1, # of connection points: 2
#     Edge 83, Type (0, 0), BuildingBlock: KIFKEQ_clean_linker_1, # of connection points: 2
#     Edge 84, Type (0, 0), BuildingBlock: KIFKEQ_clean_linker_1, # of connection points: 2
#     Edge 85, Type (0, 0), BuildingBlock: KIFKEQ_clean_linker_1, # of connection points: 2
#     Edge 86, Type (0, 0), BuildingBlock: KIFKEQ_clean_linker_1, # of connection points: 2
#     Edge 87, Type (0, 0), BuildingBlock: KIFKEQ_clean_linker_1, # of connection points: 2
#     Edge 88, Type (0, 0), BuildingBlock: KIFKEQ_clean_linker_1, # of connection points: 2
#     Edge 89, Type (0, 0), BuildingBlock: KIFKEQ_clean_linker_1, # of connection points: 2
#     Edge 90, Type (0, 0), BuildingBlock: KIFKEQ_clean_linker_1, # of connection points: 2
#     Edge 91, Type (0, 0), BuildingBlock: KIFKEQ_clean_linker_1, # of connection points: 2
#     Edge 92, Type (0, 0), BuildingBlock: KIFKEQ_clean_linker_1, # of connection points: 2
#     Edge 93, Type (0, 0), BuildingBlock: KIFKEQ_clean_linker_1, # of connection points: 2
#     Edge 94, Type (0, 0), BuildingBlock: KIFKEQ_clean_linker_1, # of connection points: 2
#     Edge 95, Type (0, 0), BuildingBlock: KIFKEQ_clean_linker_1, # of connection points: 2
#     Edge 96, Type (0, 0), BuildingBlock: KIFKEQ_clean_linker_1, # of connection points: 2
#     Edge 97, Type (0, 0), BuildingBlock: KIFKEQ_clean_linker_1, # of connection points: 2
#     Edge 98, Type (0, 0), BuildingBlock: KIFKEQ_clean_linker_1, # of connection points: 2
#     Edge 99, Type (0, 0), BuildingBlock: KIFKEQ_clean_linker_1, # of connection points: 2
#     Edge 100, Type (0, 0), BuildingBlock: KIFKEQ_clean_linker_1, # of connection points: 2
#     Edge 101, Type (0, 0), BuildingBlock: KIFKEQ_clean_linker_1, # of connection points: 2
#     Edge 102, Type (0, 0), BuildingBlock: KIFKEQ_clean_linker_1, # of connection points: 2
#     Edge 103, Type (0, 0), BuildingBlock: KIFKEQ_clean_linker_1, # of connection points: 2
#     Edge 104, Type (0, 0), BuildingBlock: KIFKEQ_clean_linker_1, # of connection points: 2
#     Edge 105, Type (0, 0), BuildingBlock: KIFKEQ_clean_linker_1, # of connection points: 2
#     Edge 106, Type (0, 0), BuildingBlock: KIFKEQ_clean_linker_1, # of connection points: 2
#     Edge 107, Type (0, 0), BuildingBlock: KIFKEQ_clean_linker_1, # of connection points: 2
#     Edge 108, Type (0, 0), BuildingBlock: KIFKEQ_clean_linker_1, # of connection points: 2
#     Edge 109, Type (0, 0), BuildingBlock: KIFKEQ_clean_linker_1, # of connection points: 2
#     Edge 110, Type (0, 0), BuildingBlock: KIFKEQ_clean_linker_1, # of connection points: 2
#     Edge 111, Type (0, 0), BuildingBlock: KIFKEQ_clean_linker_1, # of connection points: 2
#     Edge 112, Type (0, 0), BuildingBlock: KIFKEQ_clean_linker_1, # of connection points: 2
#     Edge 113, Type (0, 0), BuildingBlock: KIFKEQ_clean_linker_1, # of connection points: 2
#     Edge 114, Type (0, 0), BuildingBlock: KIFKEQ_clean_linker_1, # of connection points: 2
#     Edge 115, Type (0, 0), BuildingBlock: KIFKEQ_clean_linker_1, # of connection points: 2
#     Edge 116, Type (0, 0), BuildingBlock: KIFKEQ_clean_linker_1, # of connection points: 2
#     Edge 117, Type (0, 0), BuildingBlock: KIFKEQ_clean_linker_1, # of connection points: 2
#     Edge 118, Type (0, 0), BuildingBlock: KIFKEQ_clean_linker_1, # of connection points: 2
#     Edge 119, Type (0, 0), BuildingBlock: KIFKEQ_clean_linker_1, # of connection points: 2
#     Edge 120, Type (0, 0), BuildingBlock: KIFKEQ_clean_linker_1, # of connection points: 2
#     Edge 121, Type (0, 0), BuildingBlock: KIFKEQ_clean_linker_1, # of connection points: 2
#     Edge 122, Type (0, 0), BuildingBlock: KIFKEQ_clean_linker_1, # of connection points: 2
#     Edge 123, Type (0, 0), BuildingBlock: KIFKEQ_clean_linker_1, # of connection points: 2
#     Edge 124, Type (0, 0), BuildingBlock: KIFKEQ_clean_linker_1, # of connection points: 2
#     Edge 125, Type (0, 0), BuildingBlock: KIFKEQ_clean_linker_1, # of connection points: 2
#     Edge 126, Type (0, 0), BuildingBlock: KIFKEQ_clean_linker_1, # of connection points: 2
#     Edge 127, Type (0, 0), BuildingBlock: KIFKEQ_clean_linker_1, # of connection points: 2
#     Edge 128, Type (0, 0), BuildingBlock: KIFKEQ_clean_linker_1, # of connection points: 2
#     Edge 129, Type (0, 0), BuildingBlock: KIFKEQ_clean_linker_1, # of connection points: 2
#     Edge 130, Type (0, 0), BuildingBlock: KIFKEQ_clean_linker_1, # of connection points: 2
#     Edge 131, Type (0, 0), BuildingBlock: KIFKEQ_clean_linker_1, # of connection points: 2
#     Edge 132, Type (0, 0), BuildingBlock: KIFKEQ_clean_linker_1, # of connection points: 2
#     Edge 133, Type (0, 0), BuildingBlock: KIFKEQ_clean_linker_1, # of connection points: 2
#     Edge 134, Type (0, 0), BuildingBlock: KIFKEQ_clean_linker_1, # of connection points: 2
#     Edge 135, Type (0, 0), BuildingBlock: KIFKEQ_clean_linker_1, # of connection points: 2
#     Edge 136, Type (0, 0), BuildingBlock: KIFKEQ_clean_linker_1, # of connection points: 2
#     Edge 137, Type (0, 0), BuildingBlock: KIFKEQ_clean_linker_1, # of connection points: 2
#     Edge 138, Type (0, 0), BuildingBlock: KIFKEQ_clean_linker_1, # of connection points: 2
#     Edge 139, Type (0, 0), BuildingBlock: KIFKEQ_clean_linker_1, # of connection points: 2
#     Edge 140, Type (0, 0), BuildingBlock: KIFKEQ_clean_linker_1, # of connection points: 2
#     Edge 141, Type (0, 0), BuildingBlock: KIFKEQ_clean_linker_1, # of connection points: 2
#     Edge 142, Type (0, 0), BuildingBlock: KIFKEQ_clean_linker_1, # of connection points: 2
#     Edge 143, Type (0, 0), BuildingBlock: KIFKEQ_clean_linker_1, # of connection points: 2
# Relax obj value: 0.159
# Max RMSD: 0.224
# Mean RMSD: 0.208
data_MOF--net-wna--node1-BETFEN_clean_sbu_0--edge1-KIFKEQ_clean_linker_1
_symmetry_space_group_name_H-M    P1
_symmetry_Int_Tables_number       1
_symmetry_cell_setting            triclinic
loop_
_symmetry_equiv_pos_as_xyz
'x, y, z'
_cell_length_a     41.757176
_cell_length_b     41.723228
_cell_length_c     152.98199
_cell_angle_alpha  90.002173
_cell_angle_beta   89.994962
_cell_angle_gamma 120.0249
loop_
_atom_site_label
_atom_site_type_symbol
_atom_site_fract_x
_atom_site_fract_y
_atom_site_fract_z
_atom_type_partial_charge
Pr0 Pr 0.125 0.26368 0.17667 0.0
Pr1 Pr 0.13221 0.25452 0.19737 0.0
C2 C 0.1124 0.2867 0.16122 0.0
C3 C 0.12366 0.29507 0.15195 0.0
C4 C 0.12803 0.27026 0.14655 0.0
C5 C 0.13574 0.27785 0.13761 0.0
C6 C 0.13909 0.31031 0.1339 0.0
C7 C 0.13572 0.33547 0.13941 0.0
C8 C 0.12805 0.32789 0.14831 0.0
C9 C 0.14861 0.21225 0.17949 0.0
C10 C 0.20898 0.30786 0.18537 0.0
C11 C 0.14345 0.24597 0.21436 0.0
C12 C 0.12306 0.23632 0.22278 0.0
C13 C 0.13959 0.25837 0.23018 0.0
C14 C 0.12131 0.24918 0.23825 0.0
C15 C 0.08602 0.21756 0.23914 0.0
C16 C 0.06937 0.1957 0.23167 0.0
C17 C 0.08762 0.20499 0.22359 0.0
C18 C 0.0944 0.29155 0.19238 0.0
C19 C 0.05724 0.19347 0.18749 0.0
O20 O 0.13488 0.30948 0.16715 0.0
O21 O 0.09504 0.252 0.16372 0.0
O22 O 0.14172 0.22976 0.18517 0.0
O23 O 0.14456 0.22233 0.17171 0.0
O24 O 0.19454 0.29166 0.19297 0.0
O25 O 0.18843 0.3038 0.17841 0.0
O26 O 0.13308 0.21955 0.20854 0.0
O27 O 0.15249 0.27822 0.21094 0.0
O28 O 0.12343 0.29536 0.18884 0.0
O29 O 0.08494 0.26909 0.19897 0.0
O30 O 0.06492 0.21874 0.18133 0.0
O31 O 0.08112 0.19817 0.1937 0.0
H32 H 0.12479 0.24471 0.14918 0.0
H33 H 0.13791 0.25774 0.13356 0.0
H34 H 0.13878 0.36104 0.13684 0.0
H35 H 0.12486 0.34746 0.15235 0.0
H36 H 0.16682 0.28273 0.22972 0.0
H37 H 0.1348 0.26706 0.2438 0.0
H38 H 0.04248 0.17091 0.2321 0.0
H39 H 0.07408 0.18743 0.218 0.0
Pr40 Pr 0.77282 0.87317 0.1755 0.0
Pr41 Pr 0.78402 0.89225 0.19639 0.0
C42 C 0.74741 0.84338 0.15957 0.0
C43 C 0.73364 0.84585 0.15082 0.0
C44 C 0.75453 0.87586 0.14518 0.0
C45 C 0.74363 0.87476 0.13647 0.0
C46 C 0.71173 0.84358 0.13319 0.0
C47 C 0.69005 0.81441 0.13898 0.0
C48 C 0.70094 0.81553 0.14767 0.0
C49 C 0.83163 0.94251 0.17983 0.0
C50 C 0.72919 0.91404 0.18488 0.0
C51 C 0.80837 0.92094 0.21241 0.0
C52 C 0.81541 0.90873 0.22091 0.0
C53 C 0.79774 0.87106 0.22315 0.0
C54 C 0.80487 0.85993 0.23122 0.0
C55 C 0.83003 0.88622 0.23718 0.0
C56 C 0.84774 0.92393 0.23486 0.0
C57 C 0.84047 0.93502 0.22681 0.0
C58 C 0.73575 0.81556 0.19341 0.0
C59 C 0.83504 0.86304 0.18628 0.0
O60 O 0.72564 0.83585 0.16636 0.0
O61 O 0.78243 0.86556 0.16134 0.0
O62 O 0.8006 0.92702 0.18366 0.0
O63 O 0.83164 0.92373 0.17305 0.0
O64 O 0.74693 0.91743 0.19232 0.0
O65 O 0.73282 0.8972 0.17789 0.0
O66 O 0.83068 0.92441 0.20599 0.0
O67 O 0.77367 0.90621 0.21 0.0
O68 O 0.75201 0.84103 0.18797 0.0
O69 O 0.74381 0.82998 0.20117 0.0
O70 O 0.80957 0.84828 0.18007 0.0
O71 O 0.83398 0.88492 0.19239 0.0
H72 H 0.77998 0.8996 0.14741 0.0
H73 H 0.76112 0.89762 0.1322 0.0
H74 H 0.66498 0.79026 0.13674 0.0
H75 H 0.68443 0.79198 0.15187 0.0
H76 H 0.77852 0.85024 0.21866 0.0
H77 H 0.79111 0.83066 0.23273 0.0
H78 H 0.86693 0.94497 0.23931 0.0
H79 H 0.85442 0.96422 0.2252 0.0
Pr80 Pr 0.1598 0.91063 0.17523 0.0
Pr81 Pr 0.1415 0.90274 0.19609 0.0
C82 C 0.18933 0.91391 0.15932 0.0
C83 C 0.18467 0.89709 0.15052 0.0
C84 C 0.16241 0.90069 0.14414 0.0
C85 C 0.16251 0.8897 0.1355 0.0
C86 C 0.18492 0.87491 0.133 0.0
C87 C 0.20609 0.87003 0.13947 0.0
C88 C 0.20607 0.88113 0.14811 0.0
C89 C 0.08984 0.89875 0.17948 0.0
C90 C 0.11884 0.82573 0.18455 0.0
C91 C 0.1129 0.89877 0.21212 0.0
C92 C 0.12388 0.91738 0.22077 0.0
C93 C 0.15307 0.91865 0.22564 0.0
C94 C 0.16222 0.93552 0.2339 0.0
C95 C 0.14252 0.95164 0.23749 0.0
C96 C 0.11353 0.95056 0.23255 0.0
C97 C 0.1043 0.93357 0.22432 0.0
C98 C 0.21796 0.93056 0.19308 0.0
C99 C 0.17027 0.98329 0.18589 0.0
O100 O 0.1949 0.89787 0.16606 0.0
O101 O 0.16996 0.92981 0.16121 0.0
O102 O 0.10608 0.88423 0.18345 0.0
O103 O 0.10829 0.91687 0.17259 0.0
O104 O 0.1176 0.84012 0.1922 0.0
O105 O 0.13373 0.84633 0.17746 0.0
O106 O 0.10951 0.9176 0.20567 0.0
O107 O 0.12723 0.87843 0.2097 0.0
O108 O 0.19265 0.92207 0.18762 0.0
O109 O 0.20347 0.9235 0.20083 0.0
O110 O 0.18412 0.97227 0.17955 0.0
O111 O 0.14956 0.96082 0.19221 0.0
H112 H 0.14585 0.91323 0.14573 0.0
H113 H 0.14619 0.89434 0.1307 0.0
H114 H 0.22324 0.8582 0.13784 0.0
H115 H 0.22375 0.87827 0.15286 0.0
H116 H 0.16874 0.9064 0.22312 0.0
H117 H 0.18438 0.9353 0.23753 0.0
H118 H 0.09807 0.96315 0.235 0.0
H119 H 0.08169 0.93302 0.22072 0.0
Pr120 Pr 0.26385 0.11582 0.3598 0.0
Pr121 Pr 0.25316 0.1226 0.33897 0.0
C122 C 0.29011 0.11244 0.37568 0.0
C123 C 0.30367 0.12965 0.38432 0.0
C124 C 0.29032 0.15077 0.38842 0.0
C125 C 0.30053 0.163 0.39706 0.0
C126 C 0.32421 0.15424 0.40175 0.0
C127 C 0.33828 0.13399 0.39748 0.0
C128 C 0.32814 0.12191 0.38887 0.0
C129 C 0.20579 0.12765 0.35547 0.0
C130 C 0.30818 0.20022 0.35032 0.0
C131 C 0.22877 0.12644 0.32291 0.0
C132 C 0.22077 0.10738 0.3143 0.0
C133 C 0.24903 0.10836 0.30908 0.0
C134 C 0.24096 0.09108 0.30088 0.0
C135 C 0.20444 0.07227 0.29768 0.0
C136 C 0.17621 0.07116 0.30293 0.0
C137 C 0.18431 0.0886 0.31111 0.0
C138 C 0.30077 0.09346 0.34199 0.0
C139 C 0.20081 0.0428 0.34936 0.0
O140 O 0.3116 0.12704 0.36887 0.0
O141 O 0.25496 0.099 0.37398 0.0
O142 O 0.23654 0.14205 0.35149 0.0
O143 O 0.20608 0.10962 0.36238 0.0
O144 O 0.2927 0.18546 0.34268 0.0
O145 O 0.30223 0.17993 0.35747 0.0
O146 O 0.20645 0.10822 0.3294 0.0
O147 O 0.26351 0.14642 0.32531 0.0
O148 O 0.28499 0.10314 0.34749 0.0
O149 O 0.29237 0.09954 0.33424 0.0
O150 O 0.2257 0.05396 0.3557 0.0
O151 O 0.20271 0.06508 0.34298 0.0
H152 H 0.27137 0.15708 0.38503 0.0
H153 H 0.28956 0.17895 0.40008 0.0
H154 H 0.35605 0.12615 0.40089 0.0
H155 H 0.33849 0.10537 0.38585 0.0
H156 H 0.27745 0.12254 0.31132 0.0
H157 H 0.26333 0.09217 0.29706 0.0
H158 H 0.14786 0.05737 0.30065 0.0
H159 H 0.16201 0.08763 0.31494 0.0
Pr160 Pr 0.91454 0.15158 0.35998 0.0
Pr161 Pr 0.90459 0.1336 0.33908 0.0
C162 C 0.91997 0.17992 0.37613 0.0
C163 C 0.90197 0.17805 0.38457 0.0
C164 C 0.87688 0.14411 0.38847 0.0
C165 C 0.86402 0.14317 0.39699 0.0
C166 C 0.87603 0.17612 0.40177 0.0
C167 C 0.9002 0.21004 0.39769 0.0
C168 C 0.91297 0.21094 0.38919 0.0
C169 C 0.90552 0.08335 0.35515 0.0
C170 C 0.8288 0.1097 0.35112 0.0
C171 C 0.90025 0.10596 0.32294 0.0
C172 C 0.91907 0.11839 0.31437 0.0
C173 C 0.92737 0.15264 0.31072 0.0
C174 C 0.94535 0.16382 0.30262 0.0
C175 C 0.95567 0.14115 0.29801 0.0
C176 C 0.94738 0.10696 0.30172 0.0
C177 C 0.92926 0.09573 0.30979 0.0
C178 C 0.93133 0.20975 0.34232 0.0
C179 C 0.98636 0.16332 0.34875 0.0
O180 O 0.91087 0.19237 0.36925 0.0
O181 O 0.92712 0.15346 0.37435 0.0
O182 O 0.8884 0.09803 0.35169 0.0
O183 O 0.92584 0.10267 0.3617 0.0
O184 O 0.84256 0.10734 0.34349 0.0
O185 O 0.85002 0.12621 0.35804 0.0
O186 O 0.91941 0.10239 0.32927 0.0
O187 O 0.87968 0.11979 0.32553 0.0
O188 O 0.92388 0.18431 0.34767 0.0
O189 O 0.92355 0.19553 0.33454 0.0
O190 O 0.97587 0.17704 0.35524 0.0
O191 O 0.96315 0.14235 0.34257 0.0
H192 H 0.86797 0.11833 0.38502 0.0
H193 H 0.84502 0.11659 0.39987 0.0
H194 H 0.91051 0.23595 0.40117 0.0
H195 H 0.93257 0.23739 0.38633 0.0
H196 H 0.92015 0.17087 0.31414 0.0
H197 H 0.95169 0.19052 0.30003 0.0
H198 H 0.95449 0.08858 0.29833 0.0
H199 H 0.92317 0.06922 0.31247 0.0
Pr200 Pr 0.876 0.76089 0.35827 0.0
Pr201 Pr 0.89246 0.77077 0.33756 0.0
C202 C 0.84121 0.73822 0.37384 0.0
C203 C 0.84572 0.73157 0.38319 0.0
C204 C 0.86036 0.76069 0.3893 0.0
C205 C 0.86103 0.75355 0.39823 0.0
C206 C 0.84699 0.71711 0.40129 0.0
C207 C 0.83303 0.68811 0.39515 0.0
C208 C 0.83228 0.69524 0.38623 0.0
C209 C 0.95118 0.81209 0.35548 0.0
C210 C 0.914 0.71542 0.34928 0.0
C211 C 0.91344 0.78056 0.32064 0.0
C212 C 0.90342 0.79037 0.31216 0.0
C213 C 0.86646 0.77439 0.30939 0.0
C214 C 0.85788 0.78401 0.3013 0.0
C215 C 0.88603 0.80994 0.2958 0.0
C216 C 0.92296 0.82606 0.29866 0.0
C217 C 0.9315 0.81632 0.30673 0.0
C218 C 0.81756 0.73405 0.34251 0.0
C219 C 0.87894 0.8317 0.34764 0.0
O220 O 0.84183 0.71552 0.36801 0.0
O221 O 0.85646 0.77248 0.37107 0.0
O222 O 0.92676 0.79485 0.34979 0.0
O223 O 0.93699 0.80181 0.36325 0.0
O224 O 0.91641 0.73242 0.34177 0.0
O225 O 0.89782 0.71958 0.35629 0.0
O226 O 0.92852 0.80697 0.32649 0.0
O227 O 0.8904 0.7481 0.324 0.0
O228 O 0.8426 0.72995 0.34604 0.0
O229 O 0.8307 0.75642 0.33589 0.0
O230 O 0.86116 0.80622 0.35374 0.0
O231 O 0.8981 0.82708 0.34141 0.0
H232 H 0.87069 0.789 0.38722 0.0
H233 H 0.87237 0.77662 0.40275 0.0
H234 H 0.82147 0.65966 0.39726 0.0
H235 H 0.82027 0.6721 0.38173 0.0
H236 H 0.84419 0.75438 0.31347 0.0
H237 H 0.82918 0.77069 0.2993 0.0
H238 H 0.94538 0.8466 0.29472 0.0
H239 H 0.96019 0.82918 0.30874 0.0
Pr240 Pr 0.90384 0.77459 0.83838 0.0
Pr241 Pr 0.90748 0.76108 0.8591 0.0
C242 C 0.89366 0.7858 0.82152 0.0
C243 C 0.914 0.79551 0.8131 0.0
C244 C 0.89699 0.77406 0.80565 0.0
C245 C 0.91529 0.78314 0.79758 0.0
C246 C 0.95108 0.81406 0.79676 0.0
C247 C 0.96818 0.83536 0.80427 0.0
C248 C 0.9499 0.82616 0.81235 0.0
C249 C 0.93891 0.73465 0.84313 0.0
C250 C 0.97912 0.83153 0.84894 0.0
C251 C 0.9181 0.73527 0.87436 0.0
C252 C 0.90657 0.726 0.88358 0.0
C253 C 0.90441 0.75125 0.88929 0.0
C254 C 0.89683 0.74278 0.8982 0.0
C255 C 0.89141 0.70898 0.90156 0.0
C256 C 0.89244 0.68339 0.89574 0.0
C257 C 0.89999 0.69185 0.88687 0.0
C258 C 0.88559 0.81398 0.85647 0.0
C259 C 0.82512 0.71944 0.84973 0.0
O260 O 0.905 0.81173 0.8275 0.0
O261 O 0.88329 0.75286 0.82472 0.0
O262 O 0.91002 0.73137 0.84663 0.0
O263 O 0.94932 0.75772 0.83664 0.0
O264 O 0.96848 0.80599 0.85516 0.0
O265 O 0.95744 0.82862 0.84233 0.0
O266 O 0.89541 0.71366 0.8683 0.0
O267 O 0.93652 0.77025 0.8721 0.0
O268 O 0.89322 0.79715 0.85078 0.0
O269 O 0.88778 0.80226 0.86422 0.0
O270 O 0.84072 0.7383 0.84246 0.0
O271 O 0.84462 0.72085 0.85668 0.0
H272 H 0.86939 0.75023 0.80607 0.0
H273 H 0.90144 0.76569 0.792 0.0
H274 H 0.99548 0.8596 0.80389 0.0
H275 H 0.96382 0.84322 0.81798 0.0
H276 H 0.90939 0.77783 0.88693 0.0
H277 H 0.89648 0.76323 0.90249 0.0
H278 H 0.88776 0.65686 0.89806 0.0
H279 H 0.90151 0.67194 0.88259 0.0
Pr280 Pr 0.25212 0.13321 0.83756 0.0
Pr281 Pr 0.26448 0.15313 0.85932 0.0
C282 C 0.22744 0.1041 0.82158 0.0
C283 C 0.21975 0.11484 0.81289 0.0
C284 C 0.24843 0.13661 0.80701 0.0
C285 C 0.24053 0.14567 0.79877 0.0
C286 C 0.20376 0.13313 0.79618 0.0
C287 C 0.17516 0.1114 0.80209 0.0
C288 C 0.18305 0.10228 0.81031 0.0
C289 C 0.30192 0.209 0.84116 0.0
C290 C 0.19825 0.15877 0.84827 0.0
C291 C 0.29155 0.19013 0.8744 0.0
C292 C 0.30248 0.18762 0.88347 0.0
C293 C 0.27765 0.1608 0.88936 0.0
C294 C 0.2873 0.16165 0.89816 0.0
C295 C 0.32197 0.18935 0.90127 0.0
C296 C 0.34721 0.21528 0.89527 0.0
C297 C 0.33751 0.21446 0.88649 0.0
C298 C 0.21224 0.07873 0.85605 0.0
C299 C 0.30577 0.11078 0.84972 0.0
O300 O 0.20537 0.10111 0.82803 0.0
O301 O 0.26212 0.1182 0.824 0.0
O302 O 0.28419 0.18287 0.84638 0.0
O303 O 0.29436 0.19569 0.83327 0.0
O304 O 0.22091 0.17012 0.8551 0.0
O305 O 0.20271 0.14202 0.8414 0.0
O306 O 0.31295 0.19096 0.868 0.0
O307 O 0.25615 0.17199 0.87249 0.0
O308 O 0.23069 0.10389 0.85059 0.0
O309 O 0.22164 0.09197 0.86396 0.0
O310 O 0.28706 0.10609 0.84233 0.0
O311 O 0.30469 0.13029 0.85648 0.0
H312 H 0.27703 0.14651 0.80873 0.0
H313 H 0.26329 0.16198 0.79437 0.0
H314 H 0.14655 0.10164 0.80041 0.0
H315 H 0.16029 0.08526 0.81465 0.0
H316 H 0.25038 0.13975 0.88723 0.0
H317 H 0.26704 0.14143 0.90259 0.0
H318 H 0.37438 0.23659 0.89739 0.0
H319 H 0.35713 0.23546 0.88208 0.0
Pr320 Pr 0.89423 0.12332 0.8392 0.0
Pr321 Pr 0.87467 0.11575 0.86001 0.0
C322 C 0.92331 0.12709 0.82326 0.0
C323 C 0.91213 0.10803 0.81464 0.0
C324 C 0.89837 0.12121 0.80801 0.0
C325 C 0.8886 0.10378 0.79983 0.0
C326 C 0.89249 0.0728 0.79805 0.0
C327 C 0.90639 0.05973 0.80468 0.0
C328 C 0.91618 0.07716 0.81285 0.0
C329 C 0.81761 0.09598 0.84194 0.0
C330 C 0.86418 0.04285 0.84947 0.0
C331 C 0.8448 0.11261 0.87584 0.0
C332 C 0.85123 0.12987 0.88457 0.0
C333 C 0.88338 0.13914 0.88939 0.0
C334 C 0.88661 0.15089 0.89809 0.0
C335 C 0.85783 0.15372 0.90212 0.0
C336 C 0.82636 0.14583 0.89715 0.0
C337 C 0.8231 0.13396 0.88848 0.0
C338 C 0.94469 0.12712 0.85595 0.0
C339 C 0.91637 0.20045 0.85067 0.0
O340 O 0.92683 0.10874 0.82981 0.0
O341 O 0.90895 0.14754 0.82558 0.0
O342 O 0.84257 0.10443 0.8475 0.0
O343 O 0.8326 0.10287 0.83424 0.0
O344 O 0.84986 0.05406 0.85566 0.0
O345 O 0.88563 0.06522 0.84322 0.0
O346 O 0.84059 0.12992 0.86918 0.0
O347 O 0.86274 0.09529 0.8739 0.0
O348 O 0.92863 0.14165 0.85195 0.0
O349 O 0.92623 0.10955 0.86289 0.0
O350 O 0.91958 0.18602 0.84321 0.0
O351 O 0.89941 0.1798 0.85762 0.0
H352 H 0.89517 0.1451 0.80911 0.0
H353 H 0.87766 0.11443 0.79492 0.0
H354 H 0.91037 0.03635 0.80351 0.0
H355 H 0.92719 0.06654 0.81775 0.0
H356 H 0.90558 0.13636 0.88652 0.0
H357 H 0.91142 0.15724 0.90169 0.0
H358 H 0.8035 0.1473 0.90007 0.0
H359 H 0.79796 0.12672 0.88491 0.0
Pr360 Pr 0.78459 0.90253 0.69703 0.0
Pr361 Pr 0.76985 0.9075 0.67532 0.0
C362 C 0.80951 0.89761 0.71292 0.0
C363 C 0.81639 0.91518 0.72163 0.0
C364 C 0.79376 0.92821 0.72503 0.0
C365 C 0.80101 0.9449 0.7333 0.0
C366 C 0.83113 0.94905 0.73833 0.0
C367 C 0.85381 0.93613 0.73484 0.0
C368 C 0.84648 0.91938 0.72659 0.0
C369 C 0.73526 0.92927 0.69357 0.0
C370 C 0.83816 0.98025 0.68583 0.0
C371 C 0.74252 0.91615 0.66011 0.0
C372 C 0.73248 0.90272 0.65098 0.0
C373 C 0.75967 0.90925 0.64468 0.0
C374 C 0.74996 0.89993 0.6359 0.0
C375 C 0.71287 0.88393 0.63318 0.0
C376 C 0.68565 0.8765 0.63954 0.0
C377 C 0.69536 0.8859 0.64831 0.0
C378 C 0.82152 0.88444 0.67851 0.0
C379 C 0.72843 0.82539 0.68549 0.0
O380 O 0.83148 0.91796 0.70659 0.0
O381 O 0.77489 0.87687 0.71048 0.0
O382 O 0.75135 0.91912 0.68828 0.0
O383 O 0.74442 0.92504 0.70143 0.0
O384 O 0.81462 0.96853 0.67915 0.0
O385 O 0.83434 0.95954 0.69276 0.0
O386 O 0.72136 0.89486 0.66645 0.0
O387 O 0.77775 0.93488 0.66216 0.0
O388 O 0.80415 0.89247 0.68397 0.0
O389 O 0.8112 0.88731 0.67063 0.0
O390 O 0.74965 0.84017 0.6925 0.0
O391 O 0.72769 0.84545 0.67882 0.0
H392 H 0.77046 0.92545 0.7213 0.0
H393 H 0.7827 0.95413 0.73579 0.0
H394 H 0.87762 0.93939 0.73843 0.0
H395 H 0.86446 0.90979 0.72407 0.0
H396 H 0.78859 0.92243 0.64648 0.0
H397 H 0.77177 0.9065 0.63119 0.0
H398 H 0.65675 0.86369 0.63773 0.0
H399 H 0.67384 0.88074 0.653 0.0
Pr400 Pr 0.13007 0.88998 0.69679 0.0
Pr401 Pr 0.12525 0.87093 0.67506 0.0
C402 C 0.13458 0.9194 0.71273 0.0
C403 C 0.1163 0.90772 0.72133 0.0
C404 C 0.09701 0.87026 0.72377 0.0
C405 C 0.07948 0.85965 0.73193 0.0
C406 C 0.08081 0.88629 0.73781 0.0
C407 C 0.10011 0.9238 0.73529 0.0
C408 C 0.11764 0.93435 0.72714 0.0
C409 C 0.10388 0.81417 0.6932 0.0
C410 C 0.0524 0.86654 0.68553 0.0
C411 C 0.11524 0.83413 0.65994 0.0
C412 C 0.1298 0.83759 0.65101 0.0
C413 C 0.15131 0.87225 0.64702 0.0
C414 C 0.16245 0.87454 0.63829 0.0
C415 C 0.1523 0.84221 0.63341 0.0
C416 C 0.13134 0.80763 0.63753 0.0
C417 C 0.12025 0.80539 0.64624 0.0
C418 C 0.1499 0.9459 0.67835 0.0
C419 C 0.20725 0.9102 0.68528 0.0
O420 O 0.11464 0.92143 0.70636 0.0
O421 O 0.15523 0.90543 0.7103 0.0
O422 O 0.1127 0.84037 0.68796 0.0
O423 O 0.10921 0.82742 0.70109 0.0
O424 O 0.06468 0.85621 0.67869 0.0
O425 O 0.07234 0.88177 0.69267 0.0
O426 O 0.13509 0.83254 0.6664 0.0
O427 O 0.0991 0.85341 0.66175 0.0
O428 O 0.14099 0.92021 0.6838 0.0
O429 O 0.14708 0.93287 0.67046 0.0
O430 O 0.19251 0.91618 0.69238 0.0
O431 O 0.18724 0.8905 0.67848 0.0
H432 H 0.09551 0.84922 0.71936 0.0
H433 H 0.06526 0.8306 0.73366 0.0
H434 H 0.10124 0.94503 0.73956 0.0
H435 H 0.13213 0.96337 0.72535 0.0
H436 H 0.159 0.89746 0.65062 0.0
H437 H 0.17892 0.90162 0.63536 0.0
H438 H 0.1225 0.78214 0.63396 0.0
H439 H 0.10347 0.77839 0.64919 0.0
Pr440 Pr 0.14313 0.24697 0.69555 0.0
Pr441 Pr 0.16322 0.25999 0.67473 0.0
C442 C 0.11292 0.22081 0.71136 0.0
C443 C 0.12349 0.21243 0.71995 0.0
C444 C 0.15648 0.23782 0.72417 0.0
C445 C 0.16558 0.22945 0.73235 0.0
C446 C 0.142 0.19544 0.73649 0.0
C447 C 0.10918 0.16999 0.73217 0.0
C448 C 0.10004 0.17845 0.72402 0.0
C449 C 0.21985 0.29563 0.69288 0.0
C450 C 0.17241 0.19625 0.68514 0.0
C451 C 0.19464 0.28787 0.65909 0.0
C452 C 0.19238 0.30273 0.65046 0.0
C453 C 0.16375 0.28151 0.64453 0.0
C454 C 0.1654 0.29365 0.63591 0.0
C455 C 0.19574 0.32719 0.63304 0.0
C456 C 0.22338 0.34915 0.63913 0.0
C457 C 0.22175 0.33699 0.64772 0.0
C458 C 0.09291 0.2015 0.67865 0.0
C459 C 0.12265 0.30366 0.6843 0.0
O460 O 0.10995 0.19915 0.70482 0.0
O461 O 0.12774 0.25578 0.70914 0.0
O462 O 0.19482 0.27945 0.68733 0.0
O463 O 0.20489 0.28735 0.70059 0.0
O464 O 0.1866 0.22161 0.6789 0.0
O465 O 0.1513 0.19741 0.69144 0.0
O466 O 0.20138 0.30863 0.66605 0.0
O467 O 0.1727 0.25252 0.66057 0.0
O468 O 0.10905 0.23195 0.68274 0.0
O469 O 0.11163 0.20245 0.67175 0.0
O470 O 0.11998 0.28625 0.69177 0.0
O471 O 0.13837 0.29919 0.67721 0.0
H472 H 0.17521 0.26423 0.72117 0.0
H473 H 0.19084 0.24996 0.73549 0.0
H474 H 0.09062 0.14328 0.73505 0.0
H475 H 0.07454 0.15835 0.72088 0.0
H476 H 0.14077 0.25488 0.64643 0.0
H477 H 0.14375 0.27587 0.6314 0.0
H478 H 0.24681 0.37543 0.63719 0.0
H479 H 0.24424 0.35381 0.65215 0.0
Pr480 Pr 0.78808 0.59449 0.50791 0.0
Pr481 Pr 0.7953 0.58321 0.52976 0.0
C482 C 0.77742 0.61949 0.49257 0.0
C483 C 0.79006 0.62902 0.48338 0.0
C484 C 0.76589 0.6083 0.47658 0.0
C485 C 0.77575 0.61803 0.46784 0.0
C486 C 0.81006 0.64893 0.46564 0.0
C487 C 0.83448 0.66952 0.47245 0.0
C488 C 0.82461 0.65968 0.48122 0.0
C489 C 0.8114 0.54342 0.51149 0.0
C490 C 0.8715 0.63689 0.5176 0.0
C491 C 0.79991 0.55932 0.54583 0.0
C492 C 0.78176 0.55201 0.55452 0.0
C493 C 0.77975 0.57979 0.55928 0.0
C494 C 0.76298 0.57216 0.56755 0.0
C495 C 0.74773 0.53656 0.57126 0.0
C496 C 0.7496 0.50881 0.56642 0.0
C497 C 0.76648 0.51649 0.55819 0.0
C498 C 0.76921 0.63263 0.5259 0.0
C499 C 0.71626 0.52796 0.51904 0.0
O500 O 0.79824 0.64161 0.49885 0.0
O501 O 0.76021 0.58432 0.49472 0.0
O502 O 0.80384 0.56158 0.51684 0.0
O503 O 0.80773 0.5524 0.50354 0.0
O504 O 0.85736 0.61826 0.525 0.0
O505 O 0.85102 0.63552 0.5108 0.0
O506 O 0.78058 0.53686 0.53946 0.0
O507 O 0.82032 0.59393 0.54332 0.0
O508 O 0.77758 0.61463 0.52075 0.0
O509 O 0.77504 0.62557 0.53383 0.0
O510 O 0.72761 0.55009 0.5121 0.0
O511 O 0.73731 0.53326 0.52599 0.0
H512 H 0.73888 0.58486 0.47804 0.0
H513 H 0.75596 0.60188 0.46281 0.0
H514 H 0.86126 0.69326 0.471 0.0
H515 H 0.84386 0.67634 0.48629 0.0
H516 H 0.79126 0.60749 0.55665 0.0
H517 H 0.76252 0.5944 0.57109 0.0
H518 H 0.73768 0.48093 0.56896 0.0
H519 H 0.76759 0.49454 0.55466 0.0
Pr520 Pr 0.43503 0.20288 0.50872 0.0
Pr521 Pr 0.44629 0.22266 0.52945 0.0
C522 C 0.40865 0.17194 0.49293 0.0
C523 C 0.39583 0.17563 0.48421 0.0
C524 C 0.40944 0.21016 0.48011 0.0
C525 C 0.39964 0.21225 0.47145 0.0
C526 C 0.3761 0.17984 0.46671 0.0
C527 C 0.36187 0.14545 0.47097 0.0
C528 C 0.37161 0.14343 0.47961 0.0
C529 C 0.49411 0.27275 0.51272 0.0
C530 C 0.39183 0.2447 0.51781 0.0
C531 C 0.47069 0.2527 0.54535 0.0
C532 C 0.47723 0.24145 0.55403 0.0
C533 C 0.45394 0.20571 0.55734 0.0
C534 C 0.4606 0.19566 0.56559 0.0
C535 C 0.49083 0.22104 0.57068 0.0
C536 C 0.51417 0.25673 0.5673 0.0
C537 C 0.50739 0.2668 0.55907 0.0
C538 C 0.39778 0.14576 0.52681 0.0
C539 C 0.49687 0.19249 0.51954 0.0
O540 O 0.38713 0.16647 0.49967 0.0
O541 O 0.44389 0.19283 0.49467 0.0
O542 O 0.46336 0.25732 0.5167 0.0
O543 O 0.49334 0.25353 0.50594 0.0
O544 O 0.40789 0.24649 0.52542 0.0
O545 O 0.39689 0.22904 0.51079 0.0
O546 O 0.49299 0.25499 0.53904 0.0
O547 O 0.43614 0.23849 0.54285 0.0
O548 O 0.41376 0.17073 0.52122 0.0
O549 O 0.40648 0.16083 0.5345 0.0
O550 O 0.47132 0.1777 0.51336 0.0
O551 O 0.49615 0.21482 0.52557 0.0
H552 H 0.4282 0.2354 0.48355 0.0
H553 H 0.41074 0.23923 0.46843 0.0
H554 H 0.34422 0.11985 0.46754 0.0
H555 H 0.36106 0.11649 0.48263 0.0
H556 H 0.43066 0.18551 0.55354 0.0
H557 H 0.44236 0.16781 0.56793 0.0
H558 H 0.53745 0.27711 0.57107 0.0
H559 H 0.52571 0.2945 0.55664 0.0
Pr560 Pr 0.82112 0.23979 0.5087 0.0
Pr561 Pr 0.8081 0.23397 0.52809 0.0
C562 C 0.84716 0.24273 0.49238 0.0
C563 C 0.84407 0.22477 0.48385 0.0
C564 C 0.81031 0.20586 0.47933 0.0
C565 C 0.80928 0.19396 0.47071 0.0
C566 C 0.84198 0.20078 0.46643 0.0
C567 C 0.87546 0.21847 0.47113 0.0
C568 C 0.87644 0.23031 0.47972 0.0
C569 C 0.74991 0.22481 0.51281 0.0
C570 C 0.78341 0.15609 0.51793 0.0
C571 C 0.79136 0.23581 0.54513 0.0
C572 C 0.80486 0.25667 0.55347 0.0
C573 C 0.83302 0.25603 0.55839 0.0
C574 C 0.84292 0.27292 0.56664 0.0
C575 C 0.82485 0.29079 0.5702 0.0
C576 C 0.79723 0.29203 0.56518 0.0
C577 C 0.78731 0.27511 0.55695 0.0
C578 C 0.88107 0.25475 0.52314 0.0
C579 C 0.8302 0.31344 0.51828 0.0
O580 O 0.8591 0.23263 0.49917 0.0
O581 O 0.82236 0.25197 0.49432 0.0
O582 O 0.76628 0.21025 0.5167 0.0
O583 O 0.76913 0.24518 0.50628 0.0
O584 O 0.77581 0.17078 0.52469 0.0
O585 O 0.80445 0.17738 0.51148 0.0
O586 O 0.78163 0.25049 0.53885 0.0
O587 O 0.80718 0.21761 0.54225 0.0
O588 O 0.86175 0.26727 0.51999 0.0
O589 O 0.86303 0.23087 0.52923 0.0
O590 O 0.84239 0.30209 0.5117 0.0
O591 O 0.8129 0.29143 0.52494 0.0
H592 H 0.78489 0.20122 0.48236 0.0
H593 H 0.78293 0.17994 0.46735 0.0
H594 H 0.90128 0.22469 0.46804 0.0
H595 H 0.90285 0.24516 0.48305 0.0
H596 H 0.84693 0.24179 0.55597 0.0
H597 H 0.86399 0.27096 0.57033 0.0
H598 H 0.78308 0.30599 0.56762 0.0
H599 H 0.76534 0.27587 0.55336 0.0
Pr600 Pr 0.93136 0.45181 0.69282 0.0
Pr601 Pr 0.925 0.45856 0.67342 0.0
C602 C 0.9543 0.44878 0.70916 0.0
C603 C 0.96863 0.46615 0.71781 0.0
C604 C 0.9466 0.47271 0.72368 0.0
C605 C 0.95798 0.48298 0.73235 0.0
C606 C 0.99157 0.4868 0.73536 0.0
C607 C 1.01435 0.48198 0.72935 0.0
C608 C 1.00295 0.47166 0.72069 0.0
C609 C 0.87487 0.46631 0.68863 0.0
C610 C 0.97741 0.53632 0.68386 0.0
C611 C 0.90611 0.45685 0.65641 0.0
C612 C 0.8983 0.43567 0.6481 0.0
C613 C 0.92698 0.43693 0.64301 0.0
C614 C 0.91953 0.41966 0.6348 0.0
C615 C 0.88325 0.40074 0.63147 0.0
C616 C 0.85452 0.39895 0.63665 0.0
C617 C 0.86198 0.4163 0.64483 0.0
C618 C 0.97761 0.43826 0.67828 0.0
C619 C 0.86795 0.37816 0.68307 0.0
O620 O 0.97657 0.45972 0.70239 0.0
O621 O 0.92002 0.43847 0.70716 0.0
O622 O 0.90604 0.48135 0.68484 0.0
O623 O 0.87351 0.44553 0.6951 0.0
O624 O 0.95723 0.52192 0.67677 0.0
O625 O 0.97544 0.51495 0.69047 0.0
O626 O 0.88183 0.44266 0.66273 0.0
O627 O 0.94022 0.47465 0.65925 0.0
O628 O 0.94574 0.42541 0.68147 0.0
O629 O 0.98308 0.46205 0.67219 0.0
O630 O 0.89104 0.38957 0.68974 0.0
O631 O 0.87284 0.40028 0.67641 0.0
H632 H 0.91985 0.46845 0.72169 0.0
H633 H 0.93956 0.48615 0.73679 0.0
H634 H 0.04068 0.4853 0.73138 0.0
H635 H 0.0204 0.46657 0.71634 0.0
H636 H 0.95534 0.45175 0.64528 0.0
H637 H 0.94229 0.42124 0.63106 0.0
H638 H 0.82632 0.38509 0.63426 0.0
H639 H 0.83935 0.41526 0.64853 0.0
Pr640 Pr 0.58325 0.48982 0.69323 0.0
Pr641 Pr 0.57452 0.47156 0.67238 0.0
C642 C 0.58713 0.51947 0.70915 0.0
C643 C 0.56988 0.51572 0.71779 0.0
C644 C 0.5488 0.4812 0.72188 0.0
C645 C 0.53623 0.47911 0.73048 0.0
C646 C 0.54457 0.51151 0.73515 0.0
C647 C 0.56487 0.54588 0.73089 0.0
C648 C 0.5773 0.5479 0.72232 0.0
C649 C 0.57373 0.4209 0.6888 0.0
C650 C 0.498 0.44769 0.68419 0.0
C651 C 0.57039 0.44325 0.65631 0.0
C652 C 0.58933 0.45469 0.64769 0.0
C653 C 0.58726 0.48133 0.64245 0.0
C654 C 0.60477 0.49115 0.63428 0.0
C655 C 0.62488 0.4747 0.63115 0.0
C656 C 0.62697 0.44814 0.63641 0.0
C657 C 0.6093 0.43818 0.64456 0.0
C658 C 0.6024 0.5481 0.67542 0.0
C659 C 0.65563 0.50159 0.68227 0.0
O660 O 0.5726 0.52658 0.70235 0.0
O661 O 0.60038 0.49761 0.7074 0.0
O662 O 0.55766 0.43602 0.685 0.0
O663 O 0.59236 0.43991 0.69558 0.0
O664 O 0.51211 0.44724 0.67644 0.0
O665 O 0.51881 0.46238 0.69125 0.0
O666 O 0.58895 0.43943 0.66275 0.0
O667 O 0.55009 0.45758 0.65877 0.0
O668 O 0.59371 0.52267 0.68087 0.0
O669 O 0.59591 0.53372 0.66766 0.0
O670 O 0.64478 0.51557 0.68862 0.0
O671 O 0.63267 0.48004 0.67612 0.0
H672 H 0.54271 0.45596 0.71849 0.0
H673 H 0.52027 0.45214 0.73349 0.0
H674 H 0.5724 0.57147 0.73429 0.0
H675 H 0.59378 0.57484 0.71931 0.0
H676 H 0.57213 0.49465 0.64465 0.0
H677 H 0.60288 0.51197 0.63045 0.0
H678 H 0.64175 0.43452 0.63417 0.0
H679 H 0.61112 0.41734 0.6484 0.0
Pr680 Pr 0.54505 0.09748 0.69265 0.0
Pr681 Pr 0.55796 0.1057 0.6719 0.0
C682 C 0.51219 0.07298 0.7083 0.0
C683 C 0.51635 0.06188 0.71722 0.0
C684 C 0.54754 0.08429 0.72239 0.0
C685 C 0.54883 0.07522 0.73115 0.0
C686 C 0.51905 0.04353 0.73493 0.0
C687 C 0.48845 0.02055 0.72964 0.0
C688 C 0.48712 0.0297 0.72089 0.0
C689 C 0.6204 0.14559 0.68928 0.0
C690 C 0.58313 0.05379 0.68278 0.0
C691 C 0.576 0.12509 0.65499 0.0
C692 C 0.56266 0.13264 0.64668 0.0
C693 C 0.55999 0.11188 0.63922 0.0
C694 C 0.55021 0.12014 0.63113 0.0
C695 C 0.54305 0.14957 0.63028 0.0
C696 C 0.545 0.16989 0.63781 0.0
C697 C 0.55473 0.16156 0.64592 0.0
C698 C 0.48626 0.0533 0.67756 0.0
C699 C 0.53985 0.16534 0.68244 0.0
O700 O 0.50769 0.05054 0.7018 0.0
O701 O 0.532 0.10815 0.70626 0.0
O702 O 0.595 0.12896 0.68376 0.0
O703 O 0.60709 0.13643 0.69716 0.0
O704 O 0.59154 0.07697 0.67613 0.0
O705 O 0.55985 0.05142 0.68899 0.0
O706 O 0.58521 0.14911 0.66135 0.0
O707 O 0.56001 0.09076 0.65771 0.0
O708 O 0.50664 0.08492 0.68079 0.0
O709 O 0.50231 0.04833 0.67086 0.0
O710 O 0.53338 0.14581 0.68972 0.0
O711 O 0.55001 0.15635 0.67507 0.0
H712 H 0.57057 0.10924 0.71972 0.0
H713 H 0.57303 0.09325 0.735 0.0
H714 H 0.46484 0.99618 0.73233 0.0
H715 H 0.46267 0.01214 0.71706 0.0
H716 H 0.56603 0.08952 0.63961 0.0
H717 H 0.54839 0.10347 0.62552 0.0
H718 H 0.54004 0.19296 0.63741 0.0
H719 H 0.55666 0.1782 0.65155 0.0
Pr720 Pr 0.57358 0.11096 0.17356 0.0
Pr721 Pr 0.58034 0.10298 0.19312 0.0
C722 C 0.57504 0.13177 0.15674 0.0
C723 C 0.59497 0.13793 0.14831 0.0
C724 C 0.59203 0.10818 0.14334 0.0
C725 C 0.60853 0.11428 0.13507 0.0
C726 C 0.62839 0.15024 0.13156 0.0
C727 C 0.63182 0.18 0.13661 0.0
C728 C 0.6152 0.17388 0.14486 0.0
C729 C 0.5933 0.05755 0.178 0.0
C730 C 0.6538 0.16673 0.18337 0.0
C731 C 0.58304 0.0792 0.20938 0.0
C732 C 0.5649 0.06624 0.21802 0.0
C733 C 0.56861 0.09181 0.2245 0.0
C734 C 0.55651 0.08011 0.23305 0.0
C735 C 0.54047 0.04255 0.23536 0.0
C736 C 0.53549 0.0168 0.2288 0.0
C737 C 0.54771 0.02853 0.22024 0.0
C738 C 0.56688 0.16026 0.18912 0.0
C739 C 0.49596 0.05808 0.18413 0.0
O740 O 0.59195 0.15535 0.16308 0.0
O741 O 0.5547 0.09773 0.1595 0.0
O742 O 0.60567 0.08875 0.18154 0.0
O743 O 0.57151 0.05387 0.17158 0.0
O744 O 0.64255 0.14274 0.18986 0.0
O745 O 0.63156 0.16283 0.17681 0.0
O746 O 0.57015 0.05689 0.20264 0.0
O747 O 0.5961 0.11401 0.20735 0.0
O748 O 0.55156 0.12926 0.18524 0.0
O749 O 0.58688 0.16081 0.19567 0.0
O750 O 0.51036 0.07854 0.17706 0.0
O751 O 0.5172 0.0596 0.19072 0.0
H752 H 0.57656 0.08007 0.14577 0.0
H753 H 0.60571 0.09076 0.13142 0.0
H754 H 0.64647 0.208 0.13409 0.0
H755 H 0.61757 0.1973 0.14848 0.0
H756 H 0.58218 0.12114 0.22308 0.0
H757 H 0.56131 0.10084 0.23793 0.0
H758 H 0.52278 0.98759 0.2303 0.0
H759 H 0.54475 1.00817 0.21543 0.0
Pr760 Pr 0.91958 0.47182 0.17214 0.0
Pr761 Pr 0.93427 0.49095 0.1939 0.0
C762 C 0.89386 0.44206 0.15627 0.0
C763 C 0.88658 0.45277 0.14761 0.0
C764 C 0.90908 0.48847 0.1442 0.0
C765 C 0.90156 0.49789 0.13596 0.0
C766 C 0.87129 0.47185 0.13097 0.0
C767 C 0.84872 0.43622 0.13447 0.0
C768 C 0.85633 0.42683 0.14269 0.0
C769 C 0.96995 0.54745 0.17569 0.0
C770 C 0.8662 0.49618 0.1835 0.0
C771 C 0.962 0.52792 0.20897 0.0
C772 C 0.9738 0.52506 0.21787 0.0
C773 C 0.96138 0.49068 0.22195 0.0
C774 C 0.97087 0.48899 0.23066 0.0
C775 C 0.99295 0.52166 0.23545 0.0
C776 C 1.00583 0.55596 0.23124 0.0
C777 C 0.99636 0.55759 0.22255 0.0
C778 C 0.88274 0.4164 0.19054 0.0
C779 C 0.97458 0.44912 0.18375 0.0
O780 O 0.8722 0.44039 0.16268 0.0
O781 O 0.92859 0.45596 0.15861 0.0
O782 O 0.95269 0.52133 0.18096 0.0
O783 O 0.9616 0.53416 0.16781 0.0
O784 O 0.88878 0.50621 0.19034 0.0
O785 O 0.87071 0.48097 0.17634 0.0
O786 O 0.98304 0.52937 0.20243 0.0
O787 O 0.92646 0.50849 0.20729 0.0
O788 O 0.9 0.44214 0.18515 0.0
O789 O 0.89304 0.4291 0.19846 0.0
O790 O 0.95443 0.44412 0.17659 0.0
O791 O 0.97491 0.46913 0.19055 0.0
H792 H 0.93252 0.50906 0.14789 0.0
H793 H 0.91979 0.52545 0.13345 0.0
H794 H 0.82481 0.41562 0.13092 0.0
H795 H 0.83844 0.39922 0.14523 0.0
H796 H 0.94394 0.46522 0.21843 0.0
H797 H 0.96082 0.46211 0.23365 0.0
H798 H 0.02236 0.58169 0.23473 0.0
H799 H 1.00601 0.58439 0.21953 0.0
Pr800 Pr 0.5607 0.46125 0.17134 0.0
Pr801 Pr 0.54144 0.45566 0.19197 0.0
C802 C 0.58447 0.47332 0.15464 0.0
C803 C 0.57367 0.4545 0.14609 0.0
C804 C 0.53685 0.42761 0.1443 0.0
C805 C 0.52721 0.40995 0.13614 0.0
C806 C 0.55427 0.41866 0.12965 0.0
C807 C 0.59113 0.44559 0.13151 0.0
C808 C 0.60068 0.46331 0.13965 0.0
C809 C 0.48539 0.42715 0.17567 0.0
C810 C 0.53951 0.38453 0.18152 0.0
C811 C 0.50455 0.44465 0.20717 0.0
C812 C 0.50861 0.45567 0.21646 0.0
C813 C 0.53751 0.45819 0.22166 0.0
C814 C 0.53918 0.4665 0.23059 0.0
C815 C 0.51209 0.47261 0.23447 0.0
C816 C 0.48367 0.47074 0.22917 0.0
C817 C 0.48196 0.46232 0.22027 0.0
C818 C 0.61611 0.47628 0.18973 0.0
C819 C 0.58402 0.53886 0.18301 0.0
O820 O 0.59638 0.4588 0.16049 0.0
O821 O 0.56307 0.48497 0.15791 0.0
O822 O 0.51106 0.4553 0.17939 0.0
O823 O 0.4981 0.41711 0.16913 0.0
O824 O 0.52353 0.39468 0.18756 0.0
O825 O 0.56014 0.40716 0.17523 0.0
O826 O 0.50774 0.46912 0.20136 0.0
O827 O 0.51869 0.42437 0.20462 0.0
O828 O 0.59245 0.46986 0.1839 0.0
O829 O 0.60137 0.47328 0.1974 0.0
O830 O 0.58818 0.52386 0.17575 0.0
O831 O 0.56476 0.51881 0.18979 0.0
H832 H 0.51558 0.42018 0.14921 0.0
H833 H 0.49867 0.38904 0.13497 0.0
H834 H 0.61259 0.45331 0.12664 0.0
H835 H 0.62925 0.48398 0.14091 0.0
H836 H 0.55855 0.45335 0.21887 0.0
H837 H 0.56168 0.46814 0.23446 0.0
H838 H 0.46207 0.47477 0.23194 0.0
H839 H 0.45933 0.46034 0.21639 0.0
Pr840 Pr 0.44325 0.23224 0.0292 0.0
Pr841 Pr 0.43426 0.23886 1.00842 0.0
C842 C 0.46468 0.23287 0.0459 0.0
C843 C 0.4737 0.25411 0.05415 0.0
C844 C 0.45093 0.26695 0.05758 0.0
C845 C 0.45927 0.28532 0.06565 0.0
C846 C 0.49057 0.29125 0.07046 0.0
C847 C 0.51361 0.27894 0.06689 0.0
C848 C 0.50521 0.26054 0.05885 0.0
C849 C 0.39086 0.25225 0.02408 0.0
C850 C 0.50256 0.31095 0.01876 0.0
C851 C 0.40886 0.24871 0.99308 0.0
C852 C 0.39637 0.23448 0.98413 0.0
C853 C 0.4174 0.22536 0.97856 0.0
C854 C 0.40732 0.21652 0.96978 0.0
C855 C 0.37606 0.21668 0.96638 0.0
C856 C 0.35429 0.22435 0.97209 0.0
C857 C 0.3644 0.23322 0.98085 0.0
C858 C 0.48225 0.21124 1.01145 0.0
C859 C 0.39064 0.15571 0.01797 0.0
O860 O 0.48806 0.24757 0.03942 0.0
O861 O 0.43009 0.21519 0.04337 0.0
O862 O 0.42207 0.26338 0.02062 0.0
O863 O 0.38664 0.23142 0.03078 0.0
O864 O 0.48241 0.29879 1.01155 0.0
O865 O 0.49419 0.29092 0.026 0.0
O866 O 0.38687 0.23087 0.99965 0.0
O867 O 0.44413 0.26293 0.99486 0.0
O868 O 0.46559 0.21965 1.01703 0.0
O869 O 0.47344 0.21634 1.00362 0.0
O870 O 0.41248 0.16983 0.02487 0.0
O871 O 0.38952 0.17694 1.01165 0.0
H872 H 0.42645 0.2624 0.05408 0.0
H873 H 0.44072 0.2941 0.06821 0.0
H874 H 0.53829 0.28359 0.07031 0.0
H875 H 0.52323 0.25099 0.05633 0.0
H876 H 0.44224 0.22614 0.98092 0.0
H877 H 0.42488 0.21102 0.96557 0.0
H878 H 0.32967 0.22406 0.96975 0.0
H879 H 0.34776 0.24017 0.98501 0.0
Pr880 Pr 0.79214 0.21683 0.02808 0.0
Pr881 Pr 0.78655 0.20338 1.00873 0.0
C882 C 0.79019 0.23421 0.04506 0.0
C883 C 0.76994 0.22033 0.05346 0.0
C884 C 0.78012 0.20144 0.05946 0.0
C885 C 0.76356 0.19152 0.06772 0.0
C886 C 0.73649 0.20038 0.07024 0.0
C887 C 0.72584 0.21869 0.06418 0.0
C888 C 0.74244 0.22866 0.05592 0.0
C889 C 0.77252 0.14385 0.02336 0.0
C890 C 0.71235 0.19273 0.01822 0.0
C891 C 0.78498 0.17837 0.99235 0.0
C892 C 0.804 0.1842 0.98382 0.0
C893 C 0.80062 0.20624 0.97734 0.0
C894 C 0.81354 0.20726 0.96885 0.0
C895 C 0.83008 0.18616 0.9666 0.0
C896 C 0.83475 0.16523 0.97318 0.0
C897 C 0.82172 0.16414 0.98167 0.0
C898 C 0.80013 0.27425 1.01277 0.0
C899 C 0.87024 0.24259 0.01792 0.0
O900 O 0.77432 0.24242 0.03875 0.0
O901 O 0.80966 0.2197 0.04221 0.0
O902 O 0.75978 0.16271 0.02004 0.0
O903 O 0.79593 0.16234 0.0295 0.0
O904 O 0.72405 0.18045 1.01173 0.0
O905 O 0.73426 0.21082 0.02484 0.0
O906 O 0.79677 0.16786 0.99911 0.0
O907 O 0.77236 0.20042 0.99442 0.0
O908 O 0.81531 0.25846 1.01664 0.0
O909 O 0.77987 0.25464 1.00627 0.0
O910 O 0.85524 0.24995 0.02466 0.0
O911 O 0.84918 0.22117 1.0115 0.0
H912 H 0.80144 0.19487 0.05784 0.0
H913 H 0.77214 0.17702 0.07217 0.0
H914 H 0.70547 0.22643 0.06592 0.0
H915 H 0.73432 0.2437 0.05152 0.0
H916 H 0.78666 0.22166 0.97871 0.0
H917 H 0.80895 0.22328 0.96395 0.0
H918 H 0.84782 0.14904 0.97172 0.0
H919 H 0.82446 0.14661 0.98648 0.0
Pr920 Pr 0.80612 0.58018 0.03007 0.0
Pr921 Pr 0.82721 0.59506 1.00846 0.0
C922 C 0.77695 0.55482 0.046 0.0
C923 C 0.78835 0.54756 0.05466 0.0
C924 C 0.80244 0.57495 0.0612 0.0
C925 C 0.8125 0.56777 0.06939 0.0
C926 C 0.80861 0.53297 0.07128 0.0
C927 C 0.79432 0.50554 0.06475 0.0
C928 C 0.78422 0.51269 0.05657 0.0
C929 C 0.88229 0.63028 0.0268 0.0
C930 C 0.83364 0.52859 0.0192 0.0
C931 C 0.86493 0.62438 0.99355 0.0
C932 C 0.86315 0.6355 0.98447 0.0
C933 C 0.83426 0.61253 0.97878 0.0
C934 C 0.83541 0.62225 0.96996 0.0
C935 C 0.8655 0.65505 0.96667 0.0
C936 C 0.89364 0.67851 0.97249 0.0
C937 C 0.89247 0.66879 0.98128 0.0
C938 C 0.75292 0.5409 1.01131 0.0
C939 C 0.78359 0.63449 0.01829 0.0
O940 O 0.77428 0.53302 0.03951 0.0
O941 O 0.79042 0.5895 0.04362 0.0
O942 O 0.85621 0.61406 0.02148 0.0
O943 O 0.86861 0.62105 0.03463 0.0
O944 O 0.84562 0.55228 1.01256 0.0
O945 O 0.81543 0.5315 0.02597 0.0
O946 O 0.86352 0.64473 0.99992 0.0
O947 O 0.84806 0.58885 0.99533 0.0
O948 O 0.77729 0.55961 1.01693 0.0
O949 O 0.76716 0.55098 1.00351 0.0
O950 O 0.77789 0.6141 0.02542 0.0
O951 O 0.80442 0.63518 1.01163 0.0
H952 H 0.80571 0.60201 0.06 0.0
H953 H 0.82369 0.58966 0.07423 0.0
H954 H 0.79031 0.47823 0.06601 0.0
H955 H 0.77294 0.49072 0.05175 0.0
H956 H 0.81128 0.58666 0.98108 0.0
H957 H 0.81339 0.6034 0.96566 0.0
H958 H 0.91688 0.70428 0.97023 0.0
H959 H 0.91503 0.68695 0.98555 0.0
Pr960 Pr 0.45334 0.92216 0.84181 0.0
Pr961 Pr 0.46367 0.91431 0.86266 0.0
C962 C 0.44859 0.94668 0.8258 0.0
C963 C 0.46537 0.95861 0.81699 0.0
C964 C 0.46032 0.93243 0.81054 0.0
C965 C 0.47164 0.94347 0.80191 0.0
C966 C 0.4882 0.98097 0.79949 0.0
C967 C 0.49438 1.00727 0.80602 0.0
C968 C 0.48297 0.9962 0.81464 0.0
C969 C 0.46522 0.86429 0.84629 0.0
C970 C 0.53922 0.9673 0.85061 0.0
C971 C 0.46924 0.89099 0.87871 0.0
C972 C 0.4506 0.88344 0.88731 0.0
C973 C 0.4364 0.90534 0.89055 0.0
C974 C 0.41888 0.89764 0.89872 0.0
C975 C 0.41501 0.86777 0.90382 0.0
C976 C 0.42906 0.84578 0.90049 0.0
C977 C 0.44665 0.85357 0.89234 0.0
C978 C 0.43506 0.96225 0.85951 0.0
C979 C 0.38202 0.86151 0.85312 0.0
O980 O 0.46426 0.96892 0.83246 0.0
O981 O 0.43359 0.91158 0.82783 0.0
O982 O 0.48055 0.89561 0.85003 0.0
O983 O 0.44612 0.86383 0.83951 0.0
O984 O 0.52566 0.95281 0.85839 0.0
O985 O 0.51792 0.96052 0.84361 0.0
O986 O 0.45051 0.86822 0.87235 0.0
O987 O 0.48846 0.92569 0.87622 0.0
O988 O 0.4432 0.94491 0.85412 0.0
O989 O 0.44288 0.95573 0.86728 0.0
O990 O 0.39219 0.88585 0.84666 0.0
O991 O 0.40552 0.86381 0.85922 0.0
H992 H 0.44645 0.90317 0.81207 0.0
H993 H 0.46596 0.92235 0.79707 0.0
H994 H 0.50753 0.03644 0.80443 0.0
H995 H 0.48696 0.01702 0.81943 0.0
H996 H 0.43893 0.92847 0.88678 0.0
H997 H 0.40882 0.91546 0.90109 0.0
H998 H 0.42607 0.82217 0.90413 0.0
H999 H 0.45714 0.83613 0.88994 0.0
Pr1000 Pr 0.10294 0.53658 0.84295 0.0
Pr1001 Pr 0.11341 0.55521 0.86376 0.0
C1002 C 0.07694 0.50648 0.82708 0.0
C1003 C 0.06508 0.51054 0.81822 0.0
C1004 C 0.08866 0.53959 0.81262 0.0
C1005 C 0.07897 0.5397 0.80385 0.0
C1006 C 0.04558 0.51072 0.80049 0.0
C1007 C 0.02138 0.48263 0.80623 0.0
C1008 C 0.03108 0.48252 0.81498 0.0
C1009 C 0.16101 0.6068 0.8471 0.0
C1010 C 0.05875 0.5773 0.85219 0.0
C1011 C 0.13748 0.58378 0.87982 0.0
C1012 C 0.14551 0.57283 0.88846 0.0
C1013 C 0.11707 0.55216 0.89449 0.0
C1014 C 0.12511 0.54289 0.90269 0.0
C1015 C 0.16179 0.55406 0.90509 0.0
C1016 C 0.19019 0.57476 0.89904 0.0
C1017 C 0.18217 0.58413 0.89086 0.0
C1018 C 0.06581 0.47825 0.86082 0.0
C1019 C 0.16557 0.52716 0.85372 0.0
O1020 O 0.05515 0.50149 0.83374 0.0
O1021 O 0.11218 0.5259 0.82899 0.0
O1022 O 0.1303 0.59061 0.8511 0.0
O1023 O 0.16057 0.58818 0.84024 0.0
O1024 O 0.07468 0.57893 0.85981 0.0
O1025 O 0.06418 0.562 0.84514 0.0
O1026 O 0.15987 0.58807 0.87333 0.0
O1027 O 0.10274 0.56878 0.8774 0.0
O1028 O 0.08179 0.50369 0.85534 0.0
O1029 O 0.07401 0.49281 0.86856 0.0
O1030 O 0.14023 0.51234 0.84749 0.0
O1031 O 0.16406 0.54873 0.85984 0.0
H1032 H 0.11515 0.56155 0.81492 0.0
H1033 H 0.09841 0.56164 0.79962 0.0
H1034 H 0.99515 0.46024 0.80392 0.0
H1035 H 1.01247 0.45976 0.81915 0.0
H1036 H 0.08853 0.54315 0.89291 0.0
H1037 H 0.10249 0.52664 0.90713 0.0
H1038 H 0.21879 0.58435 0.9007 0.0
H1039 H 0.2048 0.60052 0.88643 0.0
Pr1040 Pr 0.48918 0.57206 0.842 0.0
Pr1041 Pr 0.47102 0.56289 0.86287 0.0
C1042 C 0.51943 0.57717 0.8261 0.0
C1043 C 0.51648 0.56071 0.81739 0.0
C1044 C 0.48233 0.53962 0.81316 0.0
C1045 C 0.48101 0.52783 0.8045 0.0
C1046 C 0.51382 0.53697 0.79993 0.0
C1047 C 0.54781 0.55728 0.80433 0.0
C1048 C 0.54907 0.56893 0.81296 0.0
C1049 C 0.41926 0.55986 0.8464 0.0
C1050 C 0.44919 0.48675 0.85105 0.0
C1051 C 0.44253 0.55789 0.87896 0.0
C1052 C 0.45338 0.57675 0.88759 0.0
C1053 C 0.48234 0.57796 0.89255 0.0
C1054 C 0.49148 0.5952 0.90077 0.0
C1055 C 0.47197 0.61176 0.90424 0.0
C1056 C 0.44317 0.61069 0.89921 0.0
C1057 C 0.43396 0.59332 0.89102 0.0
C1058 C 0.54782 0.59279 0.85976 0.0
C1059 C 0.49889 0.64369 0.85302 0.0
O1060 O 0.52653 0.5624 0.83285 0.0
O1061 O 0.49713 0.58986 0.82787 0.0
O1062 O 0.43547 0.54498 0.85025 0.0
O1063 O 0.43776 0.57861 0.83958 0.0
O1064 O 0.44807 0.5006 0.85878 0.0
O1065 O 0.46371 0.50779 0.84401 0.0
O1066 O 0.43806 0.57611 0.87253 0.0
O1067 O 0.45781 0.53846 0.87649 0.0
O1068 O 0.5222 0.58343 0.85435 0.0
O1069 O 0.53352 0.58594 0.86754 0.0
O1070 O 0.51335 0.63341 0.84666 0.0
O1071 O 0.47765 0.62038 0.85915 0.0
H1072 H 0.45679 0.53294 0.81647 0.0
H1073 H 0.45432 0.51183 0.80138 0.0
H1074 H 0.57369 0.56542 0.80102 0.0
H1075 H 0.57572 0.58544 0.81608 0.0
H1076 H 0.49787 0.5654 0.89013 0.0
H1077 H 0.51347 0.59496 0.90446 0.0
H1078 H 0.42785 0.62359 0.90156 0.0
H1079 H 0.41151 0.59282 0.88736 0.0
Pr1080 Pr 0.59408 0.78024 0.02596 0.0
Pr1081 Pr 0.58281 0.78754 1.00513 0.0
C1082 C 0.62044 0.77671 0.04183 0.0
C1083 C 0.6329 0.79329 0.05063 0.0
C1084 C 0.60853 0.79571 0.05658 0.0
C1085 C 0.6192 0.80614 0.06528 0.0
C1086 C 0.65443 0.81428 0.06823 0.0
C1087 C 0.67927 0.8134 0.06214 0.0
C1088 C 0.66858 0.80293 0.05346 0.0
C1089 C 0.53609 0.79247 0.02185 0.0
C1090 C 0.63914 0.86454 1.01645 0.0
C1091 C 0.5582 0.79135 0.9891 0.0
C1092 C 0.55027 0.77212 0.98051 0.0
C1093 C 0.5785 0.7726 0.97538 0.0
C1094 C 0.57046 0.75492 0.96722 0.0
C1095 C 0.53399 0.73619 0.964 0.0
C1096 C 0.5058 0.73563 0.96916 0.0
C1097 C 0.51388 0.75348 0.97729 0.0
C1098 C 0.63023 0.75811 1.00808 0.0
C1099 C 0.53081 0.70785 1.0154 0.0
O1100 O 0.64201 0.7928 0.0351 0.0
O1101 O 0.58516 0.7611 0.03999 0.0
O1102 O 0.56666 0.80681 0.01778 0.0
O1103 O 0.53672 0.77458 0.02875 0.0
O1104 O 0.6224 0.84999 1.00891 0.0
O1105 O 0.6338 0.84417 0.02356 0.0
O1106 O 0.53597 0.77309 0.99559 0.0
O1107 O 0.59293 0.81153 0.99148 0.0
O1108 O 0.61444 0.76779 1.01355 0.0
O1109 O 0.62189 0.76423 1.00033 0.0
O1110 O 0.55641 0.71849 0.02157 0.0
O1111 O 0.53217 0.73077 1.00926 0.0
H1112 H 0.58073 0.78828 0.05463 0.0
H1113 H 0.59922 0.8062 0.06978 0.0
H1114 H 0.70683 0.8201 0.06413 0.0
H1115 H 0.68786 0.80114 0.04903 0.0
H1116 H 0.60687 0.78664 0.97766 0.0
H1117 H 0.5928 0.75559 0.96348 0.0
H1118 H 0.47749 0.72192 0.96684 0.0
H1119 H 0.4916 0.75287 0.98105 0.0
Pr1120 Pr 0.24227 0.8204 0.02611 0.0
Pr1121 Pr 0.23604 0.80166 1.00437 0.0
C1122 C 0.25185 0.85609 0.0414 0.0
C1123 C 0.238 0.85183 0.05046 0.0
C1124 C 0.23092 0.82103 0.0556 0.0
C1125 C 0.22116 0.81938 0.06442 0.0
C1126 C 0.21812 0.8484 0.06828 0.0
C1127 C 0.2242 0.87864 0.06303 0.0
C1128 C 0.2341 0.88034 0.05423 0.0
C1129 C 0.21849 0.74559 0.02277 0.0
C1130 C 0.15949 0.77997 1.01616 0.0
C1131 C 0.23252 0.77392 0.98827 0.0
C1132 C 0.25196 0.78557 0.97969 0.0
C1133 C 0.23856 0.79878 0.97298 0.0
C1134 C 0.2563 0.80882 0.96484 0.0
C1135 C 0.28783 0.80577 0.96317 0.0
C1136 C 0.30113 0.79243 0.96988 0.0
C1137 C 0.28339 0.78238 0.97802 0.0
C1138 C 0.26232 0.87753 1.00812 0.0
C1139 C 0.31468 0.82589 1.01522 0.0
O1140 O 0.23101 0.85703 0.03509 0.0
O1141 O 0.26963 0.83869 0.03928 0.0
O1142 O 0.22646 0.77109 1.01731 0.0
O1143 O 0.22188 0.75873 0.03067 0.0
O1144 O 0.17386 0.77379 1.00902 0.0
O1145 O 0.17996 0.80052 0.02282 0.0
O1146 O 0.25045 0.76962 0.99479 0.0
O1147 O 0.21223 0.78838 0.99066 0.0
O1148 O 0.25371 0.85116 1.01329 0.0
O1149 O 0.25647 0.86441 1.00022 0.0
O1150 O 0.30303 0.83669 0.0221 0.0
O1151 O 0.29384 0.80985 1.00826 0.0
H1152 H 0.23357 0.79855 0.05285 0.0
H1153 H 0.21619 0.79546 0.06824 0.0
H1154 H 0.22255 0.90167 0.06579 0.0
H1155 H 0.23963 0.90445 0.05041 0.0
H1156 H 0.21425 0.8013 0.97401 0.0
H1157 H 0.24545 0.81929 0.95987 0.0
H1158 H 0.32491 0.78907 0.9688 0.0
H1159 H 0.29424 0.77182 0.98297 0.0
Pr1160 Pr 0.20562 0.43034 0.02677 0.0
Pr1161 Pr 0.22483 0.44316 1.00595 0.0
C1162 C 0.17449 0.4026 0.04248 0.0
C1163 C 0.17664 0.38855 0.05123 0.0
C1164 C 0.20433 0.41081 0.05727 0.0
C1165 C 0.20239 0.39918 0.06595 0.0
C1166 C 0.17267 0.36513 0.0688 0.0
C1167 C 0.14598 0.34224 0.06262 0.0
C1168 C 0.14792 0.35387 0.05396 0.0
C1169 C 0.27633 0.4879 0.02283 0.0
C1170 C 0.24521 0.38597 1.01706 0.0
C1171 C 0.25436 0.46856 0.99004 0.0
C1172 C 0.24357 0.47683 0.98147 0.0
C1173 C 0.2101 0.45173 0.97738 0.0
C1174 C 0.20085 0.45992 0.96919 0.0
C1175 C 0.22474 0.49348 0.96491 0.0
C1176 C 0.25803 0.51867 0.96909 0.0
C1177 C 0.26732 0.51039 0.97726 0.0
C1178 C 0.1479 0.39557 1.00869 0.0
C1179 C 0.19775 0.49531 1.0165 0.0
O1180 O 0.16871 0.38163 0.0356 0.0
O1181 O 0.19552 0.43801 0.04089 0.0
O1182 O 0.25953 0.45769 0.01865 0.0
O1183 O 0.25811 0.48708 0.02981 0.0
O1184 O 0.24749 0.4032 1.00959 0.0
O1185 O 0.22997 0.39079 0.02421 0.0
O1186 O 0.25793 0.49054 0.99656 0.0
O1187 O 0.23928 0.43363 0.99233 0.0
O1188 O 0.17309 0.41092 1.01426 0.0
O1189 O 0.16273 0.40448 1.00098 0.0
O1190 O 0.18338 0.46996 0.02274 0.0
O1191 O 0.21841 0.49366 1.01016 0.0
H1192 H 0.22677 0.43779 0.05539 0.0
H1193 H 0.2233 0.41768 0.07053 0.0
H1194 H 0.12306 0.31558 0.06452 0.0
H1195 H 0.12612 0.33625 0.04945 0.0
H1196 H 0.19113 0.42566 0.98047 0.0
H1197 H 0.1752 0.4396 0.96616 0.0
H1198 H 0.27687 0.54504 0.96611 0.0
H1199 H 0.29319 0.53028 0.98029 0.0
Pr1200 Pr 0.23868 0.44348 0.50471 0.0
Pr1201 Pr 0.24228 0.4299 0.5254 0.0
C1202 C 0.2278 0.4544 0.48786 0.0
C1203 C 0.24755 0.46361 0.4794 0.0
C1204 C 0.22757 0.44828 0.47168 0.0
C1205 C 0.2455 0.45704 0.46357 0.0
C1206 C 0.28393 0.48144 0.46298 0.0
C1207 C 0.30395 0.49646 0.47077 0.0
C1208 C 0.28597 0.48758 0.47889 0.0
C1209 C 0.27405 0.4039 0.50941 0.0
C1210 C 0.31374 0.50068 0.51533 0.0
C1211 C 0.25299 0.40439 0.54069 0.0
C1212 C 0.2415 0.39607 0.54993 0.0
C1213 C 0.23887 0.42172 0.55541 0.0
C1214 C 0.23118 0.41418 0.56434 0.0
C1215 C 0.22609 0.38091 0.56796 0.0
C1216 C 0.22759 0.35489 0.56238 0.0
C1217 C 0.23527 0.36244 0.55348 0.0
C1218 C 0.21986 0.48238 0.52283 0.0
C1219 C 0.16002 0.38733 0.51601 0.0
O1220 O 0.24 0.4806 0.49379 0.0
O1221 O 0.2175 0.42156 0.4911 0.0
O1222 O 0.2451 0.40038 0.51292 0.0
O1223 O 0.28439 0.42702 0.50293 0.0
O1224 O 0.30317 0.47504 0.52151 0.0
O1225 O 0.29211 0.49771 0.5087 0.0
O1226 O 0.22986 0.38269 0.53471 0.0
O1227 O 0.27195 0.43919 0.53831 0.0
O1228 O 0.22766 0.4658 0.51709 0.0
O1229 O 0.22228 0.47071 0.53056 0.0
O1230 O 0.17566 0.40572 0.50869 0.0
O1231 O 0.17945 0.38965 0.52305 0.0
H1232 H 0.19796 0.42953 0.47192 0.0
H1233 H 0.22923 0.44441 0.45775 0.0
H1234 H 0.33346 0.51562 0.47059 0.0
H1235 H 0.30205 0.49967 0.48477 0.0
H1236 H 0.24354 0.4479 0.55283 0.0
H1237 H 0.23045 0.43493 0.56845 0.0
H1238 H 0.22316 0.32872 0.5649 0.0
H1239 H 0.23711 0.34222 0.54939 0.0
Pr1240 Pr 0.58486 0.80241 0.50459 0.0
Pr1241 Pr 0.59863 0.82253 0.52629 0.0
C1242 C 0.55985 0.77215 0.48874 0.0
C1243 C 0.55217 0.78229 0.48001 0.0
C1244 C 0.5802 0.81047 0.47494 0.0
C1245 C 0.57218 0.81914 0.46667 0.0
C1246 C 0.53596 0.79994 0.46328 0.0
C1247 C 0.508 0.77189 0.46842 0.0
C1248 C 0.51606 0.76313 0.47666 0.0
C1249 C 0.63383 0.8786 0.50794 0.0
C1250 C 0.53089 0.82689 0.51556 0.0
C1251 C 0.62598 0.8592 0.54142 0.0
C1252 C 0.63605 0.85597 0.55052 0.0
C1253 C 0.61319 0.82525 0.55577 0.0
C1254 C 0.62177 0.82455 0.5646 0.0
C1255 C 0.65342 0.85448 0.56836 0.0
C1256 C 0.67671 0.88469 0.56299 0.0
C1257 C 0.66806 0.88541 0.55418 0.0
C1258 C 0.54647 0.74797 0.52309 0.0
C1259 C 0.64021 0.78114 0.51641 0.0
O1260 O 0.53787 0.76987 0.49513 0.0
O1261 O 0.59456 0.78637 0.49114 0.0
O1262 O 0.61781 0.85254 0.5133 0.0
O1263 O 0.62472 0.86495 0.50011 0.0
O1264 O 0.55413 0.83877 0.5223 0.0
O1265 O 0.53506 0.81003 0.50867 0.0
O1266 O 0.64721 0.85905 0.53511 0.0
O1267 O 0.59068 0.84201 0.53943 0.0
O1268 O 0.5646 0.77323 0.51764 0.0
O1269 O 0.55623 0.76117 0.53099 0.0
O1270 O 0.62095 0.77625 0.50911 0.0
O1271 O 0.63925 0.80043 0.52322 0.0
H1272 H 0.60837 0.82577 0.47732 0.0
H1273 H 0.59455 0.84056 0.46287 0.0
H1274 H 0.47968 0.75688 0.46613 0.0
H1275 H 0.49393 0.7413 0.48043 0.0
H1276 H 0.58838 0.80208 0.55309 0.0
H1277 H 0.60349 0.80063 0.56851 0.0
H1278 H 0.70103 0.90842 0.56566 0.0
H1279 H 0.68597 0.90949 0.55027 0.0
Pr1280 Pr 0.22635 0.7906 0.50602 0.0
Pr1281 Pr 0.20644 0.78283 0.52687 0.0
C1282 C 0.25614 0.79529 0.49012 0.0
C1283 C 0.24519 0.77731 0.48144 0.0
C1284 C 0.21019 0.76631 0.47785 0.0
C1285 C 0.20063 0.74976 0.46957 0.0
C1286 C 0.22574 0.74362 0.46472 0.0
C1287 C 0.26063 0.75443 0.46839 0.0
C1288 C 0.27022 0.77112 0.47665 0.0
C1289 C 0.14976 0.76324 0.50881 0.0
C1290 C 0.19669 0.71018 0.51629 0.0
C1291 C 0.17509 0.77835 0.54257 0.0
C1292 C 0.17805 0.79585 0.55113 0.0
C1293 C 0.21234 0.81798 0.55522 0.0
C1294 C 0.21389 0.83028 0.56382 0.0
C1295 C 0.18116 0.82062 0.56848 0.0
C1296 C 0.147 0.79951 0.5642 0.0
C1297 C 0.14551 0.78731 0.55563 0.0
C1298 C 0.27641 0.79399 0.52282 0.0
C1299 C 0.24827 0.86755 0.51757 0.0
O1300 O 0.25836 0.77549 0.4965 0.0
O1301 O 0.24202 0.81583 0.49253 0.0
O1302 O 0.17488 0.77157 0.5143 0.0
O1303 O 0.16459 0.77029 0.50108 0.0
O1304 O 0.18247 0.72123 0.52254 0.0
O1305 O 0.21789 0.73257 0.51001 0.0
O1306 O 0.16794 0.79229 0.53566 0.0
O1307 O 0.19774 0.76589 0.54103 0.0
O1308 O 0.26051 0.80874 0.51881 0.0
O1309 O 0.25768 0.77611 0.52971 0.0
O1310 O 0.25153 0.85312 0.51012 0.0
O1311 O 0.23127 0.84694 0.52453 0.0
H1312 H 0.19022 0.77047 0.48145 0.0
H1313 H 0.17337 0.74135 0.46701 0.0
H1314 H 0.28082 0.75054 0.46482 0.0
H1315 H 0.29735 0.77938 0.47928 0.0
H1316 H 0.23783 0.82493 0.55185 0.0
H1317 H 0.24068 0.84691 0.56686 0.0
H1318 H 0.12121 0.79102 0.5676 0.0
H1319 H 0.11877 0.77001 0.55261 0.0
Pr1320 Pr 0.11214 0.56378 0.36311 0.0
Pr1321 Pr 0.10347 0.56984 0.34227 0.0
C1322 C 0.13275 0.56518 0.37993 0.0
C1323 C 0.1417 0.58699 0.38817 0.0
C1324 C 0.11509 0.57631 0.39484 0.0
C1325 C 0.12402 0.59485 0.40288 0.0
C1326 C 0.15993 0.62443 0.40451 0.0
C1327 C 0.18645 0.63537 0.3978 0.0
C1328 C 0.17749 0.61687 0.38974 0.0
C1329 C 0.05973 0.58321 0.35773 0.0
C1330 C 0.17104 0.64236 0.35263 0.0
C1331 C 0.07838 0.57982 0.32688 0.0
C1332 C 0.06581 0.5651 0.318 0.0
C1333 C 0.07899 0.54441 0.31363 0.0
C1334 C 0.06916 0.53382 0.3049 0.0
C1335 C 0.04596 0.54374 0.30038 0.0
C1336 C 0.03217 0.56369 0.3049 0.0
C1337 C 0.04199 0.5742 0.31361 0.0
C1338 C 0.15143 0.54232 0.34541 0.0
C1339 C 0.0595 0.48733 0.35194 0.0
O1340 O 0.15628 0.57875 0.37345 0.0
O1341 O 0.09823 0.54761 0.37734 0.0
O1342 O 0.09112 0.59449 0.35438 0.0
O1343 O 0.05518 0.56243 0.36446 0.0
O1344 O 0.15145 0.62964 0.34537 0.0
O1345 O 0.16237 0.62281 0.35995 0.0
O1346 O 0.05635 0.56224 0.33347 0.0
O1347 O 0.11357 0.59335 0.32864 0.0
O1348 O 0.13485 0.55085 0.351 0.0
O1349 O 0.14243 0.54712 0.33756 0.0
O1350 O 0.08148 0.50141 0.35882 0.0
O1351 O 0.05835 0.50846 0.34561 0.0
H1352 H 0.08744 0.55306 0.39391 0.0
H1353 H 0.10301 0.58525 0.40792 0.0
H1354 H 0.21425 0.65828 0.39876 0.0
H1355 H 0.19882 0.62571 0.3848 0.0
H1356 H 0.09739 0.53703 0.31691 0.0
H1357 H 0.07991 0.51808 0.30166 0.0
H1358 H 1.01475 0.57235 0.30164 0.0
H1359 H 0.03173 0.59038 0.31685 0.0
Pr1360 Pr 0.46249 0.55416 0.36285 0.0
Pr1361 Pr 0.45785 0.53552 0.3411 0.0
C1362 C 0.46637 0.58338 0.37878 0.0
C1363 C 0.44802 0.57205 0.38739 0.0
C1364 C 0.43015 0.53492 0.3901 0.0
C1365 C 0.41257 0.52473 0.39826 0.0
C1366 C 0.41231 0.55145 0.40385 0.0
C1367 C 0.43027 0.58861 0.40107 0.0
C1368 C 0.44791 0.59875 0.39293 0.0
C1369 C 0.43785 0.47868 0.35921 0.0
C1370 C 0.38401 0.52812 0.35169 0.0
C1371 C 0.44965 0.49943 0.32594 0.0
C1372 C 0.46419 0.50247 0.31696 0.0
C1373 C 0.46305 0.52687 0.31079 0.0
C1374 C 0.4731 0.52634 0.30208 0.0
C1375 C 0.48451 0.5014 0.29933 0.0
C1376 C 0.48674 0.47788 0.30559 0.0
C1377 C 0.47658 0.47834 0.31429 0.0
C1378 C 0.48028 0.61 0.34447 0.0
C1379 C 0.54013 0.5775 0.35121 0.0
O1380 O 0.44657 0.58539 0.37238 0.0
O1381 O 0.48707 0.56939 0.37642 0.0
O1382 O 0.44646 0.50487 0.35397 0.0
O1383 O 0.44281 0.49184 0.3671 0.0
O1384 O 0.39679 0.51867 0.3448 0.0
O1385 O 0.40387 0.54374 0.35882 0.0
O1386 O 0.4694 0.49816 0.33248 0.0
O1387 O 0.43214 0.51742 0.32776 0.0
O1388 O 0.47215 0.58436 0.34989 0.0
O1389 O 0.47766 0.59718 0.33656 0.0
O1390 O 0.52502 0.58234 0.35839 0.0
O1391 O 0.52038 0.55754 0.34441 0.0
H1392 H 0.42963 0.51378 0.38589 0.0
H1393 H 0.39864 0.49583 0.40013 0.0
H1394 H 0.43107 0.61 0.40523 0.0
H1395 H 0.46151 0.62754 0.39095 0.0
H1396 H 0.45347 0.54574 0.31262 0.0
H1397 H 0.47063 0.54459 0.29744 0.0
H1398 H 0.49598 0.45874 0.30376 0.0
H1399 H 0.47759 0.45914 0.31889 0.0
Pr1400 Pr 0.47366 0.91078 0.36264 0.0
Pr1401 Pr 0.49455 0.92503 0.34191 0.0
C1402 C 0.44313 0.88435 0.37839 0.0
C1403 C 0.4538 0.87644 0.38703 0.0
C1404 C 0.48234 0.90443 0.39204 0.0
C1405 C 0.49157 0.89636 0.40023 0.0
C1406 C 0.47263 0.8601 0.40361 0.0
C1407 C 0.44423 0.83214 0.39854 0.0
C1408 C 0.43488 0.84026 0.39038 0.0
C1409 C 0.55064 0.9597 0.36024 0.0
C1410 C 0.50316 0.86061 0.35215 0.0
C1411 C 0.52558 0.95336 0.32626 0.0
C1412 C 0.51954 0.96422 0.31749 0.0
C1413 C 0.48774 0.94117 0.31257 0.0
C1414 C 0.48489 0.9498 0.30386 0.0
C1415 C 0.5137 0.98169 0.2999 0.0
C1416 C 0.54482 1.00539 0.30496 0.0
C1417 C 0.5477 0.99667 0.31365 0.0
C1418 C 0.42438 0.86593 0.3456 0.0
C1419 C 0.45228 0.96702 0.35145 0.0
O1420 O 0.44085 0.86283 0.37188 0.0
O1421 O 0.45715 0.91921 0.37614 0.0
O1422 O 0.52591 0.94444 0.35457 0.0
O1423 O 0.53527 0.95006 0.36788 0.0
O1424 O 0.51817 0.88679 0.3461 0.0
O1425 O 0.48138 0.86113 0.35836 0.0
O1426 O 0.52833 0.97423 0.33294 0.0
O1427 O 0.50845 0.91798 0.32809 0.0
O1428 O 0.44023 0.89609 0.34979 0.0
O1429 O 0.44303 0.86766 0.33863 0.0
O1430 O 0.44899 0.94889 0.35884 0.0
O1431 O 0.46936 0.96384 0.34446 0.0
H1432 H 0.49749 0.93264 0.38966 0.0
H1433 H 0.51323 0.91874 0.40397 0.0
H1434 H 0.42939 0.8038 0.40083 0.0
H1435 H 0.41281 0.81816 0.38665 0.0
H1436 H 0.46552 0.91599 0.31538 0.0
H1437 H 0.46032 0.93124 0.30019 0.0
H1438 H 0.5677 0.02993 0.30211 0.0
H1439 H 0.57258 0.01471 0.3173 0.0
H1440 H 0.12813 0.16521 0.19344 0.0
H1441 H 0.18981 0.19331 0.16935 0.0
H1442 H 0.13704 0.11218 0.19527 0.0
H1443 H 0.20174 0.14246 0.17145 0.0
H1444 H 0.1779 0.02375 0.17128 0.0
H1445 H 0.17578 0.08059 0.17018 0.0
H1446 H 0.17153 0.08539 0.1984 0.0
H1447 H 0.17078 0.02671 0.19936 0.0
C1448 C 0.14444 0.1605 0.18866 0.0
C1449 C 0.15806 0.18312 0.18123 0.0
C1450 C 0.14985 0.13014 0.18971 0.0
C1451 C 0.16992 0.12227 0.18347 0.0
C1452 C 0.18511 0.14644 0.17627 0.0
C1453 C 0.1787 0.17602 0.1751 0.0
C1454 C 0.177 0.03724 0.17725 0.0
C1455 C 0.17452 0.02073 0.1854 0.0
C1456 C 0.17597 0.07018 0.17664 0.0
C1457 C 0.17339 0.08818 0.1842 0.0
C1458 C 0.17256 0.07226 0.19239 0.0
C1459 C 0.17259 0.03873 0.19297 0.0
H1460 H 0.04231 0.12871 0.19517 0.0
H1461 H 0.99233 0.17724 0.17917 0.0
H1462 H 0.9861 0.06857 0.19408 0.0
H1463 H 0.93541 0.11659 0.17827 0.0
H1464 H 0.83086 1.00043 0.18819 0.0
H1465 H 0.88408 0.06304 0.19056 0.0
H1466 H 0.9563 0.0291 0.1788 0.0
H1467 H 0.90346 0.96741 0.17619 0.0
C1468 C 0.01914 0.12673 0.19153 0.0
C1469 C 0.02184 0.15781 0.18723 0.0
C1470 C 0.987 0.09224 0.19091 0.0
C1471 C 0.95653 0.08811 0.18613 0.0
C1472 C 0.95854 0.11927 0.18206 0.0
C1473 C 0.99111 0.15381 0.18253 0.0
C1474 C 0.85819 1.00646 0.18617 0.0
C1475 C 0.86319 0.97926 0.182 0.0
C1476 C 0.88845 0.04218 0.18747 0.0
C1477 C 0.92411 0.05071 0.18483 0.0
C1478 C 0.92907 0.02314 0.18089 0.0
C1479 C 0.89887 0.98793 0.1794 0.0
H1480 H 0.04762 0.91441 0.16887 0.0
H1481 H 0.04428 0.86138 0.19336 0.0
H1482 H 0.98367 0.89874 0.17084 0.0
H1483 H 0.9796 0.84577 0.1954 0.0
H1484 H 0.88572 0.87778 0.19922 0.0
H1485 H 0.94562 0.88131 0.1979 0.0
H1486 H 0.92013 0.84303 0.17123 0.0
H1487 H 0.86014 0.83958 0.17251 0.0
C1488 C 0.03315 0.89927 0.17468 0.0
C1489 C 0.05098 0.88908 0.18096 0.0
C1490 C 0.99633 0.89 0.17577 0.0
C1491 C 0.9764 0.87063 0.18322 0.0
C1492 C 0.99426 0.86065 0.18957 0.0
C1493 C 0.03119 0.86955 0.18842 0.0
C1494 C 0.89256 0.86945 0.19311 0.0
C1495 C 0.86822 0.85873 0.18593 0.0
C1496 C 0.92686 0.87131 0.19239 0.0
C1497 C 0.93778 0.86285 0.18444 0.0
C1498 C 0.91264 0.85017 0.17741 0.0
C1499 C 0.87815 0.84795 0.17816 0.0
H1500 H 0.14816 0.11263 0.36611 0.0
H1501 H 0.19689 0.16375 0.34139 0.0
H1502 H 0.09962 0.12785 0.36403 0.0
H1503 H 0.14748 0.17885 0.33925 0.0
H1504 H 0.02096 0.14675 0.33577 0.0
H1505 H 0.07725 0.14291 0.33697 0.0
H1506 H 0.09251 0.18411 0.36341 0.0
H1507 H 0.03622 0.18793 0.36225 0.0
C1508 C 0.14856 0.12724 0.36022 0.0
C1509 C 0.17643 0.13707 0.35392 0.0
C1510 C 0.12084 0.13623 0.35907 0.0
C1511 C 0.1199 0.15494 0.35153 0.0
C1512 C 0.14754 0.16448 0.34514 0.0
C1513 C 0.17578 0.15589 0.34636 0.0
C1514 C 0.03665 0.15567 0.34179 0.0
C1515 C 0.02379 0.16733 0.34895 0.0
C1516 C 0.06904 0.1536 0.34246 0.0
C1517 C 0.08909 0.16279 0.35031 0.0
C1518 C 0.07737 0.17637 0.3573 0.0
C1519 C 0.04521 0.17879 0.35662 0.0
H1520 H 0.92846 0.8962 0.33981 0.0
H1521 H 0.83104 0.84846 0.35619 0.0
H1522 H 0.93261 0.95639 0.34086 0.0
H1523 H 0.83505 0.90925 0.35708 0.0
H1524 H 0.84487 0.02424 0.34766 0.0
H1525 H 0.83527 0.96151 0.34539 0.0
H1526 H 0.94473 0.99761 0.3554 0.0
H1527 H 0.95389 0.05947 0.35788 0.0
C1528 C 0.90757 0.89837 0.34354 0.0
C1529 C 0.87942 0.86747 0.34794 0.0
C1530 C 0.91006 0.93291 0.34414 0.0
C1531 C 0.88413 0.93735 0.34902 0.0
C1532 C 0.85521 0.90637 0.35321 0.0
C1533 C 0.85308 0.87174 0.35275 0.0
C1534 C 0.86686 0.01866 0.3493 0.0
C1535 C 0.9001 0.04653 0.35295 0.0
C1536 C 0.86127 0.98286 0.34807 0.0
C1537 C 0.88925 0.97486 0.35025 0.0
C1538 C 0.92278 1.00311 0.35366 0.0
C1539 C 0.92799 0.03843 0.35508 0.0
H1540 H 1.01121 0.83168 0.36571 0.0
H1541 H 0.97766 0.85926 0.34155 0.0
H1542 H 0.07374 0.88318 0.36372 0.0
H1543 H 0.0393 0.91286 0.33982 0.0
H1544 H 0.15839 0.99917 0.33587 0.0
H1545 H 0.10076 0.94022 0.33678 0.0
H1546 H 0.10892 0.94522 0.36501 0.0
H1547 H 0.16765 1.00242 0.36397 0.0
C1548 C 0.01735 0.84898 0.35996 0.0
C1549 C 0.98969 0.84154 0.35378 0.0
C1550 C 0.05318 0.87893 0.35885 0.0
C1551 C 0.06206 0.90311 0.35167 0.0
C1552 C 0.03422 0.89491 0.34538 0.0
C1553 C 0.99863 0.86421 0.34637 0.0
C1554 C 0.14804 0.98717 0.34226 0.0
C1555 C 0.16767 1.00532 0.34985 0.0
C1556 C 0.11465 0.95347 0.3428 0.0
C1557 C 0.09941 0.9375 0.35098 0.0
C1558 C 0.11965 0.95568 0.35856 0.0
C1559 C 0.15348 0.98882 0.35799 0.0
H1560 H 0.84456 0.83335 0.8666 0.0
H1561 H 0.90665 0.86114 0.84257 0.0
H1562 H 0.83261 0.88416 0.86439 0.0
H1563 H 0.89769 0.91405 0.84063 0.0
H1564 H 0.86373 0.99889 0.83615 0.0
H1565 H 0.86293 0.94026 0.83731 0.0
H1566 H 0.85807 0.94606 0.86551 0.0
H1567 H 0.85594 1.00285 0.8642 0.0
C1568 C 0.85579 0.85058 0.86084 0.0
C1569 C 0.87653 0.8434 0.85476 0.0
C1570 C 0.84934 0.88012 0.8596 0.0
C1571 C 0.86454 0.9041 0.85238 0.0
C1572 C 0.88481 0.89621 0.8462 0.0
C1573 C 0.89028 0.86594 0.84733 0.0
C1574 C 0.86175 0.98709 0.84258 0.0
C1575 C 0.85967 1.00535 0.85008 0.0
C1576 C 0.86177 0.9536 0.84327 0.0
C1577 C 0.86085 0.93801 0.85152 0.0
C1578 C 0.85802 0.95623 0.85901 0.0
C1579 C 0.85696 0.98913 0.85828 0.0
H1580 H 0.19168 0.0171 0.86569 0.0
H1581 H 0.16493 0.05522 0.84212 0.0
H1582 H 0.13887 0.95553 0.86344 0.0
H1583 H 0.11019 0.99443 0.84012 0.0
H1584 H 0.02239 0.87561 0.83561 0.0
H1585 H 0.08159 0.93286 0.83669 0.0
H1586 H 0.07652 0.92249 0.86488 0.0
H1587 H 0.0189 0.86414 0.86367 0.0
C1588 C 0.17433 0.01213 0.86001 0.0
C1589 C 0.18235 0.04077 0.85407 0.0
C1590 C 0.14365 0.97689 0.85875 0.0
C1591 C 0.11936 0.96961 0.85167 0.0
C1592 C 0.12819 0.99835 0.84559 0.0
C1593 C 0.15958 0.0334 0.84673 0.0
C1594 C 0.0343 0.88547 0.84202 0.0
C1595 C 1.01606 0.86529 0.84956 0.0
C1596 C 0.06818 0.91859 0.84266 0.0
C1597 C 0.08432 0.93293 0.85088 0.0
C1598 C 0.06589 0.91234 0.8584 0.0
C1599 C 0.03252 0.8788 0.85774 0.0
H1600 H 0.98602 0.10917 0.86625 0.0
H1601 H 0.9896 0.16291 0.84185 0.0
H1602 H 0.04901 0.12228 0.86393 0.0
H1603 H 0.05332 0.17596 0.83947 0.0
H1604 H 0.14653 0.14284 0.83539 0.0
H1605 H 0.08653 0.1392 0.83681 0.0
H1606 H 0.11267 0.1776 0.86345 0.0
H1607 H 0.1725 0.18119 0.8621 0.0
C1608 C 1.00034 0.12389 0.86038 0.0
C1609 C 0.9829 0.13514 0.85425 0.0
C1610 C 0.03659 0.13164 0.85908 0.0
C1611 C 0.05633 0.15053 0.85157 0.0
C1612 C 0.03878 0.16139 0.84533 0.0
C1613 C 1.00242 0.154 0.8467 0.0
C1614 C 0.13979 0.15109 0.84151 0.0
C1615 C 0.16433 0.16194 0.84866 0.0
C1616 C 0.10542 0.14914 0.8423 0.0
C1617 C 0.09469 0.15768 0.85027 0.0
C1618 C 0.11995 0.17031 0.85726 0.0
C1619 C 0.15437 0.17255 0.85646 0.0
H1620 H 0.86765 0.9055 0.69268 0.0
H1621 H 0.84211 0.84418 0.66856 0.0
H1622 H 0.92148 0.8979 0.6947 0.0
H1623 H 0.89406 0.83409 0.67078 0.0
H1624 H 1.01408 0.86292 0.67077 0.0
H1625 H 0.95687 0.8642 0.66962 0.0
H1626 H 0.94848 0.86261 0.69783 0.0
H1627 H 1.00726 0.86366 0.69892 0.0
C1628 C 0.87308 0.88954 0.68793 0.0
C1629 C 0.85093 0.87561 0.68044 0.0
C1630 C 0.90391 0.88499 0.68909 0.0
C1631 C 0.91283 0.86571 0.68285 0.0
C1632 C 0.88915 0.85013 0.6756 0.0
C1633 C 0.85899 0.85551 0.67436 0.0
C1634 C 0.99984 0.86245 0.67674 0.0
C1635 C 1.01532 0.86319 0.68493 0.0
C1636 C 0.96669 0.86296 0.67609 0.0
C1637 C 0.94749 0.86343 0.68363 0.0
C1638 C 0.96254 0.86301 0.69185 0.0
C1639 C 0.99617 0.86326 0.69249 0.0
H1640 H 0.18195 0.16445 0.67056 0.0
H1641 H 0.17194 0.1529 0.69859 0.0
H1642 H 0.18014 0.10557 0.66946 0.0
H1643 H 0.17279 0.09504 0.69765 0.0
H1644 H 0.12786 0.97153 0.6922 0.0
H1645 H 0.13754 0.03375 0.69419 0.0
H1646 H 0.2065 0.06984 0.67105 0.0
H1647 H 0.19411 1.00695 0.6688 0.0
C1648 C 0.18047 0.14977 0.67652 0.0
C1649 C 0.17705 0.16331 0.68465 0.0
C1650 C 0.1796 0.11586 0.67592 0.0
C1651 C 0.17617 0.0949 0.68347 0.0
C1652 C 0.1745 0.10955 0.69165 0.0
C1653 C 0.17445 0.14305 0.69222 0.0
C1654 C 0.14538 0.99301 0.68763 0.0
C1655 C 0.16006 0.98449 0.68033 0.0
C1656 C 0.15117 0.02889 0.68876 0.0
C1657 C 0.17258 0.05733 0.68273 0.0
C1658 C 0.18889 0.04883 0.6757 0.0
C1659 C 0.1822 0.01279 0.67445 0.0
H1660 H 0.88877 0.01767 0.69877 0.0
H1661 H 0.86513 0.0266 0.67166 0.0
H1662 H 0.9488 0.07384 0.69734 0.0
H1663 H 0.92511 0.08295 0.67028 0.0
H1664 H 0.05215 0.14232 0.66825 0.0
H1665 H 0.98877 0.09276 0.67027 0.0
H1666 H 0.98251 0.1426 0.69448 0.0
H1667 H 0.04669 0.19283 0.69242 0.0
C1668 C 0.89606 0.03188 0.69254 0.0
C1669 C 0.87214 0.01727 0.6853 0.0
C1670 C 0.93046 0.06424 0.69174 0.0
C1671 C 0.94191 0.08265 0.68368 0.0
C1672 C 0.91729 0.06909 0.67656 0.0
C1673 C 0.88278 0.03688 0.67736 0.0
C1674 C 0.03732 0.14289 0.674 0.0
C1675 C 0.05438 0.17154 0.68017 0.0
C1676 C 1.00081 0.11459 0.67512 0.0
C1677 C 0.9804 0.11392 0.68248 0.0
C1678 C 0.99754 0.14238 0.68874 0.0
C1679 C 0.03418 0.1711 0.68756 0.0
H1680 H 0.83851 0.35474 0.50379 0.0
H1681 H 0.82853 0.35549 0.53186 0.0
H1682 H 0.83734 0.41207 0.50283 0.0
H1683 H 0.82986 0.41454 0.53102 0.0
H1684 H 0.78772 0.4958 0.52538 0.0
H1685 H 0.79579 0.44225 0.52748 0.0
H1686 H 0.86635 0.47436 0.50462 0.0
H1687 H 0.85562 0.52584 0.50226 0.0
C1688 C 0.83701 0.36773 0.50979 0.0
C1689 C 0.83363 0.35055 0.5179 0.0
C1690 C 0.83658 0.40095 0.50926 0.0
C1691 C 0.83363 0.41854 0.51685 0.0
C1692 C 0.83144 0.40177 0.525 0.0
C1693 C 0.83103 0.368 0.5255 0.0
C1694 C 0.80528 0.49145 0.5209 0.0
C1695 C 0.82085 0.51467 0.51364 0.0
C1696 C 0.8101 0.46079 0.5221 0.0
C1697 C 0.83134 0.45321 0.51615 0.0
C1698 C 0.84873 0.47816 0.50919 0.0
C1699 C 0.84301 0.50806 0.50787 0.0
H1700 H 0.50335 0.31976 0.52639 0.0
H1701 H 0.55366 0.31256 0.50236 0.0
H1702 H 0.55413 0.38383 0.52836 0.0
H1703 H 0.60365 0.37585 0.50428 0.0
H1704 H 0.66879 0.49977 0.50511 0.0
H1705 H 0.61262 0.4396 0.50404 0.0
H1706 H 0.62378 0.41768 0.53111 0.0
H1707 H 0.68001 0.47801 0.53224 0.0
C1708 C 0.52514 0.33185 0.52154 0.0
C1709 C 0.52445 0.3112 0.51421 0.0
C1710 C 0.55418 0.36843 0.52266 0.0
C1711 C 0.58268 0.38507 0.51641 0.0
C1712 C 0.58182 0.36418 0.50912 0.0
C1713 C 0.55324 0.32774 0.50806 0.0
C1714 C 0.65907 0.4825 0.51089 0.0
C1715 C 0.67928 0.49376 0.51874 0.0
C1716 C 0.62692 0.44785 0.51026 0.0
C1717 C 0.61397 0.42367 0.51746 0.0
C1718 C 0.63295 0.4357 0.52545 0.0
C1719 C 0.66532 0.47027 0.52607 0.0
H1720 H 0.54854 0.20844 0.53232 0.0
H1721 H 0.51986 0.16585 0.506 0.0
H1722 H 0.60753 0.20999 0.53097 0.0
H1723 H 0.57892 0.1674 0.50468 0.0
H1724 H 0.7069 0.23786 0.50182 0.0
H1725 H 0.64303 0.2225 0.50381 0.0
H1726 H 0.63976 0.17228 0.52872 0.0
H1727 H 0.70434 0.18754 0.52667 0.0
C1728 C 0.55449 0.19876 0.5263 0.0
C1729 C 0.52959 0.18739 0.51923 0.0
C1730 C 0.58824 0.19946 0.52555 0.0
C1731 C 0.59803 0.18917 0.51769 0.0
C1732 C 0.57229 0.1759 0.51079 0.0
C1733 C 0.53836 0.17482 0.51156 0.0
C1734 C 0.69256 0.22326 0.5077 0.0
C1735 C 0.71062 0.21389 0.51409 0.0
C1736 C 0.65581 0.21419 0.5088 0.0
C1737 C 0.63622 0.19591 0.51638 0.0
C1738 C 0.65418 0.18636 0.5228 0.0
C1739 C 0.69102 0.195 0.52163 0.0
H1740 H 0.81803 0.45199 0.6995 0.0
H1741 H 0.86735 0.50501 0.67498 0.0
H1742 H 0.76988 0.46793 0.69762 0.0
H1743 H 0.81837 0.52083 0.67304 0.0
H1744 H 0.6915 0.48665 0.66931 0.0
H1745 H 0.74843 0.48407 0.67058 0.0
H1746 H 0.76175 0.52367 0.69714 0.0
H1747 H 0.70478 0.52626 0.69591 0.0
C1748 C 0.8187 0.46728 0.69372 0.0
C1749 C 0.84651 0.47728 0.68739 0.0
C1750 C 0.79121 0.47667 0.69268 0.0
C1751 C 0.79047 0.49592 0.68522 0.0
C1752 C 0.81828 0.50601 0.67886 0.0
C1753 C 0.84628 0.49704 0.67997 0.0
C1754 C 0.7069 0.49549 0.67538 0.0
C1755 C 0.69332 0.50632 0.68254 0.0
C1756 C 0.73965 0.49417 0.67608 0.0
C1757 C 0.75937 0.50329 0.68399 0.0
C1758 C 0.7469 0.51606 0.69099 0.0
C1759 C 0.71436 0.51776 0.69027 0.0
H1760 H 0.52536 0.19622 0.69659 0.0
H1761 H 0.55064 0.21355 0.66899 0.0
H1762 H 0.53015 0.25668 0.69755 0.0
H1763 H 0.55557 0.27437 0.67002 0.0
H1764 H 0.53324 0.3729 0.67549 0.0
H1765 H 0.52045 0.30899 0.67344 0.0
H1766 H 0.58529 0.31996 0.6964 0.0
H1767 H 0.59803 0.38297 0.6984 0.0
C1768 C 0.53149 0.21264 0.69069 0.0
C1769 C 0.538 0.20002 0.68273 0.0
C1770 C 0.53439 0.24744 0.69126 0.0
C1771 C 0.54371 0.27051 0.68388 0.0
C1772 C 0.54826 0.2572 0.67581 0.0
C1773 C 0.54558 0.22237 0.67525 0.0
C1774 C 0.54472 0.36151 0.68006 0.0
C1775 C 0.56641 0.38284 0.68714 0.0
C1776 C 0.53748 0.32505 0.67889 0.0
C1777 C 0.55143 0.30927 0.68483 0.0
C1778 C 0.57349 0.33097 0.69181 0.0
C1779 C 0.58099 0.36724 0.69292 0.0
H1780 H 0.8253 0.33552 0.66941 0.0
H1781 H 0.83435 0.33695 0.69752 0.0
H1782 H 0.76812 0.27592 0.67017 0.0
H1783 H 0.77635 0.27915 0.6984 0.0
H1784 H 0.6817 0.16472 0.69895 0.0
H1785 H 0.74369 0.2169 0.69677 0.0
H1786 H 0.70623 0.24699 0.67342 0.0
H1787 H 0.64501 0.19277 0.67533 0.0
C1788 C 0.81502 0.32305 0.67576 0.0
C1789 C 0.83448 0.34085 0.6834 0.0
C1790 C 0.78196 0.28896 0.67622 0.0
C1791 C 0.76705 0.2722 0.68436 0.0
C1792 C 0.78697 0.29019 0.69198 0.0
C1793 C 0.82035 0.32372 0.69149 0.0
C1794 C 0.68707 0.18221 0.69327 0.0
C1795 C 0.65867 0.17483 0.68732 0.0
C1796 C 0.72256 0.21253 0.69206 0.0
C1797 C 0.73032 0.23713 0.685 0.0
C1798 C 0.70189 0.22879 0.67888 0.0
C1799 C 0.6666 0.19773 0.67998 0.0
H1800 H 0.58145 0.21702 0.20003 0.0
H1801 H 0.53193 0.17045 0.17504 0.0
H1802 H 0.56881 0.26734 0.19785 0.0
H1803 H 0.51945 0.2216 0.17279 0.0
H1804 H 0.55812 0.34942 0.16909 0.0
H1805 H 0.55938 0.29182 0.17064 0.0
H1806 H 0.51469 0.27798 0.19669 0.0
H1807 H 0.51337 0.33557 0.19519 0.0
C1808 C 0.56762 0.21743 0.19408 0.0
C1809 C 0.55761 0.18976 0.18771 0.0
C1810 C 0.56015 0.24617 0.19286 0.0
C1811 C 0.5429 0.24832 0.18518 0.0
C1812 C 0.53279 0.22063 0.17878 0.0
C1813 C 0.53981 0.19137 0.18007 0.0
C1814 C 0.54808 0.33387 0.17512 0.0
C1815 C 0.53597 0.34735 0.18205 0.0
C1816 C 0.54859 0.30072 0.17597 0.0
C1817 C 0.53738 0.28052 0.1838 0.0
C1818 C 0.52384 0.29317 0.1906 0.0
C1819 C 0.52295 0.3261 0.18972 0.0
H1820 H 0.83482 0.39237 0.17674 0.0
H1821 H 0.86519 0.3545 0.19981 0.0
H1822 H 0.7817 0.3306 0.17458 0.0
H1823 H 0.8141 0.29208 0.19737 0.0
H1824 H 0.695 0.19886 0.19791 0.0
H1825 H 0.75197 0.25759 0.19904 0.0
H1826 H 0.75467 0.2692 0.17089 0.0
H1827 H 0.69591 0.21126 0.1699 0.0
C1828 C 0.83061 0.37045 0.18121 0.0
C1829 C 0.85384 0.37813 0.18847 0.0
C1830 C 0.80019 0.33485 0.17997 0.0
C1831 C 0.79286 0.3059 0.18586 0.0
C1832 C 0.81772 0.31355 0.19284 0.0
C1833 C 0.8474 0.34931 0.1942 0.0
C1834 C 0.70798 0.21375 0.19195 0.0
C1835 C 0.69091 0.20036 0.18382 0.0
C1836 C 0.74101 0.24756 0.19257 0.0
C1837 C 0.75852 0.26868 0.18505 0.0
C1838 C 0.74194 0.25444 0.17687 0.0
C1839 C 0.70835 0.22094 0.17627 0.0
H1840 H 0.82581 0.50263 0.1702 0.0
H1841 H 0.82978 0.49607 0.19829 0.0
H1842 H 0.76782 0.5031 0.1713 0.0
H1843 H 0.77088 0.49398 0.19944 0.0
H1844 H 0.67467 0.51223 0.20067 0.0
H1845 H 0.73712 0.52294 0.19879 0.0
H1846 H 0.70553 0.46687 0.1738 0.0
H1847 H 0.64389 0.4589 0.17549 0.0
C1848 C 0.81425 0.5013 0.17662 0.0
C1849 C 0.83252 0.4995 0.18416 0.0
C1850 C 0.78069 0.50117 0.17726 0.0
C1851 C 0.76403 0.49835 0.18546 0.0
C1852 C 0.78282 0.49704 0.193 0.0
C1853 C 0.81673 0.49805 0.19236 0.0
C1854 C 0.68137 0.50267 0.19473 0.0
C1855 C 0.65452 0.48471 0.18823 0.0
C1856 C 0.71714 0.50842 0.19367 0.0
C1857 C 0.72676 0.49535 0.18619 0.0
C1858 C 0.69978 0.47795 0.1796 0.0
C1859 C 0.66422 0.47309 0.18057 0.0
H1860 H 0.66867 0.19179 0.0317 0.0
H1861 H 0.67245 0.18595 1.0036 0.0
H1862 H 0.60951 0.19 0.03071 0.0
H1863 H 0.61511 0.18694 1.00249 0.0
H1864 H 0.50155 0.16976 1.00153 0.0
H1865 H 0.55292 0.15873 1.00378 0.0
H1866 H 0.58196 0.22401 0.0275 0.0
H1867 H 0.52854 0.23212 0.02552 0.0
C1868 C 0.65678 0.19011 0.02531 0.0
C1869 C 0.67511 0.1888 0.01773 0.0
C1870 C 0.62296 0.18948 0.02471 0.0
C1871 C 0.60706 0.18851 1.01651 0.0
C1872 C 0.6255 0.18676 1.00895 0.0
C1873 C 0.65875 0.18643 1.00957 0.0
C1874 C 0.51866 0.18113 1.0073 0.0
C1875 C 0.51119 0.20177 1.01335 0.0
C1876 C 0.5485 0.17525 1.00856 0.0
C1877 C 0.57252 0.19101 1.01575 0.0
C1878 C 0.56415 0.21086 0.02194 0.0
C1879 C 0.53356 0.21577 0.0208 0.0
H1880 H 0.84014 0.3216 0.02614 0.0
H1881 H 0.78296 0.31528 1.00212 0.0
H1882 H 0.85515 0.38622 0.02801 0.0
H1883 H 0.79794 0.37915 1.00394 0.0
H1884 H 0.8547 0.50259 1.00516 0.0
H1885 H 0.85232 0.44315 1.00387 0.0
H1886 H 0.81901 0.41919 0.03089 0.0
H1887 H 0.82154 0.47866 0.03223 0.0
C1888 C 0.83103 0.33407 0.02125 0.0
C1889 C 0.81043 0.31344 1.01399 0.0
C1890 C 0.83953 0.37094 0.02232 0.0
C1891 C 0.82802 0.38789 1.01607 0.0
C1892 C 0.80781 0.3672 1.00878 0.0
C1893 C 0.79897 0.33044 1.00778 0.0
C1894 C 0.84754 0.48504 1.01088 0.0
C1895 C 0.83791 0.49533 0.01877 0.0
C1896 C 0.84598 0.45085 1.01012 0.0
C1897 C 0.83507 0.4263 1.01725 0.0
C1898 C 0.82766 0.43753 0.02529 0.0
C1899 C 0.82891 0.47158 0.02603 0.0
H1900 H 0.52263 0.36631 1.00671 0.0
H1901 H 0.56075 0.33905 0.03029 0.0
H1902 H 0.58112 0.4241 1.00558 0.0
H1903 H 0.61995 0.39632 0.02899 0.0
H1904 H 0.71712 0.51547 0.0271 0.0
H1905 H 0.65488 0.46252 0.02953 0.0
H1906 H 0.64229 0.44278 1.00167 0.0
H1907 H 0.7033 0.49583 0.99931 0.0
C1908 C 0.54347 0.37265 1.01167 0.0
C1909 C 0.53696 0.3478 0.01855 0.0
C1910 C 0.57724 0.40579 1.011 0.0
C1911 C 0.60576 0.41486 1.01711 0.0
C1912 C 0.59871 0.3906 0.02418 0.0
C1913 C 0.5647 0.35757 0.02491 0.0
C1914 C 0.70078 0.49984 0.02153 0.0
C1915 C 0.71505 0.50982 1.01302 0.0
C1916 C 0.66519 0.46938 0.0229 0.0
C1917 C 0.6432 0.44825 1.0158 0.0
C1918 C 0.65777 0.45865 1.00731 0.0
C1919 C 0.69303 0.48902 1.00595 0.0
H1920 H 0.50226 0.85595 0.86024 0.0
H1921 H 0.44907 0.80602 0.83577 0.0
H1922 H 0.5169 0.80617 0.8624 0.0
H1923 H 0.46395 0.75723 0.83786 0.0
H1924 H 0.52376 0.69351 0.83952 0.0
H1925 H 0.5207 0.75028 0.83837 0.0
H1926 H 0.47945 0.7353 0.86479 0.0
H1927 H 0.48244 0.67847 0.86598 0.0
C1928 C 0.49388 0.83452 0.85533 0.0
C1929 C 0.47457 0.8349 0.84784 0.0
C1930 C 0.50221 0.80609 0.85656 0.0
C1931 C 0.49196 0.77805 0.85024 0.0
C1932 C 0.47283 0.77875 0.84276 0.0
C1933 C 0.46405 0.80662 0.84161 0.0
C1934 C 0.51474 0.70264 0.84515 0.0
C1935 C 0.50298 0.68116 0.85281 0.0
C1936 C 0.5128 0.73508 0.84447 0.0
C1937 C 0.49946 0.74702 0.85146 0.0
C1938 C 0.48997 0.72689 0.85931 0.0
C1939 C 0.49152 0.6942 0.85996 0.0
H1940 H 0.21797 0.64903 0.83627 0.0
H1941 H 0.17079 0.65234 0.86114 0.0
H1942 H 0.26686 0.7128 0.83819 0.0
H1943 H 0.22062 0.71689 0.86313 0.0
H1944 H 0.34793 0.81059 0.86618 0.0
H1945 H 0.29111 0.75071 0.86517 0.0
H1946 H 0.2745 0.77644 0.83882 0.0
H1947 H 0.33132 0.83631 0.83979 0.0
C1948 C 0.21798 0.66346 0.84216 0.0
C1949 C 0.19046 0.64566 0.84855 0.0
C1950 C 0.24591 0.70018 0.84322 0.0
C1951 C 0.24741 0.72007 0.85076 0.0
C1952 C 0.2201 0.70225 0.85723 0.0
C1953 C 0.19163 0.66541 0.8561 0.0
C1954 C 0.33185 0.80381 0.86022 0.0
C1955 C 0.34447 0.82818 0.85303 0.0
C1956 C 0.29916 0.76953 0.85966 0.0
C1957 C 0.27855 0.75867 0.85188 0.0
C1958 C 0.29007 0.78386 0.84487 0.0
C1959 C 0.32254 0.81828 0.84545 0.0
H1960 H 0.37692 0.57568 0.8359 0.0
H1961 H 0.37426 0.52346 0.86047 0.0
H1962 H 0.31343 0.56118 0.83808 0.0
H1963 H 0.31003 0.50914 0.86273 0.0
H1964 H 0.18989 0.50232 0.84008 0.0
H1965 H 0.24957 0.50523 0.83875 0.0
H1966 H 0.27696 0.5464 0.86517 0.0
H1967 H 0.21732 0.54353 0.86653 0.0
C1968 C 0.3627 0.56097 0.84177 0.0
C1969 C 0.38059 0.55064 0.84801 0.0
C1970 C 0.32614 0.5524 0.84299 0.0
C1971 C 0.30654 0.53365 0.85053 0.0
C1972 C 0.32445 0.52355 0.85684 0.0
C1973 C 0.36111 0.5317 0.85555 0.0
C1974 C 0.20826 0.51129 0.84567 0.0
C1975 C 0.19889 0.52302 0.85338 0.0
C1976 C 0.24257 0.51316 0.84489 0.0
C1977 C 0.26813 0.52641 0.85183 0.0
C1978 C 0.25784 0.53594 0.85972 0.0
C1979 C 0.22369 0.53446 0.86047 0.0
H1980 H 0.47724 0.77446 0.03229 0.0
H1981 H 0.52714 0.8298 1.00801 0.0
H1982 H 0.42776 0.78829 0.0303 0.0
H1983 H 0.47684 0.84371 1.00598 0.0
H1984 H 0.35115 0.81214 1.00211 0.0
H1985 H 0.40749 0.80845 1.00332 0.0
H1986 H 0.41867 0.84268 0.0303 0.0
H1987 H 0.36226 0.84616 0.02915 0.0
C1988 C 0.47771 0.78974 0.02652 0.0
C1989 C 0.50621 0.80117 0.02032 0.0
C1990 C 0.44942 0.79793 0.02542 0.0
C1991 C 0.44855 0.81751 0.01804 0.0
C1992 C 0.4768 0.82862 1.01175 0.0
C1993 C 0.50557 0.82074 1.01291 0.0
C1994 C 0.36586 0.81943 1.00828 0.0
C1995 C 0.35179 0.82905 1.01557 0.0
C1996 C 0.39831 0.81748 1.00894 0.0
C1997 C 0.41733 0.82484 1.01693 0.0
C1998 C 0.40433 0.83629 0.02408 0.0
C1999 C 0.37205 0.83849 0.02341 0.0
H2000 H 0.17502 0.68464 0.03241 0.0
H2001 H 0.24089 0.71996 1.00895 0.0
H2002 H 0.16363 0.62203 0.03033 0.0
H2003 H 0.23218 0.65798 1.00712 0.0
H2004 H 0.19859 0.53859 1.00299 0.0
H2005 H 0.19773 0.59646 1.00381 0.0
H2006 H 0.1904 0.58676 0.032 0.0
H2007 H 0.18864 0.52783 0.03104 0.0
C2008 C 0.18705 0.67884 0.02678 0.0
C2009 C 0.20877 0.70704 0.02083 0.0
C2010 C 0.18096 0.64295 0.02562 0.0
C2011 C 0.19745 0.63448 0.01863 0.0
C2012 C 0.21843 0.6628 1.01253 0.0
C2013 C 0.22364 0.69854 1.01357 0.0
C2014 C 0.19615 0.54864 1.00934 0.0
C2015 C 0.1935 0.52853 1.01695 0.0
C2016 C 0.19608 0.58216 1.00984 0.0
C2017 C 0.19432 0.59703 0.01798 0.0
C2018 C 0.191 0.5763 0.02557 0.0
C2019 C 0.19015 0.54236 0.02505 0.0
H2020 H 0.31943 0.54493 0.03359 0.0
H2021 H 0.3208 0.4972 1.00865 0.0
H2022 H 0.38314 0.59367 0.03144 0.0
H2023 H 0.38521 0.54665 1.00645 0.0
H2024 H 0.47869 0.67247 1.0027 0.0
H2025 H 0.41885 0.61606 1.00416 0.0
H2026 H 0.44668 0.60234 0.03054 0.0
H2027 H 0.50659 0.65894 0.02912 0.0
C2028 C 0.33343 0.54478 0.02765 0.0
C2029 C 0.31511 0.5172 0.02129 0.0
C2030 C 0.37011 0.57259 0.02645 0.0
C2031 C 0.3894 0.57385 0.01882 0.0
C2032 C 0.37105 0.54638 1.0124 0.0
C2033 C 0.33428 0.51811 1.01366 0.0
C2034 C 0.47236 0.65713 1.00877 0.0
C2035 C 0.49736 0.67049 1.01583 0.0
C2036 C 0.43809 0.62465 1.00958 0.0
C2037 C 0.42785 0.60495 0.01749 0.0
C2038 C 0.4536 0.61722 0.0244 0.0
C2039 C 0.48805 0.64952 0.02356 0.0
H2040 H 0.17857 0.50102 0.53304 0.0
H2041 H 0.24033 0.52965 0.50895 0.0
H2042 H 0.16607 0.55153 0.53095 0.0
H2043 H 0.23078 0.58225 0.50712 0.0
H2044 H 0.19569 0.66634 0.50289 0.0
H2045 H 0.19522 0.60784 0.50393 0.0
H2046 H 0.19168 0.61352 0.53215 0.0
H2047 H 0.18927 0.67022 0.53097 0.0
C2048 C 0.18959 0.51837 0.5273 0.0
C2049 C 0.21042 0.51154 0.52117 0.0
C2050 C 0.18282 0.54771 0.52612 0.0
C2051 C 0.19778 0.57183 0.51892 0.0
C2052 C 0.21811 0.56428 0.51269 0.0
C2053 C 0.22391 0.53419 0.51375 0.0
C2054 C 0.19408 0.65454 0.50929 0.0
C2055 C 0.19231 0.67274 0.51684 0.0
C2056 C 0.19428 0.62113 0.50992 0.0
C2057 C 0.19383 0.60559 0.51814 0.0
C2058 C 0.19127 0.62371 0.52568 0.0
C2059 C 0.19005 0.65653 0.52502 0.0
H2060 H 0.52535 0.68603 0.53269 0.0
H2061 H 0.49934 0.72499 0.50915 0.0
H2062 H 0.47258 0.62454 0.53029 0.0
H2063 H 0.44468 0.66433 0.50699 0.0
H2064 H 0.35733 0.54561 0.50213 0.0
H2065 H 0.41636 0.60298 0.5034 0.0
H2066 H 0.41019 0.59124 0.53156 0.0
H2067 H 0.3528 0.53283 0.53016 0.0
C2068 C 0.50816 0.68128 0.52698 0.0
C2069 C 0.5164 0.71011 0.52109 0.0
C2070 C 0.47751 0.64607 0.52564 0.0
C2071 C 0.45348 0.63905 0.51851 0.0
C2072 C 0.46249 0.66803 0.51249 0.0
C2073 C 0.49383 0.70302 0.51372 0.0
C2074 C 0.36896 0.55521 0.50858 0.0
C2075 C 0.3505 0.53463 0.51604 0.0
C2076 C 0.40274 0.58839 0.50933 0.0
C2077 C 0.41853 0.60237 0.51759 0.0
C2078 C 0.39985 0.58138 0.52505 0.0
C2079 C 0.3666 0.54781 0.52427 0.0
H2080 H 0.50399 0.84697 0.52961 0.0
H2081 H 0.47996 0.8126 0.50261 0.0
H2082 H 0.44398 0.84315 0.53094 0.0
H2083 H 0.41986 0.80866 0.50399 0.0
H2084 H 0.3224 0.83107 0.50896 0.0
H2085 H 0.38635 0.84449 0.5068 0.0
H2086 H 0.38023 0.7886 0.53103 0.0
H2087 H 0.31705 0.77519 0.53314 0.0
C2088 C 0.48625 0.83916 0.52391 0.0
C2089 C 0.49681 0.82976 0.51603 0.0
C2090 C 0.45171 0.83676 0.52469 0.0
C2091 C 0.42697 0.82519 0.5176 0.0
C2092 C 0.43831 0.81779 0.50957 0.0
C2093 C 0.47275 0.81989 0.5088 0.0
C2094 C 0.33488 0.82176 0.5138 0.0
C2095 C 0.31478 0.80219 0.52123 0.0
C2096 C 0.37139 0.82937 0.51257 0.0
C2097 C 0.38851 0.81799 0.5188 0.0
C2098 C 0.36818 0.7984 0.52619 0.0
C2099 C 0.3318 0.79046 0.52736 0.0
H2100 H 0.17212 0.5029 0.33515 0.0
H2101 H 0.19669 0.5614 0.35968 0.0
H2102 H 0.22425 0.49292 0.33719 0.0
H2103 H 0.25069 0.55402 0.36151 0.0
H2104 H 0.33807 0.52207 0.36519 0.0
H2105 H 0.2784 0.5192 0.36428 0.0
H2106 H 0.2871 0.524 0.33606 0.0
H2107 H 0.34524 0.52447 0.33703 0.0
C2108 C 0.18879 0.51357 0.34101 0.0
C2109 C 0.18049 0.53294 0.34725 0.0
C2110 C 0.21904 0.50827 0.34215 0.0
C2111 C 0.24255 0.52323 0.34945 0.0
C2112 C 0.23328 0.54161 0.35585 0.0
C2113 C 0.20235 0.54604 0.3548 0.0
C2114 C 0.32685 0.52195 0.3588 0.0
C2115 C 0.34637 0.52336 0.35118 0.0
C2116 C 0.2927 0.52065 0.35826 0.0
C2117 C 0.27753 0.52153 0.35009 0.0
C2118 C 0.29704 0.52239 0.34249 0.0
C2119 C 0.33072 0.52289 0.34303 0.0
H2120 H 0.52389 0.67148 0.33498 0.0
H2121 H 0.45782 0.63494 0.35839 0.0
H2122 H 0.53607 0.7342 0.3374 0.0
H2123 H 0.46725 0.69699 0.36055 0.0
H2124 H 0.50174 0.81595 0.36539 0.0
H2125 H 0.50211 0.75793 0.36419 0.0
H2126 H 0.51063 0.77068 0.33606 0.0
H2127 H 0.51299 0.82976 0.33742 0.0
C2128 C 0.51192 0.67702 0.34066 0.0
C2129 C 0.48996 0.64846 0.3465 0.0
C2130 C 0.5185 0.71298 0.34201 0.0
C2131 C 0.50224 0.72118 0.34911 0.0
C2132 C 0.48089 0.69243 0.35508 0.0
C2133 C 0.47522 0.65662 0.35384 0.0
C2134 C 0.50441 0.80655 0.35897 0.0
C2135 C 0.50754 0.82753 0.35151 0.0
C2136 C 0.50416 0.77293 0.35825 0.0
C2137 C 0.50601 0.75882 0.35001 0.0
C2138 C 0.50992 0.78049 0.34256 0.0
C2139 C 0.51113 0.81453 0.34331 0.0
H2140 H 0.199 0.68997 0.33878 0.0
H2141 H 0.22147 0.67798 0.36581 0.0
H2142 H 0.25894 0.74608 0.33768 0.0
H2143 H 0.28183 0.73435 0.36463 0.0
H2144 H 0.37866 0.85601 0.35958 0.0
H2145 H 0.31532 0.80434 0.36187 0.0
H2146 H 0.32237 0.75479 0.33769 0.0
H2147 H 0.38488 0.80573 0.33544 0.0
C2148 C 0.21647 0.69945 0.34453 0.0
C2149 C 0.20543 0.67908 0.35236 0.0
C2150 C 0.25096 0.7316 0.34388 0.0
C2151 C 0.27532 0.74436 0.35103 0.0
C2152 C 0.26361 0.72524 0.35901 0.0
C2153 C 0.22905 0.69286 0.35967 0.0
C2154 C 0.36651 0.83399 0.35478 0.0
C2155 C 0.38657 0.83498 0.3473 0.0
C2156 C 0.3304 0.80444 0.35609 0.0
C2157 C 0.3137 0.77575 0.3499 0.0
C2158 C 0.33411 0.77679 0.3425 0.0
C2159 C 0.37007 0.80592 0.34124 0.0
H2160 H 0.24903 0.33704 0.17038 0.0
H2161 H 0.26229 0.32684 0.19808 0.0
H2162 H 0.31571 0.36705 0.16844 0.0
H2163 H 0.32935 0.35698 0.19608 0.0
H2164 H 0.45229 0.44419 0.18903 0.0
H2165 H 0.3858 0.41748 0.19175 0.0
H2166 H 0.36188 0.34641 0.16928 0.0
H2167 H 0.42788 0.37282 0.16662 0.0
C2168 C 0.2661 0.34145 0.17609 0.0
C2169 C 0.25003 0.32926 0.18439 0.0
C2170 C 0.30442 0.35848 0.17495 0.0
C2171 C 0.3279 0.36412 0.18209 0.0
C2172 C 0.31208 0.35319 0.19045 0.0
C2173 C 0.27358 0.33579 0.19159 0.0
C2174 C 0.43277 0.42274 0.18472 0.0
C2175 C 0.44535 0.41069 0.1776 0.0
C2176 C 0.3947 0.40739 0.18628 0.0
C2177 C 0.36847 0.38001 0.18069 0.0
C2178 C 0.38125 0.36784 0.17363 0.0
C2179 C 0.41913 0.38285 0.17214 0.0
H2180 H 0.62697 0.05127 0.19262 0.0
H2181 H 0.5974 1.01035 0.16628 0.0
H2182 H 0.65615 0.01387 0.19468 0.0
H2183 H 0.62909 0.97516 0.16798 0.0
H2184 H 0.66838 0.89488 0.17458 0.0
H2185 H 0.63262 0.92633 0.17338 0.0
H2186 H 0.70658 1.00901 0.19183 0.0
H2187 H 0.74012 0.97588 0.19345 0.0
C2188 C 0.62697 0.03436 0.18725 0.0
C2189 C 0.60989 0.0337 0.1793 0.0
C2190 C 0.64414 0.01312 0.18837 0.0
C2191 C 0.64571 0.99142 0.18148 0.0
C2192 C 0.62817 0.99071 0.17354 0.0
C2193 C 0.61012 1.01119 0.17251 0.0
C2194 C 0.67665 0.91962 0.17843 0.0
C2195 C 0.70691 0.9327 0.18415 0.0
C2196 C 0.65633 0.938 0.17769 0.0
C2197 C 0.66635 0.97061 0.18249 0.0
C2198 C 0.69697 0.98363 0.18817 0.0
C2199 C 0.71658 0.96471 0.18907 0.0
H2200 H 0.09456 0.785 0.16956 0.0
H2201 H 0.0993 0.7732 0.19748 0.0
H2202 H 0.0602 0.71836 0.16796 0.0
H2203 H 0.06654 0.70593 0.19587 0.0
H2204 H 0.97338 0.58545 0.1907 0.0
H2205 H 1.01054 0.65232 0.19314 0.0
H2206 H 0.06213 0.66483 0.16788 0.0
H2207 H 0.02332 0.59888 0.16531 0.0
C2208 C 0.0889 0.76813 0.17536 0.0
C2209 C 0.09993 0.78465 0.18365 0.0
C2210 C 0.06925 0.72958 0.17445 0.0
C2211 C 0.06057 0.70608 0.18177 0.0
C2212 C 0.07206 0.72272 0.19006 0.0
C2213 C 0.09119 0.76145 0.19099 0.0
C2214 C 0.99289 0.60267 0.18572 0.0
C2215 C 0.99524 0.58704 0.17779 0.0
C2216 C 1.01441 0.64109 0.18712 0.0
C2217 C 0.03926 0.66466 0.18066 0.0
C2218 C 0.04263 0.64827 0.17291 0.0
C2219 C 0.02061 0.6102 0.17146 0.0
H2220 H 0.34076 0.2527 0.33732 0.0
H2221 H 0.32505 0.24121 0.36527 0.0
H2222 H 0.37533 0.32005 0.3389 0.0
H2223 H 0.35736 0.30781 0.36684 0.0
H2224 H 0.44004 0.42711 0.36948 0.0
H2225 H 0.41288 0.3612 0.36687 0.0
H2226 H 0.3733 0.37393 0.3417 0.0
H2227 H 0.40304 0.4408 0.34419 0.0
C2228 C 0.34461 0.26452 0.3438 0.0
C2229 C 0.33036 0.24136 0.35117 0.0
C2230 C 0.36423 0.30329 0.34472 0.0
C2231 C 0.36966 0.32001 0.35302 0.0
C2232 C 0.35501 0.29655 0.36035 0.0
C2233 C 0.33608 0.25799 0.35944 0.0
C2234 C 0.4259 0.41586 0.36334 0.0
C2235 C 0.42357 0.4391 0.35706 0.0
C2236 C 0.40983 0.3778 0.36186 0.0
C2237 C 0.38989 0.36146 0.35413 0.0
C2238 C 0.38851 0.38511 0.34771 0.0
C2239 C 0.40544 0.42353 0.34913 0.0
H2240 H 0.58665 0.98653 0.34461 0.0
H2241 H 0.60571 0.98649 0.37231 0.0
H2242 H 0.65322 0.02539 0.34219 0.0
H2243 H 0.67208 0.02374 0.36994 0.0
H2244 H 0.78843 0.11564 0.36458 0.0
H2245 H 0.72151 0.0821 0.36647 0.0
H2246 H 0.70926 0.02521 0.34201 0.0
H2247 H 0.77591 0.05986 0.33997 0.0
C2248 C 0.60512 0.99477 0.35018 0.0
C2249 C 0.59094 0.98356 0.35865 0.0
C2250 C 0.64339 0.01686 0.3488 0.0
C2251 C 0.66848 0.02798 0.35586 0.0
C2252 C 0.65395 0.01659 0.36434 0.0
C2253 C 0.61577 0.99488 0.36571 0.0
C2254 C 0.77144 0.09618 0.35957 0.0
C2255 C 0.78776 0.09056 0.35212 0.0
C2256 C 0.73291 0.07663 0.36068 0.0
C2257 C 0.70954 0.05051 0.35443 0.0
C2258 C 0.72597 0.04536 0.34692 0.0
C2259 C 0.76444 0.0652 0.34577 0.0
H2260 H 0.94686 0.69605 0.33633 0.0
H2261 H 0.92247 0.68274 0.36397 0.0
H2262 H 0.97917 0.66119 0.33779 0.0
H2263 H 0.95562 0.64901 0.36548 0.0
H2264 H 0.07184 0.63719 0.34585 0.0
H2265 H 0.03475 0.66673 0.34347 0.0
H2266 H 0.95513 0.59318 0.36244 0.0
H2267 H 0.99298 0.56465 0.36501 0.0
C2268 C 0.94828 0.68567 0.34272 0.0
C2269 C 0.93194 0.69231 0.35003 0.0
C2270 C 0.9671 0.66584 0.34357 0.0
C2271 C 0.97025 0.65222 0.35176 0.0
C2272 C 0.95338 0.65843 0.35903 0.0
C2273 C 0.93444 0.67806 0.35818 0.0
C2274 C 0.04628 0.62723 0.34947 0.0
C2275 C 0.0355 0.59881 0.35567 0.0
C2276 C 0.02483 0.64402 0.34807 0.0
C2277 C 0.9919 0.63266 0.35281 0.0
C2278 C 0.98062 0.6033 0.3588 0.0
C2279 C 1.00218 0.58669 0.36023 0.0
H2280 H 0.58221 0.60781 0.84373 0.0
H2281 H 0.60415 0.61659 0.87142 0.0
H2282 H 0.64849 0.63559 0.84076 0.0
H2283 H 0.67011 0.64556 0.86855 0.0
H2284 H 0.78332 0.66649 0.86181 0.0
H2285 H 0.7166 0.63413 0.86369 0.0
H2286 H 0.70653 0.6915 0.84127 0.0
H2287 H 0.77347 0.72295 0.83921 0.0
C2288 C 0.60121 0.61569 0.84918 0.0
C2289 C 0.58791 0.6097 0.85781 0.0
C2290 C 0.6393 0.63192 0.84749 0.0
C2291 C 0.66502 0.64275 0.8544 0.0
C2292 C 0.6514 0.63691 0.86303 0.0
C2293 C 0.61346 0.62051 0.8647 0.0
C2294 C 0.76692 0.67205 0.85723 0.0
C2295 C 0.78397 0.69754 0.85038 0.0
C2296 C 0.72849 0.65363 0.85835 0.0
C2297 C 0.70583 0.66043 0.85272 0.0
C2298 C 0.72281 0.68517 0.84571 0.0
C2299 C 0.76134 0.70337 0.84453 0.0
H2300 H 0.33597 0.08735 0.83697 0.0
H2301 H 0.32322 0.08904 0.86492 0.0
H2302 H 0.3699 0.05423 0.83891 0.0
H2303 H 0.35467 0.0541 0.86689 0.0
H2304 H 0.4365 0.01593 0.86978 0.0
H2305 H 0.40894 0.05423 0.86701 0.0
H2306 H 0.36781 0.99929 0.84215 0.0
H2307 H 0.39805 0.96292 0.84475 0.0
C2308 C 0.34028 0.0805 0.84353 0.0
C2309 C 0.32718 0.09124 0.85078 0.0
C2310 C 0.35952 0.06115 0.84466 0.0
C2311 C 0.36551 0.05129 0.85308 0.0
C2312 C 0.35189 0.06186 0.8603 0.0
C2313 C 0.33347 0.08184 0.85918 0.0
C2314 C 0.42183 0.01233 0.86369 0.0
C2315 C 0.41935 0.98638 0.8575 0.0
C2316 C 0.40555 0.03406 0.86212 0.0
C2317 C 0.38528 0.02978 0.8544 0.0
C2318 C 0.38339 1.00402 0.84813 0.0
C2319 C 0.40054 0.98287 0.84963 0.0
H2320 H 0.90752 0.24095 0.86359 0.0
H2321 H 0.96849 0.25338 0.83982 0.0
H2322 H 0.9412 0.30775 0.8656 0.0
H2323 H 1.00332 0.32018 0.84201 0.0
H2324 H 0.04296 0.44364 0.84488 0.0
H2325 H 1.00442 0.37724 0.84203 0.0
H2326 H 0.99919 0.35582 0.8698 0.0
H2327 H 0.03614 0.42194 0.87257 0.0
C2328 C 0.92815 0.25791 0.85878 0.0
C2329 C 0.93525 0.24157 0.85155 0.0
C2330 C 0.94779 0.29639 0.85997 0.0
C2331 C 0.97553 0.31978 0.85403 0.0
C2332 C 0.982 0.30341 0.84669 0.0
C2333 C 0.96204 0.26491 0.84545 0.0
C2334 C 0.03327 0.42464 0.85035 0.0
C2335 C 0.04242 0.43805 0.85894 0.0
C2336 C 1.01137 0.38647 0.84873 0.0
C2337 C 0.99832 0.36073 0.85567 0.0
C2338 C 1.00781 0.37448 0.86426 0.0
C2339 C 0.02935 0.41253 0.86587 0.0
H2340 H 0.61774 0.58266 0.69142 0.0
H2341 H 0.62408 0.60412 0.66372 0.0
H2342 H 0.64492 0.64892 0.69436 0.0
H2343 H 0.65241 0.67014 0.66656 0.0
H2344 H 0.67416 0.78382 0.67358 0.0
H2345 H 0.64146 0.71697 0.67166 0.0
H2346 H 0.70101 0.70658 0.69355 0.0
H2347 H 0.7328 0.77341 0.69566 0.0
C2348 C 0.62491 0.60155 0.68597 0.0
C2349 C 0.61854 0.58814 0.67735 0.0
C2350 C 0.6408 0.63963 0.68763 0.0
C2351 C 0.65088 0.66523 0.68071 0.0
C2352 C 0.64442 0.6515 0.67209 0.0
C2353 C 0.62839 0.61354 0.67044 0.0
C2354 C 0.68009 0.76731 0.67804 0.0
C2355 C 0.70631 0.78424 0.68476 0.0
C2356 C 0.66148 0.72883 0.6769 0.0
C2357 C 0.66875 0.70606 0.68238 0.0
C2358 C 0.69426 0.72294 0.68925 0.0
C2359 C 0.71268 0.76145 0.69044 0.0
H2360 H 0.44411 0.06789 0.68881 0.0
H2361 H 0.43773 0.98551 0.67075 0.0
H2362 H 0.37731 0.03188 0.691 0.0
H2363 H 0.37117 0.94862 0.67317 0.0
H2364 H 0.25903 0.94679 0.69816 0.0
H2365 H 0.32624 0.97858 0.69692 0.0
H2366 H 0.31606 0.94776 0.66966 0.0
H2367 H 0.24914 0.915 0.67099 0.0
C2368 C 0.42846 0.04177 0.6854 0.0
C2369 C 0.44619 0.02971 0.67955 0.0
C2370 C 0.39007 0.02091 0.6867 0.0
C2371 C 0.36838 0.98724 0.68222 0.0
C2372 C 0.38655 0.9747 0.67659 0.0
C2373 C 0.42486 0.99571 0.67525 0.0
C2374 C 0.27111 0.94652 0.69191 0.0
C2375 C 0.2484 0.92816 0.68469 0.0
C2376 C 0.30982 0.96506 0.69118 0.0
C2377 C 0.32701 0.96602 0.68317 0.0
C2378 C 0.30417 0.94724 0.67598 0.0
C2379 C 0.26554 0.92851 0.67674 0.0
H2380 H 0.04383 0.45728 0.67051 0.0
H2381 H 0.96484 0.38107 0.68914 0.0
H2382 H 0.08122 0.42762 0.67226 0.0
H2383 H 1.0015 0.35071 0.69074 0.0
H2384 H 0.11428 0.33777 0.6698 0.0
H2385 H 0.08105 0.37175 0.66866 0.0
H2386 H 0.05753 0.35683 0.69633 0.0
H2387 H 0.0899 0.32204 0.69743 0.0
C2388 C 0.03448 0.43419 0.67499 0.0
C2389 C 1.00132 0.42147 0.67967 0.0
C2390 C 0.05578 0.41697 0.67595 0.0
C2391 C 0.04446 0.38653 0.68162 0.0
C2392 C 1.01151 0.37431 0.6864 0.0
C2393 C 0.99028 0.39158 0.68545 0.0
C2394 C 0.10225 0.3419 0.67567 0.0
C2395 C 0.10475 0.32689 0.68371 0.0
C2396 C 0.08327 0.36163 0.67502 0.0
C2397 C 0.0663 0.36704 0.68239 0.0
C2398 C 0.06957 0.35274 0.69047 0.0
C2399 C 0.08845 0.33293 0.69111 0.0
H2400 H 0.91146 0.65416 0.50251 0.0
H2401 H 0.92447 0.6675 0.53047 0.0
H2402 H 0.97796 0.68514 0.50075 0.0
H2403 H 0.99158 0.70097 0.52874 0.0
H2404 H 0.11076 0.72741 0.52353 0.0
H2405 H 0.04407 0.69815 0.52586 0.0
H2406 H 0.03281 0.73863 0.50065 0.0
H2407 H 0.09875 0.76516 0.49817 0.0
C2408 C 0.92862 0.66447 0.50829 0.0
C2409 C 0.9125 0.65841 0.51663 0.0
C2410 C 0.9671 0.68262 0.50729 0.0
C2411 C 0.99092 0.69618 0.51458 0.0
C2412 C 0.97461 0.69057 0.52294 0.0
C2413 C 0.93597 0.6716 0.52395 0.0
C2414 C 0.09384 0.73 0.51852 0.0
C2415 C 0.10988 0.74831 0.51065 0.0
C2416 C 0.05549 0.7134 0.51986 0.0
C2417 C 0.03228 0.71539 0.51342 0.0
C2418 C 0.04902 0.73518 0.50569 0.0
C2419 C 0.0871 0.75088 0.50428 0.0
H2420 H 0.37057 0.27609 0.53073 0.0
H2421 H 0.3645 0.25809 0.50281 0.0
H2422 H 0.34054 0.31315 0.52899 0.0
H2423 H 0.33446 0.29496 0.50112 0.0
H2424 H 0.32919 0.40207 0.50042 0.0
H2425 H 0.35474 0.36149 0.50266 0.0
H2426 H 0.28111 0.31035 0.52454 0.0
H2427 H 0.25529 0.35121 0.52225 0.0
C2428 C 0.36253 0.27966 0.52423 0.0
C2429 C 0.37023 0.26416 0.5169 0.0
C2430 C 0.34516 0.30082 0.52325 0.0
C2431 C 0.33539 0.30734 0.51491 0.0
C2432 C 0.34211 0.29096 0.50763 0.0
C2433 C 0.35915 0.26956 0.50861 0.0
C2434 C 0.31841 0.38222 0.50572 0.0
C2435 C 0.29012 0.37981 0.51114 0.0
C2436 C 0.33291 0.35875 0.50697 0.0
C2437 C 0.31976 0.33238 0.51373 0.0
C2438 C 0.29193 0.33042 0.51929 0.0
C2439 C 0.2771 0.35376 0.51797 0.0
H2440 H 0.66628 0.93477 0.49628 0.0
H2441 H 0.65498 0.91306 0.52399 0.0
H2442 H 0.70387 1.00073 0.49907 0.0
H2443 H 0.69408 0.97946 0.52688 0.0
H2444 H 0.72905 0.1036 0.52837 0.0
H2445 H 0.6948 0.03676 0.52633 0.0
H2446 H 0.76198 0.04823 0.50377 0.0
H2447 H 0.79533 0.11522 0.50563 0.0
C2448 C 0.67222 0.94412 0.503 0.0
C2449 C 0.65772 0.91863 0.50992 0.0
C2450 C 0.69414 0.98209 0.50461 0.0
C2451 C 0.70249 0.99582 0.51322 0.0
C2452 C 0.68807 0.97015 0.52016 0.0
C2453 C 0.66587 0.93201 0.51853 0.0
C2454 C 0.73675 0.09189 0.523 0.0
C2455 C 0.76489 0.115 0.51713 0.0
C2456 C 0.71714 0.05336 0.52186 0.0
C2457 C 0.72522 0.03674 0.51484 0.0
C2458 C 0.75427 0.05986 0.50914 0.0
C2459 C 0.77368 0.09841 0.51025 0.0
H2460 H 0.06684 0.77582 0.67847 0.0
H2461 H 0.10904 0.7634 0.70316 0.0
H2462 H 0.03782 0.70915 0.67595 0.0
H2463 H 0.08294 0.69769 0.70046 0.0
H2464 H 0.99842 0.57626 0.69899 0.0
H2465 H 0.02985 0.64284 0.70076 0.0
H2466 H 0.03952 0.65638 0.67267 0.0
H2467 H 1.0055 0.58921 0.67096 0.0
C2468 C 0.07055 0.75885 0.68327 0.0
C2469 C 0.08991 0.7747 0.69104 0.0
C2470 C 0.05406 0.72051 0.68183 0.0
C2471 C 0.05728 0.69721 0.68805 0.0
C2472 C 0.0784 0.71389 0.69562 0.0
C2473 C 0.09391 0.75187 0.69715 0.0
C2474 C 1.00748 0.59344 0.69318 0.0
C2475 C 0.9995 0.5773 0.68483 0.0
C2476 C 0.0259 0.63197 0.69419 0.0
C2477 C 0.03786 0.65579 0.68687 0.0
C2478 C 0.0304 0.63943 0.6785 0.0
C2479 C 1.01113 0.60076 0.6775 0.0
H2480 H 0.27123 0.34589 0.70393 0.0
H2481 H 0.2586 0.30143 0.67791 0.0
H2482 H 0.33726 0.38529 0.70154 0.0
H2483 H 0.32535 0.33904 0.67563 0.0
H2484 H 0.44496 0.42969 0.6715 0.0
H2485 H 0.37786 0.39585 0.67327 0.0
H2486 H 0.39157 0.38498 0.70094 0.0
H2487 H 0.4581 0.42052 0.69921 0.0
C2488 C 0.28275 0.34443 0.69769 0.0
C2489 C 0.25979 0.32054 0.69112 0.0
C2490 C 0.32084 0.3668 0.69633 0.0
C2491 C 0.33736 0.36528 0.68842 0.0
C2492 C 0.31402 0.3416 0.68177 0.0
C2493 C 0.27566 0.31977 0.68309 0.0
C2494 C 0.43352 0.42034 0.67797 0.0
C2495 C 0.45702 0.42813 0.68522 0.0
C2496 C 0.39489 0.40057 0.67899 0.0
C2497 C 0.37867 0.38742 0.68727 0.0
C2498 C 0.40247 0.39524 0.69448 0.0
C2499 C 0.44094 0.41557 0.69349 0.0
H2500 H 0.71554 0.94317 0.67742 0.0
H2501 H 0.70083 0.95145 0.70507 0.0
H2502 H 0.67621 0.96996 0.67431 0.0
H2503 H 0.66281 0.97917 0.70205 0.0
H2504 H 0.57034 0.99978 0.69481 0.0
H2505 H 0.60458 0.96724 0.69686 0.0
H2506 H 0.67493 0.02662 0.67501 0.0
H2507 H 0.63993 0.05834 0.67279 0.0
C2508 C 0.70382 0.95061 0.68283 0.0
C2509 C 0.7111 0.94496 0.69148 0.0
C2510 C 0.68149 0.96627 0.68106 0.0
C2511 C 0.66599 0.97672 0.68792 0.0
C2512 C 0.67345 0.97089 0.69657 0.0
C2513 C 0.69558 0.95521 0.69832 0.0
C2514 C 0.59289 1.00571 0.69038 0.0
C2515 C 0.60233 0.03188 0.68365 0.0
C2516 C 0.6128 0.98718 0.6916 0.0
C2517 C 0.64296 0.99443 0.68617 0.0
C2518 C 0.65174 0.0199 0.67928 0.0
C2519 C 0.63169 0.0383 0.67803 0.0
H2520 H 0.26879 0.92694 0.20341 0.0
H2521 H 0.25694 0.96818 0.17851 0.0
H2522 H 0.33466 0.95354 0.20087 0.0
H2523 H 0.32361 0.99767 0.17616 0.0
H2524 H 0.44312 0.02957 0.17125 0.0
H2525 H 0.37604 0.99561 0.17297 0.0
H2526 H 0.38966 1.00648 0.20106 0.0
H2527 H 0.45619 0.03778 0.19927 0.0
C2528 C 0.28048 0.94203 0.1974 0.0
C2529 C 0.25777 0.94555 0.19117 0.0
C2530 C 0.31853 0.95779 0.19596 0.0
C2531 C 0.33532 0.97863 0.18835 0.0
C2532 C 0.31217 0.98158 0.18205 0.0
C2533 C 0.27382 0.96487 0.1834 0.0
C2534 C 0.43161 0.02422 0.17779 0.0
C2535 C 0.45505 0.03614 0.18512 0.0
C2536 C 0.39298 1.005 0.1788 0.0
C2537 C 0.37668 0.99793 0.18718 0.0
C2538 C 0.4005 1.01016 0.19449 0.0
C2539 C 0.43898 0.0285 0.19347 0.0
H2540 H 0.99017 0.41268 0.17087 0.0
H2541 H 1.00637 0.43925 0.1984 0.0
H2542 H 0.02024 0.37548 0.17253 0.0
H2543 H 0.03607 0.40208 0.20002 0.0
H2544 H 0.04034 0.29441 0.20163 0.0
H2545 H 1.01364 0.33393 0.19919 0.0
H2546 H 0.0827 0.38078 0.17642 0.0
H2547 H 0.10995 0.34128 0.17895 0.0
C2548 C 1.00037 0.41091 0.17725 0.0
C2549 C 0.99566 0.42901 0.1845 0.0
C2550 C 0.01773 0.38966 0.17819 0.0
C2551 C 0.03029 0.38553 0.18642 0.0
C2552 C 0.0263 0.40428 0.19361 0.0
C2553 C 1.00945 0.42585 0.19265 0.0
C2554 C 0.04986 0.31307 0.19609 0.0
C2555 C 0.07738 0.31474 0.1905 0.0
C2556 C 0.03467 0.33589 0.19472 0.0
C2557 C 0.04621 0.36076 0.18765 0.0
C2558 C 0.07312 0.36185 0.18191 0.0
C2559 C 0.08877 0.33929 0.18337 0.0
H2560 H 0.57273 0.5801 0.19523 0.0
H2561 H 0.63975 0.59082 0.1727 0.0
H2562 H 0.60721 0.64683 0.19726 0.0
H2563 H 0.67528 0.65764 0.17492 0.0
H2564 H 0.71565 0.78146 0.1774 0.0
H2565 H 0.6767 0.71528 0.1744 0.0
H2566 H 0.66539 0.69328 0.20219 0.0
H2567 H 0.70288 0.75928 0.20509 0.0
C2568 C 0.59486 0.59669 0.1907 0.0
C2569 C 0.60348 0.57993 0.18382 0.0
C2570 C 0.61491 0.63508 0.1919 0.0
C2571 C 0.64451 0.6579 0.18633 0.0
C2572 C 0.65251 0.6412 0.1793 0.0
C2573 C 0.63218 0.60274 0.17805 0.0
C2574 C 0.70447 0.76241 0.18284 0.0
C2575 C 0.71205 0.77558 0.19148 0.0
C2576 C 0.68239 0.72439 0.18114 0.0
C2577 C 0.66757 0.69863 0.18804 0.0
C2578 C 0.67548 0.71209 0.19668 0.0
C2579 C 0.69728 0.75002 0.19836 0.0
H2580 H 0.30093 0.91552 0.02276 0.0
H2581 H 0.2569 0.92892 0.99844 0.0
H2582 H 0.33071 0.98217 0.02537 0.0
H2583 H 0.28369 0.99462 1.00127 0.0
H2584 H 0.36768 0.11615 1.0028 0.0
H2585 H 0.33615 0.04963 1.00088 0.0
H2586 H 0.3306 0.03522 0.02896 0.0
H2587 H 0.36479 0.10232 0.03078 0.0
C2588 C 0.29699 0.9327 0.01807 0.0
C2589 C 0.27685 0.91709 1.01037 0.0
C2590 C 0.31392 0.97107 0.01957 0.0
C2591 C 0.31039 0.99468 1.01349 0.0
C2592 C 0.28854 0.97824 1.006 0.0
C2593 C 0.2726 0.94023 1.0044 0.0
C2594 C 0.35951 0.09877 1.00857 0.0
C2595 C 0.36869 0.11469 1.01694 0.0
C2596 C 0.34101 0.06026 1.00749 0.0
C2597 C 0.33011 0.03615 1.01475 0.0
C2598 C 0.33884 0.05231 0.02316 0.0
C2599 C 0.35823 0.09098 0.02423 0.0
H2600 H 0.11234 0.37263 0.02452 0.0
H2601 H 0.09262 0.36416 0.99673 0.0
H2602 H 0.04593 0.33296 0.02713 0.0
H2603 H 0.02645 0.32583 0.99926 0.0
H2604 H 0.91184 0.23249 1.00548 0.0
H2605 H 0.97883 0.26695 1.00367 0.0
H2606 H 0.98876 0.33212 0.02653 0.0
H2607 H 0.922 0.29683 0.0285 0.0
C2608 C 0.0938 0.36229 0.01897 0.0
C2609 C 0.10774 0.37139 1.01042 0.0
C2610 C 0.05564 0.33973 0.02045 0.0
C2611 C 0.03047 0.32589 1.01341 0.0
C2612 C 0.04474 0.33517 1.00486 0.0
C2613 C 0.08278 0.35748 1.0034 0.0
C2614 C 0.92833 0.25394 1.01017 0.0
C2615 C 0.91134 0.26184 1.01712 0.0
C2616 C 0.96686 0.27399 1.00909 0.0
C2617 C 0.98954 0.30274 1.0149 0.0
C2618 C 0.97251 0.31 0.02197 0.0
C2619 C 0.93402 0.28979 0.02308 0.0
H2620 H 0.72804 0.63081 0.02865 0.0
H2621 H 0.79402 0.68657 1.00594 0.0
H2622 H 0.69226 0.66175 0.02648 0.0
H2623 H 0.75911 0.71838 1.00394 0.0
H2624 H 0.66243 0.73417 0.99635 0.0
H2625 H 0.7004 0.70616 0.99918 0.0
H2626 H 0.6908 0.71808 0.02697 0.0
H2627 H 0.65151 0.74501 0.02407 0.0
C2628 C 0.73534 0.65009 0.02327 0.0
C2629 C 0.7639 0.65593 1.01745 0.0
C2630 C 0.71484 0.66802 0.02204 0.0
C2631 C 0.72241 0.69249 1.01498 0.0
C2632 C 0.75178 0.69917 1.00933 0.0
C2633 C 0.77208 0.68106 1.01052 0.0
C2634 C 0.66849 0.73087 1.00307 0.0
C2635 C 0.65405 0.7419 1.00998 0.0
C2636 C 0.69057 0.71503 1.0047 0.0
C2637 C 0.6991 0.70995 1.01332 0.0
C2638 C 0.68463 0.72113 0.02025 0.0
C2639 C 0.6623 0.73684 0.0186 0.0
H2640 H 0.76619 0.0946 0.83087 0.0
H2641 H 0.7787 0.06272 0.85689 0.0
H2642 H 0.70005 0.0674 0.8332 0.0
H2643 H 0.71189 0.03305 0.85911 0.0
H2644 H 0.59226 1.00311 0.86323 0.0
H2645 H 0.6593 0.03701 0.86145 0.0
H2646 H 0.64569 0.01259 0.83377 0.0
H2647 H 0.57906 0.98084 0.83552 0.0
C2648 C 0.75463 0.08152 0.8371 0.0
C2649 C 0.7776 0.08074 0.84369 0.0
C2650 C 0.71648 0.06546 0.83842 0.0
C2651 C 0.6999 0.04727 0.84632 0.0
C2652 C 0.72325 0.04708 0.85298 0.0
C2653 C 0.76166 0.06391 0.8517 0.0
C2654 C 0.60368 1.00536 0.85675 0.0
C2655 C 0.58016 0.9894 0.84952 0.0
C2656 C 0.64229 0.02458 0.85573 0.0
C2657 C 0.65855 0.02783 0.84745 0.0
C2658 C 0.63475 1.01175 0.84023 0.0
C2659 C 0.59624 0.99319 0.84123 0.0
H2660 H 0.92046 0.68245 0.85612 0.0
H2661 H 0.99437 0.73289 0.83427 0.0
H2662 H 0.94696 0.64229 0.85863 0.0
H2663 H 0.02053 0.69296 0.83672 0.0
H2664 H 0.03106 0.59001 0.83716 0.0
H2665 H 1.00067 0.62645 0.83536 0.0
H2666 H 1.00684 0.64567 0.86318 0.0
H2667 H 0.03734 0.60903 0.86503 0.0
C2668 C 0.94241 0.68507 0.85188 0.0
C2669 C 0.95524 0.71082 0.84499 0.0
C2670 C 0.95764 0.66212 0.85333 0.0
C2671 C 0.98567 0.66412 0.84783 0.0
C2672 C 0.99859 0.69018 0.841 0.0
C2673 C 0.98372 0.71328 0.83962 0.0
C2674 C 0.02569 0.60162 0.84293 0.0
C2675 C 0.03694 0.5966 0.85124 0.0
C2676 C 1.00844 0.62279 0.84188 0.0
C2677 C 1.00161 0.63935 0.84911 0.0
C2678 C 1.01154 0.63322 0.85747 0.0
C2679 C 0.02917 0.61228 0.85852 0.0
H2680 H 0.35514 0.26138 0.8309 0.0
H2681 H 0.30439 0.24607 0.85624 0.0
H2682 H 0.39353 0.32722 0.8337 0.0
H2683 H 0.34116 0.31278 0.85893 0.0
H2684 H 0.42976 0.43331 0.86375 0.0
H2685 H 0.39723 0.36616 0.86186 0.0
H2686 H 0.3912 0.38062 0.83403 0.0
H2687 H 0.42528 0.44712 0.8359 0.0
C2688 C 0.35214 0.27226 0.83708 0.0
C2689 C 0.3267 0.24861 0.84333 0.0
C2690 C 0.37393 0.31025 0.83867 0.0
C2691 C 0.37026 0.32604 0.84649 0.0
C2692 C 0.34527 0.30199 0.85286 0.0
C2693 C 0.32397 0.26367 0.85132 0.0
C2694 C 0.42178 0.42203 0.85722 0.0
C2695 C 0.4305 0.44576 0.84998 0.0
C2696 C 0.40277 0.38338 0.85613 0.0
C2697 C 0.39144 0.36736 0.84777 0.0
C2698 C 0.40013 0.39138 0.84056 0.0
C2699 C 0.41963 0.42985 0.84163 0.0
H2700 H 0.65918 0.91638 1.00341 0.0
H2701 H 0.67203 0.90623 0.03112 0.0
H2702 H 0.69411 0.98356 1.00472 0.0
H2703 H 0.70607 0.97338 0.03247 0.0
H2704 H 0.79109 0.09642 0.03126 0.0
H2705 H 0.7621 0.02945 0.02926 0.0
H2706 H 0.68727 0.03302 1.01029 0.0
H2707 H 0.71696 0.09988 1.01213 0.0
C2708 C 0.66948 0.92839 1.00979 0.0
C2709 C 0.66256 0.90564 1.01715 0.0
C2710 C 0.68937 0.96707 1.01055 0.0
C2711 C 0.70284 0.9842 0.01871 0.0
C2712 C 0.69661 0.9614 0.02605 0.0
C2713 C 0.67683 0.92271 0.02528 0.0
C2714 C 0.76862 0.08286 0.02662 0.0
C2715 C 0.75627 0.10345 0.02187 0.0
C2716 C 0.75178 0.04438 0.02551 0.0
C2717 C 0.72211 0.02551 0.01963 0.0
C2718 C 0.71029 0.04642 1.01478 0.0
C2719 C 0.72718 0.08483 1.01588 0.0
H2720 H 0.93889 0.66386 0.03835 0.0
H2721 H 0.91626 0.64977 1.01069 0.0
H2722 H 1.00476 0.70102 0.03538 0.0
H2723 H 0.98246 0.68844 1.00762 0.0
H2724 H 0.10675 0.72434 1.00593 0.0
H2725 H 0.04 0.68975 1.00814 0.0
H2726 H 0.05192 0.75863 0.0304 0.0
H2727 H 0.11864 0.79228 0.02836 0.0
C2728 C 0.94802 0.66912 0.0316 0.0
C2729 C 0.92228 0.65402 0.02475 0.0
C2730 C 0.98593 0.69077 0.02989 0.0
C2731 C 0.99935 0.69824 0.02124 0.0
C2732 C 0.97343 0.68315 1.01437 0.0
C2733 C 0.93537 0.66123 1.01611 0.0
C2734 C 0.09514 0.73235 1.01126 0.0
C2735 C 0.11835 0.76108 1.017 0.0
C2736 C 0.05666 0.71251 1.01251 0.0
C2737 C 0.04019 0.72096 0.01951 0.0
C2738 C 0.0634 0.75057 0.02506 0.0
C2739 C 0.10184 0.77017 0.02385 0.0
H2740 H 0.27747 0.36684 1.00392 0.0
H2741 H 0.25447 0.35289 0.03162 0.0
H2742 H 0.30999 0.33213 1.00509 0.0
H2743 H 0.28786 0.31921 0.03284 0.0
H2744 H 0.40253 0.30692 1.0124 0.0
H2745 H 0.36573 0.33707 1.01044 0.0
H2746 H 0.28749 0.2636 0.02965 0.0
H2747 H 0.32502 0.23444 0.03177 0.0
C2748 C 0.27924 0.35635 1.01027 0.0
C2749 C 0.2632 0.3628 0.01767 0.0
C2750 C 0.29822 0.3366 1.01095 0.0
C2751 C 0.30187 0.3228 0.01907 0.0
C2752 C 0.28529 0.32879 0.02644 0.0
C2753 C 0.2662 0.34838 0.02575 0.0
C2754 C 0.37735 0.29711 1.01616 0.0
C2755 C 0.36686 0.26846 0.02229 0.0
C2756 C 0.35604 0.31427 1.01501 0.0
C2757 C 0.32356 0.3031 0.01992 0.0
C2758 C 0.31263 0.27361 0.02586 0.0
C2759 C 0.33402 0.25661 0.02704 0.0
H2760 H 0.10873 0.37223 0.50301 0.0
H2761 H 0.11765 0.35119 0.53029 0.0
H2762 H 0.04142 0.33761 0.50421 0.0
H2763 H 0.05073 0.31773 0.53156 0.0
H2764 H 0.92469 0.31245 0.51233 0.0
H2765 H 0.99144 0.34224 0.51026 0.0
H2766 H 0.99512 0.26315 0.52788 0.0
H2767 H 0.92843 0.23422 0.53014 0.0
C2768 C 0.09643 0.36021 0.50926 0.0
C2769 C 0.11886 0.36463 0.51654 0.0
C2770 C 0.05771 0.34052 0.50997 0.0
C2771 C 0.04031 0.3248 0.51799 0.0
C2772 C 0.06285 0.32881 0.52523 0.0
C2773 C 0.10146 0.34831 0.52451 0.0
C2774 C 0.93977 0.30136 0.51573 0.0
C2775 C 0.92131 0.27114 0.52145 0.0
C2776 C 0.97811 0.31829 0.5145 0.0
C2777 C 0.99903 0.30535 0.51892 0.0
C2778 C 0.98023 0.27443 0.52448 0.0
C2779 C 0.94189 0.25762 0.52574 0.0
H2780 H 0.66041 0.76107 0.53146 0.0
H2781 H 0.66869 0.75687 0.50341 0.0
H2782 H 0.69243 0.72661 0.53318 0.0
H2783 H 0.70315 0.7241 0.50509 0.0
H2784 H 0.73142 0.63233 0.51114 0.0
H2785 H 0.70162 0.66921 0.50849 0.0
H2786 H 0.7472 0.72771 0.53278 0.0
H2787 H 0.77423 0.68906 0.53561 0.0
C2788 C 0.66981 0.75344 0.52563 0.0
C2789 C 0.6621 0.76201 0.5173 0.0
C2790 C 0.68857 0.73374 0.52661 0.0
C2791 C 0.70111 0.7226 0.51929 0.0
C2792 C 0.69368 0.73157 0.51092 0.0
C2793 C 0.67413 0.7507 0.50994 0.0
C2794 C 0.73507 0.65327 0.51586 0.0
C2795 C 0.7548 0.65761 0.52362 0.0
C2796 C 0.71813 0.67464 0.51434 0.0
C2797 C 0.72122 0.70137 0.52048 0.0
C2798 C 0.74278 0.70672 0.52801 0.0
C2799 C 0.75879 0.6848 0.52961 0.0
H2800 H 0.29995 0.92005 0.50661 0.0
H2801 H 0.23988 0.90845 0.53048 0.0
H2802 H 0.33465 0.98686 0.50861 0.0
H2803 H 0.27344 0.97538 0.53232 0.0
H2804 H 0.36856 0.09036 0.5388 0.0
H2805 H 0.33147 0.02404 0.5363 0.0
H2806 H 0.33528 0.04354 0.50845 0.0
H2807 H 0.37399 0.11008 0.51103 0.0
C2808 C 0.29367 0.93176 0.51223 0.0
C2809 C 0.26715 0.90865 0.51841 0.0
C2810 C 0.31354 0.97029 0.51336 0.0
C2811 C 0.30725 0.98695 0.52067 0.0
C2812 C 0.27985 0.96379 0.5267 0.0
C2813 C 0.26028 0.92525 0.52562 0.0
C2814 C 0.36141 0.08047 0.53214 0.0
C2815 C 0.37416 0.10548 0.52512 0.0
C2816 C 0.33979 0.04232 0.53069 0.0
C2817 C 0.32991 0.02798 0.52216 0.0
C2818 C 0.34257 0.05323 0.51512 0.0
C2819 C 0.36456 0.09148 0.51658 0.0
H2820 H 0.03696 0.44807 0.33677 0.0
H2821 H 0.03318 0.4341 0.36475 0.0
H2822 H 1.00533 0.38155 0.33483 0.0
H2823 H 0.99893 0.36702 0.36291 0.0
H2824 H 0.97112 0.24825 0.35669 0.0
H2825 H 1.00073 0.31483 0.35923 0.0
H2826 H 0.95231 0.32655 0.33528 0.0
H2827 H 0.92553 0.26072 0.33251 0.0
C2828 C 0.02857 0.43065 0.34253 0.0
C2829 C 0.03752 0.44644 0.35091 0.0
C2830 C 1.01005 0.3922 0.34143 0.0
C2831 C 0.99898 0.36815 0.3487 0.0
C2832 C 1.0074 0.38417 0.35711 0.0
C2833 C 0.0268 0.42278 0.3582 0.0
C2834 C 0.96686 0.26525 0.35201 0.0
C2835 C 0.94629 0.24942 0.34438 0.0
C2836 C 0.98365 0.30353 0.35348 0.0
C2837 C 0.97953 0.32683 0.34743 0.0
C2838 C 0.95744 0.31027 0.33998 0.0
C2839 C 0.94159 0.27227 0.33842 0.0
H2840 H 0.78324 0.68519 0.35606 0.0
H2841 H 0.7608 0.7309 0.33312 0.0
H2842 H 0.71646 0.64595 0.3586 0.0
H2843 H 0.69455 0.69171 0.33558 0.0
H2844 H 0.5817 0.58686 0.33657 0.0
H2845 H 0.64856 0.62382 0.33493 0.0
H2846 H 0.65949 0.6514 0.36236 0.0
H2847 H 0.59222 0.61437 0.36404 0.0
C2848 C 0.7641 0.68696 0.35159 0.0
C2849 C 0.77734 0.71108 0.34438 0.0
C2850 C 0.72588 0.66457 0.35305 0.0
C2851 C 0.70013 0.66544 0.34725 0.0
C2852 C 0.71355 0.68991 0.3401 0.0
C2853 C 0.75158 0.71255 0.33872 0.0
C2854 C 0.5982 0.60045 0.34229 0.0
C2855 C 0.58131 0.59759 0.35044 0.0
C2856 C 0.63663 0.6219 0.34133 0.0
C2857 C 0.65941 0.64084 0.34849 0.0
C2858 C 0.64276 0.63706 0.35671 0.0
C2859 C 0.60416 0.61591 0.35767 0.0
H2860 H 0.3305 0.06732 0.33016 0.0
H2861 H 0.32423 0.08184 0.35789 0.0
H2862 H 0.36803 0.03879 0.3328 0.0
H2863 H 0.36337 0.05455 0.3606 0.0
H2864 H 0.4004 0.96726 0.36247 0.0
H2865 H 0.36515 0.99886 0.3605 0.0
H2866 H 0.4264 0.04944 0.33685 0.0
H2867 H 0.4605 0.01668 0.33866 0.0
C2868 C 0.33753 0.06476 0.33684 0.0
C2869 C 0.32445 0.07696 0.34382 0.0
C2870 C 0.35942 0.04862 0.33837 0.0
C2871 C 0.36928 0.04445 0.34692 0.0
C2872 C 0.35618 0.05682 0.35392 0.0
C2873 C 0.33393 0.07276 0.35238 0.0
C2874 C 0.40657 0.98535 0.35688 0.0
C2875 C 0.43324 0.98914 0.3507 0.0
C2876 C 0.38638 1.00369 0.35576 0.0
C2877 C 0.39245 0.02664 0.34846 0.0
C2878 C 0.4201 0.03138 0.34245 0.0
C2879 C 0.43999 0.01276 0.34352 0.0
H2880 H 0.10876 0.33255 0.07838 0.0
H2881 H 0.22621 0.37439 0.0807 0.0
H2882 H 0.10104 0.31759 0.09388 0.0
H2883 H 0.21861 0.36057 0.09635 0.0
H2884 H 0.1841 0.29841 0.1228 0.0
H2885 H 0.19225 0.30973 0.10704 0.0
H2886 H 0.1155 0.35059 0.10759 0.0
H2887 H 0.10644 0.33818 0.12319 0.0
C2888 C 0.13295 0.33827 0.08217 0.0
C2889 C 0.16813 0.35464 0.07825 0.0
C2890 C 0.12857 0.33012 0.09111 0.0
C2891 C 0.15922 0.33812 0.09641 0.0
C2892 C 0.19435 0.35382 0.09247 0.0
C2893 C 0.19876 0.36209 0.08351 0.0
C2894 C 0.16875 0.30953 0.11954 0.0
C2895 C 0.14467 0.31744 0.12429 0.0
C2896 C 0.17371 0.31637 0.11052 0.0
C2897 C 0.15448 0.33101 0.10602 0.0
C2898 C 0.13042 0.33887 0.11079 0.0
C2899 C 0.12558 0.33217 0.11978 0.0
H2900 H 0.69205 0.78895 0.07801 0.0
H2901 H 0.63884 0.85473 0.07997 0.0
H2902 H 0.70635 0.79778 0.09353 0.0
H2903 H 0.65208 0.86248 0.09564 0.0
H2904 H 0.71564 0.89729 0.12204 0.0
H2905 H 0.7029 0.89195 0.10633 0.0
H2906 H 0.67327 0.77689 0.10722 0.0
H2907 H 0.6871 0.78251 0.12277 0.0
C2908 C 0.68365 0.8056 0.08173 0.0
C2909 C 0.66434 0.82119 0.07769 0.0
C2910 C 0.69143 0.81024 0.09067 0.0
C2911 C 0.68011 0.83059 0.09587 0.0
C2912 C 0.66139 0.84681 0.09183 0.0
C2913 C 0.65349 0.84207 0.08286 0.0
C2914 C 0.70655 0.87091 0.11886 0.0
C2915 C 0.70237 0.84033 0.12369 0.0
C2916 C 0.69893 0.86776 0.10987 0.0
C2917 C 0.68722 0.83403 0.10549 0.0
C2918 C 0.68271 0.80343 0.11035 0.0
C2919 C 0.69018 0.80653 0.11931 0.0
H2920 H 0.12975 0.84458 0.12061 0.0
H2921 H 0.24695 0.88729 0.12403 0.0
H2922 H 0.13573 0.83518 0.10508 0.0
H2923 H 0.25275 0.87753 0.10856 0.0
H2924 H 0.24613 0.82712 0.08186 0.0
H2925 H 0.23595 0.82965 0.09748 0.0
H2926 H 0.1632 0.87277 0.09195 0.0
H2927 H 0.17252 0.86919 0.07631 0.0
C2928 C 0.15679 0.85198 0.11807 0.0
C2929 C 0.18785 0.86673 0.12362 0.0
C2930 C 0.1602 0.84657 0.10915 0.0
C2931 C 0.19473 0.85562 0.10555 0.0
C2932 C 0.22562 0.86969 0.11113 0.0
C2933 C 0.22225 0.87523 0.12002 0.0
C2934 C 0.22748 0.83657 0.08396 0.0
C2935 C 0.21021 0.84801 0.07781 0.0
C2936 C 0.22197 0.83842 0.09293 0.0
C2937 C 0.19891 0.8516 0.09599 0.0
C2938 C 0.18091 0.86219 0.08983 0.0
C2939 C 0.18656 0.86051 0.08086 0.0
H2940 H 0.42271 0.22565 0.45391 0.0
H2941 H 0.31049 0.1373 0.45805 0.0
H2942 H 0.41033 0.22482 0.43832 0.0
H2943 H 0.29874 0.13506 0.44244 0.0
H2944 H 0.27784 0.15358 0.41459 0.0
H2945 H 0.29036 0.16501 0.43017 0.0
H2946 H 0.4018 0.18669 0.42599 0.0
H2947 H 0.38992 0.1773 0.41037 0.0
C2948 C 0.39527 0.20628 0.45153 0.0
C2949 C 0.3677 0.18139 0.45728 0.0
C2950 C 0.3883 0.20545 0.44255 0.0
C2951 C 0.3536 0.17964 0.43906 0.0
C2952 C 0.3257 0.15557 0.44485 0.0
C2953 C 0.33261 0.15651 0.45383 0.0
C2954 C 0.30529 0.16161 0.41696 0.0
C2955 C 0.33277 0.16427 0.41119 0.0
C2956 C 0.31233 0.16767 0.42593 0.0
C2957 C 0.34701 0.17644 0.4294 0.0
C2958 C 0.37485 0.1803 0.42359 0.0
C2959 C 0.36786 0.17441 0.41462 0.0
H2960 H 0.85895 0.22379 0.4102 0.0
H2961 H 0.86897 0.12689 0.41459 0.0
H2962 H 0.8477 0.22631 0.42572 0.0
H2963 H 0.8559 0.12835 0.43006 0.0
H2964 H 0.882 0.17346 0.45828 0.0
H2965 H 0.88657 0.16485 0.44268 0.0
H2966 H 0.80517 0.19751 0.43753 0.0
H2967 H 0.80195 0.20785 0.4531 0.0
C2968 C 0.85845 0.2028 0.41446 0.0
C2969 C 0.86519 0.17531 0.41111 0.0
C2970 C 0.85151 0.20398 0.42337 0.0
C2971 C 0.851 0.17762 0.4292 0.0
C2972 C 0.85659 0.14943 0.42581 0.0
C2973 C 0.8636 0.1483 0.41689 0.0
C2974 C 0.8651 0.17888 0.45382 0.0
C2975 C 0.84181 0.19163 0.45698 0.0
C2976 C 0.86738 0.17349 0.44486 0.0
C2977 C 0.84636 0.18062 0.4388 0.0
C2978 C 0.82218 0.19224 0.44198 0.0
C2979 C 0.81995 0.19769 0.45094 0.0
H2980 H 0.86118 0.66706 0.40957 0.0
H2981 H 0.82894 0.74878 0.41471 0.0
H2982 H 0.8555 0.65187 0.4251 0.0
H2983 H 0.82318 0.73356 0.43022 0.0
H2984 H 0.84452 0.71903 0.45867 0.0
H2985 H 0.857 0.73686 0.44332 0.0
H2986 H 0.80802 0.62176 0.43603 0.0
H2987 H 0.79687 0.60409 0.45138 0.0
C2988 C 0.85279 0.68174 0.414 0.0
C2989 C 0.84546 0.70912 0.41086 0.0
C2990 C 0.8495 0.67301 0.42292 0.0
C2991 C 0.83876 0.69138 0.42895 0.0
C2992 C 0.83207 0.71921 0.42581 0.0
C2993 C 0.83538 0.72796 0.4169 0.0
C2994 C 0.83696 0.69755 0.45381 0.0
C2995 C 0.81956 0.66007 0.45629 0.0
C2996 C 0.84372 0.70776 0.44498 0.0
C2997 C 0.83336 0.68078 0.43839 0.0
C2998 C 0.81671 0.64337 0.4409 0.0
C2999 C 0.80991 0.63317 0.44972 0.0
H3000 H 0.92195 0.67694 0.91158 0.0
H3001 H 0.8498 0.7231 0.91324 0.0
H3002 H 0.91434 0.66376 0.92716 0.0
H3003 H 0.84314 0.71096 0.92898 0.0
H3004 H 0.81068 0.64683 0.95532 0.0
H3005 H 0.81601 0.65968 0.93962 0.0
H3006 H 0.93286 0.69718 0.94086 0.0
H3007 H 0.92734 0.68323 0.95641 0.0
C3008 C 0.90428 0.68413 0.91526 0.0
C3009 C 0.88637 0.70096 0.91112 0.0
C3010 C 0.90028 0.67698 0.92424 0.0
C3011 C 0.87828 0.68646 0.92935 0.0
C3012 C 0.86009 0.70305 0.92522 0.0
C3013 C 0.8642 0.71035 0.91622 0.0
C3014 C 0.83745 0.65763 0.95223 0.0
C3015 C 0.86857 0.664 0.95715 0.0
C3016 C 0.84058 0.66535 0.94324 0.0
C3017 C 0.87485 0.67936 0.93896 0.0
C3018 C 0.90595 0.68598 0.94391 0.0
C3019 C 0.90286 0.67841 0.95287 0.0
H3020 H 0.30598 0.13335 0.91304 0.0
H3021 H 0.35826 0.25238 0.91111 0.0
H3022 H 0.31834 0.13884 0.92875 0.0
H3023 H 0.3719 0.25788 0.92666 0.0
H3024 H 0.35249 0.25383 0.95587 0.0
H3025 H 0.33916 0.24582 0.94031 0.0
H3026 H 0.36818 0.15996 0.93951 0.0
H3027 H 0.38017 0.167 0.95524 0.0
C3028 C 0.32021 0.16068 0.91595 0.0
C3029 C 0.33107 0.1924 0.91078 0.0
C3030 C 0.32764 0.16384 0.92494 0.0
C3031 C 0.34598 0.1988 0.929 0.0
C3032 C 0.35726 0.23048 0.9238 0.0
C3033 C 0.34987 0.22733 0.91483 0.0
C3034 C 0.35552 0.23282 0.95243 0.0
C3035 C 0.36728 0.21096 0.95685 0.0
C3036 C 0.34836 0.22859 0.94345 0.0
C3037 C 0.35283 0.20242 0.93862 0.0
C3038 C 0.36421 0.18022 0.94304 0.0
C3039 C 0.37144 0.18451 0.95204 0.0
H3040 H 0.8821 0.12808 0.91558 0.0
H3041 H 0.83671 0.19903 0.91016 0.0
H3042 H 0.88041 0.13875 0.9312 0.0
H3043 H 0.83399 0.20881 0.92581 0.0
H3044 H 0.8609 0.24209 0.95441 0.0
H3045 H 0.87171 0.23704 0.93892 0.0
H3046 H 0.83206 0.12033 0.94226 0.0
H3047 H 0.82089 0.1252 0.95767 0.0
C3048 C 0.87219 0.14634 0.91771 0.0
C3049 C 0.85946 0.16263 0.9116 0.0
C3050 C 0.87083 0.15211 0.92668 0.0
C3051 C 0.85685 0.17445 0.92977 0.0
C3052 C 0.84519 0.19168 0.92366 0.0
C3053 C 0.8464 0.18577 0.91469 0.0
C3054 C 0.85449 0.21534 0.95185 0.0
C3055 C 0.83993 0.18405 0.95732 0.0
C3056 C 0.86071 0.21247 0.94296 0.0
C3057 C 0.85267 0.17827 0.93933 0.0
C3058 C 0.83908 0.14722 0.94485 0.0
C3059 C 0.83274 0.15005 0.95372 0.0
H3060 H 0.60437 0.83207 0.58202 0.0
H3061 H 0.72061 0.87859 0.57633 0.0
H3062 H 0.61769 0.83604 0.59763 0.0
H3063 H 0.73406 0.8837 0.59195 0.0
H3064 H 0.74126 0.85736 0.62072 0.0
H3065 H 0.72635 0.8477 0.60517 0.0
H3066 H 0.64695 0.8842 0.60863 0.0
H3067 H 0.66198 0.89412 0.62412 0.0
C3068 C 0.63274 0.84284 0.58408 0.0
C3069 C 0.66141 0.85507 0.57789 0.0
C3070 C 0.64044 0.84553 0.59305 0.0
C3071 C 0.67699 0.86041 0.59607 0.0
C3072 C 0.70556 0.87184 0.58987 0.0
C3073 C 0.69788 0.86927 0.58091 0.0
C3074 C 0.72074 0.86349 0.61816 0.0
C3075 C 0.70283 0.8765 0.62372 0.0
C3076 C 0.71216 0.85792 0.60924 0.0
C3077 C 0.6854 0.86512 0.60563 0.0
C3078 C 0.66724 0.87774 0.6112 0.0
C3079 C 0.67586 0.8834 0.62011 0.0
H3080 H 0.13751 0.84249 0.57707 0.0
H3081 H 0.22692 0.82037 0.58132 0.0
H3082 H 0.13431 0.85107 0.59272 0.0
H3083 H 0.22496 0.83079 0.59693 0.0
H3084 H 0.17468 0.79962 0.62457 0.0
H3085 H 0.18495 0.79863 0.60894 0.0
H3086 H 0.16406 0.88921 0.60521 0.0
H3087 H 0.15205 0.88901 0.62082 0.0
C3088 C 0.15676 0.83982 0.58133 0.0
C3089 C 0.18223 0.83036 0.57791 0.0
C3090 C 0.15523 0.84521 0.59031 0.0
C3091 C 0.17922 0.84141 0.59613 0.0
C3092 C 0.20566 0.83338 0.59267 0.0
C3093 C 0.20712 0.82789 0.58369 0.0
C3094 C 0.17217 0.81929 0.62042 0.0
C3095 C 0.16219 0.84416 0.62397 0.0
C3096 C 0.17855 0.81905 0.61145 0.0
C3097 C 0.17525 0.84378 0.60577 0.0
C3098 C 0.16638 0.86944 0.60936 0.0
C3099 C 0.15994 0.86963 0.61834 0.0
H3100 H 0.25684 0.35044 0.57844 0.0
H3101 H 0.18375 0.39568 0.57927 0.0
H3102 H 0.24858 0.33851 0.59406 0.0
H3103 H 0.17646 0.38484 0.59505 0.0
H3104 H 0.14216 0.32055 0.62147 0.0
H3105 H 0.14894 0.33416 0.60581 0.0
H3106 H 0.2658 0.37236 0.60769 0.0
H3107 H 0.25885 0.35757 0.62319 0.0
C3108 C 0.23885 0.35773 0.58195 0.0
C3109 C 0.22082 0.37387 0.57756 0.0
C3110 C 0.2345 0.35132 0.59095 0.0
C3111 C 0.21202 0.3609 0.59585 0.0
C3112 C 0.19379 0.3769 0.59147 0.0
C3113 C 0.19825 0.38344 0.58244 0.0
C3114 C 0.16928 0.33179 0.61853 0.0
C3115 C 0.19993 0.3379 0.62361 0.0
C3116 C 0.17323 0.33992 0.60957 0.0
C3117 C 0.20788 0.35416 0.60547 0.0
C3118 C 0.2386 0.36095 0.61059 0.0
C3119 C 0.23468 0.35291 0.61953 0.0
H3120 H 0.98266 0.53237 0.74694 0.0
H3121 H 0.02252 0.4549 0.74532 0.0
H3122 H 0.99529 0.53894 0.76264 0.0
H3123 H 0.03634 0.4625 0.76087 0.0
H3124 H 1.01519 0.44922 0.79006 0.0
H3125 H 1.00248 0.44509 0.77447 0.0
H3126 H 0.04546 0.56312 0.77349 0.0
H3127 H 0.05704 0.5671 0.78924 0.0
C3128 C 0.99428 0.51689 0.74991 0.0
C3129 C 1.00153 0.49308 0.74483 0.0
C3130 C 1.00185 0.52093 0.7589 0.0
C3131 C 1.01664 0.50108 0.76305 0.0
C3132 C 0.02446 0.47782 0.75793 0.0
C3133 C 1.017 0.47386 0.74897 0.0
C3134 C 0.02146 0.47428 0.78657 0.0
C3135 C 0.03703 0.50849 0.79095 0.0
C3136 C 1.01463 0.47197 0.77759 0.0
C3137 C 0.02319 0.50381 0.77269 0.0
C3138 C 0.03832 0.53801 0.77706 0.0
C3139 C 0.04528 0.54034 0.78608 0.0
H3140 H 0.54479 0.46594 0.7481 0.0
H3141 H 0.52058 0.55383 0.74357 0.0
H3142 H 0.53221 0.46682 0.76362 0.0
H3143 H 0.51 0.55612 0.75913 0.0
H3144 H 0.46885 0.53748 0.78687 0.0
H3145 H 0.47103 0.52616 0.77132 0.0
H3146 H 0.56094 0.50513 0.77597 0.0
H3147 H 0.55738 0.51442 0.79155 0.0
C3148 C 0.53642 0.48522 0.75038 0.0
C3149 C 0.53395 0.50996 0.74454 0.0
C3150 C 0.52969 0.48608 0.75933 0.0
C3151 C 0.5204 0.51178 0.7627 0.0
C3152 C 0.51676 0.5357 0.75681 0.0
C3153 C 0.52334 0.53473 0.74787 0.0
C3154 C 0.48855 0.52964 0.78462 0.0
C3155 C 0.51308 0.52712 0.79051 0.0
C3156 C 0.49015 0.52363 0.77565 0.0
C3157 C 0.5164 0.51503 0.77232 0.0
C3158 C 0.54012 0.51135 0.77826 0.0
C3159 C 0.53841 0.5172 0.78721 0.0
H3160 H 0.542 0.09237 0.74862 0.0
H3161 H 0.49537 0.97615 0.74278 0.0
H3162 H 0.53842 0.07875 0.76421 0.0
H3163 H 0.49072 0.9624 0.75839 0.0
H3164 H 0.5166 0.95422 0.78708 0.0
H3165 H 0.52711 0.97013 0.77159 0.0
H3166 H 0.48992 0.04897 0.77517 0.0
H3167 H 0.47911 0.03293 0.7906 0.0
C3168 C 0.53134 0.06394 0.75065 0.0
C3169 C 0.51892 0.03535 0.74443 0.0
C3170 C 0.52888 0.05608 0.75961 0.0
C3171 C 0.51407 0.01945 0.76258 0.0
C3172 C 0.50253 0.99096 0.75635 0.0
C3173 C 0.50485 0.9988 0.74739 0.0
C3174 C 0.51058 0.97489 0.78457 0.0
C3175 C 0.49698 0.99224 0.79013 0.0
C3176 C 0.51662 0.98402 0.77567 0.0
C3177 C 0.50935 1.01082 0.77212 0.0
C3178 C 0.4964 0.02864 0.77771 0.0
C3179 C 0.49025 0.01945 0.78658 0.0
H3180 H 0.51028 0.06768 0.24771 0.0
H3181 H 0.55058 0.9912 0.24423 0.0
H3182 H 0.50014 0.05184 0.26321 0.0
H3183 H 0.54008 0.97517 0.25966 0.0
H3184 H 0.49016 0.93214 0.28635 0.0
H3185 H 0.49206 0.94486 0.27075 0.0
H3186 H 0.53781 0.0612 0.2763 0.0
H3187 H 0.53486 0.04832 0.29193 0.0
C3188 C 0.51694 0.04746 0.25023 0.0
C3189 C 0.53132 0.0308 0.24468 0.0
C3190 C 0.5111 0.03838 0.25912 0.0
C3191 C 0.51935 0.01228 0.2627 0.0
C3192 C 0.53288 0.99497 0.25711 0.0
C3193 C 0.53884 1.00414 0.24824 0.0
C3194 C 0.49999 0.96035 0.28426 0.0
C3195 C 0.51242 0.98922 0.29041 0.0
C3196 C 0.50148 0.9677 0.2753 0.0
C3197 C 0.5153 1.00408 0.27225 0.0
C3198 C 0.52674 0.03282 0.27841 0.0
C3199 C 0.5254 0.02549 0.28737 0.0
H3200 H 0.09238 0.54629 0.28734 0.0
H3201 H 0.98021 0.52163 0.2919 0.0
H3202 H 0.07966 0.53635 0.27172 0.0
H3203 H 0.96803 0.51345 0.27626 0.0
H3204 H 0.94714 0.47479 0.24821 0.0
H3205 H 0.95989 0.47542 0.26378 0.0
H3206 H 0.07025 0.56752 0.25972 0.0
H3207 H 0.0581 0.56572 0.24412 0.0
C3208 C 0.06488 0.53838 0.28503 0.0
C3209 C 0.0374 0.53496 0.29091 0.0
C3210 C 0.05771 0.53315 0.27605 0.0
C3211 C 0.02288 0.52438 0.27268 0.0
C3212 C 0.99508 0.51986 0.27859 0.0
C3213 C 1.00222 0.52502 0.28757 0.0
C3214 C 0.97438 0.4947 0.2506 0.0
C3215 C 1.00151 0.52033 0.24488 0.0
C3216 C 0.98155 0.49538 0.25957 0.0
C3217 C 1.01603 0.5217 0.26305 0.0
C3218 C 0.04348 0.54662 0.25729 0.0
C3219 C 0.03634 0.5459 0.24833 0.0
H3220 H 0.52737 0.43869 0.24787 0.0
H3221 H 0.49749 0.5222 0.24276 0.0
H3222 H 0.52447 0.44753 0.26355 0.0
H3223 H 0.49343 0.53018 0.25844 0.0
H3224 H 0.52003 0.55778 0.28739 0.0
H3225 H 0.52992 0.5527 0.27184 0.0
H3226 H 0.47644 0.43384 0.27437 0.0
H3227 H 0.46627 0.43881 0.28985 0.0
C3228 C 0.52053 0.4592 0.25009 0.0
C3229 C 0.51254 0.47963 0.24404 0.0
C3230 C 0.51845 0.46397 0.25909 0.0
C3231 C 0.50848 0.48941 0.26227 0.0
C3232 C 0.50146 0.51055 0.25623 0.0
C3233 C 0.50341 0.50568 0.24723 0.0
C3234 C 0.51026 0.53054 0.28463 0.0
C3235 C 0.49234 0.49872 0.28991 0.0
C3236 C 0.51597 0.52764 0.27571 0.0
C3237 C 0.504 0.49286 0.27184 0.0
C3238 C 0.48659 0.46112 0.27715 0.0
C3239 C 0.48079 0.464 0.28605 0.0
H3240 H 1.01352 0.13365 0.29202 0.0
H3241 H 0.94179 0.1757 0.28446 0.0
H3242 H 0.04435 0.1519 0.27787 0.0
H3243 H 0.97351 0.19518 0.27041 0.0
H3244 H 1.01198 0.18864 0.24268 0.0
H3245 H 0.98079 0.17019 0.25678 0.0
H3246 H 0.08569 0.2058 0.26948 0.0
H3247 H 0.11665 0.22272 0.25535 0.0
C3248 C 1.00426 0.14676 0.28734 0.0
C3249 C 0.97504 0.15308 0.2894 0.0
C3250 C 0.02227 0.15765 0.27925 0.0
C3251 C 1.01154 0.17511 0.27297 0.0
C3252 C 0.98233 0.18148 0.27503 0.0
C3253 C 0.96439 0.17068 0.28314 0.0
C3254 C 0.0284 0.19223 0.24846 0.0
C3255 C 0.06693 0.20716 0.24782 0.0
C3256 C 1.01053 0.18205 0.25658 0.0
C3257 C 0.03064 0.18647 0.26431 0.0
C3258 C 0.06917 0.20156 0.26367 0.0
C3259 C 0.08704 0.21174 0.25556 0.0
H3260 H 0.92451 0.82382 0.28037 0.0
H3261 H 0.82719 0.8193 0.29148 0.0
H3262 H 0.91084 0.84181 0.26633 0.0
H3263 H 0.81331 0.83684 0.27738 0.0
H3264 H 0.78092 0.83299 0.24844 0.0
H3265 H 0.79395 0.81372 0.26244 0.0
H3266 H 0.90987 0.8942 0.25947 0.0
H3267 H 0.89701 0.91274 0.24538 0.0
C3268 C 0.90034 0.82692 0.27986 0.0
C3269 C 0.87709 0.8202 0.28713 0.0
C3270 C 0.89246 0.83721 0.27178 0.0
C3271 C 0.86101 0.8409 0.27071 0.0
C3272 C 0.83752 0.83381 0.27793 0.0
C3273 C 0.84548 0.82368 0.28603 0.0
C3274 C 0.80924 0.84636 0.25074 0.0
C3275 C 0.8379 0.87444 0.24576 0.0
C3276 C 0.81666 0.83557 0.25882 0.0
C3277 C 0.85297 0.85239 0.26211 0.0
C3278 C 0.88163 0.88037 0.25711 0.0
C3279 C 0.87419 0.89129 0.24906 0.0
H3280 H 0.24349 0.09876 0.28241 0.0
H3281 H 0.14581 1.00479 0.293 0.0
H3282 H 0.22882 0.06986 0.26801 0.0
H3283 H 0.13135 0.97557 0.27864 0.0
H3284 H 0.09511 0.95018 0.25018 0.0
H3285 H 0.11028 0.97959 0.26448 0.0
H3286 H 0.22629 0.02078 0.25953 0.0
H3287 H 0.21126 0.99304 0.24502 0.0
C3288 C 0.21908 0.07172 0.28169 0.0
C3289 C 0.19582 0.05419 0.28889 0.0
C3290 C 0.21066 0.05506 0.27341 0.0
C3291 C 0.17881 0.02027 0.2721 0.0
C3292 C 0.15573 1.00263 0.27933 0.0
C3293 C 0.16406 0.01939 0.28759 0.0
C3294 C 0.12393 0.9659 0.25207 0.0
C3295 C 0.1519 0.96922 0.24637 0.0
C3296 C 0.13262 0.98239 0.26036 0.0
C3297 C 0.16957 1.00261 0.26323 0.0
C3298 C 0.19755 1.00585 0.25754 0.0
C3299 C 0.18886 0.98945 0.24923 0.0
H3300 H 0.92106 0.81051 0.78055 0.0
H3301 H 0.02479 0.84074 0.79326 0.0
H3302 H 0.95231 0.82721 0.76645 0.0
H3303 H 0.05606 0.85773 0.77915 0.0
H3304 H 0.10558 0.9214 0.75361 0.0
H3305 H 0.07429 0.90405 0.76771 0.0
H3306 H 0.98272 0.8077 0.75593 0.0
H3307 H 1.01337 0.8258 0.74175 0.0
C3308 C 0.95047 0.82036 0.78035 0.0
C3309 C 0.9703 0.82419 0.78809 0.0
C3310 C 0.96842 0.82999 0.77224 0.0
C3311 C 1.00676 0.84384 0.77164 0.0
C3312 C 0.02662 0.84768 0.77937 0.0
C3313 C 1.00864 0.83795 0.78748 0.0
C3314 C 0.07862 0.89668 0.75399 0.0
C3315 C 0.06203 0.8751 0.7465 0.0
C3316 C 0.06085 0.88648 0.76212 0.0
C3317 C 0.02593 0.85444 0.76299 0.0
C3318 C 1.00939 0.83277 0.7555 0.0
C3319 C 0.0272 0.84293 0.74737 0.0
H3320 H 0.09507 0.15851 0.75014 0.0
H3321 H 0.21041 0.21227 0.74282 0.0
H3322 H 0.11024 0.14355 0.76438 0.0
H3323 H 0.22557 0.19771 0.75713 0.0
H3324 H 0.24181 0.19848 0.78704 0.0
H3325 H 0.22741 0.21351 0.77269 0.0
H3326 H 0.13167 0.10406 0.77095 0.0
H3327 H 0.14623 0.0888 0.78523 0.0
C3328 C 0.12364 0.1669 0.75152 0.0
C3329 C 0.15144 0.18657 0.74527 0.0
C3330 C 0.13235 0.15835 0.75971 0.0
C3331 C 0.16914 0.16936 0.76192 0.0
C3332 C 0.197 0.18922 0.75571 0.0
C3333 C 0.18827 0.19762 0.74749 0.0
C3334 C 0.21791 0.17743 0.78357 0.0
C3335 C 0.19518 0.1424 0.78735 0.0
C3336 C 0.20962 0.1861 0.77533 0.0
C3337 C 0.1783 0.16005 0.77066 0.0
C3338 C 0.15566 0.12502 0.77442 0.0
C3339 C 0.16402 0.11629 0.78263 0.0
H3340 H 0.90502 0.10545 0.78187 0.0
H3341 H 0.85721 0.99845 0.79436 0.0
H3342 H 0.88945 0.07553 0.76759 0.0
H3343 H 0.84151 0.9685 0.78009 0.0
H3344 H 0.85485 0.92953 0.75308 0.0
H3345 H 0.86956 0.95951 0.76733 0.0
H3346 H 0.83843 0.03789 0.75804 0.0
H3347 H 0.82534 1.00893 0.74365 0.0
C3348 C 0.89082 0.07551 0.78158 0.0
C3349 C 0.88245 0.05443 0.7893 0.0
C3350 C 0.88185 0.05831 0.77338 0.0
C3351 C 0.86422 0.01952 0.77264 0.0
C3352 C 0.85564 0.99843 0.78036 0.0
C3353 C 0.86465 0.01564 0.78857 0.0
C3354 C 0.85148 0.95339 0.75403 0.0
C3355 C 0.83901 0.96681 0.74716 0.0
C3356 C 0.85948 0.97033 0.76226 0.0
C3357 C 0.85519 1.00118 0.76388 0.0
C3358 C 0.8425 0.01448 0.75703 0.0
C3359 C 0.83452 0.99754 0.74879 0.0
H3360 H 0.69364 0.48656 0.62672 0.0
H3361 H 0.59812 0.48608 0.61577 0.0
H3362 H 0.72359 0.50244 0.61245 0.0
H3363 H 0.62778 0.50145 0.60145 0.0
H3364 H 0.70467 0.56236 0.57859 0.0
H3365 H 0.67641 0.54914 0.59305 0.0
H3366 H 0.72097 0.47736 0.59835 0.0
H3367 H 0.75081 0.49211 0.5841 0.0
C3368 C 0.67887 0.48954 0.62124 0.0
C3369 C 0.6434 0.48496 0.62241 0.0
C3370 C 0.69604 0.49861 0.61303 0.0
C3371 C 0.67817 0.50317 0.60573 0.0
C3372 C 0.64274 0.49877 0.60692 0.0
C3373 C 0.62565 0.48988 0.61515 0.0
C3374 C 0.70888 0.54413 0.58288 0.0
C3375 C 0.73013 0.52836 0.58012 0.0
C3376 C 0.69221 0.53613 0.59115 0.0
C3377 C 0.69622 0.51206 0.59692 0.0
C3378 C 0.71754 0.49637 0.59416 0.0
C3379 C 0.73429 0.50445 0.58591 0.0
H3380 H 0.57461 0.15064 0.61449 0.0
H3381 H 0.49268 0.1715 0.62621 0.0
H3382 H 0.56117 0.16683 0.6002 0.0
H3383 H 0.48023 0.18911 0.61194 0.0
H3384 H 0.44065 0.18068 0.5835 0.0
H3385 H 0.45268 0.16286 0.5978 0.0
H3386 H 0.56972 0.22043 0.59214 0.0
H3387 H 0.55758 0.23718 0.57776 0.0
C3388 C 0.5536 0.15854 0.61403 0.0
C3389 C 0.53466 0.1596 0.62153 0.0
C3390 C 0.54622 0.1683 0.60583 0.0
C3391 C 0.51968 0.17943 0.6049 0.0
C3392 C 0.5006 0.18036 0.61239 0.0
C3393 C 0.50804 0.17064 0.6206 0.0
C3394 C 0.46892 0.18925 0.58528 0.0
C3395 C 0.49813 0.21035 0.57946 0.0
C3396 C 0.47587 0.17938 0.59352 0.0
C3397 C 0.51219 0.19018 0.59615 0.0
C3398 C 0.54137 0.21126 0.59032 0.0
C3399 C 0.53444 0.22124 0.5821 0.0
H3400 H 0.82469 0.33422 0.62615 0.0
H3401 H 0.92408 0.42915 0.61649 0.0
H3402 H 0.81118 0.30766 0.6115 0.0
H3403 H 0.9105 0.40275 0.60183 0.0
H3404 H 0.8931 0.32878 0.57813 0.0
H3405 H 0.90749 0.35392 0.59291 0.0
H3406 H 0.79183 0.31618 0.59737 0.0
H3407 H 0.77726 0.28962 0.58275 0.0
C3408 C 0.84358 0.34957 0.62089 0.0
C3409 C 0.87549 0.38389 0.62254 0.0
C3410 C 0.8358 0.33434 0.61247 0.0
C3411 C 0.85965 0.35303 0.60542 0.0
C3412 C 0.89174 0.38722 0.60709 0.0
C3413 C 0.89956 0.4024 0.61552 0.0
C3414 C 0.87066 0.3255 0.58228 0.0
C3415 C 0.83398 0.30711 0.57919 0.0
C3416 C 0.87899 0.34033 0.59075 0.0
C3417 C 0.85087 0.33717 0.59638 0.0
C3418 C 0.81421 0.31881 0.59328 0.0
C3419 C 0.8059 0.30399 0.58483 0.0
H3420 H 0.77216 0.20672 0.08575 0.0
H3421 H 0.66434 0.17459 0.07516 0.0
H3422 H 0.74623 0.19333 0.10046 0.0
H3423 H 0.63864 0.16241 0.08991 0.0
H3424 H 0.59767 0.10878 0.11678 0.0
H3425 H 0.62376 0.11966 0.10208 0.0
H3426 H 0.72142 0.21785 0.11123 0.0
H3427 H 0.69584 0.20631 0.12598 0.0
C3428 C 0.74287 0.19661 0.08654 0.0
C3429 C 0.72037 0.19167 0.07924 0.0
C3430 C 0.72807 0.18936 0.095 0.0
C3431 C 0.69033 0.17687 0.0964 0.0
C3432 C 0.66775 0.17165 0.08909 0.0
C3433 C 0.68258 0.17902 0.08063 0.0
C3434 C 0.62491 0.13245 0.11569 0.0
C3435 C 0.64464 0.15662 0.12259 0.0
C3436 C 0.63969 0.13894 0.10723 0.0
C3437 C 0.67469 0.16969 0.10544 0.0
C3438 C 0.69455 0.1937 0.11237 0.0
C3439 C 0.6797 0.18729 0.12082 0.0
H3440 H 0.87695 0.53749 0.12565 0.0
H3441 H 0.84726 0.42845 0.11624 0.0
H3442 H 0.86364 0.55324 0.11127 0.0
H3443 H 0.83232 0.44358 0.10201 0.0
H3444 H 0.84419 0.4943 0.07498 0.0
H3445 H 0.86026 0.48049 0.08925 0.0
H3446 H 0.81263 0.53985 0.10173 0.0
H3447 H 0.79673 0.55381 0.08744 0.0
C3448 C 0.86768 0.51687 0.12052 0.0
C3449 C 0.86321 0.48165 0.12215 0.0
C3450 C 0.85958 0.52576 0.11229 0.0
C3451 C 0.84679 0.4997 0.10545 0.0
C3452 C 0.84249 0.46455 0.10707 0.0
C3453 C 0.85062 0.45568 0.11529 0.0
C3454 C 0.83692 0.50422 0.08077 0.0
C3455 C 0.81906 0.52512 0.08003 0.0
C3456 C 0.84613 0.49627 0.08897 0.0
C3457 C 0.83769 0.50893 0.09668 0.0
C3458 C 0.82009 0.53008 0.09595 0.0
C3459 C 0.81093 0.53809 0.08774 0.0
H3460 H 0.59232 0.39276 0.12018 0.0
H3461 H 0.49355 0.40146 0.11948 0.0
H3462 H 0.57667 0.36258 0.10593 0.0
H3463 H 0.4773 0.37023 0.10531 0.0
H3464 H 0.48331 0.35037 0.07574 0.0
H3465 H 0.49784 0.38064 0.09001 0.0
H3466 H 0.53145 0.30417 0.09928 0.0
H3467 H 0.51667 0.27373 0.08508 0.0
C3468 C 0.56728 0.38831 0.11698 0.0
C3469 C 0.54425 0.39964 0.12099 0.0
C3470 C 0.55809 0.37062 0.10885 0.0
C3471 C 0.52567 0.36388 0.10447 0.0
C3472 C 0.50264 0.37527 0.10846 0.0
C3473 C 0.51175 0.39281 0.11663 0.0
C3474 C 0.49344 0.33975 0.08084 0.0
C3475 C 0.49897 0.30967 0.07921 0.0
C3476 C 0.5018 0.35715 0.08903 0.0
C3477 C 0.51599 0.34498 0.09579 0.0
C3478 C 0.52122 0.31472 0.09418 0.0
C3479 C 0.51277 0.29728 0.08601 0.0
H3480 H 0.43401 0.84468 0.91877 0.0
H3481 H 0.35396 0.87217 0.90878 0.0
H3482 H 0.40312 0.82981 0.9329 0.0
H3483 H 0.32407 0.85893 0.92305 0.0
H3484 H 0.25592 0.79261 0.94688 0.0
H3485 H 0.28649 0.80817 0.93268 0.0
H3486 H 0.39291 0.85787 0.94548 0.0
H3487 H 0.36233 0.84219 0.95967 0.0
C3488 C 0.4098 0.84756 0.91957 0.0
C3489 C 0.3965 0.85955 0.91257 0.0
C3490 C 0.39232 0.83947 0.92774 0.0
C3491 C 0.36104 0.84319 0.92917 0.0
C3492 C 0.34781 0.85532 0.92219 0.0
C3493 C 0.36528 0.86339 0.91401 0.0
C3494 C 0.28586 0.8072 0.94668 0.0
C3495 C 0.30658 0.81603 0.95446 0.0
C3496 C 0.30344 0.81616 0.93851 0.0
C3497 C 0.34226 0.83424 0.93789 0.0
C3498 C 0.36298 0.84336 0.94567 0.0
C3499 C 0.3454 0.83437 0.95383 0.0
H3500 H 0.27124 0.5288 0.95107 0.0
H3501 H 0.15645 0.4777 0.95872 0.0
H3502 H 0.25598 0.54371 0.93685 0.0
H3503 H 0.14088 0.49091 0.94432 0.0
H3504 H 0.13181 0.555 0.921 0.0
H3505 H 0.14668 0.54035 0.93533 0.0
H3506 H 0.22614 0.51639 0.92338 0.0
H3507 H 0.2115 0.53142 0.90908 0.0
C3508 C 0.24272 0.52075 0.94974 0.0
C3509 C 0.21516 0.50209 0.95611 0.0
C3510 C 0.23385 0.52887 0.94151 0.0
C3511 C 0.19712 0.51848 0.93937 0.0
C3512 C 0.16953 0.49976 0.94573 0.0
C3513 C 0.17842 0.49172 0.95398 0.0
C3514 C 0.15223 0.5463 0.92142 0.0
C3515 C 0.17046 0.54448 0.91386 0.0
C3516 C 0.16077 0.53784 0.92965 0.0
C3517 C 0.18771 0.52718 0.93057 0.0
C3518 C 0.20574 0.52513 0.92299 0.0
C3519 C 0.1973 0.53372 0.91476 0.0
H3520 H 0.54069 0.65316 0.91177 0.0
H3521 H 0.42463 0.61144 0.91679 0.0
H3522 H 0.55576 0.6818 0.92618 0.0
H3523 H 0.43985 0.64174 0.93098 0.0
H3524 H 0.4751 0.66863 0.95948 0.0
H3525 H 0.46064 0.63846 0.94523 0.0
H3526 H 0.55864 0.73161 0.93442 0.0
H3527 H 0.57331 0.76146 0.94871 0.0
C3528 C 0.51832 0.65001 0.91593 0.0
C3529 C 0.48138 0.62984 0.91305 0.0
C3530 C 0.52704 0.66693 0.92418 0.0
C3531 C 0.4991 0.66428 0.9298 0.0
C3532 C 0.46217 0.6441 0.92692 0.0
C3533 C 0.45344 0.6271 0.91869 0.0
C3534 C 0.49347 0.68277 0.95405 0.0
C3535 C 0.52537 0.71754 0.95527 0.0
C3536 C 0.48514 0.66548 0.94585 0.0
C3537 C 0.50836 0.68252 0.9386 0.0
C3538 C 0.54036 0.71726 0.93984 0.0
C3539 C 0.54878 0.73447 0.94806 0.0
H3540 H 0.25867 0.49445 0.44758 0.0
H3541 H 0.35217 0.49116 0.45863 0.0
H3542 H 0.28897 0.50998 0.43337 0.0
H3543 H 0.38319 0.50829 0.44448 0.0
H3544 H 0.41152 0.5018 0.41577 0.0
H3545 H 0.38027 0.48428 0.42991 0.0
H3546 H 0.33987 0.56033 0.42584 0.0
H3547 H 0.36991 0.57677 0.41159 0.0
C3548 C 0.28566 0.49694 0.44699 0.0
C3549 C 0.30284 0.49141 0.45429 0.0
C3550 C 0.30329 0.50633 0.43884 0.0
C3551 C 0.33864 0.51053 0.43775 0.0
C3552 C 0.35583 0.50494 0.44504 0.0
C3553 C 0.3382 0.49554 0.4532 0.0
C3554 C 0.39566 0.5145 0.41785 0.0
C3555 C 0.39329 0.54072 0.41252 0.0
C3556 C 0.37807 0.50477 0.42602 0.0
C3557 C 0.35751 0.52089 0.42905 0.0
C3558 C 0.35508 0.54702 0.4237 0.0
C3559 C 0.37272 0.5568 0.41555 0.0
H3560 H 0.54148 0.88844 0.4111 0.0
H3561 H 0.42571 0.81224 0.41608 0.0
H3562 H 0.55701 0.8744 0.42542 0.0
H3563 H 0.44142 0.79781 0.43033 0.0
H3564 H 0.48819 0.75206 0.45094 0.0
H3565 H 0.47313 0.76678 0.43665 0.0
H3566 H 0.54937 0.88286 0.44115 0.0
H3567 H 0.56405 0.86831 0.45553 0.0
C3568 C 0.51927 0.86892 0.41525 0.0
C3569 C 0.48228 0.85149 0.41238 0.0
C3570 C 0.52823 0.86082 0.42348 0.0
C3571 C 0.50049 0.83491 0.42902 0.0
C3572 C 0.46354 0.81747 0.42616 0.0
C3573 C 0.45455 0.82572 0.41797 0.0
C3574 C 0.50149 0.7808 0.44895 0.0
C3575 C 0.52729 0.80897 0.45445 0.0
C3576 C 0.49287 0.78922 0.44073 0.0
C3577 C 0.50997 0.82601 0.43775 0.0
C3578 C 0.53602 0.85418 0.4432 0.0
C3579 C 0.54449 0.84579 0.45144 0.0
H3580 H 0.18868 0.75621 0.45156 0.0
H3581 H 0.2401 0.69141 0.45781 0.0
H3582 H 0.17311 0.72831 0.43704 0.0
H3583 H 0.22436 0.66334 0.44333 0.0
H3584 H 0.22403 0.64787 0.41383 0.0
H3585 H 0.23999 0.6773 0.42815 0.0
H3586 H 0.13367 0.67104 0.42954 0.0
H3587 H 0.11833 0.64295 0.41505 0.0
C3588 C 0.19635 0.73573 0.44987 0.0
C3589 C 0.21572 0.72615 0.45587 0.0
C3590 C 0.1874 0.7197 0.44153 0.0
C3591 C 0.19751 0.69356 0.43897 0.0
C3592 C 0.2167 0.68384 0.44499 0.0
C3593 C 0.22571 0.69994 0.45332 0.0
C3594 C 0.20422 0.65321 0.41712 0.0
C3595 C 0.16987 0.64302 0.41324 0.0
C3596 C 0.21319 0.66968 0.42541 0.0
C3597 C 0.1881 0.67648 0.43006 0.0
C3598 C 0.15387 0.66658 0.42614 0.0
C3599 C 0.14488 0.65006 0.41786 0.0
loop_
_geom_bond_atom_site_label_1
_geom_bond_atom_site_label_2
_geom_bond_distance
_geom_bond_site_symmetry_2
_ccdc_geom_bond_type
Pr0 C2 2.880 . S
Pr0 O20 2.562 . S
Pr0 O21 2.490 . S
Pr0 O22 2.695 . S
Pr0 O23 2.512 . S
Pr0 O25 2.437 . S
Pr0 O28 2.436 . S
Pr0 O30 2.438 . S
Pr1 C11 2.880 . S
Pr1 O22 2.436 . S
Pr1 O24 2.438 . S
Pr1 O26 2.562 . S
Pr1 O27 2.490 . S
Pr1 O28 2.695 . S
Pr1 O29 2.512 . S
Pr1 O31 2.437 . S
C2 Pr0 2.880 . S
C2 C3 1.491 . S
C2 O20 1.254 . S
C2 O21 1.225 . S
C3 C2 1.491 . S
C3 C4 1.392 . S
C3 C8 1.356 . S
C4 C3 1.392 . S
C4 C5 1.368 . S
C4 H32 0.929 . S
C5 C4 1.368 . S
C5 C6 1.386 . S
C5 H33 0.929 . S
C6 C5 1.386 . S
C6 C7 1.373 . S
C7 C6 1.373 . S
C7 C8 1.409 . S
C7 H34 0.931 . S
C8 C3 1.356 . S
C8 C7 1.409 . S
C8 H35 0.930 . S
C9 O22 1.270 . S
C9 O23 1.248 . S
C10 O24 1.267 . S
C10 O25 1.278 . S
C11 Pr1 2.880 . S
C11 C12 1.491 . S
C11 O26 1.254 . S
C11 O27 1.225 . S
C12 C11 1.491 . S
C12 C13 1.392 . S
C12 C17 1.356 . S
C13 C12 1.392 . S
C13 C14 1.368 . S
C13 H36 0.929 . S
C14 C13 1.368 . S
C14 C15 1.386 . S
C14 H37 0.929 . S
C15 C14 1.386 . S
C15 C16 1.373 . S
C16 C15 1.373 . S
C16 C17 1.409 . S
C16 H38 0.931 . S
C17 C12 1.356 . S
C17 C16 1.409 . S
C17 H39 0.930 . S
C18 O28 1.270 . S
C18 O29 1.248 . S
C19 O30 1.267 . S
C19 O31 1.278 . S
O20 Pr0 2.562 . S
O20 C2 1.254 . S
O21 Pr0 2.490 . S
O21 C2 1.225 . S
O22 Pr0 2.695 . S
O22 Pr1 2.436 . S
O22 C9 1.270 . S
O23 Pr0 2.512 . S
O23 C9 1.248 . S
O24 Pr1 2.438 . S
O24 C10 1.267 . S
O25 Pr0 2.437 . S
O25 C10 1.278 . S
O26 Pr1 2.562 . S
O26 C11 1.254 . S
O27 Pr1 2.490 . S
O27 C11 1.225 . S
O28 Pr0 2.436 . S
O28 Pr1 2.695 . S
O28 C18 1.270 . S
O29 Pr1 2.512 . S
O29 C18 1.248 . S
O30 Pr0 2.438 . S
O30 C19 1.267 . S
O31 Pr1 2.437 . S
O31 C19 1.278 . S
H32 C4 0.929 . S
H33 C5 0.929 . S
H34 C7 0.931 . S
H35 C8 0.930 . S
H36 C13 0.929 . S
H37 C14 0.929 . S
H38 C16 0.931 . S
H39 C17 0.930 . S
Pr40 C42 2.880 . S
Pr40 O60 2.562 . S
Pr40 O61 2.490 . S
Pr40 O62 2.695 . S
Pr40 O63 2.512 . S
Pr40 O65 2.437 . S
Pr40 O68 2.436 . S
Pr40 O70 2.438 . S
Pr41 C51 2.880 . S
Pr41 O62 2.436 . S
Pr41 O64 2.438 . S
Pr41 O66 2.562 . S
Pr41 O67 2.490 . S
Pr41 O68 2.695 . S
Pr41 O69 2.512 . S
Pr41 O71 2.437 . S
C42 Pr40 2.880 . S
C42 C43 1.491 . S
C42 O60 1.254 . S
C42 O61 1.225 . S
C43 C42 1.491 . S
C43 C44 1.392 . S
C43 C48 1.356 . S
C44 C43 1.392 . S
C44 C45 1.368 . S
C44 H72 0.929 . S
C45 C44 1.368 . S
C45 C46 1.386 . S
C45 H73 0.929 . S
C46 C45 1.386 . S
C46 C47 1.373 . S
C47 C46 1.373 . S
C47 C48 1.409 . S
C47 H74 0.931 . S
C48 C43 1.356 . S
C48 C47 1.409 . S
C48 H75 0.930 . S
C49 O62 1.270 . S
C49 O63 1.248 . S
C50 O64 1.267 . S
C50 O65 1.278 . S
C51 Pr41 2.880 . S
C51 C52 1.491 . S
C51 O66 1.254 . S
C51 O67 1.225 . S
C52 C51 1.491 . S
C52 C53 1.392 . S
C52 C57 1.356 . S
C53 C52 1.392 . S
C53 C54 1.368 . S
C53 H76 0.929 . S
C54 C53 1.368 . S
C54 C55 1.386 . S
C54 H77 0.929 . S
C55 C54 1.386 . S
C55 C56 1.373 . S
C56 C55 1.373 . S
C56 C57 1.409 . S
C56 H78 0.931 . S
C57 C52 1.356 . S
C57 C56 1.409 . S
C57 H79 0.930 . S
C58 O68 1.270 . S
C58 O69 1.248 . S
C59 O70 1.267 . S
C59 O71 1.278 . S
O60 Pr40 2.562 . S
O60 C42 1.254 . S
O61 Pr40 2.490 . S
O61 C42 1.225 . S
O62 Pr40 2.695 . S
O62 Pr41 2.436 . S
O62 C49 1.270 . S
O63 Pr40 2.512 . S
O63 C49 1.248 . S
O64 Pr41 2.438 . S
O64 C50 1.267 . S
O65 Pr40 2.437 . S
O65 C50 1.278 . S
O66 Pr41 2.562 . S
O66 C51 1.254 . S
O67 Pr41 2.490 . S
O67 C51 1.225 . S
O68 Pr40 2.436 . S
O68 Pr41 2.695 . S
O68 C58 1.270 . S
O69 Pr41 2.512 . S
O69 C58 1.248 . S
O70 Pr40 2.438 . S
O70 C59 1.267 . S
O71 Pr41 2.437 . S
O71 C59 1.278 . S
H72 C44 0.929 . S
H73 C45 0.929 . S
H74 C47 0.931 . S
H75 C48 0.930 . S
H76 C53 0.929 . S
H77 C54 0.929 . S
H78 C56 0.931 . S
H79 C57 0.930 . S
Pr80 C82 2.880 . S
Pr80 O100 2.562 . S
Pr80 O101 2.490 . S
Pr80 O102 2.695 . S
Pr80 O103 2.512 . S
Pr80 O105 2.437 . S
Pr80 O108 2.436 . S
Pr80 O110 2.438 . S
Pr81 C91 2.880 . S
Pr81 O102 2.436 . S
Pr81 O104 2.438 . S
Pr81 O106 2.562 . S
Pr81 O107 2.490 . S
Pr81 O108 2.695 . S
Pr81 O109 2.512 . S
Pr81 O111 2.437 . S
C82 Pr80 2.880 . S
C82 C83 1.491 . S
C82 O100 1.254 . S
C82 O101 1.225 . S
C83 C82 1.491 . S
C83 C84 1.392 . S
C83 C88 1.356 . S
C84 C83 1.392 . S
C84 C85 1.368 . S
C84 H112 0.929 . S
C85 C84 1.368 . S
C85 C86 1.386 . S
C85 H113 0.929 . S
C86 C85 1.386 . S
C86 C87 1.373 . S
C87 C86 1.373 . S
C87 C88 1.409 . S
C87 H114 0.931 . S
C88 C83 1.356 . S
C88 C87 1.409 . S
C88 H115 0.930 . S
C89 O102 1.270 . S
C89 O103 1.248 . S
C90 O104 1.267 . S
C90 O105 1.278 . S
C91 Pr81 2.880 . S
C91 C92 1.491 . S
C91 O106 1.254 . S
C91 O107 1.225 . S
C92 C91 1.491 . S
C92 C93 1.392 . S
C92 C97 1.356 . S
C93 C92 1.392 . S
C93 C94 1.368 . S
C93 H116 0.929 . S
C94 C93 1.368 . S
C94 C95 1.386 . S
C94 H117 0.929 . S
C95 C94 1.386 . S
C95 C96 1.373 . S
C96 C95 1.373 . S
C96 C97 1.409 . S
C96 H118 0.931 . S
C97 C92 1.356 . S
C97 C96 1.409 . S
C97 H119 0.930 . S
C98 O108 1.270 . S
C98 O109 1.248 . S
C99 O110 1.267 . S
C99 O111 1.278 . S
O100 Pr80 2.562 . S
O100 C82 1.254 . S
O101 Pr80 2.490 . S
O101 C82 1.225 . S
O102 Pr80 2.695 . S
O102 Pr81 2.436 . S
O102 C89 1.270 . S
O103 Pr80 2.512 . S
O103 C89 1.248 . S
O104 Pr81 2.438 . S
O104 C90 1.267 . S
O105 Pr80 2.437 . S
O105 C90 1.278 . S
O106 Pr81 2.562 . S
O106 C91 1.254 . S
O107 Pr81 2.490 . S
O107 C91 1.225 . S
O108 Pr80 2.436 . S
O108 Pr81 2.695 . S
O108 C98 1.270 . S
O109 Pr81 2.512 . S
O109 C98 1.248 . S
O110 Pr80 2.438 . S
O110 C99 1.267 . S
O111 Pr81 2.437 . S
O111 C99 1.278 . S
H112 C84 0.929 . S
H113 C85 0.929 . S
H114 C87 0.931 . S
H115 C88 0.930 . S
H116 C93 0.929 . S
H117 C94 0.929 . S
H118 C96 0.931 . S
H119 C97 0.930 . S
Pr120 C122 2.880 . S
Pr120 O140 2.562 . S
Pr120 O141 2.490 . S
Pr120 O142 2.695 . S
Pr120 O143 2.512 . S
Pr120 O145 2.437 . S
Pr120 O148 2.436 . S
Pr120 O150 2.438 . S
Pr121 C131 2.880 . S
Pr121 O142 2.436 . S
Pr121 O144 2.438 . S
Pr121 O146 2.562 . S
Pr121 O147 2.490 . S
Pr121 O148 2.695 . S
Pr121 O149 2.512 . S
Pr121 O151 2.437 . S
C122 Pr120 2.880 . S
C122 C123 1.491 . S
C122 O140 1.254 . S
C122 O141 1.225 . S
C123 C122 1.491 . S
C123 C124 1.392 . S
C123 C128 1.356 . S
C124 C123 1.392 . S
C124 C125 1.368 . S
C124 H152 0.929 . S
C125 C124 1.368 . S
C125 C126 1.386 . S
C125 H153 0.929 . S
C126 C125 1.386 . S
C126 C127 1.373 . S
C127 C126 1.373 . S
C127 C128 1.409 . S
C127 H154 0.931 . S
C128 C123 1.356 . S
C128 C127 1.409 . S
C128 H155 0.930 . S
C129 O142 1.270 . S
C129 O143 1.248 . S
C130 O144 1.267 . S
C130 O145 1.278 . S
C131 Pr121 2.880 . S
C131 C132 1.491 . S
C131 O146 1.254 . S
C131 O147 1.225 . S
C132 C131 1.491 . S
C132 C133 1.392 . S
C132 C137 1.356 . S
C133 C132 1.392 . S
C133 C134 1.368 . S
C133 H156 0.929 . S
C134 C133 1.368 . S
C134 C135 1.386 . S
C134 H157 0.929 . S
C135 C134 1.386 . S
C135 C136 1.373 . S
C136 C135 1.373 . S
C136 C137 1.409 . S
C136 H158 0.931 . S
C137 C132 1.356 . S
C137 C136 1.409 . S
C137 H159 0.930 . S
C138 O148 1.270 . S
C138 O149 1.248 . S
C139 O150 1.267 . S
C139 O151 1.278 . S
O140 Pr120 2.562 . S
O140 C122 1.254 . S
O141 Pr120 2.490 . S
O141 C122 1.225 . S
O142 Pr120 2.695 . S
O142 Pr121 2.436 . S
O142 C129 1.270 . S
O143 Pr120 2.512 . S
O143 C129 1.248 . S
O144 Pr121 2.438 . S
O144 C130 1.267 . S
O145 Pr120 2.437 . S
O145 C130 1.278 . S
O146 Pr121 2.562 . S
O146 C131 1.254 . S
O147 Pr121 2.490 . S
O147 C131 1.225 . S
O148 Pr120 2.436 . S
O148 Pr121 2.695 . S
O148 C138 1.270 . S
O149 Pr121 2.512 . S
O149 C138 1.248 . S
O150 Pr120 2.438 . S
O150 C139 1.267 . S
O151 Pr121 2.437 . S
O151 C139 1.278 . S
H152 C124 0.929 . S
H153 C125 0.929 . S
H154 C127 0.931 . S
H155 C128 0.930 . S
H156 C133 0.929 . S
H157 C134 0.929 . S
H158 C136 0.931 . S
H159 C137 0.930 . S
Pr160 C162 2.880 . S
Pr160 O180 2.562 . S
Pr160 O181 2.490 . S
Pr160 O182 2.695 . S
Pr160 O183 2.512 . S
Pr160 O185 2.437 . S
Pr160 O188 2.436 . S
Pr160 O190 2.438 . S
Pr161 C171 2.880 . S
Pr161 O182 2.436 . S
Pr161 O184 2.438 . S
Pr161 O186 2.562 . S
Pr161 O187 2.490 . S
Pr161 O188 2.695 . S
Pr161 O189 2.512 . S
Pr161 O191 2.437 . S
C162 Pr160 2.880 . S
C162 C163 1.491 . S
C162 O180 1.254 . S
C162 O181 1.225 . S
C163 C162 1.491 . S
C163 C164 1.392 . S
C163 C168 1.356 . S
C164 C163 1.392 . S
C164 C165 1.368 . S
C164 H192 0.929 . S
C165 C164 1.368 . S
C165 C166 1.386 . S
C165 H193 0.929 . S
C166 C165 1.386 . S
C166 C167 1.373 . S
C167 C166 1.373 . S
C167 C168 1.409 . S
C167 H194 0.931 . S
C168 C163 1.356 . S
C168 C167 1.409 . S
C168 H195 0.930 . S
C169 O182 1.270 . S
C169 O183 1.248 . S
C170 O184 1.267 . S
C170 O185 1.278 . S
C171 Pr161 2.880 . S
C171 C172 1.491 . S
C171 O186 1.254 . S
C171 O187 1.225 . S
C172 C171 1.491 . S
C172 C173 1.392 . S
C172 C177 1.356 . S
C173 C172 1.392 . S
C173 C174 1.368 . S
C173 H196 0.929 . S
C174 C173 1.368 . S
C174 C175 1.386 . S
C174 H197 0.929 . S
C175 C174 1.386 . S
C175 C176 1.373 . S
C176 C175 1.373 . S
C176 C177 1.409 . S
C176 H198 0.931 . S
C177 C172 1.356 . S
C177 C176 1.409 . S
C177 H199 0.930 . S
C178 O188 1.270 . S
C178 O189 1.248 . S
C179 O190 1.267 . S
C179 O191 1.278 . S
O180 Pr160 2.562 . S
O180 C162 1.254 . S
O181 Pr160 2.490 . S
O181 C162 1.225 . S
O182 Pr160 2.695 . S
O182 Pr161 2.436 . S
O182 C169 1.270 . S
O183 Pr160 2.512 . S
O183 C169 1.248 . S
O184 Pr161 2.438 . S
O184 C170 1.267 . S
O185 Pr160 2.437 . S
O185 C170 1.278 . S
O186 Pr161 2.562 . S
O186 C171 1.254 . S
O187 Pr161 2.490 . S
O187 C171 1.225 . S
O188 Pr160 2.436 . S
O188 Pr161 2.695 . S
O188 C178 1.270 . S
O189 Pr161 2.512 . S
O189 C178 1.248 . S
O190 Pr160 2.438 . S
O190 C179 1.267 . S
O191 Pr161 2.437 . S
O191 C179 1.278 . S
H192 C164 0.929 . S
H193 C165 0.929 . S
H194 C167 0.931 . S
H195 C168 0.930 . S
H196 C173 0.929 . S
H197 C174 0.929 . S
H198 C176 0.931 . S
H199 C177 0.930 . S
Pr200 C202 2.880 . S
Pr200 O220 2.562 . S
Pr200 O221 2.490 . S
Pr200 O222 2.695 . S
Pr200 O223 2.512 . S
Pr200 O225 2.437 . S
Pr200 O228 2.436 . S
Pr200 O230 2.438 . S
Pr201 C211 2.880 . S
Pr201 O222 2.436 . S
Pr201 O224 2.438 . S
Pr201 O226 2.562 . S
Pr201 O227 2.490 . S
Pr201 O228 2.695 . S
Pr201 O229 2.512 . S
Pr201 O231 2.437 . S
C202 Pr200 2.880 . S
C202 C203 1.491 . S
C202 O220 1.254 . S
C202 O221 1.225 . S
C203 C202 1.491 . S
C203 C204 1.392 . S
C203 C208 1.356 . S
C204 C203 1.392 . S
C204 C205 1.368 . S
C204 H232 0.929 . S
C205 C204 1.368 . S
C205 C206 1.386 . S
C205 H233 0.929 . S
C206 C205 1.386 . S
C206 C207 1.373 . S
C207 C206 1.373 . S
C207 C208 1.409 . S
C207 H234 0.931 . S
C208 C203 1.356 . S
C208 C207 1.409 . S
C208 H235 0.930 . S
C209 O222 1.270 . S
C209 O223 1.248 . S
C210 O224 1.267 . S
C210 O225 1.278 . S
C211 Pr201 2.880 . S
C211 C212 1.491 . S
C211 O226 1.254 . S
C211 O227 1.225 . S
C212 C211 1.491 . S
C212 C213 1.392 . S
C212 C217 1.356 . S
C213 C212 1.392 . S
C213 C214 1.368 . S
C213 H236 0.929 . S
C214 C213 1.368 . S
C214 C215 1.386 . S
C214 H237 0.929 . S
C215 C214 1.386 . S
C215 C216 1.373 . S
C216 C215 1.373 . S
C216 C217 1.409 . S
C216 H238 0.931 . S
C217 C212 1.356 . S
C217 C216 1.409 . S
C217 H239 0.930 . S
C218 O228 1.270 . S
C218 O229 1.248 . S
C219 O230 1.267 . S
C219 O231 1.278 . S
O220 Pr200 2.562 . S
O220 C202 1.254 . S
O221 Pr200 2.490 . S
O221 C202 1.225 . S
O222 Pr200 2.695 . S
O222 Pr201 2.436 . S
O222 C209 1.270 . S
O223 Pr200 2.512 . S
O223 C209 1.248 . S
O224 Pr201 2.438 . S
O224 C210 1.267 . S
O225 Pr200 2.437 . S
O225 C210 1.278 . S
O226 Pr201 2.562 . S
O226 C211 1.254 . S
O227 Pr201 2.490 . S
O227 C211 1.225 . S
O228 Pr200 2.436 . S
O228 Pr201 2.695 . S
O228 C218 1.270 . S
O229 Pr201 2.512 . S
O229 C218 1.248 . S
O230 Pr200 2.438 . S
O230 C219 1.267 . S
O231 Pr201 2.437 . S
O231 C219 1.278 . S
H232 C204 0.929 . S
H233 C205 0.929 . S
H234 C207 0.931 . S
H235 C208 0.930 . S
H236 C213 0.929 . S
H237 C214 0.929 . S
H238 C216 0.931 . S
H239 C217 0.930 . S
Pr240 C242 2.880 . S
Pr240 O260 2.562 . S
Pr240 O261 2.490 . S
Pr240 O262 2.695 . S
Pr240 O263 2.512 . S
Pr240 O265 2.437 . S
Pr240 O268 2.436 . S
Pr240 O270 2.438 . S
Pr241 C251 2.880 . S
Pr241 O262 2.436 . S
Pr241 O264 2.438 . S
Pr241 O266 2.562 . S
Pr241 O267 2.490 . S
Pr241 O268 2.695 . S
Pr241 O269 2.512 . S
Pr241 O271 2.437 . S
C242 Pr240 2.880 . S
C242 C243 1.491 . S
C242 O260 1.254 . S
C242 O261 1.225 . S
C243 C242 1.491 . S
C243 C244 1.392 . S
C243 C248 1.356 . S
C244 C243 1.392 . S
C244 C245 1.368 . S
C244 H272 0.929 . S
C245 C244 1.368 . S
C245 C246 1.386 . S
C245 H273 0.929 . S
C246 C245 1.386 . S
C246 C247 1.373 . S
C247 C246 1.373 . S
C247 C248 1.409 . S
C247 H274 0.931 . S
C248 C243 1.356 . S
C248 C247 1.409 . S
C248 H275 0.930 . S
C249 O262 1.270 . S
C249 O263 1.248 . S
C250 O264 1.267 . S
C250 O265 1.278 . S
C251 Pr241 2.880 . S
C251 C252 1.491 . S
C251 O266 1.254 . S
C251 O267 1.225 . S
C252 C251 1.491 . S
C252 C253 1.392 . S
C252 C257 1.356 . S
C253 C252 1.392 . S
C253 C254 1.368 . S
C253 H276 0.929 . S
C254 C253 1.368 . S
C254 C255 1.386 . S
C254 H277 0.929 . S
C255 C254 1.386 . S
C255 C256 1.373 . S
C256 C255 1.373 . S
C256 C257 1.409 . S
C256 H278 0.931 . S
C257 C252 1.356 . S
C257 C256 1.409 . S
C257 H279 0.930 . S
C258 O268 1.270 . S
C258 O269 1.248 . S
C259 O270 1.267 . S
C259 O271 1.278 . S
O260 Pr240 2.562 . S
O260 C242 1.254 . S
O261 Pr240 2.490 . S
O261 C242 1.225 . S
O262 Pr240 2.695 . S
O262 Pr241 2.436 . S
O262 C249 1.270 . S
O263 Pr240 2.512 . S
O263 C249 1.248 . S
O264 Pr241 2.438 . S
O264 C250 1.267 . S
O265 Pr240 2.437 . S
O265 C250 1.278 . S
O266 Pr241 2.562 . S
O266 C251 1.254 . S
O267 Pr241 2.490 . S
O267 C251 1.225 . S
O268 Pr240 2.436 . S
O268 Pr241 2.695 . S
O268 C258 1.270 . S
O269 Pr241 2.512 . S
O269 C258 1.248 . S
O270 Pr240 2.438 . S
O270 C259 1.267 . S
O271 Pr241 2.437 . S
O271 C259 1.278 . S
H272 C244 0.929 . S
H273 C245 0.929 . S
H274 C247 0.931 . S
H275 C248 0.930 . S
H276 C253 0.929 . S
H277 C254 0.929 . S
H278 C256 0.931 . S
H279 C257 0.930 . S
Pr280 C282 2.880 . S
Pr280 O300 2.562 . S
Pr280 O301 2.490 . S
Pr280 O302 2.695 . S
Pr280 O303 2.512 . S
Pr280 O305 2.437 . S
Pr280 O308 2.436 . S
Pr280 O310 2.438 . S
Pr281 C291 2.880 . S
Pr281 O302 2.436 . S
Pr281 O304 2.438 . S
Pr281 O306 2.562 . S
Pr281 O307 2.490 . S
Pr281 O308 2.695 . S
Pr281 O309 2.512 . S
Pr281 O311 2.437 . S
C282 Pr280 2.880 . S
C282 C283 1.491 . S
C282 O300 1.254 . S
C282 O301 1.225 . S
C283 C282 1.491 . S
C283 C284 1.392 . S
C283 C288 1.356 . S
C284 C283 1.392 . S
C284 C285 1.368 . S
C284 H312 0.929 . S
C285 C284 1.368 . S
C285 C286 1.386 . S
C285 H313 0.929 . S
C286 C285 1.386 . S
C286 C287 1.373 . S
C287 C286 1.373 . S
C287 C288 1.409 . S
C287 H314 0.931 . S
C288 C283 1.356 . S
C288 C287 1.409 . S
C288 H315 0.930 . S
C289 O302 1.270 . S
C289 O303 1.248 . S
C290 O304 1.267 . S
C290 O305 1.278 . S
C291 Pr281 2.880 . S
C291 C292 1.491 . S
C291 O306 1.254 . S
C291 O307 1.225 . S
C292 C291 1.491 . S
C292 C293 1.392 . S
C292 C297 1.356 . S
C293 C292 1.392 . S
C293 C294 1.368 . S
C293 H316 0.929 . S
C294 C293 1.368 . S
C294 C295 1.386 . S
C294 H317 0.929 . S
C295 C294 1.386 . S
C295 C296 1.373 . S
C296 C295 1.373 . S
C296 C297 1.409 . S
C296 H318 0.931 . S
C297 C292 1.356 . S
C297 C296 1.409 . S
C297 H319 0.930 . S
C298 O308 1.270 . S
C298 O309 1.248 . S
C299 O310 1.267 . S
C299 O311 1.278 . S
O300 Pr280 2.562 . S
O300 C282 1.254 . S
O301 Pr280 2.490 . S
O301 C282 1.225 . S
O302 Pr280 2.695 . S
O302 Pr281 2.436 . S
O302 C289 1.270 . S
O303 Pr280 2.512 . S
O303 C289 1.248 . S
O304 Pr281 2.438 . S
O304 C290 1.267 . S
O305 Pr280 2.437 . S
O305 C290 1.278 . S
O306 Pr281 2.562 . S
O306 C291 1.254 . S
O307 Pr281 2.490 . S
O307 C291 1.225 . S
O308 Pr280 2.436 . S
O308 Pr281 2.695 . S
O308 C298 1.270 . S
O309 Pr281 2.512 . S
O309 C298 1.248 . S
O310 Pr280 2.438 . S
O310 C299 1.267 . S
O311 Pr281 2.437 . S
O311 C299 1.278 . S
H312 C284 0.929 . S
H313 C285 0.929 . S
H314 C287 0.931 . S
H315 C288 0.930 . S
H316 C293 0.929 . S
H317 C294 0.929 . S
H318 C296 0.931 . S
H319 C297 0.930 . S
Pr320 C322 2.880 . S
Pr320 O340 2.562 . S
Pr320 O341 2.490 . S
Pr320 O342 2.695 . S
Pr320 O343 2.512 . S
Pr320 O345 2.437 . S
Pr320 O348 2.436 . S
Pr320 O350 2.438 . S
Pr321 C331 2.880 . S
Pr321 O342 2.436 . S
Pr321 O344 2.438 . S
Pr321 O346 2.562 . S
Pr321 O347 2.490 . S
Pr321 O348 2.695 . S
Pr321 O349 2.512 . S
Pr321 O351 2.437 . S
C322 Pr320 2.880 . S
C322 C323 1.491 . S
C322 O340 1.254 . S
C322 O341 1.225 . S
C323 C322 1.491 . S
C323 C324 1.392 . S
C323 C328 1.356 . S
C324 C323 1.392 . S
C324 C325 1.368 . S
C324 H352 0.929 . S
C325 C324 1.368 . S
C325 C326 1.386 . S
C325 H353 0.929 . S
C326 C325 1.386 . S
C326 C327 1.373 . S
C327 C326 1.373 . S
C327 C328 1.409 . S
C327 H354 0.931 . S
C328 C323 1.356 . S
C328 C327 1.409 . S
C328 H355 0.930 . S
C329 O342 1.270 . S
C329 O343 1.248 . S
C330 O344 1.267 . S
C330 O345 1.278 . S
C331 Pr321 2.880 . S
C331 C332 1.491 . S
C331 O346 1.254 . S
C331 O347 1.225 . S
C332 C331 1.491 . S
C332 C333 1.392 . S
C332 C337 1.356 . S
C333 C332 1.392 . S
C333 C334 1.368 . S
C333 H356 0.929 . S
C334 C333 1.368 . S
C334 C335 1.386 . S
C334 H357 0.929 . S
C335 C334 1.386 . S
C335 C336 1.373 . S
C336 C335 1.373 . S
C336 C337 1.409 . S
C336 H358 0.931 . S
C337 C332 1.356 . S
C337 C336 1.409 . S
C337 H359 0.930 . S
C338 O348 1.270 . S
C338 O349 1.248 . S
C339 O350 1.267 . S
C339 O351 1.278 . S
O340 Pr320 2.562 . S
O340 C322 1.254 . S
O341 Pr320 2.490 . S
O341 C322 1.225 . S
O342 Pr320 2.695 . S
O342 Pr321 2.436 . S
O342 C329 1.270 . S
O343 Pr320 2.512 . S
O343 C329 1.248 . S
O344 Pr321 2.438 . S
O344 C330 1.267 . S
O345 Pr320 2.437 . S
O345 C330 1.278 . S
O346 Pr321 2.562 . S
O346 C331 1.254 . S
O347 Pr321 2.490 . S
O347 C331 1.225 . S
O348 Pr320 2.436 . S
O348 Pr321 2.695 . S
O348 C338 1.270 . S
O349 Pr321 2.512 . S
O349 C338 1.248 . S
O350 Pr320 2.438 . S
O350 C339 1.267 . S
O351 Pr321 2.437 . S
O351 C339 1.278 . S
H352 C324 0.929 . S
H353 C325 0.929 . S
H354 C327 0.931 . S
H355 C328 0.930 . S
H356 C333 0.929 . S
H357 C334 0.929 . S
H358 C336 0.931 . S
H359 C337 0.930 . S
Pr360 C362 2.880 . S
Pr360 O380 2.562 . S
Pr360 O381 2.490 . S
Pr360 O382 2.695 . S
Pr360 O383 2.512 . S
Pr360 O385 2.437 . S
Pr360 O388 2.436 . S
Pr360 O390 2.438 . S
Pr361 C371 2.880 . S
Pr361 O382 2.436 . S
Pr361 O384 2.438 . S
Pr361 O386 2.562 . S
Pr361 O387 2.490 . S
Pr361 O388 2.695 . S
Pr361 O389 2.512 . S
Pr361 O391 2.437 . S
C362 Pr360 2.880 . S
C362 C363 1.491 . S
C362 O380 1.254 . S
C362 O381 1.225 . S
C363 C362 1.491 . S
C363 C364 1.392 . S
C363 C368 1.356 . S
C364 C363 1.392 . S
C364 C365 1.368 . S
C364 H392 0.929 . S
C365 C364 1.368 . S
C365 C366 1.386 . S
C365 H393 0.929 . S
C366 C365 1.386 . S
C366 C367 1.373 . S
C367 C366 1.373 . S
C367 C368 1.409 . S
C367 H394 0.931 . S
C368 C363 1.356 . S
C368 C367 1.409 . S
C368 H395 0.930 . S
C369 O382 1.270 . S
C369 O383 1.248 . S
C370 O384 1.267 . S
C370 O385 1.278 . S
C371 Pr361 2.880 . S
C371 C372 1.491 . S
C371 O386 1.254 . S
C371 O387 1.225 . S
C372 C371 1.491 . S
C372 C373 1.392 . S
C372 C377 1.356 . S
C373 C372 1.392 . S
C373 C374 1.368 . S
C373 H396 0.929 . S
C374 C373 1.368 . S
C374 C375 1.386 . S
C374 H397 0.929 . S
C375 C374 1.386 . S
C375 C376 1.373 . S
C376 C375 1.373 . S
C376 C377 1.409 . S
C376 H398 0.931 . S
C377 C372 1.356 . S
C377 C376 1.409 . S
C377 H399 0.930 . S
C378 O388 1.270 . S
C378 O389 1.248 . S
C379 O390 1.267 . S
C379 O391 1.278 . S
O380 Pr360 2.562 . S
O380 C362 1.254 . S
O381 Pr360 2.490 . S
O381 C362 1.225 . S
O382 Pr360 2.695 . S
O382 Pr361 2.436 . S
O382 C369 1.270 . S
O383 Pr360 2.512 . S
O383 C369 1.248 . S
O384 Pr361 2.438 . S
O384 C370 1.267 . S
O385 Pr360 2.437 . S
O385 C370 1.278 . S
O386 Pr361 2.562 . S
O386 C371 1.254 . S
O387 Pr361 2.490 . S
O387 C371 1.225 . S
O388 Pr360 2.436 . S
O388 Pr361 2.695 . S
O388 C378 1.270 . S
O389 Pr361 2.512 . S
O389 C378 1.248 . S
O390 Pr360 2.438 . S
O390 C379 1.267 . S
O391 Pr361 2.437 . S
O391 C379 1.278 . S
H392 C364 0.929 . S
H393 C365 0.929 . S
H394 C367 0.931 . S
H395 C368 0.930 . S
H396 C373 0.929 . S
H397 C374 0.929 . S
H398 C376 0.931 . S
H399 C377 0.930 . S
Pr400 C402 2.880 . S
Pr400 O420 2.562 . S
Pr400 O421 2.490 . S
Pr400 O422 2.695 . S
Pr400 O423 2.512 . S
Pr400 O425 2.437 . S
Pr400 O428 2.436 . S
Pr400 O430 2.438 . S
Pr401 C411 2.880 . S
Pr401 O422 2.436 . S
Pr401 O424 2.438 . S
Pr401 O426 2.562 . S
Pr401 O427 2.490 . S
Pr401 O428 2.695 . S
Pr401 O429 2.512 . S
Pr401 O431 2.437 . S
C402 Pr400 2.880 . S
C402 C403 1.491 . S
C402 O420 1.254 . S
C402 O421 1.225 . S
C403 C402 1.491 . S
C403 C404 1.392 . S
C403 C408 1.356 . S
C404 C403 1.392 . S
C404 C405 1.368 . S
C404 H432 0.929 . S
C405 C404 1.368 . S
C405 C406 1.386 . S
C405 H433 0.929 . S
C406 C405 1.386 . S
C406 C407 1.373 . S
C407 C406 1.373 . S
C407 C408 1.409 . S
C407 H434 0.931 . S
C408 C403 1.356 . S
C408 C407 1.409 . S
C408 H435 0.930 . S
C409 O422 1.270 . S
C409 O423 1.248 . S
C410 O424 1.267 . S
C410 O425 1.278 . S
C411 Pr401 2.880 . S
C411 C412 1.491 . S
C411 O426 1.254 . S
C411 O427 1.225 . S
C412 C411 1.491 . S
C412 C413 1.392 . S
C412 C417 1.356 . S
C413 C412 1.392 . S
C413 C414 1.368 . S
C413 H436 0.929 . S
C414 C413 1.368 . S
C414 C415 1.386 . S
C414 H437 0.929 . S
C415 C414 1.386 . S
C415 C416 1.373 . S
C416 C415 1.373 . S
C416 C417 1.409 . S
C416 H438 0.931 . S
C417 C412 1.356 . S
C417 C416 1.409 . S
C417 H439 0.930 . S
C418 O428 1.270 . S
C418 O429 1.248 . S
C419 O430 1.267 . S
C419 O431 1.278 . S
O420 Pr400 2.562 . S
O420 C402 1.254 . S
O421 Pr400 2.490 . S
O421 C402 1.225 . S
O422 Pr400 2.695 . S
O422 Pr401 2.436 . S
O422 C409 1.270 . S
O423 Pr400 2.512 . S
O423 C409 1.248 . S
O424 Pr401 2.438 . S
O424 C410 1.267 . S
O425 Pr400 2.437 . S
O425 C410 1.278 . S
O426 Pr401 2.562 . S
O426 C411 1.254 . S
O427 Pr401 2.490 . S
O427 C411 1.225 . S
O428 Pr400 2.436 . S
O428 Pr401 2.695 . S
O428 C418 1.270 . S
O429 Pr401 2.512 . S
O429 C418 1.248 . S
O430 Pr400 2.438 . S
O430 C419 1.267 . S
O431 Pr401 2.437 . S
O431 C419 1.278 . S
H432 C404 0.929 . S
H433 C405 0.929 . S
H434 C407 0.931 . S
H435 C408 0.930 . S
H436 C413 0.929 . S
H437 C414 0.929 . S
H438 C416 0.931 . S
H439 C417 0.930 . S
Pr440 C442 2.880 . S
Pr440 O460 2.562 . S
Pr440 O461 2.490 . S
Pr440 O462 2.695 . S
Pr440 O463 2.512 . S
Pr440 O465 2.437 . S
Pr440 O468 2.436 . S
Pr440 O470 2.438 . S
Pr441 C451 2.880 . S
Pr441 O462 2.436 . S
Pr441 O464 2.438 . S
Pr441 O466 2.562 . S
Pr441 O467 2.490 . S
Pr441 O468 2.695 . S
Pr441 O469 2.512 . S
Pr441 O471 2.437 . S
C442 Pr440 2.880 . S
C442 C443 1.491 . S
C442 O460 1.254 . S
C442 O461 1.225 . S
C443 C442 1.491 . S
C443 C444 1.392 . S
C443 C448 1.356 . S
C444 C443 1.392 . S
C444 C445 1.368 . S
C444 H472 0.929 . S
C445 C444 1.368 . S
C445 C446 1.386 . S
C445 H473 0.929 . S
C446 C445 1.386 . S
C446 C447 1.373 . S
C447 C446 1.373 . S
C447 C448 1.409 . S
C447 H474 0.931 . S
C448 C443 1.356 . S
C448 C447 1.409 . S
C448 H475 0.930 . S
C449 O462 1.270 . S
C449 O463 1.248 . S
C450 O464 1.267 . S
C450 O465 1.278 . S
C451 Pr441 2.880 . S
C451 C452 1.491 . S
C451 O466 1.254 . S
C451 O467 1.225 . S
C452 C451 1.491 . S
C452 C453 1.392 . S
C452 C457 1.356 . S
C453 C452 1.392 . S
C453 C454 1.368 . S
C453 H476 0.929 . S
C454 C453 1.368 . S
C454 C455 1.386 . S
C454 H477 0.929 . S
C455 C454 1.386 . S
C455 C456 1.373 . S
C456 C455 1.373 . S
C456 C457 1.409 . S
C456 H478 0.931 . S
C457 C452 1.356 . S
C457 C456 1.409 . S
C457 H479 0.930 . S
C458 O468 1.270 . S
C458 O469 1.248 . S
C459 O470 1.267 . S
C459 O471 1.278 . S
O460 Pr440 2.562 . S
O460 C442 1.254 . S
O461 Pr440 2.490 . S
O461 C442 1.225 . S
O462 Pr440 2.695 . S
O462 Pr441 2.436 . S
O462 C449 1.270 . S
O463 Pr440 2.512 . S
O463 C449 1.248 . S
O464 Pr441 2.438 . S
O464 C450 1.267 . S
O465 Pr440 2.437 . S
O465 C450 1.278 . S
O466 Pr441 2.562 . S
O466 C451 1.254 . S
O467 Pr441 2.490 . S
O467 C451 1.225 . S
O468 Pr440 2.436 . S
O468 Pr441 2.695 . S
O468 C458 1.270 . S
O469 Pr441 2.512 . S
O469 C458 1.248 . S
O470 Pr440 2.438 . S
O470 C459 1.267 . S
O471 Pr441 2.437 . S
O471 C459 1.278 . S
H472 C444 0.929 . S
H473 C445 0.929 . S
H474 C447 0.931 . S
H475 C448 0.930 . S
H476 C453 0.929 . S
H477 C454 0.929 . S
H478 C456 0.931 . S
H479 C457 0.930 . S
Pr480 C482 2.880 . S
Pr480 O500 2.562 . S
Pr480 O501 2.490 . S
Pr480 O502 2.695 . S
Pr480 O503 2.512 . S
Pr480 O505 2.437 . S
Pr480 O508 2.436 . S
Pr480 O510 2.438 . S
Pr481 C491 2.880 . S
Pr481 O502 2.436 . S
Pr481 O504 2.438 . S
Pr481 O506 2.562 . S
Pr481 O507 2.490 . S
Pr481 O508 2.695 . S
Pr481 O509 2.512 . S
Pr481 O511 2.437 . S
C482 Pr480 2.880 . S
C482 C483 1.491 . S
C482 O500 1.254 . S
C482 O501 1.225 . S
C483 C482 1.491 . S
C483 C484 1.392 . S
C483 C488 1.356 . S
C484 C483 1.392 . S
C484 C485 1.368 . S
C484 H512 0.929 . S
C485 C484 1.368 . S
C485 C486 1.386 . S
C485 H513 0.929 . S
C486 C485 1.386 . S
C486 C487 1.373 . S
C487 C486 1.373 . S
C487 C488 1.409 . S
C487 H514 0.931 . S
C488 C483 1.356 . S
C488 C487 1.409 . S
C488 H515 0.930 . S
C489 O502 1.270 . S
C489 O503 1.248 . S
C490 O504 1.267 . S
C490 O505 1.278 . S
C491 Pr481 2.880 . S
C491 C492 1.491 . S
C491 O506 1.254 . S
C491 O507 1.225 . S
C492 C491 1.491 . S
C492 C493 1.392 . S
C492 C497 1.356 . S
C493 C492 1.392 . S
C493 C494 1.368 . S
C493 H516 0.929 . S
C494 C493 1.368 . S
C494 C495 1.386 . S
C494 H517 0.929 . S
C495 C494 1.386 . S
C495 C496 1.373 . S
C496 C495 1.373 . S
C496 C497 1.409 . S
C496 H518 0.931 . S
C497 C492 1.356 . S
C497 C496 1.409 . S
C497 H519 0.930 . S
C498 O508 1.270 . S
C498 O509 1.248 . S
C499 O510 1.267 . S
C499 O511 1.278 . S
O500 Pr480 2.562 . S
O500 C482 1.254 . S
O501 Pr480 2.490 . S
O501 C482 1.225 . S
O502 Pr480 2.695 . S
O502 Pr481 2.436 . S
O502 C489 1.270 . S
O503 Pr480 2.512 . S
O503 C489 1.248 . S
O504 Pr481 2.438 . S
O504 C490 1.267 . S
O505 Pr480 2.437 . S
O505 C490 1.278 . S
O506 Pr481 2.562 . S
O506 C491 1.254 . S
O507 Pr481 2.490 . S
O507 C491 1.225 . S
O508 Pr480 2.436 . S
O508 Pr481 2.695 . S
O508 C498 1.270 . S
O509 Pr481 2.512 . S
O509 C498 1.248 . S
O510 Pr480 2.438 . S
O510 C499 1.267 . S
O511 Pr481 2.437 . S
O511 C499 1.278 . S
H512 C484 0.929 . S
H513 C485 0.929 . S
H514 C487 0.931 . S
H515 C488 0.930 . S
H516 C493 0.929 . S
H517 C494 0.929 . S
H518 C496 0.931 . S
H519 C497 0.930 . S
Pr520 C522 2.880 . S
Pr520 O540 2.562 . S
Pr520 O541 2.490 . S
Pr520 O542 2.695 . S
Pr520 O543 2.512 . S
Pr520 O545 2.437 . S
Pr520 O548 2.436 . S
Pr520 O550 2.438 . S
Pr521 C531 2.880 . S
Pr521 O542 2.436 . S
Pr521 O544 2.438 . S
Pr521 O546 2.562 . S
Pr521 O547 2.490 . S
Pr521 O548 2.695 . S
Pr521 O549 2.512 . S
Pr521 O551 2.437 . S
C522 Pr520 2.880 . S
C522 C523 1.491 . S
C522 O540 1.254 . S
C522 O541 1.225 . S
C523 C522 1.491 . S
C523 C524 1.392 . S
C523 C528 1.356 . S
C524 C523 1.392 . S
C524 C525 1.368 . S
C524 H552 0.929 . S
C525 C524 1.368 . S
C525 C526 1.386 . S
C525 H553 0.929 . S
C526 C525 1.386 . S
C526 C527 1.373 . S
C527 C526 1.373 . S
C527 C528 1.409 . S
C527 H554 0.931 . S
C528 C523 1.356 . S
C528 C527 1.409 . S
C528 H555 0.930 . S
C529 O542 1.270 . S
C529 O543 1.248 . S
C530 O544 1.267 . S
C530 O545 1.278 . S
C531 Pr521 2.880 . S
C531 C532 1.491 . S
C531 O546 1.254 . S
C531 O547 1.225 . S
C532 C531 1.491 . S
C532 C533 1.392 . S
C532 C537 1.356 . S
C533 C532 1.392 . S
C533 C534 1.368 . S
C533 H556 0.929 . S
C534 C533 1.368 . S
C534 C535 1.386 . S
C534 H557 0.929 . S
C535 C534 1.386 . S
C535 C536 1.373 . S
C536 C535 1.373 . S
C536 C537 1.409 . S
C536 H558 0.931 . S
C537 C532 1.356 . S
C537 C536 1.409 . S
C537 H559 0.930 . S
C538 O548 1.270 . S
C538 O549 1.248 . S
C539 O550 1.267 . S
C539 O551 1.278 . S
O540 Pr520 2.562 . S
O540 C522 1.254 . S
O541 Pr520 2.490 . S
O541 C522 1.225 . S
O542 Pr520 2.695 . S
O542 Pr521 2.436 . S
O542 C529 1.270 . S
O543 Pr520 2.512 . S
O543 C529 1.248 . S
O544 Pr521 2.438 . S
O544 C530 1.267 . S
O545 Pr520 2.437 . S
O545 C530 1.278 . S
O546 Pr521 2.562 . S
O546 C531 1.254 . S
O547 Pr521 2.490 . S
O547 C531 1.225 . S
O548 Pr520 2.436 . S
O548 Pr521 2.695 . S
O548 C538 1.270 . S
O549 Pr521 2.512 . S
O549 C538 1.248 . S
O550 Pr520 2.438 . S
O550 C539 1.267 . S
O551 Pr521 2.437 . S
O551 C539 1.278 . S
H552 C524 0.929 . S
H553 C525 0.929 . S
H554 C527 0.931 . S
H555 C528 0.930 . S
H556 C533 0.929 . S
H557 C534 0.929 . S
H558 C536 0.931 . S
H559 C537 0.930 . S
Pr560 C562 2.880 . S
Pr560 O580 2.562 . S
Pr560 O581 2.490 . S
Pr560 O582 2.695 . S
Pr560 O583 2.512 . S
Pr560 O585 2.437 . S
Pr560 O588 2.436 . S
Pr560 O590 2.438 . S
Pr561 C571 2.880 . S
Pr561 O582 2.436 . S
Pr561 O584 2.438 . S
Pr561 O586 2.562 . S
Pr561 O587 2.490 . S
Pr561 O588 2.695 . S
Pr561 O589 2.512 . S
Pr561 O591 2.437 . S
C562 Pr560 2.880 . S
C562 C563 1.491 . S
C562 O580 1.254 . S
C562 O581 1.225 . S
C563 C562 1.491 . S
C563 C564 1.392 . S
C563 C568 1.356 . S
C564 C563 1.392 . S
C564 C565 1.368 . S
C564 H592 0.929 . S
C565 C564 1.368 . S
C565 C566 1.386 . S
C565 H593 0.929 . S
C566 C565 1.386 . S
C566 C567 1.373 . S
C567 C566 1.373 . S
C567 C568 1.409 . S
C567 H594 0.931 . S
C568 C563 1.356 . S
C568 C567 1.409 . S
C568 H595 0.930 . S
C569 O582 1.270 . S
C569 O583 1.248 . S
C570 O584 1.267 . S
C570 O585 1.278 . S
C571 Pr561 2.880 . S
C571 C572 1.491 . S
C571 O586 1.254 . S
C571 O587 1.225 . S
C572 C571 1.491 . S
C572 C573 1.392 . S
C572 C577 1.356 . S
C573 C572 1.392 . S
C573 C574 1.368 . S
C573 H596 0.929 . S
C574 C573 1.368 . S
C574 C575 1.386 . S
C574 H597 0.929 . S
C575 C574 1.386 . S
C575 C576 1.373 . S
C576 C575 1.373 . S
C576 C577 1.409 . S
C576 H598 0.931 . S
C577 C572 1.356 . S
C577 C576 1.409 . S
C577 H599 0.930 . S
C578 O588 1.270 . S
C578 O589 1.248 . S
C579 O590 1.267 . S
C579 O591 1.278 . S
O580 Pr560 2.562 . S
O580 C562 1.254 . S
O581 Pr560 2.490 . S
O581 C562 1.225 . S
O582 Pr560 2.695 . S
O582 Pr561 2.436 . S
O582 C569 1.270 . S
O583 Pr560 2.512 . S
O583 C569 1.248 . S
O584 Pr561 2.438 . S
O584 C570 1.267 . S
O585 Pr560 2.437 . S
O585 C570 1.278 . S
O586 Pr561 2.562 . S
O586 C571 1.254 . S
O587 Pr561 2.490 . S
O587 C571 1.225 . S
O588 Pr560 2.436 . S
O588 Pr561 2.695 . S
O588 C578 1.270 . S
O589 Pr561 2.512 . S
O589 C578 1.248 . S
O590 Pr560 2.438 . S
O590 C579 1.267 . S
O591 Pr561 2.437 . S
O591 C579 1.278 . S
H592 C564 0.929 . S
H593 C565 0.929 . S
H594 C567 0.931 . S
H595 C568 0.930 . S
H596 C573 0.929 . S
H597 C574 0.929 . S
H598 C576 0.931 . S
H599 C577 0.930 . S
Pr600 C602 2.880 . S
Pr600 O620 2.562 . S
Pr600 O621 2.490 . S
Pr600 O622 2.695 . S
Pr600 O623 2.512 . S
Pr600 O625 2.437 . S
Pr600 O628 2.436 . S
Pr600 O630 2.438 . S
Pr601 C611 2.880 . S
Pr601 O622 2.436 . S
Pr601 O624 2.438 . S
Pr601 O626 2.562 . S
Pr601 O627 2.490 . S
Pr601 O628 2.695 . S
Pr601 O629 2.512 . S
Pr601 O631 2.437 . S
C602 Pr600 2.880 . S
C602 C603 1.491 . S
C602 O620 1.254 . S
C602 O621 1.225 . S
C603 C602 1.491 . S
C603 C604 1.392 . S
C603 C608 1.356 . S
C604 C603 1.392 . S
C604 C605 1.368 . S
C604 H632 0.929 . S
C605 C604 1.368 . S
C605 C606 1.386 . S
C605 H633 0.929 . S
C606 C605 1.386 . S
C606 C607 1.373 1_655 S
C607 C606 1.373 1_455 S
C607 C608 1.409 1_455 S
C607 H634 0.931 . S
C608 C603 1.356 . S
C608 C607 1.409 1_655 S
C608 H635 0.930 1_655 S
C609 O622 1.270 . S
C609 O623 1.248 . S
C610 O624 1.267 . S
C610 O625 1.278 . S
C611 Pr601 2.880 . S
C611 C612 1.491 . S
C611 O626 1.254 . S
C611 O627 1.225 . S
C612 C611 1.491 . S
C612 C613 1.392 . S
C612 C617 1.356 . S
C613 C612 1.392 . S
C613 C614 1.368 . S
C613 H636 0.929 . S
C614 C613 1.368 . S
C614 C615 1.386 . S
C614 H637 0.929 . S
C615 C614 1.386 . S
C615 C616 1.373 . S
C616 C615 1.373 . S
C616 C617 1.409 . S
C616 H638 0.931 . S
C617 C612 1.356 . S
C617 C616 1.409 . S
C617 H639 0.930 . S
C618 O628 1.270 . S
C618 O629 1.248 . S
C619 O630 1.267 . S
C619 O631 1.278 . S
O620 Pr600 2.562 . S
O620 C602 1.254 . S
O621 Pr600 2.490 . S
O621 C602 1.225 . S
O622 Pr600 2.695 . S
O622 Pr601 2.436 . S
O622 C609 1.270 . S
O623 Pr600 2.512 . S
O623 C609 1.248 . S
O624 Pr601 2.438 . S
O624 C610 1.267 . S
O625 Pr600 2.437 . S
O625 C610 1.278 . S
O626 Pr601 2.562 . S
O626 C611 1.254 . S
O627 Pr601 2.490 . S
O627 C611 1.225 . S
O628 Pr600 2.436 . S
O628 Pr601 2.695 . S
O628 C618 1.270 . S
O629 Pr601 2.512 . S
O629 C618 1.248 . S
O630 Pr600 2.438 . S
O630 C619 1.267 . S
O631 Pr601 2.437 . S
O631 C619 1.278 . S
H632 C604 0.929 . S
H633 C605 0.929 . S
H634 C607 0.931 . S
H635 C608 0.930 1_455 S
H636 C613 0.929 . S
H637 C614 0.929 . S
H638 C616 0.931 . S
H639 C617 0.930 . S
Pr640 C642 2.880 . S
Pr640 O660 2.562 . S
Pr640 O661 2.490 . S
Pr640 O662 2.695 . S
Pr640 O663 2.512 . S
Pr640 O665 2.437 . S
Pr640 O668 2.436 . S
Pr640 O670 2.438 . S
Pr641 C651 2.880 . S
Pr641 O662 2.436 . S
Pr641 O664 2.438 . S
Pr641 O666 2.562 . S
Pr641 O667 2.490 . S
Pr641 O668 2.695 . S
Pr641 O669 2.512 . S
Pr641 O671 2.437 . S
C642 Pr640 2.880 . S
C642 C643 1.491 . S
C642 O660 1.254 . S
C642 O661 1.225 . S
C643 C642 1.491 . S
C643 C644 1.392 . S
C643 C648 1.356 . S
C644 C643 1.392 . S
C644 C645 1.368 . S
C644 H672 0.929 . S
C645 C644 1.368 . S
C645 C646 1.386 . S
C645 H673 0.929 . S
C646 C645 1.386 . S
C646 C647 1.373 . S
C647 C646 1.373 . S
C647 C648 1.409 . S
C647 H674 0.931 . S
C648 C643 1.356 . S
C648 C647 1.409 . S
C648 H675 0.930 . S
C649 O662 1.270 . S
C649 O663 1.248 . S
C650 O664 1.267 . S
C650 O665 1.278 . S
C651 Pr641 2.880 . S
C651 C652 1.491 . S
C651 O666 1.254 . S
C651 O667 1.225 . S
C652 C651 1.491 . S
C652 C653 1.392 . S
C652 C657 1.356 . S
C653 C652 1.392 . S
C653 C654 1.368 . S
C653 H676 0.929 . S
C654 C653 1.368 . S
C654 C655 1.386 . S
C654 H677 0.929 . S
C655 C654 1.386 . S
C655 C656 1.373 . S
C656 C655 1.373 . S
C656 C657 1.409 . S
C656 H678 0.931 . S
C657 C652 1.356 . S
C657 C656 1.409 . S
C657 H679 0.930 . S
C658 O668 1.270 . S
C658 O669 1.248 . S
C659 O670 1.267 . S
C659 O671 1.278 . S
O660 Pr640 2.562 . S
O660 C642 1.254 . S
O661 Pr640 2.490 . S
O661 C642 1.225 . S
O662 Pr640 2.695 . S
O662 Pr641 2.436 . S
O662 C649 1.270 . S
O663 Pr640 2.512 . S
O663 C649 1.248 . S
O664 Pr641 2.438 . S
O664 C650 1.267 . S
O665 Pr640 2.437 . S
O665 C650 1.278 . S
O666 Pr641 2.562 . S
O666 C651 1.254 . S
O667 Pr641 2.490 . S
O667 C651 1.225 . S
O668 Pr640 2.436 . S
O668 Pr641 2.695 . S
O668 C658 1.270 . S
O669 Pr641 2.512 . S
O669 C658 1.248 . S
O670 Pr640 2.438 . S
O670 C659 1.267 . S
O671 Pr641 2.437 . S
O671 C659 1.278 . S
H672 C644 0.929 . S
H673 C645 0.929 . S
H674 C647 0.931 . S
H675 C648 0.930 . S
H676 C653 0.929 . S
H677 C654 0.929 . S
H678 C656 0.931 . S
H679 C657 0.930 . S
Pr680 C682 2.880 . S
Pr680 O700 2.562 . S
Pr680 O701 2.490 . S
Pr680 O702 2.695 . S
Pr680 O703 2.512 . S
Pr680 O705 2.437 . S
Pr680 O708 2.436 . S
Pr680 O710 2.438 . S
Pr681 C691 2.880 . S
Pr681 O702 2.436 . S
Pr681 O704 2.438 . S
Pr681 O706 2.562 . S
Pr681 O707 2.490 . S
Pr681 O708 2.695 . S
Pr681 O709 2.512 . S
Pr681 O711 2.437 . S
C682 Pr680 2.880 . S
C682 C683 1.491 . S
C682 O700 1.254 . S
C682 O701 1.225 . S
C683 C682 1.491 . S
C683 C684 1.392 . S
C683 C688 1.356 . S
C684 C683 1.392 . S
C684 C685 1.368 . S
C684 H712 0.929 . S
C685 C684 1.368 . S
C685 C686 1.386 . S
C685 H713 0.929 . S
C686 C685 1.386 . S
C686 C687 1.373 1_545 S
C687 C686 1.373 1_565 S
C687 C688 1.409 1_565 S
C687 H714 0.931 . S
C688 C683 1.356 . S
C688 C687 1.409 1_545 S
C688 H715 0.930 1_545 S
C689 O702 1.270 . S
C689 O703 1.248 . S
C690 O704 1.267 . S
C690 O705 1.278 . S
C691 Pr681 2.880 . S
C691 C692 1.491 . S
C691 O706 1.254 . S
C691 O707 1.225 . S
C692 C691 1.491 . S
C692 C693 1.392 . S
C692 C697 1.356 . S
C693 C692 1.392 . S
C693 C694 1.368 . S
C693 H716 0.929 . S
C694 C693 1.368 . S
C694 C695 1.386 . S
C694 H717 0.929 . S
C695 C694 1.386 . S
C695 C696 1.373 . S
C696 C695 1.373 . S
C696 C697 1.409 . S
C696 H718 0.931 . S
C697 C692 1.356 . S
C697 C696 1.409 . S
C697 H719 0.930 . S
C698 O708 1.270 . S
C698 O709 1.248 . S
C699 O710 1.267 . S
C699 O711 1.278 . S
O700 Pr680 2.562 . S
O700 C682 1.254 . S
O701 Pr680 2.490 . S
O701 C682 1.225 . S
O702 Pr680 2.695 . S
O702 Pr681 2.436 . S
O702 C689 1.270 . S
O703 Pr680 2.512 . S
O703 C689 1.248 . S
O704 Pr681 2.438 . S
O704 C690 1.267 . S
O705 Pr680 2.437 . S
O705 C690 1.278 . S
O706 Pr681 2.562 . S
O706 C691 1.254 . S
O707 Pr681 2.490 . S
O707 C691 1.225 . S
O708 Pr680 2.436 . S
O708 Pr681 2.695 . S
O708 C698 1.270 . S
O709 Pr681 2.512 . S
O709 C698 1.248 . S
O710 Pr680 2.438 . S
O710 C699 1.267 . S
O711 Pr681 2.437 . S
O711 C699 1.278 . S
H712 C684 0.929 . S
H713 C685 0.929 . S
H714 C687 0.931 . S
H715 C688 0.930 1_565 S
H716 C693 0.929 . S
H717 C694 0.929 . S
H718 C696 0.931 . S
H719 C697 0.930 . S
Pr720 C722 2.880 . S
Pr720 O740 2.562 . S
Pr720 O741 2.490 . S
Pr720 O742 2.695 . S
Pr720 O743 2.512 . S
Pr720 O745 2.437 . S
Pr720 O748 2.436 . S
Pr720 O750 2.438 . S
Pr721 C731 2.880 . S
Pr721 O742 2.436 . S
Pr721 O744 2.438 . S
Pr721 O746 2.562 . S
Pr721 O747 2.490 . S
Pr721 O748 2.695 . S
Pr721 O749 2.512 . S
Pr721 O751 2.437 . S
C722 Pr720 2.880 . S
C722 C723 1.491 . S
C722 O740 1.254 . S
C722 O741 1.225 . S
C723 C722 1.491 . S
C723 C724 1.392 . S
C723 C728 1.356 . S
C724 C723 1.392 . S
C724 C725 1.368 . S
C724 H752 0.929 . S
C725 C724 1.368 . S
C725 C726 1.386 . S
C725 H753 0.929 . S
C726 C725 1.386 . S
C726 C727 1.373 . S
C727 C726 1.373 . S
C727 C728 1.409 . S
C727 H754 0.931 . S
C728 C723 1.356 . S
C728 C727 1.409 . S
C728 H755 0.930 . S
C729 O742 1.270 . S
C729 O743 1.248 . S
C730 O744 1.267 . S
C730 O745 1.278 . S
C731 Pr721 2.880 . S
C731 C732 1.491 . S
C731 O746 1.254 . S
C731 O747 1.225 . S
C732 C731 1.491 . S
C732 C733 1.392 . S
C732 C737 1.356 . S
C733 C732 1.392 . S
C733 C734 1.368 . S
C733 H756 0.929 . S
C734 C733 1.368 . S
C734 C735 1.386 . S
C734 H757 0.929 . S
C735 C734 1.386 . S
C735 C736 1.373 1_545 S
C736 C735 1.373 1_565 S
C736 C737 1.409 1_565 S
C736 H758 0.931 . S
C737 C732 1.356 . S
C737 C736 1.409 1_545 S
C737 H759 0.935 . S
C738 O748 1.270 . S
C738 O749 1.248 . S
C739 O750 1.267 . S
C739 O751 1.278 . S
O740 Pr720 2.562 . S
O740 C722 1.254 . S
O741 Pr720 2.490 . S
O741 C722 1.225 . S
O742 Pr720 2.695 . S
O742 Pr721 2.436 . S
O742 C729 1.270 . S
O743 Pr720 2.512 . S
O743 C729 1.248 . S
O744 Pr721 2.438 . S
O744 C730 1.267 . S
O745 Pr720 2.437 . S
O745 C730 1.278 . S
O746 Pr721 2.562 . S
O746 C731 1.254 . S
O747 Pr721 2.490 . S
O747 C731 1.225 . S
O748 Pr720 2.436 . S
O748 Pr721 2.695 . S
O748 C738 1.270 . S
O749 Pr721 2.512 . S
O749 C738 1.248 . S
O750 Pr720 2.438 . S
O750 C739 1.267 . S
O751 Pr721 2.437 . S
O751 C739 1.278 . S
H752 C724 0.929 . S
H753 C725 0.929 . S
H754 C727 0.931 . S
H755 C728 0.930 . S
H756 C733 0.929 . S
H757 C734 0.929 . S
H758 C736 0.931 . S
H759 C737 0.935 . S
Pr760 C762 2.880 . S
Pr760 O780 2.562 . S
Pr760 O781 2.490 . S
Pr760 O782 2.695 . S
Pr760 O783 2.512 . S
Pr760 O785 2.437 . S
Pr760 O788 2.436 . S
Pr760 O790 2.438 . S
Pr761 C771 2.880 . S
Pr761 O782 2.436 . S
Pr761 O784 2.438 . S
Pr761 O786 2.562 . S
Pr761 O787 2.490 . S
Pr761 O788 2.695 . S
Pr761 O789 2.512 . S
Pr761 O791 2.437 . S
C762 Pr760 2.880 . S
C762 C763 1.491 . S
C762 O780 1.254 . S
C762 O781 1.225 . S
C763 C762 1.491 . S
C763 C764 1.392 . S
C763 C768 1.356 . S
C764 C763 1.392 . S
C764 C765 1.368 . S
C764 H792 0.929 . S
C765 C764 1.368 . S
C765 C766 1.386 . S
C765 H793 0.929 . S
C766 C765 1.386 . S
C766 C767 1.373 . S
C767 C766 1.373 . S
C767 C768 1.409 . S
C767 H794 0.931 . S
C768 C763 1.356 . S
C768 C767 1.409 . S
C768 H795 0.930 . S
C769 O782 1.270 . S
C769 O783 1.248 . S
C770 O784 1.267 . S
C770 O785 1.278 . S
C771 Pr761 2.880 . S
C771 C772 1.491 . S
C771 O786 1.254 . S
C771 O787 1.225 . S
C772 C771 1.491 . S
C772 C773 1.392 . S
C772 C777 1.356 . S
C773 C772 1.392 . S
C773 C774 1.368 . S
C773 H796 0.929 . S
C774 C773 1.368 . S
C774 C775 1.386 . S
C774 H797 0.929 . S
C775 C774 1.386 . S
C775 C776 1.373 1_655 S
C776 C775 1.373 1_455 S
C776 C777 1.409 1_455 S
C776 H798 0.931 . S
C777 C772 1.356 . S
C777 C776 1.409 1_655 S
C777 H799 0.932 . S
C778 O788 1.270 . S
C778 O789 1.248 . S
C779 O790 1.267 . S
C779 O791 1.278 . S
O780 Pr760 2.562 . S
O780 C762 1.254 . S
O781 Pr760 2.490 . S
O781 C762 1.225 . S
O782 Pr760 2.695 . S
O782 Pr761 2.436 . S
O782 C769 1.270 . S
O783 Pr760 2.512 . S
O783 C769 1.248 . S
O784 Pr761 2.438 . S
O784 C770 1.267 . S
O785 Pr760 2.437 . S
O785 C770 1.278 . S
O786 Pr761 2.562 . S
O786 C771 1.254 . S
O787 Pr761 2.490 . S
O787 C771 1.225 . S
O788 Pr760 2.436 . S
O788 Pr761 2.695 . S
O788 C778 1.270 . S
O789 Pr761 2.512 . S
O789 C778 1.248 . S
O790 Pr760 2.438 . S
O790 C779 1.267 . S
O791 Pr761 2.437 . S
O791 C779 1.278 . S
H792 C764 0.929 . S
H793 C765 0.929 . S
H794 C767 0.931 . S
H795 C768 0.930 . S
H796 C773 0.929 . S
H797 C774 0.929 . S
H798 C776 0.931 . S
H799 C777 0.932 . S
Pr800 C802 2.880 . S
Pr800 O820 2.562 . S
Pr800 O821 2.490 . S
Pr800 O822 2.695 . S
Pr800 O823 2.512 . S
Pr800 O825 2.437 . S
Pr800 O828 2.436 . S
Pr800 O830 2.438 . S
Pr801 C811 2.880 . S
Pr801 O822 2.436 . S
Pr801 O824 2.438 . S
Pr801 O826 2.562 . S
Pr801 O827 2.490 . S
Pr801 O828 2.695 . S
Pr801 O829 2.512 . S
Pr801 O831 2.437 . S
C802 Pr800 2.880 . S
C802 C803 1.491 . S
C802 O820 1.254 . S
C802 O821 1.225 . S
C803 C802 1.491 . S
C803 C804 1.392 . S
C803 C808 1.356 . S
C804 C803 1.392 . S
C804 C805 1.368 . S
C804 H832 0.929 . S
C805 C804 1.368 . S
C805 C806 1.386 . S
C805 H833 0.929 . S
C806 C805 1.386 . S
C806 C807 1.373 . S
C807 C806 1.373 . S
C807 C808 1.409 . S
C807 H834 0.931 . S
C808 C803 1.356 . S
C808 C807 1.409 . S
C808 H835 0.930 . S
C809 O822 1.270 . S
C809 O823 1.248 . S
C810 O824 1.267 . S
C810 O825 1.278 . S
C811 Pr801 2.880 . S
C811 C812 1.491 . S
C811 O826 1.254 . S
C811 O827 1.225 . S
C812 C811 1.491 . S
C812 C813 1.392 . S
C812 C817 1.356 . S
C813 C812 1.392 . S
C813 C814 1.368 . S
C813 H836 0.929 . S
C814 C813 1.368 . S
C814 C815 1.386 . S
C814 H837 0.929 . S
C815 C814 1.386 . S
C815 C816 1.373 . S
C816 C815 1.373 . S
C816 C817 1.409 . S
C816 H838 0.931 . S
C817 C812 1.356 . S
C817 C816 1.409 . S
C817 H839 0.930 . S
C818 O828 1.270 . S
C818 O829 1.248 . S
C819 O830 1.267 . S
C819 O831 1.278 . S
O820 Pr800 2.562 . S
O820 C802 1.254 . S
O821 Pr800 2.490 . S
O821 C802 1.225 . S
O822 Pr800 2.695 . S
O822 Pr801 2.436 . S
O822 C809 1.270 . S
O823 Pr800 2.512 . S
O823 C809 1.248 . S
O824 Pr801 2.438 . S
O824 C810 1.267 . S
O825 Pr800 2.437 . S
O825 C810 1.278 . S
O826 Pr801 2.562 . S
O826 C811 1.254 . S
O827 Pr801 2.490 . S
O827 C811 1.225 . S
O828 Pr800 2.436 . S
O828 Pr801 2.695 . S
O828 C818 1.270 . S
O829 Pr801 2.512 . S
O829 C818 1.248 . S
O830 Pr800 2.438 . S
O830 C819 1.267 . S
O831 Pr801 2.437 . S
O831 C819 1.278 . S
H832 C804 0.929 . S
H833 C805 0.929 . S
H834 C807 0.931 . S
H835 C808 0.930 . S
H836 C813 0.929 . S
H837 C814 0.929 . S
H838 C816 0.931 . S
H839 C817 0.930 . S
Pr840 C842 2.880 . S
Pr840 O860 2.562 . S
Pr840 O861 2.490 . S
Pr840 O862 2.695 1_554 S
Pr840 O863 2.512 . S
Pr840 O865 2.437 . S
Pr840 O868 2.436 . S
Pr840 O870 2.438 . S
Pr841 C851 2.880 . S
Pr841 O862 2.436 . S
Pr841 O864 2.438 . S
Pr841 O866 2.562 . S
Pr841 O867 2.490 . S
Pr841 O868 2.695 1_556 S
Pr841 O869 2.512 . S
Pr841 O871 2.437 . S
C842 Pr840 2.880 . S
C842 C843 1.491 . S
C842 O860 1.254 . S
C842 O861 1.225 . S
C843 C842 1.491 . S
C843 C844 1.392 . S
C843 C848 1.356 . S
C844 C843 1.392 . S
C844 C845 1.368 . S
C844 H872 0.929 . S
C845 C844 1.368 . S
C845 C846 1.386 . S
C845 H873 0.929 . S
C846 C845 1.386 . S
C846 C847 1.373 . S
C847 C846 1.373 . S
C847 C848 1.409 . S
C847 H874 0.931 . S
C848 C843 1.356 . S
C848 C847 1.409 . S
C848 H875 0.930 . S
C849 O862 1.270 1_554 S
C849 O863 1.248 . S
C850 O864 1.267 1_554 S
C850 O865 1.278 . S
C851 Pr841 2.880 . S
C851 C852 1.491 . S
C851 O866 1.254 . S
C851 O867 1.225 . S
C852 C851 1.491 . S
C852 C853 1.392 . S
C852 C857 1.356 . S
C853 C852 1.392 . S
C853 C854 1.368 . S
C853 H876 0.929 . S
C854 C853 1.368 . S
C854 C855 1.386 . S
C854 H877 0.929 . S
C855 C854 1.386 . S
C855 C856 1.373 . S
C856 C855 1.373 . S
C856 C857 1.409 . S
C856 H878 0.931 . S
C857 C852 1.356 . S
C857 C856 1.409 . S
C857 H879 0.930 . S
C858 O868 1.270 1_556 S
C858 O869 1.248 . S
C859 O870 1.267 1_556 S
C859 O871 1.278 . S
O860 Pr840 2.562 . S
O860 C842 1.254 . S
O861 Pr840 2.490 . S
O861 C842 1.225 . S
O862 Pr840 2.695 1_556 S
O862 Pr841 2.436 . S
O862 C849 1.270 1_556 S
O863 Pr840 2.512 . S
O863 C849 1.248 . S
O864 Pr841 2.438 . S
O864 C850 1.267 1_556 S
O865 Pr840 2.437 . S
O865 C850 1.278 . S
O866 Pr841 2.562 . S
O866 C851 1.254 . S
O867 Pr841 2.490 . S
O867 C851 1.225 . S
O868 Pr840 2.436 . S
O868 Pr841 2.695 1_554 S
O868 C858 1.270 1_554 S
O869 Pr841 2.512 . S
O869 C858 1.248 . S
O870 Pr840 2.438 . S
O870 C859 1.267 1_554 S
O871 Pr841 2.437 . S
O871 C859 1.278 . S
H872 C844 0.929 . S
H873 C845 0.929 . S
H874 C847 0.931 . S
H875 C848 0.930 . S
H876 C853 0.929 . S
H877 C854 0.929 . S
H878 C856 0.931 . S
H879 C857 0.930 . S
Pr880 C882 2.880 . S
Pr880 O900 2.562 . S
Pr880 O901 2.490 . S
Pr880 O902 2.695 1_554 S
Pr880 O903 2.512 . S
Pr880 O905 2.437 . S
Pr880 O908 2.436 . S
Pr880 O910 2.438 . S
Pr881 C891 2.880 . S
Pr881 O902 2.436 . S
Pr881 O904 2.438 . S
Pr881 O906 2.562 . S
Pr881 O907 2.490 . S
Pr881 O908 2.695 1_556 S
Pr881 O909 2.512 . S
Pr881 O911 2.437 . S
C882 Pr880 2.880 . S
C882 C883 1.491 . S
C882 O900 1.254 . S
C882 O901 1.225 . S
C883 C882 1.491 . S
C883 C884 1.392 . S
C883 C888 1.356 . S
C884 C883 1.392 . S
C884 C885 1.368 . S
C884 H912 0.929 . S
C885 C884 1.368 . S
C885 C886 1.386 . S
C885 H913 0.929 . S
C886 C885 1.386 . S
C886 C887 1.373 . S
C887 C886 1.373 . S
C887 C888 1.409 . S
C887 H914 0.931 . S
C888 C883 1.356 . S
C888 C887 1.409 . S
C888 H915 0.930 . S
C889 O902 1.270 1_554 S
C889 O903 1.248 . S
C890 O904 1.267 1_554 S
C890 O905 1.278 . S
C891 Pr881 2.880 . S
C891 C892 1.491 . S
C891 O906 1.254 . S
C891 O907 1.225 . S
C892 C891 1.491 . S
C892 C893 1.392 . S
C892 C897 1.356 . S
C893 C892 1.392 . S
C893 C894 1.368 . S
C893 H916 0.929 . S
C894 C893 1.368 . S
C894 C895 1.386 . S
C894 H917 0.929 . S
C895 C894 1.386 . S
C895 C896 1.373 . S
C896 C895 1.373 . S
C896 C897 1.409 . S
C896 H918 0.931 . S
C897 C892 1.356 . S
C897 C896 1.409 . S
C897 H919 0.930 . S
C898 O908 1.270 1_556 S
C898 O909 1.248 . S
C899 O910 1.267 1_556 S
C899 O911 1.278 . S
O900 Pr880 2.562 . S
O900 C882 1.254 . S
O901 Pr880 2.490 . S
O901 C882 1.225 . S
O902 Pr880 2.695 1_556 S
O902 Pr881 2.436 . S
O902 C889 1.270 1_556 S
O903 Pr880 2.512 . S
O903 C889 1.248 . S
O904 Pr881 2.438 . S
O904 C890 1.267 1_556 S
O905 Pr880 2.437 . S
O905 C890 1.278 . S
O906 Pr881 2.562 . S
O906 C891 1.254 . S
O907 Pr881 2.490 . S
O907 C891 1.225 . S
O908 Pr880 2.436 . S
O908 Pr881 2.695 1_554 S
O908 C898 1.270 1_554 S
O909 Pr881 2.512 . S
O909 C898 1.248 . S
O910 Pr880 2.438 . S
O910 C899 1.267 1_554 S
O911 Pr881 2.437 . S
O911 C899 1.278 . S
H912 C884 0.929 . S
H913 C885 0.929 . S
H914 C887 0.931 . S
H915 C888 0.930 . S
H916 C893 0.929 . S
H917 C894 0.929 . S
H918 C896 0.931 . S
H919 C897 0.930 . S
Pr920 C922 2.880 . S
Pr920 O940 2.562 . S
Pr920 O941 2.490 . S
Pr920 O942 2.695 1_554 S
Pr920 O943 2.512 . S
Pr920 O945 2.437 . S
Pr920 O948 2.436 . S
Pr920 O950 2.438 . S
Pr921 C931 2.880 . S
Pr921 O942 2.436 . S
Pr921 O944 2.438 . S
Pr921 O946 2.562 . S
Pr921 O947 2.490 . S
Pr921 O948 2.695 1_556 S
Pr921 O949 2.512 . S
Pr921 O951 2.437 . S
C922 Pr920 2.880 . S
C922 C923 1.491 . S
C922 O940 1.254 . S
C922 O941 1.225 . S
C923 C922 1.491 . S
C923 C924 1.392 . S
C923 C928 1.356 . S
C924 C923 1.392 . S
C924 C925 1.368 . S
C924 H952 0.929 . S
C925 C924 1.368 . S
C925 C926 1.386 . S
C925 H953 0.929 . S
C926 C925 1.386 . S
C926 C927 1.373 . S
C927 C926 1.373 . S
C927 C928 1.409 . S
C927 H954 0.931 . S
C928 C923 1.356 . S
C928 C927 1.409 . S
C928 H955 0.930 . S
C929 O942 1.270 1_554 S
C929 O943 1.248 . S
C930 O944 1.267 1_554 S
C930 O945 1.278 . S
C931 Pr921 2.880 . S
C931 C932 1.491 . S
C931 O946 1.254 . S
C931 O947 1.225 . S
C932 C931 1.491 . S
C932 C933 1.392 . S
C932 C937 1.356 . S
C933 C932 1.392 . S
C933 C934 1.368 . S
C933 H956 0.929 . S
C934 C933 1.368 . S
C934 C935 1.386 . S
C934 H957 0.929 . S
C935 C934 1.386 . S
C935 C936 1.373 . S
C936 C935 1.373 . S
C936 C937 1.409 . S
C936 H958 0.931 . S
C937 C932 1.356 . S
C937 C936 1.409 . S
C937 H959 0.930 . S
C938 O948 1.270 1_556 S
C938 O949 1.248 . S
C939 O950 1.267 1_556 S
C939 O951 1.278 . S
O940 Pr920 2.562 . S
O940 C922 1.254 . S
O941 Pr920 2.490 . S
O941 C922 1.225 . S
O942 Pr920 2.695 1_556 S
O942 Pr921 2.436 . S
O942 C929 1.270 1_556 S
O943 Pr920 2.512 . S
O943 C929 1.248 . S
O944 Pr921 2.438 . S
O944 C930 1.267 1_556 S
O945 Pr920 2.437 . S
O945 C930 1.278 . S
O946 Pr921 2.562 . S
O946 C931 1.254 . S
O947 Pr921 2.490 . S
O947 C931 1.225 . S
O948 Pr920 2.436 . S
O948 Pr921 2.695 1_554 S
O948 C938 1.270 1_554 S
O949 Pr921 2.512 . S
O949 C938 1.248 . S
O950 Pr920 2.438 . S
O950 C939 1.267 1_554 S
O951 Pr921 2.437 . S
O951 C939 1.278 . S
H952 C924 0.929 . S
H953 C925 0.929 . S
H954 C927 0.931 . S
H955 C928 0.930 . S
H956 C933 0.929 . S
H957 C934 0.929 . S
H958 C936 0.931 . S
H959 C937 0.930 . S
Pr960 C962 2.880 . S
Pr960 O980 2.562 . S
Pr960 O981 2.490 . S
Pr960 O982 2.695 . S
Pr960 O983 2.512 . S
Pr960 O985 2.437 . S
Pr960 O988 2.436 . S
Pr960 O990 2.438 . S
Pr961 C971 2.880 . S
Pr961 O982 2.436 . S
Pr961 O984 2.438 . S
Pr961 O986 2.562 . S
Pr961 O987 2.490 . S
Pr961 O988 2.695 . S
Pr961 O989 2.512 . S
Pr961 O991 2.437 . S
C962 Pr960 2.880 . S
C962 C963 1.491 . S
C962 O980 1.254 . S
C962 O981 1.225 . S
C963 C962 1.491 . S
C963 C964 1.392 . S
C963 C968 1.356 . S
C964 C963 1.392 . S
C964 C965 1.368 . S
C964 H992 0.929 . S
C965 C964 1.368 . S
C965 C966 1.386 . S
C965 H993 0.929 . S
C966 C965 1.386 . S
C966 C967 1.373 1_565 S
C967 C966 1.373 1_545 S
C967 C968 1.409 1_545 S
C967 H994 0.931 . S
C968 C963 1.356 . S
C968 C967 1.409 1_565 S
C968 H995 0.935 . S
C969 O982 1.270 . S
C969 O983 1.248 . S
C970 O984 1.267 . S
C970 O985 1.278 . S
C971 Pr961 2.880 . S
C971 C972 1.491 . S
C971 O986 1.254 . S
C971 O987 1.225 . S
C972 C971 1.491 . S
C972 C973 1.392 . S
C972 C977 1.356 . S
C973 C972 1.392 . S
C973 C974 1.368 . S
C973 H996 0.929 . S
C974 C973 1.368 . S
C974 C975 1.386 . S
C974 H997 0.929 . S
C975 C974 1.386 . S
C975 C976 1.373 . S
C976 C975 1.373 . S
C976 C977 1.409 . S
C976 H998 0.931 . S
C977 C972 1.356 . S
C977 C976 1.409 . S
C977 H999 0.930 . S
C978 O988 1.270 . S
C978 O989 1.248 . S
C979 O990 1.267 . S
C979 O991 1.278 . S
O980 Pr960 2.562 . S
O980 C962 1.254 . S
O981 Pr960 2.490 . S
O981 C962 1.225 . S
O982 Pr960 2.695 . S
O982 Pr961 2.436 . S
O982 C969 1.270 . S
O983 Pr960 2.512 . S
O983 C969 1.248 . S
O984 Pr961 2.438 . S
O984 C970 1.267 . S
O985 Pr960 2.437 . S
O985 C970 1.278 . S
O986 Pr961 2.562 . S
O986 C971 1.254 . S
O987 Pr961 2.490 . S
O987 C971 1.225 . S
O988 Pr960 2.436 . S
O988 Pr961 2.695 . S
O988 C978 1.270 . S
O989 Pr961 2.512 . S
O989 C978 1.248 . S
O990 Pr960 2.438 . S
O990 C979 1.267 . S
O991 Pr961 2.437 . S
O991 C979 1.278 . S
H992 C964 0.929 . S
H993 C965 0.929 . S
H994 C967 0.931 . S
H995 C968 0.935 . S
H996 C973 0.929 . S
H997 C974 0.929 . S
H998 C976 0.931 . S
H999 C977 0.930 . S
Pr1000 C1002 2.880 . S
Pr1000 O1020 2.562 . S
Pr1000 O1021 2.490 . S
Pr1000 O1022 2.695 . S
Pr1000 O1023 2.512 . S
Pr1000 O1025 2.437 . S
Pr1000 O1028 2.436 . S
Pr1000 O1030 2.438 . S
Pr1001 C1011 2.880 . S
Pr1001 O1022 2.436 . S
Pr1001 O1024 2.438 . S
Pr1001 O1026 2.562 . S
Pr1001 O1027 2.490 . S
Pr1001 O1028 2.695 . S
Pr1001 O1029 2.512 . S
Pr1001 O1031 2.437 . S
C1002 Pr1000 2.880 . S
C1002 C1003 1.491 . S
C1002 O1020 1.254 . S
C1002 O1021 1.225 . S
C1003 C1002 1.491 . S
C1003 C1004 1.392 . S
C1003 C1008 1.356 . S
C1004 C1003 1.392 . S
C1004 C1005 1.368 . S
C1004 H1032 0.929 . S
C1005 C1004 1.368 . S
C1005 C1006 1.386 . S
C1005 H1033 0.929 . S
C1006 C1005 1.386 . S
C1006 C1007 1.373 1_455 S
C1007 C1006 1.373 1_655 S
C1007 C1008 1.409 1_655 S
C1007 H1034 0.931 . S
C1008 C1003 1.356 . S
C1008 C1007 1.409 1_455 S
C1008 H1035 0.932 . S
C1009 O1022 1.270 . S
C1009 O1023 1.248 . S
C1010 O1024 1.267 . S
C1010 O1025 1.278 . S
C1011 Pr1001 2.880 . S
C1011 C1012 1.491 . S
C1011 O1026 1.254 . S
C1011 O1027 1.225 . S
C1012 C1011 1.491 . S
C1012 C1013 1.392 . S
C1012 C1017 1.356 . S
C1013 C1012 1.392 . S
C1013 C1014 1.368 . S
C1013 H1036 0.929 . S
C1014 C1013 1.368 . S
C1014 C1015 1.386 . S
C1014 H1037 0.929 . S
C1015 C1014 1.386 . S
C1015 C1016 1.373 . S
C1016 C1015 1.373 . S
C1016 C1017 1.409 . S
C1016 H1038 0.931 . S
C1017 C1012 1.356 . S
C1017 C1016 1.409 . S
C1017 H1039 0.930 . S
C1018 O1028 1.270 . S
C1018 O1029 1.248 . S
C1019 O1030 1.267 . S
C1019 O1031 1.278 . S
O1020 Pr1000 2.562 . S
O1020 C1002 1.254 . S
O1021 Pr1000 2.490 . S
O1021 C1002 1.225 . S
O1022 Pr1000 2.695 . S
O1022 Pr1001 2.436 . S
O1022 C1009 1.270 . S
O1023 Pr1000 2.512 . S
O1023 C1009 1.248 . S
O1024 Pr1001 2.438 . S
O1024 C1010 1.267 . S
O1025 Pr1000 2.437 . S
O1025 C1010 1.278 . S
O1026 Pr1001 2.562 . S
O1026 C1011 1.254 . S
O1027 Pr1001 2.490 . S
O1027 C1011 1.225 . S
O1028 Pr1000 2.436 . S
O1028 Pr1001 2.695 . S
O1028 C1018 1.270 . S
O1029 Pr1001 2.512 . S
O1029 C1018 1.248 . S
O1030 Pr1000 2.438 . S
O1030 C1019 1.267 . S
O1031 Pr1001 2.437 . S
O1031 C1019 1.278 . S
H1032 C1004 0.929 . S
H1033 C1005 0.929 . S
H1034 C1007 0.931 . S
H1035 C1008 0.932 . S
H1036 C1013 0.929 . S
H1037 C1014 0.929 . S
H1038 C1016 0.931 . S
H1039 C1017 0.930 . S
Pr1040 C1042 2.880 . S
Pr1040 O1060 2.562 . S
Pr1040 O1061 2.490 . S
Pr1040 O1062 2.695 . S
Pr1040 O1063 2.512 . S
Pr1040 O1065 2.437 . S
Pr1040 O1068 2.436 . S
Pr1040 O1070 2.438 . S
Pr1041 C1051 2.880 . S
Pr1041 O1062 2.436 . S
Pr1041 O1064 2.438 . S
Pr1041 O1066 2.562 . S
Pr1041 O1067 2.490 . S
Pr1041 O1068 2.695 . S
Pr1041 O1069 2.512 . S
Pr1041 O1071 2.437 . S
C1042 Pr1040 2.880 . S
C1042 C1043 1.491 . S
C1042 O1060 1.254 . S
C1042 O1061 1.225 . S
C1043 C1042 1.491 . S
C1043 C1044 1.392 . S
C1043 C1048 1.356 . S
C1044 C1043 1.392 . S
C1044 C1045 1.368 . S
C1044 H1072 0.929 . S
C1045 C1044 1.368 . S
C1045 C1046 1.386 . S
C1045 H1073 0.929 . S
C1046 C1045 1.386 . S
C1046 C1047 1.373 . S
C1047 C1046 1.373 . S
C1047 C1048 1.409 . S
C1047 H1074 0.931 . S
C1048 C1043 1.356 . S
C1048 C1047 1.409 . S
C1048 H1075 0.930 . S
C1049 O1062 1.270 . S
C1049 O1063 1.248 . S
C1050 O1064 1.267 . S
C1050 O1065 1.278 . S
C1051 Pr1041 2.880 . S
C1051 C1052 1.491 . S
C1051 O1066 1.254 . S
C1051 O1067 1.225 . S
C1052 C1051 1.491 . S
C1052 C1053 1.392 . S
C1052 C1057 1.356 . S
C1053 C1052 1.392 . S
C1053 C1054 1.368 . S
C1053 H1076 0.929 . S
C1054 C1053 1.368 . S
C1054 C1055 1.386 . S
C1054 H1077 0.929 . S
C1055 C1054 1.386 . S
C1055 C1056 1.373 . S
C1056 C1055 1.373 . S
C1056 C1057 1.409 . S
C1056 H1078 0.931 . S
C1057 C1052 1.356 . S
C1057 C1056 1.409 . S
C1057 H1079 0.930 . S
C1058 O1068 1.270 . S
C1058 O1069 1.248 . S
C1059 O1070 1.267 . S
C1059 O1071 1.278 . S
O1060 Pr1040 2.562 . S
O1060 C1042 1.254 . S
O1061 Pr1040 2.490 . S
O1061 C1042 1.225 . S
O1062 Pr1040 2.695 . S
O1062 Pr1041 2.436 . S
O1062 C1049 1.270 . S
O1063 Pr1040 2.512 . S
O1063 C1049 1.248 . S
O1064 Pr1041 2.438 . S
O1064 C1050 1.267 . S
O1065 Pr1040 2.437 . S
O1065 C1050 1.278 . S
O1066 Pr1041 2.562 . S
O1066 C1051 1.254 . S
O1067 Pr1041 2.490 . S
O1067 C1051 1.225 . S
O1068 Pr1040 2.436 . S
O1068 Pr1041 2.695 . S
O1068 C1058 1.270 . S
O1069 Pr1041 2.512 . S
O1069 C1058 1.248 . S
O1070 Pr1040 2.438 . S
O1070 C1059 1.267 . S
O1071 Pr1041 2.437 . S
O1071 C1059 1.278 . S
H1072 C1044 0.929 . S
H1073 C1045 0.929 . S
H1074 C1047 0.931 . S
H1075 C1048 0.930 . S
H1076 C1053 0.929 . S
H1077 C1054 0.929 . S
H1078 C1056 0.931 . S
H1079 C1057 0.930 . S
Pr1080 C1082 2.880 . S
Pr1080 O1100 2.562 . S
Pr1080 O1101 2.490 . S
Pr1080 O1102 2.695 1_554 S
Pr1080 O1103 2.512 . S
Pr1080 O1105 2.437 . S
Pr1080 O1108 2.436 . S
Pr1080 O1110 2.438 . S
Pr1081 C1091 2.880 . S
Pr1081 O1102 2.436 . S
Pr1081 O1104 2.438 . S
Pr1081 O1106 2.562 . S
Pr1081 O1107 2.490 . S
Pr1081 O1108 2.695 1_556 S
Pr1081 O1109 2.512 . S
Pr1081 O1111 2.437 . S
C1082 Pr1080 2.880 . S
C1082 C1083 1.491 . S
C1082 O1100 1.254 . S
C1082 O1101 1.225 . S
C1083 C1082 1.491 . S
C1083 C1084 1.392 . S
C1083 C1088 1.356 . S
C1084 C1083 1.392 . S
C1084 C1085 1.368 . S
C1084 H1112 0.929 . S
C1085 C1084 1.368 . S
C1085 C1086 1.386 . S
C1085 H1113 0.929 . S
C1086 C1085 1.386 . S
C1086 C1087 1.373 . S
C1087 C1086 1.373 . S
C1087 C1088 1.409 . S
C1087 H1114 0.931 . S
C1088 C1083 1.356 . S
C1088 C1087 1.409 . S
C1088 H1115 0.930 . S
C1089 O1102 1.270 1_554 S
C1089 O1103 1.248 . S
C1090 O1104 1.267 1_554 S
C1090 O1105 1.278 . S
C1091 Pr1081 2.880 . S
C1091 C1092 1.491 . S
C1091 O1106 1.254 . S
C1091 O1107 1.225 . S
C1092 C1091 1.491 . S
C1092 C1093 1.392 . S
C1092 C1097 1.356 . S
C1093 C1092 1.392 . S
C1093 C1094 1.368 . S
C1093 H1116 0.929 . S
C1094 C1093 1.368 . S
C1094 C1095 1.386 . S
C1094 H1117 0.929 . S
C1095 C1094 1.386 . S
C1095 C1096 1.373 . S
C1096 C1095 1.373 . S
C1096 C1097 1.409 . S
C1096 H1118 0.931 . S
C1097 C1092 1.356 . S
C1097 C1096 1.409 . S
C1097 H1119 0.930 . S
C1098 O1108 1.270 1_556 S
C1098 O1109 1.248 . S
C1099 O1110 1.267 1_556 S
C1099 O1111 1.278 . S
O1100 Pr1080 2.562 . S
O1100 C1082 1.254 . S
O1101 Pr1080 2.490 . S
O1101 C1082 1.225 . S
O1102 Pr1080 2.695 1_556 S
O1102 Pr1081 2.436 . S
O1102 C1089 1.270 1_556 S
O1103 Pr1080 2.512 . S
O1103 C1089 1.248 . S
O1104 Pr1081 2.438 . S
O1104 C1090 1.267 1_556 S
O1105 Pr1080 2.437 . S
O1105 C1090 1.278 . S
O1106 Pr1081 2.562 . S
O1106 C1091 1.254 . S
O1107 Pr1081 2.490 . S
O1107 C1091 1.225 . S
O1108 Pr1080 2.436 . S
O1108 Pr1081 2.695 1_554 S
O1108 C1098 1.270 1_554 S
O1109 Pr1081 2.512 . S
O1109 C1098 1.248 . S
O1110 Pr1080 2.438 . S
O1110 C1099 1.267 1_554 S
O1111 Pr1081 2.437 . S
O1111 C1099 1.278 . S
H1112 C1084 0.929 . S
H1113 C1085 0.929 . S
H1114 C1087 0.931 . S
H1115 C1088 0.930 . S
H1116 C1093 0.929 . S
H1117 C1094 0.929 . S
H1118 C1096 0.931 . S
H1119 C1097 0.930 . S
Pr1120 C1122 2.880 . S
Pr1120 O1140 2.562 . S
Pr1120 O1141 2.490 . S
Pr1120 O1142 2.695 1_554 S
Pr1120 O1143 2.512 . S
Pr1120 O1145 2.437 . S
Pr1120 O1148 2.436 . S
Pr1120 O1150 2.438 . S
Pr1121 C1131 2.880 . S
Pr1121 O1142 2.436 . S
Pr1121 O1144 2.438 . S
Pr1121 O1146 2.562 . S
Pr1121 O1147 2.490 . S
Pr1121 O1148 2.695 1_556 S
Pr1121 O1149 2.512 . S
Pr1121 O1151 2.437 . S
C1122 Pr1120 2.880 . S
C1122 C1123 1.491 . S
C1122 O1140 1.254 . S
C1122 O1141 1.225 . S
C1123 C1122 1.491 . S
C1123 C1124 1.392 . S
C1123 C1128 1.356 . S
C1124 C1123 1.392 . S
C1124 C1125 1.368 . S
C1124 H1152 0.929 . S
C1125 C1124 1.368 . S
C1125 C1126 1.386 . S
C1125 H1153 0.929 . S
C1126 C1125 1.386 . S
C1126 C1127 1.373 . S
C1127 C1126 1.373 . S
C1127 C1128 1.409 . S
C1127 H1154 0.931 . S
C1128 C1123 1.356 . S
C1128 C1127 1.409 . S
C1128 H1155 0.930 . S
C1129 O1142 1.270 1_554 S
C1129 O1143 1.248 . S
C1130 O1144 1.267 1_554 S
C1130 O1145 1.278 . S
C1131 Pr1121 2.880 . S
C1131 C1132 1.491 . S
C1131 O1146 1.254 . S
C1131 O1147 1.225 . S
C1132 C1131 1.491 . S
C1132 C1133 1.392 . S
C1132 C1137 1.356 . S
C1133 C1132 1.392 . S
C1133 C1134 1.368 . S
C1133 H1156 0.929 . S
C1134 C1133 1.368 . S
C1134 C1135 1.386 . S
C1134 H1157 0.929 . S
C1135 C1134 1.386 . S
C1135 C1136 1.373 . S
C1136 C1135 1.373 . S
C1136 C1137 1.409 . S
C1136 H1158 0.931 . S
C1137 C1132 1.356 . S
C1137 C1136 1.409 . S
C1137 H1159 0.930 . S
C1138 O1148 1.270 1_556 S
C1138 O1149 1.248 . S
C1139 O1150 1.267 1_556 S
C1139 O1151 1.278 . S
O1140 Pr1120 2.562 . S
O1140 C1122 1.254 . S
O1141 Pr1120 2.490 . S
O1141 C1122 1.225 . S
O1142 Pr1120 2.695 1_556 S
O1142 Pr1121 2.436 . S
O1142 C1129 1.270 1_556 S
O1143 Pr1120 2.512 . S
O1143 C1129 1.248 . S
O1144 Pr1121 2.438 . S
O1144 C1130 1.267 1_556 S
O1145 Pr1120 2.437 . S
O1145 C1130 1.278 . S
O1146 Pr1121 2.562 . S
O1146 C1131 1.254 . S
O1147 Pr1121 2.490 . S
O1147 C1131 1.225 . S
O1148 Pr1120 2.436 . S
O1148 Pr1121 2.695 1_554 S
O1148 C1138 1.270 1_554 S
O1149 Pr1121 2.512 . S
O1149 C1138 1.248 . S
O1150 Pr1120 2.438 . S
O1150 C1139 1.267 1_554 S
O1151 Pr1121 2.437 . S
O1151 C1139 1.278 . S
H1152 C1124 0.929 . S
H1153 C1125 0.929 . S
H1154 C1127 0.931 . S
H1155 C1128 0.930 . S
H1156 C1133 0.929 . S
H1157 C1134 0.929 . S
H1158 C1136 0.931 . S
H1159 C1137 0.930 . S
Pr1160 C1162 2.880 . S
Pr1160 O1180 2.562 . S
Pr1160 O1181 2.490 . S
Pr1160 O1182 2.695 1_554 S
Pr1160 O1183 2.512 . S
Pr1160 O1185 2.437 . S
Pr1160 O1188 2.436 . S
Pr1160 O1190 2.438 . S
Pr1161 C1171 2.880 . S
Pr1161 O1182 2.436 . S
Pr1161 O1184 2.438 . S
Pr1161 O1186 2.562 . S
Pr1161 O1187 2.490 . S
Pr1161 O1188 2.695 1_556 S
Pr1161 O1189 2.512 . S
Pr1161 O1191 2.437 . S
C1162 Pr1160 2.880 . S
C1162 C1163 1.491 . S
C1162 O1180 1.254 . S
C1162 O1181 1.225 . S
C1163 C1162 1.491 . S
C1163 C1164 1.392 . S
C1163 C1168 1.356 . S
C1164 C1163 1.392 . S
C1164 C1165 1.368 . S
C1164 H1192 0.929 . S
C1165 C1164 1.368 . S
C1165 C1166 1.386 . S
C1165 H1193 0.929 . S
C1166 C1165 1.386 . S
C1166 C1167 1.373 . S
C1167 C1166 1.373 . S
C1167 C1168 1.409 . S
C1167 H1194 0.931 . S
C1168 C1163 1.356 . S
C1168 C1167 1.409 . S
C1168 H1195 0.930 . S
C1169 O1182 1.270 1_554 S
C1169 O1183 1.248 . S
C1170 O1184 1.267 1_554 S
C1170 O1185 1.278 . S
C1171 Pr1161 2.880 . S
C1171 C1172 1.491 . S
C1171 O1186 1.254 . S
C1171 O1187 1.225 . S
C1172 C1171 1.491 . S
C1172 C1173 1.392 . S
C1172 C1177 1.356 . S
C1173 C1172 1.392 . S
C1173 C1174 1.368 . S
C1173 H1196 0.929 . S
C1174 C1173 1.368 . S
C1174 C1175 1.386 . S
C1174 H1197 0.929 . S
C1175 C1174 1.386 . S
C1175 C1176 1.373 . S
C1176 C1175 1.373 . S
C1176 C1177 1.409 . S
C1176 H1198 0.931 . S
C1177 C1172 1.356 . S
C1177 C1176 1.409 . S
C1177 H1199 0.930 . S
C1178 O1188 1.270 1_556 S
C1178 O1189 1.248 . S
C1179 O1190 1.267 1_556 S
C1179 O1191 1.278 . S
O1180 Pr1160 2.562 . S
O1180 C1162 1.254 . S
O1181 Pr1160 2.490 . S
O1181 C1162 1.225 . S
O1182 Pr1160 2.695 1_556 S
O1182 Pr1161 2.436 . S
O1182 C1169 1.270 1_556 S
O1183 Pr1160 2.512 . S
O1183 C1169 1.248 . S
O1184 Pr1161 2.438 . S
O1184 C1170 1.267 1_556 S
O1185 Pr1160 2.437 . S
O1185 C1170 1.278 . S
O1186 Pr1161 2.562 . S
O1186 C1171 1.254 . S
O1187 Pr1161 2.490 . S
O1187 C1171 1.225 . S
O1188 Pr1160 2.436 . S
O1188 Pr1161 2.695 1_554 S
O1188 C1178 1.270 1_554 S
O1189 Pr1161 2.512 . S
O1189 C1178 1.248 . S
O1190 Pr1160 2.438 . S
O1190 C1179 1.267 1_554 S
O1191 Pr1161 2.437 . S
O1191 C1179 1.278 . S
H1192 C1164 0.929 . S
H1193 C1165 0.929 . S
H1194 C1167 0.931 . S
H1195 C1168 0.930 . S
H1196 C1173 0.929 . S
H1197 C1174 0.929 . S
H1198 C1176 0.931 . S
H1199 C1177 0.930 . S
Pr1200 C1202 2.880 . S
Pr1200 O1220 2.562 . S
Pr1200 O1221 2.490 . S
Pr1200 O1222 2.695 . S
Pr1200 O1223 2.512 . S
Pr1200 O1225 2.437 . S
Pr1200 O1228 2.436 . S
Pr1200 O1230 2.438 . S
Pr1201 C1211 2.880 . S
Pr1201 O1222 2.436 . S
Pr1201 O1224 2.438 . S
Pr1201 O1226 2.562 . S
Pr1201 O1227 2.490 . S
Pr1201 O1228 2.695 . S
Pr1201 O1229 2.512 . S
Pr1201 O1231 2.437 . S
C1202 Pr1200 2.880 . S
C1202 C1203 1.491 . S
C1202 O1220 1.254 . S
C1202 O1221 1.225 . S
C1203 C1202 1.491 . S
C1203 C1204 1.392 . S
C1203 C1208 1.356 . S
C1204 C1203 1.392 . S
C1204 C1205 1.368 . S
C1204 H1232 0.929 . S
C1205 C1204 1.368 . S
C1205 C1206 1.386 . S
C1205 H1233 0.929 . S
C1206 C1205 1.386 . S
C1206 C1207 1.373 . S
C1207 C1206 1.373 . S
C1207 C1208 1.409 . S
C1207 H1234 0.931 . S
C1208 C1203 1.356 . S
C1208 C1207 1.409 . S
C1208 H1235 0.930 . S
C1209 O1222 1.270 . S
C1209 O1223 1.248 . S
C1210 O1224 1.267 . S
C1210 O1225 1.278 . S
C1211 Pr1201 2.880 . S
C1211 C1212 1.491 . S
C1211 O1226 1.254 . S
C1211 O1227 1.225 . S
C1212 C1211 1.491 . S
C1212 C1213 1.392 . S
C1212 C1217 1.356 . S
C1213 C1212 1.392 . S
C1213 C1214 1.368 . S
C1213 H1236 0.929 . S
C1214 C1213 1.368 . S
C1214 C1215 1.386 . S
C1214 H1237 0.929 . S
C1215 C1214 1.386 . S
C1215 C1216 1.373 . S
C1216 C1215 1.373 . S
C1216 C1217 1.409 . S
C1216 H1238 0.931 . S
C1217 C1212 1.356 . S
C1217 C1216 1.409 . S
C1217 H1239 0.930 . S
C1218 O1228 1.270 . S
C1218 O1229 1.248 . S
C1219 O1230 1.267 . S
C1219 O1231 1.278 . S
O1220 Pr1200 2.562 . S
O1220 C1202 1.254 . S
O1221 Pr1200 2.490 . S
O1221 C1202 1.225 . S
O1222 Pr1200 2.695 . S
O1222 Pr1201 2.436 . S
O1222 C1209 1.270 . S
O1223 Pr1200 2.512 . S
O1223 C1209 1.248 . S
O1224 Pr1201 2.438 . S
O1224 C1210 1.267 . S
O1225 Pr1200 2.437 . S
O1225 C1210 1.278 . S
O1226 Pr1201 2.562 . S
O1226 C1211 1.254 . S
O1227 Pr1201 2.490 . S
O1227 C1211 1.225 . S
O1228 Pr1200 2.436 . S
O1228 Pr1201 2.695 . S
O1228 C1218 1.270 . S
O1229 Pr1201 2.512 . S
O1229 C1218 1.248 . S
O1230 Pr1200 2.438 . S
O1230 C1219 1.267 . S
O1231 Pr1201 2.437 . S
O1231 C1219 1.278 . S
H1232 C1204 0.929 . S
H1233 C1205 0.929 . S
H1234 C1207 0.931 . S
H1235 C1208 0.930 . S
H1236 C1213 0.929 . S
H1237 C1214 0.929 . S
H1238 C1216 0.931 . S
H1239 C1217 0.930 . S
Pr1240 C1242 2.880 . S
Pr1240 O1260 2.562 . S
Pr1240 O1261 2.490 . S
Pr1240 O1262 2.695 . S
Pr1240 O1263 2.512 . S
Pr1240 O1265 2.437 . S
Pr1240 O1268 2.436 . S
Pr1240 O1270 2.438 . S
Pr1241 C1251 2.880 . S
Pr1241 O1262 2.436 . S
Pr1241 O1264 2.438 . S
Pr1241 O1266 2.562 . S
Pr1241 O1267 2.490 . S
Pr1241 O1268 2.695 . S
Pr1241 O1269 2.512 . S
Pr1241 O1271 2.437 . S
C1242 Pr1240 2.880 . S
C1242 C1243 1.491 . S
C1242 O1260 1.254 . S
C1242 O1261 1.225 . S
C1243 C1242 1.491 . S
C1243 C1244 1.392 . S
C1243 C1248 1.356 . S
C1244 C1243 1.392 . S
C1244 C1245 1.368 . S
C1244 H1272 0.929 . S
C1245 C1244 1.368 . S
C1245 C1246 1.386 . S
C1245 H1273 0.929 . S
C1246 C1245 1.386 . S
C1246 C1247 1.373 . S
C1247 C1246 1.373 . S
C1247 C1248 1.409 . S
C1247 H1274 0.931 . S
C1248 C1243 1.356 . S
C1248 C1247 1.409 . S
C1248 H1275 0.930 . S
C1249 O1262 1.270 . S
C1249 O1263 1.248 . S
C1250 O1264 1.267 . S
C1250 O1265 1.278 . S
C1251 Pr1241 2.880 . S
C1251 C1252 1.491 . S
C1251 O1266 1.254 . S
C1251 O1267 1.225 . S
C1252 C1251 1.491 . S
C1252 C1253 1.392 . S
C1252 C1257 1.356 . S
C1253 C1252 1.392 . S
C1253 C1254 1.368 . S
C1253 H1276 0.929 . S
C1254 C1253 1.368 . S
C1254 C1255 1.386 . S
C1254 H1277 0.929 . S
C1255 C1254 1.386 . S
C1255 C1256 1.373 . S
C1256 C1255 1.373 . S
C1256 C1257 1.409 . S
C1256 H1278 0.931 . S
C1257 C1252 1.356 . S
C1257 C1256 1.409 . S
C1257 H1279 0.930 . S
C1258 O1268 1.270 . S
C1258 O1269 1.248 . S
C1259 O1270 1.267 . S
C1259 O1271 1.278 . S
O1260 Pr1240 2.562 . S
O1260 C1242 1.254 . S
O1261 Pr1240 2.490 . S
O1261 C1242 1.225 . S
O1262 Pr1240 2.695 . S
O1262 Pr1241 2.436 . S
O1262 C1249 1.270 . S
O1263 Pr1240 2.512 . S
O1263 C1249 1.248 . S
O1264 Pr1241 2.438 . S
O1264 C1250 1.267 . S
O1265 Pr1240 2.437 . S
O1265 C1250 1.278 . S
O1266 Pr1241 2.562 . S
O1266 C1251 1.254 . S
O1267 Pr1241 2.490 . S
O1267 C1251 1.225 . S
O1268 Pr1240 2.436 . S
O1268 Pr1241 2.695 . S
O1268 C1258 1.270 . S
O1269 Pr1241 2.512 . S
O1269 C1258 1.248 . S
O1270 Pr1240 2.438 . S
O1270 C1259 1.267 . S
O1271 Pr1241 2.437 . S
O1271 C1259 1.278 . S
H1272 C1244 0.929 . S
H1273 C1245 0.929 . S
H1274 C1247 0.931 . S
H1275 C1248 0.930 . S
H1276 C1253 0.929 . S
H1277 C1254 0.929 . S
H1278 C1256 0.931 . S
H1279 C1257 0.930 . S
Pr1280 C1282 2.880 . S
Pr1280 O1300 2.562 . S
Pr1280 O1301 2.490 . S
Pr1280 O1302 2.695 . S
Pr1280 O1303 2.512 . S
Pr1280 O1305 2.437 . S
Pr1280 O1308 2.436 . S
Pr1280 O1310 2.438 . S
Pr1281 C1291 2.880 . S
Pr1281 O1302 2.436 . S
Pr1281 O1304 2.438 . S
Pr1281 O1306 2.562 . S
Pr1281 O1307 2.490 . S
Pr1281 O1308 2.695 . S
Pr1281 O1309 2.512 . S
Pr1281 O1311 2.437 . S
C1282 Pr1280 2.880 . S
C1282 C1283 1.491 . S
C1282 O1300 1.254 . S
C1282 O1301 1.225 . S
C1283 C1282 1.491 . S
C1283 C1284 1.392 . S
C1283 C1288 1.356 . S
C1284 C1283 1.392 . S
C1284 C1285 1.368 . S
C1284 H1312 0.929 . S
C1285 C1284 1.368 . S
C1285 C1286 1.386 . S
C1285 H1313 0.929 . S
C1286 C1285 1.386 . S
C1286 C1287 1.373 . S
C1287 C1286 1.373 . S
C1287 C1288 1.409 . S
C1287 H1314 0.931 . S
C1288 C1283 1.356 . S
C1288 C1287 1.409 . S
C1288 H1315 0.930 . S
C1289 O1302 1.270 . S
C1289 O1303 1.248 . S
C1290 O1304 1.267 . S
C1290 O1305 1.278 . S
C1291 Pr1281 2.880 . S
C1291 C1292 1.491 . S
C1291 O1306 1.254 . S
C1291 O1307 1.225 . S
C1292 C1291 1.491 . S
C1292 C1293 1.392 . S
C1292 C1297 1.356 . S
C1293 C1292 1.392 . S
C1293 C1294 1.368 . S
C1293 H1316 0.929 . S
C1294 C1293 1.368 . S
C1294 C1295 1.386 . S
C1294 H1317 0.929 . S
C1295 C1294 1.386 . S
C1295 C1296 1.373 . S
C1296 C1295 1.373 . S
C1296 C1297 1.409 . S
C1296 H1318 0.931 . S
C1297 C1292 1.356 . S
C1297 C1296 1.409 . S
C1297 H1319 0.930 . S
C1298 O1308 1.270 . S
C1298 O1309 1.248 . S
C1299 O1310 1.267 . S
C1299 O1311 1.278 . S
O1300 Pr1280 2.562 . S
O1300 C1282 1.254 . S
O1301 Pr1280 2.490 . S
O1301 C1282 1.225 . S
O1302 Pr1280 2.695 . S
O1302 Pr1281 2.436 . S
O1302 C1289 1.270 . S
O1303 Pr1280 2.512 . S
O1303 C1289 1.248 . S
O1304 Pr1281 2.438 . S
O1304 C1290 1.267 . S
O1305 Pr1280 2.437 . S
O1305 C1290 1.278 . S
O1306 Pr1281 2.562 . S
O1306 C1291 1.254 . S
O1307 Pr1281 2.490 . S
O1307 C1291 1.225 . S
O1308 Pr1280 2.436 . S
O1308 Pr1281 2.695 . S
O1308 C1298 1.270 . S
O1309 Pr1281 2.512 . S
O1309 C1298 1.248 . S
O1310 Pr1280 2.438 . S
O1310 C1299 1.267 . S
O1311 Pr1281 2.437 . S
O1311 C1299 1.278 . S
H1312 C1284 0.929 . S
H1313 C1285 0.929 . S
H1314 C1287 0.931 . S
H1315 C1288 0.930 . S
H1316 C1293 0.929 . S
H1317 C1294 0.929 . S
H1318 C1296 0.931 . S
H1319 C1297 0.930 . S
Pr1320 C1322 2.880 . S
Pr1320 O1340 2.562 . S
Pr1320 O1341 2.490 . S
Pr1320 O1342 2.695 . S
Pr1320 O1343 2.512 . S
Pr1320 O1345 2.437 . S
Pr1320 O1348 2.436 . S
Pr1320 O1350 2.438 . S
Pr1321 C1331 2.880 . S
Pr1321 O1342 2.436 . S
Pr1321 O1344 2.438 . S
Pr1321 O1346 2.562 . S
Pr1321 O1347 2.490 . S
Pr1321 O1348 2.695 . S
Pr1321 O1349 2.512 . S
Pr1321 O1351 2.437 . S
C1322 Pr1320 2.880 . S
C1322 C1323 1.491 . S
C1322 O1340 1.254 . S
C1322 O1341 1.225 . S
C1323 C1322 1.491 . S
C1323 C1324 1.392 . S
C1323 C1328 1.356 . S
C1324 C1323 1.392 . S
C1324 C1325 1.368 . S
C1324 H1352 0.929 . S
C1325 C1324 1.368 . S
C1325 C1326 1.386 . S
C1325 H1353 0.929 . S
C1326 C1325 1.386 . S
C1326 C1327 1.373 . S
C1327 C1326 1.373 . S
C1327 C1328 1.409 . S
C1327 H1354 0.931 . S
C1328 C1323 1.356 . S
C1328 C1327 1.409 . S
C1328 H1355 0.930 . S
C1329 O1342 1.270 . S
C1329 O1343 1.248 . S
C1330 O1344 1.267 . S
C1330 O1345 1.278 . S
C1331 Pr1321 2.880 . S
C1331 C1332 1.491 . S
C1331 O1346 1.254 . S
C1331 O1347 1.225 . S
C1332 C1331 1.491 . S
C1332 C1333 1.392 . S
C1332 C1337 1.356 . S
C1333 C1332 1.392 . S
C1333 C1334 1.368 . S
C1333 H1356 0.929 . S
C1334 C1333 1.368 . S
C1334 C1335 1.386 . S
C1334 H1357 0.929 . S
C1335 C1334 1.386 . S
C1335 C1336 1.373 1_455 S
C1336 C1335 1.373 1_655 S
C1336 C1337 1.409 1_655 S
C1336 H1358 0.931 . S
C1337 C1332 1.356 . S
C1337 C1336 1.409 1_455 S
C1337 H1359 0.930 1_455 S
C1338 O1348 1.270 . S
C1338 O1349 1.248 . S
C1339 O1350 1.267 . S
C1339 O1351 1.278 . S
O1340 Pr1320 2.562 . S
O1340 C1322 1.254 . S
O1341 Pr1320 2.490 . S
O1341 C1322 1.225 . S
O1342 Pr1320 2.695 . S
O1342 Pr1321 2.436 . S
O1342 C1329 1.270 . S
O1343 Pr1320 2.512 . S
O1343 C1329 1.248 . S
O1344 Pr1321 2.438 . S
O1344 C1330 1.267 . S
O1345 Pr1320 2.437 . S
O1345 C1330 1.278 . S
O1346 Pr1321 2.562 . S
O1346 C1331 1.254 . S
O1347 Pr1321 2.490 . S
O1347 C1331 1.225 . S
O1348 Pr1320 2.436 . S
O1348 Pr1321 2.695 . S
O1348 C1338 1.270 . S
O1349 Pr1321 2.512 . S
O1349 C1338 1.248 . S
O1350 Pr1320 2.438 . S
O1350 C1339 1.267 . S
O1351 Pr1321 2.437 . S
O1351 C1339 1.278 . S
H1352 C1324 0.929 . S
H1353 C1325 0.929 . S
H1354 C1327 0.931 . S
H1355 C1328 0.930 . S
H1356 C1333 0.929 . S
H1357 C1334 0.929 . S
H1358 C1336 0.931 . S
H1359 C1337 0.930 1_655 S
Pr1360 C1362 2.880 . S
Pr1360 O1380 2.562 . S
Pr1360 O1381 2.490 . S
Pr1360 O1382 2.695 . S
Pr1360 O1383 2.512 . S
Pr1360 O1385 2.437 . S
Pr1360 O1388 2.436 . S
Pr1360 O1390 2.438 . S
Pr1361 C1371 2.880 . S
Pr1361 O1382 2.436 . S
Pr1361 O1384 2.438 . S
Pr1361 O1386 2.562 . S
Pr1361 O1387 2.490 . S
Pr1361 O1388 2.695 . S
Pr1361 O1389 2.512 . S
Pr1361 O1391 2.437 . S
C1362 Pr1360 2.880 . S
C1362 C1363 1.491 . S
C1362 O1380 1.254 . S
C1362 O1381 1.225 . S
C1363 C1362 1.491 . S
C1363 C1364 1.392 . S
C1363 C1368 1.356 . S
C1364 C1363 1.392 . S
C1364 C1365 1.368 . S
C1364 H1392 0.929 . S
C1365 C1364 1.368 . S
C1365 C1366 1.386 . S
C1365 H1393 0.929 . S
C1366 C1365 1.386 . S
C1366 C1367 1.373 . S
C1367 C1366 1.373 . S
C1367 C1368 1.409 . S
C1367 H1394 0.931 . S
C1368 C1363 1.356 . S
C1368 C1367 1.409 . S
C1368 H1395 0.930 . S
C1369 O1382 1.270 . S
C1369 O1383 1.248 . S
C1370 O1384 1.267 . S
C1370 O1385 1.278 . S
C1371 Pr1361 2.880 . S
C1371 C1372 1.491 . S
C1371 O1386 1.254 . S
C1371 O1387 1.225 . S
C1372 C1371 1.491 . S
C1372 C1373 1.392 . S
C1372 C1377 1.356 . S
C1373 C1372 1.392 . S
C1373 C1374 1.368 . S
C1373 H1396 0.929 . S
C1374 C1373 1.368 . S
C1374 C1375 1.386 . S
C1374 H1397 0.929 . S
C1375 C1374 1.386 . S
C1375 C1376 1.373 . S
C1376 C1375 1.373 . S
C1376 C1377 1.409 . S
C1376 H1398 0.931 . S
C1377 C1372 1.356 . S
C1377 C1376 1.409 . S
C1377 H1399 0.930 . S
C1378 O1388 1.270 . S
C1378 O1389 1.248 . S
C1379 O1390 1.267 . S
C1379 O1391 1.278 . S
O1380 Pr1360 2.562 . S
O1380 C1362 1.254 . S
O1381 Pr1360 2.490 . S
O1381 C1362 1.225 . S
O1382 Pr1360 2.695 . S
O1382 Pr1361 2.436 . S
O1382 C1369 1.270 . S
O1383 Pr1360 2.512 . S
O1383 C1369 1.248 . S
O1384 Pr1361 2.438 . S
O1384 C1370 1.267 . S
O1385 Pr1360 2.437 . S
O1385 C1370 1.278 . S
O1386 Pr1361 2.562 . S
O1386 C1371 1.254 . S
O1387 Pr1361 2.490 . S
O1387 C1371 1.225 . S
O1388 Pr1360 2.436 . S
O1388 Pr1361 2.695 . S
O1388 C1378 1.270 . S
O1389 Pr1361 2.512 . S
O1389 C1378 1.248 . S
O1390 Pr1360 2.438 . S
O1390 C1379 1.267 . S
O1391 Pr1361 2.437 . S
O1391 C1379 1.278 . S
H1392 C1364 0.929 . S
H1393 C1365 0.929 . S
H1394 C1367 0.931 . S
H1395 C1368 0.930 . S
H1396 C1373 0.929 . S
H1397 C1374 0.929 . S
H1398 C1376 0.931 . S
H1399 C1377 0.930 . S
Pr1400 C1402 2.880 . S
Pr1400 O1420 2.562 . S
Pr1400 O1421 2.490 . S
Pr1400 O1422 2.695 . S
Pr1400 O1423 2.512 . S
Pr1400 O1425 2.437 . S
Pr1400 O1428 2.436 . S
Pr1400 O1430 2.438 . S
Pr1401 C1411 2.880 . S
Pr1401 O1422 2.436 . S
Pr1401 O1424 2.438 . S
Pr1401 O1426 2.562 . S
Pr1401 O1427 2.490 . S
Pr1401 O1428 2.695 . S
Pr1401 O1429 2.512 . S
Pr1401 O1431 2.437 . S
C1402 Pr1400 2.880 . S
C1402 C1403 1.491 . S
C1402 O1420 1.254 . S
C1402 O1421 1.225 . S
C1403 C1402 1.491 . S
C1403 C1404 1.392 . S
C1403 C1408 1.356 . S
C1404 C1403 1.392 . S
C1404 C1405 1.368 . S
C1404 H1432 0.929 . S
C1405 C1404 1.368 . S
C1405 C1406 1.386 . S
C1405 H1433 0.929 . S
C1406 C1405 1.386 . S
C1406 C1407 1.373 . S
C1407 C1406 1.373 . S
C1407 C1408 1.409 . S
C1407 H1434 0.931 . S
C1408 C1403 1.356 . S
C1408 C1407 1.409 . S
C1408 H1435 0.930 . S
C1409 O1422 1.270 . S
C1409 O1423 1.248 . S
C1410 O1424 1.267 . S
C1410 O1425 1.278 . S
C1411 Pr1401 2.880 . S
C1411 C1412 1.491 . S
C1411 O1426 1.254 . S
C1411 O1427 1.225 . S
C1412 C1411 1.491 . S
C1412 C1413 1.392 . S
C1412 C1417 1.356 . S
C1413 C1412 1.392 . S
C1413 C1414 1.368 . S
C1413 H1436 0.929 . S
C1414 C1413 1.368 . S
C1414 C1415 1.386 . S
C1414 H1437 0.929 . S
C1415 C1414 1.386 . S
C1415 C1416 1.373 1_565 S
C1416 C1415 1.373 1_545 S
C1416 C1417 1.409 1_545 S
C1416 H1438 0.931 . S
C1417 C1412 1.356 . S
C1417 C1416 1.409 1_565 S
C1417 H1439 0.930 1_565 S
C1418 O1428 1.270 . S
C1418 O1429 1.248 . S
C1419 O1430 1.267 . S
C1419 O1431 1.278 . S
O1420 Pr1400 2.562 . S
O1420 C1402 1.254 . S
O1421 Pr1400 2.490 . S
O1421 C1402 1.225 . S
O1422 Pr1400 2.695 . S
O1422 Pr1401 2.436 . S
O1422 C1409 1.270 . S
O1423 Pr1400 2.512 . S
O1423 C1409 1.248 . S
O1424 Pr1401 2.438 . S
O1424 C1410 1.267 . S
O1425 Pr1400 2.437 . S
O1425 C1410 1.278 . S
O1426 Pr1401 2.562 . S
O1426 C1411 1.254 . S
O1427 Pr1401 2.490 . S
O1427 C1411 1.225 . S
O1428 Pr1400 2.436 . S
O1428 Pr1401 2.695 . S
O1428 C1418 1.270 . S
O1429 Pr1401 2.512 . S
O1429 C1418 1.248 . S
O1430 Pr1400 2.438 . S
O1430 C1419 1.267 . S
O1431 Pr1401 2.437 . S
O1431 C1419 1.278 . S
H1432 C1404 0.929 . S
H1433 C1405 0.929 . S
H1434 C1407 0.931 . S
H1435 C1408 0.930 . S
H1436 C1413 0.929 . S
H1437 C1414 0.929 . S
H1438 C1416 0.931 . S
H1439 C1417 0.930 1_545 S
H1440 C1448 0.950 . S
H1441 C1453 0.950 . S
H1442 C1450 0.950 . S
H1443 C1452 0.950 . S
H1444 C1454 0.939 1_565 S
H1445 C1456 0.950 . S
H1446 C1458 0.950 . S
H1447 C1459 0.950 . S
C1448 H1440 0.950 . S
C1448 C1449 1.386 . S
C1448 C1450 1.391 . S
C1449 C1448 1.386 . S
C1449 C1453 1.393 . S
C1450 H1442 0.950 . S
C1450 C1448 1.391 . S
C1450 C1451 1.400 . S
C1451 C1450 1.400 . S
C1451 C1452 1.398 . S
C1451 C1457 1.491 . S
C1452 H1443 0.950 . S
C1452 C1451 1.398 . S
C1452 C1453 1.391 . S
C1453 H1441 0.950 . S
C1453 C1449 1.393 . S
C1453 C1452 1.391 . S
C1454 H1444 0.939 1_545 S
C1454 C1455 1.386 1_545 S
C1454 C1456 1.391 . S
C1455 C1454 1.386 1_565 S
C1455 C1459 1.393 . S
C1456 H1445 0.950 . S
C1456 C1454 1.391 . S
C1456 C1457 1.400 . S
C1457 C1451 1.491 . S
C1457 C1456 1.400 . S
C1457 C1458 1.398 . S
C1458 H1446 0.950 . S
C1458 C1457 1.398 . S
C1458 C1459 1.391 1_545 S
C1459 H1447 0.950 . S
C1459 C1455 1.393 . S
C1459 C1458 1.391 1_565 S
H1460 C1468 0.950 . S
H1461 C1473 0.951 1_455 S
H1462 C1470 0.950 . S
H1463 C1472 0.950 . S
H1464 C1474 0.950 . S
H1465 C1476 0.950 . S
H1466 C1478 0.950 . S
H1467 C1479 0.950 . S
C1468 H1460 0.950 . S
C1468 C1469 1.386 . S
C1468 C1470 1.391 1_455 S
C1469 C1468 1.386 . S
C1469 C1473 1.393 1_455 S
C1470 H1462 0.950 . S
C1470 C1468 1.391 1_655 S
C1470 C1471 1.400 . S
C1471 C1470 1.400 . S
C1471 C1472 1.398 . S
C1471 C1477 1.491 . S
C1472 H1463 0.950 . S
C1472 C1471 1.398 . S
C1472 C1473 1.391 . S
C1473 H1461 0.951 1_655 S
C1473 C1469 1.393 1_655 S
C1473 C1472 1.391 . S
C1474 H1464 0.950 . S
C1474 C1475 1.386 . S
C1474 C1476 1.391 . S
C1475 C1474 1.386 . S
C1475 C1479 1.393 1_545 S
C1476 H1465 0.950 . S
C1476 C1474 1.391 . S
C1476 C1477 1.400 . S
C1477 C1471 1.491 . S
C1477 C1476 1.400 . S
C1477 C1478 1.398 . S
C1478 H1466 0.950 . S
C1478 C1477 1.398 . S
C1478 C1479 1.391 1_545 S
C1479 H1467 0.950 . S
C1479 C1475 1.393 1_565 S
C1479 C1478 1.391 1_565 S
H1480 C1488 0.950 1_455 S
H1481 C1493 0.950 . S
H1482 C1490 0.950 . S
H1483 C1492 0.950 . S
H1484 C1494 0.950 . S
H1485 C1496 0.950 . S
H1486 C1498 0.950 . S
H1487 C1499 0.950 . S
C1488 H1480 0.950 1_655 S
C1488 C1489 1.386 . S
C1488 C1490 1.391 . S
C1489 C1488 1.386 . S
C1489 C1493 1.393 . S
C1490 H1482 0.950 . S
C1490 C1488 1.391 . S
C1490 C1491 1.400 . S
C1491 C1490 1.400 . S
C1491 C1492 1.398 . S
C1491 C1497 1.491 . S
C1492 H1483 0.950 . S
C1492 C1491 1.398 . S
C1492 C1493 1.391 . S
C1493 H1481 0.950 . S
C1493 C1489 1.393 . S
C1493 C1492 1.391 . S
C1494 H1484 0.950 . S
C1494 C1495 1.386 . S
C1494 C1496 1.391 . S
C1495 C1494 1.386 . S
C1495 C1499 1.393 . S
C1496 H1485 0.950 . S
C1496 C1494 1.391 . S
C1496 C1497 1.400 . S
C1497 C1491 1.491 . S
C1497 C1496 1.400 . S
C1497 C1498 1.398 . S
C1498 H1486 0.950 . S
C1498 C1497 1.398 . S
C1498 C1499 1.391 . S
C1499 H1487 0.950 . S
C1499 C1495 1.393 . S
C1499 C1498 1.391 . S
H1500 C1508 0.950 . S
H1501 C1513 0.950 . S
H1502 C1510 0.950 . S
H1503 C1512 0.950 . S
H1504 C1514 0.950 . S
H1505 C1516 0.950 . S
H1506 C1518 0.950 . S
H1507 C1519 0.950 . S
C1508 H1500 0.950 . S
C1508 C1509 1.386 . S
C1508 C1510 1.391 . S
C1509 C1508 1.386 . S
C1509 C1513 1.393 . S
C1510 H1502 0.950 . S
C1510 C1508 1.391 . S
C1510 C1511 1.400 . S
C1511 C1510 1.400 . S
C1511 C1512 1.398 . S
C1511 C1517 1.491 . S
C1512 H1503 0.950 . S
C1512 C1511 1.398 . S
C1512 C1513 1.391 . S
C1513 H1501 0.950 . S
C1513 C1509 1.393 . S
C1513 C1512 1.391 . S
C1514 H1504 0.950 . S
C1514 C1515 1.386 . S
C1514 C1516 1.391 1_655 S
C1515 C1514 1.386 . S
C1515 C1519 1.393 . S
C1516 H1505 0.950 . S
C1516 C1514 1.391 1_455 S
C1516 C1517 1.400 . S
C1517 C1511 1.491 . S
C1517 C1516 1.400 . S
C1517 C1518 1.398 . S
C1518 H1506 0.950 . S
C1518 C1517 1.398 . S
C1518 C1519 1.391 1_455 S
C1519 H1507 0.950 . S
C1519 C1515 1.393 . S
C1519 C1518 1.391 1_655 S
H1520 C1528 0.950 . S
H1521 C1533 0.950 . S
H1522 C1530 0.950 . S
H1523 C1532 0.950 . S
H1524 C1534 0.950 . S
H1525 C1536 0.950 . S
H1526 C1538 0.950 . S
H1527 C1539 0.968 . S
C1528 H1520 0.950 . S
C1528 C1529 1.386 . S
C1528 C1530 1.391 . S
C1529 C1528 1.386 . S
C1529 C1533 1.393 . S
C1530 H1522 0.950 . S
C1530 C1528 1.391 . S
C1530 C1531 1.400 . S
C1531 C1530 1.400 . S
C1531 C1532 1.398 . S
C1531 C1537 1.491 . S
C1532 H1523 0.950 . S
C1532 C1531 1.398 . S
C1532 C1533 1.391 . S
C1533 H1521 0.950 . S
C1533 C1529 1.393 . S
C1533 C1532 1.391 . S
C1534 H1524 0.950 . S
C1534 C1535 1.386 . S
C1534 C1536 1.391 . S
C1535 C1534 1.386 . S
C1535 C1539 1.404 1_565 S
C1536 H1525 0.950 . S
C1536 C1534 1.391 . S
C1536 C1537 1.400 . S
C1537 C1531 1.491 . S
C1537 C1536 1.400 . S
C1537 C1538 1.398 . S
C1538 H1526 0.950 . S
C1538 C1537 1.398 . S
C1538 C1539 1.362 1_565 S
C1539 H1527 0.968 . S
C1539 C1535 1.404 1_545 S
C1539 C1538 1.362 1_545 S
H1540 C1548 0.950 . S
H1541 C1553 0.950 1_655 S
H1542 C1550 0.950 . S
H1543 C1552 0.950 . S
H1544 C1554 0.950 . S
H1545 C1556 0.950 . S
H1546 C1558 0.950 . S
H1547 C1559 0.950 1_545 S
C1548 H1540 0.950 . S
C1548 C1549 1.386 . S
C1548 C1550 1.391 . S
C1549 C1548 1.386 . S
C1549 C1553 1.393 . S
C1550 H1542 0.950 . S
C1550 C1548 1.391 . S
C1550 C1551 1.400 . S
C1551 C1550 1.400 . S
C1551 C1552 1.398 . S
C1551 C1557 1.491 . S
C1552 H1543 0.950 . S
C1552 C1551 1.398 . S
C1552 C1553 1.391 . S
C1553 H1541 0.950 1_455 S
C1553 C1549 1.393 . S
C1553 C1552 1.391 . S
C1554 H1544 0.950 . S
C1554 C1555 1.386 . S
C1554 C1556 1.391 1_545 S
C1555 C1554 1.386 . S
C1555 C1559 1.393 1_545 S
C1556 H1545 0.950 . S
C1556 C1554 1.391 1_565 S
C1556 C1557 1.400 . S
C1557 C1551 1.491 . S
C1557 C1556 1.400 . S
C1557 C1558 1.398 . S
C1558 H1546 0.950 . S
C1558 C1557 1.398 . S
C1558 C1559 1.391 . S
C1559 H1547 0.950 1_565 S
C1559 C1555 1.393 1_565 S
C1559 C1558 1.391 . S
H1560 C1568 0.950 . S
H1561 C1573 0.950 . S
H1562 C1570 0.950 . S
H1563 C1572 0.950 . S
H1564 C1574 0.950 . S
H1565 C1576 0.950 . S
H1566 C1578 0.950 . S
H1567 C1579 0.950 . S
C1568 H1560 0.950 . S
C1568 C1569 1.386 . S
C1568 C1570 1.391 . S
C1569 C1568 1.386 . S
C1569 C1573 1.393 . S
C1570 H1562 0.950 . S
C1570 C1568 1.391 . S
C1570 C1571 1.400 . S
C1571 C1570 1.400 . S
C1571 C1572 1.398 . S
C1571 C1577 1.491 . S
C1572 H1563 0.950 . S
C1572 C1571 1.398 . S
C1572 C1573 1.391 . S
C1573 H1561 0.950 . S
C1573 C1569 1.393 . S
C1573 C1572 1.391 . S
C1574 H1564 0.950 . S
C1574 C1575 1.386 . S
C1574 C1576 1.391 1_545 S
C1575 C1574 1.386 . S
C1575 C1579 1.393 . S
C1576 H1565 0.950 . S
C1576 C1574 1.391 1_565 S
C1576 C1577 1.400 . S
C1577 C1571 1.491 . S
C1577 C1576 1.400 . S
C1577 C1578 1.398 . S
C1578 H1566 0.950 . S
C1578 C1577 1.398 . S
C1578 C1579 1.391 1_565 S
C1579 H1567 0.950 . S
C1579 C1575 1.393 . S
C1579 C1578 1.391 1_545 S
H1580 C1588 0.950 . S
H1581 C1593 0.950 . S
H1582 C1590 0.950 . S
H1583 C1592 0.950 . S
H1584 C1594 0.950 . S
H1585 C1596 0.950 . S
H1586 C1598 0.950 . S
H1587 C1599 0.950 1_655 S
C1588 H1580 0.950 . S
C1588 C1589 1.386 . S
C1588 C1590 1.391 . S
C1589 C1588 1.386 . S
C1589 C1593 1.393 1_565 S
C1590 H1582 0.950 . S
C1590 C1588 1.391 . S
C1590 C1591 1.400 . S
C1591 C1590 1.400 . S
C1591 C1592 1.398 . S
C1591 C1597 1.491 . S
C1592 H1583 0.950 . S
C1592 C1591 1.398 . S
C1592 C1593 1.391 1_565 S
C1593 H1581 0.950 . S
C1593 C1589 1.393 1_545 S
C1593 C1592 1.391 1_545 S
C1594 H1584 0.950 . S
C1594 C1595 1.386 . S
C1594 C1596 1.391 1_655 S
C1595 C1594 1.386 . S
C1595 C1599 1.393 1_655 S
C1596 H1585 0.950 . S
C1596 C1594 1.391 1_455 S
C1596 C1597 1.400 . S
C1597 C1591 1.491 . S
C1597 C1596 1.400 . S
C1597 C1598 1.398 . S
C1598 H1586 0.950 . S
C1598 C1597 1.398 . S
C1598 C1599 1.391 . S
C1599 H1587 0.950 1_455 S
C1599 C1595 1.393 1_455 S
C1599 C1598 1.391 . S
H1600 C1608 0.968 . S
H1601 C1613 0.950 . S
H1602 C1610 0.950 . S
H1603 C1612 0.950 . S
H1604 C1614 0.950 . S
H1605 C1616 0.950 . S
H1606 C1618 0.950 . S
H1607 C1619 0.950 . S
C1608 H1600 0.968 . S
C1608 C1609 1.397 1_655 S
C1608 C1610 1.362 1_655 S
C1609 C1608 1.397 1_455 S
C1609 C1613 1.393 . S
C1610 H1602 0.950 . S
C1610 C1608 1.362 1_455 S
C1610 C1611 1.400 . S
C1611 C1610 1.400 . S
C1611 C1612 1.398 . S
C1611 C1617 1.491 . S
C1612 H1603 0.950 . S
C1612 C1611 1.398 . S
C1612 C1613 1.391 . S
C1613 H1601 0.950 . S
C1613 C1609 1.393 . S
C1613 C1612 1.391 . S
C1614 H1604 0.950 . S
C1614 C1615 1.386 . S
C1614 C1616 1.391 . S
C1615 C1614 1.386 . S
C1615 C1619 1.393 . S
C1616 H1605 0.950 . S
C1616 C1614 1.391 . S
C1616 C1617 1.400 . S
C1617 C1611 1.491 . S
C1617 C1616 1.400 . S
C1617 C1618 1.398 . S
C1618 H1606 0.950 . S
C1618 C1617 1.398 . S
C1618 C1619 1.391 . S
C1619 H1607 0.950 . S
C1619 C1615 1.393 . S
C1619 C1618 1.391 . S
H1620 C1628 0.950 . S
H1621 C1633 0.950 . S
H1622 C1630 0.950 . S
H1623 C1632 0.950 . S
H1624 C1634 0.950 . S
H1625 C1636 0.950 . S
H1626 C1638 0.950 . S
H1627 C1639 0.950 . S
C1628 H1620 0.950 . S
C1628 C1629 1.386 . S
C1628 C1630 1.391 . S
C1629 C1628 1.386 . S
C1629 C1633 1.393 . S
C1630 H1622 0.950 . S
C1630 C1628 1.391 . S
C1630 C1631 1.400 . S
C1631 C1630 1.400 . S
C1631 C1632 1.398 . S
C1631 C1637 1.491 . S
C1632 H1623 0.950 . S
C1632 C1631 1.398 . S
C1632 C1633 1.391 . S
C1633 H1621 0.950 . S
C1633 C1629 1.393 . S
C1633 C1632 1.391 . S
C1634 H1624 0.950 . S
C1634 C1635 1.386 . S
C1634 C1636 1.391 1_455 S
C1635 C1634 1.386 . S
C1635 C1639 1.393 . S
C1636 H1625 0.950 . S
C1636 C1634 1.391 1_655 S
C1636 C1637 1.400 . S
C1637 C1631 1.491 . S
C1637 C1636 1.400 . S
C1637 C1638 1.398 . S
C1638 H1626 0.950 . S
C1638 C1637 1.398 . S
C1638 C1639 1.391 1_655 S
C1639 H1627 0.950 . S
C1639 C1635 1.393 . S
C1639 C1638 1.391 1_455 S
H1640 C1648 0.950 . S
H1641 C1653 0.950 . S
H1642 C1650 0.950 . S
H1643 C1652 0.950 . S
H1644 C1654 0.950 1_565 S
H1645 C1656 0.950 . S
H1646 C1658 0.950 . S
H1647 C1659 0.950 . S
C1648 H1640 0.950 . S
C1648 C1649 1.386 . S
C1648 C1650 1.391 . S
C1649 C1648 1.386 . S
C1649 C1653 1.393 . S
C1650 H1642 0.950 . S
C1650 C1648 1.391 . S
C1650 C1651 1.400 . S
C1651 C1650 1.400 . S
C1651 C1652 1.398 . S
C1651 C1657 1.491 . S
C1652 H1643 0.950 . S
C1652 C1651 1.398 . S
C1652 C1653 1.391 . S
C1653 H1641 0.950 . S
C1653 C1649 1.393 . S
C1653 C1652 1.391 . S
C1654 H1644 0.950 1_545 S
C1654 C1655 1.386 . S
C1654 C1656 1.391 . S
C1655 C1654 1.386 . S
C1655 C1659 1.393 . S
C1656 H1645 0.950 . S
C1656 C1654 1.391 . S
C1656 C1657 1.400 . S
C1657 C1651 1.491 . S
C1657 C1656 1.400 . S
C1657 C1658 1.398 . S
C1658 H1646 0.950 . S
C1658 C1657 1.398 . S
C1658 C1659 1.391 . S
C1659 H1647 0.950 . S
C1659 C1655 1.393 . S
C1659 C1658 1.391 . S
H1660 C1668 0.945 . S
H1661 C1673 0.950 . S
H1662 C1670 0.950 . S
H1663 C1672 0.950 . S
H1664 C1674 0.950 1_455 S
H1665 C1676 0.950 . S
H1666 C1678 0.950 . S
H1667 C1679 0.950 . S
C1668 H1660 0.945 . S
C1668 C1669 1.386 1_545 S
C1668 C1670 1.391 . S
C1669 C1668 1.386 1_565 S
C1669 C1673 1.393 . S
C1670 H1662 0.950 . S
C1670 C1668 1.391 . S
C1670 C1671 1.400 . S
C1671 C1670 1.400 . S
C1671 C1672 1.398 . S
C1671 C1677 1.491 . S
C1672 H1663 0.950 . S
C1672 C1671 1.398 . S
C1672 C1673 1.391 1_545 S
C1673 H1661 0.950 . S
C1673 C1669 1.393 . S
C1673 C1672 1.391 1_565 S
C1674 H1664 0.950 1_655 S
C1674 C1675 1.386 . S
C1674 C1676 1.391 . S
C1675 C1674 1.386 . S
C1675 C1679 1.393 . S
C1676 H1665 0.950 . S
C1676 C1674 1.391 . S
C1676 C1677 1.400 . S
C1677 C1671 1.491 . S
C1677 C1676 1.400 . S
C1677 C1678 1.398 . S
C1678 H1666 0.950 . S
C1678 C1677 1.398 . S
C1678 C1679 1.391 . S
C1679 H1667 0.950 . S
C1679 C1675 1.393 . S
C1679 C1678 1.391 . S
H1680 C1688 0.950 . S
H1681 C1693 0.950 . S
H1682 C1690 0.950 . S
H1683 C1692 0.950 . S
H1684 C1694 0.950 . S
H1685 C1696 0.950 . S
H1686 C1698 0.950 . S
H1687 C1699 0.950 . S
C1688 H1680 0.950 . S
C1688 C1689 1.386 . S
C1688 C1690 1.391 . S
C1689 C1688 1.386 . S
C1689 C1693 1.393 . S
C1690 H1682 0.950 . S
C1690 C1688 1.391 . S
C1690 C1691 1.400 . S
C1691 C1690 1.400 . S
C1691 C1692 1.398 . S
C1691 C1697 1.491 . S
C1692 H1683 0.950 . S
C1692 C1691 1.398 . S
C1692 C1693 1.391 . S
C1693 H1681 0.950 . S
C1693 C1689 1.393 . S
C1693 C1692 1.391 . S
C1694 H1684 0.950 . S
C1694 C1695 1.386 . S
C1694 C1696 1.391 . S
C1695 C1694 1.386 . S
C1695 C1699 1.393 . S
C1696 H1685 0.950 . S
C1696 C1694 1.391 . S
C1696 C1697 1.400 . S
C1697 C1691 1.491 . S
C1697 C1696 1.400 . S
C1697 C1698 1.398 . S
C1698 H1686 0.950 . S
C1698 C1697 1.398 . S
C1698 C1699 1.391 . S
C1699 H1687 0.950 . S
C1699 C1695 1.393 . S
C1699 C1698 1.391 . S
H1700 C1708 0.950 . S
H1701 C1713 0.950 . S
H1702 C1710 0.950 . S
H1703 C1712 0.950 . S
H1704 C1714 0.950 . S
H1705 C1716 0.950 . S
H1706 C1718 0.950 . S
H1707 C1719 0.950 . S
C1708 H1700 0.950 . S
C1708 C1709 1.386 . S
C1708 C1710 1.391 . S
C1709 C1708 1.386 . S
C1709 C1713 1.393 . S
C1710 H1702 0.950 . S
C1710 C1708 1.391 . S
C1710 C1711 1.400 . S
C1711 C1710 1.400 . S
C1711 C1712 1.398 . S
C1711 C1717 1.491 . S
C1712 H1703 0.950 . S
C1712 C1711 1.398 . S
C1712 C1713 1.391 . S
C1713 H1701 0.950 . S
C1713 C1709 1.393 . S
C1713 C1712 1.391 . S
C1714 H1704 0.950 . S
C1714 C1715 1.386 . S
C1714 C1716 1.391 . S
C1715 C1714 1.386 . S
C1715 C1719 1.393 . S
C1716 H1705 0.950 . S
C1716 C1714 1.391 . S
C1716 C1717 1.400 . S
C1717 C1711 1.491 . S
C1717 C1716 1.400 . S
C1717 C1718 1.398 . S
C1718 H1706 0.950 . S
C1718 C1717 1.398 . S
C1718 C1719 1.391 . S
C1719 H1707 0.950 . S
C1719 C1715 1.393 . S
C1719 C1718 1.391 . S
H1720 C1728 0.950 . S
H1721 C1733 0.950 . S
H1722 C1730 0.950 . S
H1723 C1732 0.950 . S
H1724 C1734 0.950 . S
H1725 C1736 0.950 . S
H1726 C1738 0.950 . S
H1727 C1739 0.950 . S
C1728 H1720 0.950 . S
C1728 C1729 1.386 . S
C1728 C1730 1.391 . S
C1729 C1728 1.386 . S
C1729 C1733 1.393 . S
C1730 H1722 0.950 . S
C1730 C1728 1.391 . S
C1730 C1731 1.400 . S
C1731 C1730 1.400 . S
C1731 C1732 1.398 . S
C1731 C1737 1.491 . S
C1732 H1723 0.950 . S
C1732 C1731 1.398 . S
C1732 C1733 1.391 . S
C1733 H1721 0.950 . S
C1733 C1729 1.393 . S
C1733 C1732 1.391 . S
C1734 H1724 0.950 . S
C1734 C1735 1.386 . S
C1734 C1736 1.391 . S
C1735 C1734 1.386 . S
C1735 C1739 1.393 . S
C1736 H1725 0.950 . S
C1736 C1734 1.391 . S
C1736 C1737 1.400 . S
C1737 C1731 1.491 . S
C1737 C1736 1.400 . S
C1737 C1738 1.398 . S
C1738 H1726 0.950 . S
C1738 C1737 1.398 . S
C1738 C1739 1.391 . S
C1739 H1727 0.950 . S
C1739 C1735 1.393 . S
C1739 C1738 1.391 . S
H1740 C1748 0.950 . S
H1741 C1753 0.950 . S
H1742 C1750 0.950 . S
H1743 C1752 0.950 . S
H1744 C1754 0.950 . S
H1745 C1756 0.950 . S
H1746 C1758 0.950 . S
H1747 C1759 0.950 . S
C1748 H1740 0.950 . S
C1748 C1749 1.386 . S
C1748 C1750 1.391 . S
C1749 C1748 1.386 . S
C1749 C1753 1.393 . S
C1750 H1742 0.950 . S
C1750 C1748 1.391 . S
C1750 C1751 1.400 . S
C1751 C1750 1.400 . S
C1751 C1752 1.398 . S
C1751 C1757 1.491 . S
C1752 H1743 0.950 . S
C1752 C1751 1.398 . S
C1752 C1753 1.391 . S
C1753 H1741 0.950 . S
C1753 C1749 1.393 . S
C1753 C1752 1.391 . S
C1754 H1744 0.950 . S
C1754 C1755 1.386 . S
C1754 C1756 1.391 . S
C1755 C1754 1.386 . S
C1755 C1759 1.393 . S
C1756 H1745 0.950 . S
C1756 C1754 1.391 . S
C1756 C1757 1.400 . S
C1757 C1751 1.491 . S
C1757 C1756 1.400 . S
C1757 C1758 1.398 . S
C1758 H1746 0.950 . S
C1758 C1757 1.398 . S
C1758 C1759 1.391 . S
C1759 H1747 0.950 . S
C1759 C1755 1.393 . S
C1759 C1758 1.391 . S
H1760 C1768 0.950 . S
H1761 C1773 0.950 . S
H1762 C1770 0.950 . S
H1763 C1772 0.950 . S
H1764 C1774 0.950 . S
H1765 C1776 0.950 . S
H1766 C1778 0.950 . S
H1767 C1779 0.950 . S
C1768 H1760 0.950 . S
C1768 C1769 1.386 . S
C1768 C1770 1.391 . S
C1769 C1768 1.386 . S
C1769 C1773 1.393 . S
C1770 H1762 0.950 . S
C1770 C1768 1.391 . S
C1770 C1771 1.400 . S
C1771 C1770 1.400 . S
C1771 C1772 1.398 . S
C1771 C1777 1.491 . S
C1772 H1763 0.950 . S
C1772 C1771 1.398 . S
C1772 C1773 1.391 . S
C1773 H1761 0.950 . S
C1773 C1769 1.393 . S
C1773 C1772 1.391 . S
C1774 H1764 0.950 . S
C1774 C1775 1.386 . S
C1774 C1776 1.391 . S
C1775 C1774 1.386 . S
C1775 C1779 1.393 . S
C1776 H1765 0.950 . S
C1776 C1774 1.391 . S
C1776 C1777 1.400 . S
C1777 C1771 1.491 . S
C1777 C1776 1.400 . S
C1777 C1778 1.398 . S
C1778 H1766 0.950 . S
C1778 C1777 1.398 . S
C1778 C1779 1.391 . S
C1779 H1767 0.950 . S
C1779 C1775 1.393 . S
C1779 C1778 1.391 . S
H1780 C1788 0.950 . S
H1781 C1793 0.950 . S
H1782 C1790 0.950 . S
H1783 C1792 0.950 . S
H1784 C1794 0.950 . S
H1785 C1796 0.950 . S
H1786 C1798 0.950 . S
H1787 C1799 0.950 . S
C1788 H1780 0.950 . S
C1788 C1789 1.386 . S
C1788 C1790 1.391 . S
C1789 C1788 1.386 . S
C1789 C1793 1.393 . S
C1790 H1782 0.950 . S
C1790 C1788 1.391 . S
C1790 C1791 1.400 . S
C1791 C1790 1.400 . S
C1791 C1792 1.398 . S
C1791 C1797 1.491 . S
C1792 H1783 0.950 . S
C1792 C1791 1.398 . S
C1792 C1793 1.391 . S
C1793 H1781 0.950 . S
C1793 C1789 1.393 . S
C1793 C1792 1.391 . S
C1794 H1784 0.950 . S
C1794 C1795 1.386 . S
C1794 C1796 1.391 . S
C1795 C1794 1.386 . S
C1795 C1799 1.393 . S
C1796 H1785 0.950 . S
C1796 C1794 1.391 . S
C1796 C1797 1.400 . S
C1797 C1791 1.491 . S
C1797 C1796 1.400 . S
C1797 C1798 1.398 . S
C1798 H1786 0.950 . S
C1798 C1797 1.398 . S
C1798 C1799 1.391 . S
C1799 H1787 0.950 . S
C1799 C1795 1.393 . S
C1799 C1798 1.391 . S
H1800 C1808 0.950 . S
H1801 C1813 0.950 . S
H1802 C1810 0.950 . S
H1803 C1812 0.950 . S
H1804 C1814 0.950 . S
H1805 C1816 0.950 . S
H1806 C1818 0.950 . S
H1807 C1819 0.950 . S
C1808 H1800 0.950 . S
C1808 C1809 1.386 . S
C1808 C1810 1.391 . S
C1809 C1808 1.386 . S
C1809 C1813 1.393 . S
C1810 H1802 0.950 . S
C1810 C1808 1.391 . S
C1810 C1811 1.400 . S
C1811 C1810 1.400 . S
C1811 C1812 1.398 . S
C1811 C1817 1.491 . S
C1812 H1803 0.950 . S
C1812 C1811 1.398 . S
C1812 C1813 1.391 . S
C1813 H1801 0.950 . S
C1813 C1809 1.393 . S
C1813 C1812 1.391 . S
C1814 H1804 0.950 . S
C1814 C1815 1.386 . S
C1814 C1816 1.391 . S
C1815 C1814 1.386 . S
C1815 C1819 1.393 . S
C1816 H1805 0.950 . S
C1816 C1814 1.391 . S
C1816 C1817 1.400 . S
C1817 C1811 1.491 . S
C1817 C1816 1.400 . S
C1817 C1818 1.398 . S
C1818 H1806 0.950 . S
C1818 C1817 1.398 . S
C1818 C1819 1.391 . S
C1819 H1807 0.950 . S
C1819 C1815 1.393 . S
C1819 C1818 1.391 . S
H1820 C1828 0.950 . S
H1821 C1833 0.950 . S
H1822 C1830 0.950 . S
H1823 C1832 0.950 . S
H1824 C1834 0.950 . S
H1825 C1836 0.950 . S
H1826 C1838 0.950 . S
H1827 C1839 0.950 . S
C1828 H1820 0.950 . S
C1828 C1829 1.386 . S
C1828 C1830 1.391 . S
C1829 C1828 1.386 . S
C1829 C1833 1.393 . S
C1830 H1822 0.950 . S
C1830 C1828 1.391 . S
C1830 C1831 1.400 . S
C1831 C1830 1.400 . S
C1831 C1832 1.398 . S
C1831 C1837 1.491 . S
C1832 H1823 0.950 . S
C1832 C1831 1.398 . S
C1832 C1833 1.391 . S
C1833 H1821 0.950 . S
C1833 C1829 1.393 . S
C1833 C1832 1.391 . S
C1834 H1824 0.950 . S
C1834 C1835 1.386 . S
C1834 C1836 1.391 . S
C1835 C1834 1.386 . S
C1835 C1839 1.393 . S
C1836 H1825 0.950 . S
C1836 C1834 1.391 . S
C1836 C1837 1.400 . S
C1837 C1831 1.491 . S
C1837 C1836 1.400 . S
C1837 C1838 1.398 . S
C1838 H1826 0.950 . S
C1838 C1837 1.398 . S
C1838 C1839 1.391 . S
C1839 H1827 0.950 . S
C1839 C1835 1.393 . S
C1839 C1838 1.391 . S
H1840 C1848 0.950 . S
H1841 C1853 0.950 . S
H1842 C1850 0.950 . S
H1843 C1852 0.950 . S
H1844 C1854 0.950 . S
H1845 C1856 0.950 . S
H1846 C1858 0.950 . S
H1847 C1859 0.950 . S
C1848 H1840 0.950 . S
C1848 C1849 1.386 . S
C1848 C1850 1.391 . S
C1849 C1848 1.386 . S
C1849 C1853 1.393 . S
C1850 H1842 0.950 . S
C1850 C1848 1.391 . S
C1850 C1851 1.400 . S
C1851 C1850 1.400 . S
C1851 C1852 1.398 . S
C1851 C1857 1.491 . S
C1852 H1843 0.950 . S
C1852 C1851 1.398 . S
C1852 C1853 1.391 . S
C1853 H1841 0.950 . S
C1853 C1849 1.393 . S
C1853 C1852 1.391 . S
C1854 H1844 0.950 . S
C1854 C1855 1.386 . S
C1854 C1856 1.391 . S
C1855 C1854 1.386 . S
C1855 C1859 1.393 . S
C1856 H1845 0.950 . S
C1856 C1854 1.391 . S
C1856 C1857 1.400 . S
C1857 C1851 1.491 . S
C1857 C1856 1.400 . S
C1857 C1858 1.398 . S
C1858 H1846 0.950 . S
C1858 C1857 1.398 . S
C1858 C1859 1.391 . S
C1859 H1847 0.950 . S
C1859 C1855 1.393 . S
C1859 C1858 1.391 . S
H1860 C1868 0.950 . S
H1861 C1873 0.950 . S
H1862 C1870 0.950 . S
H1863 C1872 0.950 . S
H1864 C1874 0.950 . S
H1865 C1876 0.950 . S
H1866 C1878 0.950 . S
H1867 C1879 0.950 . S
C1868 H1860 0.950 . S
C1868 C1869 1.386 . S
C1868 C1870 1.391 . S
C1869 C1868 1.386 . S
C1869 C1873 1.393 1_554 S
C1870 H1862 0.950 . S
C1870 C1868 1.391 . S
C1870 C1871 1.400 . S
C1871 C1870 1.400 . S
C1871 C1872 1.398 1_554 S
C1871 C1877 1.491 . S
C1872 H1863 0.950 . S
C1872 C1871 1.398 1_556 S
C1872 C1873 1.391 . S
C1873 H1861 0.950 . S
C1873 C1869 1.393 1_556 S
C1873 C1872 1.391 . S
C1874 H1864 0.950 . S
C1874 C1875 1.288 1_556 S
C1874 C1876 1.391 . S
C1875 C1874 1.288 1_554 S
C1875 C1879 1.502 . S
C1876 H1865 0.950 . S
C1876 C1874 1.391 . S
C1876 C1877 1.400 1_556 S
C1877 C1871 1.491 . S
C1877 C1876 1.400 1_554 S
C1877 C1878 1.398 . S
C1878 H1866 0.950 . S
C1878 C1877 1.398 . S
C1878 C1879 1.391 . S
C1879 H1867 0.950 . S
C1879 C1875 1.502 . S
C1879 C1878 1.391 . S
H1880 C1888 0.950 . S
H1881 C1893 0.950 . S
H1882 C1890 0.950 . S
H1883 C1892 0.972 . S
H1884 C1894 0.975 . S
H1885 C1896 0.944 1_556 S
H1886 C1898 0.950 . S
H1887 C1899 0.950 . S
C1888 H1880 0.950 . S
C1888 C1889 1.400 . S
C1888 C1890 1.391 . S
C1889 C1888 1.400 . S
C1889 C1893 1.383 1_554 S
C1890 H1882 0.950 . S
C1890 C1888 1.391 . S
C1890 C1891 1.400 . S
C1891 C1890 1.400 . S
C1891 C1892 1.378 1_554 S
C1891 C1897 1.491 . S
C1892 H1883 0.972 . S
C1892 C1891 1.378 1_556 S
C1892 C1893 1.398 . S
C1893 H1881 0.950 . S
C1893 C1889 1.383 1_556 S
C1893 C1892 1.398 . S
C1894 H1884 0.975 . S
C1894 C1895 1.386 . S
C1894 C1896 1.391 . S
C1895 C1894 1.386 . S
C1895 C1899 1.393 . S
C1896 H1885 0.944 1_554 S
C1896 C1894 1.391 . S
C1896 C1897 1.400 . S
C1897 C1891 1.491 . S
C1897 C1896 1.400 . S
C1897 C1898 1.398 . S
C1898 H1886 0.950 . S
C1898 C1897 1.398 . S
C1898 C1899 1.391 . S
C1899 H1887 0.950 . S
C1899 C1895 1.393 . S
C1899 C1898 1.391 . S
H1900 C1908 0.950 . S
H1901 C1913 0.950 . S
H1902 C1910 0.950 . S
H1903 C1912 0.950 . S
H1904 C1914 0.961 . S
H1905 C1916 0.950 . S
H1906 C1918 0.949 . S
H1907 C1919 0.948 1_556 S
C1908 H1900 0.950 . S
C1908 C1909 1.386 . S
C1908 C1910 1.391 . S
C1909 C1908 1.386 . S
C1909 C1913 1.393 . S
C1910 H1902 0.950 . S
C1910 C1908 1.391 . S
C1910 C1911 1.400 . S
C1911 C1910 1.400 . S
C1911 C1912 1.398 . S
C1911 C1917 1.491 . S
C1912 H1903 0.950 . S
C1912 C1911 1.398 . S
C1912 C1913 1.391 . S
C1913 H1901 0.950 . S
C1913 C1909 1.393 . S
C1913 C1912 1.391 . S
C1914 H1904 0.961 . S
C1914 C1915 1.391 . S
C1914 C1916 1.391 . S
C1915 C1914 1.391 . S
C1915 C1919 1.393 . S
C1916 H1905 0.950 . S
C1916 C1914 1.391 . S
C1916 C1917 1.400 . S
C1917 C1911 1.491 . S
C1917 C1916 1.400 . S
C1917 C1918 1.414 . S
C1918 H1906 0.949 . S
C1918 C1917 1.414 . S
C1918 C1919 1.389 . S
C1919 H1907 0.948 1_554 S
C1919 C1915 1.393 . S
C1919 C1918 1.389 . S
H1920 C1928 0.950 . S
H1921 C1933 0.950 . S
H1922 C1930 0.950 . S
H1923 C1932 0.950 . S
H1924 C1934 0.950 . S
H1925 C1936 0.950 . S
H1926 C1938 0.950 . S
H1927 C1939 0.950 . S
C1928 H1920 0.950 . S
C1928 C1929 1.386 . S
C1928 C1930 1.391 . S
C1929 C1928 1.386 . S
C1929 C1933 1.393 . S
C1930 H1922 0.950 . S
C1930 C1928 1.391 . S
C1930 C1931 1.400 . S
C1931 C1930 1.400 . S
C1931 C1932 1.398 . S
C1931 C1937 1.491 . S
C1932 H1923 0.950 . S
C1932 C1931 1.398 . S
C1932 C1933 1.391 . S
C1933 H1921 0.950 . S
C1933 C1929 1.393 . S
C1933 C1932 1.391 . S
C1934 H1924 0.950 . S
C1934 C1935 1.386 . S
C1934 C1936 1.391 . S
C1935 C1934 1.386 . S
C1935 C1939 1.393 . S
C1936 H1925 0.950 . S
C1936 C1934 1.391 . S
C1936 C1937 1.400 . S
C1937 C1931 1.491 . S
C1937 C1936 1.400 . S
C1937 C1938 1.398 . S
C1938 H1926 0.950 . S
C1938 C1937 1.398 . S
C1938 C1939 1.391 . S
C1939 H1927 0.950 . S
C1939 C1935 1.393 . S
C1939 C1938 1.391 . S
H1940 C1948 0.950 . S
H1941 C1953 0.950 . S
H1942 C1950 0.950 . S
H1943 C1952 0.950 . S
H1944 C1954 0.950 . S
H1945 C1956 0.950 . S
H1946 C1958 0.950 . S
H1947 C1959 0.950 . S
C1948 H1940 0.950 . S
C1948 C1949 1.386 . S
C1948 C1950 1.391 . S
C1949 C1948 1.386 . S
C1949 C1953 1.393 . S
C1950 H1942 0.950 . S
C1950 C1948 1.391 . S
C1950 C1951 1.400 . S
C1951 C1950 1.400 . S
C1951 C1952 1.398 . S
C1951 C1957 1.491 . S
C1952 H1943 0.950 . S
C1952 C1951 1.398 . S
C1952 C1953 1.391 . S
C1953 H1941 0.950 . S
C1953 C1949 1.393 . S
C1953 C1952 1.391 . S
C1954 H1944 0.950 . S
C1954 C1955 1.386 . S
C1954 C1956 1.391 . S
C1955 C1954 1.386 . S
C1955 C1959 1.393 . S
C1956 H1945 0.950 . S
C1956 C1954 1.391 . S
C1956 C1957 1.400 . S
C1957 C1951 1.491 . S
C1957 C1956 1.400 . S
C1957 C1958 1.398 . S
C1958 H1946 0.950 . S
C1958 C1957 1.398 . S
C1958 C1959 1.391 . S
C1959 H1947 0.950 . S
C1959 C1955 1.393 . S
C1959 C1958 1.391 . S
H1960 C1968 0.950 . S
H1961 C1973 0.950 . S
H1962 C1970 0.950 . S
H1963 C1972 0.950 . S
H1964 C1974 0.950 . S
H1965 C1976 0.950 . S
H1966 C1978 0.950 . S
H1967 C1979 0.950 . S
C1968 H1960 0.950 . S
C1968 C1969 1.386 . S
C1968 C1970 1.391 . S
C1969 C1968 1.386 . S
C1969 C1973 1.393 . S
C1970 H1962 0.950 . S
C1970 C1968 1.391 . S
C1970 C1971 1.400 . S
C1971 C1970 1.400 . S
C1971 C1972 1.398 . S
C1971 C1977 1.491 . S
C1972 H1963 0.950 . S
C1972 C1971 1.398 . S
C1972 C1973 1.391 . S
C1973 H1961 0.950 . S
C1973 C1969 1.393 . S
C1973 C1972 1.391 . S
C1974 H1964 0.950 . S
C1974 C1975 1.386 . S
C1974 C1976 1.391 . S
C1975 C1974 1.386 . S
C1975 C1979 1.393 . S
C1976 H1965 0.950 . S
C1976 C1974 1.391 . S
C1976 C1977 1.400 . S
C1977 C1971 1.491 . S
C1977 C1976 1.400 . S
C1977 C1978 1.398 . S
C1978 H1966 0.950 . S
C1978 C1977 1.398 . S
C1978 C1979 1.391 . S
C1979 H1967 0.950 . S
C1979 C1975 1.393 . S
C1979 C1978 1.391 . S
H1980 C1988 0.950 . S
H1981 C1993 0.950 . S
H1982 C1990 0.950 . S
H1983 C1992 0.950 . S
H1984 C1994 0.950 . S
H1985 C1996 0.950 . S
H1986 C1998 0.950 . S
H1987 C1999 0.950 . S
C1988 H1980 0.950 . S
C1988 C1989 1.348 1_554 S
C1988 C1990 1.391 . S
C1989 C1988 1.348 1_556 S
C1989 C1993 1.437 . S
C1990 H1982 0.950 . S
C1990 C1988 1.391 . S
C1990 C1991 1.400 1_554 S
C1991 C1990 1.400 1_556 S
C1991 C1992 1.398 . S
C1991 C1997 1.491 . S
C1992 H1983 0.950 . S
C1992 C1991 1.398 . S
C1992 C1993 1.391 . S
C1993 H1981 0.950 . S
C1993 C1989 1.437 . S
C1993 C1992 1.391 . S
C1994 H1984 0.950 . S
C1994 C1995 1.386 . S
C1994 C1996 1.391 . S
C1995 C1994 1.386 . S
C1995 C1999 1.393 1_556 S
C1996 H1985 0.950 . S
C1996 C1994 1.391 . S
C1996 C1997 1.400 . S
C1997 C1991 1.491 . S
C1997 C1996 1.400 . S
C1997 C1998 1.398 1_556 S
C1998 H1986 0.950 . S
C1998 C1997 1.398 1_554 S
C1998 C1999 1.391 . S
C1999 H1987 0.950 . S
C1999 C1995 1.393 1_554 S
C1999 C1998 1.391 . S
H2000 C2008 0.950 . S
H2001 C2013 0.950 . S
H2002 C2010 0.950 . S
H2003 C2012 0.950 . S
H2004 C2014 0.950 . S
H2005 C2016 0.950 . S
H2006 C2018 0.950 . S
H2007 C2019 0.950 . S
C2008 H2000 0.950 . S
C2008 C2009 1.296 1_554 S
C2008 C2010 1.391 . S
C2009 C2008 1.296 1_556 S
C2009 C2013 1.491 . S
C2010 H2002 0.950 . S
C2010 C2008 1.391 . S
C2010 C2011 1.400 1_554 S
C2011 C2010 1.400 1_556 S
C2011 C2012 1.398 . S
C2011 C2017 1.491 . S
C2012 H2003 0.950 . S
C2012 C2011 1.398 . S
C2012 C2013 1.391 . S
C2013 H2001 0.950 . S
C2013 C2009 1.491 . S
C2013 C2012 1.391 . S
C2014 H2004 0.950 . S
C2014 C2015 1.386 . S
C2014 C2016 1.391 . S
C2015 C2014 1.386 . S
C2015 C2019 1.393 1_556 S
C2016 H2005 0.950 . S
C2016 C2014 1.391 . S
C2016 C2017 1.400 . S
C2017 C2011 1.491 . S
C2017 C2016 1.400 . S
C2017 C2018 1.398 1_556 S
C2018 H2006 0.950 . S
C2018 C2017 1.398 1_554 S
C2018 C2019 1.391 . S
C2019 H2007 0.950 . S
C2019 C2015 1.393 1_554 S
C2019 C2018 1.391 . S
H2020 C2028 0.950 . S
H2021 C2033 0.950 . S
H2022 C2030 0.950 . S
H2023 C2032 0.950 . S
H2024 C2034 0.950 . S
H2025 C2036 0.950 . S
H2026 C2038 0.961 . S
H2027 C2039 0.946 1_554 S
C2028 H2020 0.950 . S
C2028 C2029 1.363 1_554 S
C2028 C2030 1.391 . S
C2029 C2028 1.363 1_556 S
C2029 C2033 1.421 . S
C2030 H2022 0.950 . S
C2030 C2028 1.391 . S
C2030 C2031 1.400 1_554 S
C2031 C2030 1.400 1_556 S
C2031 C2032 1.398 . S
C2031 C2037 1.491 . S
C2032 H2023 0.950 . S
C2032 C2031 1.398 . S
C2032 C2033 1.391 . S
C2033 H2021 0.950 . S
C2033 C2029 1.421 . S
C2033 C2032 1.391 . S
C2034 H2024 0.950 . S
C2034 C2035 1.386 . S
C2034 C2036 1.391 . S
C2035 C2034 1.386 . S
C2035 C2039 1.398 . S
C2036 H2025 0.950 . S
C2036 C2034 1.391 . S
C2036 C2037 1.400 . S
C2037 C2031 1.491 . S
C2037 C2036 1.400 . S
C2037 C2038 1.390 1_556 S
C2038 H2026 0.961 . S
C2038 C2037 1.390 1_554 S
C2038 C2039 1.389 1_554 S
C2039 H2027 0.946 1_556 S
C2039 C2035 1.398 . S
C2039 C2038 1.389 1_556 S
H2040 C2048 0.950 . S
H2041 C2053 0.950 . S
H2042 C2050 0.950 . S
H2043 C2052 0.950 . S
H2044 C2054 0.950 . S
H2045 C2056 0.950 . S
H2046 C2058 0.950 . S
H2047 C2059 0.950 . S
C2048 H2040 0.950 . S
C2048 C2049 1.386 . S
C2048 C2050 1.391 . S
C2049 C2048 1.386 . S
C2049 C2053 1.393 . S
C2050 H2042 0.950 . S
C2050 C2048 1.391 . S
C2050 C2051 1.400 . S
C2051 C2050 1.400 . S
C2051 C2052 1.398 . S
C2051 C2057 1.491 . S
C2052 H2043 0.950 . S
C2052 C2051 1.398 . S
C2052 C2053 1.391 . S
C2053 H2041 0.950 . S
C2053 C2049 1.393 . S
C2053 C2052 1.391 . S
C2054 H2044 0.950 . S
C2054 C2055 1.386 . S
C2054 C2056 1.391 . S
C2055 C2054 1.386 . S
C2055 C2059 1.393 . S
C2056 H2045 0.950 . S
C2056 C2054 1.391 . S
C2056 C2057 1.400 . S
C2057 C2051 1.491 . S
C2057 C2056 1.400 . S
C2057 C2058 1.398 . S
C2058 H2046 0.950 . S
C2058 C2057 1.398 . S
C2058 C2059 1.391 . S
C2059 H2047 0.950 . S
C2059 C2055 1.393 . S
C2059 C2058 1.391 . S
H2060 C2068 0.950 . S
H2061 C2073 0.950 . S
H2062 C2070 0.950 . S
H2063 C2072 0.950 . S
H2064 C2074 0.950 . S
H2065 C2076 0.950 . S
H2066 C2078 0.950 . S
H2067 C2079 0.950 . S
C2068 H2060 0.950 . S
C2068 C2069 1.386 . S
C2068 C2070 1.391 . S
C2069 C2068 1.386 . S
C2069 C2073 1.393 . S
C2070 H2062 0.950 . S
C2070 C2068 1.391 . S
C2070 C2071 1.400 . S
C2071 C2070 1.400 . S
C2071 C2072 1.398 . S
C2071 C2077 1.491 . S
C2072 H2063 0.950 . S
C2072 C2071 1.398 . S
C2072 C2073 1.391 . S
C2073 H2061 0.950 . S
C2073 C2069 1.393 . S
C2073 C2072 1.391 . S
C2074 H2064 0.950 . S
C2074 C2075 1.386 . S
C2074 C2076 1.391 . S
C2075 C2074 1.386 . S
C2075 C2079 1.393 . S
C2076 H2065 0.950 . S
C2076 C2074 1.391 . S
C2076 C2077 1.400 . S
C2077 C2071 1.491 . S
C2077 C2076 1.400 . S
C2077 C2078 1.398 . S
C2078 H2066 0.950 . S
C2078 C2077 1.398 . S
C2078 C2079 1.391 . S
C2079 H2067 0.950 . S
C2079 C2075 1.393 . S
C2079 C2078 1.391 . S
H2080 C2088 0.950 . S
H2081 C2093 0.950 . S
H2082 C2090 0.950 . S
H2083 C2092 0.950 . S
H2084 C2094 0.950 . S
H2085 C2096 0.950 . S
H2086 C2098 0.950 . S
H2087 C2099 0.950 . S
C2088 H2080 0.950 . S
C2088 C2089 1.386 . S
C2088 C2090 1.391 . S
C2089 C2088 1.386 . S
C2089 C2093 1.393 . S
C2090 H2082 0.950 . S
C2090 C2088 1.391 . S
C2090 C2091 1.400 . S
C2091 C2090 1.400 . S
C2091 C2092 1.398 . S
C2091 C2097 1.491 . S
C2092 H2083 0.950 . S
C2092 C2091 1.398 . S
C2092 C2093 1.391 . S
C2093 H2081 0.950 . S
C2093 C2089 1.393 . S
C2093 C2092 1.391 . S
C2094 H2084 0.950 . S
C2094 C2095 1.386 . S
C2094 C2096 1.391 . S
C2095 C2094 1.386 . S
C2095 C2099 1.393 . S
C2096 H2085 0.950 . S
C2096 C2094 1.391 . S
C2096 C2097 1.400 . S
C2097 C2091 1.491 . S
C2097 C2096 1.400 . S
C2097 C2098 1.398 . S
C2098 H2086 0.950 . S
C2098 C2097 1.398 . S
C2098 C2099 1.391 . S
C2099 H2087 0.950 . S
C2099 C2095 1.393 . S
C2099 C2098 1.391 . S
H2100 C2108 0.950 . S
H2101 C2113 0.950 . S
H2102 C2110 0.950 . S
H2103 C2112 0.950 . S
H2104 C2114 0.950 . S
H2105 C2116 0.950 . S
H2106 C2118 0.950 . S
H2107 C2119 0.950 . S
C2108 H2100 0.950 . S
C2108 C2109 1.386 . S
C2108 C2110 1.391 . S
C2109 C2108 1.386 . S
C2109 C2113 1.393 . S
C2110 H2102 0.950 . S
C2110 C2108 1.391 . S
C2110 C2111 1.400 . S
C2111 C2110 1.400 . S
C2111 C2112 1.398 . S
C2111 C2117 1.491 . S
C2112 H2103 0.950 . S
C2112 C2111 1.398 . S
C2112 C2113 1.391 . S
C2113 H2101 0.950 . S
C2113 C2109 1.393 . S
C2113 C2112 1.391 . S
C2114 H2104 0.950 . S
C2114 C2115 1.386 . S
C2114 C2116 1.391 . S
C2115 C2114 1.386 . S
C2115 C2119 1.393 . S
C2116 H2105 0.950 . S
C2116 C2114 1.391 . S
C2116 C2117 1.400 . S
C2117 C2111 1.491 . S
C2117 C2116 1.400 . S
C2117 C2118 1.398 . S
C2118 H2106 0.950 . S
C2118 C2117 1.398 . S
C2118 C2119 1.391 . S
C2119 H2107 0.950 . S
C2119 C2115 1.393 . S
C2119 C2118 1.391 . S
H2120 C2128 0.950 . S
H2121 C2133 0.950 . S
H2122 C2130 0.950 . S
H2123 C2132 0.950 . S
H2124 C2134 0.950 . S
H2125 C2136 0.950 . S
H2126 C2138 0.950 . S
H2127 C2139 0.950 . S
C2128 H2120 0.950 . S
C2128 C2129 1.386 . S
C2128 C2130 1.391 . S
C2129 C2128 1.386 . S
C2129 C2133 1.393 . S
C2130 H2122 0.950 . S
C2130 C2128 1.391 . S
C2130 C2131 1.400 . S
C2131 C2130 1.400 . S
C2131 C2132 1.398 . S
C2131 C2137 1.491 . S
C2132 H2123 0.950 . S
C2132 C2131 1.398 . S
C2132 C2133 1.391 . S
C2133 H2121 0.950 . S
C2133 C2129 1.393 . S
C2133 C2132 1.391 . S
C2134 H2124 0.950 . S
C2134 C2135 1.386 . S
C2134 C2136 1.391 . S
C2135 C2134 1.386 . S
C2135 C2139 1.393 . S
C2136 H2125 0.950 . S
C2136 C2134 1.391 . S
C2136 C2137 1.400 . S
C2137 C2131 1.491 . S
C2137 C2136 1.400 . S
C2137 C2138 1.398 . S
C2138 H2126 0.950 . S
C2138 C2137 1.398 . S
C2138 C2139 1.391 . S
C2139 H2127 0.950 . S
C2139 C2135 1.393 . S
C2139 C2138 1.391 . S
H2140 C2148 0.950 . S
H2141 C2153 0.950 . S
H2142 C2150 0.950 . S
H2143 C2152 0.950 . S
H2144 C2154 0.950 . S
H2145 C2156 0.950 . S
H2146 C2158 0.950 . S
H2147 C2159 0.950 . S
C2148 H2140 0.950 . S
C2148 C2149 1.386 . S
C2148 C2150 1.391 . S
C2149 C2148 1.386 . S
C2149 C2153 1.393 . S
C2150 H2142 0.950 . S
C2150 C2148 1.391 . S
C2150 C2151 1.400 . S
C2151 C2150 1.400 . S
C2151 C2152 1.398 . S
C2151 C2157 1.491 . S
C2152 H2143 0.950 . S
C2152 C2151 1.398 . S
C2152 C2153 1.391 . S
C2153 H2141 0.950 . S
C2153 C2149 1.393 . S
C2153 C2152 1.391 . S
C2154 H2144 0.950 . S
C2154 C2155 1.386 . S
C2154 C2156 1.391 . S
C2155 C2154 1.386 . S
C2155 C2159 1.393 . S
C2156 H2145 0.950 . S
C2156 C2154 1.391 . S
C2156 C2157 1.400 . S
C2157 C2151 1.491 . S
C2157 C2156 1.400 . S
C2157 C2158 1.398 . S
C2158 H2146 0.950 . S
C2158 C2157 1.398 . S
C2158 C2159 1.391 . S
C2159 H2147 0.950 . S
C2159 C2155 1.393 . S
C2159 C2158 1.391 . S
H2160 C2168 0.950 . S
H2161 C2173 0.950 . S
H2162 C2170 0.950 . S
H2163 C2172 0.950 . S
H2164 C2174 0.950 . S
H2165 C2176 0.950 . S
H2166 C2178 0.950 . S
H2167 C2179 0.950 . S
C2168 H2160 0.950 . S
C2168 C2169 1.386 . S
C2168 C2170 1.391 . S
C2169 C2168 1.386 . S
C2169 C2173 1.393 . S
C2170 H2162 0.950 . S
C2170 C2168 1.391 . S
C2170 C2171 1.400 . S
C2171 C2170 1.400 . S
C2171 C2172 1.398 . S
C2171 C2177 1.491 . S
C2172 H2163 0.950 . S
C2172 C2171 1.398 . S
C2172 C2173 1.391 . S
C2173 H2161 0.950 . S
C2173 C2169 1.393 . S
C2173 C2172 1.391 . S
C2174 H2164 0.950 . S
C2174 C2175 1.386 . S
C2174 C2176 1.391 . S
C2175 C2174 1.386 . S
C2175 C2179 1.393 . S
C2176 H2165 0.950 . S
C2176 C2174 1.391 . S
C2176 C2177 1.400 . S
C2177 C2171 1.491 . S
C2177 C2176 1.400 . S
C2177 C2178 1.398 . S
C2178 H2166 0.950 . S
C2178 C2177 1.398 . S
C2178 C2179 1.391 . S
C2179 H2167 0.950 . S
C2179 C2175 1.393 . S
C2179 C2178 1.391 . S
H2180 C2188 0.950 . S
H2181 C2193 0.950 . S
H2182 C2190 0.950 . S
H2183 C2192 0.950 . S
H2184 C2194 0.950 . S
H2185 C2196 0.950 . S
H2186 C2198 0.950 1_545 S
H2187 C2199 0.950 . S
C2188 H2180 0.950 . S
C2188 C2189 1.386 . S
C2188 C2190 1.391 . S
C2189 C2188 1.386 . S
C2189 C2193 1.393 1_545 S
C2190 H2182 0.950 . S
C2190 C2188 1.391 . S
C2190 C2191 1.400 1_545 S
C2191 C2190 1.400 1_565 S
C2191 C2192 1.398 . S
C2191 C2197 1.491 . S
C2192 H2183 0.950 . S
C2192 C2191 1.398 . S
C2192 C2193 1.391 . S
C2193 H2181 0.950 . S
C2193 C2189 1.393 1_565 S
C2193 C2192 1.391 . S
C2194 H2184 0.950 . S
C2194 C2195 1.386 . S
C2194 C2196 1.391 . S
C2195 C2194 1.386 . S
C2195 C2199 1.393 . S
C2196 H2185 0.950 . S
C2196 C2194 1.391 . S
C2196 C2197 1.400 . S
C2197 C2191 1.491 . S
C2197 C2196 1.400 . S
C2197 C2198 1.398 . S
C2198 H2186 0.950 1_565 S
C2198 C2197 1.398 . S
C2198 C2199 1.391 . S
C2199 H2187 0.950 . S
C2199 C2195 1.393 . S
C2199 C2198 1.391 . S
H2200 C2208 0.950 . S
H2201 C2213 0.950 . S
H2202 C2210 0.950 . S
H2203 C2212 0.950 . S
H2204 C2214 0.950 . S
H2205 C2216 0.950 . S
H2206 C2218 0.950 . S
H2207 C2219 0.950 . S
C2208 H2200 0.950 . S
C2208 C2209 1.386 . S
C2208 C2210 1.391 . S
C2209 C2208 1.386 . S
C2209 C2213 1.393 . S
C2210 H2202 0.950 . S
C2210 C2208 1.391 . S
C2210 C2211 1.400 . S
C2211 C2210 1.400 . S
C2211 C2212 1.398 . S
C2211 C2217 1.491 . S
C2212 H2203 0.950 . S
C2212 C2211 1.398 . S
C2212 C2213 1.391 . S
C2213 H2201 0.950 . S
C2213 C2209 1.393 . S
C2213 C2212 1.391 . S
C2214 H2204 0.950 . S
C2214 C2215 1.386 . S
C2214 C2216 1.391 . S
C2215 C2214 1.386 . S
C2215 C2219 1.393 1_655 S
C2216 H2205 0.950 . S
C2216 C2214 1.391 . S
C2216 C2217 1.400 1_655 S
C2217 C2211 1.491 . S
C2217 C2216 1.400 1_455 S
C2217 C2218 1.398 . S
C2218 H2206 0.950 . S
C2218 C2217 1.398 . S
C2218 C2219 1.391 . S
C2219 H2207 0.950 . S
C2219 C2215 1.393 1_455 S
C2219 C2218 1.391 . S
H2220 C2228 0.950 . S
H2221 C2233 0.950 . S
H2222 C2230 0.950 . S
H2223 C2232 0.950 . S
H2224 C2234 0.950 . S
H2225 C2236 0.950 . S
H2226 C2238 0.950 . S
H2227 C2239 0.950 . S
C2228 H2220 0.950 . S
C2228 C2229 1.386 . S
C2228 C2230 1.391 . S
C2229 C2228 1.386 . S
C2229 C2233 1.393 . S
C2230 H2222 0.950 . S
C2230 C2228 1.391 . S
C2230 C2231 1.400 . S
C2231 C2230 1.400 . S
C2231 C2232 1.398 . S
C2231 C2237 1.491 . S
C2232 H2223 0.950 . S
C2232 C2231 1.398 . S
C2232 C2233 1.391 . S
C2233 H2221 0.950 . S
C2233 C2229 1.393 . S
C2233 C2232 1.391 . S
C2234 H2224 0.950 . S
C2234 C2235 1.386 . S
C2234 C2236 1.391 . S
C2235 C2234 1.386 . S
C2235 C2239 1.393 . S
C2236 H2225 0.950 . S
C2236 C2234 1.391 . S
C2236 C2237 1.400 . S
C2237 C2231 1.491 . S
C2237 C2236 1.400 . S
C2237 C2238 1.398 . S
C2238 H2226 0.950 . S
C2238 C2237 1.398 . S
C2238 C2239 1.391 . S
C2239 H2227 0.950 . S
C2239 C2235 1.393 . S
C2239 C2238 1.391 . S
H2240 C2248 0.950 . S
H2241 C2253 0.950 . S
H2242 C2250 0.950 . S
H2243 C2252 0.950 . S
H2244 C2254 0.950 . S
H2245 C2256 0.950 . S
H2246 C2258 0.950 1_565 S
H2247 C2259 0.950 . S
C2248 H2240 0.950 . S
C2248 C2249 1.386 . S
C2248 C2250 1.391 . S
C2249 C2248 1.386 . S
C2249 C2253 1.393 1_565 S
C2250 H2242 0.950 . S
C2250 C2248 1.391 . S
C2250 C2251 1.400 1_565 S
C2251 C2250 1.400 1_545 S
C2251 C2252 1.398 . S
C2251 C2257 1.491 . S
C2252 H2243 0.950 . S
C2252 C2251 1.398 . S
C2252 C2253 1.391 . S
C2253 H2241 0.950 . S
C2253 C2249 1.393 1_545 S
C2253 C2252 1.391 . S
C2254 H2244 0.950 . S
C2254 C2255 1.386 . S
C2254 C2256 1.391 . S
C2255 C2254 1.386 . S
C2255 C2259 1.393 . S
C2256 H2245 0.950 . S
C2256 C2254 1.391 . S
C2256 C2257 1.400 . S
C2257 C2251 1.491 . S
C2257 C2256 1.400 . S
C2257 C2258 1.398 . S
C2258 H2246 0.950 1_545 S
C2258 C2257 1.398 . S
C2258 C2259 1.391 . S
C2259 H2247 0.950 . S
C2259 C2255 1.393 . S
C2259 C2258 1.391 . S
H2260 C2268 0.950 . S
H2261 C2273 0.950 . S
H2262 C2270 0.950 . S
H2263 C2272 0.950 1_455 S
H2264 C2274 0.950 . S
H2265 C2276 0.950 . S
H2266 C2278 0.950 . S
H2267 C2279 0.950 . S
C2268 H2260 0.950 . S
C2268 C2269 1.386 . S
C2268 C2270 1.391 . S
C2269 C2268 1.386 . S
C2269 C2273 1.393 . S
C2270 H2262 0.950 . S
C2270 C2268 1.391 . S
C2270 C2271 1.400 . S
C2271 C2270 1.400 . S
C2271 C2272 1.398 . S
C2271 C2277 1.491 . S
C2272 H2263 0.950 1_655 S
C2272 C2271 1.398 . S
C2272 C2273 1.391 . S
C2273 H2261 0.950 . S
C2273 C2269 1.393 . S
C2273 C2272 1.391 . S
C2274 H2264 0.950 . S
C2274 C2275 1.386 . S
C2274 C2276 1.391 . S
C2275 C2274 1.386 . S
C2275 C2279 1.393 1_455 S
C2276 H2265 0.950 . S
C2276 C2274 1.391 . S
C2276 C2277 1.400 1_455 S
C2277 C2271 1.491 . S
C2277 C2276 1.400 1_655 S
C2277 C2278 1.398 . S
C2278 H2266 0.950 . S
C2278 C2277 1.398 . S
C2278 C2279 1.391 . S
C2279 H2267 0.950 . S
C2279 C2275 1.393 1_655 S
C2279 C2278 1.391 . S
H2280 C2288 0.950 . S
H2281 C2293 0.950 . S
H2282 C2290 0.950 . S
H2283 C2292 0.950 . S
H2284 C2294 0.950 . S
H2285 C2296 0.950 . S
H2286 C2298 0.950 . S
H2287 C2299 0.950 . S
C2288 H2280 0.950 . S
C2288 C2289 1.386 . S
C2288 C2290 1.391 . S
C2289 C2288 1.386 . S
C2289 C2293 1.393 . S
C2290 H2282 0.950 . S
C2290 C2288 1.391 . S
C2290 C2291 1.400 . S
C2291 C2290 1.400 . S
C2291 C2292 1.398 . S
C2291 C2297 1.491 . S
C2292 H2283 0.950 . S
C2292 C2291 1.398 . S
C2292 C2293 1.391 . S
C2293 H2281 0.950 . S
C2293 C2289 1.393 . S
C2293 C2292 1.391 . S
C2294 H2284 0.950 . S
C2294 C2295 1.386 . S
C2294 C2296 1.391 . S
C2295 C2294 1.386 . S
C2295 C2299 1.393 . S
C2296 H2285 0.950 . S
C2296 C2294 1.391 . S
C2296 C2297 1.400 . S
C2297 C2291 1.491 . S
C2297 C2296 1.400 . S
C2297 C2298 1.398 . S
C2298 H2286 0.950 . S
C2298 C2297 1.398 . S
C2298 C2299 1.391 . S
C2299 H2287 0.950 . S
C2299 C2295 1.393 . S
C2299 C2298 1.391 . S
H2300 C2308 0.950 . S
H2301 C2313 0.950 . S
H2302 C2310 0.941 1_565 S
H2303 C2312 0.950 . S
H2304 C2314 0.950 . S
H2305 C2316 0.950 . S
H2306 C2318 0.950 . S
H2307 C2319 0.950 . S
C2308 H2300 0.950 . S
C2308 C2309 1.386 . S
C2308 C2310 1.391 . S
C2309 C2308 1.386 . S
C2309 C2313 1.393 . S
C2310 H2302 0.941 1_545 S
C2310 C2308 1.391 . S
C2310 C2311 1.400 . S
C2311 C2310 1.400 . S
C2311 C2312 1.398 . S
C2311 C2317 1.491 . S
C2312 H2303 0.950 . S
C2312 C2311 1.398 . S
C2312 C2313 1.391 . S
C2313 H2301 0.950 . S
C2313 C2309 1.393 . S
C2313 C2312 1.391 . S
C2314 H2304 0.950 . S
C2314 C2315 1.386 1_545 S
C2314 C2316 1.391 . S
C2315 C2314 1.386 1_565 S
C2315 C2319 1.393 . S
C2316 H2305 0.950 . S
C2316 C2314 1.391 . S
C2316 C2317 1.400 . S
C2317 C2311 1.491 . S
C2317 C2316 1.400 . S
C2317 C2318 1.398 1_545 S
C2318 H2306 0.950 . S
C2318 C2317 1.398 1_565 S
C2318 C2319 1.391 . S
C2319 H2307 0.950 . S
C2319 C2315 1.393 . S
C2319 C2318 1.391 . S
H2320 C2328 0.950 . S
H2321 C2333 0.950 . S
H2322 C2330 0.950 . S
H2323 C2332 0.950 . S
H2324 C2334 0.950 . S
H2325 C2336 0.950 . S
H2326 C2338 0.950 . S
H2327 C2339 0.950 . S
C2328 H2320 0.950 . S
C2328 C2329 1.386 . S
C2328 C2330 1.391 . S
C2329 C2328 1.386 . S
C2329 C2333 1.393 . S
C2330 H2322 0.950 . S
C2330 C2328 1.391 . S
C2330 C2331 1.400 . S
C2331 C2330 1.400 . S
C2331 C2332 1.398 . S
C2331 C2337 1.491 . S
C2332 H2323 0.950 . S
C2332 C2331 1.398 . S
C2332 C2333 1.391 . S
C2333 H2321 0.950 . S
C2333 C2329 1.393 . S
C2333 C2332 1.391 . S
C2334 H2324 0.950 . S
C2334 C2335 1.386 1_655 S
C2334 C2336 1.391 . S
C2335 C2334 1.386 1_455 S
C2335 C2339 1.393 . S
C2336 H2325 0.950 . S
C2336 C2334 1.391 . S
C2336 C2337 1.400 . S
C2337 C2331 1.491 . S
C2337 C2336 1.400 . S
C2337 C2338 1.398 1_655 S
C2338 H2326 0.950 . S
C2338 C2337 1.398 1_455 S
C2338 C2339 1.391 . S
C2339 H2327 0.950 . S
C2339 C2335 1.393 . S
C2339 C2338 1.391 . S
H2340 C2348 0.950 . S
H2341 C2353 0.950 . S
H2342 C2350 0.950 . S
H2343 C2352 0.950 . S
H2344 C2354 0.950 . S
H2345 C2356 0.950 . S
H2346 C2358 0.950 . S
H2347 C2359 0.950 . S
C2348 H2340 0.950 . S
C2348 C2349 1.386 . S
C2348 C2350 1.391 . S
C2349 C2348 1.386 . S
C2349 C2353 1.393 . S
C2350 H2342 0.950 . S
C2350 C2348 1.391 . S
C2350 C2351 1.400 . S
C2351 C2350 1.400 . S
C2351 C2352 1.398 . S
C2351 C2357 1.491 . S
C2352 H2343 0.950 . S
C2352 C2351 1.398 . S
C2352 C2353 1.391 . S
C2353 H2341 0.950 . S
C2353 C2349 1.393 . S
C2353 C2352 1.391 . S
C2354 H2344 0.950 . S
C2354 C2355 1.386 . S
C2354 C2356 1.391 . S
C2355 C2354 1.386 . S
C2355 C2359 1.393 . S
C2356 H2345 0.950 . S
C2356 C2354 1.391 . S
C2356 C2357 1.400 . S
C2357 C2351 1.491 . S
C2357 C2356 1.400 . S
C2357 C2358 1.398 . S
C2358 H2346 0.950 . S
C2358 C2357 1.398 . S
C2358 C2359 1.391 . S
C2359 H2347 0.950 . S
C2359 C2355 1.393 . S
C2359 C2358 1.391 . S
H2360 C2368 0.950 . S
H2361 C2373 0.950 . S
H2362 C2370 0.950 . S
H2363 C2372 0.950 . S
H2364 C2374 0.950 . S
H2365 C2376 0.950 . S
H2366 C2378 0.950 1_545 S
H2367 C2379 0.950 . S
C2368 H2360 0.950 . S
C2368 C2369 1.386 . S
C2368 C2370 1.391 . S
C2369 C2368 1.386 . S
C2369 C2373 1.393 1_545 S
C2370 H2362 0.950 . S
C2370 C2368 1.391 . S
C2370 C2371 1.400 1_545 S
C2371 C2370 1.400 1_565 S
C2371 C2372 1.398 . S
C2371 C2377 1.491 . S
C2372 H2363 0.950 . S
C2372 C2371 1.398 . S
C2372 C2373 1.391 . S
C2373 H2361 0.950 . S
C2373 C2369 1.393 1_565 S
C2373 C2372 1.391 . S
C2374 H2364 0.950 . S
C2374 C2375 1.386 . S
C2374 C2376 1.391 . S
C2375 C2374 1.386 . S
C2375 C2379 1.393 . S
C2376 H2365 0.950 . S
C2376 C2374 1.391 . S
C2376 C2377 1.400 . S
C2377 C2371 1.491 . S
C2377 C2376 1.400 . S
C2377 C2378 1.398 . S
C2378 H2366 0.950 1_565 S
C2378 C2377 1.398 . S
C2378 C2379 1.391 . S
C2379 H2367 0.950 . S
C2379 C2375 1.393 . S
C2379 C2378 1.391 . S
H2380 C2388 0.950 . S
H2381 C2393 0.950 . S
H2382 C2390 0.950 . S
H2383 C2392 0.950 . S
H2384 C2394 0.950 . S
H2385 C2396 0.970 . S
H2386 C2398 0.950 . S
H2387 C2399 0.950 . S
C2388 H2380 0.950 . S
C2388 C2389 1.386 1_455 S
C2388 C2390 1.391 . S
C2389 C2388 1.386 1_655 S
C2389 C2393 1.393 . S
C2390 H2382 0.950 . S
C2390 C2388 1.391 . S
C2390 C2391 1.400 . S
C2391 C2390 1.400 . S
C2391 C2392 1.398 1_455 S
C2391 C2397 1.491 . S
C2392 H2383 0.950 . S
C2392 C2391 1.398 1_655 S
C2392 C2393 1.391 . S
C2393 H2381 0.950 . S
C2393 C2389 1.393 . S
C2393 C2392 1.391 . S
C2394 H2384 0.950 . S
C2394 C2395 1.386 . S
C2394 C2396 1.391 . S
C2395 C2394 1.386 . S
C2395 C2399 1.393 . S
C2396 H2385 0.970 . S
C2396 C2394 1.391 . S
C2396 C2397 1.400 . S
C2397 C2391 1.491 . S
C2397 C2396 1.400 . S
C2397 C2398 1.398 . S
C2398 H2386 0.950 . S
C2398 C2397 1.398 . S
C2398 C2399 1.391 . S
C2399 H2387 0.950 . S
C2399 C2395 1.393 . S
C2399 C2398 1.391 . S
H2400 C2408 0.950 . S
H2401 C2413 0.950 . S
H2402 C2410 0.950 . S
H2403 C2412 0.950 1_455 S
H2404 C2414 0.950 . S
H2405 C2416 0.950 . S
H2406 C2418 0.950 . S
H2407 C2419 0.950 . S
C2408 H2400 0.950 . S
C2408 C2409 1.386 . S
C2408 C2410 1.391 . S
C2409 C2408 1.386 . S
C2409 C2413 1.393 . S
C2410 H2402 0.950 . S
C2410 C2408 1.391 . S
C2410 C2411 1.400 1_655 S
C2411 C2410 1.400 1_455 S
C2411 C2412 1.398 1_455 S
C2411 C2417 1.491 . S
C2412 H2403 0.950 1_655 S
C2412 C2411 1.398 1_655 S
C2412 C2413 1.391 . S
C2413 H2401 0.950 . S
C2413 C2409 1.393 . S
C2413 C2412 1.391 . S
C2414 H2404 0.950 . S
C2414 C2415 1.386 . S
C2414 C2416 1.391 . S
C2415 C2414 1.386 . S
C2415 C2419 1.393 . S
C2416 H2405 0.950 . S
C2416 C2414 1.391 . S
C2416 C2417 1.400 . S
C2417 C2411 1.491 . S
C2417 C2416 1.400 . S
C2417 C2418 1.398 . S
C2418 H2406 0.950 . S
C2418 C2417 1.398 . S
C2418 C2419 1.391 . S
C2419 H2407 0.950 . S
C2419 C2415 1.393 . S
C2419 C2418 1.391 . S
H2420 C2428 0.950 . S
H2421 C2433 0.950 . S
H2422 C2430 0.950 . S
H2423 C2432 0.950 . S
H2424 C2434 0.950 . S
H2425 C2436 0.950 . S
H2426 C2438 0.950 . S
H2427 C2439 0.950 . S
C2428 H2420 0.950 . S
C2428 C2429 1.386 . S
C2428 C2430 1.391 . S
C2429 C2428 1.386 . S
C2429 C2433 1.393 . S
C2430 H2422 0.950 . S
C2430 C2428 1.391 . S
C2430 C2431 1.400 . S
C2431 C2430 1.400 . S
C2431 C2432 1.398 . S
C2431 C2437 1.491 . S
C2432 H2423 0.950 . S
C2432 C2431 1.398 . S
C2432 C2433 1.391 . S
C2433 H2421 0.950 . S
C2433 C2429 1.393 . S
C2433 C2432 1.391 . S
C2434 H2424 0.950 . S
C2434 C2435 1.386 . S
C2434 C2436 1.391 . S
C2435 C2434 1.386 . S
C2435 C2439 1.393 . S
C2436 H2425 0.950 . S
C2436 C2434 1.391 . S
C2436 C2437 1.400 . S
C2437 C2431 1.491 . S
C2437 C2436 1.400 . S
C2437 C2438 1.398 . S
C2438 H2426 0.950 . S
C2438 C2437 1.398 . S
C2438 C2439 1.391 . S
C2439 H2427 0.950 . S
C2439 C2435 1.393 . S
C2439 C2438 1.391 . S
H2440 C2448 0.950 . S
H2441 C2453 0.950 . S
H2442 C2450 0.950 . S
H2443 C2452 0.950 . S
H2444 C2454 0.950 . S
H2445 C2456 0.950 1_565 S
H2446 C2458 0.950 . S
H2447 C2459 0.950 . S
C2448 H2440 0.950 . S
C2448 C2449 1.386 . S
C2448 C2450 1.391 . S
C2449 C2448 1.386 . S
C2449 C2453 1.393 . S
C2450 H2442 0.950 . S
C2450 C2448 1.391 . S
C2450 C2451 1.400 . S
C2451 C2450 1.400 . S
C2451 C2452 1.398 . S
C2451 C2457 1.491 . S
C2452 H2443 0.950 . S
C2452 C2451 1.398 . S
C2452 C2453 1.391 . S
C2453 H2441 0.950 . S
C2453 C2449 1.393 . S
C2453 C2452 1.391 . S
C2454 H2444 0.950 . S
C2454 C2455 1.386 . S
C2454 C2456 1.391 . S
C2455 C2454 1.386 . S
C2455 C2459 1.393 . S
C2456 H2445 0.950 1_545 S
C2456 C2454 1.391 . S
C2456 C2457 1.400 1_545 S
C2457 C2451 1.491 . S
C2457 C2456 1.400 1_565 S
C2457 C2458 1.398 1_565 S
C2458 H2446 0.950 . S
C2458 C2457 1.398 1_545 S
C2458 C2459 1.391 . S
C2459 H2447 0.950 . S
C2459 C2455 1.393 . S
C2459 C2458 1.391 . S
H2460 C2468 0.950 . S
H2461 C2473 0.950 . S
H2462 C2470 0.950 . S
H2463 C2472 0.950 . S
H2464 C2474 0.950 . S
H2465 C2476 0.950 . S
H2466 C2478 0.950 . S
H2467 C2479 0.950 1_655 S
C2468 H2460 0.950 . S
C2468 C2469 1.386 . S
C2468 C2470 1.391 . S
C2469 C2468 1.386 . S
C2469 C2473 1.393 . S
C2470 H2462 0.950 . S
C2470 C2468 1.391 . S
C2470 C2471 1.400 . S
C2471 C2470 1.400 . S
C2471 C2472 1.398 . S
C2471 C2477 1.491 . S
C2472 H2463 0.950 . S
C2472 C2471 1.398 . S
C2472 C2473 1.391 . S
C2473 H2461 0.950 . S
C2473 C2469 1.393 . S
C2473 C2472 1.391 . S
C2474 H2464 0.950 . S
C2474 C2475 1.386 1_455 S
C2474 C2476 1.391 . S
C2475 C2474 1.386 1_655 S
C2475 C2479 1.393 1_655 S
C2476 H2465 0.950 . S
C2476 C2474 1.391 . S
C2476 C2477 1.400 . S
C2477 C2471 1.491 . S
C2477 C2476 1.400 . S
C2477 C2478 1.398 . S
C2478 H2466 0.950 . S
C2478 C2477 1.398 . S
C2478 C2479 1.391 . S
C2479 H2467 0.950 1_455 S
C2479 C2475 1.393 1_455 S
C2479 C2478 1.391 . S
H2480 C2488 0.950 . S
H2481 C2493 0.950 . S
H2482 C2490 0.950 . S
H2483 C2492 0.950 . S
H2484 C2494 0.950 . S
H2485 C2496 0.950 . S
H2486 C2498 0.950 . S
H2487 C2499 0.950 . S
C2488 H2480 0.950 . S
C2488 C2489 1.386 . S
C2488 C2490 1.391 . S
C2489 C2488 1.386 . S
C2489 C2493 1.393 . S
C2490 H2482 0.950 . S
C2490 C2488 1.391 . S
C2490 C2491 1.400 . S
C2491 C2490 1.400 . S
C2491 C2492 1.398 . S
C2491 C2497 1.491 . S
C2492 H2483 0.950 . S
C2492 C2491 1.398 . S
C2492 C2493 1.391 . S
C2493 H2481 0.950 . S
C2493 C2489 1.393 . S
C2493 C2492 1.391 . S
C2494 H2484 0.950 . S
C2494 C2495 1.386 . S
C2494 C2496 1.391 . S
C2495 C2494 1.386 . S
C2495 C2499 1.393 . S
C2496 H2485 0.950 . S
C2496 C2494 1.391 . S
C2496 C2497 1.400 . S
C2497 C2491 1.491 . S
C2497 C2496 1.400 . S
C2497 C2498 1.398 . S
C2498 H2486 0.950 . S
C2498 C2497 1.398 . S
C2498 C2499 1.391 . S
C2499 H2487 0.950 . S
C2499 C2495 1.393 . S
C2499 C2498 1.391 . S
H2500 C2508 0.950 . S
H2501 C2513 0.950 . S
H2502 C2510 0.950 . S
H2503 C2512 0.950 . S
H2504 C2514 0.950 . S
H2505 C2516 0.950 . S
H2506 C2518 0.950 1_545 S
H2507 C2519 0.950 . S
C2508 H2500 0.950 . S
C2508 C2509 1.386 . S
C2508 C2510 1.391 . S
C2509 C2508 1.386 . S
C2509 C2513 1.393 . S
C2510 H2502 0.950 . S
C2510 C2508 1.391 . S
C2510 C2511 1.400 . S
C2511 C2510 1.400 . S
C2511 C2512 1.398 . S
C2511 C2517 1.491 . S
C2512 H2503 0.950 . S
C2512 C2511 1.398 . S
C2512 C2513 1.391 . S
C2513 H2501 0.950 . S
C2513 C2509 1.393 . S
C2513 C2512 1.391 . S
C2514 H2504 0.950 . S
C2514 C2515 1.386 1_565 S
C2514 C2516 1.391 . S
C2515 C2514 1.386 1_545 S
C2515 C2519 1.393 . S
C2516 H2505 0.950 . S
C2516 C2514 1.391 . S
C2516 C2517 1.400 . S
C2517 C2511 1.491 . S
C2517 C2516 1.400 . S
C2517 C2518 1.398 . S
C2518 H2506 0.950 1_565 S
C2518 C2517 1.398 . S
C2518 C2519 1.391 1_565 S
C2519 H2507 0.950 . S
C2519 C2515 1.393 . S
C2519 C2518 1.391 1_545 S
H2520 C2528 0.950 . S
H2521 C2533 0.950 . S
H2522 C2530 0.950 . S
H2523 C2532 0.950 . S
H2524 C2534 0.950 . S
H2525 C2536 0.950 . S
H2526 C2538 0.968 . S
H2527 C2539 0.950 . S
C2528 H2520 0.950 . S
C2528 C2529 1.386 . S
C2528 C2530 1.391 . S
C2529 C2528 1.386 . S
C2529 C2533 1.393 . S
C2530 H2522 0.950 . S
C2530 C2528 1.391 . S
C2530 C2531 1.400 . S
C2531 C2530 1.400 . S
C2531 C2532 1.398 . S
C2531 C2537 1.491 . S
C2532 H2523 0.950 . S
C2532 C2531 1.398 . S
C2532 C2533 1.391 . S
C2533 H2521 0.950 . S
C2533 C2529 1.393 . S
C2533 C2532 1.391 . S
C2534 H2524 0.950 . S
C2534 C2535 1.386 1_565 S
C2534 C2536 1.391 . S
C2535 C2534 1.386 1_545 S
C2535 C2539 1.393 . S
C2536 H2525 0.950 . S
C2536 C2534 1.391 . S
C2536 C2537 1.400 . S
C2537 C2531 1.491 . S
C2537 C2536 1.400 . S
C2537 C2538 1.398 . S
C2538 H2526 0.968 . S
C2538 C2537 1.398 . S
C2538 C2539 1.391 1_565 S
C2539 H2527 0.950 . S
C2539 C2535 1.393 . S
C2539 C2538 1.391 1_545 S
H2540 C2548 0.950 . S
H2541 C2553 0.950 . S
H2542 C2550 0.950 . S
H2543 C2552 0.950 1_655 S
H2544 C2554 0.950 . S
H2545 C2556 0.950 . S
H2546 C2558 0.950 . S
H2547 C2559 0.950 . S
C2548 H2540 0.950 . S
C2548 C2549 1.386 1_455 S
C2548 C2550 1.391 . S
C2549 C2548 1.386 1_655 S
C2549 C2553 1.393 . S
C2550 H2542 0.950 . S
C2550 C2548 1.391 . S
C2550 C2551 1.400 . S
C2551 C2550 1.400 . S
C2551 C2552 1.398 . S
C2551 C2557 1.491 . S
C2552 H2543 0.950 1_455 S
C2552 C2551 1.398 . S
C2552 C2553 1.391 1_455 S
C2553 H2541 0.950 . S
C2553 C2549 1.393 . S
C2553 C2552 1.391 1_655 S
C2554 H2544 0.950 . S
C2554 C2555 1.386 . S
C2554 C2556 1.391 . S
C2555 C2554 1.386 . S
C2555 C2559 1.393 . S
C2556 H2545 0.950 . S
C2556 C2554 1.391 . S
C2556 C2557 1.400 . S
C2557 C2551 1.491 . S
C2557 C2556 1.400 . S
C2557 C2558 1.398 . S
C2558 H2546 0.950 . S
C2558 C2557 1.398 . S
C2558 C2559 1.391 . S
C2559 H2547 0.950 . S
C2559 C2555 1.393 . S
C2559 C2558 1.391 . S
H2560 C2568 0.950 . S
H2561 C2573 0.950 . S
H2562 C2570 0.950 . S
H2563 C2572 0.950 . S
H2564 C2574 0.950 . S
H2565 C2576 0.950 . S
H2566 C2578 0.950 . S
H2567 C2579 0.950 . S
C2568 H2560 0.950 . S
C2568 C2569 1.386 . S
C2568 C2570 1.391 . S
C2569 C2568 1.386 . S
C2569 C2573 1.393 . S
C2570 H2562 0.950 . S
C2570 C2568 1.391 . S
C2570 C2571 1.400 . S
C2571 C2570 1.400 . S
C2571 C2572 1.398 . S
C2571 C2577 1.491 . S
C2572 H2563 0.950 . S
C2572 C2571 1.398 . S
C2572 C2573 1.391 . S
C2573 H2561 0.950 . S
C2573 C2569 1.393 . S
C2573 C2572 1.391 . S
C2574 H2564 0.950 . S
C2574 C2575 1.386 . S
C2574 C2576 1.391 . S
C2575 C2574 1.386 . S
C2575 C2579 1.393 . S
C2576 H2565 0.950 . S
C2576 C2574 1.391 . S
C2576 C2577 1.400 . S
C2577 C2571 1.491 . S
C2577 C2576 1.400 . S
C2577 C2578 1.398 . S
C2578 H2566 0.950 . S
C2578 C2577 1.398 . S
C2578 C2579 1.391 . S
C2579 H2567 0.950 . S
C2579 C2575 1.393 . S
C2579 C2578 1.391 . S
H2580 C2588 0.950 . S
H2581 C2593 0.950 . S
H2582 C2590 0.950 . S
H2583 C2592 0.950 . S
H2584 C2594 0.950 . S
H2585 C2596 0.950 . S
H2586 C2598 0.950 . S
H2587 C2599 0.950 . S
C2588 H2580 0.950 . S
C2588 C2589 1.381 . S
C2588 C2590 1.391 . S
C2589 C2588 1.381 . S
C2589 C2593 1.398 1_554 S
C2590 H2582 0.950 . S
C2590 C2588 1.391 . S
C2590 C2591 1.400 1_554 S
C2591 C2590 1.400 1_556 S
C2591 C2592 1.398 . S
C2591 C2597 1.491 1_565 S
C2592 H2583 0.950 . S
C2592 C2591 1.398 . S
C2592 C2593 1.391 . S
C2593 H2581 0.950 . S
C2593 C2589 1.398 1_556 S
C2593 C2592 1.391 . S
C2594 H2584 0.950 . S
C2594 C2595 1.386 . S
C2594 C2596 1.391 . S
C2595 C2594 1.386 . S
C2595 C2599 1.393 1_556 S
C2596 H2585 0.950 . S
C2596 C2594 1.391 . S
C2596 C2597 1.400 . S
C2597 C2591 1.491 1_545 S
C2597 C2596 1.400 . S
C2597 C2598 1.398 1_556 S
C2598 H2586 0.950 . S
C2598 C2597 1.398 1_554 S
C2598 C2599 1.391 . S
C2599 H2587 0.950 . S
C2599 C2595 1.393 1_554 S
C2599 C2598 1.391 . S
H2600 C2608 0.950 . S
H2601 C2613 0.947 1_554 S
H2602 C2610 0.950 . S
H2603 C2612 0.964 . S
H2604 C2614 0.950 . S
H2605 C2616 0.950 . S
H2606 C2618 0.950 . S
H2607 C2619 0.950 . S
C2608 H2600 0.950 . S
C2608 C2609 1.388 . S
C2608 C2610 1.391 . S
C2609 C2608 1.388 . S
C2609 C2613 1.393 . S
C2610 H2602 0.950 . S
C2610 C2608 1.391 . S
C2610 C2611 1.400 . S
C2611 C2610 1.400 . S
C2611 C2612 1.412 . S
C2611 C2617 1.491 1_455 S
C2612 H2603 0.964 . S
C2612 C2611 1.412 . S
C2612 C2613 1.386 . S
C2613 H2601 0.947 1_556 S
C2613 C2609 1.393 . S
C2613 C2612 1.386 . S
C2614 H2604 0.950 . S
C2614 C2615 1.386 . S
C2614 C2616 1.391 . S
C2615 C2614 1.386 . S
C2615 C2619 1.393 . S
C2616 H2605 0.950 . S
C2616 C2614 1.391 . S
C2616 C2617 1.400 . S
C2617 C2611 1.491 1_655 S
C2617 C2616 1.400 . S
C2617 C2618 1.398 . S
C2618 H2606 0.950 . S
C2618 C2617 1.398 . S
C2618 C2619 1.391 . S
C2619 H2607 0.950 . S
C2619 C2615 1.393 . S
C2619 C2618 1.391 . S
H2620 C2628 0.950 . S
H2621 C2633 0.950 . S
H2622 C2630 0.950 . S
H2623 C2632 0.950 . S
H2624 C2634 0.950 . S
H2625 C2636 0.950 . S
H2626 C2638 0.950 . S
H2627 C2639 0.946 1_554 S
C2628 H2620 0.950 . S
C2628 C2629 1.386 . S
C2628 C2630 1.391 . S
C2629 C2628 1.386 . S
C2629 C2633 1.393 . S
C2630 H2622 0.950 . S
C2630 C2628 1.391 . S
C2630 C2631 1.400 . S
C2631 C2630 1.400 . S
C2631 C2632 1.398 . S
C2631 C2637 1.491 . S
C2632 H2623 0.950 . S
C2632 C2631 1.398 . S
C2632 C2633 1.391 . S
C2633 H2621 0.950 . S
C2633 C2629 1.393 . S
C2633 C2632 1.391 . S
C2634 H2624 0.950 . S
C2634 C2635 1.391 . S
C2634 C2636 1.391 . S
C2635 C2634 1.391 . S
C2635 C2639 1.393 . S
C2636 H2625 0.950 . S
C2636 C2634 1.391 . S
C2636 C2637 1.400 . S
C2637 C2631 1.491 . S
C2637 C2636 1.400 . S
C2637 C2638 1.398 . S
C2638 H2626 0.950 . S
C2638 C2637 1.398 . S
C2638 C2639 1.395 . S
C2639 H2627 0.946 1_556 S
C2639 C2635 1.393 . S
C2639 C2638 1.395 . S
H2640 C2648 0.950 . S
H2641 C2653 0.950 . S
H2642 C2650 0.950 . S
H2643 C2652 0.950 . S
H2644 C2654 0.950 . S
H2645 C2656 0.950 . S
H2646 C2658 0.950 . S
H2647 C2659 0.950 . S
C2648 H2640 0.950 . S
C2648 C2649 1.386 . S
C2648 C2650 1.391 . S
C2649 C2648 1.386 . S
C2649 C2653 1.393 . S
C2650 H2642 0.950 . S
C2650 C2648 1.391 . S
C2650 C2651 1.400 . S
C2651 C2650 1.400 . S
C2651 C2652 1.398 . S
C2651 C2657 1.491 . S
C2652 H2643 0.950 . S
C2652 C2651 1.398 . S
C2652 C2653 1.391 . S
C2653 H2641 0.950 . S
C2653 C2649 1.393 . S
C2653 C2652 1.391 . S
C2654 H2644 0.950 . S
C2654 C2655 1.386 . S
C2654 C2656 1.391 1_565 S
C2655 C2654 1.386 . S
C2655 C2659 1.393 1_565 S
C2656 H2645 0.950 . S
C2656 C2654 1.391 1_545 S
C2656 C2657 1.400 . S
C2657 C2651 1.491 . S
C2657 C2656 1.400 . S
C2657 C2658 1.398 . S
C2658 H2646 0.950 . S
C2658 C2657 1.398 . S
C2658 C2659 1.391 . S
C2659 H2647 0.950 . S
C2659 C2655 1.393 1_545 S
C2659 C2658 1.391 . S
H2660 C2668 0.950 . S
H2661 C2673 0.950 . S
H2662 C2670 0.950 . S
H2663 C2672 0.950 . S
H2664 C2674 0.950 . S
H2665 C2676 0.952 1_455 S
H2666 C2678 0.950 . S
H2667 C2679 0.950 . S
C2668 H2660 0.950 . S
C2668 C2669 1.386 . S
C2668 C2670 1.391 . S
C2669 C2668 1.386 . S
C2669 C2673 1.393 . S
C2670 H2662 0.950 . S
C2670 C2668 1.391 . S
C2670 C2671 1.400 . S
C2671 C2670 1.400 . S
C2671 C2672 1.398 . S
C2671 C2677 1.491 . S
C2672 H2663 0.950 . S
C2672 C2671 1.398 . S
C2672 C2673 1.391 . S
C2673 H2661 0.950 . S
C2673 C2669 1.393 . S
C2673 C2672 1.391 . S
C2674 H2664 0.950 . S
C2674 C2675 1.386 . S
C2674 C2676 1.357 1_455 S
C2675 C2674 1.386 . S
C2675 C2679 1.393 1_455 S
C2676 H2665 0.952 1_655 S
C2676 C2674 1.357 1_655 S
C2676 C2677 1.433 . S
C2677 C2671 1.491 . S
C2677 C2676 1.433 . S
C2677 C2678 1.398 . S
C2678 H2666 0.950 . S
C2678 C2677 1.398 . S
C2678 C2679 1.391 . S
C2679 H2667 0.950 . S
C2679 C2675 1.393 1_655 S
C2679 C2678 1.391 . S
H2680 C2688 0.950 . S
H2681 C2693 0.950 . S
H2682 C2690 0.950 . S
H2683 C2692 0.950 . S
H2684 C2694 0.950 . S
H2685 C2696 0.950 . S
H2686 C2698 0.950 . S
H2687 C2699 0.950 . S
C2688 H2680 0.950 . S
C2688 C2689 1.386 . S
C2688 C2690 1.391 . S
C2689 C2688 1.386 . S
C2689 C2693 1.393 . S
C2690 H2682 0.950 . S
C2690 C2688 1.391 . S
C2690 C2691 1.400 . S
C2691 C2690 1.400 . S
C2691 C2692 1.398 . S
C2691 C2697 1.491 . S
C2692 H2683 0.950 . S
C2692 C2691 1.398 . S
C2692 C2693 1.391 . S
C2693 H2681 0.950 . S
C2693 C2689 1.393 . S
C2693 C2692 1.391 . S
C2694 H2684 0.950 . S
C2694 C2695 1.386 . S
C2694 C2696 1.391 . S
C2695 C2694 1.386 . S
C2695 C2699 1.393 . S
C2696 H2685 0.950 . S
C2696 C2694 1.391 . S
C2696 C2697 1.400 . S
C2697 C2691 1.491 . S
C2697 C2696 1.400 . S
C2697 C2698 1.398 . S
C2698 H2686 0.950 . S
C2698 C2697 1.398 . S
C2698 C2699 1.391 . S
C2699 H2687 0.950 . S
C2699 C2695 1.393 . S
C2699 C2698 1.391 . S
H2700 C2708 0.950 . S
H2701 C2713 0.950 . S
H2702 C2710 0.950 . S
H2703 C2712 0.950 . S
H2704 C2714 0.950 . S
H2705 C2716 0.950 . S
H2706 C2718 0.950 . S
H2707 C2719 0.950 . S
C2708 H2700 0.950 . S
C2708 C2709 1.386 1_556 S
C2708 C2710 1.391 . S
C2709 C2708 1.386 1_554 S
C2709 C2713 1.393 . S
C2710 H2702 0.950 . S
C2710 C2708 1.391 . S
C2710 C2711 1.400 1_556 S
C2711 C2710 1.400 1_554 S
C2711 C2712 1.398 . S
C2711 C2717 1.491 1_565 S
C2712 H2703 0.950 . S
C2712 C2711 1.398 . S
C2712 C2713 1.391 . S
C2713 H2701 0.950 . S
C2713 C2709 1.393 . S
C2713 C2712 1.391 . S
C2714 H2704 0.950 . S
C2714 C2715 1.397 . S
C2714 C2716 1.391 . S
C2715 C2714 1.397 . S
C2715 C2719 1.383 1_554 S
C2716 H2705 0.950 . S
C2716 C2714 1.391 . S
C2716 C2717 1.400 . S
C2717 C2711 1.491 1_545 S
C2717 C2716 1.400 . S
C2717 C2718 1.398 1_554 S
C2718 H2706 0.950 . S
C2718 C2717 1.398 1_556 S
C2718 C2719 1.391 . S
C2719 H2707 0.950 . S
C2719 C2715 1.383 1_556 S
C2719 C2718 1.391 . S
H2720 C2728 0.950 . S
H2721 C2733 0.950 . S
H2722 C2730 0.950 . S
H2723 C2732 0.950 . S
H2724 C2734 0.949 1_556 S
H2725 C2736 0.970 . S
H2726 C2738 0.950 . S
H2727 C2739 0.950 . S
C2728 H2720 0.950 . S
C2728 C2729 1.391 . S
C2728 C2730 1.391 . S
C2729 C2728 1.391 . S
C2729 C2733 1.389 1_554 S
C2730 H2722 0.950 . S
C2730 C2728 1.391 . S
C2730 C2731 1.400 . S
C2731 C2730 1.400 . S
C2731 C2732 1.398 1_554 S
C2731 C2737 1.491 1_655 S
C2732 H2723 0.950 . S
C2732 C2731 1.398 1_556 S
C2732 C2733 1.391 . S
C2733 H2721 0.950 . S
C2733 C2729 1.389 1_556 S
C2733 C2732 1.391 . S
C2734 H2724 0.949 1_554 S
C2734 C2735 1.387 . S
C2734 C2736 1.389 1_554 S
C2735 C2734 1.387 . S
C2735 C2739 1.393 . S
C2736 H2725 0.970 . S
C2736 C2734 1.389 1_556 S
C2736 C2737 1.387 1_556 S
C2737 C2731 1.491 1_455 S
C2737 C2736 1.387 1_554 S
C2737 C2738 1.398 . S
C2738 H2726 0.950 . S
C2738 C2737 1.398 . S
C2738 C2739 1.391 . S
C2739 H2727 0.950 . S
C2739 C2735 1.393 . S
C2739 C2738 1.391 . S
H2740 C2748 0.941 1_556 S
H2741 C2753 0.950 . S
H2742 C2750 0.958 . S
H2743 C2752 0.950 . S
H2744 C2754 0.950 . S
H2745 C2756 0.950 . S
H2746 C2758 0.950 . S
H2747 C2759 0.950 . S
C2748 H2740 0.941 1_554 S
C2748 C2749 1.398 . S
C2748 C2750 1.389 1_554 S
C2749 C2748 1.398 . S
C2749 C2753 1.393 . S
C2750 H2742 0.958 . S
C2750 C2748 1.389 1_556 S
C2750 C2751 1.394 1_556 S
C2751 C2750 1.394 1_554 S
C2751 C2752 1.398 . S
C2751 C2757 1.491 . S
C2752 H2743 0.950 . S
C2752 C2751 1.398 . S
C2752 C2753 1.391 . S
C2753 H2741 0.950 . S
C2753 C2749 1.393 . S
C2753 C2752 1.391 . S
C2754 H2744 0.950 . S
C2754 C2755 1.402 . S
C2754 C2756 1.391 . S
C2755 C2754 1.402 . S
C2755 C2759 1.382 1_554 S
C2756 H2745 0.950 . S
C2756 C2754 1.391 . S
C2756 C2757 1.400 . S
C2757 C2751 1.491 . S
C2757 C2756 1.400 . S
C2757 C2758 1.398 1_554 S
C2758 H2746 0.950 . S
C2758 C2757 1.398 1_556 S
C2758 C2759 1.391 . S
C2759 H2747 0.950 . S
C2759 C2755 1.382 1_556 S
C2759 C2758 1.391 . S
H2760 C2768 0.950 . S
H2761 C2773 0.950 . S
H2762 C2770 0.950 . S
H2763 C2772 0.950 . S
H2764 C2774 0.950 . S
H2765 C2776 0.950 . S
H2766 C2778 0.950 . S
H2767 C2779 0.950 . S
C2768 H2760 0.950 . S
C2768 C2769 1.386 . S
C2768 C2770 1.391 . S
C2769 C2768 1.386 . S
C2769 C2773 1.393 . S
C2770 H2762 0.950 . S
C2770 C2768 1.391 . S
C2770 C2771 1.400 1_455 S
C2771 C2770 1.400 1_655 S
C2771 C2772 1.398 1_655 S
C2771 C2777 1.491 . S
C2772 H2763 0.950 . S
C2772 C2771 1.398 1_455 S
C2772 C2773 1.391 . S
C2773 H2761 0.950 . S
C2773 C2769 1.393 . S
C2773 C2772 1.391 . S
C2774 H2764 0.950 . S
C2774 C2775 1.386 . S
C2774 C2776 1.391 . S
C2775 C2774 1.386 . S
C2775 C2779 1.393 . S
C2776 H2765 0.950 . S
C2776 C2774 1.391 . S
C2776 C2777 1.400 . S
C2777 C2771 1.491 . S
C2777 C2776 1.400 . S
C2777 C2778 1.398 . S
C2778 H2766 0.950 . S
C2778 C2777 1.398 . S
C2778 C2779 1.391 . S
C2779 H2767 0.950 . S
C2779 C2775 1.393 . S
C2779 C2778 1.391 . S
H2780 C2788 0.950 . S
H2781 C2793 0.950 . S
H2782 C2790 0.950 . S
H2783 C2792 0.950 . S
H2784 C2794 0.950 . S
H2785 C2796 0.950 . S
H2786 C2798 0.950 . S
H2787 C2799 0.950 . S
C2788 H2780 0.950 . S
C2788 C2789 1.386 . S
C2788 C2790 1.391 . S
C2789 C2788 1.386 . S
C2789 C2793 1.393 . S
C2790 H2782 0.950 . S
C2790 C2788 1.391 . S
C2790 C2791 1.400 . S
C2791 C2790 1.400 . S
C2791 C2792 1.398 . S
C2791 C2797 1.491 . S
C2792 H2783 0.950 . S
C2792 C2791 1.398 . S
C2792 C2793 1.391 . S
C2793 H2781 0.950 . S
C2793 C2789 1.393 . S
C2793 C2792 1.391 . S
C2794 H2784 0.950 . S
C2794 C2795 1.386 . S
C2794 C2796 1.391 . S
C2795 C2794 1.386 . S
C2795 C2799 1.393 . S
C2796 H2785 0.950 . S
C2796 C2794 1.391 . S
C2796 C2797 1.400 . S
C2797 C2791 1.491 . S
C2797 C2796 1.400 . S
C2797 C2798 1.398 . S
C2798 H2786 0.950 . S
C2798 C2797 1.398 . S
C2798 C2799 1.391 . S
C2799 H2787 0.950 . S
C2799 C2795 1.393 . S
C2799 C2798 1.391 . S
H2800 C2808 0.950 . S
H2801 C2813 0.950 . S
H2802 C2810 0.950 . S
H2803 C2812 0.950 . S
H2804 C2814 0.950 . S
H2805 C2816 0.950 . S
H2806 C2818 0.950 . S
H2807 C2819 0.950 . S
C2808 H2800 0.950 . S
C2808 C2809 1.386 . S
C2808 C2810 1.391 . S
C2809 C2808 1.386 . S
C2809 C2813 1.393 . S
C2810 H2802 0.950 . S
C2810 C2808 1.391 . S
C2810 C2811 1.400 1_565 S
C2811 C2810 1.400 1_545 S
C2811 C2812 1.398 1_545 S
C2811 C2817 1.491 . S
C2812 H2803 0.950 . S
C2812 C2811 1.398 1_565 S
C2812 C2813 1.391 . S
C2813 H2801 0.950 . S
C2813 C2809 1.393 . S
C2813 C2812 1.391 . S
C2814 H2804 0.950 . S
C2814 C2815 1.386 . S
C2814 C2816 1.391 . S
C2815 C2814 1.386 . S
C2815 C2819 1.393 . S
C2816 H2805 0.950 . S
C2816 C2814 1.391 . S
C2816 C2817 1.400 . S
C2817 C2811 1.491 . S
C2817 C2816 1.400 . S
C2817 C2818 1.398 . S
C2818 H2806 0.950 . S
C2818 C2817 1.398 . S
C2818 C2819 1.391 . S
C2819 H2807 0.950 . S
C2819 C2815 1.393 . S
C2819 C2818 1.391 . S
H2820 C2828 0.950 . S
H2821 C2833 0.950 . S
H2822 C2830 0.950 . S
H2823 C2832 0.950 . S
H2824 C2834 0.950 . S
H2825 C2836 0.950 . S
H2826 C2838 0.950 . S
H2827 C2839 0.950 . S
C2828 H2820 0.950 . S
C2828 C2829 1.386 1_655 S
C2828 C2830 1.391 . S
C2829 C2828 1.386 1_455 S
C2829 C2833 1.393 . S
C2830 H2822 0.950 . S
C2830 C2828 1.391 . S
C2830 C2831 1.400 . S
C2831 C2830 1.400 . S
C2831 C2832 1.398 . S
C2831 C2837 1.491 . S
C2832 H2823 0.950 . S
C2832 C2831 1.398 . S
C2832 C2833 1.391 1_655 S
C2833 H2821 0.950 . S
C2833 C2829 1.393 . S
C2833 C2832 1.391 1_455 S
C2834 H2824 0.950 . S
C2834 C2835 1.386 . S
C2834 C2836 1.391 . S
C2835 C2834 1.386 . S
C2835 C2839 1.393 . S
C2836 H2825 0.950 . S
C2836 C2834 1.391 . S
C2836 C2837 1.400 . S
C2837 C2831 1.491 . S
C2837 C2836 1.400 . S
C2837 C2838 1.398 . S
C2838 H2826 0.950 . S
C2838 C2837 1.398 . S
C2838 C2839 1.391 . S
C2839 H2827 0.950 . S
C2839 C2835 1.393 . S
C2839 C2838 1.391 . S
H2840 C2848 0.950 . S
H2841 C2853 0.950 . S
H2842 C2850 0.950 . S
H2843 C2852 0.950 . S
H2844 C2854 0.950 . S
H2845 C2856 0.950 . S
H2846 C2858 0.950 . S
H2847 C2859 0.950 . S
C2848 H2840 0.950 . S
C2848 C2849 1.386 . S
C2848 C2850 1.391 . S
C2849 C2848 1.386 . S
C2849 C2853 1.393 . S
C2850 H2842 0.950 . S
C2850 C2848 1.391 . S
C2850 C2851 1.400 . S
C2851 C2850 1.400 . S
C2851 C2852 1.398 . S
C2851 C2857 1.491 . S
C2852 H2843 0.950 . S
C2852 C2851 1.398 . S
C2852 C2853 1.391 . S
C2853 H2841 0.950 . S
C2853 C2849 1.393 . S
C2853 C2852 1.391 . S
C2854 H2844 0.950 . S
C2854 C2855 1.386 . S
C2854 C2856 1.391 . S
C2855 C2854 1.386 . S
C2855 C2859 1.393 . S
C2856 H2845 0.950 . S
C2856 C2854 1.391 . S
C2856 C2857 1.400 . S
C2857 C2851 1.491 . S
C2857 C2856 1.400 . S
C2857 C2858 1.398 . S
C2858 H2846 0.950 . S
C2858 C2857 1.398 . S
C2858 C2859 1.391 . S
C2859 H2847 0.950 . S
C2859 C2855 1.393 . S
C2859 C2858 1.391 . S
H2860 C2868 0.950 . S
H2861 C2873 0.950 . S
H2862 C2870 0.950 . S
H2863 C2872 0.950 . S
H2864 C2874 0.950 . S
H2865 C2876 0.950 . S
H2866 C2878 0.950 1_565 S
H2867 C2879 0.950 . S
C2868 H2860 0.950 . S
C2868 C2869 1.386 . S
C2868 C2870 1.391 . S
C2869 C2868 1.386 . S
C2869 C2873 1.393 . S
C2870 H2862 0.950 . S
C2870 C2868 1.391 . S
C2870 C2871 1.400 . S
C2871 C2870 1.400 . S
C2871 C2872 1.398 . S
C2871 C2877 1.491 . S
C2872 H2863 0.950 . S
C2872 C2871 1.398 . S
C2872 C2873 1.391 . S
C2873 H2861 0.950 . S
C2873 C2869 1.393 . S
C2873 C2872 1.391 . S
C2874 H2864 0.950 . S
C2874 C2875 1.386 1_545 S
C2874 C2876 1.391 . S
C2875 C2874 1.386 1_565 S
C2875 C2879 1.393 . S
C2876 H2865 0.950 . S
C2876 C2874 1.391 . S
C2876 C2877 1.400 . S
C2877 C2871 1.491 . S
C2877 C2876 1.400 . S
C2877 C2878 1.398 . S
C2878 H2866 0.950 1_545 S
C2878 C2877 1.398 . S
C2878 C2879 1.391 1_545 S
C2879 H2867 0.950 . S
C2879 C2875 1.393 . S
C2879 C2878 1.391 1_565 S
H2880 C2888 0.950 . S
H2881 C2893 0.950 . S
H2882 C2890 0.950 . S
H2883 C2892 0.950 . S
H2884 C2894 0.950 . S
H2885 C2896 0.950 . S
H2886 C2898 0.950 . S
H2887 C2899 0.950 . S
C2888 H2880 0.950 . S
C2888 C2889 1.386 . S
C2888 C2890 1.391 . S
C2889 C2888 1.386 . S
C2889 C2893 1.393 . S
C2890 H2882 0.950 . S
C2890 C2888 1.391 . S
C2890 C2891 1.400 . S
C2891 C2890 1.400 . S
C2891 C2892 1.398 . S
C2891 C2897 1.491 . S
C2892 H2883 0.950 . S
C2892 C2891 1.398 . S
C2892 C2893 1.391 . S
C2893 H2881 0.950 . S
C2893 C2889 1.393 . S
C2893 C2892 1.391 . S
C2894 H2884 0.950 . S
C2894 C2895 1.386 . S
C2894 C2896 1.391 . S
C2895 C2894 1.386 . S
C2895 C2899 1.393 . S
C2896 H2885 0.950 . S
C2896 C2894 1.391 . S
C2896 C2897 1.400 . S
C2897 C2891 1.491 . S
C2897 C2896 1.400 . S
C2897 C2898 1.398 . S
C2898 H2886 0.950 . S
C2898 C2897 1.398 . S
C2898 C2899 1.391 . S
C2899 H2887 0.950 . S
C2899 C2895 1.393 . S
C2899 C2898 1.391 . S
H2900 C2908 0.950 . S
H2901 C2913 0.950 . S
H2902 C2910 0.950 . S
H2903 C2912 0.950 . S
H2904 C2914 0.950 . S
H2905 C2916 0.950 . S
H2906 C2918 0.950 . S
H2907 C2919 0.950 . S
C2908 H2900 0.950 . S
C2908 C2909 1.386 . S
C2908 C2910 1.391 . S
C2909 C2908 1.386 . S
C2909 C2913 1.393 . S
C2910 H2902 0.950 . S
C2910 C2908 1.391 . S
C2910 C2911 1.400 . S
C2911 C2910 1.400 . S
C2911 C2912 1.398 . S
C2911 C2917 1.491 . S
C2912 H2903 0.950 . S
C2912 C2911 1.398 . S
C2912 C2913 1.391 . S
C2913 H2901 0.950 . S
C2913 C2909 1.393 . S
C2913 C2912 1.391 . S
C2914 H2904 0.950 . S
C2914 C2915 1.386 . S
C2914 C2916 1.391 . S
C2915 C2914 1.386 . S
C2915 C2919 1.393 . S
C2916 H2905 0.950 . S
C2916 C2914 1.391 . S
C2916 C2917 1.400 . S
C2917 C2911 1.491 . S
C2917 C2916 1.400 . S
C2917 C2918 1.398 . S
C2918 H2906 0.950 . S
C2918 C2917 1.398 . S
C2918 C2919 1.391 . S
C2919 H2907 0.950 . S
C2919 C2915 1.393 . S
C2919 C2918 1.391 . S
H2920 C2928 0.950 . S
H2921 C2933 0.950 . S
H2922 C2930 0.950 . S
H2923 C2932 0.950 . S
H2924 C2934 0.950 . S
H2925 C2936 0.950 . S
H2926 C2938 0.950 . S
H2927 C2939 0.950 . S
C2928 H2920 0.950 . S
C2928 C2929 1.386 . S
C2928 C2930 1.391 . S
C2929 C2928 1.386 . S
C2929 C2933 1.393 . S
C2930 H2922 0.950 . S
C2930 C2928 1.391 . S
C2930 C2931 1.400 . S
C2931 C2930 1.400 . S
C2931 C2932 1.398 . S
C2931 C2937 1.491 . S
C2932 H2923 0.950 . S
C2932 C2931 1.398 . S
C2932 C2933 1.391 . S
C2933 H2921 0.950 . S
C2933 C2929 1.393 . S
C2933 C2932 1.391 . S
C2934 H2924 0.950 . S
C2934 C2935 1.386 . S
C2934 C2936 1.391 . S
C2935 C2934 1.386 . S
C2935 C2939 1.393 . S
C2936 H2925 0.950 . S
C2936 C2934 1.391 . S
C2936 C2937 1.400 . S
C2937 C2931 1.491 . S
C2937 C2936 1.400 . S
C2937 C2938 1.398 . S
C2938 H2926 0.950 . S
C2938 C2937 1.398 . S
C2938 C2939 1.391 . S
C2939 H2927 0.950 . S
C2939 C2935 1.393 . S
C2939 C2938 1.391 . S
H2940 C2948 0.950 . S
H2941 C2953 0.950 . S
H2942 C2950 0.950 . S
H2943 C2952 0.950 . S
H2944 C2954 0.950 . S
H2945 C2956 0.950 . S
H2946 C2958 0.950 . S
H2947 C2959 0.950 . S
C2948 H2940 0.950 . S
C2948 C2949 1.386 . S
C2948 C2950 1.391 . S
C2949 C2948 1.386 . S
C2949 C2953 1.393 . S
C2950 H2942 0.950 . S
C2950 C2948 1.391 . S
C2950 C2951 1.400 . S
C2951 C2950 1.400 . S
C2951 C2952 1.398 . S
C2951 C2957 1.491 . S
C2952 H2943 0.950 . S
C2952 C2951 1.398 . S
C2952 C2953 1.391 . S
C2953 H2941 0.950 . S
C2953 C2949 1.393 . S
C2953 C2952 1.391 . S
C2954 H2944 0.950 . S
C2954 C2955 1.386 . S
C2954 C2956 1.391 . S
C2955 C2954 1.386 . S
C2955 C2959 1.393 . S
C2956 H2945 0.950 . S
C2956 C2954 1.391 . S
C2956 C2957 1.400 . S
C2957 C2951 1.491 . S
C2957 C2956 1.400 . S
C2957 C2958 1.398 . S
C2958 H2946 0.950 . S
C2958 C2957 1.398 . S
C2958 C2959 1.391 . S
C2959 H2947 0.950 . S
C2959 C2955 1.393 . S
C2959 C2958 1.391 . S
H2960 C2968 0.950 . S
H2961 C2973 0.950 . S
H2962 C2970 0.950 . S
H2963 C2972 0.950 . S
H2964 C2974 0.950 . S
H2965 C2976 0.950 . S
H2966 C2978 0.950 . S
H2967 C2979 0.950 . S
C2968 H2960 0.950 . S
C2968 C2969 1.386 . S
C2968 C2970 1.391 . S
C2969 C2968 1.386 . S
C2969 C2973 1.393 . S
C2970 H2962 0.950 . S
C2970 C2968 1.391 . S
C2970 C2971 1.400 . S
C2971 C2970 1.400 . S
C2971 C2972 1.398 . S
C2971 C2977 1.491 . S
C2972 H2963 0.950 . S
C2972 C2971 1.398 . S
C2972 C2973 1.391 . S
C2973 H2961 0.950 . S
C2973 C2969 1.393 . S
C2973 C2972 1.391 . S
C2974 H2964 0.950 . S
C2974 C2975 1.386 . S
C2974 C2976 1.391 . S
C2975 C2974 1.386 . S
C2975 C2979 1.393 . S
C2976 H2965 0.950 . S
C2976 C2974 1.391 . S
C2976 C2977 1.400 . S
C2977 C2971 1.491 . S
C2977 C2976 1.400 . S
C2977 C2978 1.398 . S
C2978 H2966 0.950 . S
C2978 C2977 1.398 . S
C2978 C2979 1.391 . S
C2979 H2967 0.950 . S
C2979 C2975 1.393 . S
C2979 C2978 1.391 . S
H2980 C2988 0.950 . S
H2981 C2993 0.950 . S
H2982 C2990 0.950 . S
H2983 C2992 0.950 . S
H2984 C2994 0.950 . S
H2985 C2996 0.950 . S
H2986 C2998 0.950 . S
H2987 C2999 0.950 . S
C2988 H2980 0.950 . S
C2988 C2989 1.386 . S
C2988 C2990 1.391 . S
C2989 C2988 1.386 . S
C2989 C2993 1.393 . S
C2990 H2982 0.950 . S
C2990 C2988 1.391 . S
C2990 C2991 1.400 . S
C2991 C2990 1.400 . S
C2991 C2992 1.398 . S
C2991 C2997 1.491 . S
C2992 H2983 0.950 . S
C2992 C2991 1.398 . S
C2992 C2993 1.391 . S
C2993 H2981 0.950 . S
C2993 C2989 1.393 . S
C2993 C2992 1.391 . S
C2994 H2984 0.950 . S
C2994 C2995 1.386 . S
C2994 C2996 1.391 . S
C2995 C2994 1.386 . S
C2995 C2999 1.393 . S
C2996 H2985 0.950 . S
C2996 C2994 1.391 . S
C2996 C2997 1.400 . S
C2997 C2991 1.491 . S
C2997 C2996 1.400 . S
C2997 C2998 1.398 . S
C2998 H2986 0.950 . S
C2998 C2997 1.398 . S
C2998 C2999 1.391 . S
C2999 H2987 0.950 . S
C2999 C2995 1.393 . S
C2999 C2998 1.391 . S
H3000 C3008 0.950 . S
H3001 C3013 0.950 . S
H3002 C3010 0.950 . S
H3003 C3012 0.950 . S
H3004 C3014 0.950 . S
H3005 C3016 0.950 . S
H3006 C3018 0.950 . S
H3007 C3019 0.950 . S
C3008 H3000 0.950 . S
C3008 C3009 1.386 . S
C3008 C3010 1.391 . S
C3009 C3008 1.386 . S
C3009 C3013 1.393 . S
C3010 H3002 0.950 . S
C3010 C3008 1.391 . S
C3010 C3011 1.400 . S
C3011 C3010 1.400 . S
C3011 C3012 1.398 . S
C3011 C3017 1.491 . S
C3012 H3003 0.950 . S
C3012 C3011 1.398 . S
C3012 C3013 1.391 . S
C3013 H3001 0.950 . S
C3013 C3009 1.393 . S
C3013 C3012 1.391 . S
C3014 H3004 0.950 . S
C3014 C3015 1.386 . S
C3014 C3016 1.391 . S
C3015 C3014 1.386 . S
C3015 C3019 1.393 . S
C3016 H3005 0.950 . S
C3016 C3014 1.391 . S
C3016 C3017 1.400 . S
C3017 C3011 1.491 . S
C3017 C3016 1.400 . S
C3017 C3018 1.398 . S
C3018 H3006 0.950 . S
C3018 C3017 1.398 . S
C3018 C3019 1.391 . S
C3019 H3007 0.950 . S
C3019 C3015 1.393 . S
C3019 C3018 1.391 . S
H3020 C3028 0.950 . S
H3021 C3033 0.950 . S
H3022 C3030 0.950 . S
H3023 C3032 0.950 . S
H3024 C3034 0.950 . S
H3025 C3036 0.950 . S
H3026 C3038 0.950 . S
H3027 C3039 0.950 . S
C3028 H3020 0.950 . S
C3028 C3029 1.386 . S
C3028 C3030 1.391 . S
C3029 C3028 1.386 . S
C3029 C3033 1.393 . S
C3030 H3022 0.950 . S
C3030 C3028 1.391 . S
C3030 C3031 1.400 . S
C3031 C3030 1.400 . S
C3031 C3032 1.398 . S
C3031 C3037 1.491 . S
C3032 H3023 0.950 . S
C3032 C3031 1.398 . S
C3032 C3033 1.391 . S
C3033 H3021 0.950 . S
C3033 C3029 1.393 . S
C3033 C3032 1.391 . S
C3034 H3024 0.950 . S
C3034 C3035 1.386 . S
C3034 C3036 1.391 . S
C3035 C3034 1.386 . S
C3035 C3039 1.393 . S
C3036 H3025 0.950 . S
C3036 C3034 1.391 . S
C3036 C3037 1.400 . S
C3037 C3031 1.491 . S
C3037 C3036 1.400 . S
C3037 C3038 1.398 . S
C3038 H3026 0.950 . S
C3038 C3037 1.398 . S
C3038 C3039 1.391 . S
C3039 H3027 0.950 . S
C3039 C3035 1.393 . S
C3039 C3038 1.391 . S
H3040 C3048 0.950 . S
H3041 C3053 0.950 . S
H3042 C3050 0.950 . S
H3043 C3052 0.950 . S
H3044 C3054 0.950 . S
H3045 C3056 0.950 . S
H3046 C3058 0.950 . S
H3047 C3059 0.950 . S
C3048 H3040 0.950 . S
C3048 C3049 1.386 . S
C3048 C3050 1.391 . S
C3049 C3048 1.386 . S
C3049 C3053 1.393 . S
C3050 H3042 0.950 . S
C3050 C3048 1.391 . S
C3050 C3051 1.400 . S
C3051 C3050 1.400 . S
C3051 C3052 1.398 . S
C3051 C3057 1.491 . S
C3052 H3043 0.950 . S
C3052 C3051 1.398 . S
C3052 C3053 1.391 . S
C3053 H3041 0.950 . S
C3053 C3049 1.393 . S
C3053 C3052 1.391 . S
C3054 H3044 0.950 . S
C3054 C3055 1.386 . S
C3054 C3056 1.391 . S
C3055 C3054 1.386 . S
C3055 C3059 1.393 . S
C3056 H3045 0.950 . S
C3056 C3054 1.391 . S
C3056 C3057 1.400 . S
C3057 C3051 1.491 . S
C3057 C3056 1.400 . S
C3057 C3058 1.398 . S
C3058 H3046 0.950 . S
C3058 C3057 1.398 . S
C3058 C3059 1.391 . S
C3059 H3047 0.950 . S
C3059 C3055 1.393 . S
C3059 C3058 1.391 . S
H3060 C3068 0.950 . S
H3061 C3073 0.950 . S
H3062 C3070 0.950 . S
H3063 C3072 0.950 . S
H3064 C3074 0.950 . S
H3065 C3076 0.950 . S
H3066 C3078 0.950 . S
H3067 C3079 0.950 . S
C3068 H3060 0.950 . S
C3068 C3069 1.386 . S
C3068 C3070 1.391 . S
C3069 C3068 1.386 . S
C3069 C3073 1.393 . S
C3070 H3062 0.950 . S
C3070 C3068 1.391 . S
C3070 C3071 1.400 . S
C3071 C3070 1.400 . S
C3071 C3072 1.398 . S
C3071 C3077 1.491 . S
C3072 H3063 0.950 . S
C3072 C3071 1.398 . S
C3072 C3073 1.391 . S
C3073 H3061 0.950 . S
C3073 C3069 1.393 . S
C3073 C3072 1.391 . S
C3074 H3064 0.950 . S
C3074 C3075 1.386 . S
C3074 C3076 1.391 . S
C3075 C3074 1.386 . S
C3075 C3079 1.393 . S
C3076 H3065 0.950 . S
C3076 C3074 1.391 . S
C3076 C3077 1.400 . S
C3077 C3071 1.491 . S
C3077 C3076 1.400 . S
C3077 C3078 1.398 . S
C3078 H3066 0.950 . S
C3078 C3077 1.398 . S
C3078 C3079 1.391 . S
C3079 H3067 0.950 . S
C3079 C3075 1.393 . S
C3079 C3078 1.391 . S
H3080 C3088 0.950 . S
H3081 C3093 0.950 . S
H3082 C3090 0.950 . S
H3083 C3092 0.950 . S
H3084 C3094 0.950 . S
H3085 C3096 0.950 . S
H3086 C3098 0.950 . S
H3087 C3099 0.950 . S
C3088 H3080 0.950 . S
C3088 C3089 1.386 . S
C3088 C3090 1.391 . S
C3089 C3088 1.386 . S
C3089 C3093 1.393 . S
C3090 H3082 0.950 . S
C3090 C3088 1.391 . S
C3090 C3091 1.400 . S
C3091 C3090 1.400 . S
C3091 C3092 1.398 . S
C3091 C3097 1.491 . S
C3092 H3083 0.950 . S
C3092 C3091 1.398 . S
C3092 C3093 1.391 . S
C3093 H3081 0.950 . S
C3093 C3089 1.393 . S
C3093 C3092 1.391 . S
C3094 H3084 0.950 . S
C3094 C3095 1.386 . S
C3094 C3096 1.391 . S
C3095 C3094 1.386 . S
C3095 C3099 1.393 . S
C3096 H3085 0.950 . S
C3096 C3094 1.391 . S
C3096 C3097 1.400 . S
C3097 C3091 1.491 . S
C3097 C3096 1.400 . S
C3097 C3098 1.398 . S
C3098 H3086 0.950 . S
C3098 C3097 1.398 . S
C3098 C3099 1.391 . S
C3099 H3087 0.950 . S
C3099 C3095 1.393 . S
C3099 C3098 1.391 . S
H3100 C3108 0.950 . S
H3101 C3113 0.950 . S
H3102 C3110 0.950 . S
H3103 C3112 0.950 . S
H3104 C3114 0.950 . S
H3105 C3116 0.950 . S
H3106 C3118 0.950 . S
H3107 C3119 0.950 . S
C3108 H3100 0.950 . S
C3108 C3109 1.386 . S
C3108 C3110 1.391 . S
C3109 C3108 1.386 . S
C3109 C3113 1.393 . S
C3110 H3102 0.950 . S
C3110 C3108 1.391 . S
C3110 C3111 1.400 . S
C3111 C3110 1.400 . S
C3111 C3112 1.398 . S
C3111 C3117 1.491 . S
C3112 H3103 0.950 . S
C3112 C3111 1.398 . S
C3112 C3113 1.391 . S
C3113 H3101 0.950 . S
C3113 C3109 1.393 . S
C3113 C3112 1.391 . S
C3114 H3104 0.950 . S
C3114 C3115 1.386 . S
C3114 C3116 1.391 . S
C3115 C3114 1.386 . S
C3115 C3119 1.393 . S
C3116 H3105 0.950 . S
C3116 C3114 1.391 . S
C3116 C3117 1.400 . S
C3117 C3111 1.491 . S
C3117 C3116 1.400 . S
C3117 C3118 1.398 . S
C3118 H3106 0.950 . S
C3118 C3117 1.398 . S
C3118 C3119 1.391 . S
C3119 H3107 0.950 . S
C3119 C3115 1.393 . S
C3119 C3118 1.391 . S
H3120 C3128 0.950 . S
H3121 C3133 0.950 . S
H3122 C3130 0.958 . S
H3123 C3132 0.949 . S
H3124 C3134 0.950 . S
H3125 C3136 0.950 . S
H3126 C3138 0.950 . S
H3127 C3139 0.950 . S
C3128 H3120 0.950 . S
C3128 C3129 1.386 . S
C3128 C3130 1.393 . S
C3129 C3128 1.386 . S
C3129 C3133 1.393 . S
C3130 H3122 0.958 . S
C3130 C3128 1.393 . S
C3130 C3131 1.386 1_655 S
C3131 C3130 1.386 1_455 S
C3131 C3132 1.408 1_455 S
C3131 C3137 1.491 . S
C3132 H3123 0.949 . S
C3132 C3131 1.408 1_655 S
C3132 C3133 1.392 . S
C3133 H3121 0.950 . S
C3133 C3129 1.393 . S
C3133 C3132 1.392 . S
C3134 H3124 0.950 . S
C3134 C3135 1.386 . S
C3134 C3136 1.391 . S
C3135 C3134 1.386 . S
C3135 C3139 1.393 . S
C3136 H3125 0.950 . S
C3136 C3134 1.391 . S
C3136 C3137 1.400 . S
C3137 C3131 1.491 . S
C3137 C3136 1.400 . S
C3137 C3138 1.398 . S
C3138 H3126 0.950 . S
C3138 C3137 1.398 . S
C3138 C3139 1.391 . S
C3139 H3127 0.950 . S
C3139 C3135 1.393 . S
C3139 C3138 1.391 . S
H3140 C3148 0.950 . S
H3141 C3153 0.950 . S
H3142 C3150 0.950 . S
H3143 C3152 0.950 . S
H3144 C3154 0.950 . S
H3145 C3156 0.950 . S
H3146 C3158 0.950 . S
H3147 C3159 0.950 . S
C3148 H3140 0.950 . S
C3148 C3149 1.386 . S
C3148 C3150 1.391 . S
C3149 C3148 1.386 . S
C3149 C3153 1.393 . S
C3150 H3142 0.950 . S
C3150 C3148 1.391 . S
C3150 C3151 1.400 . S
C3151 C3150 1.400 . S
C3151 C3152 1.398 . S
C3151 C3157 1.491 . S
C3152 H3143 0.950 . S
C3152 C3151 1.398 . S
C3152 C3153 1.391 . S
C3153 H3141 0.950 . S
C3153 C3149 1.393 . S
C3153 C3152 1.391 . S
C3154 H3144 0.950 . S
C3154 C3155 1.386 . S
C3154 C3156 1.391 . S
C3155 C3154 1.386 . S
C3155 C3159 1.393 . S
C3156 H3145 0.950 . S
C3156 C3154 1.391 . S
C3156 C3157 1.400 . S
C3157 C3151 1.491 . S
C3157 C3156 1.400 . S
C3157 C3158 1.398 . S
C3158 H3146 0.950 . S
C3158 C3157 1.398 . S
C3158 C3159 1.391 . S
C3159 H3147 0.950 . S
C3159 C3155 1.393 . S
C3159 C3158 1.391 . S
H3160 C3168 0.950 . S
H3161 C3173 0.950 . S
H3162 C3170 0.950 . S
H3163 C3172 0.950 . S
H3164 C3174 0.950 . S
H3165 C3176 0.950 . S
H3166 C3178 0.950 . S
H3167 C3179 0.950 . S
C3168 H3160 0.950 . S
C3168 C3169 1.386 . S
C3168 C3170 1.391 . S
C3169 C3168 1.386 . S
C3169 C3173 1.393 1_545 S
C3170 H3162 0.950 . S
C3170 C3168 1.391 . S
C3170 C3171 1.400 1_545 S
C3171 C3170 1.400 1_565 S
C3171 C3172 1.398 . S
C3171 C3177 1.491 . S
C3172 H3163 0.950 . S
C3172 C3171 1.398 . S
C3172 C3173 1.391 . S
C3173 H3161 0.950 . S
C3173 C3169 1.393 1_565 S
C3173 C3172 1.391 . S
C3174 H3164 0.950 . S
C3174 C3175 1.386 . S
C3174 C3176 1.391 . S
C3175 C3174 1.386 . S
C3175 C3179 1.393 1_565 S
C3176 H3165 0.950 . S
C3176 C3174 1.391 . S
C3176 C3177 1.400 . S
C3177 C3171 1.491 . S
C3177 C3176 1.400 . S
C3177 C3178 1.398 1_565 S
C3178 H3166 0.950 . S
C3178 C3177 1.398 1_545 S
C3178 C3179 1.391 . S
C3179 H3167 0.950 . S
C3179 C3175 1.393 1_545 S
C3179 C3178 1.391 . S
H3180 C3188 0.950 . S
H3181 C3193 0.950 . S
H3182 C3190 0.950 . S
H3183 C3192 0.950 . S
H3184 C3194 0.950 . S
H3185 C3196 0.950 . S
H3186 C3198 0.950 . S
H3187 C3199 0.950 . S
C3188 H3180 0.950 . S
C3188 C3189 1.386 . S
C3188 C3190 1.391 . S
C3189 C3188 1.386 . S
C3189 C3193 1.393 1_545 S
C3190 H3182 0.950 . S
C3190 C3188 1.391 . S
C3190 C3191 1.400 . S
C3191 C3190 1.400 . S
C3191 C3192 1.398 1_545 S
C3191 C3197 1.491 . S
C3192 H3183 0.950 . S
C3192 C3191 1.398 1_565 S
C3192 C3193 1.391 . S
C3193 H3181 0.950 . S
C3193 C3189 1.393 1_565 S
C3193 C3192 1.391 . S
C3194 H3184 0.950 . S
C3194 C3195 1.386 . S
C3194 C3196 1.391 . S
C3195 C3194 1.386 . S
C3195 C3199 1.393 1_565 S
C3196 H3185 0.950 . S
C3196 C3194 1.391 . S
C3196 C3197 1.400 1_565 S
C3197 C3191 1.491 . S
C3197 C3196 1.400 1_545 S
C3197 C3198 1.398 . S
C3198 H3186 0.950 . S
C3198 C3197 1.398 . S
C3198 C3199 1.391 . S
C3199 H3187 0.950 . S
C3199 C3195 1.393 1_545 S
C3199 C3198 1.391 . S
H3200 C3208 0.950 . S
H3201 C3213 0.950 . S
H3202 C3210 0.950 . S
H3203 C3212 0.950 . S
H3204 C3214 0.950 . S
H3205 C3216 0.950 . S
H3206 C3218 0.950 . S
H3207 C3219 0.950 . S
C3208 H3200 0.950 . S
C3208 C3209 1.386 . S
C3208 C3210 1.391 . S
C3209 C3208 1.386 . S
C3209 C3213 1.393 1_455 S
C3210 H3202 0.950 . S
C3210 C3208 1.391 . S
C3210 C3211 1.400 1_455 S
C3211 C3210 1.400 1_655 S
C3211 C3212 1.398 . S
C3211 C3217 1.491 . S
C3212 H3203 0.950 . S
C3212 C3211 1.398 . S
C3212 C3213 1.391 . S
C3213 H3201 0.950 . S
C3213 C3209 1.393 1_655 S
C3213 C3212 1.391 . S
C3214 H3204 0.950 . S
C3214 C3215 1.386 . S
C3214 C3216 1.391 . S
C3215 C3214 1.386 . S
C3215 C3219 1.393 1_655 S
C3216 H3205 0.950 . S
C3216 C3214 1.391 . S
C3216 C3217 1.400 . S
C3217 C3211 1.491 . S
C3217 C3216 1.400 . S
C3217 C3218 1.398 1_655 S
C3218 H3206 0.950 . S
C3218 C3217 1.398 1_455 S
C3218 C3219 1.391 . S
C3219 H3207 0.950 . S
C3219 C3215 1.393 1_455 S
C3219 C3218 1.391 . S
H3220 C3228 0.950 . S
H3221 C3233 0.950 . S
H3222 C3230 0.950 . S
H3223 C3232 0.950 . S
H3224 C3234 0.950 . S
H3225 C3236 0.950 . S
H3226 C3238 0.950 . S
H3227 C3239 0.950 . S
C3228 H3220 0.950 . S
C3228 C3229 1.386 . S
C3228 C3230 1.391 . S
C3229 C3228 1.386 . S
C3229 C3233 1.393 . S
C3230 H3222 0.950 . S
C3230 C3228 1.391 . S
C3230 C3231 1.400 . S
C3231 C3230 1.400 . S
C3231 C3232 1.398 . S
C3231 C3237 1.491 . S
C3232 H3223 0.950 . S
C3232 C3231 1.398 . S
C3232 C3233 1.391 . S
C3233 H3221 0.950 . S
C3233 C3229 1.393 . S
C3233 C3232 1.391 . S
C3234 H3224 0.950 . S
C3234 C3235 1.386 . S
C3234 C3236 1.391 . S
C3235 C3234 1.386 . S
C3235 C3239 1.393 . S
C3236 H3225 0.950 . S
C3236 C3234 1.391 . S
C3236 C3237 1.400 . S
C3237 C3231 1.491 . S
C3237 C3236 1.400 . S
C3237 C3238 1.398 . S
C3238 H3226 0.950 . S
C3238 C3237 1.398 . S
C3238 C3239 1.391 . S
C3239 H3227 0.950 . S
C3239 C3235 1.393 . S
C3239 C3238 1.391 . S
H3240 C3248 0.950 1_455 S
H3241 C3253 0.950 . S
H3242 C3250 0.950 . S
H3243 C3252 0.950 . S
H3244 C3254 0.950 1_655 S
H3245 C3256 0.950 . S
H3246 C3258 0.950 . S
H3247 C3259 0.950 . S
C3248 H3240 0.950 1_655 S
C3248 C3249 1.386 . S
C3248 C3250 1.391 1_655 S
C3249 C3248 1.386 . S
C3249 C3253 1.393 . S
C3250 H3242 0.950 . S
C3250 C3248 1.391 1_455 S
C3250 C3251 1.400 1_455 S
C3251 C3250 1.400 1_655 S
C3251 C3252 1.398 . S
C3251 C3257 1.491 1_655 S
C3252 H3243 0.950 . S
C3252 C3251 1.398 . S
C3252 C3253 1.391 . S
C3253 H3241 0.950 . S
C3253 C3249 1.393 . S
C3253 C3252 1.391 . S
C3254 H3244 0.950 1_455 S
C3254 C3255 1.386 . S
C3254 C3256 1.391 1_455 S
C3255 C3254 1.386 . S
C3255 C3259 1.393 . S
C3256 H3245 0.950 . S
C3256 C3254 1.391 1_655 S
C3256 C3257 1.400 1_655 S
C3257 C3251 1.491 1_455 S
C3257 C3256 1.400 1_455 S
C3257 C3258 1.398 . S
C3258 H3246 0.950 . S
C3258 C3257 1.398 . S
C3258 C3259 1.391 . S
C3259 H3247 0.950 . S
C3259 C3255 1.393 . S
C3259 C3258 1.391 . S
H3260 C3268 0.950 . S
H3261 C3273 0.950 . S
H3262 C3270 0.950 . S
H3263 C3272 0.950 . S
H3264 C3274 0.950 . S
H3265 C3276 0.950 . S
H3266 C3278 0.950 . S
H3267 C3279 0.950 . S
C3268 H3260 0.950 . S
C3268 C3269 1.386 . S
C3268 C3270 1.391 . S
C3269 C3268 1.386 . S
C3269 C3273 1.393 . S
C3270 H3262 0.950 . S
C3270 C3268 1.391 . S
C3270 C3271 1.400 . S
C3271 C3270 1.400 . S
C3271 C3272 1.398 . S
C3271 C3277 1.491 . S
C3272 H3263 0.950 . S
C3272 C3271 1.398 . S
C3272 C3273 1.391 . S
C3273 H3261 0.950 . S
C3273 C3269 1.393 . S
C3273 C3272 1.391 . S
C3274 H3264 0.950 . S
C3274 C3275 1.386 . S
C3274 C3276 1.391 . S
C3275 C3274 1.386 . S
C3275 C3279 1.393 . S
C3276 H3265 0.950 . S
C3276 C3274 1.391 . S
C3276 C3277 1.400 . S
C3277 C3271 1.491 . S
C3277 C3276 1.400 . S
C3277 C3278 1.398 . S
C3278 H3266 0.950 . S
C3278 C3277 1.398 . S
C3278 C3279 1.391 . S
C3279 H3267 0.950 . S
C3279 C3275 1.393 . S
C3279 C3278 1.391 . S
H3280 C3288 0.950 . S
H3281 C3293 0.950 . S
H3282 C3290 0.950 . S
H3283 C3292 0.950 . S
H3284 C3294 0.950 . S
H3285 C3296 0.950 . S
H3286 C3298 0.950 . S
H3287 C3299 0.950 . S
C3288 H3280 0.950 . S
C3288 C3289 1.386 . S
C3288 C3290 1.391 . S
C3289 C3288 1.386 . S
C3289 C3293 1.393 . S
C3290 H3282 0.950 . S
C3290 C3288 1.391 . S
C3290 C3291 1.400 . S
C3291 C3290 1.400 . S
C3291 C3292 1.398 1_545 S
C3291 C3297 1.491 1_545 S
C3292 H3283 0.950 . S
C3292 C3291 1.398 1_565 S
C3292 C3293 1.391 1_565 S
C3293 H3281 0.950 . S
C3293 C3289 1.393 . S
C3293 C3292 1.391 1_545 S
C3294 H3284 0.950 . S
C3294 C3295 1.386 . S
C3294 C3296 1.391 . S
C3295 C3294 1.386 . S
C3295 C3299 1.393 . S
C3296 H3285 0.950 . S
C3296 C3294 1.391 . S
C3296 C3297 1.400 . S
C3297 C3291 1.491 1_565 S
C3297 C3296 1.400 . S
C3297 C3298 1.398 1_565 S
C3298 H3286 0.950 . S
C3298 C3297 1.398 1_545 S
C3298 C3299 1.391 1_545 S
C3299 H3287 0.950 . S
C3299 C3295 1.393 . S
C3299 C3298 1.391 1_565 S
H3300 C3308 0.950 . S
H3301 C3313 0.950 . S
H3302 C3310 0.950 . S
H3303 C3312 0.950 . S
H3304 C3314 0.950 . S
H3305 C3316 0.950 . S
H3306 C3318 0.950 . S
H3307 C3319 0.950 . S
C3308 H3300 0.950 . S
C3308 C3309 1.386 . S
C3308 C3310 1.391 . S
C3309 C3308 1.386 . S
C3309 C3313 1.393 . S
C3310 H3302 0.950 . S
C3310 C3308 1.391 . S
C3310 C3311 1.400 . S
C3311 C3310 1.400 . S
C3311 C3312 1.398 1_655 S
C3311 C3317 1.491 1_655 S
C3312 H3303 0.950 . S
C3312 C3311 1.398 1_455 S
C3312 C3313 1.391 1_455 S
C3313 H3301 0.950 . S
C3313 C3309 1.393 . S
C3313 C3312 1.391 1_655 S
C3314 H3304 0.950 . S
C3314 C3315 1.386 . S
C3314 C3316 1.391 . S
C3315 C3314 1.386 . S
C3315 C3319 1.393 . S
C3316 H3305 0.950 . S
C3316 C3314 1.391 . S
C3316 C3317 1.400 . S
C3317 C3311 1.491 1_455 S
C3317 C3316 1.400 . S
C3317 C3318 1.398 1_455 S
C3318 H3306 0.950 . S
C3318 C3317 1.398 1_655 S
C3318 C3319 1.391 1_655 S
C3319 H3307 0.950 . S
C3319 C3315 1.393 . S
C3319 C3318 1.391 1_455 S
H3320 C3328 0.950 . S
H3321 C3333 0.950 . S
H3322 C3330 0.950 . S
H3323 C3332 0.950 . S
H3324 C3334 0.950 . S
H3325 C3336 0.950 . S
H3326 C3338 0.950 . S
H3327 C3339 0.950 . S
C3328 H3320 0.950 . S
C3328 C3329 1.386 . S
C3328 C3330 1.391 . S
C3329 C3328 1.386 . S
C3329 C3333 1.393 . S
C3330 H3322 0.950 . S
C3330 C3328 1.391 . S
C3330 C3331 1.400 . S
C3331 C3330 1.400 . S
C3331 C3332 1.398 . S
C3331 C3337 1.491 . S
C3332 H3323 0.950 . S
C3332 C3331 1.398 . S
C3332 C3333 1.391 . S
C3333 H3321 0.950 . S
C3333 C3329 1.393 . S
C3333 C3332 1.391 . S
C3334 H3324 0.950 . S
C3334 C3335 1.386 . S
C3334 C3336 1.391 . S
C3335 C3334 1.386 . S
C3335 C3339 1.393 . S
C3336 H3325 0.950 . S
C3336 C3334 1.391 . S
C3336 C3337 1.400 . S
C3337 C3331 1.491 . S
C3337 C3336 1.400 . S
C3337 C3338 1.398 . S
C3338 H3326 0.950 . S
C3338 C3337 1.398 . S
C3338 C3339 1.391 . S
C3339 H3327 0.950 . S
C3339 C3335 1.393 . S
C3339 C3338 1.391 . S
H3340 C3348 0.950 . S
H3341 C3353 0.950 1_565 S
H3342 C3350 0.950 . S
H3343 C3352 0.950 . S
H3344 C3354 0.950 . S
H3345 C3356 0.950 . S
H3346 C3358 0.950 . S
H3347 C3359 0.950 1_545 S
C3348 H3340 0.950 . S
C3348 C3349 1.386 . S
C3348 C3350 1.391 . S
C3349 C3348 1.386 . S
C3349 C3353 1.393 . S
C3350 H3342 0.950 . S
C3350 C3348 1.391 . S
C3350 C3351 1.400 . S
C3351 C3350 1.400 . S
C3351 C3352 1.398 1_545 S
C3351 C3357 1.491 1_545 S
C3352 H3343 0.950 . S
C3352 C3351 1.398 1_565 S
C3352 C3353 1.391 1_565 S
C3353 H3341 0.950 1_545 S
C3353 C3349 1.393 . S
C3353 C3352 1.391 1_545 S
C3354 H3344 0.950 . S
C3354 C3355 1.386 . S
C3354 C3356 1.391 . S
C3355 C3354 1.386 . S
C3355 C3359 1.393 . S
C3356 H3345 0.950 . S
C3356 C3354 1.391 . S
C3356 C3357 1.400 . S
C3357 C3351 1.491 1_565 S
C3357 C3356 1.400 . S
C3357 C3358 1.398 1_565 S
C3358 H3346 0.950 . S
C3358 C3357 1.398 1_545 S
C3358 C3359 1.391 1_545 S
C3359 H3347 0.950 1_565 S
C3359 C3355 1.393 . S
C3359 C3358 1.391 1_565 S
H3360 C3368 0.950 . S
H3361 C3373 0.950 . S
H3362 C3370 0.950 . S
H3363 C3372 0.950 . S
H3364 C3374 0.950 . S
H3365 C3376 0.950 . S
H3366 C3378 0.950 . S
H3367 C3379 0.950 . S
C3368 H3360 0.950 . S
C3368 C3369 1.386 . S
C3368 C3370 1.391 . S
C3369 C3368 1.386 . S
C3369 C3373 1.393 . S
C3370 H3362 0.950 . S
C3370 C3368 1.391 . S
C3370 C3371 1.400 . S
C3371 C3370 1.400 . S
C3371 C3372 1.398 . S
C3371 C3377 1.491 . S
C3372 H3363 0.950 . S
C3372 C3371 1.398 . S
C3372 C3373 1.391 . S
C3373 H3361 0.950 . S
C3373 C3369 1.393 . S
C3373 C3372 1.391 . S
C3374 H3364 0.950 . S
C3374 C3375 1.386 . S
C3374 C3376 1.391 . S
C3375 C3374 1.386 . S
C3375 C3379 1.393 . S
C3376 H3365 0.950 . S
C3376 C3374 1.391 . S
C3376 C3377 1.400 . S
C3377 C3371 1.491 . S
C3377 C3376 1.400 . S
C3377 C3378 1.398 . S
C3378 H3366 0.950 . S
C3378 C3377 1.398 . S
C3378 C3379 1.391 . S
C3379 H3367 0.950 . S
C3379 C3375 1.393 . S
C3379 C3378 1.391 . S
H3380 C3388 0.950 . S
H3381 C3393 0.950 . S
H3382 C3390 0.950 . S
H3383 C3392 0.950 . S
H3384 C3394 0.950 . S
H3385 C3396 0.950 . S
H3386 C3398 0.950 . S
H3387 C3399 0.950 . S
C3388 H3380 0.950 . S
C3388 C3389 1.386 . S
C3388 C3390 1.391 . S
C3389 C3388 1.386 . S
C3389 C3393 1.393 . S
C3390 H3382 0.950 . S
C3390 C3388 1.391 . S
C3390 C3391 1.400 . S
C3391 C3390 1.400 . S
C3391 C3392 1.398 . S
C3391 C3397 1.491 . S
C3392 H3383 0.950 . S
C3392 C3391 1.398 . S
C3392 C3393 1.391 . S
C3393 H3381 0.950 . S
C3393 C3389 1.393 . S
C3393 C3392 1.391 . S
C3394 H3384 0.950 . S
C3394 C3395 1.386 . S
C3394 C3396 1.391 . S
C3395 C3394 1.386 . S
C3395 C3399 1.393 . S
C3396 H3385 0.950 . S
C3396 C3394 1.391 . S
C3396 C3397 1.400 . S
C3397 C3391 1.491 . S
C3397 C3396 1.400 . S
C3397 C3398 1.398 . S
C3398 H3386 0.950 . S
C3398 C3397 1.398 . S
C3398 C3399 1.391 . S
C3399 H3387 0.950 . S
C3399 C3395 1.393 . S
C3399 C3398 1.391 . S
H3400 C3408 0.950 . S
H3401 C3413 0.950 . S
H3402 C3410 0.950 . S
H3403 C3412 0.950 . S
H3404 C3414 0.950 . S
H3405 C3416 0.950 . S
H3406 C3418 0.950 . S
H3407 C3419 0.950 . S
C3408 H3400 0.950 . S
C3408 C3409 1.386 . S
C3408 C3410 1.391 . S
C3409 C3408 1.386 . S
C3409 C3413 1.393 . S
C3410 H3402 0.950 . S
C3410 C3408 1.391 . S
C3410 C3411 1.400 . S
C3411 C3410 1.400 . S
C3411 C3412 1.398 . S
C3411 C3417 1.491 . S
C3412 H3403 0.950 . S
C3412 C3411 1.398 . S
C3412 C3413 1.391 . S
C3413 H3401 0.950 . S
C3413 C3409 1.393 . S
C3413 C3412 1.391 . S
C3414 H3404 0.950 . S
C3414 C3415 1.386 . S
C3414 C3416 1.391 . S
C3415 C3414 1.386 . S
C3415 C3419 1.393 . S
C3416 H3405 0.950 . S
C3416 C3414 1.391 . S
C3416 C3417 1.400 . S
C3417 C3411 1.491 . S
C3417 C3416 1.400 . S
C3417 C3418 1.398 . S
C3418 H3406 0.950 . S
C3418 C3417 1.398 . S
C3418 C3419 1.391 . S
C3419 H3407 0.950 . S
C3419 C3415 1.393 . S
C3419 C3418 1.391 . S
H3420 C3428 0.950 . S
H3421 C3433 0.950 . S
H3422 C3430 0.950 . S
H3423 C3432 0.950 . S
H3424 C3434 0.950 . S
H3425 C3436 0.950 . S
H3426 C3438 0.950 . S
H3427 C3439 0.950 . S
C3428 H3420 0.950 . S
C3428 C3429 1.386 . S
C3428 C3430 1.391 . S
C3429 C3428 1.386 . S
C3429 C3433 1.393 . S
C3430 H3422 0.950 . S
C3430 C3428 1.391 . S
C3430 C3431 1.400 . S
C3431 C3430 1.400 . S
C3431 C3432 1.398 . S
C3431 C3437 1.491 . S
C3432 H3423 0.950 . S
C3432 C3431 1.398 . S
C3432 C3433 1.391 . S
C3433 H3421 0.950 . S
C3433 C3429 1.393 . S
C3433 C3432 1.391 . S
C3434 H3424 0.950 . S
C3434 C3435 1.386 . S
C3434 C3436 1.391 . S
C3435 C3434 1.386 . S
C3435 C3439 1.393 . S
C3436 H3425 0.950 . S
C3436 C3434 1.391 . S
C3436 C3437 1.400 . S
C3437 C3431 1.491 . S
C3437 C3436 1.400 . S
C3437 C3438 1.398 . S
C3438 H3426 0.950 . S
C3438 C3437 1.398 . S
C3438 C3439 1.391 . S
C3439 H3427 0.950 . S
C3439 C3435 1.393 . S
C3439 C3438 1.391 . S
H3440 C3448 0.950 . S
H3441 C3453 0.950 . S
H3442 C3450 0.950 . S
H3443 C3452 0.950 . S
H3444 C3454 0.950 . S
H3445 C3456 0.950 . S
H3446 C3458 0.950 . S
H3447 C3459 0.950 . S
C3448 H3440 0.950 . S
C3448 C3449 1.386 . S
C3448 C3450 1.391 . S
C3449 C3448 1.386 . S
C3449 C3453 1.393 . S
C3450 H3442 0.950 . S
C3450 C3448 1.391 . S
C3450 C3451 1.400 . S
C3451 C3450 1.400 . S
C3451 C3452 1.398 . S
C3451 C3457 1.491 . S
C3452 H3443 0.950 . S
C3452 C3451 1.398 . S
C3452 C3453 1.391 . S
C3453 H3441 0.950 . S
C3453 C3449 1.393 . S
C3453 C3452 1.391 . S
C3454 H3444 0.950 . S
C3454 C3455 1.386 . S
C3454 C3456 1.391 . S
C3455 C3454 1.386 . S
C3455 C3459 1.393 . S
C3456 H3445 0.950 . S
C3456 C3454 1.391 . S
C3456 C3457 1.400 . S
C3457 C3451 1.491 . S
C3457 C3456 1.400 . S
C3457 C3458 1.398 . S
C3458 H3446 0.950 . S
C3458 C3457 1.398 . S
C3458 C3459 1.391 . S
C3459 H3447 0.950 . S
C3459 C3455 1.393 . S
C3459 C3458 1.391 . S
H3460 C3468 0.950 . S
H3461 C3473 0.950 . S
H3462 C3470 0.950 . S
H3463 C3472 0.950 . S
H3464 C3474 0.950 . S
H3465 C3476 0.950 . S
H3466 C3478 0.950 . S
H3467 C3479 0.950 . S
C3468 H3460 0.950 . S
C3468 C3469 1.386 . S
C3468 C3470 1.391 . S
C3469 C3468 1.386 . S
C3469 C3473 1.393 . S
C3470 H3462 0.950 . S
C3470 C3468 1.391 . S
C3470 C3471 1.400 . S
C3471 C3470 1.400 . S
C3471 C3472 1.398 . S
C3471 C3477 1.491 . S
C3472 H3463 0.950 . S
C3472 C3471 1.398 . S
C3472 C3473 1.391 . S
C3473 H3461 0.950 . S
C3473 C3469 1.393 . S
C3473 C3472 1.391 . S
C3474 H3464 0.950 . S
C3474 C3475 1.386 . S
C3474 C3476 1.391 . S
C3475 C3474 1.386 . S
C3475 C3479 1.393 . S
C3476 H3465 0.950 . S
C3476 C3474 1.391 . S
C3476 C3477 1.400 . S
C3477 C3471 1.491 . S
C3477 C3476 1.400 . S
C3477 C3478 1.398 . S
C3478 H3466 0.950 . S
C3478 C3477 1.398 . S
C3478 C3479 1.391 . S
C3479 H3467 0.950 . S
C3479 C3475 1.393 . S
C3479 C3478 1.391 . S
H3480 C3488 0.950 . S
H3481 C3493 0.950 . S
H3482 C3490 0.950 . S
H3483 C3492 0.950 . S
H3484 C3494 0.950 . S
H3485 C3496 0.950 . S
H3486 C3498 0.950 . S
H3487 C3499 0.950 . S
C3488 H3480 0.950 . S
C3488 C3489 1.386 . S
C3488 C3490 1.391 . S
C3489 C3488 1.386 . S
C3489 C3493 1.393 . S
C3490 H3482 0.950 . S
C3490 C3488 1.391 . S
C3490 C3491 1.400 . S
C3491 C3490 1.400 . S
C3491 C3492 1.398 . S
C3491 C3497 1.491 . S
C3492 H3483 0.950 . S
C3492 C3491 1.398 . S
C3492 C3493 1.391 . S
C3493 H3481 0.950 . S
C3493 C3489 1.393 . S
C3493 C3492 1.391 . S
C3494 H3484 0.950 . S
C3494 C3495 1.386 . S
C3494 C3496 1.391 . S
C3495 C3494 1.386 . S
C3495 C3499 1.393 . S
C3496 H3485 0.950 . S
C3496 C3494 1.391 . S
C3496 C3497 1.400 . S
C3497 C3491 1.491 . S
C3497 C3496 1.400 . S
C3497 C3498 1.398 . S
C3498 H3486 0.950 . S
C3498 C3497 1.398 . S
C3498 C3499 1.391 . S
C3499 H3487 0.950 . S
C3499 C3495 1.393 . S
C3499 C3498 1.391 . S
H3500 C3508 0.950 . S
H3501 C3513 0.950 . S
H3502 C3510 0.950 . S
H3503 C3512 0.950 . S
H3504 C3514 0.950 . S
H3505 C3516 0.950 . S
H3506 C3518 0.950 . S
H3507 C3519 0.950 . S
C3508 H3500 0.950 . S
C3508 C3509 1.386 . S
C3508 C3510 1.391 . S
C3509 C3508 1.386 . S
C3509 C3513 1.393 . S
C3510 H3502 0.950 . S
C3510 C3508 1.391 . S
C3510 C3511 1.400 . S
C3511 C3510 1.400 . S
C3511 C3512 1.398 . S
C3511 C3517 1.491 . S
C3512 H3503 0.950 . S
C3512 C3511 1.398 . S
C3512 C3513 1.391 . S
C3513 H3501 0.950 . S
C3513 C3509 1.393 . S
C3513 C3512 1.391 . S
C3514 H3504 0.950 . S
C3514 C3515 1.386 . S
C3514 C3516 1.391 . S
C3515 C3514 1.386 . S
C3515 C3519 1.393 . S
C3516 H3505 0.950 . S
C3516 C3514 1.391 . S
C3516 C3517 1.400 . S
C3517 C3511 1.491 . S
C3517 C3516 1.400 . S
C3517 C3518 1.398 . S
C3518 H3506 0.950 . S
C3518 C3517 1.398 . S
C3518 C3519 1.391 . S
C3519 H3507 0.950 . S
C3519 C3515 1.393 . S
C3519 C3518 1.391 . S
H3520 C3528 0.950 . S
H3521 C3533 0.950 . S
H3522 C3530 0.950 . S
H3523 C3532 0.950 . S
H3524 C3534 0.950 . S
H3525 C3536 0.950 . S
H3526 C3538 0.950 . S
H3527 C3539 0.950 . S
C3528 H3520 0.950 . S
C3528 C3529 1.386 . S
C3528 C3530 1.391 . S
C3529 C3528 1.386 . S
C3529 C3533 1.393 . S
C3530 H3522 0.950 . S
C3530 C3528 1.391 . S
C3530 C3531 1.400 . S
C3531 C3530 1.400 . S
C3531 C3532 1.398 . S
C3531 C3537 1.491 . S
C3532 H3523 0.950 . S
C3532 C3531 1.398 . S
C3532 C3533 1.391 . S
C3533 H3521 0.950 . S
C3533 C3529 1.393 . S
C3533 C3532 1.391 . S
C3534 H3524 0.950 . S
C3534 C3535 1.386 . S
C3534 C3536 1.391 . S
C3535 C3534 1.386 . S
C3535 C3539 1.393 . S
C3536 H3525 0.950 . S
C3536 C3534 1.391 . S
C3536 C3537 1.400 . S
C3537 C3531 1.491 . S
C3537 C3536 1.400 . S
C3537 C3538 1.398 . S
C3538 H3526 0.950 . S
C3538 C3537 1.398 . S
C3538 C3539 1.391 . S
C3539 H3527 0.950 . S
C3539 C3535 1.393 . S
C3539 C3538 1.391 . S
H3540 C3548 0.950 . S
H3541 C3553 0.950 . S
H3542 C3550 0.950 . S
H3543 C3552 0.950 . S
H3544 C3554 0.950 . S
H3545 C3556 0.950 . S
H3546 C3558 0.950 . S
H3547 C3559 0.950 . S
C3548 H3540 0.950 . S
C3548 C3549 1.386 . S
C3548 C3550 1.391 . S
C3549 C3548 1.386 . S
C3549 C3553 1.393 . S
C3550 H3542 0.950 . S
C3550 C3548 1.391 . S
C3550 C3551 1.400 . S
C3551 C3550 1.400 . S
C3551 C3552 1.398 . S
C3551 C3557 1.491 . S
C3552 H3543 0.950 . S
C3552 C3551 1.398 . S
C3552 C3553 1.391 . S
C3553 H3541 0.950 . S
C3553 C3549 1.393 . S
C3553 C3552 1.391 . S
C3554 H3544 0.950 . S
C3554 C3555 1.386 . S
C3554 C3556 1.391 . S
C3555 C3554 1.386 . S
C3555 C3559 1.393 . S
C3556 H3545 0.950 . S
C3556 C3554 1.391 . S
C3556 C3557 1.400 . S
C3557 C3551 1.491 . S
C3557 C3556 1.400 . S
C3557 C3558 1.398 . S
C3558 H3546 0.950 . S
C3558 C3557 1.398 . S
C3558 C3559 1.391 . S
C3559 H3547 0.950 . S
C3559 C3555 1.393 . S
C3559 C3558 1.391 . S
H3560 C3568 0.950 . S
H3561 C3573 0.950 . S
H3562 C3570 0.950 . S
H3563 C3572 0.950 . S
H3564 C3574 0.950 . S
H3565 C3576 0.950 . S
H3566 C3578 0.950 . S
H3567 C3579 0.950 . S
C3568 H3560 0.950 . S
C3568 C3569 1.386 . S
C3568 C3570 1.391 . S
C3569 C3568 1.386 . S
C3569 C3573 1.393 . S
C3570 H3562 0.950 . S
C3570 C3568 1.391 . S
C3570 C3571 1.400 . S
C3571 C3570 1.400 . S
C3571 C3572 1.398 . S
C3571 C3577 1.491 . S
C3572 H3563 0.950 . S
C3572 C3571 1.398 . S
C3572 C3573 1.391 . S
C3573 H3561 0.950 . S
C3573 C3569 1.393 . S
C3573 C3572 1.391 . S
C3574 H3564 0.950 . S
C3574 C3575 1.386 . S
C3574 C3576 1.391 . S
C3575 C3574 1.386 . S
C3575 C3579 1.393 . S
C3576 H3565 0.950 . S
C3576 C3574 1.391 . S
C3576 C3577 1.400 . S
C3577 C3571 1.491 . S
C3577 C3576 1.400 . S
C3577 C3578 1.398 . S
C3578 H3566 0.950 . S
C3578 C3577 1.398 . S
C3578 C3579 1.391 . S
C3579 H3567 0.950 . S
C3579 C3575 1.393 . S
C3579 C3578 1.391 . S
H3580 C3588 0.950 . S
H3581 C3593 0.950 . S
H3582 C3590 0.950 . S
H3583 C3592 0.950 . S
H3584 C3594 0.950 . S
H3585 C3596 0.950 . S
H3586 C3598 0.950 . S
H3587 C3599 0.950 . S
C3588 H3580 0.950 . S
C3588 C3589 1.386 . S
C3588 C3590 1.391 . S
C3589 C3588 1.386 . S
C3589 C3593 1.393 . S
C3590 H3582 0.950 . S
C3590 C3588 1.391 . S
C3590 C3591 1.400 . S
C3591 C3590 1.400 . S
C3591 C3592 1.398 . S
C3591 C3597 1.491 . S
C3592 H3583 0.950 . S
C3592 C3591 1.398 . S
C3592 C3593 1.391 . S
C3593 H3581 0.950 . S
C3593 C3589 1.393 . S
C3593 C3592 1.391 . S
C3594 H3584 0.950 . S
C3594 C3595 1.386 . S
C3594 C3596 1.391 . S
C3595 C3594 1.386 . S
C3595 C3599 1.393 . S
C3596 H3585 0.950 . S
C3596 C3594 1.391 . S
C3596 C3597 1.400 . S
C3597 C3591 1.491 . S
C3597 C3596 1.400 . S
C3597 C3598 1.398 . S
C3598 H3586 0.950 . S
C3598 C3597 1.398 . S
C3598 C3599 1.391 . S
C3599 H3587 0.950 . S
C3599 C3595 1.393 . S
C3599 C3598 1.391 . S
C1449 C9 1.701 . S
C1455 C99 1.791 . S
C1469 C19 1.790 . S
C1475 C49 1.699 1_545 S
C1489 C89 1.711 1_655 S
C1495 C59 1.790 . S
C1509 C129 1.793 . S
C1515 C179 1.863 . S
C1529 C219 1.865 . S
C1535 C169 1.776 1_565 S
C1549 C209 1.801 1_455 S
C1555 C139 1.854 . S
C1569 C258 1.703 . S
C1575 C330 1.781 . S
C1589 C298 1.699 1_565 S
C1595 C250 1.789 . S
C1609 C338 1.721 1_455 S
C1615 C290 1.775 . S
C1629 C378 1.800 . S
C1635 C410 1.858 . S
C1649 C450 1.861 . S
C1655 C418 1.775 1_545 S
C1669 C370 1.866 . S
C1675 C458 1.783 1_655 S
C1689 C579 1.847 . S
C1695 C489 1.789 . S
C1709 C529 1.774 . S
C1715 C499 1.844 . S
C1729 C539 1.843 . S
C1735 C569 1.774 . S
C1749 C609 1.801 . S
C1755 C659 1.885 . S
C1769 C699 1.886 . S
C1775 C649 1.799 . S
C1789 C619 1.876 . S
C1795 C689 1.801 . S
C1809 C738 1.745 . S
C1815 C810 1.811 . S
C1829 C778 1.759 . S
C1835 C730 1.812 . S
C1849 C770 1.817 . S
C1855 C818 1.758 . S
C1869 C890 1.709 . S
C1875 C858 1.632 1_554 S
C1889 C898 1.628 1_554 S
C1895 C930 1.717 . S
C1909 C850 1.717 . S
C1915 C938 1.629 1_554 S
C1929 C969 1.746 . S
C1935 C1059 1.810 . S
C1949 C1009 1.745 . S
C1955 C979 1.824 . S
C1969 C1049 1.738 . S
C1975 C1019 1.825 . S
C1989 C1089 1.633 1_556 S
C1995 C1139 1.715 . S
C2009 C1129 1.634 1_556 S
C2015 C1179 1.711 . S
C2029 C1169 1.632 1_556 S
C2035 C1099 1.717 . S
C2049 C1218 1.766 . S
C2055 C1290 1.848 . S
C2069 C1258 1.764 . S
C2075 C1210 1.854 . S
C2089 C1250 1.842 . S
C2095 C1298 1.780 . S
C2109 C1338 1.795 . S
C2115 C1370 1.881 . S
C2129 C1378 1.795 . S
C2135 C1410 1.881 . S
C2149 C1330 1.872 . S
C2155 C1418 1.811 . S
C2169 C10 1.791 . S
C2175 C809 1.779 . S
C2189 C729 1.783 . S
C2195 C50 1.785 . S
C2209 C90 1.785 . S
C2215 C769 1.764 . S
C2229 C130 1.682 . S
C2235 C1369 1.677 . S
C2249 C1409 1.677 . S
C2255 C170 1.684 . S
C2269 C210 1.673 . S
C2275 C1329 1.660 . S
C2289 C1058 1.780 . S
C2295 C259 1.791 . S
C2309 C299 1.786 . S
C2315 C978 1.764 . S
C2329 C339 1.776 . S
C2335 C1018 1.770 . S
C2349 C658 1.657 . S
C2355 C379 1.677 . S
C2369 C698 1.660 . S
C2375 C419 1.673 . S
C2389 C618 1.671 . S
C2395 C459 1.692 . S
C2409 C490 1.735 . S
C2415 C1289 1.710 . S
C2429 C530 1.723 . S
C2435 C1209 1.717 . S
C2449 C1249 1.709 . S
C2455 C570 1.734 . S
C2469 C409 1.712 . S
C2475 C610 1.714 . S
C2489 C449 1.699 . S
C2495 C650 1.728 . S
C2509 C369 1.717 . S
C2515 C690 1.724 . S
C2529 C98 1.768 . S
C2535 C739 1.769 . S
C2549 C779 1.783 . S
C2555 C18 1.776 . S
C2569 C819 1.777 . S
C2575 C58 1.779 . S
C2589 C1138 1.720 1_554 S
C2595 C859 1.756 . S
C2609 C1178 1.717 . S
C2615 C899 1.740 . S
C2629 C939 1.745 . S
C2635 C1098 1.716 . S
C2649 C329 1.762 . S
C2655 C970 1.784 . S
C2669 C249 1.760 . S
C2675 C1010 1.772 . S
C2689 C289 1.761 . S
C2695 C1050 1.782 . S
C2709 C1090 1.740 . S
C2715 C889 1.724 . S
C2729 C929 1.714 . S
C2735 C1130 1.746 . S
C2749 C1170 1.740 . S
C2755 C849 1.719 . S
C2769 C1219 1.740 . S
C2775 C578 1.728 . S
C2789 C1259 1.730 . S
C2795 C498 1.729 . S
C2809 C1299 1.738 . S
C2815 C538 1.728 . S
C2829 C1339 1.717 . S
C2835 C178 1.716 . S
C2849 C218 1.711 . S
C2855 C1379 1.731 . S
C2869 C138 1.698 . S
C2875 C1419 1.714 . S
C2889 C1166 2.297 . S
C2895 C6 2.283 . S
C2909 C1086 2.298 . S
C2915 C46 2.281 . S
C2929 C86 2.287 . S
C2935 C1126 2.274 . S
C2949 C526 2.529 . S
C2955 C126 2.535 . S
C2969 C166 2.535 . S
C2975 C566 2.528 . S
C2989 C206 2.527 . S
C2995 C486 2.526 . S
C3009 C255 2.289 . S
C3015 C935 2.270 . S
C3029 C295 2.300 . S
C3035 C855 2.279 . S
C3049 C335 2.295 . S
C3055 C895 2.269 . S
C3069 C1255 2.534 . S
C3075 C375 2.525 . S
C3089 C1295 2.526 . S
C3095 C415 2.532 . S
C3109 C1215 2.528 . S
C3115 C455 2.525 . S
C3129 C606 2.581 . S
C3135 C1006 2.585 . S
C3149 C646 2.581 . S
C3155 C1046 2.592 . S
C3169 C686 2.588 . S
C3175 C966 2.594 . S
C3189 C735 2.594 . S
C3195 C1415 2.585 . S
C3209 C1335 2.589 . S
C3215 C775 2.584 . S
C3229 C815 2.588 . S
C3235 C1375 2.579 . S
C3249 C175 1.156 . S
C3255 C15 1.146 . S
C3269 C215 1.148 . S
C3275 C55 1.152 . S
C3289 C135 1.148 . S
C3295 C95 1.155 . S
C3309 C246 1.155 . S
C3315 C406 1.146 . S
C3329 C446 1.151 . S
C3335 C286 1.151 . S
C3349 C326 1.156 . S
C3355 C366 1.145 . S
C3369 C655 1.238 . S
C3375 C495 1.233 . S
C3389 C695 1.231 . S
C3395 C535 1.241 . S
C3409 C615 1.239 . S
C3415 C575 1.233 . S
C3429 C886 1.505 . S
C3435 C726 1.521 . S
C3449 C766 1.506 . S
C3455 C926 1.518 . S
C3469 C806 1.509 . S
C3475 C846 1.519 . S
C3489 C975 1.506 . S
C3495 C1135 1.519 . S
C3509 C1175 1.492 . S
C3515 C1015 1.525 . S
C3529 C1055 1.512 . S
C3535 C1095 1.510 . S
C3549 C1206 1.241 . S
C3555 C1366 1.231 . S
C3569 C1406 1.236 . S
C3575 C1246 1.235 . S
C3589 C1286 1.240 . S
C3595 C1326 1.232 . S
