# Generated by pormake.
# Topology zfo, (5)-cn, num edge types: 1
# Building blocks:
#     Node 0, Type 0, BuildingBlock: BEQFEK_clean_sbu_0, # of connection points: 5
#     Node 1, Type 0, BuildingBlock: BEQFEK_clean_sbu_0, # of connection points: 5
#     Node 2, Type 0, BuildingBlock: BEQFEK_clean_sbu_0, # of connection points: 5
#     Node 3, Type 0, BuildingBlock: BEQFEK_clean_sbu_0, # of connection points: 5
#     Node 4, Type 0, BuildingBlock: BEQFEK_clean_sbu_0, # of connection points: 5
#     Node 5, Type 0, BuildingBlock: BEQFEK_clean_sbu_0, # of connection points: 5
#     Node 6, Type 0, BuildingBlock: BEQFEK_clean_sbu_0, # of connection points: 5
#     Node 7, Type 0, BuildingBlock: BEQFEK_clean_sbu_0, # of connection points: 5
#     Node 8, Type 0, BuildingBlock: BEQFEK_clean_sbu_0, # of connection points: 5
#     Node 9, Type 0, BuildingBlock: BEQFEK_clean_sbu_0, # of connection points: 5
#     Node 10, Type 0, BuildingBlock: BEQFEK_clean_sbu_0, # of connection points: 5
#     Node 11, Type 0, BuildingBlock: BEQFEK_clean_sbu_0, # of connection points: 5
#     Node 12, Type 0, BuildingBlock: BEQFEK_clean_sbu_0, # of connection points: 5
#     Node 13, Type 0, BuildingBlock: BEQFEK_clean_sbu_0, # of connection points: 5
#     Node 14, Type 0, BuildingBlock: BEQFEK_clean_sbu_0, # of connection points: 5
#     Node 15, Type 0, BuildingBlock: BEQFEK_clean_sbu_0, # of connection points: 5
#     Edge 16, Type (0, 0), BuildingBlock: XIVTED_clean_linker_0, # of connection points: 2
#     Edge 17, Type (0, 0), BuildingBlock: XIVTED_clean_linker_0, # of connection points: 2
#     Edge 18, Type (0, 0), BuildingBlock: XIVTED_clean_linker_0, # of connection points: 2
#     Edge 19, Type (0, 0), BuildingBlock: XIVTED_clean_linker_0, # of connection points: 2
#     Edge 20, Type (0, 0), BuildingBlock: XIVTED_clean_linker_0, # of connection points: 2
#     Edge 21, Type (0, 0), BuildingBlock: XIVTED_clean_linker_0, # of connection points: 2
#     Edge 22, Type (0, 0), BuildingBlock: XIVTED_clean_linker_0, # of connection points: 2
#     Edge 23, Type (0, 0), BuildingBlock: XIVTED_clean_linker_0, # of connection points: 2
#     Edge 24, Type (0, 0), BuildingBlock: XIVTED_clean_linker_0, # of connection points: 2
#     Edge 25, Type (0, 0), BuildingBlock: XIVTED_clean_linker_0, # of connection points: 2
#     Edge 26, Type (0, 0), BuildingBlock: XIVTED_clean_linker_0, # of connection points: 2
#     Edge 27, Type (0, 0), BuildingBlock: XIVTED_clean_linker_0, # of connection points: 2
#     Edge 28, Type (0, 0), BuildingBlock: XIVTED_clean_linker_0, # of connection points: 2
#     Edge 29, Type (0, 0), BuildingBlock: XIVTED_clean_linker_0, # of connection points: 2
#     Edge 30, Type (0, 0), BuildingBlock: XIVTED_clean_linker_0, # of connection points: 2
#     Edge 31, Type (0, 0), BuildingBlock: XIVTED_clean_linker_0, # of connection points: 2
#     Edge 32, Type (0, 0), BuildingBlock: XIVTED_clean_linker_0, # of connection points: 2
#     Edge 33, Type (0, 0), BuildingBlock: XIVTED_clean_linker_0, # of connection points: 2
#     Edge 34, Type (0, 0), BuildingBlock: XIVTED_clean_linker_0, # of connection points: 2
#     Edge 35, Type (0, 0), BuildingBlock: XIVTED_clean_linker_0, # of connection points: 2
#     Edge 36, Type (0, 0), BuildingBlock: XIVTED_clean_linker_0, # of connection points: 2
#     Edge 37, Type (0, 0), BuildingBlock: XIVTED_clean_linker_0, # of connection points: 2
#     Edge 38, Type (0, 0), BuildingBlock: XIVTED_clean_linker_0, # of connection points: 2
#     Edge 39, Type (0, 0), BuildingBlock: XIVTED_clean_linker_0, # of connection points: 2
#     Edge 40, Type (0, 0), BuildingBlock: XIVTED_clean_linker_0, # of connection points: 2
#     Edge 41, Type (0, 0), BuildingBlock: XIVTED_clean_linker_0, # of connection points: 2
#     Edge 42, Type (0, 0), BuildingBlock: XIVTED_clean_linker_0, # of connection points: 2
#     Edge 43, Type (0, 0), BuildingBlock: XIVTED_clean_linker_0, # of connection points: 2
#     Edge 44, Type (0, 0), BuildingBlock: XIVTED_clean_linker_0, # of connection points: 2
#     Edge 45, Type (0, 0), BuildingBlock: XIVTED_clean_linker_0, # of connection points: 2
#     Edge 46, Type (0, 0), BuildingBlock: XIVTED_clean_linker_0, # of connection points: 2
#     Edge 47, Type (0, 0), BuildingBlock: XIVTED_clean_linker_0, # of connection points: 2
#     Edge 48, Type (0, 0), BuildingBlock: XIVTED_clean_linker_0, # of connection points: 2
#     Edge 49, Type (0, 0), BuildingBlock: XIVTED_clean_linker_0, # of connection points: 2
#     Edge 50, Type (0, 0), BuildingBlock: XIVTED_clean_linker_0, # of connection points: 2
#     Edge 51, Type (0, 0), BuildingBlock: XIVTED_clean_linker_0, # of connection points: 2
#     Edge 52, Type (0, 0), BuildingBlock: XIVTED_clean_linker_0, # of connection points: 2
#     Edge 53, Type (0, 0), BuildingBlock: XIVTED_clean_linker_0, # of connection points: 2
#     Edge 54, Type (0, 0), BuildingBlock: XIVTED_clean_linker_0, # of connection points: 2
#     Edge 55, Type (0, 0), BuildingBlock: XIVTED_clean_linker_0, # of connection points: 2
# Relax obj value: 0.172
# Max RMSD: 0.173
# Mean RMSD: 0.165
data_MOF--net-zfo--node1-BEQFEK_clean_sbu_0--edge1-XIVTED_clean_linker_0
_symmetry_space_group_name_H-M    P1
_symmetry_Int_Tables_number       1
_symmetry_cell_setting            triclinic
loop_
_symmetry_equiv_pos_as_xyz
'x, y, z'
_cell_length_a     32.881527
_cell_length_b     32.839319
_cell_length_c     67.107553
_cell_angle_alpha  90.000021
_cell_angle_beta   89.979694
_cell_angle_gamma 90.008619
loop_
_atom_site_label
_atom_site_type_symbol
_atom_site_fract_x
_atom_site_fract_y
_atom_site_fract_z
_atom_type_partial_charge
Co0 Co 0.10012 0.20997 0.09185 0.0
Co1 Co 0.09582 0.20911 0.13869 0.0
C2 C 0.05033 0.27067 0.11462 0.0
O3 O 0.06305 0.25592 0.09821 0.0
O4 O 0.06124 0.2557 0.13125 0.0
C5 C 0.12135 0.24129 0.05275 0.0
O6 O 0.13083 0.27503 0.06218 0.0
C7 C 0.11259 0.24174 0.17838 0.0
C8 C 0.11016 0.18657 0.19716 0.0
C9 C 0.1187 0.2279 0.19768 0.0
N10 N 0.1014 0.21 0.16699 0.0
N11 N 0.09911 0.17727 0.17839 0.0
C12 C 0.12188 0.28318 0.17028 0.0
H13 H 0.12608 0.28194 0.15388 0.0
H14 H 0.14961 0.29583 0.1774 0.0
H15 H 0.09607 0.30383 0.17365 0.0
C16 C 0.18933 0.21171 0.10107 0.0
N17 N 0.14978 0.21238 0.10654 0.0
N18 N 0.14755 0.21129 0.12615 0.0
C19 C 0.18544 0.20958 0.13371 0.0
C20 C 0.21307 0.21037 0.11816 0.0
C21 C 0.20392 0.21255 0.07995 0.0
H22 H 0.18565 0.19121 0.0708 0.0
H23 H 0.19994 0.2437 0.07392 0.0
H24 H 0.23654 0.20452 0.07875 0.0
O25 O 0.0718 0.15803 0.09808 0.0
O26 O 0.0683 0.15793 0.13115 0.0
H27 H 0.17403 0.18023 0.16171 0.0
H28 H 0.22671 0.19123 0.15724 0.0
C29 C 0.19527 0.20278 0.15525 0.0
H30 H 0.19241 0.23193 0.16345 0.0
H31 H 0.09194 0.14822 0.17315 0.0
O32 O 0.10892 0.21058 0.06255 0.0
C33 C 0.06102 0.14128 0.11438 0.0
Co34 Co 0.79411 0.10569 0.59374 0.0
Co35 Co 0.79231 0.10731 0.64051 0.0
C36 C 0.73442 0.05572 0.61764 0.0
O37 O 0.74919 0.06766 0.60109 0.0
O38 O 0.74801 0.06919 0.6341 0.0
C39 C 0.76448 0.13031 0.55497 0.0
O40 O 0.7355 0.14888 0.56492 0.0
C41 C 0.75925 0.12202 0.6804 0.0
C42 C 0.8145 0.13639 0.69775 0.0
C43 C 0.77246 0.13487 0.699 0.0
N44 N 0.79187 0.11738 0.66855 0.0
N45 N 0.82487 0.12523 0.67911 0.0
C46 C 0.71655 0.11357 0.67386 0.0
H47 H 0.71467 0.0816 0.66875 0.0
H48 H 0.70865 0.13334 0.66102 0.0
H49 H 0.69423 0.11771 0.68606 0.0
C50 C 0.79715 0.19556 0.6004 0.0
N51 N 0.79149 0.15703 0.60685 0.0
N52 N 0.78735 0.1574 0.62637 0.0
C53 C 0.78801 0.19628 0.6328 0.0
C54 C 0.79496 0.22177 0.61664 0.0
C55 C 0.81077 0.20645 0.57979 0.0
H56 H 0.82689 0.18047 0.5728 0.0
H57 H 0.78386 0.21436 0.57061 0.0
H58 H 0.83134 0.23325 0.58007 0.0
O59 O 0.846 0.07971 0.60066 0.0
O60 O 0.84539 0.08095 0.63379 0.0
H61 H 0.80866 0.20222 0.6629 0.0
H62 H 0.77374 0.24173 0.65521 0.0
C63 C 0.78109 0.20889 0.65397 0.0
H64 H 0.75516 0.1917 0.66019 0.0
H65 H 0.85436 0.12452 0.67338 0.0
O66 O 0.79216 0.11129 0.56435 0.0
C67 C 0.86266 0.07183 0.61734 0.0
Co68 Co 0.88988 0.79678 0.09198 0.0
Co69 Co 0.89319 0.79829 0.1389 0.0
C70 C 0.9433 0.73988 0.11457 0.0
O71 O 0.92974 0.75283 0.09798 0.0
O72 O 0.93132 0.75504 0.13097 0.0
C73 C 0.90312 0.78063 0.05061 0.0
O74 O 0.93749 0.76576 0.05742 0.0
C75 C 0.8725 0.76089 0.17689 0.0
C76 C 0.88151 0.81104 0.19837 0.0
C77 C 0.86836 0.77102 0.19687 0.0
N78 N 0.88644 0.79366 0.16702 0.0
N79 N 0.89227 0.82341 0.17997 0.0
C80 C 0.86439 0.72053 0.16725 0.0
H81 H 0.88387 0.71645 0.15394 0.0
H82 H 0.83229 0.71914 0.16226 0.0
H83 H 0.86989 0.69528 0.17791 0.0
C84 C 0.80163 0.78739 0.1009 0.0
N85 N 0.84085 0.79005 0.10664 0.0
N86 N 0.8423 0.79331 0.12617 0.0
C87 C 0.80416 0.79451 0.13341 0.0
C88 C 0.77713 0.78993 0.11774 0.0
C89 C 0.78821 0.78288 0.07972 0.0
H90 H 0.80831 0.76094 0.0719 0.0
H91 H 0.75626 0.77221 0.07877 0.0
H92 H 0.79091 0.81275 0.0721 0.0
O93 O 0.9149 0.85063 0.09884 0.0
O94 O 0.91693 0.85132 0.13202 0.0
H95 H 0.81669 0.82758 0.16041 0.0
H96 H 0.76349 0.82222 0.1548 0.0
C97 C 0.79342 0.80664 0.1543 0.0
H98 H 0.7915 0.77918 0.16384 0.0
H99 H 0.90264 0.85242 0.17617 0.0
O100 O 0.87791 0.79612 0.06282 0.0
C101 C 0.9238 0.86822 0.11526 0.0
Co102 Co 0.20088 0.89259 0.59392 0.0
Co103 Co 0.20081 0.89163 0.64088 0.0
C104 C 0.26116 0.94083 0.61756 0.0
O105 O 0.24675 0.92933 0.60087 0.0
O106 O 0.2463 0.92809 0.63391 0.0
C107 C 0.23151 0.87671 0.55411 0.0
O108 O 0.26584 0.86811 0.56319 0.0
C109 C 0.23565 0.87102 0.67966 0.0
C110 C 0.18158 0.87061 0.69919 0.0
C111 C 0.22301 0.86276 0.69897 0.0
N112 N 0.20316 0.88278 0.66896 0.0
N113 N 0.17106 0.8833 0.68082 0.0
C114 C 0.27675 0.86341 0.67082 0.0
H115 H 0.27462 0.86052 0.65437 0.0
H116 H 0.29043 0.83541 0.67721 0.0
H117 H 0.29694 0.88948 0.67438 0.0
C118 C 0.2045 0.80239 0.60077 0.0
N119 N 0.20438 0.84134 0.60727 0.0
N120 N 0.20339 0.84137 0.62691 0.0
C121 C 0.20239 0.80263 0.63347 0.0
C122 C 0.20366 0.77669 0.61722 0.0
C123 C 0.2059 0.79024 0.57929 0.0
H124 H 0.23659 0.79688 0.5733 0.0
H125 H 0.19989 0.75733 0.5772 0.0
H126 H 0.18338 0.80822 0.57071 0.0
O127 O 0.14897 0.91981 0.6015 0.0
O128 O 0.14909 0.91915 0.63463 0.0
H129 H 0.18453 0.75865 0.65592 0.0
H130 H 0.22495 0.79264 0.66295 0.0
C131 C 0.19582 0.7904 0.65474 0.0
H132 H 0.17318 0.81076 0.66177 0.0
H133 H 0.14167 0.89052 0.67615 0.0
O134 O 0.20053 0.88677 0.56434 0.0
C135 C 0.13227 0.92837 0.61815 0.0
Co136 Co 0.60658 0.29373 0.91775 0.0
Co137 Co 0.60377 0.29549 0.87093 0.0
C138 C 0.55426 0.23616 0.89496 0.0
O139 O 0.56742 0.24921 0.9116 0.0
O140 O 0.56623 0.2516 0.87862 0.0
C141 C 0.59057 0.28037 0.95888 0.0
O142 O 0.55495 0.26958 0.95177 0.0
C143 C 0.62489 0.25899 0.83283 0.0
C144 C 0.61644 0.30974 0.81163 0.0
C145 C 0.62954 0.26969 0.81295 0.0
N146 N 0.61075 0.29149 0.84283 0.0
N147 N 0.60523 0.3216 0.83005 0.0
C148 C 0.63284 0.21838 0.84225 0.0
H149 H 0.61267 0.21366 0.85525 0.0
H150 H 0.66465 0.21712 0.84768 0.0
H151 H 0.62815 0.19342 0.83134 0.0
C152 C 0.69519 0.28529 0.90904 0.0
N153 N 0.65598 0.28784 0.90325 0.0
N154 N 0.65465 0.29112 0.88372 0.0
C155 C 0.69284 0.29242 0.87653 0.0
C156 C 0.71979 0.28787 0.89223 0.0
C157 C 0.70849 0.2807 0.93023 0.0
H158 H 0.70547 0.31047 0.93792 0.0
H159 H 0.68851 0.25852 0.93797 0.0
H160 H 0.74053 0.27031 0.93121 0.0
O161 O 0.58065 0.34731 0.91108 0.0
O162 O 0.57906 0.34793 0.87791 0.0
H163 H 0.68053 0.32541 0.84949 0.0
H164 H 0.73368 0.31995 0.85516 0.0
C165 C 0.7037 0.30444 0.85564 0.0
H166 H 0.70561 0.27694 0.84613 0.0
H167 H 0.59483 0.35053 0.83399 0.0
O168 O 0.61793 0.29254 0.94688 0.0
C169 C 0.5716 0.3647 0.89464 0.0
Co170 Co 0.70069 0.60027 0.41413 0.0
Co171 Co 0.70256 0.6029 0.36729 0.0
C172 C 0.75953 0.54989 0.39014 0.0
O173 O 0.74529 0.56198 0.40677 0.0
O174 O 0.74584 0.56371 0.37377 0.0
C175 C 0.73002 0.62391 0.45314 0.0
O176 O 0.75942 0.64213 0.44333 0.0
C177 C 0.73664 0.61866 0.32751 0.0
C178 C 0.68141 0.63162 0.30989 0.0
C179 C 0.72349 0.63111 0.30882 0.0
N180 N 0.70388 0.61333 0.33924 0.0
N181 N 0.67094 0.62037 0.3285 0.0
C182 C 0.7795 0.61152 0.33422 0.0
H183 H 0.78158 0.58128 0.34138 0.0
H184 H 0.78811 0.63463 0.34551 0.0
H185 H 0.80127 0.61233 0.32161 0.0
C186 C 0.69815 0.69017 0.40792 0.0
N187 N 0.70395 0.65181 0.40125 0.0
N188 N 0.70791 0.65262 0.38173 0.0
C189 C 0.70682 0.69164 0.37549 0.0
C190 C 0.69996 0.71671 0.39182 0.0
C191 C 0.68443 0.70053 0.42858 0.0
H192 H 0.66804 0.67447 0.43534 0.0
H193 H 0.71132 0.70795 0.43787 0.0
H194 H 0.66406 0.72748 0.42847 0.0
O195 O 0.64854 0.57509 0.40686 0.0
O196 O 0.6489 0.57746 0.37373 0.0
H197 H 0.68486 0.69741 0.34561 0.0
H198 H 0.71905 0.73775 0.3531 0.0
C199 C 0.71258 0.70472 0.35431 0.0
H200 H 0.73869 0.68833 0.34779 0.0
H201 H 0.64135 0.61894 0.33408 0.0
O202 O 0.70223 0.60536 0.4436 0.0
C203 C 0.6316 0.5681 0.39014 0.0
Co204 Co 0.39333 0.70757 0.9142 0.0
Co205 Co 0.39612 0.70147 0.86732 0.0
C206 C 0.44472 0.76378 0.8897 0.0
O207 O 0.43205 0.75157 0.90661 0.0
O208 O 0.4326 0.74727 0.87362 0.0
C209 C 0.40765 0.72677 0.95526 0.0
O210 O 0.44226 0.74048 0.94814 0.0
C211 C 0.37757 0.73187 0.82752 0.0
C212 C 0.37929 0.67597 0.80925 0.0
C213 C 0.37061 0.71727 0.80842 0.0
N214 N 0.38942 0.70063 0.83908 0.0
N215 N 0.39123 0.66744 0.82799 0.0
C216 C 0.36848 0.77356 0.83536 0.0
H217 H 0.36546 0.77301 0.85183 0.0
H218 H 0.34014 0.78564 0.82859 0.0
H219 H 0.39384 0.7943 0.83135 0.0
C220 C 0.30483 0.71378 0.90547 0.0
N221 N 0.34396 0.7112 0.89958 0.0
N222 N 0.34513 0.70674 0.8801 0.0
C223 C 0.30684 0.70516 0.87304 0.0
C224 C 0.28004 0.71017 0.8888 0.0
C225 C 0.29181 0.71975 0.92663 0.0
H226 H 0.29592 0.69078 0.9349 0.0
H227 H 0.31125 0.74317 0.93378 0.0
H228 H 0.2595 0.72929 0.92762 0.0
O229 O 0.41977 0.65384 0.90903 0.0
O230 O 0.42199 0.65038 0.87593 0.0
H231 H 0.31755 0.67079 0.84633 0.0
H232 H 0.26482 0.68067 0.85126 0.0
C233 C 0.29589 0.69372 0.8521 0.0
H234 H 0.29702 0.72118 0.84252 0.0
H235 H 0.3987 0.63862 0.83342 0.0
O236 O 0.38189 0.71123 0.94335 0.0
C237 C 0.42941 0.6352 0.89302 0.0
Co238 Co 0.29375 0.38897 0.41338 0.0
Co239 Co 0.29042 0.393 0.36653 0.0
C240 C 0.23059 0.43798 0.39194 0.0
O241 O 0.24697 0.42527 0.40796 0.0
O242 O 0.2441 0.42734 0.37495 0.0
C243 C 0.26573 0.36916 0.45323 0.0
O244 O 0.23103 0.36047 0.44452 0.0
C245 C 0.25502 0.37509 0.32747 0.0
C246 C 0.30866 0.37871 0.30772 0.0
C247 C 0.26758 0.36923 0.30793 0.0
N248 N 0.28729 0.38704 0.33829 0.0
N249 N 0.31906 0.39 0.32631 0.0
C250 C 0.21443 0.36504 0.33628 0.0
H251 H 0.2169 0.36109 0.35266 0.0
H252 H 0.20192 0.33693 0.32944 0.0
H253 H 0.19305 0.3904 0.33319 0.0
C254 C 0.29196 0.29976 0.40445 0.0
N255 N 0.29048 0.33923 0.39886 0.0
N256 N 0.29011 0.34121 0.37924 0.0
C257 C 0.29187 0.30317 0.37178 0.0
C258 C 0.29254 0.2757 0.38743 0.0
C259 C 0.29218 0.28565 0.42566 0.0
H260 H 0.26188 0.29143 0.4323 0.0
H261 H 0.29862 0.25267 0.42696 0.0
H262 H 0.31511 0.30313 0.43425 0.0
O263 O 0.3446 0.41785 0.40583 0.0
O264 O 0.34191 0.42124 0.37278 0.0
H265 H 0.3189 0.31492 0.34326 0.0
H266 H 0.30958 0.26197 0.34808 0.0
C267 C 0.2974 0.29319 0.35016 0.0
H268 H 0.26768 0.29523 0.34246 0.0
H269 H 0.34827 0.39786 0.33103 0.0
O270 O 0.29589 0.38055 0.44274 0.0
C271 C 0.35984 0.42876 0.38919 0.0
Co272 Co 0.91719 0.7822 0.86445 0.0
Co273 Co 0.83705 0.83331 0.86651 0.0
C274 C 0.87042 0.78994 0.90244 0.0
O275 O 0.89962 0.7753 0.89231 0.0
O276 O 0.84397 0.81302 0.89441 0.0
C277 C 0.97925 0.7231 0.87275 0.0
O278 O 0.95555 0.71253 0.88763 0.0
C279 C 0.75079 0.84456 0.87379 0.0
C280 C 0.73646 0.90123 0.85749 0.0
C281 C 0.71933 0.87119 0.86934 0.0
N282 N 0.78493 0.85841 0.86519 0.0
N283 N 0.77633 0.89247 0.85557 0.0
C284 C 0.74816 0.80466 0.88449 0.0
H285 H 0.77286 0.78402 0.87948 0.0
H286 H 0.71824 0.78996 0.88186 0.0
H287 H 0.75176 0.80997 0.90072 0.0
C288 C 0.87487 0.74543 0.83009 0.0
N289 N 0.87543 0.76974 0.84623 0.0
N290 N 0.84139 0.79078 0.84702 0.0
C291 C 0.81788 0.78015 0.83137 0.0
C292 C 0.83837 0.75108 0.82011 0.0
C293 C 0.90987 0.71937 0.82377 0.0
H294 H 0.93545 0.73921 0.81906 0.0
H295 H 0.92044 0.70093 0.83661 0.0
H296 H 0.90139 0.69886 0.8113 0.0
O297 O 0.93512 0.8389 0.86066 0.0
O298 O 0.87877 0.876 0.86146 0.0
H299 H 0.78413 0.83422 0.82496 0.0
H300 H 0.76651 0.78975 0.81164 0.0
C301 C 0.7789 0.80093 0.82601 0.0
H302 H 0.7562 0.79549 0.83794 0.0
H303 H 0.79753 0.9094 0.84749 0.0
O304 O 0.96682 0.74943 0.86027 0.0
C305 C 0.91726 0.8732 0.8597 0.0
Co306 Co 0.20901 0.91314 0.36663 0.0
Co307 Co 0.16299 0.82993 0.37091 0.0
C308 C 0.20631 0.86734 0.4055 0.0
O309 O 0.21687 0.89786 0.39504 0.0
O310 O 0.18609 0.83813 0.39799 0.0
C311 C 0.26946 0.97524 0.37299 0.0
O312 O 0.2825 0.95138 0.38735 0.0
C313 C 0.14036 0.74649 0.38272 0.0
C314 C 0.11174 0.72331 0.35523 0.0
C315 C 0.12487 0.71129 0.37397 0.0
N316 N 0.13833 0.77703 0.3694 0.0
N317 N 0.11984 0.7633 0.35327 0.0
C318 C 0.1534 0.75234 0.4039 0.0
H319 H 0.14184 0.78188 0.40953 0.0
H320 H 0.18711 0.75265 0.40468 0.0
H321 H 0.14117 0.72804 0.4137 0.0
C322 C 0.24397 0.87068 0.33154 0.0
N323 N 0.22185 0.87093 0.34846 0.0
N324 N 0.20489 0.83501 0.351 0.0
C325 C 0.21788 0.80996 0.33637 0.0
C326 C 0.24229 0.83188 0.32318 0.0
C327 C 0.26186 0.90829 0.32246 0.0
H328 H 0.24349 0.93531 0.32656 0.0
H329 H 0.29316 0.91261 0.32826 0.0
H330 H 0.26309 0.90603 0.30598 0.0
O331 O 0.15237 0.92887 0.36294 0.0
O332 O 0.11848 0.87083 0.36617 0.0
H333 H 0.18115 0.75949 0.32726 0.0
H334 H 0.23468 0.7488 0.32813 0.0
C335 C 0.20952 0.76517 0.33571 0.0
H336 H 0.20609 0.75295 0.35102 0.0
H337 H 0.11444 0.78079 0.34056 0.0
O338 O 0.24068 0.96321 0.36182 0.0
C339 C 0.11911 0.90922 0.3632 0.0
Co340 Co 0.08264 0.21883 0.86562 0.0
Co341 Co 0.16398 0.16992 0.86962 0.0
C342 C 0.12854 0.21373 0.9044 0.0
O343 O 0.09876 0.22573 0.89386 0.0
O344 O 0.15682 0.19219 0.89694 0.0
C345 C 0.02076 0.27806 0.87406 0.0
O346 O 0.04527 0.28938 0.88848 0.0
C347 C 0.24955 0.15583 0.87862 0.0
C348 C 0.26395 0.10098 0.86091 0.0
C349 C 0.28075 0.12897 0.874 0.0
N350 N 0.21588 0.14405 0.86889 0.0
N351 N 0.22452 0.11102 0.85846 0.0
C352 C 0.25246 0.19457 0.8903 0.0
H353 H 0.22874 0.21642 0.88541 0.0
H354 H 0.28287 0.20875 0.88847 0.0
H355 H 0.24772 0.18775 0.90633 0.0
C356 C 0.12587 0.25207 0.83024 0.0
N357 N 0.12512 0.23057 0.84736 0.0
N358 N 0.15996 0.21135 0.84954 0.0
C359 C 0.18461 0.22125 0.83422 0.0
C360 C 0.16371 0.24694 0.8212 0.0
C361 C 0.08915 0.27231 0.82155 0.0
H362 H 0.06117 0.25612 0.82623 0.0
H363 H 0.08749 0.30408 0.82711 0.0
H364 H 0.0905 0.27285 0.80503 0.0
O365 O 0.06533 0.16236 0.86183 0.0
O366 O 0.12222 0.12657 0.8648 0.0
H367 H 0.22725 0.17402 0.82749 0.0
H368 H 0.24496 0.22473 0.82129 0.0
C369 C 0.22746 0.2064 0.83221 0.0
H370 H 0.243 0.2085 0.84679 0.0
H371 H 0.20368 0.09573 0.84943 0.0
O372 O 0.03277 0.25151 0.86157 0.0
C373 C 0.08392 0.12844 0.86192 0.0
Co374 Co 0.77182 0.07391 0.36911 0.0
Co375 Co 0.82333 0.1545 0.36957 0.0
C376 C 0.78237 0.12392 0.40629 0.0
O377 O 0.76885 0.09324 0.39688 0.0
O378 O 0.80352 0.15097 0.39755 0.0
C379 C 0.71164 0.01613 0.38099 0.0
O380 O 0.70589 0.04207 0.39561 0.0
C381 C 0.83501 0.24127 0.37502 0.0
C382 C 0.89271 0.2539 0.35933 0.0
C383 C 0.86218 0.2722 0.37044 0.0
N384 N 0.84898 0.20635 0.36722 0.0
N385 N 0.88364 0.21394 0.35796 0.0
C386 C 0.79462 0.24503 0.38515 0.0
H387 H 0.79907 0.24314 0.40151 0.0
H388 H 0.77418 0.21986 0.38052 0.0
H389 H 0.78019 0.27471 0.3816 0.0
C390 C 0.73392 0.11522 0.33459 0.0
N391 N 0.75876 0.11522 0.35054 0.0
N392 N 0.78019 0.14911 0.35066 0.0
C393 C 0.76941 0.17188 0.33479 0.0
C394 C 0.73973 0.15117 0.32407 0.0
C395 C 0.70707 0.08028 0.32902 0.0
H396 H 0.68949 0.07029 0.34226 0.0
H397 H 0.68579 0.08861 0.31685 0.0
H398 H 0.72626 0.05431 0.32416 0.0
O399 O 0.82771 0.0547 0.3643 0.0
O400 O 0.86489 0.11121 0.36499 0.0
H401 H 0.78112 0.22067 0.31369 0.0
H402 H 0.78463 0.23432 0.33969 0.0
C403 C 0.79091 0.21005 0.32862 0.0
H404 H 0.82416 0.20456 0.32837 0.0
H405 H 0.90088 0.19197 0.35055 0.0
O406 O 0.73617 0.02518 0.36701 0.0
C407 C 0.86197 0.07263 0.3632 0.0
Co408 Co 0.41494 0.7182 0.14202 0.0
Co409 Co 0.33408 0.66874 0.13838 0.0
C410 C 0.36981 0.71194 0.10322 0.0
O411 O 0.39873 0.72565 0.11385 0.0
O412 O 0.34242 0.68936 0.11077 0.0
C413 C 0.47617 0.77861 0.13428 0.0
O414 O 0.45161 0.79055 0.12 0.0
C415 C 0.24849 0.65592 0.12931 0.0
C416 C 0.23319 0.60107 0.14684 0.0
C417 C 0.21681 0.62959 0.13389 0.0
N418 N 0.28198 0.64337 0.13896 0.0
N419 N 0.27282 0.61032 0.14926 0.0
C420 C 0.24633 0.69494 0.11781 0.0
H421 H 0.27066 0.71611 0.12271 0.0
H422 H 0.21629 0.70978 0.11981 0.0
H423 H 0.25073 0.68833 0.10174 0.0
C424 C 0.37215 0.75172 0.17732 0.0
N425 N 0.37263 0.73009 0.16025 0.0
N426 N 0.33784 0.71071 0.15824 0.0
C427 C 0.31352 0.7205 0.17371 0.0
C428 C 0.33456 0.74644 0.18656 0.0
C429 C 0.40905 0.77202 0.18582 0.0
H430 H 0.43676 0.75469 0.18174 0.0
H431 H 0.4117 0.80309 0.17945 0.0
H432 H 0.40734 0.77431 0.20228 0.0
O433 O 0.43241 0.66152 0.14583 0.0
O434 O 0.37535 0.62567 0.14388 0.0
H435 H 0.27198 0.67246 0.18071 0.0
H436 H 0.25379 0.72275 0.18736 0.0
C437 C 0.27102 0.70492 0.17615 0.0
H438 H 0.25474 0.70703 0.16177 0.0
H439 H 0.2934 0.59454 0.15823 0.0
O440 O 0.46452 0.75101 0.14628 0.0
C441 C 0.41374 0.62762 0.14635 0.0
Co442 Co 0.28657 0.41297 0.6398 0.0
Co443 Co 0.33509 0.3311 0.63742 0.0
C444 C 0.29231 0.36471 0.60178 0.0
O445 O 0.28006 0.39531 0.61172 0.0
O446 O 0.31351 0.33684 0.60986 0.0
C447 C 0.2277 0.47558 0.63109 0.0
O448 O 0.21712 0.45202 0.61615 0.0
C449 C 0.34849 0.24448 0.63025 0.0
C450 C 0.4023 0.23108 0.64883 0.0
C451 C 0.37453 0.2133 0.63595 0.0
N452 N 0.36049 0.279 0.63922 0.0
N453 N 0.39294 0.27094 0.65014 0.0
C454 C 0.31011 0.24096 0.61836 0.0
H455 H 0.28866 0.2657 0.62239 0.0
H456 H 0.29524 0.21109 0.62094 0.0
H457 H 0.31751 0.24366 0.60228 0.0
C458 C 0.25169 0.37211 0.67541 0.0
N459 N 0.27408 0.37168 0.65858 0.0
N460 N 0.29319 0.33659 0.65715 0.0
C461 C 0.28234 0.31293 0.67271 0.0
C462 C 0.25606 0.33477 0.68506 0.0
C463 C 0.23116 0.40952 0.68326 0.0
H464 H 0.24895 0.43696 0.67921 0.0
H465 H 0.20058 0.41215 0.67639 0.0
H466 H 0.22783 0.40845 0.6997 0.0
O467 O 0.34298 0.43024 0.64364 0.0
O468 O 0.37857 0.37297 0.64189 0.0
H469 H 0.3289 0.27028 0.68044 0.0
H470 H 0.27793 0.25345 0.68659 0.0
C471 C 0.29669 0.27005 0.67552 0.0
H472 H 0.2948 0.2535 0.6612 0.0
H473 H 0.40815 0.29246 0.65882 0.0
O474 O 0.25408 0.46305 0.6435 0.0
C475 C 0.37678 0.41152 0.6441 0.0
Co476 Co 0.57505 0.28216 0.1455 0.0
Co477 Co 0.65842 0.32861 0.14302 0.0
C478 C 0.62134 0.2875 0.10722 0.0
O479 O 0.59133 0.27506 0.11748 0.0
O480 O 0.64966 0.30842 0.11516 0.0
C481 C 0.5129 0.22278 0.13801 0.0
O482 O 0.53809 0.20904 0.12439 0.0
C483 C 0.7415 0.35224 0.13131 0.0
C484 C 0.7657 0.37856 0.15913 0.0
C485 C 0.77689 0.36729 0.13998 0.0
N486 N 0.71161 0.35266 0.14499 0.0
N487 N 0.72593 0.36984 0.16135 0.0
C488 C 0.73448 0.34256 0.1098 0.0
H489 H 0.70513 0.35597 0.10504 0.0
H490 H 0.73301 0.30904 0.10779 0.0
H491 H 0.75861 0.35555 0.10016 0.0
C492 C 0.61576 0.24185 0.17909 0.0
N493 N 0.61648 0.26707 0.1633 0.0
N494 N 0.65237 0.28475 0.16207 0.0
C495 C 0.67616 0.26968 0.17678 0.0
C496 C 0.65353 0.24256 0.18818 0.0
C497 C 0.57871 0.21933 0.18587 0.0
H498 H 0.55417 0.24148 0.18927 0.0
H499 H 0.5678 0.19944 0.17363 0.0
H500 H 0.58499 0.20043 0.19923 0.0
O501 O 0.56002 0.33912 0.14976 0.0
O502 O 0.61826 0.37305 0.14841 0.0
H503 H 0.71897 0.31011 0.19017 0.0
H504 H 0.73576 0.25827 0.18895 0.0
C505 C 0.71905 0.28236 0.18076 0.0
H506 H 0.73504 0.28867 0.16656 0.0
H507 H 0.70887 0.37441 0.17428 0.0
O508 O 0.52432 0.25128 0.14953 0.0
C509 C 0.57974 0.37234 0.15058 0.0
Co510 Co 0.72196 0.57959 0.63957 0.0
Co511 Co 0.67056 0.66023 0.63835 0.0
C512 C 0.71158 0.62829 0.60192 0.0
O513 O 0.72506 0.59791 0.61158 0.0
O514 O 0.69048 0.65565 0.61044 0.0
C515 C 0.78226 0.52154 0.62823 0.0
O516 O 0.78854 0.54744 0.61365 0.0
C517 C 0.65894 0.74673 0.63196 0.0
C518 C 0.60158 0.76025 0.64776 0.0
C519 C 0.63192 0.77793 0.6363 0.0
N520 N 0.64504 0.71222 0.64023 0.0
N521 N 0.61058 0.72035 0.64956 0.0
C522 C 0.69918 0.74996 0.62164 0.0
H523 H 0.71969 0.72504 0.62652 0.0
H524 H 0.71366 0.77981 0.62477 0.0
H525 H 0.69447 0.74724 0.60533 0.0
C526 C 0.75937 0.62194 0.67395 0.0
N527 N 0.7349 0.6215 0.65787 0.0
N528 N 0.71365 0.65548 0.65736 0.0
C529 C 0.72433 0.67881 0.67306 0.0
C530 C 0.75366 0.65835 0.6841 0.0
C531 C 0.78541 0.58683 0.68015 0.0
H532 H 0.76559 0.56104 0.68463 0.0
H533 H 0.80402 0.57661 0.6673 0.0
H534 H 0.80566 0.59508 0.69275 0.0
O535 O 0.66602 0.56067 0.64443 0.0
O536 O 0.62881 0.61711 0.64319 0.0
H537 H 0.66992 0.71196 0.67952 0.0
H538 H 0.71376 0.7292 0.69336 0.0
C539 C 0.70315 0.71744 0.67876 0.0
H540 H 0.70885 0.74083 0.66718 0.0
H541 H 0.59344 0.69878 0.6573 0.0
O542 O 0.75745 0.53077 0.64207 0.0
C543 C 0.63174 0.57858 0.64529 0.0
H544 H 0.03913 0.09586 0.0817 0.0
H545 H 0.94477 0.91543 0.1472 0.0
H546 H 0.03461 0.09587 0.14604 0.0
H547 H 0.94654 0.91419 0.08283 0.0
H548 H 0.97719 0.98199 0.14677 0.0
H549 H 0.00481 0.0298 0.08156 0.0
C550 C 0.03092 0.08205 0.0958 0.0
C551 C 0.03985 0.1015 0.11392 0.0
C552 C 0.97048 0.96725 0.13272 0.0
C553 C 0.00058 0.02589 0.11383 0.0
C554 C 0.95192 0.92914 0.13294 0.0
C555 C 0.94292 0.90904 0.11501 0.0
C556 C 0.98025 0.9856 0.11444 0.0
C557 C 0.95291 0.9285 0.09702 0.0
C558 C 0.01131 0.04432 0.09569 0.0
C559 C 0.02841 0.0821 0.1317 0.0
N560 N 0.97111 0.9657 0.0972 0.0
N561 N 0.00945 0.04541 0.13119 0.0
H562 H 0.08738 0.95186 0.65063 0.0
H563 H 0.90833 0.04845 0.58525 0.0
H564 H 0.08659 0.95356 0.58626 0.0
H565 H 0.90849 0.04827 0.64962 0.0
H566 H 0.9738 0.01389 0.5855 0.0
H567 H 0.02207 0.98718 0.65067 0.0
C568 C 0.07352 0.95962 0.63649 0.0
C569 C 0.09259 0.94966 0.61839 0.0
C570 C 0.95958 0.02141 0.59959 0.0
C571 C 0.01772 0.99018 0.61838 0.0
C572 C 0.92211 0.0412 0.59947 0.0
C573 C 0.90274 0.0513 0.61746 0.0
C574 C 0.978 0.01154 0.61782 0.0
C575 C 0.92224 0.04108 0.63539 0.0
C576 C 0.0362 0.97983 0.63654 0.0
C577 C 0.07309 0.96056 0.60057 0.0
N578 N 0.95879 0.02172 0.63511 0.0
N579 N 0.03675 0.9802 0.60103 0.0
H580 H 0.45224 0.59202 0.92638 0.0
H581 H 0.54936 0.41057 0.86251 0.0
H582 H 0.45405 0.58719 0.86205 0.0
H583 H 0.54757 0.41079 0.92689 0.0
H584 H 0.51499 0.47599 0.86254 0.0
H585 H 0.48737 0.52624 0.92732 0.0
C586 C 0.45994 0.57718 0.91247 0.0
C587 C 0.45014 0.59524 0.89411 0.0
C588 C 0.52208 0.46185 0.87669 0.0
C589 C 0.49036 0.52014 0.8951 0.0
C590 C 0.5418 0.42437 0.8767 0.0
C591 C 0.5514 0.405 0.89474 0.0
C592 C 0.51173 0.48037 0.89485 0.0
C593 C 0.54078 0.42459 0.91262 0.0
C594 C 0.48002 0.53966 0.91303 0.0
C595 C 0.46093 0.57458 0.87657 0.0
N596 N 0.52145 0.46123 0.91223 0.0
N597 N 0.48041 0.53825 0.87752 0.0
H598 H 0.58609 0.54399 0.42215 0.0
H599 H 0.40299 0.45544 0.35669 0.0
H600 H 0.58454 0.54737 0.35779 0.0
H601 H 0.40701 0.45123 0.421 0.0
H602 H 0.4687 0.49017 0.35664 0.0
H603 H 0.51981 0.51108 0.4218 0.0
C604 C 0.57184 0.53786 0.40791 0.0
C605 C 0.59107 0.54846 0.38995 0.0
C606 C 0.45516 0.48167 0.37075 0.0
C607 C 0.51483 0.51059 0.38949 0.0
C608 C 0.41761 0.46184 0.37081 0.0
C609 C 0.39939 0.45031 0.38889 0.0
C610 C 0.47468 0.49007 0.3889 0.0
C611 C 0.41983 0.45945 0.4067 0.0
C612 C 0.5339 0.51902 0.40774 0.0
C613 C 0.57093 0.53972 0.372 0.0
N614 N 0.45635 0.47874 0.40624 0.0
N615 N 0.53391 0.52125 0.37223 0.0
H616 H 0.00205 0.12197 0.85565 0.0
H617 H 0.00021 0.87866 0.85725 0.0
H618 H 0.1105 0.0489 0.86208 0.0
H619 H 0.89161 0.95267 0.85716 0.0
H620 H 0.04134 0.94035 0.85581 0.0
H621 H 0.96181 0.06005 0.853 0.0
C622 C 0.01752 0.0929 0.85643 0.0
C623 C 0.05982 0.09073 0.85924 0.0
C624 C 0.00853 0.9431 0.85602 0.0
C625 C 0.01357 0.01945 0.85622 0.0
C626 C 0.98493 0.90786 0.85681 0.0
C627 C 0.94227 0.91042 0.85746 0.0
C628 C 0.98944 0.9813 0.85584 0.0
C629 C 0.92434 0.94917 0.85678 0.0
C630 C 0.99441 0.0575 0.85493 0.0
C631 C 0.078 0.05209 0.86002 0.0
N632 N 0.94802 0.98307 0.85609 0.0
N633 N 0.05473 0.01795 0.8586 0.0
H634 H 0.11064 0.9904 0.3555 0.0
H635 H 0.86795 0.98942 0.36179 0.0
H636 H 0.04012 0.88116 0.36518 0.0
H637 H 0.94085 0.09872 0.35904 0.0
H638 H 0.92987 0.94867 0.35976 0.0
H639 H 0.04805 0.02946 0.35342 0.0
C640 C 0.08197 0.97448 0.35712 0.0
C641 C 0.08075 0.93233 0.36069 0.0
C642 C 0.93229 0.98155 0.35952 0.0
C643 C 0.00862 0.9773 0.35833 0.0
C644 C 0.89693 0.00492 0.36064 0.0
C645 C 0.89914 0.04768 0.36071 0.0
C646 C 0.97021 0.00099 0.3584 0.0
C647 C 0.93761 0.06591 0.35914 0.0
C648 C 0.04616 0.99694 0.35593 0.0
C649 C 0.04256 0.91357 0.3625 0.0
N650 N 0.97159 0.04247 0.35812 0.0
N651 N 0.00798 0.93624 0.36139 0.0
H652 H 0.6087 0.45103 0.15076 0.0
H653 H 0.38583 0.54907 0.14972 0.0
H654 H 0.49776 0.38122 0.15557 0.0
H655 H 0.49637 0.62018 0.14977 0.0
H656 H 0.4266 0.48727 0.15312 0.0
H657 H 0.56837 0.51364 0.15183 0.0
C658 C 0.57596 0.44882 0.1522 0.0
C659 C 0.55664 0.41075 0.15292 0.0
C660 C 0.44192 0.51643 0.15249 0.0
C661 C 0.5103 0.48221 0.15402 0.0
C662 C 0.41862 0.55174 0.15052 0.0
C663 C 0.43765 0.58991 0.14934 0.0
C664 C 0.48457 0.51924 0.15318 0.0
C665 C 0.48031 0.59145 0.15054 0.0
C666 C 0.55294 0.48458 0.15278 0.0
C667 C 0.51407 0.40982 0.15483 0.0
N668 N 0.50231 0.55664 0.15228 0.0
N669 N 0.49238 0.44495 0.15517 0.0
H670 H 0.38326 0.49376 0.64944 0.0
H671 H 0.62631 0.49558 0.64845 0.0
H672 H 0.45624 0.38484 0.64457 0.0
H673 H 0.55232 0.60425 0.64762 0.0
H674 H 0.5647 0.4544 0.65015 0.0
H675 H 0.44508 0.53413 0.65186 0.0
C676 C 0.41229 0.47821 0.64895 0.0
C677 C 0.41446 0.43572 0.64665 0.0
C678 C 0.56194 0.48725 0.64969 0.0
C679 C 0.48566 0.48214 0.64941 0.0
C680 C 0.59714 0.51088 0.64875 0.0
C681 C 0.59457 0.55356 0.64776 0.0
C682 C 0.52378 0.50633 0.64966 0.0
C683 C 0.55585 0.57151 0.64826 0.0
C684 C 0.44764 0.5014 0.65033 0.0
C685 C 0.45306 0.41747 0.64624 0.0
N686 N 0.522 0.54779 0.64909 0.0
N687 N 0.48715 0.44082 0.64752 0.0
H688 H 0.17594 0.2794 0.02818 0.0
H689 H 0.06245 0.22462 0.92821 0.0
H690 H 0.0727 0.19836 0.02761 0.0
H691 H 0.19362 0.22108 0.92983 0.0
H692 H 0.06155 0.23273 0.96448 0.0
H693 H 0.17918 0.27484 0.99154 0.0
C694 C 0.15392 0.26084 0.02033 0.0
C695 C 0.12407 0.23912 0.03084 0.0
C696 C 0.09047 0.23045 0.95682 0.0
C697 C 0.12703 0.23468 0.98931 0.0
C698 C 0.09108 0.22609 0.93617 0.0
C699 C 0.1282 0.22202 0.92604 0.0
C700 C 0.12722 0.23183 0.96737 0.0
C701 C 0.16438 0.22385 0.93713 0.0
C702 C 0.15591 0.25815 0.99954 0.0
C703 C 0.09633 0.21535 0.02004 0.0
N704 N 0.16304 0.2289 0.95726 0.0
N705 N 0.09817 0.21413 0.99983 0.0
H706 H 0.76642 0.06114 0.43154 0.0
H707 H 0.73525 0.18965 0.53008 0.0
H708 H 0.784 0.19142 0.43059 0.0
H709 H 0.79514 0.07276 0.53004 0.0
H710 H 0.7376 0.1898 0.49337 0.0
H711 H 0.76037 0.06379 0.4678 0.0
C712 C 0.76856 0.09039 0.43893 0.0
C713 C 0.7759 0.12614 0.42805 0.0
C714 C 0.75015 0.16424 0.5015 0.0
C715 C 0.76859 0.12924 0.46947 0.0
C716 C 0.74866 0.164 0.52233 0.0
C717 C 0.76509 0.13115 0.53301 0.0
C718 C 0.76709 0.13087 0.49143 0.0
C719 C 0.78235 0.09876 0.52235 0.0
C720 C 0.76534 0.09178 0.45961 0.0
C721 C 0.77862 0.16316 0.43846 0.0
N722 N 0.78255 0.09924 0.50212 0.0
N723 N 0.77475 0.16383 0.45866 0.0
H724 H 0.92032 0.74025 0.92409 0.0
H725 H 0.83823 0.81403 0.03049 0.0
H726 H 0.8196 0.82357 0.93069 0.0
H727 H 0.94768 0.74381 0.02142 0.0
H728 H 0.8259 0.8124 0.99444 0.0
H729 H 0.92488 0.73485 0.96014 0.0
C730 C 0.89886 0.75719 0.9331 0.0
C731 C 0.86977 0.78275 0.92426 0.0
C732 C 0.85251 0.79726 1.00039 0.0
C733 C 0.87515 0.77692 0.96583 0.0
C734 C 0.85959 0.79819 0.02095 0.0
C735 C 0.89422 0.77927 0.02899 0.0
C736 C 0.88013 0.77708 0.98783 0.0
C737 C 0.92074 0.75906 0.01593 0.0
C738 C 0.90159 0.75417 0.95375 0.0
C739 C 0.84265 0.80365 0.93682 0.0
N740 N 0.91317 0.75858 0.99605 0.0
N741 N 0.8462 0.80054 0.95699 0.0
H742 H 0.21848 0.8021 0.43037 0.0
H743 H 0.18481 0.9238 0.52975 0.0
H744 H 0.21166 0.9333 0.42997 0.0
H745 H 0.27218 0.82587 0.52865 0.0
H746 H 0.18165 0.92157 0.49322 0.0
H747 H 0.22683 0.80395 0.46681 0.0
C748 C 0.21893 0.83123 0.43793 0.0
C749 C 0.21449 0.86761 0.42717 0.0
C750 C 0.20149 0.90063 0.50103 0.0
C751 C 0.22285 0.86977 0.46862 0.0
C752 C 0.20314 0.90171 0.52181 0.0
C753 C 0.22889 0.87505 0.53216 0.0
C754 C 0.22482 0.87192 0.4906 0.0
C755 C 0.25217 0.84711 0.52117 0.0
C756 C 0.22378 0.83223 0.45864 0.0
C757 C 0.2153 0.90457 0.43769 0.0
N758 N 0.24925 0.84591 0.50093 0.0
N759 N 0.21875 0.90469 0.45787 0.0
H760 H 0.5655 0.24452 0.08556 0.0
H761 H 0.65837 0.30579 0.97938 0.0
H762 H 0.67599 0.31431 0.0789 0.0
H763 H 0.54078 0.24987 0.98782 0.0
H764 H 0.66935 0.30319 0.01549 0.0
H765 H 0.56063 0.2393 0.04948 0.0
C766 C 0.58901 0.25851 0.07655 0.0
C767 C 0.62104 0.2803 0.08539 0.0
C768 C 0.64123 0.29139 0.0094 0.0
C769 C 0.61537 0.27461 0.04383 0.0
C770 C 0.63492 0.29288 0.9888 0.0
C771 C 0.59846 0.27829 0.98057 0.0
C772 C 0.61095 0.275 0.02182 0.0
C773 C 0.56923 0.26174 0.99348 0.0
C774 C 0.5861 0.2556 0.05589 0.0
C775 C 0.65064 0.29747 0.07283 0.0
N776 N 0.57609 0.26062 0.01342 0.0
N777 N 0.64694 0.29451 0.05268 0.0
H778 H 0.71091 0.69512 0.57722 0.0
H779 H 0.69746 0.56736 0.4781 0.0
H780 H 0.72604 0.56455 0.577 0.0
H781 H 0.75948 0.68314 0.47801 0.0
H782 H 0.69553 0.56936 0.51457 0.0
H783 H 0.71767 0.6951 0.54068 0.0
C784 C 0.7158 0.66656 0.56951 0.0
C785 C 0.71795 0.62979 0.58013 0.0
C786 C 0.70961 0.59426 0.50653 0.0
C787 C 0.72473 0.62956 0.53863 0.0
C788 C 0.71055 0.59325 0.48578 0.0
C789 C 0.7288 0.62507 0.4751 0.0
C790 C 0.72608 0.62779 0.51665 0.0
C791 C 0.74543 0.65788 0.48576 0.0
C792 C 0.71976 0.66662 0.54875 0.0
C793 C 0.72439 0.59362 0.56943 0.0
N794 N 0.74332 0.65865 0.50602 0.0
N795 N 0.727 0.59435 0.54925 0.0
H796 H 0.3161 0.68447 0.07477 0.0
H797 H 0.45464 0.76146 0.98424 0.0
H798 H 0.42524 0.75623 0.08182 0.0
H799 H 0.34187 0.69638 0.97579 0.0
H800 H 0.44222 0.76222 0.02003 0.0
H801 H 0.32246 0.6914 0.03858 0.0
C802 C 0.34115 0.70203 0.06876 0.0
C803 C 0.37034 0.71954 0.08143 0.0
C804 C 0.42004 0.7479 0.01038 0.0
C805 C 0.37794 0.72728 0.03998 0.0
C806 C 0.42717 0.74739 0.98989 0.0
C807 C 0.3994 0.7286 0.97696 0.0
C808 C 0.38494 0.7293 0.01811 0.0
C809 C 0.36421 0.71107 0.9852 0.0
C810 C 0.3448 0.70589 0.04807 0.0
C811 C 0.40208 0.742 0.07272 0.0
N812 N 0.3581 0.71164 0.00527 0.0
N813 N 0.40516 0.74494 0.05259 0.0
H814 H 0.28397 0.29773 0.57759 0.0
H815 H 0.31254 0.41696 0.47714 0.0
H816 H 0.28451 0.42911 0.57658 0.0
H817 H 0.22724 0.31722 0.47902 0.0
H818 H 0.3167 0.4152 0.51363 0.0
H819 H 0.27581 0.29761 0.54108 0.0
C820 C 0.28222 0.32646 0.5697 0.0
C821 C 0.28478 0.3635 0.58007 0.0
C822 C 0.29717 0.39369 0.506 0.0
C823 C 0.27669 0.36344 0.53862 0.0
C824 C 0.29495 0.3945 0.48524 0.0
C825 C 0.26941 0.36726 0.47513 0.0
C826 C 0.27463 0.3647 0.51665 0.0
C827 C 0.24707 0.33889 0.48633 0.0
C828 C 0.27748 0.32633 0.54898 0.0
C829 C 0.28236 0.3999 0.56917 0.0
N830 N 0.2505 0.33801 0.50655 0.0
N831 N 0.27906 0.39897 0.549 0.0
H832 H 0.1022 0.30469 0.21183 0.0
H833 H 0.2947 0.30974 0.2833 0.0
H834 H 0.17932 0.20036 0.2215 0.0
H835 H 0.18961 0.38448 0.29513 0.0
H836 H 0.25717 0.27557 0.25666 0.0
H837 H 0.13777 0.34045 0.23895 0.0
C838 C 0.12665 0.28943 0.21964 0.0
C839 C 0.1381 0.24969 0.21442 0.0
C840 C 0.24229 0.29939 0.26511 0.0
C841 C 0.17881 0.29021 0.2451 0.0
C842 C 0.26373 0.31905 0.2802 0.0
C843 C 0.24503 0.34966 0.29149 0.0
C844 C 0.2021 0.311 0.26098 0.0
C845 C 0.20483 0.36056 0.28692 0.0
C846 C 0.1467 0.30968 0.23512 0.0
C847 C 0.16952 0.23095 0.22514 0.0
N848 N 0.18466 0.34136 0.2719 0.0
N849 N 0.18908 0.25152 0.23983 0.0
H850 H 0.70682 0.1858 0.69711 0.0
H851 H 0.6945 0.2172 0.81488 0.0
H852 H 0.78482 0.12344 0.73876 0.0
H853 H 0.60918 0.27049 0.77361 0.0
H854 H 0.7265 0.18095 0.7874 0.0
H855 H 0.66936 0.21539 0.72495 0.0
C856 C 0.71537 0.17749 0.71215 0.0
C857 C 0.74809 0.15107 0.71569 0.0
C858 C 0.70046 0.20014 0.78435 0.0
C859 C 0.70646 0.18623 0.74766 0.0
C860 C 0.68177 0.22049 0.80012 0.0
C861 C 0.64831 0.24602 0.79662 0.0
C862 C 0.68601 0.20579 0.76487 0.0
C863 C 0.63468 0.25079 0.77696 0.0
C864 C 0.69429 0.19481 0.72805 0.0
C865 C 0.75935 0.14321 0.73545 0.0
N866 N 0.65358 0.23086 0.76182 0.0
N867 N 0.73854 0.1607 0.75072 0.0
H868 H 0.71048 0.62001 0.26911 0.0
H869 H 0.89013 0.77075 0.23603 0.0
H870 H 0.78974 0.68153 0.31051 0.0
H871 H 0.80354 0.71828 0.19515 0.0
H872 H 0.85736 0.73378 0.26335 0.0
H873 H 0.7479 0.6512 0.24146 0.0
C874 C 0.73615 0.63962 0.27234 0.0
C875 C 0.74777 0.6473 0.29207 0.0
C876 C 0.84585 0.72997 0.24835 0.0
C877 C 0.79029 0.68358 0.26064 0.0
C878 C 0.86454 0.75106 0.23278 0.0
C879 C 0.85022 0.74682 0.21321 0.0
C880 C 0.81226 0.7048 0.24436 0.0
C881 C 0.81667 0.7213 0.20983 0.0
C882 C 0.75745 0.65745 0.25659 0.0
C883 C 0.78075 0.6735 0.2955 0.0
N884 N 0.79882 0.70131 0.22525 0.0
N885 N 0.80084 0.69071 0.27995 0.0
H886 H 0.31017 0.68852 0.78478 0.0
H887 H 0.30028 0.88007 0.71209 0.0
H888 H 0.38616 0.79394 0.79383 0.0
H889 H 0.19812 0.80057 0.72263 0.0
H890 H 0.33803 0.84462 0.73854 0.0
H891 H 0.27488 0.72451 0.75795 0.0
C892 C 0.31955 0.7192 0.78101 0.0
C893 C 0.35077 0.73851 0.79163 0.0
C894 C 0.30734 0.83506 0.73503 0.0
C895 C 0.31077 0.77972 0.76094 0.0
C896 C 0.28594 0.85504 0.71991 0.0
C897 C 0.2462 0.84295 0.71514 0.0
C898 C 0.28899 0.80242 0.74515 0.0
C899 C 0.22868 0.81086 0.72591 0.0
C900 C 0.29925 0.73979 0.76582 0.0
C901 C 0.36174 0.7783 0.7862 0.0
N902 N 0.25031 0.79146 0.74029 0.0
N903 N 0.34183 0.79763 0.77115 0.0
H904 H 0.87746 0.76644 0.78521 0.0
H905 H 0.73872 0.61951 0.71918 0.0
H906 H 0.77481 0.70206 0.80966 0.0
H907 H 0.80171 0.72265 0.6943 0.0
H908 H 0.76025 0.64092 0.75268 0.0
H909 H 0.85852 0.74248 0.75179 0.0
C910 C 0.85104 0.74705 0.78347 0.0
C911 C 0.82756 0.73607 0.80004 0.0
C912 C 0.76949 0.65875 0.73988 0.0
C913 C 0.806 0.70835 0.76212 0.0
C914 C 0.75748 0.64642 0.72084 0.0
C915 C 0.76871 0.66939 0.70412 0.0
C916 C 0.79341 0.6939 0.74211 0.0
C917 C 0.79264 0.70421 0.70691 0.0
C918 C 0.84018 0.73355 0.76447 0.0
C919 C 0.79354 0.7111 0.79714 0.0
N920 N 0.8044 0.71536 0.72557 0.0
N921 N 0.78384 0.69783 0.77852 0.0
H922 H 0.20307 0.78424 0.29575 0.0
H923 H 0.34572 0.8213 0.20407 0.0
H924 H 0.31512 0.85014 0.30475 0.0
H925 H 0.29669 0.70176 0.21565 0.0
H926 H 0.326 0.84198 0.23799 0.0
H927 H 0.22753 0.76257 0.2631 0.0
C928 C 0.23307 0.79371 0.29106 0.0
C929 C 0.25733 0.81854 0.30326 0.0
C930 C 0.31959 0.81129 0.23297 0.0
C931 C 0.28443 0.79555 0.26533 0.0
C932 C 0.33081 0.79945 0.2137 0.0
C933 C 0.32235 0.75989 0.20689 0.0
C934 C 0.2989 0.78368 0.24528 0.0
C935 C 0.30268 0.73292 0.21998 0.0
C936 C 0.24676 0.78166 0.2723 0.0
C937 C 0.29522 0.8313 0.29581 0.0
N938 N 0.29116 0.74545 0.23843 0.0
N939 N 0.30751 0.81999 0.27722 0.0
H940 H 0.20385 0.20269 0.7927 0.0
H941 H 0.18038 0.34781 0.70136 0.0
H942 H 0.15139 0.32123 0.80315 0.0
H943 H 0.2978 0.29615 0.71492 0.0
H944 H 0.15699 0.32858 0.73495 0.0
H945 H 0.22667 0.22573 0.75989 0.0
C946 C 0.1975 0.23371 0.78823 0.0
C947 C 0.17652 0.2604 0.80095 0.0
C948 C 0.1878 0.32147 0.73041 0.0
C949 C 0.20052 0.28595 0.76294 0.0
C950 C 0.20121 0.33245 0.71134 0.0
C951 C 0.24098 0.32312 0.70519 0.0
C952 C 0.21401 0.30006 0.74312 0.0
C953 C 0.26653 0.30282 0.71871 0.0
C954 C 0.21018 0.2466 0.76943 0.0
C955 C 0.16745 0.29964 0.79385 0.0
N956 N 0.25246 0.29146 0.73692 0.0
N957 N 0.17926 0.31122 0.77522 0.0
H958 H 0.74797 0.10825 0.28954 0.0
H959 H 0.62189 0.26699 0.22349 0.0
H960 H 0.69647 0.21849 0.31347 0.0
H961 H 0.70841 0.18334 0.19808 0.0
H962 H 0.64052 0.24306 0.25691 0.0
H963 H 0.72525 0.12868 0.25612 0.0
C964 C 0.73145 0.13655 0.28771 0.0
C965 C 0.72386 0.16178 0.30414 0.0
C966 C 0.65539 0.22986 0.24404 0.0
C967 C 0.69795 0.18531 0.26619 0.0
C968 C 0.64468 0.24338 0.22504 0.0
C969 C 0.6638 0.22703 0.2082 0.0
C970 C 0.6851 0.19943 0.24615 0.0
C971 C 0.69318 0.19664 0.21082 0.0
C972 C 0.71876 0.1483 0.26869 0.0
C973 C 0.70278 0.19831 0.30109 0.0
N974 N 0.70292 0.18367 0.22949 0.0
N975 N 0.69044 0.20898 0.28247 0.0
H976 H 0.47392 0.17258 0.11137 0.0
H977 H 0.2575 0.26352 0.13968 0.0
H978 H 0.45214 0.25017 0.16224 0.0
H979 H 0.26923 0.15794 0.10198 0.0
H980 H 0.33049 0.26147 0.1461 0.0
H981 H 0.40027 0.16692 0.10647 0.0
C982 C 0.45372 0.18783 0.12171 0.0
C983 C 0.46924 0.21234 0.13709 0.0
C984 C 0.31726 0.23874 0.13637 0.0
C985 C 0.38533 0.20657 0.13131 0.0
C986 C 0.27572 0.24012 0.13261 0.0
C987 C 0.25769 0.21112 0.12016 0.0
C988 C 0.34106 0.20823 0.1275 0.0
C989 C 0.28235 0.1813 0.11137 0.0
C990 C 0.41174 0.18471 0.11884 0.0
C991 C 0.44164 0.23132 0.15005 0.0
N992 N 0.32301 0.18063 0.11517 0.0
N993 N 0.40109 0.22846 0.1467 0.0
H994 H 0.84088 0.26562 0.64309 0.0
H995 H 0.79995 0.48138 0.59381 0.0
H996 H 0.76591 0.27923 0.59076 0.0
H997 H 0.79393 0.46464 0.65755 0.0
H998 H 0.81033 0.40799 0.5898 0.0
H999 H 0.84545 0.33996 0.64569 0.0
C1000 C 0.82539 0.28424 0.63215 0.0
C1001 C 0.80195 0.26634 0.61702 0.0
C1002 C 0.80742 0.42063 0.60464 0.0
C1003 C 0.80887 0.35085 0.61938 0.0
C1004 C 0.80181 0.46243 0.607 0.0
C1005 C 0.79583 0.47898 0.62606 0.0
C1006 C 0.80802 0.39548 0.62149 0.0
C1007 C 0.79817 0.45296 0.6426 0.0
C1008 C 0.82834 0.32648 0.63358 0.0
C1009 C 0.78408 0.2918 0.60271 0.0
N1010 N 0.80406 0.41234 0.63994 0.0
N1011 N 0.78782 0.3329 0.60426 0.0
H1012 H 0.51643 0.82379 0.10601 0.0
H1013 H 0.73249 0.74491 0.14336 0.0
H1014 H 0.5356 0.75672 0.16056 0.0
H1015 H 0.7206 0.83338 0.09626 0.0
H1016 H 0.65932 0.74779 0.14881 0.0
H1017 H 0.59024 0.82898 0.10181 0.0
C1018 C 0.53609 0.81081 0.11729 0.0
C1019 C 0.51979 0.78931 0.13354 0.0
C1020 C 0.67253 0.76665 0.13726 0.0
C1021 C 0.60402 0.79454 0.12861 0.0
C1022 C 0.71426 0.76486 0.13411 0.0
C1023 C 0.73239 0.78897 0.11937 0.0
C1024 C 0.64856 0.79257 0.1255 0.0
C1025 C 0.70753 0.81399 0.10763 0.0
C1026 C 0.5782 0.81359 0.11481 0.0
C1027 C 0.54673 0.77317 0.14769 0.0
N1028 N 0.6667 0.81519 0.11094 0.0
N1029 N 0.58745 0.77571 0.14476 0.0
H1030 H 0.25008 0.53393 0.65791 0.0
H1031 H 0.15316 0.72144 0.59889 0.0
H1032 H 0.1799 0.51669 0.60417 0.0
H1033 H 0.25637 0.73053 0.63822 0.0
H1034 H 0.15389 0.64699 0.60323 0.0
H1035 H 0.2414 0.60723 0.65458 0.0
C1036 C 0.23235 0.54548 0.64554 0.0
C1037 C 0.21619 0.51909 0.63114 0.0
C1038 C 0.17646 0.66537 0.6108 0.0
C1039 C 0.20649 0.60318 0.62715 0.0
C1040 C 0.17632 0.70763 0.60815 0.0
C1041 C 0.2051 0.73181 0.61803 0.0
C1042 C 0.20513 0.64762 0.62366 0.0
C1043 C 0.23374 0.71279 0.63034 0.0
C1044 C 0.22766 0.5874 0.64358 0.0
C1045 C 0.19318 0.53594 0.61553 0.0
N1046 N 0.23292 0.67186 0.63289 0.0
N1047 N 0.18926 0.57704 0.61385 0.0
H1048 H 0.98076 0.32294 0.90252 0.0
H1049 H 0.76408 0.24212 0.86678 0.0
H1050 H 0.96063 0.25463 0.84841 0.0
H1051 H 0.77672 0.33129 0.91351 0.0
H1052 H 0.83719 0.24483 0.86107 0.0
H1053 H 0.90705 0.32724 0.9073 0.0
C1054 C 0.9609 0.30946 0.89146 0.0
C1055 C 0.97695 0.28797 0.87515 0.0
C1056 C 0.82416 0.26386 0.8726 0.0
C1057 C 0.89279 0.29219 0.88075 0.0
C1058 C 0.78247 0.26216 0.87591 0.0
C1059 C 0.76454 0.28657 0.89059 0.0
C1060 C 0.84832 0.29002 0.88416 0.0
C1061 C 0.78961 0.31171 0.90217 0.0
C1062 C 0.91884 0.31175 0.89428 0.0
C1063 C 0.94973 0.27118 0.86131 0.0
N1064 N 0.8304 0.31285 0.8987 0.0
N1065 N 0.90907 0.27325 0.86456 0.0
H1066 H 0.65244 0.76051 0.36603 0.0
H1067 H 0.69487 0.97589 0.4155 0.0
H1068 H 0.72934 0.7739 0.41769 0.0
H1069 H 0.69842 0.95961 0.35169 0.0
H1070 H 0.6843 0.90251 0.41947 0.0
H1071 H 0.64714 0.83485 0.36377 0.0
C1072 C 0.66819 0.77909 0.3769 0.0
C1073 C 0.69244 0.76117 0.39171 0.0
C1074 C 0.68668 0.91526 0.40463 0.0
C1075 C 0.6847 0.84562 0.38977 0.0
C1076 C 0.69239 0.95705 0.4023 0.0
C1077 C 0.69779 0.9737 0.38321 0.0
C1078 C 0.68537 0.89025 0.38774 0.0
C1079 C 0.69467 0.94784 0.36665 0.0
C1080 C 0.66482 0.82132 0.37567 0.0
C1081 C 0.71061 0.78653 0.40596 0.0
N1082 N 0.68871 0.90723 0.36929 0.0
N1083 N 0.70649 0.82762 0.40461 0.0
H1084 H 0.03707 0.74208 0.84505 0.0
H1085 H 0.2251 0.66651 0.91104 0.0
H1086 H 0.02108 0.6806 0.9014 0.0
H1087 H 0.23366 0.75375 0.86322 0.0
H1088 H 0.15101 0.66381 0.90612 0.0
H1089 H 0.11046 0.73615 0.8489 0.0
C1090 C 0.04896 0.72679 0.85811 0.0
C1091 C 0.02287 0.71235 0.87307 0.0
C1092 C 0.16918 0.68357 0.89676 0.0
C1093 C 0.10702 0.70597 0.8777 0.0
C1094 C 0.21125 0.68541 0.89969 0.0
C1095 C 0.23524 0.71043 0.88751 0.0
C1096 C 0.15136 0.7067 0.88145 0.0
C1097 C 0.21613 0.73383 0.87279 0.0
C1098 C 0.09091 0.72368 0.86037 0.0
C1099 C 0.04008 0.69245 0.88957 0.0
N1100 N 0.17537 0.73126 0.87011 0.0
N1101 N 0.08118 0.6902 0.89156 0.0
H1102 H 0.34553 0.22073 0.40414 0.0
H1103 H 0.24553 0.03312 0.34629 0.0
H1104 H 0.24044 0.22958 0.36601 0.0
H1105 H 0.3202 0.01632 0.39859 0.0
H1106 H 0.25503 0.10642 0.34911 0.0
H1107 H 0.34583 0.14649 0.39911 0.0
C1108 C 0.32226 0.2069 0.39495 0.0
C1109 C 0.29252 0.23093 0.38569 0.0
C1110 C 0.2696 0.08668 0.35989 0.0
C1111 C 0.29361 0.14701 0.37929 0.0
C1112 C 0.26441 0.04477 0.35822 0.0
C1113 C 0.28155 0.01855 0.37242 0.0
C1114 C 0.29219 0.10259 0.37582 0.0
C1115 C 0.30611 0.03546 0.38742 0.0
C1116 C 0.3227 0.16478 0.39192 0.0
C1117 C 0.26379 0.21195 0.37342 0.0
N1118 N 0.3104 0.07656 0.38886 0.0
N1119 N 0.26509 0.17113 0.37054 0.0
H1120 H 0.47009 0.80708 0.8572 0.0
H1121 H 0.68609 0.84851 0.90506 0.0
H1122 H 0.49648 0.78776 0.91949 0.0
H1123 H 0.65386 0.88545 0.84548 0.0
H1124 H 0.61459 0.83369 0.91185 0.0
H1125 H 0.53392 0.84431 0.85381 0.0
C1126 C 0.48898 0.8113 0.87026 0.0
C1127 C 0.47828 0.79365 0.88858 0.0
C1128 C 0.623 0.84543 0.89735 0.0
C1129 C 0.55177 0.83569 0.88473 0.0
C1130 C 0.66387 0.8535 0.89342 0.0
C1131 C 0.67589 0.86698 0.8745 0.0
C1132 C 0.59403 0.85061 0.88218 0.0
C1133 C 0.6458 0.87452 0.86018 0.0
C1134 C 0.52548 0.83256 0.86831 0.0
C1135 C 0.50368 0.80053 0.90505 0.0
N1136 N 0.60628 0.86556 0.8642 0.0
N1137 N 0.53964 0.82035 0.90264 0.0
H1138 H 0.21281 0.48702 0.42365 0.0
H1139 H 0.0803 0.64557 0.36159 0.0
H1140 H 0.17896 0.46423 0.36248 0.0
H1141 H 0.1807 0.67773 0.4 0.0
H1142 H 0.09375 0.5734 0.36879 0.0
H1143 H 0.1752 0.55115 0.42249 0.0
C1144 C 0.19652 0.49485 0.41016 0.0
C1145 C 0.19979 0.47069 0.39297 0.0
C1146 C 0.11172 0.59668 0.37609 0.0
C1147 C 0.15661 0.54371 0.39171 0.0
C1148 C 0.10421 0.63777 0.37201 0.0
C1149 C 0.12849 0.6683 0.38066 0.0
C1150 C 0.14325 0.58619 0.38915 0.0
C1151 C 0.15952 0.65616 0.39377 0.0
C1152 C 0.17523 0.5315 0.40952 0.0
C1153 C 0.17784 0.48238 0.37594 0.0
N1154 N 0.1659 0.61616 0.39761 0.0
N1155 N 0.15755 0.51845 0.37563 0.0
H1156 H 0.53086 0.18905 0.8635 0.0
H1157 H 0.31317 0.14902 0.91036 0.0
H1158 H 0.50094 0.21557 0.92477 0.0
H1159 H 0.34684 0.11476 0.85057 0.0
H1160 H 0.38455 0.16352 0.91769 0.0
H1161 H 0.46753 0.15105 0.86034 0.0
C1162 C 0.51125 0.18629 0.87641 0.0
C1163 C 0.52082 0.20614 0.89432 0.0
C1164 C 0.37644 0.15242 0.90302 0.0
C1165 C 0.44784 0.1632 0.89071 0.0
C1166 C 0.33566 0.14451 0.89879 0.0
C1167 C 0.32406 0.13206 0.87963 0.0
C1168 C 0.40575 0.14795 0.88794 0.0
C1169 C 0.35452 0.12496 0.86545 0.0
C1170 C 0.47504 0.16458 0.87459 0.0
C1171 C 0.49459 0.20103 0.91063 0.0
N1172 N 0.39392 0.13368 0.86978 0.0
N1173 N 0.45887 0.18071 0.90832 0.0
H1174 H 0.87987 0.33643 0.34622 0.0
H1175 H 0.78132 0.4988 0.42071 0.0
H1176 H 0.83733 0.30766 0.40534 0.0
H1177 H 0.80232 0.52077 0.35812 0.0
H1178 H 0.81683 0.43369 0.41762 0.0
H1179 H 0.86634 0.4086 0.35272 0.0
C1180 C 0.86802 0.3454 0.36063 0.0
C1181 C 0.85843 0.31604 0.37504 0.0
C1182 C 0.81418 0.45311 0.40464 0.0
C1183 C 0.84311 0.39827 0.38264 0.0
C1184 C 0.79411 0.49043 0.40641 0.0
C1185 C 0.78815 0.51507 0.38956 0.0
C1186 C 0.8285 0.44045 0.38591 0.0
C1187 C 0.80559 0.5026 0.37145 0.0
C1188 C 0.86022 0.38651 0.36433 0.0
C1189 C 0.84365 0.32921 0.39356 0.0
N1190 N 0.82451 0.46597 0.37005 0.0
N1191 N 0.83604 0.36934 0.39677 0.0
H1192 H 0.96753 0.69283 0.1459 0.0
H1193 H 0.18404 0.65157 0.09785 0.0
H1194 H 0.99627 0.71976 0.08453 0.0
H1195 H 0.15093 0.61582 0.15752 0.0
H1196 H 0.11276 0.66746 0.09099 0.0
H1197 H 0.03082 0.65465 0.14867 0.0
C1198 C 0.98689 0.69016 0.13289 0.0
C1199 C 0.97697 0.71011 0.11505 0.0
C1200 C 0.12097 0.65574 0.10552 0.0
C1201 C 0.0499 0.66693 0.11821 0.0
C1202 C 0.1617 0.64704 0.1095 0.0
C1203 C 0.17346 0.63372 0.12849 0.0
C1204 C 0.09187 0.65119 0.12069 0.0
C1205 C 0.14316 0.62666 0.14276 0.0
C1206 C 0.02307 0.66834 0.13449 0.0
C1207 C 0.00289 0.70513 0.09862 0.0
N1208 N 0.10382 0.63613 0.13869 0.0
N1209 N 0.03858 0.68465 0.1007 0.0
H1210 H 0.38697 0.14992 0.6614 0.0
H1211 H 0.28805 0.98883 0.58676 0.0
H1212 H 0.35453 0.17665 0.60054 0.0
H1213 H 0.3038 0.96849 0.64987 0.0
H1214 H 0.32739 0.05168 0.58968 0.0
H1215 H 0.37164 0.07803 0.65542 0.0
C1216 C 0.37705 0.14054 0.64671 0.0
C1217 C 0.37067 0.16935 0.63163 0.0
C1218 C 0.32276 0.03311 0.60282 0.0
C1219 C 0.35312 0.08737 0.62466 0.0
C1220 C 0.30046 0.99709 0.60115 0.0
C1221 C 0.29187 0.97376 0.61818 0.0
C1222 C 0.33659 0.04584 0.62162 0.0
C1223 C 0.30901 0.9859 0.63641 0.0
C1224 C 0.3682 0.09956 0.64332 0.0
C1225 C 0.35831 0.15558 0.6128 0.0
N1226 N 0.33006 0.02138 0.63769 0.0
N1227 N 0.34942 0.11562 0.6099 0.0
H1228 H 0.8424 0.41264 0.15196 0.0
H1229 H -0.00184 0.28844 0.08416 0.0
H1230 H 0.80947 0.31442 0.11231 0.0
H1231 H 0.02623 0.32111 0.14495 0.0
H1232 H 0.93326 0.32426 0.08721 0.0
H1233 H 0.91407 0.40211 0.14279 0.0
C1234 C 0.84988 0.38983 0.1409 0.0
C1235 C 0.81933 0.36533 0.13245 0.0
C1236 C 0.95421 0.32443 0.09967 0.0
C1237 C 0.90078 0.35388 0.12173 0.0
C1238 C 0.99131 0.3042 0.09794 0.0
C1239 C 0.0172 0.30104 0.11448 0.0
C1240 C 0.9433 0.34205 0.11794 0.0
C1241 C 0.00673 0.32218 0.13196 0.0
C1242 C 0.89067 0.38399 0.13569 0.0
C1243 C 0.83105 0.33572 0.11846 0.0
N1244 N 0.97022 0.34139 0.13335 0.0
N1245 N 0.87074 0.33093 0.11355 0.0
H1246 H 0.68653 0.03028 0.64866 0.0
H1247 H 0.65593 0.81154 0.60084 0.0
H1248 H 0.71681 0.00178 0.58766 0.0
H1249 H 0.61542 0.84342 0.65992 0.0
H1250 H 0.66996 0.88331 0.59417 0.0
H1251 H 0.65109 0.9654 0.65139 0.0
C1252 C 0.68519 0.01071 0.63572 0.0
C1253 C 0.70541 0.02124 0.61803 0.0
C1254 C 0.65767 0.87475 0.60854 0.0
C1255 C 0.66524 0.94641 0.62114 0.0
C1256 C 0.65005 0.83372 0.61242 0.0
C1257 C 0.63578 0.82151 0.63118 0.0
C1258 C 0.65114 0.90376 0.62359 0.0
C1259 C 0.627 0.8516 0.64535 0.0
C1260 C 0.66491 0.97356 0.6373 0.0
C1261 C 0.70199 0.99482 0.60166 0.0
N1262 N 0.63546 0.89131 0.64139 0.0
N1263 N 0.683 0.95828 0.60373 0.0
loop_
_geom_bond_atom_site_label_1
_geom_bond_atom_site_label_2
_geom_bond_distance
_geom_bond_site_symmetry_2
_ccdc_geom_bond_type
Co0 O3 1.970 . S
Co0 N17 1.989 . S
Co0 O25 1.967 . S
Co0 O32 1.920 . S
Co1 O4 1.966 . S
Co1 N10 2.022 . S
Co1 N18 1.993 . S
Co1 O26 1.941 . S
C2 O3 1.258 . S
C2 O4 1.263 . S
O3 Co0 1.970 . S
O3 C2 1.258 . S
O4 Co1 1.966 . S
O4 C2 1.263 . S
C5 O6 1.235 . S
C5 O32 1.289 . S
O6 C5 1.235 . S
C7 C9 1.400 . S
C7 N10 1.351 . S
C7 C12 1.501 . S
C8 C9 1.387 . S
C8 N11 1.341 . S
C9 C7 1.400 . S
C9 C8 1.387 . S
N10 Co1 2.022 . S
N10 C7 1.351 . S
N10 N11 1.365 . S
N11 C8 1.341 . S
N11 N10 1.365 . S
N11 H31 0.862 . S
C12 C7 1.501 . S
C12 H13 0.961 . S
C12 H14 0.961 . S
C12 H15 0.960 . S
H13 C12 0.961 . S
H14 C12 0.961 . S
H15 C12 0.960 . S
C16 N17 1.342 . S
C16 C20 1.401 . S
C16 C21 1.499 . S
N17 Co0 1.989 . S
N17 C16 1.342 . S
N17 N18 1.388 . S
N18 Co1 1.993 . S
N18 N17 1.388 . S
N18 C19 1.346 . S
C19 N18 1.346 . S
C19 C20 1.396 . S
C19 C29 1.510 . S
C20 C16 1.401 . S
C20 C19 1.396 . S
C21 C16 1.499 . S
C21 H22 0.959 . S
C21 H23 0.960 . S
C21 H24 0.961 . S
H22 C21 0.959 . S
H23 C21 0.960 . S
H24 C21 0.961 . S
O25 Co0 1.967 . S
O25 C33 1.258 . S
O26 Co1 1.941 . S
O26 C33 1.266 . S
H27 C29 0.959 . S
H28 C29 0.961 . S
C29 C19 1.510 . S
C29 H27 0.959 . S
C29 H28 0.961 . S
C29 H30 0.960 . S
H30 C29 0.960 . S
H31 N11 0.862 . S
O32 Co0 1.920 . S
O32 C5 1.289 . S
C33 O25 1.258 . S
C33 O26 1.266 . S
Co34 O37 1.970 . S
Co34 N51 1.989 . S
Co34 O59 1.967 . S
Co34 O66 1.920 . S
Co35 O38 1.966 . S
Co35 N44 2.022 . S
Co35 N52 1.993 . S
Co35 O60 1.941 . S
C36 O37 1.258 . S
C36 O38 1.263 . S
O37 Co34 1.970 . S
O37 C36 1.258 . S
O38 Co35 1.966 . S
O38 C36 1.263 . S
C39 O40 1.235 . S
C39 O66 1.289 . S
O40 C39 1.235 . S
C41 C43 1.400 . S
C41 N44 1.351 . S
C41 C46 1.501 . S
C42 C43 1.387 . S
C42 N45 1.341 . S
C43 C41 1.400 . S
C43 C42 1.387 . S
N44 Co35 2.022 . S
N44 C41 1.351 . S
N44 N45 1.365 . S
N45 C42 1.341 . S
N45 N44 1.365 . S
N45 H65 0.862 . S
C46 C41 1.501 . S
C46 H47 0.961 . S
C46 H48 0.961 . S
C46 H49 0.960 . S
H47 C46 0.961 . S
H48 C46 0.961 . S
H49 C46 0.960 . S
C50 N51 1.342 . S
C50 C54 1.401 . S
C50 C55 1.499 . S
N51 Co34 1.989 . S
N51 C50 1.342 . S
N51 N52 1.388 . S
N52 Co35 1.993 . S
N52 N51 1.388 . S
N52 C53 1.346 . S
C53 N52 1.346 . S
C53 C54 1.396 . S
C53 C63 1.510 . S
C54 C50 1.401 . S
C54 C53 1.396 . S
C55 C50 1.499 . S
C55 H56 0.959 . S
C55 H57 0.960 . S
C55 H58 0.961 . S
H56 C55 0.959 . S
H57 C55 0.960 . S
H58 C55 0.961 . S
O59 Co34 1.967 . S
O59 C67 1.258 . S
O60 Co35 1.941 . S
O60 C67 1.266 . S
H61 C63 0.959 . S
H62 C63 0.961 . S
C63 C53 1.510 . S
C63 H61 0.959 . S
C63 H62 0.961 . S
C63 H64 0.960 . S
H64 C63 0.960 . S
H65 N45 0.862 . S
O66 Co34 1.920 . S
O66 C39 1.289 . S
C67 O59 1.258 . S
C67 O60 1.266 . S
Co68 O71 1.970 . S
Co68 N85 1.989 . S
Co68 O93 1.967 . S
Co68 O100 1.920 . S
Co69 O72 1.966 . S
Co69 N78 2.022 . S
Co69 N86 1.993 . S
Co69 O94 1.941 . S
C70 O71 1.258 . S
C70 O72 1.263 . S
O71 Co68 1.970 . S
O71 C70 1.258 . S
O72 Co69 1.966 . S
O72 C70 1.263 . S
C73 O74 1.235 . S
C73 O100 1.289 . S
O74 C73 1.235 . S
C75 C77 1.400 . S
C75 N78 1.351 . S
C75 C80 1.501 . S
C76 C77 1.387 . S
C76 N79 1.341 . S
C77 C75 1.400 . S
C77 C76 1.387 . S
N78 Co69 2.022 . S
N78 C75 1.351 . S
N78 N79 1.365 . S
N79 C76 1.341 . S
N79 N78 1.365 . S
N79 H99 0.862 . S
C80 C75 1.501 . S
C80 H81 0.961 . S
C80 H82 0.961 . S
C80 H83 0.960 . S
H81 C80 0.961 . S
H82 C80 0.961 . S
H83 C80 0.960 . S
C84 N85 1.342 . S
C84 C88 1.401 . S
C84 C89 1.499 . S
N85 Co68 1.989 . S
N85 C84 1.342 . S
N85 N86 1.388 . S
N86 Co69 1.993 . S
N86 N85 1.388 . S
N86 C87 1.346 . S
C87 N86 1.346 . S
C87 C88 1.396 . S
C87 C97 1.510 . S
C88 C84 1.401 . S
C88 C87 1.396 . S
C89 C84 1.499 . S
C89 H90 0.959 . S
C89 H91 0.960 . S
C89 H92 0.961 . S
H90 C89 0.959 . S
H91 C89 0.960 . S
H92 C89 0.961 . S
O93 Co68 1.967 . S
O93 C101 1.258 . S
O94 Co69 1.941 . S
O94 C101 1.266 . S
H95 C97 0.959 . S
H96 C97 0.961 . S
C97 C87 1.510 . S
C97 H95 0.959 . S
C97 H96 0.961 . S
C97 H98 0.960 . S
H98 C97 0.960 . S
H99 N79 0.862 . S
O100 Co68 1.920 . S
O100 C73 1.289 . S
C101 O93 1.258 . S
C101 O94 1.266 . S
Co102 O105 1.970 . S
Co102 N119 1.989 . S
Co102 O127 1.967 . S
Co102 O134 1.920 . S
Co103 O106 1.966 . S
Co103 N112 2.022 . S
Co103 N120 1.993 . S
Co103 O128 1.941 . S
C104 O105 1.258 . S
C104 O106 1.263 . S
O105 Co102 1.970 . S
O105 C104 1.258 . S
O106 Co103 1.966 . S
O106 C104 1.263 . S
C107 O108 1.235 . S
C107 O134 1.289 . S
O108 C107 1.235 . S
C109 C111 1.400 . S
C109 N112 1.351 . S
C109 C114 1.501 . S
C110 C111 1.387 . S
C110 N113 1.341 . S
C111 C109 1.400 . S
C111 C110 1.387 . S
N112 Co103 2.022 . S
N112 C109 1.351 . S
N112 N113 1.365 . S
N113 C110 1.341 . S
N113 N112 1.365 . S
N113 H133 0.862 . S
C114 C109 1.501 . S
C114 H115 0.961 . S
C114 H116 0.961 . S
C114 H117 0.960 . S
H115 C114 0.961 . S
H116 C114 0.961 . S
H117 C114 0.960 . S
C118 N119 1.342 . S
C118 C122 1.401 . S
C118 C123 1.499 . S
N119 Co102 1.989 . S
N119 C118 1.342 . S
N119 N120 1.388 . S
N120 Co103 1.993 . S
N120 N119 1.388 . S
N120 C121 1.346 . S
C121 N120 1.346 . S
C121 C122 1.396 . S
C121 C131 1.510 . S
C122 C118 1.401 . S
C122 C121 1.396 . S
C123 C118 1.499 . S
C123 H124 0.959 . S
C123 H125 0.960 . S
C123 H126 0.961 . S
H124 C123 0.959 . S
H125 C123 0.960 . S
H126 C123 0.961 . S
O127 Co102 1.967 . S
O127 C135 1.258 . S
O128 Co103 1.941 . S
O128 C135 1.266 . S
H129 C131 0.959 . S
H130 C131 0.961 . S
C131 C121 1.510 . S
C131 H129 0.959 . S
C131 H130 0.961 . S
C131 H132 0.960 . S
H132 C131 0.960 . S
H133 N113 0.862 . S
O134 Co102 1.920 . S
O134 C107 1.289 . S
C135 O127 1.258 . S
C135 O128 1.266 . S
Co136 O139 1.970 . S
Co136 N153 1.989 . S
Co136 O161 1.967 . S
Co136 O168 1.920 . S
Co137 O140 1.966 . S
Co137 N146 2.022 . S
Co137 N154 1.993 . S
Co137 O162 1.941 . S
C138 O139 1.258 . S
C138 O140 1.263 . S
O139 Co136 1.970 . S
O139 C138 1.258 . S
O140 Co137 1.966 . S
O140 C138 1.263 . S
C141 O142 1.235 . S
C141 O168 1.289 . S
O142 C141 1.235 . S
C143 C145 1.400 . S
C143 N146 1.351 . S
C143 C148 1.501 . S
C144 C145 1.387 . S
C144 N147 1.341 . S
C145 C143 1.400 . S
C145 C144 1.387 . S
N146 Co137 2.022 . S
N146 C143 1.351 . S
N146 N147 1.365 . S
N147 C144 1.341 . S
N147 N146 1.365 . S
N147 H167 0.862 . S
C148 C143 1.501 . S
C148 H149 0.961 . S
C148 H150 0.961 . S
C148 H151 0.960 . S
H149 C148 0.961 . S
H150 C148 0.961 . S
H151 C148 0.960 . S
C152 N153 1.342 . S
C152 C156 1.401 . S
C152 C157 1.499 . S
N153 Co136 1.989 . S
N153 C152 1.342 . S
N153 N154 1.388 . S
N154 Co137 1.993 . S
N154 N153 1.388 . S
N154 C155 1.346 . S
C155 N154 1.346 . S
C155 C156 1.396 . S
C155 C165 1.510 . S
C156 C152 1.401 . S
C156 C155 1.396 . S
C157 C152 1.499 . S
C157 H158 0.959 . S
C157 H159 0.960 . S
C157 H160 0.961 . S
H158 C157 0.959 . S
H159 C157 0.960 . S
H160 C157 0.961 . S
O161 Co136 1.967 . S
O161 C169 1.258 . S
O162 Co137 1.941 . S
O162 C169 1.266 . S
H163 C165 0.959 . S
H164 C165 0.961 . S
C165 C155 1.510 . S
C165 H163 0.959 . S
C165 H164 0.961 . S
C165 H166 0.960 . S
H166 C165 0.960 . S
H167 N147 0.862 . S
O168 Co136 1.920 . S
O168 C141 1.289 . S
C169 O161 1.258 . S
C169 O162 1.266 . S
Co170 O173 1.970 . S
Co170 N187 1.989 . S
Co170 O195 1.967 . S
Co170 O202 1.920 . S
Co171 O174 1.966 . S
Co171 N180 2.022 . S
Co171 N188 1.993 . S
Co171 O196 1.941 . S
C172 O173 1.258 . S
C172 O174 1.263 . S
O173 Co170 1.970 . S
O173 C172 1.258 . S
O174 Co171 1.966 . S
O174 C172 1.263 . S
C175 O176 1.235 . S
C175 O202 1.289 . S
O176 C175 1.235 . S
C177 C179 1.400 . S
C177 N180 1.351 . S
C177 C182 1.501 . S
C178 C179 1.387 . S
C178 N181 1.341 . S
C179 C177 1.400 . S
C179 C178 1.387 . S
N180 Co171 2.022 . S
N180 C177 1.351 . S
N180 N181 1.365 . S
N181 C178 1.341 . S
N181 N180 1.365 . S
N181 H201 0.862 . S
C182 C177 1.501 . S
C182 H183 0.961 . S
C182 H184 0.961 . S
C182 H185 0.960 . S
H183 C182 0.961 . S
H184 C182 0.961 . S
H185 C182 0.960 . S
C186 N187 1.342 . S
C186 C190 1.401 . S
C186 C191 1.499 . S
N187 Co170 1.989 . S
N187 C186 1.342 . S
N187 N188 1.388 . S
N188 Co171 1.993 . S
N188 N187 1.388 . S
N188 C189 1.346 . S
C189 N188 1.346 . S
C189 C190 1.396 . S
C189 C199 1.510 . S
C190 C186 1.401 . S
C190 C189 1.396 . S
C191 C186 1.499 . S
C191 H192 0.959 . S
C191 H193 0.960 . S
C191 H194 0.961 . S
H192 C191 0.959 . S
H193 C191 0.960 . S
H194 C191 0.961 . S
O195 Co170 1.967 . S
O195 C203 1.258 . S
O196 Co171 1.941 . S
O196 C203 1.266 . S
H197 C199 0.959 . S
H198 C199 0.961 . S
C199 C189 1.510 . S
C199 H197 0.959 . S
C199 H198 0.961 . S
C199 H200 0.960 . S
H200 C199 0.960 . S
H201 N181 0.862 . S
O202 Co170 1.920 . S
O202 C175 1.289 . S
C203 O195 1.258 . S
C203 O196 1.266 . S
Co204 O207 1.970 . S
Co204 N221 1.989 . S
Co204 O229 1.967 . S
Co204 O236 1.920 . S
Co205 O208 1.966 . S
Co205 N214 2.022 . S
Co205 N222 1.993 . S
Co205 O230 1.941 . S
C206 O207 1.258 . S
C206 O208 1.263 . S
O207 Co204 1.970 . S
O207 C206 1.258 . S
O208 Co205 1.966 . S
O208 C206 1.263 . S
C209 O210 1.235 . S
C209 O236 1.289 . S
O210 C209 1.235 . S
C211 C213 1.400 . S
C211 N214 1.351 . S
C211 C216 1.501 . S
C212 C213 1.387 . S
C212 N215 1.341 . S
C213 C211 1.400 . S
C213 C212 1.387 . S
N214 Co205 2.022 . S
N214 C211 1.351 . S
N214 N215 1.365 . S
N215 C212 1.341 . S
N215 N214 1.365 . S
N215 H235 0.862 . S
C216 C211 1.501 . S
C216 H217 0.961 . S
C216 H218 0.961 . S
C216 H219 0.960 . S
H217 C216 0.961 . S
H218 C216 0.961 . S
H219 C216 0.960 . S
C220 N221 1.342 . S
C220 C224 1.401 . S
C220 C225 1.499 . S
N221 Co204 1.989 . S
N221 C220 1.342 . S
N221 N222 1.388 . S
N222 Co205 1.993 . S
N222 N221 1.388 . S
N222 C223 1.346 . S
C223 N222 1.346 . S
C223 C224 1.396 . S
C223 C233 1.510 . S
C224 C220 1.401 . S
C224 C223 1.396 . S
C225 C220 1.499 . S
C225 H226 0.959 . S
C225 H227 0.960 . S
C225 H228 0.961 . S
H226 C225 0.959 . S
H227 C225 0.960 . S
H228 C225 0.961 . S
O229 Co204 1.967 . S
O229 C237 1.258 . S
O230 Co205 1.941 . S
O230 C237 1.266 . S
H231 C233 0.959 . S
H232 C233 0.961 . S
C233 C223 1.510 . S
C233 H231 0.959 . S
C233 H232 0.961 . S
C233 H234 0.960 . S
H234 C233 0.960 . S
H235 N215 0.862 . S
O236 Co204 1.920 . S
O236 C209 1.289 . S
C237 O229 1.258 . S
C237 O230 1.266 . S
Co238 O241 1.970 . S
Co238 N255 1.989 . S
Co238 O263 1.967 . S
Co238 O270 1.920 . S
Co239 O242 1.966 . S
Co239 N248 2.022 . S
Co239 N256 1.993 . S
Co239 O264 1.941 . S
C240 O241 1.258 . S
C240 O242 1.263 . S
O241 Co238 1.970 . S
O241 C240 1.258 . S
O242 Co239 1.966 . S
O242 C240 1.263 . S
C243 O244 1.235 . S
C243 O270 1.289 . S
O244 C243 1.235 . S
C245 C247 1.400 . S
C245 N248 1.351 . S
C245 C250 1.501 . S
C246 C247 1.387 . S
C246 N249 1.341 . S
C247 C245 1.400 . S
C247 C246 1.387 . S
N248 Co239 2.022 . S
N248 C245 1.351 . S
N248 N249 1.365 . S
N249 C246 1.341 . S
N249 N248 1.365 . S
N249 H269 0.862 . S
C250 C245 1.501 . S
C250 H251 0.961 . S
C250 H252 0.961 . S
C250 H253 0.960 . S
H251 C250 0.961 . S
H252 C250 0.961 . S
H253 C250 0.960 . S
C254 N255 1.342 . S
C254 C258 1.401 . S
C254 C259 1.499 . S
N255 Co238 1.989 . S
N255 C254 1.342 . S
N255 N256 1.388 . S
N256 Co239 1.993 . S
N256 N255 1.388 . S
N256 C257 1.346 . S
C257 N256 1.346 . S
C257 C258 1.396 . S
C257 C267 1.510 . S
C258 C254 1.401 . S
C258 C257 1.396 . S
C259 C254 1.499 . S
C259 H260 0.959 . S
C259 H261 0.960 . S
C259 H262 0.961 . S
H260 C259 0.959 . S
H261 C259 0.960 . S
H262 C259 0.961 . S
O263 Co238 1.967 . S
O263 C271 1.258 . S
O264 Co239 1.941 . S
O264 C271 1.266 . S
H265 C267 0.959 . S
H266 C267 0.961 . S
C267 C257 1.510 . S
C267 H265 0.959 . S
C267 H266 0.961 . S
C267 H268 0.960 . S
H268 C267 0.960 . S
H269 N249 0.862 . S
O270 Co238 1.920 . S
O270 C243 1.289 . S
C271 O263 1.258 . S
C271 O264 1.266 . S
Co272 O275 1.970 . S
Co272 N289 1.989 . S
Co272 O297 1.967 . S
Co272 O304 1.920 1_655 S
Co273 O276 1.966 . S
Co273 N282 2.022 . S
Co273 N290 1.993 . S
Co273 O298 1.941 . S
C274 O275 1.258 . S
C274 O276 1.263 . S
O275 Co272 1.970 . S
O275 C274 1.258 . S
O276 Co273 1.966 . S
O276 C274 1.263 . S
C277 O278 1.235 . S
C277 O304 1.289 . S
O278 C277 1.235 . S
C279 C281 1.400 . S
C279 N282 1.351 . S
C279 C284 1.501 . S
C280 C281 1.387 . S
C280 N283 1.341 . S
C281 C279 1.400 . S
C281 C280 1.387 . S
N282 Co273 2.022 . S
N282 C279 1.351 . S
N282 N283 1.365 . S
N283 C280 1.341 . S
N283 N282 1.365 . S
N283 H303 0.862 . S
C284 C279 1.501 . S
C284 H285 0.961 . S
C284 H286 0.961 . S
C284 H287 0.960 . S
H285 C284 0.961 . S
H286 C284 0.961 . S
H287 C284 0.960 . S
C288 N289 1.342 . S
C288 C292 1.401 . S
C288 C293 1.499 . S
N289 Co272 1.989 . S
N289 C288 1.342 . S
N289 N290 1.388 . S
N290 Co273 1.993 . S
N290 N289 1.388 . S
N290 C291 1.346 . S
C291 N290 1.346 . S
C291 C292 1.396 . S
C291 C301 1.510 . S
C292 C288 1.401 . S
C292 C291 1.396 . S
C293 C288 1.499 . S
C293 H294 0.959 1_655 S
C293 H295 0.960 . S
C293 H296 0.961 . S
H294 C293 0.959 1_455 S
H295 C293 0.960 . S
H296 C293 0.961 . S
O297 Co272 1.967 . S
O297 C305 1.258 . S
O298 Co273 1.941 . S
O298 C305 1.266 . S
H299 C301 0.959 . S
H300 C301 0.961 . S
C301 C291 1.510 . S
C301 H299 0.959 . S
C301 H300 0.961 . S
C301 H302 0.960 . S
H302 C301 0.960 . S
H303 N283 0.862 . S
O304 Co272 1.920 1_455 S
O304 C277 1.289 . S
C305 O297 1.258 . S
C305 O298 1.266 . S
Co306 O309 1.970 . S
Co306 N323 1.989 . S
Co306 O331 1.967 . S
Co306 O338 1.920 1_565 S
Co307 O310 1.966 . S
Co307 N316 2.022 . S
Co307 N324 1.993 . S
Co307 O332 1.941 . S
C308 O309 1.258 . S
C308 O310 1.263 . S
O309 Co306 1.970 . S
O309 C308 1.258 . S
O310 Co307 1.966 . S
O310 C308 1.263 . S
C311 O312 1.235 . S
C311 O338 1.289 . S
O312 C311 1.235 . S
C313 C315 1.400 . S
C313 N316 1.351 . S
C313 C318 1.501 . S
C314 C315 1.387 . S
C314 N317 1.341 . S
C315 C313 1.400 . S
C315 C314 1.387 . S
N316 Co307 2.022 . S
N316 C313 1.351 . S
N316 N317 1.365 . S
N317 C314 1.341 . S
N317 N316 1.365 . S
N317 H337 0.862 . S
C318 C313 1.501 . S
C318 H319 0.961 . S
C318 H320 0.961 . S
C318 H321 0.960 . S
H319 C318 0.961 . S
H320 C318 0.961 . S
H321 C318 0.960 . S
C322 N323 1.342 . S
C322 C326 1.401 . S
C322 C327 1.499 . S
N323 Co306 1.989 . S
N323 C322 1.342 . S
N323 N324 1.388 . S
N324 Co307 1.993 . S
N324 N323 1.388 . S
N324 C325 1.346 . S
C325 N324 1.346 . S
C325 C326 1.396 . S
C325 C335 1.510 . S
C326 C322 1.401 . S
C326 C325 1.396 . S
C327 C322 1.499 . S
C327 H328 0.959 1_565 S
C327 H329 0.960 . S
C327 H330 0.961 . S
H328 C327 0.959 1_545 S
H329 C327 0.960 . S
H330 C327 0.961 . S
O331 Co306 1.967 . S
O331 C339 1.258 . S
O332 Co307 1.941 . S
O332 C339 1.266 . S
H333 C335 0.959 . S
H334 C335 0.961 . S
C335 C325 1.510 . S
C335 H333 0.959 . S
C335 H334 0.961 . S
C335 H336 0.960 . S
H336 C335 0.960 . S
H337 N317 0.862 . S
O338 Co306 1.920 1_545 S
O338 C311 1.289 . S
C339 O331 1.258 . S
C339 O332 1.266 . S
Co340 O343 1.970 . S
Co340 N357 1.989 . S
Co340 O365 1.967 . S
Co340 O372 1.920 1_455 S
Co341 O344 1.966 . S
Co341 N350 2.022 . S
Co341 N358 1.993 . S
Co341 O366 1.941 . S
C342 O343 1.258 . S
C342 O344 1.263 . S
O343 Co340 1.970 . S
O343 C342 1.258 . S
O344 Co341 1.966 . S
O344 C342 1.263 . S
C345 O346 1.235 . S
C345 O372 1.289 . S
O346 C345 1.235 . S
C347 C349 1.400 . S
C347 N350 1.351 . S
C347 C352 1.501 . S
C348 C349 1.387 . S
C348 N351 1.341 . S
C349 C347 1.400 . S
C349 C348 1.387 . S
N350 Co341 2.022 . S
N350 C347 1.351 . S
N350 N351 1.365 . S
N351 C348 1.341 . S
N351 N350 1.365 . S
N351 H371 0.862 . S
C352 C347 1.501 . S
C352 H353 0.961 . S
C352 H354 0.961 . S
C352 H355 0.960 . S
H353 C352 0.961 . S
H354 C352 0.961 . S
H355 C352 0.960 . S
C356 N357 1.342 . S
C356 C360 1.401 . S
C356 C361 1.499 . S
N357 Co340 1.989 . S
N357 C356 1.342 . S
N357 N358 1.388 . S
N358 Co341 1.993 . S
N358 N357 1.388 . S
N358 C359 1.346 . S
C359 N358 1.346 . S
C359 C360 1.396 . S
C359 C369 1.510 . S
C360 C356 1.401 . S
C360 C359 1.396 . S
C361 C356 1.499 . S
C361 H362 0.959 1_455 S
C361 H363 0.960 . S
C361 H364 0.961 . S
H362 C361 0.959 1_655 S
H363 C361 0.960 . S
H364 C361 0.961 . S
O365 Co340 1.967 . S
O365 C373 1.258 . S
O366 Co341 1.941 . S
O366 C373 1.266 . S
H367 C369 0.959 . S
H368 C369 0.961 . S
C369 C359 1.510 . S
C369 H367 0.959 . S
C369 H368 0.961 . S
C369 H370 0.960 . S
H370 C369 0.960 . S
H371 N351 0.862 . S
O372 Co340 1.920 1_655 S
O372 C345 1.289 . S
C373 O365 1.258 . S
C373 O366 1.266 . S
Co374 O377 1.970 . S
Co374 N391 1.989 . S
Co374 O399 1.967 . S
Co374 O406 1.920 1_545 S
Co375 O378 1.966 . S
Co375 N384 2.022 . S
Co375 N392 1.993 . S
Co375 O400 1.941 . S
C376 O377 1.258 . S
C376 O378 1.263 . S
O377 Co374 1.970 . S
O377 C376 1.258 . S
O378 Co375 1.966 . S
O378 C376 1.263 . S
C379 O380 1.235 . S
C379 O406 1.289 . S
O380 C379 1.235 . S
C381 C383 1.400 . S
C381 N384 1.351 . S
C381 C386 1.501 . S
C382 C383 1.387 . S
C382 N385 1.341 . S
C383 C381 1.400 . S
C383 C382 1.387 . S
N384 Co375 2.022 . S
N384 C381 1.351 . S
N384 N385 1.365 . S
N385 C382 1.341 . S
N385 N384 1.365 . S
N385 H405 0.862 . S
C386 C381 1.501 . S
C386 H387 0.961 . S
C386 H388 0.961 . S
C386 H389 0.960 . S
H387 C386 0.961 . S
H388 C386 0.961 . S
H389 C386 0.960 . S
C390 N391 1.342 . S
C390 C394 1.401 . S
C390 C395 1.499 . S
N391 Co374 1.989 . S
N391 C390 1.342 . S
N391 N392 1.388 . S
N392 Co375 1.993 . S
N392 N391 1.388 . S
N392 C393 1.346 . S
C393 N392 1.346 . S
C393 C394 1.396 . S
C393 C403 1.510 . S
C394 C390 1.401 . S
C394 C393 1.396 . S
C395 C390 1.499 . S
C395 H396 0.959 1_545 S
C395 H397 0.960 . S
C395 H398 0.961 . S
H396 C395 0.959 1_565 S
H397 C395 0.960 . S
H398 C395 0.961 . S
O399 Co374 1.967 . S
O399 C407 1.258 . S
O400 Co375 1.941 . S
O400 C407 1.266 . S
H401 C403 0.959 . S
H402 C403 0.961 . S
C403 C393 1.510 . S
C403 H401 0.959 . S
C403 H402 0.961 . S
C403 H404 0.960 . S
H404 C403 0.960 . S
H405 N385 0.862 . S
O406 Co374 1.920 1_565 S
O406 C379 1.289 . S
C407 O399 1.258 . S
C407 O400 1.266 . S
Co408 O411 1.970 . S
Co408 N425 1.989 . S
Co408 O433 1.967 . S
Co408 O440 1.920 . S
Co409 O412 1.966 . S
Co409 N418 2.022 . S
Co409 N426 1.993 . S
Co409 O434 1.941 . S
C410 O411 1.258 . S
C410 O412 1.263 . S
O411 Co408 1.970 . S
O411 C410 1.258 . S
O412 Co409 1.966 . S
O412 C410 1.263 . S
C413 O414 1.235 . S
C413 O440 1.289 . S
O414 C413 1.235 . S
C415 C417 1.400 . S
C415 N418 1.351 . S
C415 C420 1.501 . S
C416 C417 1.387 . S
C416 N419 1.341 . S
C417 C415 1.400 . S
C417 C416 1.387 . S
N418 Co409 2.022 . S
N418 C415 1.351 . S
N418 N419 1.365 . S
N419 C416 1.341 . S
N419 N418 1.365 . S
N419 H439 0.862 . S
C420 C415 1.501 . S
C420 H421 0.961 . S
C420 H422 0.961 . S
C420 H423 0.960 . S
H421 C420 0.961 . S
H422 C420 0.961 . S
H423 C420 0.960 . S
C424 N425 1.342 . S
C424 C428 1.401 . S
C424 C429 1.499 . S
N425 Co408 1.989 . S
N425 C424 1.342 . S
N425 N426 1.388 . S
N426 Co409 1.993 . S
N426 N425 1.388 . S
N426 C427 1.346 . S
C427 N426 1.346 . S
C427 C428 1.396 . S
C427 C437 1.510 . S
C428 C424 1.401 . S
C428 C427 1.396 . S
C429 C424 1.499 . S
C429 H430 0.959 . S
C429 H431 0.960 . S
C429 H432 0.961 . S
H430 C429 0.959 . S
H431 C429 0.960 . S
H432 C429 0.961 . S
O433 Co408 1.967 . S
O433 C441 1.258 . S
O434 Co409 1.941 . S
O434 C441 1.266 . S
H435 C437 0.959 . S
H436 C437 0.961 . S
C437 C427 1.510 . S
C437 H435 0.959 . S
C437 H436 0.961 . S
C437 H438 0.960 . S
H438 C437 0.960 . S
H439 N419 0.862 . S
O440 Co408 1.920 . S
O440 C413 1.289 . S
C441 O433 1.258 . S
C441 O434 1.266 . S
Co442 O445 1.970 . S
Co442 N459 1.989 . S
Co442 O467 1.967 . S
Co442 O474 1.920 . S
Co443 O446 1.966 . S
Co443 N452 2.022 . S
Co443 N460 1.993 . S
Co443 O468 1.941 . S
C444 O445 1.258 . S
C444 O446 1.263 . S
O445 Co442 1.970 . S
O445 C444 1.258 . S
O446 Co443 1.966 . S
O446 C444 1.263 . S
C447 O448 1.235 . S
C447 O474 1.289 . S
O448 C447 1.235 . S
C449 C451 1.400 . S
C449 N452 1.351 . S
C449 C454 1.501 . S
C450 C451 1.387 . S
C450 N453 1.341 . S
C451 C449 1.400 . S
C451 C450 1.387 . S
N452 Co443 2.022 . S
N452 C449 1.351 . S
N452 N453 1.365 . S
N453 C450 1.341 . S
N453 N452 1.365 . S
N453 H473 0.862 . S
C454 C449 1.501 . S
C454 H455 0.961 . S
C454 H456 0.961 . S
C454 H457 0.960 . S
H455 C454 0.961 . S
H456 C454 0.961 . S
H457 C454 0.960 . S
C458 N459 1.342 . S
C458 C462 1.401 . S
C458 C463 1.499 . S
N459 Co442 1.989 . S
N459 C458 1.342 . S
N459 N460 1.388 . S
N460 Co443 1.993 . S
N460 N459 1.388 . S
N460 C461 1.346 . S
C461 N460 1.346 . S
C461 C462 1.396 . S
C461 C471 1.510 . S
C462 C458 1.401 . S
C462 C461 1.396 . S
C463 C458 1.499 . S
C463 H464 0.959 . S
C463 H465 0.960 . S
C463 H466 0.961 . S
H464 C463 0.959 . S
H465 C463 0.960 . S
H466 C463 0.961 . S
O467 Co442 1.967 . S
O467 C475 1.258 . S
O468 Co443 1.941 . S
O468 C475 1.266 . S
H469 C471 0.959 . S
H470 C471 0.961 . S
C471 C461 1.510 . S
C471 H469 0.959 . S
C471 H470 0.961 . S
C471 H472 0.960 . S
H472 C471 0.960 . S
H473 N453 0.862 . S
O474 Co442 1.920 . S
O474 C447 1.289 . S
C475 O467 1.258 . S
C475 O468 1.266 . S
Co476 O479 1.970 . S
Co476 N493 1.989 . S
Co476 O501 1.967 . S
Co476 O508 1.920 . S
Co477 O480 1.966 . S
Co477 N486 2.022 . S
Co477 N494 1.993 . S
Co477 O502 1.941 . S
C478 O479 1.258 . S
C478 O480 1.263 . S
O479 Co476 1.970 . S
O479 C478 1.258 . S
O480 Co477 1.966 . S
O480 C478 1.263 . S
C481 O482 1.235 . S
C481 O508 1.289 . S
O482 C481 1.235 . S
C483 C485 1.400 . S
C483 N486 1.351 . S
C483 C488 1.501 . S
C484 C485 1.387 . S
C484 N487 1.341 . S
C485 C483 1.400 . S
C485 C484 1.387 . S
N486 Co477 2.022 . S
N486 C483 1.351 . S
N486 N487 1.365 . S
N487 C484 1.341 . S
N487 N486 1.365 . S
N487 H507 0.862 . S
C488 C483 1.501 . S
C488 H489 0.961 . S
C488 H490 0.961 . S
C488 H491 0.960 . S
H489 C488 0.961 . S
H490 C488 0.961 . S
H491 C488 0.960 . S
C492 N493 1.342 . S
C492 C496 1.401 . S
C492 C497 1.499 . S
N493 Co476 1.989 . S
N493 C492 1.342 . S
N493 N494 1.388 . S
N494 Co477 1.993 . S
N494 N493 1.388 . S
N494 C495 1.346 . S
C495 N494 1.346 . S
C495 C496 1.396 . S
C495 C505 1.510 . S
C496 C492 1.401 . S
C496 C495 1.396 . S
C497 C492 1.499 . S
C497 H498 0.959 . S
C497 H499 0.960 . S
C497 H500 0.961 . S
H498 C497 0.959 . S
H499 C497 0.960 . S
H500 C497 0.961 . S
O501 Co476 1.967 . S
O501 C509 1.258 . S
O502 Co477 1.941 . S
O502 C509 1.266 . S
H503 C505 0.959 . S
H504 C505 0.961 . S
C505 C495 1.510 . S
C505 H503 0.959 . S
C505 H504 0.961 . S
C505 H506 0.960 . S
H506 C505 0.960 . S
H507 N487 0.862 . S
O508 Co476 1.920 . S
O508 C481 1.289 . S
C509 O501 1.258 . S
C509 O502 1.266 . S
Co510 O513 1.970 . S
Co510 N527 1.989 . S
Co510 O535 1.967 . S
Co510 O542 1.920 . S
Co511 O514 1.966 . S
Co511 N520 2.022 . S
Co511 N528 1.993 . S
Co511 O536 1.941 . S
C512 O513 1.258 . S
C512 O514 1.263 . S
O513 Co510 1.970 . S
O513 C512 1.258 . S
O514 Co511 1.966 . S
O514 C512 1.263 . S
C515 O516 1.235 . S
C515 O542 1.289 . S
O516 C515 1.235 . S
C517 C519 1.400 . S
C517 N520 1.351 . S
C517 C522 1.501 . S
C518 C519 1.387 . S
C518 N521 1.341 . S
C519 C517 1.400 . S
C519 C518 1.387 . S
N520 Co511 2.022 . S
N520 C517 1.351 . S
N520 N521 1.365 . S
N521 C518 1.341 . S
N521 N520 1.365 . S
N521 H541 0.862 . S
C522 C517 1.501 . S
C522 H523 0.961 . S
C522 H524 0.961 . S
C522 H525 0.960 . S
H523 C522 0.961 . S
H524 C522 0.961 . S
H525 C522 0.960 . S
C526 N527 1.342 . S
C526 C530 1.401 . S
C526 C531 1.499 . S
N527 Co510 1.989 . S
N527 C526 1.342 . S
N527 N528 1.388 . S
N528 Co511 1.993 . S
N528 N527 1.388 . S
N528 C529 1.346 . S
C529 N528 1.346 . S
C529 C530 1.396 . S
C529 C539 1.510 . S
C530 C526 1.401 . S
C530 C529 1.396 . S
C531 C526 1.499 . S
C531 H532 0.959 . S
C531 H533 0.960 . S
C531 H534 0.961 . S
H532 C531 0.959 . S
H533 C531 0.960 . S
H534 C531 0.961 . S
O535 Co510 1.967 . S
O535 C543 1.258 . S
O536 Co511 1.941 . S
O536 C543 1.266 . S
H537 C539 0.959 . S
H538 C539 0.961 . S
C539 C529 1.510 . S
C539 H537 0.959 . S
C539 H538 0.961 . S
C539 H540 0.960 . S
H540 C539 0.960 . S
H541 N521 0.862 . S
O542 Co510 1.920 . S
O542 C515 1.289 . S
C543 O535 1.258 . S
C543 O536 1.266 . S
H544 C550 0.930 1_655 S
H545 C554 0.930 1_455 S
H546 C559 0.929 . S
H547 C557 0.929 . S
H548 C552 0.929 . S
H549 C558 0.929 . S
C550 H544 0.930 1_455 S
C550 C551 1.367 . S
C550 C558 1.378 1_455 S
C551 C550 1.367 . S
C551 C559 1.433 . S
C552 H548 0.929 . S
C552 C554 1.378 1_455 S
C552 C556 1.350 1_455 S
C553 C556 1.463 1_445 S
C553 C558 1.350 1_455 S
C553 N561 1.427 . S
C554 H545 0.930 1_655 S
C554 C552 1.378 1_655 S
C554 C555 1.367 . S
C555 C554 1.367 . S
C555 C557 1.433 . S
C556 C552 1.350 1_655 S
C556 C553 1.463 1_665 S
C556 N560 1.427 . S
C557 H547 0.929 . S
C557 C555 1.433 . S
C557 N560 1.384 . S
C558 H549 0.929 . S
C558 C550 1.378 1_655 S
C558 C553 1.350 1_655 S
C559 H546 0.929 . S
C559 C551 1.433 . S
C559 N561 1.384 . S
N560 C556 1.427 . S
N560 C557 1.384 . S
N561 C553 1.427 . S
N561 C559 1.384 . S
H562 C568 0.930 1_545 S
H563 C572 0.930 1_565 S
H564 C577 0.929 . S
H565 C575 0.929 . S
H566 C570 0.929 . S
H567 C576 0.929 . S
C568 H562 0.930 1_565 S
C568 C569 1.367 . S
C568 C576 1.378 1_565 S
C569 C568 1.367 . S
C569 C577 1.433 . S
C570 H566 0.929 . S
C570 C572 1.378 1_565 S
C570 C574 1.350 1_565 S
C571 C574 1.463 1_465 S
C571 C576 1.350 1_565 S
C571 N579 1.427 . S
C572 H563 0.930 1_545 S
C572 C570 1.378 1_545 S
C572 C573 1.367 . S
C573 C572 1.367 . S
C573 C575 1.433 . S
C574 C570 1.350 1_545 S
C574 C571 1.463 1_645 S
C574 N578 1.427 . S
C575 H565 0.929 . S
C575 C573 1.433 . S
C575 N578 1.384 . S
C576 H567 0.929 . S
C576 C568 1.378 1_545 S
C576 C571 1.350 1_545 S
C577 H564 0.929 . S
C577 C569 1.433 . S
C577 N579 1.384 . S
N578 C574 1.427 . S
N578 C575 1.384 . S
N579 C571 1.427 . S
N579 C577 1.384 . S
H580 C586 0.930 . S
H581 C590 0.930 . S
H582 C595 0.929 . S
H583 C593 0.929 . S
H584 C588 0.929 . S
H585 C594 0.929 . S
C586 H580 0.930 . S
C586 C587 1.367 . S
C586 C594 1.378 . S
C587 C586 1.367 . S
C587 C595 1.433 . S
C588 H584 0.929 . S
C588 C590 1.378 . S
C588 C592 1.350 . S
C589 C592 1.463 . S
C589 C594 1.350 . S
C589 N597 1.427 . S
C590 H581 0.930 . S
C590 C588 1.378 . S
C590 C591 1.367 . S
C591 C590 1.367 . S
C591 C593 1.433 . S
C592 C588 1.350 . S
C592 C589 1.463 . S
C592 N596 1.427 . S
C593 H583 0.929 . S
C593 C591 1.433 . S
C593 N596 1.384 . S
C594 H585 0.929 . S
C594 C586 1.378 . S
C594 C589 1.350 . S
C595 H582 0.929 . S
C595 C587 1.433 . S
C595 N597 1.384 . S
N596 C592 1.427 . S
N596 C593 1.384 . S
N597 C589 1.427 . S
N597 C595 1.384 . S
H598 C604 0.930 . S
H599 C608 0.930 . S
H600 C613 0.929 . S
H601 C611 0.929 . S
H602 C606 0.929 . S
H603 C612 0.929 . S
C604 H598 0.930 . S
C604 C605 1.367 . S
C604 C612 1.378 . S
C605 C604 1.367 . S
C605 C613 1.433 . S
C606 H602 0.929 . S
C606 C608 1.378 . S
C606 C610 1.350 . S
C607 C610 1.463 . S
C607 C612 1.350 . S
C607 N615 1.427 . S
C608 H599 0.930 . S
C608 C606 1.378 . S
C608 C609 1.367 . S
C609 C608 1.367 . S
C609 C611 1.433 . S
C610 C606 1.350 . S
C610 C607 1.463 . S
C610 N614 1.427 . S
C611 H601 0.929 . S
C611 C609 1.433 . S
C611 N614 1.384 . S
C612 H603 0.929 . S
C612 C604 1.378 . S
C612 C607 1.350 . S
C613 H600 0.929 . S
C613 C605 1.433 . S
C613 N615 1.384 . S
N614 C610 1.427 . S
N614 C611 1.384 . S
N615 C607 1.427 . S
N615 C613 1.384 . S
H616 C622 0.930 . S
H617 C626 0.930 . S
H618 C631 0.929 . S
H619 C629 0.929 . S
H620 C624 0.911 1_455 S
H621 C630 0.911 1_655 S
C622 H616 0.930 . S
C622 C623 1.367 . S
C622 C630 1.390 . S
C623 C622 1.367 . S
C623 C631 1.433 . S
C624 H620 0.911 1_655 S
C624 C626 1.390 . S
C624 C628 1.356 . S
C625 C628 1.463 1_445 S
C625 C630 1.356 . S
C625 N633 1.427 . S
C626 H617 0.930 . S
C626 C624 1.390 . S
C626 C627 1.367 . S
C627 C626 1.367 . S
C627 C629 1.433 . S
C628 C624 1.356 . S
C628 C625 1.463 1_665 S
C628 N632 1.427 . S
C629 H619 0.929 . S
C629 C627 1.433 . S
C629 N632 1.384 . S
C630 H621 0.911 1_455 S
C630 C622 1.390 . S
C630 C625 1.356 . S
C631 H618 0.929 . S
C631 C623 1.433 . S
C631 N633 1.384 . S
N632 C628 1.427 . S
N632 C629 1.384 . S
N633 C625 1.427 . S
N633 C631 1.384 . S
H634 C640 0.930 . S
H635 C644 0.930 . S
H636 C649 0.929 . S
H637 C647 0.929 . S
H638 C642 0.922 1_565 S
H639 C648 0.922 1_545 S
C640 H634 0.930 . S
C640 C641 1.367 . S
C640 C648 1.382 . S
C641 C640 1.367 . S
C641 C649 1.433 . S
C642 H638 0.922 1_545 S
C642 C644 1.382 . S
C642 C646 1.352 . S
C643 C646 1.463 1_465 S
C643 C648 1.352 . S
C643 N651 1.427 . S
C644 H635 0.930 . S
C644 C642 1.382 . S
C644 C645 1.367 . S
C645 C644 1.367 . S
C645 C647 1.433 . S
C646 C642 1.352 . S
C646 C643 1.463 1_645 S
C646 N650 1.427 . S
C647 H637 0.929 . S
C647 C645 1.433 . S
C647 N650 1.384 . S
C648 H639 0.922 1_565 S
C648 C640 1.382 . S
C648 C643 1.352 . S
C649 H636 0.929 . S
C649 C641 1.433 . S
C649 N651 1.384 . S
N650 C646 1.427 . S
N650 C647 1.384 . S
N651 C643 1.427 . S
N651 C649 1.384 . S
H652 C658 0.930 . S
H653 C662 0.930 . S
H654 C667 0.929 . S
H655 C665 0.929 . S
H656 C660 0.929 . S
H657 C666 0.929 . S
C658 H652 0.930 . S
C658 C659 1.367 . S
C658 C666 1.378 . S
C659 C658 1.367 . S
C659 C667 1.433 . S
C660 H656 0.929 . S
C660 C662 1.378 . S
C660 C664 1.350 . S
C661 C664 1.463 . S
C661 C666 1.350 . S
C661 N669 1.427 . S
C662 H653 0.930 . S
C662 C660 1.378 . S
C662 C663 1.367 . S
C663 C662 1.367 . S
C663 C665 1.433 . S
C664 C660 1.350 . S
C664 C661 1.463 . S
C664 N668 1.427 . S
C665 H655 0.929 . S
C665 C663 1.433 . S
C665 N668 1.384 . S
C666 H657 0.929 . S
C666 C658 1.378 . S
C666 C661 1.350 . S
C667 H654 0.929 . S
C667 C659 1.433 . S
C667 N669 1.384 . S
N668 C664 1.427 . S
N668 C665 1.384 . S
N669 C661 1.427 . S
N669 C667 1.384 . S
H670 C676 0.930 . S
H671 C680 0.930 . S
H672 C685 0.929 . S
H673 C683 0.929 . S
H674 C678 0.929 . S
H675 C684 0.929 . S
C676 H670 0.930 . S
C676 C677 1.367 . S
C676 C684 1.378 . S
C677 C676 1.367 . S
C677 C685 1.433 . S
C678 H674 0.929 . S
C678 C680 1.378 . S
C678 C682 1.350 . S
C679 C682 1.463 . S
C679 C684 1.350 . S
C679 N687 1.427 . S
C680 H671 0.930 . S
C680 C678 1.378 . S
C680 C681 1.367 . S
C681 C680 1.367 . S
C681 C683 1.433 . S
C682 C678 1.350 . S
C682 C679 1.463 . S
C682 N686 1.427 . S
C683 H673 0.929 . S
C683 C681 1.433 . S
C683 N686 1.384 . S
C684 H675 0.929 . S
C684 C676 1.378 . S
C684 C679 1.350 . S
C685 H672 0.929 . S
C685 C677 1.433 . S
C685 N687 1.384 . S
N686 C682 1.427 . S
N686 C683 1.384 . S
N687 C679 1.427 . S
N687 C685 1.384 . S
H688 C694 0.930 . S
H689 C698 0.930 . S
H690 C703 0.929 . S
H691 C701 0.929 . S
H692 C696 0.929 . S
H693 C702 0.929 . S
C694 H688 0.930 . S
C694 C695 1.367 . S
C694 C702 1.378 1_554 S
C695 C694 1.367 . S
C695 C703 1.433 . S
C696 H692 0.929 . S
C696 C698 1.378 . S
C696 C700 1.350 . S
C697 C700 1.463 . S
C697 C702 1.350 . S
C697 N705 1.427 . S
C698 H689 0.930 . S
C698 C696 1.378 . S
C698 C699 1.367 . S
C699 C698 1.367 . S
C699 C701 1.433 . S
C700 C696 1.350 . S
C700 C697 1.463 . S
C700 N704 1.427 . S
C701 H691 0.929 . S
C701 C699 1.433 . S
C701 N704 1.384 . S
C702 H693 0.929 . S
C702 C694 1.378 1_556 S
C702 C697 1.350 . S
C703 H690 0.929 . S
C703 C695 1.433 . S
C703 N705 1.384 1_554 S
N704 C700 1.427 . S
N704 C701 1.384 . S
N705 C697 1.427 . S
N705 C703 1.384 1_556 S
H706 C712 0.930 . S
H707 C716 0.930 . S
H708 C721 0.929 . S
H709 C719 0.929 . S
H710 C714 0.929 . S
H711 C720 0.929 . S
C712 H706 0.930 . S
C712 C713 1.367 . S
C712 C720 1.378 . S
C713 C712 1.367 . S
C713 C721 1.433 . S
C714 H710 0.929 . S
C714 C716 1.378 . S
C714 C718 1.350 . S
C715 C718 1.463 . S
C715 C720 1.350 . S
C715 N723 1.427 . S
C716 H707 0.930 . S
C716 C714 1.378 . S
C716 C717 1.367 . S
C717 C716 1.367 . S
C717 C719 1.433 . S
C718 C714 1.350 . S
C718 C715 1.463 . S
C718 N722 1.427 . S
C719 H709 0.929 . S
C719 C717 1.433 . S
C719 N722 1.384 . S
C720 H711 0.929 . S
C720 C712 1.378 . S
C720 C715 1.350 . S
C721 H708 0.929 . S
C721 C713 1.433 . S
C721 N723 1.384 . S
N722 C718 1.427 . S
N722 C719 1.384 . S
N723 C715 1.427 . S
N723 C721 1.384 . S
H724 C730 0.930 . S
H725 C734 0.930 . S
H726 C739 0.929 . S
H727 C737 0.929 . S
H728 C732 0.929 . S
H729 C738 0.929 . S
C730 H724 0.930 . S
C730 C731 1.367 . S
C730 C738 1.378 . S
C731 C730 1.367 . S
C731 C739 1.433 . S
C732 H728 0.929 . S
C732 C734 1.378 1_556 S
C732 C736 1.350 . S
C733 C736 1.463 . S
C733 C738 1.350 . S
C733 N741 1.427 . S
C734 H725 0.930 . S
C734 C732 1.378 1_554 S
C734 C735 1.367 . S
C735 C734 1.367 . S
C735 C737 1.433 . S
C736 C732 1.350 . S
C736 C733 1.463 . S
C736 N740 1.427 . S
C737 H727 0.929 . S
C737 C735 1.433 . S
C737 N740 1.384 1_554 S
C738 H729 0.929 . S
C738 C730 1.378 . S
C738 C733 1.350 . S
C739 H726 0.929 . S
C739 C731 1.433 . S
C739 N741 1.384 . S
N740 C736 1.427 . S
N740 C737 1.384 1_556 S
N741 C733 1.427 . S
N741 C739 1.384 . S
H742 C748 0.930 . S
H743 C752 0.930 . S
H744 C757 0.929 . S
H745 C755 0.929 . S
H746 C750 0.929 . S
H747 C756 0.929 . S
C748 H742 0.930 . S
C748 C749 1.367 . S
C748 C756 1.378 . S
C749 C748 1.367 . S
C749 C757 1.433 . S
C750 H746 0.929 . S
C750 C752 1.378 . S
C750 C754 1.350 . S
C751 C754 1.463 . S
C751 C756 1.350 . S
C751 N759 1.427 . S
C752 H743 0.930 . S
C752 C750 1.378 . S
C752 C753 1.367 . S
C753 C752 1.367 . S
C753 C755 1.433 . S
C754 C750 1.350 . S
C754 C751 1.463 . S
C754 N758 1.427 . S
C755 H745 0.929 . S
C755 C753 1.433 . S
C755 N758 1.384 . S
C756 H747 0.929 . S
C756 C748 1.378 . S
C756 C751 1.350 . S
C757 H744 0.929 . S
C757 C749 1.433 . S
C757 N759 1.384 . S
N758 C754 1.427 . S
N758 C755 1.384 . S
N759 C751 1.427 . S
N759 C757 1.384 . S
H760 C766 0.930 . S
H761 C770 0.930 . S
H762 C775 0.929 . S
H763 C773 0.929 . S
H764 C768 0.929 . S
H765 C774 0.929 . S
C766 H760 0.930 . S
C766 C767 1.367 . S
C766 C774 1.378 . S
C767 C766 1.367 . S
C767 C775 1.433 . S
C768 H764 0.929 . S
C768 C770 1.378 1_554 S
C768 C772 1.350 . S
C769 C772 1.463 . S
C769 C774 1.350 . S
C769 N777 1.427 . S
C770 H761 0.930 . S
C770 C768 1.378 1_556 S
C770 C771 1.367 . S
C771 C770 1.367 . S
C771 C773 1.433 . S
C772 C768 1.350 . S
C772 C769 1.463 . S
C772 N776 1.427 . S
C773 H763 0.929 . S
C773 C771 1.433 . S
C773 N776 1.384 1_556 S
C774 H765 0.929 . S
C774 C766 1.378 . S
C774 C769 1.350 . S
C775 H762 0.929 . S
C775 C767 1.433 . S
C775 N777 1.384 . S
N776 C772 1.427 . S
N776 C773 1.384 1_554 S
N777 C769 1.427 . S
N777 C775 1.384 . S
H778 C784 0.930 . S
H779 C788 0.930 . S
H780 C793 0.929 . S
H781 C791 0.929 . S
H782 C786 0.929 . S
H783 C792 0.929 . S
C784 H778 0.930 . S
C784 C785 1.367 . S
C784 C792 1.378 . S
C785 C784 1.367 . S
C785 C793 1.433 . S
C786 H782 0.929 . S
C786 C788 1.378 . S
C786 C790 1.350 . S
C787 C790 1.463 . S
C787 C792 1.350 . S
C787 N795 1.427 . S
C788 H779 0.930 . S
C788 C786 1.378 . S
C788 C789 1.367 . S
C789 C788 1.367 . S
C789 C791 1.433 . S
C790 C786 1.350 . S
C790 C787 1.463 . S
C790 N794 1.427 . S
C791 H781 0.929 . S
C791 C789 1.433 . S
C791 N794 1.384 . S
C792 H783 0.929 . S
C792 C784 1.378 . S
C792 C787 1.350 . S
C793 H780 0.929 . S
C793 C785 1.433 . S
C793 N795 1.384 . S
N794 C790 1.427 . S
N794 C791 1.384 . S
N795 C787 1.427 . S
N795 C793 1.384 . S
H796 C802 0.930 . S
H797 C806 0.930 . S
H798 C811 0.929 . S
H799 C809 0.929 . S
H800 C804 0.929 . S
H801 C810 0.929 . S
C802 H796 0.930 . S
C802 C803 1.367 . S
C802 C810 1.378 . S
C803 C802 1.367 . S
C803 C811 1.433 . S
C804 H800 0.929 . S
C804 C806 1.378 1_554 S
C804 C808 1.350 . S
C805 C808 1.463 . S
C805 C810 1.350 . S
C805 N813 1.427 . S
C806 H797 0.930 . S
C806 C804 1.378 1_556 S
C806 C807 1.367 . S
C807 C806 1.367 . S
C807 C809 1.433 . S
C808 C804 1.350 . S
C808 C805 1.463 . S
C808 N812 1.427 . S
C809 H799 0.929 . S
C809 C807 1.433 . S
C809 N812 1.384 1_556 S
C810 H801 0.929 . S
C810 C802 1.378 . S
C810 C805 1.350 . S
C811 H798 0.929 . S
C811 C803 1.433 . S
C811 N813 1.384 . S
N812 C808 1.427 . S
N812 C809 1.384 1_554 S
N813 C805 1.427 . S
N813 C811 1.384 . S
H814 C820 0.930 . S
H815 C824 0.930 . S
H816 C829 0.929 . S
H817 C827 0.929 . S
H818 C822 0.929 . S
H819 C828 0.929 . S
C820 H814 0.930 . S
C820 C821 1.367 . S
C820 C828 1.378 . S
C821 C820 1.367 . S
C821 C829 1.433 . S
C822 H818 0.929 . S
C822 C824 1.378 . S
C822 C826 1.350 . S
C823 C826 1.463 . S
C823 C828 1.350 . S
C823 N831 1.427 . S
C824 H815 0.930 . S
C824 C822 1.378 . S
C824 C825 1.367 . S
C825 C824 1.367 . S
C825 C827 1.433 . S
C826 C822 1.350 . S
C826 C823 1.463 . S
C826 N830 1.427 . S
C827 H817 0.929 . S
C827 C825 1.433 . S
C827 N830 1.384 . S
C828 H819 0.929 . S
C828 C820 1.378 . S
C828 C823 1.350 . S
C829 H816 0.929 . S
C829 C821 1.433 . S
C829 N831 1.384 . S
N830 C826 1.427 . S
N830 C827 1.384 . S
N831 C823 1.427 . S
N831 C829 1.384 . S
H832 C838 0.930 . S
H833 C842 0.930 . S
H834 C847 0.929 . S
H835 C845 0.929 . S
H836 C840 0.929 . S
H837 C846 0.929 . S
C838 H832 0.930 . S
C838 C839 1.367 . S
C838 C846 1.378 . S
C839 C838 1.367 . S
C839 C847 1.433 . S
C840 H836 0.929 . S
C840 C842 1.378 . S
C840 C844 1.350 . S
C841 C844 1.463 . S
C841 C846 1.350 . S
C841 N849 1.427 . S
C842 H833 0.930 . S
C842 C840 1.378 . S
C842 C843 1.367 . S
C843 C842 1.367 . S
C843 C845 1.433 . S
C844 C840 1.350 . S
C844 C841 1.463 . S
C844 N848 1.427 . S
C845 H835 0.929 . S
C845 C843 1.433 . S
C845 N848 1.384 . S
C846 H837 0.929 . S
C846 C838 1.378 . S
C846 C841 1.350 . S
C847 H834 0.929 . S
C847 C839 1.433 . S
C847 N849 1.384 . S
N848 C844 1.427 . S
N848 C845 1.384 . S
N849 C841 1.427 . S
N849 C847 1.384 . S
H850 C856 0.930 . S
H851 C860 0.930 . S
H852 C865 0.929 . S
H853 C863 0.929 . S
H854 C858 0.929 . S
H855 C864 0.929 . S
C856 H850 0.930 . S
C856 C857 1.367 . S
C856 C864 1.378 . S
C857 C856 1.367 . S
C857 C865 1.433 . S
C858 H854 0.929 . S
C858 C860 1.378 . S
C858 C862 1.350 . S
C859 C862 1.463 . S
C859 C864 1.350 . S
C859 N867 1.427 . S
C860 H851 0.930 . S
C860 C858 1.378 . S
C860 C861 1.367 . S
C861 C860 1.367 . S
C861 C863 1.433 . S
C862 C858 1.350 . S
C862 C859 1.463 . S
C862 N866 1.427 . S
C863 H853 0.929 . S
C863 C861 1.433 . S
C863 N866 1.384 . S
C864 H855 0.929 . S
C864 C856 1.378 . S
C864 C859 1.350 . S
C865 H852 0.929 . S
C865 C857 1.433 . S
C865 N867 1.384 . S
N866 C862 1.427 . S
N866 C863 1.384 . S
N867 C859 1.427 . S
N867 C865 1.384 . S
H868 C874 0.930 . S
H869 C878 0.930 . S
H870 C883 0.929 . S
H871 C881 0.929 . S
H872 C876 0.929 . S
H873 C882 0.929 . S
C874 H868 0.930 . S
C874 C875 1.367 . S
C874 C882 1.378 . S
C875 C874 1.367 . S
C875 C883 1.433 . S
C876 H872 0.929 . S
C876 C878 1.378 . S
C876 C880 1.350 . S
C877 C880 1.463 . S
C877 C882 1.350 . S
C877 N885 1.427 . S
C878 H869 0.930 . S
C878 C876 1.378 . S
C878 C879 1.367 . S
C879 C878 1.367 . S
C879 C881 1.433 . S
C880 C876 1.350 . S
C880 C877 1.463 . S
C880 N884 1.427 . S
C881 H871 0.929 . S
C881 C879 1.433 . S
C881 N884 1.384 . S
C882 H873 0.929 . S
C882 C874 1.378 . S
C882 C877 1.350 . S
C883 H870 0.929 . S
C883 C875 1.433 . S
C883 N885 1.384 . S
N884 C880 1.427 . S
N884 C881 1.384 . S
N885 C877 1.427 . S
N885 C883 1.384 . S
H886 C892 0.930 . S
H887 C896 0.930 . S
H888 C901 0.929 . S
H889 C899 0.929 . S
H890 C894 0.929 . S
H891 C900 0.929 . S
C892 H886 0.930 . S
C892 C893 1.367 . S
C892 C900 1.378 . S
C893 C892 1.367 . S
C893 C901 1.433 . S
C894 H890 0.929 . S
C894 C896 1.378 . S
C894 C898 1.350 . S
C895 C898 1.463 . S
C895 C900 1.350 . S
C895 N903 1.427 . S
C896 H887 0.930 . S
C896 C894 1.378 . S
C896 C897 1.367 . S
C897 C896 1.367 . S
C897 C899 1.433 . S
C898 C894 1.350 . S
C898 C895 1.463 . S
C898 N902 1.427 . S
C899 H889 0.929 . S
C899 C897 1.433 . S
C899 N902 1.384 . S
C900 H891 0.929 . S
C900 C892 1.378 . S
C900 C895 1.350 . S
C901 H888 0.929 . S
C901 C893 1.433 . S
C901 N903 1.384 . S
N902 C898 1.427 . S
N902 C899 1.384 . S
N903 C895 1.427 . S
N903 C901 1.384 . S
H904 C910 0.930 . S
H905 C914 0.930 . S
H906 C919 0.929 . S
H907 C917 0.929 . S
H908 C912 0.929 . S
H909 C918 0.929 . S
C910 H904 0.930 . S
C910 C911 1.367 . S
C910 C918 1.378 . S
C911 C910 1.367 . S
C911 C919 1.433 . S
C912 H908 0.929 . S
C912 C914 1.378 . S
C912 C916 1.350 . S
C913 C916 1.463 . S
C913 C918 1.350 . S
C913 N921 1.427 . S
C914 H905 0.930 . S
C914 C912 1.378 . S
C914 C915 1.367 . S
C915 C914 1.367 . S
C915 C917 1.433 . S
C916 C912 1.350 . S
C916 C913 1.463 . S
C916 N920 1.427 . S
C917 H907 0.929 . S
C917 C915 1.433 . S
C917 N920 1.384 . S
C918 H909 0.929 . S
C918 C910 1.378 . S
C918 C913 1.350 . S
C919 H906 0.929 . S
C919 C911 1.433 . S
C919 N921 1.384 . S
N920 C916 1.427 . S
N920 C917 1.384 . S
N921 C913 1.427 . S
N921 C919 1.384 . S
H922 C928 0.930 . S
H923 C932 0.930 . S
H924 C937 0.929 . S
H925 C935 0.929 . S
H926 C930 0.929 . S
H927 C936 0.929 . S
C928 H922 0.930 . S
C928 C929 1.367 . S
C928 C936 1.378 . S
C929 C928 1.367 . S
C929 C937 1.433 . S
C930 H926 0.929 . S
C930 C932 1.378 . S
C930 C934 1.350 . S
C931 C934 1.463 . S
C931 C936 1.350 . S
C931 N939 1.427 . S
C932 H923 0.930 . S
C932 C930 1.378 . S
C932 C933 1.367 . S
C933 C932 1.367 . S
C933 C935 1.433 . S
C934 C930 1.350 . S
C934 C931 1.463 . S
C934 N938 1.427 . S
C935 H925 0.929 . S
C935 C933 1.433 . S
C935 N938 1.384 . S
C936 H927 0.929 . S
C936 C928 1.378 . S
C936 C931 1.350 . S
C937 H924 0.929 . S
C937 C929 1.433 . S
C937 N939 1.384 . S
N938 C934 1.427 . S
N938 C935 1.384 . S
N939 C931 1.427 . S
N939 C937 1.384 . S
H940 C946 0.930 . S
H941 C950 0.930 . S
H942 C955 0.929 . S
H943 C953 0.929 . S
H944 C948 0.929 . S
H945 C954 0.929 . S
C946 H940 0.930 . S
C946 C947 1.367 . S
C946 C954 1.378 . S
C947 C946 1.367 . S
C947 C955 1.433 . S
C948 H944 0.929 . S
C948 C950 1.378 . S
C948 C952 1.350 . S
C949 C952 1.463 . S
C949 C954 1.350 . S
C949 N957 1.427 . S
C950 H941 0.930 . S
C950 C948 1.378 . S
C950 C951 1.367 . S
C951 C950 1.367 . S
C951 C953 1.433 . S
C952 C948 1.350 . S
C952 C949 1.463 . S
C952 N956 1.427 . S
C953 H943 0.929 . S
C953 C951 1.433 . S
C953 N956 1.384 . S
C954 H945 0.929 . S
C954 C946 1.378 . S
C954 C949 1.350 . S
C955 H942 0.929 . S
C955 C947 1.433 . S
C955 N957 1.384 . S
N956 C952 1.427 . S
N956 C953 1.384 . S
N957 C949 1.427 . S
N957 C955 1.384 . S
H958 C964 0.930 . S
H959 C968 0.930 . S
H960 C973 0.929 . S
H961 C971 0.929 . S
H962 C966 0.929 . S
H963 C972 0.929 . S
C964 H958 0.930 . S
C964 C965 1.367 . S
C964 C972 1.378 . S
C965 C964 1.367 . S
C965 C973 1.433 . S
C966 H962 0.929 . S
C966 C968 1.378 . S
C966 C970 1.350 . S
C967 C970 1.463 . S
C967 C972 1.350 . S
C967 N975 1.427 . S
C968 H959 0.930 . S
C968 C966 1.378 . S
C968 C969 1.367 . S
C969 C968 1.367 . S
C969 C971 1.433 . S
C970 C966 1.350 . S
C970 C967 1.463 . S
C970 N974 1.427 . S
C971 H961 0.929 . S
C971 C969 1.433 . S
C971 N974 1.384 . S
C972 H963 0.929 . S
C972 C964 1.378 . S
C972 C967 1.350 . S
C973 H960 0.929 . S
C973 C965 1.433 . S
C973 N975 1.384 . S
N974 C970 1.427 . S
N974 C971 1.384 . S
N975 C967 1.427 . S
N975 C973 1.384 . S
H976 C982 0.930 . S
H977 C986 0.930 . S
H978 C991 0.929 . S
H979 C989 0.929 . S
H980 C984 0.929 . S
H981 C990 0.929 . S
C982 H976 0.930 . S
C982 C983 1.367 . S
C982 C990 1.378 . S
C983 C982 1.367 . S
C983 C991 1.433 . S
C984 H980 0.929 . S
C984 C986 1.378 . S
C984 C988 1.350 . S
C985 C988 1.463 . S
C985 C990 1.350 . S
C985 N993 1.427 . S
C986 H977 0.930 . S
C986 C984 1.378 . S
C986 C987 1.367 . S
C987 C986 1.367 . S
C987 C989 1.433 . S
C988 C984 1.350 . S
C988 C985 1.463 . S
C988 N992 1.427 . S
C989 H979 0.929 . S
C989 C987 1.433 . S
C989 N992 1.384 . S
C990 H981 0.929 . S
C990 C982 1.378 . S
C990 C985 1.350 . S
C991 H978 0.929 . S
C991 C983 1.433 . S
C991 N993 1.384 . S
N992 C988 1.427 . S
N992 C989 1.384 . S
N993 C985 1.427 . S
N993 C991 1.384 . S
H994 C1000 0.930 . S
H995 C1004 0.930 . S
H996 C1009 0.929 . S
H997 C1007 0.929 . S
H998 C1002 0.929 . S
H999 C1008 0.929 . S
C1000 H994 0.930 . S
C1000 C1001 1.367 . S
C1000 C1008 1.378 . S
C1001 C1000 1.367 . S
C1001 C1009 1.433 . S
C1002 H998 0.929 . S
C1002 C1004 1.378 . S
C1002 C1006 1.350 . S
C1003 C1006 1.463 . S
C1003 C1008 1.350 . S
C1003 N1011 1.427 . S
C1004 H995 0.930 . S
C1004 C1002 1.378 . S
C1004 C1005 1.367 . S
C1005 C1004 1.367 . S
C1005 C1007 1.433 . S
C1006 C1002 1.350 . S
C1006 C1003 1.463 . S
C1006 N1010 1.427 . S
C1007 H997 0.929 . S
C1007 C1005 1.433 . S
C1007 N1010 1.384 . S
C1008 H999 0.929 . S
C1008 C1000 1.378 . S
C1008 C1003 1.350 . S
C1009 H996 0.929 . S
C1009 C1001 1.433 . S
C1009 N1011 1.384 . S
N1010 C1006 1.427 . S
N1010 C1007 1.384 . S
N1011 C1003 1.427 . S
N1011 C1009 1.384 . S
H1012 C1018 0.930 . S
H1013 C1022 0.930 . S
H1014 C1027 0.929 . S
H1015 C1025 0.929 . S
H1016 C1020 0.929 . S
H1017 C1026 0.929 . S
C1018 H1012 0.930 . S
C1018 C1019 1.367 . S
C1018 C1026 1.378 . S
C1019 C1018 1.367 . S
C1019 C1027 1.433 . S
C1020 H1016 0.929 . S
C1020 C1022 1.378 . S
C1020 C1024 1.350 . S
C1021 C1024 1.463 . S
C1021 C1026 1.350 . S
C1021 N1029 1.427 . S
C1022 H1013 0.930 . S
C1022 C1020 1.378 . S
C1022 C1023 1.367 . S
C1023 C1022 1.367 . S
C1023 C1025 1.433 . S
C1024 C1020 1.350 . S
C1024 C1021 1.463 . S
C1024 N1028 1.427 . S
C1025 H1015 0.929 . S
C1025 C1023 1.433 . S
C1025 N1028 1.384 . S
C1026 H1017 0.929 . S
C1026 C1018 1.378 . S
C1026 C1021 1.350 . S
C1027 H1014 0.929 . S
C1027 C1019 1.433 . S
C1027 N1029 1.384 . S
N1028 C1024 1.427 . S
N1028 C1025 1.384 . S
N1029 C1021 1.427 . S
N1029 C1027 1.384 . S
H1030 C1036 0.930 . S
H1031 C1040 0.930 . S
H1032 C1045 0.929 . S
H1033 C1043 0.929 . S
H1034 C1038 0.929 . S
H1035 C1044 0.929 . S
C1036 H1030 0.930 . S
C1036 C1037 1.367 . S
C1036 C1044 1.378 . S
C1037 C1036 1.367 . S
C1037 C1045 1.433 . S
C1038 H1034 0.929 . S
C1038 C1040 1.378 . S
C1038 C1042 1.350 . S
C1039 C1042 1.463 . S
C1039 C1044 1.350 . S
C1039 N1047 1.427 . S
C1040 H1031 0.930 . S
C1040 C1038 1.378 . S
C1040 C1041 1.367 . S
C1041 C1040 1.367 . S
C1041 C1043 1.433 . S
C1042 C1038 1.350 . S
C1042 C1039 1.463 . S
C1042 N1046 1.427 . S
C1043 H1033 0.929 . S
C1043 C1041 1.433 . S
C1043 N1046 1.384 . S
C1044 H1035 0.929 . S
C1044 C1036 1.378 . S
C1044 C1039 1.350 . S
C1045 H1032 0.929 . S
C1045 C1037 1.433 . S
C1045 N1047 1.384 . S
N1046 C1042 1.427 . S
N1046 C1043 1.384 . S
N1047 C1039 1.427 . S
N1047 C1045 1.384 . S
H1048 C1054 0.930 . S
H1049 C1058 0.930 . S
H1050 C1063 0.929 . S
H1051 C1061 0.929 . S
H1052 C1056 0.929 . S
H1053 C1062 0.929 . S
C1054 H1048 0.930 . S
C1054 C1055 1.367 . S
C1054 C1062 1.378 . S
C1055 C1054 1.367 . S
C1055 C1063 1.433 . S
C1056 H1052 0.929 . S
C1056 C1058 1.378 . S
C1056 C1060 1.350 . S
C1057 C1060 1.463 . S
C1057 C1062 1.350 . S
C1057 N1065 1.427 . S
C1058 H1049 0.930 . S
C1058 C1056 1.378 . S
C1058 C1059 1.367 . S
C1059 C1058 1.367 . S
C1059 C1061 1.433 . S
C1060 C1056 1.350 . S
C1060 C1057 1.463 . S
C1060 N1064 1.427 . S
C1061 H1051 0.929 . S
C1061 C1059 1.433 . S
C1061 N1064 1.384 . S
C1062 H1053 0.929 . S
C1062 C1054 1.378 . S
C1062 C1057 1.350 . S
C1063 H1050 0.929 . S
C1063 C1055 1.433 . S
C1063 N1065 1.384 . S
N1064 C1060 1.427 . S
N1064 C1061 1.384 . S
N1065 C1057 1.427 . S
N1065 C1063 1.384 . S
H1066 C1072 0.930 . S
H1067 C1076 0.930 . S
H1068 C1081 0.929 . S
H1069 C1079 0.929 . S
H1070 C1074 0.929 . S
H1071 C1080 0.929 . S
C1072 H1066 0.930 . S
C1072 C1073 1.367 . S
C1072 C1080 1.378 . S
C1073 C1072 1.367 . S
C1073 C1081 1.433 . S
C1074 H1070 0.929 . S
C1074 C1076 1.378 . S
C1074 C1078 1.350 . S
C1075 C1078 1.463 . S
C1075 C1080 1.350 . S
C1075 N1083 1.427 . S
C1076 H1067 0.930 . S
C1076 C1074 1.378 . S
C1076 C1077 1.367 . S
C1077 C1076 1.367 . S
C1077 C1079 1.433 . S
C1078 C1074 1.350 . S
C1078 C1075 1.463 . S
C1078 N1082 1.427 . S
C1079 H1069 0.929 . S
C1079 C1077 1.433 . S
C1079 N1082 1.384 . S
C1080 H1071 0.929 . S
C1080 C1072 1.378 . S
C1080 C1075 1.350 . S
C1081 H1068 0.929 . S
C1081 C1073 1.433 . S
C1081 N1083 1.384 . S
N1082 C1078 1.427 . S
N1082 C1079 1.384 . S
N1083 C1075 1.427 . S
N1083 C1081 1.384 . S
H1084 C1090 0.930 . S
H1085 C1094 0.930 . S
H1086 C1099 0.929 . S
H1087 C1097 0.929 . S
H1088 C1092 0.929 . S
H1089 C1098 0.929 . S
C1090 H1084 0.930 . S
C1090 C1091 1.367 . S
C1090 C1098 1.378 . S
C1091 C1090 1.367 . S
C1091 C1099 1.433 . S
C1092 H1088 0.929 . S
C1092 C1094 1.378 . S
C1092 C1096 1.350 . S
C1093 C1096 1.463 . S
C1093 C1098 1.350 . S
C1093 N1101 1.427 . S
C1094 H1085 0.930 . S
C1094 C1092 1.378 . S
C1094 C1095 1.367 . S
C1095 C1094 1.367 . S
C1095 C1097 1.433 . S
C1096 C1092 1.350 . S
C1096 C1093 1.463 . S
C1096 N1100 1.427 . S
C1097 H1087 0.929 . S
C1097 C1095 1.433 . S
C1097 N1100 1.384 . S
C1098 H1089 0.929 . S
C1098 C1090 1.378 . S
C1098 C1093 1.350 . S
C1099 H1086 0.929 . S
C1099 C1091 1.433 . S
C1099 N1101 1.384 . S
N1100 C1096 1.427 . S
N1100 C1097 1.384 . S
N1101 C1093 1.427 . S
N1101 C1099 1.384 . S
H1102 C1108 0.930 . S
H1103 C1112 0.930 . S
H1104 C1117 0.929 . S
H1105 C1115 0.929 . S
H1106 C1110 0.929 . S
H1107 C1116 0.929 . S
C1108 H1102 0.930 . S
C1108 C1109 1.367 . S
C1108 C1116 1.378 . S
C1109 C1108 1.367 . S
C1109 C1117 1.433 . S
C1110 H1106 0.929 . S
C1110 C1112 1.378 . S
C1110 C1114 1.350 . S
C1111 C1114 1.463 . S
C1111 C1116 1.350 . S
C1111 N1119 1.427 . S
C1112 H1103 0.930 . S
C1112 C1110 1.378 . S
C1112 C1113 1.367 . S
C1113 C1112 1.367 . S
C1113 C1115 1.433 . S
C1114 C1110 1.350 . S
C1114 C1111 1.463 . S
C1114 N1118 1.427 . S
C1115 H1105 0.929 . S
C1115 C1113 1.433 . S
C1115 N1118 1.384 . S
C1116 H1107 0.929 . S
C1116 C1108 1.378 . S
C1116 C1111 1.350 . S
C1117 H1104 0.929 . S
C1117 C1109 1.433 . S
C1117 N1119 1.384 . S
N1118 C1114 1.427 . S
N1118 C1115 1.384 . S
N1119 C1111 1.427 . S
N1119 C1117 1.384 . S
H1120 C1126 0.930 . S
H1121 C1130 0.930 . S
H1122 C1135 0.929 . S
H1123 C1133 0.929 . S
H1124 C1128 0.929 . S
H1125 C1134 0.929 . S
C1126 H1120 0.930 . S
C1126 C1127 1.367 . S
C1126 C1134 1.378 . S
C1127 C1126 1.367 . S
C1127 C1135 1.433 . S
C1128 H1124 0.929 . S
C1128 C1130 1.378 . S
C1128 C1132 1.350 . S
C1129 C1132 1.463 . S
C1129 C1134 1.350 . S
C1129 N1137 1.427 . S
C1130 H1121 0.930 . S
C1130 C1128 1.378 . S
C1130 C1131 1.367 . S
C1131 C1130 1.367 . S
C1131 C1133 1.433 . S
C1132 C1128 1.350 . S
C1132 C1129 1.463 . S
C1132 N1136 1.427 . S
C1133 H1123 0.929 . S
C1133 C1131 1.433 . S
C1133 N1136 1.384 . S
C1134 H1125 0.929 . S
C1134 C1126 1.378 . S
C1134 C1129 1.350 . S
C1135 H1122 0.929 . S
C1135 C1127 1.433 . S
C1135 N1137 1.384 . S
N1136 C1132 1.427 . S
N1136 C1133 1.384 . S
N1137 C1129 1.427 . S
N1137 C1135 1.384 . S
H1138 C1144 0.930 . S
H1139 C1148 0.930 . S
H1140 C1153 0.929 . S
H1141 C1151 0.929 . S
H1142 C1146 0.929 . S
H1143 C1152 0.929 . S
C1144 H1138 0.930 . S
C1144 C1145 1.367 . S
C1144 C1152 1.378 . S
C1145 C1144 1.367 . S
C1145 C1153 1.433 . S
C1146 H1142 0.929 . S
C1146 C1148 1.378 . S
C1146 C1150 1.350 . S
C1147 C1150 1.463 . S
C1147 C1152 1.350 . S
C1147 N1155 1.427 . S
C1148 H1139 0.930 . S
C1148 C1146 1.378 . S
C1148 C1149 1.367 . S
C1149 C1148 1.367 . S
C1149 C1151 1.433 . S
C1150 C1146 1.350 . S
C1150 C1147 1.463 . S
C1150 N1154 1.427 . S
C1151 H1141 0.929 . S
C1151 C1149 1.433 . S
C1151 N1154 1.384 . S
C1152 H1143 0.929 . S
C1152 C1144 1.378 . S
C1152 C1147 1.350 . S
C1153 H1140 0.929 . S
C1153 C1145 1.433 . S
C1153 N1155 1.384 . S
N1154 C1150 1.427 . S
N1154 C1151 1.384 . S
N1155 C1147 1.427 . S
N1155 C1153 1.384 . S
H1156 C1162 0.930 . S
H1157 C1166 0.930 . S
H1158 C1171 0.929 . S
H1159 C1169 0.929 . S
H1160 C1164 0.929 . S
H1161 C1170 0.929 . S
C1162 H1156 0.930 . S
C1162 C1163 1.367 . S
C1162 C1170 1.378 . S
C1163 C1162 1.367 . S
C1163 C1171 1.433 . S
C1164 H1160 0.929 . S
C1164 C1166 1.378 . S
C1164 C1168 1.350 . S
C1165 C1168 1.463 . S
C1165 C1170 1.350 . S
C1165 N1173 1.427 . S
C1166 H1157 0.930 . S
C1166 C1164 1.378 . S
C1166 C1167 1.367 . S
C1167 C1166 1.367 . S
C1167 C1169 1.433 . S
C1168 C1164 1.350 . S
C1168 C1165 1.463 . S
C1168 N1172 1.427 . S
C1169 H1159 0.929 . S
C1169 C1167 1.433 . S
C1169 N1172 1.384 . S
C1170 H1161 0.929 . S
C1170 C1162 1.378 . S
C1170 C1165 1.350 . S
C1171 H1158 0.929 . S
C1171 C1163 1.433 . S
C1171 N1173 1.384 . S
N1172 C1168 1.427 . S
N1172 C1169 1.384 . S
N1173 C1165 1.427 . S
N1173 C1171 1.384 . S
H1174 C1180 0.930 . S
H1175 C1184 0.930 . S
H1176 C1189 0.929 . S
H1177 C1187 0.929 . S
H1178 C1182 0.929 . S
H1179 C1188 0.929 . S
C1180 H1174 0.930 . S
C1180 C1181 1.367 . S
C1180 C1188 1.378 . S
C1181 C1180 1.367 . S
C1181 C1189 1.433 . S
C1182 H1178 0.929 . S
C1182 C1184 1.378 . S
C1182 C1186 1.350 . S
C1183 C1186 1.463 . S
C1183 C1188 1.350 . S
C1183 N1191 1.427 . S
C1184 H1175 0.930 . S
C1184 C1182 1.378 . S
C1184 C1185 1.367 . S
C1185 C1184 1.367 . S
C1185 C1187 1.433 . S
C1186 C1182 1.350 . S
C1186 C1183 1.463 . S
C1186 N1190 1.427 . S
C1187 H1177 0.929 . S
C1187 C1185 1.433 . S
C1187 N1190 1.384 . S
C1188 H1179 0.929 . S
C1188 C1180 1.378 . S
C1188 C1183 1.350 . S
C1189 H1176 0.929 . S
C1189 C1181 1.433 . S
C1189 N1191 1.384 . S
N1190 C1186 1.427 . S
N1190 C1187 1.384 . S
N1191 C1183 1.427 . S
N1191 C1189 1.384 . S
H1192 C1198 0.930 . S
H1193 C1202 0.930 . S
H1194 C1207 0.929 . S
H1195 C1205 0.929 . S
H1196 C1200 0.929 . S
H1197 C1206 0.929 . S
C1198 H1192 0.930 . S
C1198 C1199 1.367 . S
C1198 C1206 1.378 . S
C1199 C1198 1.367 . S
C1199 C1207 1.433 . S
C1200 H1196 0.929 . S
C1200 C1202 1.378 . S
C1200 C1204 1.350 . S
C1201 C1204 1.463 . S
C1201 C1206 1.350 . S
C1201 N1209 1.427 . S
C1202 H1193 0.930 . S
C1202 C1200 1.378 . S
C1202 C1203 1.367 . S
C1203 C1202 1.367 . S
C1203 C1205 1.433 . S
C1204 C1200 1.350 . S
C1204 C1201 1.463 . S
C1204 N1208 1.427 . S
C1205 H1195 0.929 . S
C1205 C1203 1.433 . S
C1205 N1208 1.384 . S
C1206 H1197 0.929 . S
C1206 C1198 1.378 . S
C1206 C1201 1.350 . S
C1207 H1194 0.929 . S
C1207 C1199 1.433 . S
C1207 N1209 1.384 . S
N1208 C1204 1.427 . S
N1208 C1205 1.384 . S
N1209 C1201 1.427 . S
N1209 C1207 1.384 . S
H1210 C1216 0.930 . S
H1211 C1220 0.930 . S
H1212 C1225 0.929 . S
H1213 C1223 0.929 . S
H1214 C1218 0.929 . S
H1215 C1224 0.929 . S
C1216 H1210 0.930 . S
C1216 C1217 1.367 . S
C1216 C1224 1.378 . S
C1217 C1216 1.367 . S
C1217 C1225 1.433 . S
C1218 H1214 0.929 . S
C1218 C1220 1.378 . S
C1218 C1222 1.350 . S
C1219 C1222 1.463 . S
C1219 C1224 1.350 . S
C1219 N1227 1.427 . S
C1220 H1211 0.930 . S
C1220 C1218 1.378 . S
C1220 C1221 1.367 . S
C1221 C1220 1.367 . S
C1221 C1223 1.433 . S
C1222 C1218 1.350 . S
C1222 C1219 1.463 . S
C1222 N1226 1.427 . S
C1223 H1213 0.929 . S
C1223 C1221 1.433 . S
C1223 N1226 1.384 . S
C1224 H1215 0.929 . S
C1224 C1216 1.378 . S
C1224 C1219 1.350 . S
C1225 H1212 0.929 . S
C1225 C1217 1.433 . S
C1225 N1227 1.384 . S
N1226 C1222 1.427 . S
N1226 C1223 1.384 . S
N1227 C1219 1.427 . S
N1227 C1225 1.384 . S
H1228 C1234 0.930 . S
H1229 C1238 0.930 . S
H1230 C1243 0.929 . S
H1231 C1241 0.929 . S
H1232 C1236 0.929 . S
H1233 C1242 0.929 . S
C1234 H1228 0.930 . S
C1234 C1235 1.367 . S
C1234 C1242 1.378 . S
C1235 C1234 1.367 . S
C1235 C1243 1.433 . S
C1236 H1232 0.929 . S
C1236 C1238 1.378 . S
C1236 C1240 1.350 . S
C1237 C1240 1.463 . S
C1237 C1242 1.350 . S
C1237 N1245 1.427 . S
C1238 H1229 0.930 . S
C1238 C1236 1.378 . S
C1238 C1239 1.367 . S
C1239 C1238 1.367 . S
C1239 C1241 1.433 . S
C1240 C1236 1.350 . S
C1240 C1237 1.463 . S
C1240 N1244 1.427 . S
C1241 H1231 0.929 . S
C1241 C1239 1.433 . S
C1241 N1244 1.384 . S
C1242 H1233 0.929 . S
C1242 C1234 1.378 . S
C1242 C1237 1.350 . S
C1243 H1230 0.929 . S
C1243 C1235 1.433 . S
C1243 N1245 1.384 . S
N1244 C1240 1.427 . S
N1244 C1241 1.384 . S
N1245 C1237 1.427 . S
N1245 C1243 1.384 . S
H1246 C1252 0.930 . S
H1247 C1256 0.930 . S
H1248 C1261 0.929 . S
H1249 C1259 0.929 . S
H1250 C1254 0.929 . S
H1251 C1260 0.929 . S
C1252 H1246 0.930 . S
C1252 C1253 1.367 . S
C1252 C1260 1.378 . S
C1253 C1252 1.367 . S
C1253 C1261 1.433 . S
C1254 H1250 0.929 . S
C1254 C1256 1.378 . S
C1254 C1258 1.350 . S
C1255 C1258 1.463 . S
C1255 C1260 1.350 . S
C1255 N1263 1.427 . S
C1256 H1247 0.930 . S
C1256 C1254 1.378 . S
C1256 C1257 1.367 . S
C1257 C1256 1.367 . S
C1257 C1259 1.433 . S
C1258 C1254 1.350 . S
C1258 C1255 1.463 . S
C1258 N1262 1.427 . S
C1259 H1249 0.929 . S
C1259 C1257 1.433 . S
C1259 N1262 1.384 . S
C1260 H1251 0.929 . S
C1260 C1252 1.378 . S
C1260 C1255 1.350 . S
C1261 H1248 0.929 . S
C1261 C1253 1.433 . S
C1261 N1263 1.384 . S
N1262 C1258 1.427 . S
N1262 C1259 1.384 . S
N1263 C1255 1.427 . S
N1263 C1261 1.384 . S
C551 C33 1.740 . S
C555 C101 1.740 . S
C569 C135 1.740 . S
C573 C67 1.740 . S
C587 C237 1.744 . S
C591 C169 1.744 . S
C605 C203 1.740 . S
C609 C271 1.740 . S
C623 C373 1.777 . S
C627 C305 1.779 . S
C641 C339 1.778 . S
C645 C407 1.779 . S
C659 C509 1.781 . S
C663 C441 1.780 . S
C677 C475 1.777 . S
C681 C543 1.778 . S
C695 C5 1.517 . S
C699 C342 1.531 . S
C713 C376 1.531 . S
C717 C39 1.518 . S
C731 C274 1.533 . S
C735 C73 1.522 . S
C749 C308 1.534 . S
C753 C107 1.524 . S
C767 C478 1.534 . S
C771 C141 1.525 . S
C785 C512 1.534 . S
C789 C175 1.523 . S
C803 C410 1.530 . S
C807 C209 1.517 . S
C821 C444 1.534 . S
C825 C243 1.524 . S
C839 C9 1.408 . S
C843 C247 1.392 . S
C857 C43 1.406 . S
C861 C145 1.393 . S
C875 C179 1.402 . S
C879 C77 1.402 . S
C893 C213 1.393 . S
C897 C111 1.409 . S
C911 C292 2.094 . S
C915 C530 2.095 . S
C929 C326 2.091 . S
C933 C428 2.095 . S
C947 C360 2.093 . S
C951 C462 2.095 . S
C965 C394 2.095 . S
C969 C496 2.093 . S
C983 C481 1.006 . S
C987 C20 1.009 . S
C1001 C54 0.993 . S
C1005 C515 0.994 . S
C1019 C413 1.003 . S
C1023 C88 1.006 . S
C1037 C447 1.007 . S
C1041 C122 1.003 . S
C1055 C345 1.001 . S
C1059 C156 1.005 . S
C1073 C190 0.993 . S
C1077 C379 0.994 . S
C1091 C277 1.000 . S
C1095 C224 0.996 . S
C1109 C258 1.000 . S
C1113 C311 1.004 . S
C1127 C206 0.920 . S
C1131 C281 0.916 . S
C1145 C240 0.913 . S
C1149 C315 0.900 . S
C1163 C138 0.914 . S
C1167 C349 0.906 . S
C1181 C383 0.918 . S
C1185 C172 0.929 . S
C1199 C70 0.927 1_455 S
C1203 C417 0.923 . S
C1217 C451 0.910 . S
C1221 C104 0.924 1_545 S
C1235 C485 0.900 . S
C1239 C2 0.914 1_655 S
C1253 C36 0.926 1_565 S
C1257 C519 0.922 . S
