# Generated by pormake.
# Topology wjd, (6)-cn, num edge types: 1
# Building blocks:
#     Node 0, Type 0, BuildingBlock: KUMBUR_clean_sbu_0, # of connection points: 6
#     Node 1, Type 0, BuildingBlock: KUMBUR_clean_sbu_0, # of connection points: 6
#     Node 2, Type 0, BuildingBlock: KUMBUR_clean_sbu_0, # of connection points: 6
#     Node 3, Type 0, BuildingBlock: KUMBUR_clean_sbu_0, # of connection points: 6
#     Node 4, Type 0, BuildingBlock: KUMBUR_clean_sbu_0, # of connection points: 6
#     Node 5, Type 0, BuildingBlock: KUMBUR_clean_sbu_0, # of connection points: 6
#     Node 6, Type 0, BuildingBlock: KUMBUR_clean_sbu_0, # of connection points: 6
#     Node 7, Type 0, BuildingBlock: KUMBUR_clean_sbu_0, # of connection points: 6
#     Node 8, Type 0, BuildingBlock: KUMBUR_clean_sbu_0, # of connection points: 6
#     Node 9, Type 0, BuildingBlock: KUMBUR_clean_sbu_0, # of connection points: 6
#     Node 10, Type 0, BuildingBlock: KUMBUR_clean_sbu_0, # of connection points: 6
#     Node 11, Type 0, BuildingBlock: KUMBUR_clean_sbu_0, # of connection points: 6
#     Edge 12, Type (0, 0), BuildingBlock: XIVTED_clean_linker_0, # of connection points: 2
#     Edge 13, Type (0, 0), BuildingBlock: XIVTED_clean_linker_0, # of connection points: 2
#     Edge 14, Type (0, 0), BuildingBlock: XIVTED_clean_linker_0, # of connection points: 2
#     Edge 15, Type (0, 0), BuildingBlock: XIVTED_clean_linker_0, # of connection points: 2
#     Edge 16, Type (0, 0), BuildingBlock: XIVTED_clean_linker_0, # of connection points: 2
#     Edge 17, Type (0, 0), BuildingBlock: XIVTED_clean_linker_0, # of connection points: 2
#     Edge 18, Type (0, 0), BuildingBlock: XIVTED_clean_linker_0, # of connection points: 2
#     Edge 19, Type (0, 0), BuildingBlock: XIVTED_clean_linker_0, # of connection points: 2
#     Edge 20, Type (0, 0), BuildingBlock: XIVTED_clean_linker_0, # of connection points: 2
#     Edge 21, Type (0, 0), BuildingBlock: XIVTED_clean_linker_0, # of connection points: 2
#     Edge 22, Type (0, 0), BuildingBlock: XIVTED_clean_linker_0, # of connection points: 2
#     Edge 23, Type (0, 0), BuildingBlock: XIVTED_clean_linker_0, # of connection points: 2
#     Edge 24, Type (0, 0), BuildingBlock: XIVTED_clean_linker_0, # of connection points: 2
#     Edge 25, Type (0, 0), BuildingBlock: XIVTED_clean_linker_0, # of connection points: 2
#     Edge 26, Type (0, 0), BuildingBlock: XIVTED_clean_linker_0, # of connection points: 2
#     Edge 27, Type (0, 0), BuildingBlock: XIVTED_clean_linker_0, # of connection points: 2
#     Edge 28, Type (0, 0), BuildingBlock: XIVTED_clean_linker_0, # of connection points: 2
#     Edge 29, Type (0, 0), BuildingBlock: XIVTED_clean_linker_0, # of connection points: 2
#     Edge 30, Type (0, 0), BuildingBlock: XIVTED_clean_linker_0, # of connection points: 2
#     Edge 31, Type (0, 0), BuildingBlock: XIVTED_clean_linker_0, # of connection points: 2
#     Edge 32, Type (0, 0), BuildingBlock: XIVTED_clean_linker_0, # of connection points: 2
#     Edge 33, Type (0, 0), BuildingBlock: XIVTED_clean_linker_0, # of connection points: 2
#     Edge 34, Type (0, 0), BuildingBlock: XIVTED_clean_linker_0, # of connection points: 2
#     Edge 35, Type (0, 0), BuildingBlock: XIVTED_clean_linker_0, # of connection points: 2
#     Edge 36, Type (0, 0), BuildingBlock: XIVTED_clean_linker_0, # of connection points: 2
#     Edge 37, Type (0, 0), BuildingBlock: XIVTED_clean_linker_0, # of connection points: 2
#     Edge 38, Type (0, 0), BuildingBlock: XIVTED_clean_linker_0, # of connection points: 2
#     Edge 39, Type (0, 0), BuildingBlock: XIVTED_clean_linker_0, # of connection points: 2
#     Edge 40, Type (0, 0), BuildingBlock: XIVTED_clean_linker_0, # of connection points: 2
#     Edge 41, Type (0, 0), BuildingBlock: XIVTED_clean_linker_0, # of connection points: 2
#     Edge 42, Type (0, 0), BuildingBlock: XIVTED_clean_linker_0, # of connection points: 2
#     Edge 43, Type (0, 0), BuildingBlock: XIVTED_clean_linker_0, # of connection points: 2
#     Edge 44, Type (0, 0), BuildingBlock: XIVTED_clean_linker_0, # of connection points: 2
#     Edge 45, Type (0, 0), BuildingBlock: XIVTED_clean_linker_0, # of connection points: 2
#     Edge 46, Type (0, 0), BuildingBlock: XIVTED_clean_linker_0, # of connection points: 2
#     Edge 47, Type (0, 0), BuildingBlock: XIVTED_clean_linker_0, # of connection points: 2
# Relax obj value: 0.097
# Max RMSD: 0.214
# Mean RMSD: 0.214
data_MOF--net-wjd--node1-KUMBUR_clean_sbu_0--edge1-XIVTED_clean_linker_0
_symmetry_space_group_name_H-M    P1
_symmetry_Int_Tables_number       1
_symmetry_cell_setting            triclinic
loop_
_symmetry_equiv_pos_as_xyz
'x, y, z'
_cell_length_a     38.339504
_cell_length_b     38.374425
_cell_length_c     55.096222
_cell_angle_alpha  90.053168
_cell_angle_beta   89.983648
_cell_angle_gamma 119.95817
loop_
_atom_site_label
_atom_site_type_symbol
_atom_site_fract_x
_atom_site_fract_y
_atom_site_fract_z
_atom_type_partial_charge
Tb0 Tb 0.3798 0.18806 0.10557 0.0
C1 C 0.35831 0.05773 0.18005 0.0
C2 C 0.39506 0.02678 0.1641 0.0
C3 C 0.38583 0.02817 0.20765 0.0
C4 C 0.37389 0.04768 0.16056 0.0
C5 C 0.3636 0.04772 0.20384 0.0
C6 C 0.40158 1.01773 0.18778 0.0
C7 C 0.32305 0.07542 0.21821 0.0
N8 N 0.33687 0.07638 0.17557 0.0
C9 C 0.31854 0.0846 0.19429 0.0
C10 C 0.34572 0.05696 0.22299 0.0
Tb11 Tb 0.3314 0.09058 0.1357 0.0
N12 N 0.36633 0.05644 0.13803 0.0
C13 C 0.37689 0.0425 0.1181 0.0
C14 C 0.40791 1.01454 0.14372 0.0
C15 C 0.39827 0.02196 0.12062 0.0
H16 H 0.30108 0.09909 0.1911 0.0
H17 H 0.40729 1.01188 0.1047 0.0
H18 H 0.41799 1.00192 0.19089 0.0
H19 H 0.30893 0.08251 0.23293 0.0
H20 H 0.36973 0.04769 0.10005 0.0
H21 H 0.31701 0.27744 0.13922 0.0
H22 H 0.42431 0.99847 0.14563 0.0
H23 H 0.40481 0.1778 0.04926 0.0
H24 H 0.35145 0.23807 0.1424 0.0
H25 H 0.39039 0.19019 0.00757 0.0
H26 H 0.39041 0.02041 0.22582 0.0
H27 H 0.29263 0.28614 0.09939 0.0
H28 H 0.28833 0.27495 0.05425 0.0
H29 H 0.34862 0.04929 0.24142 0.0
H30 H 0.30795 0.25066 0.01826 0.0
N31 N 0.34601 0.22338 0.10474 0.0
C32 C 0.34111 0.24152 0.12483 0.0
C33 C 0.30778 0.26876 0.10064 0.0
C34 C 0.3148 0.25204 0.07995 0.0
C35 C 0.3216 0.26401 0.12314 0.0
C36 C 0.33468 0.22969 0.08262 0.0
H37 H 0.34668 0.21961 1.00065 0.0
N38 N 0.36797 0.19813 0.06599 0.0
C39 C 0.37741 0.19742 0.02285 0.0
C40 C 0.34576 0.21627 0.06249 0.0
C41 C 0.38555 0.1905 0.04655 0.0
C42 C 0.3526 0.21388 0.01902 0.0
C43 C 0.33721 0.22443 0.03897 0.0
O44 O 0.43982 0.22523 0.09398 0.0
O45 O 0.38669 0.14012 0.12122 0.0
O46 O 0.37623 0.13359 0.16041 0.0
O47 O 0.37936 0.19262 0.14651 0.0
O48 O 0.42016 0.16788 0.09132 0.0
O49 O 0.41545 0.2453 0.12195 0.0
O50 O 0.26986 0.05464 0.14452 0.0
O51 O 0.3256 0.13979 0.12082 0.0
O52 O 0.33614 0.14086 0.07994 0.0
O53 O 0.3358 0.0851 0.09651 0.0
O54 O 0.29155 0.1113 0.1504 0.0
O55 O 0.29701 0.03542 0.11748 0.0
C56 C 0.4129 0.14047 0.10707 0.0
C57 C 0.46352 0.29556 0.0955 0.0
C58 C 0.51117 0.36891 0.0937 0.0
C59 C 0.49491 0.33143 0.10614 0.0
C60 C 0.49578 0.36919 0.07051 0.0
C61 C 0.44923 0.29783 0.07247 0.0
C62 C 0.46514 0.33417 0.06016 0.0
C63 C 0.38386 0.17082 0.16395 0.0
C64 C 0.44608 0.25552 0.10769 0.0
C65 C 0.3152 0.24445 0.03617 0.0
C66 C 0.30405 0.2583 0.05665 0.0
C67 C 0.29951 0.13928 0.13504 0.0
C68 C 0.24056 0.98457 0.13867 0.0
C69 C 0.19835 0.96267 0.13541 0.0
C70 C 0.17522 0.92322 0.14467 0.0
C71 C 0.1953 0.90603 0.15681 0.0
C72 C 0.2596 0.96668 0.15095 0.0
C73 C 0.23704 0.92758 0.15986 0.0
C74 C 0.32794 0.10271 0.07845 0.0
C75 C 0.2642 0.02616 0.12947 0.0
H76 H 0.50633 0.33016 0.1239 0.0
H77 H 0.50798 0.39657 0.05994 0.0
H78 H 0.42615 0.27134 0.06362 0.0
H79 H 0.45394 0.33513 0.04228 0.0
H80 H 0.18353 0.97664 0.12616 0.0
H81 H 0.17871 0.87567 0.16385 0.0
H82 H 0.29186 0.98291 0.15365 0.0
H83 H 0.25198 0.91391 0.16925 0.0
Tb84 Tb 0.79828 0.71304 0.37495 0.0
C85 C 0.93068 0.71467 0.43704 0.0
C86 C 0.99204 0.74847 0.4137 0.0
C87 C 0.99502 0.75251 0.45772 0.0
C88 C 0.94964 0.72568 0.41493 0.0
C89 C 0.95313 0.72681 0.45876 0.0
C90 C 1.01451 0.76324 0.43516 0.0
C91 C 0.89229 0.68193 0.48046 0.0
N92 N 0.89058 0.68832 0.43711 0.0
C93 C 0.8716 0.6702 0.45835 0.0
C94 C 0.93312 0.71092 0.48071 0.0
Tb95 Tb 0.85816 0.67213 0.40019 0.0
N96 N 0.92679 0.70986 0.39475 0.0
C97 C 0.94506 0.71289 0.37289 0.0
C98 C 1.0106 0.75371 0.39111 0.0
C99 C 0.98701 0.73512 0.3707 0.0
H100 H 0.84002 0.64775 0.45837 0.0
H101 H 1.0011 0.73809 0.35321 0.0
H102 H 0.04703 0.78143 0.43456 0.0
H103 H 0.87676 0.66845 0.49725 0.0
H104 H 0.9276 0.69884 0.35684 0.0
H105 H 0.657 0.63428 0.42402 0.0
H106 H 0.04307 0.7709 0.38935 0.0
H107 H 0.81631 0.73782 0.31685 0.0
H108 H 0.72982 0.67725 0.41999 0.0
H109 H 0.77818 0.72042 0.27847 0.0
H110 H 1.01279 0.76262 0.47419 0.0
H111 H 0.61422 0.60727 0.38752 0.0
H112 H 0.60884 0.60521 0.34202 0.0
H113 H 0.94924 0.71951 0.49781 0.0
H114 H 0.64179 0.62906 0.30233 0.0
N115 N 0.72991 0.67445 0.3812 0.0
C116 C 0.71222 0.66615 0.40367 0.0
C117 C 0.64651 0.62624 0.38554 0.0
C118 C 0.66432 0.63674 0.3626 0.0
C119 C 0.67054 0.64153 0.40615 0.0
C120 C 0.70653 0.66139 0.36106 0.0
H121 H 0.70458 0.6726 0.27866 0.0
N122 N 0.76522 0.69963 0.33849 0.0
C123 C 0.76281 0.70718 0.29534 0.0
C124 C 0.72485 0.67463 0.33889 0.0
C125 C 0.7843 0.71708 0.31718 0.0
C126 C 0.72142 0.68012 0.29545 0.0
C127 C 0.70183 0.66383 0.31742 0.0
O128 O 0.81951 0.77241 0.36288 0.0
O129 O 0.85729 0.72403 0.38606 0.0
O130 O 0.85586 0.71404 0.42757 0.0
O131 O 0.79917 0.71643 0.41448 0.0
O132 O 0.85435 0.75214 0.35523 0.0
O133 O 0.77953 0.74898 0.39344 0.0
O134 O 0.84485 0.61533 0.41409 0.0
O135 O 0.79918 0.66067 0.38897 0.0
O136 O 0.79635 0.66929 0.3491 0.0
O137 O 0.85608 0.67054 0.35938 0.0
O138 O 0.80202 0.63171 0.4191 0.0
O139 O 0.87332 0.63502 0.37964 0.0
C140 C 0.87859 0.74858 0.36972 0.0
C141 C 0.78006 0.80237 0.37124 0.0
C142 C 0.78265 0.86699 0.36504 0.0
C143 C 0.8003 0.84467 0.37362 0.0
C144 C 0.7441 0.84603 0.35447 0.0
C145 C 0.7418 0.78233 0.36057 0.0
C146 C 0.72391 0.80412 0.35234 0.0
C147 C 0.82707 0.72354 0.43083 0.0
C148 C 0.79993 0.77997 0.37935 0.0
C149 C 0.65999 0.63799 0.31865 0.0
C150 C 0.64124 0.6244 0.34124 0.0
C151 C 0.77753 0.63546 0.40496 0.0
C152 C 0.89102 0.59388 0.40262 0.0
C153 C 0.88331 0.55418 0.39797 0.0
C154 C 0.91185 0.54266 0.40486 0.0
C155 C 0.94814 0.57154 0.41566 0.0
C156 C 0.92738 0.62133 0.41376 0.0
C157 C 0.95577 0.61043 0.42002 0.0
C158 C 0.82694 0.66394 0.34357 0.0
C159 C 0.86173 0.60722 0.39615 0.0
H160 H 0.83014 0.8602 0.38158 0.0
H161 H 0.72938 0.86205 0.34794 0.0
H162 H 0.72587 0.74993 0.35854 0.0
H163 H 0.6943 0.78847 0.34416 0.0
H164 H 0.85514 0.53233 0.38967 0.0
H165 H 0.97069 0.56385 0.42095 0.0
H166 H 0.93393 0.65131 0.41777 0.0
H167 H 0.98373 0.6322 0.42852 0.0
Tb168 Tb 0.85268 0.19212 0.10506 0.0
C169 C 0.99066 0.31679 0.1706 0.0
C170 C 1.01476 0.38074 0.15055 0.0
C171 C 1.02213 0.3786 0.19422 0.0
C172 C 0.99575 0.33838 0.14973 0.0
C173 C 1.00447 0.33657 0.19306 0.0
C174 C 1.02715 0.40066 0.17298 0.0
C175 C 0.98439 0.27211 0.2113 0.0
N176 N 0.9737 0.27635 0.16866 0.0
C177 C 0.97113 0.25388 0.1886 0.0
C178 C 1.00112 0.31365 0.21354 0.0
Tb179 Tb 0.95347 0.24897 0.13065 0.0
N180 N 0.98428 0.318 0.12844 0.0
C181 C 0.99371 0.33882 0.10702 0.0
C182 C 1.02199 0.40183 0.12875 0.0
C183 C 1.01189 0.38077 0.10687 0.0
H184 H 0.95829 0.22176 0.18724 0.0
H185 H 1.01819 0.39682 0.08983 0.0
H186 H 0.04157 0.43315 0.174 0.0
H187 H 0.98195 0.25413 0.22702 0.0
H188 H 0.98656 0.32354 0.08982 0.0
H189 H 0.7712 0.04544 0.14707 0.0
H190 H 0.03637 0.43435 0.12858 0.0
H191 H 0.85583 0.2182 0.04712 0.0
H192 H 0.80903 0.11928 0.14624 0.0
H193 H 0.84014 0.18519 0.00707 0.0
H194 H 0.03268 0.39435 0.21135 0.0
H195 H 0.75877 1.00671 0.10905 0.0
H196 H 0.76504 1.00688 0.06363 0.0
H197 H 1.01227 0.32791 0.23096 0.0
H198 H 0.78457 0.04509 0.02538 0.0
N199 N 0.8192 0.12319 0.10801 0.0
C200 C 0.80403 0.1031 0.1294 0.0
C201 C 0.77547 0.03928 0.10852 0.0
C202 C 0.78936 0.05987 0.08655 0.0
C203 C 0.78235 0.06104 0.13 0.0
C204 C 0.81094 0.10232 0.0869 0.0
H205 H 0.81211 0.11163 0.00409 0.0
N206 N 0.83909 0.16423 0.0668 0.0
C207 C 0.83508 0.16753 0.02335 0.0
C208 C 0.82173 0.12364 0.0655 0.0
C209 C 0.84386 0.18612 0.04613 0.0
C210 C 0.81941 0.12604 0.02174 0.0
C211 C 0.81157 0.1034 0.04299 0.0
O212 O 0.81294 0.2116 0.09302 0.0
O213 O 0.90024 0.25013 0.11796 0.0
O214 O 0.91239 0.24979 0.15745 0.0
O215 O 0.85276 0.1919 0.14603 0.0
O216 O 0.86909 0.24948 0.08777 0.0
O217 O 0.79692 0.17158 0.12316 0.0
O218 O 0.99236 0.22681 0.13954 0.0
O219 O 0.90442 0.19124 0.11898 0.0
O220 O 0.89774 0.19373 0.0785 0.0
O221 O 0.95368 0.25316 0.09114 0.0
O222 O 0.93708 0.19102 0.14799 0.0
O223 O 1.00651 0.26849 0.11017 0.0
C224 C 0.89685 0.27282 0.10256 0.0
C225 C 0.74333 0.16427 0.0977 0.0
C226 C 0.66991 0.13861 0.09746 0.0
C227 C 0.70849 0.16211 0.1084 0.0
C228 C 0.66749 0.11826 0.07566 0.0
C229 C 0.73897 0.14313 0.0761 0.0
C230 C 0.70153 0.12039 0.06525 0.0
C231 C 0.87591 0.2197 0.16245 0.0
C232 C 0.78444 0.18927 0.10823 0.0
C233 C 0.79228 0.0612 0.04248 0.0
C234 C 0.78112 0.03945 0.06425 0.0
C235 C 0.90791 0.16823 0.1339 0.0
C236 C 0.06126 0.26819 0.13029 0.0
C237 C 0.08352 0.24796 0.12843 0.0
C238 C 0.12405 0.26666 0.13624 0.0
C239 C 0.14192 0.30614 0.14543 0.0
C240 C 0.07989 0.30737 0.13967 0.0
C241 C 0.12004 0.32623 0.14706 0.0
C242 C 0.9344 0.2251 0.07462 0.0
C243 C 1.0185 0.24777 0.12289 0.0
H244 H 0.7114 0.1784 0.12504 0.0
H245 H 0.63916 0.10113 0.06616 0.0
H246 H 0.76464 0.14472 0.0672 0.0
H247 H 0.69895 0.10467 0.04842 0.0
H248 H 0.06904 0.21746 0.12149 0.0
H249 H 0.17304 0.32165 0.1513 0.0
H250 H 0.06341 0.32337 0.1413 0.0
H251 H 0.13425 0.35655 0.1542 0.0
Tb252 Tb 0.33542 0.09673 0.37503 0.0
C253 C 0.33511 0.22677 0.43853 0.0
C254 C 0.30134 0.25484 0.41564 0.0
C255 C 0.29748 0.25311 0.45967 0.0
C256 C 0.32405 0.23511 0.41657 0.0
C257 C 0.32315 0.23684 0.46041 0.0
C258 C 0.28668 0.26224 0.43726 0.0
C259 C 0.36827 0.22065 0.48167 0.0
N260 N 0.36142 0.21297 0.4383 0.0
C261 C 0.37981 0.21194 0.45942 0.0
C262 C 0.33924 0.23247 0.48222 0.0
Tb263 Tb 0.37721 0.197 0.40116 0.0
N264 N 0.33978 0.22836 0.39625 0.0
C265 C 0.33692 0.24418 0.37457 0.0
C266 C 0.29613 0.26862 0.39321 0.0
C267 C 0.31475 0.26401 0.37268 0.0
H268 H 0.40227 0.2028 0.45919 0.0
H269 H 0.31185 0.27552 0.35533 0.0
H270 H 0.26855 0.27667 0.4369 0.0
H271 H 0.38192 0.21843 0.49835 0.0
H272 H 0.35099 0.24108 0.35842 0.0
H273 H 0.41302 0.03143 0.42258 0.0
H274 H 0.279 0.284 0.3917 0.0
H275 H 0.31073 0.09178 0.31698 0.0
H276 H 0.37012 0.06148 0.41931 0.0
H277 H 0.32948 0.07386 0.27813 0.0
H278 H 0.2875 0.26058 0.47627 0.0
H279 H 0.4408 1.01758 0.38569 0.0
H280 H 0.44391 1.01679 0.34013 0.0
H281 H 0.33079 0.23981 0.49944 0.0
H282 H 0.42095 0.0281 0.3007 0.0
N283 N 0.37354 0.06623 0.38058 0.0
C284 C 0.38149 0.05578 0.40282 0.0
C285 C 0.42179 0.03092 0.38404 0.0
C286 C 0.4117 0.03937 0.36129 0.0
C287 C 0.40608 0.03858 0.40487 0.0
C288 C 0.38695 0.05687 0.3602 0.0
H289 H 0.37822 0.04905 0.27754 0.0
N290 N 0.34886 0.07817 0.3382 0.0
C291 C 0.34232 0.07068 0.29488 0.0
C292 C 0.37403 0.06297 0.33819 0.0
C293 C 0.33165 0.0807 0.317 0.0
C294 C 0.3698 0.05682 0.29458 0.0
C295 C 0.3855 0.05216 0.31643 0.0
O296 O 0.2759 0.05952 0.36278 0.0
O297 O 0.32474 0.14473 0.38689 0.0
O298 O 0.3362 0.15239 0.42873 0.0
O299 O 0.33219 0.09311 0.41453 0.0
O300 O 0.29679 0.11464 0.35571 0.0
O301 O 0.29903 0.04148 0.39279 0.0
O302 O 0.43432 0.23984 0.4151 0.0
O303 O 0.38806 0.14937 0.38936 0.0
O304 O 0.37964 0.13892 0.34954 0.0
O305 O 0.37845 0.19718 0.36027 0.0
O306 O 0.41761 0.18066 0.41955 0.0
O307 O 0.41465 0.24945 0.3809 0.0
C308 C 0.30032 0.14202 0.37054 0.0
C309 C 0.24514 0.98985 0.37011 0.0
C310 C 0.18 0.92862 0.36335 0.0
C311 C 0.20281 0.96811 0.3726 0.0
C312 C 0.20051 0.91118 0.35199 0.0
C313 C 0.26473 0.97177 0.35866 0.0
C314 C 0.24245 0.93256 0.34977 0.0
C315 C 0.32632 0.11392 0.43149 0.0
C316 C 0.26804 0.03175 0.37882 0.0
C317 C 0.41151 0.0363 0.31725 0.0
C318 C 0.4246 0.0299 0.33968 0.0
C319 C 0.41333 0.15246 0.4052 0.0
C320 C 0.45651 0.30777 0.4042 0.0
C321 C 0.49649 0.33945 0.39976 0.0
C322 C 0.50857 0.37947 0.40706 0.0
C323 C 0.48004 0.38714 0.41812 0.0
C324 C 0.42936 0.31696 0.41552 0.0
C325 C 0.44087 0.35621 0.42223 0.0
C326 C 0.3849 0.17483 0.34421 0.0
C327 C 0.44261 0.26516 0.39737 0.0
H328 H 0.18763 0.98231 0.38116 0.0
H329 H 0.18411 0.8808 0.34493 0.0
H330 H 0.29714 0.98802 0.35651 0.0
H331 H 0.25774 0.9187 0.34097 0.0
H332 H 0.5181 0.33292 0.3913 0.0
H333 H 0.48824 0.41734 0.42378 0.0
H334 H 0.39914 0.29377 0.41932 0.0
H335 H 0.41936 0.36263 0.43091 0.0
Tb336 Tb 0.84742 0.66646 0.10576 0.0
C337 C 0.73127 0.68026 0.17853 0.0
C338 C 0.66435 0.64151 0.16177 0.0
C339 C 0.67338 0.6492 0.20548 0.0
C340 C 0.70645 0.6645 0.15872 0.0
C341 C 0.71515 0.67315 0.20218 0.0
C342 C 0.64798 0.63342 0.18528 0.0
C343 C 0.78252 0.71532 0.21743 0.0
N344 N 0.77136 0.70329 0.17452 0.0
C345 C 0.79702 0.72171 0.19363 0.0
C346 C 0.74144 0.69073 0.22173 0.0
Tb347 Tb 0.79257 0.71037 0.13484 0.0
N348 N 0.72352 0.67326 0.13639 0.0
C349 C 0.69962 0.66203 0.11618 0.0
C350 C 0.63997 0.62821 0.1411 0.0
C351 C 0.6577 0.639 0.11821 0.0
H352 H 0.82894 0.74044 0.19088 0.0
H353 H 0.63912 0.62952 0.10207 0.0
H354 H 0.61574 0.61561 0.18801 0.0
H355 H 0.80309 0.72928 0.23245 0.0
H356 H 0.7125 0.66995 0.09828 0.0
H357 H 0.99758 0.73199 0.14296 0.0
H358 H 0.6075 0.61043 0.14263 0.0
H359 H 0.81796 0.64098 0.04874 0.0
H360 H 0.92364 0.69368 0.1441 0.0
H361 H 0.84758 0.6597 0.00774 0.0
H362 H 0.66041 0.64323 0.22353 0.0
H363 H 0.03304 0.763 0.10461 0.0
H364 H 0.029 0.7717 0.0596 0.0
H365 H 0.73031 0.68593 0.24012 0.0
H366 H 0.98776 0.75201 0.02245 0.0
N367 N 0.91649 0.70346 0.10677 0.0
C368 C 0.9384 0.70686 0.12715 0.0
C369 C 1.00043 0.7462 0.10496 0.0
C370 C 0.97799 0.74041 0.08382 0.0
C371 C 0.98052 0.7286 0.12661 0.0
C372 C 0.93561 0.71819 0.08533 0.0
H373 H 0.92 0.70925 1.00285 0.0
N374 N 0.87267 0.68092 0.06694 0.0
C375 C 0.86624 0.6733 0.02357 0.0
C376 C 0.91271 0.7066 0.06455 0.0
C377 C 0.8496 0.66264 0.04684 0.0
C378 C 0.90707 0.70145 0.02088 0.0
C379 C 0.9311 0.71767 0.04153 0.0
O380 O 0.83281 0.60927 0.09186 0.0
O381 O 0.79071 0.65703 0.11987 0.0
O382 O 0.79208 0.66594 0.15934 0.0
O383 O 0.85076 0.66696 0.14666 0.0
O384 O 0.78813 0.6234 0.09074 0.0
O385 O 0.86526 0.63034 0.1251 0.0
O386 O 0.81665 0.77185 0.14326 0.0
O387 O 0.84948 0.71898 0.12111 0.0
O388 O 0.84166 0.70864 0.07993 0.0
O389 O 0.78396 0.7055 0.09561 0.0
O390 O 0.85163 0.75206 0.15058 0.0
O391 O 0.76999 0.74324 0.11658 0.0
C392 C 0.76627 0.6297 0.10573 0.0
C393 C 0.88026 0.5882 0.10089 0.0
C394 C 0.90196 0.53756 0.09824 0.0
C395 C 0.87434 0.54944 0.10667 0.0
C396 C 0.93571 0.56533 0.08486 0.0
C397 C 0.91391 0.61433 0.08702 0.0
C398 C 0.94155 0.60325 0.07934 0.0
C399 C 0.82293 0.66039 0.1635 0.0
C400 C 0.8518 0.60188 0.10888 0.0
C401 C 0.97305 0.74275 0.03995 0.0
C402 C 0.99651 0.75401 0.0611 0.0
C403 C 0.87344 0.74562 0.13573 0.0
C404 C 0.77526 0.80036 0.13705 0.0
C405 C 0.79615 0.84267 0.13422 0.0
C406 C 0.77995 0.86602 0.14341 0.0
C407 C 0.74217 0.84607 0.15498 0.0
C408 C 0.73786 0.78147 0.14881 0.0
C409 C 0.72139 0.80425 0.15758 0.0
C410 C 0.81059 0.71514 0.07802 0.0
C411 C 0.79333 0.77657 0.12815 0.0
H412 H 0.84813 0.52848 0.11699 0.0
H413 H 0.95754 0.55743 0.07835 0.0
H414 H 0.9188 0.64338 0.0819 0.0
H415 H 0.96746 0.62404 0.06876 0.0
H416 H 0.82533 0.85738 0.12542 0.0
H417 H 0.72851 0.86284 0.16197 0.0
H418 H 0.72144 0.74915 0.15124 0.0
H419 H 0.69242 0.78945 0.16656 0.0
Tb420 Tb 0.95065 0.24943 0.37124 0.0
C421 C 0.82666 0.12503 0.44044 0.0
C422 C 0.79634 0.06069 0.42013 0.0
C423 C 0.80233 0.06374 0.46408 0.0
C424 C 0.81615 0.10308 0.41931 0.0
C425 C 0.8188 0.10566 0.46316 0.0
C426 C 0.79097 0.04124 0.44255 0.0
C427 C 0.83787 0.16947 0.48212 0.0
N428 N 0.84067 0.16505 0.43868 0.0
C429 C 0.8445 0.1871 0.45912 0.0
C430 C 0.82562 0.12868 0.48418 0.0
Tb431 Tb 0.85224 0.19206 0.40029 0.0
N432 N 0.82098 0.12309 0.39817 0.0
C433 C 0.80324 0.10199 0.37741 0.0
C434 C 0.78047 0.03916 0.39862 0.0
C435 C 0.78321 0.05991 0.37727 0.0
H436 H 0.85415 0.21871 0.45774 0.0
H437 H 0.77012 0.04354 0.36063 0.0
H438 H 0.77646 1.00875 0.44352 0.0
H439 H 0.84215 0.18734 0.49822 0.0
H440 H 0.80503 0.11733 0.36068 0.0
H441 H 1.02017 0.40015 0.40856 0.0
H442 H 0.76494 1.00658 0.39845 0.0
H443 H 0.94741 0.21856 0.31421 0.0
H444 H 0.99042 0.32703 0.41016 0.0
H445 H 0.95811 0.24724 0.27323 0.0
H446 H 0.79648 0.0483 0.48134 0.0
H447 H 0.02909 0.43438 0.36915 0.0
H448 H 1.02369 0.42944 0.32362 0.0
H449 H 0.82001 0.11496 0.50199 0.0
H450 H 1.00671 0.38773 0.28673 0.0
N451 N 0.98138 0.31852 0.37188 0.0
C452 C 0.99414 0.34097 0.39269 0.0
C453 C 1.01602 0.402 0.36968 0.0
C454 C 1.00495 0.37925 0.34834 0.0
C455 C 1.01111 0.3828 0.39193 0.0
C456 C 0.98797 0.33718 0.3501 0.0
H457 H 0.98147 0.31963 0.26788 0.0
N458 N 0.96432 0.27404 0.33227 0.0
C459 C 0.96427 0.26643 0.28893 0.0
C460 C 0.97914 0.31408 0.32952 0.0
C461 C 0.95835 0.25031 0.31233 0.0
C462 C 0.97753 0.30728 0.28594 0.0
C463 C 0.98601 0.33185 0.30636 0.0
O464 O 0.98822 0.22637 0.36098 0.0
O465 O 0.90373 0.19173 0.38495 0.0
O466 O 0.90029 0.19851 0.42633 0.0
O467 O 0.95502 0.25614 0.41065 0.0
O468 O 0.93319 0.19124 0.35418 0.0
O469 O 1.00665 0.27133 0.38879 0.0
O470 O 0.80946 0.20623 0.41446 0.0
O471 O 0.89871 0.24955 0.38676 0.0
O472 O 0.9058 0.24931 0.34712 0.0
O473 O 0.84931 0.18958 0.3594 0.0
O474 O 0.86752 0.25015 0.4165 0.0
O475 O 0.79837 0.1746 0.38091 0.0
C476 C 0.90622 0.16866 0.36952 0.0
C477 C 0.05815 0.26694 0.36723 0.0
C478 C 0.11946 0.26277 0.36099 0.0
C479 C 0.08009 0.24663 0.37041 0.0
C480 C 0.13657 0.29992 0.34877 0.0
C481 C 0.0759 0.30373 0.35488 0.0
C482 C 0.11499 0.32016 0.34583 0.0
C483 C 0.93784 0.22961 0.42826 0.0
C484 C 1.01642 0.24864 0.37629 0.0
C485 C 1.00143 0.37351 0.30437 0.0
C486 C 1.01103 0.39722 0.32536 0.0
C487 C 0.89522 0.27288 0.40154 0.0
C488 C 0.74111 0.15925 0.40505 0.0
C489 C 0.70874 0.16638 0.40018 0.0
C490 C 0.66918 0.13884 0.40841 0.0
C491 C 0.66264 0.104 0.42074 0.0
C492 C 0.73308 0.12443 0.41777 0.0
C493 C 0.69425 0.09692 0.42532 0.0
C494 C 0.86996 0.21786 0.34273 0.0
C495 C 0.78326 0.18772 0.39728 0.0
H496 H 0.06614 0.21788 0.37967 0.0
H497 H 0.16685 0.31353 0.34157 0.0
H498 H 0.0595 0.31964 0.35216 0.0
H499 H 0.12861 0.34866 0.33636 0.0
H500 H 0.71444 0.19344 0.3907 0.0
H501 H 0.6328 0.08219 0.42706 0.0
H502 H 0.75688 0.11846 0.42206 0.0
H503 H 0.6887 0.07011 0.43502 0.0
Tb504 Tb 0.09957 0.3221 0.63365 0.0
C505 C 0.23152 0.32618 0.56995 0.0
C506 C 0.2599 0.29251 0.59262 0.0
C507 C 0.25932 0.29011 0.54855 0.0
C508 C 0.23948 0.31456 0.59183 0.0
C509 C 0.24242 0.31522 0.548 0.0
C510 C 0.26822 0.27887 0.57089 0.0
C511 C 0.22553 0.36007 0.5271 0.0
N512 N 0.21704 0.35192 0.57037 0.0
C513 C 0.21593 0.37059 0.54942 0.0
C514 C 0.23815 0.33169 0.52632 0.0
Tb515 Tb 0.19994 0.36624 0.60756 0.0
N516 N 0.23185 0.32933 0.61228 0.0
C517 C 0.24761 0.32634 0.63396 0.0
C518 C 0.27342 0.28694 0.61505 0.0
C519 C 0.26796 0.30465 0.63573 0.0
H520 H 0.20612 0.39252 0.54984 0.0
H521 H 0.27933 0.30156 0.65309 0.0
H522 H 0.28316 0.26123 0.57114 0.0
H523 H 0.2233 0.37398 0.51054 0.0
H524 H 0.24412 0.33992 0.6502 0.0
H525 H 0.03042 0.4002 0.59164 0.0
H526 H 0.28928 0.27027 0.61646 0.0
H527 H 0.098 0.29422 0.69106 0.0
H528 H 0.06291 0.35912 0.59224 0.0
H529 H 0.07948 0.30852 0.73103 0.0
H530 H 0.26745 0.2809 0.53189 0.0
H531 H 1.01575 0.42367 0.63007 0.0
H532 H 1.01536 0.42269 0.67571 0.0
H533 H 0.24612 0.324 0.50906 0.0
H534 H 0.02826 0.39727 0.71371 0.0
N535 N 0.06816 0.35965 0.63085 0.0
C536 C 0.05692 0.36885 0.6093 0.0
C537 C 0.0302 0.40557 0.63051 0.0
C538 C 0.03956 0.39414 0.65254 0.0
C539 C 0.03832 0.39228 0.6088 0.0
C540 C 0.05841 0.37061 0.65205 0.0
H541 H 0.05157 0.35418 0.7344 0.0
N542 N 0.08173 0.33215 0.67171 0.0
C543 C 0.07538 0.32219 0.71492 0.0
C544 C 0.06525 0.35615 0.67327 0.0
C545 C 0.08575 0.31407 0.69211 0.0
C546 C 0.05979 0.34808 0.71679 0.0
C547 C 0.05407 0.36505 0.6958 0.0
O548 O 0.06217 0.26175 0.64431 0.0
O549 O 0.14815 0.3126 0.62112 0.0
O550 O 0.15549 0.32607 0.57961 0.0
O551 O 0.09584 0.32102 0.59408 0.0
O552 O 0.11806 0.2831 0.65186 0.0
O553 O 0.04443 0.28727 0.61545 0.0
O554 O 0.24474 0.42236 0.59347 0.0
O555 O 0.15145 0.37559 0.6194 0.0
O556 O 0.14122 0.36687 0.65901 0.0
O557 O 0.19978 0.36631 0.64839 0.0
O558 O 0.18319 0.4072 0.59004 0.0
O559 O 0.2499 0.40462 0.62933 0.0
C560 C 0.14579 0.28773 0.63702 0.0
C561 C 0.99241 0.23269 0.63733 0.0
C562 C 0.93062 0.16797 0.64381 0.0
C563 C 0.97035 0.1904 0.63485 0.0
C564 C 0.91329 0.18883 0.65487 0.0
C565 C 0.97444 0.25258 0.64853 0.0
C566 C 0.93502 0.2307 0.65715 0.0
C567 C 0.11683 0.31574 0.57694 0.0
C568 C 0.03433 0.25536 0.62858 0.0
C569 C 0.03683 0.38985 0.69657 0.0
C570 C 0.02956 0.40437 0.67494 0.0
C571 C 0.1542 0.40149 0.60416 0.0
C572 C 0.31113 0.44518 0.60844 0.0
C573 C 0.34196 0.48495 0.61398 0.0
C574 C 0.38311 0.49604 0.61155 0.0
C575 C 0.39275 0.46714 0.60356 0.0
C576 C 0.32219 0.41771 0.59978 0.0
C577 C 0.36252 0.42844 0.59754 0.0
C578 C 0.17732 0.37266 0.66438 0.0
C579 C 0.26772 0.43157 0.61253 0.0
H580 H 0.98446 0.17497 0.62647 0.0
H581 H 0.88272 0.17276 0.66169 0.0
H582 H 0.99087 0.28496 0.65064 0.0
H583 H 0.92125 0.24625 0.66572 0.0
H584 H 0.33409 0.50689 0.62029 0.0
H585 H 0.4239 0.47488 0.60136 0.0
H586 H 0.29971 0.38779 0.59476 0.0
H587 H 0.37038 0.40665 0.59098 0.0
Tb588 Tb 0.19742 0.84041 0.89952 0.0
C589 C 0.32934 0.97806 0.83788 0.0
C590 C 0.3906 1.00044 0.86083 0.0
C591 C 0.3938 1.00845 0.81702 0.0
C592 C 0.3483 0.98236 0.85976 0.0
C593 C 0.35184 0.99189 0.81628 0.0
C594 C 0.41316 1.01259 0.83928 0.0
C595 C 0.29012 0.97466 0.79516 0.0
N596 N 0.28886 0.96217 0.83797 0.0
C597 C 0.26913 0.9613 0.81707 0.0
C598 C 0.33166 0.98982 0.79474 0.0
Tb599 Tb 0.2569 0.94147 0.87469 0.0
N600 N 0.32544 0.97104 0.88014 0.0
C601 C 0.34372 0.97989 0.90243 0.0
C602 C 0.40904 1.00702 0.88355 0.0
C603 C 0.38551 0.99724 0.90445 0.0
H604 H 0.23705 0.94965 0.81712 0.0
H605 H 0.39952 1.00303 0.92217 0.0
H606 H 0.44564 0.02626 0.8397 0.0
H607 H 0.27426 0.97346 0.77865 0.0
H608 H 0.32649 0.9727 0.91895 0.0
H609 H 0.05471 0.76399 0.85223 0.0
H610 H 0.44142 0.02068 0.88517 0.0
H611 H 0.21511 0.83264 0.95755 0.0
H612 H 0.12818 0.79822 0.856 0.0
H613 H 0.17817 0.8159 0.99638 0.0
H614 H 0.41161 0.01895 0.80058 0.0
H615 H 1.01251 0.75433 0.88834 0.0
H616 H 1.0083 0.76035 0.93358 0.0
H617 H 0.34812 1.00083 0.7779 0.0
H618 H 0.04234 0.77511 0.97327 0.0
N619 N 0.12879 0.8096 0.89397 0.0
C620 C 0.11063 0.79462 0.87203 0.0
C621 C 0.04498 0.76962 0.89016 0.0
C622 C 0.06342 0.78267 0.9128 0.0
C623 C 0.06869 0.77489 0.86977 0.0
C624 C 0.10581 0.80228 0.91412 0.0
H625 H 0.10575 0.79488 0.99693 0.0
N626 N 0.16475 0.82351 0.93634 0.0
C627 C 0.16276 0.81433 0.97961 0.0
C628 C 0.12466 0.80987 0.93625 0.0
C629 C 0.18356 0.8237 0.95754 0.0
C630 C 0.12196 0.80272 0.97986 0.0
C631 C 0.10209 0.79916 0.95792 0.0
O632 O 0.21143 0.79724 0.91318 0.0
O633 O 0.25627 0.88798 0.88816 0.0
O634 O 0.25855 0.90046 0.84808 0.0
O635 O 0.19955 0.8414 0.85864 0.0
O636 O 0.25355 0.85601 0.9183 0.0
O637 O 0.18222 0.78815 0.87897 0.0
O638 O 0.23468 0.97949 0.86399 0.0
O639 O 0.19814 0.89332 0.88589 0.0
O640 O 0.20052 0.88431 0.92746 0.0
O641 O 0.25687 0.94348 0.91426 0.0
O642 O 0.20058 0.92484 0.85539 0.0
O643 O 0.27684 0.99614 0.8934 0.0
C644 C 0.27788 0.88424 0.90413 0.0
C645 C 0.16539 0.72955 0.902 0.0
C646 C 0.14589 0.65798 0.90525 0.0
C647 C 0.17402 0.69797 0.89812 0.0
C648 C 0.10919 0.65018 0.9156 0.0
C649 C 0.1285 0.72025 0.91259 0.0
C650 C 0.10061 0.68102 0.91916 0.0
C651 C 0.22822 0.86434 0.84265 0.0
C652 C 0.1943 0.77214 0.89534 0.0
C653 C 0.0602 0.78306 0.95682 0.0
C654 C 0.04083 0.77467 0.93424 0.0
C655 C 0.17659 0.89675 0.86976 0.0
C656 C 0.27506 0.04884 0.87179 0.0
C657 C 0.25476 0.07083 0.87438 0.0
C658 C 0.27196 0.11056 0.86554 0.0
C659 C 0.31011 0.128 0.85447 0.0
C660 C 0.31297 0.06692 0.86065 0.0
C661 C 0.3304 0.10637 0.85214 0.0
C662 C 0.2294 0.9225 0.93079 0.0
C663 C 0.25556 1.00675 0.88012 0.0
H664 H 0.20255 0.70457 0.89021 0.0
H665 H 0.08704 0.61997 0.92112 0.0
H666 H 0.12116 0.74334 0.91591 0.0
H667 H 0.07227 0.67453 0.92728 0.0
H668 H 0.22521 0.05665 0.88271 0.0
H669 H 0.32444 0.15856 0.84771 0.0
H670 H 0.32896 0.05051 0.85846 0.0
H671 H 0.35972 0.12021 0.84359 0.0
Tb672 Tb 0.72179 0.78511 0.63477 0.0
C673 C 0.71606 0.90534 0.56455 0.0
C674 C 0.7475 0.97072 0.58375 0.0
C675 C 0.74917 0.96584 0.53984 0.0
C676 C 0.72666 0.92835 0.5853 0.0
C677 C 0.72615 0.92374 0.5415 0.0
C678 C 0.75977 0.98932 0.56096 0.0
C679 C 0.68518 0.85815 0.52356 0.0
N680 N 0.6927 0.86493 0.56695 0.0
C681 C 0.67545 0.84142 0.54682 0.0
C682 C 0.71116 0.89943 0.52086 0.0
Tb683 Tb 0.67845 0.8401 0.60588 0.0
N684 N 0.71388 0.90919 0.60691 0.0
C685 C 0.71839 0.93095 0.62755 0.0
C686 C 0.75392 0.99304 0.60502 0.0
C687 C 0.73872 0.97301 0.62696 0.0
H688 H 0.65527 0.80947 0.54865 0.0
H689 H 0.74287 0.98995 0.64347 0.0
H690 H 0.77627 0.02181 0.55942 0.0
H691 H 0.67246 0.8392 0.50773 0.0
H692 H 0.70696 0.91611 0.64473 0.0
H693 H 0.63593 0.63329 0.59983 0.0
H694 H 0.76975 0.02562 0.60462 0.0
H695 H 0.75367 0.81903 0.69083 0.0
H696 H 0.67736 0.70653 0.59695 0.0
H697 H 0.74449 0.79139 0.73192 0.0
H698 H 0.75759 0.98056 0.52231 0.0
H699 H 0.61884 0.60011 0.63998 0.0
H700 H 0.62665 0.60641 0.68534 0.0
H701 H 0.71825 0.91239 0.50282 0.0
H702 H 0.65664 0.64942 0.72129 0.0
N703 N 0.68347 0.71611 0.63528 0.0
C704 C 0.6705 0.69305 0.61471 0.0
C705 C 0.63713 0.63256 0.63887 0.0
C706 C 0.65199 0.65602 0.65982 0.0
C707 C 0.64678 0.65117 0.6162 0.0
C708 C 0.6755 0.69816 0.65734 0.0
H709 H 0.70136 0.71833 0.73865 0.0
N710 N 0.71532 0.76229 0.67396 0.0
C711 C 0.72952 0.77154 0.71674 0.0
C712 C 0.69221 0.72211 0.67741 0.0
C713 C 0.73475 0.78707 0.69324 0.0
C714 C 0.70498 0.73033 0.72051 0.0
C715 C 0.68609 0.70497 0.70074 0.0
O716 O 0.78344 0.80886 0.64275 0.0
O717 O 0.7308 0.842 0.62109 0.0
O718 O 0.7219 0.83584 0.58027 0.0
O719 O 0.71704 0.77737 0.59551 0.0
O720 O 0.7634 0.84411 0.65078 0.0
O721 O 0.75401 0.76193 0.61634 0.0
O722 O 0.61943 0.82031 0.59332 0.0
O723 O 0.66772 0.78321 0.62072 0.0
O724 O 0.67923 0.78587 0.6603 0.0
O725 O 0.6784 0.84331 0.64686 0.0
O726 O 0.6374 0.78149 0.59001 0.0
O727 O 0.64314 0.8615 0.62297 0.0
C728 C 0.75714 0.8659 0.63582 0.0
C729 C 0.81129 0.76687 0.63635 0.0
C730 C 0.87662 0.76997 0.64109 0.0
C731 C 0.85337 0.78666 0.63243 0.0
C732 C 0.85666 0.73284 0.65336 0.0
C733 C 0.79247 0.73016 0.64881 0.0
C734 C 0.81507 0.71324 0.65715 0.0
C735 C 0.72777 0.80443 0.57814 0.0
C736 C 0.78766 0.78521 0.62764 0.0
C737 C 0.66189 0.66315 0.70349 0.0
C738 C 0.64481 0.63869 0.68304 0.0
C739 C 0.64131 0.75921 0.60588 0.0
C740 C 0.59715 0.86788 0.59677 0.0
C741 C 0.56491 0.8711 0.60727 0.0
C742 C 0.55003 0.89433 0.59577 0.0
C743 C 0.56764 0.91328 0.5736 0.0
C744 C 0.61369 0.88769 0.5748 0.0
C745 C 0.59912 0.91011 0.56338 0.0
C746 C 0.67298 0.81635 0.66407 0.0
C747 C 0.61314 0.84326 0.60798 0.0
H748 H 0.86799 0.81533 0.62309 0.0
H749 H 0.87317 0.71865 0.65991 0.0
H750 H 0.76033 0.71458 0.65206 0.0
H751 H 0.80029 0.68476 0.66665 0.0
H752 H 0.55178 0.8559 0.62422 0.0
H753 H 0.55658 0.93018 0.56371 0.0
H754 H 0.63754 0.88534 0.56609 0.0
H755 H 0.61205 0.92481 0.54629 0.0
Tb756 Tb 0.20565 0.36673 0.90158 0.0
C757 C 0.06936 0.3596 0.83779 0.0
C758 C 0.04615 0.39929 0.85907 0.0
C759 C 0.0413 0.3942 0.81511 0.0
C760 C 0.06389 0.37473 0.85916 0.0
C761 C 0.0576 0.36855 0.81549 0.0
C762 C 0.0356 0.40957 0.83689 0.0
C763 C 0.07658 0.32422 0.79587 0.0
N764 N 0.08506 0.33491 0.83899 0.0
C765 C 0.08762 0.31613 0.81846 0.0
C766 C 0.06185 0.35085 0.79435 0.0
Tb767 Tb 0.10441 0.32505 0.87661 0.0
N768 N 0.07415 0.3637 0.88013 0.0
C769 C 0.06458 0.37405 0.90191 0.0
C770 C 0.03858 0.41185 0.88128 0.0
C771 C 0.04732 0.39868 0.9028 0.0
H772 H 0.09925 0.29573 0.81923 0.0
H773 H 0.04085 0.40753 0.92012 0.0
H774 H 1.02223 0.42865 0.83643 0.0
H775 H 0.07954 0.30998 0.77965 0.0
H776 H 0.07094 0.36445 0.91886 0.0
H777 H 0.28369 0.30022 0.85649 0.0
H778 H 1.02512 0.43083 0.88203 0.0
H779 H 0.20817 0.39054 0.95973 0.0
H780 H 0.24871 0.33898 0.85909 0.0
H781 H 0.22346 0.37057 0.9991 0.0
H782 H 0.03232 0.40168 0.79814 0.0
H783 H 0.29306 0.26893 0.89328 0.0
H784 H 0.28609 0.2597 0.93857 0.0
H785 H 0.05316 0.357 0.77691 0.0
H786 H 0.2693 0.27876 0.97771 0.0
N787 N 0.2369 0.32924 0.89706 0.0
C788 C 0.25232 0.32563 0.87541 0.0
C789 C 0.27753 0.28594 0.89458 0.0
C790 C 0.26387 0.2917 0.91693 0.0
C791 C 0.2724 0.30367 0.87381 0.0
C792 C 0.24392 0.31419 0.91758 0.0
H793 H 0.24676 0.32098 1.00051 0.0
N794 N 0.22074 0.35116 0.93901 0.0
C795 C 0.22671 0.35745 0.98246 0.0
C796 C 0.23526 0.32543 0.93945 0.0
C797 C 0.21825 0.36882 0.96009 0.0
C798 C 0.23965 0.3293 0.98319 0.0
C799 C 0.24511 0.3137 0.96147 0.0
O800 O 0.24907 0.4237 0.91531 0.0
O801 O 0.15809 0.37787 0.88998 0.0
O802 O 0.14601 0.36803 0.85045 0.0
O803 O 0.20468 0.36701 0.86071 0.0
O804 O 0.19093 0.40874 0.9195 0.0
O805 O 0.25818 0.40323 0.88113 0.0
O806 O 0.06615 0.26438 0.86696 0.0
O807 O 0.15279 0.31477 0.88784 0.0
O808 O 0.16073 0.32459 0.92857 0.0
O809 O 0.10409 0.32736 0.9162 0.0
O810 O 0.12039 0.28421 0.85801 0.0
O811 O 0.05035 0.29102 0.89612 0.0
C812 C 0.16243 0.40426 0.90535 0.0
C813 C 0.31687 0.44535 0.90416 0.0
C814 C 0.38855 0.49755 0.90701 0.0
C815 C 0.34846 0.48536 0.89979 0.0
C816 C 0.39642 0.46908 0.91791 0.0
C817 C 0.32624 0.41828 0.91537 0.0
C818 C 0.36558 0.42988 0.92198 0.0
C819 C 0.18188 0.37325 0.84487 0.0
C820 C 0.27419 0.43145 0.89747 0.0
C821 C 0.26191 0.2885 0.96099 0.0
C822 C 0.27143 0.27761 0.93871 0.0
C823 C 0.14901 0.28909 0.87216 0.0
C824 C 0.99696 0.23591 0.8751 0.0
C825 C 0.97556 0.19346 0.87661 0.0
C826 C 0.93574 0.17099 0.86778 0.0
C827 C 0.9176 0.1919 0.85789 0.0
C828 C 0.97817 0.25586 0.86505 0.0
C829 C 0.93862 0.23389 0.85663 0.0
C830 C 0.12385 0.3188 0.93249 0.0
C831 C 0.03928 0.25865 0.88322 0.0
H832 H 0.34178 0.50693 0.89146 0.0
H833 H 0.42669 0.47735 0.9235 0.0
H834 H 0.30312 0.38808 0.91919 0.0
H835 H 0.37213 0.40842 0.93055 0.0
H836 H 0.99028 0.17797 0.88404 0.0
H837 H 0.88696 0.17573 0.8512 0.0
H838 H 0.99412 0.28834 0.86361 0.0
H839 H 0.92424 0.24948 0.84893 0.0
Tb840 Tb 0.25897 0.9414 0.63631 0.0
C841 C 0.14994 0.81871 0.56064 0.0
C842 C 0.08275 0.78285 0.57739 0.0
C843 C 0.09194 0.79165 0.53373 0.0
C844 C 0.1249 0.80485 0.5805 0.0
C845 C 0.13387 0.81134 0.53695 0.0
C846 C 0.06638 0.77736 0.55395 0.0
C847 C 0.20146 0.83855 0.52148 0.0
N848 N 0.19015 0.83654 0.56454 0.0
C849 C 0.21588 0.8447 0.54533 0.0
C850 C 0.16033 0.82237 0.51725 0.0
Tb851 Tb 0.21101 0.84547 0.60432 0.0
N852 N 0.14194 0.81043 0.60276 0.0
C853 C 0.11834 0.79177 0.62255 0.0
C854 C 0.05844 0.76568 0.5978 0.0
C855 C 0.07638 0.76963 0.62043 0.0
H856 H 0.24774 0.85722 0.54835 0.0
H857 H 0.05792 0.75582 0.63629 0.0
H858 H 0.03408 0.76098 0.5512 0.0
H859 H 0.22209 0.84617 0.50639 0.0
H860 H 0.13164 0.79459 0.64023 0.0
H861 H 0.41422 0.02191 0.6066 0.0
H862 H 1.02594 0.74856 0.59621 0.0
H863 H 0.21945 0.92999 0.69186 0.0
H864 H 0.34098 0.98773 0.60144 0.0
H865 H 0.2428 0.93879 0.734 0.0
H866 H 0.07897 0.78605 0.51569 0.0
H867 H 0.44372 0.03002 0.64756 0.0
H868 H 0.43297 0.02078 0.69271 0.0
H869 H 0.14919 0.81725 0.49877 0.0
H870 H 0.38621 0.99815 0.72743 0.0
N871 N 0.328 0.9756 0.63915 0.0
C872 C 0.35293 0.99105 0.61951 0.0
C873 C 0.41132 1.01501 0.64544 0.0
C874 C 0.38582 1.00095 0.66559 0.0
C875 C 0.39478 1.01057 0.62232 0.0
C876 C 0.34388 0.98163 0.66177 0.0
H877 H 0.31507 0.96677 0.74286 0.0
N878 N 0.27802 0.95271 0.67645 0.0
C879 C 0.26429 0.94779 0.71929 0.0
C880 C 0.31793 0.9698 0.68116 0.0
C881 C 0.25121 0.94299 0.6952 0.0
C882 C 0.30513 0.96368 0.72425 0.0
C883 C 0.33266 0.97568 0.70512 0.0
O884 O 0.23277 0.97633 0.64638 0.0
O885 O 0.20429 0.89307 0.62024 0.0
O886 O 0.21569 0.89377 0.5792 0.0
O887 O 0.2698 0.94922 0.59722 0.0
O888 O 0.19824 0.91902 0.65101 0.0
O889 O 0.2794 0.99757 0.61944 0.0
O890 O 0.23411 0.80856 0.59251 0.0
O891 O 0.26526 0.89294 0.62066 0.0
O892 O 0.26101 0.897 0.65964 0.0
O893 O 0.20488 0.83902 0.64512 0.0
O894 O 0.27206 0.86634 0.5906 0.0
O895 O 0.18899 0.78773 0.62004 0.0
C896 C 0.17852 0.89232 0.63487 0.0
C897 C 0.27225 0.0468 0.64163 0.0
C898 C 0.26693 0.10735 0.64843 0.0
C899 C 0.25155 0.06839 0.63848 0.0
C900 C 0.30373 0.12438 0.66111 0.0
C901 C 0.30863 0.06452 0.6545 0.0
C902 C 0.32431 0.10317 0.66405 0.0
C903 C 0.24534 0.93217 0.5786 0.0
C904 C 0.25526 1.00566 0.63176 0.0
C905 C 0.37428 0.99352 0.70914 0.0
C906 C 0.40087 1.00631 0.68939 0.0
C907 C 0.2917 0.89334 0.6067 0.0
C908 C 0.18772 0.73807 0.59334 0.0
C909 C 0.18333 0.70203 0.6037 0.0
C910 C 0.16262 0.66478 0.59089 0.0
C911 C 0.14749 0.665 0.5676 0.0
C912 C 0.17153 0.7362 0.57024 0.0
C913 C 0.15171 0.70014 0.55756 0.0
C914 C 0.23114 0.85985 0.66277 0.0
C915 C 0.20986 0.77792 0.60588 0.0
H916 H 0.22315 0.05453 0.62879 0.0
H917 H 0.31682 0.15436 0.6687 0.0
H918 H 0.3249 0.04849 0.65716 0.0
H919 H 0.35252 0.11674 0.67388 0.0
H920 H 0.19567 0.70299 0.62153 0.0
H921 H 0.13279 0.63791 0.55672 0.0
H922 H 0.17476 0.76281 0.56165 0.0
H923 H 0.13987 0.69949 0.53962 0.0
Tb924 Tb 0.67898 0.84823 0.9009 0.0
C925 C 0.68266 0.71719 0.83839 0.0
C926 C 0.64492 0.656 0.86149 0.0
C927 C 0.64562 0.65305 0.81746 0.0
C928 C 0.66956 0.6982 0.8604 0.0
C929 C 0.67148 0.69489 0.81664 0.0
C930 C 0.63236 0.63362 0.83988 0.0
C931 C 0.71451 0.75652 0.79509 0.0
N932 N 0.70766 0.75754 0.8384 0.0
C933 C 0.72491 0.77726 0.8172 0.0
C934 C 0.68727 0.71521 0.7948 0.0
Tb935 Tb 0.72081 0.78945 0.87524 0.0
N936 N 0.68263 0.72096 0.88079 0.0
C937 C 0.67441 0.70265 0.90305 0.0
C938 C 0.63456 0.63752 0.88424 0.0
C939 C 0.64989 0.66092 0.9051 0.0
H940 H 0.74567 0.80925 0.81719 0.0
H941 H 0.64272 0.64687 0.92281 0.0
H942 H 0.61315 0.60122 0.84033 0.0
H943 H 0.72737 0.77243 0.7783 0.0
H944 H 0.68551 0.71979 0.91954 0.0
H945 H 0.74577 0.99129 0.85419 0.0
H946 H 0.61561 0.60521 0.88589 0.0
H947 H 0.65346 0.82974 0.95887 0.0
H948 H 0.70665 0.91787 0.85761 0.0
H949 H 0.67319 0.8662 0.99787 0.0
H950 H 0.63641 0.63539 0.80092 0.0
H951 H 0.77733 0.03311 0.89056 0.0
H952 H 0.78675 0.03687 0.93586 0.0
H953 H 0.67912 0.69903 0.77776 0.0
H954 H 0.7673 1.00242 0.97538 0.0
N955 N 0.71668 0.91687 0.89566 0.0
C956 C 0.72021 0.93522 0.87377 0.0
C957 C 0.76024 1.00066 0.89223 0.0
C958 C 0.75451 0.98201 0.91481 0.0
C959 C 0.74236 0.97715 0.87169 0.0
C960 C 0.73194 0.93963 0.91593 0.0
H961 H 0.72399 0.9387 0.99874 0.0
N962 N 0.6944 0.88044 0.93788 0.0
C963 C 0.687 0.88186 0.98116 0.0
C964 C 0.72059 0.92054 0.93797 0.0
C965 C 0.67583 0.86132 0.959 0.0
C966 C 0.71585 0.9227 0.9816 0.0
C967 C 0.73214 0.94285 0.95975 0.0
O968 O 0.62175 0.83415 0.91455 0.0
O969 O 0.66807 0.78962 0.88934 0.0
O970 O 0.67655 0.78713 0.8497 0.0
O971 O 0.67779 0.84671 0.86004 0.0
O972 O 0.63856 0.7918 0.91947 0.0
O973 O 0.64189 0.86334 0.88034 0.0
O974 O 0.78027 0.81116 0.86311 0.0
O975 O 0.73138 0.84794 0.88704 0.0
O976 O 0.71981 0.84488 0.92866 0.0
O977 O 0.72389 0.78944 0.91478 0.0
O978 O 0.75987 0.84613 0.8561 0.0
O979 O 0.75682 0.77042 0.89333 0.0
C980 C 0.6428 0.7677 0.90524 0.0
C981 C 0.59988 0.87999 0.90329 0.0
C982 C 0.54772 0.89947 0.90596 0.0
C983 C 0.55984 0.87148 0.89894 0.0
C984 C 0.5762 0.93594 0.9167 0.0
C985 C 0.62708 0.91662 0.91426 0.0
C986 C 0.61549 0.94441 0.92074 0.0
C987 C 0.67119 0.81765 0.84419 0.0
C988 C 0.61375 0.8512 0.89669 0.0
C989 C 0.75764 0.98475 0.95885 0.0
C990 C 0.76871 1.00436 0.93636 0.0
C991 C 0.75608 0.86984 0.87093 0.0
C992 C 0.81042 0.77174 0.87085 0.0
C993 C 0.85273 0.79213 0.87325 0.0
C994 C 0.8753 0.77498 0.8643 0.0
C995 C 0.8546 0.73677 0.85331 0.0
C996 C 0.79059 0.73379 0.8598 0.0
C997 C 0.81264 0.71639 0.85119 0.0
C998 C 0.72973 0.81634 0.93159 0.0
C999 C 0.78785 0.79123 0.87932 0.0
H1000 H 0.53821 0.84312 0.89074 0.0
H1001 H 0.56787 0.95795 0.92217 0.0
H1002 H 0.65739 0.92384 0.91797 0.0
H1003 H 0.63702 0.97256 0.92915 0.0
H1004 H 0.8681 0.82172 0.88151 0.0
H1005 H 0.87087 0.72248 0.84648 0.0
H1006 H 0.75816 0.71776 0.85775 0.0
H1007 H 0.79718 0.68703 0.8427 0.0
H1008 H 0.172 0.26395 0.17196 0.0
H1009 H 0.26124 0.14835 0.09489 0.0
H1010 H 0.13075 0.22099 0.0994 0.0
H1011 H 0.27819 0.17094 0.17176 0.0
H1012 H 0.21604 0.17703 0.09455 0.0
H1013 H 0.21398 0.23288 0.17071 0.0
C1014 C 0.17178 0.24796 0.1557 0.0
C1015 C 0.14783 0.24533 0.13572 0.0
C1016 C 0.22979 0.17581 0.11145 0.0
C1017 C 0.19624 0.20921 0.13414 0.0
C1018 C 0.25588 0.1599 0.11157 0.0
C1019 C 0.27464 0.15881 0.13323 0.0
C1020 C 0.22243 0.19052 0.13316 0.0
C1021 C 0.26526 0.17235 0.15456 0.0
C1022 C 0.19571 0.23 0.15502 0.0
C1023 C 0.14852 0.22361 0.11528 0.0
N1024 N 0.24035 0.18801 0.15393 0.0
N1025 N 0.17253 0.20664 0.11493 0.0
H1026 H 0.13099 0.92034 0.40236 0.0
H1027 H 0.92687 0.77333 0.33036 0.0
H1028 H 0.12615 0.88426 0.32773 0.0
H1029 H 0.92929 0.79133 0.40762 0.0
H1030 H 0.99933 0.82065 0.32865 0.0
H1031 H 0.05709 0.87936 0.4044 0.0
C1032 C 0.11443 0.90414 0.38635 0.0
C1033 C 0.13498 0.90565 0.36487 0.0
C1034 C 0.98423 0.81432 0.34604 0.0
C1035 C 0.05035 0.85885 0.36704 0.0
C1036 C 0.94286 0.78723 0.347 0.0
C1037 C 0.92255 0.77707 0.3693 0.0
C1038 C 1.00557 0.83228 0.36751 0.0
C1039 C 0.9443 0.7971 0.39022 0.0
C1040 C 0.07226 0.88061 0.38756 0.0
C1041 C 0.11182 0.88368 0.34477 0.0
N1042 N 0.98474 0.82352 0.38886 0.0
N1043 N 0.07101 0.86136 0.34636 0.0
H1044 H 0.89587 0.11743 0.09521 0.0
H1045 H 0.79002 0.92002 0.17896 0.0
H1046 H 0.88241 0.11895 0.17272 0.0
H1047 H 0.82055 0.91496 0.10422 0.0
H1048 H 0.82251 0.99299 0.17602 0.0
H1049 H 0.86804 0.04389 0.09702 0.0
C1050 C 0.88659 0.10215 0.11253 0.0
C1051 C 0.88981 0.12389 0.13375 0.0
C1052 C 0.82237 0.97613 0.16022 0.0
C1053 C 0.859 0.04028 0.13609 0.0
C1054 C 0.80357 0.93427 0.16187 0.0
C1055 C 0.80223 0.91105 0.14178 0.0
C1056 C 0.84001 0.99551 0.13824 0.0
C1057 C 0.82099 0.93156 0.12022 0.0
C1058 C 0.87115 0.06032 0.11361 0.0
C1059 C 0.87925 0.10308 0.15587 0.0
N1060 N 0.8388 0.97254 0.11895 0.0
N1061 N 0.86386 0.06256 0.15642 0.0
H1062 H 0.27715 0.16656 0.33103 0.0
H1063 H 0.12846 0.22408 0.4009 0.0
H1064 H 0.25707 0.1505 0.40811 0.0
H1065 H 0.16377 0.25186 0.32594 0.0
H1066 H 0.17011 0.19192 0.40392 0.0
H1067 H 0.23004 0.19185 0.3287 0.0
C1068 C 0.26289 0.16866 0.34753 0.0
C1069 C 0.27237 0.1582 0.36994 0.0
C1070 C 0.16855 0.20492 0.3868 0.0
C1071 C 0.21727 0.18623 0.36742 0.0
C1072 C 0.14462 0.22312 0.38503 0.0
C1073 C 0.1427 0.241 0.36316 0.0
C1074 C 0.19034 0.20408 0.36647 0.0
C1075 C 0.16466 0.23906 0.34327 0.0
C1076 C 0.23588 0.18301 0.34621 0.0
C1077 C 0.25184 0.15994 0.39063 0.0
N1078 N 0.18738 0.22106 0.34541 0.0
N1079 N 0.22547 0.17405 0.38892 0.0
H1080 H 0.12752 0.91458 0.10477 0.0
H1081 H 0.92221 0.76364 0.17431 0.0
H1082 H 0.1202 0.87831 0.17951 0.0
H1083 H 0.92464 0.78847 0.09796 0.0
H1084 H 0.99481 0.8092 0.17636 0.0
H1085 H 0.05377 0.87239 0.10161 0.0
C1086 C 0.11045 0.89809 0.12056 0.0
C1087 C 0.13028 0.89988 0.14241 0.0
C1088 C 0.97979 0.80463 0.15904 0.0
C1089 C 0.0459 0.85156 0.13892 0.0
C1090 C 0.93833 0.7784 0.15787 0.0
C1091 C 0.91783 0.7708 0.13572 0.0
C1092 C 1.00119 0.82448 0.13797 0.0
C1093 C 0.93976 0.79215 0.11516 0.0
C1094 C 0.06838 0.87384 0.1187 0.0
C1095 C 0.10651 0.87752 0.16219 0.0
N1096 N 0.98037 0.81787 0.11673 0.0
N1097 N 0.06587 0.85445 0.15995 0.0
H1098 H 0.82562 0.91672 0.40333 0.0
H1099 H 0.87767 0.11894 0.33105 0.0
H1100 H 0.78906 0.92004 0.32975 0.0
H1101 H 0.89961 0.1189 0.40768 0.0
H1102 H 0.85129 0.04636 0.32987 0.0
H1103 H 0.85816 0.99058 0.40507 0.0
C1104 C 0.8247 0.93294 0.38749 0.0
C1105 C 0.80431 0.91198 0.36639 0.0
C1106 C 0.86161 0.06196 0.34703 0.0
C1107 C 0.84166 0.99651 0.36823 0.0
C1108 C 0.87653 0.1034 0.34771 0.0
C1109 C 0.88894 0.12449 0.3697 0.0
C1110 C 0.85989 0.04127 0.36845 0.0
C1111 C 0.88858 0.1033 0.39057 0.0
C1112 C 0.84312 0.97508 0.38854 0.0
C1113 C 0.80387 0.93468 0.34651 0.0
N1114 N 0.87395 0.06274 0.3895 0.0
N1115 N 0.82219 0.97545 0.34793 0.0
H1116 H 0.25436 0.14949 0.68404 0.0
H1117 H 0.15477 0.24604 0.59862 0.0
H1118 H 0.22929 0.11802 0.60839 0.0
H1119 H 0.17051 0.26345 0.67591 0.0
H1120 H 0.18033 0.19837 0.60088 0.0
H1121 H 0.22296 0.19092 0.6806 0.0
C1122 C 0.24222 0.15128 0.66664 0.0
C1123 C 0.24487 0.13033 0.64644 0.0
C1124 C 0.17821 0.21266 0.61732 0.0
C1125 C 0.20828 0.17815 0.64232 0.0
C1126 C 0.16404 0.24014 0.61598 0.0
C1127 C 0.16221 0.25995 0.63698 0.0
C1128 C 0.19039 0.20492 0.63986 0.0
C1129 C 0.17265 0.24977 0.65919 0.0
C1130 C 0.22405 0.17491 0.66469 0.0
C1131 C 0.22783 0.13345 0.62447 0.0
N1132 N 0.18673 0.22354 0.65998 0.0
N1133 N 0.21058 0.15714 0.62293 0.0
H1134 H 0.12813 0.8736 0.83054 0.0
H1135 H 0.92449 0.81636 0.90305 0.0
H1136 H 0.1262 0.88849 0.9079 0.0
H1137 H 0.92881 0.78351 0.8287 0.0
H1138 H 0.99842 0.84951 0.90489 0.0
H1139 H 0.05564 0.84842 0.82906 0.0
C1140 C 0.11223 0.87133 0.84726 0.0
C1141 C 0.13266 0.88125 0.86951 0.0
C1142 C 0.98313 0.83519 0.88816 0.0
C1143 C 0.04966 0.8534 0.86798 0.0
C1144 C 0.94095 0.81641 0.88706 0.0
C1145 C 0.92028 0.79688 0.86571 0.0
C1146 C 1.00488 0.835 0.86764 0.0
C1147 C 0.94327 0.79766 0.84564 0.0
C1148 C 0.07085 0.85703 0.84643 0.0
C1149 C 0.11107 0.87939 0.89053 0.0
N1150 N 0.9841 0.81633 0.8471 0.0
N1151 N 0.0706 0.86532 0.88931 0.0
H1152 H 0.7973 0.91569 0.59708 0.0
H1153 H 0.88455 0.11492 0.67919 0.0
H1154 H 0.77787 0.91608 0.67404 0.0
H1155 H 0.92317 0.11824 0.60529 0.0
H1156 H 0.8438 0.04195 0.67657 0.0
H1157 H 0.84251 0.98934 0.59857 0.0
C1158 C 0.80218 0.93142 0.61418 0.0
C1159 C 0.78261 0.91022 0.63531 0.0
C1160 C 0.86123 0.05845 0.66089 0.0
C1161 C 0.83478 0.99386 0.63732 0.0
C1162 C 0.88442 0.1003 0.66234 0.0
C1163 C 0.90726 0.12299 0.6424 0.0
C1164 C 0.86039 0.0386 0.63926 0.0
C1165 C 0.90626 0.10202 0.62118 0.0
C1166 C 0.82826 0.97329 0.6151 0.0
C1167 C 0.79141 0.93157 0.65722 0.0
N1168 N 0.88302 0.06107 0.6201 0.0
N1169 N 0.8163 0.9721 0.6576 0.0
H1170 H 0.17339 0.26515 0.83287 0.0
H1171 H 0.23095 0.1184 0.90451 0.0
H1172 H 0.15827 0.24749 0.91015 0.0
H1173 H 0.2634 0.1558 0.8302 0.0
H1174 H 0.19813 0.15948 0.9067 0.0
H1175 H 0.1993 0.21847 0.83116 0.0
C1176 C 0.17584 0.25153 0.84953 0.0
C1177 C 0.16557 0.26157 0.87183 0.0
C1178 C 0.21231 0.15851 0.88991 0.0
C1179 C 0.19416 0.20704 0.87002 0.0
C1180 C 0.23088 0.13494 0.88861 0.0
C1181 C 0.25019 0.13376 0.86717 0.0
C1182 C 0.2125 0.18062 0.86951 0.0
C1183 C 0.24941 0.15613 0.84721 0.0
C1184 C 0.19054 0.22479 0.84857 0.0
C1185 C 0.16765 0.24183 0.89276 0.0
N1186 N 0.23094 0.17846 0.84887 0.0
N1187 N 0.18203 0.21571 0.8914 0.0
H1188 H 0.13286 0.88501 0.59416 0.0
H1189 H 0.92267 0.81097 0.60103 0.0
H1190 H 0.12413 0.86101 0.67089 0.0
H1191 H 0.93342 0.77712 0.67407 0.0
H1192 H 0.99571 0.84231 0.59632 0.0
H1193 H 0.05969 0.85777 0.59273 0.0
C1194 C 0.11534 0.87357 0.61063 0.0
C1195 C 0.13425 0.87389 0.63251 0.0
C1196 C 0.98231 0.82782 0.61334 0.0
C1197 C 0.05056 0.84407 0.63145 0.0
C1198 C 0.94037 0.81021 0.61612 0.0
C1199 C 0.9215 0.79094 0.63792 0.0
C1200 C 1.00577 0.8264 0.6326 0.0
C1201 C 0.94621 0.79084 0.65675 0.0
C1202 C 0.07349 0.85847 0.60995 0.0
C1203 C 0.11054 0.86033 0.65353 0.0
N1204 N 0.98671 0.80817 0.65363 0.0
N1205 N 0.07015 0.84568 0.65242 0.0
H1206 H 0.89117 0.11987 0.83121 0.0
H1207 H 0.79751 0.91776 0.91008 0.0
H1208 H 0.92836 0.11925 0.90498 0.0
H1209 H 0.78351 0.92053 0.83269 0.0
H1210 H 0.84574 0.99074 0.90943 0.0
H1211 H 0.85095 0.04666 0.83219 0.0
C1212 C 0.8909 0.1043 0.84766 0.0
C1213 C 0.9131 0.12595 0.86808 0.0
C1214 C 0.8322 0.97535 0.89259 0.0
C1215 C 0.86681 0.04137 0.86935 0.0
C1216 C 0.80443 0.93385 0.89301 0.0
C1217 C 0.78529 0.91361 0.87154 0.0
C1218 C 0.84074 0.99659 0.87053 0.0
C1219 C 0.79668 0.93534 0.84974 0.0
C1220 C 0.86804 0.06235 0.84817 0.0
C1221 C 0.91191 0.10387 0.88877 0.0
N1222 N 0.82302 0.97563 0.84985 0.0
N1223 N 0.88887 0.06286 0.88896 0.0
H1224 H 0.3589 0.21723 0.31601 0.0
H1225 H 0.43272 0.15929 0.19399 0.0
H1226 H 0.42948 0.1583 0.31294 0.0
H1227 H 0.35729 0.21294 0.1922 0.0
H1228 H 0.439 0.16841 0.23775 0.0
H1229 H 0.36458 0.22517 0.27148 0.0
C1230 C 0.37646 0.20695 0.30609 0.0
C1231 C 0.39388 0.1872 0.31828 0.0
C1232 C 0.42157 0.17894 0.22793 0.0
C1233 C 0.40003 0.19565 0.26735 0.0
C1234 C 0.41826 0.17401 0.20281 0.0
C1235 C 0.39477 0.18572 0.18931 0.0
C1236 C 0.40084 0.19533 0.24011 0.0
C1237 C 0.37624 0.2041 0.20184 0.0
C1238 C 0.37936 0.21113 0.28064 0.0
C1239 C 0.41556 0.17373 0.30439 0.0
N1240 N 0.37924 0.20789 0.2266 0.0
N1241 N 0.41778 0.17799 0.27985 0.0
H1242 H 0.89488 0.68771 0.31535 0.0
H1243 H 0.76261 0.61178 0.1937 0.0
H1244 H 0.76523 0.62023 0.31251 0.0
H1245 H 0.89158 0.68795 0.19177 0.0
H1246 H 0.76558 0.60646 0.23752 0.0
H1247 H 0.89678 0.68068 0.27093 0.0
C1248 C 0.8669 0.67057 0.30551 0.0
C1249 C 0.82983 0.65442 0.31771 0.0
C1250 C 0.79347 0.62388 0.22765 0.0
C1251 C 0.83174 0.64668 0.26694 0.0
C1252 C 0.7918 0.62667 0.20251 0.0
C1253 C 0.82691 0.65021 0.18899 0.0
C1254 C 0.83057 0.64511 0.23976 0.0
C1255 C 0.86383 0.66911 0.20146 0.0
C1256 C 0.86799 0.6669 0.28012 0.0
C1257 C 0.79451 0.63322 0.30393 0.0
N1258 N 0.86468 0.66661 0.22622 0.0
N1259 N 0.79637 0.63019 0.27945 0.0
H1260 H 0.89448 0.2813 0.19348 0.0
H1261 H 0.83157 0.14897 0.31452 0.0
H1262 H 0.83032 0.15173 0.19058 0.0
H1263 H 0.87981 0.27721 0.31211 0.0
H1264 H 0.82492 0.14673 0.26986 0.0
H1265 H 0.88437 0.2783 0.23712 0.0
C1266 C 0.87753 0.25206 0.20202 0.0
C1267 C 0.86302 0.21672 0.18823 0.0
C1268 C 0.83616 0.17519 0.2792 0.0
C1269 C 0.85179 0.21291 0.2389 0.0
C1270 C 0.83955 0.1764 0.30471 0.0
C1271 C 0.85616 0.21333 0.31708 0.0
C1272 C 0.84951 0.21118 0.26609 0.0
C1273 C 0.86682 0.24806 0.30338 0.0
C1274 C 0.87181 0.25033 0.22708 0.0
C1275 C 0.84154 0.17973 0.20045 0.0
N1276 N 0.86368 0.24616 0.27879 0.0
N1277 N 0.837 0.17875 0.22514 0.0
H1278 H 0.15941 0.41669 0.69509 0.0
H1279 H 0.2252 0.34885 0.81624 0.0
H1280 H 0.2218 0.34938 0.69278 0.0
H1281 H 0.16364 0.41698 0.81413 0.0
H1282 H 0.23217 0.3546 0.77167 0.0
H1283 H 0.16846 0.42306 0.73886 0.0
C1284 C 0.17576 0.40385 0.70379 0.0
C1285 C 0.18994 0.38255 0.69017 0.0
C1286 C 0.21776 0.36884 0.78105 0.0
C1287 C 0.19994 0.38911 0.74087 0.0
C1288 C 0.21413 0.36589 0.80651 0.0
C1289 C 0.19386 0.38252 0.81896 0.0
C1290 C 0.20111 0.38867 0.76805 0.0
C1291 C 0.17941 0.4036 0.80535 0.0
C1292 C 0.18081 0.40735 0.7289 0.0
C1293 C 0.21076 0.36642 0.70253 0.0
N1294 N 0.18307 0.40579 0.7808 0.0
N1295 N 0.21471 0.36959 0.72724 0.0
H1296 H 0.16011 0.81779 0.81492 0.0
H1297 H 0.29026 0.86725 0.69256 0.0
H1298 H 0.28971 0.88419 0.81096 0.0
H1299 H 0.16232 0.82154 0.69103 0.0
H1300 H 0.28748 0.86037 0.73652 0.0
H1301 H 0.15754 0.8071 0.77063 0.0
C1302 C 0.18798 0.82929 0.80489 0.0
C1303 C 0.2252 0.85177 0.81676 0.0
C1304 C 0.25972 0.85102 0.7267 0.0
C1305 C 0.22248 0.83992 0.76611 0.0
C1306 C 0.26125 0.85451 0.70148 0.0
C1307 C 0.22641 0.84454 0.68802 0.0
C1308 C 0.22309 0.8378 0.73894 0.0
C1309 C 0.18977 0.82891 0.70066 0.0
C1310 C 0.18648 0.82349 0.77957 0.0
C1311 C 0.26032 0.86666 0.80268 0.0
N1312 N 0.18911 0.82649 0.72548 0.0
N1313 N 0.25806 0.86058 0.77828 0.0
H1314 H 0.69923 0.88566 0.69151 0.0
H1315 H 0.62548 0.75572 0.8139 0.0
H1316 H 0.62577 0.75658 0.69502 0.0
H1317 H 0.69679 0.88511 0.81521 0.0
H1318 H 0.61946 0.75774 0.77007 0.0
H1319 H 0.69297 0.88866 0.73602 0.0
C1320 C 0.68083 0.85814 0.70151 0.0
C1321 C 0.66283 0.82082 0.68951 0.0
C1322 C 0.63597 0.78591 0.7798 0.0
C1323 C 0.65617 0.82389 0.74031 0.0
C1324 C 0.63925 0.78474 0.80496 0.0
C1325 C 0.66152 0.82029 0.81833 0.0
C1326 C 0.65548 0.82295 0.76752 0.0
C1327 C 0.67892 0.85699 0.80566 0.0
C1328 C 0.67762 0.8598 0.72693 0.0
C1329 C 0.64012 0.78602 0.70346 0.0
N1330 N 0.67599 0.85738 0.78091 0.0
N1331 N 0.63773 0.78841 0.72793 0.0
H1332 H 0.23167 0.90004 0.97828 0.0
H1333 H 0.30167 0.11988 0.0348 0.0
H1334 H 0.23938 0.99752 0.93554 0.0
H1335 H 0.31239 0.02582 0.07089 0.0
H1336 H 0.27209 0.07466 0.99949 0.0
H1337 H 0.25208 0.94376 0.01418 0.0
C1338 C 0.23639 0.93014 0.97655 0.0
C1339 C 0.23325 0.94477 0.95383 0.0
C1340 C 0.28093 0.0641 0.01526 0.0
C1341 C 0.25819 0.99596 0.99486 0.0
C1342 C 0.29807 0.09007 0.0354 0.0
C1343 C 0.31008 0.07724 0.05608 0.0
C1344 C 0.27526 0.02478 0.01587 0.0
C1345 C 0.30388 0.03771 0.05566 0.0
C1346 C 0.24876 0.9555 0.99701 0.0
C1347 C 0.24136 0.98487 0.95268 0.0
N1348 N 0.28705 1.01325 0.03613 0.0
N1349 N 0.25355 1.009 0.97275 0.0
H1350 H 0.82082 0.79086 0.43465 0.0
H1351 H 0.73853 0.74025 0.57012 0.0
H1352 H 0.82231 0.69879 0.47844 0.0
H1353 H 0.75906 0.84966 0.53522 0.0
H1354 H 0.76898 0.72609 0.53623 0.0
H1355 H 0.80002 0.81447 0.47026 0.0
C1356 C 0.81771 0.77617 0.45193 0.0
C1357 C 0.82396 0.74303 0.45355 0.0
C1358 C 0.76712 0.75333 0.53582 0.0
C1359 C 0.79892 0.76938 0.49445 0.0
C1360 C 0.74944 0.76169 0.55538 0.0
C1361 C 0.7459 0.79659 0.55598 0.0
C1362 C 0.7814 0.7795 0.51598 0.0
C1363 C 0.76074 0.82235 0.53574 0.0
C1364 C 0.80565 0.78963 0.47224 0.0
C1365 C 0.81895 0.72495 0.47635 0.0
N1366 N 0.7776 0.81318 0.51653 0.0
N1367 N 0.80634 0.73805 0.49573 0.0
H1368 H 0.10435 0.36161 0.96269 0.0
H1369 H 0.95383 0.17572 0.04774 0.0
H1370 H 0.09268 0.24466 0.95497 0.0
H1371 H 0.96594 0.29346 0.04843 0.0
H1372 H 1.00333 0.19773 0.01416 0.0
H1373 H 0.05572 0.33617 0.99584 0.0
C1374 C 0.09237 0.33074 0.96853 0.0
C1375 C 0.10345 0.30558 0.95644 0.0
C1376 C 0.9947 0.21852 0.02148 0.0
C1377 C 0.04566 0.27517 0.99402 0.0
C1378 C 0.96597 0.20574 0.04039 0.0
C1379 C 0.95539 0.23268 0.05077 0.0
C1380 C 1.01304 0.25856 0.01305 0.0
C1381 C 0.97303 0.27161 0.04098 0.0
C1382 C 0.06402 0.31593 0.98728 0.0
C1383 C 0.08584 0.26539 0.96427 0.0
N1384 N 1.00086 0.28329 0.02293 0.0
N1385 N 0.05766 0.25133 0.98247 0.0
H1386 H 0.2603 0.03949 0.4353 0.0
H1387 H 0.30627 1.00981 0.57287 0.0
H1388 H 0.35128 0.13382 0.47932 0.0
H1389 H 0.2045 0.91688 0.53392 0.0
H1390 H 0.32129 0.05465 0.53887 0.0
H1391 H 0.23755 0.99495 0.47072 0.0
C1392 C 0.27501 0.0512 0.45258 0.0
C1393 C 0.30755 0.09089 0.45427 0.0
C1394 C 0.2956 0.02455 0.53759 0.0
C1395 C 0.28204 0.03923 0.4951 0.0
C1396 C 0.2868 0.99841 0.55718 0.0
C1397 C 0.25387 0.95871 0.55662 0.0
C1398 C 0.27172 1.01156 0.51665 0.0
C1399 C 0.23036 0.94679 0.53534 0.0
C1400 C 0.26203 0.02555 0.47281 0.0
C1401 C 0.32556 0.10404 0.47713 0.0
N1402 N 0.23984 0.97297 0.51623 0.0
N1403 N 0.31285 0.07824 0.49648 0.0
H1404 H 0.856 0.74475 0.03526 0.0
H1405 H 0.70454 0.81295 0.97905 0.0
H1406 H 0.74757 0.72794 0.06986 0.0
H1407 H 0.79526 0.80701 0.93608 0.0
H1408 H 0.7278 0.79197 0.01469 0.0
H1409 H 0.84073 0.77525 1.00027 0.0
C1410 C 0.82909 0.74721 0.0356 0.0
C1411 C 0.80314 0.73328 0.05577 0.0
C1412 C 0.74308 0.79581 0.99754 0.0
C1413 C 0.78594 0.76915 0.016 0.0
C1414 C 0.73012 0.8085 0.97723 0.0
C1415 C 0.74816 0.81226 0.95453 0.0
C1416 C 0.7744 0.78675 0.99523 0.0
C1417 C 0.78044 0.80454 0.95324 0.0
C1418 C 0.82047 0.76487 0.01566 0.0
C1419 C 0.76888 0.73801 0.05504 0.0
N1420 N 0.79238 0.79206 0.97315 0.0
N1421 N 0.76151 0.75542 0.03575 0.0
H1422 H 0.13959 0.33842 0.52912 0.0
H1423 H 0.92034 0.18708 0.47232 0.0
H1424 H 0.04068 0.25206 0.57253 0.0
H1425 H 1.01498 0.29066 0.4357 0.0
H1426 H 0.96494 0.20407 0.50806 0.0
H1427 H 0.09628 0.31383 0.4931 0.0
C1428 C 0.10921 0.31363 0.53105 0.0
C1429 C 0.09409 0.29726 0.55399 0.0
C1430 C 0.97574 0.22292 0.49208 0.0
C1431 C 0.04343 0.26934 0.51273 0.0
C1432 C 0.95012 0.2133 0.47168 0.0
C1433 C 0.96319 0.23751 0.45075 0.0
C1434 C 1.01501 0.25665 0.49146 0.0
C1435 C 1.00277 0.27082 0.45113 0.0
C1436 C 0.08411 0.29987 0.51048 0.0
C1437 C 0.0537 0.26583 0.55527 0.0
N1438 N 1.02689 0.27919 0.4709 0.0
N1439 N 0.02986 0.25303 0.53509 0.0
H1440 H 0.65738 0.19729 0.11899 0.0
H1441 H 0.43771 0.10124 0.07751 0.0
H1442 H 0.59426 0.07198 0.0985 0.0
H1443 H 0.463 0.16055 0.14692 0.0
H1444 H 0.4993 0.0972 0.08104 0.0
H1445 H 0.59177 0.19261 0.12706 0.0
C1446 C 0.63003 0.16867 0.11663 0.0
C1447 C 0.6317 0.13528 0.1074 0.0
C1448 C 0.49102 0.11039 0.09575 0.0
C1449 C 0.55667 0.13016 0.11607 0.0
C1450 C 0.45572 0.11237 0.09385 0.0
C1451 C 0.44433 0.12971 0.11239 0.0
C1452 C 0.51672 0.12808 0.11569 0.0
C1453 C 0.46989 0.14549 0.13267 0.0
C1454 C 0.59259 0.1661 0.12118 0.0
C1455 C 0.59483 0.09902 0.10472 0.0
N1456 N 0.50537 0.14503 0.13359 0.0
N1457 N 0.55911 0.09774 0.10839 0.0
H1458 H 0.72727 0.59847 0.44204 0.0
H1459 H 0.55469 0.4136 0.36569 0.0
H1460 H 0.73268 0.59392 0.36411 0.0
H1461 H 0.55731 0.42556 0.44349 0.0
H1462 H 0.61901 0.47812 0.36339 0.0
H1463 H 0.6632 0.53578 0.4416 0.0
C1464 C 0.71447 0.58451 0.42472 0.0
C1465 C 0.73515 0.60187 0.40311 0.0
C1466 C 0.60565 0.46636 0.38095 0.0
C1467 C 0.66163 0.52844 0.40238 0.0
C1468 C 0.56922 0.4293 0.38228 0.0
C1469 C 0.55074 0.41395 0.40485 0.0
C1470 C 0.62363 0.48814 0.40236 0.0
C1471 C 0.57048 0.43606 0.42572 0.0
C1472 C 0.67791 0.54839 0.42446 0.0
C1473 C 0.71739 0.58201 0.38119 0.0
N1474 N 0.60545 0.47176 0.42394 0.0
N1475 N 0.68173 0.5462 0.38138 0.0
H1476 H 0.91433 0.32485 0.06614 0.0
H1477 H 0.89517 0.49511 0.1407 0.0
H1478 H 0.89799 0.31634 0.14366 0.0
H1479 H 0.89804 0.48669 0.06285 0.0
H1480 H 0.89828 0.4323 0.144 0.0
H1481 H 0.91452 0.38827 0.06647 0.0
C1482 C 0.91162 0.33691 0.08338 0.0
C1483 C 0.9066 0.31541 0.10488 0.0
C1484 C 0.89786 0.4441 0.12623 0.0
C1485 C 0.90508 0.38814 0.10543 0.0
C1486 C 0.89559 0.47966 0.12434 0.0
C1487 C 0.89615 0.49617 0.10143 0.0
C1488 C 0.90088 0.42511 0.10505 0.0
C1489 C 0.89752 0.47522 0.08087 0.0
C1490 C 0.91126 0.37306 0.08357 0.0
C1491 C 0.90261 0.33228 0.12669 0.0
N1492 N 0.90002 0.44127 0.08319 0.0
N1493 N 0.9016 0.36754 0.12641 0.0
H1494 H 0.44851 0.13637 0.44207 0.0
H1495 H 0.63548 0.15098 0.36677 0.0
H1496 H 0.45552 0.15025 0.36437 0.0
H1497 H 0.62164 0.14011 0.44445 0.0
H1498 H 0.5708 0.15057 0.36403 0.0
H1499 H 0.51088 0.13428 0.44177 0.0
C1500 C 0.46292 0.1382 0.42481 0.0
C1501 C 0.44636 0.14285 0.40323 0.0
C1502 C 0.58216 0.14859 0.38165 0.0
C1503 C 0.51951 0.14206 0.4027 0.0
C1504 C 0.61929 0.1493 0.38324 0.0
C1505 C 0.63414 0.14572 0.4059 0.0
C1506 C 0.55983 0.14429 0.40289 0.0
C1507 C 0.61148 0.14291 0.4266 0.0
C1508 C 0.49888 0.13738 0.42464 0.0
C1509 C 0.46681 0.14581 0.38141 0.0
N1510 N 0.57575 0.14212 0.42457 0.0
N1511 N 0.50249 0.14562 0.3817 0.0
H1512 H 0.5801 0.38437 0.11953 0.0
H1513 H 0.70415 0.60358 0.07445 0.0
H1514 H 0.51934 0.44404 0.09021 0.0
H1515 H 0.7341 0.58001 0.14554 0.0
H1516 H 0.63898 0.54136 0.07695 0.0
H1517 H 0.63949 0.45099 0.12773 0.0
C1518 C 0.57878 0.41121 0.11523 0.0
C1519 C 0.54468 0.40817 0.10355 0.0
C1520 C 0.65941 0.55012 0.09224 0.0
C1521 C 0.61293 0.48439 0.11237 0.0
C1522 C 0.69645 0.58578 0.0909 0.0
C1523 C 0.72394 0.59782 0.11018 0.0
C1524 C 0.65041 0.52474 0.11243 0.0
C1525 C 0.71311 0.57258 0.13066 0.0
C1526 C 0.61279 0.44924 0.11984 0.0
C1527 C 0.54518 0.44444 0.09842 0.0
N1528 N 0.67749 0.5368 0.13108 0.0
N1529 N 0.57884 0.48068 0.10229 0.0
H1530 H 0.89548 0.49509 0.36362 0.0
H1531 H 0.9181 0.3266 0.43757 0.0
H1532 H 0.91442 0.4957 0.44071 0.0
H1533 H 0.89471 0.31542 0.36071 0.0
H1534 H 0.92133 0.39153 0.43728 0.0
H1535 H 0.89594 0.43093 0.36059 0.0
C1536 C 0.89892 0.48136 0.37992 0.0
C1537 C 0.90474 0.50074 0.40248 0.0
C1538 C 0.91596 0.37541 0.4203 0.0
C1539 C 0.90633 0.4281 0.39912 0.0
C1540 C 0.91458 0.33842 0.42045 0.0
C1541 C 0.90685 0.31587 0.39911 0.0
C1542 C 0.90864 0.39014 0.39868 0.0
C1543 C 0.90163 0.33227 0.3775 0.0
C1544 C 0.89968 0.44504 0.37816 0.0
C1545 C 0.90982 0.48194 0.42295 0.0
N1546 N 0.90229 0.36832 0.37785 0.0
N1547 N 0.91063 0.44708 0.42075 0.0
H1548 H 0.21513 0.64884 0.61759 0.0
H1549 H 0.12325 0.43032 0.57108 0.0
H1550 H 0.09628 0.5894 0.58597 0.0
H1551 H 0.16962 0.45121 0.64402 0.0
H1552 H 0.12132 0.49317 0.57287 0.0
H1553 H 0.2078 0.58212 0.62564 0.0
C1554 C 0.1873 0.62205 0.61271 0.0
C1555 C 0.15675 0.62526 0.60046 0.0
C1556 C 0.13129 0.48374 0.58866 0.0
C1557 C 0.14872 0.54887 0.60912 0.0
C1558 C 0.13211 0.44773 0.58771 0.0
C1559 C 0.14516 0.43468 0.60772 0.0
C1560 C 0.14584 0.50846 0.60928 0.0
C1561 C 0.15795 0.45942 0.6285 0.0
C1562 C 0.18323 0.58395 0.61725 0.0
C1563 C 0.1214 0.58898 0.59462 0.0
N1564 N 0.15866 0.49551 0.62861 0.0
N1565 N 0.11881 0.55271 0.59844 0.0
H1566 H 0.3278 0.89693 0.94127 0.0
H1567 H 0.50171 0.8876 0.86464 0.0
H1568 H 0.32306 0.88863 0.86326 0.0
H1569 H 0.49885 0.89602 0.94248 0.0
H1570 H 0.43702 0.88717 0.86242 0.0
H1571 H 0.39216 0.89885 0.94078 0.0
C1572 C 0.34081 0.89622 0.92393 0.0
C1573 C 0.32026 0.89318 0.90231 0.0
C1574 C 0.45041 0.8887 0.87997 0.0
C1575 C 0.39408 0.89395 0.90151 0.0
C1576 C 0.48703 0.88843 0.88125 0.0
C1577 C 0.50549 0.89146 0.90381 0.0
C1578 C 0.43227 0.89205 0.90143 0.0
C1579 C 0.48564 0.89341 0.92473 0.0
C1580 C 0.37754 0.89699 0.92364 0.0
C1581 C 0.33826 0.89172 0.88035 0.0
N1582 N 0.45046 0.89379 0.92301 0.0
N1583 N 0.3741 0.89189 0.8805 0.0
H1584 H 0.60921 0.71719 0.64935 0.0
H1585 H 0.40303 0.56286 0.58453 0.0
H1586 H 0.59293 0.7083 0.57173 0.0
H1587 H 0.44207 0.52286 0.64644 0.0
H1588 H 0.46734 0.62658 0.58521 0.0
H1589 H 0.54448 0.65352 0.65366 0.0
C1590 C 0.59262 0.70153 0.63325 0.0
C1591 C 0.60691 0.71784 0.61008 0.0
C1592 C 0.46153 0.60414 0.59894 0.0
C1593 C 0.53198 0.64677 0.61499 0.0
C1594 C 0.42462 0.56805 0.59874 0.0
C1595 C 0.417 0.53778 0.61562 0.0
C1596 C 0.491 0.61037 0.61633 0.0
C1597 C 0.44664 0.54571 0.63329 0.0
C1598 C 0.55548 0.66551 0.63573 0.0
C1599 C 0.58331 0.69678 0.58991 0.0
N1600 N 0.48235 0.58121 0.63322 0.0
N1601 N 0.54703 0.66289 0.59283 0.0
H1602 H 0.15954 0.62394 0.86446 0.0
H1603 H 0.14759 0.44067 0.94213 0.0
H1604 H 0.14738 0.61215 0.94216 0.0
H1605 H 0.15796 0.44423 0.86424 0.0
H1606 H 0.14508 0.50278 0.94123 0.0
H1607 H 0.15978 0.55961 0.86273 0.0
C1608 C 0.15784 0.6083 0.88116 0.0
C1609 C 0.15382 0.62364 0.90353 0.0
C1610 C 0.14747 0.49005 0.9242 0.0
C1611 C 0.15299 0.54969 0.90168 0.0
C1612 C 0.14853 0.45425 0.92473 0.0
C1613 C 0.15237 0.43687 0.90325 0.0
C1614 C 0.15108 0.50961 0.902 0.0
C1615 C 0.1542 0.45621 0.8812 0.0
C1616 C 0.15745 0.57136 0.88015 0.0
C1617 C 0.15077 0.60164 0.92455 0.0
N1618 N 0.15381 0.49173 0.88114 0.0
N1619 N 0.15031 0.56604 0.92308 0.0
H1620 H 0.32028 0.87258 0.6469 0.0
H1621 H 0.54278 0.96201 0.5956 0.0
H1622 H 0.35697 0.93314 0.57803 0.0
H1623 H 0.47869 0.83787 0.61833 0.0
H1624 H 0.48231 0.96643 0.60289 0.0
H1625 H 0.38569 0.87444 0.64971 0.0
C1626 C 0.34269 0.88772 0.6329 0.0
C1627 C 0.33369 0.90384 0.61251 0.0
C1628 C 0.48172 0.93843 0.60666 0.0
C1629 C 0.40794 0.90563 0.61549 0.0
C1630 C 0.51618 0.93566 0.60238 0.0
C1631 C 0.51584 0.89904 0.60559 0.0
C1632 C 0.44646 0.90477 0.61493 0.0
C1633 C 0.48055 0.86662 0.61537 0.0
C1634 C 0.37963 0.88816 0.63433 0.0
C1635 C 0.36307 0.92131 0.59431 0.0
N1636 N 0.44713 0.87009 0.61946 0.0
N1637 N 0.39885 0.92211 0.59633 0.0
H1638 H 0.60678 0.71686 0.94219 0.0
H1639 H 0.42198 0.54431 0.86581 0.0
H1640 H 0.60135 0.72311 0.86435 0.0
H1641 H 0.43495 0.54582 0.9435 0.0
H1642 H 0.48619 0.60894 0.86356 0.0
H1643 H 0.54453 0.65239 0.94168 0.0
C1644 C 0.59274 0.70416 0.92487 0.0
C1645 C 0.6097 0.72517 0.9033 0.0
C1646 C 0.47472 0.59525 0.88109 0.0
C1647 C 0.53678 0.65123 0.90251 0.0
C1648 C 0.43784 0.55864 0.8824 0.0
C1649 C 0.42288 0.53977 0.90492 0.0
C1650 C 0.49669 0.613 0.90248 0.0
C1651 C 0.44517 0.55928 0.92577 0.0
C1652 C 0.55687 0.66737 0.92457 0.0
C1653 C 0.58975 0.70755 0.88139 0.0
N1654 N 0.48068 0.59444 0.92402 0.0
N1655 N 0.55418 0.67167 0.88155 0.0
loop_
_geom_bond_atom_site_label_1
_geom_bond_atom_site_label_2
_geom_bond_distance
_geom_bond_site_symmetry_2
_ccdc_geom_bond_type
Tb0 N31 2.660 . S
Tb0 N38 2.600 . S
Tb0 O44 2.546 . S
Tb0 O45 2.610 . S
Tb0 O47 2.320 . S
Tb0 O48 2.552 . S
Tb0 O49 2.413 . S
Tb0 O51 2.362 . S
Tb0 O52 2.421 . S
Tb0 C64 2.833 . S
C1 C4 1.432 . S
C1 C5 1.414 . S
C1 N8 1.359 . S
C2 C4 1.417 . S
C2 C6 1.432 . S
C2 C14 1.410 . S
C3 C5 1.444 . S
C3 C6 1.317 . S
C3 H26 0.929 1_545 S
C4 C1 1.432 . S
C4 C2 1.417 . S
C4 N12 1.360 . S
C5 C1 1.414 . S
C5 C3 1.444 . S
C5 C10 1.385 . S
C6 C2 1.432 . S
C6 C3 1.317 . S
C6 H18 0.930 1_545 S
C7 C9 1.392 . S
C7 C10 1.370 . S
C7 H19 0.931 . S
N8 C1 1.359 . S
N8 C9 1.327 . S
N8 Tb11 2.600 . S
C9 C7 1.392 . S
C9 N8 1.327 . S
C9 H16 0.930 . S
C10 C5 1.385 . S
C10 C7 1.370 . S
C10 H29 0.930 . S
Tb11 N8 2.600 . S
Tb11 N12 2.660 . S
Tb11 O45 2.362 . S
Tb11 O46 2.421 . S
Tb11 O50 2.546 . S
Tb11 O51 2.610 . S
Tb11 O53 2.320 . S
Tb11 O54 2.552 . S
Tb11 O55 2.413 . S
Tb11 C75 2.833 . S
N12 C4 1.360 . S
N12 Tb11 2.660 . S
N12 C13 1.305 . S
C13 N12 1.305 . S
C13 C15 1.407 . S
C13 H20 0.930 . S
C14 C2 1.410 . S
C14 C15 1.345 . S
C14 H22 0.930 . S
C15 C13 1.407 . S
C15 C14 1.345 . S
C15 H17 0.930 . S
H16 C9 0.930 . S
H17 C15 0.930 . S
H18 C6 0.930 1_565 S
H19 C7 0.931 . S
H20 C13 0.930 . S
H21 C35 0.930 . S
H22 C14 0.930 . S
H23 C41 0.930 . S
H24 C32 0.930 . S
H25 C39 0.931 . S
H26 C3 0.929 1_565 S
H27 C33 0.930 . S
H28 C66 0.930 . S
H29 C10 0.930 . S
H30 C65 0.929 . S
N31 Tb0 2.660 . S
N31 C32 1.305 . S
N31 C36 1.360 . S
C32 H24 0.930 . S
C32 N31 1.305 . S
C32 C35 1.407 . S
C33 H27 0.930 . S
C33 C34 1.410 . S
C33 C35 1.345 . S
C34 C33 1.410 . S
C34 C36 1.417 . S
C34 C66 1.432 . S
C35 H21 0.930 . S
C35 C32 1.407 . S
C35 C33 1.345 . S
C36 N31 1.360 . S
C36 C34 1.417 . S
C36 C40 1.432 . S
H37 C42 0.930 . S
N38 Tb0 2.600 . S
N38 C40 1.359 . S
N38 C41 1.327 . S
C39 H25 0.931 . S
C39 C41 1.392 . S
C39 C42 1.370 . S
C40 C36 1.432 . S
C40 N38 1.359 . S
C40 C43 1.414 . S
C41 H23 0.930 . S
C41 N38 1.327 . S
C41 C39 1.392 . S
C42 H37 0.930 . S
C42 C39 1.370 . S
C42 C43 1.385 . S
C43 C40 1.414 . S
C43 C42 1.385 . S
C43 C65 1.444 . S
O44 Tb0 2.546 . S
O44 C64 1.251 . S
O45 Tb0 2.610 . S
O45 Tb11 2.362 . S
O45 C56 1.283 . S
O46 Tb11 2.421 . S
O46 C63 1.262 . S
O47 Tb0 2.320 . S
O47 C63 1.260 . S
O48 Tb0 2.552 . S
O48 C56 1.243 . S
O49 Tb0 2.413 . S
O49 C64 1.256 . S
O50 Tb11 2.546 . S
O50 C75 1.251 . S
O51 Tb0 2.362 . S
O51 Tb11 2.610 . S
O51 C67 1.283 . S
O52 Tb0 2.421 . S
O52 C74 1.262 . S
O53 Tb11 2.320 . S
O53 C74 1.260 . S
O54 Tb11 2.552 . S
O54 C67 1.243 . S
O55 Tb11 2.413 . S
O55 C75 1.256 . S
C56 O45 1.283 . S
C56 O48 1.243 . S
C57 C59 1.382 . S
C57 C61 1.393 . S
C57 C64 1.500 . S
C58 C59 1.400 . S
C58 C60 1.384 . S
C59 C57 1.382 . S
C59 C58 1.400 . S
C59 H76 0.930 . S
C60 C58 1.384 . S
C60 C62 1.392 . S
C60 H77 0.931 . S
C61 C57 1.393 . S
C61 C62 1.401 . S
C61 H78 0.930 . S
C62 C60 1.392 . S
C62 C61 1.401 . S
C62 H79 0.930 . S
C63 O46 1.262 . S
C63 O47 1.260 . S
C64 Tb0 2.833 . S
C64 O44 1.251 . S
C64 O49 1.256 . S
C64 C57 1.500 . S
C65 H30 0.929 . S
C65 C43 1.444 . S
C65 C66 1.317 . S
C66 H28 0.930 . S
C66 C34 1.432 . S
C66 C65 1.317 . S
C67 O51 1.283 . S
C67 O54 1.243 . S
C68 C69 1.382 . S
C68 C72 1.393 . S
C68 C75 1.500 1_565 S
C69 C68 1.382 . S
C69 C70 1.400 . S
C69 H80 0.930 . S
C70 C69 1.400 . S
C70 C71 1.384 . S
C71 C70 1.384 . S
C71 C73 1.392 . S
C71 H81 0.931 . S
C72 C68 1.393 . S
C72 C73 1.401 . S
C72 H82 0.930 . S
C73 C71 1.392 . S
C73 C72 1.401 . S
C73 H83 0.930 . S
C74 O52 1.262 . S
C74 O53 1.260 . S
C75 Tb11 2.833 . S
C75 O50 1.251 . S
C75 O55 1.256 . S
C75 C68 1.500 1_545 S
H76 C59 0.930 . S
H77 C60 0.931 . S
H78 C61 0.930 . S
H79 C62 0.930 . S
H80 C69 0.930 . S
H81 C71 0.931 . S
H82 C72 0.930 . S
H83 C73 0.930 . S
Tb84 N115 2.660 . S
Tb84 N122 2.600 . S
Tb84 O128 2.546 . S
Tb84 O129 2.610 . S
Tb84 O131 2.320 . S
Tb84 O132 2.552 . S
Tb84 O133 2.413 . S
Tb84 O135 2.362 . S
Tb84 O136 2.421 . S
Tb84 C148 2.833 . S
C85 C88 1.432 . S
C85 C89 1.414 . S
C85 N92 1.359 . S
C86 C88 1.417 . S
C86 C90 1.432 1_655 S
C86 C98 1.416 . S
C87 C89 1.444 1_455 S
C87 C90 1.317 . S
C87 H110 0.929 . S
C88 C85 1.432 . S
C88 C86 1.417 . S
C88 N96 1.360 . S
C89 C85 1.414 . S
C89 C87 1.444 1_655 S
C89 C94 1.385 . S
C90 C86 1.432 1_455 S
C90 C87 1.317 . S
C90 H102 0.930 . S
C91 C93 1.392 . S
C91 C94 1.370 . S
C91 H103 0.931 . S
N92 C85 1.359 . S
N92 C93 1.327 . S
N92 Tb95 2.600 . S
C93 C91 1.392 . S
C93 N92 1.327 . S
C93 H100 0.930 . S
C94 C89 1.385 . S
C94 C91 1.370 . S
C94 H113 0.930 . S
Tb95 N92 2.600 . S
Tb95 N96 2.660 . S
Tb95 O129 2.362 . S
Tb95 O130 2.421 . S
Tb95 O134 2.546 . S
Tb95 O135 2.610 . S
Tb95 O137 2.320 . S
Tb95 O138 2.552 . S
Tb95 O139 2.413 . S
Tb95 C159 2.833 . S
N96 C88 1.360 . S
N96 Tb95 2.660 . S
N96 C97 1.305 . S
C97 N96 1.305 . S
C97 C99 1.407 . S
C97 H104 0.930 . S
C98 C86 1.416 . S
C98 C99 1.368 . S
C98 H106 0.902 1_655 S
C99 C97 1.407 . S
C99 C98 1.368 . S
C99 H101 0.930 . S
H100 C93 0.930 . S
H101 C99 0.930 . S
H102 C90 0.930 . S
H103 C91 0.931 . S
H104 C97 0.930 . S
H105 C119 0.930 . S
H106 C98 0.902 1_455 S
H107 C125 0.930 . S
H108 C116 0.930 . S
H109 C123 0.931 . S
H110 C87 0.929 . S
H111 C117 0.930 . S
H112 C150 0.930 . S
H113 C94 0.930 . S
H114 C149 0.929 . S
N115 Tb84 2.660 . S
N115 C116 1.305 . S
N115 C120 1.360 . S
C116 H108 0.930 . S
C116 N115 1.305 . S
C116 C119 1.407 . S
C117 H111 0.930 . S
C117 C118 1.410 . S
C117 C119 1.345 . S
C118 C117 1.410 . S
C118 C120 1.417 . S
C118 C150 1.432 . S
C119 H105 0.930 . S
C119 C116 1.407 . S
C119 C117 1.345 . S
C120 N115 1.360 . S
C120 C118 1.417 . S
C120 C124 1.432 . S
H121 C126 0.930 . S
N122 Tb84 2.600 . S
N122 C124 1.359 . S
N122 C125 1.327 . S
C123 H109 0.931 . S
C123 C125 1.392 . S
C123 C126 1.370 . S
C124 C120 1.432 . S
C124 N122 1.359 . S
C124 C127 1.414 . S
C125 H107 0.930 . S
C125 N122 1.327 . S
C125 C123 1.392 . S
C126 H121 0.930 . S
C126 C123 1.370 . S
C126 C127 1.385 . S
C127 C124 1.414 . S
C127 C126 1.385 . S
C127 C149 1.444 . S
O128 Tb84 2.546 . S
O128 C148 1.251 . S
O129 Tb84 2.610 . S
O129 Tb95 2.362 . S
O129 C140 1.283 . S
O130 Tb95 2.421 . S
O130 C147 1.262 . S
O131 Tb84 2.320 . S
O131 C147 1.260 . S
O132 Tb84 2.552 . S
O132 C140 1.243 . S
O133 Tb84 2.413 . S
O133 C148 1.256 . S
O134 Tb95 2.546 . S
O134 C159 1.251 . S
O135 Tb84 2.362 . S
O135 Tb95 2.610 . S
O135 C151 1.283 . S
O136 Tb84 2.421 . S
O136 C158 1.262 . S
O137 Tb95 2.320 . S
O137 C158 1.260 . S
O138 Tb95 2.552 . S
O138 C151 1.243 . S
O139 Tb95 2.413 . S
O139 C159 1.256 . S
C140 O129 1.283 . S
C140 O132 1.243 . S
C141 C143 1.382 . S
C141 C145 1.393 . S
C141 C148 1.500 . S
C142 C143 1.400 . S
C142 C144 1.384 . S
C143 C141 1.382 . S
C143 C142 1.400 . S
C143 H160 0.930 . S
C144 C142 1.384 . S
C144 C146 1.392 . S
C144 H161 0.931 . S
C145 C141 1.393 . S
C145 C146 1.401 . S
C145 H162 0.930 . S
C146 C144 1.392 . S
C146 C145 1.401 . S
C146 H163 0.930 . S
C147 O130 1.262 . S
C147 O131 1.260 . S
C148 Tb84 2.833 . S
C148 O128 1.251 . S
C148 O133 1.256 . S
C148 C141 1.500 . S
C149 H114 0.929 . S
C149 C127 1.444 . S
C149 C150 1.317 . S
C150 H112 0.930 . S
C150 C118 1.432 . S
C150 C149 1.317 . S
C151 O135 1.283 . S
C151 O138 1.243 . S
C152 C153 1.382 . S
C152 C156 1.393 . S
C152 C159 1.500 . S
C153 C152 1.382 . S
C153 C154 1.400 . S
C153 H164 0.930 . S
C154 C153 1.400 . S
C154 C155 1.384 . S
C155 C154 1.384 . S
C155 C157 1.392 . S
C155 H165 0.931 . S
C156 C152 1.393 . S
C156 C157 1.401 . S
C156 H166 0.930 . S
C157 C155 1.392 . S
C157 C156 1.401 . S
C157 H167 0.930 . S
C158 O136 1.262 . S
C158 O137 1.260 . S
C159 Tb95 2.833 . S
C159 O134 1.251 . S
C159 O139 1.256 . S
C159 C152 1.500 . S
H160 C143 0.930 . S
H161 C144 0.931 . S
H162 C145 0.930 . S
H163 C146 0.930 . S
H164 C153 0.930 . S
H165 C155 0.931 . S
H166 C156 0.930 . S
H167 C157 0.930 . S
Tb168 N199 2.660 . S
Tb168 N206 2.600 . S
Tb168 O212 2.546 . S
Tb168 O213 2.610 . S
Tb168 O215 2.320 . S
Tb168 O216 2.552 . S
Tb168 O217 2.413 . S
Tb168 O219 2.362 . S
Tb168 O220 2.421 . S
Tb168 C232 2.833 . S
C169 C172 1.432 . S
C169 C173 1.414 . S
C169 N176 1.359 . S
C170 C172 1.417 . S
C170 C174 1.432 . S
C170 C182 1.410 . S
C171 C173 1.444 . S
C171 C174 1.317 . S
C171 H194 0.929 1_655 S
C172 C169 1.432 . S
C172 C170 1.417 . S
C172 N180 1.360 . S
C173 C169 1.414 . S
C173 C171 1.444 . S
C173 C178 1.385 . S
C174 C170 1.432 . S
C174 C171 1.317 . S
C174 H186 0.930 1_655 S
C175 C177 1.392 . S
C175 C178 1.370 . S
C175 H187 0.931 . S
N176 C169 1.359 . S
N176 C177 1.327 . S
N176 Tb179 2.600 . S
C177 C175 1.392 . S
C177 N176 1.327 . S
C177 H184 0.930 . S
C178 C173 1.385 . S
C178 C175 1.370 . S
C178 H197 0.930 . S
Tb179 N176 2.600 . S
Tb179 N180 2.660 . S
Tb179 O213 2.362 . S
Tb179 O214 2.421 . S
Tb179 O218 2.546 . S
Tb179 O219 2.610 . S
Tb179 O221 2.320 . S
Tb179 O222 2.552 . S
Tb179 O223 2.413 . S
Tb179 C243 2.833 . S
N180 C172 1.360 . S
N180 Tb179 2.660 . S
N180 C181 1.305 . S
C181 N180 1.305 . S
C181 C183 1.407 . S
C181 H188 0.930 . S
C182 C170 1.410 . S
C182 C183 1.345 . S
C182 H190 0.930 . S
C183 C181 1.407 . S
C183 C182 1.345 . S
C183 H185 0.930 . S
H184 C177 0.930 . S
H185 C183 0.930 . S
H186 C174 0.930 1_455 S
H187 C175 0.931 . S
H188 C181 0.930 . S
H189 C203 0.930 . S
H190 C182 0.930 . S
H191 C209 0.930 . S
H192 C200 0.930 . S
H193 C207 0.931 . S
H194 C171 0.929 1_455 S
H195 C201 0.902 1_565 S
H196 C234 0.930 . S
H197 C178 0.930 . S
H198 C233 0.929 . S
N199 Tb168 2.660 . S
N199 C200 1.305 . S
N199 C204 1.360 . S
C200 H192 0.930 . S
C200 N199 1.305 . S
C200 C203 1.407 . S
C201 H195 0.902 1_545 S
C201 C202 1.421 . S
C201 C203 1.364 . S
C202 C201 1.421 . S
C202 C204 1.417 . S
C202 C234 1.432 1_545 S
C203 H189 0.930 . S
C203 C200 1.407 . S
C203 C201 1.364 . S
C204 N199 1.360 . S
C204 C202 1.417 . S
C204 C208 1.432 . S
H205 C210 0.930 . S
N206 Tb168 2.600 . S
N206 C208 1.359 . S
N206 C209 1.327 . S
C207 H193 0.931 . S
C207 C209 1.392 . S
C207 C210 1.370 . S
C208 C204 1.432 . S
C208 N206 1.359 . S
C208 C211 1.414 . S
C209 H191 0.930 . S
C209 N206 1.327 . S
C209 C207 1.392 . S
C210 H205 0.930 . S
C210 C207 1.370 . S
C210 C211 1.385 . S
C211 C208 1.414 . S
C211 C210 1.385 . S
C211 C233 1.444 1_545 S
O212 Tb168 2.546 . S
O212 C232 1.251 . S
O213 Tb168 2.610 . S
O213 Tb179 2.362 . S
O213 C224 1.283 . S
O214 Tb179 2.421 . S
O214 C231 1.262 . S
O215 Tb168 2.320 . S
O215 C231 1.260 . S
O216 Tb168 2.552 . S
O216 C224 1.243 . S
O217 Tb168 2.413 . S
O217 C232 1.256 . S
O218 Tb179 2.546 . S
O218 C243 1.251 . S
O219 Tb168 2.362 . S
O219 Tb179 2.610 . S
O219 C235 1.283 . S
O220 Tb168 2.421 . S
O220 C242 1.262 . S
O221 Tb179 2.320 . S
O221 C242 1.260 . S
O222 Tb179 2.552 . S
O222 C235 1.243 . S
O223 Tb179 2.413 . S
O223 C243 1.256 . S
C224 O213 1.283 . S
C224 O216 1.243 . S
C225 C227 1.382 . S
C225 C229 1.393 . S
C225 C232 1.500 . S
C226 C227 1.400 . S
C226 C228 1.384 . S
C227 C225 1.382 . S
C227 C226 1.400 . S
C227 H244 0.930 . S
C228 C226 1.384 . S
C228 C230 1.392 . S
C228 H245 0.931 . S
C229 C225 1.393 . S
C229 C230 1.401 . S
C229 H246 0.930 . S
C230 C228 1.392 . S
C230 C229 1.401 . S
C230 H247 0.930 . S
C231 O214 1.262 . S
C231 O215 1.260 . S
C232 Tb168 2.833 . S
C232 O212 1.251 . S
C232 O217 1.256 . S
C232 C225 1.500 . S
C233 H198 0.929 . S
C233 C211 1.444 1_565 S
C233 C234 1.317 . S
C234 H196 0.930 . S
C234 C202 1.432 1_565 S
C234 C233 1.317 . S
C235 O219 1.283 . S
C235 O222 1.243 . S
C236 C237 1.382 . S
C236 C240 1.393 . S
C236 C243 1.500 1_455 S
C237 C236 1.382 . S
C237 C238 1.400 . S
C237 H248 0.930 . S
C238 C237 1.400 . S
C238 C239 1.384 . S
C239 C238 1.384 . S
C239 C241 1.392 . S
C239 H249 0.931 . S
C240 C236 1.393 . S
C240 C241 1.401 . S
C240 H250 0.930 . S
C241 C239 1.392 . S
C241 C240 1.401 . S
C241 H251 0.930 . S
C242 O220 1.262 . S
C242 O221 1.260 . S
C243 Tb179 2.833 . S
C243 O218 1.251 . S
C243 O223 1.256 . S
C243 C236 1.500 1_655 S
H244 C227 0.930 . S
H245 C228 0.931 . S
H246 C229 0.930 . S
H247 C230 0.930 . S
H248 C237 0.930 . S
H249 C239 0.931 . S
H250 C240 0.930 . S
H251 C241 0.930 . S
Tb252 N283 2.660 . S
Tb252 N290 2.600 . S
Tb252 O296 2.546 . S
Tb252 O297 2.610 . S
Tb252 O299 2.320 . S
Tb252 O300 2.552 . S
Tb252 O301 2.413 . S
Tb252 O303 2.362 . S
Tb252 O304 2.421 . S
Tb252 C316 2.833 . S
C253 C256 1.432 . S
C253 C257 1.414 . S
C253 N260 1.359 . S
C254 C256 1.417 . S
C254 C258 1.432 . S
C254 C266 1.410 . S
C255 C257 1.444 . S
C255 C258 1.317 . S
C255 H278 0.929 . S
C256 C253 1.432 . S
C256 C254 1.417 . S
C256 N264 1.360 . S
C257 C253 1.414 . S
C257 C255 1.444 . S
C257 C262 1.385 . S
C258 C254 1.432 . S
C258 C255 1.317 . S
C258 H270 0.930 . S
C259 C261 1.392 . S
C259 C262 1.370 . S
C259 H271 0.931 . S
N260 C253 1.359 . S
N260 C261 1.327 . S
N260 Tb263 2.600 . S
C261 C259 1.392 . S
C261 N260 1.327 . S
C261 H268 0.930 . S
C262 C257 1.385 . S
C262 C259 1.370 . S
C262 H281 0.930 . S
Tb263 N260 2.600 . S
Tb263 N264 2.660 . S
Tb263 O297 2.362 . S
Tb263 O298 2.421 . S
Tb263 O302 2.546 . S
Tb263 O303 2.610 . S
Tb263 O305 2.320 . S
Tb263 O306 2.552 . S
Tb263 O307 2.413 . S
Tb263 C327 2.833 . S
N264 C256 1.360 . S
N264 Tb263 2.660 . S
N264 C265 1.305 . S
C265 N264 1.305 . S
C265 C267 1.407 . S
C265 H272 0.930 . S
C266 C254 1.410 . S
C266 C267 1.345 . S
C266 H274 0.930 . S
C267 C265 1.407 . S
C267 C266 1.345 . S
C267 H269 0.930 . S
H268 C261 0.930 . S
H269 C267 0.930 . S
H270 C258 0.930 . S
H271 C259 0.931 . S
H272 C265 0.930 . S
H273 C287 0.930 . S
H274 C266 0.930 . S
H275 C293 0.930 . S
H276 C284 0.930 . S
H277 C291 0.931 . S
H278 C255 0.929 . S
H279 C285 0.930 . S
H280 C318 0.930 1_565 S
H281 C262 0.930 . S
H282 C317 0.929 1_565 S
N283 Tb252 2.660 . S
N283 C284 1.305 . S
N283 C288 1.360 . S
C284 H276 0.930 . S
C284 N283 1.305 . S
C284 C287 1.407 . S
C285 H279 0.930 . S
C285 C286 1.410 . S
C285 C287 1.345 . S
C286 C285 1.410 . S
C286 C288 1.417 . S
C286 C318 1.432 . S
C287 H273 0.930 . S
C287 C284 1.407 . S
C287 C285 1.345 . S
C288 N283 1.360 . S
C288 C286 1.417 . S
C288 C292 1.432 . S
H289 C294 0.930 . S
N290 Tb252 2.600 . S
N290 C292 1.359 . S
N290 C293 1.327 . S
C291 H277 0.931 . S
C291 C293 1.392 . S
C291 C294 1.370 . S
C292 C288 1.432 . S
C292 N290 1.359 . S
C292 C295 1.414 . S
C293 H275 0.930 . S
C293 N290 1.327 . S
C293 C291 1.392 . S
C294 H289 0.930 . S
C294 C291 1.370 . S
C294 C295 1.385 . S
C295 C292 1.414 . S
C295 C294 1.385 . S
C295 C317 1.444 . S
O296 Tb252 2.546 . S
O296 C316 1.251 . S
O297 Tb252 2.610 . S
O297 Tb263 2.362 . S
O297 C308 1.283 . S
O298 Tb263 2.421 . S
O298 C315 1.262 . S
O299 Tb252 2.320 . S
O299 C315 1.260 . S
O300 Tb252 2.552 . S
O300 C308 1.243 . S
O301 Tb252 2.413 . S
O301 C316 1.256 . S
O302 Tb263 2.546 . S
O302 C327 1.251 . S
O303 Tb252 2.362 . S
O303 Tb263 2.610 . S
O303 C319 1.283 . S
O304 Tb252 2.421 . S
O304 C326 1.262 . S
O305 Tb263 2.320 . S
O305 C326 1.260 . S
O306 Tb263 2.552 . S
O306 C319 1.243 . S
O307 Tb263 2.413 . S
O307 C327 1.256 . S
C308 O297 1.283 . S
C308 O300 1.243 . S
C309 C311 1.382 . S
C309 C313 1.393 . S
C309 C316 1.500 1_565 S
C310 C311 1.400 . S
C310 C312 1.384 . S
C311 C309 1.382 . S
C311 C310 1.400 . S
C311 H328 0.930 . S
C312 C310 1.384 . S
C312 C314 1.392 . S
C312 H329 0.931 . S
C313 C309 1.393 . S
C313 C314 1.401 . S
C313 H330 0.930 . S
C314 C312 1.392 . S
C314 C313 1.401 . S
C314 H331 0.930 . S
C315 O298 1.262 . S
C315 O299 1.260 . S
C316 Tb252 2.833 . S
C316 O296 1.251 . S
C316 O301 1.256 . S
C316 C309 1.500 1_545 S
C317 H282 0.929 1_545 S
C317 C295 1.444 . S
C317 C318 1.317 . S
C318 H280 0.930 1_545 S
C318 C286 1.432 . S
C318 C317 1.317 . S
C319 O303 1.283 . S
C319 O306 1.243 . S
C320 C321 1.382 . S
C320 C324 1.393 . S
C320 C327 1.500 . S
C321 C320 1.382 . S
C321 C322 1.400 . S
C321 H332 0.930 . S
C322 C321 1.400 . S
C322 C323 1.384 . S
C323 C322 1.384 . S
C323 C325 1.392 . S
C323 H333 0.931 . S
C324 C320 1.393 . S
C324 C325 1.401 . S
C324 H334 0.930 . S
C325 C323 1.392 . S
C325 C324 1.401 . S
C325 H335 0.930 . S
C326 O304 1.262 . S
C326 O305 1.260 . S
C327 Tb263 2.833 . S
C327 O302 1.251 . S
C327 O307 1.256 . S
C327 C320 1.500 . S
H328 C311 0.930 . S
H329 C312 0.931 . S
H330 C313 0.930 . S
H331 C314 0.930 . S
H332 C321 0.930 . S
H333 C323 0.931 . S
H334 C324 0.930 . S
H335 C325 0.930 . S
Tb336 N367 2.660 . S
Tb336 N374 2.600 . S
Tb336 O380 2.546 . S
Tb336 O381 2.610 . S
Tb336 O383 2.320 . S
Tb336 O384 2.552 . S
Tb336 O385 2.413 . S
Tb336 O387 2.362 . S
Tb336 O388 2.421 . S
Tb336 C400 2.833 . S
C337 C340 1.432 . S
C337 C341 1.414 . S
C337 N344 1.359 . S
C338 C340 1.417 . S
C338 C342 1.432 . S
C338 C350 1.410 . S
C339 C341 1.444 . S
C339 C342 1.317 . S
C339 H362 0.929 . S
C340 C337 1.432 . S
C340 C338 1.417 . S
C340 N348 1.360 . S
C341 C337 1.414 . S
C341 C339 1.444 . S
C341 C346 1.385 . S
C342 C338 1.432 . S
C342 C339 1.317 . S
C342 H354 0.930 . S
C343 C345 1.392 . S
C343 C346 1.370 . S
C343 H355 0.931 . S
N344 C337 1.359 . S
N344 C345 1.327 . S
N344 Tb347 2.600 . S
C345 C343 1.392 . S
C345 N344 1.327 . S
C345 H352 0.930 . S
C346 C341 1.385 . S
C346 C343 1.370 . S
C346 H365 0.930 . S
Tb347 N344 2.600 . S
Tb347 N348 2.660 . S
Tb347 O381 2.362 . S
Tb347 O382 2.421 . S
Tb347 O386 2.546 . S
Tb347 O387 2.610 . S
Tb347 O389 2.320 . S
Tb347 O390 2.552 . S
Tb347 O391 2.413 . S
Tb347 C411 2.833 . S
N348 C340 1.360 . S
N348 Tb347 2.660 . S
N348 C349 1.305 . S
C349 N348 1.305 . S
C349 C351 1.407 . S
C349 H356 0.930 . S
C350 C338 1.410 . S
C350 C351 1.345 . S
C350 H358 0.930 . S
C351 C349 1.407 . S
C351 C350 1.345 . S
C351 H353 0.930 . S
H352 C345 0.930 . S
H353 C351 0.930 . S
H354 C342 0.930 . S
H355 C343 0.931 . S
H356 C349 0.930 . S
H357 C371 0.930 . S
H358 C350 0.930 . S
H359 C377 0.930 . S
H360 C368 0.930 . S
H361 C375 0.931 . S
H362 C339 0.929 . S
H363 C369 0.902 1_455 S
H364 C402 0.930 . S
H365 C346 0.930 . S
H366 C401 0.929 . S
N367 Tb336 2.660 . S
N367 C368 1.305 . S
N367 C372 1.360 . S
C368 H360 0.930 . S
C368 N367 1.305 . S
C368 C371 1.407 . S
C369 H363 0.902 1_655 S
C369 C370 1.416 . S
C369 C371 1.368 . S
C370 C369 1.416 . S
C370 C372 1.417 . S
C370 C402 1.432 1_655 S
C371 H357 0.930 . S
C371 C368 1.407 . S
C371 C369 1.368 . S
C372 N367 1.360 . S
C372 C370 1.417 . S
C372 C376 1.432 . S
H373 C378 0.930 . S
N374 Tb336 2.600 . S
N374 C376 1.359 . S
N374 C377 1.327 . S
C375 H361 0.931 . S
C375 C377 1.392 . S
C375 C378 1.370 . S
C376 C372 1.432 . S
C376 N374 1.359 . S
C376 C379 1.414 . S
C377 H359 0.930 . S
C377 N374 1.327 . S
C377 C375 1.392 . S
C378 H373 0.930 . S
C378 C375 1.370 . S
C378 C379 1.385 . S
C379 C376 1.414 . S
C379 C378 1.385 . S
C379 C401 1.444 1_655 S
O380 Tb336 2.546 . S
O380 C400 1.251 . S
O381 Tb336 2.610 . S
O381 Tb347 2.362 . S
O381 C392 1.283 . S
O382 Tb347 2.421 . S
O382 C399 1.262 . S
O383 Tb336 2.320 . S
O383 C399 1.260 . S
O384 Tb336 2.552 . S
O384 C392 1.243 . S
O385 Tb336 2.413 . S
O385 C400 1.256 . S
O386 Tb347 2.546 . S
O386 C411 1.251 . S
O387 Tb336 2.362 . S
O387 Tb347 2.610 . S
O387 C403 1.283 . S
O388 Tb336 2.421 . S
O388 C410 1.262 . S
O389 Tb347 2.320 . S
O389 C410 1.260 . S
O390 Tb347 2.552 . S
O390 C403 1.243 . S
O391 Tb347 2.413 . S
O391 C411 1.256 . S
C392 O381 1.283 . S
C392 O384 1.243 . S
C393 C395 1.382 . S
C393 C397 1.393 . S
C393 C400 1.500 . S
C394 C395 1.400 . S
C394 C396 1.384 . S
C395 C393 1.382 . S
C395 C394 1.400 . S
C395 H412 0.930 . S
C396 C394 1.384 . S
C396 C398 1.392 . S
C396 H413 0.931 . S
C397 C393 1.393 . S
C397 C398 1.401 . S
C397 H414 0.930 . S
C398 C396 1.392 . S
C398 C397 1.401 . S
C398 H415 0.930 . S
C399 O382 1.262 . S
C399 O383 1.260 . S
C400 Tb336 2.833 . S
C400 O380 1.251 . S
C400 O385 1.256 . S
C400 C393 1.500 . S
C401 H366 0.929 . S
C401 C379 1.444 1_455 S
C401 C402 1.317 . S
C402 H364 0.930 . S
C402 C370 1.432 1_455 S
C402 C401 1.317 . S
C403 O387 1.283 . S
C403 O390 1.243 . S
C404 C405 1.382 . S
C404 C408 1.393 . S
C404 C411 1.500 . S
C405 C404 1.382 . S
C405 C406 1.400 . S
C405 H416 0.930 . S
C406 C405 1.400 . S
C406 C407 1.384 . S
C407 C406 1.384 . S
C407 C409 1.392 . S
C407 H417 0.931 . S
C408 C404 1.393 . S
C408 C409 1.401 . S
C408 H418 0.930 . S
C409 C407 1.392 . S
C409 C408 1.401 . S
C409 H419 0.930 . S
C410 O388 1.262 . S
C410 O389 1.260 . S
C411 Tb347 2.833 . S
C411 O386 1.251 . S
C411 O391 1.256 . S
C411 C404 1.500 . S
H412 C395 0.930 . S
H413 C396 0.931 . S
H414 C397 0.930 . S
H415 C398 0.930 . S
H416 C405 0.930 . S
H417 C407 0.931 . S
H418 C408 0.930 . S
H419 C409 0.930 . S
Tb420 N451 2.660 . S
Tb420 N458 2.600 . S
Tb420 O464 2.546 . S
Tb420 O465 2.610 . S
Tb420 O467 2.320 . S
Tb420 O468 2.552 . S
Tb420 O469 2.413 . S
Tb420 O471 2.362 . S
Tb420 O472 2.421 . S
Tb420 C484 2.833 . S
C421 C424 1.432 . S
C421 C425 1.414 . S
C421 N428 1.359 . S
C422 C424 1.417 . S
C422 C426 1.432 1_545 S
C422 C434 1.421 . S
C423 C425 1.444 1_565 S
C423 C426 1.317 . S
C423 H446 0.929 . S
C424 C421 1.432 . S
C424 C422 1.417 . S
C424 N432 1.360 . S
C425 C421 1.414 . S
C425 C423 1.444 1_545 S
C425 C430 1.385 . S
C426 C422 1.432 1_565 S
C426 C423 1.317 . S
C426 H438 0.930 . S
C427 C429 1.392 . S
C427 C430 1.370 . S
C427 H439 0.931 . S
N428 C421 1.359 . S
N428 C429 1.327 . S
N428 Tb431 2.600 . S
C429 C427 1.392 . S
C429 N428 1.327 . S
C429 H436 0.930 . S
C430 C425 1.385 . S
C430 C427 1.370 . S
C430 H449 0.930 . S
Tb431 N428 2.600 . S
Tb431 N432 2.660 . S
Tb431 O465 2.362 . S
Tb431 O466 2.421 . S
Tb431 O470 2.546 . S
Tb431 O471 2.610 . S
Tb431 O473 2.320 . S
Tb431 O474 2.552 . S
Tb431 O475 2.413 . S
Tb431 C495 2.833 . S
N432 C424 1.360 . S
N432 Tb431 2.660 . S
N432 C433 1.305 . S
C433 N432 1.305 . S
C433 C435 1.407 . S
C433 H440 0.930 . S
C434 C422 1.421 . S
C434 C435 1.364 . S
C434 H442 0.902 1_545 S
C435 C433 1.407 . S
C435 C434 1.364 . S
C435 H437 0.930 . S
H436 C429 0.930 . S
H437 C435 0.930 . S
H438 C426 0.930 . S
H439 C427 0.931 . S
H440 C433 0.930 . S
H441 C455 0.930 . S
H442 C434 0.902 1_565 S
H443 C461 0.930 . S
H444 C452 0.930 . S
H445 C459 0.931 . S
H446 C423 0.929 . S
H447 C453 0.930 . S
H448 C486 0.930 1_455 S
H449 C430 0.930 . S
H450 C485 0.929 1_455 S
N451 Tb420 2.660 . S
N451 C452 1.305 . S
N451 C456 1.360 . S
C452 H444 0.930 . S
C452 N451 1.305 . S
C452 C455 1.407 . S
C453 H447 0.930 . S
C453 C454 1.410 . S
C453 C455 1.345 . S
C454 C453 1.410 . S
C454 C456 1.417 . S
C454 C486 1.432 . S
C455 H441 0.930 . S
C455 C452 1.407 . S
C455 C453 1.345 . S
C456 N451 1.360 . S
C456 C454 1.417 . S
C456 C460 1.432 . S
H457 C462 0.930 . S
N458 Tb420 2.600 . S
N458 C460 1.359 . S
N458 C461 1.327 . S
C459 H445 0.931 . S
C459 C461 1.392 . S
C459 C462 1.370 . S
C460 C456 1.432 . S
C460 N458 1.359 . S
C460 C463 1.414 . S
C461 H443 0.930 . S
C461 N458 1.327 . S
C461 C459 1.392 . S
C462 H457 0.930 . S
C462 C459 1.370 . S
C462 C463 1.385 . S
C463 C460 1.414 . S
C463 C462 1.385 . S
C463 C485 1.444 . S
O464 Tb420 2.546 . S
O464 C484 1.251 . S
O465 Tb420 2.610 . S
O465 Tb431 2.362 . S
O465 C476 1.283 . S
O466 Tb431 2.421 . S
O466 C483 1.262 . S
O467 Tb420 2.320 . S
O467 C483 1.260 . S
O468 Tb420 2.552 . S
O468 C476 1.243 . S
O469 Tb420 2.413 . S
O469 C484 1.256 . S
O470 Tb431 2.546 . S
O470 C495 1.251 . S
O471 Tb420 2.362 . S
O471 Tb431 2.610 . S
O471 C487 1.283 . S
O472 Tb420 2.421 . S
O472 C494 1.262 . S
O473 Tb431 2.320 . S
O473 C494 1.260 . S
O474 Tb431 2.552 . S
O474 C487 1.243 . S
O475 Tb431 2.413 . S
O475 C495 1.256 . S
C476 O465 1.283 . S
C476 O468 1.243 . S
C477 C479 1.382 . S
C477 C481 1.393 . S
C477 C484 1.500 1_455 S
C478 C479 1.400 . S
C478 C480 1.384 . S
C479 C477 1.382 . S
C479 C478 1.400 . S
C479 H496 0.930 . S
C480 C478 1.384 . S
C480 C482 1.392 . S
C480 H497 0.931 . S
C481 C477 1.393 . S
C481 C482 1.401 . S
C481 H498 0.930 . S
C482 C480 1.392 . S
C482 C481 1.401 . S
C482 H499 0.930 . S
C483 O466 1.262 . S
C483 O467 1.260 . S
C484 Tb420 2.833 . S
C484 O464 1.251 . S
C484 O469 1.256 . S
C484 C477 1.500 1_655 S
C485 H450 0.929 1_655 S
C485 C463 1.444 . S
C485 C486 1.317 . S
C486 H448 0.930 1_655 S
C486 C454 1.432 . S
C486 C485 1.317 . S
C487 O471 1.283 . S
C487 O474 1.243 . S
C488 C489 1.382 . S
C488 C492 1.393 . S
C488 C495 1.500 . S
C489 C488 1.382 . S
C489 C490 1.400 . S
C489 H500 0.930 . S
C490 C489 1.400 . S
C490 C491 1.384 . S
C491 C490 1.384 . S
C491 C493 1.392 . S
C491 H501 0.931 . S
C492 C488 1.393 . S
C492 C493 1.401 . S
C492 H502 0.930 . S
C493 C491 1.392 . S
C493 C492 1.401 . S
C493 H503 0.930 . S
C494 O472 1.262 . S
C494 O473 1.260 . S
C495 Tb431 2.833 . S
C495 O470 1.251 . S
C495 O475 1.256 . S
C495 C488 1.500 . S
H496 C479 0.930 . S
H497 C480 0.931 . S
H498 C481 0.930 . S
H499 C482 0.930 . S
H500 C489 0.930 . S
H501 C491 0.931 . S
H502 C492 0.930 . S
H503 C493 0.930 . S
Tb504 N535 2.660 . S
Tb504 N542 2.600 . S
Tb504 O548 2.546 . S
Tb504 O549 2.610 . S
Tb504 O551 2.320 . S
Tb504 O552 2.552 . S
Tb504 O553 2.413 . S
Tb504 O555 2.362 . S
Tb504 O556 2.421 . S
Tb504 C568 2.833 . S
C505 C508 1.432 . S
C505 C509 1.414 . S
C505 N512 1.359 . S
C506 C508 1.417 . S
C506 C510 1.432 . S
C506 C518 1.410 . S
C507 C509 1.444 . S
C507 C510 1.317 . S
C507 H530 0.929 . S
C508 C505 1.432 . S
C508 C506 1.417 . S
C508 N516 1.360 . S
C509 C505 1.414 . S
C509 C507 1.444 . S
C509 C514 1.385 . S
C510 C506 1.432 . S
C510 C507 1.317 . S
C510 H522 0.930 . S
C511 C513 1.392 . S
C511 C514 1.370 . S
C511 H523 0.931 . S
N512 C505 1.359 . S
N512 C513 1.327 . S
N512 Tb515 2.600 . S
C513 C511 1.392 . S
C513 N512 1.327 . S
C513 H520 0.930 . S
C514 C509 1.385 . S
C514 C511 1.370 . S
C514 H533 0.930 . S
Tb515 N512 2.600 . S
Tb515 N516 2.660 . S
Tb515 O549 2.362 . S
Tb515 O550 2.421 . S
Tb515 O554 2.546 . S
Tb515 O555 2.610 . S
Tb515 O557 2.320 . S
Tb515 O558 2.552 . S
Tb515 O559 2.413 . S
Tb515 C579 2.833 . S
N516 C508 1.360 . S
N516 Tb515 2.660 . S
N516 C517 1.305 . S
C517 N516 1.305 . S
C517 C519 1.407 . S
C517 H524 0.930 . S
C518 C506 1.410 . S
C518 C519 1.345 . S
C518 H526 0.930 . S
C519 C517 1.407 . S
C519 C518 1.345 . S
C519 H521 0.930 . S
H520 C513 0.930 . S
H521 C519 0.930 . S
H522 C510 0.930 . S
H523 C511 0.931 . S
H524 C517 0.930 . S
H525 C539 0.930 . S
H526 C518 0.930 . S
H527 C545 0.930 . S
H528 C536 0.930 . S
H529 C543 0.931 . S
H530 C507 0.929 . S
H531 C537 0.930 . S
H532 C570 0.930 1_655 S
H533 C514 0.930 . S
H534 C569 0.929 1_655 S
N535 Tb504 2.660 . S
N535 C536 1.305 . S
N535 C540 1.360 . S
C536 H528 0.930 . S
C536 N535 1.305 . S
C536 C539 1.407 . S
C537 H531 0.930 . S
C537 C538 1.410 . S
C537 C539 1.345 . S
C538 C537 1.410 . S
C538 C540 1.417 . S
C538 C570 1.432 . S
C539 H525 0.930 . S
C539 C536 1.407 . S
C539 C537 1.345 . S
C540 N535 1.360 . S
C540 C538 1.417 . S
C540 C544 1.432 . S
H541 C546 0.930 . S
N542 Tb504 2.600 . S
N542 C544 1.359 . S
N542 C545 1.327 . S
C543 H529 0.931 . S
C543 C545 1.392 . S
C543 C546 1.370 . S
C544 C540 1.432 . S
C544 N542 1.359 . S
C544 C547 1.414 . S
C545 H527 0.930 . S
C545 N542 1.327 . S
C545 C543 1.392 . S
C546 H541 0.930 . S
C546 C543 1.370 . S
C546 C547 1.385 . S
C547 C544 1.414 . S
C547 C546 1.385 . S
C547 C569 1.444 . S
O548 Tb504 2.546 . S
O548 C568 1.251 . S
O549 Tb504 2.610 . S
O549 Tb515 2.362 . S
O549 C560 1.283 . S
O550 Tb515 2.421 . S
O550 C567 1.262 . S
O551 Tb504 2.320 . S
O551 C567 1.260 . S
O552 Tb504 2.552 . S
O552 C560 1.243 . S
O553 Tb504 2.413 . S
O553 C568 1.256 . S
O554 Tb515 2.546 . S
O554 C579 1.251 . S
O555 Tb504 2.362 . S
O555 Tb515 2.610 . S
O555 C571 1.283 . S
O556 Tb504 2.421 . S
O556 C578 1.262 . S
O557 Tb515 2.320 . S
O557 C578 1.260 . S
O558 Tb515 2.552 . S
O558 C571 1.243 . S
O559 Tb515 2.413 . S
O559 C579 1.256 . S
C560 O549 1.283 . S
C560 O552 1.243 . S
C561 C563 1.382 . S
C561 C565 1.393 . S
C561 C568 1.500 1_655 S
C562 C563 1.400 . S
C562 C564 1.384 . S
C563 C561 1.382 . S
C563 C562 1.400 . S
C563 H580 0.930 . S
C564 C562 1.384 . S
C564 C566 1.392 . S
C564 H581 0.931 . S
C565 C561 1.393 . S
C565 C566 1.401 . S
C565 H582 0.930 . S
C566 C564 1.392 . S
C566 C565 1.401 . S
C566 H583 0.930 . S
C567 O550 1.262 . S
C567 O551 1.260 . S
C568 Tb504 2.833 . S
C568 O548 1.251 . S
C568 O553 1.256 . S
C568 C561 1.500 1_455 S
C569 H534 0.929 1_455 S
C569 C547 1.444 . S
C569 C570 1.317 . S
C570 H532 0.930 1_455 S
C570 C538 1.432 . S
C570 C569 1.317 . S
C571 O555 1.283 . S
C571 O558 1.243 . S
C572 C573 1.382 . S
C572 C576 1.393 . S
C572 C579 1.500 . S
C573 C572 1.382 . S
C573 C574 1.400 . S
C573 H584 0.930 . S
C574 C573 1.400 . S
C574 C575 1.384 . S
C575 C574 1.384 . S
C575 C577 1.392 . S
C575 H585 0.931 . S
C576 C572 1.393 . S
C576 C577 1.401 . S
C576 H586 0.930 . S
C577 C575 1.392 . S
C577 C576 1.401 . S
C577 H587 0.930 . S
C578 O556 1.262 . S
C578 O557 1.260 . S
C579 Tb515 2.833 . S
C579 O554 1.251 . S
C579 O559 1.256 . S
C579 C572 1.500 . S
H580 C563 0.930 . S
H581 C564 0.931 . S
H582 C565 0.930 . S
H583 C566 0.930 . S
H584 C573 0.930 . S
H585 C575 0.931 . S
H586 C576 0.930 . S
H587 C577 0.930 . S
Tb588 N619 2.660 . S
Tb588 N626 2.600 . S
Tb588 O632 2.546 . S
Tb588 O633 2.610 . S
Tb588 O635 2.320 . S
Tb588 O636 2.552 . S
Tb588 O637 2.413 . S
Tb588 O639 2.362 . S
Tb588 O640 2.421 . S
Tb588 C652 2.833 . S
C589 C592 1.432 . S
C589 C593 1.414 . S
C589 N596 1.359 . S
C590 C592 1.417 . S
C590 C594 1.432 . S
C590 C602 1.410 . S
C591 C593 1.444 . S
C591 C594 1.317 . S
C591 H614 0.929 1_565 S
C592 C589 1.432 . S
C592 C590 1.417 . S
C592 N600 1.360 . S
C593 C589 1.414 . S
C593 C591 1.444 . S
C593 C598 1.385 . S
C594 C590 1.432 . S
C594 C591 1.317 . S
C594 H606 0.930 1_565 S
C595 C597 1.392 . S
C595 C598 1.370 . S
C595 H607 0.931 . S
N596 C589 1.359 . S
N596 C597 1.327 . S
N596 Tb599 2.600 . S
C597 C595 1.392 . S
C597 N596 1.327 . S
C597 H604 0.930 . S
C598 C593 1.385 . S
C598 C595 1.370 . S
C598 H617 0.930 . S
Tb599 N596 2.600 . S
Tb599 N600 2.660 . S
Tb599 O633 2.362 . S
Tb599 O634 2.421 . S
Tb599 O638 2.546 . S
Tb599 O639 2.610 . S
Tb599 O641 2.320 . S
Tb599 O642 2.552 . S
Tb599 O643 2.413 . S
Tb599 C663 2.833 . S
N600 C592 1.360 . S
N600 Tb599 2.660 . S
N600 C601 1.305 . S
C601 N600 1.305 . S
C601 C603 1.407 . S
C601 H608 0.930 . S
C602 C590 1.410 . S
C602 C603 1.345 . S
C602 H610 0.930 . S
C603 C601 1.407 . S
C603 C602 1.345 . S
C603 H605 0.930 . S
H604 C597 0.930 . S
H605 C603 0.930 . S
H606 C594 0.930 1_545 S
H607 C595 0.931 . S
H608 C601 0.930 . S
H609 C623 0.930 . S
H610 C602 0.930 . S
H611 C629 0.930 . S
H612 C620 0.930 . S
H613 C627 0.931 . S
H614 C591 0.929 1_545 S
H615 C621 0.902 1_655 S
H616 C654 0.930 . S
H617 C598 0.930 . S
H618 C653 0.929 . S
N619 Tb588 2.660 . S
N619 C620 1.305 . S
N619 C624 1.360 . S
C620 H612 0.930 . S
C620 N619 1.305 . S
C620 C623 1.407 . S
C621 H615 0.902 1_455 S
C621 C622 1.421 . S
C621 C623 1.364 . S
C622 C621 1.421 . S
C622 C624 1.417 . S
C622 C654 1.432 1_455 S
C623 H609 0.930 . S
C623 C620 1.407 . S
C623 C621 1.364 . S
C624 N619 1.360 . S
C624 C622 1.417 . S
C624 C628 1.432 . S
H625 C630 0.930 . S
N626 Tb588 2.600 . S
N626 C628 1.359 . S
N626 C629 1.327 . S
C627 H613 0.931 . S
C627 C629 1.392 . S
C627 C630 1.370 . S
C628 C624 1.432 . S
C628 N626 1.359 . S
C628 C631 1.414 . S
C629 H611 0.930 . S
C629 N626 1.327 . S
C629 C627 1.392 . S
C630 H625 0.930 . S
C630 C627 1.370 . S
C630 C631 1.385 . S
C631 C628 1.414 . S
C631 C630 1.385 . S
C631 C653 1.444 1_455 S
O632 Tb588 2.546 . S
O632 C652 1.251 . S
O633 Tb588 2.610 . S
O633 Tb599 2.362 . S
O633 C644 1.283 . S
O634 Tb599 2.421 . S
O634 C651 1.262 . S
O635 Tb588 2.320 . S
O635 C651 1.260 . S
O636 Tb588 2.552 . S
O636 C644 1.243 . S
O637 Tb588 2.413 . S
O637 C652 1.256 . S
O638 Tb599 2.546 . S
O638 C663 1.251 . S
O639 Tb588 2.362 . S
O639 Tb599 2.610 . S
O639 C655 1.283 . S
O640 Tb588 2.421 . S
O640 C662 1.262 . S
O641 Tb599 2.320 . S
O641 C662 1.260 . S
O642 Tb599 2.552 . S
O642 C655 1.243 . S
O643 Tb599 2.413 . S
O643 C663 1.256 . S
C644 O633 1.283 . S
C644 O636 1.243 . S
C645 C647 1.382 . S
C645 C649 1.393 . S
C645 C652 1.500 . S
C646 C647 1.400 . S
C646 C648 1.384 . S
C647 C645 1.382 . S
C647 C646 1.400 . S
C647 H664 0.930 . S
C648 C646 1.384 . S
C648 C650 1.392 . S
C648 H665 0.931 . S
C649 C645 1.393 . S
C649 C650 1.401 . S
C649 H666 0.930 . S
C650 C648 1.392 . S
C650 C649 1.401 . S
C650 H667 0.930 . S
C651 O634 1.262 . S
C651 O635 1.260 . S
C652 Tb588 2.833 . S
C652 O632 1.251 . S
C652 O637 1.256 . S
C652 C645 1.500 . S
C653 H618 0.929 . S
C653 C631 1.444 1_655 S
C653 C654 1.317 . S
C654 H616 0.930 . S
C654 C622 1.432 1_655 S
C654 C653 1.317 . S
C655 O639 1.283 . S
C655 O642 1.243 . S
C656 C657 1.382 . S
C656 C660 1.393 . S
C656 C663 1.500 1_545 S
C657 C656 1.382 . S
C657 C658 1.400 . S
C657 H668 0.930 . S
C658 C657 1.400 . S
C658 C659 1.384 . S
C659 C658 1.384 . S
C659 C661 1.392 . S
C659 H669 0.931 . S
C660 C656 1.393 . S
C660 C661 1.401 . S
C660 H670 0.930 . S
C661 C659 1.392 . S
C661 C660 1.401 . S
C661 H671 0.930 . S
C662 O640 1.262 . S
C662 O641 1.260 . S
C663 Tb599 2.833 . S
C663 O638 1.251 . S
C663 O643 1.256 . S
C663 C656 1.500 1_565 S
H664 C647 0.930 . S
H665 C648 0.931 . S
H666 C649 0.930 . S
H667 C650 0.930 . S
H668 C657 0.930 . S
H669 C659 0.931 . S
H670 C660 0.930 . S
H671 C661 0.930 . S
Tb672 N703 2.660 . S
Tb672 N710 2.600 . S
Tb672 O716 2.546 . S
Tb672 O717 2.610 . S
Tb672 O719 2.320 . S
Tb672 O720 2.552 . S
Tb672 O721 2.413 . S
Tb672 O723 2.362 . S
Tb672 O724 2.421 . S
Tb672 C736 2.833 . S
C673 C676 1.432 . S
C673 C677 1.414 . S
C673 N680 1.359 . S
C674 C676 1.417 . S
C674 C678 1.432 1_565 S
C674 C686 1.416 . S
C675 C677 1.444 1_545 S
C675 C678 1.317 . S
C675 H698 0.929 . S
C676 C673 1.432 . S
C676 C674 1.417 . S
C676 N684 1.360 . S
C677 C673 1.414 . S
C677 C675 1.444 1_565 S
C677 C682 1.385 . S
C678 C674 1.432 1_545 S
C678 C675 1.317 . S
C678 H690 0.930 . S
C679 C681 1.392 . S
C679 C682 1.370 . S
C679 H691 0.931 . S
N680 C673 1.359 . S
N680 C681 1.327 . S
N680 Tb683 2.600 . S
C681 C679 1.392 . S
C681 N680 1.327 . S
C681 H688 0.930 . S
C682 C677 1.385 . S
C682 C679 1.370 . S
C682 H701 0.930 . S
Tb683 N680 2.600 . S
Tb683 N684 2.660 . S
Tb683 O717 2.362 . S
Tb683 O718 2.421 . S
Tb683 O722 2.546 . S
Tb683 O723 2.610 . S
Tb683 O725 2.320 . S
Tb683 O726 2.552 . S
Tb683 O727 2.413 . S
Tb683 C747 2.833 . S
N684 C676 1.360 . S
N684 Tb683 2.660 . S
N684 C685 1.305 . S
C685 N684 1.305 . S
C685 C687 1.407 . S
C685 H692 0.930 . S
C686 C674 1.416 . S
C686 C687 1.368 . S
C686 H694 0.902 1_565 S
C687 C685 1.407 . S
C687 C686 1.368 . S
C687 H689 0.930 . S
H688 C681 0.930 . S
H689 C687 0.930 . S
H690 C678 0.930 . S
H691 C679 0.931 . S
H692 C685 0.930 . S
H693 C707 0.930 . S
H694 C686 0.902 1_545 S
H695 C713 0.930 . S
H696 C704 0.930 . S
H697 C711 0.931 . S
H698 C675 0.929 . S
H699 C705 0.930 . S
H700 C738 0.930 . S
H701 C682 0.930 . S
H702 C737 0.929 . S
N703 Tb672 2.660 . S
N703 C704 1.305 . S
N703 C708 1.360 . S
C704 H696 0.930 . S
C704 N703 1.305 . S
C704 C707 1.407 . S
C705 H699 0.930 . S
C705 C706 1.410 . S
C705 C707 1.345 . S
C706 C705 1.410 . S
C706 C708 1.417 . S
C706 C738 1.432 . S
C707 H693 0.930 . S
C707 C704 1.407 . S
C707 C705 1.345 . S
C708 N703 1.360 . S
C708 C706 1.417 . S
C708 C712 1.432 . S
H709 C714 0.930 . S
N710 Tb672 2.600 . S
N710 C712 1.359 . S
N710 C713 1.327 . S
C711 H697 0.931 . S
C711 C713 1.392 . S
C711 C714 1.370 . S
C712 C708 1.432 . S
C712 N710 1.359 . S
C712 C715 1.414 . S
C713 H695 0.930 . S
C713 N710 1.327 . S
C713 C711 1.392 . S
C714 H709 0.930 . S
C714 C711 1.370 . S
C714 C715 1.385 . S
C715 C712 1.414 . S
C715 C714 1.385 . S
C715 C737 1.444 . S
O716 Tb672 2.546 . S
O716 C736 1.251 . S
O717 Tb672 2.610 . S
O717 Tb683 2.362 . S
O717 C728 1.283 . S
O718 Tb683 2.421 . S
O718 C735 1.262 . S
O719 Tb672 2.320 . S
O719 C735 1.260 . S
O720 Tb672 2.552 . S
O720 C728 1.243 . S
O721 Tb672 2.413 . S
O721 C736 1.256 . S
O722 Tb683 2.546 . S
O722 C747 1.251 . S
O723 Tb672 2.362 . S
O723 Tb683 2.610 . S
O723 C739 1.283 . S
O724 Tb672 2.421 . S
O724 C746 1.262 . S
O725 Tb683 2.320 . S
O725 C746 1.260 . S
O726 Tb683 2.552 . S
O726 C739 1.243 . S
O727 Tb683 2.413 . S
O727 C747 1.256 . S
C728 O717 1.283 . S
C728 O720 1.243 . S
C729 C731 1.382 . S
C729 C733 1.393 . S
C729 C736 1.500 . S
C730 C731 1.400 . S
C730 C732 1.384 . S
C731 C729 1.382 . S
C731 C730 1.400 . S
C731 H748 0.930 . S
C732 C730 1.384 . S
C732 C734 1.392 . S
C732 H749 0.931 . S
C733 C729 1.393 . S
C733 C734 1.401 . S
C733 H750 0.930 . S
C734 C732 1.392 . S
C734 C733 1.401 . S
C734 H751 0.930 . S
C735 O718 1.262 . S
C735 O719 1.260 . S
C736 Tb672 2.833 . S
C736 O716 1.251 . S
C736 O721 1.256 . S
C736 C729 1.500 . S
C737 H702 0.929 . S
C737 C715 1.444 . S
C737 C738 1.317 . S
C738 H700 0.930 . S
C738 C706 1.432 . S
C738 C737 1.317 . S
C739 O723 1.283 . S
C739 O726 1.243 . S
C740 C741 1.382 . S
C740 C744 1.393 . S
C740 C747 1.500 . S
C741 C740 1.382 . S
C741 C742 1.400 . S
C741 H752 0.930 . S
C742 C741 1.400 . S
C742 C743 1.384 . S
C743 C742 1.384 . S
C743 C745 1.392 . S
C743 H753 0.931 . S
C744 C740 1.393 . S
C744 C745 1.401 . S
C744 H754 0.930 . S
C745 C743 1.392 . S
C745 C744 1.401 . S
C745 H755 0.930 . S
C746 O724 1.262 . S
C746 O725 1.260 . S
C747 Tb683 2.833 . S
C747 O722 1.251 . S
C747 O727 1.256 . S
C747 C740 1.500 . S
H748 C731 0.930 . S
H749 C732 0.931 . S
H750 C733 0.930 . S
H751 C734 0.930 . S
H752 C741 0.930 . S
H753 C743 0.931 . S
H754 C744 0.930 . S
H755 C745 0.930 . S
Tb756 N787 2.660 . S
Tb756 N794 2.600 . S
Tb756 O800 2.546 . S
Tb756 O801 2.610 . S
Tb756 O803 2.320 . S
Tb756 O804 2.552 . S
Tb756 O805 2.413 . S
Tb756 O807 2.362 . S
Tb756 O808 2.421 . S
Tb756 C820 2.833 . S
C757 C760 1.432 . S
C757 C761 1.414 . S
C757 N764 1.359 . S
C758 C760 1.417 . S
C758 C762 1.432 . S
C758 C770 1.410 . S
C759 C761 1.444 . S
C759 C762 1.317 . S
C759 H782 0.929 1_455 S
C760 C757 1.432 . S
C760 C758 1.417 . S
C760 N768 1.360 . S
C761 C757 1.414 . S
C761 C759 1.444 . S
C761 C766 1.385 . S
C762 C758 1.432 . S
C762 C759 1.317 . S
C762 H774 0.930 1_455 S
C763 C765 1.392 . S
C763 C766 1.370 . S
C763 H775 0.931 . S
N764 C757 1.359 . S
N764 C765 1.327 . S
N764 Tb767 2.600 . S
C765 C763 1.392 . S
C765 N764 1.327 . S
C765 H772 0.930 . S
C766 C761 1.385 . S
C766 C763 1.370 . S
C766 H785 0.930 . S
Tb767 N764 2.600 . S
Tb767 N768 2.660 . S
Tb767 O801 2.362 . S
Tb767 O802 2.421 . S
Tb767 O806 2.546 . S
Tb767 O807 2.610 . S
Tb767 O809 2.320 . S
Tb767 O810 2.552 . S
Tb767 O811 2.413 . S
Tb767 C831 2.833 . S
N768 C760 1.360 . S
N768 Tb767 2.660 . S
N768 C769 1.305 . S
C769 N768 1.305 . S
C769 C771 1.407 . S
C769 H776 0.930 . S
C770 C758 1.410 . S
C770 C771 1.345 . S
C770 H778 0.930 . S
C771 C769 1.407 . S
C771 C770 1.345 . S
C771 H773 0.930 . S
H772 C765 0.930 . S
H773 C771 0.930 . S
H774 C762 0.930 1_655 S
H775 C763 0.931 . S
H776 C769 0.930 . S
H777 C791 0.930 . S
H778 C770 0.930 . S
H779 C797 0.930 . S
H780 C788 0.930 . S
H781 C795 0.931 . S
H782 C759 0.929 1_655 S
H783 C789 0.930 . S
H784 C822 0.930 . S
H785 C766 0.930 . S
H786 C821 0.929 . S
N787 Tb756 2.660 . S
N787 C788 1.305 . S
N787 C792 1.360 . S
C788 H780 0.930 . S
C788 N787 1.305 . S
C788 C791 1.407 . S
C789 H783 0.930 . S
C789 C790 1.410 . S
C789 C791 1.345 . S
C790 C789 1.410 . S
C790 C792 1.417 . S
C790 C822 1.432 . S
C791 H777 0.930 . S
C791 C788 1.407 . S
C791 C789 1.345 . S
C792 N787 1.360 . S
C792 C790 1.417 . S
C792 C796 1.432 . S
H793 C798 0.930 . S
N794 Tb756 2.600 . S
N794 C796 1.359 . S
N794 C797 1.327 . S
C795 H781 0.931 . S
C795 C797 1.392 . S
C795 C798 1.370 . S
C796 C792 1.432 . S
C796 N794 1.359 . S
C796 C799 1.414 . S
C797 H779 0.930 . S
C797 N794 1.327 . S
C797 C795 1.392 . S
C798 H793 0.930 . S
C798 C795 1.370 . S
C798 C799 1.385 . S
C799 C796 1.414 . S
C799 C798 1.385 . S
C799 C821 1.444 . S
O800 Tb756 2.546 . S
O800 C820 1.251 . S
O801 Tb756 2.610 . S
O801 Tb767 2.362 . S
O801 C812 1.283 . S
O802 Tb767 2.421 . S
O802 C819 1.262 . S
O803 Tb756 2.320 . S
O803 C819 1.260 . S
O804 Tb756 2.552 . S
O804 C812 1.243 . S
O805 Tb756 2.413 . S
O805 C820 1.256 . S
O806 Tb767 2.546 . S
O806 C831 1.251 . S
O807 Tb756 2.362 . S
O807 Tb767 2.610 . S
O807 C823 1.283 . S
O808 Tb756 2.421 . S
O808 C830 1.262 . S
O809 Tb767 2.320 . S
O809 C830 1.260 . S
O810 Tb767 2.552 . S
O810 C823 1.243 . S
O811 Tb767 2.413 . S
O811 C831 1.256 . S
C812 O801 1.283 . S
C812 O804 1.243 . S
C813 C815 1.382 . S
C813 C817 1.393 . S
C813 C820 1.500 . S
C814 C815 1.400 . S
C814 C816 1.384 . S
C815 C813 1.382 . S
C815 C814 1.400 . S
C815 H832 0.930 . S
C816 C814 1.384 . S
C816 C818 1.392 . S
C816 H833 0.931 . S
C817 C813 1.393 . S
C817 C818 1.401 . S
C817 H834 0.930 . S
C818 C816 1.392 . S
C818 C817 1.401 . S
C818 H835 0.930 . S
C819 O802 1.262 . S
C819 O803 1.260 . S
C820 Tb756 2.833 . S
C820 O800 1.251 . S
C820 O805 1.256 . S
C820 C813 1.500 . S
C821 H786 0.929 . S
C821 C799 1.444 . S
C821 C822 1.317 . S
C822 H784 0.930 . S
C822 C790 1.432 . S
C822 C821 1.317 . S
C823 O807 1.283 . S
C823 O810 1.243 . S
C824 C825 1.382 . S
C824 C828 1.393 . S
C824 C831 1.500 1_655 S
C825 C824 1.382 . S
C825 C826 1.400 . S
C825 H836 0.930 . S
C826 C825 1.400 . S
C826 C827 1.384 . S
C827 C826 1.384 . S
C827 C829 1.392 . S
C827 H837 0.931 . S
C828 C824 1.393 . S
C828 C829 1.401 . S
C828 H838 0.930 . S
C829 C827 1.392 . S
C829 C828 1.401 . S
C829 H839 0.930 . S
C830 O808 1.262 . S
C830 O809 1.260 . S
C831 Tb767 2.833 . S
C831 O806 1.251 . S
C831 O811 1.256 . S
C831 C824 1.500 1_455 S
H832 C815 0.930 . S
H833 C816 0.931 . S
H834 C817 0.930 . S
H835 C818 0.930 . S
H836 C825 0.930 . S
H837 C827 0.931 . S
H838 C828 0.930 . S
H839 C829 0.930 . S
Tb840 N871 2.660 . S
Tb840 N878 2.600 . S
Tb840 O884 2.546 . S
Tb840 O885 2.610 . S
Tb840 O887 2.320 . S
Tb840 O888 2.552 . S
Tb840 O889 2.413 . S
Tb840 O891 2.362 . S
Tb840 O892 2.421 . S
Tb840 C904 2.833 . S
C841 C844 1.432 . S
C841 C845 1.414 . S
C841 N848 1.359 . S
C842 C844 1.417 . S
C842 C846 1.432 1_455 S
C842 C854 1.421 . S
C843 C845 1.444 1_655 S
C843 C846 1.317 . S
C843 H866 0.929 . S
C844 C841 1.432 . S
C844 C842 1.417 . S
C844 N852 1.360 . S
C845 C841 1.414 . S
C845 C843 1.444 1_455 S
C845 C850 1.385 . S
C846 C842 1.432 1_655 S
C846 C843 1.317 . S
C846 H858 0.930 . S
C847 C849 1.392 . S
C847 C850 1.370 . S
C847 H859 0.931 . S
N848 C841 1.359 . S
N848 C849 1.327 . S
N848 Tb851 2.600 . S
C849 C847 1.392 . S
C849 N848 1.327 . S
C849 H856 0.930 . S
C850 C845 1.385 . S
C850 C847 1.370 . S
C850 H869 0.930 . S
Tb851 N848 2.600 . S
Tb851 N852 2.660 . S
Tb851 O885 2.362 . S
Tb851 O886 2.421 . S
Tb851 O890 2.546 . S
Tb851 O891 2.610 . S
Tb851 O893 2.320 . S
Tb851 O894 2.552 . S
Tb851 O895 2.413 . S
Tb851 C915 2.833 . S
N852 C844 1.360 . S
N852 Tb851 2.660 . S
N852 C853 1.305 . S
C853 N852 1.305 . S
C853 C855 1.407 . S
C853 H860 0.930 . S
C854 C842 1.421 . S
C854 C855 1.364 . S
C854 H862 0.902 1_455 S
C855 C853 1.407 . S
C855 C854 1.364 . S
C855 H857 0.930 . S
H856 C849 0.930 . S
H857 C855 0.930 . S
H858 C846 0.930 . S
H859 C847 0.931 . S
H860 C853 0.930 . S
H861 C875 0.930 . S
H862 C854 0.902 1_655 S
H863 C881 0.930 . S
H864 C872 0.930 . S
H865 C879 0.931 . S
H866 C843 0.929 . S
H867 C873 0.930 . S
H868 C906 0.930 1_545 S
H869 C850 0.930 . S
H870 C905 0.929 1_545 S
N871 Tb840 2.660 . S
N871 C872 1.305 . S
N871 C876 1.360 . S
C872 H864 0.930 . S
C872 N871 1.305 . S
C872 C875 1.407 . S
C873 H867 0.930 . S
C873 C874 1.410 . S
C873 C875 1.345 . S
C874 C873 1.410 . S
C874 C876 1.417 . S
C874 C906 1.432 . S
C875 H861 0.930 . S
C875 C872 1.407 . S
C875 C873 1.345 . S
C876 N871 1.360 . S
C876 C874 1.417 . S
C876 C880 1.432 . S
H877 C882 0.930 . S
N878 Tb840 2.600 . S
N878 C880 1.359 . S
N878 C881 1.327 . S
C879 H865 0.931 . S
C879 C881 1.392 . S
C879 C882 1.370 . S
C880 C876 1.432 . S
C880 N878 1.359 . S
C880 C883 1.414 . S
C881 H863 0.930 . S
C881 N878 1.327 . S
C881 C879 1.392 . S
C882 H877 0.930 . S
C882 C879 1.370 . S
C882 C883 1.385 . S
C883 C880 1.414 . S
C883 C882 1.385 . S
C883 C905 1.444 . S
O884 Tb840 2.546 . S
O884 C904 1.251 . S
O885 Tb840 2.610 . S
O885 Tb851 2.362 . S
O885 C896 1.283 . S
O886 Tb851 2.421 . S
O886 C903 1.262 . S
O887 Tb840 2.320 . S
O887 C903 1.260 . S
O888 Tb840 2.552 . S
O888 C896 1.243 . S
O889 Tb840 2.413 . S
O889 C904 1.256 . S
O890 Tb851 2.546 . S
O890 C915 1.251 . S
O891 Tb840 2.362 . S
O891 Tb851 2.610 . S
O891 C907 1.283 . S
O892 Tb840 2.421 . S
O892 C914 1.262 . S
O893 Tb851 2.320 . S
O893 C914 1.260 . S
O894 Tb851 2.552 . S
O894 C907 1.243 . S
O895 Tb851 2.413 . S
O895 C915 1.256 . S
C896 O885 1.283 . S
C896 O888 1.243 . S
C897 C899 1.382 . S
C897 C901 1.393 . S
C897 C904 1.500 1_545 S
C898 C899 1.400 . S
C898 C900 1.384 . S
C899 C897 1.382 . S
C899 C898 1.400 . S
C899 H916 0.930 . S
C900 C898 1.384 . S
C900 C902 1.392 . S
C900 H917 0.931 . S
C901 C897 1.393 . S
C901 C902 1.401 . S
C901 H918 0.930 . S
C902 C900 1.392 . S
C902 C901 1.401 . S
C902 H919 0.930 . S
C903 O886 1.262 . S
C903 O887 1.260 . S
C904 Tb840 2.833 . S
C904 O884 1.251 . S
C904 O889 1.256 . S
C904 C897 1.500 1_565 S
C905 H870 0.929 1_565 S
C905 C883 1.444 . S
C905 C906 1.317 . S
C906 H868 0.930 1_565 S
C906 C874 1.432 . S
C906 C905 1.317 . S
C907 O891 1.283 . S
C907 O894 1.243 . S
C908 C909 1.382 . S
C908 C912 1.393 . S
C908 C915 1.500 . S
C909 C908 1.382 . S
C909 C910 1.400 . S
C909 H920 0.930 . S
C910 C909 1.400 . S
C910 C911 1.384 . S
C911 C910 1.384 . S
C911 C913 1.392 . S
C911 H921 0.931 . S
C912 C908 1.393 . S
C912 C913 1.401 . S
C912 H922 0.930 . S
C913 C911 1.392 . S
C913 C912 1.401 . S
C913 H923 0.930 . S
C914 O892 1.262 . S
C914 O893 1.260 . S
C915 Tb851 2.833 . S
C915 O890 1.251 . S
C915 O895 1.256 . S
C915 C908 1.500 . S
H916 C899 0.930 . S
H917 C900 0.931 . S
H918 C901 0.930 . S
H919 C902 0.930 . S
H920 C909 0.930 . S
H921 C911 0.931 . S
H922 C912 0.930 . S
H923 C913 0.930 . S
Tb924 N955 2.660 . S
Tb924 N962 2.600 . S
Tb924 O968 2.546 . S
Tb924 O969 2.610 . S
Tb924 O971 2.320 . S
Tb924 O972 2.552 . S
Tb924 O973 2.413 . S
Tb924 O975 2.362 . S
Tb924 O976 2.421 . S
Tb924 C988 2.833 . S
C925 C928 1.432 . S
C925 C929 1.414 . S
C925 N932 1.359 . S
C926 C928 1.417 . S
C926 C930 1.432 . S
C926 C938 1.410 . S
C927 C929 1.444 . S
C927 C930 1.317 . S
C927 H950 0.929 . S
C928 C925 1.432 . S
C928 C926 1.417 . S
C928 N936 1.360 . S
C929 C925 1.414 . S
C929 C927 1.444 . S
C929 C934 1.385 . S
C930 C926 1.432 . S
C930 C927 1.317 . S
C930 H942 0.930 . S
C931 C933 1.392 . S
C931 C934 1.370 . S
C931 H943 0.931 . S
N932 C925 1.359 . S
N932 C933 1.327 . S
N932 Tb935 2.600 . S
C933 C931 1.392 . S
C933 N932 1.327 . S
C933 H940 0.930 . S
C934 C929 1.385 . S
C934 C931 1.370 . S
C934 H953 0.930 . S
Tb935 N932 2.600 . S
Tb935 N936 2.660 . S
Tb935 O969 2.362 . S
Tb935 O970 2.421 . S
Tb935 O974 2.546 . S
Tb935 O975 2.610 . S
Tb935 O977 2.320 . S
Tb935 O978 2.552 . S
Tb935 O979 2.413 . S
Tb935 C999 2.833 . S
N936 C928 1.360 . S
N936 Tb935 2.660 . S
N936 C937 1.305 . S
C937 N936 1.305 . S
C937 C939 1.407 . S
C937 H944 0.930 . S
C938 C926 1.410 . S
C938 C939 1.345 . S
C938 H946 0.930 . S
C939 C937 1.407 . S
C939 C938 1.345 . S
C939 H941 0.930 . S
H940 C933 0.930 . S
H941 C939 0.930 . S
H942 C930 0.930 . S
H943 C931 0.931 . S
H944 C937 0.930 . S
H945 C959 0.930 . S
H946 C938 0.930 . S
H947 C965 0.930 . S
H948 C956 0.930 . S
H949 C963 0.931 . S
H950 C927 0.929 . S
H951 C957 0.902 1_545 S
H952 C990 0.930 . S
H953 C934 0.930 . S
H954 C989 0.929 . S
N955 Tb924 2.660 . S
N955 C956 1.305 . S
N955 C960 1.360 . S
C956 H948 0.930 . S
C956 N955 1.305 . S
C956 C959 1.407 . S
C957 H951 0.902 1_565 S
C957 C958 1.416 . S
C957 C959 1.368 . S
C958 C957 1.416 . S
C958 C960 1.417 . S
C958 C990 1.432 1_565 S
C959 H945 0.930 . S
C959 C956 1.407 . S
C959 C957 1.368 . S
C960 N955 1.360 . S
C960 C958 1.417 . S
C960 C964 1.432 . S
H961 C966 0.930 . S
N962 Tb924 2.600 . S
N962 C964 1.359 . S
N962 C965 1.327 . S
C963 H949 0.931 . S
C963 C965 1.392 . S
C963 C966 1.370 . S
C964 C960 1.432 . S
C964 N962 1.359 . S
C964 C967 1.414 . S
C965 H947 0.930 . S
C965 N962 1.327 . S
C965 C963 1.392 . S
C966 H961 0.930 . S
C966 C963 1.370 . S
C966 C967 1.385 . S
C967 C964 1.414 . S
C967 C966 1.385 . S
C967 C989 1.444 1_565 S
O968 Tb924 2.546 . S
O968 C988 1.251 . S
O969 Tb924 2.610 . S
O969 Tb935 2.362 . S
O969 C980 1.283 . S
O970 Tb935 2.421 . S
O970 C987 1.262 . S
O971 Tb924 2.320 . S
O971 C987 1.260 . S
O972 Tb924 2.552 . S
O972 C980 1.243 . S
O973 Tb924 2.413 . S
O973 C988 1.256 . S
O974 Tb935 2.546 . S
O974 C999 1.251 . S
O975 Tb924 2.362 . S
O975 Tb935 2.610 . S
O975 C991 1.283 . S
O976 Tb924 2.421 . S
O976 C998 1.262 . S
O977 Tb935 2.320 . S
O977 C998 1.260 . S
O978 Tb935 2.552 . S
O978 C991 1.243 . S
O979 Tb935 2.413 . S
O979 C999 1.256 . S
C980 O969 1.283 . S
C980 O972 1.243 . S
C981 C983 1.382 . S
C981 C985 1.393 . S
C981 C988 1.500 . S
C982 C983 1.400 . S
C982 C984 1.384 . S
C983 C981 1.382 . S
C983 C982 1.400 . S
C983 H1000 0.930 . S
C984 C982 1.384 . S
C984 C986 1.392 . S
C984 H1001 0.931 . S
C985 C981 1.393 . S
C985 C986 1.401 . S
C985 H1002 0.930 . S
C986 C984 1.392 . S
C986 C985 1.401 . S
C986 H1003 0.930 . S
C987 O970 1.262 . S
C987 O971 1.260 . S
C988 Tb924 2.833 . S
C988 O968 1.251 . S
C988 O973 1.256 . S
C988 C981 1.500 . S
C989 H954 0.929 . S
C989 C967 1.444 1_545 S
C989 C990 1.317 . S
C990 H952 0.930 . S
C990 C958 1.432 1_545 S
C990 C989 1.317 . S
C991 O975 1.283 . S
C991 O978 1.243 . S
C992 C993 1.382 . S
C992 C996 1.393 . S
C992 C999 1.500 . S
C993 C992 1.382 . S
C993 C994 1.400 . S
C993 H1004 0.930 . S
C994 C993 1.400 . S
C994 C995 1.384 . S
C995 C994 1.384 . S
C995 C997 1.392 . S
C995 H1005 0.931 . S
C996 C992 1.393 . S
C996 C997 1.401 . S
C996 H1006 0.930 . S
C997 C995 1.392 . S
C997 C996 1.401 . S
C997 H1007 0.930 . S
C998 O976 1.262 . S
C998 O977 1.260 . S
C999 Tb935 2.833 . S
C999 O974 1.251 . S
C999 O979 1.256 . S
C999 C992 1.500 . S
H1000 C983 0.930 . S
H1001 C984 0.931 . S
H1002 C985 0.930 . S
H1003 C986 0.930 . S
H1004 C993 0.930 . S
H1005 C995 0.931 . S
H1006 C996 0.930 . S
H1007 C997 0.930 . S
H1008 C1014 0.930 . S
H1009 C1018 0.930 . S
H1010 C1023 0.929 . S
H1011 C1021 0.929 . S
H1012 C1016 0.929 . S
H1013 C1022 0.929 . S
C1014 H1008 0.930 . S
C1014 C1015 1.367 . S
C1014 C1022 1.378 . S
C1015 C1014 1.367 . S
C1015 C1023 1.433 . S
C1016 H1012 0.929 . S
C1016 C1018 1.378 . S
C1016 C1020 1.350 . S
C1017 C1020 1.463 . S
C1017 C1022 1.350 . S
C1017 N1025 1.427 . S
C1018 H1009 0.930 . S
C1018 C1016 1.378 . S
C1018 C1019 1.367 . S
C1019 C1018 1.367 . S
C1019 C1021 1.433 . S
C1020 C1016 1.350 . S
C1020 C1017 1.463 . S
C1020 N1024 1.427 . S
C1021 H1011 0.929 . S
C1021 C1019 1.433 . S
C1021 N1024 1.384 . S
C1022 H1013 0.929 . S
C1022 C1014 1.378 . S
C1022 C1017 1.350 . S
C1023 H1010 0.929 . S
C1023 C1015 1.433 . S
C1023 N1025 1.384 . S
N1024 C1020 1.427 . S
N1024 C1021 1.384 . S
N1025 C1017 1.427 . S
N1025 C1023 1.384 . S
H1026 C1032 0.930 . S
H1027 C1036 0.930 . S
H1028 C1041 0.929 . S
H1029 C1039 0.929 . S
H1030 C1034 0.929 . S
H1031 C1040 0.929 . S
C1032 H1026 0.930 . S
C1032 C1033 1.367 . S
C1032 C1040 1.378 . S
C1033 C1032 1.367 . S
C1033 C1041 1.433 . S
C1034 H1030 0.929 . S
C1034 C1036 1.378 . S
C1034 C1038 1.350 . S
C1035 C1038 1.463 1_455 S
C1035 C1040 1.350 . S
C1035 N1043 1.427 . S
C1036 H1027 0.930 . S
C1036 C1034 1.378 . S
C1036 C1037 1.367 . S
C1037 C1036 1.367 . S
C1037 C1039 1.433 . S
C1038 C1034 1.350 . S
C1038 C1035 1.463 1_655 S
C1038 N1042 1.427 . S
C1039 H1029 0.929 . S
C1039 C1037 1.433 . S
C1039 N1042 1.384 . S
C1040 H1031 0.929 . S
C1040 C1032 1.378 . S
C1040 C1035 1.350 . S
C1041 H1028 0.929 . S
C1041 C1033 1.433 . S
C1041 N1043 1.384 . S
N1042 C1038 1.427 . S
N1042 C1039 1.384 . S
N1043 C1035 1.427 . S
N1043 C1041 1.384 . S
H1044 C1050 0.930 . S
H1045 C1054 0.930 . S
H1046 C1059 0.929 . S
H1047 C1057 0.929 . S
H1048 C1052 0.929 . S
H1049 C1058 0.929 1_565 S
C1050 H1044 0.930 . S
C1050 C1051 1.367 . S
C1050 C1058 1.378 . S
C1051 C1050 1.367 . S
C1051 C1059 1.433 . S
C1052 H1048 0.929 . S
C1052 C1054 1.378 . S
C1052 C1056 1.350 . S
C1053 C1056 1.463 1_545 S
C1053 C1058 1.350 . S
C1053 N1061 1.427 . S
C1054 H1045 0.930 . S
C1054 C1052 1.378 . S
C1054 C1055 1.367 . S
C1055 C1054 1.367 . S
C1055 C1057 1.433 . S
C1056 C1052 1.350 . S
C1056 C1053 1.463 1_565 S
C1056 N1060 1.427 . S
C1057 H1047 0.929 . S
C1057 C1055 1.433 . S
C1057 N1060 1.384 . S
C1058 H1049 0.929 1_545 S
C1058 C1050 1.378 . S
C1058 C1053 1.350 . S
C1059 H1046 0.929 . S
C1059 C1051 1.433 . S
C1059 N1061 1.384 . S
N1060 C1056 1.427 . S
N1060 C1057 1.384 . S
N1061 C1053 1.427 . S
N1061 C1059 1.384 . S
H1062 C1068 0.930 . S
H1063 C1072 0.930 . S
H1064 C1077 0.929 . S
H1065 C1075 0.929 . S
H1066 C1070 0.929 . S
H1067 C1076 0.929 . S
C1068 H1062 0.930 . S
C1068 C1069 1.367 . S
C1068 C1076 1.378 . S
C1069 C1068 1.367 . S
C1069 C1077 1.433 . S
C1070 H1066 0.929 . S
C1070 C1072 1.378 . S
C1070 C1074 1.350 . S
C1071 C1074 1.463 . S
C1071 C1076 1.350 . S
C1071 N1079 1.427 . S
C1072 H1063 0.930 . S
C1072 C1070 1.378 . S
C1072 C1073 1.367 . S
C1073 C1072 1.367 . S
C1073 C1075 1.433 . S
C1074 C1070 1.350 . S
C1074 C1071 1.463 . S
C1074 N1078 1.427 . S
C1075 H1065 0.929 . S
C1075 C1073 1.433 . S
C1075 N1078 1.384 . S
C1076 H1067 0.929 . S
C1076 C1068 1.378 . S
C1076 C1071 1.350 . S
C1077 H1064 0.929 . S
C1077 C1069 1.433 . S
C1077 N1079 1.384 . S
N1078 C1074 1.427 . S
N1078 C1075 1.384 . S
N1079 C1071 1.427 . S
N1079 C1077 1.384 . S
H1080 C1086 0.930 . S
H1081 C1090 0.930 . S
H1082 C1095 0.929 . S
H1083 C1093 0.929 . S
H1084 C1088 0.929 . S
H1085 C1094 0.929 . S
C1086 H1080 0.930 . S
C1086 C1087 1.367 . S
C1086 C1094 1.378 . S
C1087 C1086 1.367 . S
C1087 C1095 1.433 . S
C1088 H1084 0.929 . S
C1088 C1090 1.378 . S
C1088 C1092 1.350 . S
C1089 C1092 1.463 1_455 S
C1089 C1094 1.350 . S
C1089 N1097 1.427 . S
C1090 H1081 0.930 . S
C1090 C1088 1.378 . S
C1090 C1091 1.367 . S
C1091 C1090 1.367 . S
C1091 C1093 1.433 . S
C1092 C1088 1.350 . S
C1092 C1089 1.463 1_655 S
C1092 N1096 1.427 . S
C1093 H1083 0.929 . S
C1093 C1091 1.433 . S
C1093 N1096 1.384 . S
C1094 H1085 0.929 . S
C1094 C1086 1.378 . S
C1094 C1089 1.350 . S
C1095 H1082 0.929 . S
C1095 C1087 1.433 . S
C1095 N1097 1.384 . S
N1096 C1092 1.427 . S
N1096 C1093 1.384 . S
N1097 C1089 1.427 . S
N1097 C1095 1.384 . S
H1098 C1104 0.930 . S
H1099 C1108 0.930 . S
H1100 C1113 0.929 . S
H1101 C1111 0.929 . S
H1102 C1106 0.929 . S
H1103 C1112 0.929 . S
C1104 H1098 0.930 . S
C1104 C1105 1.367 . S
C1104 C1112 1.378 . S
C1105 C1104 1.367 . S
C1105 C1113 1.433 . S
C1106 H1102 0.929 . S
C1106 C1108 1.378 . S
C1106 C1110 1.350 . S
C1107 C1110 1.463 1_565 S
C1107 C1112 1.350 . S
C1107 N1115 1.427 . S
C1108 H1099 0.930 . S
C1108 C1106 1.378 . S
C1108 C1109 1.367 . S
C1109 C1108 1.367 . S
C1109 C1111 1.433 . S
C1110 C1106 1.350 . S
C1110 C1107 1.463 1_545 S
C1110 N1114 1.427 . S
C1111 H1101 0.929 . S
C1111 C1109 1.433 . S
C1111 N1114 1.384 . S
C1112 H1103 0.929 . S
C1112 C1104 1.378 . S
C1112 C1107 1.350 . S
C1113 H1100 0.929 . S
C1113 C1105 1.433 . S
C1113 N1115 1.384 . S
N1114 C1110 1.427 . S
N1114 C1111 1.384 . S
N1115 C1107 1.427 . S
N1115 C1113 1.384 . S
H1116 C1122 0.930 . S
H1117 C1126 0.930 . S
H1118 C1131 0.929 . S
H1119 C1129 0.929 . S
H1120 C1124 0.929 . S
H1121 C1130 0.929 . S
C1122 H1116 0.930 . S
C1122 C1123 1.367 . S
C1122 C1130 1.378 . S
C1123 C1122 1.367 . S
C1123 C1131 1.433 . S
C1124 H1120 0.929 . S
C1124 C1126 1.378 . S
C1124 C1128 1.350 . S
C1125 C1128 1.463 . S
C1125 C1130 1.350 . S
C1125 N1133 1.427 . S
C1126 H1117 0.930 . S
C1126 C1124 1.378 . S
C1126 C1127 1.367 . S
C1127 C1126 1.367 . S
C1127 C1129 1.433 . S
C1128 C1124 1.350 . S
C1128 C1125 1.463 . S
C1128 N1132 1.427 . S
C1129 H1119 0.929 . S
C1129 C1127 1.433 . S
C1129 N1132 1.384 . S
C1130 H1121 0.929 . S
C1130 C1122 1.378 . S
C1130 C1125 1.350 . S
C1131 H1118 0.929 . S
C1131 C1123 1.433 . S
C1131 N1133 1.384 . S
N1132 C1128 1.427 . S
N1132 C1129 1.384 . S
N1133 C1125 1.427 . S
N1133 C1131 1.384 . S
H1134 C1140 0.930 . S
H1135 C1144 0.930 . S
H1136 C1149 0.929 . S
H1137 C1147 0.929 . S
H1138 C1142 0.929 . S
H1139 C1148 0.929 . S
C1140 H1134 0.930 . S
C1140 C1141 1.367 . S
C1140 C1148 1.378 . S
C1141 C1140 1.367 . S
C1141 C1149 1.433 . S
C1142 H1138 0.929 . S
C1142 C1144 1.378 . S
C1142 C1146 1.350 . S
C1143 C1146 1.463 1_455 S
C1143 C1148 1.350 . S
C1143 N1151 1.427 . S
C1144 H1135 0.930 . S
C1144 C1142 1.378 . S
C1144 C1145 1.367 . S
C1145 C1144 1.367 . S
C1145 C1147 1.433 . S
C1146 C1142 1.350 . S
C1146 C1143 1.463 1_655 S
C1146 N1150 1.427 . S
C1147 H1137 0.929 . S
C1147 C1145 1.433 . S
C1147 N1150 1.384 . S
C1148 H1139 0.929 . S
C1148 C1140 1.378 . S
C1148 C1143 1.350 . S
C1149 H1136 0.929 . S
C1149 C1141 1.433 . S
C1149 N1151 1.384 . S
N1150 C1146 1.427 . S
N1150 C1147 1.384 . S
N1151 C1143 1.427 . S
N1151 C1149 1.384 . S
H1152 C1158 0.930 . S
H1153 C1162 0.930 . S
H1154 C1167 0.929 . S
H1155 C1165 0.929 . S
H1156 C1160 0.929 . S
H1157 C1166 0.929 . S
C1158 H1152 0.930 . S
C1158 C1159 1.367 . S
C1158 C1166 1.378 . S
C1159 C1158 1.367 . S
C1159 C1167 1.433 . S
C1160 H1156 0.929 . S
C1160 C1162 1.378 . S
C1160 C1164 1.350 . S
C1161 C1164 1.463 1_565 S
C1161 C1166 1.350 . S
C1161 N1169 1.427 . S
C1162 H1153 0.930 . S
C1162 C1160 1.378 . S
C1162 C1163 1.367 . S
C1163 C1162 1.367 . S
C1163 C1165 1.433 . S
C1164 C1160 1.350 . S
C1164 C1161 1.463 1_545 S
C1164 N1168 1.427 . S
C1165 H1155 0.929 . S
C1165 C1163 1.433 . S
C1165 N1168 1.384 . S
C1166 H1157 0.929 . S
C1166 C1158 1.378 . S
C1166 C1161 1.350 . S
C1167 H1154 0.929 . S
C1167 C1159 1.433 . S
C1167 N1169 1.384 . S
N1168 C1164 1.427 . S
N1168 C1165 1.384 . S
N1169 C1161 1.427 . S
N1169 C1167 1.384 . S
H1170 C1176 0.930 . S
H1171 C1180 0.930 . S
H1172 C1185 0.929 . S
H1173 C1183 0.929 . S
H1174 C1178 0.929 . S
H1175 C1184 0.929 . S
C1176 H1170 0.930 . S
C1176 C1177 1.367 . S
C1176 C1184 1.378 . S
C1177 C1176 1.367 . S
C1177 C1185 1.433 . S
C1178 H1174 0.929 . S
C1178 C1180 1.378 . S
C1178 C1182 1.350 . S
C1179 C1182 1.463 . S
C1179 C1184 1.350 . S
C1179 N1187 1.427 . S
C1180 H1171 0.930 . S
C1180 C1178 1.378 . S
C1180 C1181 1.367 . S
C1181 C1180 1.367 . S
C1181 C1183 1.433 . S
C1182 C1178 1.350 . S
C1182 C1179 1.463 . S
C1182 N1186 1.427 . S
C1183 H1173 0.929 . S
C1183 C1181 1.433 . S
C1183 N1186 1.384 . S
C1184 H1175 0.929 . S
C1184 C1176 1.378 . S
C1184 C1179 1.350 . S
C1185 H1172 0.929 . S
C1185 C1177 1.433 . S
C1185 N1187 1.384 . S
N1186 C1182 1.427 . S
N1186 C1183 1.384 . S
N1187 C1179 1.427 . S
N1187 C1185 1.384 . S
H1188 C1194 0.930 . S
H1189 C1198 0.930 . S
H1190 C1203 0.929 . S
H1191 C1201 0.929 . S
H1192 C1196 0.929 . S
H1193 C1202 0.929 . S
C1194 H1188 0.930 . S
C1194 C1195 1.367 . S
C1194 C1202 1.378 . S
C1195 C1194 1.367 . S
C1195 C1203 1.433 . S
C1196 H1192 0.929 . S
C1196 C1198 1.378 . S
C1196 C1200 1.350 . S
C1197 C1200 1.463 1_455 S
C1197 C1202 1.350 . S
C1197 N1205 1.427 . S
C1198 H1189 0.930 . S
C1198 C1196 1.378 . S
C1198 C1199 1.367 . S
C1199 C1198 1.367 . S
C1199 C1201 1.433 . S
C1200 C1196 1.350 . S
C1200 C1197 1.463 1_655 S
C1200 N1204 1.427 . S
C1201 H1191 0.929 . S
C1201 C1199 1.433 . S
C1201 N1204 1.384 . S
C1202 H1193 0.929 . S
C1202 C1194 1.378 . S
C1202 C1197 1.350 . S
C1203 H1190 0.929 . S
C1203 C1195 1.433 . S
C1203 N1205 1.384 . S
N1204 C1200 1.427 . S
N1204 C1201 1.384 . S
N1205 C1197 1.427 . S
N1205 C1203 1.384 . S
H1206 C1212 0.930 . S
H1207 C1216 0.930 . S
H1208 C1221 0.929 . S
H1209 C1219 0.929 . S
H1210 C1214 0.929 . S
H1211 C1220 0.929 . S
C1212 H1206 0.930 . S
C1212 C1213 1.367 . S
C1212 C1220 1.378 . S
C1213 C1212 1.367 . S
C1213 C1221 1.433 . S
C1214 H1210 0.929 . S
C1214 C1216 1.378 . S
C1214 C1218 1.350 . S
C1215 C1218 1.463 1_545 S
C1215 C1220 1.350 . S
C1215 N1223 1.427 . S
C1216 H1207 0.930 . S
C1216 C1214 1.378 . S
C1216 C1217 1.367 . S
C1217 C1216 1.367 . S
C1217 C1219 1.433 . S
C1218 C1214 1.350 . S
C1218 C1215 1.463 1_565 S
C1218 N1222 1.427 . S
C1219 H1209 0.929 . S
C1219 C1217 1.433 . S
C1219 N1222 1.384 . S
C1220 H1211 0.929 . S
C1220 C1212 1.378 . S
C1220 C1215 1.350 . S
C1221 H1208 0.929 . S
C1221 C1213 1.433 . S
C1221 N1223 1.384 . S
N1222 C1218 1.427 . S
N1222 C1219 1.384 . S
N1223 C1215 1.427 . S
N1223 C1221 1.384 . S
H1224 C1230 0.930 . S
H1225 C1234 0.930 . S
H1226 C1239 0.929 . S
H1227 C1237 0.929 . S
H1228 C1232 0.929 . S
H1229 C1238 0.929 . S
C1230 H1224 0.930 . S
C1230 C1231 1.367 . S
C1230 C1238 1.378 . S
C1231 C1230 1.367 . S
C1231 C1239 1.433 . S
C1232 H1228 0.929 . S
C1232 C1234 1.378 . S
C1232 C1236 1.350 . S
C1233 C1236 1.463 . S
C1233 C1238 1.350 . S
C1233 N1241 1.427 . S
C1234 H1225 0.930 . S
C1234 C1232 1.378 . S
C1234 C1235 1.367 . S
C1235 C1234 1.367 . S
C1235 C1237 1.433 . S
C1236 C1232 1.350 . S
C1236 C1233 1.463 . S
C1236 N1240 1.427 . S
C1237 H1227 0.929 . S
C1237 C1235 1.433 . S
C1237 N1240 1.384 . S
C1238 H1229 0.929 . S
C1238 C1230 1.378 . S
C1238 C1233 1.350 . S
C1239 H1226 0.929 . S
C1239 C1231 1.433 . S
C1239 N1241 1.384 . S
N1240 C1236 1.427 . S
N1240 C1237 1.384 . S
N1241 C1233 1.427 . S
N1241 C1239 1.384 . S
H1242 C1248 0.930 . S
H1243 C1252 0.930 . S
H1244 C1257 0.929 . S
H1245 C1255 0.929 . S
H1246 C1250 0.929 . S
H1247 C1256 0.929 . S
C1248 H1242 0.930 . S
C1248 C1249 1.367 . S
C1248 C1256 1.378 . S
C1249 C1248 1.367 . S
C1249 C1257 1.433 . S
C1250 H1246 0.929 . S
C1250 C1252 1.378 . S
C1250 C1254 1.350 . S
C1251 C1254 1.463 . S
C1251 C1256 1.350 . S
C1251 N1259 1.427 . S
C1252 H1243 0.930 . S
C1252 C1250 1.378 . S
C1252 C1253 1.367 . S
C1253 C1252 1.367 . S
C1253 C1255 1.433 . S
C1254 C1250 1.350 . S
C1254 C1251 1.463 . S
C1254 N1258 1.427 . S
C1255 H1245 0.929 . S
C1255 C1253 1.433 . S
C1255 N1258 1.384 . S
C1256 H1247 0.929 . S
C1256 C1248 1.378 . S
C1256 C1251 1.350 . S
C1257 H1244 0.929 . S
C1257 C1249 1.433 . S
C1257 N1259 1.384 . S
N1258 C1254 1.427 . S
N1258 C1255 1.384 . S
N1259 C1251 1.427 . S
N1259 C1257 1.384 . S
H1260 C1266 0.930 . S
H1261 C1270 0.930 . S
H1262 C1275 0.929 . S
H1263 C1273 0.929 . S
H1264 C1268 0.929 . S
H1265 C1274 0.929 . S
C1266 H1260 0.930 . S
C1266 C1267 1.367 . S
C1266 C1274 1.378 . S
C1267 C1266 1.367 . S
C1267 C1275 1.433 . S
C1268 H1264 0.929 . S
C1268 C1270 1.378 . S
C1268 C1272 1.350 . S
C1269 C1272 1.463 . S
C1269 C1274 1.350 . S
C1269 N1277 1.427 . S
C1270 H1261 0.930 . S
C1270 C1268 1.378 . S
C1270 C1271 1.367 . S
C1271 C1270 1.367 . S
C1271 C1273 1.433 . S
C1272 C1268 1.350 . S
C1272 C1269 1.463 . S
C1272 N1276 1.427 . S
C1273 H1263 0.929 . S
C1273 C1271 1.433 . S
C1273 N1276 1.384 . S
C1274 H1265 0.929 . S
C1274 C1266 1.378 . S
C1274 C1269 1.350 . S
C1275 H1262 0.929 . S
C1275 C1267 1.433 . S
C1275 N1277 1.384 . S
N1276 C1272 1.427 . S
N1276 C1273 1.384 . S
N1277 C1269 1.427 . S
N1277 C1275 1.384 . S
H1278 C1284 0.930 . S
H1279 C1288 0.930 . S
H1280 C1293 0.929 . S
H1281 C1291 0.929 . S
H1282 C1286 0.929 . S
H1283 C1292 0.929 . S
C1284 H1278 0.930 . S
C1284 C1285 1.367 . S
C1284 C1292 1.378 . S
C1285 C1284 1.367 . S
C1285 C1293 1.433 . S
C1286 H1282 0.929 . S
C1286 C1288 1.378 . S
C1286 C1290 1.350 . S
C1287 C1290 1.463 . S
C1287 C1292 1.350 . S
C1287 N1295 1.427 . S
C1288 H1279 0.930 . S
C1288 C1286 1.378 . S
C1288 C1289 1.367 . S
C1289 C1288 1.367 . S
C1289 C1291 1.433 . S
C1290 C1286 1.350 . S
C1290 C1287 1.463 . S
C1290 N1294 1.427 . S
C1291 H1281 0.929 . S
C1291 C1289 1.433 . S
C1291 N1294 1.384 . S
C1292 H1283 0.929 . S
C1292 C1284 1.378 . S
C1292 C1287 1.350 . S
C1293 H1280 0.929 . S
C1293 C1285 1.433 . S
C1293 N1295 1.384 . S
N1294 C1290 1.427 . S
N1294 C1291 1.384 . S
N1295 C1287 1.427 . S
N1295 C1293 1.384 . S
H1296 C1302 0.930 . S
H1297 C1306 0.930 . S
H1298 C1311 0.929 . S
H1299 C1309 0.929 . S
H1300 C1304 0.929 . S
H1301 C1310 0.929 . S
C1302 H1296 0.930 . S
C1302 C1303 1.367 . S
C1302 C1310 1.378 . S
C1303 C1302 1.367 . S
C1303 C1311 1.433 . S
C1304 H1300 0.929 . S
C1304 C1306 1.378 . S
C1304 C1308 1.350 . S
C1305 C1308 1.463 . S
C1305 C1310 1.350 . S
C1305 N1313 1.427 . S
C1306 H1297 0.930 . S
C1306 C1304 1.378 . S
C1306 C1307 1.367 . S
C1307 C1306 1.367 . S
C1307 C1309 1.433 . S
C1308 C1304 1.350 . S
C1308 C1305 1.463 . S
C1308 N1312 1.427 . S
C1309 H1299 0.929 . S
C1309 C1307 1.433 . S
C1309 N1312 1.384 . S
C1310 H1301 0.929 . S
C1310 C1302 1.378 . S
C1310 C1305 1.350 . S
C1311 H1298 0.929 . S
C1311 C1303 1.433 . S
C1311 N1313 1.384 . S
N1312 C1308 1.427 . S
N1312 C1309 1.384 . S
N1313 C1305 1.427 . S
N1313 C1311 1.384 . S
H1314 C1320 0.930 . S
H1315 C1324 0.930 . S
H1316 C1329 0.929 . S
H1317 C1327 0.929 . S
H1318 C1322 0.929 . S
H1319 C1328 0.929 . S
C1320 H1314 0.930 . S
C1320 C1321 1.367 . S
C1320 C1328 1.378 . S
C1321 C1320 1.367 . S
C1321 C1329 1.433 . S
C1322 H1318 0.929 . S
C1322 C1324 1.378 . S
C1322 C1326 1.350 . S
C1323 C1326 1.463 . S
C1323 C1328 1.350 . S
C1323 N1331 1.427 . S
C1324 H1315 0.930 . S
C1324 C1322 1.378 . S
C1324 C1325 1.367 . S
C1325 C1324 1.367 . S
C1325 C1327 1.433 . S
C1326 C1322 1.350 . S
C1326 C1323 1.463 . S
C1326 N1330 1.427 . S
C1327 H1317 0.929 . S
C1327 C1325 1.433 . S
C1327 N1330 1.384 . S
C1328 H1319 0.929 . S
C1328 C1320 1.378 . S
C1328 C1323 1.350 . S
C1329 H1316 0.929 . S
C1329 C1321 1.433 . S
C1329 N1331 1.384 . S
N1330 C1326 1.427 . S
N1330 C1327 1.384 . S
N1331 C1323 1.427 . S
N1331 C1329 1.384 . S
H1332 C1338 0.930 . S
H1333 C1342 0.930 . S
H1334 C1347 0.929 . S
H1335 C1345 0.929 . S
H1336 C1340 0.929 1_556 S
H1337 C1346 0.929 1_554 S
C1338 H1332 0.930 . S
C1338 C1339 1.367 . S
C1338 C1346 1.378 . S
C1339 C1338 1.367 . S
C1339 C1347 1.433 . S
C1340 H1336 0.929 1_554 S
C1340 C1342 1.378 . S
C1340 C1344 1.350 . S
C1341 C1344 1.463 1_566 S
C1341 C1346 1.350 . S
C1341 N1349 1.427 . S
C1342 H1333 0.930 . S
C1342 C1340 1.378 . S
C1342 C1343 1.367 . S
C1343 C1342 1.367 . S
C1343 C1345 1.433 . S
C1344 C1340 1.350 . S
C1344 C1341 1.463 1_544 S
C1344 N1348 1.427 . S
C1345 H1335 0.929 . S
C1345 C1343 1.433 . S
C1345 N1348 1.384 . S
C1346 H1337 0.929 1_556 S
C1346 C1338 1.378 . S
C1346 C1341 1.350 . S
C1347 H1334 0.929 . S
C1347 C1339 1.433 . S
C1347 N1349 1.384 . S
N1348 C1344 1.427 . S
N1348 C1345 1.384 . S
N1349 C1341 1.427 . S
N1349 C1347 1.384 . S
H1350 C1356 0.930 . S
H1351 C1360 0.930 . S
H1352 C1365 0.929 . S
H1353 C1363 0.929 . S
H1354 C1358 0.929 . S
H1355 C1364 0.929 . S
C1356 H1350 0.930 . S
C1356 C1357 1.367 . S
C1356 C1364 1.378 . S
C1357 C1356 1.367 . S
C1357 C1365 1.433 . S
C1358 H1354 0.929 . S
C1358 C1360 1.378 . S
C1358 C1362 1.350 . S
C1359 C1362 1.463 . S
C1359 C1364 1.350 . S
C1359 N1367 1.427 . S
C1360 H1351 0.930 . S
C1360 C1358 1.378 . S
C1360 C1361 1.367 . S
C1361 C1360 1.367 . S
C1361 C1363 1.433 . S
C1362 C1358 1.350 . S
C1362 C1359 1.463 . S
C1362 N1366 1.427 . S
C1363 H1353 0.929 . S
C1363 C1361 1.433 . S
C1363 N1366 1.384 . S
C1364 H1355 0.929 . S
C1364 C1356 1.378 . S
C1364 C1359 1.350 . S
C1365 H1352 0.929 . S
C1365 C1357 1.433 . S
C1365 N1367 1.384 . S
N1366 C1362 1.427 . S
N1366 C1363 1.384 . S
N1367 C1359 1.427 . S
N1367 C1365 1.384 . S
H1368 C1374 0.930 . S
H1369 C1378 0.930 . S
H1370 C1383 0.929 . S
H1371 C1381 0.929 . S
H1372 C1376 0.929 1_455 S
H1373 C1382 0.929 1_655 S
C1374 H1368 0.930 . S
C1374 C1375 1.367 . S
C1374 C1382 1.378 . S
C1375 C1374 1.367 . S
C1375 C1383 1.433 . S
C1376 H1372 0.929 1_655 S
C1376 C1378 1.378 . S
C1376 C1380 1.350 . S
C1377 C1380 1.463 1_456 S
C1377 C1382 1.350 . S
C1377 N1385 1.427 . S
C1378 H1369 0.930 . S
C1378 C1376 1.378 . S
C1378 C1379 1.367 . S
C1379 C1378 1.367 . S
C1379 C1381 1.433 . S
C1380 C1376 1.350 . S
C1380 C1377 1.463 1_654 S
C1380 N1384 1.427 . S
C1381 H1371 0.929 . S
C1381 C1379 1.433 . S
C1381 N1384 1.384 . S
C1382 H1373 0.929 1_455 S
C1382 C1374 1.378 . S
C1382 C1377 1.350 . S
C1383 H1370 0.929 . S
C1383 C1375 1.433 . S
C1383 N1385 1.384 . S
N1384 C1380 1.427 . S
N1384 C1381 1.384 . S
N1385 C1377 1.427 . S
N1385 C1383 1.384 . S
H1386 C1392 0.930 . S
H1387 C1396 0.930 . S
H1388 C1401 0.929 . S
H1389 C1399 0.929 . S
H1390 C1394 0.929 1_545 S
H1391 C1400 0.929 1_565 S
C1392 H1386 0.930 . S
C1392 C1393 1.367 . S
C1392 C1400 1.378 . S
C1393 C1392 1.367 . S
C1393 C1401 1.433 . S
C1394 H1390 0.929 1_565 S
C1394 C1396 1.378 . S
C1394 C1398 1.350 . S
C1395 C1398 1.463 1_545 S
C1395 C1400 1.350 . S
C1395 N1403 1.427 . S
C1396 H1387 0.930 . S
C1396 C1394 1.378 . S
C1396 C1397 1.367 . S
C1397 C1396 1.367 . S
C1397 C1399 1.433 . S
C1398 C1394 1.350 . S
C1398 C1395 1.463 1_565 S
C1398 N1402 1.427 . S
C1399 H1389 0.929 . S
C1399 C1397 1.433 . S
C1399 N1402 1.384 . S
C1400 H1391 0.929 1_545 S
C1400 C1392 1.378 . S
C1400 C1395 1.350 . S
C1401 H1388 0.929 . S
C1401 C1393 1.433 . S
C1401 N1403 1.384 . S
N1402 C1398 1.427 . S
N1402 C1399 1.384 . S
N1403 C1395 1.427 . S
N1403 C1401 1.384 . S
H1404 C1410 0.930 . S
H1405 C1414 0.930 . S
H1406 C1419 0.929 . S
H1407 C1417 0.929 . S
H1408 C1412 0.929 . S
H1409 C1418 0.929 . S
C1410 H1404 0.930 . S
C1410 C1411 1.367 . S
C1410 C1418 1.378 . S
C1411 C1410 1.367 . S
C1411 C1419 1.433 . S
C1412 H1408 0.929 . S
C1412 C1414 1.378 . S
C1412 C1416 1.350 . S
C1413 C1416 1.463 1_554 S
C1413 C1418 1.350 . S
C1413 N1421 1.427 . S
C1414 H1405 0.930 . S
C1414 C1412 1.378 . S
C1414 C1415 1.367 . S
C1415 C1414 1.367 . S
C1415 C1417 1.433 . S
C1416 C1412 1.350 . S
C1416 C1413 1.463 1_556 S
C1416 N1420 1.427 . S
C1417 H1407 0.929 . S
C1417 C1415 1.433 . S
C1417 N1420 1.384 . S
C1418 H1409 0.929 . S
C1418 C1410 1.378 . S
C1418 C1413 1.350 . S
C1419 H1406 0.929 . S
C1419 C1411 1.433 . S
C1419 N1421 1.384 . S
N1420 C1416 1.427 . S
N1420 C1417 1.384 . S
N1421 C1413 1.427 . S
N1421 C1419 1.384 . S
H1422 C1428 0.930 . S
H1423 C1432 0.930 . S
H1424 C1437 0.929 . S
H1425 C1435 0.929 . S
H1426 C1430 0.929 . S
H1427 C1436 0.929 . S
C1428 H1422 0.930 . S
C1428 C1429 1.367 . S
C1428 C1436 1.378 . S
C1429 C1428 1.367 . S
C1429 C1437 1.433 . S
C1430 H1426 0.929 . S
C1430 C1432 1.378 . S
C1430 C1434 1.350 . S
C1431 C1434 1.463 1_455 S
C1431 C1436 1.350 . S
C1431 N1439 1.427 . S
C1432 H1423 0.930 . S
C1432 C1430 1.378 . S
C1432 C1433 1.367 . S
C1433 C1432 1.367 . S
C1433 C1435 1.433 . S
C1434 C1430 1.350 . S
C1434 C1431 1.463 1_655 S
C1434 N1438 1.427 . S
C1435 H1425 0.929 . S
C1435 C1433 1.433 . S
C1435 N1438 1.384 . S
C1436 H1427 0.929 . S
C1436 C1428 1.378 . S
C1436 C1431 1.350 . S
C1437 H1424 0.929 . S
C1437 C1429 1.433 . S
C1437 N1439 1.384 . S
N1438 C1434 1.427 . S
N1438 C1435 1.384 . S
N1439 C1431 1.427 . S
N1439 C1437 1.384 . S
H1440 C1446 0.930 . S
H1441 C1450 0.930 . S
H1442 C1455 0.929 . S
H1443 C1453 0.929 . S
H1444 C1448 0.929 . S
H1445 C1454 0.929 . S
C1446 H1440 0.930 . S
C1446 C1447 1.367 . S
C1446 C1454 1.378 . S
C1447 C1446 1.367 . S
C1447 C1455 1.433 . S
C1448 H1444 0.929 . S
C1448 C1450 1.378 . S
C1448 C1452 1.350 . S
C1449 C1452 1.463 . S
C1449 C1454 1.350 . S
C1449 N1457 1.427 . S
C1450 H1441 0.930 . S
C1450 C1448 1.378 . S
C1450 C1451 1.367 . S
C1451 C1450 1.367 . S
C1451 C1453 1.433 . S
C1452 C1448 1.350 . S
C1452 C1449 1.463 . S
C1452 N1456 1.427 . S
C1453 H1443 0.929 . S
C1453 C1451 1.433 . S
C1453 N1456 1.384 . S
C1454 H1445 0.929 . S
C1454 C1446 1.378 . S
C1454 C1449 1.350 . S
C1455 H1442 0.929 . S
C1455 C1447 1.433 . S
C1455 N1457 1.384 . S
N1456 C1452 1.427 . S
N1456 C1453 1.384 . S
N1457 C1449 1.427 . S
N1457 C1455 1.384 . S
H1458 C1464 0.930 . S
H1459 C1468 0.930 . S
H1460 C1473 0.929 . S
H1461 C1471 0.929 . S
H1462 C1466 0.929 . S
H1463 C1472 0.929 . S
C1464 H1458 0.930 . S
C1464 C1465 1.367 . S
C1464 C1472 1.378 . S
C1465 C1464 1.367 . S
C1465 C1473 1.433 . S
C1466 H1462 0.929 . S
C1466 C1468 1.378 . S
C1466 C1470 1.350 . S
C1467 C1470 1.463 . S
C1467 C1472 1.350 . S
C1467 N1475 1.427 . S
C1468 H1459 0.930 . S
C1468 C1466 1.378 . S
C1468 C1469 1.367 . S
C1469 C1468 1.367 . S
C1469 C1471 1.433 . S
C1470 C1466 1.350 . S
C1470 C1467 1.463 . S
C1470 N1474 1.427 . S
C1471 H1461 0.929 . S
C1471 C1469 1.433 . S
C1471 N1474 1.384 . S
C1472 H1463 0.929 . S
C1472 C1464 1.378 . S
C1472 C1467 1.350 . S
C1473 H1460 0.929 . S
C1473 C1465 1.433 . S
C1473 N1475 1.384 . S
N1474 C1470 1.427 . S
N1474 C1471 1.384 . S
N1475 C1467 1.427 . S
N1475 C1473 1.384 . S
H1476 C1482 0.930 . S
H1477 C1486 0.930 . S
H1478 C1491 0.929 . S
H1479 C1489 0.929 . S
H1480 C1484 0.929 . S
H1481 C1490 0.929 . S
C1482 H1476 0.930 . S
C1482 C1483 1.367 . S
C1482 C1490 1.378 . S
C1483 C1482 1.367 . S
C1483 C1491 1.433 . S
C1484 H1480 0.929 . S
C1484 C1486 1.378 . S
C1484 C1488 1.350 . S
C1485 C1488 1.463 . S
C1485 C1490 1.350 . S
C1485 N1493 1.427 . S
C1486 H1477 0.930 . S
C1486 C1484 1.378 . S
C1486 C1487 1.367 . S
C1487 C1486 1.367 . S
C1487 C1489 1.433 . S
C1488 C1484 1.350 . S
C1488 C1485 1.463 . S
C1488 N1492 1.427 . S
C1489 H1479 0.929 . S
C1489 C1487 1.433 . S
C1489 N1492 1.384 . S
C1490 H1481 0.929 . S
C1490 C1482 1.378 . S
C1490 C1485 1.350 . S
C1491 H1478 0.929 . S
C1491 C1483 1.433 . S
C1491 N1493 1.384 . S
N1492 C1488 1.427 . S
N1492 C1489 1.384 . S
N1493 C1485 1.427 . S
N1493 C1491 1.384 . S
H1494 C1500 0.930 . S
H1495 C1504 0.930 . S
H1496 C1509 0.929 . S
H1497 C1507 0.929 . S
H1498 C1502 0.929 . S
H1499 C1508 0.929 . S
C1500 H1494 0.930 . S
C1500 C1501 1.367 . S
C1500 C1508 1.378 . S
C1501 C1500 1.367 . S
C1501 C1509 1.433 . S
C1502 H1498 0.929 . S
C1502 C1504 1.378 . S
C1502 C1506 1.350 . S
C1503 C1506 1.463 . S
C1503 C1508 1.350 . S
C1503 N1511 1.427 . S
C1504 H1495 0.930 . S
C1504 C1502 1.378 . S
C1504 C1505 1.367 . S
C1505 C1504 1.367 . S
C1505 C1507 1.433 . S
C1506 C1502 1.350 . S
C1506 C1503 1.463 . S
C1506 N1510 1.427 . S
C1507 H1497 0.929 . S
C1507 C1505 1.433 . S
C1507 N1510 1.384 . S
C1508 H1499 0.929 . S
C1508 C1500 1.378 . S
C1508 C1503 1.350 . S
C1509 H1496 0.929 . S
C1509 C1501 1.433 . S
C1509 N1511 1.384 . S
N1510 C1506 1.427 . S
N1510 C1507 1.384 . S
N1511 C1503 1.427 . S
N1511 C1509 1.384 . S
H1512 C1518 0.930 . S
H1513 C1522 0.930 . S
H1514 C1527 0.929 . S
H1515 C1525 0.929 . S
H1516 C1520 0.929 . S
H1517 C1526 0.929 . S
C1518 H1512 0.930 . S
C1518 C1519 1.367 . S
C1518 C1526 1.378 . S
C1519 C1518 1.367 . S
C1519 C1527 1.433 . S
C1520 H1516 0.929 . S
C1520 C1522 1.378 . S
C1520 C1524 1.350 . S
C1521 C1524 1.463 . S
C1521 C1526 1.350 . S
C1521 N1529 1.427 . S
C1522 H1513 0.930 . S
C1522 C1520 1.378 . S
C1522 C1523 1.367 . S
C1523 C1522 1.367 . S
C1523 C1525 1.433 . S
C1524 C1520 1.350 . S
C1524 C1521 1.463 . S
C1524 N1528 1.427 . S
C1525 H1515 0.929 . S
C1525 C1523 1.433 . S
C1525 N1528 1.384 . S
C1526 H1517 0.929 . S
C1526 C1518 1.378 . S
C1526 C1521 1.350 . S
C1527 H1514 0.929 . S
C1527 C1519 1.433 . S
C1527 N1529 1.384 . S
N1528 C1524 1.427 . S
N1528 C1525 1.384 . S
N1529 C1521 1.427 . S
N1529 C1527 1.384 . S
H1530 C1536 0.930 . S
H1531 C1540 0.930 . S
H1532 C1545 0.929 . S
H1533 C1543 0.929 . S
H1534 C1538 0.929 . S
H1535 C1544 0.929 . S
C1536 H1530 0.930 . S
C1536 C1537 1.367 . S
C1536 C1544 1.378 . S
C1537 C1536 1.367 . S
C1537 C1545 1.433 . S
C1538 H1534 0.929 . S
C1538 C1540 1.378 . S
C1538 C1542 1.350 . S
C1539 C1542 1.463 . S
C1539 C1544 1.350 . S
C1539 N1547 1.427 . S
C1540 H1531 0.930 . S
C1540 C1538 1.378 . S
C1540 C1541 1.367 . S
C1541 C1540 1.367 . S
C1541 C1543 1.433 . S
C1542 C1538 1.350 . S
C1542 C1539 1.463 . S
C1542 N1546 1.427 . S
C1543 H1533 0.929 . S
C1543 C1541 1.433 . S
C1543 N1546 1.384 . S
C1544 H1535 0.929 . S
C1544 C1536 1.378 . S
C1544 C1539 1.350 . S
C1545 H1532 0.929 . S
C1545 C1537 1.433 . S
C1545 N1547 1.384 . S
N1546 C1542 1.427 . S
N1546 C1543 1.384 . S
N1547 C1539 1.427 . S
N1547 C1545 1.384 . S
H1548 C1554 0.930 . S
H1549 C1558 0.930 . S
H1550 C1563 0.929 . S
H1551 C1561 0.929 . S
H1552 C1556 0.929 . S
H1553 C1562 0.929 . S
C1554 H1548 0.930 . S
C1554 C1555 1.367 . S
C1554 C1562 1.378 . S
C1555 C1554 1.367 . S
C1555 C1563 1.433 . S
C1556 H1552 0.929 . S
C1556 C1558 1.378 . S
C1556 C1560 1.350 . S
C1557 C1560 1.463 . S
C1557 C1562 1.350 . S
C1557 N1565 1.427 . S
C1558 H1549 0.930 . S
C1558 C1556 1.378 . S
C1558 C1559 1.367 . S
C1559 C1558 1.367 . S
C1559 C1561 1.433 . S
C1560 C1556 1.350 . S
C1560 C1557 1.463 . S
C1560 N1564 1.427 . S
C1561 H1551 0.929 . S
C1561 C1559 1.433 . S
C1561 N1564 1.384 . S
C1562 H1553 0.929 . S
C1562 C1554 1.378 . S
C1562 C1557 1.350 . S
C1563 H1550 0.929 . S
C1563 C1555 1.433 . S
C1563 N1565 1.384 . S
N1564 C1560 1.427 . S
N1564 C1561 1.384 . S
N1565 C1557 1.427 . S
N1565 C1563 1.384 . S
H1566 C1572 0.930 . S
H1567 C1576 0.930 . S
H1568 C1581 0.929 . S
H1569 C1579 0.929 . S
H1570 C1574 0.929 . S
H1571 C1580 0.929 . S
C1572 H1566 0.930 . S
C1572 C1573 1.367 . S
C1572 C1580 1.378 . S
C1573 C1572 1.367 . S
C1573 C1581 1.433 . S
C1574 H1570 0.929 . S
C1574 C1576 1.378 . S
C1574 C1578 1.350 . S
C1575 C1578 1.463 . S
C1575 C1580 1.350 . S
C1575 N1583 1.427 . S
C1576 H1567 0.930 . S
C1576 C1574 1.378 . S
C1576 C1577 1.367 . S
C1577 C1576 1.367 . S
C1577 C1579 1.433 . S
C1578 C1574 1.350 . S
C1578 C1575 1.463 . S
C1578 N1582 1.427 . S
C1579 H1569 0.929 . S
C1579 C1577 1.433 . S
C1579 N1582 1.384 . S
C1580 H1571 0.929 . S
C1580 C1572 1.378 . S
C1580 C1575 1.350 . S
C1581 H1568 0.929 . S
C1581 C1573 1.433 . S
C1581 N1583 1.384 . S
N1582 C1578 1.427 . S
N1582 C1579 1.384 . S
N1583 C1575 1.427 . S
N1583 C1581 1.384 . S
H1584 C1590 0.930 . S
H1585 C1594 0.930 . S
H1586 C1599 0.929 . S
H1587 C1597 0.929 . S
H1588 C1592 0.929 . S
H1589 C1598 0.929 . S
C1590 H1584 0.930 . S
C1590 C1591 1.367 . S
C1590 C1598 1.378 . S
C1591 C1590 1.367 . S
C1591 C1599 1.433 . S
C1592 H1588 0.929 . S
C1592 C1594 1.378 . S
C1592 C1596 1.350 . S
C1593 C1596 1.463 . S
C1593 C1598 1.350 . S
C1593 N1601 1.427 . S
C1594 H1585 0.930 . S
C1594 C1592 1.378 . S
C1594 C1595 1.367 . S
C1595 C1594 1.367 . S
C1595 C1597 1.433 . S
C1596 C1592 1.350 . S
C1596 C1593 1.463 . S
C1596 N1600 1.427 . S
C1597 H1587 0.929 . S
C1597 C1595 1.433 . S
C1597 N1600 1.384 . S
C1598 H1589 0.929 . S
C1598 C1590 1.378 . S
C1598 C1593 1.350 . S
C1599 H1586 0.929 . S
C1599 C1591 1.433 . S
C1599 N1601 1.384 . S
N1600 C1596 1.427 . S
N1600 C1597 1.384 . S
N1601 C1593 1.427 . S
N1601 C1599 1.384 . S
H1602 C1608 0.930 . S
H1603 C1612 0.930 . S
H1604 C1617 0.929 . S
H1605 C1615 0.929 . S
H1606 C1610 0.929 . S
H1607 C1616 0.929 . S
C1608 H1602 0.930 . S
C1608 C1609 1.367 . S
C1608 C1616 1.378 . S
C1609 C1608 1.367 . S
C1609 C1617 1.433 . S
C1610 H1606 0.929 . S
C1610 C1612 1.378 . S
C1610 C1614 1.350 . S
C1611 C1614 1.463 . S
C1611 C1616 1.350 . S
C1611 N1619 1.427 . S
C1612 H1603 0.930 . S
C1612 C1610 1.378 . S
C1612 C1613 1.367 . S
C1613 C1612 1.367 . S
C1613 C1615 1.433 . S
C1614 C1610 1.350 . S
C1614 C1611 1.463 . S
C1614 N1618 1.427 . S
C1615 H1605 0.929 . S
C1615 C1613 1.433 . S
C1615 N1618 1.384 . S
C1616 H1607 0.929 . S
C1616 C1608 1.378 . S
C1616 C1611 1.350 . S
C1617 H1604 0.929 . S
C1617 C1609 1.433 . S
C1617 N1619 1.384 . S
N1618 C1614 1.427 . S
N1618 C1615 1.384 . S
N1619 C1611 1.427 . S
N1619 C1617 1.384 . S
H1620 C1626 0.930 . S
H1621 C1630 0.930 . S
H1622 C1635 0.929 . S
H1623 C1633 0.929 . S
H1624 C1628 0.929 . S
H1625 C1634 0.929 . S
C1626 H1620 0.930 . S
C1626 C1627 1.367 . S
C1626 C1634 1.378 . S
C1627 C1626 1.367 . S
C1627 C1635 1.433 . S
C1628 H1624 0.929 . S
C1628 C1630 1.378 . S
C1628 C1632 1.350 . S
C1629 C1632 1.463 . S
C1629 C1634 1.350 . S
C1629 N1637 1.427 . S
C1630 H1621 0.930 . S
C1630 C1628 1.378 . S
C1630 C1631 1.367 . S
C1631 C1630 1.367 . S
C1631 C1633 1.433 . S
C1632 C1628 1.350 . S
C1632 C1629 1.463 . S
C1632 N1636 1.427 . S
C1633 H1623 0.929 . S
C1633 C1631 1.433 . S
C1633 N1636 1.384 . S
C1634 H1625 0.929 . S
C1634 C1626 1.378 . S
C1634 C1629 1.350 . S
C1635 H1622 0.929 . S
C1635 C1627 1.433 . S
C1635 N1637 1.384 . S
N1636 C1632 1.427 . S
N1636 C1633 1.384 . S
N1637 C1629 1.427 . S
N1637 C1635 1.384 . S
H1638 C1644 0.930 . S
H1639 C1648 0.930 . S
H1640 C1653 0.929 . S
H1641 C1651 0.929 . S
H1642 C1646 0.929 . S
H1643 C1652 0.929 . S
C1644 H1638 0.930 . S
C1644 C1645 1.367 . S
C1644 C1652 1.378 . S
C1645 C1644 1.367 . S
C1645 C1653 1.433 . S
C1646 H1642 0.929 . S
C1646 C1648 1.378 . S
C1646 C1650 1.350 . S
C1647 C1650 1.463 . S
C1647 C1652 1.350 . S
C1647 N1655 1.427 . S
C1648 H1639 0.930 . S
C1648 C1646 1.378 . S
C1648 C1649 1.367 . S
C1649 C1648 1.367 . S
C1649 C1651 1.433 . S
C1650 C1646 1.350 . S
C1650 C1647 1.463 . S
C1650 N1654 1.427 . S
C1651 H1641 0.929 . S
C1651 C1649 1.433 . S
C1651 N1654 1.384 . S
C1652 H1643 0.929 . S
C1652 C1644 1.378 . S
C1652 C1647 1.350 . S
C1653 H1640 0.929 . S
C1653 C1645 1.433 . S
C1653 N1655 1.384 . S
N1654 C1650 1.427 . S
N1654 C1651 1.384 . S
N1655 C1647 1.427 . S
N1655 C1653 1.384 . S
C1015 C238 1.212 . S
C1019 C67 1.319 . S
C1033 C310 1.230 . S
C1037 C140 1.305 . S
C1051 C235 1.319 . S
C1055 C406 1.212 . S
C1069 C308 1.304 . S
C1073 C478 1.230 . S
C1087 C70 1.229 . S
C1091 C403 1.303 . S
C1105 C142 1.224 . S
C1109 C476 1.302 . S
C1123 C898 1.217 . S
C1127 C560 1.317 . S
C1141 C655 1.302 . S
C1145 C994 1.222 . S
C1159 C728 1.317 . S
C1163 C562 1.202 . S
C1177 C823 1.303 . S
C1181 C658 1.229 . S
C1195 C896 1.305 . S
C1199 C730 1.212 . S
C1213 C826 1.204 . S
C1217 C991 1.319 . S
C1231 C326 1.927 . S
C1235 C63 1.937 . S
C1249 C158 1.928 . S
C1253 C399 1.936 . S
C1267 C231 1.939 . S
C1271 C494 1.925 . S
C1285 C578 1.937 . S
C1289 C819 1.927 . S
C1303 C651 1.934 . S
C1307 C914 1.931 . S
C1321 C746 1.933 . S
C1325 C987 1.931 . S
C1339 C662 2.143 . S
C1343 C74 2.152 . S
C1357 C147 2.146 . S
C1361 C735 2.139 . S
C1375 C830 2.139 . S
C1379 C242 2.146 . S
C1393 C315 2.145 . S
C1397 C903 2.139 . S
C1411 C410 2.150 . S
C1415 C998 2.140 . S
C1429 C567 2.148 . S
C1433 C483 2.151 . S
C1447 C226 1.326 . S
C1451 C56 1.405 . S
C1465 C151 1.402 . S
C1469 C322 1.325 . S
C1483 C224 1.400 . S
C1487 C394 1.324 . S
C1501 C319 1.401 . S
C1505 C490 1.324 . S
C1519 C58 1.326 . S
C1523 C392 1.408 . S
C1537 C154 1.311 . S
C1541 C487 1.400 . S
C1555 C910 1.323 . S
C1559 C571 1.412 . S
C1573 C644 1.401 . S
C1577 C982 1.307 . S
C1591 C739 1.414 . S
C1595 C574 1.321 . S
C1609 C646 1.317 . S
C1613 C812 1.399 . S
C1627 C907 1.405 . S
C1631 C742 1.302 . S
C1645 C980 1.399 . S
C1649 C814 1.322 . S
