# Generated by pormake.
# Topology fcu, (12)-cn, num edge types: 1
# Building blocks:
#     Node 0, Type 0, BuildingBlock: ZALLEG_clean_sbu_0, # of connection points: 12
#     Node 1, Type 0, BuildingBlock: ZALLEG_clean_sbu_0, # of connection points: 12
#     Node 2, Type 0, BuildingBlock: ZALLEG_clean_sbu_0, # of connection points: 12
#     Node 3, Type 0, BuildingBlock: ZALLEG_clean_sbu_0, # of connection points: 12
#     Edge 4, Type (0, 0), BuildingBlock: CIFDUS_clean_linker_0, # of connection points: 2
#     Edge 5, Type (0, 0), BuildingBlock: CIFDUS_clean_linker_0, # of connection points: 2
#     Edge 6, Type (0, 0), BuildingBlock: CIFDUS_clean_linker_0, # of connection points: 2
#     Edge 7, Type (0, 0), BuildingBlock: CIFDUS_clean_linker_0, # of connection points: 2
#     Edge 8, Type (0, 0), BuildingBlock: CIFDUS_clean_linker_0, # of connection points: 2
#     Edge 9, Type (0, 0), BuildingBlock: CIFDUS_clean_linker_0, # of connection points: 2
#     Edge 10, Type (0, 0), BuildingBlock: CIFDUS_clean_linker_0, # of connection points: 2
#     Edge 11, Type (0, 0), BuildingBlock: CIFDUS_clean_linker_0, # of connection points: 2
#     Edge 12, Type (0, 0), BuildingBlock: CIFDUS_clean_linker_0, # of connection points: 2
#     Edge 13, Type (0, 0), BuildingBlock: CIFDUS_clean_linker_0, # of connection points: 2
#     Edge 14, Type (0, 0), BuildingBlock: CIFDUS_clean_linker_0, # of connection points: 2
#     Edge 15, Type (0, 0), BuildingBlock: CIFDUS_clean_linker_0, # of connection points: 2
#     Edge 16, Type (0, 0), BuildingBlock: CIFDUS_clean_linker_0, # of connection points: 2
#     Edge 17, Type (0, 0), BuildingBlock: CIFDUS_clean_linker_0, # of connection points: 2
#     Edge 18, Type (0, 0), BuildingBlock: CIFDUS_clean_linker_0, # of connection points: 2
#     Edge 19, Type (0, 0), BuildingBlock: CIFDUS_clean_linker_0, # of connection points: 2
#     Edge 20, Type (0, 0), BuildingBlock: CIFDUS_clean_linker_0, # of connection points: 2
#     Edge 21, Type (0, 0), BuildingBlock: CIFDUS_clean_linker_0, # of connection points: 2
#     Edge 22, Type (0, 0), BuildingBlock: CIFDUS_clean_linker_0, # of connection points: 2
#     Edge 23, Type (0, 0), BuildingBlock: CIFDUS_clean_linker_0, # of connection points: 2
#     Edge 24, Type (0, 0), BuildingBlock: CIFDUS_clean_linker_0, # of connection points: 2
#     Edge 25, Type (0, 0), BuildingBlock: CIFDUS_clean_linker_0, # of connection points: 2
#     Edge 26, Type (0, 0), BuildingBlock: CIFDUS_clean_linker_0, # of connection points: 2
#     Edge 27, Type (0, 0), BuildingBlock: CIFDUS_clean_linker_0, # of connection points: 2
# Relax obj value: 0.000
# Max RMSD: 0.000
# Mean RMSD: 0.000
data_MOF--net-fcu--node1-ZALLEG_clean_sbu_0--edge1-CIFDUS_clean_linker_0
_symmetry_space_group_name_H-M    P1
_symmetry_Int_Tables_number       1
_symmetry_cell_setting            triclinic
loop_
_symmetry_equiv_pos_as_xyz
'x, y, z'
_cell_length_a     23.888381
_cell_length_b     23.901074
_cell_length_c     23.798633
_cell_angle_alpha  90.026114
_cell_angle_beta   90.147931
_cell_angle_gamma 89.939074
loop_
_atom_site_label
_atom_site_type_symbol
_atom_site_fract_x
_atom_site_fract_y
_atom_site_fract_z
_atom_type_partial_charge
H0 H 0.93807 0.94617 0.93251 0.0
O1 O 0.96186 0.96756 0.95884 0.0
Tb2 Tb 0.91345 0.01802 1.01145 0.0
Tb3 Tb 1.00894 0.91335 1.0097 0.0
Tb4 Tb 0.01694 0.02059 0.91588 0.0
O5 O 0.95779 0.9615 0.06234 0.0
O6 O 0.96582 0.07148 0.96585 0.0
O7 O 0.96235 0.06428 0.06842 0.0
O8 O 0.06074 0.95745 0.06602 0.0
O9 O 0.06899 0.06638 0.96999 0.0
O10 O 0.06432 0.96361 0.96364 0.0
H11 H 0.93214 0.93731 0.08391 0.0
H12 H 0.94343 0.09748 0.94263 0.0
Tb13 Tb 1.00923 1.00777 0.11675 0.0
Tb14 Tb 0.01736 0.11533 0.02265 0.0
H15 H 0.93843 0.08729 0.09308 0.0
H16 H 0.08277 0.93151 0.08963 0.0
Tb17 Tb 0.11474 1.00917 0.01944 0.0
H18 H 0.09461 0.09003 0.94779 0.0
H19 H 0.08791 0.9398 0.93942 0.0
O20 O 0.06477 0.05977 0.07217 0.0
H21 H 0.08849 0.08145 0.09831 0.0
O22 O 0.86142 0.94337 1.00493 0.0
O23 O 0.16627 0.08477 0.02488 0.0
O24 O 0.15874 0.92754 0.01803 0.0
O25 O 0.86691 0.09581 1.01652 0.0
O26 O 1.01109 0.87049 0.9279 0.0
O27 O 0.016 0.158 0.10464 0.0
O28 O 0.0218 0.16827 0.94785 0.0
O29 O 1.00476 0.86053 0.08499 0.0
O30 O 0.94215 0.02653 0.8637 0.0
O31 O 0.08533 1.00277 0.16823 0.0
O32 O 0.92781 1.00839 0.16105 0.0
O33 O 0.09424 0.01782 0.86883 0.0
O34 O 0.92789 0.8692 1.00442 0.0
O35 O 0.09948 0.15906 0.02716 0.0
O36 O 0.9381 0.16546 0.0232 0.0
O37 O 0.08452 0.86143 1.01006 0.0
O38 O 0.86151 0.0153 0.08659 0.0
O39 O 0.16438 1.00962 0.9398 0.0
O40 O 0.1593 1.00484 0.10117 0.0
O41 O 0.86857 0.02401 0.93063 0.0
O42 O 1.00547 0.92635 0.16011 0.0
O43 O 0.02176 0.10221 0.87294 0.0
O44 O 0.01623 0.94557 0.8624 0.0
O45 O 1.01006 0.08288 0.17013 0.0
C46 C 0.87532 0.88922 1.0031 0.0
C47 C 0.15232 0.13908 0.02729 0.0
C48 C 0.13879 0.87504 1.01398 0.0
C49 C 0.88416 0.14866 0.02138 0.0
C50 C 1.01427 0.89104 0.87553 0.0
C51 C 1.01273 0.13742 0.15702 0.0
C52 C 0.02297 0.15462 0.89328 0.0
C53 C 1.00421 0.87397 0.13969 0.0
C54 C 0.88811 0.02669 0.87791 0.0
C55 C 0.13963 1.00282 0.1541 0.0
C56 C 0.87522 1.0117 0.14097 0.0
C57 C 0.14716 1.01232 0.8858 0.0
H58 H 0.9316 0.44811 0.44068 0.0
O59 O 0.95766 0.46936 0.46487 0.0
Tb60 Tb 0.91407 0.52037 0.52218 0.0
Tb61 Tb 1.00841 0.41381 0.51034 0.0
Tb62 Tb 1.00985 0.52088 0.41652 0.0
O63 O 0.96232 0.46242 0.56752 0.0
O64 O 0.96426 0.5719 0.47153 0.0
O65 O 0.96887 0.56532 0.57418 0.0
O66 O 0.06523 0.4564 0.5627 0.0
O67 O 0.06715 0.56534 0.46684 0.0
O68 O 0.06077 0.46361 0.46039 0.0
H69 H 0.93827 0.43857 0.5912 0.0
H70 H 0.94076 0.59827 0.44991 0.0
Tb71 Tb 0.019 0.50733 0.61732 0.0
Tb72 Tb 0.0214 0.61453 0.52358 0.0
H73 H 0.94743 0.58897 0.60052 0.0
H74 H 0.08845 0.42978 0.58429 0.0
Tb75 Tb 0.11616 0.50805 0.51307 0.0
H76 H 0.09111 0.58931 0.44318 0.0
H77 H 0.08216 0.43991 0.43406 0.0
O78 O 0.07192 0.55899 0.56973 0.0
H79 H 0.09795 0.57989 0.59427 0.0
O80 O 0.86112 0.44523 0.52003 0.0
O81 O 0.16898 0.58317 0.51506 0.0
O82 O 0.15893 0.42662 0.50712 0.0
O83 O 0.87115 0.60188 0.52782 0.0
O84 O 1.00319 0.37117 0.4285 0.0
O85 O 0.02673 0.65716 0.60526 0.0
O86 O 0.0206 0.66774 0.44845 0.0
O87 O 1.00911 0.36033 0.58503 0.0
O88 O 0.92854 0.5265 0.37228 0.0
O89 O 0.09685 0.49841 0.66367 0.0
O90 O 0.9444 0.50853 0.66978 0.0
O91 O 0.08541 0.51962 0.3646 0.0
O92 O 0.92676 0.37059 0.51171 0.0
O93 O 0.10308 0.65769 0.52232 0.0
O94 O 0.94617 0.66745 0.52923 0.0
O95 O 0.08377 0.36114 0.50456 0.0
O96 O 0.87026 0.51848 0.60366 0.0
O97 O 0.15979 0.50997 0.43093 0.0
O98 O 0.16649 0.50151 0.59216 0.0
O99 O 0.86203 0.52705 0.44664 0.0
O100 O 0.01656 0.42563 0.66017 0.0
O101 O 1.01177 0.60247 0.37339 0.0
O102 O 1.00436 0.44622 0.36286 0.0
O103 O 0.02528 0.58206 0.67085 0.0
C104 C 0.87443 0.39081 0.51596 0.0
C105 C 0.15549 0.63755 0.51863 0.0
C106 C 0.13836 0.3744 0.50443 0.0
C107 C 0.89158 0.65418 0.5298 0.0
C108 C 1.00256 0.3917 0.37604 0.0
C109 C 0.02729 0.63658 0.65769 0.0
C110 C 0.01622 0.65466 0.39383 0.0
C111 C 1.01275 0.37344 0.63964 0.0
C112 C 0.87594 0.52812 0.39217 0.0
C113 C 0.14983 0.49746 0.64614 0.0
C114 C 0.89031 0.51338 0.65619 0.0
C115 C 0.1397 0.51485 0.37821 0.0
H116 H 0.43838 0.94809 0.43484 0.0
O117 O 0.46243 0.96959 0.46083 0.0
Tb118 Tb 0.41359 0.0212 0.51339 0.0
Tb119 Tb 0.50813 0.91399 0.51128 0.0
Tb120 Tb 0.51977 0.01983 0.41642 0.0
O121 O 0.45776 0.96388 0.56377 0.0
O122 O 0.46901 0.07142 0.4666 0.0
O123 O 0.46487 0.06634 0.56896 0.0
O124 O 0.56085 0.95659 0.56789 0.0
O125 O 0.57203 0.06487 0.47091 0.0
O126 O 0.56529 0.96244 0.46529 0.0
H127 H 0.43159 0.94091 0.58603 0.0
H128 H 0.44768 0.09767 0.44269 0.0
Tb129 Tb 0.51105 1.00897 0.61738 0.0
Tb130 Tb 0.5215 0.11484 0.52267 0.0
H131 H 0.44182 0.09091 0.59293 0.0
H132 H 0.58213 0.93026 0.59175 0.0
Tb133 Tb 0.61551 1.00753 0.5221 0.0
H134 H 0.59812 0.08832 0.44908 0.0
H135 H 0.58876 0.93829 0.44125 0.0
O136 O 0.56764 0.05991 0.57384 0.0
H137 H 0.5918 0.08114 0.59996 0.0
O138 O 0.36045 0.94635 0.50867 0.0
O139 O 0.66877 0.0824 0.52714 0.0
O140 O 0.65823 0.92571 0.52055 0.0
O141 O 0.3711 0.10299 0.51407 0.0
O142 O 0.50921 0.87033 0.4297 0.0
O143 O 0.52028 0.15867 0.60401 0.0
O144 O 0.52711 0.16706 0.4471 0.0
O145 O 0.50212 0.86164 0.58649 0.0
O146 O 0.44392 0.02627 0.36458 0.0
O147 O 0.58572 1.00164 0.66978 0.0
O148 O 0.43368 1.01404 0.66421 0.0
O149 O 0.6014 0.01719 0.37252 0.0
O150 O 0.42629 0.87145 0.50657 0.0
O151 O 0.60321 0.15753 0.52749 0.0
O152 O 0.44631 0.16806 0.52135 0.0
O153 O 0.58323 0.86058 0.51241 0.0
O154 O 0.36383 0.0225 0.59294 0.0
O155 O 0.66753 1.00799 0.44699 0.0
O156 O 0.65976 1.00194 0.60318 0.0
O157 O 0.36961 0.02601 0.43137 0.0
O158 O 0.50422 0.92793 0.6611 0.0
O159 O 0.52549 0.10086 0.37239 0.0
O160 O 0.51745 0.94457 0.36359 0.0
O161 O 0.51355 0.0843 0.6701 0.0
C162 C 0.37385 0.89185 0.50657 0.0
C163 C 0.65558 0.13698 0.52838 0.0
C164 C 0.63776 0.87352 0.51657 0.0
C165 C 0.39176 0.15513 0.51747 0.0
C166 C 0.51333 0.89029 0.37715 0.0
C167 C 0.51671 0.13864 0.65654 0.0
C168 C 0.52767 0.15334 0.39249 0.0
C169 C 0.50155 0.87549 0.64102 0.0
C170 C 0.38956 0.0274 0.37851 0.0
C171 C 0.63983 1.00018 0.6558 0.0
C172 C 0.38089 0.02017 0.64702 0.0
C173 C 0.65389 1.01235 0.39263 0.0
H174 H 0.43427 0.44784 0.93869 0.0
O175 O 0.4599 0.46899 0.96344 0.0
Tb176 Tb 0.41431 0.51883 0.0202 0.0
Tb177 Tb 0.51201 0.41361 1.00872 0.0
Tb178 Tb 0.5109 0.52243 0.91585 0.0
O179 O 0.46477 0.46179 0.06558 0.0
O180 O 0.46376 0.57202 0.97094 0.0
O181 O 0.46866 0.56385 0.07323 0.0
O182 O 0.56776 0.45771 0.06105 0.0
O183 O 0.56656 0.56875 0.96567 0.0
O184 O 0.56239 0.46539 0.95846 0.0
H185 H 0.44133 0.43713 0.08905 0.0
H186 H 0.43983 0.59826 0.94965 0.0
Tb187 Tb 0.52072 0.50712 0.11653 0.0
Tb188 Tb 0.51974 0.61546 0.02364 0.0
H189 H 0.44668 0.58675 0.09978 0.0
H190 H 0.59227 0.43178 0.0821 0.0
Tb191 Tb 0.61565 0.51172 1.01074 0.0
H192 H 0.59015 0.5934 0.94234 0.0
H193 H 0.58439 0.44287 0.93162 0.0
O194 O 0.57141 0.56072 0.06884 0.0
H195 H 0.59704 0.58219 0.09329 0.0
O196 O 0.36317 0.44291 0.01712 0.0
O197 O 0.66733 0.58671 1.01447 0.0
O198 O 0.66224 0.43436 1.00152 0.0
O199 O 0.36992 0.59996 0.02687 0.0
O200 O 0.5073 0.37195 0.92664 0.0
O201 O 0.52397 0.65714 0.10597 0.0
O202 O 0.51756 0.66948 0.94925 0.0
O203 O 0.51407 0.35988 0.08344 0.0
O204 O 0.43282 0.52965 0.86974 0.0
O205 O 0.6021 0.50313 0.16067 0.0
O206 O 0.4452 0.50608 0.16849 0.0
O207 O 0.58527 0.52349 0.86313 0.0
O208 O 0.43013 0.36912 1.00966 0.0
O209 O 0.60068 0.66029 0.023 0.0
O210 O 0.44395 0.66666 0.03034 0.0
O211 O 0.59137 0.36414 1.00214 0.0
O212 O 0.3707 0.51504 0.10225 0.0
O213 O 0.65949 0.51588 0.92935 0.0
O214 O 0.66818 0.50486 0.08603 0.0
O215 O 0.36349 0.52478 0.94138 0.0
O216 O 0.52081 0.42502 0.15889 0.0
O217 O 0.51119 0.6045 0.87368 0.0
O218 O 0.50632 0.4478 0.86177 0.0
O219 O 0.52439 0.58144 0.17096 0.0
C220 C 0.37728 0.38875 1.01304 0.0
C221 C 0.65327 0.64063 0.01927 0.0
C222 C 0.64513 0.3813 0.99915 0.0
C223 C 0.38967 0.65257 0.03032 0.0
C224 C 0.50581 0.39309 0.87445 0.0
C225 C 0.52498 0.63612 0.15824 0.0
C226 C 0.51393 0.65663 0.89455 0.0
C227 C 0.51783 0.37282 0.13815 0.0
C228 C 0.3799 0.5294 0.88738 0.0
C229 C 0.6546 0.50293 0.14056 0.0
C230 C 0.39085 0.50995 0.15491 0.0
C231 C 0.63944 0.52033 0.87678 0.0
H232 H 1.00493 0.25127 0.15098 0.0
H233 H 0.01664 0.11507 0.26983 0.0
H234 H 1.01318 0.18134 0.34752 0.0
H235 H 1.00775 0.27774 0.38205 0.0
H236 H 0.996 0.414 0.26327 0.0
H237 H 0.99844 0.34767 0.18557 0.0
C238 C 1.00688 0.23591 0.19381 0.0
C239 C 1.01118 0.17805 0.20422 0.0
C240 C 1.00473 0.27426 0.23854 0.0
C241 C 1.01329 0.15924 0.26023 0.0
C242 C 1.01132 0.19716 0.30487 0.0
C243 C 1.00545 0.29312 0.33925 0.0
C244 C 1.00173 0.35101 0.32886 0.0
C245 C 1.00706 0.25475 0.29453 0.0
C246 C 0.99896 0.3698 0.27286 0.0
C247 C 1.0004 0.33186 0.22822 0.0
H248 H 0.87999 1.0086 0.25566 0.0
H249 H 0.76333 0.0151 0.11666 0.0
H250 H 0.68515 0.01596 0.18166 0.0
H251 H 0.64912 0.01497 0.27792 0.0
H252 H 0.76578 1.00874 0.41693 0.0
H253 H 0.84396 1.00767 0.35193 0.0
C254 C 0.83753 1.01012 0.23949 0.0
C255 C 0.82797 1.01172 0.18124 0.0
C256 C 0.79233 1.01069 0.27713 0.0
C257 C 0.7724 1.01381 0.16125 0.0
C258 C 0.72736 1.01432 0.19842 0.0
C259 C 0.69158 1.01342 0.2941 0.0
C260 C 0.70114 1.01188 0.35236 0.0
C261 C 0.73678 1.01282 0.25645 0.0
C262 C 0.75671 1.00983 0.37234 0.0
C263 C 0.80174 1.00924 0.33517 0.0
H264 H 0.01677 0.87929 0.25367 0.0
H265 H 0.99063 0.76239 0.11756 0.0
H266 H 0.99249 0.68475 0.18374 0.0
H267 H 1.00207 0.64957 0.27998 0.0
H268 H 0.02836 0.76645 0.41611 0.0
H269 H 0.02587 0.84412 0.35001 0.0
C270 C 1.01118 0.83691 0.23836 0.0
C271 C 1.00357 0.82702 0.18052 0.0
C272 C 1.01248 0.79217 0.27665 0.0
C273 C 0.99672 0.77157 0.16172 0.0
C274 C 0.99777 0.72695 0.19958 0.0
C275 C 1.00736 0.69196 0.29536 0.0
C276 C 0.01542 0.70179 0.35316 0.0
C277 C 1.00581 0.73672 0.25711 0.0
C278 C 0.02205 0.75726 0.37199 0.0
C279 C 0.02061 0.80192 0.33417 0.0
H280 H 0.27799 1.00203 0.38131 0.0
H281 H 0.40981 0.05241 0.26833 0.0
H282 H 0.34523 0.04754 0.1891 0.0
H283 H 0.25123 0.02868 0.15118 0.0
H284 H 0.11958 0.97803 0.2643 0.0
H285 H 0.18412 0.98317 0.34345 0.0
C286 C 0.29255 1.01242 0.33947 0.0
C287 C 0.34883 0.02762 0.33113 0.0
C288 C 0.25523 1.00912 0.29369 0.0
C289 C 0.36686 0.04036 0.2763 0.0
C290 C 0.32992 0.03756 0.23074 0.0
C291 C 0.2367 0.01831 0.19303 0.0
C292 C 0.18046 1.00295 0.20141 0.0
C293 C 0.27406 0.02165 0.23882 0.0
C294 C 0.16249 0.99021 0.25627 0.0
C295 C 0.19941 0.99316 0.30181 0.0
H296 H 0.02121 0.77732 0.8821 0.0
H297 H 1.01387 0.91336 0.76269 0.0
H298 H 0.01894 0.84689 0.68528 0.0
H299 H 0.02412 0.75044 0.65123 0.0
H300 H 0.03136 0.61432 0.77055 0.0
H301 H 0.02786 0.68087 0.84801 0.0
C302 C 0.02055 0.7926 0.8392 0.0
C303 C 0.01685 0.85042 0.82851 0.0
C304 C 0.02361 0.75417 0.79469 0.0
C305 C 0.01652 0.86918 0.77245 0.0
C306 C 0.01948 0.83117 0.728 0.0
C307 C 0.02523 0.73513 0.69411 0.0
C308 C 0.02795 0.67725 0.70475 0.0
C309 C 0.02292 0.77359 0.73862 0.0
C310 C 0.02923 0.65853 0.76081 0.0
C311 C 0.02714 0.69659 0.80529 0.0
H312 H 0.25186 0.05767 0.87516 0.0
H313 H 0.13125 0.95254 0.79119 0.0
H314 H 0.19003 0.94854 0.70779 0.0
H315 H 0.27604 0.97546 0.65748 0.0
H316 H 0.39679 0.08042 0.7414 0.0
H317 H 0.33788 0.08471 0.82475 0.0
C318 C 0.23908 0.03332 0.83886 0.0
C319 C 0.18752 1.00543 0.83938 0.0
C320 C 0.27275 0.03189 0.79031 0.0
C321 C 0.17088 0.9746 0.79171 0.0
C322 C 0.20431 0.97241 0.74381 0.0
C323 C 0.2888 0.99989 0.69373 0.0
C324 C 0.34042 0.02764 0.69324 0.0
C325 C 0.2551 1.0014 0.74224 0.0
C326 C 0.35707 0.05853 0.74086 0.0
C327 C 0.32358 0.06085 0.78873 0.0
H328 H 0.02978 0.37836 0.75286 0.0
H329 H 0.99689 0.2622 0.61753 0.0
H330 H 0.99842 0.18455 0.68366 0.0
H331 H 1.00819 0.14937 0.7798 0.0
H332 H 0.04073 0.26556 0.91515 0.0
H333 H 0.04017 0.34313 0.84888 0.0
C334 C 0.02279 0.33614 0.7377 0.0
C335 C 1.01317 0.32642 0.68018 0.0
C336 C 0.02372 0.29145 0.77593 0.0
C337 C 1.00449 0.2712 0.66149 0.0
C338 C 1.00533 0.22659 0.6993 0.0
C339 C 0.01548 0.19157 0.79489 0.0
C340 C 0.02444 0.20137 0.85249 0.0
C341 C 0.01491 0.23621 0.7566 0.0
C342 C 0.03347 0.25655 0.87113 0.0
C343 C 0.03321 0.3011 0.83324 0.0
H344 H 0.74927 0.03026 0.65278 0.0
H345 H 0.62073 0.96941 0.76442 0.0
H346 H 0.68561 0.97429 0.8435 0.0
H347 H 0.77862 0.99619 0.8811 0.0
H348 H 0.9069 0.05741 0.76931 0.0
H349 H 0.84209 0.05224 0.69033 0.0
C350 C 0.73559 0.01752 0.69428 0.0
C351 C 0.68035 0.99944 0.70263 0.0
C352 C 0.77285 0.02096 0.73971 0.0
C353 C 0.66306 0.98372 0.75684 0.0
C354 C 0.70007 0.98655 0.80216 0.0
C355 C 0.79224 1.00894 0.83958 0.0
C356 C 0.84744 0.02719 0.8312 0.0
C357 C 0.75494 1.00548 0.79415 0.0
C358 C 0.86464 0.04295 0.77696 0.0
C359 C 0.82766 0.03997 0.73167 0.0
H360 H 0.38016 0.27532 0.0315 0.0
H361 H 0.26671 0.4112 0.99421 0.0
H362 H 0.18765 0.34726 0.9969 0.0
H363 H 0.14967 0.25252 1.00962 0.0
H364 H 0.2629 0.11651 0.04715 0.0
H365 H 0.34203 0.18046 0.04467 0.0
C366 C 0.33822 0.29093 0.02366 0.0
C367 C 0.32985 0.34823 1.01279 0.0
C368 C 0.29234 0.25381 0.02554 0.0
C369 C 0.27485 0.3675 1.0031 0.0
C370 C 0.2293 0.33088 1.00457 0.0
C371 C 0.19155 0.23685 0.01765 0.0
C372 C 0.19983 0.17953 0.02847 0.0
C373 C 0.2374 0.27395 1.01597 0.0
C374 C 0.25479 0.16024 0.03838 0.0
C375 C 0.30038 0.19686 0.03699 0.0
H376 H 0.277 0.6491 1.01007 0.0
H377 H 0.41076 0.76246 0.05439 0.0
H378 H 0.34573 0.84089 0.05257 0.0
H379 H 0.25104 0.87813 0.0373 0.0
H380 H 0.11742 0.76465 0.99267 0.0
H381 H 0.1822 0.68616 0.99577 0.0
C382 C 0.29194 0.69085 0.01975 0.0
C383 C 0.34887 0.69952 0.03223 0.0
C384 C 0.25433 0.73617 0.01833 0.0
C385 C 0.3673 0.75421 0.04432 0.0
C386 C 0.3301 0.79933 0.0433 0.0
C387 C 0.23603 0.83632 0.02804 0.0
C388 C 0.17925 0.82773 1.01476 0.0
C389 C 0.27357 0.79092 0.02998 0.0
C390 C 0.16076 0.77293 1.00322 0.0
C391 C 0.19783 0.72774 1.00495 0.0
H392 H 0.65644 0.27965 0.05062 0.0
H393 H 0.73838 0.3927 0.93627 0.0
H394 H 0.82186 0.33385 0.93605 0.0
H395 H 0.87292 0.25019 0.96938 0.0
H396 H 0.79079 0.13709 0.0835 0.0
H397 H 0.70729 0.19592 0.08365 0.0
C398 C 0.69221 0.29066 0.02493 0.0
C399 C 0.69105 0.34012 0.99326 0.0
C400 C 0.74082 0.25712 0.02585 0.0
C401 C 0.73821 0.3546 0.96097 0.0
C402 C 0.78619 0.32119 0.96105 0.0
C403 C 0.83706 0.23918 0.99495 0.0
C404 C 0.83817 0.18976 0.02668 0.0
C405 C 0.7884 0.27268 0.99392 0.0
C406 C 0.79095 0.1752 0.05881 0.0
C407 C 0.74298 0.20859 0.05868 0.0
H408 H 0.87865 0.77745 0.02481 0.0
H409 H 0.76585 0.91102 0.97802 0.0
H410 H 0.68706 0.84657 0.98041 0.0
H411 H 0.64965 0.75228 0.99639 0.0
H412 H 0.76274 0.61889 0.04286 0.0
H413 H 0.84149 0.6833 0.04006 0.0
C414 C 0.83695 0.79241 1.01468 0.0
C415 C 0.82836 0.849 1.00138 0.0
C416 C 0.79157 0.75522 1.01639 0.0
C417 C 0.77382 0.8677 0.98878 0.0
C418 C 0.72857 0.83089 0.99013 0.0
C419 C 0.69145 0.73743 1.00627 0.0
C420 C 0.70015 0.68089 0.01975 0.0
C421 C 0.73687 0.77462 1.00425 0.0
C422 C 0.75475 0.66217 0.03195 0.0
C423 C 0.79996 0.69896 0.03042 0.0
H424 H 0.75252 0.50609 0.88163 0.0
H425 H 0.61654 0.53685 0.76544 0.0
H426 H 0.68183 0.53708 0.6873 0.0
H427 H 0.77728 0.52841 0.65145 0.0
H428 H 0.91326 0.49777 0.76768 0.0
H429 H 0.84802 0.49778 0.84582 0.0
C430 C 0.73709 0.51304 0.8393 0.0
C431 C 0.67966 0.52142 0.82971 0.0
C432 C 0.77482 0.51311 0.79426 0.0
C433 C 0.66052 0.53015 0.77436 0.0
C434 C 0.69782 0.53033 0.72943 0.0
C435 C 0.79274 0.52166 0.6938 0.0
C436 C 0.85016 0.51313 0.70337 0.0
C437 C 0.75504 0.52175 0.73886 0.0
C438 C 0.8693 0.50457 0.75875 0.0
C439 C 0.83202 0.50453 0.80369 0.0
H440 H 0.24637 0.55682 0.65988 0.0
H441 H 0.1442 0.4297 0.73668 0.0
H442 H 0.20298 0.4312 0.82079 0.0
H443 H 0.28333 0.46969 0.87373 0.0
H444 H 0.38511 0.59718 0.79694 0.0
H445 H 0.32643 0.59547 0.71286 0.0
C446 C 0.23786 0.52873 0.69463 0.0
C447 C 0.19159 0.49273 0.69184 0.0
C448 C 0.27105 0.53084 0.74367 0.0
C449 C 0.18002 0.4575 0.73774 0.0
C450 C 0.2133 0.45863 0.78608 0.0
C451 C 0.29178 0.49779 0.83899 0.0
C452 C 0.338 0.53388 0.84176 0.0
C453 C 0.25852 0.4957 0.78996 0.0
C454 C 0.34941 0.56922 0.79588 0.0
C455 C 0.31618 0.56799 0.74755 0.0
H456 H 0.25388 0.50408 0.38224 0.0
H457 H 0.11617 0.52563 0.26611 0.0
H458 H 0.18088 0.52553 0.18752 0.0
H459 H 0.27662 0.51971 0.15087 0.0
H460 H 0.41438 0.49818 0.26694 0.0
H461 H 0.34964 0.49789 0.34554 0.0
C462 C 0.2379 0.50879 0.33982 0.0
C463 C 0.18 0.51488 0.33062 0.0
C464 C 0.27544 0.50869 0.2943 0.0
C465 C 0.16039 0.52085 0.275 0.0
C466 C 0.19743 0.52081 0.2297 0.0
C467 C 0.29261 0.51486 0.19328 0.0
C468 C 0.35053 0.50902 0.20247 0.0
C469 C 0.25507 0.51477 0.23878 0.0
C470 C 0.37013 0.50282 0.25806 0.0
C471 C 0.33308 0.50265 0.30336 0.0
H472 H 0.65049 0.52564 0.25282 0.0
H473 H 0.76518 0.48243 0.11961 0.0
H474 H 0.84368 0.48845 0.18487 0.0
H475 H 0.8802 0.50591 0.27972 0.0
H476 H 0.76546 0.54947 0.41282 0.0
H477 H 0.68704 0.54358 0.34752 0.0
C478 C 0.69256 0.51705 0.23808 0.0
C479 C 0.70166 0.50343 0.18133 0.0
C480 C 0.73781 0.52104 0.27575 0.0
C481 C 0.75671 0.49309 0.16301 0.0
C482 C 0.8018 0.49659 0.2003 0.0
C483 C 0.83814 0.51461 0.29443 0.0
C484 C 0.82901 0.52813 0.35121 0.0
C485 C 0.79291 0.5108 0.25671 0.0
C486 C 0.77397 0.53876 0.36944 0.0
C487 C 0.72891 0.53535 0.33212 0.0
H488 H 0.37971 0.77797 0.51526 0.0
H489 H 0.26157 0.91388 0.49747 0.0
H490 H 0.18412 0.84773 0.50031 0.0
H491 H 0.14942 0.75139 0.50839 0.0
H492 H 0.26775 0.61564 0.5261 0.0
H493 H 0.34513 0.68176 0.52271 0.0
C494 C 0.3371 0.79329 0.51169 0.0
C495 C 0.32685 0.85108 0.50615 0.0
C496 C 0.29248 0.755 0.51353 0.0
C497 C 0.27108 0.86979 0.50189 0.0
C498 C 0.22655 0.83193 0.50354 0.0
C499 C 0.19207 0.73614 0.51173 0.0
C500 C 0.20239 0.67839 0.51755 0.0
C501 C 0.23671 0.77445 0.50958 0.0
C502 C 0.25819 0.6597 0.52143 0.0
C503 C 0.30268 0.69754 0.51952 0.0
H504 H 0.25193 0.37973 0.51633 0.0
H505 H 0.11646 0.26278 0.49031 0.0
H506 H 0.18259 0.18515 0.49225 0.0
H507 H 0.27849 0.15005 0.50244 0.0
H508 H 0.41389 0.26702 0.52887 0.0
H509 H 0.34792 0.3447 0.52563 0.0
C510 C 0.23672 0.33735 0.51077 0.0
C511 C 0.17908 0.32743 0.50323 0.0
C512 C 0.27495 0.29266 0.51221 0.0
C513 C 0.16045 0.27198 0.49634 0.0
C514 C 0.19828 0.22738 0.49746 0.0
C515 C 0.29375 0.19246 0.50761 0.0
C516 C 0.35129 0.20232 0.51599 0.0
C517 C 0.25558 0.23719 0.50567 0.0
C518 C 0.36997 0.25782 0.52235 0.0
C519 C 0.33223 0.30247 0.52048 0.0
H520 H 0.778 0.64888 0.51705 0.0
H521 H 0.91326 0.76583 0.54409 0.0
H522 H 0.84709 0.84344 0.54201 0.0
H523 H 0.75113 0.87858 0.53169 0.0
H524 H 0.61592 0.76163 0.50435 0.0
H525 H 0.68197 0.68398 0.50738 0.0
C526 C 0.79315 0.69126 0.52283 0.0
C527 C 0.85076 0.70116 0.53075 0.0
C528 C 0.75487 0.73597 0.52133 0.0
C529 C 0.8693 0.75662 0.53781 0.0
C530 C 0.83144 0.80123 0.5366 0.0
C531 C 0.73593 0.83619 0.52629 0.0
C532 C 0.67838 0.82634 0.51775 0.0
C533 C 0.77416 0.79144 0.52815 0.0
C534 C 0.65982 0.77084 0.51103 0.0
C535 C 0.69761 0.7262 0.51278 0.0
H536 H 0.64996 0.25091 0.52036 0.0
H537 H 0.76787 0.11463 0.53683 0.0
H538 H 0.84546 0.18063 0.53382 0.0
H539 H 0.88033 0.27694 0.52579 0.0
H540 H 0.76219 0.41302 0.50945 0.0
H541 H 0.68469 0.34705 0.51314 0.0
C542 C 0.69255 0.23547 0.52358 0.0
C543 C 0.70268 0.17763 0.52881 0.0
C544 C 0.73724 0.27366 0.52164 0.0
C545 C 0.75844 0.15877 0.53269 0.0
C546 C 0.80304 0.19654 0.53092 0.0
C547 C 0.83769 0.29228 0.5228 0.0
C548 C 0.82745 0.35008 0.51724 0.0
C549 C 0.79299 0.25407 0.52514 0.0
C550 C 0.77167 0.36892 0.51387 0.0
C551 C 0.72712 0.33117 0.51596 0.0
H552 H 0.5077 0.27935 0.88048 0.0
H553 H 0.50389 0.41586 0.76149 0.0
H554 H 0.5073 0.34934 0.68386 0.0
H555 H 0.51245 0.25261 0.64966 0.0
H556 H 0.51636 0.11658 0.76928 0.0
H557 H 0.51194 0.1831 0.84653 0.0
C558 C 0.50742 0.2948 0.83765 0.0
C559 C 0.50556 0.35272 0.82712 0.0
C560 C 0.50965 0.25642 0.79313 0.0
C561 C 0.50526 0.37159 0.77111 0.0
C562 C 0.50732 0.33356 0.72655 0.0
C563 C 0.51253 0.23738 0.69258 0.0
C564 C 0.51497 0.1795 0.70336 0.0
C565 C 0.50981 0.27588 0.73708 0.0
C566 C 0.51463 0.16078 0.75942 0.0
C567 C 0.51204 0.19882 0.80381 0.0
H568 H 0.51666 0.8809 0.75451 0.0
H569 H 0.48222 0.76475 0.61958 0.0
H570 H 0.48297 0.68726 0.68592 0.0
H571 H 0.49475 0.65198 0.7817 0.0
H572 H 0.52959 0.76794 0.91671 0.0
H573 H 0.52713 0.8457 0.85065 0.0
C574 C 0.50894 0.83874 0.73954 0.0
C575 C 0.49949 0.82891 0.682 0.0
C576 C 0.50967 0.7941 0.77787 0.0
C577 C 0.48987 0.77378 0.66353 0.0
C578 C 0.49026 0.72927 0.70146 0.0
C579 C 0.50194 0.69418 0.79683 0.0
C580 C 0.51248 0.70382 0.8542 0.0
C581 C 0.50048 0.73889 0.75865 0.0
C582 C 0.52131 0.75902 0.87284 0.0
C583 C 0.51995 0.80368 0.83507 0.0
H584 H 0.5176 0.7498 0.15257 0.0
H585 H 0.5319 0.61355 0.27107 0.0
H586 H 0.52889 0.67983 0.34892 0.0
H587 H 0.52177 0.7764 0.38361 0.0
H588 H 0.5076 0.91219 0.26453 0.0
H589 H 0.51099 0.84588 0.18699 0.0
C590 C 0.52031 0.73437 0.19534 0.0
C591 C 0.52501 0.67655 0.20563 0.0
C592 C 0.51841 0.77266 0.24005 0.0
C593 C 0.52823 0.65772 0.26159 0.0
C594 C 0.52647 0.69563 0.3063 0.0
C595 C 0.5192 0.7916 0.34075 0.0
C596 C 0.51437 0.84939 0.33022 0.0
C597 C 0.52136 0.7532 0.29604 0.0
C598 C 0.51147 0.86808 0.2742 0.0
C599 C 0.51339 0.83015 0.22964 0.0
H600 H 0.51762 0.14783 0.27811 0.0
H601 H 0.54082 0.26495 0.41459 0.0
H602 H 0.53976 0.34251 0.34839 0.0
H603 H 0.53111 0.37772 0.25212 0.0
H604 H 0.50781 0.26083 0.11548 0.0
H605 H 0.51014 0.18305 0.18152 0.0
C606 C 0.52276 0.19023 0.29349 0.0
C607 C 0.52923 0.20017 0.35148 0.0
C608 C 0.52193 0.235 0.25516 0.0
C609 C 0.5356 0.25567 0.37033 0.0
C610 C 0.53499 0.30028 0.33246 0.0
C611 C 0.52649 0.33531 0.23659 0.0
C612 C 0.5192 0.32553 0.17869 0.0
C613 C 0.5279 0.2905 0.27481 0.0
C614 C 0.51349 0.27 0.1597 0.0
C615 C 0.51481 0.22528 0.19749 0.0
loop_
_geom_bond_atom_site_label_1
_geom_bond_atom_site_label_2
_geom_bond_distance
_geom_bond_site_symmetry_2
_ccdc_geom_bond_type
H0 O1 0.850 . S
O1 H0 0.850 . S
O1 Tb2 2.341 1_566 S
O1 Tb3 2.341 1_656 S
O1 Tb4 2.341 1_665 S
Tb2 O1 2.341 1_544 S
Tb2 O5 2.341 1_545 S
Tb2 O6 2.341 1_554 S
Tb2 O7 2.341 . S
Tb2 O22 2.344 1_545 S
Tb2 O25 2.344 . S
Tb2 O38 2.344 . S
Tb2 O41 2.344 1_554 S
Tb3 O1 2.341 1_454 S
Tb3 O5 2.341 1_455 S
Tb3 O8 2.341 . S
Tb3 O10 2.341 1_554 S
Tb3 O26 2.344 1_554 S
Tb3 O29 2.344 . S
Tb3 O34 2.344 1_455 S
Tb3 O37 2.344 . S
Tb4 O1 2.341 1_445 S
Tb4 O6 2.341 1_455 S
Tb4 O9 2.341 . S
Tb4 O10 2.341 1_545 S
Tb4 O30 2.344 1_455 S
Tb4 O33 2.344 . S
Tb4 O43 2.344 . S
Tb4 O44 2.344 1_545 S
O5 Tb2 2.341 1_565 S
O5 Tb3 2.341 1_655 S
O5 H11 0.850 . S
O5 Tb13 2.341 1_665 S
O6 Tb2 2.341 1_556 S
O6 Tb4 2.341 1_655 S
O6 H12 0.850 . S
O6 Tb14 2.341 1_656 S
O7 Tb2 2.341 . S
O7 Tb13 2.341 1_655 S
O7 Tb14 2.341 1_655 S
O7 H15 0.850 . S
O8 Tb3 2.341 . S
O8 Tb13 2.341 1_565 S
O8 H16 0.850 . S
O8 Tb17 2.341 1_565 S
O9 Tb4 2.341 . S
O9 Tb14 2.341 1_556 S
O9 Tb17 2.341 1_556 S
O9 H18 0.850 . S
O10 Tb3 2.341 1_556 S
O10 Tb4 2.341 1_565 S
O10 Tb17 2.341 1_566 S
O10 H19 0.850 . S
H11 O5 0.850 . S
H12 O6 0.850 . S
Tb13 O5 2.341 1_445 S
Tb13 O7 2.341 1_455 S
Tb13 O8 2.341 1_545 S
Tb13 O20 2.341 . S
Tb13 O31 2.344 . S
Tb13 O32 2.344 1_455 S
Tb13 O42 2.344 1_545 S
Tb13 O45 2.344 . S
Tb14 O6 2.341 1_454 S
Tb14 O7 2.341 1_455 S
Tb14 O9 2.341 1_554 S
Tb14 O20 2.341 . S
Tb14 O27 2.344 . S
Tb14 O28 2.344 1_554 S
Tb14 O35 2.344 . S
Tb14 O36 2.344 1_455 S
H15 O7 0.850 . S
H16 O8 0.850 . S
Tb17 O8 2.341 1_545 S
Tb17 O9 2.341 1_554 S
Tb17 O10 2.341 1_544 S
Tb17 O20 2.341 . S
Tb17 O23 2.344 . S
Tb17 O24 2.344 1_545 S
Tb17 O39 2.344 1_554 S
Tb17 O40 2.344 . S
H18 O9 0.850 . S
H19 O10 0.850 . S
O20 Tb13 2.341 . S
O20 Tb14 2.341 . S
O20 Tb17 2.341 . S
O20 H21 0.850 . S
H21 O20 0.850 . S
O22 Tb2 2.344 1_565 S
O22 C46 1.272 . S
O23 Tb17 2.344 . S
O23 C47 1.272 . S
O24 Tb17 2.344 1_565 S
O24 C48 1.272 . S
O25 Tb2 2.344 . S
O25 C49 1.272 . S
O26 Tb3 2.344 1_556 S
O26 C50 1.272 . S
O27 Tb14 2.344 . S
O27 C51 1.272 . S
O28 Tb14 2.344 1_556 S
O28 C52 1.272 . S
O29 Tb3 2.344 . S
O29 C53 1.272 . S
O30 Tb4 2.344 1_655 S
O30 C54 1.272 . S
O31 Tb13 2.344 . S
O31 C55 1.272 . S
O32 Tb13 2.344 1_655 S
O32 C56 1.272 . S
O33 Tb4 2.344 . S
O33 C57 1.272 . S
O34 Tb3 2.344 1_655 S
O34 C46 1.272 . S
O35 Tb14 2.344 . S
O35 C47 1.272 . S
O36 Tb14 2.344 1_655 S
O36 C49 1.272 . S
O37 Tb3 2.344 . S
O37 C48 1.272 . S
O38 Tb2 2.344 . S
O38 C56 1.272 . S
O39 Tb17 2.344 1_556 S
O39 C57 1.272 . S
O40 Tb17 2.344 . S
O40 C55 1.272 . S
O41 Tb2 2.344 1_556 S
O41 C54 1.272 . S
O42 Tb13 2.344 1_565 S
O42 C53 1.272 . S
O43 Tb4 2.344 . S
O43 C52 1.272 . S
O44 Tb4 2.344 1_565 S
O44 C50 1.272 . S
O45 Tb13 2.344 . S
O45 C51 1.272 . S
C46 O22 1.272 . S
C46 O34 1.272 . S
C47 O23 1.272 . S
C47 O35 1.272 . S
C48 O24 1.272 . S
C48 O37 1.272 . S
C49 O25 1.272 . S
C49 O36 1.272 . S
C50 O26 1.272 . S
C50 O44 1.272 . S
C51 O27 1.272 . S
C51 O45 1.272 . S
C52 O28 1.272 . S
C52 O43 1.272 . S
C53 O29 1.272 . S
C53 O42 1.272 . S
C54 O30 1.272 . S
C54 O41 1.272 . S
C55 O31 1.272 . S
C55 O40 1.272 . S
C56 O32 1.272 . S
C56 O38 1.272 . S
C57 O33 1.272 . S
C57 O39 1.272 . S
H58 O59 0.850 . S
O59 H58 0.850 . S
O59 Tb60 2.341 . S
O59 Tb61 2.341 1_655 S
O59 Tb62 2.341 1_655 S
Tb60 O59 2.341 . S
Tb60 O63 2.341 . S
Tb60 O64 2.341 . S
Tb60 O65 2.341 . S
Tb60 O80 2.344 . S
Tb60 O83 2.344 . S
Tb60 O96 2.344 . S
Tb60 O99 2.344 . S
Tb61 O59 2.341 1_455 S
Tb61 O63 2.341 1_455 S
Tb61 O66 2.341 . S
Tb61 O68 2.341 . S
Tb61 O84 2.344 . S
Tb61 O87 2.344 . S
Tb61 O92 2.344 1_455 S
Tb61 O95 2.344 . S
Tb62 O59 2.341 1_455 S
Tb62 O64 2.341 1_455 S
Tb62 O67 2.341 . S
Tb62 O68 2.341 . S
Tb62 O88 2.344 1_455 S
Tb62 O91 2.344 . S
Tb62 O101 2.344 . S
Tb62 O102 2.344 . S
O63 Tb60 2.341 . S
O63 Tb61 2.341 1_655 S
O63 H69 0.850 . S
O63 Tb71 2.341 1_655 S
O64 Tb60 2.341 . S
O64 Tb62 2.341 1_655 S
O64 H70 0.850 . S
O64 Tb72 2.341 1_655 S
O65 Tb60 2.341 . S
O65 Tb71 2.341 1_655 S
O65 Tb72 2.341 1_655 S
O65 H73 0.850 . S
O66 Tb61 2.341 . S
O66 Tb71 2.341 . S
O66 H74 0.850 . S
O66 Tb75 2.341 . S
O67 Tb62 2.341 . S
O67 Tb72 2.341 . S
O67 Tb75 2.341 . S
O67 H76 0.850 . S
O68 Tb61 2.341 . S
O68 Tb62 2.341 . S
O68 Tb75 2.341 . S
O68 H77 0.850 . S
H69 O63 0.850 . S
H70 O64 0.850 . S
Tb71 O63 2.341 1_455 S
Tb71 O65 2.341 1_455 S
Tb71 O66 2.341 . S
Tb71 O78 2.341 . S
Tb71 O89 2.344 . S
Tb71 O90 2.344 1_455 S
Tb71 O100 2.344 . S
Tb71 O103 2.344 . S
Tb72 O64 2.341 1_455 S
Tb72 O65 2.341 1_455 S
Tb72 O67 2.341 . S
Tb72 O78 2.341 . S
Tb72 O85 2.344 . S
Tb72 O86 2.344 . S
Tb72 O93 2.344 . S
Tb72 O94 2.344 1_455 S
H73 O65 0.850 . S
H74 O66 0.850 . S
Tb75 O66 2.341 . S
Tb75 O67 2.341 . S
Tb75 O68 2.341 . S
Tb75 O78 2.341 . S
Tb75 O81 2.344 . S
Tb75 O82 2.344 . S
Tb75 O97 2.344 . S
Tb75 O98 2.344 . S
H76 O67 0.850 . S
H77 O68 0.850 . S
O78 Tb71 2.341 . S
O78 Tb72 2.341 . S
O78 Tb75 2.341 . S
O78 H79 0.850 . S
H79 O78 0.850 . S
O80 Tb60 2.344 . S
O80 C104 1.272 . S
O81 Tb75 2.344 . S
O81 C105 1.272 . S
O82 Tb75 2.344 . S
O82 C106 1.272 . S
O83 Tb60 2.344 . S
O83 C107 1.272 . S
O84 Tb61 2.344 . S
O84 C108 1.272 . S
O85 Tb72 2.344 . S
O85 C109 1.272 . S
O86 Tb72 2.344 . S
O86 C110 1.272 . S
O87 Tb61 2.344 . S
O87 C111 1.272 . S
O88 Tb62 2.344 1_655 S
O88 C112 1.272 . S
O89 Tb71 2.344 . S
O89 C113 1.272 . S
O90 Tb71 2.344 1_655 S
O90 C114 1.272 . S
O91 Tb62 2.344 . S
O91 C115 1.272 . S
O92 Tb61 2.344 1_655 S
O92 C104 1.272 . S
O93 Tb72 2.344 . S
O93 C105 1.272 . S
O94 Tb72 2.344 1_655 S
O94 C107 1.272 . S
O95 Tb61 2.344 . S
O95 C106 1.272 . S
O96 Tb60 2.344 . S
O96 C114 1.272 . S
O97 Tb75 2.344 . S
O97 C115 1.272 . S
O98 Tb75 2.344 . S
O98 C113 1.272 . S
O99 Tb60 2.344 . S
O99 C112 1.272 . S
O100 Tb71 2.344 . S
O100 C111 1.272 . S
O101 Tb62 2.344 . S
O101 C110 1.272 . S
O102 Tb62 2.344 . S
O102 C108 1.272 . S
O103 Tb71 2.344 . S
O103 C109 1.272 . S
C104 O80 1.272 . S
C104 O92 1.272 . S
C105 O81 1.272 . S
C105 O93 1.272 . S
C106 O82 1.272 . S
C106 O95 1.272 . S
C107 O83 1.272 . S
C107 O94 1.272 . S
C108 O84 1.272 . S
C108 O102 1.272 . S
C109 O85 1.272 . S
C109 O103 1.272 . S
C110 O86 1.272 . S
C110 O101 1.272 . S
C111 O87 1.272 . S
C111 O100 1.272 . S
C112 O88 1.272 . S
C112 O99 1.272 . S
C113 O89 1.272 . S
C113 O98 1.272 . S
C114 O90 1.272 . S
C114 O96 1.272 . S
C115 O91 1.272 . S
C115 O97 1.272 . S
H116 O117 0.850 . S
O117 H116 0.850 . S
O117 Tb118 2.341 1_565 S
O117 Tb119 2.341 . S
O117 Tb120 2.341 1_565 S
Tb118 O117 2.341 1_545 S
Tb118 O121 2.341 1_545 S
Tb118 O122 2.341 . S
Tb118 O123 2.341 . S
Tb118 O138 2.344 1_545 S
Tb118 O141 2.344 . S
Tb118 O154 2.344 . S
Tb118 O157 2.344 . S
Tb119 O117 2.341 . S
Tb119 O121 2.341 . S
Tb119 O124 2.341 . S
Tb119 O126 2.341 . S
Tb119 O142 2.344 . S
Tb119 O145 2.344 . S
Tb119 O150 2.344 . S
Tb119 O153 2.344 . S
Tb120 O117 2.341 1_545 S
Tb120 O122 2.341 . S
Tb120 O125 2.341 . S
Tb120 O126 2.341 1_545 S
Tb120 O146 2.344 . S
Tb120 O149 2.344 . S
Tb120 O159 2.344 . S
Tb120 O160 2.344 1_545 S
O121 Tb118 2.341 1_565 S
O121 Tb119 2.341 . S
O121 H127 0.850 . S
O121 Tb129 2.341 1_565 S
O122 Tb118 2.341 . S
O122 Tb120 2.341 . S
O122 H128 0.850 . S
O122 Tb130 2.341 . S
O123 Tb118 2.341 . S
O123 Tb129 2.341 . S
O123 Tb130 2.341 . S
O123 H131 0.850 . S
O124 Tb119 2.341 . S
O124 Tb129 2.341 1_565 S
O124 H132 0.850 . S
O124 Tb133 2.341 1_565 S
O125 Tb120 2.341 . S
O125 Tb130 2.341 . S
O125 Tb133 2.341 . S
O125 H134 0.850 . S
O126 Tb119 2.341 . S
O126 Tb120 2.341 1_565 S
O126 Tb133 2.341 1_565 S
O126 H135 0.850 . S
H127 O121 0.850 . S
H128 O122 0.850 . S
Tb129 O121 2.341 1_545 S
Tb129 O123 2.341 . S
Tb129 O124 2.341 1_545 S
Tb129 O136 2.341 . S
Tb129 O147 2.344 . S
Tb129 O148 2.344 . S
Tb129 O158 2.344 1_545 S
Tb129 O161 2.344 . S
Tb130 O122 2.341 . S
Tb130 O123 2.341 . S
Tb130 O125 2.341 . S
Tb130 O136 2.341 . S
Tb130 O143 2.344 . S
Tb130 O144 2.344 . S
Tb130 O151 2.344 . S
Tb130 O152 2.344 . S
H131 O123 0.850 . S
H132 O124 0.850 . S
Tb133 O124 2.341 1_545 S
Tb133 O125 2.341 . S
Tb133 O126 2.341 1_545 S
Tb133 O136 2.341 . S
Tb133 O139 2.344 . S
Tb133 O140 2.344 1_545 S
Tb133 O155 2.344 . S
Tb133 O156 2.344 . S
H134 O125 0.850 . S
H135 O126 0.850 . S
O136 Tb129 2.341 . S
O136 Tb130 2.341 . S
O136 Tb133 2.341 . S
O136 H137 0.850 . S
H137 O136 0.850 . S
O138 Tb118 2.344 1_565 S
O138 C162 1.272 . S
O139 Tb133 2.344 . S
O139 C163 1.272 . S
O140 Tb133 2.344 1_565 S
O140 C164 1.272 . S
O141 Tb118 2.344 . S
O141 C165 1.272 . S
O142 Tb119 2.344 . S
O142 C166 1.272 . S
O143 Tb130 2.344 . S
O143 C167 1.272 . S
O144 Tb130 2.344 . S
O144 C168 1.272 . S
O145 Tb119 2.344 . S
O145 C169 1.272 . S
O146 Tb120 2.344 . S
O146 C170 1.272 . S
O147 Tb129 2.344 . S
O147 C171 1.272 . S
O148 Tb129 2.344 . S
O148 C172 1.272 . S
O149 Tb120 2.344 . S
O149 C173 1.272 . S
O150 Tb119 2.344 . S
O150 C162 1.272 . S
O151 Tb130 2.344 . S
O151 C163 1.272 . S
O152 Tb130 2.344 . S
O152 C165 1.272 . S
O153 Tb119 2.344 . S
O153 C164 1.272 . S
O154 Tb118 2.344 . S
O154 C172 1.272 . S
O155 Tb133 2.344 . S
O155 C173 1.272 . S
O156 Tb133 2.344 . S
O156 C171 1.272 . S
O157 Tb118 2.344 . S
O157 C170 1.272 . S
O158 Tb129 2.344 1_565 S
O158 C169 1.272 . S
O159 Tb120 2.344 . S
O159 C168 1.272 . S
O160 Tb120 2.344 1_565 S
O160 C166 1.272 . S
O161 Tb129 2.344 . S
O161 C167 1.272 . S
C162 O138 1.272 . S
C162 O150 1.272 . S
C163 O139 1.272 . S
C163 O151 1.272 . S
C164 O140 1.272 . S
C164 O153 1.272 . S
C165 O141 1.272 . S
C165 O152 1.272 . S
C166 O142 1.272 . S
C166 O160 1.272 . S
C167 O143 1.272 . S
C167 O161 1.272 . S
C168 O144 1.272 . S
C168 O159 1.272 . S
C169 O145 1.272 . S
C169 O158 1.272 . S
C170 O146 1.272 . S
C170 O157 1.272 . S
C171 O147 1.272 . S
C171 O156 1.272 . S
C172 O148 1.272 . S
C172 O154 1.272 . S
C173 O149 1.272 . S
C173 O155 1.272 . S
H174 O175 0.850 . S
O175 H174 0.850 . S
O175 Tb176 2.341 1_556 S
O175 Tb177 2.341 1_556 S
O175 Tb178 2.341 . S
Tb176 O175 2.341 1_554 S
Tb176 O179 2.341 . S
Tb176 O180 2.341 1_554 S
Tb176 O181 2.341 . S
Tb176 O196 2.344 . S
Tb176 O199 2.344 . S
Tb176 O212 2.344 . S
Tb176 O215 2.344 1_554 S
Tb177 O175 2.341 1_554 S
Tb177 O179 2.341 . S
Tb177 O182 2.341 . S
Tb177 O184 2.341 1_554 S
Tb177 O200 2.344 1_554 S
Tb177 O203 2.344 . S
Tb177 O208 2.344 . S
Tb177 O211 2.344 . S
Tb178 O175 2.341 . S
Tb178 O180 2.341 . S
Tb178 O183 2.341 . S
Tb178 O184 2.341 . S
Tb178 O204 2.344 . S
Tb178 O207 2.344 . S
Tb178 O217 2.344 . S
Tb178 O218 2.344 . S
O179 Tb176 2.341 . S
O179 Tb177 2.341 . S
O179 H185 0.850 . S
O179 Tb187 2.341 . S
O180 Tb176 2.341 1_556 S
O180 Tb178 2.341 . S
O180 H186 0.850 . S
O180 Tb188 2.341 1_556 S
O181 Tb176 2.341 . S
O181 Tb187 2.341 . S
O181 Tb188 2.341 . S
O181 H189 0.850 . S
O182 Tb177 2.341 . S
O182 Tb187 2.341 . S
O182 H190 0.850 . S
O182 Tb191 2.341 . S
O183 Tb178 2.341 . S
O183 Tb188 2.341 1_556 S
O183 Tb191 2.341 1_556 S
O183 H192 0.850 . S
O184 Tb177 2.341 1_556 S
O184 Tb178 2.341 . S
O184 Tb191 2.341 1_556 S
O184 H193 0.850 . S
H185 O179 0.850 . S
H186 O180 0.850 . S
Tb187 O179 2.341 . S
Tb187 O181 2.341 . S
Tb187 O182 2.341 . S
Tb187 O194 2.341 . S
Tb187 O205 2.344 . S
Tb187 O206 2.344 . S
Tb187 O216 2.344 . S
Tb187 O219 2.344 . S
Tb188 O180 2.341 1_554 S
Tb188 O181 2.341 . S
Tb188 O183 2.341 1_554 S
Tb188 O194 2.341 . S
Tb188 O201 2.344 . S
Tb188 O202 2.344 1_554 S
Tb188 O209 2.344 . S
Tb188 O210 2.344 . S
H189 O181 0.850 . S
H190 O182 0.850 . S
Tb191 O182 2.341 . S
Tb191 O183 2.341 1_554 S
Tb191 O184 2.341 1_554 S
Tb191 O194 2.341 . S
Tb191 O197 2.344 . S
Tb191 O198 2.344 . S
Tb191 O213 2.344 1_554 S
Tb191 O214 2.344 . S
H192 O183 0.850 . S
H193 O184 0.850 . S
O194 Tb187 2.341 . S
O194 Tb188 2.341 . S
O194 Tb191 2.341 . S
O194 H195 0.850 . S
H195 O194 0.850 . S
O196 Tb176 2.344 . S
O196 C220 1.272 . S
O197 Tb191 2.344 . S
O197 C221 1.272 . S
O198 Tb191 2.344 . S
O198 C222 1.272 . S
O199 Tb176 2.344 . S
O199 C223 1.272 . S
O200 Tb177 2.344 1_556 S
O200 C224 1.272 . S
O201 Tb188 2.344 . S
O201 C225 1.272 . S
O202 Tb188 2.344 1_556 S
O202 C226 1.272 . S
O203 Tb177 2.344 . S
O203 C227 1.272 . S
O204 Tb178 2.344 . S
O204 C228 1.272 . S
O205 Tb187 2.344 . S
O205 C229 1.272 . S
O206 Tb187 2.344 . S
O206 C230 1.272 . S
O207 Tb178 2.344 . S
O207 C231 1.272 . S
O208 Tb177 2.344 . S
O208 C220 1.272 . S
O209 Tb188 2.344 . S
O209 C221 1.272 . S
O210 Tb188 2.344 . S
O210 C223 1.272 . S
O211 Tb177 2.344 . S
O211 C222 1.272 . S
O212 Tb176 2.344 . S
O212 C230 1.272 . S
O213 Tb191 2.344 1_556 S
O213 C231 1.272 . S
O214 Tb191 2.344 . S
O214 C229 1.272 . S
O215 Tb176 2.344 1_556 S
O215 C228 1.272 . S
O216 Tb187 2.344 . S
O216 C227 1.272 . S
O217 Tb178 2.344 . S
O217 C226 1.272 . S
O218 Tb178 2.344 . S
O218 C224 1.272 . S
O219 Tb187 2.344 . S
O219 C225 1.272 . S
C220 O196 1.272 . S
C220 O208 1.272 . S
C221 O197 1.272 . S
C221 O209 1.272 . S
C222 O198 1.272 . S
C222 O211 1.272 . S
C223 O199 1.272 . S
C223 O210 1.272 . S
C224 O200 1.272 . S
C224 O218 1.272 . S
C225 O201 1.272 . S
C225 O219 1.272 . S
C226 O202 1.272 . S
C226 O217 1.272 . S
C227 O203 1.272 . S
C227 O216 1.272 . S
C228 O204 1.272 . S
C228 O215 1.272 . S
C229 O205 1.272 . S
C229 O214 1.272 . S
C230 O206 1.272 . S
C230 O212 1.272 . S
C231 O207 1.272 . S
C231 O213 1.272 . S
H232 C238 0.930 . S
H233 C241 0.930 . S
H234 C242 0.930 . S
H235 C243 0.930 . S
H236 C246 0.930 . S
H237 C247 0.930 . S
C238 H232 0.930 . S
C238 C239 1.348 1_455 S
C238 C240 1.415 . S
C239 C238 1.348 1_655 S
C239 C241 1.427 . S
C240 C238 1.415 . S
C240 C245 1.425 1_455 S
C240 C247 1.409 . S
C241 H233 0.930 . S
C241 C239 1.427 . S
C241 C242 1.362 . S
C242 H234 0.930 . S
C242 C241 1.362 . S
C242 C245 1.409 . S
C243 H235 0.930 . S
C243 C244 1.355 1_655 S
C243 C245 1.415 . S
C244 C243 1.355 1_455 S
C244 C246 1.419 . S
C245 C240 1.425 1_655 S
C245 C242 1.409 . S
C245 C243 1.415 . S
C246 H236 0.930 . S
C246 C244 1.419 . S
C246 C247 1.362 . S
C247 H237 0.930 . S
C247 C240 1.409 . S
C247 C246 1.362 . S
H248 C254 0.930 . S
H249 C257 0.930 . S
H250 C258 0.930 . S
H251 C259 0.930 . S
H252 C262 0.930 . S
H253 C263 0.930 . S
C254 H248 0.930 . S
C254 C255 1.355 1_545 S
C254 C256 1.415 . S
C255 C254 1.355 1_565 S
C255 C257 1.419 . S
C256 C254 1.415 . S
C256 C261 1.425 1_545 S
C256 C263 1.409 . S
C257 H249 0.930 . S
C257 C255 1.419 . S
C257 C258 1.362 . S
C258 H250 0.930 . S
C258 C257 1.362 . S
C258 C261 1.409 . S
C259 H251 0.930 . S
C259 C260 1.355 1_565 S
C259 C261 1.415 . S
C260 C259 1.355 1_545 S
C260 C262 1.419 . S
C261 C256 1.425 1_565 S
C261 C258 1.409 . S
C261 C259 1.415 . S
C262 H252 0.930 . S
C262 C260 1.419 . S
C262 C263 1.362 . S
C263 H253 0.930 . S
C263 C256 1.409 . S
C263 C262 1.362 . S
H264 C270 0.930 . S
H265 C273 0.930 . S
H266 C274 0.930 . S
H267 C275 0.930 . S
H268 C278 0.930 . S
H269 C279 0.930 . S
C270 H264 0.930 . S
C270 C271 1.355 1_655 S
C270 C272 1.415 . S
C271 C270 1.355 1_455 S
C271 C273 1.419 . S
C272 C270 1.415 . S
C272 C277 1.425 1_655 S
C272 C279 1.409 . S
C273 H265 0.930 . S
C273 C271 1.419 . S
C273 C274 1.362 . S
C274 H266 0.930 . S
C274 C273 1.362 . S
C274 C277 1.409 . S
C275 H267 0.930 . S
C275 C276 1.355 1_455 S
C275 C277 1.415 . S
C276 C275 1.355 1_655 S
C276 C278 1.419 . S
C277 C272 1.425 1_455 S
C277 C274 1.409 . S
C277 C275 1.415 . S
C278 H268 0.930 . S
C278 C276 1.419 . S
C278 C279 1.362 . S
C279 H269 0.930 . S
C279 C272 1.409 . S
C279 C278 1.362 . S
H280 C286 0.930 . S
H281 C289 0.930 . S
H282 C290 0.930 . S
H283 C291 0.930 . S
H284 C294 0.930 . S
H285 C295 0.930 . S
C286 H280 0.930 . S
C286 C287 1.355 1_565 S
C286 C288 1.415 . S
C287 C286 1.355 1_545 S
C287 C289 1.419 . S
C288 C286 1.415 . S
C288 C293 1.425 1_565 S
C288 C295 1.409 . S
C289 H281 0.930 . S
C289 C287 1.419 . S
C289 C290 1.362 . S
C290 H282 0.930 . S
C290 C289 1.362 . S
C290 C293 1.409 . S
C291 H283 0.930 . S
C291 C292 1.355 1_545 S
C291 C293 1.415 . S
C292 C291 1.355 1_565 S
C292 C294 1.419 . S
C293 C288 1.425 1_545 S
C293 C290 1.409 . S
C293 C291 1.415 . S
C294 H284 0.930 . S
C294 C292 1.419 . S
C294 C295 1.362 . S
C295 H285 0.930 . S
C295 C288 1.409 . S
C295 C294 1.362 . S
H296 C302 0.930 . S
H297 C305 0.930 . S
H298 C306 0.930 . S
H299 C307 0.930 . S
H300 C310 0.930 . S
H301 C311 0.930 . S
C302 H296 0.930 . S
C302 C303 1.355 1_655 S
C302 C304 1.415 . S
C303 C302 1.355 1_455 S
C303 C305 1.419 . S
C304 C302 1.415 . S
C304 C309 1.425 1_655 S
C304 C311 1.409 . S
C305 H297 0.930 . S
C305 C303 1.419 . S
C305 C306 1.362 . S
C306 H298 0.930 . S
C306 C305 1.362 . S
C306 C309 1.409 . S
C307 H299 0.930 . S
C307 C308 1.355 1_455 S
C307 C309 1.415 . S
C308 C307 1.355 1_655 S
C308 C310 1.419 . S
C309 C304 1.425 1_455 S
C309 C306 1.409 . S
C309 C307 1.415 . S
C310 H300 0.930 . S
C310 C308 1.419 . S
C310 C311 1.362 . S
C311 H301 0.930 . S
C311 C304 1.409 . S
C311 C310 1.362 . S
H312 C318 0.930 . S
H313 C321 0.930 . S
H314 C322 0.930 . S
H315 C323 0.930 . S
H316 C326 0.930 . S
H317 C327 0.930 . S
C318 H312 0.930 . S
C318 C319 1.353 1_545 S
C318 C320 1.415 . S
C319 C318 1.353 1_565 S
C319 C321 1.421 . S
C320 C318 1.415 . S
C320 C325 1.425 1_545 S
C320 C327 1.409 . S
C321 H313 0.930 . S
C321 C319 1.421 . S
C321 C322 1.362 . S
C322 H314 0.930 . S
C322 C321 1.362 . S
C322 C325 1.409 . S
C323 H315 0.930 . S
C323 C324 1.352 1_565 S
C323 C325 1.415 . S
C324 C323 1.352 1_545 S
C324 C326 1.423 . S
C325 C320 1.425 1_565 S
C325 C322 1.409 . S
C325 C323 1.415 . S
C326 H316 0.930 . S
C326 C324 1.423 . S
C326 C327 1.362 . S
C327 H317 0.930 . S
C327 C320 1.409 . S
C327 C326 1.362 . S
H328 C334 0.930 . S
H329 C337 0.930 . S
H330 C338 0.930 . S
H331 C339 0.930 . S
H332 C342 0.930 . S
H333 C343 0.930 . S
C334 H328 0.930 . S
C334 C335 1.354 1_455 S
C334 C336 1.415 . S
C335 C334 1.354 1_655 S
C335 C337 1.420 . S
C336 C334 1.415 . S
C336 C341 1.425 1_455 S
C336 C343 1.409 . S
C337 H329 0.930 . S
C337 C335 1.420 . S
C337 C338 1.362 . S
C338 H330 0.930 . S
C338 C337 1.362 . S
C338 C341 1.409 . S
C339 H331 0.930 . S
C339 C340 1.352 1_655 S
C339 C341 1.415 . S
C340 C339 1.352 1_455 S
C340 C342 1.422 . S
C341 C336 1.425 1_655 S
C341 C338 1.409 . S
C341 C339 1.415 . S
C342 H332 0.930 . S
C342 C340 1.422 . S
C342 C343 1.362 . S
C343 H333 0.930 . S
C343 C336 1.409 . S
C343 C342 1.362 . S
H344 C350 0.930 . S
H345 C353 0.930 . S
H346 C354 0.930 . S
H347 C355 0.930 . S
H348 C358 0.930 . S
H349 C359 0.930 . S
C350 H344 0.930 . S
C350 C351 1.355 1_565 S
C350 C352 1.415 . S
C351 C350 1.355 1_545 S
C351 C353 1.419 . S
C352 C350 1.415 . S
C352 C357 1.425 1_565 S
C352 C359 1.409 . S
C353 H345 0.930 . S
C353 C351 1.419 . S
C353 C354 1.362 . S
C354 H346 0.930 . S
C354 C353 1.362 . S
C354 C357 1.409 . S
C355 H347 0.930 . S
C355 C356 1.355 1_545 S
C355 C357 1.415 . S
C356 C355 1.355 1_565 S
C356 C358 1.419 . S
C357 C352 1.425 1_545 S
C357 C354 1.409 . S
C357 C355 1.415 . S
C358 H348 0.930 . S
C358 C356 1.419 . S
C358 C359 1.362 . S
C359 H349 0.930 . S
C359 C352 1.409 . S
C359 C358 1.362 . S
H360 C366 0.930 . S
H361 C369 0.930 . S
H362 C370 0.930 . S
H363 C371 0.930 . S
H364 C374 0.930 . S
H365 C375 0.930 . S
C366 H360 0.930 . S
C366 C367 1.355 1_556 S
C366 C368 1.415 . S
C367 C366 1.355 1_554 S
C367 C369 1.419 . S
C368 C366 1.415 . S
C368 C373 1.425 1_556 S
C368 C375 1.409 . S
C369 H361 0.930 . S
C369 C367 1.419 . S
C369 C370 1.362 . S
C370 H362 0.930 . S
C370 C369 1.362 . S
C370 C373 1.409 . S
C371 H363 0.930 . S
C371 C372 1.348 1_554 S
C371 C373 1.415 . S
C372 C371 1.348 1_556 S
C372 C374 1.428 . S
C373 C368 1.425 1_554 S
C373 C370 1.409 . S
C373 C371 1.415 . S
C374 H364 0.930 . S
C374 C372 1.428 . S
C374 C375 1.362 . S
C375 H365 0.930 . S
C375 C368 1.409 . S
C375 C374 1.362 . S
H376 C382 0.930 . S
H377 C385 0.930 . S
H378 C386 0.930 . S
H379 C387 0.930 . S
H380 C390 0.930 . S
H381 C391 0.930 . S
C382 H376 0.930 . S
C382 C383 1.355 1_556 S
C382 C384 1.415 . S
C383 C382 1.355 1_554 S
C383 C385 1.419 . S
C384 C382 1.415 . S
C384 C389 1.425 1_556 S
C384 C391 1.409 . S
C385 H377 0.930 . S
C385 C383 1.419 . S
C385 C386 1.362 . S
C386 H378 0.930 . S
C386 C385 1.362 . S
C386 C389 1.409 . S
C387 H379 0.930 . S
C387 C388 1.355 1_554 S
C387 C389 1.415 . S
C388 C387 1.355 1_556 S
C388 C390 1.419 . S
C389 C384 1.425 1_554 S
C389 C386 1.409 . S
C389 C387 1.415 . S
C390 H380 0.930 . S
C390 C388 1.419 . S
C390 C391 1.362 . S
C391 H381 0.930 . S
C391 C384 1.409 . S
C391 C390 1.362 . S
H392 C398 0.930 . S
H393 C401 0.930 . S
H394 C402 0.930 . S
H395 C403 0.930 . S
H396 C406 0.930 . S
H397 C407 0.930 . S
C398 H392 0.930 . S
C398 C399 1.355 1_556 S
C398 C400 1.415 . S
C399 C398 1.355 1_554 S
C399 C401 1.419 . S
C400 C398 1.415 . S
C400 C405 1.425 1_556 S
C400 C407 1.409 . S
C401 H393 0.930 . S
C401 C399 1.419 . S
C401 C402 1.362 . S
C402 H394 0.930 . S
C402 C401 1.362 . S
C402 C405 1.409 . S
C403 H395 0.930 . S
C403 C404 1.355 1_554 S
C403 C405 1.415 . S
C404 C403 1.355 1_556 S
C404 C406 1.419 . S
C405 C400 1.425 1_554 S
C405 C402 1.409 . S
C405 C403 1.415 . S
C406 H396 0.930 . S
C406 C404 1.419 . S
C406 C407 1.362 . S
C407 H397 0.930 . S
C407 C400 1.409 . S
C407 C406 1.362 . S
H408 C414 0.930 . S
H409 C417 0.930 . S
H410 C418 0.930 . S
H411 C419 0.930 . S
H412 C422 0.930 . S
H413 C423 0.930 . S
C414 H408 0.930 . S
C414 C415 1.355 . S
C414 C416 1.414 1_556 S
C415 C414 1.355 . S
C415 C417 1.419 . S
C416 C414 1.414 1_554 S
C416 C421 1.425 1_554 S
C416 C423 1.410 . S
C417 H409 0.930 . S
C417 C415 1.419 . S
C417 C418 1.362 . S
C418 H410 0.930 . S
C418 C417 1.362 . S
C418 C421 1.409 . S
C419 H411 0.930 . S
C419 C420 1.355 . S
C419 C421 1.415 1_554 S
C420 C419 1.355 . S
C420 C422 1.419 . S
C421 C416 1.425 1_556 S
C421 C418 1.409 . S
C421 C419 1.415 1_556 S
C422 H412 0.930 . S
C422 C420 1.419 . S
C422 C423 1.362 . S
C423 H413 0.930 . S
C423 C416 1.410 . S
C423 C422 1.362 . S
H424 C430 0.930 . S
H425 C433 0.930 . S
H426 C434 0.930 . S
H427 C435 0.930 . S
H428 C438 0.930 . S
H429 C439 0.930 . S
C430 H424 0.930 . S
C430 C431 1.355 . S
C430 C432 1.415 . S
C431 C430 1.355 . S
C431 C433 1.419 . S
C432 C430 1.415 . S
C432 C437 1.425 . S
C432 C439 1.409 . S
C433 H425 0.930 . S
C433 C431 1.419 . S
C433 C434 1.362 . S
C434 H426 0.930 . S
C434 C433 1.362 . S
C434 C437 1.409 . S
C435 H427 0.930 . S
C435 C436 1.355 . S
C435 C437 1.415 . S
C436 C435 1.355 . S
C436 C438 1.419 . S
C437 C432 1.425 . S
C437 C434 1.409 . S
C437 C435 1.415 . S
C438 H428 0.930 . S
C438 C436 1.419 . S
C438 C439 1.362 . S
C439 H429 0.930 . S
C439 C432 1.409 . S
C439 C438 1.362 . S
H440 C446 0.930 . S
H441 C449 0.930 . S
H442 C450 0.930 . S
H443 C451 0.930 . S
H444 C454 0.930 . S
H445 C455 0.930 . S
C446 H440 0.930 . S
C446 C447 1.355 . S
C446 C448 1.415 . S
C447 C446 1.355 . S
C447 C449 1.419 . S
C448 C446 1.415 . S
C448 C453 1.425 . S
C448 C455 1.409 . S
C449 H441 0.930 . S
C449 C447 1.419 . S
C449 C450 1.362 . S
C450 H442 0.930 . S
C450 C449 1.362 . S
C450 C453 1.409 . S
C451 H443 0.930 . S
C451 C452 1.355 . S
C451 C453 1.415 . S
C452 C451 1.355 . S
C452 C454 1.419 . S
C453 C448 1.425 . S
C453 C450 1.409 . S
C453 C451 1.415 . S
C454 H444 0.930 . S
C454 C452 1.419 . S
C454 C455 1.362 . S
C455 H445 0.930 . S
C455 C448 1.409 . S
C455 C454 1.362 . S
H456 C462 0.930 . S
H457 C465 0.930 . S
H458 C466 0.930 . S
H459 C467 0.930 . S
H460 C470 0.930 . S
H461 C471 0.930 . S
C462 H456 0.930 . S
C462 C463 1.355 . S
C462 C464 1.415 . S
C463 C462 1.355 . S
C463 C465 1.419 . S
C464 C462 1.415 . S
C464 C469 1.425 . S
C464 C471 1.409 . S
C465 H457 0.930 . S
C465 C463 1.419 . S
C465 C466 1.362 . S
C466 H458 0.930 . S
C466 C465 1.362 . S
C466 C469 1.409 . S
C467 H459 0.930 . S
C467 C468 1.355 . S
C467 C469 1.415 . S
C468 C467 1.355 . S
C468 C470 1.419 . S
C469 C464 1.425 . S
C469 C466 1.409 . S
C469 C467 1.415 . S
C470 H460 0.930 . S
C470 C468 1.419 . S
C470 C471 1.362 . S
C471 H461 0.930 . S
C471 C464 1.409 . S
C471 C470 1.362 . S
H472 C478 0.930 . S
H473 C481 0.930 . S
H474 C482 0.930 . S
H475 C483 0.930 . S
H476 C486 0.930 . S
H477 C487 0.930 . S
C478 H472 0.930 . S
C478 C479 1.355 . S
C478 C480 1.415 . S
C479 C478 1.355 . S
C479 C481 1.419 . S
C480 C478 1.415 . S
C480 C485 1.425 . S
C480 C487 1.409 . S
C481 H473 0.930 . S
C481 C479 1.419 . S
C481 C482 1.362 . S
C482 H474 0.930 . S
C482 C481 1.362 . S
C482 C485 1.409 . S
C483 H475 0.930 . S
C483 C484 1.355 . S
C483 C485 1.415 . S
C484 C483 1.355 . S
C484 C486 1.419 . S
C485 C480 1.425 . S
C485 C482 1.409 . S
C485 C483 1.415 . S
C486 H476 0.930 . S
C486 C484 1.419 . S
C486 C487 1.362 . S
C487 H477 0.930 . S
C487 C480 1.409 . S
C487 C486 1.362 . S
H488 C494 0.930 . S
H489 C497 0.930 . S
H490 C498 0.930 . S
H491 C499 0.930 . S
H492 C502 0.930 . S
H493 C503 0.930 . S
C494 H488 0.930 . S
C494 C495 1.355 . S
C494 C496 1.415 . S
C495 C494 1.355 . S
C495 C497 1.419 . S
C496 C494 1.415 . S
C496 C501 1.425 . S
C496 C503 1.409 . S
C497 H489 0.930 . S
C497 C495 1.419 . S
C497 C498 1.362 . S
C498 H490 0.930 . S
C498 C497 1.362 . S
C498 C501 1.409 . S
C499 H491 0.930 . S
C499 C500 1.355 . S
C499 C501 1.415 . S
C500 C499 1.355 . S
C500 C502 1.419 . S
C501 C496 1.425 . S
C501 C498 1.409 . S
C501 C499 1.415 . S
C502 H492 0.930 . S
C502 C500 1.419 . S
C502 C503 1.362 . S
C503 H493 0.930 . S
C503 C496 1.409 . S
C503 C502 1.362 . S
H504 C510 0.930 . S
H505 C513 0.930 . S
H506 C514 0.930 . S
H507 C515 0.930 . S
H508 C518 0.930 . S
H509 C519 0.930 . S
C510 H504 0.930 . S
C510 C511 1.355 . S
C510 C512 1.415 . S
C511 C510 1.355 . S
C511 C513 1.419 . S
C512 C510 1.415 . S
C512 C517 1.425 . S
C512 C519 1.409 . S
C513 H505 0.930 . S
C513 C511 1.419 . S
C513 C514 1.362 . S
C514 H506 0.930 . S
C514 C513 1.362 . S
C514 C517 1.409 . S
C515 H507 0.930 . S
C515 C516 1.355 . S
C515 C517 1.415 . S
C516 C515 1.355 . S
C516 C518 1.419 . S
C517 C512 1.425 . S
C517 C514 1.409 . S
C517 C515 1.415 . S
C518 H508 0.930 . S
C518 C516 1.419 . S
C518 C519 1.362 . S
C519 H509 0.930 . S
C519 C512 1.409 . S
C519 C518 1.362 . S
H520 C526 0.930 . S
H521 C529 0.930 . S
H522 C530 0.930 . S
H523 C531 0.930 . S
H524 C534 0.930 . S
H525 C535 0.930 . S
C526 H520 0.930 . S
C526 C527 1.355 . S
C526 C528 1.415 . S
C527 C526 1.355 . S
C527 C529 1.419 . S
C528 C526 1.415 . S
C528 C533 1.425 . S
C528 C535 1.409 . S
C529 H521 0.930 . S
C529 C527 1.419 . S
C529 C530 1.362 . S
C530 H522 0.930 . S
C530 C529 1.362 . S
C530 C533 1.409 . S
C531 H523 0.930 . S
C531 C532 1.355 . S
C531 C533 1.415 . S
C532 C531 1.355 . S
C532 C534 1.419 . S
C533 C528 1.425 . S
C533 C530 1.409 . S
C533 C531 1.415 . S
C534 H524 0.930 . S
C534 C532 1.419 . S
C534 C535 1.362 . S
C535 H525 0.930 . S
C535 C528 1.409 . S
C535 C534 1.362 . S
H536 C542 0.930 . S
H537 C545 0.930 . S
H538 C546 0.930 . S
H539 C547 0.930 . S
H540 C550 0.930 . S
H541 C551 0.930 . S
C542 H536 0.930 . S
C542 C543 1.355 . S
C542 C544 1.415 . S
C543 C542 1.355 . S
C543 C545 1.419 . S
C544 C542 1.415 . S
C544 C549 1.425 . S
C544 C551 1.409 . S
C545 H537 0.930 . S
C545 C543 1.419 . S
C545 C546 1.362 . S
C546 H538 0.930 . S
C546 C545 1.362 . S
C546 C549 1.409 . S
C547 H539 0.930 . S
C547 C548 1.355 . S
C547 C549 1.415 . S
C548 C547 1.355 . S
C548 C550 1.419 . S
C549 C544 1.425 . S
C549 C546 1.409 . S
C549 C547 1.415 . S
C550 H540 0.930 . S
C550 C548 1.419 . S
C550 C551 1.362 . S
C551 H541 0.930 . S
C551 C544 1.409 . S
C551 C550 1.362 . S
H552 C558 0.930 . S
H553 C561 0.930 . S
H554 C562 0.930 . S
H555 C563 0.930 . S
H556 C566 0.930 . S
H557 C567 0.930 . S
C558 H552 0.930 . S
C558 C559 1.355 . S
C558 C560 1.415 . S
C559 C558 1.355 . S
C559 C561 1.419 . S
C560 C558 1.415 . S
C560 C565 1.425 . S
C560 C567 1.409 . S
C561 H553 0.930 . S
C561 C559 1.419 . S
C561 C562 1.362 . S
C562 H554 0.930 . S
C562 C561 1.362 . S
C562 C565 1.409 . S
C563 H555 0.930 . S
C563 C564 1.355 . S
C563 C565 1.415 . S
C564 C563 1.355 . S
C564 C566 1.419 . S
C565 C560 1.425 . S
C565 C562 1.409 . S
C565 C563 1.415 . S
C566 H556 0.930 . S
C566 C564 1.419 . S
C566 C567 1.362 . S
C567 H557 0.930 . S
C567 C560 1.409 . S
C567 C566 1.362 . S
H568 C574 0.930 . S
H569 C577 0.930 . S
H570 C578 0.930 . S
H571 C579 0.930 . S
H572 C582 0.930 . S
H573 C583 0.930 . S
C574 H568 0.930 . S
C574 C575 1.355 . S
C574 C576 1.415 . S
C575 C574 1.355 . S
C575 C577 1.419 . S
C576 C574 1.415 . S
C576 C581 1.425 . S
C576 C583 1.409 . S
C577 H569 0.930 . S
C577 C575 1.419 . S
C577 C578 1.362 . S
C578 H570 0.930 . S
C578 C577 1.362 . S
C578 C581 1.409 . S
C579 H571 0.930 . S
C579 C580 1.355 . S
C579 C581 1.415 . S
C580 C579 1.355 . S
C580 C582 1.419 . S
C581 C576 1.425 . S
C581 C578 1.409 . S
C581 C579 1.415 . S
C582 H572 0.930 . S
C582 C580 1.419 . S
C582 C583 1.362 . S
C583 H573 0.930 . S
C583 C576 1.409 . S
C583 C582 1.362 . S
H584 C590 0.930 . S
H585 C593 0.930 . S
H586 C594 0.930 . S
H587 C595 0.930 . S
H588 C598 0.930 . S
H589 C599 0.930 . S
C590 H584 0.930 . S
C590 C591 1.355 . S
C590 C592 1.415 . S
C591 C590 1.355 . S
C591 C593 1.419 . S
C592 C590 1.415 . S
C592 C597 1.425 . S
C592 C599 1.409 . S
C593 H585 0.930 . S
C593 C591 1.419 . S
C593 C594 1.362 . S
C594 H586 0.930 . S
C594 C593 1.362 . S
C594 C597 1.409 . S
C595 H587 0.930 . S
C595 C596 1.355 . S
C595 C597 1.415 . S
C596 C595 1.355 . S
C596 C598 1.419 . S
C597 C592 1.425 . S
C597 C594 1.409 . S
C597 C595 1.415 . S
C598 H588 0.930 . S
C598 C596 1.419 . S
C598 C599 1.362 . S
C599 H589 0.930 . S
C599 C592 1.409 . S
C599 C598 1.362 . S
H600 C606 0.930 . S
H601 C609 0.930 . S
H602 C610 0.930 . S
H603 C611 0.930 . S
H604 C614 0.930 . S
H605 C615 0.930 . S
C606 H600 0.930 . S
C606 C607 1.355 . S
C606 C608 1.415 . S
C607 C606 1.355 . S
C607 C609 1.419 . S
C608 C606 1.415 . S
C608 C613 1.425 . S
C608 C615 1.409 . S
C609 H601 0.930 . S
C609 C607 1.419 . S
C609 C610 1.362 . S
C610 H602 0.930 . S
C610 C609 1.362 . S
C610 C613 1.409 . S
C611 H603 0.930 . S
C611 C612 1.355 . S
C611 C613 1.415 . S
C612 C611 1.355 . S
C612 C614 1.419 . S
C613 C608 1.425 . S
C613 C610 1.409 . S
C613 C611 1.415 . S
C614 H604 0.930 . S
C614 C612 1.419 . S
C614 C615 1.362 . S
C615 H605 0.930 . S
C615 C608 1.409 . S
C615 C614 1.362 . S
C239 C51 1.494 1_655 S
C244 C108 1.490 . S
C255 C56 1.494 1_565 S
C260 C173 1.494 . S
C271 C53 1.494 . S
C276 C110 1.494 1_655 S
C287 C170 1.494 . S
C292 C55 1.490 1_565 S
C303 C50 1.494 . S
C308 C109 1.497 1_655 S
C319 C57 1.494 1_565 S
C324 C172 1.494 . S
C335 C111 1.494 1_655 S
C340 C52 1.493 . S
C351 C171 1.494 . S
C356 C54 1.497 1_565 S
C367 C220 1.494 . S
C372 C47 1.490 1_556 S
C383 C223 1.494 . S
C388 C48 1.494 1_556 S
C399 C222 1.494 . S
C404 C49 1.494 1_556 S
C415 C46 1.494 1_556 S
C420 C221 1.497 . S
C431 C231 1.494 . S
C436 C114 1.497 . S
C447 C113 1.494 . S
C452 C228 1.494 . S
C463 C115 1.494 . S
C468 C230 1.490 . S
C479 C229 1.494 . S
C484 C112 1.494 . S
C495 C162 1.494 . S
C500 C105 1.494 . S
C511 C106 1.494 . S
C516 C165 1.490 . S
C527 C107 1.494 . S
C532 C164 1.497 . S
C543 C163 1.494 . S
C548 C104 1.494 . S
C559 C224 1.494 . S
C564 C167 1.494 . S
C575 C169 1.494 . S
C580 C226 1.497 . S
C591 C225 1.494 . S
C596 C166 1.494 . S
C607 C168 1.494 . S
C612 C227 1.490 . S
