# Generated by pormake.
# Topology uoq, (4)-cn, num edge types: 1
# Building blocks:
#     Node 0, Type 0, BuildingBlock: KUFVIS_clean_sbu_0, # of connection points: 4
#     Node 1, Type 0, BuildingBlock: KUFVIS_clean_sbu_0, # of connection points: 4
#     Node 2, Type 0, BuildingBlock: KUFVIS_clean_sbu_0, # of connection points: 4
#     Node 3, Type 0, BuildingBlock: KUFVIS_clean_sbu_0, # of connection points: 4
#     Node 4, Type 0, BuildingBlock: KUFVIS_clean_sbu_0, # of connection points: 4
#     Node 5, Type 0, BuildingBlock: KUFVIS_clean_sbu_0, # of connection points: 4
#     Node 6, Type 0, BuildingBlock: KUFVIS_clean_sbu_0, # of connection points: 4
#     Node 7, Type 0, BuildingBlock: KUFVIS_clean_sbu_0, # of connection points: 4
#     Node 8, Type 0, BuildingBlock: KUFVIS_clean_sbu_0, # of connection points: 4
#     Node 9, Type 0, BuildingBlock: KUFVIS_clean_sbu_0, # of connection points: 4
#     Node 10, Type 0, BuildingBlock: KUFVIS_clean_sbu_0, # of connection points: 4
#     Node 11, Type 0, BuildingBlock: KUFVIS_clean_sbu_0, # of connection points: 4
#     Edge 12, Type (0, 0), BuildingBlock: XUDNAN_clean_linker_2, # of connection points: 2
#     Edge 13, Type (0, 0), BuildingBlock: XUDNAN_clean_linker_2, # of connection points: 2
#     Edge 14, Type (0, 0), BuildingBlock: XUDNAN_clean_linker_2, # of connection points: 2
#     Edge 15, Type (0, 0), BuildingBlock: XUDNAN_clean_linker_2, # of connection points: 2
#     Edge 16, Type (0, 0), BuildingBlock: XUDNAN_clean_linker_2, # of connection points: 2
#     Edge 17, Type (0, 0), BuildingBlock: XUDNAN_clean_linker_2, # of connection points: 2
#     Edge 18, Type (0, 0), BuildingBlock: XUDNAN_clean_linker_2, # of connection points: 2
#     Edge 19, Type (0, 0), BuildingBlock: XUDNAN_clean_linker_2, # of connection points: 2
#     Edge 20, Type (0, 0), BuildingBlock: XUDNAN_clean_linker_2, # of connection points: 2
#     Edge 21, Type (0, 0), BuildingBlock: XUDNAN_clean_linker_2, # of connection points: 2
#     Edge 22, Type (0, 0), BuildingBlock: XUDNAN_clean_linker_2, # of connection points: 2
#     Edge 23, Type (0, 0), BuildingBlock: XUDNAN_clean_linker_2, # of connection points: 2
#     Edge 24, Type (0, 0), BuildingBlock: XUDNAN_clean_linker_2, # of connection points: 2
#     Edge 25, Type (0, 0), BuildingBlock: XUDNAN_clean_linker_2, # of connection points: 2
#     Edge 26, Type (0, 0), BuildingBlock: XUDNAN_clean_linker_2, # of connection points: 2
#     Edge 27, Type (0, 0), BuildingBlock: XUDNAN_clean_linker_2, # of connection points: 2
#     Edge 28, Type (0, 0), BuildingBlock: XUDNAN_clean_linker_2, # of connection points: 2
#     Edge 29, Type (0, 0), BuildingBlock: XUDNAN_clean_linker_2, # of connection points: 2
#     Edge 30, Type (0, 0), BuildingBlock: XUDNAN_clean_linker_2, # of connection points: 2
#     Edge 31, Type (0, 0), BuildingBlock: XUDNAN_clean_linker_2, # of connection points: 2
#     Edge 32, Type (0, 0), BuildingBlock: XUDNAN_clean_linker_2, # of connection points: 2
#     Edge 33, Type (0, 0), BuildingBlock: XUDNAN_clean_linker_2, # of connection points: 2
#     Edge 34, Type (0, 0), BuildingBlock: XUDNAN_clean_linker_2, # of connection points: 2
#     Edge 35, Type (0, 0), BuildingBlock: XUDNAN_clean_linker_2, # of connection points: 2
# Relax obj value: 0.144
# Max RMSD: 0.133
# Mean RMSD: 0.133
data_MOF--net-uoq--node1-KUFVIS_clean_sbu_0--edge1-XUDNAN_clean_linker_2
_symmetry_space_group_name_H-M    P1
_symmetry_Int_Tables_number       1
_symmetry_cell_setting            triclinic
loop_
_symmetry_equiv_pos_as_xyz
'x, y, z'
_cell_length_a     58.86477
_cell_length_b     58.922776
_cell_length_c     22.103547
_cell_angle_alpha  89.97962
_cell_angle_beta   90.022841
_cell_angle_gamma 119.9839
loop_
_atom_site_label
_atom_site_type_symbol
_atom_site_fract_x
_atom_site_fract_y
_atom_site_fract_z
_atom_type_partial_charge
Mn0 Mn 0.30413 0.4414 0.28318 0.0
Mn1 Mn 0.31639 0.42731 0.42494 0.0
C2 C 0.28202 0.44468 0.36636 0.0
C3 C 0.27965 0.42928 0.19198 0.0
C4 C 0.34996 0.47987 0.36531 0.0
O5 O 0.32523 0.42296 0.26435 0.0
O6 O 0.33216 0.4166 0.36137 0.0
C7 C 0.28515 0.36969 0.4113 0.0
N8 N 0.29119 0.39178 0.44314 0.0
C9 C 0.2657 0.36655 0.52827 0.0
C10 C 0.25919 0.34348 0.4965 0.0
C11 C 0.26873 0.34507 0.43745 0.0
C12 C 0.28127 0.39048 0.49888 0.0
H13 H 0.29302 0.37089 0.36659 0.0
C14 C 0.33501 0.41486 0.30488 0.0
O15 O 0.30243 0.45043 0.19573 0.0
O16 O 0.27218 0.41425 0.23923 0.0
N17 N 0.30309 0.43606 0.49462 0.0
C18 C 0.31187 0.46013 0.51991 0.0
C19 C 0.30401 0.46204 0.57873 0.0
C20 C 0.28842 0.4392 0.61234 0.0
C21 C 0.2805 0.41464 0.58641 0.0
C22 C 0.28797 0.41395 0.52664 0.0
H23 H 0.32468 0.47774 0.49516 0.0
O24 O 0.28317 0.45639 0.31603 0.0
O25 O 0.29249 0.42978 0.36683 0.0
O26 O 0.33837 0.47404 0.31367 0.0
O27 O 0.34273 0.46403 0.41001 0.0
C28 C 0.26576 0.39081 0.61786 0.0
C29 C 0.25797 0.36677 0.58847 0.0
H30 H 0.24706 0.32447 0.51713 0.0
H31 H 0.26388 0.32738 0.41267 0.0
H32 H 0.31045 0.48108 0.59861 0.0
H33 H 0.28284 0.44075 0.65818 0.0
H34 H 0.25986 0.39075 0.66431 0.0
H35 H 0.24624 0.34859 0.61275 0.0
Mn36 Mn 0.85992 0.30321 0.60768 0.0
Mn37 Mn 0.88472 0.32163 0.74977 0.0
C38 C 0.83468 0.28337 0.69319 0.0
C39 C 0.84856 0.27672 0.52018 0.0
C40 C 0.86668 0.35229 0.6739 0.0
O41 O 0.89996 0.32397 0.59152 0.0
O42 O 0.91252 0.33439 0.68898 0.0
C43 C 0.9098 0.28883 0.75484 0.0
N44 N 0.89325 0.29625 0.77909 0.0
C45 C 0.88363 0.26707 0.86353 0.0
C46 C 0.90071 0.25924 0.83967 0.0
C47 C 0.91378 0.27011 0.78494 0.0
C48 C 0.88023 0.28557 0.83108 0.0
H49 H 0.91982 0.29706 0.7128 0.0
C50 C 0.91753 0.33492 0.63279 0.0
O51 O 0.85018 0.29949 0.51985 0.0
O52 O 0.85558 0.27015 0.5699 0.0
N53 N 0.86022 0.3106 0.81514 0.0
C54 C 0.84556 0.32132 0.83363 0.0
C55 C 0.83272 0.31401 0.88972 0.0
C56 C 0.83501 0.29571 0.92614 0.0
C57 C 0.85014 0.28492 0.90623 0.0
C58 C 0.86317 0.29359 0.85083 0.0
H59 H 0.84417 0.33582 0.80646 0.0
O60 O 0.8235 0.2824 0.64199 0.0
O61 O 0.86003 0.29543 0.69293 0.0
O62 O 0.86064 0.33737 0.62774 0.0
O63 O 0.87576 0.34835 0.72291 0.0
C64 C 0.85336 0.26642 0.93995 0.0
C65 C 0.86987 0.25727 0.91826 0.0
H66 H 0.90392 0.2449 0.86295 0.0
H67 H 0.92694 0.26413 0.76609 0.0
H68 H 0.82127 0.32263 0.90513 0.0
H69 H 0.8253 0.29028 0.96969 0.0
H70 H 0.84327 0.25914 0.98265 0.0
H71 H 0.8721 0.24295 0.94439 0.0
Mn72 Mn 0.55573 0.85638 0.91596 0.0
Mn73 Mn 0.5538 0.87307 0.06259 0.0
C74 C 0.53847 0.82505 0.9923 0.0
C75 C 0.57284 0.84569 0.83035 0.0
C76 C 0.51451 0.86846 0.96991 0.0
O77 O 0.58345 0.89582 0.9161 0.0
O78 O 0.57653 0.90367 0.01242 0.0
C79 C 0.60919 0.89183 0.09513 0.0
N80 N 0.58313 0.87598 0.10627 0.0
C81 C 0.59186 0.86612 0.20625 0.0
C82 C 0.61881 0.8823 0.19586 0.0
C83 C 0.62752 0.8949 0.1397 0.0
C84 C 0.57461 0.86283 0.15906 0.0
H85 H 0.6159 0.90239 0.05302 0.0
C86 C 0.58747 0.91126 0.96085 0.0
O87 O 0.55607 0.85371 0.82545 0.0
O88 O 0.58113 0.84539 0.88468 0.0
N89 N 0.53272 0.84587 0.11865 0.0
C90 C 0.50606 0.83144 0.12204 0.0
C91 C 0.49421 0.81632 0.17388 0.0
C92 C 0.50981 0.8173 0.223 0.0
C93 C 0.53714 0.83319 0.21955 0.0
C94 C 0.5479 0.84679 0.16555 0.0
H95 H 0.49393 0.8314 0.08532 0.0
O96 O 0.53092 0.81877 0.93661 0.0
O97 O 0.55574 0.84933 1.00267 0.0
O98 O 0.52591 0.86502 0.92463 0.0
O99 O 0.52275 0.87055 0.02391 0.0
C100 C 0.55406 0.83684 0.26834 0.0
C101 C 0.58141 0.85342 0.2618 0.0
H102 H 0.63297 0.88525 0.23072 0.0
H103 H 0.64828 0.90749 0.13138 0.0
H104 H 0.47307 0.80444 0.17653 0.0
H105 H 0.50057 0.80616 0.26355 0.0
H106 H 0.54628 0.8269 0.31099 0.0
H107 H 0.59424 0.85587 0.29942 0.0
Mn108 Mn 0.71572 0.57185 0.26228 0.0
Mn109 Mn 0.70236 0.58582 0.40291 0.0
C110 C 0.73418 0.56479 0.34778 0.0
C111 C 0.74204 0.58308 0.17404 0.0
C112 C 0.66651 0.53521 0.33759 0.0
O113 O 0.69945 0.59489 0.24217 0.0
O114 O 0.69068 0.60037 0.33842 0.0
C115 C 0.73849 0.64313 0.39729 0.0
N116 N 0.72932 0.61987 0.42673 0.0
C117 C 0.75244 0.64156 0.51754 0.0
C118 C 0.76213 0.66579 0.48832 0.0
C119 C 0.7554 0.66655 0.42763 0.0
C120 C 0.7366 0.61885 0.48411 0.0
H121 H 0.73269 0.64377 0.35131 0.0
C122 C 0.69 0.60373 0.28178 0.0
O123 O 0.71818 0.56346 0.17481 0.0
O124 O 0.74986 0.59721 0.22271 0.0
N125 N 0.71194 0.57355 0.47319 0.0
C126 C 0.70111 0.5486 0.4947 0.0
C127 C 0.70655 0.54433 0.55413 0.0
C128 C 0.72189 0.56578 0.59195 0.0
C129 C 0.73211 0.59131 0.56956 0.0
C130 C 0.72707 0.59432 0.50908 0.0
H131 H 0.68868 0.53209 0.4664 0.0
O132 O 0.73263 0.55297 0.29731 0.0
O133 O 0.72607 0.58166 0.34735 0.0
O134 O 0.67906 0.54077 0.28727 0.0
O135 O 0.67407 0.55065 0.38295 0.0
C136 C 0.74686 0.61392 0.60509 0.0
C137 C 0.75736 0.63903 0.57885 0.0
H138 H 0.77463 0.68392 0.5121 0.0
H139 H 0.76275 0.68516 0.40476 0.0
H140 H 0.69845 0.52455 0.57114 0.0
H141 H 0.72558 0.56242 0.63819 0.0
H142 H 0.75081 0.61221 0.65223 0.0
H143 H 0.76917 0.65624 0.60623 0.0
Mn144 Mn 0.15524 0.69967 0.59023 0.0
Mn145 Mn 0.12665 0.6816 0.72915 0.0
C146 C 0.17767 0.72071 0.67772 0.0
C147 C 0.16831 0.7265 0.50306 0.0
C148 C 0.14773 0.65144 0.66122 0.0
O149 O 0.11571 0.67775 0.56866 0.0
O150 O 0.10046 0.66864 0.66472 0.0
C151 C 0.10091 0.71382 0.72739 0.0
N152 N 0.11693 0.70653 0.75509 0.0
C153 C 0.12344 0.73479 0.8398 0.0
C154 C 0.10681 0.74243 0.81241 0.0
C155 C 0.0956 0.73198 0.75581 0.0
C156 C 0.12815 0.71678 0.80903 0.0
H157 H 0.09232 0.7059 0.6839 0.0
C158 C 0.09704 0.66738 0.60764 0.0
O159 O 0.16766 0.70415 0.50393 0.0
O160 O 0.15918 0.73211 0.55065 0.0
N161 N 0.14963 0.6929 0.79751 0.0
C162 C 0.16493 0.68323 0.8181 0.0
C163 C 0.17679 0.69091 0.87521 0.0
C164 C 0.1728 0.70843 0.91056 0.0
C165 C 0.15696 0.71808 0.88854 0.0
C166 C 0.14511 0.7092 0.83199 0.0
H167 H 0.1677 0.6694 0.79162 0.0
O168 O 0.19048 0.72174 0.62919 0.0
O169 O 0.15239 0.70771 0.67392 0.0
O170 O 0.15549 0.66621 0.61454 0.0
O171 O 0.13655 0.65526 0.70648 0.0
C172 C 0.15225 0.73594 0.92079 0.0
C173 C 0.13568 0.74448 0.89617 0.0
H174 H 0.10263 0.75639 0.83428 0.0
H175 H 0.08285 0.73787 0.73421 0.0
H176 H 0.18885 0.68321 0.89214 0.0
H177 H 0.18189 0.71425 0.95472 0.0
H178 H 0.16138 0.74334 0.96438 0.0
H179 H 0.13241 0.75842 0.92105 0.0
Mn180 Mn 0.45774 0.15048 0.91673 0.0
Mn181 Mn 0.43665 0.1272 0.05844 0.0
C182 C 0.46057 0.17825 0.99447 0.0
C183 C 0.44867 0.16214 0.82103 0.0
C184 C 0.48929 0.13799 1.00844 0.0
O185 O 0.43661 0.11048 0.90276 0.0
O186 O 0.42279 0.0989 0.99892 0.0
C187 C 0.3807 0.11017 0.03727 0.0
N188 N 0.40307 0.12416 0.07008 0.0
C189 C 0.38127 0.13837 0.13964 0.0
C190 C 0.35795 0.12403 0.10675 0.0
C191 C 0.3577 0.10995 0.0552 0.0
C192 C 0.40362 0.13808 0.11914 0.0
H193 H 0.38044 0.0993 0.99772 0.0
C194 C 0.42361 0.09338 0.94358 0.0
O195 O 0.46886 0.15908 0.82919 0.0
O196 O 0.43303 0.15663 0.86664 0.0
N197 N 0.4482 0.15197 0.12317 0.0
C198 C 0.47188 0.16352 0.15164 0.0
C199 C 0.47496 0.17671 0.20645 0.0
C200 C 0.45389 0.17853 0.23081 0.0
C201 C 0.42959 0.16619 0.20124 0.0
C202 C 0.42739 0.15233 0.14807 0.0
H203 H 0.48817 0.16225 0.13331 0.0
O204 O 0.47466 0.18763 0.94623 0.0
O205 O 0.44466 0.15318 0.99527 0.0
O206 O 0.48726 0.14605 0.95583 0.0
O207 O 0.47155 0.13058 0.04931 0.0
C208 C 0.40732 0.16664 0.22304 0.0
C209 C 0.38323 0.15294 0.19191 0.0
H210 H 0.34015 0.1237 0.12063 0.0
H211 H 0.3398 0.09887 0.0295 0.0
H212 H 0.49356 0.18538 0.22994 0.0
H213 H 0.45648 0.18913 0.27265 0.0
H214 H 0.40852 0.17745 0.26368 0.0
H215 H 0.36628 0.15354 0.20888 0.0
Mn216 Mn 0.55466 0.70588 0.40939 0.0
Mn217 Mn 0.55296 0.68053 0.2698 0.0
C218 C 0.53803 0.71666 0.32541 0.0
C219 C 0.57212 0.73777 0.48782 0.0
C220 C 0.51313 0.65058 0.36612 0.0
O221 O 0.58197 0.69387 0.4184 0.0
O222 O 0.57567 0.67515 0.32614 0.0
C223 C 0.60837 0.71546 0.23466 0.0
N224 N 0.58231 0.70474 0.22262 0.0
C225 C 0.59109 0.71933 0.11926 0.0
C226 C 0.61804 0.73057 0.1305 0.0
C227 C 0.62673 0.72892 0.1887 0.0
C228 C 0.57381 0.70713 0.1675 0.0
H229 H 0.61507 0.71342 0.27866 0.0
C230 C 0.58634 0.68075 0.37836 0.0
O231 O 0.55483 0.71352 0.49827 0.0
O232 O 0.58069 0.74321 0.43251 0.0
N233 N 0.53191 0.68405 0.20876 0.0
C234 C 0.50526 0.67212 0.20535 0.0
C235 C 0.49346 0.67342 0.15124 0.0
C236 C 0.50907 0.68584 0.10035 0.0
C237 C 0.53638 0.69712 0.1043 0.0
C238 C 0.54711 0.69625 0.16019 0.0
H239 H 0.49313 0.66177 0.24372 0.0
O240 O 0.53047 0.71819 0.37967 0.0
O241 O 0.55501 0.70887 0.32091 0.0
O242 O 0.5243 0.66749 0.40809 0.0
O243 O 0.52186 0.654 0.31234 0.0
C244 C 0.55332 0.70853 0.05457 0.0
C245 C 0.58067 0.7196 0.06201 0.0
H246 H 0.63222 0.74048 0.0948 0.0
H247 H 0.64749 0.73749 0.19773 0.0
H248 H 0.47234 0.66437 0.14837 0.0
H249 H 0.49986 0.68626 0.05827 0.0
H250 H 0.54557 0.70916 1.01054 0.0
H251 H 0.59353 0.72864 0.02364 0.0
Mn252 Mn 0.86578 0.56228 0.7619 0.0
Mn253 Mn 0.88717 0.56958 0.61635 0.0
C254 C 0.83846 0.55762 0.68144 0.0
C255 C 0.856 0.57713 0.85231 0.0
C256 C 0.86752 0.51923 0.68552 0.0
O257 O 0.90585 0.58058 0.77463 0.0
O258 O 0.9152 0.58003 0.67613 0.0
C259 C 0.91778 0.62757 0.62132 0.0
N260 N 0.90008 0.60514 0.59283 0.0
C261 C 0.90078 0.62899 0.50399 0.0
C262 C 0.91926 0.65237 0.53203 0.0
C263 C 0.92748 0.65169 0.59136 0.0
C264 C 0.891 0.60573 0.53717 0.0
H265 H 0.92449 0.627 0.66635 0.0
C266 C 0.92192 0.58458 0.73143 0.0
O267 O 0.85733 0.55581 0.85071 0.0
O268 O 0.8627 0.59102 0.80317 0.0
N269 N 0.86351 0.56081 0.54957 0.0
C270 C 0.84546 0.53661 0.52902 0.0
C271 C 0.83457 0.5339 0.47113 0.0
C272 C 0.84344 0.55591 0.43349 0.0
C273 C 0.86276 0.58051 0.45459 0.0
C274 C 0.87197 0.58217 0.51375 0.0
H275 H 0.83927 0.51956 0.55691 0.0
O276 O 0.82905 0.54719 0.73358 0.0
O277 O 0.86384 0.57157 0.67694 0.0
O278 O 0.86554 0.52818 0.73685 0.0
O279 O 0.87393 0.53259 0.63663 0.0
C280 C 0.8734 0.60346 0.41906 0.0
C281 C 0.89204 0.62776 0.44412 0.0
H282 H 0.92725 0.67092 0.50847 0.0
H283 H 0.94161 0.66964 0.61349 0.0
H284 H 0.81981 0.51479 0.45506 0.0
H285 H 0.8354 0.55368 0.38837 0.0
H286 H 0.86683 0.60273 0.37295 0.0
H287 H 0.89956 0.64535 0.41691 0.0
Mn288 Mn 0.30536 0.85958 0.09039 0.0
Mn289 Mn 0.30896 0.88499 0.95038 0.0
C290 C 0.2803 0.83322 1.01117 0.0
C291 C 0.28418 0.84717 0.1855 0.0
C292 C 0.3494 0.87187 0.99886 0.0
O293 O 0.32543 0.89941 0.10686 0.0
O294 O 0.32377 0.91249 0.01181 0.0
C295 C 0.271 0.90307 0.97334 0.0
N296 N 0.27899 0.88906 0.9394 0.0
C297 C 0.2432 0.87626 0.86978 0.0
C298 C 0.23462 0.89063 0.90383 0.0
C299 C 0.24854 0.90401 0.95597 0.0
C300 C 0.26553 0.8758 0.88976 0.0
H301 H 0.28168 0.9134 0.01336 0.0
C302 C 0.33014 0.91718 0.06736 0.0
O303 O 0.30718 0.84963 0.17723 0.0
O304 O 0.27469 0.85383 0.14055 0.0
N305 N 0.29554 0.8611 0.88398 0.0
C306 C 0.30747 0.84968 0.85413 0.0
C307 C 0.29728 0.83719 0.79864 0.0
C308 C 0.27457 0.83601 0.77489 0.0
C309 C 0.26293 0.84836 0.80572 0.0
C310 C 0.27466 0.86149 0.85961 0.0
H311 H 0.32497 0.85057 0.87183 0.0
O312 O 0.2843 0.82293 0.05876 0.0
O313 O 0.29015 0.85839 0.0119 0.0
O314 O 0.33887 0.86326 0.05086 0.0
O315 O 0.33986 0.88049 0.95881 0.0
C316 C 0.2405 0.84864 0.78448 0.0
C317 C 0.23049 0.86238 0.81683 0.0
H318 H 0.21738 0.89152 0.8904 0.0
H319 H 0.24202 0.91511 0.98256 0.0
H320 H 0.30703 0.82861 0.7741 0.0
H321 H 0.26652 0.82596 0.73248 0.0
H322 H 0.23083 0.83839 0.74331 0.0
H323 H 0.21316 0.86236 0.80025 0.0
Mn324 Mn 0.46643 0.30963 0.41602 0.0
Mn325 Mn 0.45806 0.33062 0.27868 0.0
C326 C 0.47094 0.29179 0.32618 0.0
C327 C 0.45244 0.28078 0.49972 0.0
C328 C 0.50691 0.36106 0.35383 0.0
O329 O 0.44613 0.32867 0.43882 0.0
O330 O 0.44303 0.34141 0.34395 0.0
C331 C 0.40019 0.29732 0.27422 0.0
N332 N 0.42413 0.3056 0.24873 0.0
C333 C 0.40446 0.27882 0.16073 0.0
C334 C 0.37959 0.27009 0.18593 0.0
C335 C 0.37746 0.27933 0.24303 0.0
C336 C 0.42641 0.29661 0.19418 0.0
H337 H 0.39845 0.30436 0.318 0.0
C338 C 0.4389 0.34033 0.4008 0.0
O339 O 0.47323 0.30382 0.50218 0.0
O340 O 0.43864 0.27529 0.45048 0.0
N341 N 0.47148 0.32134 0.21008 0.0
C342 C 0.4969 0.33179 0.19206 0.0
C343 C 0.5024 0.32536 0.13485 0.0
C344 C 0.48174 0.30835 0.09677 0.0
C345 C 0.45578 0.2977 0.11642 0.0
C346 C 0.45147 0.30528 0.17328 0.0
H347 H 0.51282 0.34523 0.22073 0.0
O348 O 0.48242 0.29042 0.37497 0.0
O349 O 0.45757 0.30364 0.33101 0.0
O350 O 0.49899 0.34513 0.39841 0.0
O351 O 0.4936 0.35735 0.30549 0.0
C352 C 0.434 0.28007 0.08154 0.0
C353 C 0.40835 0.27045 0.10393 0.0
H354 H 0.36201 0.25626 0.16193 0.0
H355 H 0.35834 0.27265 0.26288 0.0
H356 H 0.52251 0.33368 0.11991 0.0
H357 H 0.48601 0.30367 0.05235 0.0
H358 H 0.43676 0.27366 0.03762 0.0
H359 H 0.39176 0.25669 0.07701 0.0
Mn360 Mn 0.15 0.44321 0.78356 0.0
Mn361 Mn 0.12681 0.43633 0.63948 0.0
C362 C 0.17629 0.44821 0.70075 0.0
C363 C 0.16128 0.42876 0.87256 0.0
C364 C 0.14742 0.48638 0.70991 0.0
O365 O 0.11007 0.42466 0.79884 0.0
O366 O 0.09953 0.42549 0.70128 0.0
C367 C 0.09642 0.37831 0.64322 0.0
N368 N 0.11386 0.4009 0.61482 0.0
C369 C 0.1129 0.37741 0.52511 0.0
C370 C 0.09473 0.35389 0.55312 0.0
C371 C 0.08677 0.35431 0.61281 0.0
C372 C 0.12269 0.40057 0.5587 0.0
H373 H 0.08985 0.37865 0.68853 0.0
C374 C 0.09346 0.42069 0.75688 0.0
O375 O 0.15951 0.44984 0.87174 0.0
O376 O 0.15399 0.41471 0.8236 0.0
N377 N 0.1497 0.44558 0.57112 0.0
C378 C 0.16681 0.47 0.54985 0.0
C379 C 0.17722 0.47298 0.49137 0.0
C380 C 0.16867 0.45101 0.45378 0.0
C381 C 0.15003 0.42621 0.47537 0.0
C382 C 0.14133 0.42429 0.5351 0.0
H383 H 0.17235 0.48709 0.57723 0.0
O384 O 0.18635 0.45849 0.75262 0.0
O385 O 0.15088 0.43417 0.6978 0.0
O386 O 0.14996 0.47728 0.76045 0.0
O387 O 0.14021 0.47321 0.66088 0.0
C388 C 0.13944 0.40334 0.43961 0.0
C389 C 0.12125 0.37889 0.4648 0.0
H390 H 0.08676 0.33542 0.52922 0.0
H391 H 0.07286 0.33624 0.63489 0.0
H392 H 0.19125 0.49227 0.47471 0.0
H393 H 0.17627 0.45344 0.40817 0.0
H394 H 0.14563 0.40426 0.39309 0.0
H395 H 0.11371 0.36137 0.43732 0.0
Mn396 Mn 0.70641 0.14709 0.10863 0.0
Mn397 Mn 0.6881 0.12179 0.96721 0.0
C398 C 0.72316 0.17295 0.02215 0.0
C399 C 0.73467 0.16106 0.19349 0.0
C400 C 0.65412 0.13403 0.0473 0.0
O401 O 0.69077 0.10736 0.12414 0.0
O402 O 0.67901 0.09417 0.02741 0.0
C403 C 0.72606 0.10284 0.95697 0.0
N404 N 0.71565 0.11723 0.93467 0.0
C405 C 0.74395 0.12998 0.84765 0.0
C406 C 0.75489 0.11522 0.86955 0.0
C407 C 0.74599 0.1017 0.92462 0.0
C408 C 0.72447 0.13075 0.88245 0.0
H409 H 0.71926 0.09238 0.99915 0.0
C410 C 0.68038 0.08954 0.08324 0.0
O411 O 0.71081 0.15668 0.19672 0.0
O412 O 0.74162 0.1556 0.14226 0.0
N413 N 0.69583 0.14625 0.90281 0.0
C414 C 0.68269 0.15895 0.88718 0.0
C415 C 0.68763 0.17161 0.83095 0.0
C416 C 0.70611 0.17119 0.79153 0.0
C417 C 0.71993 0.15865 0.80921 0.0
C418 C 0.71352 0.14561 0.86487 0.0
H419 H 0.66805 0.15886 0.91669 0.0
O420 O 0.72317 0.18359 0.07349 0.0
O421 O 0.71331 0.14786 0.02292 0.0
O422 O 0.66956 0.14144 0.09285 0.0
O423 O 0.65919 0.12667 0.99722 0.0
C424 C 0.73928 0.15796 0.77302 0.0
C425 C 0.75155 0.14393 0.79265 0.0
H426 H 0.77013 0.11414 0.84449 0.0
H427 H 0.75438 0.09032 0.94194 0.0
H428 H 0.67698 0.18138 0.81767 0.0
H429 H 0.70943 0.18042 0.74756 0.0
H430 H 0.74486 0.16815 0.73004 0.0
H431 H 0.76654 0.14369 0.76471 0.0
H432 H 0.32603 0.36497 0.30745 0.0
H433 H 0.38645 0.44589 0.28307 0.0
H434 H 0.41944 0.43572 0.32357 0.0
H435 H 0.34602 0.35468 0.44295 0.0
H436 H 0.33976 0.32184 0.43003 0.0
H437 H 0.32123 0.3337 0.38953 0.0
H438 H 0.33535 0.32398 0.28593 0.0
H439 H 0.35227 0.31031 0.32639 0.0
H440 H 0.36964 0.33591 0.27157 0.0
H441 H 0.44396 0.41845 0.38387 0.0
H442 H 0.46243 0.39193 0.42333 0.0
H443 H 0.38644 0.3219 0.40683 0.0
C444 C 0.3465 0.38011 0.30676 0.0
C445 C 0.3538 0.40614 0.29095 0.0
C446 C 0.38061 0.42569 0.29302 0.0
C447 C 0.39935 0.42021 0.31765 0.0
C448 C 0.39099 0.39492 0.33861 0.0
C449 C 0.36549 0.37485 0.33054 0.0
C450 C 0.36159 0.3494 0.35722 0.0
C451 C 0.34092 0.33933 0.40792 0.0
C452 C 0.3543 0.32868 0.30731 0.0
C453 C 0.38876 0.3584 0.38243 0.0
C454 C 0.40523 0.38487 0.37242 0.0
C455 C 0.4313 0.39765 0.3913 0.0
C456 C 0.44149 0.38253 0.41545 0.0
C457 C 0.42583 0.35491 0.41889 0.0
C458 C 0.39871 0.34303 0.40621 0.0
H459 H 0.95426 0.31999 0.63925 0.0
H460 H 0.94357 0.38659 0.60892 0.0
H461 H 0.98691 0.41577 0.6544 0.0
H462 H 0.98034 0.3368 0.77931 0.0
H463 H 1.0045 0.32664 0.77319 0.0
H464 H 0.97532 0.31114 0.72735 0.0
H465 H 1.00256 0.32308 0.62823 0.0
H466 H 0.03162 0.33659 0.67438 0.0
H467 H 0.02846 0.35639 0.61648 0.0
H468 H 0.0273 0.43612 0.72056 0.0
H469 H 0.0699 0.44941 0.76904 0.0
H470 H 0.05446 0.36962 0.75754 0.0
C471 C 0.96183 0.34093 0.63846 0.0
C472 C 0.94566 0.35107 0.61966 0.0
C473 C 0.95591 0.37851 0.62128 0.0
C474 C 0.98022 0.39512 0.64877 0.0
C475 C 0.99428 0.38403 0.67315 0.0
C476 C 0.98611 0.35777 0.66569 0.0
C477 C 1.00458 0.35064 0.69743 0.0
C478 C 0.99032 0.33009 0.74725 0.0
C479 C 0.01759 0.34113 0.65136 0.0
C480 C 0.02426 0.37692 0.72448 0.0
C481 C 0.01761 0.39577 0.71095 0.0
C482 C 0.03281 0.42156 0.73081 0.0
C483 C 0.05668 0.42881 0.76005 0.0
C484 C 0.06539 0.41053 0.76795 0.0
C485 C 0.0481 0.38391 0.75352 0.0
H486 H 0.57754 0.95089 0.97237 0.0
H487 H 0.6407 0.93381 0.95611 0.0
H488 H 0.67141 0.97694 1.00178 0.0
H489 H 0.61746 0.02289 0.94427 0.0
H490 H 0.59815 0.02911 0.99793 0.0
H491 H 0.58342 0.99887 0.95607 0.0
H492 H 0.56915 0.97379 0.05805 0.0
H493 H 0.58533 0.00395 0.10022 0.0
H494 H 0.59373 0.97884 0.11346 0.0
H495 H 0.694 0.0207 0.05943 0.0
H496 H 0.70866 0.0651 0.09975 0.0
H497 H 0.62976 0.05176 0.08194 0.0
C498 C 0.59817 0.95691 0.97523 0.0
C499 C 0.60697 0.93941 0.95892 0.0
C500 C 0.63382 0.94736 0.96607 0.0
C501 C 0.65122 0.97156 0.99339 0.0
C502 C 0.64138 0.98751 0.01315 0.0
C503 C 0.61562 0.9808 1.00258 0.0
C504 C 0.60952 1.00084 0.02914 0.0
C505 C 0.6017 0.0137 0.97888 0.0
C506 C 0.58816 0.9886 0.07811 0.0
C507 C 0.63583 0.01995 0.05661 0.0
C508 C 0.65394 0.01185 0.04764 0.0
C509 C 0.6799 0.0271 0.06684 0.0
C510 C 0.68796 0.05208 0.09125 0.0
C511 C 0.67019 0.06159 0.09566 0.0
C512 C 0.64351 0.0446 0.08145 0.0
H513 H 0.63845 0.58728 0.28107 0.0
H514 H 0.71503 0.65602 0.25998 0.0
H515 H 0.69722 0.684 0.29444 0.0
H516 H 0.59873 0.61944 0.23856 0.0
H517 H 0.5741 0.59973 0.29362 0.0
H518 H 0.59245 0.58691 0.25609 0.0
H519 H 0.60545 0.57768 0.36144 0.0
H520 H 0.58863 0.59207 0.39928 0.0
H521 H 0.623 0.60442 0.41358 0.0
H522 H 0.67203 0.70343 0.34703 0.0
H523 H 0.63897 0.71395 0.38659 0.0
H524 H 0.57955 0.63203 0.37529 0.0
C525 C 0.651 0.60838 0.27958 0.0
C526 C 0.67795 0.61958 0.26622 0.0
C527 C 0.69415 0.64716 0.26801 0.0
C528 C 0.6843 0.66312 0.28898 0.0
C529 C 0.65813 0.65114 0.30727 0.0
C530 C 0.64146 0.62447 0.30055 0.0
C531 C 0.61452 0.6161 0.32597 0.0
C532 C 0.59372 0.6049 0.27556 0.0
C533 C 0.60751 0.5964 0.37815 0.0
C534 C 0.61866 0.6421 0.34892 0.0
C535 C 0.64398 0.66209 0.33839 0.0
C536 C 0.65214 0.6879 0.35525 0.0
C537 C 0.63341 0.69364 0.37921 0.0
C538 C 0.6069 0.6737 0.38557 0.0
C539 C 0.59987 0.6475 0.37284 0.0
H540 H 0.9613 0.63526 0.72701 0.0
H541 H 0.94502 0.55537 0.74472 0.0
H542 H 0.98732 0.56758 0.69582 0.0
H543 H 0.98595 0.64576 0.5848 0.0
H544 H 0.01194 0.67922 0.59365 0.0
H545 H 0.98324 0.6665 0.64086 0.0
H546 H 0.01081 0.67777 0.73907 0.0
H547 H 0.03968 0.69275 0.69229 0.0
H548 H 0.03516 0.66789 0.74628 0.0
H549 H 0.02801 0.587 0.63019 0.0
H550 H 0.07149 0.61557 0.58471 0.0
H551 H 0.06042 0.68239 0.60564 0.0
C552 C 0.9674 0.62074 0.72403 0.0
C553 C 0.95004 0.59443 0.74071 0.0
C554 C 0.95837 0.5758 0.73415 0.0
C555 C 0.98205 0.58241 0.70474 0.0
C556 C 0.99735 0.60788 0.68294 0.0
C557 C 0.99096 0.62706 0.69458 0.0
C558 C 0.01049 0.65282 0.6652 0.0
C559 C 0.99709 0.66157 0.61834 0.0
C560 C 0.0249 0.67405 0.71359 0.0
C561 C 0.02871 0.64507 0.63471 0.0
C562 C 0.02053 0.61895 0.64467 0.0
C563 C 0.03466 0.60752 0.62247 0.0
C564 C 0.05904 0.62377 0.59486 0.0
C565 C 0.06929 0.65118 0.59105 0.0
C566 C 0.0529 0.66145 0.60669 0.0
H567 H 0.31879 0.95632 0.06243 0.0
H568 H 0.38227 0.9401 0.08599 0.0
H569 H 0.41315 0.98304 0.0408 0.0
H570 H 0.33527 0.98289 0.92339 0.0
H571 H 0.3273 0.0085 0.93281 0.0
H572 H 0.31082 0.97916 0.97777 0.0
H573 H 0.32542 0.00591 0.07746 0.0
H574 H 0.34038 0.03542 0.0328 0.0
H575 H 0.35954 0.02989 0.0883 0.0
H576 H 0.4352 0.02424 0.97611 0.0
H577 H 0.45024 0.06754 0.92924 0.0
H578 H 0.37217 0.05649 0.94744 0.0
C579 C 0.33952 0.96264 0.06205 0.0
C580 C 0.34825 0.9451 0.07885 0.0
C581 C 0.37534 0.95356 0.07526 0.0
C582 C 0.39287 0.97763 0.04798 0.0
C583 C 0.38303 0.9932 0.02584 0.0
C584 C 0.35723 0.98661 0.03518 0.0
C585 C 0.35132 0.00635 1.00577 0.0
C586 C 0.32991 0.99343 0.95707 0.0
C587 C 0.34373 0.02022 0.05394 0.0
C588 C 0.37769 0.02484 0.97753 0.0
C589 C 0.39561 0.0167 0.9887 0.0
C590 C 0.42135 0.03087 0.96755 0.0
C591 C 0.42957 0.05514 0.93927 0.0
C592 C 0.41225 0.06514 0.9335 0.0
C593 C 0.38561 0.04898 0.94946 0.0
H594 H 0.20089 0.4641 0.94628 0.0
H595 H 0.15355 0.38095 0.90961 0.0
H596 H 0.17893 0.37198 0.98594 0.0
H597 H 0.2616 0.46418 0.95975 0.0
H598 H 0.27466 0.48862 0.01858 0.0
H599 H 0.25152 0.48841 0.96491 0.0
H600 H 0.22105 0.48575 0.05242 0.0
H601 H 0.24424 0.48626 0.10639 0.0
H602 H 0.21066 0.45996 0.10779 0.0
H603 H 0.20933 0.37219 0.06877 0.0
H604 H 0.24304 0.3816 0.14701 0.0
H605 H 0.27364 0.46487 0.1226 0.0
C606 C 0.19551 0.44395 0.95523 0.0
C607 C 0.17476 0.42313 0.9228 0.0
C608 C 0.16903 0.39715 0.93441 0.0
C609 C 0.18344 0.39191 0.97761 0.0
C610 C 0.20401 0.41289 1.00813 0.0
C611 C 0.21017 0.43843 0.99712 0.0
C612 C 0.23409 0.45754 0.03363 0.0
C613 C 0.25681 0.47576 0.99171 0.0
C614 C 0.22709 0.47331 0.07767 0.0
C615 C 0.24033 0.4388 0.06736 0.0
C616 C 0.22256 0.4131 0.05245 0.0
C617 C 0.22351 0.39227 0.08007 0.0
C618 C 0.2428 0.39778 0.12438 0.0
C619 C 0.2614 0.42394 0.14006 0.0
C620 C 0.26021 0.44467 0.11044 0.0
H621 H 0.80756 0.27027 0.44962 0.0
H622 H 0.85988 0.23949 0.47836 0.0
H623 H 0.83689 0.20658 0.39742 0.0
H624 H 0.74986 0.20742 0.42987 0.0
H625 H 0.73535 0.21873 0.3743 0.0
H626 H 0.75724 0.24103 0.43061 0.0
H627 H 0.7866 0.27266 0.34636 0.0
H628 H 0.7647 0.25054 0.2898 0.0
H629 H 0.79908 0.26063 0.28762 0.0
H630 H 0.80851 0.17787 0.30884 0.0
H631 H 0.77526 0.15371 0.22925 0.0
H632 H 0.73838 0.1999 0.26803 0.0
C633 C 0.81445 0.25687 0.43817 0.0
C634 C 0.83594 0.25783 0.46938 0.0
C635 C 0.84374 0.23935 0.4545 0.0
C636 C 0.83075 0.22058 0.4086 0.0
C637 C 0.8095 0.22004 0.37895 0.0
C638 C 0.80119 0.23752 0.39387 0.0
C639 C 0.77682 0.23184 0.35828 0.0
C640 C 0.75344 0.2243 0.40081 0.0
C641 C 0.78213 0.25531 0.31813 0.0
C642 C 0.77277 0.2086 0.32046 0.0
C643 C 0.79205 0.2023 0.33223 0.0
C644 C 0.79314 0.18244 0.3001 0.0
C645 C 0.77417 0.16877 0.25498 0.0
C646 C 0.75389 0.17448 0.24333 0.0
C647 C 0.75322 0.19459 0.27698 0.0
H648 H 0.5629 0.79542 0.81183 0.0
H649 H 0.59647 0.87149 0.72605 0.0
H650 H 0.60371 0.85293 0.63215 0.0
H651 H 0.60335 0.77183 0.73671 0.0
H652 H 0.57621 0.73895 0.72811 0.0
H653 H 0.57687 0.75886 0.79072 0.0
H654 H 0.53146 0.75176 0.75877 0.0
H655 H 0.53068 0.73188 0.69611 0.0
H656 H 0.52689 0.76 0.68289 0.0
H657 H 0.60571 0.82541 0.54563 0.0
H658 H 0.59875 0.79107 0.47165 0.0
H659 H 0.56055 0.73181 0.61046 0.0
C660 C 0.57247 0.80826 0.77375 0.0
C661 C 0.57993 0.83514 0.77678 0.0
C662 C 0.59121 0.85105 0.72512 0.0
C663 C 0.59535 0.84063 0.67159 0.0
C664 C 0.58758 0.81401 0.6697 0.0
C665 C 0.57612 0.79796 0.7193 0.0
C666 C 0.56717 0.76956 0.70352 0.0
C667 C 0.58178 0.75919 0.74206 0.0
C668 C 0.53728 0.75229 0.71075 0.0
C669 C 0.57525 0.77207 0.63733 0.0
C670 C 0.58738 0.79794 0.61901 0.0
C671 C 0.59629 0.80512 0.5597 0.0
C672 C 0.59233 0.78541 0.51789 0.0
C673 C 0.57919 0.75862 0.53486 0.0
C674 C 0.57081 0.75205 0.59583 0.0
H675 H 0.74488 0.54638 0.10189 0.0
H676 H 0.78224 0.62996 0.13422 0.0
H677 H 0.8157 0.63768 0.05662 0.0
H678 H 0.80495 0.54519 0.08669 0.0
H679 H 0.79275 0.52019 0.02908 0.0
H680 H 0.77048 0.52126 0.08333 0.0
H681 H 0.74218 0.52355 0.99645 0.0
H682 H 0.7642 0.52219 0.94193 0.0
H683 H 0.75737 0.54878 0.93975 0.0
H684 H 0.84473 0.63624 0.97273 0.0
H685 H 0.86804 0.62562 0.89424 0.0
H686 H 0.81485 0.54281 0.92399 0.0
C687 C 0.75981 0.56633 0.09172 0.0
C688 C 0.76059 0.58766 0.12329 0.0
C689 C 0.78102 0.61338 0.11011 0.0
C690 C 0.80016 0.61793 0.06616 0.0
C691 C 0.79909 0.5965 0.03644 0.0
C692 C 0.77954 0.57117 0.04903 0.0
C693 C 0.78371 0.55151 0.01313 0.0
C694 C 0.78824 0.53348 0.0556 0.0
C695 C 0.76048 0.53557 0.97027 0.0
C696 C 0.80849 0.5697 0.97807 0.0
C697 C 0.81687 0.59561 0.99163 0.0
C698 C 0.83851 0.61601 0.96249 0.0
C699 C 0.85172 0.60981 0.91806 0.0
C700 C 0.84374 0.58343 0.90395 0.0
C701 C 0.82195 0.56317 0.93501 0.0
H702 H 0.20733 0.73103 0.42608 0.0
H703 H 0.16145 0.76763 0.47201 0.0
H704 H 0.18713 0.80317 0.39886 0.0
H705 H 0.26889 0.79098 0.41414 0.0
H706 H 0.28089 0.78016 0.3519 0.0
H707 H 0.25795 0.75663 0.40489 0.0
H708 H 0.2263 0.73087 0.31723 0.0
H709 H 0.2493 0.75411 0.26391 0.0
H710 H 0.216 0.74773 0.26571 0.0
H711 H 0.21745 0.83452 0.31913 0.0
H712 H 0.25014 0.85934 0.23964 0.0
H713 H 0.27911 0.80477 0.25041 0.0
C714 C 0.20238 0.74627 0.41991 0.0
C715 C 0.18199 0.74626 0.45423 0.0
C716 C 0.1767 0.76701 0.44592 0.0
C717 C 0.19129 0.78736 0.40457 0.0
C718 C 0.21152 0.78705 0.3723 0.0
C719 C 0.21714 0.76708 0.37956 0.0
C720 C 0.24052 0.77193 0.34074 0.0
C721 C 0.26342 0.77511 0.3803 0.0
C722 C 0.23255 0.74985 0.29413 0.0
C723 C 0.24705 0.79764 0.31018 0.0
C724 C 0.22994 0.80591 0.32885 0.0
C725 C 0.23113 0.82837 0.30482 0.0
C726 C 0.24987 0.84245 0.25985 0.0
C727 C 0.26763 0.83444 0.23982 0.0
C728 C 0.26638 0.81189 0.26614 0.0
H729 H 0.4856 0.20504 0.75745 0.0
H730 H 0.40259 0.14812 0.76363 0.0
H731 H 0.39447 0.17182 0.68164 0.0
H732 H 0.477 0.26019 0.73913 0.0
H733 H 0.50475 0.278 0.68975 0.0
H734 H 0.5047 0.25509 0.74379 0.0
H735 H 0.51274 0.23007 0.65786 0.0
H736 H 0.51318 0.25313 0.60363 0.0
H737 H 0.49087 0.21855 0.59376 0.0
H738 H 0.39531 0.20234 0.59934 0.0
H739 H 0.40485 0.23778 0.52595 0.0
H740 H 0.48667 0.27734 0.57939 0.0
C741 C 0.46585 0.19718 0.74017 0.0
C742 C 0.44478 0.17426 0.76574 0.0
C743 C 0.41906 0.16528 0.74385 0.0
C744 C 0.41426 0.17871 0.69745 0.0
C745 C 0.43533 0.20153 0.67401 0.0
C746 C 0.46062 0.21079 0.69478 0.0
C747 C 0.47945 0.23681 0.66494 0.0
C748 C 0.49222 0.25882 0.71223 0.0
C749 C 0.50029 0.23449 0.62784 0.0
C750 C 0.46085 0.24069 0.62412 0.0
C751 C 0.43553 0.21996 0.62957 0.0
C752 C 0.41505 0.21874 0.59508 0.0
C753 C 0.42063 0.23901 0.55358 0.0
C754 C 0.44638 0.26059 0.54746 0.0
C755 C 0.46666 0.26142 0.5838 0.0
H756 H 0.17622 0.41147 0.62575 0.0
H757 H 0.21612 0.49473 0.66405 0.0
H758 H 0.24773 0.50273 0.58187 0.0
H759 H 0.23158 0.40941 0.61008 0.0
H760 H 0.22351 0.38646 0.54782 0.0
H761 H 0.1983 0.38436 0.59735 0.0
H762 H 0.17155 0.39091 0.5145 0.0
H763 H 0.19298 0.38618 0.46468 0.0
H764 H 0.18943 0.4144 0.45477 0.0
H765 H 0.27253 0.50194 0.49244 0.0
H766 H 0.29403 0.49207 0.40874 0.0
H767 H 0.24274 0.40887 0.43849 0.0
C768 C 0.19124 0.43138 0.61541 0.0
C769 C 0.19356 0.45266 0.64938 0.0
C770 C 0.21405 0.47837 0.6374 0.0
C771 C 0.23189 0.48307 0.5908 0.0
C772 C 0.22921 0.46172 0.55798 0.0
C773 C 0.20949 0.43636 0.56956 0.0
C774 C 0.21319 0.41677 0.53267 0.0
C775 C 0.21699 0.39816 0.5744 0.0
C776 C 0.19031 0.40116 0.48916 0.0
C777 C 0.23781 0.43517 0.49797 0.0
C778 C 0.24623 0.46103 0.51234 0.0
C779 C 0.26656 0.48183 0.48147 0.0
C780 C 0.27849 0.47608 0.434 0.0
C781 C 0.27045 0.44981 0.41917 0.0
C782 C 0.24984 0.42908 0.45118 0.0
H783 H 0.79267 0.27964 0.7576 0.0
H784 H 0.84301 0.24596 0.73632 0.0
H785 H 0.82002 0.21524 0.81957 0.0
H786 H 0.74968 0.26446 0.91754 0.0
H787 H 0.77555 0.28571 0.86675 0.0
H788 H 0.78228 0.27105 0.93127 0.0
H789 H 0.74178 0.25444 0.78954 0.0
H790 H 0.72059 0.22839 0.83999 0.0
H791 H 0.73774 0.22263 0.77915 0.0
H792 H 0.79465 0.19037 0.90503 0.0
H793 H 0.76294 0.16705 0.98613 0.0
H794 H 0.72579 0.21363 0.95309 0.0
C795 C 0.79885 0.26591 0.77135 0.0
C796 C 0.81989 0.26533 0.74212 0.0
C797 C 0.82722 0.24683 0.75937 0.0
C798 C 0.81439 0.22945 0.80659 0.0
C799 C 0.79425 0.23087 0.83585 0.0
C800 C 0.7864 0.24856 0.81958 0.0
C801 C 0.76254 0.24399 0.85616 0.0
C802 C 0.76798 0.26779 0.89505 0.0
C803 C 0.73918 0.23679 0.81391 0.0
C804 C 0.75872 0.2212 0.89579 0.0
C805 C 0.77762 0.21445 0.88331 0.0
C806 C 0.77958 0.19521 0.91517 0.0
C807 C 0.7616 0.18218 0.96116 0.0
C808 C 0.74187 0.18835 0.97467 0.0
C809 C 0.74059 0.20844 0.9426 0.0
H810 H 0.57295 0.81923 0.06102 0.0
H811 H 0.48993 0.78497 0.02444 0.0
H812 H 0.48001 0.75255 0.10679 0.0
H813 H 0.56813 0.75867 0.07503 0.0
H814 H 0.59276 0.76665 0.1333 0.0
H815 H 0.5955 0.79124 0.08094 0.0
H816 H 0.59483 0.82229 0.16355 0.0
H817 H 0.59883 0.80029 0.21304 0.0
H818 H 0.57282 0.80688 0.22698 0.0
H819 H 0.48017 0.72928 0.20475 0.0
H820 H 0.48988 0.70868 0.29157 0.0
H821 H 0.57245 0.75178 0.2461 0.0
C822 C 0.55268 0.80504 0.071 0.0
C823 C 0.53206 0.80488 0.03841 0.0
C824 C 0.50584 0.78541 0.05002 0.0
C825 C 0.50009 0.76718 0.09681 0.0
C826 C 0.52094 0.76817 0.12918 0.0
C827 C 0.54673 0.78622 0.1157 0.0
C828 C 0.56561 0.78091 0.1508 0.0
C829 C 0.58142 0.77382 0.10751 0.0
C830 C 0.58413 0.80411 0.19079 0.0
C831 C 0.54645 0.75791 0.18882 0.0
C832 C 0.52078 0.7513 0.17696 0.0
C833 C 0.50004 0.73357 0.21315 0.0
C834 C 0.5057 0.72222 0.26254 0.0
C835 C 0.53171 0.7281 0.27367 0.0
C836 C 0.55226 0.74617 0.23655 0.0
H837 H 0.77286 0.59961 0.42225 0.0
H838 H 0.72109 0.51678 0.3892 0.0
H839 H 0.74129 0.50602 0.47435 0.0
H840 H 0.82476 0.5943 0.43925 0.0
H841 H 0.84278 0.61656 0.50086 0.0
H842 H 0.82163 0.62252 0.45284 0.0
H843 H 0.79061 0.62082 0.53448 0.0
H844 H 0.81504 0.62201 0.58532 0.0
H845 H 0.78152 0.59683 0.59485 0.0
H846 H 0.76539 0.50442 0.56508 0.0
H847 H 0.79736 0.5116 0.64596 0.0
H848 H 0.83837 0.59499 0.60886 0.0
C849 C 0.76533 0.57929 0.43454 0.0
C850 C 0.74498 0.55893 0.4011 0.0
C851 C 0.73641 0.5325 0.4155 0.0
C852 C 0.74757 0.52625 0.46389 0.0
C853 C 0.76764 0.54672 0.49619 0.0
C854 C 0.77655 0.57272 0.48228 0.0
C855 C 0.80102 0.5907 0.51803 0.0
C856 C 0.82403 0.60697 0.47532 0.0
C857 C 0.79667 0.60865 0.56066 0.0
C858 C 0.80444 0.57071 0.55385 0.0
C859 C 0.78438 0.54555 0.54204 0.0
C860 C 0.78148 0.52393 0.57416 0.0
C861 C 0.79954 0.52818 0.62 0.0
C862 C 0.82054 0.55367 0.63169 0.0
C863 C 0.82297 0.57522 0.59868 0.0
H864 H 0.21977 0.72733 0.74551 0.0
H865 H 0.16554 0.75602 0.7183 0.0
H866 H 0.18442 0.78547 0.80587 0.0
H867 H 0.22622 0.73363 0.91933 0.0
H868 H 0.26 0.74337 0.90942 0.0
H869 H 0.23615 0.72145 0.85551 0.0
H870 H 0.26995 0.75521 0.78293 0.0
H871 H 0.28851 0.78204 0.83404 0.0
H872 H 0.27069 0.78549 0.77122 0.0
H873 H 0.20509 0.80785 0.89982 0.0
H874 H 0.23631 0.83334 0.98094 0.0
H875 H 0.28127 0.795 0.9426 0.0
C876 C 0.21181 0.73963 0.75891 0.0
C877 C 0.19061 0.73888 0.72749 0.0
C878 C 0.18125 0.75591 0.74365 0.0
C879 C 0.19168 0.77249 0.79331 0.0
C880 C 0.2116 0.77188 0.82563 0.0
C881 C 0.22202 0.75633 0.8089 0.0
C882 C 0.24588 0.76241 0.84701 0.0
C883 C 0.2417 0.73874 0.88489 0.0
C884 C 0.27026 0.77199 0.80666 0.0
C885 C 0.24697 0.78379 0.88741 0.0
C886 C 0.22631 0.788 0.87552 0.0
C887 C 0.22169 0.80523 0.90911 0.0
C888 C 0.2394 0.81955 0.95485 0.0
C889 C 0.26144 0.81668 0.96558 0.0
C890 C 0.26484 0.79793 0.93334 0.0
H891 H 0.50029 0.21754 0.06062 0.0
H892 H 0.41683 0.17891 0.02363 0.0
H893 H 0.41144 0.20518 0.10313 0.0
H894 H 0.50045 0.22853 0.23045 0.0
H895 H 0.52979 0.25875 0.21699 0.0
H896 H 0.52105 0.23163 0.1665 0.0
H897 H 0.53036 0.27002 0.0906 0.0
H898 H 0.5288 0.29207 0.14474 0.0
H899 H 0.50608 0.27955 0.0821 0.0
H900 H 0.41328 0.2276 0.19654 0.0
H901 H 0.42373 0.25649 0.28488 0.0
H902 H 0.50678 0.28587 0.25712 0.0
C903 C 0.481 0.21479 0.06969 0.0
C904 C 0.45868 0.19566 0.03843 0.0
C905 C 0.43384 0.193 0.04895 0.0
C906 C 0.43064 0.20778 0.09376 0.0
C907 C 0.45261 0.22532 0.12661 0.0
C908 C 0.47745 0.22947 0.1147 0.0
C909 C 0.49781 0.25111 0.15469 0.0
C910 C 0.5131 0.2418 0.1942 0.0
C911 C 0.51685 0.27464 0.11588 0.0
C912 C 0.48004 0.25703 0.19326 0.0
C913 C 0.45407 0.24149 0.17642 0.0
C914 C 0.43352 0.24063 0.20907 0.0
C915 C 0.43962 0.2569 0.25924 0.0
C916 C 0.466 0.27396 0.27567 0.0
C917 C 0.48652 0.27355 0.24368 0.0
H918 H 0.383 0.51654 0.2812 0.0
H919 H 0.36965 0.5029 0.47447 0.0
H920 H 0.40847 0.54543 0.49525 0.0
H921 H 0.45246 0.54583 0.2902 0.0
H922 H 0.4593 0.56958 0.23135 0.0
H923 H 0.42897 0.53879 0.23049 0.0
H924 H 0.40281 0.56343 0.22761 0.0
H925 H 0.4331 0.59431 0.22827 0.0
H926 H 0.40853 0.58741 0.2851 0.0
H927 H 0.44947 0.58897 0.49656 0.0
H928 H 0.49083 0.63025 0.47686 0.0
H929 H 0.47907 0.61508 0.2837 0.0
C930 C 0.38803 0.52269 0.32779 0.0
C931 C 0.37292 0.50633 0.376 0.0
C932 C 0.38058 0.51498 0.43646 0.0
C933 C 0.40272 0.53921 0.44897 0.0
C934 C 0.41732 0.55469 0.40068 0.0
C935 C 0.41043 0.54682 0.34128 0.0
C936 C 0.43048 0.56672 0.29809 0.0
C937 C 0.44357 0.5545 0.26032 0.0
C938 C 0.41798 0.57868 0.25737 0.0
C939 C 0.44963 0.58674 0.34263 0.0
C940 C 0.44155 0.57954 0.40154 0.0
C941 C 0.45605 0.59489 0.45055 0.0
C942 C 0.47952 0.61829 0.43896 0.0
C943 C 0.48835 0.62594 0.37887 0.0
C944 C 0.47305 0.60983 0.33029 0.0
H945 H 0.87938 0.49037 0.7656 0.0
H946 H 0.84275 0.4862 0.59241 0.0
H947 H 0.83626 0.44236 0.57531 0.0
H948 H 0.9149 0.46034 0.71641 0.0
H949 H 0.91099 0.4419 0.78454 0.0
H950 H 0.9102 0.47203 0.78807 0.0
H951 H 0.86463 0.44779 0.83966 0.0
H952 H 0.86535 0.41757 0.83666 0.0
H953 H 0.83826 0.41934 0.80373 0.0
H954 H 0.83667 0.4013 0.57138 0.0
H955 H 0.84337 0.36367 0.58139 0.0
H956 H 0.88039 0.39264 0.75653 0.0
C957 C 0.86943 0.47987 0.7249 0.0
C958 C 0.86143 0.49172 0.6804 0.0
C959 C 0.84907 0.47767 0.62704 0.0
C960 C 0.84519 0.45262 0.61694 0.0
C961 C 0.85383 0.44174 0.66058 0.0
C962 C 0.86561 0.45469 0.71366 0.0
C963 C 0.87457 0.43884 0.75073 0.0
C964 C 0.90444 0.4542 0.76048 0.0
C965 C 0.85982 0.43038 0.81129 0.0
C966 C 0.86651 0.41544 0.70926 0.0
C967 C 0.85436 0.41758 0.65791 0.0
C968 C 0.84592 0.39918 0.61163 0.0
C969 C 0.84996 0.37788 0.61774 0.0
C970 C 0.86245 0.37505 0.66976 0.0
C971 C 0.87069 0.39411 0.71633 0.0
H972 H 0.47893 0.86343 0.05611 0.0
H973 H 0.49456 0.87551 0.86326 0.0
H974 H 0.45381 0.87744 0.84985 0.0
H975 H 0.40903 0.82156 0.04321 0.0
H976 H 0.40211 0.83462 0.10996 0.0
H977 H 0.43254 0.83444 0.10407 0.0
H978 H 0.45841 0.88452 0.12317 0.0
H979 H 0.42808 0.88489 0.12901 0.0
H980 H 0.45265 0.90591 0.07524 0.0
H981 H 0.41231 0.87964 0.8586 0.0
H982 H 0.37203 0.8798 0.88684 0.0
H983 H 0.38251 0.86416 0.07389 0.0
C984 C 0.4739 0.86651 1.0109 0.0
C985 C 0.49008 0.86945 0.96066 0.0
C986 C 0.48252 0.87321 0.90237 0.0
C987 C 0.45944 0.87437 0.89437 0.0
C988 C 0.44405 0.87145 0.94501 0.0
C989 C 0.45088 0.8674 1.00205 0.0
C990 C 0.43082 0.86448 0.04896 0.0
C991 C 0.41786 0.83715 0.07826 0.0
C992 C 0.44324 0.88625 0.09691 0.0
C993 C 0.41164 0.86775 1.0095 0.0
C994 C 0.41972 0.87188 0.94977 0.0
C995 C 0.40568 0.8762 0.90511 0.0
C996 C 0.38275 0.87624 0.9218 0.0
C997 C 0.37381 0.87173 0.98267 0.0
C998 C 0.38857 0.86739 0.02694 0.0
H999 H 0.63418 0.4968 0.25353 0.0
H1000 H 0.64448 0.51427 0.44621 0.0
H1001 H 0.6075 0.47126 0.46869 0.0
H1002 H 0.56314 0.4635 0.26117 0.0
H1003 H 0.55792 0.4391 0.20523 0.0
H1004 H 0.58701 0.47094 0.2022 0.0
H1005 H 0.61583 0.44915 0.20425 0.0
H1006 H 0.58679 0.41724 0.20758 0.0
H1007 H 0.61178 0.42692 0.26481 0.0
H1008 H 0.57062 0.42693 0.47362 0.0
H1009 H 0.53087 0.38424 0.45929 0.0
H1010 H 0.53949 0.39452 0.26425 0.0
C1011 C 0.62871 0.49146 0.30033 0.0
C1012 C 0.64295 0.50901 0.34791 0.0
C1013 C 0.63462 0.50133 0.40856 0.0
C1014 C 0.61344 0.47677 0.42218 0.0
C1015 C 0.60008 0.45995 0.37482 0.0
C1016 C 0.60686 0.46692 0.31504 0.0
C1017 C 0.58748 0.44531 0.27341 0.0
C1018 C 0.57303 0.45532 0.23312 0.0
C1019 C 0.6013 0.43399 0.23525 0.0
C1020 C 0.56903 0.42543 0.31953 0.0
C1021 C 0.57714 0.4343 0.37765 0.0
C1022 C 0.5639 0.41969 0.42836 0.0
C1023 C 0.54138 0.39537 0.41969 0.0
C1024 C 0.532 0.38598 0.36073 0.0
C1025 C 0.54614 0.40122 0.3099 0.0
H1026 H 0.1242 0.60811 0.73533 0.0
H1027 H 0.18255 0.64438 0.59341 0.0
H1028 H 0.19157 0.60785 0.59875 0.0
H1029 H 0.15799 0.58114 0.82244 0.0
H1030 H 0.12823 0.5512 0.84035 0.0
H1031 H 0.12741 0.58106 0.82871 0.0
H1032 H 0.09196 0.55837 0.74575 0.0
H1033 H 0.09253 0.52843 0.75745 0.0
H1034 H 0.09823 0.54274 0.68299 0.0
H1035 H 0.19349 0.56729 0.61653 0.0
H1036 H 0.18555 0.52297 0.63973 0.0
H1037 H 0.12517 0.51171 0.76813 0.0
C1038 C 0.13903 0.60848 0.70572 0.0
C1039 C 0.15274 0.6292 0.66405 0.0
C1040 C 0.17173 0.62873 0.62553 0.0
C1041 C 0.17714 0.60816 0.62853 0.0
C1042 C 0.16334 0.58812 0.67012 0.0
C1043 C 0.14451 0.58793 0.70768 0.0
C1044 C 0.13136 0.56313 0.74553 0.0
C1045 C 0.13657 0.56952 0.81328 0.0
C1046 C 0.10177 0.54723 0.7321 0.0
C1047 C 0.14548 0.54923 0.72264 0.0
C1048 C 0.1641 0.56425 0.67974 0.0
C1049 C 0.17904 0.55538 0.65013 0.0
C1050 C 0.17433 0.53018 0.66336 0.0
C1051 C 0.15478 0.51411 0.70548 0.0
C1052 C 0.14055 0.52391 0.73655 0.0
H1053 H 0.62313 0.13578 0.95582 0.0
H1054 H 0.62851 0.13274 0.15138 0.0
H1055 H 0.5871 0.13331 0.16158 0.0
H1056 H 0.59822 0.18072 0.95494 0.0
H1057 H 0.57692 0.16557 0.89098 0.0
H1058 H 0.60664 0.16409 0.89847 0.0
H1059 H 0.57979 0.11346 0.89166 0.0
H1060 H 0.54999 0.11476 0.88416 0.0
H1061 H 0.55303 0.09545 0.94349 0.0
H1062 H 0.54485 0.13266 0.15111 0.0
H1063 H 0.50522 0.13361 0.12171 0.0
H1064 H 0.52798 0.14029 0.9326 0.0
C1065 C 0.61559 0.13518 1.0008 0.0
C1066 C 0.6291 0.13416 0.05287 0.0
C1067 C 0.61861 0.1336 0.11087 0.0
C1068 C 0.59506 0.13385 0.11714 0.0
C1069 C 0.58237 0.13501 0.06502 0.0
C1070 C 0.5923 0.1359 1.00796 0.0
C1071 C 0.57503 0.13784 0.95956 0.0
C1072 C 0.5901 0.16359 0.92389 0.0
C1073 C 0.56379 0.11395 0.91723 0.0
C1074 C 0.55372 0.1377 0.99845 0.0
C1075 C 0.55834 0.13583 0.05906 0.0
C1076 C 0.54115 0.13442 0.10387 0.0
C1077 C 0.51862 0.13503 0.08649 0.0
C1078 C 0.51351 0.13743 0.02474 0.0
C1079 C 0.53143 0.13881 0.98018 0.0
loop_
_geom_bond_atom_site_label_1
_geom_bond_atom_site_label_2
_geom_bond_distance
_geom_bond_site_symmetry_2
_ccdc_geom_bond_type
Mn0 O5 2.095 . S
Mn0 O15 2.162 . S
Mn0 O16 2.297 . S
Mn0 O24 2.385 . S
Mn0 O25 2.209 . S
Mn0 O26 2.094 . S
Mn1 O6 2.121 . S
Mn1 N8 2.257 . S
Mn1 N17 2.282 . S
Mn1 O25 2.215 . S
Mn1 O27 2.117 . S
C2 O24 1.234 . S
C2 O25 1.283 . S
C3 O15 1.281 . S
C3 O16 1.236 . S
C4 O26 1.240 . S
C4 O27 1.264 . S
O5 Mn0 2.095 . S
O5 C14 1.250 . S
O6 Mn1 2.121 . S
O6 C14 1.258 . S
C7 N8 1.326 . S
C7 C11 1.460 . S
C7 H13 0.929 . S
N8 Mn1 2.257 . S
N8 C7 1.326 . S
N8 C12 1.362 . S
C9 C10 1.258 . S
C9 C12 1.431 . S
C9 C29 1.449 . S
C10 C9 1.258 . S
C10 C11 1.477 . S
C10 H30 0.931 . S
C11 C7 1.460 . S
C11 C10 1.477 . S
C11 H31 0.930 . S
C12 N8 1.362 . S
C12 C9 1.431 . S
C12 C22 1.476 . S
H13 C7 0.929 . S
C14 O5 1.250 . S
C14 O6 1.258 . S
O15 Mn0 2.162 . S
O15 C3 1.281 . S
O16 Mn0 2.297 . S
O16 C3 1.236 . S
N17 Mn1 2.282 . S
N17 C18 1.328 . S
N17 C22 1.318 . S
C18 N17 1.328 . S
C18 C19 1.457 . S
C18 H23 0.929 . S
C19 C18 1.457 . S
C19 C20 1.291 . S
C19 H32 0.931 . S
C20 C19 1.291 . S
C20 C21 1.373 . S
C20 H33 0.929 . S
C21 C20 1.373 . S
C21 C22 1.396 . S
C21 C28 1.403 . S
C22 C12 1.476 . S
C22 N17 1.318 . S
C22 C21 1.396 . S
H23 C18 0.929 . S
O24 Mn0 2.385 . S
O24 C2 1.234 . S
O25 Mn0 2.209 . S
O25 Mn1 2.215 . S
O25 C2 1.283 . S
O26 Mn0 2.094 . S
O26 C4 1.240 . S
O27 Mn1 2.117 . S
O27 C4 1.264 . S
C28 C21 1.403 . S
C28 C29 1.399 . S
C28 H34 0.929 . S
C29 C9 1.449 . S
C29 C28 1.399 . S
C29 H35 0.930 . S
H30 C10 0.931 . S
H31 C11 0.930 . S
H32 C19 0.931 . S
H33 C20 0.929 . S
H34 C28 0.929 . S
H35 C29 0.930 . S
Mn36 O41 2.095 . S
Mn36 O51 2.162 . S
Mn36 O52 2.297 . S
Mn36 O60 2.385 . S
Mn36 O61 2.209 . S
Mn36 O62 2.094 . S
Mn37 O42 2.121 . S
Mn37 N44 2.257 . S
Mn37 N53 2.282 . S
Mn37 O61 2.215 . S
Mn37 O63 2.117 . S
C38 O60 1.234 . S
C38 O61 1.283 . S
C39 O51 1.281 . S
C39 O52 1.236 . S
C40 O62 1.240 . S
C40 O63 1.264 . S
O41 Mn36 2.095 . S
O41 C50 1.250 . S
O42 Mn37 2.121 . S
O42 C50 1.258 . S
C43 N44 1.326 . S
C43 C47 1.460 . S
C43 H49 0.929 . S
N44 Mn37 2.257 . S
N44 C43 1.326 . S
N44 C48 1.362 . S
C45 C46 1.258 . S
C45 C48 1.431 . S
C45 C65 1.449 . S
C46 C45 1.258 . S
C46 C47 1.477 . S
C46 H66 0.931 . S
C47 C43 1.460 . S
C47 C46 1.477 . S
C47 H67 0.930 . S
C48 N44 1.362 . S
C48 C45 1.431 . S
C48 C58 1.476 . S
H49 C43 0.929 . S
C50 O41 1.250 . S
C50 O42 1.258 . S
O51 Mn36 2.162 . S
O51 C39 1.281 . S
O52 Mn36 2.297 . S
O52 C39 1.236 . S
N53 Mn37 2.282 . S
N53 C54 1.328 . S
N53 C58 1.318 . S
C54 N53 1.328 . S
C54 C55 1.457 . S
C54 H59 0.929 . S
C55 C54 1.457 . S
C55 C56 1.291 . S
C55 H68 0.931 . S
C56 C55 1.291 . S
C56 C57 1.373 . S
C56 H69 0.929 . S
C57 C56 1.373 . S
C57 C58 1.396 . S
C57 C64 1.403 . S
C58 C48 1.476 . S
C58 N53 1.318 . S
C58 C57 1.396 . S
H59 C54 0.929 . S
O60 Mn36 2.385 . S
O60 C38 1.234 . S
O61 Mn36 2.209 . S
O61 Mn37 2.215 . S
O61 C38 1.283 . S
O62 Mn36 2.094 . S
O62 C40 1.240 . S
O63 Mn37 2.117 . S
O63 C40 1.264 . S
C64 C57 1.403 . S
C64 C65 1.399 . S
C64 H70 0.929 . S
C65 C45 1.449 . S
C65 C64 1.399 . S
C65 H71 0.930 . S
H66 C46 0.931 . S
H67 C47 0.930 . S
H68 C55 0.931 . S
H69 C56 0.929 . S
H70 C64 0.929 . S
H71 C65 0.930 . S
Mn72 O77 2.095 . S
Mn72 O87 2.162 . S
Mn72 O88 2.297 . S
Mn72 O96 2.385 . S
Mn72 O97 2.209 1_556 S
Mn72 O98 2.094 . S
Mn73 O78 2.121 . S
Mn73 N80 2.257 . S
Mn73 N89 2.282 . S
Mn73 O97 2.215 . S
Mn73 O99 2.117 . S
C74 O96 1.234 1_554 S
C74 O97 1.283 . S
C75 O87 1.281 . S
C75 O88 1.236 . S
C76 O98 1.240 . S
C76 O99 1.264 1_556 S
O77 Mn72 2.095 . S
O77 C86 1.250 . S
O78 Mn73 2.121 . S
O78 C86 1.258 1_554 S
C79 N80 1.326 . S
C79 C83 1.460 . S
C79 H85 0.929 . S
N80 Mn73 2.257 . S
N80 C79 1.326 . S
N80 C84 1.362 . S
C81 C82 1.258 . S
C81 C84 1.431 . S
C81 C101 1.449 . S
C82 C81 1.258 . S
C82 C83 1.477 . S
C82 H102 0.931 . S
C83 C79 1.460 . S
C83 C82 1.477 . S
C83 H103 0.930 . S
C84 N80 1.362 . S
C84 C81 1.431 . S
C84 C94 1.476 . S
H85 C79 0.929 . S
C86 O77 1.250 . S
C86 O78 1.258 1_556 S
O87 Mn72 2.162 . S
O87 C75 1.281 . S
O88 Mn72 2.297 . S
O88 C75 1.236 . S
N89 Mn73 2.282 . S
N89 C90 1.328 . S
N89 C94 1.318 . S
C90 N89 1.328 . S
C90 C91 1.457 . S
C90 H95 0.929 . S
C91 C90 1.457 . S
C91 C92 1.291 . S
C91 H104 0.931 . S
C92 C91 1.291 . S
C92 C93 1.373 . S
C92 H105 0.929 . S
C93 C92 1.373 . S
C93 C94 1.396 . S
C93 C100 1.403 . S
C94 C84 1.476 . S
C94 N89 1.318 . S
C94 C93 1.396 . S
H95 C90 0.929 . S
O96 Mn72 2.385 . S
O96 C74 1.234 1_556 S
O97 Mn72 2.209 1_554 S
O97 Mn73 2.215 . S
O97 C74 1.283 . S
O98 Mn72 2.094 . S
O98 C76 1.240 . S
O99 Mn73 2.117 . S
O99 C76 1.264 1_554 S
C100 C93 1.403 . S
C100 C101 1.399 . S
C100 H106 0.929 . S
C101 C81 1.449 . S
C101 C100 1.399 . S
C101 H107 0.930 . S
H102 C82 0.931 . S
H103 C83 0.930 . S
H104 C91 0.931 . S
H105 C92 0.929 . S
H106 C100 0.929 . S
H107 C101 0.930 . S
Mn108 O113 2.095 . S
Mn108 O123 2.162 . S
Mn108 O124 2.297 . S
Mn108 O132 2.385 . S
Mn108 O133 2.209 . S
Mn108 O134 2.094 . S
Mn109 O114 2.121 . S
Mn109 N116 2.257 . S
Mn109 N125 2.282 . S
Mn109 O133 2.215 . S
Mn109 O135 2.117 . S
C110 O132 1.234 . S
C110 O133 1.283 . S
C111 O123 1.281 . S
C111 O124 1.236 . S
C112 O134 1.240 . S
C112 O135 1.264 . S
O113 Mn108 2.095 . S
O113 C122 1.250 . S
O114 Mn109 2.121 . S
O114 C122 1.258 . S
C115 N116 1.326 . S
C115 C119 1.460 . S
C115 H121 0.929 . S
N116 Mn109 2.257 . S
N116 C115 1.326 . S
N116 C120 1.362 . S
C117 C118 1.258 . S
C117 C120 1.431 . S
C117 C137 1.449 . S
C118 C117 1.258 . S
C118 C119 1.477 . S
C118 H138 0.931 . S
C119 C115 1.460 . S
C119 C118 1.477 . S
C119 H139 0.930 . S
C120 N116 1.362 . S
C120 C117 1.431 . S
C120 C130 1.476 . S
H121 C115 0.929 . S
C122 O113 1.250 . S
C122 O114 1.258 . S
O123 Mn108 2.162 . S
O123 C111 1.281 . S
O124 Mn108 2.297 . S
O124 C111 1.236 . S
N125 Mn109 2.282 . S
N125 C126 1.328 . S
N125 C130 1.318 . S
C126 N125 1.328 . S
C126 C127 1.457 . S
C126 H131 0.929 . S
C127 C126 1.457 . S
C127 C128 1.291 . S
C127 H140 0.931 . S
C128 C127 1.291 . S
C128 C129 1.373 . S
C128 H141 0.929 . S
C129 C128 1.373 . S
C129 C130 1.396 . S
C129 C136 1.403 . S
C130 C120 1.476 . S
C130 N125 1.318 . S
C130 C129 1.396 . S
H131 C126 0.929 . S
O132 Mn108 2.385 . S
O132 C110 1.234 . S
O133 Mn108 2.209 . S
O133 Mn109 2.215 . S
O133 C110 1.283 . S
O134 Mn108 2.094 . S
O134 C112 1.240 . S
O135 Mn109 2.117 . S
O135 C112 1.264 . S
C136 C129 1.403 . S
C136 C137 1.399 . S
C136 H142 0.929 . S
C137 C117 1.449 . S
C137 C136 1.399 . S
C137 H143 0.930 . S
H138 C118 0.931 . S
H139 C119 0.930 . S
H140 C127 0.931 . S
H141 C128 0.929 . S
H142 C136 0.929 . S
H143 C137 0.930 . S
Mn144 O149 2.095 . S
Mn144 O159 2.162 . S
Mn144 O160 2.297 . S
Mn144 O168 2.385 . S
Mn144 O169 2.209 . S
Mn144 O170 2.094 . S
Mn145 O150 2.121 . S
Mn145 N152 2.257 . S
Mn145 N161 2.282 . S
Mn145 O169 2.215 . S
Mn145 O171 2.117 . S
C146 O168 1.234 . S
C146 O169 1.283 . S
C147 O159 1.281 . S
C147 O160 1.236 . S
C148 O170 1.240 . S
C148 O171 1.264 . S
O149 Mn144 2.095 . S
O149 C158 1.250 . S
O150 Mn145 2.121 . S
O150 C158 1.258 . S
C151 N152 1.326 . S
C151 C155 1.460 . S
C151 H157 0.929 . S
N152 Mn145 2.257 . S
N152 C151 1.326 . S
N152 C156 1.362 . S
C153 C154 1.258 . S
C153 C156 1.431 . S
C153 C173 1.449 . S
C154 C153 1.258 . S
C154 C155 1.477 . S
C154 H174 0.931 . S
C155 C151 1.460 . S
C155 C154 1.477 . S
C155 H175 0.930 . S
C156 N152 1.362 . S
C156 C153 1.431 . S
C156 C166 1.476 . S
H157 C151 0.929 . S
C158 O149 1.250 . S
C158 O150 1.258 . S
O159 Mn144 2.162 . S
O159 C147 1.281 . S
O160 Mn144 2.297 . S
O160 C147 1.236 . S
N161 Mn145 2.282 . S
N161 C162 1.328 . S
N161 C166 1.318 . S
C162 N161 1.328 . S
C162 C163 1.457 . S
C162 H167 0.929 . S
C163 C162 1.457 . S
C163 C164 1.291 . S
C163 H176 0.931 . S
C164 C163 1.291 . S
C164 C165 1.373 . S
C164 H177 0.929 . S
C165 C164 1.373 . S
C165 C166 1.396 . S
C165 C172 1.403 . S
C166 C156 1.476 . S
C166 N161 1.318 . S
C166 C165 1.396 . S
H167 C162 0.929 . S
O168 Mn144 2.385 . S
O168 C146 1.234 . S
O169 Mn144 2.209 . S
O169 Mn145 2.215 . S
O169 C146 1.283 . S
O170 Mn144 2.094 . S
O170 C148 1.240 . S
O171 Mn145 2.117 . S
O171 C148 1.264 . S
C172 C165 1.403 . S
C172 C173 1.399 . S
C172 H178 0.929 . S
C173 C153 1.449 . S
C173 C172 1.399 . S
C173 H179 0.930 . S
H174 C154 0.931 . S
H175 C155 0.930 . S
H176 C163 0.931 . S
H177 C164 0.929 . S
H178 C172 0.929 . S
H179 C173 0.930 . S
Mn180 O185 2.095 . S
Mn180 O195 2.162 . S
Mn180 O196 2.297 . S
Mn180 O204 2.385 . S
Mn180 O205 2.209 1_556 S
Mn180 O206 2.094 . S
Mn181 O186 2.121 . S
Mn181 N188 2.257 . S
Mn181 N197 2.282 . S
Mn181 O205 2.215 . S
Mn181 O207 2.117 . S
C182 O204 1.234 1_554 S
C182 O205 1.283 . S
C183 O195 1.281 . S
C183 O196 1.236 . S
C184 O206 1.240 . S
C184 O207 1.264 1_556 S
O185 Mn180 2.095 . S
O185 C194 1.250 . S
O186 Mn181 2.121 . S
O186 C194 1.258 1_554 S
C187 N188 1.326 . S
C187 C191 1.460 . S
C187 H193 0.929 . S
N188 Mn181 2.257 . S
N188 C187 1.326 . S
N188 C192 1.362 . S
C189 C190 1.258 . S
C189 C192 1.431 . S
C189 C209 1.449 . S
C190 C189 1.258 . S
C190 C191 1.477 . S
C190 H210 0.931 . S
C191 C187 1.460 . S
C191 C190 1.477 . S
C191 H211 0.930 . S
C192 N188 1.362 . S
C192 C189 1.431 . S
C192 C202 1.476 . S
H193 C187 0.929 . S
C194 O185 1.250 . S
C194 O186 1.258 1_556 S
O195 Mn180 2.162 . S
O195 C183 1.281 . S
O196 Mn180 2.297 . S
O196 C183 1.236 . S
N197 Mn181 2.282 . S
N197 C198 1.328 . S
N197 C202 1.318 . S
C198 N197 1.328 . S
C198 C199 1.457 . S
C198 H203 0.929 . S
C199 C198 1.457 . S
C199 C200 1.291 . S
C199 H212 0.931 . S
C200 C199 1.291 . S
C200 C201 1.373 . S
C200 H213 0.929 . S
C201 C200 1.373 . S
C201 C202 1.396 . S
C201 C208 1.403 . S
C202 C192 1.476 . S
C202 N197 1.318 . S
C202 C201 1.396 . S
H203 C198 0.929 . S
O204 Mn180 2.385 . S
O204 C182 1.234 1_556 S
O205 Mn180 2.209 1_554 S
O205 Mn181 2.215 . S
O205 C182 1.283 . S
O206 Mn180 2.094 . S
O206 C184 1.240 . S
O207 Mn181 2.117 . S
O207 C184 1.264 1_554 S
C208 C201 1.403 . S
C208 C209 1.399 . S
C208 H214 0.929 . S
C209 C189 1.449 . S
C209 C208 1.399 . S
C209 H215 0.930 . S
H210 C190 0.931 . S
H211 C191 0.930 . S
H212 C199 0.931 . S
H213 C200 0.929 . S
H214 C208 0.929 . S
H215 C209 0.930 . S
Mn216 O221 2.095 . S
Mn216 O231 2.162 . S
Mn216 O232 2.297 . S
Mn216 O240 2.385 . S
Mn216 O241 2.209 . S
Mn216 O242 2.094 . S
Mn217 O222 2.121 . S
Mn217 N224 2.257 . S
Mn217 N233 2.282 . S
Mn217 O241 2.215 . S
Mn217 O243 2.117 . S
C218 O240 1.234 . S
C218 O241 1.283 . S
C219 O231 1.281 . S
C219 O232 1.236 . S
C220 O242 1.240 . S
C220 O243 1.264 . S
O221 Mn216 2.095 . S
O221 C230 1.250 . S
O222 Mn217 2.121 . S
O222 C230 1.258 . S
C223 N224 1.326 . S
C223 C227 1.460 . S
C223 H229 0.929 . S
N224 Mn217 2.257 . S
N224 C223 1.326 . S
N224 C228 1.362 . S
C225 C226 1.258 . S
C225 C228 1.431 . S
C225 C245 1.449 . S
C226 C225 1.258 . S
C226 C227 1.477 . S
C226 H246 0.931 . S
C227 C223 1.460 . S
C227 C226 1.477 . S
C227 H247 0.930 . S
C228 N224 1.362 . S
C228 C225 1.431 . S
C228 C238 1.476 . S
H229 C223 0.929 . S
C230 O221 1.250 . S
C230 O222 1.258 . S
O231 Mn216 2.162 . S
O231 C219 1.281 . S
O232 Mn216 2.297 . S
O232 C219 1.236 . S
N233 Mn217 2.282 . S
N233 C234 1.328 . S
N233 C238 1.318 . S
C234 N233 1.328 . S
C234 C235 1.457 . S
C234 H239 0.929 . S
C235 C234 1.457 . S
C235 C236 1.291 . S
C235 H248 0.931 . S
C236 C235 1.291 . S
C236 C237 1.373 . S
C236 H249 0.929 . S
C237 C236 1.373 . S
C237 C238 1.396 . S
C237 C244 1.403 . S
C238 C228 1.476 . S
C238 N233 1.318 . S
C238 C237 1.396 . S
H239 C234 0.929 . S
O240 Mn216 2.385 . S
O240 C218 1.234 . S
O241 Mn216 2.209 . S
O241 Mn217 2.215 . S
O241 C218 1.283 . S
O242 Mn216 2.094 . S
O242 C220 1.240 . S
O243 Mn217 2.117 . S
O243 C220 1.264 . S
C244 C237 1.403 . S
C244 C245 1.399 . S
C244 H250 0.929 . S
C245 C225 1.449 . S
C245 C244 1.399 . S
C245 H251 0.930 . S
H246 C226 0.931 . S
H247 C227 0.930 . S
H248 C235 0.931 . S
H249 C236 0.929 . S
H250 C244 0.929 . S
H251 C245 0.930 . S
Mn252 O257 2.095 . S
Mn252 O267 2.162 . S
Mn252 O268 2.297 . S
Mn252 O276 2.385 . S
Mn252 O277 2.209 . S
Mn252 O278 2.094 . S
Mn253 O258 2.121 . S
Mn253 N260 2.257 . S
Mn253 N269 2.282 . S
Mn253 O277 2.215 . S
Mn253 O279 2.117 . S
C254 O276 1.234 . S
C254 O277 1.283 . S
C255 O267 1.281 . S
C255 O268 1.236 . S
C256 O278 1.240 . S
C256 O279 1.264 . S
O257 Mn252 2.095 . S
O257 C266 1.250 . S
O258 Mn253 2.121 . S
O258 C266 1.258 . S
C259 N260 1.326 . S
C259 C263 1.460 . S
C259 H265 0.929 . S
N260 Mn253 2.257 . S
N260 C259 1.326 . S
N260 C264 1.362 . S
C261 C262 1.258 . S
C261 C264 1.431 . S
C261 C281 1.449 . S
C262 C261 1.258 . S
C262 C263 1.477 . S
C262 H282 0.931 . S
C263 C259 1.460 . S
C263 C262 1.477 . S
C263 H283 0.930 . S
C264 N260 1.362 . S
C264 C261 1.431 . S
C264 C274 1.476 . S
H265 C259 0.929 . S
C266 O257 1.250 . S
C266 O258 1.258 . S
O267 Mn252 2.162 . S
O267 C255 1.281 . S
O268 Mn252 2.297 . S
O268 C255 1.236 . S
N269 Mn253 2.282 . S
N269 C270 1.328 . S
N269 C274 1.318 . S
C270 N269 1.328 . S
C270 C271 1.457 . S
C270 H275 0.929 . S
C271 C270 1.457 . S
C271 C272 1.291 . S
C271 H284 0.931 . S
C272 C271 1.291 . S
C272 C273 1.373 . S
C272 H285 0.929 . S
C273 C272 1.373 . S
C273 C274 1.396 . S
C273 C280 1.403 . S
C274 C264 1.476 . S
C274 N269 1.318 . S
C274 C273 1.396 . S
H275 C270 0.929 . S
O276 Mn252 2.385 . S
O276 C254 1.234 . S
O277 Mn252 2.209 . S
O277 Mn253 2.215 . S
O277 C254 1.283 . S
O278 Mn252 2.094 . S
O278 C256 1.240 . S
O279 Mn253 2.117 . S
O279 C256 1.264 . S
C280 C273 1.403 . S
C280 C281 1.399 . S
C280 H286 0.929 . S
C281 C261 1.449 . S
C281 C280 1.399 . S
C281 H287 0.930 . S
H282 C262 0.931 . S
H283 C263 0.930 . S
H284 C271 0.931 . S
H285 C272 0.929 . S
H286 C280 0.929 . S
H287 C281 0.930 . S
Mn288 O293 2.095 . S
Mn288 O303 2.162 . S
Mn288 O304 2.297 . S
Mn288 O312 2.385 . S
Mn288 O313 2.209 1_554 S
Mn288 O314 2.094 . S
Mn289 O294 2.121 . S
Mn289 N296 2.257 . S
Mn289 N305 2.282 . S
Mn289 O313 2.215 . S
Mn289 O315 2.117 . S
C290 O312 1.234 1_556 S
C290 O313 1.283 . S
C291 O303 1.281 . S
C291 O304 1.236 . S
C292 O314 1.240 . S
C292 O315 1.264 1_554 S
O293 Mn288 2.095 . S
O293 C302 1.250 . S
O294 Mn289 2.121 . S
O294 C302 1.258 1_556 S
C295 N296 1.326 . S
C295 C299 1.460 . S
C295 H301 0.929 . S
N296 Mn289 2.257 . S
N296 C295 1.326 . S
N296 C300 1.362 . S
C297 C298 1.258 . S
C297 C300 1.431 . S
C297 C317 1.449 . S
C298 C297 1.258 . S
C298 C299 1.477 . S
C298 H318 0.931 . S
C299 C295 1.460 . S
C299 C298 1.477 . S
C299 H319 0.930 . S
C300 N296 1.362 . S
C300 C297 1.431 . S
C300 C310 1.476 . S
H301 C295 0.929 . S
C302 O293 1.250 . S
C302 O294 1.258 1_554 S
O303 Mn288 2.162 . S
O303 C291 1.281 . S
O304 Mn288 2.297 . S
O304 C291 1.236 . S
N305 Mn289 2.282 . S
N305 C306 1.328 . S
N305 C310 1.318 . S
C306 N305 1.328 . S
C306 C307 1.457 . S
C306 H311 0.929 . S
C307 C306 1.457 . S
C307 C308 1.291 . S
C307 H320 0.931 . S
C308 C307 1.291 . S
C308 C309 1.373 . S
C308 H321 0.929 . S
C309 C308 1.373 . S
C309 C310 1.396 . S
C309 C316 1.403 . S
C310 C300 1.476 . S
C310 N305 1.318 . S
C310 C309 1.396 . S
H311 C306 0.929 . S
O312 Mn288 2.385 . S
O312 C290 1.234 1_554 S
O313 Mn288 2.209 1_556 S
O313 Mn289 2.215 . S
O313 C290 1.283 . S
O314 Mn288 2.094 . S
O314 C292 1.240 . S
O315 Mn289 2.117 . S
O315 C292 1.264 1_556 S
C316 C309 1.403 . S
C316 C317 1.399 . S
C316 H322 0.929 . S
C317 C297 1.449 . S
C317 C316 1.399 . S
C317 H323 0.930 . S
H318 C298 0.931 . S
H319 C299 0.930 . S
H320 C307 0.931 . S
H321 C308 0.929 . S
H322 C316 0.929 . S
H323 C317 0.930 . S
Mn324 O329 2.095 . S
Mn324 O339 2.162 . S
Mn324 O340 2.297 . S
Mn324 O348 2.385 . S
Mn324 O349 2.209 . S
Mn324 O350 2.094 . S
Mn325 O330 2.121 . S
Mn325 N332 2.257 . S
Mn325 N341 2.282 . S
Mn325 O349 2.215 . S
Mn325 O351 2.117 . S
C326 O348 1.234 . S
C326 O349 1.283 . S
C327 O339 1.281 . S
C327 O340 1.236 . S
C328 O350 1.240 . S
C328 O351 1.264 . S
O329 Mn324 2.095 . S
O329 C338 1.250 . S
O330 Mn325 2.121 . S
O330 C338 1.258 . S
C331 N332 1.326 . S
C331 C335 1.460 . S
C331 H337 0.929 . S
N332 Mn325 2.257 . S
N332 C331 1.326 . S
N332 C336 1.362 . S
C333 C334 1.258 . S
C333 C336 1.431 . S
C333 C353 1.449 . S
C334 C333 1.258 . S
C334 C335 1.477 . S
C334 H354 0.931 . S
C335 C331 1.460 . S
C335 C334 1.477 . S
C335 H355 0.930 . S
C336 N332 1.362 . S
C336 C333 1.431 . S
C336 C346 1.476 . S
H337 C331 0.929 . S
C338 O329 1.250 . S
C338 O330 1.258 . S
O339 Mn324 2.162 . S
O339 C327 1.281 . S
O340 Mn324 2.297 . S
O340 C327 1.236 . S
N341 Mn325 2.282 . S
N341 C342 1.328 . S
N341 C346 1.318 . S
C342 N341 1.328 . S
C342 C343 1.457 . S
C342 H347 0.929 . S
C343 C342 1.457 . S
C343 C344 1.291 . S
C343 H356 0.931 . S
C344 C343 1.291 . S
C344 C345 1.373 . S
C344 H357 0.929 . S
C345 C344 1.373 . S
C345 C346 1.396 . S
C345 C352 1.403 . S
C346 C336 1.476 . S
C346 N341 1.318 . S
C346 C345 1.396 . S
H347 C342 0.929 . S
O348 Mn324 2.385 . S
O348 C326 1.234 . S
O349 Mn324 2.209 . S
O349 Mn325 2.215 . S
O349 C326 1.283 . S
O350 Mn324 2.094 . S
O350 C328 1.240 . S
O351 Mn325 2.117 . S
O351 C328 1.264 . S
C352 C345 1.403 . S
C352 C353 1.399 . S
C352 H358 0.929 . S
C353 C333 1.449 . S
C353 C352 1.399 . S
C353 H359 0.930 . S
H354 C334 0.931 . S
H355 C335 0.930 . S
H356 C343 0.931 . S
H357 C344 0.929 . S
H358 C352 0.929 . S
H359 C353 0.930 . S
Mn360 O365 2.095 . S
Mn360 O375 2.162 . S
Mn360 O376 2.297 . S
Mn360 O384 2.385 . S
Mn360 O385 2.209 . S
Mn360 O386 2.094 . S
Mn361 O366 2.121 . S
Mn361 N368 2.257 . S
Mn361 N377 2.282 . S
Mn361 O385 2.215 . S
Mn361 O387 2.117 . S
C362 O384 1.234 . S
C362 O385 1.283 . S
C363 O375 1.281 . S
C363 O376 1.236 . S
C364 O386 1.240 . S
C364 O387 1.264 . S
O365 Mn360 2.095 . S
O365 C374 1.250 . S
O366 Mn361 2.121 . S
O366 C374 1.258 . S
C367 N368 1.326 . S
C367 C371 1.460 . S
C367 H373 0.929 . S
N368 Mn361 2.257 . S
N368 C367 1.326 . S
N368 C372 1.362 . S
C369 C370 1.258 . S
C369 C372 1.431 . S
C369 C389 1.449 . S
C370 C369 1.258 . S
C370 C371 1.477 . S
C370 H390 0.931 . S
C371 C367 1.460 . S
C371 C370 1.477 . S
C371 H391 0.930 . S
C372 N368 1.362 . S
C372 C369 1.431 . S
C372 C382 1.476 . S
H373 C367 0.929 . S
C374 O365 1.250 . S
C374 O366 1.258 . S
O375 Mn360 2.162 . S
O375 C363 1.281 . S
O376 Mn360 2.297 . S
O376 C363 1.236 . S
N377 Mn361 2.282 . S
N377 C378 1.328 . S
N377 C382 1.318 . S
C378 N377 1.328 . S
C378 C379 1.457 . S
C378 H383 0.929 . S
C379 C378 1.457 . S
C379 C380 1.291 . S
C379 H392 0.931 . S
C380 C379 1.291 . S
C380 C381 1.373 . S
C380 H393 0.929 . S
C381 C380 1.373 . S
C381 C382 1.396 . S
C381 C388 1.403 . S
C382 C372 1.476 . S
C382 N377 1.318 . S
C382 C381 1.396 . S
H383 C378 0.929 . S
O384 Mn360 2.385 . S
O384 C362 1.234 . S
O385 Mn360 2.209 . S
O385 Mn361 2.215 . S
O385 C362 1.283 . S
O386 Mn360 2.094 . S
O386 C364 1.240 . S
O387 Mn361 2.117 . S
O387 C364 1.264 . S
C388 C381 1.403 . S
C388 C389 1.399 . S
C388 H394 0.929 . S
C389 C369 1.449 . S
C389 C388 1.399 . S
C389 H395 0.930 . S
H390 C370 0.931 . S
H391 C371 0.930 . S
H392 C379 0.931 . S
H393 C380 0.929 . S
H394 C388 0.929 . S
H395 C389 0.930 . S
Mn396 O401 2.095 . S
Mn396 O411 2.162 . S
Mn396 O412 2.297 . S
Mn396 O420 2.385 . S
Mn396 O421 2.209 1_554 S
Mn396 O422 2.094 . S
Mn397 O402 2.121 . S
Mn397 N404 2.257 . S
Mn397 N413 2.282 . S
Mn397 O421 2.215 . S
Mn397 O423 2.117 . S
C398 O420 1.234 1_556 S
C398 O421 1.283 . S
C399 O411 1.281 . S
C399 O412 1.236 . S
C400 O422 1.240 . S
C400 O423 1.264 1_554 S
O401 Mn396 2.095 . S
O401 C410 1.250 . S
O402 Mn397 2.121 . S
O402 C410 1.258 1_556 S
C403 N404 1.326 . S
C403 C407 1.460 . S
C403 H409 0.929 . S
N404 Mn397 2.257 . S
N404 C403 1.326 . S
N404 C408 1.362 . S
C405 C406 1.258 . S
C405 C408 1.431 . S
C405 C425 1.449 . S
C406 C405 1.258 . S
C406 C407 1.477 . S
C406 H426 0.931 . S
C407 C403 1.460 . S
C407 C406 1.477 . S
C407 H427 0.930 . S
C408 N404 1.362 . S
C408 C405 1.431 . S
C408 C418 1.476 . S
H409 C403 0.929 . S
C410 O401 1.250 . S
C410 O402 1.258 1_554 S
O411 Mn396 2.162 . S
O411 C399 1.281 . S
O412 Mn396 2.297 . S
O412 C399 1.236 . S
N413 Mn397 2.282 . S
N413 C414 1.328 . S
N413 C418 1.318 . S
C414 N413 1.328 . S
C414 C415 1.457 . S
C414 H419 0.929 . S
C415 C414 1.457 . S
C415 C416 1.291 . S
C415 H428 0.931 . S
C416 C415 1.291 . S
C416 C417 1.373 . S
C416 H429 0.929 . S
C417 C416 1.373 . S
C417 C418 1.396 . S
C417 C424 1.403 . S
C418 C408 1.476 . S
C418 N413 1.318 . S
C418 C417 1.396 . S
H419 C414 0.929 . S
O420 Mn396 2.385 . S
O420 C398 1.234 1_554 S
O421 Mn396 2.209 1_556 S
O421 Mn397 2.215 . S
O421 C398 1.283 . S
O422 Mn396 2.094 . S
O422 C400 1.240 . S
O423 Mn397 2.117 . S
O423 C400 1.264 1_556 S
C424 C417 1.403 . S
C424 C425 1.399 . S
C424 H430 0.929 . S
C425 C405 1.449 . S
C425 C424 1.399 . S
C425 H431 0.930 . S
H426 C406 0.931 . S
H427 C407 0.930 . S
H428 C415 0.931 . S
H429 C416 0.929 . S
H430 C424 0.929 . S
H431 C425 0.930 . S
H432 C444 0.930 . S
H433 C446 0.930 . S
H434 C447 0.930 . S
H435 C451 0.959 . S
H436 C451 0.959 . S
H437 C451 0.961 . S
H438 C452 0.960 . S
H439 C452 0.961 . S
H440 C452 0.959 . S
H441 C455 0.929 . S
H442 C456 0.931 . S
H443 C458 0.930 . S
C444 H432 0.930 . S
C444 C445 1.399 . S
C444 C449 1.399 . S
C445 C444 1.399 . S
C445 C446 1.376 . S
C446 H433 0.930 . S
C446 C445 1.376 . S
C446 C447 1.388 . S
C447 H434 0.930 . S
C447 C446 1.388 . S
C447 C448 1.390 . S
C448 C447 1.390 . S
C448 C449 1.394 . S
C448 C454 1.465 . S
C449 C444 1.399 . S
C449 C448 1.394 . S
C449 C450 1.516 . S
C450 C449 1.516 . S
C450 C451 1.502 . S
C450 C452 1.561 . S
C450 C453 1.526 . S
C451 H435 0.959 . S
C451 H436 0.959 . S
C451 H437 0.961 . S
C451 C450 1.502 . S
C452 H438 0.960 . S
C452 H439 0.961 . S
C452 H440 0.959 . S
C452 C450 1.561 . S
C453 C450 1.526 . S
C453 C454 1.396 . S
C453 C458 1.390 . S
C454 C448 1.465 . S
C454 C453 1.396 . S
C454 C455 1.399 . S
C455 H441 0.929 . S
C455 C454 1.399 . S
C455 C456 1.385 . S
C456 H442 0.931 . S
C456 C455 1.385 . S
C456 C457 1.389 . S
C457 C456 1.389 . S
C457 C458 1.387 . S
C458 H443 0.930 . S
C458 C453 1.390 . S
C458 C457 1.387 . S
H459 C471 0.930 . S
H460 C473 0.930 . S
H461 C474 0.930 . S
H462 C478 0.959 . S
H463 C478 0.959 . S
H464 C478 0.961 . S
H465 C479 0.960 . S
H466 C479 0.961 . S
H467 C479 0.959 . S
H468 C482 0.929 . S
H469 C483 0.931 . S
H470 C485 0.930 . S
C471 H459 0.930 . S
C471 C472 1.399 . S
C471 C476 1.399 . S
C472 C471 1.399 . S
C472 C473 1.376 . S
C473 H460 0.930 . S
C473 C472 1.376 . S
C473 C474 1.388 . S
C474 H461 0.930 . S
C474 C473 1.388 . S
C474 C475 1.390 . S
C475 C474 1.390 . S
C475 C476 1.394 . S
C475 C481 1.465 1_655 S
C476 C471 1.399 . S
C476 C475 1.394 . S
C476 C477 1.516 1_655 S
C477 C476 1.516 1_455 S
C477 C478 1.502 . S
C477 C479 1.561 . S
C477 C480 1.526 . S
C478 H462 0.959 . S
C478 H463 0.959 . S
C478 H464 0.961 . S
C478 C477 1.502 . S
C479 H465 0.960 . S
C479 H466 0.961 . S
C479 H467 0.959 . S
C479 C477 1.561 . S
C480 C477 1.526 . S
C480 C481 1.396 . S
C480 C485 1.390 . S
C481 C475 1.465 1_455 S
C481 C480 1.396 . S
C481 C482 1.399 . S
C482 H468 0.929 . S
C482 C481 1.399 . S
C482 C483 1.385 . S
C483 H469 0.931 . S
C483 C482 1.385 . S
C483 C484 1.389 . S
C484 C483 1.389 . S
C484 C485 1.387 . S
C485 H470 0.930 . S
C485 C480 1.390 . S
C485 C484 1.387 . S
H486 C498 0.930 . S
H487 C500 0.930 . S
H488 C501 0.930 . S
H489 C505 0.959 . S
H490 C505 0.959 . S
H491 C505 0.961 . S
H492 C506 0.960 . S
H493 C506 0.961 . S
H494 C506 0.959 . S
H495 C509 0.929 . S
H496 C510 0.931 . S
H497 C512 0.930 . S
C498 H486 0.930 . S
C498 C499 1.399 . S
C498 C503 1.399 . S
C499 C498 1.399 . S
C499 C500 1.376 1_556 S
C500 H487 0.930 . S
C500 C499 1.376 1_554 S
C500 C501 1.388 . S
C501 H488 0.930 . S
C501 C500 1.388 . S
C501 C502 1.390 . S
C502 C501 1.390 . S
C502 C503 1.394 1_554 S
C502 C508 1.465 1_565 S
C503 C498 1.399 . S
C503 C502 1.394 1_556 S
C503 C504 1.516 1_565 S
C504 C503 1.516 1_545 S
C504 C505 1.502 . S
C504 C506 1.561 . S
C504 C507 1.526 . S
C505 H489 0.959 . S
C505 H490 0.959 . S
C505 H491 0.961 . S
C505 C504 1.502 . S
C506 H492 0.960 . S
C506 H493 0.961 . S
C506 H494 0.959 . S
C506 C504 1.561 . S
C507 C504 1.526 . S
C507 C508 1.396 1_556 S
C507 C512 1.390 . S
C508 C502 1.465 1_545 S
C508 C507 1.396 1_554 S
C508 C509 1.399 . S
C509 H495 0.929 . S
C509 C508 1.399 . S
C509 C510 1.385 . S
C510 H496 0.931 . S
C510 C509 1.385 . S
C510 C511 1.389 . S
C511 C510 1.389 . S
C511 C512 1.387 1_554 S
C512 H497 0.930 . S
C512 C507 1.390 . S
C512 C511 1.387 1_556 S
H513 C525 0.930 . S
H514 C527 0.930 . S
H515 C528 0.930 . S
H516 C532 0.959 . S
H517 C532 0.959 . S
H518 C532 0.961 . S
H519 C533 0.960 . S
H520 C533 0.961 . S
H521 C533 0.959 . S
H522 C536 0.929 . S
H523 C537 0.931 . S
H524 C539 0.930 . S
C525 H513 0.930 . S
C525 C526 1.399 . S
C525 C530 1.399 . S
C526 C525 1.399 . S
C526 C527 1.376 . S
C527 H514 0.930 . S
C527 C526 1.376 . S
C527 C528 1.388 . S
C528 H515 0.930 . S
C528 C527 1.388 . S
C528 C529 1.390 . S
C529 C528 1.390 . S
C529 C530 1.394 . S
C529 C535 1.465 . S
C530 C525 1.399 . S
C530 C529 1.394 . S
C530 C531 1.516 . S
C531 C530 1.516 . S
C531 C532 1.502 . S
C531 C533 1.561 . S
C531 C534 1.526 . S
C532 H516 0.959 . S
C532 H517 0.959 . S
C532 H518 0.961 . S
C532 C531 1.502 . S
C533 H519 0.960 . S
C533 H520 0.961 . S
C533 H521 0.959 . S
C533 C531 1.561 . S
C534 C531 1.526 . S
C534 C535 1.396 . S
C534 C539 1.390 . S
C535 C529 1.465 . S
C535 C534 1.396 . S
C535 C536 1.399 . S
C536 H522 0.929 . S
C536 C535 1.399 . S
C536 C537 1.385 . S
C537 H523 0.931 . S
C537 C536 1.385 . S
C537 C538 1.389 . S
C538 C537 1.389 . S
C538 C539 1.387 . S
C539 H524 0.930 . S
C539 C534 1.390 . S
C539 C538 1.387 . S
H540 C552 0.930 . S
H541 C554 0.930 . S
H542 C555 0.930 . S
H543 C559 0.959 . S
H544 C559 0.959 1_455 S
H545 C559 0.961 . S
H546 C560 0.960 1_655 S
H547 C560 0.961 . S
H548 C560 0.959 . S
H549 C563 0.929 . S
H550 C564 0.931 . S
H551 C566 0.930 . S
C552 H540 0.930 . S
C552 C553 1.399 . S
C552 C557 1.399 . S
C553 C552 1.399 . S
C553 C554 1.376 . S
C554 H541 0.930 . S
C554 C553 1.376 . S
C554 C555 1.388 . S
C555 H542 0.930 . S
C555 C554 1.388 . S
C555 C556 1.390 . S
C556 C555 1.390 . S
C556 C557 1.394 . S
C556 C562 1.465 1_655 S
C557 C552 1.399 . S
C557 C556 1.394 . S
C557 C558 1.516 1_655 S
C558 C557 1.516 1_455 S
C558 C559 1.502 1_455 S
C558 C560 1.561 . S
C558 C561 1.526 . S
C559 H543 0.959 . S
C559 H544 0.959 1_655 S
C559 H545 0.961 . S
C559 C558 1.502 1_655 S
C560 H546 0.960 1_455 S
C560 H547 0.961 . S
C560 H548 0.959 . S
C560 C558 1.561 . S
C561 C558 1.526 . S
C561 C562 1.396 . S
C561 C566 1.390 . S
C562 C556 1.465 1_455 S
C562 C561 1.396 . S
C562 C563 1.399 . S
C563 H549 0.929 . S
C563 C562 1.399 . S
C563 C564 1.385 . S
C564 H550 0.931 . S
C564 C563 1.385 . S
C564 C565 1.389 . S
C565 C564 1.389 . S
C565 C566 1.387 . S
C566 H551 0.930 . S
C566 C561 1.390 . S
C566 C565 1.387 . S
H567 C579 0.930 . S
H568 C581 0.930 . S
H569 C582 0.930 . S
H570 C586 0.959 . S
H571 C586 0.959 . S
H572 C586 0.959 1_565 S
H573 C587 0.960 . S
H574 C587 0.961 . S
H575 C587 0.959 . S
H576 C590 0.929 . S
H577 C591 0.931 . S
H578 C593 0.930 . S
C579 H567 0.930 . S
C579 C580 1.399 . S
C579 C584 1.399 . S
C580 C579 1.399 . S
C580 C581 1.376 1_554 S
C581 H568 0.930 . S
C581 C580 1.376 1_556 S
C581 C582 1.388 . S
C582 H569 0.930 . S
C582 C581 1.388 . S
C582 C583 1.390 . S
C583 C582 1.390 . S
C583 C584 1.394 1_556 S
C583 C589 1.465 1_565 S
C584 C579 1.399 . S
C584 C583 1.394 1_554 S
C584 C585 1.516 1_565 S
C585 C584 1.516 1_545 S
C585 C586 1.502 . S
C585 C587 1.561 . S
C585 C588 1.526 . S
C586 H570 0.959 . S
C586 H571 0.959 . S
C586 H572 0.959 1_545 S
C586 C585 1.502 . S
C587 H573 0.960 . S
C587 H574 0.961 . S
C587 H575 0.959 . S
C587 C585 1.561 . S
C588 C585 1.526 . S
C588 C589 1.396 1_554 S
C588 C593 1.390 . S
C589 C583 1.465 1_545 S
C589 C588 1.396 1_556 S
C589 C590 1.399 . S
C590 H576 0.929 . S
C590 C589 1.399 . S
C590 C591 1.385 . S
C591 H577 0.931 . S
C591 C590 1.385 . S
C591 C592 1.389 . S
C592 C591 1.389 . S
C592 C593 1.387 1_556 S
C593 H578 0.930 . S
C593 C588 1.390 . S
C593 C592 1.387 1_554 S
H594 C606 0.930 . S
H595 C608 0.930 . S
H596 C609 0.930 . S
H597 C613 0.959 . S
H598 C613 0.959 . S
H599 C613 0.961 . S
H600 C614 0.960 1_556 S
H601 C614 0.961 . S
H602 C614 0.959 . S
H603 C617 0.929 . S
H604 C618 0.931 . S
H605 C620 0.930 . S
C606 H594 0.930 . S
C606 C607 1.399 . S
C606 C611 1.399 . S
C607 C606 1.399 . S
C607 C608 1.376 . S
C608 H595 0.930 . S
C608 C607 1.376 . S
C608 C609 1.388 . S
C609 H596 0.930 . S
C609 C608 1.388 . S
C609 C610 1.390 . S
C610 C609 1.390 . S
C610 C611 1.394 . S
C610 C616 1.465 1_556 S
C611 C606 1.399 . S
C611 C610 1.394 . S
C611 C612 1.516 . S
C612 C611 1.516 . S
C612 C613 1.502 . S
C612 C614 1.561 1_556 S
C612 C615 1.526 1_556 S
C613 H597 0.959 . S
C613 H598 0.959 . S
C613 H599 0.961 . S
C613 C612 1.502 . S
C614 H600 0.960 1_554 S
C614 H601 0.961 . S
C614 H602 0.959 . S
C614 C612 1.561 1_554 S
C615 C612 1.526 1_554 S
C615 C616 1.396 . S
C615 C620 1.390 . S
C616 C610 1.465 1_554 S
C616 C615 1.396 . S
C616 C617 1.399 . S
C617 H603 0.929 . S
C617 C616 1.399 . S
C617 C618 1.385 . S
C618 H604 0.931 . S
C618 C617 1.385 . S
C618 C619 1.389 . S
C619 C618 1.389 . S
C619 C620 1.387 . S
C620 H605 0.930 . S
C620 C615 1.390 . S
C620 C619 1.387 . S
H621 C633 0.930 . S
H622 C635 0.930 . S
H623 C636 0.930 . S
H624 C640 0.959 . S
H625 C640 0.959 . S
H626 C640 0.961 . S
H627 C641 0.960 . S
H628 C641 0.961 . S
H629 C641 0.959 . S
H630 C644 0.929 . S
H631 C645 0.931 . S
H632 C647 0.930 . S
C633 H621 0.930 . S
C633 C634 1.399 . S
C633 C638 1.399 . S
C634 C633 1.399 . S
C634 C635 1.376 . S
C635 H622 0.930 . S
C635 C634 1.376 . S
C635 C636 1.388 . S
C636 H623 0.930 . S
C636 C635 1.388 . S
C636 C637 1.390 . S
C637 C636 1.390 . S
C637 C638 1.394 . S
C637 C643 1.465 . S
C638 C633 1.399 . S
C638 C637 1.394 . S
C638 C639 1.516 . S
C639 C638 1.516 . S
C639 C640 1.502 . S
C639 C641 1.561 . S
C639 C642 1.526 . S
C640 H624 0.959 . S
C640 H625 0.959 . S
C640 H626 0.961 . S
C640 C639 1.502 . S
C641 H627 0.960 . S
C641 H628 0.961 . S
C641 H629 0.959 . S
C641 C639 1.561 . S
C642 C639 1.526 . S
C642 C643 1.396 . S
C642 C647 1.390 . S
C643 C637 1.465 . S
C643 C642 1.396 . S
C643 C644 1.399 . S
C644 H630 0.929 . S
C644 C643 1.399 . S
C644 C645 1.385 . S
C645 H631 0.931 . S
C645 C644 1.385 . S
C645 C646 1.389 . S
C646 C645 1.389 . S
C646 C647 1.387 . S
C647 H632 0.930 . S
C647 C642 1.390 . S
C647 C646 1.387 . S
H648 C660 0.930 . S
H649 C662 0.930 . S
H650 C663 0.930 . S
H651 C667 0.959 . S
H652 C667 0.959 . S
H653 C667 0.961 . S
H654 C668 0.960 . S
H655 C668 0.961 . S
H656 C668 0.959 . S
H657 C671 0.929 . S
H658 C672 0.931 . S
H659 C674 0.930 . S
C660 H648 0.930 . S
C660 C661 1.399 . S
C660 C665 1.399 . S
C661 C660 1.399 . S
C661 C662 1.376 . S
C662 H649 0.930 . S
C662 C661 1.376 . S
C662 C663 1.388 . S
C663 H650 0.930 . S
C663 C662 1.388 . S
C663 C664 1.390 . S
C664 C663 1.390 . S
C664 C665 1.394 . S
C664 C670 1.465 . S
C665 C660 1.399 . S
C665 C664 1.394 . S
C665 C666 1.516 . S
C666 C665 1.516 . S
C666 C667 1.502 . S
C666 C668 1.561 . S
C666 C669 1.526 . S
C667 H651 0.959 . S
C667 H652 0.959 . S
C667 H653 0.961 . S
C667 C666 1.502 . S
C668 H654 0.960 . S
C668 H655 0.961 . S
C668 H656 0.959 . S
C668 C666 1.561 . S
C669 C666 1.526 . S
C669 C670 1.396 . S
C669 C674 1.390 . S
C670 C664 1.465 . S
C670 C669 1.396 . S
C670 C671 1.399 . S
C671 H657 0.929 . S
C671 C670 1.399 . S
C671 C672 1.385 . S
C672 H658 0.931 . S
C672 C671 1.385 . S
C672 C673 1.389 . S
C673 C672 1.389 . S
C673 C674 1.387 . S
C674 H659 0.930 . S
C674 C669 1.390 . S
C674 C673 1.387 . S
H675 C687 0.930 . S
H676 C689 0.930 . S
H677 C690 0.930 . S
H678 C694 0.959 . S
H679 C694 0.959 . S
H680 C694 0.961 . S
H681 C695 0.960 1_554 S
H682 C695 0.961 . S
H683 C695 0.959 1_554 S
H684 C698 0.929 . S
H685 C699 0.931 . S
H686 C701 0.930 . S
C687 H675 0.930 . S
C687 C688 1.399 . S
C687 C692 1.399 . S
C688 C687 1.399 . S
C688 C689 1.376 . S
C689 H676 0.930 . S
C689 C688 1.376 . S
C689 C690 1.388 . S
C690 H677 0.930 . S
C690 C689 1.388 . S
C690 C691 1.390 . S
C691 C690 1.390 . S
C691 C692 1.394 . S
C691 C697 1.465 1_554 S
C692 C687 1.399 . S
C692 C691 1.394 . S
C692 C693 1.516 1_554 S
C693 C692 1.516 1_556 S
C693 C694 1.502 . S
C693 C695 1.561 . S
C693 C696 1.526 . S
C694 H678 0.959 . S
C694 H679 0.959 . S
C694 H680 0.961 . S
C694 C693 1.502 . S
C695 H681 0.960 1_556 S
C695 H682 0.961 . S
C695 H683 0.959 1_556 S
C695 C693 1.561 . S
C696 C693 1.526 . S
C696 C697 1.396 . S
C696 C701 1.390 . S
C697 C691 1.465 1_556 S
C697 C696 1.396 . S
C697 C698 1.399 . S
C698 H684 0.929 . S
C698 C697 1.399 . S
C698 C699 1.385 . S
C699 H685 0.931 . S
C699 C698 1.385 . S
C699 C700 1.389 . S
C700 C699 1.389 . S
C700 C701 1.387 . S
C701 H686 0.930 . S
C701 C696 1.390 . S
C701 C700 1.387 . S
H702 C714 0.930 . S
H703 C716 0.930 . S
H704 C717 0.930 . S
H705 C721 0.959 . S
H706 C721 0.959 . S
H707 C721 0.961 . S
H708 C722 0.960 . S
H709 C722 0.961 . S
H710 C722 0.959 . S
H711 C725 0.929 . S
H712 C726 0.931 . S
H713 C728 0.930 . S
C714 H702 0.930 . S
C714 C715 1.399 . S
C714 C719 1.399 . S
C715 C714 1.399 . S
C715 C716 1.376 . S
C716 H703 0.930 . S
C716 C715 1.376 . S
C716 C717 1.388 . S
C717 H704 0.930 . S
C717 C716 1.388 . S
C717 C718 1.390 . S
C718 C717 1.390 . S
C718 C719 1.394 . S
C718 C724 1.465 . S
C719 C714 1.399 . S
C719 C718 1.394 . S
C719 C720 1.516 . S
C720 C719 1.516 . S
C720 C721 1.502 . S
C720 C722 1.561 . S
C720 C723 1.526 . S
C721 H705 0.959 . S
C721 H706 0.959 . S
C721 H707 0.961 . S
C721 C720 1.502 . S
C722 H708 0.960 . S
C722 H709 0.961 . S
C722 H710 0.959 . S
C722 C720 1.561 . S
C723 C720 1.526 . S
C723 C724 1.396 . S
C723 C728 1.390 . S
C724 C718 1.465 . S
C724 C723 1.396 . S
C724 C725 1.399 . S
C725 H711 0.929 . S
C725 C724 1.399 . S
C725 C726 1.385 . S
C726 H712 0.931 . S
C726 C725 1.385 . S
C726 C727 1.389 . S
C727 C726 1.389 . S
C727 C728 1.387 . S
C728 H713 0.930 . S
C728 C723 1.390 . S
C728 C727 1.387 . S
H729 C741 0.930 . S
H730 C743 0.930 . S
H731 C744 0.930 . S
H732 C748 0.959 . S
H733 C748 0.959 . S
H734 C748 0.961 . S
H735 C749 0.960 . S
H736 C749 0.961 . S
H737 C749 0.959 . S
H738 C752 0.929 . S
H739 C753 0.931 . S
H740 C755 0.930 . S
C741 H729 0.930 . S
C741 C742 1.399 . S
C741 C746 1.399 . S
C742 C741 1.399 . S
C742 C743 1.376 . S
C743 H730 0.930 . S
C743 C742 1.376 . S
C743 C744 1.388 . S
C744 H731 0.930 . S
C744 C743 1.388 . S
C744 C745 1.390 . S
C745 C744 1.390 . S
C745 C746 1.394 . S
C745 C751 1.465 . S
C746 C741 1.399 . S
C746 C745 1.394 . S
C746 C747 1.516 . S
C747 C746 1.516 . S
C747 C748 1.502 . S
C747 C749 1.561 . S
C747 C750 1.526 . S
C748 H732 0.959 . S
C748 H733 0.959 . S
C748 H734 0.961 . S
C748 C747 1.502 . S
C749 H735 0.960 . S
C749 H736 0.961 . S
C749 H737 0.959 . S
C749 C747 1.561 . S
C750 C747 1.526 . S
C750 C751 1.396 . S
C750 C755 1.390 . S
C751 C745 1.465 . S
C751 C750 1.396 . S
C751 C752 1.399 . S
C752 H738 0.929 . S
C752 C751 1.399 . S
C752 C753 1.385 . S
C753 H739 0.931 . S
C753 C752 1.385 . S
C753 C754 1.389 . S
C754 C753 1.389 . S
C754 C755 1.387 . S
C755 H740 0.930 . S
C755 C750 1.390 . S
C755 C754 1.387 . S
H756 C768 0.930 . S
H757 C770 0.930 . S
H758 C771 0.930 . S
H759 C775 0.959 . S
H760 C775 0.959 . S
H761 C775 0.961 . S
H762 C776 0.960 . S
H763 C776 0.961 . S
H764 C776 0.959 . S
H765 C779 0.929 . S
H766 C780 0.931 . S
H767 C782 0.930 . S
C768 H756 0.930 . S
C768 C769 1.399 . S
C768 C773 1.399 . S
C769 C768 1.399 . S
C769 C770 1.376 . S
C770 H757 0.930 . S
C770 C769 1.376 . S
C770 C771 1.388 . S
C771 H758 0.930 . S
C771 C770 1.388 . S
C771 C772 1.390 . S
C772 C771 1.390 . S
C772 C773 1.394 . S
C772 C778 1.465 . S
C773 C768 1.399 . S
C773 C772 1.394 . S
C773 C774 1.516 . S
C774 C773 1.516 . S
C774 C775 1.502 . S
C774 C776 1.561 . S
C774 C777 1.526 . S
C775 H759 0.959 . S
C775 H760 0.959 . S
C775 H761 0.961 . S
C775 C774 1.502 . S
C776 H762 0.960 . S
C776 H763 0.961 . S
C776 H764 0.959 . S
C776 C774 1.561 . S
C777 C774 1.526 . S
C777 C778 1.396 . S
C777 C782 1.390 . S
C778 C772 1.465 . S
C778 C777 1.396 . S
C778 C779 1.399 . S
C779 H765 0.929 . S
C779 C778 1.399 . S
C779 C780 1.385 . S
C780 H766 0.931 . S
C780 C779 1.385 . S
C780 C781 1.389 . S
C781 C780 1.389 . S
C781 C782 1.387 . S
C782 H767 0.930 . S
C782 C777 1.390 . S
C782 C781 1.387 . S
H783 C795 0.930 . S
H784 C797 0.930 . S
H785 C798 0.930 . S
H786 C802 0.959 . S
H787 C802 0.959 . S
H788 C802 0.961 . S
H789 C803 0.960 . S
H790 C803 0.961 . S
H791 C803 0.959 . S
H792 C806 0.929 . S
H793 C807 0.931 . S
H794 C809 0.930 . S
C795 H783 0.930 . S
C795 C796 1.399 . S
C795 C800 1.399 . S
C796 C795 1.399 . S
C796 C797 1.376 . S
C797 H784 0.930 . S
C797 C796 1.376 . S
C797 C798 1.388 . S
C798 H785 0.930 . S
C798 C797 1.388 . S
C798 C799 1.390 . S
C799 C798 1.390 . S
C799 C800 1.394 . S
C799 C805 1.465 . S
C800 C795 1.399 . S
C800 C799 1.394 . S
C800 C801 1.516 . S
C801 C800 1.516 . S
C801 C802 1.502 . S
C801 C803 1.561 . S
C801 C804 1.526 . S
C802 H786 0.959 . S
C802 H787 0.959 . S
C802 H788 0.961 . S
C802 C801 1.502 . S
C803 H789 0.960 . S
C803 H790 0.961 . S
C803 H791 0.959 . S
C803 C801 1.561 . S
C804 C801 1.526 . S
C804 C805 1.396 . S
C804 C809 1.390 . S
C805 C799 1.465 . S
C805 C804 1.396 . S
C805 C806 1.399 . S
C806 H792 0.929 . S
C806 C805 1.399 . S
C806 C807 1.385 . S
C807 H793 0.931 . S
C807 C806 1.385 . S
C807 C808 1.389 . S
C808 C807 1.389 . S
C808 C809 1.387 . S
C809 H794 0.930 . S
C809 C804 1.390 . S
C809 C808 1.387 . S
H810 C822 0.930 . S
H811 C824 0.930 . S
H812 C825 0.930 . S
H813 C829 0.959 . S
H814 C829 0.959 . S
H815 C829 0.961 . S
H816 C830 0.960 . S
H817 C830 0.961 . S
H818 C830 0.959 . S
H819 C833 0.929 . S
H820 C834 0.931 . S
H821 C836 0.930 . S
C822 H810 0.930 . S
C822 C823 1.399 . S
C822 C827 1.399 . S
C823 C822 1.399 . S
C823 C824 1.376 . S
C824 H811 0.930 . S
C824 C823 1.376 . S
C824 C825 1.388 . S
C825 H812 0.930 . S
C825 C824 1.388 . S
C825 C826 1.390 . S
C826 C825 1.390 . S
C826 C827 1.394 . S
C826 C832 1.465 . S
C827 C822 1.399 . S
C827 C826 1.394 . S
C827 C828 1.516 . S
C828 C827 1.516 . S
C828 C829 1.502 . S
C828 C830 1.561 . S
C828 C831 1.526 . S
C829 H813 0.959 . S
C829 H814 0.959 . S
C829 H815 0.961 . S
C829 C828 1.502 . S
C830 H816 0.960 . S
C830 H817 0.961 . S
C830 H818 0.959 . S
C830 C828 1.561 . S
C831 C828 1.526 . S
C831 C832 1.396 . S
C831 C836 1.390 . S
C832 C826 1.465 . S
C832 C831 1.396 . S
C832 C833 1.399 . S
C833 H819 0.929 . S
C833 C832 1.399 . S
C833 C834 1.385 . S
C834 H820 0.931 . S
C834 C833 1.385 . S
C834 C835 1.389 . S
C835 C834 1.389 . S
C835 C836 1.387 . S
C836 H821 0.930 . S
C836 C831 1.390 . S
C836 C835 1.387 . S
H837 C849 0.930 . S
H838 C851 0.930 . S
H839 C852 0.930 . S
H840 C856 0.959 . S
H841 C856 0.959 . S
H842 C856 0.961 . S
H843 C857 0.960 . S
H844 C857 0.961 . S
H845 C857 0.959 . S
H846 C860 0.929 . S
H847 C861 0.931 . S
H848 C863 0.930 . S
C849 H837 0.930 . S
C849 C850 1.399 . S
C849 C854 1.399 . S
C850 C849 1.399 . S
C850 C851 1.376 . S
C851 H838 0.930 . S
C851 C850 1.376 . S
C851 C852 1.388 . S
C852 H839 0.930 . S
C852 C851 1.388 . S
C852 C853 1.390 . S
C853 C852 1.390 . S
C853 C854 1.394 . S
C853 C859 1.465 . S
C854 C849 1.399 . S
C854 C853 1.394 . S
C854 C855 1.516 . S
C855 C854 1.516 . S
C855 C856 1.502 . S
C855 C857 1.561 . S
C855 C858 1.526 . S
C856 H840 0.959 . S
C856 H841 0.959 . S
C856 H842 0.961 . S
C856 C855 1.502 . S
C857 H843 0.960 . S
C857 H844 0.961 . S
C857 H845 0.959 . S
C857 C855 1.561 . S
C858 C855 1.526 . S
C858 C859 1.396 . S
C858 C863 1.390 . S
C859 C853 1.465 . S
C859 C858 1.396 . S
C859 C860 1.399 . S
C860 H846 0.929 . S
C860 C859 1.399 . S
C860 C861 1.385 . S
C861 H847 0.931 . S
C861 C860 1.385 . S
C861 C862 1.389 . S
C862 C861 1.389 . S
C862 C863 1.387 . S
C863 H848 0.930 . S
C863 C858 1.390 . S
C863 C862 1.387 . S
H864 C876 0.930 . S
H865 C878 0.930 . S
H866 C879 0.930 . S
H867 C883 0.959 . S
H868 C883 0.959 . S
H869 C883 0.961 . S
H870 C884 0.960 . S
H871 C884 0.961 . S
H872 C884 0.959 . S
H873 C887 0.929 . S
H874 C888 0.931 . S
H875 C890 0.930 . S
C876 H864 0.930 . S
C876 C877 1.399 . S
C876 C881 1.399 . S
C877 C876 1.399 . S
C877 C878 1.376 . S
C878 H865 0.930 . S
C878 C877 1.376 . S
C878 C879 1.388 . S
C879 H866 0.930 . S
C879 C878 1.388 . S
C879 C880 1.390 . S
C880 C879 1.390 . S
C880 C881 1.394 . S
C880 C886 1.465 . S
C881 C876 1.399 . S
C881 C880 1.394 . S
C881 C882 1.516 . S
C882 C881 1.516 . S
C882 C883 1.502 . S
C882 C884 1.561 . S
C882 C885 1.526 . S
C883 H867 0.959 . S
C883 H868 0.959 . S
C883 H869 0.961 . S
C883 C882 1.502 . S
C884 H870 0.960 . S
C884 H871 0.961 . S
C884 H872 0.959 . S
C884 C882 1.561 . S
C885 C882 1.526 . S
C885 C886 1.396 . S
C885 C890 1.390 . S
C886 C880 1.465 . S
C886 C885 1.396 . S
C886 C887 1.399 . S
C887 H873 0.929 . S
C887 C886 1.399 . S
C887 C888 1.385 . S
C888 H874 0.931 . S
C888 C887 1.385 . S
C888 C889 1.389 . S
C889 C888 1.389 . S
C889 C890 1.387 . S
C890 H875 0.930 . S
C890 C885 1.390 . S
C890 C889 1.387 . S
H891 C903 0.930 . S
H892 C905 0.930 . S
H893 C906 0.930 . S
H894 C910 0.959 . S
H895 C910 0.959 . S
H896 C910 0.961 . S
H897 C911 0.960 . S
H898 C911 0.961 . S
H899 C911 0.959 . S
H900 C914 0.929 . S
H901 C915 0.931 . S
H902 C917 0.930 . S
C903 H891 0.930 . S
C903 C904 1.399 . S
C903 C908 1.399 . S
C904 C903 1.399 . S
C904 C905 1.376 . S
C905 H892 0.930 . S
C905 C904 1.376 . S
C905 C906 1.388 . S
C906 H893 0.930 . S
C906 C905 1.388 . S
C906 C907 1.390 . S
C907 C906 1.390 . S
C907 C908 1.394 . S
C907 C913 1.465 . S
C908 C903 1.399 . S
C908 C907 1.394 . S
C908 C909 1.516 . S
C909 C908 1.516 . S
C909 C910 1.502 . S
C909 C911 1.561 . S
C909 C912 1.526 . S
C910 H894 0.959 . S
C910 H895 0.959 . S
C910 H896 0.961 . S
C910 C909 1.502 . S
C911 H897 0.960 . S
C911 H898 0.961 . S
C911 H899 0.959 . S
C911 C909 1.561 . S
C912 C909 1.526 . S
C912 C913 1.396 . S
C912 C917 1.390 . S
C913 C907 1.465 . S
C913 C912 1.396 . S
C913 C914 1.399 . S
C914 H900 0.929 . S
C914 C913 1.399 . S
C914 C915 1.385 . S
C915 H901 0.931 . S
C915 C914 1.385 . S
C915 C916 1.389 . S
C916 C915 1.389 . S
C916 C917 1.387 . S
C917 H902 0.930 . S
C917 C912 1.390 . S
C917 C916 1.387 . S
H918 C930 0.930 . S
H919 C932 0.930 . S
H920 C933 0.930 . S
H921 C937 0.959 . S
H922 C937 0.959 . S
H923 C937 0.961 . S
H924 C938 0.960 . S
H925 C938 0.961 . S
H926 C938 0.959 . S
H927 C941 0.929 . S
H928 C942 0.931 . S
H929 C944 0.930 . S
C930 H918 0.930 . S
C930 C931 1.399 . S
C930 C935 1.399 . S
C931 C930 1.399 . S
C931 C932 1.376 . S
C932 H919 0.930 . S
C932 C931 1.376 . S
C932 C933 1.388 . S
C933 H920 0.930 . S
C933 C932 1.388 . S
C933 C934 1.390 . S
C934 C933 1.390 . S
C934 C935 1.394 . S
C934 C940 1.465 . S
C935 C930 1.399 . S
C935 C934 1.394 . S
C935 C936 1.516 . S
C936 C935 1.516 . S
C936 C937 1.502 . S
C936 C938 1.561 . S
C936 C939 1.526 . S
C937 H921 0.959 . S
C937 H922 0.959 . S
C937 H923 0.961 . S
C937 C936 1.502 . S
C938 H924 0.960 . S
C938 H925 0.961 . S
C938 H926 0.959 . S
C938 C936 1.561 . S
C939 C936 1.526 . S
C939 C940 1.396 . S
C939 C944 1.390 . S
C940 C934 1.465 . S
C940 C939 1.396 . S
C940 C941 1.399 . S
C941 H927 0.929 . S
C941 C940 1.399 . S
C941 C942 1.385 . S
C942 H928 0.931 . S
C942 C941 1.385 . S
C942 C943 1.389 . S
C943 C942 1.389 . S
C943 C944 1.387 . S
C944 H929 0.930 . S
C944 C939 1.390 . S
C944 C943 1.387 . S
H945 C957 0.930 . S
H946 C959 0.930 . S
H947 C960 0.930 . S
H948 C964 0.959 . S
H949 C964 0.959 . S
H950 C964 0.961 . S
H951 C965 0.960 . S
H952 C965 0.961 . S
H953 C965 0.959 . S
H954 C968 0.929 . S
H955 C969 0.931 . S
H956 C971 0.930 . S
C957 H945 0.930 . S
C957 C958 1.399 . S
C957 C962 1.399 . S
C958 C957 1.399 . S
C958 C959 1.376 . S
C959 H946 0.930 . S
C959 C958 1.376 . S
C959 C960 1.388 . S
C960 H947 0.930 . S
C960 C959 1.388 . S
C960 C961 1.390 . S
C961 C960 1.390 . S
C961 C962 1.394 . S
C961 C967 1.465 . S
C962 C957 1.399 . S
C962 C961 1.394 . S
C962 C963 1.516 . S
C963 C962 1.516 . S
C963 C964 1.502 . S
C963 C965 1.561 . S
C963 C966 1.526 . S
C964 H948 0.959 . S
C964 H949 0.959 . S
C964 H950 0.961 . S
C964 C963 1.502 . S
C965 H951 0.960 . S
C965 H952 0.961 . S
C965 H953 0.959 . S
C965 C963 1.561 . S
C966 C963 1.526 . S
C966 C967 1.396 . S
C966 C971 1.390 . S
C967 C961 1.465 . S
C967 C966 1.396 . S
C967 C968 1.399 . S
C968 H954 0.929 . S
C968 C967 1.399 . S
C968 C969 1.385 . S
C969 H955 0.931 . S
C969 C968 1.385 . S
C969 C970 1.389 . S
C970 C969 1.389 . S
C970 C971 1.387 . S
C971 H956 0.930 . S
C971 C966 1.390 . S
C971 C970 1.387 . S
H972 C984 0.930 . S
H973 C986 0.930 . S
H974 C987 0.930 . S
H975 C991 0.959 . S
H976 C991 0.959 1_554 S
H977 C991 0.961 . S
H978 C992 0.960 . S
H979 C992 0.961 . S
H980 C992 0.959 . S
H981 C995 0.929 . S
H982 C996 0.931 . S
H983 C998 0.930 . S
C984 H972 0.930 . S
C984 C985 1.399 1_554 S
C984 C989 1.399 . S
C985 C984 1.399 1_556 S
C985 C986 1.376 . S
C986 H973 0.930 . S
C986 C985 1.376 . S
C986 C987 1.388 . S
C987 H974 0.930 . S
C987 C986 1.388 . S
C987 C988 1.390 . S
C988 C987 1.390 . S
C988 C989 1.394 1_556 S
C988 C994 1.466 . S
C989 C984 1.399 . S
C989 C988 1.394 1_554 S
C989 C990 1.516 . S
C990 C989 1.516 . S
C990 C991 1.502 1_554 S
C990 C992 1.561 . S
C990 C993 1.526 . S
C991 H975 0.959 . S
C991 H976 0.959 1_556 S
C991 H977 0.961 . S
C991 C990 1.502 1_556 S
C992 H978 0.960 . S
C992 H979 0.961 . S
C992 H980 0.959 . S
C992 C990 1.561 . S
C993 C990 1.526 . S
C993 C994 1.392 1_554 S
C993 C998 1.390 . S
C994 C988 1.466 . S
C994 C993 1.392 1_556 S
C994 C995 1.401 . S
C995 H981 0.929 . S
C995 C994 1.401 . S
C995 C996 1.385 . S
C996 H982 0.931 . S
C996 C995 1.385 . S
C996 C997 1.389 1_556 S
C997 C996 1.389 1_554 S
C997 C998 1.387 . S
C998 H983 0.930 . S
C998 C993 1.390 . S
C998 C997 1.387 . S
H999 C1011 0.930 . S
H1000 C1013 0.930 . S
H1001 C1014 0.930 . S
H1002 C1018 0.959 . S
H1003 C1018 0.959 . S
H1004 C1018 0.961 . S
H1005 C1019 0.960 . S
H1006 C1019 0.961 . S
H1007 C1019 0.959 . S
H1008 C1022 0.929 . S
H1009 C1023 0.931 . S
H1010 C1025 0.930 . S
C1011 H999 0.930 . S
C1011 C1012 1.399 . S
C1011 C1016 1.399 . S
C1012 C1011 1.399 . S
C1012 C1013 1.376 . S
C1013 H1000 0.930 . S
C1013 C1012 1.376 . S
C1013 C1014 1.388 . S
C1014 H1001 0.930 . S
C1014 C1013 1.388 . S
C1014 C1015 1.390 . S
C1015 C1014 1.390 . S
C1015 C1016 1.394 . S
C1015 C1021 1.465 . S
C1016 C1011 1.399 . S
C1016 C1015 1.394 . S
C1016 C1017 1.516 . S
C1017 C1016 1.516 . S
C1017 C1018 1.502 . S
C1017 C1019 1.561 . S
C1017 C1020 1.526 . S
C1018 H1002 0.959 . S
C1018 H1003 0.959 . S
C1018 H1004 0.961 . S
C1018 C1017 1.502 . S
C1019 H1005 0.960 . S
C1019 H1006 0.961 . S
C1019 H1007 0.959 . S
C1019 C1017 1.561 . S
C1020 C1017 1.526 . S
C1020 C1021 1.396 . S
C1020 C1025 1.390 . S
C1021 C1015 1.465 . S
C1021 C1020 1.396 . S
C1021 C1022 1.399 . S
C1022 H1008 0.929 . S
C1022 C1021 1.399 . S
C1022 C1023 1.385 . S
C1023 H1009 0.931 . S
C1023 C1022 1.385 . S
C1023 C1024 1.389 . S
C1024 C1023 1.389 . S
C1024 C1025 1.387 . S
C1025 H1010 0.930 . S
C1025 C1020 1.390 . S
C1025 C1024 1.387 . S
H1026 C1038 0.930 . S
H1027 C1040 0.930 . S
H1028 C1041 0.930 . S
H1029 C1045 0.959 . S
H1030 C1045 0.959 . S
H1031 C1045 0.961 . S
H1032 C1046 0.960 . S
H1033 C1046 0.961 . S
H1034 C1046 0.959 . S
H1035 C1049 0.929 . S
H1036 C1050 0.931 . S
H1037 C1052 0.930 . S
C1038 H1026 0.930 . S
C1038 C1039 1.399 . S
C1038 C1043 1.399 . S
C1039 C1038 1.399 . S
C1039 C1040 1.376 . S
C1040 H1027 0.930 . S
C1040 C1039 1.376 . S
C1040 C1041 1.388 . S
C1041 H1028 0.930 . S
C1041 C1040 1.388 . S
C1041 C1042 1.390 . S
C1042 C1041 1.390 . S
C1042 C1043 1.394 . S
C1042 C1048 1.465 . S
C1043 C1038 1.399 . S
C1043 C1042 1.394 . S
C1043 C1044 1.516 . S
C1044 C1043 1.516 . S
C1044 C1045 1.502 . S
C1044 C1046 1.561 . S
C1044 C1047 1.526 . S
C1045 H1029 0.959 . S
C1045 H1030 0.959 . S
C1045 H1031 0.961 . S
C1045 C1044 1.502 . S
C1046 H1032 0.960 . S
C1046 H1033 0.961 . S
C1046 H1034 0.959 . S
C1046 C1044 1.561 . S
C1047 C1044 1.526 . S
C1047 C1048 1.396 . S
C1047 C1052 1.390 . S
C1048 C1042 1.465 . S
C1048 C1047 1.396 . S
C1048 C1049 1.399 . S
C1049 H1035 0.929 . S
C1049 C1048 1.399 . S
C1049 C1050 1.385 . S
C1050 H1036 0.931 . S
C1050 C1049 1.385 . S
C1050 C1051 1.389 . S
C1051 C1050 1.389 . S
C1051 C1052 1.387 . S
C1052 H1037 0.930 . S
C1052 C1047 1.390 . S
C1052 C1051 1.387 . S
H1053 C1065 0.930 . S
H1054 C1067 0.930 . S
H1055 C1068 0.930 . S
H1056 C1072 0.959 . S
H1057 C1072 0.959 . S
H1058 C1072 0.961 . S
H1059 C1073 0.960 . S
H1060 C1073 0.961 . S
H1061 C1073 0.959 1_554 S
H1062 C1076 0.929 . S
H1063 C1077 0.931 . S
H1064 C1079 0.930 . S
C1065 H1053 0.930 . S
C1065 C1066 1.399 1_556 S
C1065 C1070 1.399 . S
C1066 C1065 1.399 1_554 S
C1066 C1067 1.376 . S
C1067 H1054 0.930 . S
C1067 C1066 1.376 . S
C1067 C1068 1.388 . S
C1068 H1055 0.930 . S
C1068 C1067 1.388 . S
C1068 C1069 1.390 . S
C1069 C1068 1.390 . S
C1069 C1070 1.394 1_554 S
C1069 C1075 1.465 . S
C1070 C1065 1.399 . S
C1070 C1069 1.394 1_556 S
C1070 C1071 1.516 . S
C1071 C1070 1.516 . S
C1071 C1072 1.502 . S
C1071 C1073 1.561 . S
C1071 C1074 1.526 . S
C1072 H1056 0.959 . S
C1072 H1057 0.959 . S
C1072 H1058 0.961 . S
C1072 C1071 1.502 . S
C1073 H1059 0.960 . S
C1073 H1060 0.961 . S
C1073 H1061 0.959 1_556 S
C1073 C1071 1.561 . S
C1074 C1071 1.526 . S
C1074 C1075 1.396 1_556 S
C1074 C1079 1.390 . S
C1075 C1069 1.465 . S
C1075 C1074 1.396 1_554 S
C1075 C1076 1.399 . S
C1076 H1062 0.929 . S
C1076 C1075 1.399 . S
C1076 C1077 1.385 . S
C1077 H1063 0.931 . S
C1077 C1076 1.385 . S
C1077 C1078 1.389 1_554 S
C1078 C1077 1.389 1_556 S
C1078 C1079 1.387 . S
C1079 H1064 0.930 . S
C1079 C1074 1.390 . S
C1079 C1078 1.387 . S
C445 C14 1.151 . S
C457 C338 1.228 . S
C472 C50 1.139 . S
C484 C374 1.260 . S
C499 C86 1.140 . S
C511 C410 1.269 . S
C526 C122 1.271 . S
C538 C230 1.188 . S
C553 C266 1.195 . S
C565 C158 1.177 . S
C580 C302 1.143 . S
C592 C194 1.242 . S
C607 C363 1.740 . S
C619 C3 1.741 . S
C634 C39 1.731 . S
C646 C399 1.729 . S
C661 C75 1.728 . S
C673 C219 1.730 . S
C688 C111 1.717 . S
C700 C255 1.716 . S
C715 C147 1.718 . S
C727 C291 1.721 . S
C742 C183 1.719 . S
C754 C327 1.717 . S
C769 C362 0.941 . S
C781 C2 0.931 . S
C796 C38 0.948 . S
C808 C398 0.968 . S
C823 C74 0.940 . S
C835 C218 0.931 . S
C850 C110 0.932 . S
C862 C254 0.933 . S
C877 C146 0.938 . S
C889 C290 0.957 . S
C904 C182 0.962 . S
C916 C326 0.977 . S
C931 C4 1.635 . S
C943 C220 1.639 . S
C958 C256 1.632 . S
C970 C40 1.636 . S
C985 C76 1.631 . S
C997 C292 1.632 . S
C1012 C112 1.634 . S
C1024 C328 1.638 . S
C1039 C148 1.636 . S
C1051 C364 1.633 . S
C1066 C400 1.638 . S
C1078 C184 1.636 . S
